drugbank_target|P35222 Catenin beta-1 (DB03904)
 OpenBabel12092119443D

  0  0  0     0  0            999 V3000
M  V30 BEGIN CTAB
M  V30 COUNTS 11960 12065 0 0 0
M  V30 BEGIN ATOM
M  V30 1 H -0.908 1.98254 -0.117106 0
M  V30 2 N 0 1.576 0 0
M  V30 3 C 0.933 2.03868 1.02534 0
M  V30 4 C 1.911 0.928543 1.3348 0
M  V30 5 O 3.095 1.19667 1.45644 0
M  V30 6 C 0.222 2.43627 2.35294 0
M  V30 7 C -0.732 3.65373 2.2001 0
M  V30 8 S 0.101 5.13292 1.52614 0
M  V30 9 C 1.257 5.56322 2.86805 0
M  V30 10 H 1.49 2.90518 0.631377 0
M  V30 11 H -0.977 1.52953 0.210867 0
M  V30 12 H 0.981 2.67203 3.11629 0
M  V30 13 H -0.358 1.57376 2.7183 0
M  V30 14 H -1.165 3.90944 3.18086 0
M  V30 15 H -1.563 3.418 1.51819 0
M  V30 16 H 0.729 5.58782 3.83104 0
M  V30 17 H 1.672 6.56266 2.65933 0
M  V30 18 H 2.08 4.83886 2.90714 0
M  V30 19 N 1.4781 -0.272755 1.55222 0
M  V30 20 C 2.4411 -1.32041 1.87344 0
M  V30 21 C 3.4411 -1.42342 0.74803 0
M  V30 22 O 4.6311 -1.41488 1.0162 0
M  V30 23 C 1.7631 -2.70173 2.07893 0
M  V30 24 H 2.9561 -1.04789 2.80997 0
M  V30 25 H 0.5091 -0.51083 1.47717 0
M  V30 26 H 1.2441 -3.02605 1.16622 0
M  V30 27 H 1.0291 -2.64082 2.89833 0
M  V30 28 H 2.5191 -3.45869 2.34017 0
M  V30 29 N 2.9562 -1.48159 -0.537278 0
M  V30 30 C 4.1842 -1.59454 -1.31841 0
M  V30 31 C 4.5992 -0.252065 -1.8711 0
M  V30 32 O 3.9562 0.757621 -1.66031 0
M  V30 33 C 4.0072 -2.63546 -2.47439 0
M  V30 34 O 3.7282 -3.92583 -1.94449 0
M  V30 35 C 5.2292 -2.85212 -3.39366 0
M  V30 36 H 2.4492 -0.53785 -0.401196 0
M  V30 37 H 4.9932 -1.93932 -0.648891 0
M  V30 38 H 3.1482 -2.31946 -3.1029 0
M  V30 39 H 3.5622 -4.49629 -2.70063 0
M  V30 40 H 5.0362 -3.61863 -4.16844 0
M  V30 41 H 5.5132 -1.93765 -3.94147 0
M  V30 42 H 6.1192 -3.18086 -2.82314 0
M  V30 43 N 4.4343 0.785586 -1.36625 0
M  V30 44 C 5.3663 1.90711 -1.2713 0
M  V30 45 C 6.3793 1.61688 -0.189986 0
M  V30 46 O 7.5683 1.72864 -0.445014 0
M  V30 47 C 4.6683 3.25611 -0.939713 0
M  V30 48 C 3.8413 3.82385 -2.12369 0
M  V30 49 C 2.9003 4.95732 -1.76456 0
M  V30 50 O 1.9263 5.12047 -2.48589 0
M  V30 51 N 3.1283 5.76258 -0.700492 0
M  V30 52 H 5.8933 1.99376 -2.23762 0
M  V30 53 H 3.4543 0.964041 -1.30069 0
M  V30 54 H 5.4463 3.98937 -0.680554 0
M  V30 55 H 4.0163 3.12538 -0.0624074 0
M  V30 56 H 3.2363 3.01001 -2.54543 0
M  V30 57 H 4.5243 4.17047 -2.9146 0
M  V30 58 H 3.9223 5.65609 -0.101624 0
M  V30 59 H 2.4793 6.4987 -0.501165 0
M  V30 60 N 5.9124 1.20967 1.01018 0
M  V30 61 C 6.8754 0.965918 2.07853 0
M  V30 62 C 7.8754 -0.0610545 1.60684 0
M  V30 63 O 9.0654 0.175681 1.73312 0
M  V30 64 C 6.1974 0.455513 3.37843 0
M  V30 65 H 7.3904 1.91365 2.3091 0
M  V30 66 H 4.9434 1.02594 1.17916 0
M  V30 67 H 5.6784 -0.497381 3.20463 0
M  V30 68 H 5.4634 1.19622 3.73407 0
M  V30 69 H 6.9534 0.304667 4.16487 0
M  V30 70 N 7.3905 -1.2043 1.01659 0
M  V30 71 C 8.6675 -1.8548 0.621004 0
M  V30 72 C 9.0475 -1.9091 -0.900919 0
M  V30 73 O 8.3955 -1.41694 -1.79263 0
M  V30 74 C 8.6055 -3.25119 1.2688 0
M  V30 75 C 9.9535 -4.01403 1.38423 0
M  V30 76 O 10.9775 -3.34473 1.22501 0
M  V30 77 O 9.8365 -5.21265 1.64151 0
M  V30 78 H 6.9305 -0.798761 0.214266 0
M  V30 79 H 9.4765 -1.28019 1.11396 0
M  V30 80 H 8.2485 -3.15932 2.30873 0
M  V30 81 H 7.8715 -3.90212 0.762917 0
M  V30 82 N 8.8686 -0.792821 -1.36206 0
M  V30 83 C 9.7986 -0.207853 -2.32573 0
M  V30 84 C 10.7796 0.659055 -1.56813 0
M  V30 85 O 11.9646 0.592176 -1.84951 0
M  V30 86 C 9.0946 0.655449 -3.41059 0
M  V30 87 C 8.0486 -0.111842 -4.27854 0
M  V30 88 C 7.3746 0.872274 -5.27537 0
M  V30 89 C 8.6746 -1.30299 -5.05786 0
M  V30 90 H 10.3686 -1.01294 -2.81744 0
M  V30 91 H 7.9146 -0.48854 -1.3546 0
M  V30 92 H 9.8676 1.07464 -4.07467 0
M  V30 93 H 8.5916 1.49328 -2.90463 0
M  V30 94 H 7.2506 -0.512053 -3.63006 0
M  V30 95 H 6.8986 1.70523 -4.73214 0
M  V30 96 H 6.5986 0.363291 -5.86476 0
M  V30 97 H 8.1226 1.28996 -5.96818 0
M  V30 98 H 9.5366 -0.959379 -5.65216 0
M  V30 99 H 7.9336 -1.7455 -5.74154 0
M  V30 100 H 9.0036 -2.09663 -4.37229 0
M  V30 101 N 10.3467 1.47872 -0.545128 0
M  V30 102 C 11.2797 2.2675 0.256885 0
M  V30 103 C 12.2577 1.33293 0.931228 0
M  V30 104 O 13.4417 1.62657 0.95262 0
M  V30 105 C 10.5687 3.09976 1.36501 0
M  V30 106 C 9.6147 4.1892 0.800496 0
M  V30 107 S 10.4477 5.34397 -0.343505 0
M  V30 108 C 11.6037 6.21186 0.766733 0
M  V30 109 H 11.8367 2.94425 -0.412479 0
M  V30 110 H 9.3697 1.50806 -0.331204 0
M  V30 111 H 11.3277 3.585 1.9997 0
M  V30 112 H 9.9887 2.41686 2.00616 0
M  V30 113 H 9.1817 4.76836 1.63227 0
M  V30 114 H 8.7837 3.73215 0.242217 0
M  V30 115 H 11.0757 6.56804 1.66178 0
M  V30 116 H 12.0187 7.07742 0.225204 0
M  V30 117 H 12.4267 5.54574 1.05396 0
M  V30 118 N 11.8248 0.280983 1.55075 0
M  V30 119 C 12.7348 -0.61388 2.26426 0
M  V30 120 C 13.7508 -1.16521 1.29224 0
M  V30 121 O 14.9268 -1.19426 1.62171 0
M  V30 122 C 11.9918 -1.7788 2.9759 0
M  V30 123 C 11.0528 -1.26355 4.10284 0
M  V30 124 C 10.2858 -2.37295 4.78045 0
M  V30 125 O 10.5088 -3.56777 4.45047 0
M  V30 126 O 9.4428 -2.05119 5.65871 0
M  V30 127 H 13.2688 -0.0356932 3.03679 0
M  V30 128 H 10.8538 0.0481686 1.49322 0
M  V30 129 H 12.7358 -2.45791 3.42293 0
M  V30 130 H 11.4108 -2.34397 2.23249 0
M  V30 131 H 10.3178 -0.550735 3.70024 0
M  V30 132 H 11.6508 -0.744065 4.86543 0
M  V30 133 N 13.3029 -1.57598 0.00835791 0
M  V30 134 C 14.2329 -2.1198 -0.979113 0
M  V30 135 C 15.2139 -1.03091 -1.35301 0
M  V30 136 O 16.3989 -1.30818 -1.43528 0
M  V30 137 C 13.5289 -2.62995 -2.26828 0
M  V30 138 C 12.4829 -3.76485 -2.03576 0
M  V30 139 C 11.8089 -4.13846 -3.38579 0
M  V30 140 C 13.1089 -5.0342 -1.39161 0
M  V30 141 H 14.8029 -2.94738 -0.526281 0
M  V30 142 H 12.3489 -1.41783 -0.251704 0
M  V30 143 H 14.3019 -2.99669 -2.96271 0
M  V30 144 H 13.0259 -1.7737 -2.7424 0
M  V30 145 H 11.6849 -3.40217 -1.36557 0
M  V30 146 H 11.3329 -3.25232 -3.83709 0
M  V30 147 H 11.0329 -4.90312 -3.23834 0
M  V30 148 H 12.5569 -4.53086 -4.09323 0
M  V30 149 H 13.9709 -5.37812 -1.98573 0
M  V30 150 H 12.3679 -5.84746 -1.34878 0
M  V30 151 H 13.4379 -4.83548 -0.361868 0
M  V30 152 N 14.781 0.264519 -1.55364 0
M  V30 153 C 16.058 1.01677 -1.67096 0
M  V30 154 C 16.438 2.03996 -0.543015 0
M  V30 155 O 15.786 2.23907 0.45585 0
M  V30 156 C 15.996 1.66596 -3.0667 0
M  V30 157 C 17.344 2.17442 -3.64697 0
M  V30 158 O 18.368 1.76568 -3.09358 0
M  V30 159 O 17.227 2.92439 -4.61673 0
M  V30 160 H 14.321 0.472161 -0.678965 0
M  V30 161 H 16.867 0.259703 -1.67701 0
M  V30 162 H 15.639 0.924962 -3.80211 0
M  V30 163 H 15.262 2.48968 -3.10001 0
M  V30 164 N 16.2591 1.48442 0.529413 0
M  V30 165 C 17.1921 1.57577 1.65059 0
M  V30 166 C 18.1701 0.426198 1.56915 0
M  V30 167 O 19.3541 0.637877 1.77379 0
M  V30 168 C 16.4811 1.5043 3.03461 0
M  V30 169 C 15.5271 2.70235 3.29962 0
M  V30 170 S 16.3601 4.32198 3.16172 0
M  V30 171 C 17.5161 4.2765 4.57019 0
M  V30 172 H 17.7491 2.52427 1.5706 0
M  V30 173 H 15.2821 1.36982 0.712417 0
M  V30 174 H 17.2401 1.46992 3.8328 0
M  V30 175 H 15.9011 0.569167 3.089 0
M  V30 176 H 15.0941 2.61374 4.30929 0
M  V30 177 H 14.6961 2.70938 2.57815 0
M  V30 178 H 16.9881 3.97618 5.48549 0
M  V30 179 H 17.9311 5.28797 4.70934 0
M  V30 180 H 18.3391 3.5811 4.36368 0
M  V30 181 N 17.7372 -0.778329 1.37039 0
M  V30 182 C 18.7002 -1.87301 1.32102 0
M  V30 183 C 19.7002 -1.59198 0.226405 0
M  V30 184 O 20.8902 -1.67403 0.481861 0
M  V30 185 C 18.0222 -3.24309 1.05055 0
M  V30 186 H 19.2152 -1.93093 2.29467 0
M  V30 187 H 16.7682 -0.977358 1.21973 0
M  V30 188 H 17.5032 -3.24196 0.0819373 0
M  V30 189 H 17.2882 -3.46098 1.84279 0
M  V30 190 H 18.7782 -4.04382 1.04234 0
M  V30 191 N 19.2153 -1.21501 -1.00376 0
M  V30 192 C 20.1483 -0.918669 -2.08892 0
M  V30 193 C 21.1263 0.134277 -1.62045 0
M  V30 194 O 22.3103 0.00504255 -1.88499 0
M  V30 195 C 19.4373 -0.379645 -3.36566 0
M  V30 196 C 18.4833 -1.41559 -4.02323 0
M  V30 197 S 19.3163 -2.98521 -4.44574 0
M  V30 198 C 20.4723 -2.46228 -5.75433 0
M  V30 199 H 20.7053 -1.83761 -2.33707 0
M  V30 200 H 18.2383 -1.04489 -1.13673 0
M  V30 201 H 20.1963 -0.0752195 -4.10431 0
M  V30 202 H 18.8573 0.518008 -3.09799 0
M  V30 203 H 18.0503 -0.988076 -4.9422 0
M  V30 204 H 17.6523 -1.66815 -3.34737 0
M  V30 205 H 19.9443 -1.86791 -6.51241 0
M  V30 206 H 20.8873 -3.36572 -6.22997 0
M  V30 207 H 21.2953 -1.87894 -5.32312 0
M  V30 208 N 20.6934 1.19889 -1.02296 0
M  V30 209 C 21.6034 2.26571 -0.608508 0
M  V30 210 C 22.6194 1.70299 0.356964 0
M  V30 211 O 23.7954 2.00235 0.216326 0
M  V30 212 C 20.8604 3.46677 0.0402814 0
M  V30 213 C 19.9214 4.18153 -0.97194 0
M  V30 214 C 19.1544 5.32525 -0.354016 0
M  V30 215 O 19.3774 5.64112 0.844604 0
M  V30 216 O 18.3114 5.92242 -1.07391 0
M  V30 217 H 22.1374 2.64251 -1.49684 0
M  V30 218 H 19.7224 1.26629 -0.792809 0
M  V30 219 H 21.6044 4.19475 0.402324 0
M  V30 220 H 20.2794 3.10858 0.902707 0
M  V30 221 H 19.1864 3.47499 -1.38546 0
M  V30 222 H 20.5194 4.57927 -1.80454 0
M  V30 223 N 22.1715 0.800033 1.35784 0
M  V30 224 C 23.5825 0.439142 1.81462 0
M  V30 225 C 23.9335 -1.03813 1.66485 0
M  V30 226 O 23.0585 -1.80626 1.19177 0
M  V30 227 C 23.6535 0.790314 3.29453 0
M  V30 228 C 22.2125 0.482111 3.733 0
M  V30 229 C 21.3595 1.01938 2.57883 0
M  V30 230 H 24.3105 0.992254 1.23855 0
M  V30 231 H 24.3315 0.0853677 3.80404 0
M  V30 232 H 23.8435 1.86554 3.40322 0
M  V30 233 H 21.9445 -0.584652 3.67984 0
M  V30 234 H 22.0575 1.01015 4.6833 0
M  V30 235 H 20.4215 0.442043 2.50835 0
M  V30 236 H 21.2045 2.10059 2.71533 0
M  V30 237 N 23.6496 -1.47581 0.552962 0
M  V30 238 C 24.9266 -1.95563 -0.0381515 0
M  V30 239 C 25.3066 -1.49552 -1.48988 0
M  V30 240 O 24.6546 -0.732414 -2.16444 0
M  V30 241 C 24.8646 -3.48848 0.102919 0
M  V30 242 C 26.2126 -4.24577 -0.0446082 0
M  V30 243 O 27.2366 -3.56187 0.0302548 0
M  V30 244 O 26.0956 -5.46116 -0.204923 0
M  V30 245 H 23.1896 -0.824321 -0.0665067 0
M  V30 246 H 25.7356 -1.58001 0.619186 0
M  V30 247 H 24.5076 -3.75129 1.11328 0
M  V30 248 H 24.1306 -3.93165 -0.592224 0
M  V30 249 N 25.1277 -0.289203 -1.54924 0
M  V30 250 C 26.5437 0.0645403 -1.59469 0
M  V30 251 C 26.7437 1.53419 -1.30632 0
M  V30 252 O 25.7997 2.2852 -1.074 0
M  V30 253 C 27.1127 -0.32278 -2.98963 0
M  V30 254 C 28.6607 -0.270564 -3.11828 0
M  V30 255 C 29.1357 -0.632532 -4.53611 0
M  V30 256 N 30.6267 -0.584617 -4.59496 0
M  V30 257 C 31.3617 -0.837314 -5.67254 0
M  V30 258 N 30.8577 -1.15536 -6.83098 0
M  V30 259 N 32.6507 -0.765166 -5.56868 0
M  V30 260 H 24.8017 -1.24714 -1.71931 0
M  V30 261 H 27.0647 -0.504809 -0.802416 0
M  V30 262 H 26.7707 -1.34541 -3.24948 0
M  V30 263 H 26.6447 0.32944 -3.75759 0
M  V30 264 H 29.0317 0.742805 -2.85598 0
M  V30 265 H 29.1127 -0.957242 -2.37214 0
M  V30 266 H 28.7567 -1.64365 -4.80569 0
M  V30 267 H 28.6867 0.07609 -5.26545 0
M  V30 268 H 31.1777 -0.349248 -3.76283 0
M  V30 269 H 31.4907 -1.33447 -7.61191 0
M  V30 270 H 29.8357 -1.19328 -6.84679 0
M  V30 271 H 33.0267 -0.516432 -4.65243 0
M  V30 272 H 33.1997 -0.965477 -6.40767 0
M  V30 273 N 26.6058 1.57591 -0.0167156 0
M  V30 274 C 27.5528 2.09462 0.969251 0
M  V30 275 C 28.5228 0.99381 1.33089 0
M  V30 276 O 29.7078 1.26726 1.42636 0
M  V30 277 C 26.8478 2.61622 2.25051 0
M  V30 278 C 25.9608 3.85666 1.94642 0
M  V30 279 C 25.0958 4.26266 3.16972 0
M  V30 280 C 24.1348 5.43101 2.82326 0
M  V30 281 N 23.2718 5.78915 3.97243 0
M  V30 282 H 28.1118 2.93428 0.519997 0
M  V30 283 H 25.6488 1.45044 0.245087 0
M  V30 284 H 27.6068 2.89949 2.99976 0
M  V30 285 H 26.2368 1.80505 2.67615 0
M  V30 286 H 25.2888 3.64145 1.10013 0
M  V30 287 H 26.6008 4.70678 1.65117 0
M  V30 288 H 25.7548 4.55963 4.00228 0
M  V30 289 H 24.4938 3.39996 3.49648 0
M  V30 290 H 23.4988 5.1311 1.97479 0
M  V30 291 H 24.7238 6.3106 2.50879 0
M  V30 292 H 22.6698 4.95602 4.29785 0
M  V30 293 H 22.5868 6.58539 3.71299 0
M  V30 294 H 23.8548 6.13212 4.81239 0
M  V30 295 N 28.0839 -0.256276 1.55502 0
M  V30 296 C 29.0469 -1.30047 1.88734 0
M  V30 297 C 30.0469 -1.4154 0.763086 0
M  V30 298 O 31.2369 -1.40403 1.03115 0
M  V30 299 C 28.3689 -2.67953 2.10747 0
M  V30 300 H 29.5619 -1.01802 2.82093 0
M  V30 301 H 27.1149 -0.495134 1.4825 0
M  V30 302 H 27.8499 -3.01351 1.19825 0
M  V30 303 H 27.6349 -2.60993 2.92617 0
M  V30 304 H 29.1249 -3.43368 2.37673 0
M  V30 305 N 29.562 -1.4872 -0.521534 0
M  V30 306 C 30.525 -1.63379 -1.60748 0
M  V30 307 C 31.525 -0.50661 -1.52611 0
M  V30 308 O 32.715 -0.772601 -1.5613 0
M  V30 309 C 29.847 -1.61192 -3.00383 0
M  V30 310 H 31.04 -2.60217 -1.49087 0
M  V30 311 H 28.593 -1.37444 -0.744235 0
M  V30 312 H 29.328 -0.65863 -3.17541 0
M  V30 313 H 29.113 -2.43032 -3.07698 0
M  V30 314 H 30.603 -1.7466 -3.7932 0
M  V30 315 N 31.0401 0.771051 -1.3745 0
M  V30 316 C 32.2861 1.5319 -1.32894 0
M  V30 317 C 32.6191 1.94008 0.0862511 0
M  V30 318 O 31.8941 1.64124 1.04373 0
M  V30 319 C 32.1771 2.79648 -2.26868 0
M  V30 320 C 32.0301 2.45079 -3.77169 0
M  V30 321 C 33.3491 3.81583 -2.19277 0
M  V30 322 H 30.4681 0.555744 -0.484064 0
M  V30 323 H 33.1101 0.884492 -1.68157 0
M  V30 324 H 31.2601 3.34891 -1.96926 0
M  V30 325 H 32.9321 1.95745 -4.1771 0
M  V30 326 H 31.1751 1.77767 -3.95704 0
M  V30 327 H 31.8461 3.35478 -4.38359 0
M  V30 328 H 34.3221 3.35835 -2.45671 0
M  V30 329 H 33.1981 4.67787 -2.87171 0
M  V30 330 H 33.4591 4.25897 -1.18592 0
M  V30 331 N 32.5182 1.22032 0.997298 0
M  V30 332 C 33.7432 1.06921 1.77715 0
M  V30 333 C 34.1682 -0.376226 1.84299 0
M  V30 334 O 33.5262 -1.27165 1.29223 0
M  V30 335 C 33.5742 1.67996 3.19076 0
M  V30 336 O 32.6782 0.930653 4.01762 0
M  V30 337 H 32.0192 0.375814 0.547412 0
M  V30 338 H 34.5492 1.61737 1.25309 0
M  V30 339 H 34.5592 1.72538 3.69723 0
M  V30 340 H 33.2342 2.73182 3.13599 0
M  V30 341 H 31.8112 0.960917 3.60307 0
M  V30 342 N 33.9963 -1.19345 1.0293 0
M  V30 343 C 34.9463 -2.20472 0.58104 0
M  V30 344 C 35.9303 -1.56578 -0.370442 0
M  V30 345 O 37.1223 -1.75963 -0.191344 0
M  V30 346 C 34.2513 -3.43236 -0.066306 0
M  V30 347 C 33.3373 -4.14274 0.907642 0
M  V30 348 N 33.7283 -4.61492 2.07023 0
M  V30 349 C 32.0263 -4.39966 0.731177 0
M  V30 350 C 32.7273 -5.1605 2.68454 0
M  V30 351 N 31.7033 -5.06875 1.96414 0
M  V30 352 H 35.5053 -2.54659 1.46717 0
M  V30 353 H 33.0193 -1.35423 0.896345 0
M  V30 354 H 35.0163 -4.14927 -0.405068 0
M  V30 355 H 33.6763 -3.10549 -0.948118 0
M  V30 356 H 34.6873 -4.56304 2.44963 0
M  V30 357 H 31.3643 -4.17377 -0.101507 0
M  V30 358 H 32.7543 -5.6287 3.66915 0
M  V30 359 N 35.4744 -0.807222 -1.35358 0
M  V30 360 C 36.7204 -0.397594 -1.99476 0
M  V30 361 C 37.0754 1.02405 -1.62883 0
M  V30 362 O 36.3684 1.70077 -0.882282 0
M  V30 363 C 36.5624 -0.519036 -3.53611 0
M  V30 364 C 36.3914 -1.95094 -4.05177 0
M  V30 365 C 35.1614 -2.57945 -4.34503 0
M  V30 366 C 37.3594 -2.91558 -4.23673 0
M  V30 367 N 35.3414 -3.92539 -4.72003 0
M  V30 368 C 36.7124 -4.11024 -4.64176 0
M  V30 369 C 38.7674 -2.88381 -4.05883 0
M  V30 370 C 37.4704 -5.27745 -4.88751 0
M  V30 371 C 39.4964 -4.04306 -4.31614 0
M  V30 372 C 38.8584 -5.22519 -4.72391 0
M  V30 373 H 34.9574 -0.193274 -0.75774 0
M  V30 374 H 37.5414 -1.0486 -1.6405 0
M  V30 375 H 35.7124 0.101979 -3.88266 0
M  V30 376 H 37.4444 -0.0839321 -4.04613 0
M  V30 377 H 34.1994 -2.09295 -4.24844 0
M  V30 378 H 34.6234 -4.61836 -4.95011 0
M  V30 379 H 39.2654 -1.98137 -3.73499 0
M  V30 380 H 36.9834 -6.1856 -5.20008 0
M  V30 381 H 40.5694 -4.03229 -4.19402 0
M  V30 382 H 39.4494 -6.1073 -4.91913 0
M  V30 383 N 36.9525 1.47285 -0.560781 0
M  V30 384 C 37.8845 2.28118 0.222438 0
M  V30 385 C 38.8975 1.37219 0.876056 0
M  V30 386 O 40.0865 1.62011 0.749307 0
M  V30 387 C 37.1865 3.1159 1.33285 0
M  V30 388 C 36.3595 4.30473 0.77534 0
M  V30 389 C 35.4185 4.95513 1.77069 0
M  V30 390 O 34.4445 5.53792 1.31539 0
M  V30 391 N 35.6465 4.90531 3.10418 0
M  V30 392 H 38.4115 2.95976 -0.470958 0
M  V30 393 H 35.9725 1.56955 -0.39709 0
M  V30 394 H 37.9645 3.51967 1.99752 0
M  V30 395 H 36.5345 2.45951 1.92943 0
M  V30 396 H 35.7545 3.94144 -0.0662113 0
M  V30 397 H 37.0425 5.07362 0.382272 0
M  V30 398 H 36.4405 4.44389 3.5005 0
M  V30 399 H 34.9975 5.34917 3.72434 0
M  V30 400 N 38.4306 0.297415 1.54768 0
M  V30 401 C 39.3626 -0.613881 2.20826 0
M  V30 402 C 40.3756 -1.10032 1.19987 0
M  V30 403 O 41.5646 -1.01839 1.46598 0
M  V30 404 C 38.6646 -1.852 2.83821 0
M  V30 405 C 37.8376 -1.50865 4.10559 0
M  V30 406 C 36.8966 -2.60154 4.57391 0
M  V30 407 O 35.9226 -2.25398 5.2267 0
M  V30 408 N 37.1246 -3.90629 4.29406 0
M  V30 409 H 39.8896 -0.048389 2.99661 0
M  V30 410 H 37.4506 0.11946 1.61459 0
M  V30 411 H 39.4426 -2.57652 3.12086 0
M  V30 412 H 38.0126 -2.32597 2.08847 0
M  V30 413 H 37.2326 -0.616925 3.89343 0
M  V30 414 H 38.5206 -1.25458 4.9309 0
M  V30 415 H 37.9186 -4.21677 3.77101 0
M  V30 416 H 36.4756 -4.59391 4.62388 0
M  V30 417 N 39.9087 -1.5758 0.0250728 0
M  V30 418 C 40.8407 -2.06869 -0.986796 0
M  V30 419 C 41.8537 -0.991332 -1.29137 0
M  V30 420 O 43.0427 -1.26761 -1.25674 0
M  V30 421 C 40.1427 -2.47486 -2.31525 0
M  V30 422 C 39.3157 -3.78253 -2.19643 0
M  V30 423 C 38.3747 -4.05464 -3.35388 0
M  V30 424 O 37.4007 -4.75774 -3.12454 0
M  V30 425 N 38.6027 -3.55321 -4.59051 0
M  V30 426 H 41.3677 -2.94302 -0.566276 0
M  V30 427 H 38.9287 -1.6109 -0.161776 0
M  V30 428 H 40.9207 -2.62785 -3.07776 0
M  V30 429 H 39.4907 -1.65441 -2.65232 0
M  V30 430 H 38.7107 -3.7279 -1.28144 0
M  V30 431 H 39.9987 -4.63936 -2.08903 0
M  V30 432 H 39.3967 -2.98431 -4.80578 0
M  V30 433 H 37.9537 -3.75905 -5.32483 0
M  V30 434 N 41.3868 0.248026 -1.55636 0
M  V30 435 C 42.6118 0.998028 -1.81808 0
M  V30 436 C 43.0368 1.78207 -0.601979 0
M  V30 437 O 42.3948 1.75653 0.448961 0
M  V30 438 C 42.4428 1.9125 -3.05705 0
M  V30 439 O 41.5468 3.00406 -2.82542 0
M  V30 440 H 40.8878 0.284045 -0.600179 0
M  V30 441 H 43.4178 0.269357 -2.02819 0
M  V30 442 H 43.4278 2.32737 -3.35108 0
M  V30 443 H 42.1028 1.33602 -3.93857 0
M  V30 444 H 40.6798 2.63056 -2.64303 0
M  V30 445 N 42.8649 1.48995 0.513639 0
M  V30 446 C 44.0949 1.61297 1.291 0
M  V30 447 C 44.5029 0.278656 1.87137 0
M  V30 448 O 43.8459 -0.744325 1.67945 0
M  V30 449 C 43.9079 2.61326 2.46879 0
M  V30 450 C 43.5719 4.05993 2.09807 0
M  V30 451 C 44.5689 4.93183 1.64519 0
M  V30 452 C 42.2539 4.51642 2.19829 0
M  V30 453 C 44.2479 6.24056 1.2974 0
M  V30 454 C 41.9349 5.82532 1.84662 0
M  V30 455 C 42.9329 6.68562 1.3969 0
M  V30 456 O 42.6209 7.97014 1.04992 0
M  V30 457 H 42.3529 0.546236 0.39825 0
M  V30 458 H 44.9069 1.95673 0.62459 0
M  V30 459 H 43.1369 2.22104 3.16554 0
M  V30 460 H 44.8259 2.6329 3.08923 0
M  V30 461 H 45.5919 4.59147 1.56233 0
M  V30 462 H 41.4709 3.84855 2.53786 0
M  V30 463 H 45.0149 6.91161 0.945659 0
M  V30 464 H 40.9119 6.16099 1.92594 0
M  V30 465 H 41.6799 8.09913 1.18249 0
M  V30 466 N 44.343 -0.763751 1.37857 0
M  V30 467 C 45.273 -1.89103 1.36975 0
M  V30 468 C 46.254 -1.68439 0.237152 0
M  V30 469 O 47.439 -1.8918 0.438713 0
M  V30 470 C 44.569 -3.26496 1.18395 0
M  V30 471 C 43.523 -3.61741 2.28751 0
M  V30 472 C 42.849 -4.97762 1.95286 0
M  V30 473 C 44.149 -3.67665 3.70972 0
M  V30 474 H 45.843 -1.90099 2.31307 0
M  V30 475 H 43.389 -0.91319 1.11341 0
M  V30 476 H 45.342 -4.05003 1.16406 0
M  V30 477 H 44.066 -3.25955 0.205215 0
M  V30 478 H 42.725 -2.85547 2.29909 0
M  V30 479 H 42.373 -4.93769 0.959221 0
M  V30 480 H 42.073 -5.22313 2.69189 0
M  V30 481 H 43.597 -5.7866 1.94898 0
M  V30 482 H 45.011 -4.36307 3.719 0
M  V30 483 H 43.408 -4.03718 4.43995 0
M  V30 484 H 44.478 -2.68134 4.0402 0
M  V30 485 N 45.8211 -1.22559 -0.990812 0
M  V30 486 C 47.0981 -0.959875 -1.70428 0
M  V30 487 C 47.4781 0.524455 -2.04481 0
M  V30 488 O 46.8261 1.49302 -1.72977 0
M  V30 489 C 47.0361 -1.85955 -2.95333 0
M  V30 490 C 48.3841 -2.11687 -3.68068 0
M  V30 491 O 49.4081 -1.8342 -3.05345 0
M  V30 492 O 48.2671 -2.59572 -4.80921 0
M  V30 493 H 45.3611 -0.361154 -0.743974 0
M  V30 494 H 47.9071 -1.33554 -1.04697 0
M  V30 495 H 46.6791 -2.86346 -2.66687 0
M  V30 496 H 46.3021 -1.4856 -3.68803 0
M  V30 497 N 47.2992 1.18797 -1.03562 0
M  V30 498 C 48.5242 1.9314 -0.755764 0
M  V30 499 C 48.9492 1.7537 0.68022 0
M  V30 500 O 48.3072 1.06046 1.47051 0
M  V30 501 C 48.3552 3.42747 -1.12058 0
M  V30 502 O 47.4592 4.11683 -0.243124 0
M  V30 503 H 46.8002 0.602724 -0.278604 0
M  V30 504 H 49.3302 1.50678 -1.3841 0
M  V30 505 H 49.3402 3.93437 -1.08035 0
M  V30 506 H 48.0152 3.55002 -2.16672 0
M  V30 507 H 46.5922 3.71323 -0.342539 0
M  V30 508 N 48.7773 0.814389 1.34928 0
M  V30 509 C 50.0253 0.397636 1.9815 0
M  V30 510 C 50.3463 -1.04069 1.64908 0
M  V30 511 O 49.6163 -1.72121 0.93548 0
M  V30 512 H 48.1963 0.144043 0.732981 0
M  V30 513 H 50.8583 1.04195 1.6471 0
M  V30 514 H 49.9543 0.509688 3.0791 0
M  V30 515 N 50.2554 -1.46986 0.568584 0
M  V30 516 C 51.5044 -2.01646 0.0465894 0
M  V30 517 C 51.8174 -1.44721 -1.31587 0
M  V30 518 O 53.0234 -1.91113 -1.92842 0
M  V30 519 C 51.4794 -3.59885 0.032752 0
M  V30 520 C 51.0874 -4.25804 1.39266 0
M  V30 521 C 52.8314 -4.22255 -0.436038 0
M  V30 522 C 50.7384 -5.76081 1.33732 0
M  V30 523 H 49.6684 -0.753876 0.013647 0
M  V30 524 H 52.3194 -1.68864 0.718131 0
M  V30 525 H 50.7014 -3.8968 -0.704669 0
M  V30 526 H 51.8754 -4.07637 2.1487 0
M  V30 527 H 50.1904 -3.7547 1.80032 0
M  V30 528 H 52.7874 -5.32394 -0.49602 0
M  V30 529 H 53.1304 -3.90212 -1.45053 0
M  V30 530 H 53.6634 -3.97033 0.246877 0
M  V30 531 H 50.4024 -6.12761 2.32817 0
M  V30 532 H 49.9224 -5.96553 0.623267 0
M  V30 533 H 51.6014 -6.38518 1.0442 0
M  V30 534 N 51.7335 -0.305618 -1.54608 0
M  V30 535 C 52.6835 0.583595 -2.20405 0
M  V30 536 C 53.6675 1.09539 -1.17856 0
M  V30 537 O 54.8595 1.0354 -1.43557 0
M  V30 538 C 51.9885 1.75277 -2.95183 0
M  V30 539 C 51.0745 1.25672 -4.05052 0
M  V30 540 N 51.4655 0.478998 -5.03527 0
M  V30 541 C 49.7635 1.53704 -4.18678 0
M  V30 542 C 50.4645 0.214269 -5.81305 0
M  V30 543 N 49.4405 0.795374 -5.3775 0
M  V30 544 H 53.2425 -0.0180946 -2.93894 0
M  V30 545 H 50.7565 -0.110601 -1.62023 0
M  V30 546 H 52.7535 2.4014 -3.40791 0
M  V30 547 H 51.4135 2.35812 -2.23211 0
M  V30 548 H 52.4245 0.123473 -5.17753 0
M  V30 549 H 49.1015 2.14954 -3.57912 0
M  V30 550 H 50.4915 -0.410656 -6.70644 0
M  V30 551 N 53.2116 1.57565 -0.0334293 0
M  V30 552 C 54.4366 1.96689 0.657895 0
M  V30 553 C 54.8616 0.910057 1.64619 0
M  V30 554 O 54.2196 -0.128598 1.80843 0
M  V30 555 C 54.2676 3.34905 1.33683 0
M  V30 556 O 53.3716 3.31574 2.45219 0
M  V30 557 H 52.7126 0.641205 0.172489 0
M  V30 558 H 55.2426 2.04372 -0.0965621 0
M  V30 559 H 55.2526 3.71234 1.69262 0
M  V30 560 H 53.9276 4.11366 0.612411 0
M  V30 561 H 52.5046 3.06968 2.11719 0
M  V30 562 N 54.6897 -0.239769 1.55765 0
M  V30 563 C 55.9377 -0.964892 1.77579 0
M  V30 564 C 56.2587 -1.85582 0.598699 0
M  V30 565 O 55.5287 -1.92075 -0.385226 0
M  V30 566 H 54.1087 -0.359265 0.654933 0
M  V30 567 H 56.7707 -0.256001 1.93211 0
M  V30 568 H 55.8667 -1.58243 2.69009 0
M  V30 569 N 56.1678 -1.49265 -0.50573 0
M  V30 570 C 57.1308 -1.65075 -1.59006 0
M  V30 571 C 58.1308 -0.522768 -1.52065 0
M  V30 572 O 59.3208 -0.789117 -1.55302 0
M  V30 573 C 56.4528 -1.64369 -2.98656 0
M  V30 574 H 57.6458 -2.61784 -1.46319 0
M  V30 575 H 55.1988 -1.38226 -0.729616 0
M  V30 576 H 55.9338 -0.692272 -3.16825 0
M  V30 577 H 55.7188 -2.46282 -3.05103 0
M  V30 578 H 57.2088 -1.78674 -3.77446 0
M  V30 579 N 57.6459 0.756429 -1.3826 0
M  V30 580 C 58.8739 1.54565 -1.3754 0
M  V30 581 C 59.2889 1.88767 0.0355331 0
M  V30 582 O 58.6459 1.52572 1.0014 0
M  V30 583 C 58.6969 2.84654 -2.22833 0
M  V30 584 O 58.4179 2.51912 -3.5843 0
M  V30 585 C 59.9189 3.78807 -2.30261 0
M  V30 586 H 57.1389 0.478353 -0.470553 0
M  V30 587 H 59.6829 0.936381 -1.81803 0
M  V30 588 H 57.8379 3.41965 -1.8204 0
M  V30 589 H 58.2519 3.35325 -4.03308 0
M  V30 590 H 59.7259 4.67045 -2.94233 0
M  V30 591 H 60.2029 4.19038 -1.31545 0
M  V30 592 H 60.8089 3.2742 -2.71433 0
M  V30 593 N 59.124 1.23083 0.984299 0
M  V30 594 C 60.352 1.08714 1.76037 0
M  V30 595 C 60.767 -0.361691 1.85303 0
M  V30 596 O 60.124 -1.25034 1.32939 0
M  V30 597 C 60.175 1.70206 3.18923 0
M  V30 598 O 59.896 3.09423 3.10144 0
M  V30 599 C 61.397 1.61227 4.12941 0
M  V30 600 H 58.617 0.380664 0.552572 0
M  V30 601 H 61.161 1.62853 1.23689 0
M  V30 602 H 59.316 1.20109 3.6831 0
M  V30 603 H 59.73 3.39188 4.00065 0
M  V30 604 H 61.204 2.08962 5.10919 0
M  V30 605 H 61.681 0.570375 4.35481 0
M  V30 606 H 62.287 2.10671 3.69456 0
M  V30 607 N 60.6021 -1.18246 1.0419 0
M  V30 608 C 61.8301 -1.92195 0.766072 0
M  V30 609 C 62.2451 -1.76247 -0.676933 0
M  V30 610 O 61.6021 -1.09293 -1.46155 0
M  V30 611 C 61.6531 -3.43568 1.12442 0
M  V30 612 O 61.3741 -3.59015 2.51078 0
M  V30 613 C 62.8751 -4.34613 0.873275 0
M  V30 614 H 60.0951 -0.610114 0.279288 0
M  V30 615 H 62.6391 -1.50007 1.38989 0
M  V30 616 H 60.7941 -3.8354 0.545542 0
M  V30 617 H 61.2081 -4.5273 2.64831 0
M  V30 618 H 62.6821 -5.39374 1.17385 0
M  V30 619 H 63.1591 -4.38781 -0.191909 0
M  V30 620 H 63.7651 -4.00341 1.43551 0
M  V30 621 N 62.0802 -0.821533 -1.34494 0
M  V30 622 C 63.0432 -0.247847 -2.27856 0
M  V30 623 C 64.0432 0.573453 -1.50227 0
M  V30 624 O 65.2332 0.389759 -1.69784 0
M  V30 625 C 62.3652 0.652698 -3.34593 0
M  V30 626 H 63.5582 -1.07146 -2.80107 0
M  V30 627 H 61.1112 -0.593291 -1.44602 0
M  V30 628 H 61.8462 1.49943 -2.87555 0
M  V30 629 H 61.6312 0.065292 -3.92046 0
M  V30 630 H 63.1212 1.04793 -4.04238 0
M  V30 631 N 63.5583 1.46682 -0.576371 0
M  V30 632 C 64.9693 1.86112 -0.148091 0
M  V30 633 C 65.3203 1.48073 1.2872 0
M  V30 634 O 64.4453 0.892656 1.97131 0
M  V30 635 C 65.0403 3.37786 -0.261982 0
M  V30 636 C 63.5993 3.76235 0.111384 0
M  V30 637 C 62.7463 2.70713 -0.60083 0
M  V30 638 H 65.6973 1.37927 -0.78497 0
M  V30 639 H 65.7183 3.77007 0.514364 0
M  V30 640 H 65.2303 3.6544 -1.30671 0
M  V30 641 H 63.3313 3.54198 1.15649 0
M  V30 642 H 63.4443 4.78391 -0.26052 0
M  V30 643 H 61.8083 2.54666 -0.0417783 0
M  V30 644 H 62.5913 3.01208 -1.64708 0
M  V30 645 N 65.0364 0.313813 1.54444 0
M  V30 646 C 66.2614 -0.296681 2.05267 0
M  V30 647 C 66.6864 -1.45757 1.18897 0
M  V30 648 O 66.0444 -1.80239 0.195886 0
M  V30 649 C 66.0924 -0.71831 3.53373 0
M  V30 650 O 65.1964 -1.82175 3.69981 0
M  V30 651 H 64.5374 -0.0554061 0.661684 0
M  V30 652 H 67.0674 0.459387 1.99376 0
M  V30 653 H 67.0774 -1.00364 3.95463 0
M  V30 654 H 65.7524 0.130821 4.15694 0
M  V30 655 H 64.3294 -1.53598 3.39797 0
M  V30 656 N 66.5145 -1.57545 0.0417849 0
M  V30 657 C 67.4445 -2.14009 -0.933929 0
M  V30 658 C 68.4255 -1.05938 -1.33083 0
M  V30 659 O 69.6105 -1.33833 -1.40721 0
M  V30 660 C 66.7405 -2.67747 -2.21199 0
M  V30 661 C 65.6945 -3.80718 -1.95544 0
M  V30 662 C 65.0205 -4.20935 -3.29724 0
M  V30 663 C 66.3205 -5.06258 -1.28452 0
M  V30 664 H 68.0145 -2.95788 -0.463645 0
M  V30 665 H 65.5605 -1.42285 -0.221573 0
M  V30 666 H 67.5135 -3.05886 -2.89848 0
M  V30 667 H 66.2375 -1.83147 -2.70416 0
M  V30 668 H 64.8965 -3.43037 -1.2931 0
M  V30 669 H 64.5445 -3.33298 -3.76724 0
M  V30 670 H 64.2445 -4.9707 -3.13361 0
M  V30 671 H 65.7685 -4.61666 -3.9962 0
M  V30 672 H 67.1825 -5.41903 -1.8712 0
M  V30 673 H 65.5795 -5.87475 -1.22445 0
M  V30 674 H 66.6495 -4.84207 -0.259219 0
M  V30 675 N 67.9926 0.231505 -1.5589 0
M  V30 676 C 69.2176 0.978689 -1.82856 0
M  V30 677 C 69.6426 1.77559 -0.620846 0
M  V30 678 O 69.0006 1.76119 0.430305 0
M  V30 679 C 69.0486 1.87997 -3.07716 0
M  V30 680 O 68.1526 2.97393 -2.85712 0
M  V30 681 H 67.4936 0.277663 -0.603158 0
M  V30 682 H 70.0236 0.24783 -2.03093 0
M  V30 683 H 70.0336 2.2917 -3.37558 0
M  V30 684 H 68.7086 1.29417 -3.95252 0
M  V30 685 H 67.2856 2.60238 -2.67078 0
M  V30 686 N 69.4707 1.49531 0.497807 0
M  V30 687 C 70.7187 1.58865 1.24926 0
M  V30 688 C 71.0397 0.278721 1.92998 0
M  V30 689 O 70.3097 -0.702144 1.82885 0
M  V30 690 H 68.8897 0.585343 0.464094 0
M  V30 691 H 71.5517 1.86174 0.57666 0
M  V30 692 H 70.6477 2.38633 2.01149 0
M  V30 693 N 70.9488 -0.749086 1.3866 0
M  V30 694 C 71.8958 -1.86291 1.36251 0
M  V30 695 C 72.8658 -1.64578 0.224347 0
M  V30 696 O 74.0508 -1.86181 0.417279 0
M  V30 697 C 71.1908 -3.23644 1.19786 0
M  V30 698 C 70.3038 -3.57158 2.43027 0
M  V30 699 C 69.4388 -4.83838 2.19258 0
M  V30 700 C 68.4778 -5.10152 3.38247 0
M  V30 701 N 67.6148 -6.28029 3.13884 0
M  V30 702 H 72.4548 -1.87685 2.3147 0
M  V30 703 H 69.9918 -0.917287 1.14997 0
M  V30 704 H 71.9498 -4.0291 1.08254 0
M  V30 705 H 70.5798 -3.21566 0.282031 0
M  V30 706 H 69.6318 -2.72701 2.65214 0
M  V30 707 H 70.9438 -3.7253 3.31697 0
M  V30 708 H 70.0978 -5.71057 2.04888 0
M  V30 709 H 68.8368 -4.70614 1.2796 0
M  V30 710 H 67.8418 -4.21401 3.53131 0
M  V30 711 H 69.0668 -5.25271 4.30427 0
M  V30 712 H 67.0128 -6.1612 2.25238 0
M  V30 713 H 66.9298 -6.43922 3.96106 0
M  V30 714 H 68.1978 -7.18124 3.03179 0
M  V30 715 N 72.4269 -1.23603 -0.977757 0
M  V30 716 C 73.6749 -1.06759 -1.71601 0
M  V30 717 C 73.9959 0.395929 -1.90938 0
M  V30 718 O 73.2659 1.28356 -1.47992 0
M  V30 719 H 71.8459 -0.392062 -0.635843 0
M  V30 720 H 74.5079 -1.55362 -1.1768 0
M  V30 721 H 73.6039 -1.55763 -2.70452 0
M  V30 722 N 73.905 1.17692 -1.04816 0
M  V30 723 C 74.853 2.23632 -0.63966 0
M  V30 724 C 75.847 1.6601 0.337219 0
M  V30 725 O 77.053 1.78844 0.203693 0
M  V30 726 H 73.428 0.727949 -0.188665 0
M  V30 727 H 75.399 2.55387 -1.54337 0
M  V30 728 C 74.148 3.4769 -0.0264051 0
M  V30 729 H 73.471 3.92331 -0.769164 0
M  V30 730 H 74.911 4.23418 0.222098 0
M  V30 731 C 73.37 3.13807 1.22584 0
M  V30 732 O 73.9 3.28236 2.31569 0
M  V30 733 N 72.106 2.68065 1.12202 0
M  V30 734 H 71.653 2.56525 0.235133 0
M  V30 735 H 71.611 2.45767 1.96076 0
M  V30 736 N 75.3831 0.828654 1.34056 0
M  V30 737 C 76.7941 0.477534 1.8049 0
M  V30 738 C 77.1451 -1.00258 1.6865 0
M  V30 739 O 76.2701 -1.78057 1.22982 0
M  V30 740 C 76.8651 0.860018 3.27703 0
M  V30 741 C 75.4241 0.561185 3.72193 0
M  V30 742 C 74.5711 1.07385 2.55663 0
M  V30 743 H 77.5221 1.0183 1.21722 0
M  V30 744 H 77.5431 0.166038 3.80138 0
M  V30 745 H 77.0551 1.93731 3.36288 0
M  V30 746 H 75.1561 -0.506465 3.69142 0
M  V30 747 H 75.2691 1.10926 4.66082 0
M  V30 748 H 73.6331 0.495149 2.49841 0
M  V30 749 H 74.4161 2.15771 2.67016 0
M  V30 750 N 76.8612 -1.46375 0.584142 0
M  V30 751 C 77.7712 -2.34115 -0.150728 0
M  V30 752 C 78.7872 -1.49838 -0.884567 0
M  V30 753 O 79.9632 -1.82704 -0.847429 0
M  V30 754 C 77.0282 -3.2705 -1.15062 0
M  V30 755 C 76.0892 -4.27228 -0.421293 0
M  V30 756 C 75.3222 -5.15722 -1.37355 0
M  V30 757 O 75.5452 -5.07176 -2.61014 0
M  V30 758 O 74.4792 -5.95383 -0.883355 0
M  V30 759 H 78.3052 -2.98309 0.569708 0
M  V30 760 H 75.8902 -1.45373 0.344535 0
M  V30 761 H 77.7722 -3.84381 -1.72712 0
M  V30 762 H 76.4472 -2.65451 -1.8525 0
M  V30 763 H 75.3542 -3.7358 0.197085 0
M  V30 764 H 76.6872 -4.91616 0.239641 0
M  V30 765 N 78.3393 -0.321999 -1.54275 0
M  V30 766 C 79.2493 0.553631 -2.27974 0
M  V30 767 C 80.2653 1.13054 -1.32268 0
M  V30 768 O 81.4413 1.15084 -1.6528 0
M  V30 769 C 78.5063 1.69927 -3.02201 0
M  V30 770 C 77.5673 1.15433 -4.1349 0
M  V30 771 C 76.8003 2.24537 -4.84168 0
M  V30 772 O 77.0233 3.44852 -4.5435 0
M  V30 773 O 75.9573 1.90044 -5.7111 0
M  V30 774 H 79.7833 -0.0448345 -3.03667 0
M  V30 775 H 77.3683 -0.0877418 -1.49142 0
M  V30 776 H 79.2503 2.3663 -3.48689 0
M  V30 777 H 77.9253 2.28395 -2.29385 0
M  V30 778 H 76.8323 0.452436 -3.71354 0
M  V30 779 H 78.1653 0.614805 -4.88345 0
M  V30 780 N 79.8174 1.5752 -0.0501392 0
M  V30 781 C 80.7274 2.14952 0.939827 0
M  V30 782 C 81.7434 1.10706 1.34239 0
M  V30 783 O 82.9194 1.42869 1.41952 0
M  V30 784 C 79.9844 2.68232 2.19665 0
M  V30 785 C 79.0454 3.87272 1.85253 0
M  V30 786 C 78.2784 4.38002 3.04943 0
M  V30 787 O 78.5014 3.87811 4.18281 0
M  V30 788 O 77.4354 5.29602 2.86017 0
M  V30 789 H 81.2614 2.9986 0.481392 0
M  V30 790 H 78.8464 1.4841 0.171699 0
M  V30 791 H 80.7284 3.02475 2.93406 0
M  V30 792 H 79.4034 1.86395 2.64648 0
M  V30 793 H 78.3104 3.5792 1.0883 0
M  V30 794 H 79.6434 4.70336 1.4507 0
M  V30 795 N 81.2955 -0.223234 1.56011 0
M  V30 796 C 82.5725 -0.972108 1.69733 0
M  V30 797 C 82.9525 -2.02485 0.59691 0
M  V30 798 O 82.3005 -2.25037 -0.396324 0
M  V30 799 C 82.5105 -1.58407 3.10979 0
M  V30 800 C 83.8585 -2.07696 3.70334 0
M  V30 801 O 84.8825 -1.68304 3.1393 0
M  V30 802 O 83.7415 -2.80096 4.69264 0
M  V30 803 H 80.8355 -0.453993 0.691245 0
M  V30 804 H 83.3815 -0.215149 1.68331 0
M  V30 805 H 82.1535 -0.823831 3.82529 0
M  V30 806 H 81.7765 -2.40661 3.16493 0
M  V30 807 N 82.7736 -1.49793 -0.48987 0
M  V30 808 C 84.0196 -1.60078 -1.24511 0
M  V30 809 C 84.3526 -0.291608 -1.91998 0
M  V30 810 O 83.6276 0.705647 -1.81248 0
M  V30 811 C 83.9106 -2.76791 -2.30345 0
M  V30 812 C 83.7636 -4.17535 -1.67286 0
M  V30 813 C 85.0826 -2.89111 -3.31817 0
M  V30 814 H 82.2016 -0.582645 -0.451324 0
M  V30 815 H 84.8436 -1.82117 -0.541612 0
M  V30 816 H 82.9936 -2.5813 -2.90346 0
M  V30 817 H 84.6656 -4.4774 -1.11026 0
M  V30 818 H 82.9086 -4.22665 -0.976577 0
M  V30 819 H 83.5796 -4.95094 -2.44103 0
M  V30 820 H 86.0556 -3.06133 -2.81819 0
M  V30 821 H 84.9316 -3.72433 -4.03219 0
M  V30 822 H 85.1926 -1.9893 -3.94815 0
M  V30 823 N 84.2517 0.741722 -1.39055 0
M  V30 824 C 85.5287 1.49252 -1.26425 0
M  V30 825 C 85.9087 2.10705 0.129144 0
M  V30 826 O 85.2567 1.98045 1.13976 0
M  V30 827 C 85.4667 2.54934 -2.38347 0
M  V30 828 C 86.8147 3.21506 -2.77343 0
M  V30 829 O 87.8387 2.65245 -2.37747 0
M  V30 830 O 86.6977 4.23294 -3.45665 0
M  V30 831 H 83.7917 0.662451 -0.495064 0
M  V30 832 H 86.3377 0.776121 -1.50912 0
M  V30 833 H 85.1097 2.07857 -3.31529 0
M  V30 834 H 84.7327 3.34141 -2.15489 0
M  V30 835 N 85.7298 1.2412 0.971189 0
M  V30 836 C 86.9578 1.10575 1.74874 0
M  V30 837 C 87.3728 -0.342017 1.85676 0
M  V30 838 O 86.7298 -1.23617 1.34258 0
M  V30 839 C 86.7808 1.73579 3.171 0
M  V30 840 O 86.5018 3.12695 3.06844 0
M  V30 841 C 88.0028 1.65598 4.11208 0
M  V30 842 H 85.2228 0.386504 0.548503 0
M  V30 843 H 87.7668 1.64156 1.21955 0
M  V30 844 H 85.9218 1.24009 3.67016 0
M  V30 845 H 86.3358 3.43412 3.96445 0
M  V30 846 H 87.8098 2.1437 5.08674 0
M  V30 847 H 88.2868 0.616532 4.34851 0
M  V30 848 H 88.8928 2.14578 3.67201 0
M  V30 849 N 87.2079 -1.17134 1.05439 0
M  V30 850 C 88.4329 -1.91913 0.786396 0
M  V30 851 C 88.8579 -1.7643 -0.652234 0
M  V30 852 O 88.2159 -1.08372 -1.45345 0
M  V30 853 C 88.2639 -3.40921 1.17497 0
M  V30 854 O 87.3679 -4.11244 0.308589 0
M  V30 855 H 86.7089 -0.598215 0.288158 0
M  V30 856 H 89.2389 -1.48457 1.4079 0
M  V30 857 H 89.2489 -3.91668 1.14281 0
M  V30 858 H 87.9239 -3.5151 2.22292 0
M  V30 859 H 86.5009 -3.70731 0.40157 0
M  V30 860 N 88.686 -0.835752 -1.33615 0
M  V30 861 C 89.618 -0.224151 -2.28101 0
M  V30 862 C 90.631 0.593331 -1.51603 0
M  V30 863 O 91.82 0.420911 -1.73466 0
M  V30 864 C 88.92 0.703309 -3.31522 0
M  V30 865 C 88.093 -0.0741528 -4.37337 0
M  V30 866 C 87.152 0.776176 -5.20444 0
M  V30 867 O 86.178 0.216506 -5.68788 0
M  V30 868 N 87.38 2.09401 -5.41416 0
M  V30 869 H 90.145 -1.03598 -2.81225 0
M  V30 870 H 87.706 -0.69392 -1.46275 0
M  V30 871 H 89.698 1.27707 -3.84022 0
M  V30 872 H 88.268 1.41585 -2.78698 0
M  V30 873 H 87.488 -0.82928 -3.85378 0
M  V30 874 H 88.776 -0.608863 -5.05144 0
M  V30 875 H 88.174 2.57229 -5.03835 0
M  V30 876 H 86.731 2.61633 -5.96985 0
M  V30 877 N 90.1641 1.46063 -0.591896 0
M  V30 878 C 91.4101 2.02638 -0.0811191 0
M  V30 879 C 91.7431 1.4613 1.27905 0
M  V30 880 O 91.0181 0.629908 1.84017 0
M  V30 881 C 91.3011 3.60091 -0.0252436 0
M  V30 882 C 91.1541 4.26965 -1.41496 0
M  V30 883 C 92.4731 4.3496 0.670685 0
M  V30 884 H 89.5921 0.73635 -0.0309524 0
M  V30 885 H 92.2341 1.741 -0.760859 0
M  V30 886 H 90.3841 3.84535 0.553624 0
M  V30 887 H 92.0561 4.13756 -2.0397 0
M  V30 888 H 90.2991 3.85971 -1.98011 0
M  V30 889 H 90.9701 5.35781 -1.32825 0
M  V30 890 H 93.4461 4.15716 0.178825 0
M  V30 891 H 92.3221 5.44686 0.678837 0
M  V30 892 H 92.5831 4.06685 1.73379 0
M  V30 893 N 91.6422 0.330177 1.54103 0
M  V30 894 C 92.5722 -0.525353 2.27513 0
M  V30 895 C 93.5532 -1.11383 1.2856 0
M  V30 896 O 94.7382 -1.13773 1.57383 0
M  V30 897 C 91.8682 -1.6831 3.03791 0
M  V30 898 C 90.8222 -1.2236 4.10137 0
M  V30 899 C 90.1482 -2.46882 4.74293 0
M  V30 900 C 91.4482 -0.333697 5.21233 0
M  V30 901 H 93.1422 0.087013 2.99274 0
M  V30 902 H 90.6882 0.0432893 1.43935 0
M  V30 903 H 92.6412 -2.28795 3.5388 0
M  V30 904 H 91.3652 -2.32216 2.29659 0
M  V30 905 H 90.0242 -0.64165 3.60941 0
M  V30 906 H 89.6722 -3.09165 3.96769 0
M  V30 907 H 89.3722 -2.16825 5.46133 0
M  V30 908 H 90.8962 -3.08117 5.27159 0
M  V30 909 H 92.3102 -0.845013 5.67038 0
M  V30 910 H 90.7072 -0.125612 5.99969 0
M  V30 911 H 91.7772 0.633724 4.80741 0
M  V30 912 N 93.1203 -1.57491 0.0584922 0
M  V30 913 C 94.3503 -1.9701 -0.622134 0
M  V30 914 C 94.7583 -0.935034 -1.6448 0
M  V30 915 O 94.1013 0.0882904 -1.83488 0
M  V30 916 C 94.1633 -3.32794 -1.35972 0
M  V30 917 C 93.8273 -4.54343 -0.492043 0
M  V30 918 C 94.8243 -5.19323 0.244901 0
M  V30 919 C 92.5093 -5.00534 -0.420821 0
M  V30 920 C 94.5033 -6.28835 1.04143 0
M  V30 921 C 92.1903 -6.09921 0.379389 0
M  V30 922 C 93.1883 -6.73933 1.10919 0
M  V30 923 O 92.8763 -7.81216 1.89623 0
M  V30 924 H 92.6083 -0.653127 -0.174359 0
M  V30 925 H 95.1623 -2.05029 0.123418 0
M  V30 926 H 93.3923 -3.21351 -2.15105 0
M  V30 927 H 95.0813 -3.5701 -1.93129 0
M  V30 928 H 95.8473 -4.8459 0.19939 0
M  V30 929 H 91.7263 -4.50496 -0.978474 0
M  V30 930 H 95.2703 -6.7873 1.61157 0
M  V30 931 H 91.1673 -6.44089 0.426512 0
M  V30 932 H 91.9353 -7.98029 1.81913 0
M  V30 933 N 94.5984 0.214957 -1.56127 0
M  V30 934 C 95.5084 1.28727 -1.96129 0
M  V30 935 C 96.5244 1.50916 -0.866044 0
M  V30 936 O 97.7004 1.63918 -1.17016 0
M  V30 937 C 94.7654 2.61569 -2.27558 0
M  V30 938 C 93.8264 2.47625 -3.50685 0
M  V30 939 C 93.0594 3.74132 -3.80606 0
M  V30 940 O 93.2824 4.77438 -3.12104 0
M  V30 941 O 92.2164 3.70849 -4.74083 0
M  V30 942 H 96.0424 0.977855 -2.87527 0
M  V30 943 H 93.6274 0.418358 -1.43423 0
M  V30 944 H 95.5094 3.40012 -2.48938 0
M  V30 945 H 94.1844 2.92178 -1.39332 0
M  V30 946 H 93.0914 1.67361 -3.34576 0
M  V30 947 H 94.4244 2.21954 -4.39315 0
M  V30 948 N 96.0765 1.50051 0.48192 0
M  V30 949 C 97.3225 1.61706 1.2338 0
M  V30 950 C 97.6775 0.308488 1.89911 0
M  V30 951 O 96.9705 -0.692798 1.78636 0
M  V30 952 C 97.1645 2.72717 2.30998 0
M  V30 953 C 96.9935 4.14242 1.75024 0
M  V30 954 C 95.7635 4.80786 1.55476 0
M  V30 955 C 97.9615 4.98846 1.25128 0
M  V30 956 N 95.9435 6.06563 0.946311 0
M  V30 957 C 97.3145 6.15258 0.765382 0
M  V30 958 C 99.3695 4.84702 1.13881 0
M  V30 959 C 98.0725 7.19079 0.178113 0
M  V30 960 C 100.098 5.8869 0.565486 0
M  V30 961 C 99.4605 7.04343 0.0899105 0
M  V30 962 H 95.5595 0.645958 0.440753 0
M  V30 963 H 98.1435 1.8713 0.537624 0
M  V30 964 H 96.3145 2.49033 2.98055 0
M  V30 965 H 98.0465 2.73789 2.9803 0
M  V30 966 H 94.8015 4.37899 1.80392 0
M  V30 967 H 95.2255 6.73767 0.660812 0
M  V30 968 H 99.8675 3.95583 1.49244 0
M  V30 969 H 97.5855 8.07882 -0.187749 0
M  V30 970 H 101.171 5.79808 0.480974 0
M  V30 971 H 100.051 7.83433 -0.346782 0
M  V30 972 N 97.5546 -0.734337 1.39446 0
M  V30 973 C 98.4646 -1.87879 1.40495 0
M  V30 974 C 99.4806 -1.714 0.299672 0
M  V30 975 O 100.657 -1.93991 0.541249 0
M  V30 976 C 97.7216 -3.23477 1.24754 0
M  V30 977 C 96.7826 -3.52344 2.45259 0
M  V30 978 C 96.0156 -4.81473 2.30259 0
M  V30 979 O 96.2386 -5.55237 1.30643 0
M  V30 980 O 95.1726 -5.10254 3.19256 0
M  V30 981 H 98.9986 -1.89949 2.36966 0
M  V30 982 H 96.5836 -0.882243 1.20569 0
M  V30 983 H 98.4656 -4.04509 1.18111 0
M  V30 984 H 97.1406 -3.22176 0.313781 0
M  V30 985 H 96.0476 -2.71396 2.57478 0
M  V30 986 H 97.3806 -3.58426 3.37331 0
M  V30 987 N 99.0327 -1.24633 -0.964593 0
M  V30 988 C 99.9647 -0.999302 -2.06268 0
M  V30 989 C 100.978 0.0323226 -1.62768 0
M  V30 990 O 102.167 -0.205079 -1.77318 0
M  V30 991 C 99.2667 -0.486816 -3.35385 0
M  V30 992 C 98.4397 -1.5823 -4.07777 0
M  V30 993 C 97.4987 -1.07191 -5.15166 0
M  V30 994 O 96.5247 -1.76426 -5.41168 0
M  V30 995 N 97.7267 0.0920373 -5.80427 0
M  V30 996 H 100.492 -1.94477 -2.28033 0
M  V30 997 H 98.0527 -1.15704 -1.13244 0
M  V30 998 H 100.045 -0.130066 -4.04491 0
M  V30 999 H 98.6147 0.364459 -3.10468 0
M  V30 1000 H 97.8347 -2.11109 -3.32906 0
M  V30 1001 H 99.1227 -2.31854 -4.52903 0
M  V30 1002 H 98.5207 0.670784 -5.61709 0
M  V30 1003 H 97.0777 0.389905 -6.50633 0
M  V30 1004 N 100.511 1.16574 -1.06058 0
M  V30 1005 C 101.759 1.86677 -0.77434 0
M  V30 1006 C 102.08 1.81959 0.701147 0
M  V30 1007 O 101.35 1.2515 1.50713 0
M  V30 1008 H 99.9298 0.691134 -0.283449 0
M  V30 1009 H 102.592 1.41378 -1.34158 0
M  V30 1010 H 101.688 2.92181 -1.09711 0
M  V30 1011 N 101.989 0.842826 1.3317 0
M  V30 1012 C 103.236 0.440447 1.97652 0
M  V30 1013 C 103.564 -1.00123 1.6675 0
M  V30 1014 O 102.819 -1.7155 0.941761 0
M  V30 1015 C 103.118 0.612607 3.52111 0
M  V30 1016 C 102.784 2.02297 4.02972 0
M  V30 1017 C 101.446 2.40874 4.16573 0
M  V30 1018 C 103.798 2.94402 4.30089 0
M  V30 1019 C 101.126 3.70852 4.54627 0
M  V30 1020 C 103.478 4.23865 4.69597 0
M  V30 1021 C 102.142 4.62392 4.81404 0
M  V30 1022 H 101.412 0.161171 0.72326 0
M  V30 1023 H 104.059 1.07061 1.58777 0
M  V30 1024 H 102.364 -0.100849 3.9167 0
M  V30 1025 H 104.061 0.2815 4.00011 0
M  V30 1026 H 100.651 1.71338 3.92863 0
M  V30 1027 H 104.835 2.65835 4.19101 0
M  V30 1028 H 100.091 4.00501 4.61962 0
M  V30 1029 H 104.265 4.95306 4.89536 0
M  V30 1030 H 101.892 5.63154 5.10648 0
M  V30 1031 N 103.467 -1.45747 0.599634 0
M  V30 1032 C 104.692 -2.07178 0.0960198 0
M  V30 1033 C 105.117 -1.44268 -1.207 0
M  V30 1034 O 104.475 -0.532503 -1.73303 0
M  V30 1035 C 104.523 -3.60579 -0.0385348 0
M  V30 1036 O 103.627 -3.97713 -1.0908 0
M  V30 1037 H 102.968 -0.660251 0.0704593 0
M  V30 1038 H 105.498 -1.87124 0.827385 0
M  V30 1039 H 105.508 -4.07298 -0.239304 0
M  V30 1040 H 104.183 -4.05756 0.912947 0
M  V30 1041 H 102.76 -3.62678 -0.867135 0
M  V30 1042 N 104.945 -0.338344 -1.53925 0
M  V30 1043 C 105.877 0.555117 -2.22376 0
M  V30 1044 C 106.89 1.06812 -1.22862 0
M  V30 1045 O 108.079 0.979163 -1.49247 0
M  V30 1046 C 105.179 1.77609 -2.88631 0
M  V30 1047 C 104.352 1.39927 -4.14414 0
M  V30 1048 C 103.411 2.47936 -4.64127 0
M  V30 1049 O 102.437 2.11461 -5.28463 0
M  V30 1050 N 103.639 3.79107 -4.39612 0
M  V30 1051 H 106.404 -0.0310778 -2.99684 0
M  V30 1052 H 103.965 -0.162226 -1.61085 0
M  V30 1053 H 105.957 2.49287 -3.18807 0
M  V30 1054 H 104.527 2.26978 -2.14941 0
M  V30 1055 H 103.747 0.513481 -3.90841 0
M  V30 1056 H 105.035 1.12341 -4.96243 0
M  V30 1057 H 104.433 4.11531 -3.88148 0
M  V30 1058 H 102.99 4.4697 -4.74406 0
M  V30 1059 N 106.423 1.57458 -0.0668435 0
M  V30 1060 C 107.648 1.9804 0.616027 0
M  V30 1061 C 108.073 0.944771 1.62652 0
M  V30 1062 O 107.431 -0.0902094 1.81075 0
M  V30 1063 C 107.479 3.37665 1.26549 0
M  V30 1064 O 106.583 3.36701 2.38131 0
M  V30 1065 H 105.924 0.644719 0.158849 0
M  V30 1066 H 108.454 2.04121 -0.139891 0
M  V30 1067 H 108.464 3.7474 1.6135 0
M  V30 1068 H 107.139 4.12573 0.525016 0
M  V30 1069 H 105.716 3.1139 2.0516 0
M  V30 1070 N 107.901 -0.206675 1.56239 0
M  V30 1071 C 109.148 -0.928842 1.79941 0
M  V30 1072 C 109.476 -1.83734 0.638131 0
M  V30 1073 O 108.731 -1.92039 -0.376746 0
M  V30 1074 C 109.03 -1.78675 3.09532 0
M  V30 1075 C 108.696 -1.03022 4.38973 0
M  V30 1076 C 107.358 -0.821302 4.74139 0
M  V30 1077 C 109.71 -0.497081 5.18824 0
M  V30 1078 C 107.038 -0.0675719 5.86661 0
M  V30 1079 C 109.39 0.24338 6.32132 0
M  V30 1080 C 108.054 0.463422 6.65889 0
M  V30 1081 H 107.324 -0.339887 0.658451 0
M  V30 1082 H 109.971 -0.195977 1.90495 0
M  V30 1083 H 108.276 -2.58794 2.94165 0
M  V30 1084 H 109.973 -2.34792 3.25075 0
M  V30 1085 H 106.563 -1.20306 4.11369 0
M  V30 1086 H 110.747 -0.645921 4.92079 0
M  V30 1087 H 106.003 0.112995 6.11296 0
M  V30 1088 H 110.177 0.66393 6.93228 0
M  V30 1089 H 107.804 1.04938 7.52922 0
M  V30 1090 N 109.379 -1.50304 -0.473955 0
M  V30 1091 C 110.607 -1.64902 -1.24959 0
M  V30 1092 C 111.022 -0.331198 -1.85872 0
M  V30 1093 O 110.379 0.68652 -1.69095 0
M  V30 1094 C 110.43 -2.73803 -2.36038 0
M  V30 1095 O 110.151 -4.00477 -1.77624 0
M  V30 1096 C 111.652 -2.99349 -3.26964 0
M  V30 1097 H 108.872 -0.554383 -0.378022 0
M  V30 1098 H 111.416 -1.9651 -0.566054 0
M  V30 1099 H 109.571 -2.44898 -3.00173 0
M  V30 1100 H 109.985 -4.60678 -2.5075 0
M  V30 1101 H 111.459 -3.79217 -4.01121 0
M  V30 1102 H 111.936 -2.10307 -3.85574 0
M  V30 1103 H 112.542 -3.29774 -2.68569 0
M  V30 1104 N 110.857 0.726932 -1.39834 0
M  V30 1105 C 111.789 1.85147 -1.35104 0
M  V30 1106 C 112.802 1.60736 -0.258392 0
M  V30 1107 O 113.991 1.70821 -0.517931 0
M  V30 1108 C 111.091 3.21332 -1.07697 0
M  V30 1109 C 110.264 3.73033 -2.28396 0
M  V30 1110 C 109.323 4.87802 -1.97322 0
M  V30 1111 O 108.349 5.01043 -2.70083 0
M  V30 1112 N 109.551 5.72768 -0.944273 0
M  V30 1113 H 112.316 1.89706 -2.32017 0
M  V30 1114 H 109.877 0.908006 -1.3404 0
M  V30 1115 H 111.869 3.95691 -0.849144 0
M  V30 1116 H 110.439 3.11992 -0.194909 0
M  V30 1117 H 109.659 2.89934 -2.6708 0
M  V30 1118 H 110.947 4.0431 -3.08887 0
M  V30 1119 H 110.345 5.64669 -0.341427 0
M  V30 1120 H 108.902 6.4716 -0.776346 0
M  V30 1121 N 112.336 1.25143 0.95797 0
M  V30 1122 C 113.246 1.06968 2.08794 0
M  V30 1123 C 114.262 0.00773911 1.73998 0
M  V30 1124 O 115.438 0.207972 2.00323 0
M  V30 1125 C 112.503 0.68691 3.39827 0
M  V30 1126 C 111.564 1.82641 3.88511 0
M  V30 1127 C 110.797 1.46181 5.1329 0
M  V30 1128 O 111.02 0.355971 5.69288 0
M  V30 1129 O 109.954 2.29085 5.566 0
M  V30 1130 H 113.78 2.01723 2.27027 0
M  V30 1131 H 111.365 1.04051 1.07209 0
M  V30 1132 H 113.247 0.485417 4.18595 0
M  V30 1133 H 111.922 -0.231417 3.22872 0
M  V30 1134 H 110.829 2.08274 3.10762 0
M  V30 1135 H 112.162 2.72386 4.09959 0
M  V30 1136 N 113.814 -1.1601 1.06675 0
M  V30 1137 C 114.746 -2.20115 0.638921 0
M  V30 1138 C 115.759 -1.59916 -0.305057 0
M  V30 1139 O 116.948 -1.78245 -0.0954446 0
M  V30 1140 C 114.048 -3.38798 -0.0830083 0
M  V30 1141 C 113.221 -4.2855 0.875426 0
M  V30 1142 C 112.28 -5.25849 0.192042 0
M  V30 1143 O 111.306 -5.63102 0.830921 0
M  V30 1144 N 112.508 -5.70648 -1.06493 0
M  V30 1145 H 115.273 -2.57439 1.53444 0
M  V30 1146 H 112.834 -1.31057 0.950557 0
M  V30 1147 H 114.826 -4.00936 -0.550685 0
M  V30 1148 H 113.396 -2.99947 -0.880386 0
M  V30 1149 H 112.616 -3.63617 1.52238 0
M  V30 1150 H 113.904 -4.85393 1.52548 0
M  V30 1151 H 113.302 -5.42482 -1.60405 0
M  V30 1152 H 111.859 -6.34859 -1.47641 0
M  V30 1153 N 115.292 -0.849877 -1.32721 0
M  V30 1154 C 116.538 -0.451591 -1.97708 0
M  V30 1155 C 116.871 0.989175 -1.6712 0
M  V30 1156 O 116.146 1.69334 -0.956891 0
M  V30 1157 C 116.429 -0.685598 -3.53513 0
M  V30 1158 C 116.282 -2.17444 -3.93749 0
M  V30 1159 C 117.601 -0.138874 -4.39881 0
M  V30 1160 H 114.72 -0.16555 -0.718166 0
M  V30 1161 H 117.362 -1.06742 -1.57182 0
M  V30 1162 H 115.512 -0.161416 -3.88165 0
M  V30 1163 H 117.184 -2.76433 -3.693 0
M  V30 1164 H 115.427 -2.65476 -3.43081 0
M  V30 1165 H 116.098 -2.28888 -5.02309 0
M  V30 1166 H 118.574 -0.587068 -4.11938 0
M  V30 1167 H 117.45 -0.332213 -5.47894 0
M  V30 1168 H 117.711 0.95806 -4.31594 0
M  V30 1169 N 116.77 1.45427 -0.607355 0
M  V30 1170 C 117.733 2.28974 0.101693 0
M  V30 1171 C 118.733 1.39754 0.795329 0
M  V30 1172 O 119.923 1.61878 0.643527 0
M  V30 1173 C 117.055 3.20768 1.15414 0
M  V30 1174 H 118.248 2.93147 -0.632844 0
M  V30 1175 H 115.801 1.51945 -0.366391 0
M  V30 1176 H 116.536 2.61395 1.91945 0
M  V30 1177 H 116.321 3.86489 0.66098 0
M  V30 1178 H 117.811 3.83589 1.65073 0
M  V30 1179 N 118.248 0.346503 1.53744 0
M  V30 1180 C 119.525 -0.304532 1.93215 0
M  V30 1181 C 119.905 -1.67993 1.27834 0
M  V30 1182 O 119.253 -2.24411 0.430352 0
M  V30 1183 C 119.463 -0.373852 3.46992 0
M  V30 1184 C 120.811 -0.62329 4.2 0
M  V30 1185 O 121.835 -0.455847 3.53271 0
M  V30 1186 O 120.694 -0.947879 5.38217 0
M  V30 1187 H 117.788 -0.178318 0.807547 0
M  V30 1188 H 120.334 0.397895 1.64969 0
M  V30 1189 H 119.106 0.591224 3.86808 0
M  V30 1190 H 118.729 -1.12294 3.81413 0
M  V30 1191 N 119.726 -1.57421 0.075193 0
M  V30 1192 C 120.975 -1.92794 -0.592731 0
M  V30 1193 C 121.288 -0.957478 -1.70563 0
M  V30 1194 O 122.494 -1.20417 -2.43335 0
M  V30 1195 C 120.95 -3.42495 -1.10569 0
M  V30 1196 C 120.558 -4.47994 -0.0236121 0
M  V30 1197 C 122.302 -3.86864 -1.74748 0
M  V30 1198 C 120.209 -5.88829 -0.550803 0
M  V30 1199 H 119.139 -0.719591 -0.225177 0
M  V30 1200 H 121.79 -1.82902 0.147978 0
M  V30 1201 H 120.172 -3.47471 -1.89947 0
M  V30 1202 H 121.346 -4.54637 0.751099 0
M  V30 1203 H 119.661 -4.13113 0.522159 0
M  V30 1204 H 122.258 -4.8947 -2.15229 0
M  V30 1205 H 122.601 -3.24417 -2.60882 0
M  V30 1206 H 123.134 -3.84504 -1.01986 0
M  V30 1207 H 119.873 -6.54929 0.273457 0
M  V30 1208 H 119.393 -5.85698 -1.29296 0
M  V30 1209 H 121.072 -6.38811 -1.02613 0
M  V30 1210 N 121.204 0.198386 -1.56346 0
M  V30 1211 C 122.481 0.944982 -1.71258 0
M  V30 1212 C 122.861 2.0151 -0.629048 0
M  V30 1213 O 122.209 2.25639 0.360473 0
M  V30 1214 C 122.419 1.5344 -3.1346 0
M  V30 1215 C 123.767 2.01778 -3.73591 0
M  V30 1216 O 124.791 1.63288 -3.16568 0
M  V30 1217 O 123.65 2.72594 -4.73661 0
M  V30 1218 H 120.744 0.442939 -0.69838 0
M  V30 1219 H 123.29 0.188342 -1.68652 0
M  V30 1220 H 122.062 0.762869 -3.83792 0
M  V30 1221 H 121.685 2.35596 -3.20282 0
M  V30 1222 N 122.682 1.50554 0.465978 0
M  V30 1223 C 123.93 1.61479 1.21528 0
M  V30 1224 C 124.251 0.319596 1.92363 0
M  V30 1225 O 123.521 -0.663194 1.84333 0
M  V30 1226 H 122.101 0.595055 0.451573 0
M  V30 1227 H 124.763 1.87355 0.53704 0
M  V30 1228 H 123.859 2.42846 1.96042 0
M  V30 1229 N 124.16 -0.719506 1.40217 0
M  V30 1230 C 125.092 -1.84428 1.36084 0
M  V30 1231 C 126.105 -1.60597 0.266913 0
M  V30 1232 O 127.294 -1.70544 0.526983 0
M  V30 1233 C 124.394 -3.20757 1.094 0
M  V30 1234 C 123.567 -3.71817 2.30372 0
M  V30 1235 C 122.626 -4.86748 1.99907 0
M  V30 1236 O 121.652 -4.99603 2.72737 0
M  V30 1237 N 122.854 -5.7226 0.974635 0
M  V30 1238 H 125.619 -1.88473 2.33019 0
M  V30 1239 H 123.18 -0.900885 1.3452 0
M  V30 1240 H 125.172 -3.95235 0.870116 0
M  V30 1241 H 123.742 -3.11884 0.211452 0
M  V30 1242 H 122.962 -2.88514 2.68614 0
M  V30 1243 H 124.25 -4.02666 3.11026 0
M  V30 1244 H 123.648 -5.6448 0.371368 0
M  V30 1245 H 122.205 -6.46739 0.810656 0
M  V30 1246 N 125.638 -1.25649 -0.95132 0
M  V30 1247 C 126.868 -1.13179 -1.72841 0
M  V30 1248 C 127.276 0.316827 -1.86528 0
M  V30 1249 O 126.619 1.22948 -1.3649 0
M  V30 1250 C 126.681 -1.71644 -3.15878 0
M  V30 1251 C 126.345 -3.20667 -3.25609 0
M  V30 1252 C 127.342 -4.17616 -3.09666 0
M  V30 1253 C 125.027 -3.6094 -3.49324 0
M  V30 1254 C 127.021 -5.52817 -3.17289 0
M  V30 1255 C 124.708 -4.96278 -3.56584 0
M  V30 1256 C 125.706 -5.92025 -3.40581 0
M  V30 1257 O 125.394 -7.24899 -3.47528 0
M  V30 1258 H 125.126 -0.395389 -0.54831 0
M  V30 1259 H 127.68 -1.66566 -1.20187 0
M  V30 1260 H 125.91 -1.12707 -3.69911 0
M  V30 1261 H 127.599 -1.54225 -3.75459 0
M  V30 1262 H 128.365 -3.87842 -2.91211 0
M  V30 1263 H 124.244 -2.86907 -3.6084 0
M  V30 1264 H 127.788 -6.2753 -3.04716 0
M  V30 1265 H 123.685 -5.25716 -3.74556 0
M  V30 1266 H 124.453 -7.33039 -3.64138 0
M  V30 1267 N 127.117 1.15442 -1.07289 0
M  V30 1268 C 128.08 2.18358 -0.696591 0
M  V30 1269 C 129.08 1.58637 0.262837 0
M  V30 1270 O 130.27 1.74145 0.0438809 0
M  V30 1271 C 127.402 3.4089 -0.0266151 0
M  V30 1272 H 128.595 2.53162 -1.60776 0
M  V30 1273 H 126.148 1.29893 -0.869342 0
M  V30 1274 H 126.883 3.11653 0.896822 0
M  V30 1275 H 126.668 3.85495 -0.716657 0
M  V30 1276 H 128.158 4.17009 0.222028 0
M  V30 1277 N 128.595 0.856903 1.32268 0
M  V30 1278 C 129.528 0.247937 2.26849 0
M  V30 1279 C 130.506 -0.615382 1.50505 0
M  V30 1280 O 131.69 -0.571689 1.79622 0
M  V30 1281 C 128.817 -0.650093 3.32403 0
M  V30 1282 C 127.863 0.140138 4.2627 0
M  V30 1283 S 128.696 1.51004 5.13769 0
M  V30 1284 C 129.852 0.61778 6.22844 0
M  V30 1285 H 130.085 1.04971 2.78152 0
M  V30 1286 H 127.618 0.654665 1.39834 0
M  V30 1287 H 129.576 -1.16256 3.93694 0
M  V30 1288 H 128.237 -1.4257 2.7988 0
M  V30 1289 H 127.43 -0.543945 5.01056 0
M  V30 1290 H 127.032 0.584267 3.69408 0
M  V30 1291 H 129.324 -0.177053 6.77269 0
M  V30 1292 H 130.267 1.33636 6.95375 0
M  V30 1293 H 130.675 0.191124 5.64176 0
M  V30 1294 N 130.073 -1.45103 0.615059 0
M  V30 1295 C 131.301 -2.06553 0.11977 0
M  V30 1296 C 131.716 -1.45842 -1.19898 0
M  V30 1297 O 131.073 -0.575325 -1.73194 0
M  V30 1298 C 131.124 -3.61495 -0.018364 0
M  V30 1299 O 130.845 -4.19942 1.24822 0
M  V30 1300 C 132.346 -4.39947 -0.544237 0
M  V30 1301 H 129.566 -0.667096 0.0722739 0
M  V30 1302 H 132.11 -1.8623 0.84491 0
M  V30 1303 H 130.265 -3.81135 -0.693865 0
M  V30 1304 H 130.679 -5.13204 1.0827 0
M  V30 1305 H 132.153 -5.48838 -0.589953 0
M  V30 1306 H 132.63 -4.10255 -1.56805 0
M  V30 1307 H 133.236 -4.25188 0.0974703 0
M  V30 1308 N 131.551 -0.354651 -1.53558 0
M  V30 1309 C 132.967 -0.00315426 -1.596 0
M  V30 1310 C 133.167 1.47741 -1.37021 0
M  V30 1311 O 132.223 2.23759 -1.16996 0
M  V30 1312 C 133.536 -0.44929 -2.97325 0
M  V30 1313 C 135.084 -0.402578 -3.104 0
M  V30 1314 C 135.559 -0.824355 -4.5052 0
M  V30 1315 N 137.05 -0.778979 -4.56603 0
M  V30 1316 C 137.785 -1.07715 -5.63192 0
M  V30 1317 N 137.281 -1.44405 -6.77583 0
M  V30 1318 N 139.074 -1.00066 -5.53121 0
M  V30 1319 H 131.225 -1.31893 -1.66487 0
M  V30 1320 H 133.488 -0.538388 -0.780284 0
M  V30 1321 H 133.194 -1.48202 -3.1895 0
M  V30 1322 H 133.068 0.169772 -3.76818 0
M  V30 1323 H 135.455 0.621004 -2.88492 0
M  V30 1324 H 135.536 -1.05699 -2.32941 0
M  V30 1325 H 135.18 -1.846 -4.73165 0
M  V30 1326 H 135.11 -0.147304 -5.26394 0
M  V30 1327 H 137.601 -0.508528 -3.74463 0
M  V30 1328 H 137.914 -1.65612 -7.54846 0
M  V30 1329 H 136.259 -1.4826 -6.79002 0
M  V30 1330 H 139.45 -0.713293 -4.62633 0
M  V30 1331 H 139.623 -1.23638 -6.36096 0
M  V30 1332 N 133.029 1.57378 -0.0835403 0
M  V30 1333 C 133.992 2.12252 0.864959 0
M  V30 1334 C 134.992 1.04916 1.21858 0
M  V30 1335 O 136.182 1.30853 1.14991 0
M  V30 1336 C 133.314 2.63358 2.16461 0
M  V30 1337 H 134.507 2.97371 0.388676 0
M  V30 1338 H 132.06 1.55423 0.165317 0
M  V30 1339 H 132.795 1.81727 2.686 0
M  V30 1340 H 132.58 3.41826 1.92087 0
M  V30 1341 H 134.07 3.05847 2.84337 0
M  V30 1342 N 134.507 -0.190092 1.56449 0
M  V30 1343 C 135.439 -1.25973 1.91477 0
M  V30 1344 C 136.452 -1.41452 0.805931 0
M  V30 1345 O 137.641 -1.41789 1.08435 0
M  V30 1346 C 134.741 -2.63117 2.13594 0
M  V30 1347 C 133.914 -2.69182 3.4476 0
M  V30 1348 C 132.973 -3.87557 3.5593 0
M  V30 1349 O 131.999 -3.74427 4.28711 0
M  V30 1350 N 133.201 -5.03224 2.89388 0
M  V30 1351 H 135.966 -0.962394 2.83828 0
M  V30 1352 H 133.527 -0.379981 1.57378 0
M  V30 1353 H 135.519 -3.40742 2.1835 0
M  V30 1354 H 134.089 -2.85319 1.27719 0
M  V30 1355 H 133.309 -1.77793 3.51828 0
M  V30 1356 H 134.597 -2.70229 4.31107 0
M  V30 1357 H 133.995 -5.16791 2.30094 0
M  V30 1358 H 132.552 -5.78778 2.99764 0
M  V30 1359 N 135.985 -1.50799 -0.457987 0
M  V30 1360 C 137.401 -1.38515 -0.792819 0
M  V30 1361 C 137.601 -0.451409 -1.96379 0
M  V30 1362 O 136.657 0.10112 -2.52297 0
M  V30 1363 C 137.97 -2.80149 -1.09258 0
M  V30 1364 C 139.518 -2.89156 -1.19825 0
M  V30 1365 C 139.993 -4.31651 -1.53106 0
M  V30 1366 N 141.484 -4.34662 -1.60072 0
M  V30 1367 C 142.219 -5.41928 -1.87354 0
M  V30 1368 N 141.715 -6.59384 -2.12568 0
M  V30 1369 N 143.508 -5.29385 -1.88965 0
M  V30 1370 H 135.659 -2.10073 0.313511 0
M  V30 1371 H 137.922 -0.944803 0.0777862 0
M  V30 1372 H 137.628 -3.50374 -0.305084 0
M  V30 1373 H 137.502 -3.18204 -2.02549 0
M  V30 1374 H 139.889 -2.19141 -1.97639 0
M  V30 1375 H 139.97 -2.54626 -0.244821 0
M  V30 1376 H 139.614 -5.02208 -0.758266 0
M  V30 1377 H 139.544 -4.63678 -2.49621 0
M  V30 1378 H 142.035 -3.49973 -1.42573 0
M  V30 1379 H 142.348 -7.36934 -2.32696 0
M  V30 1380 H 140.693 -6.62535 -2.09933 0
M  V30 1381 H 143.884 -4.36616 -1.68772 0
M  V30 1382 H 144.057 -6.13066 -2.09891 0
M  V30 1383 N 137.463 0.71206 -1.40597 0
M  V30 1384 C 138.709 1.47416 -1.39271 0
M  V30 1385 C 139.042 1.942 0.00388791 0
M  V30 1386 O 138.317 1.68403 0.973179 0
M  V30 1387 C 138.6 2.69774 -2.38525 0
M  V30 1388 C 138.453 2.28861 -3.87224 0
M  V30 1389 C 139.772 3.71939 -2.35264 0
M  V30 1390 H 136.891 0.534713 -0.5072 0
M  V30 1391 H 139.533 0.812375 -1.71757 0
M  V30 1392 H 137.683 3.26238 -2.10953 0
M  V30 1393 H 139.355 1.77852 -4.25636 0
M  V30 1394 H 137.598 1.60824 -4.02887 0
M  V30 1395 H 138.269 3.16584 -4.52193 0
M  V30 1396 H 140.745 3.25113 -2.59694 0
M  V30 1397 H 139.621 4.55186 -3.06753 0
M  V30 1398 H 139.882 4.20484 -1.36549 0
M  V30 1399 N 138.941 1.26152 0.944643 0
M  V30 1400 C 140.357 1.03189 1.21754 0
M  V30 1401 C 140.557 -0.245112 2.00004 0
M  V30 1402 O 139.613 -0.955176 2.33736 0
M  V30 1403 C 140.926 2.26119 1.98219 0
M  V30 1404 C 142.474 2.30984 2.11224 0
M  V30 1405 C 142.949 3.53597 2.91089 0
M  V30 1406 N 144.44 3.54053 2.98664 0
M  V30 1407 C 145.175 4.45593 3.60881 0
M  V30 1408 N 144.671 5.47416 4.24626 0
M  V30 1409 N 146.464 4.33252 3.58119 0
M  V30 1410 H 138.615 2.08177 0.421437 0
M  V30 1411 H 140.878 0.914723 0.248969 0
M  V30 1412 H 140.584 3.18984 1.48128 0
M  V30 1413 H 140.458 2.3009 2.98895 0
M  V30 1414 H 142.845 1.38635 2.60508 0
M  V30 1415 H 142.926 2.31026 1.09821 0
M  V30 1416 H 142.57 4.46273 2.42493 0
M  V30 1417 H 142.5 3.50802 3.92741 0
M  V30 1418 H 144.991 2.80403 2.53343 0
M  V30 1419 H 145.304 6.13459 4.69987 0
M  V30 1420 H 143.649 5.51278 4.23223 0
M  V30 1421 H 146.84 3.52924 3.0751 0
M  V30 1422 H 147.013 5.04786 4.06319 0
M  V30 1423 N 140.419 -1.14872 1.07899 0
M  V30 1424 C 141.382 -2.17986 0.708161 0
M  V30 1425 C 142.382 -1.58775 -0.25442 0
M  V30 1426 O 143.572 -1.74166 -0.034645 0
M  V30 1427 C 140.704 -3.40871 0.0446929 0
M  V30 1428 H 141.897 -2.52306 1.62116 0
M  V30 1429 H 139.45 -1.2943 0.876218 0
M  V30 1430 H 140.185 -3.12124 -0.880281 0
M  V30 1431 H 139.97 -3.8511 0.737091 0
M  V30 1432 H 141.46 -4.17121 -0.19991 0
M  V30 1433 N 141.898 -0.863906 -1.31812 0
M  V30 1434 C 142.861 -0.320212 -2.26952 0
M  V30 1435 C 143.861 0.525369 -1.51975 0
M  V30 1436 O 145.051 0.335547 -1.70938 0
M  V30 1437 C 142.183 0.545919 -3.365 0
M  V30 1438 H 143.376 -1.16004 -2.76556 0
M  V30 1439 H 140.929 -0.638995 -1.42641 0
M  V30 1440 H 141.664 1.40718 -2.92179 0
M  V30 1441 H 141.449 -0.0594674 -3.92055 0
M  V30 1442 H 142.939 0.918796 -4.07367 0
M  V30 1443 N 143.376 1.44774 -0.622745 0
M  V30 1444 C 144.309 2.27792 0.136329 0
M  V30 1445 C 145.287 1.38041 0.859264 0
M  V30 1446 O 146.471 1.67478 0.86506 0
M  V30 1447 C 143.598 3.16776 1.19878 0
M  V30 1448 C 142.644 4.22575 0.57731 0
M  V30 1449 S 143.477 5.31825 -0.626294 0
M  V30 1450 C 144.633 6.24377 0.436378 0
M  V30 1451 H 144.866 2.91824 -0.567967 0
M  V30 1452 H 142.399 1.48838 -0.410677 0
M  V30 1453 H 144.357 3.68596 1.80686 0
M  V30 1454 H 143.018 2.5198 1.87523 0
M  V30 1455 H 142.211 4.84818 1.37721 0
M  V30 1456 H 141.813 3.73974 0.0440439 0
M  V30 1457 H 144.105 6.64689 1.31128 0
M  V30 1458 H 145.048 7.07941 -0.150271 0
M  V30 1459 H 145.456 5.59381 0.758513 0
M  V30 1460 N 144.854 0.36279 1.53368 0
M  V30 1461 C 146.101 -0.227776 2.01215 0
M  V30 1462 C 146.429 -1.49003 1.25014 0
M  V30 1463 O 145.684 -1.92876 0.331236 0
M  V30 1464 C 145.983 -0.568417 3.52851 0
M  V30 1465 C 145.649 0.59918 4.46901 0
M  V30 1466 C 144.311 0.919559 4.72332 0
M  V30 1467 C 146.663 1.38156 5.02556 0
M  V30 1468 C 143.991 2.02434 5.5067 0
M  V30 1469 C 146.343 2.47674 5.821 0
M  V30 1470 C 145.007 2.8025 6.05819 0
M  V30 1471 H 144.277 -0.083349 0.736297 0
M  V30 1472 H 146.924 0.494677 1.85001 0
M  V30 1473 H 145.229 -1.37185 3.66998 0
M  V30 1474 H 146.926 -1.03756 3.87344 0
M  V30 1475 H 143.516 0.339437 4.27254 0
M  V30 1476 H 147.7 1.14729 4.82857 0
M  V30 1477 H 142.956 2.28075 5.67267 0
M  V30 1478 H 147.13 3.08716 6.24234 0
M  V30 1479 H 144.757 3.65979 6.66306 0
M  V30 1480 N 146.332 -1.57332 0.0918853 0
M  V30 1481 C 147.743 -1.81496 -0.437739 0
M  V30 1482 C 148.094 -1.00727 -1.6837 0
M  V30 1483 O 147.219 -0.235694 -2.15113 0
M  V30 1484 C 147.814 -3.29197 -0.800939 0
M  V30 1485 C 146.373 -3.54136 -1.27532 0
M  V30 1486 C 145.52 -2.75979 -0.270392 0
M  V30 1487 H 148.471 -1.55494 0.317366 0
M  V30 1488 H 148.492 -3.42344 -1.66074 0
M  V30 1489 H 148.004 -3.87955 0.106078 0
M  V30 1490 H 146.105 -3.00705 -2.20016 0
M  V30 1491 H 146.218 -4.62792 -1.23938 0
M  V30 1492 H 144.582 -2.43349 -0.751872 0
M  V30 1493 H 145.365 -3.37484 0.629248 0
M  V30 1494 N 147.81 0.181792 -1.56548 0
M  V30 1495 C 148.72 1.24538 -1.98815 0
M  V30 1496 C 149.736 1.49045 -0.897861 0
M  V30 1497 O 150.912 1.61399 -1.20467 0
M  V30 1498 C 147.977 2.56683 -2.33055 0
M  V30 1499 C 147.038 2.40131 -3.55859 0
M  V30 1500 C 146.271 3.65975 -3.88456 0
M  V30 1501 O 146.494 4.70711 -3.22161 0
M  V30 1502 O 145.428 3.6071 -4.81842 0
M  V30 1503 H 149.254 0.916647 -2.89536 0
M  V30 1504 H 146.839 0.387842 -1.44278 0
M  V30 1505 H 148.721 3.34655 -2.56094 0
M  V30 1506 H 147.396 2.89157 -1.45498 0
M  V30 1507 H 146.303 1.60226 -3.38051 0
M  V30 1508 H 147.636 2.12585 -4.43924 0
M  V30 1509 N 149.288 1.51039 0.449983 0
M  V30 1510 C 150.516 1.66869 1.2232 0
M  V30 1511 C 150.931 0.360727 1.85322 0
M  V30 1512 O 150.288 -0.659531 1.70166 0
M  V30 1513 C 150.339 2.77524 2.31652 0
M  V30 1514 O 150.06 4.03252 1.7123 0
M  V30 1515 C 151.561 3.04512 3.2216 0
M  V30 1516 H 148.781 0.560326 0.369155 0
M  V30 1517 H 151.325 1.97385 0.534719 0
M  V30 1518 H 149.48 2.49642 2.96239 0
M  V30 1519 H 149.894 4.64609 2.43389 0
M  V30 1520 H 151.368 3.85551 3.95038 0
M  V30 1521 H 151.845 2.16415 3.8218 0
M  V30 1522 H 152.451 3.34005 2.63288 0
M  V30 1523 N 150.766 -0.704594 1.40972 0
M  V30 1524 C 151.696 -1.83124 1.44872 0
M  V30 1525 C 152.677 -1.67281 0.30838 0
M  V30 1526 O 153.862 -1.87149 0.518556 0
M  V30 1527 C 150.992 -3.21181 1.32136 0
M  V30 1528 C 149.946 -3.51714 2.43888 0
M  V30 1529 C 149.272 -4.89032 2.16222 0
M  V30 1530 C 150.572 -3.516 3.86232 0
M  V30 1531 H 152.266 -1.80117 2.39161 0
M  V30 1532 H 149.812 -0.865145 1.15114 0
M  V30 1533 H 151.765 -3.99702 1.33479 0
M  V30 1534 H 150.489 -3.24791 0.343279 0
M  V30 1535 H 149.148 -2.75539 2.41813 0
M  V30 1536 H 148.796 -4.89256 1.16778 0
M  V30 1537 H 148.496 -5.10426 2.911 0
M  V30 1538 H 150.02 -5.69873 2.19265 0
M  V30 1539 H 151.434 -4.2014 3.9007 0
M  V30 1540 H 149.831 -3.84523 4.60719 0
M  V30 1541 H 150.901 -2.50757 4.15029 0
M  V30 1542 N 152.244 -1.26651 -0.937939 0
M  V30 1543 C 153.521 -1.0313 -1.66204 0
M  V30 1544 C 153.901 0.437256 -2.06522 0
M  V30 1545 O 153.249 1.41831 -1.79154 0
M  V30 1546 C 153.459 -1.98314 -2.87181 0
M  V30 1547 C 154.807 -2.27107 -3.58758 0
M  V30 1548 O 155.831 -1.96205 -2.97291 0
M  V30 1549 O 154.69 -2.79736 -4.69479 0
M  V30 1550 H 151.784 -0.392384 -0.727986 0
M  V30 1551 H 154.33 -1.37874 -0.989382 0
M  V30 1552 H 153.102 -2.97399 -2.54302 0
M  V30 1553 H 152.725 -1.64068 -3.6217 0
M  V30 1554 N 153.722 1.14298 -1.08507 0
M  V30 1555 C 154.632 2.23027 -0.727753 0
M  V30 1556 C 155.648 1.71952 0.26619 0
M  V30 1557 O 156.824 2.011 0.109882 0
M  V30 1558 C 153.889 3.46403 -0.143541 0
M  V30 1559 C 152.95 4.12413 -1.19223 0
M  V30 1560 C 152.183 5.29899 -0.635798 0
M  V30 1561 O 152.406 5.67796 0.544393 0
M  V30 1562 O 151.34 5.85717 -1.38634 0
M  V30 1563 H 155.166 2.55945 -1.63481 0
M  V30 1564 H 152.751 1.22248 -0.858817 0
M  V30 1565 H 154.633 4.21018 0.179404 0
M  V30 1566 H 153.308 3.15206 0.736659 0
M  V30 1567 H 152.215 3.39667 -1.56772 0
M  V30 1568 H 153.548 4.47718 -2.04474 0
M  V30 1569 N 155.201 0.870884 1.31352 0
M  V30 1570 C 156.449 0.48132 1.96285 0
M  V30 1571 C 156.77 -0.969813 1.69173 0
M  V30 1572 O 156.04 -1.67998 1.00764 0
M  V30 1573 H 154.62 0.175002 0.726212 0
M  V30 1574 H 157.282 1.11087 1.60143 0
M  V30 1575 H 156.378 0.639825 3.05471 0
M  V30 1576 N 156.679 -1.44442 0.630414 0
M  V30 1577 C 157.612 -2.27862 -0.124247 0
M  V30 1578 C 158.59 -1.38495 -0.851931 0
M  V30 1579 O 159.774 -1.67935 -0.856166 0
M  V30 1580 C 156.901 -3.17407 -1.18197 0
M  V30 1581 C 155.947 -4.22875 -0.554892 0
M  V30 1582 S 156.78 -5.31485 0.654489 0
M  V30 1583 C 157.936 -6.246 -0.40326 0
M  V30 1584 H 158.169 -2.91519 0.583435 0
M  V30 1585 H 155.702 -1.48618 0.418565 0
M  V30 1586 H 157.66 -3.69549 -1.78728 0
M  V30 1587 H 156.321 -2.52971 -1.86184 0
M  V30 1588 H 155.514 -4.85542 -1.35148 0
M  V30 1589 H 155.116 -3.73992 -0.0242105 0
M  V30 1590 H 157.408 -6.65375 -1.27602 0
M  V30 1591 H 158.351 -7.07851 0.187813 0
M  V30 1592 H 158.759 -5.59775 -0.728837 0
M  V30 1593 N 158.157 -0.370918 -1.53173 0
M  V30 1594 C 159.089 0.507823 -2.23503 0
M  V30 1595 C 160.102 1.04182 -1.251 0
M  V30 1596 O 161.291 0.947286 -1.5129 0
M  V30 1597 C 158.391 1.71447 -2.92334 0
M  V30 1598 C 157.564 1.31105 -4.17289 0
M  V30 1599 C 156.623 2.38035 -4.69282 0
M  V30 1600 O 155.649 2.00204 -5.32829 0
M  V30 1601 N 156.851 3.69697 -4.47554 0
M  V30 1602 H 159.616 -0.0946382 -2.99551 0
M  V30 1603 H 157.177 -0.196358 -1.60705 0
M  V30 1604 H 159.169 2.42469 -3.24023 0
M  V30 1605 H 157.739 2.22368 -2.19707 0
M  V30 1606 H 156.959 0.430462 -3.91843 0
M  V30 1607 H 158.247 1.0179 -4.98514 0
M  V30 1608 H 157.645 4.03205 -3.9679 0
M  V30 1609 H 156.202 4.36807 -4.8378 0
M  V30 1610 N 159.635 1.57281 -0.100228 0
M  V30 1611 C 160.884 1.93713 0.561984 0
M  V30 1612 C 161.197 0.984492 1.69018 0
M  V30 1613 O 162.403 1.24273 2.41389 0
M  V30 1614 C 160.859 3.4421 1.05106 0
M  V30 1615 C 160.467 4.47975 -0.0476628 0
M  V30 1616 C 162.211 3.89595 1.68571 0
M  V30 1617 C 160.118 5.89631 0.457055 0
M  V30 1618 H 159.048 0.723082 0.2137 0
M  V30 1619 H 161.699 1.82644 -0.177057 0
M  V30 1620 H 160.081 3.50449 1.84395 0
M  V30 1621 H 161.255 4.53385 -0.823333 0
M  V30 1622 H 159.57 4.1223 -0.587816 0
M  V30 1623 H 162.167 4.92832 2.07414 0
M  V30 1624 H 162.51 3.28526 2.55688 0
M  V30 1625 H 163.043 3.86078 0.958562 0
M  V30 1626 H 159.782 6.54411 -0.377616 0
M  V30 1627 H 159.302 5.87681 1.19962 0
M  V30 1628 H 160.981 6.40363 0.92437 0
M  V30 1629 N 161.113 -0.173488 1.56642 0
M  V30 1630 C 162.524 -0.736155 1.71574 0
M  V30 1631 C 162.875 -1.82888 0.710389 0
M  V30 1632 O 162 -2.16017 -0.1287 0
M  V30 1633 C 162.595 -1.34211 3.11083 0
M  V30 1634 C 161.154 -1.85162 3.27707 0
M  V30 1635 C 160.301 -0.729765 2.67525 0
M  V30 1636 H 163.252 0.0518786 1.58615 0
M  V30 1637 H 163.273 -2.21178 3.09613 0
M  V30 1638 H 162.785 -0.546579 3.84232 0
M  V30 1639 H 160.886 -2.67366 2.59512 0
M  V30 1640 H 160.999 -1.99855 4.35425 0
M  V30 1641 H 159.363 -1.14965 2.27278 0
M  V30 1642 H 160.146 0.0538806 3.43258 0
M  V30 1643 N 162.591 -1.51276 -0.441967 0
M  V30 1644 C 163.816 -1.67799 -1.21895 0
M  V30 1645 C 164.241 -0.372864 -1.84367 0
M  V30 1646 O 163.599 0.666501 -1.68604 0
M  V30 1647 C 163.647 -2.79199 -2.28211 0
M  V30 1648 O 162.751 -2.42479 -3.33583 0
M  V30 1649 H 162.092 -0.559649 -0.357336 0
M  V30 1650 H 164.622 -1.97815 -0.522522 0
M  V30 1651 H 164.632 -3.03146 -2.73069 0
M  V30 1652 H 163.307 -3.73906 -1.82118 0
M  V30 1653 H 161.884 -2.29087 -2.94234 0
M  V30 1654 N 164.069 0.697108 -1.41344 0
M  V30 1655 C 165.297 1.48593 -1.43972 0
M  V30 1656 C 165.712 1.88747 -0.0445612 0
M  V30 1657 O 165.069 1.56682 0.935785 0
M  V30 1658 C 165.12 2.74946 -2.34706 0
M  V30 1659 O 164.841 2.36484 -3.68791 0
M  V30 1660 C 166.342 3.687 -2.46121 0
M  V30 1661 H 163.562 0.457964 -0.490418 0
M  V30 1662 H 166.106 0.858429 -1.8561 0
M  V30 1663 H 164.261 3.33937 -1.9638 0
M  V30 1664 H 164.675 3.17918 -4.17167 0
M  V30 1665 H 166.149 4.54145 -3.13777 0
M  V30 1666 H 166.626 4.13081 -1.49199 0
M  V30 1667 H 167.232 3.15613 -2.85076 0
M  V30 1668 N 165.547 1.27147 0.931209 0
M  V30 1669 C 166.479 1.05364 2.03546 0
M  V30 1670 C 167.492 0.0108438 1.62796 0
M  V30 1671 O 168.681 0.25202 1.76712 0
M  V30 1672 C 165.781 0.575566 3.33977 0
M  V30 1673 C 164.954 1.68985 4.03439 0
M  V30 1674 C 164.013 1.20813 5.12143 0
M  V30 1675 O 163.039 1.90712 5.363 0
M  V30 1676 N 164.241 0.0618851 5.80467 0
M  V30 1677 H 167.006 2.00454 2.22796 0
M  V30 1678 H 164.567 1.18666 1.10136 0
M  V30 1679 H 166.559 0.237264 4.04004 0
M  V30 1680 H 165.129 -0.282016 3.11325 0
M  V30 1681 H 164.349 2.19861 3.27192 0
M  V30 1682 H 165.637 2.4378 4.46597 0
M  V30 1683 H 165.035 -0.521621 5.6329 0
M  V30 1684 H 163.592 -0.217264 6.51438 0
M  V30 1685 N 167.025 -1.13721 1.09112 0
M  V30 1686 C 168.272 -1.84924 0.825192 0
M  V30 1687 C 168.6 -1.83347 -0.649151 0
M  V30 1688 O 167.855 -1.26449 -1.49362 0
M  V30 1689 C 168.154 -3.32861 1.30146 0
M  V30 1690 C 167.82 -3.54621 2.78486 0
M  V30 1691 C 166.482 -3.60268 3.18999 0
M  V30 1692 C 168.834 -3.62855 3.74146 0
M  V30 1693 C 166.162 -3.71679 4.53951 0
M  V30 1694 C 168.514 -3.75793 5.08883 0
M  V30 1695 C 167.178 -3.79692 5.4899 0
M  V30 1696 H 166.448 -0.676684 0.301959 0
M  V30 1697 H 169.095 -1.3428 1.36533 0
M  V30 1698 H 167.4 -3.85835 0.681064 0
M  V30 1699 H 169.097 -3.86395 1.07236 0
M  V30 1700 H 165.687 -3.50879 2.46134 0
M  V30 1701 H 169.871 -3.57775 3.43963 0
M  V30 1702 H 165.127 -3.72963 4.84467 0
M  V30 1703 H 169.301 -3.81107 5.82864 0
M  V30 1704 H 166.928 -3.88287 6.53558 0
M  V30 1705 N 168.503 -0.877838 -1.30888 0
M  V30 1706 C 169.78 -0.413052 -1.91189 0
M  V30 1707 C 170.16 1.1056 -1.79832 0
M  V30 1708 O 169.508 1.93771 -1.21099 0
M  V30 1709 C 169.718 -0.903191 -3.3711 0
M  V30 1710 C 171.066 -0.93395 -4.14201 0
M  V30 1711 O 172.09 -0.849373 -3.45925 0
M  V30 1712 O 170.949 -1.05772 -5.36167 0
M  V30 1713 H 168.043 -0.125035 -0.817493 0
M  V30 1714 H 170.589 -0.966269 -1.39504 0
M  V30 1715 H 169.361 -1.94692 -3.39427 0
M  V30 1716 H 168.984 -0.328732 -3.96239 0
M  V30 1717 N 169.982 1.44106 -0.638065 0
M  V30 1718 C 170.945 2.29138 0.0531013 0
M  V30 1719 C 171.945 1.41409 0.765506 0
M  V30 1720 O 173.135 1.63206 0.609046 0
M  V30 1721 C 170.267 3.23144 1.08584 0
M  V30 1722 H 171.46 2.91739 -0.694883 0
M  V30 1723 H 169.013 1.51134 -0.398538 0
M  V30 1724 H 169.748 2.65408 1.86357 0
M  V30 1725 H 169.533 3.87804 0.578852 0
M  V30 1726 H 171.023 3.87004 1.56899 0
M  V30 1727 N 171.46 0.379036 1.52974 0
M  V30 1728 C 172.423 -0.448865 2.24762 0
M  V30 1729 C 173.423 -0.998689 1.26027 0
M  V30 1730 O 174.613 -0.882313 1.50203 0
M  V30 1731 C 171.745 -1.62872 2.99476 0
M  V30 1732 H 172.938 0.179491 2.99362 0
M  V30 1733 H 170.491 0.13096 1.5575 0
M  V30 1734 H 171.226 -2.29479 2.29151 0
M  V30 1735 H 171.011 -1.24128 3.71934 0
M  V30 1736 H 172.501 -2.2151 3.5401 0
M  V30 1737 N 172.938 -1.57226 0.108567 0
M  V30 1738 C 173.888 -2.11305 -0.856396 0
M  V30 1739 C 174.872 -1.03129 -1.23504 0
M  V30 1740 O 176.064 -1.29381 -1.20787 0
M  V30 1741 C 173.193 -2.70771 -2.11041 0
M  V30 1742 C 172.279 -3.86011 -1.7566 0
M  V30 1743 N 172.67 -4.93492 -1.10902 0
M  V30 1744 C 170.968 -3.95999 -2.05185 0
M  V30 1745 C 171.669 -5.73984 -0.944308 0
M  V30 1746 N 170.645 -5.2346 -1.46596 0
M  V30 1747 H 174.447 -2.91784 -0.352002 0
M  V30 1748 H 171.961 -1.62126 -0.0942324 0
M  V30 1749 H 173.958 -3.07851 -2.81128 0
M  V30 1750 H 172.618 -1.91751 -2.62034 0
M  V30 1751 H 173.629 -5.1208 -0.774235 0
M  V30 1752 H 170.306 -3.28007 -2.58298 0
M  V30 1753 H 171.696 -6.70479 -0.436813 0
M  V30 1754 N 174.416 0.165178 -1.56732 0
M  V30 1755 C 175.827 0.727046 -1.71962 0
M  V30 1756 C 176.178 1.82508 -0.720078 0
M  V30 1757 O 175.303 2.16082 0.117242 0
M  V30 1758 C 175.898 1.32559 -3.11791 0
M  V30 1759 C 174.457 1.83422 -3.28684 0
M  V30 1760 C 173.604 0.715567 -2.67908 0
M  V30 1761 H 176.555 -0.0602896 -1.58585 0
M  V30 1762 H 176.576 2.19533 -3.10782 0
M  V30 1763 H 176.088 0.526195 -3.84516 0
M  V30 1764 H 174.189 2.65986 -2.60926 0
M  V30 1765 H 174.302 1.97543 -4.36478 0
M  V30 1766 H 172.666 1.13758 -2.27884 0
M  V30 1767 H 173.449 -0.0720836 -3.43224 0
M  V30 1768 N 175.894 1.51508 0.433938 0
M  V30 1769 C 177.122 1.68157 1.20543 0
M  V30 1770 C 177.537 0.380362 1.84929 0
M  V30 1771 O 176.894 -0.641446 1.70856 0
M  V30 1772 C 176.945 2.79965 2.28696 0
M  V30 1773 O 176.666 4.05045 1.66943 0
M  V30 1774 C 178.167 3.07912 3.18912 0
M  V30 1775 H 175.387 0.56421 0.363191 0
M  V30 1776 H 177.931 1.97941 0.513754 0
M  V30 1777 H 176.086 2.5277 2.93574 0
M  V30 1778 H 176.5 4.67165 2.38448 0
M  V30 1779 H 177.974 3.89719 3.90926 0
M  V30 1780 H 178.451 2.20456 3.79863 0
M  V30 1781 H 179.057 3.36779 2.59731 0
M  V30 1782 N 177.372 -0.689602 1.41712 0
M  V30 1783 C 178.32 -1.82475 1.44242 0
M  V30 1784 C 179.314 -1.66354 0.319774 0
M  V30 1785 O 180.52 -1.73143 0.492089 0
M  V30 1786 H 176.895 -0.601416 0.451445 0
M  V30 1787 H 178.866 -1.77458 2.39899 0
M  V30 1788 C 177.615 -3.20535 1.3473 0
M  V30 1789 H 176.938 -3.33559 2.20405 0
M  V30 1790 H 178.378 -4.00023 1.40562 0
M  V30 1791 C 176.837 -3.36846 0.0603281 0
M  V30 1792 O 177.367 -3.91656 -0.892663 0
M  V30 1793 N 175.573 -2.90595 -0.0177039 0
M  V30 1794 H 175.12 -2.46178 0.758572 0
M  V30 1795 H 175.078 -3.01886 -0.878201 0
M  V30 1796 N 178.85 -1.27639 -0.924453 0
M  V30 1797 C 180.096 -1.14336 -1.67497 0
M  V30 1798 C 180.429 0.309465 -1.91718 0
M  V30 1799 O 179.704 1.22608 -1.50989 0
M  V30 1800 C 179.987 -1.93096 -3.0395 0
M  V30 1801 C 179.84 -3.46381 -2.8695 0
M  V30 1802 C 181.159 -1.73798 -4.0433 0
M  V30 1803 H 178.278 -0.416728 -0.607871 0
M  V30 1804 H 180.92 -1.56832 -1.07256 0
M  V30 1805 H 179.07 -1.56982 -3.55372 0
M  V30 1806 H 180.742 -3.92343 -2.42621 0
M  V30 1807 H 178.985 -3.72557 -2.22225 0
M  V30 1808 H 179.656 -3.96735 -3.83804 0
M  V30 1809 H 182.132 -2.05293 -3.61931 0
M  V30 1810 H 181.008 -2.31294 -4.97789 0
M  V30 1811 H 181.269 -0.686725 -4.36734 0
M  V30 1812 N 180.328 1.1314 -1.09713 0
M  V30 1813 C 181.26 2.18343 -0.697056 0
M  V30 1814 C 182.273 1.60669 0.262551 0
M  V30 1815 O 183.462 1.78435 0.0481527 0
M  V30 1816 C 180.562 3.38899 -0.00684728 0
M  V30 1817 C 179.735 4.26078 -0.988741 0
M  V30 1818 C 178.794 5.25155 -0.331394 0
M  V30 1819 O 177.82 5.60701 -0.979926 0
M  V30 1820 N 179.022 5.73271 0.913261 0
M  V30 1821 H 181.787 2.5328 -1.60216 0
M  V30 1822 H 179.348 1.28491 -0.984971 0
M  V30 1823 H 181.34 4.02255 0.444191 0
M  V30 1824 H 179.91 3.02175 0.800551 0
M  V30 1825 H 179.13 3.59453 -1.61826 0
M  V30 1826 H 180.418 4.81178 -1.65364 0
M  V30 1827 H 179.816 5.46544 1.45966 0
M  V30 1828 H 178.373 6.3855 1.30757 0
M  V30 1829 N 181.806 0.884767 1.30421 0
M  V30 1830 C 183.222 0.57874 1.48737 0
M  V30 1831 C 183.422 -0.883567 1.81095 0
M  V30 1832 O 182.478 -1.6648 1.89844 0
M  V30 1833 C 183.791 1.49171 2.61091 0
M  V30 1834 C 185.339 1.49532 2.74971 0
M  V30 1835 C 185.814 2.39421 3.90438 0
M  V30 1836 N 187.305 2.37383 3.97748 0
M  V30 1837 C 188.04 3.03647 4.86401 0
M  V30 1838 N 187.536 3.79136 5.79852 0
M  V30 1839 N 189.329 2.9288 4.79768 0
M  V30 1840 H 181.48 1.83075 1.0769 0
M  V30 1841 H 183.743 0.783637 0.533495 0
M  V30 1842 H 183.449 2.53291 2.44001 0
M  V30 1843 H 183.323 1.20113 3.57565 0
M  V30 1844 H 185.71 0.46163 2.91467 0
M  V30 1845 H 185.791 1.8262 1.79119 0
M  V30 1846 H 185.435 3.42874 3.74699 0
M  V30 1847 H 185.365 2.03649 4.85628 0
M  V30 1848 H 187.856 1.82525 3.30897 0
M  V30 1849 H 188.169 4.26789 6.4426 0
M  V30 1850 H 186.514 3.83243 5.79784 0
M  V30 1851 H 189.705 2.33433 4.05742 0
M  V30 1852 H 189.878 3.448 5.4865 0
M  V30 1853 N 183.284 -1.43765 0.645699 0
M  V30 1854 C 184.214 -2.33471 -0.0370477 0
M  V30 1855 C 185.195 -1.49042 -0.819779 0
M  V30 1856 O 186.38 -1.77726 -0.782758 0
M  V30 1857 C 183.51 -3.32311 -1.0093 0
M  V30 1858 C 182.464 -4.2667 -0.337201 0
M  V30 1859 C 181.79 -5.1549 -1.42037 0
M  V30 1860 C 183.09 -5.16657 0.765706 0
M  V30 1861 H 184.784 -2.90809 0.712069 0
M  V30 1862 H 182.33 -1.39834 0.343876 0
M  V30 1863 H 184.283 -3.9396 -1.49578 0
M  V30 1864 H 183.007 -2.73213 -1.78948 0
M  V30 1865 H 181.666 -3.66374 0.128771 0
M  V30 1866 H 181.314 -4.52735 -2.1918 0
M  V30 1867 H 181.014 -5.79438 -0.975966 0
M  V30 1868 H 182.538 -5.80012 -1.90838 0
M  V30 1869 H 183.952 -5.72158 0.361702 0
M  V30 1870 H 182.349 -5.89286 1.13413 0
M  V30 1871 H 183.419 -4.56796 1.62683 0
M  V30 1872 N 184.763 -0.387143 -1.52771 0
M  V30 1873 C 185.726 0.436939 -2.24997 0
M  V30 1874 C 186.726 0.991991 -1.26555 0
M  V30 1875 O 187.916 0.874335 -1.50669 0
M  V30 1876 C 185.048 1.61281 -3.00335 0
M  V30 1877 H 186.241 -0.195365 -2.99263 0
M  V30 1878 H 183.794 -0.139218 -1.55679 0
M  V30 1879 H 184.529 2.2826 -2.30364 0
M  V30 1880 H 184.314 1.22154 -3.72587 0
M  V30 1881 H 185.804 2.19629 -3.5518 0
M  V30 1882 N 186.241 1.57166 -0.116904 0
M  V30 1883 C 187.151 2.18745 0.847812 0
M  V30 1884 C 188.167 1.163 1.29423 0
M  V30 1885 O 189.343 1.48761 1.35765 0
M  V30 1886 C 186.408 2.77307 2.0809 0
M  V30 1887 C 185.469 3.94781 1.68661 0
M  V30 1888 C 184.702 4.50541 2.86091 0
M  V30 1889 O 184.925 4.05202 4.01456 0
M  V30 1890 O 183.859 5.41256 2.63298 0
M  V30 1891 H 187.685 3.01632 0.353778 0
M  V30 1892 H 185.27 1.49005 0.108599 0
M  V30 1893 H 187.152 3.14647 2.80313 0
M  V30 1894 H 185.827 1.97452 2.56504 0
M  V30 1895 H 184.734 3.62214 0.935518 0
M  V30 1896 H 186.067 4.76065 1.24991 0
M  V30 1897 N 187.719 -0.156864 1.56817 0
M  V30 1898 C 189.13 -0.717916 1.72345 0
M  V30 1899 C 189.481 -1.82124 0.729747 0
M  V30 1900 O 188.606 -2.16141 -0.105781 0
M  V30 1901 C 189.201 -1.30904 3.12489 0
M  V30 1902 C 187.76 -1.81676 3.29653 0
M  V30 1903 C 186.907 -0.701349 2.68284 0
M  V30 1904 H 189.858 0.0686989 1.58551 0
M  V30 1905 H 189.879 -2.17882 3.11942 0
M  V30 1906 H 189.391 -0.505796 3.8479 0
M  V30 1907 H 187.492 -2.64598 2.62333 0
M  V30 1908 H 187.605 -1.95226 4.3752 0
M  V30 1909 H 185.969 -1.12548 2.28484 0
M  V30 1910 H 186.752 0.0902846 3.43181 0
M  V30 1911 N 189.197 -1.51736 -0.425897 0
M  V30 1912 C 190.422 -1.69082 -1.20108 0
M  V30 1913 C 190.847 -0.392398 -1.83962 0
M  V30 1914 O 190.205 0.64858 -1.69302 0
M  V30 1915 C 190.253 -2.81604 -2.25237 0
M  V30 1916 O 189.357 -2.46004 -3.30992 0
M  V30 1917 H 188.698 -0.563408 -0.35138 0
M  V30 1918 H 191.228 -1.98358 -0.501512 0
M  V30 1919 H 191.238 -3.06025 -2.69838 0
M  V30 1920 H 189.913 -3.75817 -1.78142 0
M  V30 1921 H 188.49 -2.32195 -2.91787 0
M  V30 1922 N 190.675 0.682077 -1.42076 0
M  V30 1923 C 191.607 1.80755 -1.40926 0
M  V30 1924 C 192.62 1.59833 -0.309398 0
M  V30 1925 O 193.809 1.69087 -0.572014 0
M  V30 1926 C 190.909 3.17744 -1.17865 0
M  V30 1927 C 190.082 3.65578 -2.40149 0
M  V30 1928 C 189.141 4.81277 -2.12742 0
M  V30 1929 O 188.167 4.92197 -2.85887 0
M  V30 1930 N 189.369 5.69474 -1.12602 0
M  V30 1931 H 192.134 1.82229 -2.37935 0
M  V30 1932 H 189.695 0.864903 -1.36861 0
M  V30 1933 H 191.687 3.9279 -0.9746 0
M  V30 1934 H 190.257 3.11214 -0.294068 0
M  V30 1935 H 189.477 2.81291 -2.76169 0
M  V30 1936 H 190.765 3.94278 -3.21593 0
M  V30 1937 H 190.163 5.63297 -0.520899 0
M  V30 1938 H 188.72 6.44363 -0.981842 0
M  V30 1939 N 192.153 1.28127 0.917671 0
M  V30 1940 C 193.086 1.06039 2.02067 0
M  V30 1941 C 194.064 -0.0223285 1.62585 0
M  V30 1942 O 195.248 0.124823 1.88086 0
M  V30 1943 C 192.375 0.610596 3.33151 0
M  V30 1944 C 191.421 1.68937 3.91615 0
M  V30 1945 S 192.254 3.28437 4.22953 0
M  V30 1946 C 193.41 2.85283 5.57103 0
M  V30 1947 H 193.643 1.99425 2.20493 0
M  V30 1948 H 191.176 1.12071 1.06205 0
M  V30 1949 H 193.134 0.357778 4.08938 0
M  V30 1950 H 191.795 -0.303364 3.12632 0
M  V30 1951 H 190.988 1.32619 4.86239 0
M  V30 1952 H 190.59 1.89478 3.2245 0
M  V30 1953 H 192.882 2.3121 6.36827 0
M  V30 1954 H 193.825 3.7869 5.98331 0
M  V30 1955 H 194.233 2.24118 5.18104 0
M  V30 1956 N 193.631 -1.12557 1.10312 0
M  V30 1957 C 194.561 -2.20341 0.772798 0
M  V30 1958 C 195.542 -1.68198 -0.25365 0
M  V30 1959 O 196.727 -1.93831 -0.119699 0
M  V30 1960 C 193.857 -3.46709 0.202443 0
M  V30 1961 C 192.811 -4.11996 1.15943 0
M  V30 1962 C 192.137 -5.328 0.450345 0
M  V30 1963 C 193.437 -4.5828 2.50552 0
M  V30 1964 H 195.131 -2.48229 1.674 0
M  V30 1965 H 192.677 -1.19308 0.806326 0
M  V30 1966 H 194.63 -4.2138 -0.0407752 0
M  V30 1967 H 193.354 -3.18245 -0.734001 0
M  V30 1968 H 192.013 -3.39305 1.38808 0
M  V30 1969 H 191.661 -5.00602 -0.490531 0
M  V30 1970 H 191.361 -5.7743 1.08851 0
M  V30 1971 H 192.885 -6.10219 0.215642 0
M  V30 1972 H 194.299 -5.2433 2.31843 0
M  V30 1973 H 192.696 -5.13683 3.10242 0
M  V30 1974 H 193.766 -3.72329 3.10643 0
M  V30 1975 N 195.109 -0.891671 -1.2995 0
M  V30 1976 C 196.056 -0.361736 -2.27948 0
M  V30 1977 C 197.026 0.551761 -1.56668 0
M  V30 1978 O 198.211 0.478736 -1.84696 0
M  V30 1979 C 195.351 0.411825 -3.42634 0
M  V30 1980 C 194.464 -0.531651 -4.28716 0
M  V30 1981 C 193.599 0.258167 -5.30572 0
M  V30 1982 C 192.638 -0.680349 -6.08307 0
M  V30 1983 N 191.775 0.0745613 -7.0206 0
M  V30 1984 H 196.615 -1.20254 -2.72659 0
M  V30 1985 H 194.152 -0.604352 -1.34112 0
M  V30 1986 H 196.11 0.876304 -4.07893 0
M  V30 1987 H 194.74 1.21715 -2.98974 0
M  V30 1988 H 193.792 -1.11463 -3.63703 0
M  V30 1989 H 195.104 -1.25038 -4.82874 0
M  V30 1990 H 194.258 0.784204 -6.0161 0
M  V30 1991 H 192.997 1.01008 -4.77126 0
M  V30 1992 H 192.002 -1.21796 -5.3614 0
M  V30 1993 H 193.227 -1.43145 -6.63842 0
M  V30 1994 H 191.173 0.808883 -6.50994 0
M  V30 1995 H 191.09 -0.584409 -7.53738 0
M  V30 1996 H 192.358 0.581123 -7.77331 0
M  V30 1997 N 196.587 1.43421 -0.653314 0
M  V30 1998 C 197.537 2.2792 0.060558 0
M  V30 1999 C 198.521 1.39906 0.794677 0
M  V30 2000 O 199.713 1.63536 0.677128 0
M  V30 2001 C 196.842 3.27603 1.0262 0
M  V30 2002 C 195.928 4.23104 0.290551 0
M  V30 2003 N 196.319 5.01031 -0.692967 0
M  V30 2004 C 194.617 4.42816 0.531984 0
M  V30 2005 C 195.318 5.70626 -1.12963 0
M  V30 2006 N 194.294 5.41617 -0.463867 0
M  V30 2007 H 198.096 2.85585 -0.694143 0
M  V30 2008 H 195.61 1.55126 -0.480602 0
M  V30 2009 H 197.607 3.86918 1.55242 0
M  V30 2010 H 196.267 2.71499 1.78096 0
M  V30 2011 H 197.278 5.0669 -1.07169 0
M  V30 2012 H 193.955 3.97782 1.26791 0
M  V30 2013 H 195.345 6.4318 -1.94343 0
M  V30 2014 N 198.065 0.39524 1.52563 0
M  V30 2015 C 199.028 -0.425001 2.25225 0
M  V30 2016 C 200.028 -0.985266 1.27079 0
M  V30 2017 O 201.218 -0.866332 1.5113 0
M  V30 2018 C 198.35 -1.59686 3.01186 0
M  V30 2019 H 199.543 0.211233 2.99155 0
M  V30 2020 H 197.096 0.147472 1.55603 0
M  V30 2021 H 197.831 -2.27035 2.31572 0
M  V30 2022 H 197.616 -1.20176 3.73229 0
M  V30 2023 H 199.106 -2.17743 3.5634 0
M  V30 2024 N 199.544 -1.57102 0.125237 0
M  V30 2025 C 200.79 -1.95697 -0.532035 0
M  V30 2026 C 201.123 -1.009 -1.6593 0
M  V30 2027 O 200.398 -0.047347 -1.94442 0
M  V30 2028 C 200.681 -3.44181 -1.05884 0
M  V30 2029 C 200.534 -4.49752 0.0654392 0
M  V30 2030 C 201.853 -3.94655 -1.9477 0
M  V30 2031 H 198.972 -0.711571 -0.191925 0
M  V30 2032 H 201.614 -1.88923 0.20206 0
M  V30 2033 H 199.764 -3.50085 -1.68442 0
M  V30 2034 H 201.436 -4.55943 0.700982 0
M  V30 2035 H 199.679 -4.27653 0.727709 0
M  V30 2036 H 200.35 -5.50924 -0.344505 0
M  V30 2037 H 202.826 -3.91094 -1.42074 0
M  V30 2038 H 201.702 -4.99057 -2.28546 0
M  V30 2039 H 201.963 -3.35718 -2.87656 0
M  V30 2040 N 201.022 0.148545 -1.56898 0
M  V30 2041 C 202.268 0.862694 -1.83536 0
M  V30 2042 C 202.601 1.80889 -0.706604 0
M  V30 2043 O 201.876 1.92328 0.289885 0
M  V30 2044 C 202.159 1.63853 -3.20662 0
M  V30 2045 C 202.012 0.713925 -4.44098 0
M  V30 2046 C 203.331 2.60133 -3.54991 0
M  V30 2047 H 200.45 0.312179 -0.667618 0
M  V30 2048 H 203.092 0.127953 -1.89569 0
M  V30 2049 H 201.242 2.26489 -3.1565 0
M  V30 2050 H 202.914 0.098686 -4.61194 0
M  V30 2051 H 201.157 0.0234019 -4.33794 0
M  V30 2052 H 201.828 1.29278 -5.36648 0
M  V30 2053 H 204.304 2.07616 -3.60603 0
M  V30 2054 H 203.18 3.11468 -4.51972 0
M  V30 2055 H 203.441 3.41417 -2.80868 0
M  V30 2056 N 202.5 1.5196 0.417844 0
M  V30 2057 C 203.448 1.75278 1.52907 0
M  V30 2058 C 204.442 0.619611 1.57662 0
M  V30 2059 O 205.648 0.801457 1.61173 0
M  V30 2060 H 202.023 0.554141 0.508362 0
M  V30 2061 H 203.994 2.68389 1.30422 0
M  V30 2062 C 202.743 1.91262 2.90369 0
M  V30 2063 H 202.066 2.77872 2.8745 0
M  V30 2064 H 203.506 2.11581 3.67436 0
M  V30 2065 C 201.965 0.677431 3.30019 0
M  V30 2066 O 202.495 -0.158799 4.01386 0
M  V30 2067 N 200.701 0.515851 2.85985 0
M  V30 2068 H 200.248 1.19744 2.28077 0
M  V30 2069 H 200.206 -0.309315 3.12875 0
M  V30 2070 N 203.978 -0.674533 1.42435 0
M  V30 2071 C 204.908 -1.80009 1.48724 0
M  V30 2072 C 205.889 -1.6659 0.343793 0
M  V30 2073 O 207.074 -1.86007 0.558137 0
M  V30 2074 C 204.204 -3.18306 1.38919 0
M  V30 2075 C 203.158 -3.46461 2.51294 0
M  V30 2076 C 202.484 -4.84335 2.26547 0
M  V30 2077 C 203.784 -3.43328 3.93603 0
M  V30 2078 H 205.478 -1.75004 2.42928 0
M  V30 2079 H 203.024 -0.840533 1.16923 0
M  V30 2080 H 204.977 -3.9678 1.41927 0
M  V30 2081 H 203.701 -3.2399 0.412094 0
M  V30 2082 H 202.36 -2.70348 2.47604 0
M  V30 2083 H 202.008 -4.86669 1.2713 0
M  V30 2084 H 201.708 -5.04136 3.01861 0
M  V30 2085 H 203.232 -5.65094 2.31304 0
M  V30 2086 H 204.646 -4.11772 3.98894 0
M  V30 2087 H 203.043 -3.74664 4.68771 0
M  V30 2088 H 204.113 -2.41897 4.20255 0
M  V30 2089 N 205.456 -1.28612 -0.910864 0
M  V30 2090 C 206.705 -1.15311 -1.65488 0
M  V30 2091 C 207.018 0.296999 -1.93332 0
M  V30 2092 O 208.224 0.551168 -2.65847 0
M  V30 2093 C 206.68 -2.01599 -2.98137 0
M  V30 2094 C 206.288 -3.51367 -2.7793 0
M  V30 2095 C 208.032 -1.96993 -3.76024 0
M  V30 2096 C 205.939 -4.29797 -4.06237 0
M  V30 2097 H 204.869 -0.42796 -0.620779 0
M  V30 2098 H 207.52 -1.53166 -1.01057 0
M  V30 2099 H 205.902 -1.56603 -3.63719 0
M  V30 2100 H 207.076 -4.0434 -2.21011 0
M  V30 2101 H 205.391 -3.57529 -2.13452 0
M  V30 2102 H 207.988 -2.52856 -4.71135 0
M  V30 2103 H 208.331 -0.94733 -4.05378 0
M  V30 2104 H 208.864 -2.39973 -3.17266 0
M  V30 2105 H 205.603 -5.32648 -3.82055 0
M  V30 2106 H 205.123 -3.81596 -4.62757 0
M  V30 2107 H 206.802 -4.39869 -4.74473 0
M  V30 2108 N 206.934 1.1197 -1.10907 0
M  V30 2109 C 207.882 2.19927 -0.757303 0
M  V30 2110 C 208.876 1.67564 0.248747 0
M  V30 2111 O 210.082 1.79672 0.108605 0
M  V30 2112 H 206.457 0.716925 -0.226987 0
M  V30 2113 H 208.428 2.46847 -1.67658 0
M  V30 2114 C 207.177 3.47061 -0.210671 0
M  V30 2115 H 206.5 3.87703 -0.976049 0
M  V30 2116 H 207.94 4.24 -0.0026584 0
M  V30 2117 C 206.399 3.19864 1.05777 0
M  V30 2118 O 206.929 3.40049 2.13845 0
M  V30 2119 N 205.135 2.73636 0.978349 0
M  V30 2120 H 204.682 2.5741 0.0988246 0
M  V30 2121 H 204.64 2.55815 1.82773 0
M  V30 2122 N 208.412 0.89855 1.29475 0
M  V30 2123 C 209.642 0.538479 1.99459 0
M  V30 2124 C 210.05 -0.880922 1.67441 0
M  V30 2125 O 209.393 -1.59283 0.915127 0
M  V30 2126 C 209.455 0.649564 3.53583 0
M  V30 2127 C 209.119 2.03573 4.09154 0
M  V30 2128 C 210.116 3.00675 4.24135 0
M  V30 2129 C 207.801 2.3448 4.44212 0
M  V30 2130 C 209.795 4.26809 4.73405 0
M  V30 2131 C 207.482 3.60857 4.93179 0
M  V30 2132 C 208.48 4.56836 5.0773 0
M  V30 2133 O 208.168 5.80969 5.55635 0
M  V30 2134 H 207.9 0.205372 0.644048 0
M  V30 2135 H 210.454 1.20958 1.66007 0
M  V30 2136 H 208.684 -0.0785592 3.8662 0
M  V30 2137 H 210.373 0.29881 4.04799 0
M  V30 2138 H 211.139 2.78112 3.97339 0
M  V30 2139 H 207.018 1.60534 4.32145 0
M  V30 2140 H 210.562 5.0173 4.84678 0
M  V30 2141 H 206.459 3.83251 5.19412 0
M  V30 2142 H 207.227 5.83542 5.73952 0
M  V30 2143 N 209.89 -1.43072 0.660911 0
M  V30 2144 C 210.822 -2.29108 -0.0647641 0
M  V30 2145 C 211.835 -1.42928 -0.779448 0
M  V30 2146 O 213.024 -1.66788 -0.635921 0
M  V30 2147 C 210.124 -3.20032 -1.11503 0
M  V30 2148 C 209.297 -4.34792 -0.476955 0
M  V30 2149 C 208.356 -5.06534 -1.42513 0
M  V30 2150 O 207.382 -5.61538 -0.930771 0
M  V30 2151 N 208.584 -5.1075 -2.75889 0
M  V30 2152 H 211.349 -2.92029 0.673731 0
M  V30 2153 H 208.91 -1.53846 0.50427 0
M  V30 2154 H 210.902 -3.64892 -1.75032 0
M  V30 2155 H 209.472 -2.58658 -1.75541 0
M  V30 2156 H 208.692 -3.92752 0.337572 0
M  V30 2157 H 209.98 -5.0879 -0.0318525 0
M  V30 2158 H 209.378 -4.67447 -3.18606 0
M  V30 2159 H 207.935 -5.59302 -3.347 0
M  V30 2160 N 211.368 -0.403325 -1.52352 0
M  V30 2161 C 212.645 0.232611 -1.94212 0
M  V30 2162 C 213.025 1.63133 -1.33981 0
M  V30 2163 O 212.373 2.22659 -0.513344 0
M  V30 2164 C 212.583 0.244811 -3.4814 0
M  V30 2165 C 213.931 0.46698 -4.22024 0
M  V30 2166 O 214.955 0.324419 -3.5472 0
M  V30 2167 O 213.814 0.74747 -5.41364 0
M  V30 2168 H 210.908 0.148223 -0.813609 0
M  V30 2169 H 213.454 -0.458848 -1.63379 0
M  V30 2170 H 212.226 -0.734378 -3.84347 0
M  V30 2171 H 211.849 0.980611 -3.85318 0
M  V30 2172 N 212.846 1.57033 -0.133567 0
M  V30 2173 C 214.123 1.87256 0.56522 0
M  V30 2174 C 214.503 1.03726 1.83859 0
M  V30 2175 O 213.851 0.120247 2.28183 0
M  V30 2176 C 214.061 3.3865 0.843636 0
M  V30 2177 C 215.409 4.07574 1.19032 0
M  V30 2178 O 216.433 3.43752 0.933429 0
M  V30 2179 O 215.292 5.20259 1.67312 0
M  V30 2180 H 212.386 0.775678 0.286796 0
M  V30 2181 H 214.932 1.68855 -0.169168 0
M  V30 2182 H 213.704 3.91257 -0.0581149 0
M  V30 2183 H 213.327 3.62532 1.63268 0
M  V30 2184 N 214.325 -0.140222 1.56975 0
M  V30 2185 C 215.288 -1.15689 1.97861 0
M  V30 2186 C 216.288 -1.3549 0.865974 0
M  V30 2187 O 217.478 -1.32367 1.13246 0
M  V30 2188 C 214.61 -2.51582 2.30042 0
M  V30 2189 H 215.803 -0.805971 2.88867 0
M  V30 2190 H 213.356 -0.383801 1.51515 0
M  V30 2191 H 214.091 -2.91632 1.41849 0
M  V30 2192 H 213.876 -2.38569 3.11171 0
M  V30 2193 H 215.366 -3.24792 2.62488 0
M  V30 2194 N 215.803 -1.52179 -0.40978 0
M  V30 2195 C 216.713 -1.78364 -1.52392 0
M  V30 2196 C 217.729 -0.669183 -1.60617 0
M  V30 2197 O 218.905 -0.954518 -1.77344 0
M  V30 2198 C 215.97 -1.92822 -2.88133 0
M  V30 2199 C 215.031 -3.16725 -2.898 0
M  V30 2200 C 214.264 -3.30483 -4.19067 0
M  V30 2201 O 214.487 -2.49522 -5.12928 0
M  V30 2202 O 213.421 -4.2363 -4.27576 0
M  V30 2203 H 217.247 -2.72931 -1.33201 0
M  V30 2204 H 214.832 -1.37016 -0.59557 0
M  V30 2205 H 216.714 -2.04157 -3.68643 0
M  V30 2206 H 215.389 -1.01444 -3.07393 0
M  V30 2207 H 214.296 -3.10848 -2.08146 0
M  V30 2208 H 215.629 -4.07881 -2.75489 0
M  V30 2209 N 217.281 0.66697 -1.42791 0
M  V30 2210 C 218.211 1.79218 -1.49677 0
M  V30 2211 C 219.192 1.66405 -0.352623 0
M  V30 2212 O 220.377 1.85708 -0.567993 0
M  V30 2213 C 217.507 3.17565 -1.40605 0
M  V30 2214 C 216.461 3.45124 -2.53127 0
M  V30 2215 C 215.787 4.83127 -2.29112 0
M  V30 2216 C 217.087 3.41236 -3.95418 0
M  V30 2217 H 218.781 1.73713 -2.43853 0
M  V30 2218 H 216.327 0.83432 -1.17367 0
M  V30 2219 H 218.28 3.96022 -1.44029 0
M  V30 2220 H 217.004 3.23767 -0.429271 0
M  V30 2221 H 215.663 2.69031 -2.49034 0
M  V30 2222 H 215.311 4.85988 -1.29709 0
M  V30 2223 H 215.011 5.02528 -3.04531 0
M  V30 2224 H 216.535 5.63859 -2.34297 0
M  V30 2225 H 217.949 4.09651 -4.01073 0
M  V30 2226 H 216.346 3.72173 -4.70752 0
M  V30 2227 H 217.416 2.39665 -4.21532 0
M  V30 2228 N 218.759 1.29093 0.90403 0
M  V30 2229 C 219.722 1.1386 1.98919 0
M  V30 2230 C 220.722 0.0753457 1.60623 0
M  V30 2231 O 221.912 0.321931 1.71199 0
M  V30 2232 C 219.044 0.740198 3.32767 0
M  V30 2233 H 220.237 2.10246 2.13861 0
M  V30 2234 H 217.79 1.12218 1.08797 0
M  V30 2235 H 218.525 -0.223997 3.23525 0
M  V30 2236 H 218.31 1.50838 3.61926 0
M  V30 2237 H 219.8 0.656546 4.12407 0
M  V30 2238 N 220.237 -1.11381 1.11499 0
M  V30 2239 C 221.465 -1.86934 0.88675 0
M  V30 2240 C 221.88 -1.80195 -0.563476 0
M  V30 2241 O 221.237 -1.18367 -1.38908 0
M  V30 2242 C 221.288 -3.35722 1.34064 0
M  V30 2243 O 221.009 -3.4232 2.73401 0
M  V30 2244 C 222.51 -4.2818 1.14791 0
M  V30 2245 H 219.73 -0.591117 0.317523 0
M  V30 2246 H 222.274 -1.40865 1.48248 0
M  V30 2247 H 220.429 -3.79294 0.788355 0
M  V30 2248 H 220.843 -4.34971 2.93087 0
M  V30 2249 H 222.317 -5.30817 1.5145 0
M  V30 2250 H 222.794 -4.39113 0.0875279 0
M  V30 2251 H 223.4 -3.90402 1.68721 0
M  V30 2252 N 221.715 -0.905404 -1.28997 0
M  V30 2253 C 223.131 -0.60233 -1.47798 0
M  V30 2254 C 223.331 0.854645 -1.82478 0
M  V30 2255 O 222.387 1.63439 -1.92468 0
M  V30 2256 C 223.7 -1.53306 -2.58685 0
M  V30 2257 C 225.248 -1.53887 -2.72558 0
M  V30 2258 C 225.723 -2.45602 -3.86579 0
M  V30 2259 N 227.214 -2.43681 -3.93921 0
M  V30 2260 C 227.949 -3.11347 -4.81509 0
M  V30 2261 N 227.445 -3.88313 -5.73746 0
M  V30 2262 N 229.238 -3.00476 -4.75048 0
M  V30 2263 H 221.389 -1.84765 -1.04764 0
M  V30 2264 H 223.652 -0.792025 -0.520961 0
M  V30 2265 H 223.358 -2.57141 -2.39941 0
M  V30 2266 H 223.232 -1.25787 -3.55609 0
M  V30 2267 H 225.619 -0.507941 -2.90696 0
M  V30 2268 H 225.7 -1.85447 -1.76191 0
M  V30 2269 H 225.344 -3.48792 -3.69197 0
M  V30 2270 H 225.274 -2.11349 -4.82327 0
M  V30 2271 H 227.765 -1.87767 -3.27951 0
M  V30 2272 H 228.078 -4.36985 -6.37389 0
M  V30 2273 H 226.423 -3.92419 -5.73614 0
M  V30 2274 H 229.614 -2.39858 -4.01977 0
M  V30 2275 H 229.787 -3.53485 -5.43095 0
M  V30 2276 N 223.193 1.4272 -0.668489 0
M  V30 2277 C 224.156 2.292 0.00448567 0
M  V30 2278 C 225.156 1.43001 0.735339 0
M  V30 2279 O 226.346 1.64461 0.57429 0
M  V30 2280 C 223.478 3.25375 1.01705 0
M  V30 2281 H 224.671 2.90199 -0.756608 0
M  V30 2282 H 222.224 1.50254 -0.430506 0
M  V30 2283 H 222.959 2.69301 1.80686 0
M  V30 2284 H 222.744 3.88944 0.496463 0
M  V30 2285 H 224.234 3.90245 1.48655 0
M  V30 2286 N 224.671 0.411399 1.52136 0
M  V30 2287 C 225.92 -0.165009 2.01024 0
M  V30 2288 C 226.233 -1.4603 1.30133 0
M  V30 2289 O 227.439 -2.1181 1.69849 0
M  V30 2290 C 225.895 -0.344618 3.58246 0
M  V30 2291 C 225.503 0.938716 4.38055 0
M  V30 2292 C 227.247 -0.876195 4.15359 0
M  V30 2293 C 225.154 0.726172 5.86925 0
M  V30 2294 H 224.084 -0.0654407 0.751155 0
M  V30 2295 H 226.735 0.537192 1.75461 0
M  V30 2296 H 225.117 -1.10921 3.80148 0
M  V30 2297 H 226.291 1.70963 4.27912 0
M  V30 2298 H 224.606 1.39688 3.92271 0
M  V30 2299 H 227.203 -1.05128 5.24263 0
M  V30 2300 H 227.546 -1.85152 3.7286 0
M  V30 2301 H 228.079 -0.170607 3.97434 0
M  V30 2302 H 224.818 1.67312 6.33788 0
M  V30 2303 H 224.338 -0.00540283 5.998 0
M  V30 2304 H 226.017 0.369231 6.45946 0
M  V30 2305 N 226.149 -1.5696 0.141893 0
M  V30 2306 C 227.56 -1.82797 -0.379776 0
M  V30 2307 C 227.911 -1.06033 -1.6508 0
M  V30 2308 O 227.036 -0.304011 -2.14254 0
M  V30 2309 C 227.631 -3.31578 -0.695802 0
M  V30 2310 C 226.19 -3.58014 -1.16201 0
M  V30 2311 C 225.337 -2.76699 -0.182455 0
M  V30 2312 H 228.288 -1.54406 0.366675 0
M  V30 2313 H 228.309 -3.47454 -1.55099 0
M  V30 2314 H 227.821 -3.87421 0.229449 0
M  V30 2315 H 225.922 -3.07553 -2.10338 0
M  V30 2316 H 226.035 -4.66501 -1.09151 0
M  V30 2317 H 224.399 -2.45618 -0.674072 0
M  V30 2318 H 225.182 -3.35311 0.736297 0
M  V30 2319 N 227.627 0.131896 -1.57047 0
M  V30 2320 C 228.537 1.1815 -2.02676 0
M  V30 2321 C 229.553 1.46113 -0.944824 0
M  V30 2322 O 230.729 1.57485 -1.25541 0
M  V30 2323 C 227.794 2.49139 -2.41103 0
M  V30 2324 C 226.855 2.28688 -3.63318 0
M  V30 2325 C 226.088 3.53431 -3.99903 0
M  V30 2326 O 226.311 4.60223 -3.36973 0
M  V30 2327 O 225.245 3.45198 -4.93074 0
M  V30 2328 H 229.071 0.824069 -2.92306 0
M  V30 2329 H 226.656 0.341745 -1.45439 0
M  V30 2330 H 228.538 3.26338 -2.66611 0
M  V30 2331 H 227.213 2.84382 -1.54624 0
M  V30 2332 H 226.12 1.4939 -3.42977 0
M  V30 2333 H 227.453 1.98355 -4.50462 0
M  V30 2334 N 229.106 1.52395 0.401703 0
M  V30 2335 C 230.036 1.79231 1.49661 0
M  V30 2336 C 231.017 0.643654 1.57452 0
M  V30 2337 O 232.202 0.889989 1.72606 0
M  V30 2338 C 229.332 1.94971 2.87409 0
M  V30 2339 C 228.286 3.10604 2.94465 0
M  V30 2340 C 227.612 3.11577 4.34538 0
M  V30 2341 C 228.912 4.49921 2.6527 0
M  V30 2342 H 230.606 2.70917 1.27454 0
M  V30 2343 H 228.152 1.30362 0.6117 0
M  V30 2344 H 230.105 2.12328 3.63999 0
M  V30 2345 H 228.829 0.999632 3.10926 0
M  V30 2346 H 227.488 2.93009 2.20321 0
M  V30 2347 H 227.136 2.14277 4.55076 0
M  V30 2348 H 226.836 3.89247 4.40183 0
M  V30 2349 H 228.36 3.31073 5.13053 0
M  V30 2350 H 229.774 4.67683 3.31581 0
M  V30 2351 H 228.171 5.29564 2.82281 0
M  V30 2352 H 229.241 4.57507 1.60671 0
M  V30 2353 N 230.584 -0.659388 1.43143 0
M  V30 2354 C 231.812 -1.44723 1.47861 0
M  V30 2355 C 232.227 -1.88563 0.0945886 0
M  V30 2356 O 231.584 -1.59108 -0.893915 0
M  V30 2357 C 231.635 -2.68627 2.41913 0
M  V30 2358 O 231.356 -2.26623 3.74932 0
M  V30 2359 C 232.857 -3.62045 2.55809 0
M  V30 2360 H 230.077 -0.444801 0.502387 0
M  V30 2361 H 232.621 -0.808916 1.87821 0
M  V30 2362 H 230.776 -3.28613 2.05164 0
M  V30 2363 H 231.19 -3.06745 4.2545 0
M  V30 2364 H 232.664 -4.45666 3.25708 0
M  V30 2365 H 233.141 -4.08981 1.60099 0
M  V30 2366 H 233.747 -3.07944 2.93344 0
M  V30 2367 N 232.062 -1.29571 -0.897171 0
M  V30 2368 C 233.009 -1.14916 -2.00158 0
M  V30 2369 C 233.979 -0.0418149 -1.66047 0
M  V30 2370 O 235.164 -0.209793 -1.89643 0
M  V30 2371 C 232.304 -0.834307 -3.34863 0
M  V30 2372 C 231.417 -2.02234 -3.8174 0
M  V30 2373 C 230.552 -1.64664 -5.05034 0
M  V30 2374 C 229.591 -2.80033 -5.44286 0
M  V30 2375 N 228.728 -2.42843 -6.58765 0
M  V30 2376 H 233.568 -2.09403 -2.12025 0
M  V30 2377 H 231.105 -1.042 -1.0383 0
M  V30 2378 H 233.063 -0.632436 -4.12379 0
M  V30 2379 H 231.693 0.0736656 -3.22716 0
M  V30 2380 H 230.745 -2.33583 -3.00238 0
M  V30 2381 H 232.057 -2.88673 -4.06779 0
M  V30 2382 H 231.211 -1.4078 -5.9014 0
M  V30 2383 H 229.95 -0.753766 -4.8184 0
M  V30 2384 H 228.955 -3.04596 -4.57713 0
M  V30 2385 H 230.18 -3.69989 -5.6946 0
M  V30 2386 H 228.126 -1.56046 -6.3717 0
M  V30 2387 H 228.043 -3.22815 -6.83613 0
M  V30 2388 H 229.311 -2.22285 -7.47134 0
M  V30 2389 N 233.54 1.10788 -1.12088 0
M  V30 2390 C 234.47 2.19083 -0.807755 0
M  V30 2391 C 235.451 1.6858 0.226859 0
M  V30 2392 O 236.636 1.93997 0.0888475 0
M  V30 2393 C 233.766 3.46344 -0.257576 0
M  V30 2394 C 232.72 4.101 -1.22483 0
M  V30 2395 C 232.046 5.32016 -0.535052 0
M  V30 2396 C 233.346 4.54236 -2.57811 0
M  V30 2397 H 235.04 2.45534 -1.71328 0
M  V30 2398 H 232.586 1.1801 -0.825205 0
M  V30 2399 H 234.539 4.21392 -0.0262679 0
M  V30 2400 H 233.263 3.19373 0.683278 0
M  V30 2401 H 231.922 3.37054 -1.44189 0
M  V30 2402 H 231.57 5.01319 0.410827 0
M  V30 2403 H 231.27 5.75625 -1.18024 0
M  V30 2404 H 232.794 6.09799 -0.312695 0
M  V30 2405 H 234.208 5.20575 -2.40155 0
M  V30 2406 H 232.605 5.08682 -3.18375 0
M  V30 2407 H 233.675 3.6734 -3.16528 0
M  V30 2408 N 235.018 0.912232 1.28515 0
M  V30 2409 C 235.948 0.416403 2.29757 0
M  V30 2410 C 236.929 -0.515194 1.6211 0
M  V30 2411 O 238.114 -0.423253 1.89532 0
M  V30 2412 C 235.244 -0.34572 3.45575 0
M  V30 2413 C 234.198 0.496599 4.25109 0
M  V30 2414 C 233.524 -0.393771 5.33248 0
M  V30 2415 C 234.824 1.75307 4.92001 0
M  V30 2416 H 236.518 1.26249 2.7148 0
M  V30 2417 H 234.064 0.608515 1.30511 0
M  V30 2418 H 236.017 -0.703422 4.15488 0
M  V30 2419 H 234.741 -1.2257 3.02728 0
M  V30 2420 H 233.4 0.8368 3.56922 0
M  V30 2421 H 233.048 -1.27225 4.86644 0
M  V30 2422 H 232.748 0.166209 5.87365 0
M  V30 2423 H 234.272 -0.747389 6.06009 0
M  V30 2424 H 235.686 1.46437 5.54283 0
M  V30 2425 H 234.083 2.25534 5.56106 0
M  V30 2426 H 235.153 2.48176 4.16577 0
M  V30 2427 N 236.496 -1.42363 0.676048 0
M  V30 2428 C 237.444 -2.32596 -0.0131507 0
M  V30 2429 C 238.438 -1.49891 -0.789238 0
M  V30 2430 O 239.644 -1.65955 -0.697061 0
M  V30 2431 H 236.019 -0.751647 -0.0230481 0
M  V30 2432 H 237.99 -2.88421 0.765243 0
M  V30 2433 C 236.739 -3.34479 -0.949702 0
M  V30 2434 H 236.062 -3.98158 -0.361938 0
M  V30 2435 H 237.502 -4.00199 -1.4006 0
M  V30 2436 C 235.961 -2.66838 -2.05667 0
M  V30 2437 O 236.491 -2.50124 -3.14326 0
M  V30 2438 N 234.697 -2.25843 -1.82875 0
M  V30 2439 H 234.244 -2.39637 -0.945085 0
M  V30 2440 H 234.202 -1.80918 -2.5713 0
M  V30 2441 N 237.974 -0.419461 -1.51915 0
M  V30 2442 C 239.251 0.211999 -1.94448 0
M  V30 2443 C 239.631 1.61703 -1.35703 0
M  V30 2444 O 238.979 2.22102 -0.536931 0
M  V30 2445 C 239.189 0.207872 -3.4838 0
M  V30 2446 C 240.537 0.422192 -4.22496 0
M  V30 2447 O 241.561 0.286778 -3.55044 0
M  V30 2448 O 240.42 0.690009 -5.42126 0
M  V30 2449 H 237.514 0.139586 -0.815135 0
M  V30 2450 H 240.06 -0.476151 -1.62883 0
M  V30 2451 H 238.832 -0.775102 -3.83546 0
M  V30 2452 H 238.455 0.939688 -3.86336 0
M  V30 2453 N 239.452 1.56882 -0.150215 0
M  V30 2454 C 240.362 2.20494 0.801222 0
M  V30 2455 C 241.378 1.19019 1.26927 0
M  V30 2456 O 242.554 1.51607 1.32579 0
M  V30 2457 C 239.619 2.81659 2.02161 0
M  V30 2458 C 238.68 3.9827 1.60249 0
M  V30 2459 C 237.913 4.56508 2.7647 0
M  V30 2460 O 238.136 4.13627 3.92771 0
M  V30 2461 O 237.07 5.46719 2.51757 0
M  V30 2462 H 240.896 3.02315 0.289717 0
M  V30 2463 H 238.481 1.49202 0.0769684 0
M  V30 2464 H 240.363 3.20522 2.73576 0
M  V30 2465 H 239.038 2.02849 2.52258 0
M  V30 2466 H 237.945 3.64117 0.858477 0
M  V30 2467 H 239.278 4.78609 1.14864 0
M  V30 2468 N 240.93 -0.123565 1.57115 0
M  V30 2469 C 242.207 -0.862196 1.75572 0
M  V30 2470 C 242.587 -1.98279 0.724475 0
M  V30 2471 O 241.935 -2.27102 -0.252407 0
M  V30 2472 C 242.145 -1.38309 3.20424 0
M  V30 2473 C 243.493 -1.83724 3.82793 0
M  V30 2474 O 244.517 -1.47999 3.23998 0
M  V30 2475 O 243.376 -2.49685 4.86127 0
M  V30 2476 H 240.47 -0.409113 0.718718 0
M  V30 2477 H 243.016 -0.107661 1.69358 0
M  V30 2478 H 241.788 -0.578889 3.86994 0
M  V30 2479 H 241.411 -2.20046 3.31158 0
M  V30 2480 N 242.408 -1.52605 -0.393616 0
M  V30 2481 C 243.34 -1.73303 -1.49995 0
M  V30 2482 C 244.353 -0.613473 -1.50799 0
M  V30 2483 O 245.542 -0.889049 -1.54784 0
M  V30 2484 C 242.642 -1.77245 -2.88855 0
M  V30 2485 C 241.815 -3.06483 -3.12069 0
M  V30 2486 C 240.874 -3.02033 -4.30886 0
M  V30 2487 O 239.9 -3.75907 -4.27414 0
M  V30 2488 N 241.102 -2.20897 -5.36828 0
M  V30 2489 H 243.867 -2.68756 -1.32629 0
M  V30 2490 H 241.428 -1.51036 -0.583083 0
M  V30 2491 H 243.42 -1.7178 -3.66434 0
M  V30 2492 H 241.99 -0.891993 -2.99603 0
M  V30 2493 H 241.21 -3.25474 -2.22396 0
M  V30 2494 H 242.498 -3.91947 -3.2443 0
M  V30 2495 H 241.896 -1.60336 -5.42502 0
M  V30 2496 H 240.453 -2.21275 -6.13091 0
M  V30 2497 N 243.887 0.651787 -1.4349 0
M  V30 2498 C 245.133 1.41376 -1.45398 0
M  V30 2499 C 245.466 1.94041 -0.0784823 0
M  V30 2500 O 244.741 1.72379 0.900878 0
M  V30 2501 C 245.024 2.59414 -2.49752 0
M  V30 2502 C 244.877 2.12232 -3.96582 0
M  V30 2503 C 246.196 3.61626 -2.50827 0
M  V30 2504 H 243.315 0.512719 -0.529422 0
M  V30 2505 H 245.957 0.738796 -1.75048 0
M  V30 2506 H 244.107 3.16997 -2.246 0
M  V30 2507 H 245.779 1.59639 -4.32797 0
M  V30 2508 H 244.022 1.43592 -4.09346 0
M  V30 2509 H 244.693 2.9712 -4.65214 0
M  V30 2510 H 247.169 3.13805 -2.7325 0
M  V30 2511 H 246.045 4.41766 -3.25783 0
M  V30 2512 H 246.306 4.14314 -1.5426 0
M  V30 2513 N 245.365 1.30045 0.890287 0
M  V30 2514 C 246.611 1.18737 1.64406 0
M  V30 2515 C 246.944 -0.258525 1.92472 0
M  V30 2516 O 246.219 -1.18562 1.54186 0
M  V30 2517 C 246.502 2.01087 2.98724 0
M  V30 2518 C 246.355 3.53867 2.77665 0
M  V30 2519 C 247.674 1.84457 3.9958 0
M  V30 2520 H 244.793 0.432698 0.596608 0
M  V30 2521 H 247.435 1.5962 1.0306 0
M  V30 2522 H 245.585 1.66349 3.51084 0
M  V30 2523 H 247.257 3.98637 2.32133 0
M  V30 2524 H 245.5 3.78318 2.12269 0
M  V30 2525 H 246.171 4.06772 3.7315 0
M  V30 2526 H 248.647 2.14817 3.56361 0
M  V30 2527 H 247.523 2.44411 4.91482 0
M  V30 2528 H 247.784 0.802276 4.3476 0
M  V30 2529 N 246.843 -1.10192 1.12674 0
M  V30 2530 C 248.089 -1.82475 0.884915 0
M  V30 2531 C 248.422 -1.85093 -0.58773 0
M  V30 2532 O 247.697 -1.3134 -1.43457 0
M  V30 2533 C 247.98 -3.29018 1.46353 0
M  V30 2534 C 247.833 -3.34718 3.00473 0
M  V30 2535 C 249.152 -4.25473 1.12519 0
M  V30 2536 H 246.271 -0.662492 0.322915 0
M  V30 2537 H 248.913 -1.2913 1.39375 0
M  V30 2538 H 247.063 -3.74576 1.03077 0
M  V30 2539 H 248.735 -2.97622 3.52447 0
M  V30 2540 H 246.978 -2.74541 3.35872 0
M  V30 2541 H 247.649 -4.37918 3.36053 0
M  V30 2542 H 250.125 -3.88161 1.499 0
M  V30 2543 H 249.001 -5.26365 1.55663 0
M  V30 2544 H 249.262 -4.42084 0.0377407 0
M  V30 2545 N 248.321 -0.919034 -1.28029 0
M  V30 2546 C 249.269 -0.401753 -2.29104 0
M  V30 2547 C 250.263 0.509354 -1.61561 0
M  V30 2548 O 251.469 0.390014 -1.75724 0
M  V30 2549 H 247.844 -0.111331 -0.743713 0
M  V30 2550 H 249.815 -1.2672 -2.70156 0
M  V30 2551 C 248.564 0.338148 -3.46052 0
M  V30 2552 H 247.887 -0.353732 -3.98232 0
M  V30 2553 H 249.327 0.664653 -4.18758 0
M  V30 2554 C 247.786 1.54798 -2.99231 0
M  V30 2555 O 248.316 2.64696 -3.02157 0
M  V30 2556 N 246.522 1.3968 -2.54829 0
M  V30 2557 H 246.069 0.502698 -2.52647 0
M  V30 2558 H 246.027 2.20755 -2.23863 0
M  V30 2559 N 249.799 1.42003 -0.683588 0
M  V30 2560 C 250.746 2.30798 -0.0107309 0
M  V30 2561 C 251.716 1.4645 0.783688 0
M  V30 2562 O 252.901 1.75263 0.754156 0
M  V30 2563 C 250.041 3.3238 0.928306 0
M  V30 2564 C 249.154 4.31814 0.126776 0
M  V30 2565 C 248.289 5.20468 1.06236 0
M  V30 2566 C 247.328 6.11577 0.253035 0
M  V30 2567 N 246.465 6.92754 1.14179 0
M  V30 2568 H 251.305 2.8778 -0.773727 0
M  V30 2569 H 248.842 1.41745 -0.393283 0
M  V30 2570 H 250.8 3.89813 1.48666 0
M  V30 2571 H 249.43 2.76976 1.65783 0
M  V30 2572 H 248.482 3.76427 -0.54833 0
M  V30 2573 H 249.794 4.96276 -0.501192 0
M  V30 2574 H 248.948 5.82677 1.69035 0
M  V30 2575 H 247.687 4.56204 1.7242 0
M  V30 2576 H 246.692 5.48428 -0.388108 0
M  V30 2577 H 247.917 6.77892 -0.404839 0
M  V30 2578 H 245.863 6.3111 1.78987 0
M  V30 2579 H 245.78 7.53855 0.569111 0
M  V30 2580 H 247.048 7.59441 1.75697 0
M  V30 2581 N 251.277 0.427512 1.51691 0
M  V30 2582 C 252.24 -0.377132 2.26076 0
M  V30 2583 C 253.24 -0.958089 1.29141 0
M  V30 2584 O 254.43 -0.83408 1.52934 0
M  V30 2585 C 251.562 -1.53262 3.04506 0
M  V30 2586 H 252.755 0.27464 2.9864 0
M  V30 2587 H 250.308 0.180445 1.55255 0
M  V30 2588 H 251.043 -2.22072 2.36335 0
M  V30 2589 H 250.828 -1.12232 3.75694 0
M  V30 2590 H 252.318 -2.10135 3.60878 0
M  V30 2591 N 252.755 -1.56801 0.158532 0
M  V30 2592 C 253.718 -2.16138 -0.762705 0
M  V30 2593 C 254.718 -1.1061 -1.16713 0
M  V30 2594 O 255.908 -1.36191 -1.08617 0
M  V30 2595 C 253.04 -2.73386 -2.03649 0
M  V30 2596 H 254.233 -2.98886 -0.246354 0
M  V30 2597 H 251.786 -1.56035 -0.0909744 0
M  V30 2598 H 252.521 -1.94335 -2.59623 0
M  V30 2599 H 252.306 -3.50601 -1.75559 0
M  V30 2600 H 253.796 -3.19065 -2.6942 0
M  V30 2601 N 254.233 0.115231 -1.57178 0
M  V30 2602 C 255.479 0.82357 -1.85325 0
M  V30 2603 C 255.812 1.79349 -0.744814 0
M  V30 2604 O 255.087 1.92899 0.249024 0
M  V30 2605 C 255.37 1.57014 -3.24066 0
M  V30 2606 C 255.223 0.619565 -4.45513 0
M  V30 2607 C 256.542 2.52545 -3.60429 0
M  V30 2608 H 253.661 0.297948 -0.674089 0
M  V30 2609 H 256.303 0.0877138 -1.89797 0
M  V30 2610 H 254.453 2.19742 -3.20383 0
M  V30 2611 H 256.125 0.000837639 -4.613 0
M  V30 2612 H 254.368 -0.0686174 -4.33746 0
M  V30 2613 H 255.039 1.17866 -5.3927 0
M  V30 2614 H 257.515 1.9992 -3.64926 0
M  V30 2615 H 256.391 3.01811 -4.58477 0
M  V30 2616 H 256.652 3.35383 -2.88047 0
M  V30 2617 N 255.711 1.52812 0.385517 0
M  V30 2618 C 256.644 1.72592 1.49289 0
M  V30 2619 C 257.622 0.573819 1.52138 0
M  V30 2620 O 258.806 0.80404 1.70492 0
M  V30 2621 C 255.933 1.78669 2.87741 0
M  V30 2622 C 254.979 3.00455 3.02703 0
M  V30 2623 S 255.812 4.60366 2.73538 0
M  V30 2624 C 256.968 4.69263 4.14177 0
M  V30 2625 H 257.201 2.66248 1.32285 0
M  V30 2626 H 254.734 1.43148 0.578611 0
M  V30 2627 H 256.692 1.82855 3.67524 0
M  V30 2628 H 255.353 0.861 3.02069 0
M  V30 2629 H 254.546 3.01258 4.04054 0
M  V30 2630 H 254.148 2.94278 2.30817 0
M  V30 2631 H 256.44 4.48092 5.08153 0
M  V30 2632 H 257.383 5.71276 4.18388 0
M  V30 2633 H 257.791 3.98072 4.00249 0
M  V30 2634 N 257.189 -0.644168 1.43834 0
M  V30 2635 C 258.435 -1.40603 1.46146 0
M  V30 2636 C 258.768 -1.93997 0.0887717 0
M  V30 2637 O 258.043 -1.72854 -0.891724 0
M  V30 2638 C 258.326 -2.58086 2.51124 0
M  V30 2639 C 258.179 -2.10126 3.97702 0
M  V30 2640 C 259.498 -3.60291 2.52742 0
M  V30 2641 H 256.617 -0.509905 0.532134 0
M  V30 2642 H 259.259 -0.729502 1.75437 0
M  V30 2643 H 257.409 -3.15801 2.26278 0
M  V30 2644 H 259.081 -1.57342 4.33637 0
M  V30 2645 H 257.324 -1.41419 4.10101 0
M  V30 2646 H 257.995 -2.94649 4.66783 0
M  V30 2647 H 260.471 -3.12352 2.7491 0
M  V30 2648 H 259.347 -4.40032 3.28121 0
M  V30 2649 H 259.608 -4.1349 1.56455 0
M  V30 2650 N 258.668 -1.30515 -0.883378 0
M  V30 2651 C 259.618 -1.13641 -1.9766 0
M  V30 2652 C 260.602 -0.0511314 -1.60819 0
M  V30 2653 O 261.794 -0.274623 -1.74857 0
M  V30 2654 C 258.923 -0.831976 -3.33066 0
M  V30 2655 C 258.009 -1.95759 -3.76217 0
M  V30 2656 N 258.4 -3.20313 -3.9145 0
M  V30 2657 C 256.698 -1.85431 -4.05625 0
M  V30 2658 C 257.399 -3.93856 -4.2808 0
M  V30 2659 N 256.375 -3.21919 -4.38029 0
M  V30 2660 H 260.177 -2.08106 -2.07531 0
M  V30 2661 H 257.691 -1.21877 -1.0733 0
M  V30 2662 H 259.688 -0.692102 -4.11115 0
M  V30 2663 H 258.348 0.104588 -3.24532 0
M  V30 2664 H 259.359 -3.55583 -3.76538 0
M  V30 2665 H 256.036 -0.991531 -4.05555 0
M  V30 2666 H 257.426 -5.01125 -4.47575 0
M  V30 2667 N 260.146 1.09593 -1.13257 0
M  V30 2668 C 261.078 2.16015 -0.766167 0
M  V30 2669 C 262.091 1.61423 0.211303 0
M  V30 2670 O 263.28 1.78498 -0.00863946 0
M  V30 2671 C 260.38 3.38706 -0.114662 0
M  V30 2672 C 259.553 4.22717 -1.12379 0
M  V30 2673 C 258.612 5.23835 -0.498301 0
M  V30 2674 O 257.638 5.573 -1.15781 0
M  V30 2675 N 258.84 5.75886 0.730417 0
M  V30 2676 H 261.605 2.48055 -1.68193 0
M  V30 2677 H 259.166 1.25292 -1.02535 0
M  V30 2678 H 261.158 4.03464 0.315991 0
M  V30 2679 H 259.728 3.04569 0.704011 0
M  V30 2680 H 258.948 3.54122 -1.73179 0
M  V30 2681 H 260.236 4.75673 -1.80589 0
M  V30 2682 H 259.634 5.50911 1.28504 0
M  V30 2683 H 258.191 6.42387 1.10376 0
M  V30 2684 N 261.624 0.925811 1.2754 0
M  V30 2685 C 262.554 0.440748 2.29303 0
M  V30 2686 C 263.535 -0.497971 1.62648 0
M  V30 2687 O 264.72 -0.403126 1.8997 0
M  V30 2688 C 261.85 -0.309048 3.45922 0
M  V30 2689 C 260.804 0.54166 4.24559 0
M  V30 2690 C 260.13 -0.337191 5.33636 0
M  V30 2691 C 261.43 1.80516 4.90114 0
M  V30 2692 H 263.124 1.29121 2.70126 0
M  V30 2693 H 260.67 0.622323 1.29858 0
M  V30 2694 H 262.623 -0.659315 4.1621 0
M  V30 2695 H 261.347 -1.19352 3.04011 0
M  V30 2696 H 260.006 0.874609 3.56014 0
M  V30 2697 H 259.654 -1.22056 4.87966 0
M  V30 2698 H 259.354 0.228497 5.87156 0
M  V30 2699 H 260.878 -0.683072 6.06767 0
M  V30 2700 H 262.292 1.52307 5.52698 0
M  V30 2701 H 260.689 2.3142 5.53683 0
M  V30 2702 H 261.759 2.52581 4.13921 0
M  V30 2703 N 263.102 -1.41638 0.69111 0
M  V30 2704 C 264.327 -2.06148 0.227583 0
M  V30 2705 C 264.752 -1.51652 -1.11281 0
M  V30 2706 O 264.11 -0.64164 -1.69566 0
M  V30 2707 C 264.158 -3.60095 0.190858 0
M  V30 2708 O 263.262 -4.03845 -0.835664 0
M  V30 2709 H 262.603 -0.654434 0.112306 0
M  V30 2710 H 265.133 -1.81484 0.944714 0
M  V30 2711 H 265.143 -4.07995 0.020207 0
M  V30 2712 H 263.818 -3.99129 1.16915 0
M  V30 2713 H 262.395 -3.67458 -0.63473 0
M  V30 2714 N 264.58 -0.43555 -1.51462 0
M  V30 2715 C 265.527 0.376797 -2.27703 0
M  V30 2716 C 266.497 1.01838 -1.31219 0
M  V30 2717 O 267.682 1.03762 -1.60119 0
M  V30 2718 C 264.822 1.47301 -3.12084 0
M  V30 2719 C 263.935 0.849744 -4.2356 0
M  V30 2720 C 263.07 1.92086 -4.95254 0
M  V30 2721 C 262.109 1.27593 -5.98654 0
M  V30 2722 N 261.246 2.28833 -6.63762 0
M  V30 2723 H 266.086 -0.279734 -2.96684 0
M  V30 2724 H 263.623 -0.149795 -1.46335 0
M  V30 2725 H 265.581 2.11984 -3.59331 0
M  V30 2726 H 264.211 2.0992 -2.45221 0
M  V30 2727 H 263.263 0.0912529 -3.80291 0
M  V30 2728 H 264.575 0.338878 -4.97648 0
M  V30 2729 H 263.729 2.64435 -5.46039 0
M  V30 2730 H 262.468 2.46545 -4.20793 0
M  V30 2731 H 261.473 0.537893 -5.47162 0
M  V30 2732 H 262.698 0.738693 -6.7507 0
M  V30 2733 H 260.644 2.82375 -5.92115 0
M  V30 2734 H 260.561 1.82632 -7.33608 0
M  V30 2735 H 261.829 3.00671 -7.19178 0
M  V30 2736 N 266.058 1.56714 -0.166846 0
M  V30 2737 C 267.005 2.17746 0.765193 0
M  V30 2738 C 267.975 1.11614 1.23011 0
M  V30 2739 O 269.16 1.39745 1.29908 0
M  V30 2740 C 266.3 2.81882 1.9909 0
M  V30 2741 C 265.413 4.02462 1.56997 0
M  V30 2742 C 264.548 4.54537 2.749 0
M  V30 2743 C 263.587 5.67538 2.29275 0
M  V30 2744 N 262.724 6.14142 3.40255 0
M  V30 2745 H 267.564 2.97048 0.237952 0
M  V30 2746 H 265.101 1.4672 0.105725 0
M  V30 2747 H 267.059 3.17221 2.70974 0
M  V30 2748 H 265.689 2.05191 2.49192 0
M  V30 2749 H 264.741 3.72973 0.748037 0
M  V30 2750 H 266.053 4.84273 1.19503 0
M  V30 2751 H 265.207 4.92035 3.54946 0
M  V30 2752 H 263.946 3.71774 3.1565 0
M  V30 2753 H 262.951 5.29597 1.47674 0
M  V30 2754 H 264.176 6.52099 1.89588 0
M  V30 2755 H 262.122 5.3431 3.8059 0
M  V30 2756 H 262.039 6.9093 3.06841 0
M  V30 2757 H 263.307 6.56289 4.206 0
M  V30 2758 N 267.536 -0.106894 1.57237 0
M  V30 2759 C 268.446 -1.14911 2.0453 0
M  V30 2760 C 269.462 -1.44592 0.96795 0
M  V30 2761 O 270.638 -1.55468 1.2803 0
M  V30 2762 C 267.703 -2.45272 2.45036 0
M  V30 2763 C 266.764 -2.22879 3.66911 0
M  V30 2764 C 265.997 -3.47024 4.05475 0
M  V30 2765 O 266.22 -4.54804 3.44252 0
M  V30 2766 O 265.154 -3.3731 4.98504 0
M  V30 2767 H 268.98 -0.777461 2.9358 0
M  V30 2768 H 266.565 -0.318563 1.45964 0
M  V30 2769 H 268.447 -3.22055 2.71769 0
M  V30 2770 H 267.122 -2.81886 1.59129 0
M  V30 2771 H 266.029 -1.43915 3.45311 0
M  V30 2772 H 267.362 -1.91163 4.53561 0
M  V30 2773 N 269.014 -1.53014 -0.377408 0
M  V30 2774 C 269.977 -1.77957 -1.44444 0
M  V30 2775 C 270.977 -0.649763 -1.47087 0
M  V30 2776 O 272.167 -0.917897 -1.48055 0
M  V30 2777 C 269.299 -1.89089 -2.83651 0
M  V30 2778 H 270.492 -2.73243 -1.23606 0
M  V30 2779 H 268.045 -1.43912 -0.609844 0
M  V30 2780 H 268.78 -0.958293 -3.09818 0
M  V30 2781 H 268.565 -2.71254 -2.83132 0
M  V30 2782 H 270.055 -2.1002 -3.60945 0
M  V30 2783 N 270.492 0.636531 -1.44174 0
M  V30 2784 C 271.717 1.42847 -1.50364 0
M  V30 2785 C 272.142 1.87665 -0.127867 0
M  V30 2786 O 271.5 1.58408 0.88185 0
M  V30 2787 C 271.548 2.62854 -2.4686 0
M  V30 2788 O 270.652 3.62501 -1.9664 0
M  V30 2789 H 269.993 0.427642 -0.507955 0
M  V30 2790 H 272.523 0.777422 -1.89255 0
M  V30 2791 H 272.533 3.10465 -2.64718 0
M  V30 2792 H 271.208 2.29578 -3.46795 0
M  V30 2793 H 269.785 3.21735 -1.88523 0
M  V30 2794 N 271.97 1.30982 0.876444 0
M  V30 2795 C 273.386 1.09498 1.16113 0
M  V30 2796 C 273.586 -0.13875 2.01022 0
M  V30 2797 O 272.642 -0.829935 2.38471 0
M  V30 2798 C 273.955 2.36308 1.85954 0
M  V30 2799 C 275.503 2.41856 1.98683 0
M  V30 2800 C 275.978 3.6853 2.71937 0
M  V30 2801 N 277.469 3.69387 2.79477 0
M  V30 2802 C 278.204 4.64096 3.36753 0
M  V30 2803 N 277.7 5.69155 3.95012 0
M  V30 2804 N 279.493 4.51626 3.3465 0
M  V30 2805 H 271.644 2.10118 0.310494 0
M  V30 2806 H 273.907 0.926634 0.200131 0
M  V30 2807 H 273.613 3.26388 1.31011 0
M  V30 2808 H 273.487 2.4561 2.86278 0
M  V30 2809 H 275.874 1.52249 2.52793 0
M  V30 2810 H 275.955 2.36523 0.9742 0
M  V30 2811 H 275.599 4.58499 2.18496 0
M  V30 2812 H 275.529 3.71127 3.73593 0
M  V30 2813 H 278.02 2.93438 2.38123 0
M  V30 2814 H 278.333 6.3751 4.36808 0
M  V30 2815 H 276.678 5.72937 3.93406 0
M  V30 2816 H 279.869 3.68728 2.8837 0
M  V30 2817 H 280.042 5.25614 3.7899 0
M  V30 2818 N 273.449 -1.08991 1.13837 0
M  V30 2819 C 274.399 -2.1393 0.788535 0
M  V30 2820 C 275.383 -1.59396 -0.219516 0
M  V30 2821 O 276.575 -1.76985 -0.0227557 0
M  V30 2822 C 273.704 -3.42305 0.261147 0
M  V30 2823 C 272.79 -4.03736 1.29837 0
M  V30 2824 N 273.181 -4.39659 2.50067 0
M  V30 2825 C 271.479 -4.30993 1.1472 0
M  V30 2826 C 272.18 -4.88113 3.16419 0
M  V30 2827 N 271.156 -4.85846 2.43832 0
M  V30 2828 H 274.958 -2.39516 1.70322 0
M  V30 2829 H 272.472 -1.26263 1.02134 0
M  V30 2830 H 274.469 -4.16899 -0.0077405 0
M  V30 2831 H 273.129 -3.18172 -0.647805 0
M  V30 2832 H 274.14 -4.30878 2.8734 0
M  V30 2833 H 270.817 -4.16444 0.296773 0
M  V30 2834 H 272.207 -5.25336 4.18894 0
M  V30 2835 N 274.927 -0.932562 -1.27047 0
M  V30 2836 C 275.89 -0.440064 -2.24936 0
M  V30 2837 C 276.89 0.444071 -1.54547 0
M  V30 2838 O 278.08 0.244465 -1.72476 0
M  V30 2839 C 275.212 0.36678 -3.38921 0
M  V30 2840 H 276.405 -1.305 -2.70018 0
M  V30 2841 H 273.958 -0.713707 -1.39054 0
M  V30 2842 H 274.693 1.25033 -2.99228 0
M  V30 2843 H 274.478 -0.267204 -3.91188 0
M  V30 2844 H 275.968 0.701567 -4.11665 0
M  V30 2845 N 276.405 1.4127 -0.698611 0
M  V30 2846 C 277.654 2.00408 -0.227949 0
M  V30 2847 C 277.967 1.55981 1.18023 0
M  V30 2848 O 279.173 2.07699 1.74852 0
M  V30 2849 C 277.629 3.58129 -0.356636 0
M  V30 2850 C 277.237 4.11536 -1.77037 0
M  V30 2851 C 278.981 4.24466 0.0540969 0
M  V30 2852 C 276.888 5.61701 -1.85055 0
M  V30 2853 H 275.818 0.749586 -0.0814657 0
M  V30 2854 H 278.469 1.61713 -0.867249 0
M  V30 2855 H 276.851 3.94442 0.350965 0
M  V30 2856 H 278.025 3.86636 -2.50698 0
M  V30 2857 H 276.34 3.57736 -2.13105 0
M  V30 2858 H 278.937 5.34698 0.0146723 0
M  V30 2859 H 279.28 4.01687 1.09332 0
M  V30 2860 H 279.813 3.93198 -0.603337 0
M  V30 2861 H 276.552 5.89312 -2.8704 0
M  V30 2862 H 276.072 5.88519 -1.15783 0
M  V30 2863 H 277.751 6.26524 -1.61484 0
M  V30 2864 N 277.883 0.443576 1.51229 0
M  V30 2865 C 278.816 -0.410089 2.24485 0
M  V30 2866 C 279.794 -1.01949 1.26669 0
M  V30 2867 O 280.978 -1.06075 1.55821 0
M  V30 2868 C 278.105 -1.57211 3.00004 0
M  V30 2869 C 277.151 -1.08279 4.12526 0
M  V30 2870 S 277.984 -0.0197476 5.35496 0
M  V30 2871 C 279.14 -1.18629 6.14555 0
M  V30 2872 H 279.373 0.211832 2.96544 0
M  V30 2873 H 276.906 0.228156 1.52705 0
M  V30 2874 H 278.864 -2.23825 3.44111 0
M  V30 2875 H 277.525 -2.16547 2.27522 0
M  V30 2876 H 276.718 -1.95193 4.64667 0
M  V30 2877 H 276.32 -0.494797 3.70713 0
M  V30 2878 H 278.612 -2.10344 6.4402 0
M  V30 2879 H 279.555 -0.70472 7.04584 0
M  V30 2880 H 279.963 -1.42768 5.46148 0
M  V30 2881 N 279.361 -1.56624 0.175154 0
M  V30 2882 C 280.777 -1.58571 -0.180966 0
M  V30 2883 C 280.977 -1.19065 -1.6256 0
M  V30 2884 O 280.033 -0.904044 -2.35761 0
M  V30 2885 C 281.346 -3.00522 0.103326 0
M  V30 2886 C 282.894 -3.12972 0.0418426 0
M  V30 2887 C 283.369 -4.57022 0.299175 0
M  V30 2888 N 284.86 -4.62541 0.247086 0
M  V30 2889 C 285.595 -5.71857 0.420318 0
M  V30 2890 N 285.091 -6.89717 0.652816 0
M  V30 2891 N 286.884 -5.60972 0.355957 0
M  V30 2892 H 279.035 -1.80589 1.11809 0
M  V30 2893 H 281.298 -0.837178 0.444788 0
M  V30 2894 H 281.004 -3.33916 1.10422 0
M  V30 2895 H 280.878 -3.72344 -0.603299 0
M  V30 2896 H 283.265 -2.79403 -0.949636 0
M  V30 2897 H 283.346 -2.43578 0.781238 0
M  V30 2898 H 282.99 -4.913 1.28788 0
M  V30 2899 H 282.92 -5.24579 -0.460876 0
M  V30 2900 H 285.411 -3.77829 0.0731895 0
M  V30 2901 H 285.724 -7.68911 0.774347 0
M  V30 2902 H 284.069 -6.91572 0.689476 0
M  V30 2903 H 287.26 -4.67773 0.174882 0
M  V30 2904 H 287.433 -6.46111 0.494388 0
M  V30 2905 N 280.839 0.0985539 -1.57292 0
M  V30 2906 C 282.064 0.820196 -1.90493 0
M  V30 2907 C 282.489 1.71658 -0.769094 0
M  V30 2908 O 281.847 1.79133 0.279495 0
M  V30 2909 C 281.895 1.61242 -3.22542 0
M  V30 2910 O 280.999 2.72108 -3.09888 0
M  V30 2911 H 280.34 0.225547 -0.62452 0
M  V30 2912 H 282.87 0.0748159 -2.04463 0
M  V30 2913 H 282.88 1.99737 -3.55766 0
M  V30 2914 H 281.555 0.954535 -4.04798 0
M  V30 2915 H 280.132 2.36667 -2.88172 0
M  V30 2916 N 282.317 1.53212 0.369288 0
M  V30 2917 C 283.728 1.60943 0.946276 0
M  V30 2918 C 284.079 0.47452 1.90375 0
M  V30 2919 O 283.204 -0.399597 2.12679 0
M  V30 2920 C 283.799 2.91715 1.72302 0
M  V30 2921 C 282.358 3.01792 2.24941 0
M  V30 2922 C 281.505 2.56211 1.06072 0
M  V30 2923 H 284.456 1.58007 0.148198 0
M  V30 2924 H 284.477 2.79309 2.58393 0
M  V30 2925 H 283.989 3.74295 1.0259 0
M  V30 2926 H 282.09 2.23791 2.97906 0
M  V30 2927 H 282.203 4.06803 2.53077 0
M  V30 2928 H 280.567 2.10998 1.4266 0
M  V30 2929 H 281.35 3.41206 0.378639 0
M  V30 2930 N 283.795 -0.628877 1.44509 0
M  V30 2931 C 284.727 -1.754 1.47538 0
M  V30 2932 C 285.74 -1.58575 0.368506 0
M  V30 2933 O 286.929 -1.66847 0.634376 0
M  V30 2934 C 284.029 -3.1315 1.29577 0
M  V30 2935 C 283.202 -3.56413 2.53551 0
M  V30 2936 C 282.261 -4.7305 2.30457 0
M  V30 2937 O 281.287 -4.81247 3.03957 0
M  V30 2938 N 282.489 -5.64903 1.3366 0
M  V30 2939 H 285.254 -1.73272 2.44534 0
M  V30 2940 H 282.815 -0.813512 1.39977 0
M  V30 2941 H 284.807 -3.88902 1.11971 0
M  V30 2942 H 283.377 -3.09908 0.409371 0
M  V30 2943 H 282.597 -2.70847 2.86419 0
M  V30 2944 H 283.885 -3.82071 3.36005 0
M  V30 2945 H 283.283 -5.60975 0.729604 0
M  V30 2946 H 281.84 -6.40275 1.22032 0
M  V30 2947 N 285.273 -1.31445 -0.869486 0
M  V30 2948 C 286.206 -1.13465 -1.97992 0
M  V30 2949 C 287.184 -0.0380291 -1.62556 0
M  V30 2950 O 288.368 -0.194544 -1.87493 0
M  V30 2951 C 285.495 -0.733822 -3.30655 0
M  V30 2952 C 284.541 -1.83356 -3.85075 0
M  V30 2953 S 285.374 -3.43909 -4.10472 0
M  V30 2954 C 286.53 -3.05763 -5.46132 0
M  V30 2955 H 286.763 -2.07471 -2.1294 0
M  V30 2956 H 284.296 -1.15936 -1.01972 0
M  V30 2957 H 286.254 -0.509306 -4.07328 0
M  V30 2958 H 284.915 0.187123 -3.13542 0
M  V30 2959 H 284.108 -1.50574 -4.80982 0
M  V30 2960 H 283.71 -2.01315 -3.15195 0
M  V30 2961 H 286.002 -2.54686 -6.27807 0
M  V30 2962 H 286.945 -4.00635 -5.83864 0
M  V30 2963 H 287.353 -2.43192 -5.09429 0
M  V30 2964 N 286.751 1.08385 -1.14413 0
M  V30 2965 C 287.997 1.81044 -0.913834 0
M  V30 2966 C 288.33 1.86004 0.558209 0
M  V30 2967 O 287.605 1.33606 1.4135 0
M  V30 2968 C 287.888 3.26648 -1.51569 0
M  V30 2969 C 287.741 3.29895 -3.0576 0
M  V30 2970 C 289.06 4.23629 -1.19273 0
M  V30 2971 H 286.179 0.65727 -0.333414 0
M  V30 2972 H 288.821 1.26896 -1.41412 0
M  V30 2973 H 286.971 3.72889 -1.09023 0
M  V30 2974 H 288.643 2.91977 -3.57137 0
M  V30 2975 H 286.886 2.69163 -3.40197 0
M  V30 2976 H 287.557 4.32516 -3.42977 0
M  V30 2977 H 290.033 3.85727 -1.56057 0
M  V30 2978 H 288.909 5.23822 -1.64017 0
M  V30 2979 H 289.17 4.41968 -0.108068 0
M  V30 2980 N 288.23 0.939286 1.26551 0
M  V30 2981 C 289.455 0.602008 1.98471 0
M  V30 2982 C 289.88 -0.815624 1.69497 0
M  V30 2983 O 289.238 -1.54912 0.941905 0
M  V30 2984 C 289.286 0.848407 3.50477 0
M  V30 2985 O 288.39 -0.0804009 4.12322 0
M  V30 2986 H 287.731 0.23049 0.622712 0
M  V30 2987 H 290.261 1.2617 1.61066 0
M  V30 2988 H 290.271 0.768553 4.00696 0
M  V30 2989 H 288.946 1.88171 3.70897 0
M  V30 2990 H 287.523 0.0503508 3.72866 0
M  V30 2991 N 289.708 -1.40897 0.706093 0
M  V30 2992 C 290.671 -2.29131 0.0562841 0
M  V30 2993 C 291.671 -1.44901 -0.697166 0
M  V30 2994 O 292.861 -1.65926 -0.530484 0
M  V30 2995 C 289.993 -3.27957 -0.93043 0
M  V30 2996 H 291.186 -2.88091 0.833284 0
M  V30 2997 H 288.739 -1.4906 0.470192 0
M  V30 2998 H 289.474 -2.73997 -1.73482 0
M  V30 2999 H 289.259 -3.90124 -0.393166 0
M  V30 3000 H 290.749 -3.94049 -1.38256 0
M  V30 3001 N 291.186 -0.45159 -1.50991 0
M  V30 3002 C 292.435 0.111653 -2.01391 0
M  V30 3003 C 292.748 1.42529 -1.33959 0
M  V30 3004 O 293.954 2.07232 -1.75405 0
M  V30 3005 C 292.41 0.249514 -3.59034 0
M  V30 3006 C 292.018 -1.05453 -4.35412 0
M  V30 3007 C 293.762 0.765762 -4.17536 0
M  V30 3008 C 291.669 -0.881529 -5.84793 0
M  V30 3009 H 290.599 0.0455022 -0.752626 0
M  V30 3010 H 293.25 -0.583524 -1.73975 0
M  V30 3011 H 291.632 1.00803 -3.82955 0
M  V30 3012 H 292.806 -1.82248 -4.23229 0
M  V30 3013 H 291.121 -1.50039 -3.88429 0
M  V30 3014 H 293.718 0.911913 -5.26866 0
M  V30 3015 H 294.061 1.75201 -3.77638 0
M  V30 3016 H 294.594 0.0651744 -3.97747 0
M  V30 3017 H 291.333 -1.84057 -6.29129 0
M  V30 3018 H 290.853 -0.153625 -5.99603 0
M  V30 3019 H 292.532 -0.540363 -6.4474 0
M  V30 3020 N 292.664 1.56529 -0.183458 0
M  V30 3021 C 293.91 1.97537 0.459036 0
M  V30 3022 C 294.243 1.06989 1.62071 0
M  V30 3023 O 293.518 0.11948 1.94133 0
M  V30 3024 C 293.801 3.47874 0.930368 0
M  V30 3025 C 293.654 4.492 -0.232317 0
M  V30 3026 C 294.973 4.01612 1.79989 0
M  V30 3027 H 292.092 0.718204 0.165383 0
M  V30 3028 H 294.734 1.88042 -0.272038 0
M  V30 3029 H 292.884 3.56095 1.55333 0
M  V30 3030 H 294.556 4.53027 -0.86972 0
M  V30 3031 H 292.799 4.24657 -0.885928 0
M  V30 3032 H 293.47 5.51823 0.139796 0
M  V30 3033 H 295.946 3.96097 1.27461 0
M  V30 3034 H 294.822 5.07195 2.09867 0
M  V30 3035 H 295.083 3.46163 2.74998 0
M  V30 3036 N 294.142 -0.090211 1.57342 0
M  V30 3037 C 295.558 -0.444547 1.53284 0
M  V30 3038 C 295.758 -1.80238 0.900914 0
M  V30 3039 O 294.814 -2.4759 0.495513 0
M  V30 3040 C 296.127 -0.402543 2.97993 0
M  V30 3041 C 297.675 -0.48405 3.09234 0
M  V30 3042 C 298.15 -0.472144 4.5556 0
M  V30 3043 N 299.641 -0.532757 4.60126 0
M  V30 3044 C 300.376 -0.545462 5.708 0
M  V30 3045 N 299.872 -0.514082 6.9089 0
M  V30 3046 N 301.665 -0.59064 5.58988 0
M  V30 3047 H 293.816 0.799121 1.96794 0
M  V30 3048 H 296.079 0.297965 0.899956 0
M  V30 3049 H 295.785 0.528106 3.47712 0
M  V30 3050 H 295.659 -1.21969 3.56936 0
M  V30 3051 H 298.046 -1.40512 2.595 0
M  V30 3052 H 298.127 0.361328 2.53235 0
M  V30 3053 H 297.771 0.445 5.05947 0
M  V30 3054 H 297.701 -1.3348 5.09402 0
M  V30 3055 H 300.192 -0.562006 3.73698 0
M  V30 3056 H 300.505 -0.527195 7.71 0
M  V30 3057 H 298.85 -0.481054 6.93333 0
M  V30 3058 H 302.041 -0.61272 4.64073 0
M  V30 3059 H 302.214 -0.597073 6.45243 0
M  V30 3060 N 295.62 -1.53406 -0.361157 0
M  V30 3061 C 296.848 -1.73717 -1.12383 0
M  V30 3062 C 297.263 -0.468161 -1.82904 0
M  V30 3063 O 296.62 0.559198 -1.73722 0
M  V30 3064 C 296.671 -2.90558 -2.15078 0
M  V30 3065 O 296.392 -4.12549 -1.47428 0
M  V30 3066 C 297.893 -3.22777 -3.03858 0
M  V30 3067 H 295.113 -0.580896 -0.335858 0
M  V30 3068 H 297.657 -2.00167 -0.418728 0
M  V30 3069 H 295.812 -2.66489 -2.8118 0
M  V30 3070 H 296.226 -4.78009 -2.15887 0
M  V30 3071 H 297.7 -4.07927 -3.71887 0
M  V30 3072 H 298.177 -2.38329 -3.68912 0
M  V30 3073 H 298.783 -3.48787 -2.43367 0
M  V30 3074 N 297.098 0.621204 -1.44841 0
M  V30 3075 C 298.031 1.7459 -1.46947 0
M  V30 3076 C 299.009 1.59273 -0.327238 0
M  V30 3077 O 300.193 1.81021 -0.525706 0
M  V30 3078 C 297.32 3.12274 -1.31159 0
M  V30 3079 C 296.366 3.46216 -2.49072 0
M  V30 3080 S 297.199 3.4258 -4.11581 0
M  V30 3081 C 298.355 4.82867 -3.98233 0
M  V30 3082 H 298.588 1.72538 -2.42111 0
M  V30 3083 H 296.121 0.796683 -1.32259 0
M  V30 3084 H 298.079 3.91722 -1.22737 0
M  V30 3085 H 296.74 3.11855 -0.374885 0
M  V30 3086 H 295.933 4.4643 -2.33915 0
M  V30 3087 H 295.535 2.74253 -2.54286 0
M  V30 3088 H 297.827 5.7234 -3.62537 0
M  V30 3089 H 298.77 5.0308 -4.98313 0
M  V30 3090 H 299.178 4.57908 -3.30121 0
M  V30 3091 N 298.576 1.31904 0.862503 0
M  V30 3092 C 299.508 1.16005 1.97675 0
M  V30 3093 C 300.521 0.0971234 1.6251 0
M  V30 3094 O 301.71 0.345337 1.75128 0
M  V30 3095 C 298.81 0.751791 3.30456 0
M  V30 3096 C 297.983 1.90133 3.93914 0
M  V30 3097 C 297.042 1.4779 5.05019 0
M  V30 3098 O 296.068 2.18872 5.25437 0
M  V30 3099 N 297.27 0.369491 5.79323 0
M  V30 3100 H 300.035 2.11982 2.11857 0
M  V30 3101 H 297.596 1.24337 1.03691 0
M  V30 3102 H 299.588 0.451084 4.02178 0
M  V30 3103 H 298.158 -0.116593 3.12382 0
M  V30 3104 H 297.378 2.36896 3.15078 0
M  V30 3105 H 298.666 2.67111 4.33047 0
M  V30 3106 H 298.064 -0.222299 5.65263 0
M  V30 3107 H 296.621 0.128354 6.51674 0
M  V30 3108 N 300.054 -1.07777 1.14986 0
M  V30 3109 C 301.002 -2.16964 0.838406 0
M  V30 3110 C 301.996 -1.68372 -0.186386 0
M  V30 3111 O 303.202 -1.79951 -0.0418465 0
M  V30 3112 H 299.577 -0.708006 0.253439 0
M  V30 3113 H 301.548 -2.40454 1.76704 0
M  V30 3114 C 300.297 -3.4604 0.339335 0
M  V30 3115 H 299.62 -3.83813 1.11927 0
M  V30 3116 H 301.06 -4.23698 0.160021 0
M  V30 3117 C 299.519 -3.23569 -0.938325 0
M  V30 3118 O 300.049 -3.47752 -2.01077 0
M  V30 3119 N 298.255 -2.77079 -0.876117 0
M  V30 3120 H 297.802 -2.576 -0.00322037 0
M  V30 3121 H 297.76 -2.62422 -1.73153 0
M  V30 3122 N 301.532 -0.945985 -1.26051 0
M  V30 3123 C 302.76 -0.613025 -1.9761 0
M  V30 3124 C 303.175 0.813035 -1.70397 0
M  V30 3125 O 302.532 1.54274 -0.974979 0
M  V30 3126 C 302.583 -0.85159 -3.51326 0
M  V30 3127 O 302.304 -2.22157 -3.77595 0
M  V30 3128 C 303.805 -0.529831 -4.40122 0
M  V30 3129 H 301.025 -0.230593 -0.630133 0
M  V30 3130 H 303.569 -1.268 -1.60443 0
M  V30 3131 H 301.724 -0.243151 -3.86636 0
M  V30 3132 H 302.138 -2.2852 -4.721 0
M  V30 3133 H 303.612 -0.747348 -5.46917 0
M  V30 3134 H 304.089 0.535341 -4.35925 0
M  V30 3135 H 304.695 -1.11721 -4.10364 0
M  V30 3136 N 303.011 1.40521 -0.713556 0
M  V30 3137 C 303.959 2.32549 -0.0485227 0
M  V30 3138 C 304.953 1.51931 0.74922 0
M  V30 3139 O 306.159 1.67745 0.652816 0
M  V30 3140 H 302.534 0.751994 0.00311138 0
M  V30 3141 H 304.505 2.86291 -0.841443 0
M  V30 3142 C 303.254 3.36879 0.860687 0
M  V30 3143 H 302.577 3.98978 0.256246 0
M  V30 3144 H 304.017 4.03772 1.294 0
M  V30 3145 C 302.476 2.72197 1.9852 0
M  V30 3146 O 303.006 2.5837 3.07584 0
M  V30 3147 N 301.212 2.30612 1.76823 0
M  V30 3148 H 300.759 2.42059 0.881217 0
M  V30 3149 H 300.717 1.87672 2.52243 0
M  V30 3150 N 304.489 0.459591 1.5075 0
M  V30 3151 C 305.766 -0.160371 1.94941 0
M  V30 3152 C 306.146 -1.58048 1.39943 0
M  V30 3153 O 305.494 -2.206 0.595629 0
M  V30 3154 C 305.704 -0.115432 3.48809 0
M  V30 3155 C 307.052 -0.310026 4.23467 0
M  V30 3156 O 308.076 -0.192543 3.55679 0
M  V30 3157 O 306.935 -0.546031 5.43765 0
M  V30 3158 H 304.029 -0.117925 0.818549 0
M  V30 3159 H 306.575 0.519169 1.61563 0
M  V30 3160 H 305.347 0.87652 3.81357 0
M  V30 3161 H 304.97 -0.836928 3.88692 0
M  V30 3162 N 305.967 -1.56429 0.191757 0
M  V30 3163 C 307.213 -1.97777 -0.448554 0
M  V30 3164 C 307.546 -1.07847 -1.61501 0
M  V30 3165 O 306.821 -0.129774 -1.94067 0
M  V30 3166 C 307.104 -3.48362 -0.911906 0
M  V30 3167 C 306.957 -4.4907 0.256136 0
M  V30 3168 C 308.276 -4.02561 -1.77857 0
M  V30 3169 H 305.395 -0.719071 -0.161572 0
M  V30 3170 H 308.037 -1.87896 0.282007 0
M  V30 3171 H 306.187 -3.56914 -1.53442 0
M  V30 3172 H 307.859 -4.5256 0.893733 0
M  V30 3173 H 306.102 -4.24181 0.908436 0
M  V30 3174 H 306.773 -5.51889 -0.11053 0
M  V30 3175 H 309.249 -3.96767 -1.25359 0
M  V30 3176 H 308.125 -5.08301 -2.07174 0
M  V30 3177 H 308.386 -3.47616 -2.73158 0
M  V30 3178 N 307.445 0.0818655 -1.57387 0
M  V30 3179 C 308.355 1.11642 -2.06333 0
M  V30 3180 C 309.371 1.43033 -0.99083 0
M  V30 3181 O 310.547 1.53411 -1.30488 0
M  V30 3182 C 307.612 2.41342 -2.48907 0
M  V30 3183 C 306.673 2.17014 -3.7041 0
M  V30 3184 C 305.906 3.4053 -4.10944 0
M  V30 3185 O 306.129 4.4927 -3.51444 0
M  V30 3186 O 305.063 3.29336 -5.03807 0
M  V30 3187 H 308.889 0.730657 -2.9478 0
M  V30 3188 H 306.474 0.295301 -1.46452 0
M  V30 3189 H 308.356 3.17691 -2.76858 0
M  V30 3190 H 307.031 2.79319 -1.63593 0
M  V30 3191 H 305.938 1.38403 -3.47556 0
M  V30 3192 H 307.271 1.83923 -4.56545 0
M  V30 3193 N 308.923 1.53595 0.353017 0
M  V30 3194 C 310.151 1.74311 1.1146 0
M  V30 3195 C 310.566 0.477854 1.82653 0
M  V30 3196 O 309.923 -0.549977 1.74016 0
M  V30 3197 C 309.974 2.91694 2.13534 0
M  V30 3198 O 309.695 4.13325 1.45238 0
M  V30 3199 C 311.196 3.24384 3.02142 0
M  V30 3200 H 308.416 0.582669 0.332773 0
M  V30 3201 H 310.96 2.00386 0.408107 0
M  V30 3202 H 309.115 2.67977 2.79763 0
M  V30 3203 H 309.529 4.79148 2.13349 0
M  V30 3204 H 311.003 4.09893 3.69718 0
M  V30 3205 H 311.48 2.40282 3.67643 0
M  V30 3206 H 312.086 3.50073 2.41514 0
M  V30 3207 N 310.401 -0.613514 1.45168 0
M  V30 3208 C 311.364 -1.7065 1.53007 0
M  V30 3209 C 312.364 -1.5548 0.410184 0
M  V30 3210 O 313.554 -1.60656 0.673455 0
M  V30 3211 C 310.686 -3.09875 1.42093 0
M  V30 3212 H 311.879 -1.65068 2.50385 0
M  V30 3213 H 309.432 -0.828728 1.32521 0
M  V30 3214 H 310.167 -3.21039 0.458769 0
M  V30 3215 H 309.952 -3.22293 2.23315 0
M  V30 3216 H 311.442 -3.895 1.50598 0
M  V30 3217 N 311.879 -1.3236 -0.855495 0
M  V30 3218 C 313.295 -1.11332 -1.14356 0
M  V30 3219 C 313.495 0.106751 -2.01217 0
M  V30 3220 O 312.551 0.791891 -2.39761 0
M  V30 3221 C 313.864 -2.39237 -1.82171 0
M  V30 3222 C 315.412 -2.44986 -1.9481 0
M  V30 3223 C 315.887 -3.7281 -2.66039 0
M  V30 3224 N 317.378 -3.73787 -2.73565 0
M  V30 3225 C 318.113 -4.69394 -3.29327 0
M  V30 3226 N 317.609 -5.75367 -3.85907 0
M  V30 3227 N 319.402 -4.56893 -3.27423 0
M  V30 3228 H 311.553 -2.10586 -0.277027 0
M  V30 3229 H 313.816 -0.929701 -0.185364 0
M  V30 3230 H 313.522 -3.28431 -1.25802 0
M  V30 3231 H 313.396 -2.50134 -2.82335 0
M  V30 3232 H 315.783 -1.56252 -2.50338 0
M  V30 3233 H 315.864 -2.38043 -0.936448 0
M  V30 3234 H 315.508 -4.61918 -2.11174 0
M  V30 3235 H 315.438 -3.77024 -3.67642 0
M  V30 3236 H 317.929 -2.97189 -2.33424 0
M  V30 3237 H 318.242 -6.44378 -4.26611 0
M  V30 3238 H 316.587 -5.79123 -3.84242 0
M  V30 3239 H 319.778 -3.73269 -2.82467 0
M  V30 3240 H 319.951 -5.31577 -3.7058 0
M  V30 3241 N 313.357 1.07166 -1.15556 0
M  V30 3242 C 314.597 1.81391 -0.94216 0
M  V30 3243 C 314.961 1.84788 0.521272 0
M  V30 3244 O 316.162 2.54904 0.85307 0
M  V30 3245 C 314.433 3.22431 -1.54185 0
M  V30 3246 S 315.992 4.13379 -1.47183 0
M  V30 3247 H 312.81 0.624963 -0.339031 0
M  V30 3248 H 315.412 1.28725 -1.4714 0
M  V30 3249 H 314.116 3.17548 -2.59984 0
M  V30 3250 H 313.647 3.80172 -1.01156 0
M  V30 3251 H 315.662 4.94007 -0.466004 0
M  V30 3252 N 314.835 0.952656 1.25548 0
M  V30 3253 C 316.063 0.623496 1.97282 0
M  V30 3254 C 316.478 -0.803987 1.70826 0
M  V30 3255 O 315.835 -1.53755 0.983147 0
M  V30 3256 C 315.886 0.870209 3.5087 0
M  V30 3257 O 315.607 2.24156 3.76412 0
M  V30 3258 C 317.108 0.553164 4.39835 0
M  V30 3259 H 314.328 0.233931 0.628902 0
M  V30 3260 H 316.872 1.27649 1.59768 0
M  V30 3261 H 315.027 0.263652 3.86502 0
M  V30 3262 H 315.441 2.31021 4.70882 0
M  V30 3263 H 316.915 0.776342 5.46513 0
M  V30 3264 H 317.392 -0.512215 4.36203 0
M  V30 3265 H 317.998 1.13896 4.09766 0
M  V30 3266 N 316.313 -1.40141 0.720998 0
M  V30 3267 C 317.276 -2.29058 0.0805834 0
M  V30 3268 C 318.276 -1.45632 -0.681758 0
M  V30 3269 O 319.466 -1.6648 -0.512856 0
M  V30 3270 C 316.598 -3.28925 -0.895593 0
M  V30 3271 H 317.791 -2.87191 0.863793 0
M  V30 3272 H 315.344 -1.48553 0.485975 0
M  V30 3273 H 316.079 -2.75822 -1.70566 0
M  V30 3274 H 315.864 -3.90519 -0.351766 0
M  V30 3275 H 317.354 -3.95494 -1.34069 0
M  V30 3276 N 317.792 -0.46758 -1.50504 0
M  V30 3277 C 319.04 0.0884469 -2.01906 0
M  V30 3278 C 319.361 1.40532 -1.35188 0
M  V30 3279 O 318.631 1.89515 -0.496079 0
M  V30 3280 H 317.211 0.0356765 -0.746148 0
M  V30 3281 H 319.873 -0.6172 -1.84869 0
M  V30 3282 H 318.969 0.2425 -3.11156 0
M  V30 3283 N 319.27 1.56325 -0.20005 0
M  V30 3284 C 320.498 2.02105 0.442874 0
M  V30 3285 C 320.913 1.08014 1.5485 0
M  V30 3286 O 320.27 0.0858797 1.82298 0
M  V30 3287 C 320.321 3.47549 0.994583 0
M  V30 3288 O 320.042 4.38049 -0.0669322 0
M  V30 3289 C 321.543 4.0887 1.7129 0
M  V30 3290 H 318.763 0.661807 0.110691 0
M  V30 3291 H 321.307 2.02134 -0.310207 0
M  V30 3292 H 319.462 3.48204 1.69803 0
M  V30 3293 H 319.876 5.23368 0.344462 0
M  V30 3294 H 321.35 5.12475 2.05118 0
M  V30 3295 H 321.827 3.52615 2.61838 0
M  V30 3296 H 322.433 4.12002 1.05518 0
M  V30 3297 N 320.748 -0.0735177 1.57428 0
M  V30 3298 C 321.678 -1.0879 2.06608 0
M  V30 3299 C 322.659 -1.40473 0.959237 0
M  V30 3300 O 323.844 -1.5013 1.23185 0
M  V30 3301 C 320.974 -2.40183 2.50857 0
M  V30 3302 C 319.928 -2.22858 3.65402 0
M  V30 3303 C 319.254 -3.59619 3.957 0
M  V30 3304 C 320.554 -1.65123 4.95511 0
M  V30 3305 H 322.248 -0.678673 2.91607 0
M  V30 3306 H 319.794 -0.325013 1.40284 0
M  V30 3307 H 321.747 -3.11437 2.83874 0
M  V30 3308 H 320.471 -2.83083 1.62885 0
M  V30 3309 H 319.13 -1.54045 3.32664 0
M  V30 3310 H 318.778 -4.00086 3.04861 0
M  V30 3311 H 318.478 -3.48866 4.72828 0
M  V30 3312 H 320.002 -4.32306 4.31212 0
M  V30 3313 H 321.416 -2.26241 5.26771 0
M  V30 3314 H 319.813 -1.65071 5.7695 0
M  V30 3315 H 320.883 -0.612559 4.81015 0
M  V30 3316 N 322.226 -1.5378 -0.344866 0
M  V30 3317 C 323.176 -1.78057 -1.42407 0
M  V30 3318 C 324.16 -0.635732 -1.47808 0
M  V30 3319 O 325.352 -0.89508 -1.527 0
M  V30 3320 C 322.481 -1.99242 -2.79566 0
M  V30 3321 C 321.567 -3.19787 -2.78562 0
M  V30 3322 N 321.958 -4.41284 -2.47189 0
M  V30 3323 C 320.256 -3.2093 -3.0971 0
M  V30 3324 C 320.957 -5.23128 -2.54385 0
M  V30 3325 N 319.933 -4.59813 -2.89953 0
M  V30 3326 H 323.735 -2.69588 -1.17046 0
M  V30 3327 H 321.249 -1.52687 -0.553217 0
M  V30 3328 H 323.246 -2.14768 -3.57324 0
M  V30 3329 H 321.906 -1.08953 -3.05875 0
M  V30 3330 H 322.917 -4.68657 -2.20411 0
M  V30 3331 H 319.594 -2.40603 -3.41199 0
M  V30 3332 H 320.984 -6.30096 -2.333 0
M  V30 3333 N 323.704 0.605807 -1.45491 0
M  V30 3334 C 324.652 1.73754 -1.54636 0
M  V30 3335 C 325.646 1.64207 -0.416219 0
M  V30 3336 O 326.852 1.69979 -0.592199 0
M  V30 3337 H 323.227 0.574073 -0.485741 0
M  V30 3338 H 325.198 1.63169 -2.49837 0
M  V30 3339 C 323.947 3.12135 -1.53189 0
M  V30 3340 H 323.27 3.20141 -2.39478 0
M  V30 3341 H 324.71 3.91147 -1.63645 0
M  V30 3342 C 323.169 3.35921 -0.256616 0
M  V30 3343 O 323.699 3.96194 0.662798 0
M  V30 3344 N 321.905 2.90204 -0.151751 0
M  V30 3345 H 321.452 2.41336 -0.90081 0
M  V30 3346 H 321.41 3.06492 0.700699 0
M  V30 3347 N 325.182 1.32811 0.848464 0
M  V30 3348 C 326.112 1.24882 1.97299 0
M  V30 3349 C 327.093 0.131357 1.69592 0
M  V30 3350 O 328.278 0.319553 1.91553 0
M  V30 3351 C 325.408 0.97746 3.33261 0
M  V30 3352 C 324.362 2.05682 3.75338 0
M  V30 3353 C 323.688 1.63777 5.09 0
M  V30 3354 C 324.988 3.47254 3.90144 0
M  V30 3355 H 326.682 2.18966 2.04191 0
M  V30 3356 H 324.228 1.05413 0.981029 0
M  V30 3357 H 326.181 0.908513 4.1149 0
M  V30 3358 H 324.905 0.000980011 3.266 0
M  V30 3359 H 323.564 2.11603 2.99366 0
M  V30 3360 H 323.212 0.648569 4.98801 0
M  V30 3361 H 322.912 2.36 5.38124 0
M  V30 3362 H 324.436 1.5833 5.89715 0
M  V30 3363 H 325.85 3.43888 4.58709 0
M  V30 3364 H 324.247 4.1788 4.30693 0
M  V30 3365 H 325.317 3.86462 2.92874 0
M  V30 3366 N 326.66 -1.06551 1.16123 0
M  V30 3367 C 327.885 -1.83544 0.965735 0
M  V30 3368 C 328.31 -1.81843 -0.481102 0
M  V30 3369 O 327.668 -1.21732 -1.34354 0
M  V30 3370 C 327.716 -3.28169 1.49457 0
M  V30 3371 O 326.82 -4.0643 0.699157 0
M  V30 3372 H 326.161 -0.568026 0.343864 0
M  V30 3373 H 328.691 -1.34362 1.54299 0
M  V30 3374 H 328.701 -3.78992 1.51092 0
M  V30 3375 H 327.376 -3.28722 2.54784 0
M  V30 3376 H 325.953 -3.65216 0.7531 0
M  V30 3377 N 328.138 -0.959301 -1.25041 0
M  V30 3378 C 329.088 -0.453888 -2.23436 0
M  V30 3379 C 330.072 0.459461 -1.542 0
M  V30 3380 O 331.264 0.291752 -1.74579 0
M  V30 3381 C 328.393 0.262667 -3.42294 0
M  V30 3382 C 327.479 -0.669022 -4.1879 0
M  V30 3383 N 327.87 -1.80267 -4.72586 0
M  V30 3384 C 326.168 -0.47814 -4.4343 0
M  V30 3385 C 326.869 -2.38475 -5.3057 0
M  V30 3386 N 325.845 -1.67078 -5.17287 0
M  V30 3387 H 329.647 -1.319 -2.6264 0
M  V30 3388 H 327.161 -0.817358 -1.40332 0
M  V30 3389 H 329.158 0.641911 -4.11929 0
M  V30 3390 H 327.818 1.12432 -3.04613 0
M  V30 3391 H 328.829 -2.18442 -4.69578 0
M  V30 3392 H 325.506 0.340249 -4.16111 0
M  V30 3393 H 326.896 -3.34094 -5.8295 0
M  V30 3394 N 329.616 1.39756 -0.72842 0
M  V30 3395 C 330.566 2.2792 -0.0603424 0
M  V30 3396 C 331.55 1.43922 0.719399 0
M  V30 3397 O 332.742 1.66895 0.589489 0
M  V30 3398 C 329.871 3.32582 0.851104 0
M  V30 3399 C 328.957 4.24049 0.0658641 0
M  V30 3400 N 329.348 4.96653 -0.957578 0
M  V30 3401 C 327.646 4.45013 0.296509 0
M  V30 3402 C 328.347 5.63836 -1.43052 0
M  V30 3403 N 327.323 5.38397 -0.750315 0
M  V30 3404 H 331.125 2.81504 -0.84455 0
M  V30 3405 H 328.639 1.5236 -0.562155 0
M  V30 3406 H 330.636 3.94603 1.34514 0
M  V30 3407 H 329.296 2.80558 1.63454 0
M  V30 3408 H 330.307 5.00297 -1.33877 0
M  V30 3409 H 326.984 4.03943 1.05527 0
M  V30 3410 H 328.374 6.31974 -2.28163 0
M  V30 3411 N 331.094 0.475555 1.50254 0
M  V30 3412 C 332.51 0.12997 1.5907 0
M  V30 3413 C 332.71 -1.36385 1.48328 0
M  V30 3414 O 331.766 -2.13754 1.34407 0
M  V30 3415 C 333.079 0.684139 2.92814 0
M  V30 3416 C 334.627 0.647965 3.0622 0
M  V30 3417 C 335.102 1.17975 4.42545 0
M  V30 3418 N 336.593 1.13936 4.48969 0
M  V30 3419 C 337.328 1.52129 5.52851 0
M  V30 3420 N 336.824 1.97793 6.63965 0
M  V30 3421 N 338.617 1.43704 5.4342 0
M  V30 3422 H 330.768 1.44706 1.55479 0
M  V30 3423 H 333.031 0.598691 0.735033 0
M  V30 3424 H 332.737 1.73079 3.06164 0
M  V30 3425 H 332.611 0.130204 3.76975 0
M  V30 3426 H 334.998 -0.38979 2.92514 0
M  V30 3427 H 335.079 1.23876 2.23805 0
M  V30 3428 H 334.723 2.21616 4.57 0
M  V30 3429 H 334.653 0.565138 5.23559 0
M  V30 3430 H 337.144 0.804488 3.69238 0
M  V30 3431 H 337.457 2.25072 7.39299 0
M  V30 3432 H 335.802 2.01749 6.65073 0
M  V30 3433 H 338.993 1.07867 4.55502 0
M  V30 3434 H 339.166 1.73794 6.24259 0
M  V30 3435 N 332.573 -1.56217 0.208337 0
M  V30 3436 C 333.483 -2.23316 -0.718836 0
M  V30 3437 C 334.499 -1.23648 -1.22422 0
M  V30 3438 O 335.675 -1.56423 -1.26861 0
M  V30 3439 C 332.74 -2.88968 -1.91568 0
M  V30 3440 C 331.801 -4.03943 -1.45357 0
M  V30 3441 C 331.034 -4.66455 -2.59337 0
M  V30 3442 O 331.257 -4.27919 -3.77149 0
M  V30 3443 O 330.191 -5.55686 -2.31293 0
M  V30 3444 H 334.017 -3.03182 -0.177315 0
M  V30 3445 H 331.602 -1.49384 -0.0215402 0
M  V30 3446 H 333.484 -3.30455 -2.61491 0
M  V30 3447 H 332.159 -2.12071 -2.44556 0
M  V30 3448 H 331.066 -3.67052 -0.722746 0
M  V30 3449 H 332.399 -4.82543 -0.970219 0
M  V30 3450 N 334.051 0.0651679 -1.57465 0
M  V30 3451 C 335.299 0.761555 -1.87202 0
M  V30 3452 C 335.62 1.77778 -0.801243 0
M  V30 3453 O 334.89 1.95166 0.16937 0
M  V30 3454 H 333.47 0.284251 -0.690804 0
M  V30 3455 H 336.132 0.0396827 -1.9486 0
M  V30 3456 H 335.228 1.27365 -2.84929 0
M  V30 3457 N 335.529 1.53961 0.336706 0
M  V30 3458 C 336.459 1.85417 1.41925 0
M  V30 3459 C 337.44 0.709856 1.5458 0
M  V30 3460 O 338.625 0.962396 1.68676 0
M  V30 3461 C 335.755 2.06985 2.78881 0
M  V30 3462 C 334.709 3.22813 2.81026 0
M  V30 3463 C 334.035 3.29727 4.20932 0
M  V30 3464 C 335.335 4.60767 2.45949 0
M  V30 3465 H 337.029 2.76079 1.15848 0
M  V30 3466 H 334.575 1.32839 0.555859 0
M  V30 3467 H 336.528 2.27575 3.54665 0
M  V30 3468 H 335.252 1.13061 3.06406 0
M  V30 3469 H 333.911 3.0209 2.07695 0
M  V30 3470 H 333.559 2.33385 4.45579 0
M  V30 3471 H 333.259 4.07566 4.23277 0
M  V30 3472 H 334.783 3.52536 4.98549 0
M  V30 3473 H 336.197 4.81325 3.11446 0
M  V30 3474 H 334.594 5.4106 2.59566 0
M  V30 3475 H 335.664 4.6391 1.41122 0
M  V30 3476 N 337.007 -0.598083 1.45811 0
M  V30 3477 C 337.937 -1.71873 1.58057 0
M  V30 3478 C 338.918 -1.64533 0.431615 0
M  V30 3479 O 340.103 -1.82787 0.65595 0
M  V30 3480 C 337.233 -3.10495 1.55597 0
M  V30 3481 C 336.187 -3.32654 2.69305 0
M  V30 3482 C 335.513 -4.71646 2.51902 0
M  V30 3483 C 336.813 -3.21981 4.11248 0
M  V30 3484 H 338.507 -1.61881 2.51863 0
M  V30 3485 H 336.053 -0.777372 1.21214 0
M  V30 3486 H 338.006 -3.88699 1.6276 0
M  V30 3487 H 336.73 -3.2135 0.583255 0
M  V30 3488 H 335.389 -2.56843 2.61586 0
M  V30 3489 H 335.037 -4.79246 1.52748 0
M  V30 3490 H 334.737 -4.87426 3.2816 0
M  V30 3491 H 336.261 -5.52038 2.60933 0
M  V30 3492 H 337.675 -3.90049 4.20161 0
M  V30 3493 H 336.072 -3.49289 4.87972 0
M  V30 3494 H 337.142 -2.1928 4.32486 0
M  V30 3495 N 338.485 -1.33259 -0.841409 0
M  V30 3496 C 339.448 -1.23221 -1.9326 0
M  V30 3497 C 340.448 -0.151895 -1.60081 0
M  V30 3498 O 341.638 -0.403246 -1.69468 0
M  V30 3499 C 338.77 -0.898123 -3.28856 0
M  V30 3500 H 339.963 -2.2021 -2.03587 0
M  V30 3501 H 337.516 -1.17281 -1.03319 0
M  V30 3502 H 338.251 0.0693841 -3.24226 0
M  V30 3503 H 338.036 -1.67934 -3.54317 0
M  V30 3504 H 339.526 -0.852563 -4.08805 0
M  V30 3505 N 339.963 1.05934 -1.16686 0
M  V30 3506 C 341.212 1.78188 -0.945085 0
M  V30 3507 C 341.525 1.88338 0.528021 0
M  V30 3508 O 342.731 2.57258 0.867799 0
M  V30 3509 C 341.187 3.20277 -1.64167 0
M  V30 3510 C 340.795 3.18281 -3.15279 0
M  V30 3511 C 342.539 3.97039 -1.502 0
M  V30 3512 C 340.446 4.55112 -3.7766 0
M  V30 3513 H 339.376 0.667866 -0.349959 0
M  V30 3514 H 342.027 1.18794 -1.39858 0
M  V30 3515 H 340.409 3.79952 -1.11589 0
M  V30 3516 H 341.583 2.68167 -3.74731 0
M  V30 3517 H 339.898 2.55018 -3.29173 0
M  V30 3518 H 342.495 4.98194 -1.94183 0
M  V30 3519 H 342.838 4.13845 -0.451461 0
M  V30 3520 H 343.371 3.43894 -1.99954 0
M  V30 3521 H 340.11 4.43512 -4.82677 0
M  V30 3522 H 339.63 5.05406 -3.22994 0
M  V30 3523 H 341.309 5.24064 -3.79428 0
M  V30 3524 N 341.441 0.965919 1.2453 0
M  V30 3525 C 342.688 0.626831 1.92554 0
M  V30 3526 C 343.016 -0.837739 1.75534 0
M  V30 3527 O 342.271 -1.61793 1.10098 0
M  V30 3528 C 342.57 0.945428 3.44669 0
M  V30 3529 C 342.236 2.39785 3.81856 0
M  V30 3530 C 340.898 2.79483 3.91718 0
M  V30 3531 C 343.25 3.34055 4.00071 0
M  V30 3532 C 340.578 4.12496 4.1721 0
M  V30 3533 C 342.93 4.66694 4.27059 0
M  V30 3534 C 341.594 5.06172 4.3514 0
M  V30 3535 H 340.864 0.229374 0.704605 0
M  V30 3536 H 343.511 1.21707 1.4785 0
M  V30 3537 H 341.816 0.272926 3.90848 0
M  V30 3538 H 343.513 0.661484 3.95507 0
M  V30 3539 H 340.103 2.08003 3.74743 0
M  V30 3540 H 344.287 3.04571 3.91855 0
M  V30 3541 H 339.543 4.42709 4.21685 0
M  V30 3542 H 343.717 5.3971 4.40097 0
M  V30 3543 H 341.344 6.09262 4.54646 0
M  V30 3544 N 342.919 -1.39368 0.735821 0
M  V30 3545 C 343.866 -2.30599 0.0963825 0
M  V30 3546 C 344.836 -1.49257 -0.728794 0
M  V30 3547 O 346.021 -1.77941 -0.688588 0
M  V30 3548 C 343.161 -3.35596 -0.804305 0
M  V30 3549 C 342.274 -4.31987 0.0335761 0
M  V30 3550 C 341.409 -5.24053 -0.868461 0
M  V30 3551 C 340.448 -6.12095 -0.0258776 0
M  V30 3552 N 339.585 -6.96514 -0.883893 0
M  V30 3553 H 344.425 -2.8471 0.880002 0
M  V30 3554 H 341.962 -1.40188 0.445619 0
M  V30 3555 H 343.92 -3.95062 -1.34096 0
M  V30 3556 H 342.55 -2.82938 -1.55389 0
M  V30 3557 H 341.602 -3.74133 0.68766 0
M  V30 3558 H 342.914 -4.94074 0.685036 0
M  V30 3559 H 342.068 -5.88549 -1.47293 0
M  V30 3560 H 340.807 -4.62289 -1.5537 0
M  V30 3561 H 339.812 -5.4661 0.591386 0
M  V30 3562 H 341.037 -6.75923 0.656156 0
M  V30 3563 H 338.983 -6.37318 -1.55441 0
M  V30 3564 H 338.9 -7.55448 -0.288931 0
M  V30 3565 H 340.168 -7.65439 -1.4739 0
M  V30 3566 N 344.397 -0.483516 -1.5 0
M  V30 3567 C 345.622 0.0667119 -2.07293 0
M  V30 3568 C 346.047 1.3164 -1.3436 0
M  V30 3569 O 345.405 1.76945 -0.394987 0
M  V30 3570 C 345.453 0.321126 -3.59167 0
M  V30 3571 O 344.557 1.39927 -3.87936 0
M  V30 3572 H 343.898 -0.0184758 -0.663743 0
M  V30 3573 H 346.428 -0.678125 -1.93035 0
M  V30 3574 H 346.438 0.557906 -4.04168 0
M  V30 3575 H 345.113 -0.592007 -4.11665 0
M  V30 3576 H 343.69 1.14882 -3.54763 0
M  V30 3577 N 345.875 1.56104 -0.216619 0
M  V30 3578 C 347.123 1.97781 0.415593 0
M  V30 3579 C 347.444 1.10536 1.60645 0
M  V30 3580 O 346.714 0.181303 1.95059 0
M  V30 3581 H 345.294 0.730415 0.156534 0
M  V30 3582 H 347.956 1.92445 -0.308366 0
M  V30 3583 H 347.052 3.03072 0.74525 0
M  V30 3584 N 347.353 -0.0568162 1.57498 0
M  V30 3585 C 348.601 -0.751617 1.87604 0
M  V30 3586 C 348.922 -1.77351 0.81066 0
M  V30 3587 O 348.192 -1.95254 -0.159018 0
M  V30 3588 H 346.772 -0.280583 0.692302 0
M  V30 3589 H 349.434 -0.0293483 1.94878 0
M  V30 3590 H 348.53 -1.25852 2.856 0
M  V30 3591 N 348.832 -1.54138 -0.328536 0
M  V30 3592 C 350.081 -1.71318 -1.06456 0
M  V30 3593 C 350.394 -0.491109 -1.89334 0
M  V30 3594 O 351.6 -0.54416 -2.65991 0
M  V30 3595 C 350.056 -3.03 -1.94214 0
M  V30 3596 C 349.664 -4.32595 -1.16471 0
M  V30 3597 C 351.408 -3.29544 -2.67583 0
M  V30 3598 C 349.315 -5.55341 -2.03347 0
M  V30 3599 H 348.245 -0.638429 -0.401155 0
M  V30 3600 H 350.896 -1.80633 -0.323106 0
M  V30 3601 H 349.278 -2.87579 -2.72239 0
M  V30 3602 H 350.452 -4.58766 -0.432525 0
M  V30 3603 H 348.767 -4.12777 -0.548063 0
M  V30 3604 H 351.364 -4.18444 -3.3288 0
M  V30 3605 H 351.707 -2.47206 -3.34955 0
M  V30 3606 H 352.24 -3.45809 -1.96623 0
M  V30 3607 H 348.979 -6.40268 -1.40491 0
M  V30 3608 H 348.499 -5.33397 -2.74313 0
M  V30 3609 H 350.178 -5.91557 -2.62049 0
M  V30 3610 N 350.31 0.590341 -1.46126 0
M  V30 3611 C 351.721 1.17243 -1.45296 0
M  V30 3612 C 352.072 1.95281 -0.189723 0
M  V30 3613 O 351.197 2.04502 0.707674 0
M  V30 3614 C 351.792 2.13284 -2.6324 0
M  V30 3615 C 350.351 2.66832 -2.65476 0
M  V30 3616 C 349.498 1.42557 -2.3785 0
M  V30 3617 H 352.449 0.378692 -1.54116 0
M  V30 3618 H 352.47 2.96619 -2.38323 0
M  V30 3619 H 351.982 1.56459 -3.55165 0
M  V30 3620 H 350.083 3.27548 -1.77603 0
M  V30 3621 H 350.196 3.10088 -3.65215 0
M  V30 3622 H 348.56 1.72107 -1.87753 0
M  V30 3623 H 349.343 0.875741 -3.31942 0
M  V30 3624 N 351.788 1.33704 0.83433 0
M  V30 3625 C 352.751 1.24244 1.92603 0
M  V30 3626 C 353.751 0.160383 1.59998 0
M  V30 3627 O 354.941 0.412228 1.69252 0
M  V30 3628 C 352.073 0.91555 3.28376 0
M  V30 3629 H 353.266 2.21287 2.02416 0
M  V30 3630 H 350.819 1.17827 1.02696 0
M  V30 3631 H 351.554 -0.0521886 3.24258 0
M  V30 3632 H 351.339 1.69811 3.53422 0
M  V30 3633 H 352.829 0.874231 4.08347 0
M  V30 3634 N 353.266 -1.05314 1.17247 0
M  V30 3635 C 354.196 -2.1498 0.911362 0
M  V30 3636 C 355.177 -1.69471 -0.146169 0
M  V30 3637 O 356.362 -1.942 0.003812 0
M  V30 3638 C 353.492 -3.4472 0.422528 0
M  V30 3639 C 352.446 -4.03789 1.4191 0
M  V30 3640 C 351.772 -5.28858 0.788274 0
M  V30 3641 C 353.072 -4.41418 2.7919 0
M  V30 3642 H 354.766 -2.3708 1.82848 0
M  V30 3643 H 352.312 -1.13938 0.880569 0
M  V30 3644 H 354.265 -4.20787 0.227289 0
M  V30 3645 H 352.989 -3.22269 -0.530123 0
M  V30 3646 H 351.648 -3.2979 1.60106 0
M  V30 3647 H 351.296 -5.02709 -0.171173 0
M  V30 3648 H 350.996 -5.69338 1.45353 0
M  V30 3649 H 352.52 -6.07612 0.603282 0
M  V30 3650 H 353.934 -5.08524 2.64719 0
M  V30 3651 H 352.331 -4.92913 3.42282 0
M  V30 3652 H 353.401 -3.51819 3.33693 0
M  V30 3653 N 354.744 -0.972509 -1.24016 0
M  V30 3654 C 355.99 -0.637978 -1.92504 0
M  V30 3655 C 356.323 0.825383 -1.75787 0
M  V30 3656 O 355.598 1.59442 -1.11393 0
M  V30 3657 C 355.881 -1.01942 -3.45369 0
M  V30 3658 C 355.734 -2.53983 -3.71231 0
M  V30 3659 C 357.053 -0.55751 -4.36555 0
M  V30 3660 H 354.172 -0.233248 -0.699117 0
M  V30 3661 H 356.814 -1.21238 -1.46292 0
M  V30 3662 H 354.964 -0.530656 -3.84859 0
M  V30 3663 H 356.636 -3.10374 -3.41271 0
M  V30 3664 H 354.879 -2.96968 -3.16216 0
M  V30 3665 H 355.55 -2.75723 -4.78206 0
M  V30 3666 H 358.026 -0.977029 -4.04467 0
M  V30 3667 H 356.902 -0.85292 -5.42233 0
M  V30 3668 H 357.163 0.542328 -4.38761 0
M  V30 3669 N 356.222 1.38976 -0.743202 0
M  V30 3670 C 357.169 2.30544 -0.10861 0
M  V30 3671 C 358.139 1.49642 0.720869 0
M  V30 3672 O 359.324 1.78304 0.679142 0
M  V30 3673 C 356.464 3.36018 0.786496 0
M  V30 3674 C 355.577 4.31963 -0.0564849 0
M  V30 3675 C 354.712 5.24506 0.840657 0
M  V30 3676 C 353.751 6.121 -0.00658363 0
M  V30 3677 N 352.888 6.96973 0.846943 0
M  V30 3678 H 357.728 2.8424 -0.895088 0
M  V30 3679 H 355.265 1.3995 -0.453048 0
M  V30 3680 H 357.223 3.95768 1.31999 0
M  V30 3681 H 355.853 2.83758 1.53887 0
M  V30 3682 H 354.905 3.73763 -0.707492 0
M  V30 3683 H 356.217 4.93703 -0.711229 0
M  V30 3684 H 355.371 5.89322 1.4417 0
M  V30 3685 H 354.11 4.63107 1.52916 0
M  V30 3686 H 353.115 5.46289 -0.620366 0
M  V30 3687 H 354.34 6.75565 -0.691992 0
M  V30 3688 H 352.286 6.38133 1.52059 0
M  V30 3689 H 352.203 7.5559 0.248864 0
M  V30 3690 H 353.471 7.6621 1.43328 0
M  V30 3691 N 357.7 0.491464 1.49741 0
M  V30 3692 C 358.633 -0.338464 2.25676 0
M  V30 3693 C 359.611 -0.978676 1.29849 0
M  V30 3694 O 360.795 -1.01064 1.59117 0
M  V30 3695 C 357.922 -1.47588 3.04853 0
M  V30 3696 C 356.968 -0.951 4.15762 0
M  V30 3697 S 357.801 0.150626 5.35288 0
M  V30 3698 C 358.957 -0.990178 6.18018 0
M  V30 3699 H 359.19 0.306068 2.9572 0
M  V30 3700 H 356.723 0.276622 1.51902 0
M  V30 3701 H 358.681 -2.12764 3.51058 0
M  V30 3702 H 357.342 -2.09199 2.34296 0
M  V30 3703 H 356.535 -1.80311 4.70642 0
M  V30 3704 H 356.137 -0.376607 3.72099 0
M  V30 3705 H 358.429 -1.89748 6.50386 0
M  V30 3706 H 359.372 -0.480205 7.0647 0
M  V30 3707 H 359.78 -1.25321 5.50413 0
M  V30 3708 N 359.178 -1.55987 0.224894 0
M  V30 3709 C 360.108 -2.23426 -0.678457 0
M  V30 3710 C 361.089 -1.20709 -1.19847 0
M  V30 3711 O 362.274 -1.49304 -1.24186 0
M  V30 3712 C 359.404 -2.91676 -1.88527 0
M  V30 3713 C 358.358 -4.00893 -1.49896 0
M  V30 3714 C 357.684 -4.56455 -2.78483 0
M  V30 3715 C 358.984 -5.17769 -0.686461 0
M  V30 3716 H 360.678 -2.99175 -0.116173 0
M  V30 3717 H 358.224 -1.43897 -0.054436 0
M  V30 3718 H 360.177 -3.37547 -2.5227 0
M  V30 3719 H 358.901 -2.1338 -2.47258 0
M  V30 3720 H 357.56 -3.55758 -0.884985 0
M  V30 3721 H 357.208 -3.74886 -3.35365 0
M  V30 3722 H 356.908 -5.30169 -2.53368 0
M  V30 3723 H 358.432 -5.05047 -3.43162 0
M  V30 3724 H 359.846 -5.60001 -1.22767 0
M  V30 3725 H 358.243 -5.97735 -0.532259 0
M  V30 3726 H 359.313 -4.83932 0.306196 0
M  V30 3727 N 360.656 0.0484629 -1.57525 0
M  V30 3728 C 361.904 0.741657 -1.88 0
M  V30 3729 C 362.225 1.76918 -0.820054 0
M  V30 3730 O 361.495 1.95335 0.148661 0
M  V30 3731 H 360.075 0.276908 -0.69378 0
M  V30 3732 H 362.737 0.019013 -1.94891 0
M  V30 3733 H 361.833 1.24336 -2.86264 0
M  V30 3734 N 362.134 1.5431 0.320358 0
M  V30 3735 C 363.359 1.76954 1.08175 0
M  V30 3736 C 363.784 0.518193 1.80821 0
M  V30 3737 O 363.142 -0.530411 1.73368 0
M  V30 3738 C 363.19 2.96451 2.05303 0
M  V30 3739 O 362.294 2.68221 3.13259 0
M  V30 3740 H 361.635 0.586275 0.311733 0
M  V30 3741 H 364.165 2.01342 0.363676 0
M  V30 3742 H 364.175 3.23887 2.48116 0
M  V30 3743 H 362.85 3.87196 1.51829 0
M  V30 3744 H 361.427 2.51744 2.75099 0
M  V30 3745 N 363.613 -0.582584 1.46437 0
M  V30 3746 C 365.024 -1.1647 1.45916 0
M  V30 3747 C 365.375 -1.95177 0.200077 0
M  V30 3748 O 364.5 -2.04874 -0.696819 0
M  V30 3749 C 365.095 -2.11885 2.64367 0
M  V30 3750 C 363.654 -2.65421 2.66887 0
M  V30 3751 C 362.801 -1.41294 2.38603 0
M  V30 3752 H 365.752 -0.370514 1.54314 0
M  V30 3753 H 365.773 -2.9535 2.39892 0
M  V30 3754 H 365.285 -1.54573 3.5599 0
M  V30 3755 H 363.386 -3.26602 1.79338 0
M  V30 3756 H 363.499 -3.08147 3.66854 0
M  V30 3757 H 361.863 -1.71109 1.88663 0
M  V30 3758 H 362.646 -0.858125 3.32402 0
M  V30 3759 N 365.091 -1.34144 -0.827227 0
M  V30 3760 C 366.337 -1.26446 -1.58554 0
M  V30 3761 C 366.67 0.1664 -1.93486 0
M  V30 3762 O 365.945 1.1107 -1.59667 0
M  V30 3763 C 366.228 -2.15111 -2.8879 0
M  V30 3764 C 366.081 -3.66712 -2.60465 0
M  V30 3765 C 367.4 -2.03311 -3.90324 0
M  V30 3766 H 364.519 -0.46067 -0.575284 0
M  V30 3767 H 367.161 -1.64356 -0.953269 0
M  V30 3768 H 365.311 -1.8291 -3.42748 0
M  V30 3769 H 366.983 -4.09259 -2.1285 0
M  V30 3770 H 365.226 -3.88014 -1.93978 0
M  V30 3771 H 365.897 -4.24112 -3.53317 0
M  V30 3772 H 368.373 -2.31574 -3.45706 0
M  V30 3773 H 367.249 -2.67582 -4.79261 0
M  V30 3774 H 367.51 -1.00879 -4.30437 0
M  V30 3775 N 366.569 1.04691 -1.17803 0
M  V30 3776 C 367.846 1.7472 -0.879328 0
M  V30 3777 C 368.226 2.01812 0.619271 0
M  V30 3778 O 367.574 1.65824 1.57209 0
M  V30 3779 C 367.784 3.03686 -1.71976 0
M  V30 3780 C 369.132 3.77542 -1.94286 0
M  V30 3781 O 370.156 3.13569 -1.68976 0
M  V30 3782 O 369.015 4.92506 -2.36855 0
M  V30 3783 H 366.109 0.760011 -0.326056 0
M  V30 3784 H 368.655 1.10813 -1.28525 0
M  V30 3785 H 367.427 2.79754 -2.73594 0
M  V30 3786 H 367.05 3.75332 -1.31194 0
M  V30 3787 N 368.047 0.979072 1.23499 0
M  V30 3788 C 369.272 0.664845 1.96455 0
M  V30 3789 C 369.697 -0.761287 1.72006 0
M  V30 3790 O 369.055 -1.51837 0.990713 0
M  V30 3791 C 369.103 0.959479 3.47601 0
M  V30 3792 O 368.207 0.0508168 4.12369 0
M  V30 3793 H 367.548 0.250185 0.615064 0
M  V30 3794 H 370.078 1.31231 1.5697 0
M  V30 3795 H 370.088 0.895642 3.98048 0
M  V30 3796 H 368.763 1.99876 3.64723 0
M  V30 3797 H 367.34 0.16895 3.72517 0
M  V30 3798 N 369.525 -1.3858 0.750561 0
M  V30 3799 C 370.771 -2.00481 0.305825 0
M  V30 3800 C 371.104 -1.5944 -1.10872 0
M  V30 3801 O 370.379 -0.83052 -1.75877 0
M  V30 3802 C 370.662 -3.5758 0.425287 0
M  V30 3803 C 370.515 -4.08594 1.88072 0
M  V30 3804 C 371.834 -4.39719 -0.183122 0
M  V30 3805 H 368.953 -0.728348 0.112598 0
M  V30 3806 H 371.595 -1.64566 0.949638 0
M  V30 3807 H 369.745 -3.88306 -0.122828 0
M  V30 3808 H 371.417 -3.88523 2.48691 0
M  V30 3809 H 369.66 -3.61574 2.39681 0
M  V30 3810 H 370.331 -5.177 1.91548 0
M  V30 3811 H 372.807 -4.15128 0.284303 0
M  V30 3812 H 371.683 -5.48856 -0.0692757 0
M  V30 3813 H 371.944 -4.23434 -1.27106 0
M  V30 3814 N 371.003 -0.499398 -1.49478 0
M  V30 3815 C 371.933 0.269244 -2.31943 0
M  V30 3816 C 372.914 0.964054 -1.40143 0
M  V30 3817 O 374.099 0.955767 -1.69052 0
M  V30 3818 C 371.229 1.33504 -3.20615 0
M  V30 3819 C 370.183 0.760202 -4.21195 0
M  V30 3820 C 369.509 1.9264 -4.98792 0
M  V30 3821 C 370.809 -0.247661 -5.21712 0
M  V30 3822 H 372.503 -0.419082 -2.96452 0
M  V30 3823 H 370.049 -0.202988 -1.42562 0
M  V30 3824 H 372.002 1.88048 -3.77115 0
M  V30 3825 H 370.726 2.05253 -2.54045 0
M  V30 3826 H 369.385 0.23653 -3.65836 0
M  V30 3827 H 369.033 2.63154 -4.28671 0
M  V30 3828 H 368.733 1.54785 -5.66847 0
M  V30 3829 H 370.257 2.4762 -5.58137 0
M  V30 3830 H 371.671 0.209579 -5.72917 0
M  V30 3831 H 370.068 -0.541962 -5.97648 0
M  V30 3832 H 371.138 -1.16409 -4.7072 0
M  V30 3833 N 372.481 1.55866 -0.233164 0
M  V30 3834 C 373.728 1.98603 0.395374 0
M  V30 3835 C 374.056 1.12105 1.58942 0
M  V30 3836 O 373.311 0.168656 1.94972 0
M  V30 3837 C 373.61 3.46856 0.861724 0
M  V30 3838 C 373.276 4.50348 -0.223066 0
M  V30 3839 C 371.938 4.78371 -0.521038 0
M  V30 3840 C 374.29 5.12355 -0.956124 0
M  V30 3841 C 371.618 5.6568 -1.55638 0
M  V30 3842 C 373.97 6.00786 -1.98089 0
M  V30 3843 C 372.634 6.27148 -2.28565 0
M  V30 3844 H 371.904 0.726739 0.144677 0
M  V30 3845 H 374.551 1.88491 -0.338114 0
M  V30 3846 H 372.856 3.5423 1.67418 0
M  V30 3847 H 374.553 3.77302 1.35809 0
M  V30 3848 H 371.143 4.28596 0.0193234 0
M  V30 3849 H 375.327 4.90765 -0.739166 0
M  V30 3850 H 370.583 5.84365 -1.798 0
M  V30 3851 H 374.757 6.4788 -2.55391 0
M  V30 3852 H 372.384 6.94597 -3.08932 0
M  V30 3853 N 373.959 -0.0401083 1.57549 0
M  V30 3854 C 375.189 -0.744115 1.92734 0
M  V30 3855 C 375.597 -1.70005 0.830348 0
M  V30 3856 O 374.94 -1.82576 -0.20286 0
M  V30 3857 C 375.002 -1.56516 3.2364 0
M  V30 3858 C 374.666 -0.7752 4.50377 0
M  V30 3859 C 375.663 -0.0803326 5.19838 0
M  V30 3860 C 373.348 -0.733002 4.96923 0
M  V30 3861 C 375.342 0.646154 6.34116 0
M  V30 3862 C 373.029 -0.00276321 6.111 0
M  V30 3863 C 374.027 0.685585 6.7955 0
M  V30 3864 O 373.715 1.40399 7.91545 0
M  V30 3865 H 373.447 -0.214861 0.640945 0
M  V30 3866 H 376.001 -0.00503675 2.05399 0
M  V30 3867 H 374.231 -2.3478 3.07271 0
M  V30 3868 H 375.92 -2.15076 3.44234 0
M  V30 3869 H 376.686 -0.104035 4.84888 0
M  V30 3870 H 372.565 -1.25827 4.43496 0
M  V30 3871 H 376.109 1.18398 6.87479 0
M  V30 3872 H 372.006 0.0229012 6.45496 0
M  V30 3873 H 372.774 1.31653 8.07843 0
M  V30 3874 N 375.437 -1.54477 -0.31217 0
M  V30 3875 C 376.4 -1.83923 -1.36766 0
M  V30 3876 C 377.4 -0.711563 -1.44199 0
M  V30 3877 O 378.59 -0.979866 -1.44029 0
M  V30 3878 C 375.722 -2.0095 -2.75376 0
M  V30 3879 H 376.915 -2.78239 -1.11906 0
M  V30 3880 H 374.468 -1.46369 -0.548257 0
M  V30 3881 H 375.203 -1.08883 -3.05475 0
M  V30 3882 H 374.988 -2.83018 -2.71373 0
M  V30 3883 H 376.478 -2.2514 -3.51713 0
M  V30 3884 N 376.915 0.57481 -1.46744 0
M  V30 3885 C 378.164 1.32898 -1.51727 0
M  V30 3886 C 378.477 1.948 -0.176692 0
M  V30 3887 O 379.683 2.71299 -0.104385 0
M  V30 3888 C 378.139 2.40901 -2.67385 0
M  V30 3889 C 377.747 1.85266 -4.07898 0
M  V30 3890 C 379.491 3.17609 -2.81646 0
M  V30 3891 C 377.398 2.90945 -5.14883 0
M  V30 3892 H 376.328 0.499631 -0.564699 0
M  V30 3893 H 378.979 0.612536 -1.72975 0
M  V30 3894 H 377.361 3.15379 -2.39483 0
M  V30 3895 H 378.535 1.17278 -4.45626 0
M  V30 3896 H 376.85 1.21199 -3.98371 0
M  V30 3897 H 379.447 3.96493 -3.58744 0
M  V30 3898 H 379.79 3.70696 -1.89448 0
M  V30 3899 H 380.323 2.50239 -3.09233 0
M  V30 3900 H 377.062 2.42736 -6.089 0
M  V30 3901 H 376.582 3.57398 -4.81691 0
M  V30 3902 H 378.261 3.54755 -5.41071 0
M  V30 3903 N 378.394 1.34581 0.820102 0
M  V30 3904 C 379.622 1.3018 1.60813 0
M  V30 3905 C 380.037 -0.123551 1.88395 0
M  V30 3906 O 379.394 -1.07148 1.47735 0
M  V30 3907 C 379.445 2.09312 2.94739 0
M  V30 3908 O 379.166 3.46288 2.68358 0
M  V30 3909 C 380.667 2.1234 3.89136 0
M  V30 3910 H 377.887 0.447726 0.499782 0
M  V30 3911 H 380.431 1.77237 1.02017 0
M  V30 3912 H 378.586 1.65889 3.50085 0
M  V30 3913 H 379 3.87227 3.53774 0
M  V30 3914 H 380.474 2.72126 4.80262 0
M  V30 3915 H 380.951 1.11854 4.24718 0
M  V30 3916 H 381.557 2.55864 3.39726 0
M  V30 3917 N 379.872 -1.04064 1.18357 0
M  V30 3918 C 381.1 -1.80916 1.00384 0
M  V30 3919 C 381.515 -1.83414 -0.447738 0
M  V30 3920 O 380.872 -1.26962 -1.31099 0
M  V30 3921 C 380.923 -3.26516 1.55144 0
M  V30 3922 O 380.644 -3.2424 2.94618 0
M  V30 3923 C 382.145 -4.20013 1.41789 0
M  V30 3924 H 379.365 -0.569728 0.354474 0
M  V30 3925 H 381.909 -1.31151 1.56906 0
M  V30 3926 H 380.064 -3.73512 1.02798 0
M  V30 3927 H 380.478 -4.15452 3.20156 0
M  V30 3928 H 381.952 -5.20111 1.84901 0
M  V30 3929 H 382.429 -4.37667 0.36661 0
M  V30 3930 H 383.035 -3.78881 1.93207 0
M  V30 3931 N 381.35 -0.985608 -1.22978 0
M  V30 3932 C 382.28 -0.549649 -2.26939 0
M  V30 3933 C 383.261 0.419803 -1.64838 0
M  V30 3934 O 384.446 0.31203 -1.91677 0
M  V30 3935 C 381.576 0.143652 -3.47003 0
M  V30 3936 C 380.53 -0.743606 -4.21491 0
M  V30 3937 C 379.856 0.0822027 -5.34637 0
M  V30 3938 C 381.156 -2.03694 -4.80943 0
M  V30 3939 H 382.85 -1.41862 -2.63658 0
M  V30 3940 H 380.396 -0.683571 -1.26741 0
M  V30 3941 H 382.349 0.459985 -4.18882 0
M  V30 3942 H 381.073 1.04711 -3.09359 0
M  V30 3943 H 379.732 -1.04347 -3.51436 0
M  V30 3944 H 379.38 0.986359 -4.93234 0
M  V30 3945 H 379.08 -0.508377 -5.85397 0
M  V30 3946 H 380.604 0.392797 -6.09335 0
M  V30 3947 H 382.018 -1.78504 -5.44802 0
M  V30 3948 H 380.415 -2.57573 -5.42011 0
M  V30 3949 H 381.485 -2.72042 -4.01399 0
M  V30 3950 N 382.828 1.3818 -0.7579 0
M  V30 3951 C 383.778 2.27741 -0.108674 0
M  V30 3952 C 384.762 1.45415 0.688709 0
M  V30 3953 O 385.954 1.68108 0.553956 0
M  V30 3954 C 383.083 3.34313 0.780367 0
M  V30 3955 C 382.169 4.24093 -0.0240977 0
M  V30 3956 N 382.56 4.9451 -1.06271 0
M  V30 3957 C 380.858 4.45542 0.202049 0
M  V30 3958 C 381.559 5.60675 -1.54979 0
M  V30 3959 N 380.535 5.36684 -0.864348 0
M  V30 3960 H 384.337 2.79649 -0.904071 0
M  V30 3961 H 381.851 1.51133 -0.594346 0
M  V30 3962 H 383.848 3.97368 1.26114 0
M  V30 3963 H 382.508 2.83962 1.57467 0
M  V30 3964 H 383.519 4.97345 -1.44459 0
M  V30 3965 H 380.196 4.06091 0.96935 0
M  V30 3966 H 381.586 6.26992 -2.41517 0
M  V30 3967 N 384.306 0.507319 1.49211 0
M  V30 3968 C 385.254 -0.281364 2.30892 0
M  V30 3969 C 386.248 -0.95687 1.39787 0
M  V30 3970 O 387.454 -0.883838 1.56807 0
M  V30 3971 H 383.829 -0.109597 0.743971 0
M  V30 3972 H 385.8 0.42744 2.95323 0
M  V30 3973 C 384.549 -1.32918 3.21291 0
M  V30 3974 H 383.872 -0.818799 3.91326 0
M  V30 3975 H 385.312 -1.85288 3.81372 0
M  V30 3976 C 383.771 -2.35074 2.41333 0
M  V30 3977 O 384.301 -3.4108 2.12197 0
M  V30 3978 N 382.507 -2.07705 2.03241 0
M  V30 3979 H 382.054 -1.2152 2.27136 0
M  V30 3980 H 382.012 -2.76283 1.50051 0
M  V30 3981 N 385.784 -1.5574 0.241426 0
M  V30 3982 C 386.714 -2.24133 -0.654722 0
M  V30 3983 C 387.695 -1.21974 -1.1856 0
M  V30 3984 O 388.88 -1.50612 -1.22595 0
M  V30 3985 C 386.01 -2.93659 -1.85423 0
M  V30 3986 C 384.964 -4.0246 -1.45636 0
M  V30 3987 C 384.29 -4.59383 -2.73626 0
M  V30 3988 C 385.59 -5.18468 -0.631506 0
M  V30 3989 H 387.284 -2.99281 -0.0844353 0
M  V30 3990 H 384.83 -1.43947 -0.0391707 0
M  V30 3991 H 386.783 -3.40203 -2.48676 0
M  V30 3992 H 385.507 -2.15991 -2.44981 0
M  V30 3993 H 384.166 -3.56676 -0.847202 0
M  V30 3994 H 383.814 -3.78422 -3.3137 0
M  V30 3995 H 383.514 -5.32826 -2.4773 0
M  V30 3996 H 385.038 -5.08658 -3.37786 0
M  V30 3997 H 386.452 -5.61272 -1.1682 0
M  V30 3998 H 384.849 -5.98266 -0.468831 0
M  V30 3999 H 385.919 -4.8358 0.357506 0
M  V30 4000 N 387.262 0.0317525 -1.57568 0
M  V30 4001 C 388.192 1.03274 -2.0942 0
M  V30 4002 C 389.173 1.3788 -0.996143 0
M  V30 4003 O 390.358 1.46811 -1.27122 0
M  V30 4004 C 387.488 2.33448 -2.57137 0
M  V30 4005 C 386.442 2.13091 -3.71182 0
M  V30 4006 C 385.768 3.49001 -4.05095 0
M  V30 4007 C 387.068 1.51928 -4.99715 0
M  V30 4008 H 388.762 0.60112 -2.93303 0
M  V30 4009 H 386.308 0.287705 -1.41097 0
M  V30 4010 H 388.261 3.03802 -2.92032 0
M  V30 4011 H 386.985 2.78665 -1.70333 0
M  V30 4012 H 385.644 1.45171 -3.36632 0
M  V30 4013 H 385.292 3.91862 -3.15362 0
M  V30 4014 H 384.992 3.36207 -4.81911 0
M  V30 4015 H 386.516 4.20721 -4.42522 0
M  V30 4016 H 387.93 2.12196 -5.32584 0
M  V30 4017 H 386.327 1.49716 -5.81124 0
M  V30 4018 H 387.397 0.484811 -4.8247 0
M  V30 4019 N 388.74 1.54641 0.303973 0
M  V30 4020 C 389.67 1.88386 1.3796 0
M  V30 4021 C 390.651 0.742485 1.5304 0
M  V30 4022 O 391.836 0.997959 1.66597 0
M  V30 4023 C 388.966 2.12854 2.74427 0
M  V30 4024 C 387.92 3.28702 2.74115 0
M  V30 4025 C 387.246 3.38582 4.13844 0
M  V30 4026 C 388.546 4.65881 2.3612 0
M  V30 4027 H 390.24 2.78474 1.09966 0
M  V30 4028 H 387.786 1.33988 0.527556 0
M  V30 4029 H 389.739 2.35047 3.49758 0
M  V30 4030 H 388.463 1.19535 3.03939 0
M  V30 4031 H 387.122 3.06428 2.0124 0
M  V30 4032 H 386.77 2.42784 4.40528 0
M  V30 4033 H 386.47 4.16453 4.14537 0
M  V30 4034 H 387.994 3.63031 4.90959 0
M  V30 4035 H 389.408 4.87823 3.01167 0
M  V30 4036 H 387.805 5.46444 2.48031 0
M  V30 4037 H 388.875 4.66799 1.3125 0
M  V30 4038 N 390.218 -0.567019 1.47046 0
M  V30 4039 C 391.168 -1.67018 1.55207 0
M  V30 4040 C 392.152 -1.55543 0.411714 0
M  V30 4041 O 393.344 -1.64192 0.661064 0
M  V30 4042 C 390.473 -3.05801 1.56014 0
M  V30 4043 C 389.559 -3.22515 2.75399 0
M  V30 4044 N 389.95 -3.09329 4.00186 0
M  V30 4045 C 388.248 -3.53493 2.71954 0
M  V30 4046 C 388.949 -3.2847 4.80086 0
M  V30 4047 N 387.925 -3.54352 4.12233 0
M  V30 4048 H 391.727 -1.55377 2.4947 0
M  V30 4049 H 389.241 -0.771503 1.42904 0
M  V30 4050 H 391.238 -3.84996 1.59949 0
M  V30 4051 H 389.898 -3.18561 0.628396 0
M  V30 4052 H 390.909 -2.86863 4.31196 0
M  V30 4053 H 387.586 -3.7284 1.87873 0
M  V30 4054 H 388.976 -3.23326 5.88991 0
M  V30 4055 N 391.696 -1.35014 -0.812953 0
M  V30 4056 C 392.628 -1.23262 -1.93233 0
M  V30 4057 C 393.641 -0.157371 -1.62038 0
M  V30 4058 O 394.83 -0.410096 -1.73725 0
M  V30 4059 C 391.93 -0.87392 -3.27438 0
M  V30 4060 C 391.103 -2.04622 -3.86586 0
M  V30 4061 C 390.162 -1.66432 -4.99186 0
M  V30 4062 O 389.188 -2.38222 -5.16951 0
M  V30 4063 N 390.39 -0.584248 -5.77552 0
M  V30 4064 H 393.155 -2.19699 -2.03844 0
M  V30 4065 H 390.716 -1.281 -0.99005 0
M  V30 4066 H 392.708 -0.600039 -4.00227 0
M  V30 4067 H 391.278 0.00057392 -3.126 0
M  V30 4068 H 390.498 -2.48427 -3.06068 0
M  V30 4069 H 391.786 -2.82999 -4.22835 0
M  V30 4070 H 391.184 0.0123526 -5.65699 0
M  V30 4071 H 389.741 -0.37013 -6.50748 0
M  V30 4072 N 393.175 1.03435 -1.18907 0
M  V30 4073 C 394.085 2.15075 -0.937015 0
M  V30 4074 C 395.101 1.73706 0.101085 0
M  V30 4075 O 396.277 2.01232 -0.0822948 0
M  V30 4076 C 393.342 3.43458 -0.473057 0
M  V30 4077 C 392.403 3.99172 -1.57989 0
M  V30 4078 C 391.636 5.21427 -1.13797 0
M  V30 4079 O 391.859 5.704 0.000725941 0
M  V30 4080 O 390.793 5.69837 -1.9383 0
M  V30 4081 H 394.619 2.39198 -1.87131 0
M  V30 4082 H 392.204 1.13506 -0.971427 0
M  V30 4083 H 394.086 4.20811 -0.222702 0
M  V30 4084 H 392.761 3.20793 0.432869 0
M  V30 4085 H 391.668 3.23178 -1.88433 0
M  V30 4086 H 393.001 4.2619 -2.46217 0
M  V30 4087 N 394.653 0.992116 1.22453 0
M  V30 4088 C 395.901 0.666215 1.90804 0
M  V30 4089 C 396.222 -0.804152 1.77647 0
M  V30 4090 O 395.492 -1.57629 1.16318 0
M  V30 4091 H 394.072 0.243423 0.706225 0
M  V30 4092 H 396.734 1.25845 1.48825 0
M  V30 4093 H 395.83 0.928069 2.97982 0
M  V30 4094 N 396.131 -1.37776 0.765217 0
M  V30 4095 C 397.094 -2.28686 0.153416 0
M  V30 4096 C 398.094 -1.47727 -0.635081 0
M  V30 4097 O 399.284 -1.68027 -0.459632 0
M  V30 4098 C 396.416 -3.31608 -0.790495 0
M  V30 4099 H 397.609 -2.84297 0.954723 0
M  V30 4100 H 395.162 -1.46932 0.53299 0
M  V30 4101 H 395.897 -2.81109 -1.61705 0
M  V30 4102 H 395.682 -3.9144 -0.227348 0
M  V30 4103 H 397.172 -3.99559 -1.21419 0
M  V30 4104 N 397.609 -0.515225 -1.4894 0
M  V30 4105 C 398.556 0.255567 -2.29381 0
M  V30 4106 C 399.526 0.947387 -1.36432 0
M  V30 4107 O 400.711 0.951288 -1.65394 0
M  V30 4108 C 397.851 1.30551 -3.19453 0
M  V30 4109 C 396.964 0.624029 -4.27469 0
M  V30 4110 C 396.099 1.65563 -5.0474 0
M  V30 4111 C 395.138 0.956802 -6.04576 0
M  V30 4112 N 394.275 1.93326 -6.74959 0
M  V30 4113 H 399.115 -0.436607 -2.94784 0
M  V30 4114 H 396.652 -0.227154 -1.45336 0
M  V30 4115 H 398.61 1.92639 -3.70062 0
M  V30 4116 H 397.24 1.96626 -2.56004 0
M  V30 4117 H 396.292 -0.110459 -3.8024 0
M  V30 4118 H 397.604 0.0746092 -4.98744 0
M  V30 4119 H 396.758 2.35119 -5.59289 0
M  V30 4120 H 395.497 2.23893 -4.3327 0
M  V30 4121 H 394.502 0.247097 -5.49244 0
M  V30 4122 H 395.727 0.379814 -6.78037 0
M  V30 4123 H 393.673 2.50591 -6.06251 0
M  V30 4124 H 393.59 1.43489 -7.42258 0
M  V30 4125 H 394.858 2.62126 -7.34105 0
M  V30 4126 N 399.087 1.5561 -0.249682 0
M  V30 4127 C 400.02 2.17537 0.689408 0
M  V30 4128 C 400.998 1.12829 1.17083 0
M  V30 4129 O 402.182 1.41229 1.24846 0
M  V30 4130 C 399.309 2.77828 1.93725 0
M  V30 4131 C 398.355 3.95615 1.59346 0
M  V30 4132 S 399.188 5.30988 0.69367 0
M  V30 4133 C 400.344 5.94734 1.95046 0
M  V30 4134 H 400.577 2.96852 0.163142 0
M  V30 4135 H 398.11 1.54362 -0.0341166 0
M  V30 4136 H 400.068 3.13199 2.65361 0
M  V30 4137 H 398.729 1.98454 2.43465 0
M  V30 4138 H 397.922 4.364 2.52132 0
M  V30 4139 H 397.524 3.61535 0.957512 0
M  V30 4140 H 399.816 6.12419 2.89739 0
M  V30 4141 H 400.759 6.90109 1.58604 0
M  V30 4142 H 401.167 5.23832 2.10381 0
M  V30 4143 N 400.565 -0.0233959 1.57583 0
M  V30 4144 C 401.528 -1.00693 2.05897 0
M  V30 4145 C 402.528 -1.28693 0.964092 0
M  V30 4146 O 403.718 -1.23602 1.22753 0
M  V30 4147 C 400.85 -2.33825 2.4807 0
M  V30 4148 H 402.043 -0.589476 2.9405 0
M  V30 4149 H 399.596 -0.270354 1.53944 0
M  V30 4150 H 400.331 -2.80307 1.6309 0
M  V30 4151 H 400.116 -2.1483 3.2801 0
M  V30 4152 H 401.606 -3.04426 2.85857 0
M  V30 4153 N 402.043 -1.548 -0.295768 0
M  V30 4154 C 403.289 -1.74588 -1.03184 0
M  V30 4155 C 403.622 -0.532962 -1.86744 0
M  V30 4156 O 402.897 0.469872 -1.88739 0
M  V30 4157 C 403.18 -3.03791 -1.93347 0
M  V30 4158 C 403.033 -4.35392 -1.12933 0
M  V30 4159 C 404.352 -3.28892 -2.92435 0
M  V30 4160 H 401.471 -0.635221 -0.373715 0
M  V30 4161 H 404.113 -1.87519 -0.30606 0
M  V30 4162 H 402.263 -2.92898 -2.55232 0
M  V30 4163 H 403.935 -4.58211 -0.532943 0
M  V30 4164 H 402.178 -4.31642 -0.432168 0
M  V30 4165 H 402.849 -5.22074 -1.79284 0
M  V30 4166 H 405.325 -3.39429 -2.4068 0
M  V30 4167 H 404.201 -4.20603 -3.52682 0
M  V30 4168 H 404.462 -2.47437 -3.6637 0
M  V30 4169 N 403.521 0.559213 -1.47345 0
M  V30 4170 C 404.937 0.884943 -1.32819 0
M  V30 4171 C 405.137 1.98988 -0.317173 0
M  V30 4172 O 404.193 2.51031 0.272011 0
M  V30 4173 C 405.506 1.28007 -2.72093 0
M  V30 4174 C 407.054 1.39161 -2.80363 0
M  V30 4175 C 407.529 1.82031 -4.20272 0
M  V30 4176 N 409.02 1.89185 -4.22804 0
M  V30 4177 C 409.755 2.2368 -5.27973 0
M  V30 4178 N 409.251 2.56802 -6.43447 0
M  V30 4179 N 411.044 2.24436 -5.15349 0
M  V30 4180 H 403.195 -0.170304 -2.11716 0
M  V30 4181 H 405.458 -0.0135247 -0.947904 0
M  V30 4182 H 405.164 0.542027 -3.47498 0
M  V30 4183 H 405.038 2.23665 -3.03733 0
M  V30 4184 H 407.425 2.12048 -2.05231 0
M  V30 4185 H 407.506 0.41696 -2.52379 0
M  V30 4186 H 407.15 1.09715 -4.95908 0
M  V30 4187 H 407.08 2.80495 -4.45679 0
M  V30 4188 H 409.571 1.65982 -3.39497 0
M  V30 4189 H 409.884 2.82144 -7.19454 0
M  V30 4190 H 408.229 2.54387 -6.46771 0
M  V30 4191 H 411.42 1.97998 -4.24163 0
M  V30 4192 H 411.593 2.50989 -5.97418 0
M  V30 4193 N 404.999 1.35443 0.805782 0
M  V30 4194 C 405.929 1.31095 1.93226 0
M  V30 4195 C 406.91 0.185244 1.69088 0
M  V30 4196 O 408.095 0.380332 1.90439 0
M  V30 4197 C 405.225 1.08299 3.29983 0
M  V30 4198 C 404.179 2.17519 3.68605 0
M  V30 4199 C 403.505 1.79887 5.03532 0
M  V30 4200 C 404.805 3.5949 3.78898 0
M  V30 4201 H 406.499 2.25352 1.97122 0
M  V30 4202 H 404.045 1.0848 0.946996 0
M  V30 4203 H 405.998 1.03897 4.08391 0
M  V30 4204 H 404.722 0.104885 3.26432 0
M  V30 4205 H 403.381 2.2102 2.92482 0
M  V30 4206 H 403.029 0.80693 4.96485 0
M  V30 4207 H 402.729 2.53001 5.30344 0
M  V30 4208 H 404.253 1.77011 5.84379 0
M  V30 4209 H 405.667 3.58307 4.47536 0
M  V30 4210 H 404.064 4.31371 4.1718 0
M  V30 4211 H 405.134 3.95584 2.80431 0
M  V30 4212 N 406.477 -1.02803 1.19454 0
M  V30 4213 C 407.44 -2.09264 0.934955 0
M  V30 4214 C 408.44 -1.60576 -0.0849015 0
M  V30 4215 O 409.63 -1.73554 0.149933 0
M  V30 4216 C 406.762 -3.38482 0.40531 0
M  V30 4217 H 407.955 -2.33726 1.87916 0
M  V30 4218 H 405.508 -1.19426 1.00832 0
M  V30 4219 H 406.243 -3.19689 -0.544899 0
M  V30 4220 H 406.028 -3.75142 1.14065 0
M  V30 4221 H 407.518 -4.16894 0.242806 0
M  V30 4222 N 407.956 -0.998596 -1.21925 0
M  V30 4223 C 409.204 -0.676325 -1.90448 0
M  V30 4224 C 409.525 0.794719 -1.78071 0
M  V30 4225 O 408.795 1.5701 -1.17152 0
M  V30 4226 H 407.375 -0.247165 -0.704925 0
M  V30 4227 H 410.037 -1.26633 -1.48156 0
M  V30 4228 H 409.133 -0.943858 -2.97486 0
M  V30 4229 N 409.434 1.37368 -0.772513 0
M  V30 4230 C 410.682 1.99279 -0.336516 0
M  V30 4231 C 411.003 1.6163 1.09091 0
M  V30 4232 O 410.273 0.882109 1.74916 0
M  V30 4233 H 408.853 0.737063 -0.121435 0
M  V30 4234 H 411.515 1.67836 -0.990809 0
M  V30 4235 H 410.611 3.09332 -0.414763 0
M  V30 4236 N 410.912 0.523116 1.48665 0
M  V30 4237 C 411.842 -0.23231 2.32342 0
M  V30 4238 C 412.823 -0.941637 1.41659 0
M  V30 4239 O 414.008 -0.928751 1.70552 0
M  V30 4240 C 411.138 -1.28387 3.22698 0
M  V30 4241 C 410.092 -0.693098 4.22351 0
M  V30 4242 C 409.418 -1.8468 5.01794 0
M  V30 4243 C 410.718 0.33063 5.21252 0
M  V30 4244 H 412.412 0.466192 2.95748 0
M  V30 4245 H 409.958 0.225643 1.42221 0
M  V30 4246 H 411.911 -1.82024 3.80059 0
M  V30 4247 H 410.635 -2.01186 2.57278 0
M  V30 4248 H 409.294 -0.178299 3.66166 0
M  V30 4249 H 408.942 -2.56301 4.32804 0
M  V30 4250 H 408.642 -1.45747 5.69238 0
M  V30 4251 H 410.166 -2.38709 5.62006 0
M  V30 4252 H 411.58 -0.118407 5.73178 0
M  V30 4253 H 409.977 0.636974 5.9671 0
M  V30 4254 H 411.047 1.23883 4.68808 0
M  V30 4255 N 412.39 -1.55475 0.257931 0
M  V30 4256 C 413.322 -2.19192 -0.669881 0
M  V30 4257 C 414.335 -1.17148 -1.1305 0
M  V30 4258 O 415.524 -1.43959 -1.05537 0
M  V30 4259 C 412.624 -2.79016 -1.92363 0
M  V30 4260 C 411.797 -4.06586 -1.61265 0
M  V30 4261 C 410.856 -4.50622 -2.7171 0
M  V30 4262 O 409.882 -5.16765 -2.38627 0
M  V30 4263 N 411.084 -4.19325 -4.01431 0
M  V30 4264 H 413.849 -2.99441 -0.124635 0
M  V30 4265 H 411.41 -1.6171 0.0783311 0
M  V30 4266 H 413.402 -3.05427 -2.65511 0
M  V30 4267 H 411.972 -2.0286 -2.37837 0
M  V30 4268 H 411.192 -3.87646 -0.715811 0
M  V30 4269 H 412.48 -4.89737 -1.37967 0
M  V30 4270 H 411.878 -3.66247 -4.31138 0
M  V30 4271 H 410.435 -4.50547 -4.7101 0
M  V30 4272 N 413.868 0.0150385 -1.57593 0
M  V30 4273 C 414.815 1.01126 -2.07466 0
M  V30 4274 C 415.785 1.35064 -0.966794 0
M  V30 4275 O 416.97 1.4516 -1.23827 0
M  V30 4276 C 414.11 2.30276 -2.57035 0
M  V30 4277 C 413.223 2.02373 -3.81666 0
M  V30 4278 C 412.358 3.25496 -4.19793 0
M  V30 4279 C 411.397 2.93211 -5.37303 0
M  V30 4280 N 410.534 4.08826 -5.70794 0
M  V30 4281 H 415.374 0.57901 -2.92321 0
M  V30 4282 H 412.911 0.27426 -1.44521 0
M  V30 4283 H 414.869 3.05757 -2.83846 0
M  V30 4284 H 413.499 2.71197 -1.75077 0
M  V30 4285 H 412.551 1.17327 -3.61854 0
M  V30 4286 H 413.863 1.74567 -4.67256 0
M  V30 4287 H 413.017 4.09333 -4.47807 0
M  V30 4288 H 411.756 3.56428 -3.32882 0
M  V30 4289 H 410.761 2.07777 -5.09027 0
M  V30 4290 H 411.986 2.63542 -6.25877 0
M  V30 4291 H 409.932 4.39682 -4.86842 0
M  V30 4292 H 409.849 3.84491 -6.50924 0
M  V30 4293 H 411.117 4.93496 -6.03392 0
M  V30 4294 N 415.346 1.54954 0.287554 0
M  V30 4295 C 416.279 1.81737 1.3801 0
M  V30 4296 C 417.257 0.669412 1.48181 0
M  V30 4297 O 418.441 0.910839 1.65033 0
M  V30 4298 C 415.568 1.96606 2.75796 0
M  V30 4299 C 414.614 3.19098 2.82982 0
M  V30 4300 S 415.447 4.7683 2.43707 0
M  V30 4301 C 416.603 4.94653 3.83496 0
M  V30 4302 H 416.836 2.74122 1.15085 0
M  V30 4303 H 414.369 1.46538 0.486403 0
M  V30 4304 H 416.327 2.05858 3.55152 0
M  V30 4305 H 414.988 1.05136 2.95982 0
M  V30 4306 H 414.181 3.26344 3.84077 0
M  V30 4307 H 413.783 3.08361 2.11635 0
M  V30 4308 H 416.075 4.79502 4.78628 0
M  V30 4309 H 417.018 5.96728 3.8121 0
M  V30 4310 H 417.426 4.2272 3.74123 0
M  V30 4311 N 416.824 -0.551391 1.4764 0
M  V30 4312 C 418.07 -1.31024 1.54792 0
M  V30 4313 C 418.403 -1.9304 0.211967 0
M  V30 4314 O 417.678 -1.78175 -0.77999 0
M  V30 4315 C 417.961 -2.41593 2.67029 0
M  V30 4316 C 417.814 -1.84408 4.10261 0
M  V30 4317 C 419.133 -3.43488 2.75143 0
M  V30 4318 H 416.252 -0.475031 0.563485 0
M  V30 4319 H 418.894 -0.616454 1.79722 0
M  V30 4320 H 417.044 -3.00772 2.45904 0
M  V30 4321 H 418.716 -1.29445 4.42766 0
M  V30 4322 H 416.959 -1.15051 4.18265 0
M  V30 4323 H 417.63 -2.64367 4.84576 0
M  V30 4324 H 420.106 -2.94236 2.94218 0
M  V30 4325 H 418.982 -4.18274 3.55441 0
M  V30 4326 H 419.243 -4.02703 1.82435 0
M  V30 4327 N 418.302 -1.35869 -0.798587 0
M  V30 4328 C 419.265 -1.29307 -1.89242 0
M  V30 4329 C 420.265 -0.202747 -1.59517 0
M  V30 4330 O 421.455 -0.456957 -1.681 0
M  V30 4331 C 418.587 -1.00229 -3.25833 0
M  V30 4332 H 419.78 -2.26576 -1.96478 0
M  V30 4333 H 417.333 -1.20509 -0.995358 0
M  V30 4334 H 418.068 -0.033801 -3.24282 0
M  V30 4335 H 417.853 -1.79121 -3.48795 0
M  V30 4336 H 419.343 -0.98219 -4.05885 0
M  V30 4337 N 419.78 1.02168 -1.19998 0
M  V30 4338 C 420.71 2.12488 -0.96804 0
M  V30 4339 C 421.691 1.69799 0.101185 0
M  V30 4340 O 422.876 1.94121 -0.0552993 0
M  V30 4341 C 420.006 3.43479 -0.513776 0
M  V30 4342 C 418.96 3.99884 -1.52566 0
M  V30 4343 C 418.286 5.26582 -0.928214 0
M  V30 4344 C 419.586 4.33861 -2.90795 0
M  V30 4345 H 421.28 2.32149 -1.89069 0
M  V30 4346 H 418.826 1.11564 -0.910468 0
M  V30 4347 H 420.779 4.20036 -0.338774 0
M  V30 4348 H 419.503 3.23561 0.444493 0
M  V30 4349 H 418.162 3.25429 -1.68794 0
M  V30 4350 H 417.81 5.02986 0.0378289 0
M  V30 4351 H 417.51 5.65284 -1.60397 0
M  V30 4352 H 419.034 6.05799 -0.764167 0
M  V30 4353 H 420.448 5.01327 -2.78109 0
M  V30 4354 H 418.845 4.83664 -3.55231 0
M  V30 4355 H 419.915 3.42848 -3.42904 0
M  V30 4356 N 421.258 1.00505 1.21394 0
M  V30 4357 C 422.188 0.585684 2.26035 0
M  V30 4358 C 423.169 -0.393525 1.65485 0
M  V30 4359 O 424.354 -0.281497 1.92149 0
M  V30 4360 C 421.484 -0.0884283 3.47187 0
M  V30 4361 C 420.438 0.810567 4.20254 0
M  V30 4362 C 419.764 0.00286382 5.347 0
M  V30 4363 C 421.064 2.1132 4.77641 0
M  V30 4364 H 422.758 1.46039 2.61368 0
M  V30 4365 H 420.304 0.703648 1.25638 0
M  V30 4366 H 422.257 -0.393286 4.19561 0
M  V30 4367 H 420.981 -0.997766 3.10986 0
M  V30 4368 H 419.64 1.09925 3.49731 0
M  V30 4369 H 419.288 -0.907765 4.94741 0
M  V30 4370 H 418.988 0.601444 5.84514 0
M  V30 4371 H 420.512 -0.295808 6.09883 0
M  V30 4372 H 421.926 1.87148 5.41893 0
M  V30 4373 H 420.323 2.66164 5.37845 0
M  V30 4374 H 421.393 2.78393 3.9702 0
M  V30 4375 N 422.737 -1.36956 0.779787 0
M  V30 4376 C 423.685 -2.32053 0.15942 0
M  V30 4377 C 424.679 -1.55333 -0.675878 0
M  V30 4378 O 425.885 -1.70668 -0.57204 0
M  V30 4379 H 422.26 -0.751286 0.0327707 0
M  V30 4380 H 424.231 -2.8195 0.977078 0
M  V30 4381 C 422.98 -3.40602 -0.698977 0
M  V30 4382 H 422.303 -3.99746 -0.0655966 0
M  V30 4383 H 423.743 -4.09486 -1.09989 0
M  V30 4384 C 422.202 -2.81359 -1.85307 0
M  V30 4385 O 422.732 -2.72751 -2.94906 0
M  V30 4386 N 420.938 -2.38786 -1.65619 0
M  V30 4387 H 420.485 -2.45987 -0.764725 0
M  V30 4388 H 420.443 -1.99493 -2.43002 0
M  V30 4389 N 424.215 -0.530993 -1.48385 0
M  V30 4390 C 425.162 0.231223 -2.29639 0
M  V30 4391 C 426.132 0.932864 -1.37429 0
M  V30 4392 O 427.317 0.933692 -1.66394 0
M  V30 4393 C 424.457 1.27155 -3.2082 0
M  V30 4394 C 423.57 0.578655 -4.28107 0
M  V30 4395 C 422.705 1.602 -5.06467 0
M  V30 4396 C 421.744 0.892625 -6.05556 0
M  V30 4397 N 420.881 1.86157 -6.76971 0
M  V30 4398 H 425.721 -0.467848 -2.94305 0
M  V30 4399 H 423.258 -0.242556 -1.45086 0
M  V30 4400 H 425.216 1.88703 -3.72085 0
M  V30 4401 H 423.846 1.939 -2.58075 0
M  V30 4402 H 422.898 -0.150782 -3.80101 0
M  V30 4403 H 424.21 0.0217065 -4.98795 0
M  V30 4404 H 423.364 2.29173 -5.61751 0
M  V30 4405 H 422.103 2.19285 -4.35621 0
M  V30 4406 H 421.108 0.188829 -5.49476 0
M  V30 4407 H 422.333 0.307878 -6.78402 0
M  V30 4408 H 420.279 2.44147 -6.08875 0
M  V30 4409 H 420.196 1.35608 -7.43738 0
M  V30 4410 H 421.464 2.54325 -7.36844 0
M  V30 4411 N 425.693 1.55336 -0.266172 0
M  V30 4412 C 426.921 2.03801 0.356756 0
M  V30 4413 C 427.336 1.14485 1.50129 0
M  V30 4414 O 426.693 0.163121 1.8177 0
M  V30 4415 C 426.744 3.51455 0.846281 0
M  V30 4416 O 426.465 4.37371 -0.252663 0
M  V30 4417 C 427.966 4.15767 1.53794 0
M  V30 4418 H 425.186 0.665906 0.0825218 0
M  V30 4419 H 427.73 2.00636 -0.39566 0
M  V30 4420 H 425.885 3.55092 1.54881 0
M  V30 4421 H 426.299 5.24358 0.122173 0
M  V30 4422 H 427.773 5.20714 1.83198 0
M  V30 4423 H 428.25 3.63404 2.46646 0
M  V30 4424 H 428.856 4.16107 0.879488 0
M  V30 4425 N 427.171 -0.0066808 1.57599 0
M  V30 4426 C 428.119 -1.01851 2.09115 0
M  V30 4427 C 429.113 -1.36021 1.00969 0
M  V30 4428 O 430.319 -1.34663 1.19439 0
M  V30 4429 H 426.694 -0.346083 0.667631 0
M  V30 4430 H 428.665 -0.558394 2.93129 0
M  V30 4431 C 427.414 -2.30374 2.60429 0
M  V30 4432 H 426.737 -2.04947 3.43273 0
M  V30 4433 H 428.177 -2.99466 3.00161 0
M  V30 4434 C 426.636 -3.00893 1.51542 0
M  V30 4435 O 427.166 -3.91614 0.894484 0
M  V30 4436 N 425.372 -2.62603 1.2445 0
M  V30 4437 H 424.919 -1.88911 1.75129 0
M  V30 4438 H 424.877 -3.10101 0.518137 0
M  V30 4439 N 428.649 -1.55105 -0.279332 0
M  V30 4440 C 429.895 -1.75672 -1.01327 0
M  V30 4441 C 430.228 -0.552739 -1.86168 0
M  V30 4442 O 429.503 0.449827 -1.89227 0
M  V30 4443 C 429.786 -3.05825 -1.90114 0
M  V30 4444 C 429.639 -4.36565 -1.08309 0
M  V30 4445 C 430.958 -3.31975 -2.8893 0
M  V30 4446 H 428.077 -0.639149 -0.366957 0
M  V30 4447 H 430.719 -1.87833 -0.286154 0
M  V30 4448 H 428.869 -2.95588 -2.52111 0
M  V30 4449 H 430.541 -4.58751 -0.484314 0
M  V30 4450 H 428.784 -4.32076 -0.386362 0
M  V30 4451 H 429.455 -5.23946 -1.73737 0
M  V30 4452 H 431.931 -3.41963 -2.37067 0
M  V30 4453 H 430.807 -4.2432 -3.48201 0
M  V30 4454 H 431.068 -2.51309 -3.63725 0
M  V30 4455 N 430.127 0.543554 -1.4793 0
M  V30 4456 C 431.074 1.64942 -1.6144 0
M  V30 4457 C 432.044 1.59692 -0.456903 0
M  V30 4458 O 433.229 1.78321 -0.678688 0
M  V30 4459 C 430.369 3.03238 -1.64744 0
M  V30 4460 C 429.482 3.18823 -2.91506 0
M  V30 4461 C 428.617 4.47599 -2.86057 0
M  V30 4462 C 427.656 4.56664 -4.07584 0
M  V30 4463 N 426.793 5.76811 -4.00292 0
M  V30 4464 H 431.633 1.52733 -2.55884 0
M  V30 4465 H 429.17 0.7438 -1.2691 0
M  V30 4466 H 431.128 3.83339 -1.64641 0
M  V30 4467 H 429.758 3.1425 -0.738017 0
M  V30 4468 H 428.81 2.32064 -3.01414 0
M  V30 4469 H 430.122 3.21384 -3.81463 0
M  V30 4470 H 429.276 5.35975 -2.84281 0
M  V30 4471 H 428.015 4.47538 -1.93807 0
M  V30 4472 H 427.02 3.66697 -4.09651 0
M  V30 4473 H 428.245 4.58474 -5.00978 0
M  V30 4474 H 426.191 5.77673 -3.10853 0
M  V30 4475 H 426.108 5.80808 -4.8394 0
M  V30 4476 H 427.376 6.67512 -4.02553 0
M  V30 4477 N 431.605 1.3629 0.791371 0
M  V30 4478 C 432.852 1.30412 1.54916 0
M  V30 4479 C 433.18 -0.117162 1.94147 0
M  V30 4480 O 432.435 -1.08599 1.62803 0
M  V30 4481 C 432.734 2.17068 2.8393 0
M  V30 4482 C 432.4 3.65645 2.63846 0
M  V30 4483 C 431.062 4.0614 2.58077 0
M  V30 4484 C 433.414 4.59855 2.45322 0
M  V30 4485 C 430.742 5.3899 2.31748 0
M  V30 4486 C 433.094 5.9292 2.2052 0
M  V30 4487 C 431.758 6.32542 2.13183 0
M  V30 4488 H 431.028 0.47721 0.566879 0
M  V30 4489 H 433.675 1.68325 0.913172 0
M  V30 4490 H 431.98 1.72085 3.51986 0
M  V30 4491 H 433.677 2.09846 3.4171 0
M  V30 4492 H 430.267 3.33518 2.69191 0
M  V30 4493 H 434.451 4.29443 2.48782 0
M  V30 4494 H 429.707 5.68672 2.24548 0
M  V30 4495 H 433.881 6.65487 2.05182 0
M  V30 4496 H 431.508 7.35412 1.92544 0
M  V30 4497 N 433.083 -1.0153 1.20538 0
M  V30 4498 C 434.013 -2.11972 0.979295 0
M  V30 4499 C 434.994 -1.6985 -0.0921787 0
M  V30 4500 O 436.179 -1.94089 0.0655932 0
M  V30 4501 C 433.309 -3.43201 0.531984 0
M  V30 4502 C 432.263 -3.9907 1.54685 0
M  V30 4503 C 431.589 -5.26082 0.956127 0
M  V30 4504 C 432.889 -4.32313 2.93092 0
M  V30 4505 H 434.583 -2.31143 1.90298 0
M  V30 4506 H 432.129 -1.11079 0.916372 0
M  V30 4507 H 434.082 -4.1985 0.361044 0
M  V30 4508 H 432.806 -3.23792 -0.427327 0
M  V30 4509 H 431.465 -3.2453 1.70517 0
M  V30 4510 H 431.113 -5.02999 -0.0111538 0
M  V30 4511 H 430.813 -5.64426 1.63393 0
M  V30 4512 H 432.337 -6.05386 0.796284 0
M  V30 4513 H 433.751 -4.99845 2.80763 0
M  V30 4514 H 432.148 -4.81774 3.57791 0
M  V30 4515 H 433.218 -3.41025 3.44717 0
M  V30 4516 N 434.561 -1.01147 -1.20859 0
M  V30 4517 C 435.524 -0.582224 -2.21682 0
M  V30 4518 C 436.524 0.344887 -1.57058 0
M  V30 4519 O 437.714 0.134281 -1.73682 0
M  V30 4520 C 434.846 0.150496 -3.40568 0
M  V30 4521 H 436.039 -1.47408 -2.61172 0
M  V30 4522 H 433.592 -0.800695 -1.34233 0
M  V30 4523 H 434.327 1.0575 -3.06574 0
M  V30 4524 H 434.112 -0.515444 -3.88697 0
M  V30 4525 H 435.602 0.438344 -4.15293 0
M  V30 4526 N 436.039 1.36541 -0.78704 0
M  V30 4527 C 437.288 1.98552 -0.35494 0
M  V30 4528 C 437.601 1.63171 1.07864 0
M  V30 4529 O 438.807 2.18399 1.61289 0
M  V30 4530 C 437.263 3.55136 -0.583671 0
M  V30 4531 C 436.871 3.99444 -2.02851 0
M  V30 4532 C 438.615 4.2395 -0.215957 0
M  V30 4533 C 436.522 5.48796 -2.20403 0
M  V30 4534 H 435.452 0.742888 -0.128972 0
M  V30 4535 H 438.103 1.5587 -0.968337 0
M  V30 4536 H 436.485 3.95875 0.0994046 0
M  V30 4537 H 437.659 3.6991 -2.74779 0
M  V30 4538 H 435.974 3.43459 -2.35425 0
M  V30 4539 H 438.571 5.33709 -0.325405 0
M  V30 4540 H 438.914 4.07827 0.835646 0
M  V30 4541 H 439.447 3.88565 -0.852175 0
M  V30 4542 H 436.186 5.69864 -3.23937 0
M  V30 4543 H 435.706 5.79964 -1.52977 0
M  V30 4544 H 437.385 6.14986 -2.01002 0
M  V30 4545 N 437.518 0.538854 1.48102 0
M  V30 4546 C 438.746 0.0123136 2.06896 0
M  V30 4547 C 439.161 -1.27312 1.39417 0
M  V30 4548 O 438.518 -1.75949 0.484582 0
M  V30 4549 C 438.569 -0.206118 3.60912 0
M  V30 4550 O 438.29 1.0284 4.25859 0
M  V30 4551 C 439.791 -0.772033 4.36526 0
M  V30 4552 H 437.011 0.0375239 0.66995 0
M  V30 4553 H 439.555 0.747032 1.90367 0
M  V30 4554 H 437.71 -0.89091 3.77017 0
M  V30 4555 H 438.124 0.814654 5.18135 0
M  V30 4556 H 439.598 -0.874251 5.45033 0
M  V30 4557 H 440.075 -1.77904 4.01555 0
M  V30 4558 H 440.681 -0.123526 4.25121 0
M  V30 4559 N 438.996 -1.55193 0.274407 0
M  V30 4560 C 440.224 -2.03987 -0.345943 0
M  V30 4561 C 440.639 -1.15279 -1.4952 0
M  V30 4562 O 439.996 -0.172759 -1.8168 0
M  V30 4563 C 440.047 -3.51898 -0.827631 0
M  V30 4564 O 439.768 -4.37231 0.275855 0
M  V30 4565 C 441.269 -4.16577 -1.51587 0
M  V30 4566 H 438.489 -0.666335 -0.0789892 0
M  V30 4567 H 441.033 -2.00423 0.406294 0
M  V30 4568 H 439.188 -3.55909 -1.52996 0
M  V30 4569 H 439.602 -5.24415 -0.0943638 0
M  V30 4570 H 441.076 -5.21678 -1.80433 0
M  V30 4571 H 441.553 -3.64707 -2.44716 0
M  V30 4572 H 442.159 -4.16568 -0.857409 0
M  V30 4573 N 440.474 -0.00167713 -1.576 0
M  V30 4574 C 441.751 0.719951 -1.81868 0
M  V30 4575 C 442.131 1.91895 -0.879747 0
M  V30 4576 O 441.479 2.28389 0.0711423 0
M  V30 4577 C 441.689 1.12409 -3.30402 0
M  V30 4578 C 443.037 1.52724 -3.96182 0
M  V30 4579 O 444.061 1.21784 -3.34734 0
M  V30 4580 O 442.92 2.10265 -5.04431 0
M  V30 4581 H 440.014 0.350707 -0.748955 0
M  V30 4582 H 442.56 -0.0272597 -1.69678 0
M  V30 4583 H 441.332 0.269532 -3.90371 0
M  V30 4584 H 440.955 1.93035 -3.47596 0
M  V30 4585 N 441.952 1.55251 0.271103 0
M  V30 4586 C 443.192 1.77698 1.01008 0
M  V30 4587 C 443.556 0.567246 1.83429 0
M  V30 4588 O 444.757 0.670013 2.60316 0
M  V30 4589 C 443.028 3.04715 1.86772 0
M  V30 4590 S 444.587 3.48289 2.66909 0
M  V30 4591 H 441.405 0.624343 0.340172 0
M  V30 4592 H 444.007 1.9348 0.280315 0
M  V30 4593 H 442.711 3.90853 1.25149 0
M  V30 4594 H 442.242 2.91604 2.64066 0
M  V30 4595 H 444.257 3.07712 3.89266 0
M  V30 4596 N 443.43 -0.535701 1.48216 0
M  V30 4597 C 444.36 -1.65014 1.65204 0
M  V30 4598 C 445.341 -1.62554 0.501011 0
M  V30 4599 O 446.526 -1.7984 0.732886 0
M  V30 4600 C 443.656 -3.03616 1.68626 0
M  V30 4601 C 442.61 -3.20932 2.83172 0
M  V30 4602 C 441.936 -4.60537 2.71679 0
M  V30 4603 C 443.236 -3.04249 4.24535 0
M  V30 4604 H 444.93 -1.51053 2.58502 0
M  V30 4605 H 442.476 -0.725262 1.24402 0
M  V30 4606 H 444.429 -3.81446 1.79099 0
M  V30 4607 H 443.153 -3.18587 0.719026 0
M  V30 4608 H 441.812 -2.45517 2.72244 0
M  V30 4609 H 441.46 -4.72336 1.72937 0
M  V30 4610 H 441.16 -4.73069 3.48538 0
M  V30 4611 H 442.684 -5.40475 2.84112 0
M  V30 4612 H 444.098 -3.71877 4.36326 0
M  V30 4613 H 442.495 -3.28278 5.02348 0
M  V30 4614 H 443.565 -2.00739 4.41397 0
M  V30 4615 N 444.908 -1.36708 -0.784132 0
M  V30 4616 C 445.84 -1.27333 -1.90575 0
M  V30 4617 C 446.853 -0.191706 -1.61667 0
M  V30 4618 O 448.042 -0.446854 -1.72816 0
M  V30 4619 C 445.142 -0.943177 -3.25511 0
M  V30 4620 C 444.315 -2.12776 -3.82158 0
M  V30 4621 C 443.374 -1.76983 -4.95544 0
M  V30 4622 O 442.4 -2.49134 -5.11782 0
M  V30 4623 N 443.602 -0.706624 -5.76183 0
M  V30 4624 H 446.367 -2.23974 -1.99138 0
M  V30 4625 H 443.928 -1.30171 -0.962656 0
M  V30 4626 H 445.92 -0.684799 -3.98864 0
M  V30 4627 H 444.49 -0.0657333 -3.12531 0
M  V30 4628 H 443.71 -2.54863 -3.0073 0
M  V30 4629 H 444.998 -2.91904 -4.16737 0
M  V30 4630 H 444.396 -0.107643 -5.65598 0
M  V30 4631 H 442.953 -0.50808 -6.49817 0
M  V30 4632 N 446.386 1.0089 -1.21074 0
M  V30 4633 C 447.635 1.74019 -1.01981 0
M  V30 4634 C 447.948 1.90408 0.447665 0
M  V30 4635 O 449.154 2.60707 0.757906 0
M  V30 4636 C 447.61 3.13026 -1.77603 0
M  V30 4637 C 447.218 3.04623 -3.28495 0
M  V30 4638 C 448.962 3.90312 -1.66904 0
M  V30 4639 C 446.869 4.38685 -3.96623 0
M  V30 4640 H 445.799 0.652422 -0.377971 0
M  V30 4641 H 448.45 1.12755 -1.44771 0
M  V30 4642 H 446.832 3.74878 -1.27604 0
M  V30 4643 H 448.006 2.52032 -3.85767 0
M  V30 4644 H 446.321 2.40827 -3.39693 0
M  V30 4645 H 448.918 4.8951 -2.15138 0
M  V30 4646 H 449.261 4.11558 -0.62658 0
M  V30 4647 H 449.794 3.35104 -2.14359 0
M  V30 4648 H 446.533 4.22641 -5.01054 0
M  V30 4649 H 446.053 4.91252 -3.4414 0
M  V30 4650 H 447.732 5.075 -4.01314 0
M  V30 4651 N 447.864 1.01787 1.20321 0
M  V30 4652 C 448.794 0.609625 2.25401 0
M  V30 4653 C 449.775 -0.375951 1.65893 0
M  V30 4654 O 450.96 -0.261101 1.92437 0
M  V30 4655 C 448.09 -0.0515995 3.47262 0
M  V30 4656 C 447.044 0.855095 4.19371 0
M  V30 4657 C 446.37 0.0595757 5.34667 0
M  V30 4658 C 447.67 2.16374 4.75373 0
M  V30 4659 H 449.364 1.48803 2.59804 0
M  V30 4660 H 446.91 0.716934 1.24884 0
M  V30 4661 H 448.863 -0.348764 4.19954 0
M  V30 4662 H 447.587 -0.964726 3.12027 0
M  V30 4663 H 446.246 1.13628 3.48546 0
M  V30 4664 H 445.894 -0.85524 4.95676 0
M  V30 4665 H 445.594 0.663406 5.83843 0
M  V30 4666 H 447.118 -0.231105 6.10162 0
M  V30 4667 H 448.532 1.92885 5.39878 0
M  V30 4668 H 446.929 2.71853 5.34991 0
M  V30 4669 H 447.999 2.82589 3.94045 0
M  V30 4670 N 449.342 -1.36122 0.79427 0
M  V30 4671 C 450.305 -2.28309 0.201889 0
M  V30 4672 C 451.305 -1.49041 -0.603603 0
M  V30 4673 O 452.495 -1.68964 -0.423888 0
M  V30 4674 C 449.627 -3.3321 -0.719978 0
M  V30 4675 H 450.82 -2.82208 1.01481 0
M  V30 4676 H 448.373 -1.45768 0.564037 0
M  V30 4677 H 449.108 -2.84475 -1.55706 0
M  V30 4678 H 448.893 -3.91835 -0.144266 0
M  V30 4679 H 450.383 -4.02044 -1.12916 0
M  V30 4680 N 450.82 -0.546701 -1.47814 0
M  V30 4681 C 452.05 -0.0232519 -2.06587 0
M  V30 4682 C 452.458 1.2712 -1.40133 0
M  V30 4683 O 451.801 1.77091 -0.488305 0
M  V30 4684 C 451.863 0.254117 -3.58601 0
M  V30 4685 C 451.527 -0.949331 -4.47031 0
M  V30 4686 C 452.524 -1.85216 -4.85789 0
M  V30 4687 C 450.209 -1.16104 -4.88697 0
M  V30 4688 C 452.203 -2.95047 -5.65001 0
M  V30 4689 C 449.89 -2.26247 -5.67676 0
M  V30 4690 C 450.888 -3.1555 -6.05737 0
M  V30 4691 O 450.576 -4.23784 -6.83127 0
M  V30 4692 H 450.308 -0.0380082 -0.674931 0
M  V30 4693 H 452.862 -0.756631 -1.90956 0
M  V30 4694 H 451.092 1.04168 -3.72406 0
M  V30 4695 H 452.781 0.72167 -3.99433 0
M  V30 4696 H 453.547 -1.70061 -4.54207 0
M  V30 4697 H 449.426 -0.475159 -4.58545 0
M  V30 4698 H 452.97 -3.64778 -5.94628 0
M  V30 4699 H 448.867 -2.41379 -5.98671 0
M  V30 4700 H 449.635 -4.21701 -7.01506 0
M  V30 4701 N 452.299 1.55045 -0.282633 0
M  V30 4702 C 453.547 1.99365 0.331334 0
M  V30 4703 C 453.868 1.1725 1.55812 0
M  V30 4704 O 453.138 0.263871 1.94115 0
M  V30 4705 H 451.718 0.736397 0.125414 0
M  V30 4706 H 454.38 1.90964 -0.389711 0
M  V30 4707 H 453.476 3.0596 0.616036 0
M  V30 4708 N 453.777 0.010035 1.57597 0
M  V30 4709 C 454.725 -0.996272 2.10184 0
M  V30 4710 C 455.719 -1.34942 1.02406 0
M  V30 4711 O 456.925 -1.33389 1.20861 0
M  V30 4712 H 453.3 -0.338982 0.671264 0
M  V30 4713 H 455.271 -0.527272 2.93705 0
M  V30 4714 C 454.02 -2.27599 2.62857 0
M  V30 4715 H 453.343 -2.01295 3.45428 0
M  V30 4716 H 454.783 -2.96265 3.0332 0
M  V30 4717 C 453.242 -2.99269 1.54725 0
M  V30 4718 O 453.772 -3.90644 0.93597 0
M  V30 4719 N 451.978 -2.61269 1.27228 0
M  V30 4720 H 451.525 -1.87043 1.77123 0
M  V30 4721 H 451.483 -3.09534 0.550999 0
M  V30 4722 N 455.255 -1.55392 -0.262866 0
M  V30 4723 C 456.187 -1.85392 -1.34768 0
M  V30 4724 C 457.2 -0.739069 -1.45057 0
M  V30 4725 O 458.389 -1.01703 -1.46693 0
M  V30 4726 C 455.489 -2.01088 -2.72795 0
M  V30 4727 C 454.662 -3.31828 -2.84972 0
M  V30 4728 C 453.721 -3.37464 -4.03738 0
M  V30 4729 O 452.747 -4.10778 -3.94018 0
M  V30 4730 N 453.949 -2.65599 -5.16176 0
M  V30 4731 H 456.714 -2.79029 -1.09375 0
M  V30 4732 H 454.275 -1.55434 -0.452981 0
M  V30 4733 H 456.267 -2.02217 -3.50557 0
M  V30 4734 H 454.837 -1.1427 -2.90966 0
M  V30 4735 H 454.057 -3.43152 -1.94012 0
M  V30 4736 H 455.345 -4.18032 -2.90045 0
M  V30 4737 H 454.743 -2.05736 -5.26962 0
M  V30 4738 H 453.3 -2.72439 -5.92132 0
M  V30 4739 N 456.733 0.527833 -1.48498 0
M  V30 4740 C 457.643 1.65907 -1.65867 0
M  V30 4741 C 458.659 1.6537 -0.541192 0
M  V30 4742 O 459.835 1.84282 -0.812534 0
M  V30 4743 C 456.9 3.02364 -1.69637 0
M  V30 4744 C 455.961 3.1374 -2.93028 0
M  V30 4745 C 455.194 4.43688 -2.96609 0
M  V30 4746 O 455.417 5.30913 -2.08538 0
M  V30 4747 O 454.351 4.59475 -3.88802 0
M  V30 4748 H 458.177 1.5419 -2.61647 0
M  V30 4749 H 455.762 0.701163 -1.31924 0
M  V30 4750 H 457.644 3.83515 -1.74625 0
M  V30 4751 H 456.319 3.14401 -0.770312 0
M  V30 4752 H 455.226 2.31877 -2.93571 0
M  V30 4753 H 456.559 3.06621 -3.85026 0
M  V30 4754 N 458.211 1.37122 0.776871 0
M  V30 4755 C 459.436 1.354 1.57104 0
M  V30 4756 C 459.861 -0.0595562 1.88006 0
M  V30 4757 O 459.219 -1.03514 1.48844 0
M  V30 4758 C 459.267 2.19472 2.8612 0
M  V30 4759 O 458.371 1.59582 3.80273 0
M  V30 4760 H 457.712 0.462869 0.476076 0
M  V30 4761 H 460.242 1.80577 0.961932 0
M  V30 4762 H 460.252 2.32502 3.35271 0
M  V30 4763 H 458.927 3.22222 2.62956 0
M  V30 4764 H 457.504 1.55564 3.38902 0
M  V30 4765 N 459.689 -1.00246 1.21608 0
M  V30 4766 C 460.636 -2.09073 0.977613 0
M  V30 4767 C 461.606 -1.65815 -0.097297 0
M  V30 4768 O 462.791 -1.90734 0.0503445 0
M  V30 4769 C 459.931 -3.40671 0.551133 0
M  V30 4770 C 459.044 -3.97326 1.69576 0
M  V30 4771 C 458.179 -5.17043 1.2182 0
M  V30 4772 C 457.218 -5.65813 2.335 0
M  V30 4773 N 456.355 -6.76778 1.86859 0
M  V30 4774 H 461.195 -2.28806 1.90924 0
M  V30 4775 H 458.732 -1.12186 0.951452 0
M  V30 4776 H 460.69 -4.16225 0.285097 0
M  V30 4777 H 459.32 -3.20967 -0.343489 0
M  V30 4778 H 458.372 -3.18734 2.07637 0
M  V30 4779 H 459.684 -4.29511 2.53617 0
M  V30 4780 H 458.838 -5.99852 0.908975 0
M  V30 4781 H 457.577 -4.86458 0.347869 0
M  V30 4782 H 456.582 -4.81599 2.65222 0
M  V30 4783 H 457.807 -5.98427 3.21033 0
M  V30 4784 H 455.753 -6.47994 1.02174 0
M  V30 4785 H 455.67 -7.08231 2.64471 0
M  V30 4786 H 456.938 -7.63116 1.58978 0
M  V30 4787 N 461.167 -1.02423 -1.1978 0
M  V30 4788 C 462.097 -0.62157 -2.25075 0
M  V30 4789 C 463.078 0.367148 -1.6609 0
M  V30 4790 O 464.263 0.250892 -1.92573 0
M  V30 4791 C 461.393 0.0331826 -3.47284 0
M  V30 4792 C 460.347 -0.877323 -4.18912 0
M  V30 4793 C 459.673 -0.0879296 -5.34628 0
M  V30 4794 C 460.973 -2.18892 -4.74219 0
M  V30 4795 H 462.667 -1.50179 -2.59011 0
M  V30 4796 H 460.213 -0.723547 -1.24502 0
M  V30 4797 H 462.166 0.326488 -4.20133 0
M  V30 4798 H 460.89 0.948164 -3.12534 0
M  V30 4799 H 459.549 -1.15475 -3.47938 0
M  V30 4800 H 459.197 0.828941 -4.96123 0
M  V30 4801 H 458.897 -0.694359 -5.83483 0
M  V30 4802 H 460.421 0.198743 -6.10276 0
M  V30 4803 H 461.835 -1.95746 -5.38847 0
M  V30 4804 H 460.232 -2.74686 -5.33542 0
M  V30 4805 H 461.302 -2.84674 -3.92541 0
M  V30 4806 N 462.645 1.35699 -0.801477 0
M  V30 4807 C 463.894 1.98165 -0.375979 0
M  V30 4808 C 464.207 1.64306 1.06127 0
M  V30 4809 O 465.413 2.20097 1.58964 0
M  V30 4810 C 463.869 3.54497 -0.621305 0
M  V30 4811 C 463.477 3.9727 -2.07076 0
M  V30 4812 C 465.221 4.23697 -0.26091 0
M  V30 4813 C 463.128 5.46427 -2.26211 0
M  V30 4814 H 462.058 0.741478 -0.136844 0
M  V30 4815 H 464.709 1.54834 -0.984814 0
M  V30 4816 H 463.091 3.95958 0.0574112 0
M  V30 4817 H 464.265 3.66974 -2.78687 0
M  V30 4818 H 462.58 3.40943 -2.39054 0
M  V30 4819 H 465.177 5.33334 -0.381994 0
M  V30 4820 H 465.52 4.0869 0.792344 0
M  V30 4821 H 466.053 3.87639 -0.893339 0
M  V30 4822 H 462.792 5.66396 -3.29963 0
M  V30 4823 H 462.312 5.78309 -1.59119 0
M  V30 4824 H 463.991 6.12819 -2.07513 0
M  V30 4825 N 464.123 0.554532 1.47522 0
M  V30 4826 C 465.372 0.0273458 2.01681 0
M  V30 4827 C 465.685 -1.32962 1.43459 0
M  V30 4828 O 466.891 -1.94657 1.89265 0
M  V30 4829 C 465.347 -0.00159057 3.599 0
M  V30 4830 C 464.955 1.35197 4.27113 0
M  V30 4831 C 466.699 -0.476311 4.21819 0
M  V30 4832 C 464.606 1.28229 5.77331 0
M  V30 4833 H 463.536 0.00645269 0.753972 0
M  V30 4834 H 466.187 0.701985 1.69542 0
M  V30 4835 H 464.569 -0.741821 3.8899 0
M  V30 4836 H 465.743 2.1097 4.09668 0
M  V30 4837 H 464.058 1.76441 3.77171 0
M  V30 4838 H 466.655 -0.5468 5.31897 0
M  V30 4839 H 466.998 -1.4877 3.8881 0
M  V30 4840 H 467.531 0.20898 3.97251 0
M  V30 4841 H 464.27 2.26959 6.14955 0
M  V30 4842 H 463.79 0.566314 5.97121 0
M  V30 4843 H 465.469 0.983226 6.39485 0
M  V30 4844 N 465.601 -1.54893 0.290851 0
M  V30 4845 C 466.531 -2.26103 -0.583084 0
M  V30 4846 C 467.512 -1.25684 -1.14619 0
M  V30 4847 O 468.697 -1.54436 -1.17741 0
M  V30 4848 C 465.827 -2.99409 -1.75987 0
M  V30 4849 C 464.781 -4.0689 -1.32758 0
M  V30 4850 C 464.107 -4.67856 -2.58872 0
M  V30 4851 C 465.407 -5.20215 -0.46624 0
M  V30 4852 H 467.101 -2.99398 0.0108214 0
M  V30 4853 H 464.647 -1.43998 0.00664468 0
M  V30 4854 H 466.6 -3.47943 -2.37727 0
M  V30 4855 H 465.324 -2.23675 -2.37985 0
M  V30 4856 H 463.983 -3.59191 -0.733299 0
M  V30 4857 H 463.631 -3.88772 -3.19163 0
M  V30 4858 H 463.331 -5.40438 -2.30653 0
M  V30 4859 H 464.855 -5.19147 -3.21433 0
M  V30 4860 H 466.269 -5.64704 -0.989047 0
M  V30 4861 H 464.666 -5.99455 -0.27826 0
M  V30 4862 H 465.736 -4.82198 0.511173 0
M  V30 4863 N 467.08 -0.0183926 -1.57589 0
M  V30 4864 C 468.043 0.951986 -2.08494 0
M  V30 4865 C 469.043 1.26092 -0.997874 0
M  V30 4866 O 470.233 1.20304 -1.25987 0
M  V30 4867 C 467.365 2.27165 -2.54182 0
M  V30 4868 H 468.558 0.511307 -2.95509 0
M  V30 4869 H 466.111 0.229444 -1.54607 0
M  V30 4870 H 466.846 2.75884 -1.70465 0
M  V30 4871 H 466.631 2.06057 -3.33591 0
M  V30 4872 H 468.121 2.9674 -2.93828 0
M  V30 4873 N 468.558 1.5553 0.254621 0
M  V30 4874 C 469.783 1.81383 1.00573 0
M  V30 4875 C 470.208 0.594419 1.78461 0
M  V30 4876 O 469.566 -0.456403 1.75461 0
M  V30 4877 C 469.614 3.04892 1.92545 0
M  V30 4878 O 468.718 2.81266 3.01601 0
M  V30 4879 H 468.059 0.598969 0.286587 0
M  V30 4880 H 470.589 2.02703 0.277952 0
M  V30 4881 H 470.599 3.34119 2.34155 0
M  V30 4882 H 469.274 3.93287 1.3527 0
M  V30 4883 H 467.851 2.63185 2.64174 0
M  V30 4884 N 470.036 -0.519951 1.48776 0
M  V30 4885 C 471.284 -1.2727 1.56993 0
M  V30 4886 C 471.605 -1.9339 0.25004 0
M  V30 4887 O 470.875 -1.81822 -0.729216 0
M  V30 4888 H 469.455 -0.472732 0.578389 0
M  V30 4889 H 472.117 -0.604234 1.85297 0
M  V30 4890 H 471.213 -2.04669 2.3562 0
M  V30 4891 N 471.514 -1.37532 -0.769588 0
M  V30 4892 C 472.762 -1.32597 -1.5252 0
M  V30 4893 C 473.083 0.0884294 -1.94799 0
M  V30 4894 O 472.353 1.03289 -1.66458 0
M  V30 4895 H 470.933 -0.487846 -0.565699 0
M  V30 4896 H 473.595 -1.72044 -0.915806 0
M  V30 4897 H 472.691 -1.96643 -2.42359 0
M  V30 4898 N 472.992 0.995999 -1.22138 0
M  V30 4899 C 474.403 1.54961 -1.04135 0
M  V30 4900 C 474.754 1.92159 0.396147 0
M  V30 4901 O 473.879 1.74435 1.28069 0
M  V30 4902 C 474.474 2.81581 -1.88408 0
M  V30 4903 C 473.033 3.33396 -1.74712 0
M  V30 4904 C 472.18 2.06509 -1.85066 0
M  V30 4905 H 475.131 0.817436 -1.36028 0
M  V30 4906 H 475.152 3.53822 -1.39966 0
M  V30 4907 H 474.664 2.54476 -2.93025 0
M  V30 4908 H 472.765 3.65416 -0.728159 0
M  V30 4909 H 472.878 4.04208 -2.57202 0
M  V30 4910 H 471.242 2.19925 -1.28472 0
M  V30 4911 H 472.025 1.81804 -2.91208 0
M  V30 4912 N 474.47 1.03057 1.19235 0
M  V30 4913 C 475.402 0.570932 2.21975 0
M  V30 4914 C 476.415 -0.354088 1.58903 0
M  V30 4915 O 477.604 -0.150211 1.77867 0
M  V30 4916 C 474.704 -0.187152 3.38383 0
M  V30 4917 C 473.877 0.743231 4.31039 0
M  V30 4918 C 472.936 0.0302493 5.26191 0
M  V30 4919 O 471.962 0.657371 5.65391 0
M  V30 4920 N 473.164 -1.23991 5.67104 0
M  V30 4921 H 475.929 1.45456 2.62036 0
M  V30 4922 H 473.49 0.909807 1.33918 0
M  V30 4923 H 475.482 -0.673715 3.99053 0
M  V30 4924 H 474.052 -0.972205 2.97098 0
M  V30 4925 H 473.272 1.40985 3.68126 0
M  V30 4926 H 474.56 1.3755 4.89854 0
M  V30 4927 H 473.958 -1.77011 5.37293 0
M  V30 4928 H 472.515 -1.67093 6.30018 0
M  V30 4929 N 475.948 -1.35272 0.808662 0
M  V30 4930 C 476.911 -2.28082 0.226093 0
M  V30 4931 C 477.911 -1.49673 -0.587762 0
M  V30 4932 O 479.101 -1.69404 -0.405943 0
M  V30 4933 C 476.233 -3.33955 -0.684596 0
M  V30 4934 H 477.426 -2.81116 1.04469 0
M  V30 4935 H 474.979 -1.45162 0.579466 0
M  V30 4936 H 475.714 -2.86111 -1.5268 0
M  V30 4937 H 475.499 -3.91965 -0.102699 0
M  V30 4938 H 476.989 -4.03219 -1.08646 0
M  V30 4939 N 477.426 -0.562348 -1.47226 0
M  V30 4940 C 478.356 0.170627 -2.32876 0
M  V30 4941 C 479.337 0.903748 -1.44106 0
M  V30 4942 O 480.522 0.883206 -1.72954 0
M  V30 4943 C 477.652 1.19786 -3.25989 0
M  V30 4944 C 476.606 0.580875 -4.2404 0
M  V30 4945 C 475.932 1.71311 -5.06514 0
M  V30 4946 C 477.232 -0.468714 -5.20193 0
M  V30 4947 H 478.926 -0.544441 -2.94408 0
M  V30 4948 H 476.472 -0.263271 -1.41573 0
M  V30 4949 H 478.425 1.71884 -3.84752 0
M  V30 4950 H 477.149 1.94294 -2.62521 0
M  V30 4951 H 475.808 0.0811538 -3.6651 0
M  V30 4952 H 475.456 2.44736 -4.39447 0
M  V30 4953 H 475.156 1.30604 -5.72902 0
M  V30 4954 H 476.68 2.23725 -5.68137 0
M  V30 4955 H 478.094 -0.0336028 -5.7329 0
M  V30 4956 H 476.491 -0.794957 -5.94811 0
M  V30 4957 H 477.561 -1.36269 -4.65359 0
M  V30 4958 N 478.904 1.54736 -0.299062 0
M  V30 4959 C 480.15 2.00397 0.311244 0
M  V30 4960 C 480.483 1.18716 1.53688 0
M  V30 4961 O 479.758 0.263154 1.92712 0
M  V30 4962 C 480.041 3.53817 0.669761 0
M  V30 4963 C 479.894 4.46239 -0.564882 0
M  V30 4964 C 481.213 4.13856 1.49702 0
M  V30 4965 H 478.332 0.728493 0.111653 0
M  V30 4966 H 480.974 1.85506 -0.410774 0
M  V30 4967 H 479.124 3.66637 1.28491 0
M  V30 4968 H 480.796 4.45328 -1.20337 0
M  V30 4969 H 479.039 4.16916 -1.19849 0
M  V30 4970 H 479.71 5.5134 -0.269918 0
M  V30 4971 H 482.186 4.04461 0.977284 0
M  V30 4972 H 481.062 5.21365 1.71666 0
M  V30 4973 H 481.323 3.65608 2.48563 0
M  V30 4974 N 480.382 0.0267497 1.57577 0
M  V30 4975 C 481.33 -0.973923 2.11229 0
M  V30 4976 C 482.324 -1.33849 1.03831 0
M  V30 4977 O 483.53 -1.321 1.22269 0
M  V30 4978 H 479.905 -0.331844 0.674821 0
M  V30 4979 H 481.876 -0.496092 2.94247 0
M  V30 4980 C 480.625 -2.24798 2.65257 0
M  V30 4981 H 479.948 -1.9762 3.47543 0
M  V30 4982 H 481.388 -2.93031 3.06445 0
M  V30 4983 C 479.847 -2.97611 1.57891 0
M  V30 4984 O 480.377 -3.89629 0.97735 0
M  V30 4985 N 478.583 -2.59905 1.29992 0
M  V30 4986 H 478.13 -1.85154 1.79097 0
M  V30 4987 H 478.088 -3.08932 0.583798 0
M  V30 4988 N 481.861 -1.55662 -0.24637 0
M  V30 4989 C 483.11 -1.7672 -0.972254 0
M  V30 4990 C 483.423 -0.59078 -1.86465 0
M  V30 4991 O 484.629 -0.684391 -2.62732 0
M  V30 4992 C 483.085 -3.12869 -1.7788 0
M  V30 4993 C 482.693 -4.38161 -0.933768 0
M  V30 4994 C 484.437 -3.43265 -2.49738 0
M  V30 4995 C 482.344 -5.6534 -1.73623 0
M  V30 4996 H 481.274 -0.658795 -0.366749 0
M  V30 4997 H 483.925 -1.82092 -0.226902 0
M  V30 4998 H 482.307 -3.01606 -2.56612 0
M  V30 4999 H 483.481 -4.60413 -0.188736 0
M  V30 5000 H 481.796 -4.15102 -0.328488 0
M  V30 5001 H 484.393 -4.35501 -3.10231 0
M  V30 5002 H 484.736 -2.64614 -3.2138 0
M  V30 5003 H 485.269 -3.55746 -1.78016 0
M  V30 5004 H 482.008 -6.46814 -1.06354 0
M  V30 5005 H 481.528 -5.47188 -2.45653 0
M  V30 5006 H 483.207 -6.04616 -2.30323 0
M  V30 5007 N 483.339 0.512053 -1.4905 0
M  V30 5008 C 484.272 1.63209 -1.59493 0
M  V30 5009 C 485.25 1.56407 -0.444481 0
M  V30 5010 O 486.434 1.76623 -0.658535 0
M  V30 5011 C 483.561 3.01685 -1.53961 0
M  V30 5012 C 482.607 3.26786 -2.74068 0
M  V30 5013 S 483.44 3.11107 -4.35859 0
M  V30 5014 C 484.596 4.51997 -4.32954 0
M  V30 5015 H 484.829 1.54104 -2.54243 0
M  V30 5016 H 482.362 0.696382 -1.37804 0
M  V30 5017 H 484.32 3.81538 -1.51455 0
M  V30 5018 H 482.981 3.08215 -0.605178 0
M  V30 5019 H 482.174 4.27849 -2.66386 0
M  V30 5020 H 481.776 2.54635 -2.73928 0
M  V30 5021 H 484.068 5.43871 -4.03993 0
M  V30 5022 H 485.011 4.64731 -5.34257 0
M  V30 5023 H 485.419 4.32159 -3.63178 0
M  V30 5024 N 484.817 1.37938 0.762283 0
M  V30 5025 C 486.233 1.18945 1.06415 0
M  V30 5026 C 486.433 0.0321163 2.01474 0
M  V30 5027 O 485.489 -0.624844 2.44647 0
M  V30 5028 C 486.802 2.51218 1.65258 0
M  V30 5029 C 488.35 2.57824 1.7747 0
M  V30 5030 C 488.825 3.90251 2.39725 0
M  V30 5031 N 490.316 3.91744 2.47166 0
M  V30 5032 C 491.051 4.90966 2.96209 0
M  V30 5033 N 490.547 6.00585 3.45354 0
M  V30 5034 N 492.34 4.78363 2.9517 0
M  V30 5035 H 484.491 2.11994 0.131301 0
M  V30 5036 H 486.754 0.940262 0.120879 0
M  V30 5037 H 486.46 3.36317 1.02878 0
M  V30 5038 H 486.334 2.68989 2.64433 0
M  V30 5039 H 488.721 1.73126 2.3898 0
M  V30 5040 H 488.802 2.43928 0.770241 0
M  V30 5041 H 488.446 4.75368 1.78852 0
M  V30 5042 H 488.376 4.01454 3.40796 0
M  V30 5043 H 490.867 3.12563 2.12397 0
M  V30 5044 H 491.18 6.72236 3.81207 0
M  V30 5045 H 489.525 6.04217 3.43434 0
M  V30 5046 H 492.716 3.91841 2.56082 0
M  V30 5047 H 492.889 5.55843 3.33081 0
M  V30 5048 N 486.295 -0.989507 1.22664 0
M  V30 5049 C 487.523 -1.76496 1.07967 0
M  V30 5050 C 487.938 -1.85148 -0.369543 0
M  V30 5051 O 487.295 -1.32408 -1.25596 0
M  V30 5052 C 487.346 -3.19642 1.68853 0
M  V30 5053 O 487.067 -3.11453 3.08105 0
M  V30 5054 C 488.568 -4.13621 1.59475 0
M  V30 5055 H 485.788 -0.55418 0.378319 0
M  V30 5056 H 488.332 -1.24378 1.62328 0
M  V30 5057 H 486.487 -3.68816 1.18547 0
M  V30 5058 H 486.901 -4.01499 3.37489 0
M  V30 5059 H 488.375 -5.11801 2.06795 0
M  V30 5060 H 488.852 -4.35718 0.55191 0
M  V30 5061 H 489.458 -3.70346 2.09103 0
M  V30 5062 N 487.773 -1.03688 -1.18687 0
M  V30 5063 C 489.003 -0.756819 -1.92239 0
M  V30 5064 C 489.411 0.689374 -1.76194 0
M  V30 5065 O 488.754 1.48126 -1.08648 0
M  V30 5066 C 488.816 -1.03851 -3.44173 0
M  V30 5067 C 488.48 -2.47785 -3.83994 0
M  V30 5068 C 489.477 -3.4595 -3.88091 0
M  V30 5069 C 487.162 -2.82397 -4.154 0
M  V30 5070 C 489.156 -4.76779 -4.23038 0
M  V30 5071 C 486.843 -4.13433 -4.50018 0
M  V30 5072 C 487.841 -5.10434 -4.53813 0
M  V30 5073 O 487.529 -6.39122 -4.87625 0
M  V30 5074 H 487.261 -0.275678 -0.617234 0
M  V30 5075 H 489.815 -1.38658 -1.51536 0
M  V30 5076 H 488.045 -0.351612 -3.85098 0
M  V30 5077 H 489.734 -0.746846 -3.9897 0
M  V30 5078 H 490.5 -3.20549 -3.63969 0
M  V30 5079 H 486.379 -2.07568 -4.11627 0
M  V30 5080 H 489.923 -5.52488 -4.25914 0
M  V30 5081 H 485.82 -4.38604 -4.736 0
M  V30 5082 H 486.588 -6.43715 -5.05542 0
M  V30 5083 N 489.251 1.34841 -0.815825 0
M  V30 5084 C 490.479 2.0273 -0.413294 0
M  V30 5085 C 490.894 1.61459 0.978599 0
M  V30 5086 O 490.251 0.816584 1.63212 0
M  V30 5087 C 490.302 3.58058 -0.497676 0
M  V30 5088 O 490.023 3.97832 -1.8347 0
M  V30 5089 C 491.524 4.4321 -0.0891339 0
M  V30 5090 H 488.744 0.649956 -0.166728 0
M  V30 5091 H 491.288 1.72267 -1.10201 0
M  V30 5092 H 489.443 3.87136 0.142886 0
M  V30 5093 H 489.857 4.92501 -1.80396 0
M  V30 5094 H 491.331 5.5164 -0.199274 0
M  V30 5095 H 491.808 4.28432 0.966571 0
M  V30 5096 H 492.414 4.19446 -0.703214 0
M  V30 5097 N 490.729 0.570148 1.46925 0
M  V30 5098 C 491.959 0.0561151 2.06524 0
M  V30 5099 C 492.367 -1.24874 1.42137 0
M  V30 5100 O 491.71 -1.76292 0.516417 0
M  V30 5101 C 491.772 -0.197035 3.5896 0
M  V30 5102 C 491.436 1.02033 4.45464 0
M  V30 5103 C 492.433 1.92921 4.82781 0
M  V30 5104 C 490.118 1.23864 4.86788 0
M  V30 5105 C 492.112 3.03999 5.60235 0
M  V30 5106 C 489.799 2.35249 5.64004 0
M  V30 5107 C 490.797 3.25146 6.0064 0
M  V30 5108 O 490.485 4.34598 6.76299 0
M  V30 5109 H 490.217 0.0487409 0.674241 0
M  V30 5110 H 492.771 0.786915 1.89728 0
M  V30 5111 H 491.001 -0.982299 3.74016 0
M  V30 5112 H 492.69 -0.658032 4.00531 0
M  V30 5113 H 493.456 1.77265 4.51444 0
M  V30 5114 H 489.335 0.54805 4.57731 0
M  V30 5115 H 492.879 3.74192 5.8875 0
M  V30 5116 H 488.776 2.50873 5.94755 0
M  V30 5117 H 489.544 4.32808 6.94708 0
M  V30 5118 N 492.207 -1.54576 0.307264 0
M  V30 5119 C 493.117 -2.27435 -0.57536 0
M  V30 5120 C 494.133 -1.31183 -1.14311 0
M  V30 5121 O 495.309 -1.64175 -1.16656 0
M  V30 5122 C 492.374 -3.00566 -1.72803 0
M  V30 5123 C 491.435 -4.12369 -1.19373 0
M  V30 5124 C 490.668 -4.82003 -2.29147 0
M  V30 5125 O 490.891 -4.51038 -3.49171 0
M  V30 5126 O 489.825 -5.69271 -1.95485 0
M  V30 5127 H 493.651 -3.03696 0.0158558 0
M  V30 5128 H 491.236 -1.49219 0.0735064 0
M  V30 5129 H 493.118 -3.46416 -2.39946 0
M  V30 5130 H 491.793 -2.27195 -2.30574 0
M  V30 5131 H 490.7 -3.70905 -0.487851 0
M  V30 5132 H 492.033 -4.87736 -0.661376 0
M  V30 5133 N 493.685 -0.035106 -1.57561 0
M  V30 5134 C 494.632 0.94474 -2.10578 0
M  V30 5135 C 495.602 1.3192 -1.00927 0
M  V30 5136 O 496.787 1.41147 -1.28382 0
M  V30 5137 C 493.927 2.21982 -2.64231 0
M  V30 5138 C 493.04 1.90128 -3.87911 0
M  V30 5139 C 492.175 3.11975 -4.29936 0
M  V30 5140 C 491.214 2.75968 -5.46359 0
M  V30 5141 N 490.351 3.90459 -5.83512 0
M  V30 5142 H 495.191 0.485717 -2.94015 0
M  V30 5143 H 492.728 0.228143 -1.4532 0
M  V30 5144 H 494.686 2.96572 -2.9343 0
M  V30 5145 H 493.316 2.6549 -1.83616 0
M  V30 5146 H 492.368 1.05755 -3.65404 0
M  V30 5147 H 493.68 1.59613 -4.72573 0
M  V30 5148 H 492.834 3.9488 -4.60603 0
M  V30 5149 H 491.573 3.45657 -3.44053 0
M  V30 5150 H 490.578 1.91478 -5.1538 0
M  V30 5151 H 491.803 2.43497 -6.33945 0
M  V30 5152 H 489.749 4.23971 -5.00584 0
M  V30 5153 H 489.666 3.63588 -6.62827 0
M  V30 5154 H 490.934 4.7405 -6.18787 0
M  V30 5155 N 495.163 1.55791 0.238111 0
M  V30 5156 C 496.093 1.94068 1.29846 0
M  V30 5157 C 497.074 0.806726 1.49753 0
M  V30 5158 O 498.259 1.06772 1.62214 0
M  V30 5159 C 495.389 2.24302 2.65153 0
M  V30 5160 C 494.343 3.40032 2.59927 0
M  V30 5161 C 493.669 3.55829 3.99111 0
M  V30 5162 C 494.969 4.75476 2.16148 0
M  V30 5163 H 496.663 2.82887 0.980563 0
M  V30 5164 H 494.209 1.36105 0.470253 0
M  V30 5165 H 496.162 2.4967 3.39475 0
M  V30 5166 H 494.886 1.32318 2.98596 0
M  V30 5167 H 493.545 3.14687 1.88063 0
M  V30 5168 H 493.193 2.6125 4.29834 0
M  V30 5169 H 492.893 4.3366 3.96501 0
M  V30 5170 H 494.417 3.83528 4.7512 0
M  V30 5171 H 495.831 5.00158 2.80205 0
M  V30 5172 H 494.228 5.56472 2.24631 0
M  V30 5173 H 495.298 4.71946 1.11333 0
M  V30 5174 N 496.642 -0.504142 1.49319 0
M  V30 5175 C 497.572 -1.61473 1.68667 0
M  V30 5176 C 498.553 -1.61455 0.535378 0
M  V30 5177 O 499.738 -1.78245 0.770868 0
M  V30 5178 C 496.868 -2.99971 1.75028 0
M  V30 5179 C 495.822 -3.14854 2.89916 0
M  V30 5180 C 495.148 -4.54671 2.81387 0
M  V30 5181 C 496.448 -2.95176 4.30893 0
M  V30 5182 H 498.142 -1.45535 2.61648 0
M  V30 5183 H 495.688 -0.698711 1.25913 0
M  V30 5184 H 497.641 -3.77562 1.8715 0
M  V30 5185 H 496.365 -3.1699 0.786441 0
M  V30 5186 H 495.024 -2.39687 2.77391 0
M  V30 5187 H 494.672 -4.68562 1.82917 0
M  V30 5188 H 494.372 -4.6557 3.58494 0
M  V30 5189 H 495.896 -5.34327 2.95512 0
M  V30 5190 H 497.31 -3.62538 4.44116 0
M  V30 5191 H 495.707 -3.17549 5.09198 0
M  V30 5192 H 496.777 -1.91332 4.45556 0
M  V30 5193 N 498.12 -1.38341 -0.754957 0
M  V30 5194 C 499.366 -1.35678 -1.51536 0
M  V30 5195 C 499.721 0.0533985 -1.92326 0
M  V30 5196 O 499.014 1.01573 -1.6246 0
M  V30 5197 C 499.208 -2.2452 -2.78075 0
M  V30 5198 C 499.037 -3.74035 -2.49655 0
M  V30 5199 C 497.807 -4.43066 -2.42942 0
M  V30 5200 C 500.005 -4.665 -2.16523 0
M  V30 5201 N 497.987 -5.78026 -2.06783 0
M  V30 5202 C 499.358 -5.89962 -1.90644 0
M  V30 5203 C 501.413 -4.54718 -2.02821 0
M  V30 5204 C 500.116 -7.0296 -1.52444 0
M  V30 5205 C 502.142 -5.67618 -1.66023 0
M  V30 5206 C 501.504 -6.90141 -1.41015 0
M  V30 5207 H 497.603 -0.551764 -0.554148 0
M  V30 5208 H 500.187 -1.73716 -0.879258 0
M  V30 5209 H 498.358 -1.88673 -3.39496 0
M  V30 5210 H 500.09 -2.12993 -3.44116 0
M  V30 5211 H 496.845 -3.96264 -2.59367 0
M  V30 5212 H 497.269 -6.49394 -1.91353 0
M  V30 5213 H 501.911 -3.60546 -2.20831 0
M  V30 5214 H 499.629 -7.97051 -1.33174 0
M  V30 5215 H 503.215 -5.6048 -1.56055 0
M  V30 5216 H 502.095 -7.76021 -1.12965 0
M  V30 5217 N 499.598 0.982988 -1.23187 0
M  V30 5218 C 500.826 1.75921 -1.08901 0
M  V30 5219 C 501.241 1.85341 0.359719 0
M  V30 5220 O 500.598 1.33072 1.24892 0
M  V30 5221 C 500.649 3.18742 -1.70545 0
M  V30 5222 O 500.37 3.09814 -3.09753 0
M  V30 5223 C 501.871 4.1277 -1.61667 0
M  V30 5224 H 499.091 0.552166 -0.381252 0
M  V30 5225 H 501.635 1.23516 -1.62985 0
M  V30 5226 H 499.79 3.68182 -1.20501 0
M  V30 5227 H 500.204 3.99703 -3.39614 0
M  V30 5228 H 501.678 5.10697 -2.09506 0
M  V30 5229 H 502.155 4.3542 -0.575009 0
M  V30 5230 H 502.761 3.69232 -2.11064 0
M  V30 5231 N 501.076 1.04316 1.18135 0
M  V30 5232 C 502.304 0.768117 1.92113 0
M  V30 5233 C 502.719 -0.675057 1.76319 0
M  V30 5234 O 502.076 -1.46038 1.09449 0
M  V30 5235 C 502.127 1.12808 3.43448 0
M  V30 5236 O 501.848 2.5146 3.58747 0
M  V30 5237 C 503.349 0.8779 4.3452 0
M  V30 5238 H 500.569 0.279937 0.609817 0
M  V30 5239 H 503.113 1.39149 1.49859 0
M  V30 5240 H 501.268 0.549623 3.83481 0
M  V30 5241 H 501.682 2.65313 4.52448 0
M  V30 5242 H 503.156 1.17959 5.39249 0
M  V30 5243 H 503.633 -0.187239 4.38801 0
M  V30 5244 H 504.239 1.43977 4.00188 0
M  V30 5245 N 502.554 -1.34406 0.822964 0
M  V30 5246 C 503.779 -2.0304 0.423034 0
M  V30 5247 C 504.204 -1.61568 -0.963196 0
M  V30 5248 O 503.562 -0.800339 -1.62678 0
M  V30 5249 C 503.61 -3.56636 0.53321 0
M  V30 5250 O 502.714 -4.09971 -0.446939 0
M  V30 5251 H 502.055 -0.64075 0.174171 0
M  V30 5252 H 504.585 -1.71653 1.11339 0
M  V30 5253 H 504.595 -4.05945 0.408991 0
M  V30 5254 H 503.27 -3.86168 1.54425 0
M  V30 5255 H 501.847 -3.71835 -0.281601 0
M  V30 5256 N 504.032 -0.577932 -1.46621 0
M  V30 5257 C 505.448 -0.239242 -1.57797 0
M  V30 5258 C 505.648 1.25843 -1.57371 0
M  V30 5259 O 504.704 2.03988 -1.48813 0
M  V30 5260 C 506.017 -0.884227 -2.87405 0
M  V30 5261 C 507.565 -0.857373 -3.01028 0
M  V30 5262 C 508.04 -1.48181 -4.33366 0
M  V30 5263 N 509.531 -1.44593 -4.40053 0
M  V30 5264 C 510.266 -1.89852 -5.41058 0
M  V30 5265 N 509.762 -2.43062 -6.48762 0
M  V30 5266 N 511.555 -1.80797 -5.3223 0
M  V30 5267 H 503.706 -1.55073 -1.45142 0
M  V30 5268 H 505.969 -0.647903 -0.692044 0
M  V30 5269 H 505.675 -1.93759 -2.93514 0
M  V30 5270 H 505.549 -0.389585 -3.75183 0
M  V30 5271 H 507.936 0.187357 -2.94505 0
M  V30 5272 H 508.017 -1.38999 -2.14739 0
M  V30 5273 H 507.661 -2.52572 -4.40647 0
M  V30 5274 H 507.591 -0.924464 -5.18422 0
M  V30 5275 H 510.082 -1.05694 -3.62819 0
M  V30 5276 H 510.395 -2.75466 -7.22038 0
M  V30 5277 H 508.74 -2.47085 -6.49595 0
M  V30 5278 H 511.931 -1.38989 -4.46989 0
M  V30 5279 H 512.104 -2.16385 -6.10804 0
M  V30 5280 N 505.51 1.54411 -0.315457 0
M  V30 5281 C 506.756 2.00716 0.289972 0
M  V30 5282 C 507.089 1.2034 1.5242 0
M  V30 5283 O 506.364 0.283579 1.92422 0
M  V30 5284 C 506.647 3.54507 0.632196 0
M  V30 5285 C 506.5 4.45615 -0.61218 0
M  V30 5286 C 507.819 4.15421 1.45305 0
M  V30 5287 H 504.938 0.729637 0.10392 0
M  V30 5288 H 507.58 1.8506 -0.430427 0
M  V30 5289 H 505.73 3.67979 1.24595 0
M  V30 5290 H 507.402 4.44026 -1.25053 0
M  V30 5291 H 505.645 4.15621 -1.24264 0
M  V30 5292 H 506.316 5.51022 -0.328379 0
M  V30 5293 H 508.792 4.05474 0.934331 0
M  V30 5294 H 507.668 5.23157 1.66127 0
M  V30 5295 H 507.929 3.68223 2.44671 0
M  V30 5296 N 506.988 0.0434614 1.5754 0
M  V30 5297 C 507.918 -0.931651 2.14109 0
M  V30 5298 C 508.899 -1.32971 1.06079 0
M  V30 5299 O 510.084 -1.40579 1.33982 0
M  V30 5300 C 507.214 -2.20914 2.67982 0
M  V30 5301 C 506.168 -1.95139 3.80926 0
M  V30 5302 C 505.494 -3.29276 4.21285 0
M  V30 5303 C 506.794 -1.27913 5.06395 0
M  V30 5304 H 508.488 -0.460497 2.95837 0
M  V30 5305 H 506.034 -0.220058 1.42309 0
M  V30 5306 H 507.987 -2.89522 3.06194 0
M  V30 5307 H 506.711 -2.70221 1.83434 0
M  V30 5308 H 505.37 -1.28945 3.43175 0
M  V30 5309 H 505.018 -3.76369 3.33699 0
M  V30 5310 H 504.718 -3.12831 4.97404 0
M  V30 5311 H 506.242 -3.99129 4.62091 0
M  V30 5312 H 507.656 -1.86544 5.42102 0
M  V30 5313 H 506.053 -1.2182 5.87605 0
M  V30 5314 H 507.123 -0.254066 4.84234 0
M  V30 5315 N 508.466 -1.55915 -0.229846 0
M  V30 5316 C 509.413 -1.91734 -1.28478 0
M  V30 5317 C 510.383 -0.773539 -1.46988 0
M  V30 5318 O 511.568 -1.02871 -1.60693 0
M  V30 5319 C 508.708 -2.23224 -2.63182 0
M  V30 5320 C 507.821 -3.50497 -2.52539 0
M  V30 5321 C 506.956 -3.71474 -3.79711 0
M  V30 5322 C 505.995 -4.92289 -3.63755 0
M  V30 5323 N 505.132 -5.09698 -4.82858 0
M  V30 5324 H 509.972 -2.81692 -0.972308 0
M  V30 5325 H 507.509 -1.39429 -0.468815 0
M  V30 5326 H 509.467 -2.3949 -3.41614 0
M  V30 5327 H 508.097 -1.36451 -2.92542 0
M  V30 5328 H 507.149 -3.4247 -1.65585 0
M  V30 5329 H 508.461 -4.39079 -2.36666 0
M  V30 5330 H 507.615 -3.87791 -4.66586 0
M  V30 5331 H 506.354 -2.81157 -3.985 0
M  V30 5332 H 505.359 -4.7593 -2.75264 0
M  V30 5333 H 506.584 -5.84083 -3.46445 0
M  V30 5334 H 504.53 -4.22322 -5.01976 0
M  V30 5335 H 504.447 -5.92399 -4.69681 0
M  V30 5336 H 505.715 -5.30443 -5.71183 0
M  V30 5337 N 509.944 0.496216 -1.49584 0
M  V30 5338 C 511.19 1.25189 -1.59548 0
M  V30 5339 C 511.523 1.9212 -0.283466 0
M  V30 5340 O 510.798 1.80947 0.713324 0
M  V30 5341 C 511.081 2.31516 -2.75812 0
M  V30 5342 C 510.934 1.69054 -4.16822 0
M  V30 5343 C 512.253 3.3304 -2.87702 0
M  V30 5344 H 509.372 0.45379 -0.580727 0
M  V30 5345 H 512.014 0.549327 -1.81886 0
M  V30 5346 H 510.164 2.91438 -2.56897 0
M  V30 5347 H 511.836 1.12923 -4.47265 0
M  V30 5348 H 510.079 0.994485 -4.22247 0
M  V30 5349 H 510.75 2.462 -4.94054 0
M  V30 5350 H 513.226 2.83114 -3.04936 0
M  V30 5351 H 512.102 4.04794 -3.7072 0
M  V30 5352 H 512.363 3.95655 -1.97255 0
M  V30 5353 N 511.423 1.38739 0.74761 0
M  V30 5354 C 512.353 1.39173 1.87492 0
M  V30 5355 C 513.334 0.256794 1.6815 0
M  V30 5356 O 514.519 0.460762 1.88655 0
M  V30 5357 C 511.649 1.22197 3.25093 0
M  V30 5358 C 510.603 2.32957 3.59047 0
M  V30 5359 C 509.929 2.01082 4.95449 0
M  V30 5360 C 511.229 3.75237 3.6331 0
M  V30 5361 H 512.923 2.3351 1.87386 0
M  V30 5362 H 510.469 1.12399 0.900134 0
M  V30 5363 H 512.422 1.21124 4.03617 0
M  V30 5364 H 511.146 0.243241 3.25693 0
M  V30 5365 H 509.805 2.33226 2.82845 0
M  V30 5366 H 509.453 1.01678 4.92616 0
M  V30 5367 H 509.153 2.75267 5.19136 0
M  V30 5368 H 510.677 2.01638 5.76346 0
M  V30 5369 H 512.091 3.76966 4.31937 0
M  V30 5370 H 510.488 4.48677 3.98509 0
M  V30 5371 H 511.558 4.07122 2.634 0
M  V30 5372 N 512.901 -0.976442 1.23707 0
M  V30 5373 C 514.126 -1.75875 1.09922 0
M  V30 5374 C 514.551 -1.84911 -0.34489 0
M  V30 5375 O 513.909 -1.31363 -1.24954 0
M  V30 5376 C 513.957 -3.16179 1.73388 0
M  V30 5377 O 513.061 -4.00124 0.99871 0
M  V30 5378 H 512.402 -0.540954 0.385052 0
M  V30 5379 H 514.932 -1.22546 1.6384 0
M  V30 5380 H 514.942 -3.66741 1.78788 0
M  V30 5381 H 513.617 -3.08917 2.78466 0
M  V30 5382 H 512.194 -3.58624 1.02193 0
M  V30 5383 N 514.379 -1.04941 -1.1758 0
M  V30 5384 C 515.625 -0.759112 -1.88057 0
M  V30 5385 C 515.958 0.711918 -1.8068 0
M  V30 5386 O 515.233 1.52035 -1.21308 0
M  V30 5387 C 515.516 -1.237 -3.38187 0
M  V30 5388 C 515.369 -2.77078 -3.54327 0
M  V30 5389 C 516.688 -0.834014 -4.32125 0
M  V30 5390 H 513.807 -0.277237 -0.682868 0
M  V30 5391 H 516.449 -1.30296 -1.38286 0
M  V30 5392 H 514.599 -0.774337 -3.80705 0
M  V30 5393 H 516.271 -3.31449 -3.20842 0
M  V30 5394 H 514.514 -3.16477 -2.96689 0
M  V30 5395 H 515.185 -3.05577 -4.59703 0
M  V30 5396 H 517.661 -1.23228 -3.97434 0
M  V30 5397 H 516.537 -1.19603 -5.35711 0
M  V30 5398 H 516.798 0.262195 -4.41322 0
M  V30 5399 N 515.857 1.33968 -0.830081 0
M  V30 5400 C 517.097 1.99879 -0.427521 0
M  V30 5401 C 517.461 1.64355 0.992546 0
M  V30 5402 O 518.662 2.23164 1.49837 0
M  V30 5403 C 516.933 3.51771 -0.631815 0
M  V30 5404 S 518.492 4.37608 -0.323168 0
M  V30 5405 H 515.31 0.692485 -0.161202 0
M  V30 5406 H 517.912 1.63129 -1.07745 0
M  V30 5407 H 516.616 3.75113 -1.66488 0
M  V30 5408 H 516.147 3.93386 0.0325936 0
M  V30 5409 H 518.162 4.88683 0.860432 0
M  V30 5410 N 517.335 0.585699 1.46312 0
M  V30 5411 C 518.56 0.0762461 2.0726 0
M  V30 5412 C 518.985 -1.22071 1.43109 0
M  V30 5413 O 518.343 -1.73804 0.515942 0
M  V30 5414 C 518.391 -0.0729404 3.60526 0
M  V30 5415 O 517.495 -1.1287 3.96654 0
M  V30 5416 H 516.836 0.0641558 0.660893 0
M  V30 5417 H 519.366 0.809492 1.87905 0
M  V30 5418 H 519.376 -0.278158 4.07051 0
M  V30 5419 H 518.051 0.874188 4.06609 0
M  V30 5420 H 516.628 -0.901703 3.61834 0
M  V30 5421 N 518.813 -1.54241 0.323641 0
M  V30 5422 C 520.038 -2.05452 -0.283605 0
M  V30 5423 C 520.463 -1.19823 -1.44997 0
M  V30 5424 O 519.821 -0.207358 -1.8011 0
M  V30 5425 C 519.869 -3.53823 -0.695795 0
M  V30 5426 O 518.973 -3.71134 -1.79815 0
M  V30 5427 H 518.314 -0.662024 -0.0511917 0
M  V30 5428 H 520.844 -1.99079 0.472073 0
M  V30 5429 H 520.854 -3.96094 -0.978434 0
M  V30 5430 H 519.529 -4.15602 0.157287 0
M  V30 5431 H 518.106 -3.40768 -1.51431 0
M  V30 5432 N 520.291 -0.0518155 -1.57515 0
M  V30 5433 C 521.239 0.940195 -2.12751 0
M  V30 5434 C 522.233 1.3218 -1.05948 0
M  V30 5435 O 523.439 1.30138 -1.24355 0
M  V30 5436 H 519.814 0.321066 -0.680015 0
M  V30 5437 H 521.785 0.449217 -2.94999 0
M  V30 5438 C 520.534 2.2055 -2.68799 0
M  V30 5439 H 519.857 1.92066 -3.50643 0
M  V30 5440 H 521.297 2.88119 -3.11068 0
M  V30 5441 C 519.756 2.95061 -1.62605 0
M  V30 5442 O 520.286 3.88025 -1.03921 0
M  V30 5443 N 518.492 2.57804 -1.34111 0
M  V30 5444 H 518.039 1.82281 -1.8202 0
M  V30 5445 H 517.997 3.07964 -0.632872 0
M  V30 5446 N 521.769 1.56035 0.221574 0
M  V30 5447 C 522.716 1.92413 1.27459 0
M  V30 5448 C 523.686 0.781323 1.46576 0
M  V30 5449 O 524.871 1.03721 1.60145 0
M  V30 5450 C 522.011 2.24617 2.61995 0
M  V30 5451 C 521.124 3.51831 2.50677 0
M  V30 5452 C 520.259 3.73482 3.77736 0
M  V30 5453 C 519.298 4.94211 3.6114 0
M  V30 5454 N 518.435 5.12252 4.80148 0
M  V30 5455 H 523.275 2.82203 0.957355 0
M  V30 5456 H 520.812 1.39676 0.461415 0
M  V30 5457 H 522.77 2.41298 3.40339 0
M  V30 5458 H 521.4 1.38 2.91815 0
M  V30 5459 H 520.452 3.43343 1.63767 0
M  V30 5460 H 521.764 4.40328 2.34334 0
M  V30 5461 H 520.918 3.9026 4.64523 0
M  V30 5462 H 519.657 2.83266 3.97003 0
M  V30 5463 H 518.662 4.77384 2.72736 0
M  V30 5464 H 519.887 5.85912 3.43343 0
M  V30 5465 H 517.833 4.24978 4.99729 0
M  V30 5466 H 517.75 5.94881 4.66532 0
M  V30 5467 H 519.018 5.33465 5.68362 0
M  V30 5468 N 523.247 -0.488276 1.49845 0
M  V30 5469 C 524.658 -1.06955 1.53028 0
M  V30 5470 C 525.009 -1.9351 0.323797 0
M  V30 5471 O 524.134 -2.08891 -0.565116 0
M  V30 5472 C 524.729 -1.94643 2.77307 0
M  V30 5473 C 523.288 -2.4791 2.83227 0
M  V30 5474 C 522.435 -1.25833 2.47106 0
M  V30 5475 H 525.386 -0.271626 1.56358 0
M  V30 5476 H 525.407 -2.79496 2.5819 0
M  V30 5477 H 524.919 -1.31621 3.65099 0
M  V30 5478 H 523.02 -3.14535 1.99745 0
M  V30 5479 H 523.133 -2.84193 3.85709 0
M  V30 5480 H 521.497 -1.58764 1.99163 0
M  V30 5481 H 522.28 -0.644993 3.37186 0
M  V30 5482 N 524.725 -1.39134 -0.740242 0
M  V30 5483 C 525.688 -1.37217 -1.83587 0
M  V30 5484 C 526.688 -0.270221 -1.58513 0
M  V30 5485 O 527.878 -0.527843 -1.6601 0
M  V30 5486 C 525.01 -1.13959 -3.21288 0
M  V30 5487 H 526.203 -2.34705 -1.86691 0
M  V30 5488 H 523.756 -1.24622 -0.94335 0
M  V30 5489 H 524.491 -0.17131 -3.23847 0
M  V30 5490 H 524.276 -1.93754 -3.40884 0
M  V30 5491 H 525.766 -1.15346 -4.01354 0
M  V30 5492 N 526.204 0.969867 -1.24223 0
M  V30 5493 C 527.453 1.70687 -1.07466 0
M  V30 5494 C 527.766 1.91736 0.386861 0
M  V30 5495 O 528.972 2.62986 0.674581 0
M  V30 5496 C 527.428 3.07217 -1.87472 0
M  V30 5497 C 527.036 2.94018 -3.3802 0
M  V30 5498 C 528.78 3.84804 -1.79237 0
M  V30 5499 C 526.687 4.25844 -4.10379 0
M  V30 5500 H 525.617 0.640067 -0.398536 0
M  V30 5501 H 528.268 1.08092 -1.48285 0
M  V30 5502 H 526.65 3.70628 -1.39466 0
M  V30 5503 H 527.824 2.39632 -3.9359 0
M  V30 5504 H 526.139 2.29898 -3.47183 0
M  V30 5505 H 528.736 4.82417 -2.30603 0
M  V30 5506 H 529.079 4.09356 -0.757197 0
M  V30 5507 H 529.612 3.28115 -2.24912 0
M  V30 5508 H 526.351 4.06486 -5.14246 0
M  V30 5509 H 525.871 4.80054 -3.59594 0
M  V30 5510 H 527.55 4.94475 -4.17257 0
M  V30 5511 N 527.682 1.05563 1.17022 0
M  V30 5512 C 528.928 0.769074 1.87652 0
M  V30 5513 C 529.261 -0.702326 1.81055 0
M  V30 5514 O 528.536 -1.5139 1.22112 0
M  V30 5515 C 528.819 1.25492 3.37526 0
M  V30 5516 C 528.672 2.78953 3.52853 0
M  V30 5517 C 529.991 0.856919 4.31677 0
M  V30 5518 H 527.11 0.280854 0.681388 0
M  V30 5519 H 529.752 1.31027 1.37593 0
M  V30 5520 H 527.902 0.794516 3.80289 0
M  V30 5521 H 529.574 3.33146 3.19079 0
M  V30 5522 H 527.817 3.18046 2.95007 0
M  V30 5523 H 528.488 3.08011 4.58076 0
M  V30 5524 H 530.964 1.25334 3.96775 0
M  V30 5525 H 529.84 1.22443 5.35069 0
M  V30 5526 H 530.101 -0.238787 4.41455 0
M  V30 5527 N 529.16 -1.33526 0.837174 0
M  V30 5528 C 530.07 -2.33023 0.271568 0
M  V30 5529 C 531.086 -1.63272 -0.601514 0
M  V30 5530 O 532.262 -1.94939 -0.506038 0
M  V30 5531 C 529.327 -3.42382 -0.545448 0
M  V30 5532 C 528.388 -4.27857 0.351709 0
M  V30 5533 C 527.621 -5.31994 -0.426409 0
M  V30 5534 O 527.844 -5.45763 -1.65828 0
M  V30 5535 O 526.778 -6.01572 0.1987 0
M  V30 5536 H 530.604 -2.83256 1.09545 0
M  V30 5537 H 528.189 -1.36837 0.599655 0
M  V30 5538 H 530.071 -4.09122 -1.00979 0
M  V30 5539 H 528.746 -2.94369 -1.34641 0
M  V30 5540 H 527.653 -3.6399 0.863853 0
M  V30 5541 H 528.986 -4.79349 1.1174 0
M  V30 5542 N 530.638 -0.59345 -1.46 0
M  V30 5543 C 531.601 0.123538 -2.28867 0
M  V30 5544 C 532.601 0.808628 -1.38989 0
M  V30 5545 O 533.791 0.658945 -1.61256 0
M  V30 5546 C 530.923 1.1847 -3.19653 0
M  V30 5547 H 532.116 -0.604843 -2.93737 0
M  V30 5548 H 529.669 -0.351875 -1.52288 0
M  V30 5549 H 530.404 1.94431 -2.59552 0
M  V30 5550 H 530.189 0.69783 -3.8584 0
M  V30 5551 H 531.679 1.68726 -3.81997 0
M  V30 5552 N 532.116 1.54067 -0.331816 0
M  V30 5553 C 533.364 2.00319 0.267739 0
M  V30 5554 C 533.685 1.22148 1.52003 0
M  V30 5555 O 532.955 0.325494 1.93177 0
M  V30 5556 H 531.535 0.740014 0.101922 0
M  V30 5557 H 534.197 1.89628 -0.450267 0
M  V30 5558 H 533.293 3.07765 0.518385 0
M  V30 5559 N 533.594 0.0601682 1.57485 0
M  V30 5560 C 534.842 -0.610386 1.92662 0
M  V30 5561 C 535.163 -1.70849 0.939981 0
M  V30 5562 O 534.433 -1.95895 -0.0137455 0
M  V30 5563 H 533.013 -0.228457 0.711208 0
M  V30 5564 H 535.675 0.115288 1.94559 0
M  V30 5565 H 534.771 -1.0432 2.94149 0
M  V30 5566 N 535.072 -1.5615 -0.213296 0
M  V30 5567 C 536.005 -1.88115 -1.29182 0
M  V30 5568 C 536.983 -0.739348 -1.44819 0
M  V30 5569 O 538.167 -0.988541 -1.605 0
M  V30 5570 C 535.294 -2.09541 -2.66102 0
M  V30 5571 C 534.34 -3.32236 -2.67436 0
M  V30 5572 S 535.173 -4.87915 -2.20679 0
M  V30 5573 C 536.329 -5.12387 -3.59458 0
M  V30 5574 H 536.562 -2.793 -1.01876 0
M  V30 5575 H 534.095 -1.48692 -0.415934 0
M  V30 5576 H 536.053 -2.22568 -3.44925 0
M  V30 5577 H 534.714 -1.19138 -2.90628 0
M  V30 5578 H 533.907 -3.44297 -3.6807 0
M  V30 5579 H 533.509 -3.18108 -1.96681 0
M  V30 5580 H 535.801 -5.01791 -4.55205 0
M  V30 5581 H 536.744 -6.14236 -3.52306 0
M  V30 5582 H 537.152 -4.40089 -3.53528 0
M  V30 5583 N 536.55 0.480323 -1.50102 0
M  V30 5584 C 537.482 1.59669 -1.64433 0
M  V30 5585 C 538.495 1.54063 -0.52615 0
M  V30 5586 O 539.684 1.59619 -0.798992 0
M  V30 5587 C 536.784 2.98527 -1.6042 0
M  V30 5588 C 535.957 3.291 -2.88117 0
M  V30 5589 C 535.016 4.47468 -2.76873 0
M  V30 5590 O 534.042 4.4823 -3.50825 0
M  V30 5591 N 535.244 5.48593 -1.89806 0
M  V30 5592 H 538.009 1.47795 -2.60723 0
M  V30 5593 H 535.57 0.66858 -1.4745 0
M  V30 5594 H 537.562 3.75666 -1.50523 0
M  V30 5595 H 536.132 3.04218 -0.719036 0
M  V30 5596 H 535.352 2.40662 -3.12211 0
M  V30 5597 H 536.64 3.46334 -3.72734 0
M  V30 5598 H 536.038 5.50791 -1.2902 0
M  V30 5599 H 534.595 6.24752 -1.85819 0
M  V30 5600 N 538.028 1.39524 0.732853 0
M  V30 5601 C 538.991 1.38189 1.82857 0
M  V30 5602 C 539.991 0.278624 1.58368 0
M  V30 5603 O 541.181 0.536639 1.65728 0
M  V30 5604 C 538.313 1.15661 3.2068 0
M  V30 5605 H 539.506 2.35692 1.85444 0
M  V30 5606 H 537.059 1.2512 0.936728 0
M  V30 5607 H 537.794 0.188482 3.23752 0
M  V30 5608 H 537.579 1.95559 3.39852 0
M  V30 5609 H 539.069 1.17472 4.00737 0
M  V30 5610 N 539.506 -0.963266 1.24736 0
M  V30 5611 C 540.436 -2.07628 1.06832 0
M  V30 5612 C 541.417 -1.70088 -0.0200566 0
M  V30 5613 O 542.602 -1.93636 0.147854 0
M  V30 5614 C 539.732 -3.40636 0.677069 0
M  V30 5615 C 538.686 -3.9215 1.71471 0
M  V30 5616 C 538.012 -5.21553 1.1784 0
M  V30 5617 C 539.312 -4.19493 3.11164 0
M  V30 5618 H 541.006 -2.22864 1.9993 0
M  V30 5619 H 538.552 -1.07093 0.96266 0
M  V30 5620 H 540.505 -4.17941 0.538792 0
M  V30 5621 H 539.229 -3.25313 -0.289612 0
M  V30 5622 H 537.888 -3.17005 1.84128 0
M  V30 5623 H 537.536 -5.02593 0.202195 0
M  V30 5624 H 537.236 -5.56988 1.87185 0
M  V30 5625 H 538.76 -6.01463 1.05233 0
M  V30 5626 H 540.174 -4.87487 3.01711 0
M  V30 5627 H 538.571 -4.66165 3.77902 0
M  V30 5628 H 539.641 -3.26097 3.58871 0
M  V30 5629 N 540.985 -1.06182 -1.16461 0
M  V30 5630 C 542.233 -0.776326 -1.86595 0
M  V30 5631 C 542.554 0.69921 -1.82033 0
M  V30 5632 O 541.824 1.50579 -1.2531 0
M  V30 5633 H 540.404 -0.284184 -0.690832 0
M  V30 5634 H 543.066 -1.34308 -1.41235 0
M  V30 5635 H 542.162 -1.10022 -2.92064 0
M  V30 5636 N 542.463 1.3308 -0.844243 0
M  V30 5637 C 543.393 2.3161 -0.296493 0
M  V30 5638 C 544.374 1.59215 0.598707 0
M  V30 5639 O 545.559 1.87077 0.521134 0
M  V30 5640 C 542.689 3.43313 0.524762 0
M  V30 5641 C 541.643 4.27115 -0.275106 0
M  V30 5642 C 540.969 5.30483 0.670236 0
M  V30 5643 C 542.269 5.00443 -1.49514 0
M  V30 5644 H 543.963 2.77672 -1.11976 0
M  V30 5645 H 541.509 1.33496 -0.539899 0
M  V30 5646 H 543.462 4.11273 0.918298 0
M  V30 5647 H 542.186 2.95952 1.3813 0
M  V30 5648 H 540.845 3.60787 -0.650267 0
M  V30 5649 H 540.493 4.79379 1.52332 0
M  V30 5650 H 540.193 5.87435 0.139123 0
M  V30 5651 H 541.717 6.01308 1.06117 0
M  V30 5652 H 543.131 5.61141 -1.17447 0
M  V30 5653 H 541.528 5.67071 -1.96343 0
M  V30 5654 H 542.598 4.28906 -2.26202 0
M  V30 5655 N 543.941 0.601185 1.45683 0
M  V30 5656 C 544.891 -0.142686 2.27553 0
M  V30 5657 C 545.875 -0.844598 1.3695 0
M  V30 5658 O 547.067 -0.735644 1.60988 0
M  V30 5659 C 544.196 -1.14364 3.23691 0
M  V30 5660 C 543.282 -0.442894 4.21781 0
M  V30 5661 N 543.673 0.51189 5.03203 0
M  V30 5662 C 541.971 -0.691277 4.4061 0
M  V30 5663 C 542.672 0.92318 5.74328 0
M  V30 5664 N 541.648 0.268308 5.42937 0
M  V30 5665 H 545.45 0.590736 2.87902 0
M  V30 5666 H 542.964 0.424365 1.56757 0
M  V30 5667 H 544.961 -1.6909 3.8107 0
M  V30 5668 H 543.621 -1.87768 2.64902 0
M  V30 5669 H 544.632 0.888329 5.10225 0
M  V30 5670 H 541.309 -1.41049 3.92952 0
M  V30 5671 H 542.699 1.71029 6.49768 0
M  V30 5672 N 545.419 -1.53889 0.339982 0
M  V30 5673 C 546.349 -2.27843 -0.510856 0
M  V30 5674 C 547.33 -1.29267 -1.10563 0
M  V30 5675 O 548.515 -1.58104 -1.12768 0
M  V30 5676 C 545.645 -3.04857 -1.66372 0
M  V30 5677 C 544.599 -4.10907 -1.19746 0
M  V30 5678 C 543.925 -4.75855 -2.43857 0
M  V30 5679 C 545.225 -5.21435 -0.300501 0
M  V30 5680 H 546.919 -2.99212 0.106067 0
M  V30 5681 H 544.465 -1.43904 0.0524533 0
M  V30 5682 H 546.418 -3.5533 -2.26537 0
M  V30 5683 H 545.142 -2.31133 -2.30749 0
M  V30 5684 H 543.801 -3.61342 -0.618654 0
M  V30 5685 H 543.449 -3.9873 -3.06633 0
M  V30 5686 H 543.149 -5.47502 -2.13343 0
M  V30 5687 H 544.673 -5.2911 -3.04754 0
M  V30 5688 H 546.087 -5.67565 -0.80889 0
M  V30 5689 H 544.484 -6.00036 -0.0874076 0
M  V30 5690 H 545.554 -4.80328 0.664321 0
M  V30 5691 N 546.897 -0.0685191 -1.57451 0
M  V30 5692 C 548.125 0.610462 -1.97689 0
M  V30 5693 C 548.54 1.63346 -0.946758 0
M  V30 5694 O 547.897 1.82377 0.0669868 0
M  V30 5695 C 547.948 1.28196 -3.38006 0
M  V30 5696 O 547.669 0.299906 -4.37072 0
M  V30 5697 C 549.17 2.04907 -3.931 0
M  V30 5698 H 546.39 0.165689 -0.650222 0
M  V30 5699 H 548.934 -0.139953 -2.04021 0
M  V30 5700 H 547.089 1.98348 -3.32771 0
M  V30 5701 H 547.503 0.78126 -5.18649 0
M  V30 5702 H 548.977 2.47287 -4.93511 0
M  V30 5703 H 549.454 2.9043 -3.29465 0
M  V30 5704 H 550.06 1.39629 -4.01726 0
M  V30 5705 N 548.375 1.56261 0.205012 0
M  V30 5706 C 549.652 1.70856 0.952233 0
M  V30 5707 C 550.032 0.620501 2.01775 0
M  V30 5708 O 549.38 -0.370035 2.25484 0
M  V30 5709 C 549.59 3.12807 1.54767 0
M  V30 5710 C 550.938 3.72733 2.0336 0
M  V30 5711 O 551.962 3.15873 1.64629 0
M  V30 5712 O 550.821 4.72501 2.746 0
M  V30 5713 H 547.915 0.696496 0.445895 0
M  V30 5714 H 550.461 1.6857 0.195489 0
M  V30 5715 H 549.233 3.83465 0.779132 0
M  V30 5716 H 548.856 3.1928 2.36951 0
M  V30 5717 N 549.853 -0.472356 1.50355 0
M  V30 5718 C 551.264 -1.05326 1.54154 0
M  V30 5719 C 551.615 -1.93155 0.344303 0
M  V30 5720 O 550.74 -2.09479 -0.542928 0
M  V30 5721 C 551.335 -1.91691 2.79356 0
M  V30 5722 C 549.894 -2.44892 2.8584 0
M  V30 5723 C 549.041 -1.23205 2.48426 0
M  V30 5724 H 551.992 -0.255027 1.56637 0
M  V30 5725 H 552.013 -2.76742 2.6114 0
M  V30 5726 H 551.525 -1.27741 3.66475 0
M  V30 5727 H 549.626 -3.12399 2.0307 0
M  V30 5728 H 549.739 -2.80086 3.88701 0
M  V30 5729 H 548.103 -1.56643 2.00836 0
M  V30 5730 H 548.886 -0.609194 3.37852 0
M  V30 5731 N 551.331 -1.39911 -0.725443 0
M  V30 5732 C 552.556 -1.41137 -1.5197 0
M  V30 5733 C 552.981 -0.010262 -1.88097 0
M  V30 5734 O 552.339 0.979184 -1.52583 0
M  V30 5735 C 552.387 -2.2994 -2.77777 0
M  V30 5736 O 551.491 -1.73586 -3.74088 0
M  V30 5737 H 550.832 -0.480219 -0.458569 0
M  V30 5738 H 553.362 -1.84023 -0.894249 0
M  V30 5739 H 553.372 -2.44785 -3.26411 0
M  V30 5740 H 552.047 -3.31759 -2.50816 0
M  V30 5741 H 550.624 -1.68035 -3.32894 0
M  V30 5742 N 552.809 0.956637 -1.25245 0
M  V30 5743 C 553.741 2.05628 -1.01242 0
M  V30 5744 C 554.754 1.62785 0.0219579 0
M  V30 5745 O 555.943 1.77184 -0.216365 0
M  V30 5746 C 553.043 3.35069 -0.508161 0
M  V30 5747 C 552.216 4.06761 -1.60823 0
M  V30 5748 C 551.275 5.14473 -1.1047 0
M  V30 5749 O 550.301 5.40033 -1.79868 0
M  V30 5750 N 551.503 5.80474 0.0550773 0
M  V30 5751 H 554.268 2.2679 -1.95925 0
M  V30 5752 H 551.829 1.12505 -1.16423 0
M  V30 5753 H 553.821 4.044 -0.155819 0
M  V30 5754 H 552.391 3.10694 0.344683 0
M  V30 5755 H 551.611 3.31555 -2.13224 0
M  V30 5756 H 552.899 4.51418 -2.34733 0
M  V30 5757 H 552.297 5.62125 0.635004 0
M  V30 5758 H 550.854 6.50868 0.348469 0
M  V30 5759 N 554.287 1.06798 1.15896 0
M  V30 5760 C 555.703 0.792423 1.38538 0
M  V30 5761 C 555.903 -0.60592 1.92174 0
M  V30 5762 O 554.959 -1.36561 2.12385 0
M  V30 5763 C 556.272 1.86157 2.36149 0
M  V30 5764 C 557.82 1.88567 2.49823 0
M  V30 5765 C 558.295 2.9455 3.5072 0
M  V30 5766 N 559.786 2.93616 3.58251 0
M  V30 5767 C 560.521 3.72267 4.36125 0
M  V30 5768 N 560.017 4.60751 5.17379 0
M  V30 5769 N 561.81 3.60637 4.31158 0
M  V30 5770 H 553.961 1.96993 0.794198 0
M  V30 5771 H 556.224 0.853942 0.411688 0
M  V30 5772 H 555.93 2.86603 2.03843 0
M  V30 5773 H 555.804 1.71692 3.3586 0
M  V30 5774 H 558.191 0.887765 2.8143 0
M  V30 5775 H 558.272 2.0711 1.5013 0
M  V30 5776 H 557.916 3.94537 3.19849 0
M  V30 5777 H 557.846 2.73255 4.50155 0
M  V30 5778 H 560.337 2.29472 3.00252 0
M  V30 5779 H 560.65 5.17408 5.74028 0
M  V30 5780 H 558.995 4.64803 5.16704 0
M  V30 5781 H 562.186 2.90892 3.66742 0
M  V30 5782 H 562.359 4.22176 4.91601 0
M  V30 5783 N 555.766 -1.3263 0.851289 0
M  V30 5784 C 556.696 -2.31449 0.308771 0
M  V30 5785 C 557.677 -1.59531 -0.590255 0
M  V30 5786 O 558.862 -1.87351 -0.511205 0
M  V30 5787 C 555.992 -3.43586 -0.506548 0
M  V30 5788 C 554.946 -4.26963 0.297753 0
M  V30 5789 C 554.272 -5.30831 -0.642094 0
M  V30 5790 C 555.572 -4.99643 1.52166 0
M  V30 5791 H 557.266 -2.77074 1.13447 0
M  V30 5792 H 554.812 -1.33207 0.546971 0
M  V30 5793 H 556.765 -4.11754 -0.896474 0
M  V30 5794 H 555.489 -2.96681 -1.36558 0
M  V30 5795 H 554.148 -3.60437 0.669391 0
M  V30 5796 H 553.796 -4.8018 -1.49788 0
M  V30 5797 H 553.496 -5.87501 -0.107968 0
M  V30 5798 H 555.02 -6.01862 -1.02927 0
M  V30 5799 H 556.434 -5.6051 1.20421 0
M  V30 5800 H 554.831 -5.66022 1.99347 0
M  V30 5801 H 555.901 -4.27701 2.28474 0
M  V30 5802 N 557.244 -0.608902 -1.45362 0
M  V30 5803 C 558.49 -0.104762 -2.02529 0
M  V30 5804 C 558.823 1.26191 -1.47613 0
M  V30 5805 O 558.098 1.8327 -0.65134 0
M  V30 5806 C 558.381 -0.0672661 -3.60037 0
M  V30 5807 C 558.234 -1.4647 -4.25284 0
M  V30 5808 C 559.553 0.619877 -4.35713 0
M  V30 5809 H 556.672 -0.0395438 -0.735938 0
M  V30 5810 H 559.314 -0.781126 -1.73201 0
M  V30 5811 H 557.464 0.50871 -3.85155 0
M  V30 5812 H 559.136 -2.08785 -4.11347 0
M  V30 5813 H 557.379 -2.02502 -3.83634 0
M  V30 5814 H 558.05 -1.39069 -5.34195 0
M  V30 5815 H 560.526 0.130297 -4.15896 0
M  V30 5816 H 559.402 0.615224 -5.45441 0
M  V30 5817 H 559.663 1.68621 -4.0868 0
M  V30 5818 N 558.722 1.53707 -0.348139 0
M  V30 5819 C 559.654 2.22725 0.540946 0
M  V30 5820 C 560.667 1.2354 1.06027 0
M  V30 5821 O 561.856 1.49867 0.96964 0
M  V30 5822 C 558.956 2.89756 1.75768 0
M  V30 5823 C 558.129 4.15297 1.37285 0
M  V30 5824 C 557.188 4.65697 2.44976 0
M  V30 5825 O 556.214 5.29798 2.08092 0
M  V30 5826 N 557.416 4.42017 3.763 0
M  V30 5827 H 560.181 2.99658 -0.0501592 0
M  V30 5828 H 557.742 1.60979 -0.17248 0
M  V30 5829 H 559.734 3.20388 2.47252 0
M  V30 5830 H 558.304 2.16382 2.25605 0
M  V30 5831 H 557.524 3.9116 0.488584 0
M  V30 5832 H 558.812 4.96948 1.09179 0
M  V30 5833 H 558.21 3.9076 4.09051 0
M  V30 5834 H 556.767 4.77242 4.4394 0
M  V30 5835 N 560.2 0.0768682 1.57412 0
M  V30 5836 C 561.148 -0.906229 2.1422 0
M  V30 5837 C 562.142 -1.30477 1.08037 0
M  V30 5838 O 563.348 -1.28143 1.2641 0
M  V30 5839 H 559.723 -0.310207 0.685037 0
M  V30 5840 H 561.694 -0.402228 2.95677 0
M  V30 5841 C 560.443 -2.16245 2.72274 0
M  V30 5842 H 559.766 -1.86463 3.53655 0
M  V30 5843 H 561.206 -2.83134 3.15613 0
M  V30 5844 C 559.665 -2.92437 1.67279 0
M  V30 5845 O 560.195 -3.86322 1.10081 0
M  V30 5846 N 558.401 -2.55637 1.38195 0
M  V30 5847 H 557.948 -1.79363 1.84897 0
M  V30 5848 H 557.906 -3.06919 0.681787 0
M  V30 5849 N 561.678 -1.56367 -0.196722 0
M  V30 5850 C 562.918 -1.82315 -0.92415 0
M  V30 5851 C 563.282 -0.654117 -1.80514 0
M  V30 5852 O 564.483 -0.79345 -2.56823 0
M  V30 5853 C 562.754 -3.13279 -1.72021 0
M  V30 5854 S 564.313 -3.60627 -2.49988 0
M  V30 5855 H 561.131 -0.639862 -0.309997 0
M  V30 5856 H 563.733 -1.94597 -0.187684 0
M  V30 5857 H 562.437 -3.96379 -1.06358 0
M  V30 5858 H 561.968 -3.03871 -2.49852 0
M  V30 5859 H 563.983 -3.25934 -3.74141 0
M  V30 5860 N 563.156 0.464375 -1.50603 0
M  V30 5861 C 564.086 1.56944 -1.72889 0
M  V30 5862 C 565.067 1.59979 -0.577997 0
M  V30 5863 O 566.252 1.76138 -0.817855 0
M  V30 5864 C 563.382 2.95225 -1.8292 0
M  V30 5865 C 562.336 3.07056 -2.98162 0
M  V30 5866 C 561.662 4.47051 -2.93343 0
M  V30 5867 C 562.962 2.83648 -4.38567 0
M  V30 5868 H 564.656 1.38547 -2.65415 0
M  V30 5869 H 562.202 0.665082 -1.27721 0
M  V30 5870 H 564.155 3.72467 -1.97095 0
M  V30 5871 H 562.879 3.14793 -0.870209 0
M  V30 5872 H 561.538 2.32248 -2.83648 0
M  V30 5873 H 561.186 4.63547 -1.95276 0
M  V30 5874 H 560.886 4.55902 -3.70712 0
M  V30 5875 H 562.41 5.26304 -3.09575 0
M  V30 5876 H 563.824 3.50636 -4.53572 0
M  V30 5877 H 562.221 3.03937 -5.17438 0
M  V30 5878 H 563.291 1.79451 -4.50472 0
M  V30 5879 N 564.634 1.40294 0.718013 0
M  V30 5880 C 565.88 1.39648 1.47885 0
M  V30 5881 C 566.235 -0.0023879 1.924 0
M  V30 5882 O 565.528 -0.972304 1.65096 0
M  V30 5883 C 565.722 2.31814 2.72024 0
M  V30 5884 C 565.551 3.80523 2.3965 0
M  V30 5885 C 564.321 4.49351 2.3111 0
M  V30 5886 C 566.519 4.72077 2.04079 0
M  V30 5887 N 564.501 5.83305 1.91385 0
M  V30 5888 C 565.872 5.94809 1.74935 0
M  V30 5889 C 567.927 4.59935 1.90694 0
M  V30 5890 C 566.63 7.06755 1.33753 0
M  V30 5891 C 568.656 5.7182 1.50915 0
M  V30 5892 C 568.018 6.93637 1.22668 0
M  V30 5893 H 564.117 0.566263 0.539324 0
M  V30 5894 H 566.701 1.75986 0.832891 0
M  V30 5895 H 564.872 1.97607 3.34374 0
M  V30 5896 H 566.604 2.22042 3.38348 0
M  V30 5897 H 563.359 4.03002 2.4877 0
M  V30 5898 H 563.783 6.54239 1.74068 0
M  V30 5899 H 568.425 3.66274 2.11194 0
M  V30 5900 H 566.143 8.00302 1.11995 0
M  V30 5901 H 569.729 5.64421 1.4114 0
M  V30 5902 H 568.609 7.78743 0.923502 0
M  V30 5903 N 566.112 -0.949982 1.2575 0
M  V30 5904 C 567.34 -1.72972 1.13527 0
M  V30 5905 C 567.755 -1.8623 -0.310453 0
M  V30 5906 O 567.112 -1.36336 -1.2132 0
M  V30 5907 C 567.163 -3.14108 1.78936 0
M  V30 5908 O 566.884 -3.01493 3.17858 0
M  V30 5909 C 568.385 -4.08338 1.72554 0
M  V30 5910 H 565.605 -0.541864 0.395758 0
M  V30 5911 H 568.149 -1.19151 1.66202 0
M  V30 5912 H 566.304 -3.64858 1.30221 0
M  V30 5913 H 566.718 -3.90559 3.50092 0
M  V30 5914 H 568.192 -5.04963 2.22973 0
M  V30 5915 H 568.669 -4.33742 0.690251 0
M  V30 5916 H 569.275 -3.63506 2.2078 0
M  V30 5917 N 567.59 -1.07411 -1.15328 0
M  V30 5918 C 568.52 -0.716472 -2.22236 0
M  V30 5919 C 569.501 0.296373 -1.67498 0
M  V30 5920 O 570.686 0.168989 -1.93463 0
M  V30 5921 C 567.816 -0.114142 -3.47112 0
M  V30 5922 C 566.77 -1.05421 -4.14814 0
M  V30 5923 C 566.096 -0.314604 -5.33774 0
M  V30 5924 C 567.396 -2.38808 -4.64508 0
M  V30 5925 H 569.09 -1.61029 -2.52408 0
M  V30 5926 H 566.636 -0.775702 -1.21321 0
M  V30 5927 H 568.589 0.148001 -4.2114 0
M  V30 5928 H 567.313 0.814755 -3.16274 0
M  V30 5929 H 565.972 -1.30128 -3.42728 0
M  V30 5930 H 565.62 0.617772 -4.99192 0
M  V30 5931 H 565.32 -0.941209 -5.80013 0
M  V30 5932 H 566.844 -0.0602747 -6.1057 0
M  V30 5933 H 568.258 -2.18424 -5.3006 0
M  V30 5934 H 566.655 -2.97069 -5.21412 0
M  V30 5935 H 567.725 -3.01067 -3.80114 0
M  V30 5936 N 569.068 1.32177 -0.85831 0
M  V30 5937 C 570.484 1.49873 -0.548656 0
M  V30 5938 C 570.684 1.79278 0.919874 0
M  V30 5939 O 569.74 1.86451 1.70271 0
M  V30 5940 C 571.053 2.64043 -1.4388 0
M  V30 5941 C 572.601 2.77928 -1.43961 0
M  V30 5942 C 573.076 3.95182 -2.31506 0
M  V30 5943 N 574.567 4.0245 -2.29321 0
M  V30 5944 C 575.302 4.9242 -2.93786 0
M  V30 5945 N 574.798 5.87373 -3.67376 0
M  V30 5946 N 576.591 4.85572 -2.83155 0
M  V30 5947 H 568.742 1.11357 -1.80868 0
M  V30 5948 H 571.005 0.549175 -0.772729 0
M  V30 5949 H 570.711 2.49055 -2.48324 0
M  V30 5950 H 570.585 3.59912 -1.12885 0
M  V30 5951 H 572.972 2.92338 -0.402813 0
M  V30 5952 H 573.053 1.82762 -1.78974 0
M  V30 5953 H 572.697 3.81531 -3.35256 0
M  V30 5954 H 572.627 4.89633 -1.93823 0
M  V30 5955 H 575.118 3.34507 -1.75822 0
M  V30 5956 H 575.431 6.52728 -4.13722 0
M  V30 5957 H 573.776 5.87388 -3.71484 0
M  V30 5958 H 576.967 4.10363 -2.25211 0
M  V30 5959 H 577.14 5.55486 -3.33676 0
M  V30 5960 N 570.547 0.616602 1.45037 0
M  V30 5961 C 571.495 -0.109318 2.32343 0
M  V30 5962 C 572.489 -0.850543 1.465 0
M  V30 5963 O 573.695 -0.765088 1.62931 0
M  V30 5964 H 570.07 -0.0541091 0.750051 0
M  V30 5965 H 572.041 0.645326 2.91338 0
M  V30 5966 C 570.79 -1.0872 3.30266 0
M  V30 5967 H 570.113 -0.526267 3.96321 0
M  V30 5968 H 571.553 -1.56489 3.94065 0
M  V30 5969 C 570.012 -2.16525 2.58105 0
M  V30 5970 O 570.542 -3.244 2.36913 0
M  V30 5971 N 568.748 -1.92057 2.18088 0
M  V30 5972 H 568.295 -1.04337 2.35524 0
M  V30 5973 H 568.253 -2.64391 1.70131 0
M  V30 5974 N 572.025 -1.5352 0.356285 0
M  V30 5975 C 572.955 -2.28372 -0.486661 0
M  V30 5976 C 573.936 -1.30432 -1.09185 0
M  V30 5977 O 575.121 -1.59291 -1.11085 0
M  V30 5978 C 572.251 -3.06604 -1.63129 0
M  V30 5979 C 571.205 -4.12154 -1.15381 0
M  V30 5980 C 570.531 -4.78415 -2.38796 0
M  V30 5981 C 571.831 -5.21724 -0.245179 0
M  V30 5982 H 573.525 -2.99083 0.137797 0
M  V30 5983 H 571.071 -1.43841 0.0677134 0
M  V30 5984 H 573.024 -3.57712 -2.22755 0
M  V30 5985 H 571.748 -2.33568 -2.28284 0
M  V30 5986 H 570.407 -3.61978 -0.580294 0
M  V30 5987 H 570.055 -4.01959 -3.02387 0
M  V30 5988 H 569.755 -5.49734 -2.07524 0
M  V30 5989 H 571.279 -5.32313 -2.99125 0
M  V30 5990 H 572.693 -5.68391 -0.748646 0
M  V30 5991 H 571.09 -6.00095 -0.0237608 0
M  V30 5992 H 572.16 -4.79596 0.715229 0
M  V30 5993 N 573.503 -0.0852151 -1.57369 0
M  V30 5994 C 574.728 0.592872 -1.98746 0
M  V30 5995 C 575.153 1.61538 -0.963689 0
M  V30 5996 O 574.511 1.81168 0.069071 0
M  V30 5997 C 574.559 1.22599 -3.39119 0
M  V30 5998 O 573.663 2.34185 -3.39457 0
M  V30 5999 H 573.004 0.151314 -0.646529 0
M  V30 6000 H 575.534 -0.163703 -2.03944 0
M  V30 6001 H 575.544 1.56965 -3.76598 0
M  V30 6002 H 574.219 0.476831 -4.13158 0
M  V30 6003 H 572.796 2.01512 -3.13763 0
M  V30 6004 N 574.981 1.5647 0.188427 0
M  V30 6005 C 576.258 1.71857 0.934058 0
M  V30 6006 C 576.638 0.641867 2.01105 0
M  V30 6007 O 575.986 -0.346098 2.25864 0
M  V30 6008 C 576.196 3.14431 1.5144 0
M  V30 6009 C 577.544 3.74869 1.99396 0
M  V30 6010 O 578.568 3.17601 1.61269 0
M  V30 6011 O 577.427 4.75387 2.69573 0
M  V30 6012 H 574.521 0.701186 0.438483 0
M  V30 6013 H 577.067 1.68768 0.177599 0
M  V30 6014 H 575.839 3.8427 0.738416 0
M  V30 6015 H 575.462 3.21775 2.33552 0
M  V30 6016 N 576.459 -0.456382 1.50847 0
M  V30 6017 C 577.422 -1.53493 1.70213 0
M  V30 6018 C 578.422 -1.50264 0.572481 0
M  V30 6019 O 579.612 -1.52623 0.839751 0
M  V30 6020 C 576.744 -2.93091 1.741 0
M  V30 6021 H 577.937 -1.37633 2.66453 0
M  V30 6022 H 575.49 -0.683776 1.4055 0
M  V30 6023 H 576.225 -3.14378 0.796063 0
M  V30 6024 H 576.01 -2.9684 2.5618 0
M  V30 6025 H 577.5 -3.71368 1.90987 0
M  V30 6026 N 577.937 -1.40673 -0.710563 0
M  V30 6027 C 578.9 -1.4108 -1.80635 0
M  V30 6028 C 579.9 -0.303783 -1.57904 0
M  V30 6029 O 581.09 -0.562937 -1.64853 0
M  V30 6030 C 578.222 -1.20748 -3.18799 0
M  V30 6031 H 579.415 -2.38612 -1.81671 0
M  V30 6032 H 576.968 -1.26595 -0.916704 0
M  V30 6033 H 577.703 -0.239964 -3.23411 0
M  V30 6034 H 577.488 -2.00941 -3.36698 0
M  V30 6035 H 578.978 -1.23833 -3.98817 0
M  V30 6036 N 579.415 0.9433 -1.26252 0
M  V30 6037 C 580.643 1.72367 -1.14443 0
M  V30 6038 C 581.058 1.86392 0.300572 0
M  V30 6039 O 580.415 1.36978 1.20596 0
M  V30 6040 C 580.466 3.13155 -1.806 0
M  V30 6041 O 580.187 2.99803 -3.19452 0
M  V30 6042 C 581.688 4.07417 -1.74717 0
M  V30 6043 H 578.908 0.539758 -0.398626 0
M  V30 6044 H 581.452 1.18268 -1.66832 0
M  V30 6045 H 579.607 3.64162 -1.32154 0
M  V30 6046 H 580.021 3.88697 -3.52158 0
M  V30 6047 H 581.495 5.03773 -2.25647 0
M  V30 6048 H 581.972 4.3337 -0.713244 0
M  V30 6049 H 582.578 3.6233 -2.22704 0
M  V30 6050 N 580.893 1.08022 1.14757 0
M  V30 6051 C 581.84 0.706657 2.19716 0
M  V30 6052 C 582.81 -0.30525 1.63271 0
M  V30 6053 O 583.995 -0.19015 1.8985 0
M  V30 6054 C 581.135 0.117914 3.44898 0
M  V30 6055 C 580.248 1.18212 4.15512 0
M  V30 6056 C 579.383 0.557659 5.28265 0
M  V30 6057 C 578.422 1.60418 5.90705 0
M  V30 6058 N 577.559 1.0018 6.94916 0
M  V30 6059 H 582.399 1.60603 2.51019 0
M  V30 6060 H 579.936 0.802664 1.23271 0
M  V30 6061 H 581.894 -0.241112 4.16503 0
M  V30 6062 H 580.524 -0.744788 3.1409 0
M  V30 6063 H 579.576 1.65863 3.42335 0
M  V30 6064 H 580.888 1.97533 4.5802 0
M  V30 6065 H 580.042 0.146654 6.06523 0
M  V30 6066 H 578.781 -0.267249 4.86967 0
M  V30 6067 H 577.786 2.02489 5.11154 0
M  V30 6068 H 579.011 2.43149 6.34078 0
M  V30 6069 H 576.957 0.197917 6.55701 0
M  V30 6070 H 576.874 1.73216 7.35889 0
M  V30 6071 H 578.142 0.616523 7.77058 0
M  V30 6072 N 582.371 -1.3172 0.865308 0
M  V30 6073 C 583.303 -2.27545 0.274906 0
M  V30 6074 C 584.316 -1.52887 -0.559413 0
M  V30 6075 O 585.505 -1.74361 -0.382166 0
M  V30 6076 C 582.605 -3.33006 -0.629286 0
M  V30 6077 C 581.778 -4.37063 0.171553 0
M  V30 6078 C 580.837 -5.22044 -0.660052 0
M  V30 6079 O 579.863 -5.69129 -0.0897527 0
M  V30 6080 N 581.065 -5.45946 -1.97289 0
M  V30 6081 H 583.83 -2.78848 1.09836 0
M  V30 6082 H 581.391 -1.44693 0.726331 0
M  V30 6083 H 583.383 -3.86772 -1.19121 0
M  V30 6084 H 581.953 -2.81782 -1.35342 0
M  V30 6085 H 581.173 -3.83436 0.914919 0
M  V30 6086 H 582.461 -5.03662 0.721235 0
M  V30 6087 H 581.859 -5.0944 -2.45942 0
M  V30 6088 H 580.416 -6.02665 -2.4827 0
M  V30 6089 N 583.85 -0.624285 -1.44708 0
M  V30 6090 C 584.76 0.0861083 -2.34442 0
M  V30 6091 C 585.776 0.84291 -1.5222 0
M  V30 6092 O 586.952 0.796723 -1.84971 0
M  V30 6093 C 584.017 1.05999 -3.30099 0
M  V30 6094 C 583.077 0.303316 -4.28227 0
M  V30 6095 C 582.311 1.23081 -5.19314 0
M  V30 6096 O 582.534 2.46929 -5.14181 0
M  V30 6097 O 581.468 0.71883 -5.97592 0
M  V30 6098 H 585.293 -0.651756 -2.96624 0
M  V30 6099 H 582.879 -0.384493 -1.44368 0
M  V30 6100 H 584.76 1.62046 -3.88997 0
M  V30 6101 H 583.436 1.77859 -2.70459 0
M  V30 6102 H 582.343 -0.300033 -3.72895 0
M  V30 6103 H 583.676 -0.375123 -4.90768 0
M  V30 6104 N 585.328 1.53329 -0.364422 0
M  V30 6105 C 586.576 2.00842 0.225189 0
M  V30 6106 C 586.897 1.25345 1.49378 0
M  V30 6107 O 586.167 0.366396 1.92443 0
M  V30 6108 H 584.747 0.742009 0.0862027 0
M  V30 6109 H 587.409 1.8863 -0.490389 0
M  V30 6110 H 586.505 3.08795 0.452987 0
M  V30 6111 N 586.806 0.0935595 1.57322 0
M  V30 6112 C 587.739 -0.902505 2.09595 0
M  V30 6113 C 588.717 -1.27732 1.00615 0
M  V30 6114 O 589.901 -1.38283 1.28102 0
M  V30 6115 C 587.028 -2.20416 2.57166 0
M  V30 6116 C 586.074 -1.97932 3.7779 0
M  V30 6117 S 586.907 -1.21873 5.21447 0
M  V30 6118 C 588.063 -2.53273 5.72367 0
M  V30 6119 H 588.296 -0.457797 2.93754 0
M  V30 6120 H 585.829 -0.119694 1.53935 0
M  V30 6121 H 587.787 -2.95217 2.85232 0
M  V30 6122 H 586.448 -2.62008 1.73235 0
M  V30 6123 H 585.641 -2.94316 4.09138 0
M  V30 6124 H 585.243 -1.3126 3.5021 0
M  V30 6125 H 587.535 -3.49256 5.8054 0
M  V30 6126 H 588.478 -2.26505 6.70896 0
M  V30 6127 H 588.886 -2.61475 5.00291 0
M  V30 6128 N 588.284 -1.56567 -0.180126 0
M  V30 6129 C 589.194 -1.98947 -1.24327 0
M  V30 6130 C 590.21 -0.899446 -1.4895 0
M  V30 6131 O 591.386 -1.20639 -1.61271 0
M  V30 6132 C 588.451 -2.33328 -2.56435 0
M  V30 6133 C 587.512 -3.56114 -2.39752 0
M  V30 6134 C 586.745 -3.88845 -3.65561 0
M  V30 6135 O 586.968 -3.22662 -4.70368 0
M  V30 6136 O 585.902 -4.82226 -3.60197 0
M  V30 6137 H 589.728 -2.89634 -0.913565 0
M  V30 6138 H 587.313 -1.44319 -0.386306 0
M  V30 6139 H 589.195 -2.5645 -3.34382 0
M  V30 6140 H 587.87 -1.45806 -2.89002 0
M  V30 6141 H 586.777 -3.38221 -1.59866 0
M  V30 6142 H 588.11 -4.4415 -2.12113 0
M  V30 6143 N 589.762 0.448376 -1.51087 0
M  V30 6144 C 591.01 1.19635 -1.62886 0
M  V30 6145 C 591.331 1.91977 -0.342024 0
M  V30 6146 O 590.601 1.85094 0.641636 0
M  V30 6147 H 589.181 0.444598 -0.600285 0
M  V30 6148 H 591.843 0.515138 -1.87969 0
M  V30 6149 H 590.939 1.93194 -2.45117 0
M  V30 6150 N 591.24 1.41047 0.703093 0
M  V30 6151 C 592.17 1.45067 1.82969 0
M  V30 6152 C 593.151 0.31016 1.67248 0
M  V30 6153 O 594.336 0.520548 1.87093 0
M  V30 6154 C 591.466 1.32478 3.2104 0
M  V30 6155 C 590.42 2.44262 3.51454 0
M  V30 6156 C 589.746 2.16742 4.88801 0
M  V30 6157 C 591.046 3.86606 3.51189 0
M  V30 6158 H 592.74 2.39353 1.79863 0
M  V30 6159 H 590.286 1.15206 0.863919 0
M  V30 6160 H 592.239 1.33904 3.99559 0
M  V30 6161 H 590.963 0.346735 3.24754 0
M  V30 6162 H 589.622 2.42107 2.75282 0
M  V30 6163 H 589.27 1.17299 4.89132 0
M  V30 6164 H 588.97 2.91643 5.10116 0
M  V30 6165 H 590.494 2.19872 5.69639 0
M  V30 6166 H 591.908 3.90517 4.19725 0
M  V30 6167 H 590.305 4.61128 3.84033 0
M  V30 6168 H 591.375 4.15296 2.50315 0
M  V30 6169 N 592.718 -0.936591 1.26751 0
M  V30 6170 C 593.648 -2.05315 1.11212 0
M  V30 6171 C 594.629 -1.70092 0.0160262 0
M  V30 6172 O 595.814 -1.93279 0.188894 0
M  V30 6173 C 592.944 -3.39123 0.749171 0
M  V30 6174 C 591.898 -3.88425 1.79751 0
M  V30 6175 C 591.224 -5.18936 1.28876 0
M  V30 6176 C 592.524 -4.12798 3.19992 0
M  V30 6177 H 594.218 -2.18573 2.04613 0
M  V30 6178 H 591.764 -1.05027 0.985159 0
M  V30 6179 H 593.717 -4.16704 0.627323 0
M  V30 6180 H 592.441 -3.25855 -0.220543 0
M  V30 6181 H 591.1 -3.13028 1.90811 0
M  V30 6182 H 590.748 -5.02051 0.308757 0
M  V30 6183 H 590.448 -5.52892 1.98958 0
M  V30 6184 H 591.972 -5.99096 1.17967 0
M  V30 6185 H 593.386 -4.80977 3.11983 0
M  V30 6186 H 591.783 -4.58044 3.87705 0
M  V30 6187 H 592.853 -3.18412 3.65707 0
M  V30 6188 N 594.196 -1.08629 -1.14182 0
M  V30 6189 C 595.444 -0.815731 -1.84906 0
M  V30 6190 C 595.765 0.660441 -1.83475 0
M  V30 6191 O 595.035 1.47888 -1.28476 0
M  V30 6192 H 593.615 -0.298773 -0.684648 0
M  V30 6193 H 596.277 -1.37274 -1.38354 0
M  V30 6194 H 595.373 -1.16193 -2.89665 0
M  V30 6195 N 595.674 1.31259 -0.872281 0
M  V30 6196 C 596.902 2.00795 -0.498907 0
M  V30 6197 C 597.317 1.65464 0.909238 0
M  V30 6198 O 596.674 0.885073 1.59602 0
M  V30 6199 C 596.725 3.55625 -0.649092 0
M  V30 6200 O 596.446 3.89692 -2.00179 0
M  V30 6201 C 597.947 4.42434 -0.277034 0
M  V30 6202 H 595.167 0.642299 -0.194145 0
M  V30 6203 H 597.711 1.67438 -1.17408 0
M  V30 6204 H 595.866 3.87394 -0.0214402 0
M  V30 6205 H 596.28 4.84407 -2.01122 0
M  V30 6206 H 597.754 5.50299 -0.433064 0
M  V30 6207 H 598.231 4.32146 0.783989 0
M  V30 6208 H 598.837 4.16086 -0.880483 0
M  V30 6209 N 597.152 0.631951 1.44375 0
M  V30 6210 C 598.082 -0.0593243 2.33425 0
M  V30 6211 C 599.063 -0.833964 1.48253 0
M  V30 6212 O 600.248 -0.799682 1.76971 0
M  V30 6213 C 597.378 -1.04096 3.31333 0
M  V30 6214 C 596.332 -0.377899 4.26328 0
M  V30 6215 C 595.658 -1.4695 5.14111 0
M  V30 6216 C 596.958 0.716371 5.17364 0
M  V30 6217 H 598.652 0.684287 2.91475 0
M  V30 6218 H 596.198 0.330518 1.40156 0
M  V30 6219 H 598.151 -1.53331 3.92514 0
M  V30 6220 H 596.875 -1.81547 2.71493 0
M  V30 6221 H 595.534 0.0938054 3.6648 0
M  V30 6222 H 595.182 -2.2349 4.50623 0
M  V30 6223 H 594.882 -1.03121 5.78481 0
M  V30 6224 H 596.406 -1.96363 5.78164 0
M  V30 6225 H 597.82 0.307089 5.72477 0
M  V30 6226 H 596.217 1.07784 5.90341 0
M  V30 6227 H 597.287 1.58316 4.58327 0
M  V30 6228 N 598.631 -1.53133 0.372548 0
M  V30 6229 C 599.877 -2.01654 -0.215277 0
M  V30 6230 C 600.21 -1.25914 -1.47849 0
M  V30 6231 O 599.485 -0.3548 -1.91237 0
M  V30 6232 C 599.768 -3.56609 -0.500187 0
M  V30 6233 C 599.621 -4.43036 0.777145 0
M  V30 6234 C 600.94 -4.20528 -1.29786 0
M  V30 6235 H 598.059 -0.732991 -0.0767686 0
M  V30 6236 H 600.701 -1.83335 0.498814 0
M  V30 6237 H 598.851 -3.7235 -1.10852 0
M  V30 6238 H 600.523 -4.39079 1.41447 0
M  V30 6239 H 598.766 -4.10723 1.39604 0
M  V30 6240 H 599.437 -5.49424 0.532662 0
M  V30 6241 H 601.913 -4.08663 -0.783198 0
M  V30 6242 H 600.789 -5.28962 -1.46596 0
M  V30 6243 H 601.05 -3.77051 -2.30836 0
M  V30 6244 N 600.109 -0.101901 -1.5727 0
M  V30 6245 C 601.041 0.884723 -2.11436 0
M  V30 6246 C 602.054 1.24149 -1.05314 0
M  V30 6247 O 603.243 1.19341 -1.3274 0
M  V30 6248 C 600.343 2.19179 -2.58484 0
M  V30 6249 C 599.516 2.00933 -3.88516 0
M  V30 6250 C 598.575 3.15213 -4.2134 0
M  V30 6251 O 597.601 2.88877 -4.90448 0
M  V30 6252 N 598.803 4.41174 -3.77288 0
M  V30 6253 H 601.568 0.422058 -2.96713 0
M  V30 6254 H 599.129 0.0830128 -1.61687 0
M  V30 6255 H 601.121 2.94593 -2.77484 0
M  V30 6256 H 599.691 2.56847 -1.7818 0
M  V30 6257 H 598.911 1.09809 -3.78597 0
M  V30 6258 H 600.199 1.86026 -4.73573 0
M  V30 6259 H 599.597 4.6545 -3.21516 0
M  V30 6260 H 598.154 5.13515 -4.01429 0
M  V30 6261 N 601.587 1.56661 0.17182 0
M  V30 6262 C 602.517 1.99401 1.21498 0
M  V30 6263 C 603.498 0.869516 1.46197 0
M  V30 6264 O 604.683 1.13556 1.57539 0
M  V30 6265 C 601.813 2.35346 2.55401 0
M  V30 6266 C 600.767 3.5075 2.45272 0
M  V30 6267 C 600.093 3.72437 3.8366 0
M  V30 6268 C 601.393 4.84216 1.95787 0
M  V30 6269 H 603.087 2.86792 0.859699 0
M  V30 6270 H 600.633 1.37977 0.412103 0
M  V30 6271 H 602.586 2.63843 3.2858 0
M  V30 6272 H 601.31 1.44864 2.92715 0
M  V30 6273 H 599.969 3.2238 1.74547 0
M  V30 6274 H 599.617 2.79246 4.18367 0
M  V30 6275 H 599.317 4.50087 3.77751 0
M  V30 6276 H 600.841 4.03334 4.58426 0
M  V30 6277 H 602.255 5.11592 2.5874 0
M  V30 6278 H 600.652 5.65498 2.00827 0
M  V30 6279 H 601.722 4.76243 0.912159 0
M  V30 6280 N 603.065 -0.440357 1.51323 0
M  V30 6281 C 603.995 -1.54174 1.75364 0
M  V30 6282 C 604.976 -1.59039 0.603375 0
M  V30 6283 O 606.161 -1.74815 0.845774 0
M  V30 6284 C 603.291 -2.92277 1.87593 0
M  V30 6285 C 602.245 -3.02274 3.03009 0
M  V30 6286 C 601.571 -4.42327 3.00418 0
M  V30 6287 C 602.871 -2.76634 4.43024 0
M  V30 6288 H 604.565 -1.34307 2.67585 0
M  V30 6289 H 602.111 -0.644678 1.28763 0
M  V30 6290 H 604.064 -3.69284 2.02995 0
M  V30 6291 H 602.788 -3.13369 0.920179 0
M  V30 6292 H 601.447 -2.27706 2.87307 0
M  V30 6293 H 601.095 -4.60382 2.02626 0
M  V30 6294 H 600.795 -4.49946 3.77918 0
M  V30 6295 H 602.319 -5.21312 3.17909 0
M  V30 6296 H 603.733 -3.43376 4.59093 0
M  V30 6297 H 602.13 -2.95666 5.22208 0
M  V30 6298 H 603.2 -1.72262 4.5327 0
M  V30 6299 N 604.543 -1.41418 -0.695603 0
M  V30 6300 C 605.791 -1.40496 -1.45277 0
M  V30 6301 C 606.112 -0.0149538 -1.94994 0
M  V30 6302 O 605.382 0.9432 -1.71699 0
M  V30 6303 H 603.962 -0.517147 -0.539044 0
M  V30 6304 H 606.624 -1.76656 -0.823321 0
M  V30 6305 H 605.72 -2.09214 -2.31595 0
M  V30 6306 N 606.021 0.929856 -1.27246 0
M  V30 6307 C 607.246 1.71674 -1.16374 0
M  V30 6308 C 607.671 1.86064 0.276024 0
M  V30 6309 O 607.029 1.3591 1.19992 0
M  V30 6310 C 607.077 3.09526 -1.85003 0
M  V30 6311 O 606.181 3.96142 -1.14653 0
M  V30 6312 H 605.522 0.52629 -0.404863 0
M  V30 6313 H 608.052 1.16381 -1.68276 0
M  V30 6314 H 608.062 3.59852 -1.92276 0
M  V30 6315 H 606.737 2.98369 -2.89739 0
M  V30 6316 H 605.314 3.54584 -1.15433 0
M  V30 6317 N 607.499 1.09233 1.13605 0
M  V30 6318 C 608.776 0.739633 1.81077 0
M  V30 6319 C 609.156 -0.775595 1.96336 0
M  V30 6320 O 608.504 -1.69726 1.52988 0
M  V30 6321 C 608.714 1.47636 3.16235 0
M  V30 6322 C 610.062 1.64087 3.91613 0
M  V30 6323 O 611.086 1.43871 3.25852 0
M  V30 6324 O 609.945 1.97511 5.0956 0
M  V30 6325 H 607.039 0.265464 0.783236 0
M  V30 6326 H 609.585 1.19441 1.20549 0
M  V30 6327 H 608.357 2.50818 3.00344 0
M  V30 6328 H 607.98 1.01362 3.84462 0
M  V30 6329 N 608.977 -1.30795 0.87923 0
M  V30 6330 C 610.254 -1.91145 0.415086 0
M  V30 6331 C 610.634 -1.7995 -1.10368 0
M  V30 6332 O 609.982 -1.21305 -1.93642 0
M  V30 6333 C 610.192 -3.37014 0.906778 0
M  V30 6334 C 611.54 -4.14101 0.938358 0
M  V30 6335 O 612.564 -3.45834 0.853053 0
M  V30 6336 O 611.423 -5.36054 1.06342 0
M  V30 6337 H 608.517 -0.81736 0.125905 0
M  V30 6338 H 611.063 -1.39401 0.967753 0
M  V30 6339 H 609.835 -3.3922 1.95053 0
M  V30 6340 H 609.458 -3.96204 0.332948 0
M  V30 6341 N 610.455 -0.639598 -1.44038 0
M  V30 6342 C 611.704 -0.144885 -2.01179 0
M  V30 6343 C 612.017 1.24372 -1.50967 0
M  V30 6344 O 613.223 1.83291 -2.00292 0
M  V30 6345 C 611.679 -0.208244 -3.59297 0
M  V30 6346 C 611.287 -1.59869 -4.18504 0
M  V30 6347 C 613.031 0.229568 -4.23879 0
M  V30 6348 C 610.938 -1.61671 -5.68873 0
M  V30 6349 H 609.868 -0.0504005 -0.752314 0
M  V30 6350 H 612.519 -0.799639 -1.65161 0
M  V30 6351 H 610.901 0.513767 -3.92653 0
M  V30 6352 H 612.075 -2.34496 -3.96671 0
M  V30 6353 H 610.39 -1.98131 -3.66242 0
M  V30 6354 H 612.987 0.235758 -5.3418 0
M  V30 6355 H 613.33 1.25848 -3.96822 0
M  V30 6356 H 613.863 -0.440233 -3.95357 0
M  V30 6357 H 610.602 -2.62427 -6.00677 0
M  V30 6358 H 610.122 -0.913489 -5.92803 0
M  V30 6359 H 611.801 -1.35439 -6.32665 0
M  V30 6360 N 611.933 1.52934 -0.380664 0
M  V30 6361 C 612.881 2.27727 0.47361 0
M  V30 6362 C 613.875 1.31288 1.0705 0
M  V30 6363 O 615.081 1.4886 1.01197 0
M  V30 6364 H 611.456 0.732189 0.171475 0
M  V30 6365 H 613.427 2.97864 -0.178785 0
M  V30 6366 C 612.176 3.0904 1.59341 0
M  V30 6367 H 611.499 3.831 1.14343 0
M  V30 6368 H 612.939 3.64527 2.16555 0
M  V30 6369 C 611.398 2.20813 2.54447 0
M  V30 6370 O 611.928 1.82907 3.57642 0
M  V30 6371 N 610.134 1.85145 2.23986 0
M  V30 6372 H 609.681 2.16169 1.40103 0
M  V30 6373 H 609.639 1.26402 2.87871 0
M  V30 6374 N 613.412 0.11024 1.57214 0
M  V30 6375 C 614.658 -0.550684 1.9518 0
M  V30 6376 C 614.991 -1.66885 0.993122 0
M  V30 6377 O 614.266 -1.94479 0.0287907 0
M  V30 6378 C 614.549 -1.09163 3.43155 0
M  V30 6379 C 614.402 0.0225198 4.49794 0
M  V30 6380 C 615.721 -1.98527 3.92778 0
M  V30 6381 H 612.84 -0.198706 0.709708 0
M  V30 6382 H 615.482 0.184024 1.89107 0
M  V30 6383 H 613.632 -1.71775 3.48462 0
M  V30 6384 H 615.304 0.657443 4.56591 0
M  V30 6385 H 613.547 0.686868 4.28328 0
M  V30 6386 H 614.218 -0.39706 5.5057 0
M  V30 6387 H 616.694 -1.458 3.8972 0
M  V30 6388 H 615.57 -2.33298 4.96853 0
M  V30 6389 H 615.831 -2.90846 3.32958 0
M  V30 6390 N 614.89 -1.56749 -0.16351 0
M  V30 6391 C 616.136 -1.82704 -0.880168 0
M  V30 6392 C 616.469 -0.689311 -1.81555 0
M  V30 6393 O 615.744 0.308224 -1.92042 0
M  V30 6394 C 616.027 -3.19084 -1.66905 0
M  V30 6395 C 615.88 -4.43397 -0.756269 0
M  V30 6396 C 617.199 -3.52493 -2.63509 0
M  V30 6397 H 614.318 -0.664608 -0.318535 0
M  V30 6398 H 616.96 -1.89438 -0.146036 0
M  V30 6399 H 615.11 -3.13475 -2.2949 0
M  V30 6400 H 616.782 -4.61079 -0.14269 0
M  V30 6401 H 615.025 -4.33752 -0.0647944 0
M  V30 6402 H 615.696 -5.3539 -1.34393 0
M  V30 6403 H 618.172 -3.58606 -2.11047 0
M  V30 6404 H 617.048 -4.48979 -3.15767 0
M  V30 6405 H 617.309 -2.77597 -3.44082 0
M  V30 6406 N 616.368 0.432326 -1.51554 0
M  V30 6407 C 617.596 1.20364 -1.68286 0
M  V30 6408 C 618.011 1.84888 -0.38233 0
M  V30 6409 O 617.368 1.70924 0.639627 0
M  V30 6410 C 617.419 2.28398 -2.80208 0
M  V30 6411 O 617.14 1.66512 -4.05223 0
M  V30 6412 C 618.641 3.18584 -3.08251 0
M  V30 6413 H 615.861 0.36259 -0.564596 0
M  V30 6414 H 618.405 0.511647 -1.97996 0
M  V30 6415 H 616.56 2.93305 -2.53083 0
M  V30 6416 H 616.974 2.37951 -4.67418 0
M  V30 6417 H 618.448 3.90511 -3.90135 0
M  V30 6418 H 618.925 3.79628 -2.2086 0
M  V30 6419 H 619.531 2.59372 -3.37055 0
M  V30 6420 N 617.846 1.41785 0.688094 0
M  V30 6421 C 619.086 1.43018 1.46032 0
M  V30 6422 C 619.45 0.0402632 1.91958 0
M  V30 6423 O 620.651 -0.0726425 2.68702 0
M  V30 6424 C 618.922 2.4151 2.63453 0
M  V30 6425 S 620.481 2.61335 3.5249 0
M  V30 6426 H 617.299 0.506546 0.498931 0
M  V30 6427 H 619.901 1.78283 0.80221 0
M  V30 6428 H 618.605 3.41286 2.27929 0
M  V30 6429 H 618.136 2.07624 3.34149 0
M  V30 6430 H 620.151 1.88637 4.58945 0
M  V30 6431 N 619.324 -0.923095 1.27737 0
M  V30 6432 C 620.287 -2.00587 1.10894 0
M  V30 6433 C 621.287 -1.60718 0.0514927 0
M  V30 6434 O 622.477 -1.71658 0.296481 0
M  V30 6435 C 619.609 -3.33829 0.690717 0
M  V30 6436 H 620.802 -2.16959 2.07048 0
M  V30 6437 H 618.355 -1.10451 1.1059 0
M  V30 6438 H 619.09 -3.23157 -0.272 0
M  V30 6439 H 618.875 -3.64125 1.45448 0
M  V30 6440 H 620.365 -4.13336 0.595252 0
M  V30 6441 N 620.802 -1.09834 -1.13024 0
M  V30 6442 C 621.765 -0.745058 -2.16752 0
M  V30 6443 C 622.765 0.227435 -1.59183 0
M  V30 6444 O 623.955 0.0050786 -1.74199 0
M  V30 6445 C 621.087 -0.102543 -3.40746 0
M  V30 6446 H 622.28 -1.66375 -2.49518 0
M  V30 6447 H 619.833 -0.898061 -1.27924 0
M  V30 6448 H 620.568 0.827177 -3.13573 0
M  V30 6449 H 620.353 -0.80235 -3.83803 0
M  V30 6450 H 621.843 0.129082 -4.174 0
M  V30 6451 N 622.28 1.30327 -0.886154 0
M  V30 6452 C 623.528 1.9571 -0.504195 0
M  V30 6453 C 623.849 1.70294 0.950003 0
M  V30 6454 O 623.119 1.02718 1.66811 0
M  V30 6455 H 621.699 0.72412 -0.183465 0
M  V30 6456 H 624.361 1.58835 -1.12949 0
M  V30 6457 H 623.457 3.04704 -0.675431 0
M  V30 6458 N 623.758 0.647228 1.43697 0
M  V30 6459 C 625.007 0.155552 2.01099 0
M  V30 6460 C 625.32 -1.23569 1.51624 0
M  V30 6461 O 626.526 -1.82226 2.01261 0
M  V30 6462 C 624.982 0.227296 3.59182 0
M  V30 6463 C 624.59 1.62086 4.17651 0
M  V30 6464 C 626.334 -0.207085 4.23995 0
M  V30 6465 C 624.241 1.64685 5.68008 0
M  V30 6466 H 623.171 0.0543895 0.752036 0
M  V30 6467 H 625.822 0.808386 1.64734 0
M  V30 6468 H 624.204 -0.492937 3.9292 0
M  V30 6469 H 625.378 2.36597 3.95422 0
M  V30 6470 H 623.693 2.0007 3.65186 0
M  V30 6471 H 626.29 -0.207426 5.34298 0
M  V30 6472 H 626.633 -1.23742 3.97484 0
M  V30 6473 H 627.166 0.461193 3.95118 0
M  V30 6474 H 623.905 2.65608 5.99277 0
M  V30 6475 H 623.425 0.944914 5.9231 0
M  V30 6476 H 625.104 1.38792 6.31938 0
M  V30 6477 N 625.236 -1.5273 0.388769 0
M  V30 6478 C 626.166 -2.29353 -0.438111 0
M  V30 6479 C 627.147 -1.32719 -1.06394 0
M  V30 6480 O 628.332 -1.61612 -1.07681 0
M  V30 6481 C 625.462 -3.09995 -1.56589 0
M  V30 6482 C 624.416 -4.14509 -1.06613 0
M  V30 6483 C 623.742 -4.83372 -2.28594 0
M  V30 6484 C 625.042 -5.22127 -0.134459 0
M  V30 6485 H 626.736 -2.98723 0.201206 0
M  V30 6486 H 624.282 -1.43665 0.0982089 0
M  V30 6487 H 626.235 -3.62357 -2.15118 0
M  V30 6488 H 624.959 -2.38357 -2.23279 0
M  V30 6489 H 623.618 -3.63128 -0.503383 0
M  V30 6490 H 623.266 -4.08283 -2.93792 0
M  V30 6491 H 622.966 -5.54012 -1.95817 0
M  V30 6492 H 624.49 -5.38538 -2.87766 0
M  V30 6493 H 625.904 -5.69851 -0.627914 0
M  V30 6494 H 624.301 -6.00011 0.103534 0
M  V30 6495 H 625.371 -4.77971 0.816798 0
M  V30 6496 N 626.714 -0.118576 -1.57153 0
M  V30 6497 C 627.939 0.550582 -1.99958 0
M  V30 6498 C 628.364 1.59458 -0.997736 0
M  V30 6499 O 627.722 1.81274 0.0306269 0
M  V30 6500 C 627.77 1.15379 -3.41643 0
M  V30 6501 O 626.874 2.26932 -3.44348 0
M  V30 6502 H 626.215 0.137567 -0.649593 0
M  V30 6503 H 628.745 -0.206926 -2.03551 0
M  V30 6504 H 628.755 1.48942 -3.79843 0
M  V30 6505 H 627.43 0.389087 -4.14076 0
M  V30 6506 H 626.007 1.94812 -3.17967 0
M  V30 6507 N 628.193 1.56834 0.155195 0
M  V30 6508 C 629.141 1.98584 1.21107 0
M  V30 6509 C 630.135 0.876987 1.44932 0
M  V30 6510 O 631.341 1.06215 1.45322 0
M  V30 6511 H 627.716 0.632039 0.407469 0
M  V30 6512 H 629.687 2.86561 0.832195 0
M  V30 6513 C 628.436 2.37555 2.53895 0
M  V30 6514 H 627.759 3.22428 2.3639 0
M  V30 6515 H 629.199 2.70598 3.26424 0
M  V30 6516 C 627.658 1.22507 3.13837 0
M  V30 6517 O 628.188 0.521388 3.98302 0
M  V30 6518 N 626.394 0.991444 2.73164 0
M  V30 6519 H 625.941 1.56544 2.04577 0
M  V30 6520 H 625.899 0.223546 3.13604 0
M  V30 6521 N 629.671 -0.424282 1.51781 0
M  V30 6522 C 630.601 -1.52305 1.7699 0
M  V30 6523 C 631.582 -1.5839 0.620209 0
M  V30 6524 O 632.767 -1.73908 0.864268 0
M  V30 6525 C 629.897 -2.90271 1.90683 0
M  V30 6526 C 628.851 -2.99043 3.06198 0
M  V30 6527 C 628.177 -4.39116 3.05092 0
M  V30 6528 C 629.477 -2.7192 4.45934 0
M  V30 6529 H 631.171 -1.31461 2.68995 0
M  V30 6530 H 628.717 -0.630985 1.29439 0
M  V30 6531 H 630.67 -3.6711 2.06901 0
M  V30 6532 H 629.394 -3.12376 0.953365 0
M  V30 6533 H 628.053 -2.24646 2.89706 0
M  V30 6534 H 627.701 -4.58207 2.07498 0
M  V30 6535 H 627.401 -4.45912 3.82669 0
M  V30 6536 H 628.925 -5.17911 3.2342 0
M  V30 6537 H 630.339 -3.38487 4.62709 0
M  V30 6538 H 628.736 -2.90111 5.25315 0
M  V30 6539 H 629.806 -1.67445 4.55072 0
M  V30 6540 N 631.149 -1.42148 -0.680565 0
M  V30 6541 C 632.377 -1.45696 -1.46902 0
M  V30 6542 C 632.792 -0.0665858 -1.88683 0
M  V30 6543 O 632.149 0.917436 -1.57764 0
M  V30 6544 C 632.2 -2.37898 -2.72188 0
M  V30 6545 O 631.921 -3.71526 -2.32163 0
M  V30 6546 C 633.422 -2.50407 -3.65802 0
M  V30 6547 H 630.642 -0.495729 -0.45221 0
M  V30 6548 H 633.186 -1.866 -0.836709 0
M  V30 6549 H 631.341 -2.00263 -3.31622 0
M  V30 6550 H 631.755 -4.20849 -3.13027 0
M  V30 6551 H 633.229 -3.19056 -4.50452 0
M  V30 6552 H 633.706 -1.5401 -4.11312 0
M  V30 6553 H 634.312 -2.8874 -3.12265 0
M  V30 6554 N 632.627 0.916307 -1.28225 0
M  V30 6555 C 633.867 1.67964 -1.16479 0
M  V30 6556 C 634.231 1.8991 0.282494 0
M  V30 6557 O 635.432 2.63671 0.522607 0
M  V30 6558 C 633.703 3.00251 -1.93866 0
M  V30 6559 S 635.262 3.91353 -1.98465 0
M  V30 6560 H 632.08 0.576873 -0.415619 0
M  V30 6561 H 634.682 1.09006 -1.62289 0
M  V30 6562 H 633.386 2.81978 -2.98189 0
M  V30 6563 H 632.917 3.64257 -1.48595 0
M  V30 6564 H 634.932 4.84096 -1.0893 0
M  V30 6565 N 634.105 1.10431 1.1244 0
M  V30 6566 C 635.053 0.747974 2.20246 0
M  V30 6567 C 636.047 -0.255848 1.67457 0
M  V30 6568 O 637.253 -0.116221 1.79624 0
M  V30 6569 H 633.628 0.223946 0.71788 0
M  V30 6570 H 635.599 1.6661 2.47556 0
M  V30 6571 C 634.348 0.195957 3.47147 0
M  V30 6572 H 633.671 0.959606 3.88113 0
M  V30 6573 H 635.111 -0.0153154 4.23997 0
M  V30 6574 C 633.57 -1.07132 3.19413 0
M  V30 6575 O 634.1 -2.15284 3.3914 0
M  V30 6576 N 632.306 -0.98994 2.73219 0
M  V30 6577 H 631.853 -0.109736 2.57366 0
M  V30 6578 H 631.811 -1.83856 2.55038 0
M  V30 6579 N 635.583 -1.29855 0.893053 0
M  V30 6580 C 636.531 -2.29867 0.355512 0
M  V30 6581 C 637.525 -1.60502 -0.541801 0
M  V30 6582 O 638.731 -1.74902 -0.425339 0
M  V30 6583 H 635.106 -0.745805 0.0963247 0
M  V30 6584 H 637.077 -2.72655 1.21252 0
M  V30 6585 C 635.826 -3.453 -0.407801 0
M  V30 6586 H 635.149 -3.98864 0.273426 0
M  V30 6587 H 636.589 -4.17334 -0.748887 0
M  V30 6588 C 635.048 -2.96051 -1.60795 0
M  V30 6589 O 635.578 -2.96763 -2.7073 0
M  V30 6590 N 633.784 -2.51963 -1.44786 0
M  V30 6591 H 633.331 -2.51583 -0.553498 0
M  V30 6592 H 633.289 -2.1937 -2.2522 0
M  V30 6593 N 637.061 -0.65484 -1.43351 0
M  V30 6594 C 638.291 -0.176429 -2.05845 0
M  V30 6595 C 638.699 1.16375 -1.49176 0
M  V30 6596 O 638.042 1.72981 -0.618322 0
M  V30 6597 C 638.104 -0.0125844 -3.59498 0
M  V30 6598 C 637.768 -1.27831 -4.38758 0
M  V30 6599 C 638.765 -2.2074 -4.70712 0
M  V30 6600 C 636.45 -1.52035 -4.78739 0
M  V30 6601 C 638.444 -3.36145 -5.41558 0
M  V30 6602 C 636.131 -2.67732 -5.49329 0
M  V30 6603 C 637.129 -3.59612 -5.80662 0
M  V30 6604 O 636.817 -4.73289 -6.4981 0
M  V30 6605 H 636.549 -0.0879682 -0.670252 0
M  V30 6606 H 639.103 -0.896193 -1.84818 0
M  V30 6607 H 637.333 0.762567 -3.79107 0
M  V30 6608 H 639.022 0.423392 -4.03686 0
M  V30 6609 H 639.788 -2.03284 -4.40341 0
M  V30 6610 H 635.667 -0.813987 -4.53757 0
M  V30 6611 H 639.211 -4.07881 -5.65932 0
M  V30 6612 H 635.108 -2.85122 -5.79116 0
M  V30 6613 H 635.876 -4.72575 -6.68293 0
M  V30 6614 N 638.539 1.52521 -0.396863 0
M  V30 6615 C 639.486 2.26671 0.434624 0
M  V30 6616 C 640.456 1.28584 1.05144 0
M  V30 6617 O 641.641 1.57426 1.07804 0
M  V30 6618 C 638.781 3.08234 1.55196 0
M  V30 6619 C 637.894 4.21261 0.957262 0
M  V30 6620 C 637.029 4.90205 2.04627 0
M  V30 6621 C 636.068 5.95213 1.42787 0
M  V30 6622 N 635.205 6.57723 2.45651 0
M  V30 6623 H 640.045 2.973 -0.204139 0
M  V30 6624 H 637.582 1.46669 -0.112505 0
M  V30 6625 H 639.54 3.53819 2.2106 0
M  V30 6626 H 638.17 2.398 2.16092 0
M  V30 6627 H 637.222 3.79935 0.188005 0
M  V30 6628 H 638.534 4.96624 0.465416 0
M  V30 6629 H 637.688 5.39133 2.78246 0
M  V30 6630 H 636.427 4.14383 2.57174 0
M  V30 6631 H 635.432 5.45616 0.676968 0
M  V30 6632 H 636.657 6.72972 0.910255 0
M  V30 6633 H 634.603 5.84737 2.97353 0
M  V30 6634 H 634.52 7.28723 2.01243 0
M  V30 6635 H 635.788 7.11293 3.18876 0
M  V30 6636 N 640.017 0.126909 1.57088 0
M  V30 6637 C 640.965 -0.837618 2.16995 0
M  V30 6638 C 641.959 -1.26974 1.12133 0
M  V30 6639 O 643.165 -1.24056 1.30423 0
M  V30 6640 H 639.54 -0.288256 0.694559 0
M  V30 6641 H 641.511 -0.307957 2.96807 0
M  V30 6642 C 640.26 -2.07474 2.79016 0
M  V30 6643 H 639.583 -1.75117 3.59408 0
M  V30 6644 H 641.023 -2.72949 3.24461 0
M  V30 6645 C 639.482 -2.86967 1.76498 0
M  V30 6646 O 640.012 -3.82625 1.22316 0
M  V30 6647 N 638.218 -2.51111 1.46258 0
M  V30 6648 H 637.765 -1.73389 1.90509 0
M  V30 6649 H 637.723 -3.04594 0.779085 0
M  V30 6650 N 641.495 -1.56914 -0.146875 0
M  V30 6651 C 642.442 -1.98275 -1.18134 0
M  V30 6652 C 643.412 -0.850367 -1.42681 0
M  V30 6653 O 644.597 -1.11244 -1.55014 0
M  V30 6654 C 641.737 -2.36861 -2.5098 0
M  V30 6655 C 640.85 -3.63391 -2.33605 0
M  V30 6656 C 639.985 -3.91079 -3.59486 0
M  V30 6657 C 639.024 -5.10879 -3.37149 0
M  V30 6658 N 638.161 -5.34577 -4.55161 0
M  V30 6659 H 643.001 -2.8645 -0.821622 0
M  V30 6660 H 640.538 -1.41718 -0.394248 0
M  V30 6661 H 642.496 -2.57262 -3.28439 0
M  V30 6662 H 641.126 -1.51766 -2.84898 0
M  V30 6663 H 640.178 -3.50766 -1.47199 0
M  V30 6664 H 641.49 -4.51007 -2.13059 0
M  V30 6665 H 640.644 -4.11979 -4.45374 0
M  V30 6666 H 639.383 -3.01885 -3.83036 0
M  V30 6667 H 638.388 -4.89853 -2.49649 0
M  V30 6668 H 639.613 -6.01626 -3.14997 0
M  V30 6669 H 637.559 -4.48337 -4.78884 0
M  V30 6670 H 637.476 -6.16463 -4.37618 0
M  V30 6671 H 638.744 -5.59975 -5.42263 0
M  V30 6672 N 642.974 0.416227 -1.52004 0
M  V30 6673 C 643.907 1.52736 -1.6955 0
M  V30 6674 C 644.885 1.53264 -0.54305 0
M  V30 6675 O 646.069 1.72077 -0.769527 0
M  V30 6676 C 643.196 2.91283 -1.72835 0
M  V30 6677 C 642.242 3.08695 -2.94295 0
M  V30 6678 S 643.075 2.82758 -4.54762 0
M  V30 6679 C 644.231 4.23548 -4.60823 0
M  V30 6680 H 644.464 1.37623 -2.63528 0
M  V30 6681 H 641.997 0.607335 -1.41954 0
M  V30 6682 H 643.955 3.71134 -1.75413 0
M  V30 6683 H 642.616 3.03742 -0.799966 0
M  V30 6684 H 641.809 4.10042 -2.93056 0
M  V30 6685 H 641.411 2.36699 -2.89568 0
M  V30 6686 H 643.703 5.17078 -4.37763 0
M  V30 6687 H 644.646 4.29813 -5.62731 0
M  V30 6688 H 645.054 4.08188 -3.89927 0
M  V30 6689 N 644.452 1.42507 0.673017 0
M  V30 6690 C 645.385 1.40557 1.79774 0
M  V30 6691 C 646.363 0.269606 1.60349 0
M  V30 6692 O 647.547 0.460105 1.82798 0
M  V30 6693 C 644.674 1.19815 3.168 0
M  V30 6694 C 643.72 2.36429 3.5497 0
M  V30 6695 S 644.553 3.98963 3.57196 0
M  V30 6696 C 645.709 3.80567 4.9691 0
M  V30 6697 H 645.942 2.35734 1.81154 0
M  V30 6698 H 643.475 1.293 0.843846 0
M  V30 6699 H 645.433 1.08535 3.95892 0
M  V30 6700 H 644.094 0.262215 3.13004 0
M  V30 6701 H 643.287 2.17669 4.54573 0
M  V30 6702 H 642.889 2.44233 2.83242 0
M  V30 6703 H 645.181 3.41668 5.85038 0
M  V30 6704 H 646.124 4.79852 5.20718 0
M  V30 6705 H 646.532 3.13399 4.69512 0
M  V30 6706 N 645.93 -0.909495 1.28709 0
M  V30 6707 C 647.176 -1.66151 1.16283 0
M  V30 6708 C 647.509 -1.92067 -0.287069 0
M  V30 6709 O 646.784 -1.52409 -1.20837 0
M  V30 6710 C 647.067 -3.01676 1.9663 0
M  V30 6711 C 646.92 -2.82888 3.49707 0
M  V30 6712 C 648.239 -4.02274 1.78504 0
M  V30 6713 H 645.358 -0.602966 0.423793 0
M  V30 6714 H 648 -1.05418 1.58073 0
M  V30 6715 H 646.15 -3.53515 1.61119 0
M  V30 6716 H 647.822 -2.38026 3.95147 0
M  V30 6717 H 646.065 -2.17862 3.75125 0
M  V30 6718 H 646.736 -3.79147 4.01187 0
M  V30 6719 H 649.212 -3.59511 2.09503 0
M  V30 6720 H 648.088 -4.95056 2.37088 0
M  V30 6721 H 648.349 -4.35903 0.737647 0
M  V30 6722 N 647.408 -1.11026 -1.11852 0
M  V30 6723 C 648.648 -0.866348 -1.85132 0
M  V30 6724 C 649.012 0.597236 -1.82475 0
M  V30 6725 O 650.213 0.957744 -2.51159 0
M  V30 6726 C 648.484 -1.40721 -3.28531 0
M  V30 6727 S 650.043 -1.29964 -4.19112 0
M  V30 6728 H 646.861 -0.312899 -0.638447 0
M  V30 6729 H 649.463 -1.41691 -1.34699 0
M  V30 6730 H 648.167 -2.46631 -3.28027 0
M  V30 6731 H 647.698 -0.85349 -3.8403 0
M  V30 6732 H 649.713 -0.261333 -4.95511 0
M  V30 6733 N 648.886 1.2938 -0.899927 0
M  V30 6734 C 649.818 2.26737 -0.335139 0
M  V30 6735 C 650.831 1.54316 0.518681 0
M  V30 6736 O 652.02 1.75313 0.335803 0
M  V30 6737 C 649.12 3.34558 0.540774 0
M  V30 6738 C 648.293 4.36455 -0.287372 0
M  V30 6739 C 647.352 5.2361 0.52141 0
M  V30 6740 O 646.378 5.69167 -0.0611735 0
M  V30 6741 N 647.58 5.50985 1.82745 0
M  V30 6742 H 650.345 2.75838 -1.17191 0
M  V30 6743 H 647.906 1.42716 -0.764438 0
M  V30 6744 H 649.898 3.89794 1.08825 0
M  V30 6745 H 648.468 2.85272 1.27823 0
M  V30 6746 H 647.688 3.80875 -1.01626 0
M  V30 6747 H 648.976 5.01573 -0.854518 0
M  V30 6748 H 648.374 5.15781 2.32349 0
M  V30 6749 H 646.931 6.09036 2.32204 0
M  V30 6750 N 650.364 0.662433 1.43002 0
M  V30 6751 C 651.61 0.179857 2.02001 0
M  V30 6752 C 651.943 -1.20625 1.52195 0
M  V30 6753 O 651.218 -1.80726 0.718911 0
M  V30 6754 C 651.501 0.200845 3.59539 0
M  V30 6755 C 651.354 1.62153 4.19555 0
M  V30 6756 C 652.673 -0.457738 4.37713 0
M  V30 6757 H 649.792 0.0668305 0.733964 0
M  V30 6758 H 652.434 0.84487 1.70182 0
M  V30 6759 H 650.584 -0.365411 3.86778 0
M  V30 6760 H 652.256 2.23908 4.03315 0
M  V30 6761 H 650.499 2.16601 3.75854 0
M  V30 6762 H 651.17 1.58799 5.28665 0
M  V30 6763 H 653.646 0.0241495 4.16093 0
M  V30 6764 H 652.522 -0.412363 5.47349 0
M  V30 6765 H 652.783 -1.53336 4.14657 0
M  V30 6766 N 651.842 -1.52309 0.404946 0
M  V30 6767 C 653.09 -2.01368 -0.17186 0
M  V30 6768 C 653.411 -1.29261 -1.46002 0
M  V30 6769 O 652.681 -0.41729 -1.91404 0
M  V30 6770 H 651.261 -0.744034 -0.0664993 0
M  V30 6771 H 653.923 -1.87263 0.540228 0
M  V30 6772 H 653.019 -3.09888 -0.370957 0
M  V30 6773 N 653.32 -0.135238 -1.57019 0
M  V30 6774 C 654.568 0.51777 -1.95355 0
M  V30 6775 C 654.889 1.6617 -1.02042 0
M  V30 6776 O 654.159 1.95738 -0.0797343 0
M  V30 6777 H 652.739 0.194264 -0.721298 0
M  V30 6778 H 655.401 -0.207983 -1.93787 0
M  V30 6779 H 654.497 0.901675 -2.98791 0
M  V30 6780 N 654.798 1.5699 0.138552 0
M  V30 6781 C 656.047 1.82998 0.848205 0
M  V30 6782 C 656.36 0.717829 1.81952 0
M  V30 6783 O 657.566 0.863756 2.57394 0
M  V30 6784 C 656.022 3.24379 1.55904 0
M  V30 6785 C 655.63 4.43552 0.62971 0
M  V30 6786 C 657.374 3.59654 2.25498 0
M  V30 6787 C 655.281 5.75957 1.34266 0
M  V30 6788 H 654.211 0.682495 0.320495 0
M  V30 6789 H 656.862 1.83222 0.100924 0
M  V30 6790 H 655.244 3.18567 2.35226 0
M  V30 6791 H 656.418 4.6062 -0.128882 0
M  V30 6792 H 654.733 4.16379 0.0417526 0
M  V30 6793 H 657.33 4.55837 2.79493 0
M  V30 6794 H 657.673 2.86124 3.02388 0
M  V30 6795 H 658.206 3.67164 1.53087 0
M  V30 6796 H 654.945 6.52604 0.615441 0
M  V30 6797 H 654.465 5.62811 2.07375 0
M  V30 6798 H 656.144 6.19046 1.88126 0
M  V30 6799 N 656.276 -0.40816 1.52223 0
M  V30 6800 C 657.186 -1.52202 1.78526 0
M  V30 6801 C 658.202 -1.60546 0.670892 0
M  V30 6802 O 659.378 -1.77242 0.956404 0
M  V30 6803 C 656.443 -2.87928 1.93128 0
M  V30 6804 C 655.504 -2.89463 3.17033 0
M  V30 6805 C 654.737 -4.18715 3.30929 0
M  V30 6806 O 654.96 -5.12662 2.50067 0
M  V30 6807 O 653.894 -4.27125 4.24084 0
M  V30 6808 H 657.72 -1.32911 2.73072 0
M  V30 6809 H 655.305 -0.594112 1.37079 0
M  V30 6810 H 657.187 -3.68426 2.04549 0
M  V30 6811 H 655.862 -3.07285 1.01772 0
M  V30 6812 H 654.769 -2.07815 3.11069 0
M  V30 6813 H 656.102 -2.75055 4.08174 0
M  V30 6814 N 657.755 -1.42862 -0.66545 0
M  V30 6815 C 658.718 -1.46756 -1.76055 0
M  V30 6816 C 659.718 -0.353866 -1.56858 0
M  V30 6817 O 660.908 -0.615099 -1.62979 0
M  V30 6818 C 658.04 -1.30829 -3.14796 0
M  V30 6819 H 659.233 -2.44271 -1.73987 0
M  V30 6820 H 656.786 -1.29447 -0.875965 0
M  V30 6821 H 657.521 -0.342733 -3.22484 0
M  V30 6822 H 657.306 -2.11551 -3.30134 0
M  V30 6823 H 658.796 -1.36458 -3.94676 0
M  V30 6824 N 659.233 0.902656 -1.29189 0
M  V30 6825 C 660.163 2.02294 -1.16616 0
M  V30 6826 C 661.144 1.6999 -0.0611175 0
M  V30 6827 O 662.329 1.9271 -0.240072 0
M  V30 6828 C 659.459 3.37018 -0.83882 0
M  V30 6829 C 658.413 3.83522 -1.89986 0
M  V30 6830 C 657.739 5.15337 -1.42589 0
M  V30 6831 C 659.039 4.04169 -3.30824 0
M  V30 6832 H 660.733 2.13071 -2.10336 0
M  V30 6833 H 658.279 1.02378 -1.01266 0
M  V30 6834 H 660.232 4.14895 -0.737584 0
M  V30 6835 H 658.956 3.26325 0.134071 0
M  V30 6836 H 657.615 3.07859 -1.99043 0
M  V30 6837 H 657.263 5.01056 -0.441759 0
M  V30 6838 H 656.963 5.47423 -2.13547 0
M  V30 6839 H 658.487 5.95758 -1.3381 0
M  V30 6840 H 659.901 4.72537 -3.24626 0
M  V30 6841 H 658.298 4.47604 -3.99713 0
M  V30 6842 H 659.368 3.08604 -3.74021 0
M  V30 6843 N 660.711 1.11618 1.11262 0
M  V30 6844 C 661.957 0.867463 1.83311 0
M  V30 6845 C 662.29 -0.605366 1.84524 0
M  V30 6846 O 661.565 -1.44704 1.29965 0
M  V30 6847 C 661.848 1.43207 3.30399 0
M  V30 6848 C 661.701 2.97265 3.3757 0
M  V30 6849 C 663.02 1.08454 4.26528 0
M  V30 6850 H 660.139 0.316578 0.665543 0
M  V30 6851 H 662.781 1.38137 1.30454 0
M  V30 6852 H 660.931 0.994982 3.75543 0
M  V30 6853 H 662.603 3.49591 3.00971 0
M  V30 6854 H 660.846 3.33237 2.77733 0
M  V30 6855 H 661.517 3.31859 4.41105 0
M  V30 6856 H 663.993 1.4619 3.89574 0
M  V30 6857 H 662.869 1.50633 5.27826 0
M  V30 6858 H 663.13 -0.00444568 4.421 0
M  V30 6859 N 662.189 -1.289 0.906776 0
M  V30 6860 C 663.605 -1.47733 0.603902 0
M  V30 6861 C 663.805 -1.82568 -0.852702 0
M  V30 6862 O 662.861 -1.92642 -1.63234 0
M  V30 6863 C 664.174 -2.58522 1.53581 0
M  V30 6864 C 665.722 -2.72394 1.54177 0
M  V30 6865 C 666.197 -3.86318 2.46013 0
M  V30 6866 N 667.688 -3.93661 2.441 0
M  V30 6867 C 668.423 -4.81177 3.11859 0
M  V30 6868 N 667.919 -5.73333 3.88923 0
M  V30 6869 N 669.712 -4.74728 3.00981 0
M  V30 6870 H 661.863 -1.04567 1.84877 0
M  V30 6871 H 664.126 -0.520118 0.792579 0
M  V30 6872 H 663.832 -2.39667 2.57396 0
M  V30 6873 H 663.706 -3.55475 1.26165 0
M  V30 6874 H 666.093 -2.90641 0.511034 0
M  V30 6875 H 666.174 -1.75993 1.85634 0
M  V30 6876 H 665.818 -3.68826 3.49185 0
M  V30 6877 H 665.748 -4.82102 2.11862 0
M  V30 6878 H 668.239 -3.27751 1.88115 0
M  V30 6879 H 668.552 -6.36923 4.37663 0
M  V30 6880 H 666.897 -5.73196 3.93029 0
M  V30 6881 H 670.088 -4.01722 2.40286 0
M  V30 6882 H 670.261 -5.42719 3.54062 0
M  V30 6883 N 663.667 -0.670007 -1.42649 0
M  V30 6884 C 664.895 -0.19854 -2.05945 0
M  V30 6885 C 665.31 1.14243 -1.50313 0
M  V30 6886 O 664.667 1.70872 -0.641027 0
M  V30 6887 C 664.718 -0.11966 -3.61302 0
M  V30 6888 O 664.439 -1.40764 -4.1487 0
M  V30 6889 C 665.94 0.375878 -4.41704 0
M  V30 6890 H 663.16 -0.0976894 -0.663851 0
M  V30 6891 H 665.704 -0.915392 -1.82868 0
M  V30 6892 H 663.859 0.547851 -3.83507 0
M  V30 6893 H 664.273 -1.27784 -5.08696 0
M  V30 6894 H 665.747 0.379988 -5.50691 0
M  V30 6895 H 666.224 1.41028 -4.15942 0
M  V30 6896 H 666.83 -0.259727 -4.24506 0
M  V30 6897 N 665.145 1.52092 -0.413018 0
M  V30 6898 C 666.391 2.02154 0.161737 0
M  V30 6899 C 666.724 1.29789 1.44459 0
M  V30 6900 O 665.999 0.405378 1.90229 0
M  V30 6901 C 666.282 3.5781 0.405463 0
M  V30 6902 C 666.135 4.40819 -0.894335 0
M  V30 6903 C 667.454 4.23821 1.18591 0
M  V30 6904 H 664.573 0.734769 0.0573077 0
M  V30 6905 H 667.215 1.81948 -0.547247 0
M  V30 6906 H 665.365 3.75158 1.0094 0
M  V30 6907 H 667.037 4.35175 -1.53039 0
M  V30 6908 H 665.28 4.06877 -1.50444 0
M  V30 6909 H 665.951 5.47819 -0.678144 0
M  V30 6910 H 668.427 4.10596 0.674573 0
M  V30 6911 H 667.303 5.32663 1.3252 0
M  V30 6912 H 667.564 3.83038 2.20758 0
M  V30 6913 N 666.623 0.143563 1.56945 0
M  V30 6914 C 667.553 -0.7936 2.196 0
M  V30 6915 C 668.534 -1.25955 1.14321 0
M  V30 6916 O 669.719 -1.31773 1.42651 0
M  V30 6917 C 666.849 -2.03424 2.81489 0
M  V30 6918 C 665.803 -1.70519 3.92565 0
M  V30 6919 C 665.129 -3.01817 4.41373 0
M  V30 6920 C 666.429 -0.95449 5.13504 0
M  V30 6921 H 668.123 -0.271423 2.98167 0
M  V30 6922 H 665.669 -0.12911 1.4342 0
M  V30 6923 H 667.622 -2.69463 3.23987 0
M  V30 6924 H 666.346 -2.58008 2.00248 0
M  V30 6925 H 665.005 -1.06859 3.5068 0
M  V30 6926 H 664.653 -3.54386 3.56959 0
M  V30 6927 H 664.353 -2.80565 5.16292 0
M  V30 6928 H 665.877 -3.68934 4.86539 0
M  V30 6929 H 667.291 -1.5169 5.52868 0
M  V30 6930 H 665.688 -0.842035 5.94163 0
M  V30 6931 H 666.758 0.0544033 4.84869 0
M  V30 6932 N 668.101 -1.57061 -0.130224 0
M  V30 6933 C 669.517 -1.52103 -0.483413 0
M  V30 6934 C 669.717 -0.854752 -1.82473 0
M  V30 6935 O 668.773 -0.432342 -2.48771 0
M  V30 6936 C 670.086 -2.96872 -0.47825 0
M  V30 6937 C 671.634 -3.07902 -0.562592 0
M  V30 6938 C 672.109 -4.54211 -0.587929 0
M  V30 6939 N 673.6 -4.58621 -0.649684 0
M  V30 6940 C 674.335 -5.69227 -0.690551 0
M  V30 6941 N 673.831 -6.89358 -0.689743 0
M  V30 6942 N 675.624 -5.57304 -0.732708 0
M  V30 6943 H 667.775 -1.98764 0.748779 0
M  V30 6944 H 670.038 -0.907248 0.274965 0
M  V30 6945 H 669.744 -3.48944 0.439444 0
M  V30 6946 H 669.618 -3.53716 -1.31013 0
M  V30 6947 H 672.005 -2.5584 -1.47071 0
M  V30 6948 H 672.086 -2.54073 0.296764 0
M  V30 6949 H 671.73 -5.06915 0.316096 0
M  V30 6950 H 671.66 -5.0584 -1.46401 0
M  V30 6951 H 674.151 -3.72146 -0.656927 0
M  V30 6952 H 674.464 -7.69408 -0.723239 0
M  V30 6953 H 672.809 -6.91884 -0.657347 0
M  V30 6954 H 676 -4.62363 -0.730625 0
M  V30 6955 H 676.173 -6.43515 -0.76109 0
M  V30 6956 N 669.579 0.400081 -1.52437 0
M  V30 6957 C 670.542 1.4707 -1.75793 0
M  V30 6958 C 671.542 1.48036 -0.627856 0
M  V30 6959 O 672.732 1.49401 -0.895817 0
M  V30 6960 C 669.864 2.86427 -1.84858 0
M  V30 6961 H 671.057 1.27649 -2.71377 0
M  V30 6962 H 668.61 0.631141 -1.42991 0
M  V30 6963 H 669.345 3.11207 -0.912194 0
M  V30 6964 H 669.13 2.87128 -2.6702 0
M  V30 6965 H 670.62 3.64023 -2.04638 0
M  V30 6966 N 671.057 1.43213 0.657864 0
M  V30 6967 C 672.305 1.44298 1.41501 0
M  V30 6968 C 672.626 0.0666478 1.94886 0
M  V30 6969 O 671.896 -0.897345 1.74139 0
M  V30 6970 H 670.476 0.531257 0.525143 0
M  V30 6971 H 673.138 1.78777 0.776195 0
M  V30 6972 H 672.234 2.1528 2.25966 0
M  V30 6973 N 672.536 -0.895792 1.29666 0
M  V30 6974 C 673.813 -1.62723 1.08538 0
M  V30 6975 C 674.193 -2.07848 -0.369119 0
M  V30 6976 O 673.541 -1.8372 -1.35864 0
M  V30 6977 C 673.751 -2.80505 2.07648 0
M  V30 6978 C 675.099 -3.51098 2.3878 0
M  V30 6979 O 676.123 -2.90679 2.05874 0
M  V30 6980 O 674.982 -4.60028 2.9502 0
M  V30 6981 H 672.076 -0.714692 0.416106 0
M  V30 6982 H 674.622 -0.943517 1.41053 0
M  V30 6983 H 673.394 -2.44386 3.05599 0
M  V30 6984 H 673.017 -3.5658 1.75887 0
M  V30 6985 N 674.014 -1.12206 -1.10668 0
M  V30 6986 C 675.43 -0.857619 -1.346 0
M  V30 6987 C 675.63 0.513542 -1.94846 0
M  V30 6988 O 674.686 1.26273 -2.18658 0
M  V30 6989 C 675.999 -1.97212 -2.26998 0
M  V30 6990 C 677.547 -2.00272 -2.40542 0
M  V30 6991 C 678.022 -3.10948 -3.36267 0
M  V30 6992 N 679.513 -3.10375 -3.43834 0
M  V30 6993 C 680.248 -3.92651 -4.17867 0
M  V30 6994 N 679.744 -4.84911 -4.94807 0
M  V30 6995 N 681.537 -3.80798 -4.1346 0
M  V30 6996 H 673.688 -2.00558 -0.699306 0
M  V30 6997 H 675.951 -0.872612 -0.370477 0
M  V30 6998 H 675.657 -2.96002 -1.89936 0
M  V30 6999 H 675.531 -1.87521 -3.27286 0
M  V30 7000 H 677.918 -1.02103 -2.76874 0
M  V30 7001 H 677.999 -2.14037 -1.40077 0
M  V30 7002 H 677.643 -4.09348 -3.00661 0
M  V30 7003 H 677.573 -2.94421 -4.36605 0
M  V30 7004 H 680.064 -2.43536 -2.88961 0
M  V30 7005 H 680.377 -5.44207 -5.48688 0
M  V30 7006 H 678.722 -4.88926 -4.93939 0
M  V30 7007 H 681.913 -3.08058 -3.52445 0
M  V30 7008 H 682.086 -4.4515 -4.70898 0
M  V30 7009 N 675.492 1.28418 -0.913599 0
M  V30 7010 C 676.402 2.31043 -0.406965 0
M  V30 7011 C 677.418 1.66501 0.505298 0
M  V30 7012 O 678.594 1.97558 0.391522 0
M  V30 7013 C 675.659 3.4498 0.344901 0
M  V30 7014 C 674.72 4.25078 -0.600563 0
M  V30 7015 C 673.953 5.33575 0.115516 0
M  V30 7016 O 674.176 5.54503 1.33727 0
M  V30 7017 O 673.11 5.9939 -0.549095 0
M  V30 7018 H 676.936 2.76387 -1.25873 0
M  V30 7019 H 674.521 1.33109 -0.678415 0
M  V30 7020 H 676.403 4.14314 0.769542 0
M  V30 7021 H 675.078 3.01719 1.1725 0
M  V30 7022 H 673.985 3.58334 -1.0746 0
M  V30 7023 H 675.318 4.72018 -1.39497 0
M  V30 7024 N 676.97 0.677563 1.42291 0
M  V30 7025 C 678.247 0.129803 1.95169 0
M  V30 7026 C 678.627 -1.35605 1.61786 0
M  V30 7027 O 677.975 -2.09361 0.915444 0
M  V30 7028 C 678.185 0.401889 3.46678 0
M  V30 7029 C 679.533 0.319889 4.23393 0
M  V30 7030 O 680.557 0.33579 3.54614 0
M  V30 7031 O 679.416 0.264459 5.4586 0
M  V30 7032 H 676.51 0.00447433 0.826988 0
M  V30 7033 H 679.056 0.752483 1.52105 0
M  V30 7034 H 677.828 1.43108 3.64192 0
M  V30 7035 H 677.451 -0.252662 3.96796 0
M  V30 7036 N 678.448 -1.51871 0.421078 0
M  V30 7037 C 679.697 -2.01125 -0.152206 0
M  V30 7038 C 680.01 -1.3106 -1.45199 0
M  V30 7039 O 681.216 -1.71195 -2.10724 0
M  V30 7040 C 679.672 -3.58458 -0.3218 0
M  V30 7041 C 679.28 -4.37448 0.96659 0
M  V30 7042 C 681.024 -4.15908 -0.84973 0
M  V30 7043 C 678.931 -5.86451 0.763529 0
M  V30 7044 H 677.861 -0.751556 -0.0606565 0
M  V30 7045 H 680.512 -1.75115 0.548354 0
M  V30 7046 H 678.894 -3.80847 -1.08498 0
M  V30 7047 H 680.068 -4.26814 1.73684 0
M  V30 7048 H 678.383 -3.91373 1.42183 0
M  V30 7049 H 680.98 -5.24922 -1.01788 0
M  V30 7050 H 681.323 -3.74031 -1.82774 0
M  V30 7051 H 681.856 -3.97535 -0.145297 0
M  V30 7052 H 678.595 -6.3271 1.71344 0
M  V30 7053 H 678.115 -5.99791 0.0327889 0
M  V30 7054 H 679.794 -6.45697 0.410354 0
M  V30 7055 N 679.926 -0.151884 -1.56866 0
M  V30 7056 C 681.154 0.504813 -2.00647 0
M  V30 7057 C 681.569 1.58098 -1.03201 0
M  V30 7058 O 680.926 1.82476 -0.0297814 0
M  V30 7059 C 680.977 1.10099 -3.44326 0
M  V30 7060 O 680.698 0.0678021 -4.38048 0
M  V30 7061 C 682.199 1.83782 -4.03409 0
M  V30 7062 H 679.419 0.130989 -0.65809 0
M  V30 7063 H 681.963 -0.247903 -2.02992 0
M  V30 7064 H 680.118 1.8043 -3.42817 0
M  V30 7065 H 680.532 0.505237 -5.22061 0
M  V30 7066 H 682.006 2.2078 -5.05925 0
M  V30 7067 H 682.483 2.72557 -3.44397 0
M  V30 7068 H 683.089 1.18138 -4.08563 0
M  V30 7069 N 681.404 1.57128 0.121893 0
M  V30 7070 C 682.314 2.03425 1.16857 0
M  V30 7071 C 683.33 0.954108 1.45509 0
M  V30 7072 O 684.506 1.26541 1.56682 0
M  V30 7073 C 681.571 2.42685 2.47599 0
M  V30 7074 C 680.632 3.64767 2.2637 0
M  V30 7075 C 679.865 4.02145 3.50878 0
M  V30 7076 O 680.088 3.39897 4.58068 0
M  V30 7077 O 679.022 4.95262 3.42051 0
M  V30 7078 H 682.848 2.92825 0.80544 0
M  V30 7079 H 680.433 1.45654 0.332477 0
M  V30 7080 H 682.315 2.68684 3.24634 0
M  V30 7081 H 680.99 1.56432 2.83392 0
M  V30 7082 H 679.897 3.43922 1.47203 0
M  V30 7083 H 681.23 4.51716 1.95482 0
M  V30 7084 N 682.882 -0.391992 1.52647 0
M  V30 7085 C 684.293 -0.970064 1.5952 0
M  V30 7086 C 684.644 -1.91059 0.446207 0
M  V30 7087 O 683.769 -2.12062 -0.431125 0
M  V30 7088 C 684.364 -1.76614 2.89125 0
M  V30 7089 C 682.923 -2.29396 2.9842 0
M  V30 7090 C 682.07 -1.09864 2.54608 0
M  V30 7091 H 685.021 -0.171638 1.57769 0
M  V30 7092 H 685.042 -2.62511 2.75442 0
M  V30 7093 H 684.554 -1.08135 3.72731 0
M  V30 7094 H 682.655 -3.01196 2.19344 0
M  V30 7095 H 682.768 -2.59088 4.03002 0
M  V30 7096 H 681.132 -1.45777 2.08857 0
M  V30 7097 H 681.915 -0.429249 3.40606 0
M  V30 7098 N 684.36 -1.4356 -0.65026 0
M  V30 7099 C 685.323 -1.48615 -1.74489 0
M  V30 7100 C 686.323 -0.370483 -1.56474 0
M  V30 7101 O 687.513 -0.632351 -1.62317 0
M  V30 7102 C 684.645 -1.34161 -3.13391 0
M  V30 7103 H 685.838 -2.46103 -1.71387 0
M  V30 7104 H 683.391 -1.30369 -0.862186 0
M  V30 7105 H 684.126 -0.376918 -3.22102 0
M  V30 7106 H 683.911 -2.1504 -3.27872 0
M  V30 7107 H 685.401 -1.40637 -3.93206 0
M  V30 7108 N 685.838 0.888903 -1.30139 0
M  V30 7109 C 687.087 1.63507 -1.18103 0
M  V30 7110 C 687.4 1.93808 0.264141 0
M  V30 7111 O 688.606 2.66744 0.505966 0
M  V30 7112 C 687.062 2.94673 -2.0663 0
M  V30 7113 C 686.67 2.71926 -3.56034 0
M  V30 7114 C 688.414 3.72626 -2.03346 0
M  V30 7115 C 686.321 3.98884 -4.3663 0
M  V30 7116 H 685.251 0.613426 -0.438435 0
M  V30 7117 H 687.902 0.984427 -1.54859 0
M  V30 7118 H 686.284 3.61009 -1.62754 0
M  V30 7119 H 687.458 2.14116 -4.08033 0
M  V30 7120 H 685.773 2.07353 -3.61101 0
M  V30 7121 H 688.37 4.66775 -2.60816 0
M  V30 7122 H 688.713 4.03712 -1.016 0
M  V30 7123 H 689.246 3.13147 -2.45324 0
M  V30 7124 H 685.985 3.72959 -5.39056 0
M  V30 7125 H 685.505 4.56214 -3.89396 0
M  V30 7126 H 687.184 4.66938 -4.47859 0
M  V30 7127 N 687.317 1.12792 1.10072 0
M  V30 7128 C 688.557 0.895691 1.8373 0
M  V30 7129 C 688.921 -0.568131 1.83402 0
M  V30 7130 O 690.122 -0.917666 2.52651 0
M  V30 7131 C 688.393 1.4593 3.2625 0
M  V30 7132 S 689.952 1.36615 4.16991 0
M  V30 7133 H 686.77 0.323017 0.633389 0
M  V30 7134 H 689.372 1.43816 1.32428 0
M  V30 7135 H 688.076 2.51818 3.24062 0
M  V30 7136 H 687.607 0.914478 3.82624 0
M  V30 7137 H 689.622 0.340131 4.95033 0
M  V30 7138 N 688.795 -1.27931 0.920396 0
M  V30 7139 C 689.758 -2.25345 0.41858 0
M  V30 7140 C 690.758 -1.54116 -0.458798 0
M  V30 7141 O 691.948 -1.72235 -0.260912 0
M  V30 7142 C 689.08 -3.38556 -0.399104 0
M  V30 7143 H 690.273 -2.71251 1.27918 0
M  V30 7144 H 687.826 -1.39728 0.700406 0
M  V30 7145 H 688.561 -2.98021 -1.27882 0
M  V30 7146 H 688.346 -3.91426 0.229863 0
M  V30 7147 H 689.836 -4.10976 -0.740817 0
M  V30 7148 N 690.273 -0.685099 -1.4193 0
M  V30 7149 C 691.203 -0.0273506 -2.33484 0
M  V30 7150 C 692.184 0.778366 -1.51246 0
M  V30 7151 O 693.369 0.733449 -1.79817 0
M  V30 7152 C 690.499 0.917272 -3.34968 0
M  V30 7153 C 689.453 0.21941 -4.27437 0
M  V30 7154 C 688.779 1.27768 -5.1921 0
M  V30 7155 C 690.079 -0.907894 -5.14349 0
M  V30 7156 H 691.773 -0.791994 -2.88735 0
M  V30 7157 H 689.319 -0.382308 -1.38832 0
M  V30 7158 H 691.272 1.38657 -3.97935 0
M  V30 7159 H 689.996 1.71346 -2.78043 0
M  V30 7160 H 688.655 -0.229757 -3.65879 0
M  V30 7161 H 688.303 2.06612 -4.58607 0
M  V30 7162 H 688.003 0.815803 -5.81909 0
M  V30 7163 H 689.527 1.7477 -5.85054 0
M  V30 7164 H 690.941 -0.519348 -5.70943 0
M  V30 7165 H 689.338 -1.2962 -5.85934 0
M  V30 7166 H 690.408 -1.75218 -4.52136 0
M  V30 7167 N 691.751 1.51645 -0.429126 0
M  V30 7168 C 693.167 1.59394 -0.080994 0
M  V30 7169 C 693.367 1.44064 1.40882 0
M  V30 7170 O 692.423 1.27771 2.17786 0
M  V30 7171 C 693.736 2.94779 -0.593773 0
M  V30 7172 C 695.284 3.08067 -0.553494 0
M  V30 7173 C 695.759 4.45963 -1.04311 0
M  V30 7174 N 697.25 4.5226 -1.00076 0
M  V30 7175 C 697.985 5.57268 -1.35056 0
M  V30 7176 N 697.481 6.69734 -1.77282 0
M  V30 7177 N 699.274 5.47582 -1.26925 0
M  V30 7178 H 691.425 1.59856 -1.39857 0
M  V30 7179 H 693.688 0.753095 -0.575805 0
M  V30 7180 H 693.394 3.11342 -1.63583 0
M  V30 7181 H 693.268 3.77197 -0.0142202 0
M  V30 7182 H 695.655 2.91177 0.479556 0
M  V30 7183 H 695.736 2.27508 -1.16935 0
M  V30 7184 H 695.38 4.63598 -2.07459 0
M  V30 7185 H 695.31 5.25049 -0.403873 0
M  V30 7186 H 697.801 3.71537 -0.690564 0
M  V30 7187 H 698.114 7.4587 -2.02232 0
M  V30 7188 H 696.459 6.70963 -1.81202 0
M  V30 7189 H 699.65 4.58604 -0.93809 0
M  V30 7190 H 699.823 6.29308 -1.54516 0
M  V30 7191 N 693.229 0.160201 1.56784 0
M  V30 7192 C 694.179 -0.786461 2.14007 0
M  V30 7193 C 695.163 -1.20046 1.07134 0
M  V30 7194 O 696.355 -1.16468 1.33283 0
M  V30 7195 C 693.484 -2.02024 2.77563 0
M  V30 7196 C 692.57 -1.62874 3.91578 0
M  V30 7197 N 692.961 -0.946176 4.96871 0
M  V30 7198 C 691.259 -1.92054 4.02531 0
M  V30 7199 C 691.96 -0.755084 5.76778 0
M  V30 7200 N 690.936 -1.29307 5.27997 0
M  V30 7201 H 694.738 -0.255879 2.92784 0
M  V30 7202 H 692.252 -0.0408778 1.62349 0
M  V30 7203 H 694.249 -2.70855 3.16928 0
M  V30 7204 H 692.909 -2.55587 2.00263 0
M  V30 7205 H 693.92 -0.605455 5.14349 0
M  V30 7206 H 690.597 -2.47374 3.36322 0
M  V30 7207 H 691.987 -0.216138 6.71552 0
M  V30 7208 N 694.707 -1.5719 -0.113559 0
M  V30 7209 C 695.637 -2.03772 -1.14013 0
M  V30 7210 C 696.618 -0.923176 -1.42869 0
M  V30 7211 O 697.803 -1.19325 -1.53216 0
M  V30 7212 C 694.933 -2.44663 -2.4649 0
M  V30 7213 C 693.887 -3.59612 -2.32085 0
M  V30 7214 C 693.213 -3.8642 -3.69573 0
M  V30 7215 C 694.513 -4.91149 -1.7768 0
M  V30 7216 H 696.207 -2.89785 -0.752665 0
M  V30 7217 H 693.753 -1.39412 -0.360609 0
M  V30 7218 H 695.706 -2.75857 -3.18561 0
M  V30 7219 H 694.43 -1.55628 -2.87137 0
M  V30 7220 H 693.089 -3.28636 -1.62461 0
M  V30 7221 H 692.737 -2.94581 -4.07715 0
M  V30 7222 H 692.437 -4.63797 -3.60786 0
M  V30 7223 H 693.961 -4.2007 -4.4314 0
M  V30 7224 H 695.375 -5.20843 -2.39574 0
M  V30 7225 H 693.772 -5.72562 -1.79701 0
M  V30 7226 H 694.842 -4.79301 -0.734776 0
M  V30 7227 N 696.185 0.383891 -1.52853 0
M  V30 7228 C 697.413 1.1495 -1.7203 0
M  V30 7229 C 697.828 1.83578 -0.440957 0
M  V30 7230 O 697.185 1.72872 0.584925 0
M  V30 7231 C 697.236 2.19368 -2.87333 0
M  V30 7232 O 696.957 1.53536 -4.10315 0
M  V30 7233 C 698.458 3.08616 -3.18231 0
M  V30 7234 H 695.678 0.344445 -0.575846 0
M  V30 7235 H 698.222 0.448397 -1.99524 0
M  V30 7236 H 696.377 2.85105 -2.62286 0
M  V30 7237 H 696.791 2.2296 -4.74752 0
M  V30 7238 H 698.265 3.77902 -4.02361 0
M  V30 7239 H 698.742 3.72409 -2.32826 0
M  V30 7240 H 699.348 2.48518 -3.45136 0
M  V30 7241 N 697.663 1.43903 0.642637 0
M  V30 7242 C 698.888 1.49758 1.43483 0
M  V30 7243 C 699.313 0.119911 1.87717 0
M  V30 7244 O 698.671 -0.888558 1.58033 0
M  V30 7245 C 698.719 2.45744 2.63898 0
M  V30 7246 O 697.823 1.95101 3.63331 0
M  V30 7247 H 697.164 0.506138 0.429791 0
M  V30 7248 H 699.694 1.88923 0.785438 0
M  V30 7249 H 699.704 2.63399 3.11584 0
M  V30 7250 H 698.379 3.45818 2.31046 0
M  V30 7251 H 696.956 1.87158 3.22531 0
M  V30 7252 N 699.141 -0.881989 1.30609 0
M  V30 7253 C 700.557 -1.16576 1.09005 0
M  V30 7254 C 700.757 -2.00961 -0.14727 0
M  V30 7255 O 699.813 -2.38117 -0.840036 0
M  V30 7256 C 701.126 -1.86954 2.35518 0
M  V30 7257 C 702.674 -1.99706 2.41011 0
M  V30 7258 C 703.149 -2.73497 3.67374 0
M  V30 7259 N 704.64 -2.8104 3.68199 0
M  V30 7260 C 705.375 -3.38718 4.62664 0
M  V30 7261 N 704.871 -3.97421 5.67475 0
M  V30 7262 N 706.664 -3.36561 4.50203 0
M  V30 7263 H 698.815 -0.319398 2.09985 0
M  V30 7264 H 701.078 -0.204058 0.925778 0
M  V30 7265 H 700.784 -1.32393 3.2583 0
M  V30 7266 H 700.658 -2.87317 2.44395 0
M  V30 7267 H 703.045 -2.53436 1.51176 0
M  V30 7268 H 703.126 -0.984218 2.36108 0
M  V30 7269 H 702.77 -2.20438 4.57569 0
M  V30 7270 H 702.7 -3.75163 3.6954 0
M  V30 7271 H 705.191 -2.39365 2.92426 0
M  V30 7272 H 705.504 -4.39507 6.35652 0
M  V30 7273 H 703.849 -3.95832 5.71264 0
M  V30 7274 H 707.04 -2.8993 3.67503 0
M  V30 7275 H 707.213 -3.81215 5.24003 0
M  V30 7276 N 700.619 -1.13374 -1.09472 0
M  V30 7277 C 701.569 -0.77946 -2.14263 0
M  V30 7278 C 702.553 0.226271 -1.59301 0
M  V30 7279 O 703.745 0.0302581 -1.76974 0
M  V30 7280 C 700.874 -0.246635 -3.42413 0
M  V30 7281 C 699.96 -1.28124 -4.04283 0
M  V30 7282 N 700.351 -2.48201 -4.40715 0
M  V30 7283 C 698.649 -1.12892 -4.31476 0
M  V30 7284 C 699.35 -3.14347 -4.8945 0
M  V30 7285 N 698.326 -2.41771 -4.86876 0
M  V30 7286 H 702.128 -1.69305 -2.40235 0
M  V30 7287 H 699.642 -1.01598 -1.26695 0
M  V30 7288 H 701.639 0.0254131 -4.16892 0
M  V30 7289 H 700.299 0.661287 -3.17895 0
M  V30 7290 H 701.31 -2.85511 -4.32093 0
M  V30 7291 H 697.987 -0.279117 -4.16566 0
M  V30 7292 H 699.377 -4.16663 -5.27107 0
M  V30 7293 N 702.098 1.27442 -0.927168 0
M  V30 7294 C 703.03 2.25975 -0.383158 0
M  V30 7295 C 704.043 1.55382 0.485832 0
M  V30 7296 O 705.232 1.75986 0.298541 0
M  V30 7297 C 702.332 3.35629 0.469688 0
M  V30 7298 C 701.505 4.35747 -0.379886 0
M  V30 7299 C 700.564 5.24598 0.410227 0
M  V30 7300 O 699.59 5.68909 -0.181888 0
M  V30 7301 N 700.792 5.54737 1.71017 0
M  V30 7302 H 703.557 2.7329 -1.23015 0
M  V30 7303 H 701.118 1.41063 -0.794539 0
M  V30 7304 H 703.11 3.92015 1.00532 0
M  V30 7305 H 701.68 2.87919 1.21744 0
M  V30 7306 H 700.9 3.78634 -1.09682 0
M  V30 7307 H 702.188 4.99648 -0.960717 0
M  V30 7308 H 701.586 5.20594 2.21356 0
M  V30 7309 H 700.143 6.13824 2.19234 0
M  V30 7310 N 703.576 0.692616 1.41565 0
M  V30 7311 C 704.486 0.0258451 2.34586 0
M  V30 7312 C 705.502 -0.769324 1.56069 0
M  V30 7313 O 706.678 -0.707563 1.88562 0
M  V30 7314 C 703.743 -0.901289 3.3478 0
M  V30 7315 C 702.804 -0.0986579 4.29187 0
M  V30 7316 C 702.037 -0.981634 5.24595 0
M  V30 7317 O 702.26 -2.22115 5.25377 0
M  V30 7318 O 701.194 -0.432892 6.00341 0
M  V30 7319 H 705.02 0.792537 2.93177 0
M  V30 7320 H 702.605 0.452935 1.42369 0
M  V30 7321 H 704.487 -1.43302 3.96286 0
M  V30 7322 H 703.162 -1.64752 2.78637 0
M  V30 7323 H 702.069 0.477604 3.71039 0
M  V30 7324 H 703.402 0.608848 4.8842 0
M  V30 7325 N 705.054 -1.51416 0.437162 0
M  V30 7326 C 706.017 -2.26312 -0.362729 0
M  V30 7327 C 707.017 -1.29748 -0.949847 0
M  V30 7328 O 708.207 -1.53462 -0.824325 0
M  V30 7329 C 705.339 -3.05475 -1.5132 0
M  V30 7330 H 706.532 -2.98459 0.29365 0
M  V30 7331 H 704.085 -1.55137 0.190327 0
M  V30 7332 H 704.82 -2.37744 -2.20563 0
M  V30 7333 H 704.605 -3.76401 -1.09838 0
M  V30 7334 H 706.095 -3.62209 -2.07833 0
M  V30 7335 N 706.532 -0.168513 -1.56696 0
M  V30 7336 C 707.442 0.775435 -2.21414 0
M  V30 7337 C 708.458 1.25529 -1.20492 0
M  V30 7338 O 709.634 1.30801 -1.53144 0
M  V30 7339 C 706.699 1.9886 -2.83999 0
M  V30 7340 C 705.76 1.5559 -4.00113 0
M  V30 7341 C 704.993 2.71124 -4.59704 0
M  V30 7342 O 705.216 3.87917 -4.18182 0
M  V30 7343 O 704.15 2.4536 -5.4962 0
M  V30 7344 H 707.976 0.254416 -3.02632 0
M  V30 7345 H 705.561 0.0595507 -1.49281 0
M  V30 7346 H 707.443 2.69816 -3.23693 0
M  V30 7347 H 706.118 2.49874 -2.05779 0
M  V30 7348 H 705.025 0.815924 -3.65094 0
M  V30 7349 H 706.358 1.09271 -4.79917 0
M  V30 7350 N 708.01 1.57248 0.105221 0
M  V30 7351 C 708.943 1.96567 1.15916 0
M  V30 7352 C 709.921 0.837355 1.39381 0
M  V30 7353 O 711.105 1.09676 1.53308 0
M  V30 7354 C 708.232 2.27375 2.51035 0
M  V30 7355 C 707.278 3.49869 2.43913 0
M  V30 7356 S 708.111 5.01958 1.86543 0
M  V30 7357 C 709.267 5.35932 3.23307 0
M  V30 7358 H 709.5 2.85655 0.823931 0
M  V30 7359 H 707.033 1.51204 0.312515 0
M  V30 7360 H 708.991 2.45801 3.28774 0
M  V30 7361 H 707.652 1.38876 2.81731 0
M  V30 7362 H 706.845 3.68835 3.43477 0
M  V30 7363 H 706.447 3.30901 1.743 0
M  V30 7364 H 708.739 5.31958 4.19556 0
M  V30 7365 H 709.682 6.37047 3.09155 0
M  V30 7366 H 710.09 4.63397 3.22372 0
M  V30 7367 N 709.488 -0.375779 1.53054 0
M  V30 7368 C 710.451 -1.44254 1.7811 0
M  V30 7369 C 711.451 -1.47018 0.651328 0
M  V30 7370 O 712.641 -1.47957 0.919472 0
M  V30 7371 C 709.773 -2.8345 1.89391 0
M  V30 7372 H 710.966 -1.23316 2.73374 0
M  V30 7373 H 708.519 -0.608312 1.43977 0
M  V30 7374 H 709.254 -3.09716 0.961589 0
M  V30 7375 H 709.039 -2.82844 2.71555 0
M  V30 7376 H 710.529 -3.60722 2.10404 0
M  V30 7377 N 710.966 -1.44241 -0.634997 0
M  V30 7378 C 711.898 -1.46793 -1.76024 0
M  V30 7379 C 712.911 -0.361781 -1.58729 0
M  V30 7380 O 714.1 -0.627297 -1.67114 0
M  V30 7381 C 711.2 -1.28248 -3.13697 0
M  V30 7382 C 710.373 -2.52038 -3.57485 0
M  V30 7383 C 709.432 -2.2845 -4.74022 0
M  V30 7384 O 708.458 -3.01915 -4.82531 0
M  V30 7385 N 709.66 -1.31264 -5.65464 0
M  V30 7386 H 712.425 -2.43797 -1.74307 0
M  V30 7387 H 709.986 -1.39631 -0.819438 0
M  V30 7388 H 711.978 -1.10321 -3.89373 0
M  V30 7389 H 710.548 -0.39623 -3.10079 0
M  V30 7390 H 709.768 -2.85268 -2.72059 0
M  V30 7391 H 711.056 -3.34382 -3.83492 0
M  V30 7392 H 710.454 -0.705817 -5.6128 0
M  V30 7393 H 709.011 -1.19316 -6.40786 0
M  V30 7394 N 712.444 0.87505 -1.31075 0
M  V30 7395 C 713.392 2.00317 -1.18219 0
M  V30 7396 C 714.386 1.69152 -0.0916872 0
M  V30 7397 O 715.592 1.7821 -0.253229 0
M  V30 7398 H 711.967 0.656981 -0.365895 0
M  V30 7399 H 713.938 2.08293 -2.13674 0
M  V30 7400 C 712.687 3.35821 -0.901095 0
M  V30 7401 H 712.01 3.6032 -1.73233 0
M  V30 7402 H 713.45 4.15366 -0.851295 0
M  V30 7403 C 711.909 3.34563 0.396114 0
M  V30 7404 O 712.439 3.75971 1.41452 0
M  V30 7405 N 710.645 2.87681 0.410832 0
M  V30 7406 H 710.192 2.54179 -0.418415 0
M  V30 7407 H 710.15 2.87223 1.27869 0
M  V30 7408 N 713.922 1.13953 1.08869 0
M  V30 7409 C 714.885 0.824991 2.13838 0
M  V30 7410 C 715.885 -0.168198 1.59918 0
M  V30 7411 O 717.075 0.0595778 1.74098 0
M  V30 7412 C 714.207 0.228938 3.4013 0
M  V30 7413 H 715.4 1.75521 2.43171 0
M  V30 7414 H 712.953 0.94492 1.24503 0
M  V30 7415 H 713.688 -0.710227 3.16427 0
M  V30 7416 H 713.473 0.944243 3.80561 0
M  V30 7417 H 714.963 0.0259223 4.17592 0
M  V30 7418 N 715.4 -1.26948 0.933913 0
M  V30 7419 C 716.646 -1.94374 0.57848 0
M  V30 7420 C 716.979 -1.73166 -0.879048 0
M  V30 7421 O 716.254 -1.06438 -1.62792 0
M  V30 7422 C 716.537 -3.4834 0.912739 0
M  V30 7423 C 716.39 -3.78866 2.42448 0
M  V30 7424 C 717.709 -4.38062 0.423003 0
M  V30 7425 H 714.828 -0.705959 0.211639 0
M  V30 7426 H 717.47 -1.49951 1.16682 0
M  V30 7427 H 715.62 -3.86309 0.412058 0
M  V30 7428 H 717.292 -3.50654 2.99733 0
M  V30 7429 H 715.535 -3.25198 2.87104 0
M  V30 7430 H 716.206 -4.86458 2.60887 0
M  V30 7431 H 718.682 -4.0728 0.852191 0
M  V30 7432 H 717.558 -5.44599 0.685776 0
M  V30 7433 H 717.819 -4.36886 -0.676994 0
M  V30 7434 N 716.879 -0.700114 -1.41195 0
M  V30 7435 C 718.295 -0.372114 -1.55201 0
M  V30 7436 C 718.495 1.12053 -1.6747 0
M  V30 7437 O 717.551 1.90642 -1.65566 0
M  V30 7438 C 718.864 -1.12462 -2.78878 0
M  V30 7439 C 720.412 -1.10941 -2.92679 0
M  V30 7440 C 720.887 -1.84376 -4.19249 0
M  V30 7441 N 722.378 -1.81368 -4.26216 0
M  V30 7442 C 723.113 -2.35024 -5.23021 0
M  V30 7443 N 722.609 -2.9717 -6.25829 0
M  V30 7444 N 724.402 -2.25254 -5.14992 0
M  V30 7445 H 716.553 -1.66816 -1.31477 0
M  V30 7446 H 718.816 -0.704223 -0.634644 0
M  V30 7447 H 718.522 -2.17937 -2.76037 0
M  V30 7448 H 718.396 -0.706152 -3.70531 0
M  V30 7449 H 720.783 -0.062911 -2.95033 0
M  V30 7450 H 720.864 -1.56698 -2.02187 0
M  V30 7451 H 720.508 -2.89008 -4.17656 0
M  V30 7452 H 720.438 -1.3605 -5.08722 0
M  V30 7453 H 722.929 -1.36062 -3.52556 0
M  V30 7454 H 723.242 -3.35668 -6.96094 0
M  V30 7455 H 721.587 -3.01249 -6.26318 0
M  V30 7456 H 724.778 -1.76372 -4.33602 0
M  V30 7457 H 724.951 -2.67373 -5.90268 0
M  V30 7458 N 718.357 1.51182 -0.445186 0
M  V30 7459 C 719.287 2.30821 0.352686 0
M  V30 7460 C 720.268 1.36576 1.01395 0
M  V30 7461 O 721.453 1.65497 1.01609 0
M  V30 7462 C 718.583 3.15593 1.44976 0
M  V30 7463 C 717.537 4.1818 0.911553 0
M  V30 7464 C 716.863 4.91523 2.10497 0
M  V30 7465 C 718.163 5.22266 -0.059418 0
M  V30 7466 H 719.857 2.97771 -0.311936 0
M  V30 7467 H 717.403 1.43201 -0.151461 0
M  V30 7468 H 719.356 3.70091 2.01521 0
M  V30 7469 H 718.08 2.4648 2.14278 0
M  V30 7470 H 716.739 3.64746 0.368264 0
M  V30 7471 H 716.387 4.18906 2.78437 0
M  V30 7472 H 716.087 5.60898 1.7512 0
M  V30 7473 H 717.611 5.48847 2.6758 0
M  V30 7474 H 719.025 5.71789 0.415985 0
M  V30 7475 H 717.422 5.99213 -0.326152 0
M  V30 7476 H 718.492 4.7461 -0.993631 0
M  V30 7477 N 719.835 0.176821 1.56605 0
M  V30 7478 C 720.785 -0.763718 2.14829 0
M  V30 7479 C 721.769 -1.18903 1.08401 0
M  V30 7480 O 722.961 -1.15048 1.3451 0
M  V30 7481 C 720.09 -1.99069 2.7969 0
M  V30 7482 C 719.176 -1.58711 3.93283 0
M  V30 7483 N 719.567 -0.893423 4.97847 0
M  V30 7484 C 717.865 -1.87774 4.04545 0
M  V30 7485 C 718.566 -0.693866 5.77547 0
M  V30 7486 N 717.542 -1.23699 5.29339 0
M  V30 7487 H 721.344 -0.224811 2.93039 0
M  V30 7488 H 718.858 -0.0236563 1.62383 0
M  V30 7489 H 720.855 -2.67478 3.19783 0
M  V30 7490 H 719.515 -2.53449 2.02962 0
M  V30 7491 H 720.526 -0.550868 5.14962 0
M  V30 7492 H 717.203 -2.43793 3.38927 0
M  V30 7493 H 718.593 -0.144899 6.71744 0
M  V30 7494 N 721.313 -1.57302 -0.09688 0
M  V30 7495 C 722.543 -1.89926 -0.813114 0
M  V30 7496 C 722.951 -0.76852 -1.72888 0
M  V30 7497 O 722.294 0.268549 -1.81726 0
M  V30 7498 C 722.356 -3.17787 -1.68082 0
M  V30 7499 C 722.02 -4.4729 -0.937061 0
M  V30 7500 C 723.017 -5.1921 -0.267687 0
M  V30 7501 C 720.702 -4.93957 -0.911671 0
M  V30 7502 C 722.696 -6.36034 0.417129 0
M  V30 7503 C 720.383 -6.10693 -0.223068 0
M  V30 7504 C 721.381 -6.8158 0.440155 0
M  V30 7505 O 721.069 -7.96092 1.11772 0
M  V30 7506 H 720.801 -0.632783 -0.237828 0
M  V30 7507 H 723.355 -2.05248 -0.0790818 0
M  V30 7508 H 721.585 -2.98607 -2.45705 0
M  V30 7509 H 723.274 -3.36257 -2.27346 0
M  V30 7510 H 724.04 -4.84198 -0.278774 0
M  V30 7511 H 719.919 -4.38671 -1.41734 0
M  V30 7512 H 723.463 -6.91301 0.93537 0
M  V30 7513 H 719.36 -6.45159 -0.209821 0
M  V30 7514 H 720.128 -8.12064 1.02443 0
M  V30 7515 N 722.791 0.367657 -1.53252 0
M  V30 7516 C 724.039 1.10832 -1.68999 0
M  V30 7517 C 724.36 1.89894 -0.443306 0
M  V30 7518 O 723.63 1.88235 0.54262 0
M  V30 7519 H 722.21 0.412153 -0.623008 0
M  V30 7520 H 724.872 0.414775 -1.90435 0
M  V30 7521 H 723.968 1.7993 -2.55013 0
M  V30 7522 N 724.269 1.44576 0.627338 0
M  V30 7523 C 725.199 1.54562 1.75022 0
M  V30 7524 C 726.18 0.398378 1.65369 0
M  V30 7525 O 727.365 0.61899 1.84071 0
M  V30 7526 C 724.495 1.49309 3.13567 0
M  V30 7527 C 723.449 2.62549 3.38012 0
M  V30 7528 C 722.775 2.42348 4.76625 0
M  V30 7529 C 724.075 4.04678 3.30202 0
M  V30 7530 H 725.769 2.4855 1.66922 0
M  V30 7531 H 723.315 1.19624 0.801636 0
M  V30 7532 H 725.268 1.54895 3.919 0
M  V30 7533 H 723.992 0.518392 3.2246 0
M  V30 7534 H 722.651 2.56358 2.62061 0
M  V30 7535 H 722.299 1.43062 4.82226 0
M  V30 7536 H 721.999 3.18273 4.93939 0
M  V30 7537 H 723.523 2.49758 5.57183 0
M  V30 7538 H 724.937 4.12217 3.98435 0
M  V30 7539 H 723.334 4.80836 3.5905 0
M  V30 7540 H 724.404 4.2798 2.27949 0
M  V30 7541 N 725.747 -0.868086 1.31537 0
M  V30 7542 C 727.158 -1.437 1.19195 0
M  V30 7543 C 727.509 -1.95169 -0.200842 0
M  V30 7544 O 726.634 -1.86432 -1.09872 0
M  V30 7545 C 727.229 -2.612 2.15778 0
M  V30 7546 C 725.788 -3.1413 2.07363 0
M  V30 7547 C 724.935 -1.86845 2.049 0
M  V30 7548 H 727.886 -0.676457 1.43561 0
M  V30 7549 H 727.907 -3.37948 1.74847 0
M  V30 7550 H 727.419 -2.23709 3.17137 0
M  V30 7551 H 725.52 -3.56238 1.09204 0
M  V30 7552 H 725.633 -3.76285 2.96557 0
M  V30 7553 H 723.997 -2.05886 1.49943 0
M  V30 7554 H 724.78 -1.51589 3.08019 0
M  V30 7555 N 727.225 -1.14528 -1.08264 0
M  V30 7556 C 728.471 -0.91576 -1.80947 0
M  V30 7557 C 728.804 0.55623 -1.86064 0
M  V30 7558 O 728.079 1.41207 -1.33756 0
M  V30 7559 C 728.362 -1.51917 -3.26486 0
M  V30 7560 C 728.215 -3.06111 -3.2957 0
M  V30 7561 C 729.534 -1.19724 -4.23502 0
M  V30 7562 H 726.653 -0.334113 -0.656915 0
M  V30 7563 H 729.295 -1.41547 -1.26746 0
M  V30 7564 H 727.445 -1.0942 -3.72773 0
M  V30 7565 H 729.117 -3.57448 -2.91597 0
M  V30 7566 H 727.36 -3.40483 -2.688 0
M  V30 7567 H 728.031 -3.43438 -4.32151 0
M  V30 7568 H 730.507 -1.56467 -3.85561 0
M  V30 7569 H 729.383 -1.64575 -5.23647 0
M  V30 7570 H 729.644 -0.112771 -4.41956 0
M  V30 7571 N 728.703 1.26451 -0.940633 0
M  V30 7572 C 729.949 1.94065 -0.58878 0
M  V30 7573 C 730.282 1.7363 0.869853 0
M  V30 7574 O 729.557 1.073 1.62225 0
M  V30 7575 C 729.84 3.47852 -0.931199 0
M  V30 7576 C 729.693 3.77575 -2.44453 0
M  V30 7577 C 731.012 4.37832 -0.446229 0
M  V30 7578 H 728.131 0.704827 -0.21538 0
M  V30 7579 H 730.773 1.4933 -1.17475 0
M  V30 7580 H 728.923 3.86085 -0.432539 0
M  V30 7581 H 730.595 3.49059 -3.01588 0
M  V30 7582 H 728.838 3.23671 -2.88825 0
M  V30 7583 H 729.509 4.85068 -2.63464 0
M  V30 7584 H 731.985 4.06822 -0.873778 0
M  V30 7585 H 730.861 5.44228 -0.714648 0
M  V30 7586 H 731.122 4.37239 0.653815 0
M  V30 7587 N 730.181 0.707592 1.40822 0
M  V30 7588 C 731.427 0.244031 2.01326 0
M  V30 7589 C 731.76 -1.15722 1.55955 0
M  V30 7590 O 731.035 -1.78347 0.776044 0
M  V30 7591 C 731.318 0.315128 3.58718 0
M  V30 7592 C 731.171 1.75419 4.14184 0
M  V30 7593 C 732.49 -0.318251 4.38948 0
M  V30 7594 H 729.609 0.0901471 0.731466 0
M  V30 7595 H 732.251 0.898584 1.67408 0
M  V30 7596 H 730.401 -0.242176 3.87744 0
M  V30 7597 H 732.073 2.36626 3.95987 0
M  V30 7598 H 730.316 2.28449 3.68773 0
M  V30 7599 H 730.987 1.75538 5.23345 0
M  V30 7600 H 733.463 0.156514 4.15806 0
M  V30 7601 H 732.339 -0.238019 5.48384 0
M  V30 7602 H 732.6 -1.40067 4.19325 0
M  V30 7603 N 731.66 -1.50943 0.453197 0
M  V30 7604 C 732.607 -2.28128 -0.350197 0
M  V30 7605 C 733.577 -1.32398 -1.00299 0
M  V30 7606 O 734.762 -1.61319 -1.01887 0
M  V30 7607 C 731.902 -3.13782 -1.43649 0
M  V30 7608 C 731.015 -4.24523 -0.800255 0
M  V30 7609 C 730.15 -4.97462 -1.86293 0
M  V30 7610 C 729.189 -6.00102 -1.20598 0
M  V30 7611 N 728.326 -6.66387 -2.21071 0
M  V30 7612 H 733.166 -2.96337 0.31434 0
M  V30 7613 H 730.703 -1.46151 0.166863 0
M  V30 7614 H 732.661 -3.6178 -2.07776 0
M  V30 7615 H 731.291 -2.47655 -2.07044 0
M  V30 7616 H 730.343 -3.80371 -0.0468651 0
M  V30 7617 H 731.655 -4.98009 -0.280777 0
M  V30 7618 H 730.809 -5.49088 -2.58044 0
M  V30 7619 H 729.548 -4.23642 -2.41617 0
M  V30 7620 H 728.553 -5.47753 -0.474 0
M  V30 7621 H 729.778 -6.75887 -0.659859 0
M  V30 7622 H 727.724 -5.9537 -2.75446 0
M  V30 7623 H 727.641 -7.3569 -1.74058 0
M  V30 7624 H 728.909 -7.22638 -2.92257 0
M  V30 7625 N 733.138 -0.185124 -1.56509 0
M  V30 7626 C 734.068 0.735098 -2.21627 0
M  V30 7627 C 735.049 1.2288 -1.1762 0
M  V30 7628 O 736.234 1.27945 -1.46095 0
M  V30 7629 C 733.364 1.95889 -2.86783 0
M  V30 7630 C 732.318 1.6005 -3.96948 0
M  V30 7631 C 731.644 2.90009 -4.4922 0
M  V30 7632 C 732.944 0.818008 -5.15855 0
M  V30 7633 H 734.638 0.192274 -2.98782 0
M  V30 7634 H 732.184 0.0910393 -1.43712 0
M  V30 7635 H 734.137 2.60779 -3.31017 0
M  V30 7636 H 732.861 2.52608 -2.07018 0
M  V30 7637 H 731.52 0.975237 -3.5339 0
M  V30 7638 H 731.168 3.44797 -3.6623 0
M  V30 7639 H 730.868 2.66778 -5.23549 0
M  V30 7640 H 732.392 3.55904 -4.9615 0
M  V30 7641 H 733.806 1.36979 -5.56695 0
M  V30 7642 H 732.203 0.684207 -5.96187 0
M  V30 7643 H 733.273 -0.182939 -4.84555 0
M  V30 7644 N 734.616 1.57351 0.0885366 0
M  V30 7645 C 735.546 2.05561 1.10757 0
M  V30 7646 C 736.527 0.945789 1.41382 0
M  V30 7647 O 737.712 1.21747 1.51299 0
M  V30 7648 C 734.842 2.48554 2.42566 0
M  V30 7649 C 733.796 3.63259 2.26334 0
M  V30 7650 C 733.122 3.9225 3.63378 0
M  V30 7651 C 734.422 4.93913 1.69844 0
M  V30 7652 H 736.116 2.90946 0.706468 0
M  V30 7653 H 733.662 1.39968 0.338385 0
M  V30 7654 H 735.615 2.8089 3.14132 0
M  V30 7655 H 734.339 1.60176 2.84625 0
M  V30 7656 H 732.998 3.31179 1.57213 0
M  V30 7657 H 732.646 3.0103 4.02976 0
M  V30 7658 H 732.346 4.69478 3.53362 0
M  V30 7659 H 733.87 4.27067 4.36401 0
M  V30 7660 H 735.284 5.24588 2.31258 0
M  V30 7661 H 733.681 5.75349 1.70569 0
M  V30 7662 H 734.751 4.80409 0.65843 0
M  V30 7663 N 736.094 -0.359525 1.53444 0
M  V30 7664 C 737.044 -1.441 1.7669 0
M  V30 7665 C 738.028 -1.48408 0.621599 0
M  V30 7666 O 739.22 -1.53547 0.880468 0
M  V30 7667 C 736.349 -2.81455 1.96566 0
M  V30 7668 C 735.435 -2.81601 3.17115 0
M  V30 7669 N 735.826 -2.51388 4.38905 0
M  V30 7670 C 734.124 -3.12758 3.1796 0
M  V30 7671 C 734.825 -2.59365 5.20677 0
M  V30 7672 N 733.801 -2.94328 4.57025 0
M  V30 7673 H 737.603 -1.19613 2.68458 0
M  V30 7674 H 735.117 -0.567761 1.52152 0
M  V30 7675 H 737.114 -3.59357 2.11348 0
M  V30 7676 H 735.774 -3.06901 1.06029 0
M  V30 7677 H 736.785 -2.24873 4.66533 0
M  V30 7678 H 733.462 -3.43479 2.37336 0
M  V30 7679 H 734.852 -2.39301 6.27841 0
M  V30 7680 N 737.572 -1.44907 -0.619662 0
M  V30 7681 C 738.983 -1.42905 -1.20146 0
M  V30 7682 C 739.334 -0.150341 -1.95623 0
M  V30 7683 O 738.459 0.748732 -2.03034 0
M  V30 7684 C 739.054 -2.58889 -2.18545 0
M  V30 7685 C 737.613 -2.60046 -2.72127 0
M  V30 7686 C 736.76 -2.3493 -1.4732 0
M  V30 7687 H 739.711 -1.53321 -0.409666 0
M  V30 7688 H 739.732 -2.32298 -3.0136 0
M  V30 7689 H 739.244 -3.51941 -1.63583 0
M  V30 7690 H 737.345 -1.70968 -3.3106 0
M  V30 7691 H 737.458 -3.58893 -3.17384 0
M  V30 7692 H 735.822 -1.84248 -1.75855 0
M  V30 7693 H 736.605 -3.3011 -0.942442 0
M  V30 7694 N 739.05 0.861098 -1.31996 0
M  V30 7695 C 740.461 1.43065 -1.19955 0
M  V30 7696 C 740.812 1.95273 0.190489 0
M  V30 7697 O 739.937 1.87012 1.08882 0
M  V30 7698 C 740.532 2.60052 -2.1716 0
M  V30 7699 C 739.091 3.13026 -2.09026 0
M  V30 7700 C 738.238 1.85756 -2.05888 0
M  V30 7701 H 741.189 0.668834 -1.43918 0
M  V30 7702 H 741.21 3.37016 -1.76637 0
M  V30 7703 H 740.722 2.22024 -3.18319 0
M  V30 7704 H 738.823 3.55653 -1.11092 0
M  V30 7705 H 738.936 3.74707 -2.98549 0
M  V30 7706 H 737.3 2.05088 -1.51033 0
M  V30 7707 H 738.083 1.49954 -3.08818 0
M  V30 7708 N 740.528 1.15101 1.07655 0
M  V30 7709 C 741.753 0.948177 1.84457 0
M  V30 7710 C 742.178 -0.498432 1.81376 0
M  V30 7711 O 741.536 -1.35509 1.20445 0
M  V30 7712 C 741.584 1.46318 3.29581 0
M  V30 7713 O 740.688 0.660342 4.07079 0
M  V30 7714 H 740.029 0.338428 0.571281 0
M  V30 7715 H 742.559 1.5301 1.35828 0
M  V30 7716 H 742.569 1.47468 3.80417 0
M  V30 7717 H 741.244 2.51635 3.31138 0
M  V30 7718 H 739.821 0.718216 3.65918 0
M  V30 7719 N 742.006 -1.2595 0.947325 0
M  V30 7720 C 742.956 -2.23859 0.432547 0
M  V30 7721 C 743.94 -1.53755 -0.474154 0
M  V30 7722 O 745.132 -1.74293 -0.308397 0
M  V30 7723 C 742.261 -3.42027 -0.295318 0
M  V30 7724 C 741.347 -4.19409 0.62903 0
M  V30 7725 N 741.738 -4.74284 1.7575 0
M  V30 7726 C 740.036 -4.43866 0.435805 0
M  V30 7727 C 740.737 -5.32821 2.33401 0
M  V30 7728 N 739.713 -5.18858 1.62135 0
M  V30 7729 H 743.515 -2.63886 1.29388 0
M  V30 7730 H 741.029 -1.41105 0.80393 0
M  V30 7731 H 743.026 -4.11297 -0.681188 0
M  V30 7732 H 741.686 -3.03526 -1.15334 0
M  V30 7733 H 742.697 -4.71641 2.13952 0
M  V30 7734 H 739.374 -4.15768 -0.37994 0
M  V30 7735 H 740.764 -5.86111 3.28517 0
M  V30 7736 N 743.484 -0.715051 -1.40445 0
M  V30 7737 C 744.73 -0.263528 -2.01686 0
M  V30 7738 C 745.085 1.13052 -1.55683 0
M  V30 7739 O 744.378 1.75588 -0.766762 0
M  V30 7740 C 744.572 -0.281791 -3.56287 0
M  V30 7741 C 744.401 -1.67607 -4.17298 0
M  V30 7742 C 743.171 -2.2836 -4.50755 0
M  V30 7743 C 745.369 -2.62621 -4.42193 0
M  V30 7744 N 743.351 -3.6015 -4.97157 0
M  V30 7745 C 744.722 -3.79116 -4.90582 0
M  V30 7746 C 746.777 -2.60639 -4.24231 0
M  V30 7747 C 745.48 -4.93937 -5.22895 0
M  V30 7748 C 747.506 -3.74587 -4.57644 0
M  V30 7749 C 746.868 -4.89815 -5.06222 0
M  V30 7750 H 742.967 -0.142252 -0.768953 0
M  V30 7751 H 745.551 -0.936732 -1.70685 0
M  V30 7752 H 743.722 0.360975 -3.86719 0
M  V30 7753 H 745.454 0.186393 -4.04271 0
M  V30 7754 H 742.209 -1.80463 -4.3787 0
M  V30 7755 H 742.633 -4.27757 -5.24741 0
M  V30 7756 H 747.275 -1.72759 -3.85894 0
M  V30 7757 H 744.993 -5.82462 -5.60146 0
M  V30 7758 H 748.579 -3.74328 -4.45387 0
M  V30 7759 H 747.459 -5.76525 -5.3159 0
M  V30 7760 N 744.962 1.50701 -0.461195 0
M  V30 7761 C 746.373 1.867 -0.00370227 0
M  V30 7762 C 746.724 1.37673 1.39787 0
M  V30 7763 O 745.849 0.737515 2.03445 0
M  V30 7764 C 746.444 3.388 5.75786e-05 0
M  V30 7765 C 745.003 3.74247 0.402044 0
M  V30 7766 C 744.15 2.74549 -0.389652 0
M  V30 7767 H 747.101 1.43585 -0.675942 0
M  V30 7768 H 747.122 3.719 0.804414 0
M  V30 7769 H 746.634 3.74452 -1.02015 0
M  V30 7770 H 744.735 3.44192 1.42697 0
M  V30 7771 H 744.848 4.78973 0.110265 0
M  V30 7772 H 743.212 2.54226 0.155314 0
M  V30 7773 H 743.995 3.13044 -1.40919 0
M  V30 7774 N 746.441 0.193421 1.56409 0
M  V30 7775 C 747.371 -0.723334 2.22014 0
M  V30 7776 C 748.352 -1.22254 1.1827 0
M  V30 7777 O 749.537 -1.27168 1.46771 0
M  V30 7778 C 746.667 -1.94366 2.87818 0
M  V30 7779 C 745.621 -1.57943 3.97791 0
M  V30 7780 C 744.947 -2.87623 4.50752 0
M  V30 7781 C 746.247 -0.790639 5.16281 0
M  V30 7782 H 747.941 -0.176426 2.9888 0
M  V30 7783 H 745.487 -0.0834166 1.43758 0
M  V30 7784 H 747.44 -2.5902 3.32396 0
M  V30 7785 H 746.164 -2.51507 2.08355 0
M  V30 7786 H 744.823 -0.956482 3.53903 0
M  V30 7787 H 744.471 -3.4285 3.68053 0
M  V30 7788 H 744.171 -2.63998 5.24956 0
M  V30 7789 H 745.695 -3.53268 4.9803 0
M  V30 7790 H 747.109 -1.34024 5.57414 0
M  V30 7791 H 745.506 -0.65258 5.96541 0
M  V30 7792 H 746.576 0.208633 4.84451 0
M  V30 7793 N 747.919 -1.57396 -0.0801906 0
M  V30 7794 C 749.168 -1.8602 -0.779702 0
M  V30 7795 C 749.481 -0.784864 -1.79163 0
M  V30 7796 O 750.687 -0.958691 -2.54011 0
M  V30 7797 C 749.143 -3.29942 -1.43758 0
M  V30 7798 C 748.751 -4.45584 -0.464654 0
M  V30 7799 C 750.495 -3.67775 -2.11995 0
M  V30 7800 C 748.402 -5.80544 -1.12797 0
M  V30 7801 H 747.332 -0.69392 -0.294943 0
M  V30 7802 H 749.983 -1.83471 -0.0328527 0
M  V30 7803 H 748.365 -3.27078 -2.2324 0
M  V30 7804 H 749.539 -4.59824 0.299749 0
M  V30 7805 H 747.854 -4.16247 0.112813 0
M  V30 7806 H 750.451 -4.65896 -2.62383 0
M  V30 7807 H 750.794 -2.9715 -2.91561 0
M  V30 7808 H 751.327 -3.72593 -1.39354 0
M  V30 7809 H 748.066 -6.54439 -0.372807 0
M  V30 7810 H 747.586 -5.70119 -1.86344 0
M  V30 7811 H 749.265 -6.25602 -1.6502 0
M  V30 7812 N 749.397 0.351382 -1.53633 0
M  V30 7813 C 750.344 1.43115 -1.81071 0
M  V30 7814 C 751.314 1.52601 -0.655913 0
M  V30 7815 O 752.499 1.68264 -0.89955 0
M  V30 7816 C 749.639 2.79874 -2.01903 0
M  V30 7817 C 748.752 2.79242 -3.29618 0
M  V30 7818 C 747.887 4.07667 -3.40559 0
M  V30 7819 C 746.926 4.01233 -4.62254 0
M  V30 7820 N 746.063 5.21334 -4.70271 0
M  V30 7821 H 750.903 1.19017 -2.73201 0
M  V30 7822 H 748.44 0.576691 -1.35324 0
M  V30 7823 H 750.398 3.5934 -2.11969 0
M  V30 7824 H 749.028 3.0234 -1.13094 0
M  V30 7825 H 748.08 1.91927 -3.28433 0
M  V30 7826 H 749.392 2.70363 -4.19172 0
M  V30 7827 H 748.546 4.95555 -3.50015 0
M  V30 7828 H 747.285 4.19317 -2.49047 0
M  V30 7829 H 746.29 3.11732 -4.52884 0
M  V30 7830 H 747.515 3.91173 -5.55122 0
M  V30 7831 H 745.461 5.33543 -3.81665 0
M  V30 7832 H 745.378 5.14681 -5.5375 0
M  V30 7833 H 746.646 6.11014 -4.84027 0
M  V30 7834 N 750.875 1.45233 0.611969 0
M  V30 7835 C 751.838 1.53189 1.70487 0
M  V30 7836 C 752.838 0.411839 1.55437 0
M  V30 7837 O 754.028 0.675164 1.60584 0
M  V30 7838 C 751.16 1.42422 3.09723 0
M  V30 7839 H 752.353 2.5056 1.64802 0
M  V30 7840 H 749.906 1.32609 0.827318 0
M  V30 7841 H 750.641 0.462185 3.2099 0
M  V30 7842 H 750.426 2.23658 3.22055 0
M  V30 7843 H 751.916 1.51012 3.89339 0
M  V30 7844 N 752.353 -0.854086 1.3245 0
M  V30 7845 C 753.581 -1.64074 1.26045 0
M  V30 7846 C 753.996 -1.8802 -0.171456 0
M  V30 7847 O 753.353 -1.4496 -1.10873 0
M  V30 7848 C 753.404 -2.9997 2.01743 0
M  V30 7849 O 753.125 -2.77084 3.39346 0
M  V30 7850 C 754.626 -3.94414 2.02368 0
M  V30 7851 H 751.846 -0.511015 0.434862 0
M  V30 7852 H 754.39 -1.06494 1.74583 0
M  V30 7853 H 752.545 -3.54193 1.56926 0
M  V30 7854 H 752.959 -3.63514 3.78098 0
M  V30 7855 H 754.433 -4.87032 2.59815 0
M  V30 7856 H 754.91 -4.27427 1.01009 0
M  V30 7857 H 755.516 -3.46127 2.47135 0
M  V30 7858 N 753.831 -1.1567 -1.07043 0
M  V30 7859 C 755.077 -0.9349 -1.79965 0
M  V30 7860 C 755.41 0.536464 -1.86643 0
M  V30 7861 O 754.685 1.39781 -1.35247 0
M  V30 7862 C 754.968 -1.55371 -3.24857 0
M  V30 7863 C 754.821 -3.09589 -3.26305 0
M  V30 7864 C 756.14 -1.24209 -4.22209 0
M  V30 7865 H 753.259 -0.341061 -0.653335 0
M  V30 7866 H 755.901 -1.42883 -1.25237 0
M  V30 7867 H 754.051 -1.13368 -3.71591 0
M  V30 7868 H 755.723 -3.60521 -2.87789 0
M  V30 7869 H 753.966 -3.43315 -2.65174 0
M  V30 7870 H 754.637 -3.48002 -4.28484 0
M  V30 7871 H 757.113 -1.60548 -3.8388 0
M  V30 7872 H 755.989 -1.70119 -5.21872 0
M  V30 7873 H 756.25 -0.15964 -4.41812 0
M  V30 7874 N 755.309 1.25446 -0.953992 0
M  V30 7875 C 756.557 1.92762 -0.607227 0
M  V30 7876 C 756.878 1.7509 0.858399 0
M  V30 7877 O 756.148 1.11416 1.61132 0
M  V30 7878 H 754.728 0.713377 -0.221591 0
M  V30 7879 H 757.39 1.52625 -1.21209 0
M  V30 7880 H 756.486 3.00695 -0.835998 0
M  V30 7881 N 756.787 0.722489 1.40064 0
M  V30 7882 C 757.717 0.0892452 2.33329 0
M  V30 7883 C 758.698 -0.737992 1.53257 0
M  V30 7884 O 759.883 -0.685516 1.81698 0
M  V30 7885 C 757.013 -0.828139 3.37282 0
M  V30 7886 C 755.967 -0.106005 4.27869 0
M  V30 7887 C 755.293 -1.13957 5.22415 0
M  V30 7888 C 756.593 1.04395 5.11761 0
M  V30 7889 H 758.287 0.868269 2.86534 0
M  V30 7890 H 755.833 0.418982 1.3777 0
M  V30 7891 H 757.786 -1.28058 4.01471 0
M  V30 7892 H 756.51 -1.63914 2.82489 0
M  V30 7893 H 755.169 0.326683 3.65142 0
M  V30 7894 H 754.817 -1.9438 4.63924 0
M  V30 7895 H 754.517 -0.661233 5.83868 0
M  V30 7896 H 756.041 -1.59197 5.89482 0
M  V30 7897 H 757.455 0.670541 5.69365 0
M  V30 7898 H 755.852 1.4511 5.82291 0
M  V30 7899 H 756.922 1.87144 4.47331 0
M  V30 7900 N 758.265 -1.50454 0.469181 0
M  V30 7901 C 759.514 -2.01507 -0.0881425 0
M  V30 7902 C 759.827 -1.35613 -1.40956 0
M  V30 7903 O 761.033 -1.77812 -2.05171 0
M  V30 7904 C 759.489 -3.59301 -0.207596 0
M  V30 7905 C 759.097 -4.34152 1.10527 0
M  V30 7906 C 760.841 -4.18401 -0.716981 0
M  V30 7907 C 758.748 -5.83725 0.949717 0
M  V30 7908 H 757.678 -0.753106 -0.0367156 0
M  V30 7909 H 760.329 -1.73282 0.603788 0
M  V30 7910 H 758.711 -3.84106 -0.963265 0
M  V30 7911 H 759.885 -4.21073 1.87175 0
M  V30 7912 H 758.2 -3.86652 1.54562 0
M  V30 7913 H 760.797 -5.27895 -0.850363 0
M  V30 7914 H 761.14 -3.79657 -1.70782 0
M  V30 7915 H 761.673 -3.97796 -0.0187511 0
M  V30 7916 H 758.412 -6.26938 1.91387 0
M  V30 7917 H 757.932 -5.99383 0.223591 0
M  V30 7918 H 759.611 -6.44065 0.61557 0
M  V30 7919 N 759.743 -0.201713 -1.56304 0
M  V30 7920 C 761.159 0.154025 -1.58855 0
M  V30 7921 C 761.359 1.60516 -1.21807 0
M  V30 7922 O 760.415 2.34193 -0.94393 0
M  V30 7923 C 761.728 -0.154319 -3.00304 0
M  V30 7924 C 763.276 -0.0949578 -3.12856 0
M  V30 7925 C 763.751 -0.376703 -4.56448 0
M  V30 7926 N 765.242 -0.325558 -4.62054 0
M  V30 7927 C 765.977 -0.51732 -5.71062 0
M  V30 7928 N 765.473 -0.769789 -6.8851 0
M  V30 7929 N 767.266 -0.45112 -5.60287 0
M  V30 7930 H 759.417 -1.14858 -1.78666 0
M  V30 7931 H 761.68 -0.458934 -0.829508 0
M  V30 7932 H 761.386 -1.16074 -3.31994 0
M  V30 7933 H 761.26 0.540014 -3.73314 0
M  V30 7934 H 763.647 0.902075 -2.80974 0
M  V30 7935 H 763.728 -0.822468 -2.42217 0
M  V30 7936 H 763.372 -1.37108 -4.89044 0
M  V30 7937 H 763.302 0.371772 -5.25286 0
M  V30 7938 H 765.793 -0.137308 -3.7765 0
M  V30 7939 H 766.106 -0.904744 -7.67486 0
M  V30 7940 H 764.451 -0.806758 -6.90302 0
M  V30 7941 H 767.642 -0.254253 -4.67409 0
M  V30 7942 H 767.815 -0.603982 -6.45179 0
M  V30 7943 N 761.222 1.57436 0.0718424 0
M  V30 7944 C 762.17 2.04725 1.10411 0
M  V30 7945 C 763.164 0.952579 1.4008 0
M  V30 7946 O 764.37 1.13769 1.39487 0
M  V30 7947 H 760.745 0.652749 0.373393 0
M  V30 7948 H 762.716 2.90569 0.679126 0
M  V30 7949 C 761.465 2.5068 2.40946 0
M  V30 7950 H 760.788 3.34505 2.18967 0
M  V30 7951 H 762.228 2.87521 3.11621 0
M  V30 7952 C 760.687 1.38971 3.06902 0
M  V30 7953 O 761.217 0.731786 3.94978 0
M  V30 7954 N 759.423 1.13485 2.67525 0
M  V30 7955 H 758.97 1.67168 1.95991 0
M  V30 7956 H 758.928 0.389467 3.11978 0
M  V30 7957 N 762.7 -0.34323 1.53817 0
M  V30 7958 C 763.63 -1.42709 1.84814 0
M  V30 7959 C 764.611 -1.5488 0.703297 0
M  V30 7960 O 765.796 -1.69082 0.955237 0
M  V30 7961 C 762.926 -2.79756 2.05801 0
M  V30 7962 C 761.88 -2.82392 3.21619 0
M  V30 7963 C 761.206 -4.22326 3.2794 0
M  V30 7964 C 762.506 -2.479 4.59721 0
M  V30 7965 H 764.2 -1.17018 2.75585 0
M  V30 7966 H 761.746 -0.561485 1.32602 0
M  V30 7967 H 763.699 -3.55627 2.26069 0
M  V30 7968 H 762.423 -3.06883 1.11761 0
M  V30 7969 H 761.082 -2.08974 3.01207 0
M  V30 7970 H 760.73 -4.46564 2.31494 0
M  V30 7971 H 760.43 -4.25001 4.05768 0
M  V30 7972 H 761.954 -5.00039 3.50419 0
M  V30 7973 H 763.368 -3.13484 4.80001 0
M  V30 7974 H 761.765 -2.61857 5.39954 0
M  V30 7975 H 762.835 -1.43087 4.63308 0
M  V30 7976 N 764.178 -1.45556 -0.604258 0
M  V30 7977 C 765.141 -1.54091 -1.69672 0
M  V30 7978 C 766.141 -0.420076 -1.55216 0
M  V30 7979 O 767.331 -0.683671 -1.60224 0
M  V30 7980 C 764.463 -1.44063 -3.08964 0
M  V30 7981 H 765.656 -2.51431 -1.6347 0
M  V30 7982 H 763.209 -1.33046 -0.820273 0
M  V30 7983 H 763.944 -0.479201 -3.2074 0
M  V30 7984 H 763.729 -2.25362 -3.20865 0
M  V30 7985 H 765.219 -1.53075 -3.88533 0
M  V30 7986 N 765.656 0.84705 -1.32902 0
M  V30 7987 C 766.586 1.97166 -1.25091 0
M  V30 7988 C 767.567 1.69578 -0.133161 0
M  V30 7989 O 768.752 1.91519 -0.321591 0
M  V30 7990 C 765.882 3.33157 -0.981006 0
M  V30 7991 C 764.836 3.75119 -2.06082 0
M  V30 7992 C 764.162 5.08826 -1.64318 0
M  V30 7993 C 765.462 3.89774 -3.47669 0
M  V30 7994 H 767.156 2.03958 -2.19184 0
M  V30 7995 H 764.702 0.979907 -1.05517 0
M  V30 7996 H 766.655 4.11393 -0.912891 0
M  V30 7997 H 765.379 3.266 -0.00445559 0
M  V30 7998 H 764.038 2.9914 -2.11921 0
M  V30 7999 H 763.686 4.98732 -0.653876 0
M  V30 8000 H 763.386 5.37873 -2.36572 0
M  V30 8001 H 764.91 5.89546 -1.58958 0
M  V30 8002 H 766.324 4.58343 -3.44376 0
M  V30 8003 H 764.721 4.30248 -4.18338 0
M  V30 8004 H 765.791 2.92463 -3.86773 0
M  V30 8005 N 767.134 1.16236 1.06428 0
M  V30 8006 C 768.374 0.95369 1.80787 0
M  V30 8007 C 768.738 -0.509495 1.85117 0
M  V30 8008 O 769.939 -0.836822 2.55442 0
M  V30 8009 C 768.21 1.56235 3.21443 0
M  V30 8010 S 769.769 1.49812 4.12434 0
M  V30 8011 H 766.587 0.343004 0.622792 0
M  V30 8012 H 769.189 1.47957 1.27785 0
M  V30 8013 H 767.893 2.62 3.15886 0
M  V30 8014 H 767.424 1.03574 3.79521 0
M  V30 8015 H 769.439 0.49745 4.937 0
M  V30 8016 N 768.612 -1.24939 0.960631 0
M  V30 8017 C 770.023 -1.74701 0.658529 0
M  V30 8018 C 770.374 -1.77967 -0.825959 0
M  V30 8019 O 769.499 -1.40444 -1.64634 0
M  V30 8020 C 770.094 -3.17263 1.18867 0
M  V30 8021 C 768.653 -3.64561 0.936614 0
M  V30 8022 C 767.8 -2.43423 1.32817 0
M  V30 8023 H 770.751 -1.10741 1.13676 0
M  V30 8024 H 770.772 -3.76481 0.551589 0
M  V30 8025 H 770.284 -3.14854 2.26912 0
M  V30 8026 H 768.385 -3.72378 -0.128608 0
M  V30 8027 H 768.498 -4.52392 1.57729 0
M  V30 8028 H 766.862 -2.43513 0.746548 0
M  V30 8029 H 767.645 -2.437 2.41796 0
M  V30 8030 N 770.09 -0.729906 -1.39679 0
M  V30 8031 C 771.053 -0.0951668 -2.29002 0
M  V30 8032 C 772.053 0.672471 -1.46063 0
M  V30 8033 O 773.243 0.502245 -1.66803 0
M  V30 8034 C 770.375 0.874631 -3.29489 0
M  V30 8035 H 771.568 -0.882062 -2.86635 0
M  V30 8036 H 769.121 -0.495424 -1.4824 0
M  V30 8037 H 769.856 1.68807 -2.76902 0
M  V30 8038 H 769.641 0.326893 -3.90735 0
M  V30 8039 H 771.131 1.31548 -3.96339 0
M  V30 8040 N 771.568 1.50203 -0.477153 0
M  V30 8041 C 772.516 2.30278 0.327826 0
M  V30 8042 C 773.51 1.37831 0.984839 0
M  V30 8043 O 774.716 1.54994 0.915251 0
M  V30 8044 H 771.091 0.741612 0.124564 0
M  V30 8045 H 773.062 2.96124 -0.367853 0
M  V30 8046 C 771.811 3.18548 1.39365 0
M  V30 8047 H 771.134 3.89596 0.897475 0
M  V30 8048 H 772.574 3.77561 1.92934 0
M  V30 8049 C 771.033 2.36548 2.39889 0
M  V30 8050 O 771.563 2.05282 3.45286 0
M  V30 8051 N 769.769 1.99015 2.11758 0
M  V30 8052 H 769.316 2.24641 1.26071 0
M  V30 8053 H 769.274 1.44454 2.7925 0
M  V30 8054 N 773.046 0.209999 1.56195 0
M  V30 8055 C 773.996 -0.717978 2.164 0
M  V30 8056 C 774.98 -1.16577 1.10899 0
M  V30 8057 O 776.172 -1.12169 1.3692 0
M  V30 8058 C 773.301 -1.93091 2.8385 0
M  V30 8059 C 772.387 -1.50333 3.96561 0
M  V30 8060 N 772.778 -0.787621 4.9963 0
M  V30 8061 C 771.076 -1.79151 4.08437 0
M  V30 8062 C 771.777 -0.571204 5.78889 0
M  V30 8063 N 770.753 -1.12444 5.31843 0
M  V30 8064 H 774.555 -0.162603 2.9345 0
M  V30 8065 H 772.069 0.0107928 1.62396 0
M  V30 8066 H 774.066 -2.60635 3.25384 0
M  V30 8067 H 772.726 -2.49087 2.08293 0
M  V30 8068 H 773.737 -0.441513 5.16015 0
M  V30 8069 H 770.414 -2.36549 3.44022 0
M  V30 8070 H 771.804 -0.00237941 6.719 0
M  V30 8071 N 774.524 -1.57472 -0.0634922 0
M  V30 8072 C 775.487 -2.03268 -1.059 0
M  V30 8073 C 776.487 -0.931028 -1.31105 0
M  V30 8074 O 777.677 -1.19567 -1.26686 0
M  V30 8075 C 774.809 -2.42039 -2.40062 0
M  V30 8076 H 776.002 -2.92454 -0.664119 0
M  V30 8077 H 773.555 -1.53206 -0.309444 0
M  V30 8078 H 774.29 -1.55904 -2.84367 0
M  V30 8079 H 774.075 -3.22437 -2.23108 0
M  V30 8080 H 775.565 -2.78017 -3.11603 0
M  V30 8081 N 776.003 0.335068 -1.53997 0
M  V30 8082 C 777.414 0.910191 -1.6301 0
M  V30 8083 C 777.765 1.89271 -0.516809 0
M  V30 8084 O 776.89 2.13516 0.352123 0
M  V30 8085 C 777.485 1.65761 -2.9548 0
M  V30 8086 C 776.044 2.18163 -3.06728 0
M  V30 8087 C 775.191 1.00338 -2.5851 0
M  V30 8088 H 778.142 0.112965 -1.58297 0
M  V30 8089 H 778.163 2.52107 -2.84995 0
M  V30 8090 H 777.675 0.94227 -3.76488 0
M  V30 8091 H 775.776 2.92847 -2.30372 0
M  V30 8092 H 775.889 2.43952 -4.1234 0
M  V30 8093 H 774.253 1.37925 -2.14124 0
M  V30 8094 H 775.036 0.30254 -3.41964 0
M  V30 8095 N 777.481 1.45874 0.596531 0
M  V30 8096 C 778.411 1.5824 1.71705 0
M  V30 8097 C 779.392 0.433366 1.64487 0
M  V30 8098 O 780.577 0.657895 1.82717 0
M  V30 8099 C 777.707 1.55927 3.10329 0
M  V30 8100 C 776.661 2.69659 3.32367 0
M  V30 8101 C 775.987 2.52403 4.71377 0
M  V30 8102 C 777.287 4.11591 3.21544 0
M  V30 8103 H 778.981 2.52035 1.61613 0
M  V30 8104 H 776.527 1.21297 0.776082 0
M  V30 8105 H 778.48 1.63173 3.88526 0
M  V30 8106 H 777.204 0.586674 3.21288 0
M  V30 8107 H 775.863 2.61859 2.56564 0
M  V30 8108 H 775.511 1.53258 4.79083 0
M  V30 8109 H 775.211 3.28679 4.87077 0
M  V30 8110 H 776.735 2.6152 5.5176 0
M  V30 8111 H 778.149 4.20576 3.89601 0
M  V30 8112 H 776.546 4.88344 3.4877 0
M  V30 8113 H 777.616 4.32719 2.1882 0
M  V30 8114 N 778.959 -0.83999 1.33349 0
M  V30 8115 C 780.375 -1.13049 1.12659 0
M  V30 8116 C 780.575 -2.01328 -0.0832613 0
M  V30 8117 O 779.631 -2.40669 -0.763856 0
M  V30 8118 C 780.944 -1.79366 2.41347 0
M  V30 8119 C 782.492 -1.91937 2.47243 0
M  V30 8120 C 782.967 -2.6167 3.75889 0
M  V30 8121 N 784.458 -2.69184 3.76954 0
M  V30 8122 C 785.193 -3.23827 4.73206 0
M  V30 8123 N 784.689 -3.79166 5.79832 0
M  V30 8124 N 786.482 -3.22068 4.60683 0
M  V30 8125 H 778.633 -0.252432 2.10895 0
M  V30 8126 H 780.896 -0.174501 0.931801 0
M  V30 8127 H 780.602 -1.2196 3.29877 0
M  V30 8128 H 780.476 -2.79396 2.53412 0
M  V30 8129 H 782.863 -2.48498 1.59163 0
M  V30 8130 H 782.944 -0.908604 2.39119 0
M  V30 8131 H 782.588 -2.05769 4.64351 0
M  V30 8132 H 782.518 -3.63217 3.81289 0
M  V30 8133 H 785.009 -2.2994 2.99893 0
M  V30 8134 H 785.322 -4.19061 6.49313 0
M  V30 8135 H 783.667 -3.77457 5.83568 0
M  V30 8136 H 786.858 -2.78092 3.7654 0
M  V30 8137 H 787.031 -3.64351 5.35866 0
M  V30 8138 N 780.437 -1.16799 -1.0581 0
M  V30 8139 C 781.347 -0.893492 -2.16919 0
M  V30 8140 C 782.363 0.136061 -1.73467 0
M  V30 8141 O 783.539 -0.0417348 -2.01357 0
M  V30 8142 C 780.604 -0.403763 -3.44341 0
M  V30 8143 C 779.665 -1.49914 -4.02274 0
M  V30 8144 C 778.898 -1.03269 -5.23614 0
M  V30 8145 O 779.121 0.115647 -5.70283 0
M  V30 8146 O 778.055 -1.8231 -5.73626 0
M  V30 8147 H 781.881 -1.82274 -2.42919 0
M  V30 8148 H 779.466 -0.948361 -1.1544 0
M  V30 8149 H 781.348 -0.137874 -4.21174 0
M  V30 8150 H 780.023 0.497413 -3.19855 0
M  V30 8151 H 778.93 -1.81883 -3.26909 0
M  V30 8152 H 780.263 -2.3758 -4.31064 0
M  V30 8153 N 781.915 1.24427 -0.967243 0
M  V30 8154 C 782.847 2.24641 -0.454856 0
M  V30 8155 C 783.86 1.56849 0.436152 0
M  V30 8156 O 785.049 1.76846 0.242401 0
M  V30 8157 C 782.149 3.36954 0.362672 0
M  V30 8158 C 781.322 4.34318 -0.518324 0
M  V30 8159 C 780.381 5.25638 0.243122 0
M  V30 8160 O 779.407 5.68043 -0.362791 0
M  V30 8161 N 780.609 5.59897 1.53282 0
M  V30 8162 H 783.374 2.69238 -1.31648 0
M  V30 8163 H 780.935 1.38464 -0.839015 0
M  V30 8164 H 782.927 3.95014 0.880094 0
M  V30 8165 H 781.497 2.91646 1.12522 0
M  V30 8166 H 780.717 3.74953 -1.21672 0
M  V30 8167 H 782.005 4.96338 -1.11919 0
M  V30 8168 H 781.403 5.27373 2.04682 0
M  V30 8169 H 779.96 6.20488 1.99594 0
M  V30 8170 N 783.393 0.737304 1.3929 0
M  V30 8171 C 784.641 0.285691 2.00071 0
M  V30 8172 C 784.962 -1.13169 1.58801 0
M  V30 8173 O 784.232 -1.77104 0.837308 0
M  V30 8174 H 782.812 0.102638 0.739915 0
M  V30 8175 H 785.474 0.947775 1.70303 0
M  V30 8176 H 784.57 0.335906 3.10287 0
M  V30 8177 N 784.871 -1.49948 0.485112 0
M  V30 8178 C 785.834 -2.27351 -0.290546 0
M  V30 8179 C 786.834 -1.32704 -0.908087 0
M  V30 8180 O 788.024 -1.56007 -0.775085 0
M  V30 8181 C 785.156 -3.10135 -1.41524 0
M  V30 8182 H 786.349 -2.97374 0.388454 0
M  V30 8183 H 783.902 -1.54453 0.239586 0
M  V30 8184 H 784.637 -2.44641 -2.12888 0
M  V30 8185 H 784.422 -3.79705 -0.978074 0
M  V30 8186 H 785.912 -3.68638 -1.96204 0
M  V30 8187 N 786.349 -0.21828 -1.56081 0
M  V30 8188 C 787.598 0.414644 -1.97392 0
M  V30 8189 C 787.911 1.61132 -1.10887 0
M  V30 8190 O 789.117 2.31355 -1.42082 0
M  V30 8191 C 787.573 0.789099 -3.51143 0
M  V30 8192 C 787.181 -0.384578 -4.46346 0
M  V30 8193 C 788.925 1.38781 -4.01173 0
M  V30 8194 C 786.832 0.0121288 -5.91399 0
M  V30 8195 H 785.762 0.158691 -0.737111 0
M  V30 8196 H 788.413 -0.313974 -1.80794 0
M  V30 8197 H 786.795 1.57505 -3.6333 0
M  V30 8198 H 787.969 -1.16212 -4.45905 0
M  V30 8199 H 786.284 -0.896306 -4.06639 0
M  V30 8200 H 788.881 1.69746 -5.07041 0
M  V30 8201 H 789.224 2.30245 -3.46833 0
M  V30 8202 H 789.757 0.665364 -3.92196 0
M  V30 8203 H 786.496 -0.868917 -6.49715 0
M  V30 8204 H 786.016 0.754053 -5.95041 0
M  V30 8205 H 787.695 0.439949 -6.45502 0
M  V30 8206 N 787.827 1.57504 0.0551401 0
M  V30 8207 C 789.238 1.76626 0.604979 0
M  V30 8208 C 789.589 0.845978 1.77024 0
M  V30 8209 O 788.714 0.0341936 2.16373 0
M  V30 8210 C 789.309 3.203 1.10425 0
M  V30 8211 C 787.868 3.4071 1.59981 0
M  V30 8212 C 787.015 2.72258 0.526414 0
M  V30 8213 H 789.966 1.57775 -0.171072 0
M  V30 8214 H 789.987 3.25377 1.97256 0
M  V30 8215 H 789.499 3.87255 0.255939 0
M  V30 8216 H 787.6 2.78892 2.47083 0
M  V30 8217 H 787.713 4.49227 1.66528 0
M  V30 8218 H 786.077 2.35283 0.97539 0
M  V30 8219 H 786.86 3.41879 -0.311991 0
M  V30 8220 N 789.305 -0.326896 1.54172 0
M  V30 8221 C 790.721 -0.671034 1.44808 0
M  V30 8222 C 790.921 -1.91781 0.618258 0
M  V30 8223 O 789.977 -2.52235 0.115751 0
M  V30 8224 C 791.29 -0.848147 2.88491 0
M  V30 8225 C 792.838 -0.945702 2.98371 0
M  V30 8226 C 793.313 -1.15501 4.43197 0
M  V30 8227 N 794.804 -1.22183 4.46795 0
M  V30 8228 C 795.539 -1.4016 5.56006 0
M  V30 8229 N 795.035 -1.55202 6.75192 0
M  V30 8230 N 796.828 -1.42841 5.43648 0
M  V30 8231 H 788.979 0.49262 2.06608 0
M  V30 8232 H 791.242 0.158574 0.934643 0
M  V30 8233 H 790.948 -0.00329969 3.517 0
M  V30 8234 H 790.822 -1.74497 3.34411 0
M  V30 8235 H 793.209 -1.78106 2.35292 0
M  V30 8236 H 793.29 -0.0254215 2.55787 0
M  V30 8237 H 792.934 -0.324521 5.06862 0
M  V30 8238 H 792.864 -2.08911 4.83388 0
M  V30 8239 H 795.355 -1.12016 3.60917 0
M  V30 8240 H 795.668 -1.68601 7.54184 0
M  V30 8241 H 794.013 -1.52306 6.78106 0
M  V30 8242 H 797.204 -1.30683 4.49488 0
M  V30 8243 H 797.377 -1.56509 6.28816 0
M  V30 8244 N 790.784 -1.46188 -0.588786 0
M  V30 8245 C 791.714 -1.59148 -1.70863 0
M  V30 8246 C 792.695 -0.442083 -1.64255 0
M  V30 8247 O 793.88 -0.667575 -1.82365 0
M  V30 8248 C 791.01 -1.5757 -3.09498 0
M  V30 8249 C 789.964 -2.71418 -3.30932 0
M  V30 8250 C 789.29 -2.549 -4.70032 0
M  V30 8251 C 790.59 -4.1329 -3.19356 0
M  V30 8252 H 792.284 -2.52889 -1.60274 0
M  V30 8253 H 789.83 -1.21707 -0.769638 0
M  V30 8254 H 791.783 -1.65231 -3.87655 0
M  V30 8255 H 790.507 -0.603705 -3.20972 0
M  V30 8256 H 789.166 -2.63216 -2.55172 0
M  V30 8257 H 788.814 -1.55797 -4.78264 0
M  V30 8258 H 788.514 -3.31257 -4.85327 0
M  V30 8259 H 790.038 -2.64443 -5.50366 0
M  V30 8260 H 791.452 -4.22636 -3.87365 0
M  V30 8261 H 789.849 -4.90187 -3.46175 0
M  V30 8262 H 790.919 -4.33874 -2.16522 0
M  V30 8263 N 792.262 0.832906 -1.33792 0
M  V30 8264 C 793.508 1.59089 -1.25772 0
M  V30 8265 C 793.841 1.93414 0.174601 0
M  V30 8266 O 793.116 1.59195 1.11746 0
M  V30 8267 C 793.399 2.89699 -2.13885 0
M  V30 8268 C 793.252 2.62017 -3.65605 0
M  V30 8269 C 794.571 3.91182 -2.01654 0
M  V30 8270 H 791.69 0.577232 -0.458227 0
M  V30 8271 H 794.332 0.960227 -1.6395 0
M  V30 8272 H 792.482 3.4352 -1.81456 0
M  V30 8273 H 794.154 2.14582 -4.08353 0
M  V30 8274 H 792.397 1.95621 -3.87189 0
M  V30 8275 H 793.068 3.55112 -4.2261 0
M  V30 8276 H 795.544 3.46684 -2.30107 0
M  V30 8277 H 794.42 4.80391 -2.65548 0
M  V30 8278 H 794.681 4.30861 -0.990536 0
M  V30 8279 N 793.74 1.17359 1.05189 0
M  V30 8280 C 794.672 0.848078 2.12933 0
M  V30 8281 C 795.685 -0.149521 1.62112 0
M  V30 8282 O 796.874 0.0767797 1.78335 0
M  V30 8283 C 793.974 0.243889 3.38021 0
M  V30 8284 C 793.147 1.28436 4.18118 0
M  V30 8285 C 792.206 0.697926 5.21551 0
M  V30 8286 O 791.232 1.36973 5.52473 0
M  V30 8287 N 792.434 -0.510024 5.78255 0
M  V30 8288 H 795.199 1.7754 2.41453 0
M  V30 8289 H 792.76 1.07244 1.21286 0
M  V30 8290 H 794.752 -0.161727 4.04377 0
M  V30 8291 H 793.322 -0.58722 3.07035 0
M  V30 8292 H 792.542 1.86573 3.47252 0
M  V30 8293 H 793.83 1.98617 4.68432 0
M  V30 8294 H 793.228 -1.07378 5.55416 0
M  V30 8295 H 791.785 -0.857705 6.46132 0
M  V30 8296 N 795.218 -1.23913 0.973828 0
M  V30 8297 C 796.148 -2.27453 0.527969 0
M  V30 8298 C 797.129 -1.6443 -0.435513 0
M  V30 8299 O 798.314 -1.9137 -0.330306 0
M  V30 8300 C 795.444 -3.4685 -0.176757 0
M  V30 8301 C 794.398 -4.22181 0.703352 0
M  V30 8302 C 793.724 -5.34534 -0.133215 0
M  V30 8303 C 795.024 -4.82865 1.99096 0
M  V30 8304 H 796.718 -2.65 1.3934 0
M  V30 8305 H 794.264 -1.27388 0.671446 0
M  V30 8306 H 796.217 -4.18424 -0.499934 0
M  V30 8307 H 794.941 -3.08346 -1.07659 0
M  V30 8308 H 793.6 -3.52416 1.00989 0
M  V30 8309 H 793.248 -4.92271 -1.03338 0
M  V30 8310 H 792.948 -5.85855 0.452494 0
M  V30 8311 H 794.472 -6.08933 -0.450924 0
M  V30 8312 H 795.886 -5.46481 1.73297 0
M  V30 8313 H 794.283 -5.44444 2.52389 0
M  V30 8314 H 795.353 -4.03977 2.68199 0
M  V30 8315 N 796.696 -0.74468 -1.38897 0
M  V30 8316 C 797.626 -0.126355 -2.33158 0
M  V30 8317 C 798.607 0.713517 -1.54412 0
M  V30 8318 O 799.792 0.656523 -1.82766 0
M  V30 8319 C 796.922 0.774375 -3.38557 0
M  V30 8320 C 795.876 0.0379214 -4.27983 0
M  V30 8321 C 795.202 1.05631 -5.24162 0
M  V30 8322 C 796.502 -1.12523 -5.10035 0
M  V30 8323 H 798.196 -0.913744 -2.85116 0
M  V30 8324 H 795.742 -0.440847 -1.37086 0
M  V30 8325 H 797.695 1.21655 -4.03458 0
M  V30 8326 H 796.419 1.59399 -2.85061 0
M  V30 8327 H 795.078 -0.384733 -3.64576 0
M  V30 8328 H 794.726 1.86975 -4.66958 0
M  V30 8329 H 794.426 0.568261 -5.84846 0
M  V30 8330 H 795.95 1.49799 -5.9194 0
M  V30 8331 H 797.364 -0.761037 -5.68226 0
M  V30 8332 H 795.761 -1.54355 -5.79909 0
M  V30 8333 H 796.831 -1.94237 -4.44297 0
M  V30 8334 N 798.174 1.49689 -0.493057 0
M  V30 8335 C 799.42 2.02727 0.0543518 0
M  V30 8336 C 799.753 1.37264 1.37376 0
M  V30 8337 O 799.028 0.505644 1.87812 0
M  V30 8338 C 799.311 3.59456 0.215226 0
M  V30 8339 C 799.164 4.35459 -1.12675 0
M  V30 8340 C 800.483 4.29511 0.959586 0
M  V30 8341 H 797.602 0.736773 0.0182786 0
M  V30 8342 H 800.244 1.78792 -0.642924 0
M  V30 8343 H 798.394 3.79981 0.809122 0
M  V30 8344 H 800.066 4.2645 -1.75891 0
M  V30 8345 H 798.309 3.9833 -1.71801 0
M  V30 8346 H 798.98 5.43454 -0.967578 0
M  V30 8347 H 801.456 4.13594 0.455977 0
M  V30 8348 H 800.332 5.38939 1.04098 0
M  V30 8349 H 800.593 3.94202 2.00144 0
M  V30 8350 N 799.652 0.226554 1.55963 0
M  V30 8351 C 801.068 -0.128733 1.5908 0
M  V30 8352 C 801.268 -1.58558 1.24345 0
M  V30 8353 O 800.324 -2.32661 0.981069 0
M  V30 8354 C 801.637 0.202076 3.0002 0
M  V30 8355 C 803.185 0.144718 3.12665 0
M  V30 8356 C 803.66 0.449272 4.55791 0
M  V30 8357 N 805.151 0.399026 4.61478 0
M  V30 8358 C 805.886 0.608106 5.70166 0
M  V30 8359 N 805.382 0.879227 6.87198 0
M  V30 8360 N 807.175 0.5402 5.59498 0
M  V30 8361 H 799.326 1.17686 1.76816 0
M  V30 8362 H 801.589 0.472072 0.822102 0
M  V30 8363 H 801.295 1.21341 3.30105 0
M  V30 8364 H 801.169 -0.480554 3.74126 0
M  V30 8365 H 803.556 -0.857261 2.82374 0
M  V30 8366 H 803.637 0.860899 2.40878 0
M  V30 8367 H 803.281 1.44871 4.86801 0
M  V30 8368 H 803.211 -0.288157 5.25811 0
M  V30 8369 H 805.702 0.197372 3.77384 0
M  V30 8370 H 806.015 1.02673 7.65949 0
M  V30 8371 H 804.36 0.916477 6.88931 0
M  V30 8372 H 807.551 0.328581 4.66945 0
M  V30 8373 H 807.724 0.706548 6.44137 0
M  V30 8374 N 801.13 -1.57531 -0.0467866 0
M  V30 8375 C 802.093 -2.04379 -1.03738 0
M  V30 8376 C 803.093 -0.944881 -1.3011 0
M  V30 8377 O 804.283 -1.20904 -1.25411 0
M  V30 8378 C 801.415 -2.44572 -2.37482 0
M  V30 8379 H 802.608 -2.93142 -0.633063 0
M  V30 8380 H 800.161 -1.53526 -0.293177 0
M  V30 8381 H 800.896 -1.58911 -2.82697 0
M  V30 8382 H 800.681 -3.24785 -2.19675 0
M  V30 8383 H 802.171 -2.81307 -3.08636 0
M  V30 8384 N 802.608 0.318715 -1.54344 0
M  V30 8385 C 803.558 1.39364 -1.80448 0
M  V30 8386 C 804.542 1.46708 -0.660728 0
M  V30 8387 O 805.734 1.51159 -0.920869 0
M  V30 8388 C 802.863 2.76144 -2.03959 0
M  V30 8389 C 801.949 2.73094 -3.24469 0
M  V30 8390 N 802.34 2.39663 -4.45416 0
M  V30 8391 C 800.638 3.04218 -3.2614 0
M  V30 8392 C 801.339 2.45469 -5.27371 0
M  V30 8393 N 800.315 2.82107 -4.64668 0
M  V30 8394 H 804.117 1.12453 -2.71535 0
M  V30 8395 H 801.631 0.527221 -1.53604 0
M  V30 8396 H 803.628 3.53627 -2.20802 0
M  V30 8397 H 802.288 3.03982 -1.14129 0
M  V30 8398 H 803.299 2.12424 -4.72331 0
M  V30 8399 H 799.976 3.37066 -2.4636 0
M  V30 8400 H 801.366 2.22571 -6.33965 0
M  V30 8401 N 804.086 1.46499 0.581025 0
M  V30 8402 C 805.018 1.53225 1.70455 0
M  V30 8403 C 806.031 0.420443 1.57277 0
M  V30 8404 O 807.22 0.688888 1.64671 0
M  V30 8405 C 804.32 1.39803 3.08721 0
M  V30 8406 C 803.493 2.65132 3.47884 0
M  V30 8407 C 802.552 2.45886 4.65217 0
M  V30 8408 O 801.578 3.19615 4.70993 0
M  V30 8409 N 802.78 1.5216 5.60203 0
M  V30 8410 H 805.545 2.50098 1.65139 0
M  V30 8411 H 803.106 1.42576 0.76705 0
M  V30 8412 H 805.098 1.24697 3.8501 0
M  V30 8413 H 803.668 0.51104 3.08394 0
M  V30 8414 H 802.888 2.95169 2.61284 0
M  V30 8415 H 804.176 3.48385 3.70817 0
M  V30 8416 H 803.574 0.913646 5.58273 0
M  V30 8417 H 802.131 1.43017 6.35916 0
M  V30 8418 N 805.565 -0.825799 1.34232 0
M  V30 8419 C 806.842 -1.56741 1.17011 0
M  V30 8420 C 807.222 -2.09512 -0.258425 0
M  V30 8421 O 806.57 -1.90664 -1.25935 0
M  V30 8422 C 806.78 -2.69104 2.22225 0
M  V30 8423 C 808.128 -3.37947 2.57055 0
M  V30 8424 O 809.152 -2.79358 2.20992 0
M  V30 8425 O 808.011 -4.43743 3.1899 0
M  V30 8426 H 805.105 -0.69163 0.453405 0
M  V30 8427 H 807.651 -0.867422 1.45856 0
M  V30 8428 H 806.423 -2.27844 3.18124 0
M  V30 8429 H 806.046 -3.46756 1.94541 0
M  V30 8430 N 807.043 -1.17915 -1.04565 0
M  V30 8431 C 808.271 -0.99616 -1.8134 0
M  V30 8432 C 808.686 0.455509 -1.83223 0
M  V30 8433 O 808.043 1.31636 -1.26405 0
M  V30 8434 C 808.094 -1.53758 -3.27171 0
M  V30 8435 O 807.815 -2.93241 -3.25486 0
M  V30 8436 C 809.316 -1.40007 -4.2061 0
M  V30 8437 H 806.536 -0.352055 -0.571225 0
M  V30 8438 H 809.08 -1.56349 -1.31815 0
M  V30 8439 H 807.235 -1.01213 -3.73945 0
M  V30 8440 H 807.649 -3.18392 -4.16805 0
M  V30 8441 H 809.123 -1.82695 -5.2089 0
M  V30 8442 H 809.6 -0.348054 -4.37819 0
M  V30 8443 H 810.206 -1.916 -3.79697 0
M  V30 8444 N 808.521 1.23394 -0.980386 0
M  V30 8445 C 809.453 2.24146 -0.478657 0
M  V30 8446 C 810.466 1.57303 0.419492 0
M  V30 8447 O 811.655 1.77094 0.223631 0
M  V30 8448 C 808.755 3.3732 0.326913 0
M  V30 8449 C 807.928 4.33744 -0.56436 0
M  V30 8450 C 806.987 5.25866 0.187358 0
M  V30 8451 O 806.013 5.67626 -0.423019 0
M  V30 8452 N 807.215 5.61492 1.47335 0
M  V30 8453 H 809.98 2.67826 -1.34496 0
M  V30 8454 H 807.541 1.37566 -0.853653 0
M  V30 8455 H 809.533 3.95926 0.838148 0
M  V30 8456 H 808.103 2.92823 1.09422 0
M  V30 8457 H 807.323 3.73641 -1.25642 0
M  V30 8458 H 808.611 4.95123 -1.17177 0
M  V30 8459 H 808.009 5.29514 1.99077 0
M  V30 8460 H 806.566 6.2257 1.93002 0
M  V30 8461 N 809.999 0.752036 1.385 0
M  V30 8462 C 811.415 0.42946 1.53713 0
M  V30 8463 C 811.615 -1.0576 1.71514 0
M  V30 8464 O 810.671 -1.84366 1.72527 0
M  V30 8465 C 811.984 1.22735 2.74511 0
M  V30 8466 C 813.532 1.21727 2.8836 0
M  V30 8467 C 814.007 1.99809 4.12117 0
M  V30 8468 N 815.498 1.97062 4.19191 0
M  V30 8469 C 816.233 2.54274 5.13938 0
M  V30 8470 N 815.729 3.20193 6.14368 0
M  V30 8471 N 817.522 2.44212 5.06277 0
M  V30 8472 H 809.673 1.71581 1.25195 0
M  V30 8473 H 811.936 0.727293 0.60807 0
M  V30 8474 H 811.642 2.28032 2.67758 0
M  V30 8475 H 811.516 0.843186 3.67655 0
M  V30 8476 H 813.903 0.172367 2.94596 0
M  V30 8477 H 813.984 1.64094 1.96232 0
M  V30 8478 H 813.628 3.0431 4.06642 0
M  V30 8479 H 813.558 1.54837 5.03322 0
M  V30 8480 H 816.049 1.49054 3.47263 0
M  V30 8481 H 816.362 3.61272 6.83156 0
M  V30 8482 H 814.707 3.24287 6.14705 0
M  V30 8483 H 817.898 1.92343 4.26757 0
M  V30 8484 H 818.071 2.89096 5.79937 0
M  V30 8485 N 811.477 -1.49425 0.500989 0
M  V30 8486 C 812.893 -1.58826 0.156951 0
M  V30 8487 C 813.093 -1.50622 -1.33848 0
M  V30 8488 O 812.149 -1.38016 -2.11442 0
M  V30 8489 C 813.462 -2.91611 0.73374 0
M  V30 8490 C 815.01 -3.05076 0.699846 0
M  V30 8491 C 815.485 -4.40479 1.2547 0
M  V30 8492 N 816.976 -4.4697 1.2154 0
M  V30 8493 C 817.711 -5.50189 1.6149 0
M  V30 8494 N 817.207 -6.60512 2.09034 0
M  V30 8495 N 819 -5.40903 1.52907 0
M  V30 8496 H 811.151 -1.53001 1.47324 0
M  V30 8497 H 813.414 -0.724765 0.61108 0
M  V30 8498 H 813.12 -3.03182 1.78251 0
M  V30 8499 H 812.994 -3.767 0.19417 0
M  V30 8500 H 815.381 -2.93134 -0.340085 0
M  V30 8501 H 815.462 -2.2167 1.27656 0
M  V30 8502 H 815.106 -4.53172 2.29341 0
M  V30 8503 H 815.036 -5.22524 0.653921 0
M  V30 8504 H 817.527 -3.67819 0.867043 0
M  V30 8505 H 817.84 -7.35372 2.37588 0
M  V30 8506 H 816.185 -6.61553 2.13008 0
M  V30 8507 H 819.376 -4.53606 1.15583 0
M  V30 8508 H 819.549 -6.21219 1.84365 0
M  V30 8509 N 812.955 -0.234822 -1.55841 0
M  V30 8510 C 814.183 0.397745 -2.03041 0
M  V30 8511 C 814.598 1.52405 -1.11437 0
M  V30 8512 O 813.955 1.82061 -0.126466 0
M  V30 8513 C 814.006 0.916919 -3.49678 0
M  V30 8514 O 813.727 -0.164493 -4.37791 0
M  V30 8515 C 815.228 1.62139 -4.12584 0
M  V30 8516 H 812.448 0.0959214 -0.664108 0
M  V30 8517 H 814.992 -0.355156 -2.01392 0
M  V30 8518 H 813.147 1.62004 -3.519 0
M  V30 8519 H 813.561 0.227794 -5.24005 0
M  V30 8520 H 815.035 1.93651 -5.16917 0
M  V30 8521 H 815.512 2.53918 -3.58361 0
M  V30 8522 H 816.118 0.963145 -4.14251 0
M  V30 8523 N 814.433 1.57553 0.0384317 0
M  V30 8524 C 815.658 1.93485 0.746872 0
M  V30 8525 C 816.083 0.834069 1.68597 0
M  V30 8526 O 815.441 -0.210902 1.80069 0
M  V30 8527 C 815.489 3.28463 1.4881 0
M  V30 8528 O 814.593 3.20051 2.60079 0
M  V30 8529 H 813.934 0.632675 0.201539 0
M  V30 8530 H 816.464 2.046 -0.00329815 0
M  V30 8531 H 816.474 3.63132 1.86009 0
M  V30 8532 H 815.149 4.08147 0.799297 0
M  V30 8533 H 813.726 2.96998 2.25492 0
M  V30 8534 N 815.911 -0.310526 1.54511 0
M  V30 8535 C 816.844 -1.40693 1.79668 0
M  V30 8536 C 817.822 -1.49159 0.64734 0
M  V30 8537 O 819.006 -1.66367 0.886239 0
M  V30 8538 C 816.133 -2.78685 1.92491 0
M  V30 8539 C 815.179 -2.87688 3.14861 0
M  V30 8540 S 816.012 -2.50759 4.7316 0
M  V30 8541 C 817.168 -3.90797 4.88906 0
M  V30 8542 H 817.401 -1.19142 2.72383 0
M  V30 8543 H 814.934 -0.508103 1.458 0
M  V30 8544 H 816.892 -3.58168 2.00563 0
M  V30 8545 H 815.553 -2.9751 1.00731 0
M  V30 8546 H 814.746 -3.8888 3.20607 0
M  V30 8547 H 814.348 -2.16189 3.05186 0
M  V30 8548 H 816.64 -4.85693 4.72344 0
M  V30 8549 H 817.583 -3.90027 5.91003 0
M  V30 8550 H 817.991 -3.80357 4.1712 0
M  V30 8551 N 817.389 -1.46805 -0.573248 0
M  V30 8552 C 818.637 -1.52302 -1.32847 0
M  V30 8553 C 818.958 -0.180159 -1.94166 0
M  V30 8554 O 818.228 0.794291 -1.79075 0
M  V30 8555 H 816.808 -0.56097 -0.493276 0
M  V30 8556 H 819.47 -1.82998 -0.670642 0
M  V30 8557 H 818.566 -2.28089 -2.13031 0
M  V30 8558 N 818.867 0.818669 -1.34668 0
M  V30 8559 C 820.115 1.57201 -1.27013 0
M  V30 8560 C 820.436 1.94354 0.158599 0
M  V30 8561 O 819.706 1.62626 1.09223 0
M  V30 8562 H 818.286 0.582919 -0.467135 0
M  V30 8563 H 820.948 0.977234 -1.6863 0
M  V30 8564 H 820.044 2.49291 -1.87778 0
M  V30 8565 N 820.346 1.18468 1.03938 0
M  V30 8566 C 821.574 1.00576 1.80809 0
M  V30 8567 C 821.989 -0.445786 1.83462 0
M  V30 8568 O 821.346 -1.30964 1.27101 0
M  V30 8569 C 821.397 1.55491 3.26351 0
M  V30 8570 O 821.118 2.94963 3.23926 0
M  V30 8571 C 822.619 1.42236 4.19862 0
M  V30 8572 H 819.839 0.35508 0.56935 0
M  V30 8573 H 822.383 1.57046 1.30984 0
M  V30 8574 H 820.538 1.03195 3.73403 0
M  V30 8575 H 820.952 3.20598 4.15111 0
M  V30 8576 H 822.426 1.85455 5.19914 0
M  V30 8577 H 822.903 0.371267 4.37628 0
M  V30 8578 H 823.509 1.9361 3.78675 0
M  V30 8579 N 821.824 -1.22873 0.986916 0
M  V30 8580 C 822.756 -2.23889 0.490537 0
M  V30 8581 C 823.769 -1.57523 -0.411144 0
M  V30 8582 O 824.958 -1.7721 -0.214236 0
M  V30 8583 C 822.058 -3.37488 -0.30902 0
M  V30 8584 C 821.231 -4.33438 0.587354 0
M  V30 8585 C 820.29 -5.25958 -0.159467 0
M  V30 8586 O 819.316 -5.67394 0.453115 0
M  V30 8587 N 820.518 -5.62265 -1.44355 0
M  V30 8588 H 823.283 -2.67109 1.35914 0
M  V30 8589 H 820.844 -1.37111 0.860937 0
M  V30 8590 H 822.836 -3.96365 -0.817139 0
M  V30 8591 H 821.406 -2.934 -1.07868 0
M  V30 8592 H 820.626 -3.72969 1.27622 0
M  V30 8593 H 821.914 -4.94495 1.19801 0
M  V30 8594 H 821.312 -5.30562 -1.96266 0
M  V30 8595 H 819.869 -6.23585 -1.89698 0
M  V30 8596 N 823.302 -0.75937 -1.38099 0
M  V30 8597 C 824.234 -0.0956547 -2.29 0
M  V30 8598 C 825.247 0.677561 -1.4803 0
M  V30 8599 O 826.436 0.517696 -1.70828 0
M  V30 8600 C 823.536 0.88844 -3.27047 0
M  V30 8601 C 822.709 0.171652 -4.37063 0
M  V30 8602 C 821.768 1.06733 -5.15262 0
M  V30 8603 O 820.794 0.535698 -5.66674 0
M  V30 8604 N 821.996 2.39486 -5.28797 0
M  V30 8605 H 824.761 -0.876354 -2.86601 0
M  V30 8606 H 822.322 -0.61065 -1.49942 0
M  V30 8607 H 824.314 1.49079 -3.76241 0
M  V30 8608 H 822.884 1.57018 -2.70304 0
M  V30 8609 H 822.104 -0.611473 -3.89429 0
M  V30 8610 H 823.392 -0.324121 -5.07767 0
M  V30 8611 H 822.79 2.85127 -4.88589 0
M  V30 8612 H 821.347 2.94758 -5.81344 0
M  V30 8613 N 824.78 1.49157 -0.508906 0
M  V30 8614 C 825.712 2.272 0.302115 0
M  V30 8615 C 826.725 1.3407 0.923529 0
M  V30 8616 O 827.914 1.5929 0.805532 0
M  V30 8617 C 825.014 3.06736 1.44105 0
M  V30 8618 C 824.187 4.27497 0.925477 0
M  V30 8619 C 823.246 4.89014 1.94297 0
M  V30 8620 O 822.272 5.48851 1.50834 0
M  V30 8621 N 823.474 4.7937 3.2739 0
M  V30 8622 H 826.239 2.97443 -0.367115 0
M  V30 8623 H 823.8 1.58248 -0.341933 0
M  V30 8624 H 825.792 3.44763 2.11944 0
M  V30 8625 H 824.362 2.3905 2.0143 0
M  V30 8626 H 823.582 3.94135 0.0717301 0
M  V30 8627 H 824.87 5.05714 0.55955 0
M  V30 8628 H 824.268 4.31869 3.65384 0
M  V30 8629 H 822.825 5.21559 3.90922 0
M  V30 8630 N 826.258 0.243083 1.55714 0
M  V30 8631 C 827.505 -0.38272 1.9885 0
M  V30 8632 C 827.833 -1.58225 1.13115 0
M  V30 8633 O 827.088 -1.94861 0.181067 0
M  V30 8634 C 827.387 -0.839621 3.47398 0
M  V30 8635 C 827.053 0.251737 4.50197 0
M  V30 8636 C 825.715 0.551487 4.78029 0
M  V30 8637 C 828.067 0.988728 5.11736 0
M  V30 8638 C 825.395 1.59237 5.64677 0
M  V30 8639 C 827.747 2.0191 5.99512 0
M  V30 8640 C 826.411 2.32554 6.2568 0
M  V30 8641 H 825.681 -0.140047 0.727645 0
M  V30 8642 H 828.328 0.35011 1.88272 0
M  V30 8643 H 826.633 -1.65159 3.55288 0
M  V30 8644 H 828.33 -1.33404 3.78159 0
M  V30 8645 H 824.92 0.00796741 4.28599 0
M  V30 8646 H 829.104 0.7704 4.90284 0
M  V30 8647 H 824.36 1.83517 5.83208 0
M  V30 8648 H 828.534 2.59511 6.46241 0
M  V30 8649 H 826.161 3.13349 6.92616 0
M  V30 8650 N 827.736 -1.57571 -0.0300757 0
M  V30 8651 C 828.982 -1.89506 -0.722159 0
M  V30 8652 C 829.315 -0.840699 -1.7506 0
M  V30 8653 O 828.59 0.144358 -1.93964 0
M  V30 8654 C 828.873 -3.32081 -1.39262 0
M  V30 8655 C 828.726 -4.48211 -0.377768 0
M  V30 8656 C 830.045 -3.73557 -2.32687 0
M  V30 8657 H 827.164 -0.689213 -0.261064 0
M  V30 8658 H 829.806 -1.89994 0.0150388 0
M  V30 8659 H 827.956 -3.31796 -2.02098 0
M  V30 8660 H 829.628 -4.6063 0.248591 0
M  V30 8661 H 827.871 -4.3274 0.303045 0
M  V30 8662 H 828.542 -5.44854 -0.885347 0
M  V30 8663 H 831.018 -3.75202 -1.79896 0
M  V30 8664 H 829.894 -4.74125 -2.7658 0
M  V30 8665 H 830.155 -3.05759 -3.19317 0
M  V30 8666 N 829.214 0.302327 -1.54673 0
M  V30 8667 C 830.124 1.39542 -1.88587 0
M  V30 8668 C 831.14 1.55543 -0.779895 0
M  V30 8669 O 832.316 1.70233 -1.07623 0
M  V30 8670 C 829.381 2.7394 -2.12504 0
M  V30 8671 C 828.442 2.66935 -3.3622 0
M  V30 8672 C 827.675 3.94923 -3.58987 0
M  V30 8673 O 827.898 4.94218 -2.84789 0
M  V30 8674 O 826.832 3.96896 -4.52501 0
M  V30 8675 H 830.658 1.13784 -2.81579 0
M  V30 8676 H 828.243 0.49827 -1.40846 0
M  V30 8677 H 830.125 3.5346 -2.29443 0
M  V30 8678 H 828.8 2.99544 -1.22698 0
M  V30 8679 H 827.707 1.85892 -3.24646 0
M  V30 8680 H 829.04 2.46283 -4.26152 0
M  V30 8681 N 830.692 1.47107 0.565454 0
M  V30 8682 C 831.94 1.53005 1.32038 0
M  V30 8683 C 832.261 0.190453 1.94068 0
M  V30 8684 O 831.531 -0.784783 1.79494 0
M  V30 8685 H 830.111 0.563578 0.490294 0
M  V30 8686 H 832.773 1.83351 0.660928 0
M  V30 8687 H 831.869 2.29215 2.11818 0
M  V30 8688 N 832.17 -0.811516 1.35101 0
M  V30 8689 C 833.416 -1.57068 1.28287 0
M  V30 8690 C 833.749 -1.93667 -0.143808 0
M  V30 8691 O 833.024 -1.60953 -1.09199 0
M  V30 8692 C 833.307 -2.86259 2.18466 0
M  V30 8693 C 833.16 -2.56168 3.69727 0
M  V30 8694 C 834.479 -3.87924 2.07852 0
M  V30 8695 H 831.598 -0.569869 0.467353 0
M  V30 8696 H 834.24 -0.934023 1.65457 0
M  V30 8697 H 832.39 -3.4059 1.86898 0
M  V30 8698 H 834.062 -2.08059 4.11715 0
M  V30 8699 H 832.305 -1.89436 3.90252 0
M  V30 8700 H 832.976 -3.48344 4.28206 0
M  V30 8701 H 835.452 -3.4298 2.35593 0
M  V30 8702 H 834.328 -4.76106 2.73157 0
M  V30 8703 H 834.589 -4.2923 1.05896 0
M  V30 8704 N 833.648 -1.19017 -1.03309 0
M  V30 8705 C 835.064 -0.941483 -1.28873 0
M  V30 8706 C 835.264 0.388587 -1.97718 0
M  V30 8707 O 834.32 1.12111 -2.26246 0
M  V30 8708 C 835.633 -2.11249 -2.13996 0
M  V30 8709 C 837.181 -2.15164 -2.27318 0
M  V30 8710 C 837.656 -3.31704 -3.15811 0
M  V30 8711 N 839.147 -3.31613 -3.23399 0
M  V30 8712 C 839.882 -4.18431 -3.9205 0
M  V30 8713 N 839.378 -5.15397 -4.62966 0
M  V30 8714 N 841.171 -4.06321 -3.88406 0
M  V30 8715 H 833.322 -2.04599 -0.570343 0
M  V30 8716 H 835.585 -0.894406 -0.314232 0
M  V30 8717 H 835.291 -3.07482 -1.70727 0
M  V30 8718 H 835.165 -2.07955 -3.14697 0
M  V30 8719 H 837.552 -1.19504 -2.6982 0
M  V30 8720 H 837.633 -2.22513 -1.26182 0
M  V30 8721 H 837.277 -4.2764 -2.74019 0
M  V30 8722 H 837.207 -3.21592 -4.16997 0
M  V30 8723 H 839.698 -2.6142 -2.72888 0
M  V30 8724 H 840.011 -5.78 -5.12968 0
M  V30 8725 H 838.356 -5.19349 -4.61846 0
M  V30 8726 H 841.547 -3.29849 -3.3214 0
M  V30 8727 H 841.72 -4.74196 -4.41635 0
M  V30 8728 N 835.127 1.22348 -0.993418 0
M  V30 8729 C 836.06 2.22898 -0.489073 0
M  V30 8730 C 837.038 1.56222 0.450927 0
M  V30 8731 O 838.222 1.84705 0.376351 0
M  V30 8732 C 835.349 3.37448 0.290946 0
M  V30 8733 C 834.395 4.22328 -0.595123 0
M  V30 8734 S 835.228 4.94677 -2.05072 0
M  V30 8735 C 836.384 6.12667 -1.28021 0
M  V30 8736 H 836.617 2.65333 -1.34111 0
M  V30 8737 H 834.15 1.32032 -0.800429 0
M  V30 8738 H 836.108 4.03867 0.734944 0
M  V30 8739 H 834.769 2.93519 1.11826 0
M  V30 8740 H 833.962 5.04 0.00507413 0
M  V30 8741 H 833.564 3.61043 -0.975906 0
M  V30 8742 H 835.856 6.75279 -0.548129 0
M  V30 8743 H 836.799 6.771 -2.07223 0
M  V30 8744 H 837.207 5.58898 -0.793272 0
M  V30 8745 N 836.605 0.766683 1.37694 0
M  V30 8746 C 837.515 0.150158 2.34119 0
M  V30 8747 C 838.531 -0.685513 1.59927 0
M  V30 8748 O 839.707 -0.606616 1.92047 0
M  V30 8749 C 836.772 -0.722562 3.39087 0
M  V30 8750 C 835.833 0.128983 4.29106 0
M  V30 8751 C 835.066 -0.702178 5.29061 0
M  V30 8752 O 835.289 -1.93954 5.36412 0
M  V30 8753 O 834.223 -0.114056 6.01792 0
M  V30 8754 H 838.049 0.946829 2.88563 0
M  V30 8755 H 835.634 0.527765 1.39768 0
M  V30 8756 H 837.516 -1.22095 4.03325 0
M  V30 8757 H 836.191 -1.49751 2.86978 0
M  V30 8758 H 835.098 0.673612 3.67985 0
M  V30 8759 H 836.431 0.866892 4.84506 0
M  V30 8760 N 838.083 -1.48885 0.516809 0
M  V30 8761 C 838.993 -2.33185 -0.257293 0
M  V30 8762 C 840.009 -1.4565 -0.951952 0
M  V30 8763 O 841.185 -1.78651 -0.929834 0
M  V30 8764 C 838.25 -3.21465 -1.29851 0
M  V30 8765 C 837.311 -4.24863 -0.615608 0
M  V30 8766 C 836.544 -5.08925 -1.60722 0
M  V30 8767 O 836.767 -4.9475 -2.83863 0
M  V30 8768 O 835.701 -5.90737 -1.15384 0
M  V30 8769 H 839.527 -3.00596 0.433131 0
M  V30 8770 H 837.112 -1.46792 0.277908 0
M  V30 8771 H 838.994 -3.76108 -1.90055 0
M  V30 8772 H 837.669 -2.5673 -1.97158 0
M  V30 8773 H 836.576 -3.74091 0.0265829 0
M  V30 8774 H 837.909 -4.92198 0.0152871 0
M  V30 8775 N 839.561 -0.251338 -1.55583 0
M  V30 8776 C 840.81 0.372681 -1.98227 0
M  V30 8777 C 841.123 1.58743 -1.1428 0
M  V30 8778 O 842.329 2.28289 -1.46957 0
M  V30 8779 C 840.785 0.714439 -3.52738 0
M  V30 8780 C 840.393 -0.479168 -4.4543 0
M  V30 8781 C 842.137 1.3024 -4.04027 0
M  V30 8782 C 840.044 -0.113318 -5.91291 0
M  V30 8783 H 838.974 0.14302 -0.740312 0
M  V30 8784 H 841.625 -0.352253 -1.80087 0
M  V30 8785 H 840.007 1.49762 -3.66589 0
M  V30 8786 H 841.181 -1.25644 -4.4334 0
M  V30 8787 H 839.496 -0.982359 -4.04646 0
M  V30 8788 H 842.093 1.58953 -5.10527 0
M  V30 8789 H 842.436 2.22837 -3.51638 0
M  V30 8790 H 842.969 0.582024 -3.93519 0
M  V30 8791 H 839.708 -1.00654 -6.47726 0
M  V30 8792 H 839.228 0.627666 -5.96507 0
M  V30 8793 H 840.907 0.30293 -6.4629 0
M  V30 8794 N 841.039 1.57585 0.0217189 0
M  V30 8795 C 842.285 1.89887 0.712099 0
M  V30 8796 C 842.618 0.849971 1.74611 0
M  V30 8797 O 841.893 -0.13407 1.94037 0
M  V30 8798 C 842.176 3.32815 1.37499 0
M  V30 8799 C 842.029 4.48405 0.353993 0
M  V30 8800 C 843.348 3.74786 2.30703 0
M  V30 8801 H 840.467 0.690588 0.257405 0
M  V30 8802 H 843.109 1.89983 -0.0251145 0
M  V30 8803 H 841.259 3.32863 2.00335 0
M  V30 8804 H 842.931 4.60491 -0.273015 0
M  V30 8805 H 841.174 4.32573 -0.32599 0
M  V30 8806 H 841.845 5.45316 0.85644 0
M  V30 8807 H 844.321 3.76151 1.77904 0
M  V30 8808 H 843.197 4.75585 2.74061 0
M  V30 8809 H 843.458 3.07449 3.17691 0
M  V30 8810 N 842.517 -0.29412 1.54831 0
M  V30 8811 C 843.427 -1.3854 1.89325 0
M  V30 8812 C 844.443 -1.55127 0.788133 0
M  V30 8813 O 845.619 -1.6966 1.08524 0
M  V30 8814 C 842.684 -2.72809 2.13954 0
M  V30 8815 C 841.745 -2.65148 3.37631 0
M  V30 8816 C 840.978 -3.93014 3.61076 0
M  V30 8817 O 841.201 -4.927 2.87406 0
M  V30 8818 O 840.135 -3.94491 4.54599 0
M  V30 8819 H 843.961 -1.12289 2.82179 0
M  V30 8820 H 841.546 -0.490793 1.41108 0
M  V30 8821 H 843.428 -3.52238 2.31315 0
M  V30 8822 H 842.103 -2.9889 1.24285 0
M  V30 8823 H 841.01 -1.84168 3.25627 0
M  V30 8824 H 842.343 -2.4402 4.27452 0
M  V30 8825 N 843.995 -1.47404 -0.557645 0
M  V30 8826 C 845.243 -1.53703 -1.31224 0
M  V30 8827 C 845.564 -0.200742 -1.93964 0
M  V30 8828 O 844.834 0.775253 -1.79907 0
M  V30 8829 H 843.414 -0.566171 -0.487299 0
M  V30 8830 H 846.076 -1.83699 -0.651195 0
M  V30 8831 H 845.172 -2.30335 -2.10599 0
M  V30 8832 N 845.473 0.80434 -1.35529 0
M  V30 8833 C 846.713 1.57489 -1.30295 0
M  V30 8834 C 847.077 1.91621 0.120528 0
M  V30 8835 O 848.278 2.67151 0.297265 0
M  V30 8836 C 846.549 2.82741 -2.18615 0
M  V30 8837 S 848.108 3.73125 -2.30918 0
M  V30 8838 H 844.926 0.539573 -0.463014 0
M  V30 8839 H 847.528 0.948601 -1.70944 0
M  V30 8840 H 846.232 2.55692 -3.21014 0
M  V30 8841 H 845.763 3.50353 -1.78931 0
M  V30 8842 H 847.778 4.73122 -1.49566 0
M  V30 8843 N 846.951 1.19563 1.02676 0
M  V30 8844 C 848.179 1.02488 1.79732 0
M  V30 8845 C 848.594 -0.426302 1.83924 0
M  V30 8846 O 847.951 -1.29609 1.28483 0
M  V30 8847 C 848.002 1.58944 3.24683 0
M  V30 8848 O 847.723 2.98382 3.2078 0
M  V30 8849 C 849.224 1.46681 4.1833 0
M  V30 8850 H 846.444 0.361098 0.565552 0
M  V30 8851 H 848.988 1.58426 1.29311 0
M  V30 8852 H 847.143 1.0715 3.72287 0
M  V30 8853 H 847.557 3.24983 4.11687 0
M  V30 8854 H 849.031 1.90959 5.17918 0
M  V30 8855 H 849.508 0.417663 4.3721 0
M  V30 8856 H 850.114 1.97616 3.76601 0
M  V30 8857 N 848.429 -1.21819 0.999893 0
M  V30 8858 C 849.677 -1.90375 0.678351 0
M  V30 8859 C 849.998 -1.78155 -0.792824 0
M  V30 8860 O 849.268 -1.17319 -1.56885 0
M  V30 8861 H 847.848 -0.704661 0.247915 0
M  V30 8862 H 850.51 -1.48021 1.2679 0
M  V30 8863 H 849.606 -2.97385 0.947023 0
M  V30 8864 N 849.908 -0.773975 -1.37286 0
M  V30 8865 C 850.871 -0.167974 -2.28584 0
M  V30 8866 C 851.871 0.625662 -1.48129 0
M  V30 8867 O 853.061 0.448924 -1.68316 0
M  V30 8868 C 850.193 0.769364 -3.32105 0
M  V30 8869 H 851.386 -0.972806 -2.83684 0
M  V30 8870 H 848.939 -0.542335 -1.46589 0
M  V30 8871 H 849.674 1.59912 -2.82132 0
M  V30 8872 H 849.459 0.202419 -3.91577 0
M  V30 8873 H 850.949 1.18872 -4.00324 0
M  V30 8874 N 851.386 1.48609 -0.524698 0
M  V30 8875 C 852.316 2.32366 0.229837 0
M  V30 8876 C 853.297 1.41759 0.940129 0
M  V30 8877 O 854.482 1.7065 0.926936 0
M  V30 8878 C 851.612 3.22835 1.28043 0
M  V30 8879 C 850.566 4.22424 0.688603 0
M  V30 8880 C 849.892 5.0199 1.84146 0
M  V30 8881 C 851.192 5.21217 -0.336176 0
M  V30 8882 H 852.886 2.95698 -0.469339 0
M  V30 8883 H 850.432 1.42197 -0.227156 0
M  V30 8884 H 852.385 3.80253 1.8162 0
M  V30 8885 H 851.109 2.57492 2.00912 0
M  V30 8886 H 849.768 3.66185 0.174402 0
M  V30 8887 H 849.416 4.33076 2.5584 0
M  V30 8888 H 849.116 5.69392 1.45142 0
M  V30 8889 H 850.64 5.62259 2.38111 0
M  V30 8890 H 852.054 5.7319 0.112307 0
M  V30 8891 H 850.451 5.96642 -0.643324 0
M  V30 8892 H 851.521 4.68676 -1.24381 0
M  V30 8893 N 852.864 0.259585 1.55447 0
M  V30 8894 C 853.814 -0.648769 2.18575 0
M  V30 8895 C 854.798 -1.1299 1.14552 0
M  V30 8896 O 855.99 -1.07756 1.4042 0
M  V30 8897 C 853.119 -1.83963 2.89849 0
M  V30 8898 C 852.205 -1.37641 4.01143 0
M  V30 8899 N 852.596 -0.628269 5.01883 0
M  V30 8900 C 850.894 -1.66066 4.1393 0
M  V30 8901 C 851.595 -0.386746 5.80413 0
M  V30 8902 N 850.571 -0.954665 5.35151 0
M  V30 8903 H 854.373 -0.0691616 2.93819 0
M  V30 8904 H 851.887 0.0624525 1.6228 0
M  V30 8905 H 853.884 -2.50151 3.33512 0
M  V30 8906 H 852.544 -2.42334 2.16112 0
M  V30 8907 H 853.555 -0.277123 5.17158 0
M  V30 8908 H 850.232 -2.25484 3.51373 0
M  V30 8909 H 851.622 0.211382 6.71567 0
M  V30 8910 N 854.342 -1.57594 -0.0133615 0
M  V30 8911 C 855.591 -1.8916 -0.700103 0
M  V30 8912 C 855.904 -0.860147 -1.75673 0
M  V30 8913 O 857.11 -1.06556 -2.49716 0
M  V30 8914 C 855.566 -3.35742 -1.29635 0
M  V30 8915 C 855.174 -4.47154 -0.275249 0
M  V30 8916 C 856.918 -3.76436 -1.96205 0
M  V30 8917 C 854.825 -5.84805 -0.880726 0
M  V30 8918 H 853.755 -0.705805 -0.265247 0
M  V30 8919 H 856.406 -1.83445 0.044993 0
M  V30 8920 H 854.788 -3.36252 -2.09167 0
M  V30 8921 H 855.962 -4.58139 0.494506 0
M  V30 8922 H 854.277 -4.15394 0.289256 0
M  V30 8923 H 856.874 -4.76606 -2.42386 0
M  V30 8924 H 857.217 -3.09249 -2.78695 0
M  V30 8925 H 857.75 -3.78168 -1.23426 0
M  V30 8926 H 854.489 -6.55431 -0.0949013 0
M  V30 8927 H 854.009 -5.7751 -1.61995 0
M  V30 8928 H 855.688 -6.32038 -1.38338 0
M  V30 8929 N 855.82 0.285905 -1.54985 0
M  V30 8930 C 856.75 1.35752 -1.89983 0
M  V30 8931 C 857.731 1.52163 -0.760295 0
M  V30 8932 O 858.916 1.65421 -1.01733 0
M  V30 8933 C 856.046 2.71925 -2.16042 0
M  V30 8934 C 855 2.70261 -3.31878 0
M  V30 8935 C 854.326 4.09864 -3.43388 0
M  V30 8936 C 855.626 2.30667 -4.68604 0
M  V30 8937 H 857.32 1.06709 -2.79738 0
M  V30 8938 H 854.866 0.511884 -1.34595 0
M  V30 8939 H 856.819 3.46992 -2.39113 0
M  V30 8940 H 855.543 3.02523 -1.23074 0
M  V30 8941 H 854.202 1.97651 -3.08755 0
M  V30 8942 H 853.85 4.37664 -2.47909 0
M  V30 8943 H 853.55 4.09648 -4.21262 0
M  V30 8944 H 855.074 4.86689 -3.68736 0
M  V30 8945 H 856.488 2.95453 -4.91305 0
M  V30 8946 H 854.885 2.41637 -5.49301 0
M  V30 8947 H 855.955 1.25793 -4.68299 0
M  V30 8948 N 857.298 1.47698 0.54982 0
M  V30 8949 C 858.261 1.60282 1.63837 0
M  V30 8950 C 859.261 0.477394 1.5355 0
M  V30 8951 O 860.451 0.742665 1.57576 0
M  V30 8952 C 857.583 1.55431 3.03404 0
M  V30 8953 H 858.776 2.57325 1.54026 0
M  V30 8954 H 856.329 1.35999 0.770329 0
M  V30 8955 H 857.064 0.597912 3.1874 0
M  V30 8956 H 856.849 2.37116 3.12279 0
M  V30 8957 H 858.339 1.6739 3.82584 0
M  V30 8958 N 858.776 -0.797141 1.35954 0
M  V30 8959 C 860.192 -1.09408 1.16198 0
M  V30 8960 C 860.392 -2.01491 -0.0191682 0
M  V30 8961 O 859.448 -2.42977 -0.686902 0
M  V30 8962 C 860.761 -1.71597 2.46931 0
M  V30 8963 C 862.309 -1.83974 2.53224 0
M  V30 8964 C 862.784 -2.49579 3.84024 0
M  V30 8965 N 864.275 -2.57055 3.85327 0
M  V30 8966 C 865.01 -3.08608 4.83268 0
M  V30 8967 N 864.506 -3.60527 5.91601 0
M  V30 8968 N 866.299 -3.07249 4.70696 0
M  V30 8969 H 858.45 -0.185209 2.11591 0
M  V30 8970 H 860.713 -0.144768 0.936881 0
M  V30 8971 H 860.419 -1.11404 3.3359 0
M  V30 8972 H 860.293 -2.71193 2.62172 0
M  V30 8973 H 862.68 -2.43308 1.66988 0
M  V30 8974 H 862.761 -0.83207 2.41889 0
M  V30 8975 H 862.405 -1.90892 4.70662 0
M  V30 8976 H 862.335 -3.50902 3.92651 0
M  V30 8977 H 864.826 -2.20283 3.07057 0
M  V30 8978 H 865.139 -3.98192 6.62317 0
M  V30 8979 H 863.484 -3.587 5.95281 0
M  V30 8980 H 866.675 -2.65972 3.85197 0
M  V30 8981 H 866.848 -3.47119 5.47186 0
M  V30 8982 N 860.254 -1.20106 -1.0204 0
M  V30 8983 C 861.531 -0.918029 -1.72718 0
M  V30 8984 C 861.911 0.574163 -2.03142 0
M  V30 8985 O 861.259 1.53476 -1.69285 0
M  V30 8986 C 861.469 -1.78698 -2.9978 0
M  V30 8987 C 862.817 -2.02648 -3.7312 0
M  V30 8988 O 863.841 -1.75919 -3.09727 0
M  V30 8989 O 862.7 -2.47767 -4.87107 0
M  V30 8990 H 859.794 -0.342904 -0.752559 0
M  V30 8991 H 862.34 -1.30961 -1.07923 0
M  V30 8992 H 861.112 -2.79757 -2.7359 0
M  V30 8993 H 860.735 -1.39522 -3.72316 0
M  V30 8994 N 861.732 1.21287 -1.00634 0
M  V30 8995 C 862.978 1.90671 -0.690822 0
M  V30 8996 C 863.311 1.77996 0.776592 0
M  V30 8997 O 862.586 1.15748 1.5631 0
M  V30 8998 C 862.869 3.42426 -1.11428 0
M  V30 8999 C 862.722 3.64086 -2.64124 0
M  V30 9000 C 864.041 4.34851 -0.677686 0
M  V30 9001 H 861.16 0.692419 -0.252439 0
M  V30 9002 H 863.802 1.42893 -1.25226 0
M  V30 9003 H 861.952 3.83249 -0.636586 0
M  V30 9004 H 863.624 3.32582 -3.19667 0
M  V30 9005 H 861.867 3.07906 -3.05576 0
M  V30 9006 H 862.538 4.7042 -2.88806 0
M  V30 9007 H 865.014 4.01619 -1.0882 0
M  V30 9008 H 863.89 5.39675 -1.00213 0
M  V30 9009 H 864.151 4.4009 0.421125 0
M  V30 9010 N 863.21 0.781244 1.36873 0
M  V30 9011 C 864.16 0.147313 2.27524 0
M  V30 9012 C 865.144 -0.663928 1.46563 0
M  V30 9013 O 866.336 -0.525343 1.69024 0
M  V30 9014 C 863.465 -0.723511 3.35589 0
M  V30 9015 C 862.551 0.0960763 4.23991 0
M  V30 9016 N 862.942 1.14649 4.92635 0
M  V30 9017 C 861.24 -0.126397 4.45821 0
M  V30 9018 C 861.941 1.64474 5.57964 0
M  V30 9019 N 860.917 0.955316 5.3514 0
M  V30 9020 H 864.719 0.951406 2.78075 0
M  V30 9021 H 862.233 0.619913 1.50103 0
M  V30 9022 H 864.23 -1.19351 3.99451 0
M  V30 9023 H 862.89 -1.52624 2.86594 0
M  V30 9024 H 863.901 1.5288 4.94821 0
M  V30 9025 H 860.578 -0.900284 4.07678 0
M  V30 9026 H 861.968 2.52124 6.22803 0
M  V30 9027 N 864.689 -1.48329 0.532571 0
M  V30 9028 C 865.637 -2.31336 -0.242133 0
M  V30 9029 C 866.631 -1.41391 -0.933006 0
M  V30 9030 O 867.837 -1.58284 -0.857096 0
M  V30 9031 H 864.212 -0.745724 -0.0969536 0
M  V30 9032 H 866.183 -2.94555 0.477504 0
M  V30 9033 C 864.932 -3.23501 -1.27446 0
M  V30 9034 H 864.255 -3.92659 -0.752261 0
M  V30 9035 H 865.695 -3.84461 -1.78789 0
M  V30 9036 C 864.154 -2.45288 -2.30944 0
M  V30 9037 O 864.684 -2.17955 -3.37429 0
M  V30 9038 N 862.89 -2.06737 -2.04226 0
M  V30 9039 H 862.437 -2.29166 -1.17647 0
M  V30 9040 H 862.395 -1.54719 -2.73696 0
M  V30 9041 N 866.167 -0.267825 -1.55308 0
M  V30 9042 C 867.583 0.0865107 -1.59365 0
M  V30 9043 C 867.783 1.55205 -1.28505 0
M  V30 9044 O 866.839 2.29978 -1.04241 0
M  V30 9045 C 868.152 -0.28155 -2.99379 0
M  V30 9046 C 869.7 -0.227565 -3.12172 0
M  V30 9047 C 870.175 -0.569959 -4.5444 0
M  V30 9048 N 871.666 -0.521238 -4.60258 0
M  V30 9049 C 872.401 -0.759061 -5.68354 0
M  V30 9050 N 871.897 -1.06112 -6.84626 0
M  V30 9051 N 873.69 -0.688351 -5.57869 0
M  V30 9052 H 865.841 -1.22332 -1.73633 0
M  V30 9053 H 868.104 -0.493703 -0.809297 0
M  V30 9054 H 867.81 -1.3005 -3.26772 0
M  V30 9055 H 867.684 0.381192 -3.75269 0
M  V30 9056 H 870.071 0.782093 -2.84548 0
M  V30 9057 H 870.152 -0.924461 -2.38511 0
M  V30 9058 H 869.796 -1.57727 -4.82788 0
M  V30 9059 H 869.726 0.148646 -5.2639 0
M  V30 9060 H 872.217 -0.297359 -3.76728 0
M  V30 9061 H 872.53 -1.22945 -7.62958 0
M  V30 9062 H 870.875 -1.09881 -6.86259 0
M  V30 9063 H 874.066 -0.452268 -4.6591 0
M  V30 9064 H 874.239 -0.877081 -6.42037 0
M  V30 9065 N 867.645 1.57599 0.00500368 0
M  V30 9066 C 868.894 1.89528 0.690061 0
M  V30 9067 C 869.207 0.869451 1.75214 0
M  V30 9068 O 870.413 1.07879 2.49147 0
M  V30 9069 C 868.869 3.36425 1.27852 0
M  V30 9070 C 868.477 4.47293 0.251531 0
M  V30 9071 C 870.221 3.77471 1.94206 0
M  V30 9072 C 868.128 5.85264 0.8497 0
M  V30 9073 H 867.058 0.707201 0.2615 0
M  V30 9074 H 869.709 1.83418 -0.0547209 0
M  V30 9075 H 868.091 3.37356 2.07381 0
M  V30 9076 H 869.265 4.5787 -0.518796 0
M  V30 9077 H 867.58 4.15235 -0.311281 0
M  V30 9078 H 870.177 4.77884 2.39855 0
M  V30 9079 H 870.52 3.10722 2.77051 0
M  V30 9080 H 871.053 3.78817 1.21419 0
M  V30 9081 H 867.792 6.55472 0.0601408 0
M  V30 9082 H 867.312 5.78361 1.5893 0
M  V30 9083 H 868.991 6.32762 1.34984 0
M  V30 9084 N 869.123 -0.277682 1.55134 0
M  V30 9085 C 870.369 -1.0114 1.7578 0
M  V30 9086 C 870.702 -1.86109 0.554719 0
M  V30 9087 O 869.977 -1.89275 -0.447813 0
M  V30 9088 C 870.26 -1.89789 3.06027 0
M  V30 9089 C 870.113 -1.07844 4.3668 0
M  V30 9090 C 871.432 -2.88577 3.32282 0
M  V30 9091 H 868.551 -0.366277 0.639539 0
M  V30 9092 H 871.193 -0.284155 1.87863 0
M  V30 9093 H 869.343 -2.51796 2.95856 0
M  V30 9094 H 871.015 -0.479432 4.58802 0
M  V30 9095 H 869.258 -0.381764 4.32117 0
M  V30 9096 H 869.929 -1.73179 5.24131 0
M  V30 9097 H 872.405 -2.36702 3.42215 0
M  V30 9098 H 871.281 -3.47749 4.2469 0
M  V30 9099 H 871.542 -3.63458 2.51696 0
M  V30 9100 N 870.601 -1.47988 -0.541979 0
M  V30 9101 C 871.85 -1.5465 -1.29485 0
M  V30 9102 C 872.163 -0.220041 -1.94358 0
M  V30 9103 O 873.369 -0.164792 -2.70999 0
M  V30 9104 C 871.825 -2.72685 -2.34885 0
M  V30 9105 C 871.433 -4.11923 -1.76134 0
M  V30 9106 C 873.177 -2.88651 -3.11257 0
M  V30 9107 C 871.084 -5.21237 -2.79404 0
M  V30 9108 H 870.014 -0.575688 -0.486928 0
M  V30 9109 H 872.665 -1.74296 -0.573853 0
M  V30 9110 H 871.047 -2.46448 -3.09966 0
M  V30 9111 H 872.221 -4.48128 -1.07322 0
M  V30 9112 H 870.536 -4.00972 -1.12295 0
M  V30 9113 H 873.133 -3.67487 -3.88404 0
M  V30 9114 H 873.476 -1.97658 -3.66384 0
M  V30 9115 H 874.009 -3.14731 -2.43288 0
M  V30 9116 H 870.748 -6.14156 -2.29113 0
M  V30 9117 H 870.268 -4.89533 -3.4658 0
M  V30 9118 H 871.947 -5.48839 -3.42615 0
M  V30 9119 N 872.079 0.78992 -1.36375 0
M  V30 9120 C 873.495 1.0879 -1.16777 0
M  V30 9121 C 873.695 2.01498 0.00848236 0
M  V30 9122 O 872.751 2.43338 0.674007 0
M  V30 9123 C 874.064 1.70285 -2.47837 0
M  V30 9124 C 875.612 1.82629 -2.54196 0
M  V30 9125 C 876.087 2.47539 -3.85342 0
M  V30 9126 N 877.578 2.55008 -3.86685 0
M  V30 9127 C 878.313 3.06041 -4.84898 0
M  V30 9128 N 877.809 3.57385 -5.93505 0
M  V30 9129 N 879.602 3.04748 -4.72319 0
M  V30 9130 H 871.753 0.173985 -2.11686 0
M  V30 9131 H 874.016 0.139798 -0.937636 0
M  V30 9132 H 873.722 1.09633 -3.34176 0
M  V30 9133 H 873.596 2.69799 -2.63607 0
M  V30 9134 H 875.983 2.42419 -1.68276 0
M  V30 9135 H 876.064 0.81923 -2.42327 0
M  V30 9136 H 875.708 1.88393 -4.71668 0
M  V30 9137 H 875.638 3.48815 -3.94507 0
M  V30 9138 H 878.129 2.18651 -3.08221 0
M  V30 9139 H 878.442 3.94674 -6.64419 0
M  V30 9140 H 876.787 3.55538 -5.97175 0
M  V30 9141 H 879.978 2.63925 -3.86602 0
M  V30 9142 H 880.151 3.44212 -5.49019 0
M  V30 9143 N 873.557 1.20646 1.01402 0
M  V30 9144 C 874.805 1.01618 1.74695 0
M  V30 9145 C 875.126 -0.452438 1.89679 0
M  V30 9146 O 874.396 -1.32693 1.44116 0
M  V30 9147 H 872.976 0.373013 0.647202 0
M  V30 9148 H 875.638 1.518 1.22241 0
M  V30 9149 H 874.734 1.47666 2.74957 0
M  V30 9150 N 875.035 -1.20752 1.01276 0
M  V30 9151 C 875.965 -2.25658 0.600064 0
M  V30 9152 C 876.946 -1.65733 -0.38298 0
M  V30 9153 O 878.131 -1.92324 -0.269256 0
M  V30 9154 C 875.261 -3.47237 -0.0663197 0
M  V30 9155 C 874.215 -4.1973 0.83731 0
M  V30 9156 C 873.541 -5.34687 0.0369102 0
M  V30 9157 C 874.841 -4.76286 2.14357 0
M  V30 9158 H 876.535 -2.60432 1.477 0
M  V30 9159 H 874.081 -1.25187 0.711634 0
M  V30 9160 H 876.034 -4.19803 -0.366563 0
M  V30 9161 H 874.758 -3.11615 -0.977944 0
M  V30 9162 H 873.417 -3.49024 1.1215 0
M  V30 9163 H 873.065 -4.95309 -0.876244 0
M  V30 9164 H 872.765 -5.84119 0.63865 0
M  V30 9165 H 874.289 -6.10059 -0.256968 0
M  V30 9166 H 875.703 -5.40691 1.90595 0
M  V30 9167 H 874.1 -5.36139 2.69583 0
M  V30 9168 H 875.17 -3.9524 2.80916 0
M  V30 9169 N 876.513 -0.788492 -1.36457 0
M  V30 9170 C 877.461 -0.174192 -2.31947 0
M  V30 9171 C 878.455 0.665974 -1.5576 0
M  V30 9172 O 879.661 0.561161 -1.71029 0
M  V30 9173 H 876.036 -0.0375538 -0.751062 0
M  V30 9174 H 878.007 -0.995011 -2.81322 0
M  V30 9175 C 876.756 0.677276 -3.4104 0
M  V30 9176 H 876.079 0.0401418 -3.9978 0
M  V30 9177 H 877.519 1.07379 -4.10178 0
M  V30 9178 C 875.978 1.83512 -2.82533 0
M  V30 9179 O 876.508 2.93164 -2.74623 0
M  V30 9180 N 874.714 1.64095 -2.39836 0
M  V30 9181 H 874.261 0.749046 -2.46469 0
M  V30 9182 H 874.219 2.41726 -2.01037 0
M  V30 9183 N 877.991 1.48044 -0.54043 0
M  V30 9184 C 879.219 2.06895 -0.0145153 0
M  V30 9185 C 879.634 1.39552 1.27164 0
M  V30 9186 O 878.991 0.486454 1.75897 0
M  V30 9187 C 879.042 3.60934 0.202278 0
M  V30 9188 O 878.763 4.25749 -1.03293 0
M  V30 9189 C 880.264 4.36607 0.767387 0
M  V30 9190 H 877.484 0.66991 -0.0382368 0
M  V30 9191 H 880.028 1.90288 -0.749057 0
M  V30 9192 H 878.183 3.77111 0.886897 0
M  V30 9193 H 878.597 5.18048 -0.820167 0
M  V30 9194 H 880.071 5.45126 0.86845 0
M  V30 9195 H 880.548 4.01745 1.77477 0
M  V30 9196 H 881.154 4.25133 0.119002 0
M  V30 9197 N 879.47 0.276058 1.55163 0
M  V30 9198 C 880.719 -0.341098 1.98795 0
M  V30 9199 C 881.032 -1.56905 1.16791 0
M  V30 9200 O 882.238 -2.25922 1.50571 0
M  V30 9201 C 880.694 -0.658231 3.5383 0
M  V30 9202 C 880.302 0.549972 4.44611 0
M  V30 9203 C 882.046 -1.23796 4.06048 0
M  V30 9204 C 879.953 0.207373 5.91036 0
M  V30 9205 H 878.883 -0.131224 0.742493 0
M  V30 9206 H 881.534 0.380858 1.79504 0
M  V30 9207 H 879.916 -1.43911 3.68925 0
M  V30 9208 H 881.09 1.32681 4.41285 0
M  V30 9209 H 879.405 1.04661 4.03032 0
M  V30 9210 H 882.002 -1.50811 5.12991 0
M  V30 9211 H 882.345 -2.17214 3.55139 0
M  V30 9212 H 882.878 -0.519345 3.94395 0
M  V30 9213 H 879.617 1.10946 6.46043 0
M  V30 9214 H 879.137 -0.532687 5.9743 0
M  V30 9215 H 880.816 -0.200072 6.46691 0
M  V30 9216 N 880.948 -1.576 0.00335426 0
M  V30 9217 C 882.359 -1.7875 -0.539008 0
M  V30 9218 C 882.71 -0.911097 -1.73763 0
M  V30 9219 O 881.835 -0.114476 -2.16097 0
M  V30 9220 C 882.43 -3.24177 -0.984611 0
M  V30 9221 C 880.989 -3.46412 -1.47226 0
M  V30 9222 C 880.136 -2.74024 -0.425004 0
M  V30 9223 H 883.087 -1.57032 0.229511 0
M  V30 9224 H 883.108 -3.32474 -1.85044 0
M  V30 9225 H 882.62 -3.87938 -0.112035 0
M  V30 9226 H 880.721 -2.8787 -2.36562 0
M  V30 9227 H 880.834 -4.55098 -1.49741 0
M  V30 9228 H 879.198 -2.38741 -0.887394 0
M  V30 9229 H 879.981 -3.40486 0.438662 0
M  V30 9230 N 882.426 0.269451 -1.5528 0
M  V30 9231 C 883.356 1.33729 -1.91413 0
M  V30 9232 C 884.337 1.51348 -0.776391 0
M  V30 9233 O 885.522 1.64332 -1.03482 0
M  V30 9234 C 882.652 2.69618 -2.18914 0
M  V30 9235 C 881.606 2.66725 -3.34726 0
M  V30 9236 C 880.932 4.06199 -3.47716 0
M  V30 9237 C 882.232 2.25684 -4.71025 0
M  V30 9238 H 883.926 1.03736 -2.80854 0
M  V30 9239 H 881.472 0.497579 -1.3513 0
M  V30 9240 H 883.425 3.44436 -2.42779 0
M  V30 9241 H 882.149 3.01201 -1.26275 0
M  V30 9242 H 880.808 1.94365 -3.10834 0
M  V30 9243 H 880.456 4.3501 -2.52537 0
M  V30 9244 H 880.156 4.05157 -4.25583 0
M  V30 9245 H 881.68 4.8275 -3.73877 0
M  V30 9246 H 883.094 2.90225 -4.94411 0
M  V30 9247 H 881.491 2.35797 -5.51833 0
M  V30 9248 H 882.561 1.20819 -4.69607 0
M  V30 9249 N 883.904 1.48273 0.534124 0
M  V30 9250 C 885.151 1.56079 1.29017 0
M  V30 9251 C 885.479 0.232912 1.931 0
M  V30 9252 O 884.734 -0.77642 1.79639 0
M  V30 9253 C 885.033 2.64468 2.40398 0
M  V30 9254 C 884.699 4.07034 1.93995 0
M  V30 9255 C 883.361 4.45838 1.81058 0
M  V30 9256 C 885.713 4.96395 1.58877 0
M  V30 9257 C 883.041 5.71812 1.31331 0
M  V30 9258 C 885.393 6.22854 1.10614 0
M  V30 9259 C 884.057 6.60518 0.962895 0
M  V30 9260 H 883.327 0.571135 0.472108 0
M  V30 9261 H 885.974 1.81973 0.5965 0
M  V30 9262 H 884.279 2.32419 3.15418 0
M  V30 9263 H 885.976 2.67725 2.98537 0
M  V30 9264 H 882.566 3.76387 2.05015 0
M  V30 9265 H 886.75 4.67096 1.67734 0
M  V30 9266 H 882.006 5.99722 1.18924 0
M  V30 9267 H 886.18 6.91495 0.825095 0
M  V30 9268 H 883.807 7.58019 0.575369 0
M  V30 9269 N 885.382 -0.782676 1.36792 0
M  V30 9270 C 886.628 -1.54311 1.3159 0
M  V30 9271 C 886.961 -1.93928 -0.102696 0
M  V30 9272 O 886.236 -1.63233 -1.05761 0
M  V30 9273 C 886.519 -2.81561 2.24489 0
M  V30 9274 C 886.372 -2.48268 3.75078 0
M  V30 9275 C 887.691 -3.83428 2.16034 0
M  V30 9276 H 884.81 -0.559828 0.479335 0
M  V30 9277 H 887.452 -0.898717 1.67401 0
M  V30 9278 H 885.602 -3.36549 1.9408 0
M  V30 9279 H 887.274 -1.99279 4.16036 0
M  V30 9280 H 885.517 -1.81116 3.94182 0
M  V30 9281 H 886.188 -3.39183 4.35499 0
M  V30 9282 H 888.664 -3.37905 2.42815 0
M  V30 9283 H 887.54 -4.70204 2.83194 0
M  V30 9284 H 887.801 -4.26887 1.14976 0
M  V30 9285 N 886.86 -1.21182 -1.00761 0
M  V30 9286 C 887.792 -0.926523 -2.09638 0
M  V30 9287 C 888.805 0.0892511 -1.62555 0
M  V30 9288 O 889.994 -0.142915 -1.77927 0
M  V30 9289 C 887.094 -0.369175 -3.36883 0
M  V30 9290 C 886.267 -1.43866 -4.13063 0
M  V30 9291 C 885.326 -0.891015 -5.18601 0
M  V30 9292 O 884.352 -1.57384 -5.47009 0
M  V30 9293 N 885.554 0.295057 -5.7975 0
M  V30 9294 H 888.319 -1.8638 -2.34697 0
M  V30 9295 H 885.88 -1.11671 -1.17223 0
M  V30 9296 H 887.872 0.011534 -4.04698 0
M  V30 9297 H 886.442 0.472861 -3.09003 0
M  V30 9298 H 885.662 -1.99332 -3.40089 0
M  V30 9299 H 886.95 -2.15866 -4.60738 0
M  V30 9300 H 886.348 0.8669 -5.59018 0
M  V30 9301 H 884.905 0.617306 -6.4887 0
M  V30 9302 N 888.338 1.20213 -1.01915 0
M  V30 9303 C 889.268 2.25336 -0.612023 0
M  V30 9304 C 890.249 1.65933 0.374186 0
M  V30 9305 O 891.434 1.92464 0.259053 0
M  V30 9306 C 888.564 3.47267 0.047904 0
M  V30 9307 C 887.518 4.1928 -0.859557 0
M  V30 9308 C 886.844 5.3466 -0.0652655 0
M  V30 9309 C 888.144 4.75143 -2.1688 0
M  V30 9310 H 889.838 2.59645 -1.49079 0
M  V30 9311 H 887.384 1.24808 -0.718263 0
M  V30 9312 H 889.337 4.19991 0.344294 0
M  V30 9313 H 888.061 3.12129 0.961404 0
M  V30 9314 H 886.72 3.48425 -1.13999 0
M  V30 9315 H 886.368 4.95767 0.849964 0
M  V30 9316 H 886.068 5.83772 -0.669618 0
M  V30 9317 H 887.592 6.10187 0.224612 0
M  V30 9318 H 889.006 5.39672 -1.9346 0
M  V30 9319 H 887.403 5.34702 -2.72422 0
M  V30 9320 H 888.473 3.93744 -2.83008 0
M  V30 9321 N 889.816 0.795718 1.36037 0
M  V30 9322 C 890.746 0.212803 2.32528 0
M  V30 9323 C 891.727 -0.655716 1.56953 0
M  V30 9324 O 892.912 -0.588238 1.85077 0
M  V30 9325 C 890.042 -0.648189 3.41198 0
M  V30 9326 C 888.996 0.120948 4.27829 0
M  V30 9327 C 888.322 -0.861044 5.27722 0
M  V30 9328 C 889.622 1.31375 5.05508 0
M  V30 9329 H 891.316 1.01893 2.81528 0
M  V30 9330 H 888.862 0.491422 1.35355 0
M  V30 9331 H 890.815 -1.06597 4.07695 0
M  V30 9332 H 889.539 -1.48709 2.9078 0
M  V30 9333 H 888.198 0.519777 3.62897 0
M  V30 9334 H 887.846 -1.69515 4.73575 0
M  V30 9335 H 887.546 -0.350808 5.86552 0
M  V30 9336 H 889.07 -1.27726 5.97092 0
M  V30 9337 H 890.484 0.971406 5.6501 0
M  V30 9338 H 888.881 1.75772 5.73781 0
M  V30 9339 H 889.951 2.10593 4.36782 0
M  V30 9340 N 891.294 -1.47756 0.548274 0
M  V30 9341 C 892.524 -2.06584 0.0254503 0
M  V30 9342 C 892.932 -1.40268 -1.26971 0
M  V30 9343 O 892.275 -0.49019 -1.77039 0
M  V30 9344 C 892.337 -3.58628 -0.250301 0
M  V30 9345 C 892.001 -4.4693 0.954087 0
M  V30 9346 C 892.998 -4.85592 1.85733 0
M  V30 9347 C 890.683 -4.88573 1.16624 0
M  V30 9348 C 892.677 -5.64686 2.95648 0
M  V30 9349 C 890.364 -5.67435 2.2685 0
M  V30 9350 C 891.362 -6.05401 3.16194 0
M  V30 9351 O 891.05 -6.82676 4.24511 0
M  V30 9352 H 890.782 -0.67489 0.0387264 0
M  V30 9353 H 893.336 -1.90876 0.758663 0
M  V30 9354 H 891.566 -3.72516 -1.03771 0
M  V30 9355 H 893.255 -3.9951 -0.717419 0
M  V30 9356 H 894.021 -4.54026 1.70544 0
M  V30 9357 H 889.9 -4.58494 0.480039 0
M  V30 9358 H 893.444 -5.9424 3.65411 0
M  V30 9359 H 889.341 -5.98413 2.42016 0
M  V30 9360 H 890.109 -7.01057 4.22447 0
M  V30 9361 N 892.772 -0.284283 -1.55015 0
M  V30 9362 C 893.997 0.335799 -2.04664 0
M  V30 9363 C 894.422 1.47999 -1.16094 0
M  V30 9364 O 893.78 1.8058 -0.161454 0
M  V30 9365 C 893.828 0.785615 -3.51938 0
M  V30 9366 O 892.932 1.89202 -3.66437 0
M  V30 9367 H 892.273 0.0680233 -0.660506 0
M  V30 9368 H 894.803 -0.421255 -2.00216 0
M  V30 9369 H 894.813 1.07892 -3.93476 0
M  V30 9370 H 893.488 -0.0514675 -4.15868 0
M  V30 9371 H 892.065 1.60055 -3.36804 0
M  V30 9372 N 894.251 1.57596 -0.0117121 0
M  V30 9373 C 895.662 1.79033 0.529521 0
M  V30 9374 C 896.013 0.920299 1.73277 0
M  V30 9375 O 895.138 0.125934 2.16033 0
M  V30 9376 C 895.733 3.24695 0.967405 0
M  V30 9377 C 894.292 3.47188 1.45387 0
M  V30 9378 C 893.439 2.74245 0.410466 0
M  V30 9379 H 896.39 1.56908 -0.237836 0
M  V30 9380 H 896.411 3.33451 1.83278 0
M  V30 9381 H 895.923 3.87992 0.0914605 0
M  V30 9382 H 894.024 2.89121 2.35032 0
M  V30 9383 H 894.137 4.55886 1.47325 0
M  V30 9384 H 892.501 2.39209 0.874721 0
M  V30 9385 H 893.284 3.40248 -0.456713 0
M  V30 9386 N 895.729 -0.261212 1.5542 0
M  V30 9387 C 896.978 -0.989072 1.75785 0
M  V30 9388 C 897.291 -1.8702 0.572961 0
M  V30 9389 O 898.497 -2.63374 0.659289 0
M  V30 9390 C 896.953 -1.80857 3.11157 0
M  V30 9391 C 896.561 -0.975535 4.3725 0
M  V30 9392 C 898.305 -2.53003 3.40866 0
M  V30 9393 C 896.212 -1.7901 5.63657 0
M  V30 9394 H 895.142 -0.373019 0.655266 0
M  V30 9395 H 897.793 -0.244267 1.81867 0
M  V30 9396 H 896.175 -2.59479 2.99144 0
M  V30 9397 H 897.349 -0.232661 4.60212 0
M  V30 9398 H 895.664 -0.368083 4.1477 0
M  V30 9399 H 898.261 -3.14372 4.32521 0
M  V30 9400 H 898.604 -3.23891 2.61535 0
M  V30 9401 H 899.137 -1.81403 3.54031 0
M  V30 9402 H 895.876 -1.12522 6.4577 0
M  V30 9403 H 895.396 -2.50863 5.44819 0
M  V30 9404 H 897.075 -2.36082 6.0239 0
M  V30 9405 N 897.207 -1.48554 -0.526253 0
M  V30 9406 C 898.117 -1.66044 -1.65731 0
M  V30 9407 C 899.133 -0.542951 -1.65312 0
M  V30 9408 O 900.309 -0.814495 -1.84195 0
M  V30 9409 C 897.374 -1.69959 -3.02184 0
M  V30 9410 C 896.435 -2.93362 -3.13428 0
M  V30 9411 C 895.668 -2.97081 -4.43372 0
M  V30 9412 O 895.891 -2.09103 -5.3069 0
M  V30 9413 O 894.825 -3.8929 -4.59061 0
M  V30 9414 H 898.651 -2.61811 -1.53912 0
M  V30 9415 H 896.236 -1.31999 -0.699759 0
M  V30 9416 H 898.118 -1.75033 -3.83329 0
M  V30 9417 H 896.793 -0.773658 -3.14319 0
M  V30 9418 H 895.7 -2.93818 -2.31564 0
M  V30 9419 H 897.033 -3.85352 -3.06211 0
M  V30 9420 N 898.685 0.775411 -1.37205 0
M  V30 9421 C 899.633 1.90996 -1.32752 0
M  V30 9422 C 900.627 1.68006 -0.216907 0
M  V30 9423 O 901.833 1.7584 -0.384723 0
M  V30 9424 H 898.208 0.62803 -0.413621 0
M  V30 9425 H 900.179 1.91869 -2.28536 0
M  V30 9426 C 898.928 3.28211 -1.14772 0
M  V30 9427 H 898.251 3.46477 -1.99484 0
M  V30 9428 H 899.691 4.07907 -1.15706 0
M  V30 9429 C 898.15 3.3658 0.146852 0
M  V30 9430 O 898.68 3.85428 1.13173 0
M  V30 9431 N 896.886 2.89936 0.196305 0
M  V30 9432 H 896.433 2.50375 -0.605807 0
M  V30 9433 H 896.391 2.95916 1.06212 0
M  V30 9434 N 900.163 1.21714 1.00117 0
M  V30 9435 C 901.412 1.03087 1.73367 0
M  V30 9436 C 901.725 -0.435532 1.90689 0
M  V30 9437 O 902.931 -0.741291 2.61184 0
M  V30 9438 C 901.387 1.79593 3.11888 0
M  V30 9439 C 900.995 3.30428 3.02525 0
M  V30 9440 C 902.739 1.69386 3.89241 0
M  V30 9441 C 900.646 3.99408 4.3615 0
M  V30 9442 H 899.576 0.382117 0.650002 0
M  V30 9443 H 902.227 1.45486 1.11831 0
M  V30 9444 H 900.609 1.29988 3.74058 0
M  V30 9445 H 901.783 3.87364 2.49571 0
M  V30 9446 H 900.098 3.4122 2.38659 0
M  V30 9447 H 902.695 2.18251 4.8813 0
M  V30 9448 H 903.038 0.652773 4.1115 0
M  V30 9449 H 903.571 2.16489 3.33733 0
M  V30 9450 H 900.31 5.03735 4.19442 0
M  V30 9451 H 899.83 3.47261 4.8905 0
M  V30 9452 H 901.509 4.04537 5.04934 0
M  V30 9453 N 901.641 -1.19671 1.02551 0
M  V30 9454 C 902.573 -2.22215 0.561517 0
M  V30 9455 C 903.586 -1.58751 -0.360821 0
M  V30 9456 O 904.775 -1.77802 -0.157749 0
M  V30 9457 C 901.875 -3.383 -0.201494 0
M  V30 9458 C 901.048 -4.3135 0.724952 0
M  V30 9459 C 900.107 -5.26199 0.00794334 0
M  V30 9460 O 899.133 -5.65665 0.633398 0
M  V30 9461 N 900.335 -5.66573 -1.26394 0
M  V30 9462 H 903.1 -2.6265 1.44343 0
M  V30 9463 H 900.661 -1.34303 0.904122 0
M  V30 9464 H 902.653 -3.98764 -0.690625 0
M  V30 9465 H 901.223 -2.96683 -0.98479 0
M  V30 9466 H 900.443 -3.6872 1.39423 0
M  V30 9467 H 901.731 -4.90433 1.35472 0
M  V30 9468 H 901.129 -5.36538 -1.79287 0
M  V30 9469 H 899.686 -6.29304 -1.69763 0
M  V30 9470 N 903.119 -0.802921 -1.35613 0
M  V30 9471 C 904.535 -0.486214 -1.52014 0
M  V30 9472 C 904.735 0.993219 -1.75321 0
M  V30 9473 O 903.791 1.77835 -1.79251 0
M  V30 9474 C 905.104 -1.32839 -2.69767 0
M  V30 9475 C 906.652 -1.32346 -2.83643 0
M  V30 9476 C 907.127 -2.14967 -4.04417 0
M  V30 9477 N 908.618 -2.12484 -4.11588 0
M  V30 9478 C 909.353 -2.73173 -5.04147 0
M  V30 9479 N 908.849 -3.42774 -6.02061 0
M  V30 9480 N 910.642 -2.62834 -4.96865 0
M  V30 9481 H 902.793 -1.76109 -1.18741 0
M  V30 9482 H 905.056 -0.74936 -0.580658 0
M  V30 9483 H 904.762 -2.37813 -2.5911 0
M  V30 9484 H 904.636 -0.979058 -3.64272 0
M  V30 9485 H 907.023 -0.281586 -2.93753 0
M  V30 9486 H 907.104 -1.71264 -1.90006 0
M  V30 9487 H 906.748 -3.19193 -3.95068 0
M  V30 9488 H 906.678 -1.73411 -4.97228 0
M  V30 9489 H 909.169 -1.61839 -3.41492 0
M  V30 9490 H 909.482 -3.86378 -6.69277 0
M  V30 9491 H 907.827 -3.46878 -6.02246 0
M  V30 9492 H 911.018 -2.08049 -4.19325 0
M  V30 9493 H 911.191 -3.10421 -5.68808 0
M  V30 9494 N 904.597 1.47463 -0.556102 0
M  V30 9495 C 905.843 2.02775 -0.0316806 0
M  V30 9496 C 906.176 1.42967 1.3143 0
M  V30 9497 O 905.451 0.584847 1.85499 0
M  V30 9498 C 905.734 3.60046 0.0625742 0
M  V30 9499 C 905.587 4.30288 -1.31043 0
M  V30 9500 C 906.906 4.33195 0.776553 0
M  V30 9501 H 904.025 0.736886 -0.0129869 0
M  V30 9502 H 906.667 1.75904 -0.718177 0
M  V30 9503 H 904.817 3.83071 0.647231 0
M  V30 9504 H 906.489 4.18607 -1.9382 0
M  V30 9505 H 904.732 3.90685 -1.8854 0
M  V30 9506 H 905.403 5.38861 -1.1972 0
M  V30 9507 H 907.879 4.15156 0.280147 0
M  V30 9508 H 906.755 5.42869 0.81146 0
M  V30 9509 H 907.016 4.02336 1.83244 0
M  V30 9510 N 906.075 0.2925 1.54862 0
M  V30 9511 C 907.038 -0.574423 2.21885 0
M  V30 9512 C 908.038 -1.06791 1.20218 0
M  V30 9513 O 909.228 -0.9653 1.45009 0
M  V30 9514 C 906.36 -1.79438 2.89853 0
M  V30 9515 H 907.553 0.0110319 2.99898 0
M  V30 9516 H 905.106 0.043256 1.5624 0
M  V30 9517 H 905.841 -2.4199 2.15897 0
M  V30 9518 H 905.626 -1.44827 3.64373 0
M  V30 9519 H 907.116 -2.41048 3.41007 0
M  V30 9520 N 907.553 -1.57587 0.0200696 0
M  V30 9521 C 908.516 -2.08595 -0.949767 0
M  V30 9522 C 909.516 -0.999215 -1.25985 0
M  V30 9523 O 910.706 -1.26115 -1.2017 0
M  V30 9524 C 907.838 -2.54424 -2.26895 0
M  V30 9525 H 909.031 -2.95563 -0.508161 0
M  V30 9526 H 906.584 -1.54631 -0.227798 0
M  V30 9527 H 907.319 -1.70758 -2.75703 0
M  V30 9528 H 907.104 -3.3381 -2.05702 0
M  V30 9529 H 908.594 -2.94144 -2.96427 0
M  V30 9530 N 909.032 0.252966 -1.55557 0
M  V30 9531 C 910.28 0.979912 -1.76754 0
M  V30 9532 C 910.601 1.86083 -0.582944 0
M  V30 9533 O 909.871 1.91742 0.401497 0
M  V30 9534 H 908.451 0.364805 -0.651864 0
M  V30 9535 H 911.113 0.272372 -1.92987 0
M  V30 9536 H 910.209 1.60518 -2.67657 0
M  V30 9537 N 910.51 1.48831 0.518367 0
M  V30 9538 C 911.756 1.57672 1.27543 0
M  V30 9539 C 912.089 0.254915 1.9252 0
M  V30 9540 O 911.364 -0.740107 1.79868 0
M  V30 9541 C 911.647 2.72345 2.35585 0
M  V30 9542 C 911.5 4.14267 1.75224 0
M  V30 9543 C 912.819 2.82726 3.37274 0
M  V30 9544 H 909.938 0.573926 0.462361 0
M  V30 9545 H 912.58 1.8105 0.576267 0
M  V30 9546 H 910.73 2.52543 2.95219 0
M  V30 9547 H 912.402 4.45539 1.19551 0
M  V30 9548 H 910.645 4.20724 1.05706 0
M  V30 9549 H 911.316 4.90345 2.53507 0
M  V30 9550 H 913.792 3.00699 2.8761 0
M  V30 9551 H 912.668 3.6467 4.10252 0
M  V30 9552 H 912.929 1.9136 3.9854 0
M  V30 9553 N 911.988 -0.768124 1.37614 0
M  V30 9554 C 912.918 -1.89537 1.36374 0
M  V30 9555 C 913.899 -1.68513 0.231803 0
M  V30 9556 O 915.084 -1.89318 0.432705 0
M  V30 9557 C 912.214 -3.26871 1.17358 0
M  V30 9558 C 911.168 -3.62466 2.27602 0
M  V30 9559 C 910.494 -4.9838 1.93705 0
M  V30 9560 C 911.794 -3.68841 3.69802 0
M  V30 9561 H 913.488 -1.90832 2.30702 0
M  V30 9562 H 911.034 -0.91672 1.11051 0
M  V30 9563 H 912.987 -4.05371 1.15119 0
M  V30 9564 H 911.711 -3.26018 0.194865 0
M  V30 9565 H 910.37 -2.86276 2.29002 0
M  V30 9566 H 910.018 -4.94071 0.943539 0
M  V30 9567 H 909.718 -5.23165 2.6753 0
M  V30 9568 H 911.242 -5.79276 1.93059 0
M  V30 9569 H 912.656 -4.37485 3.70513 0
M  V30 9570 H 911.053 -4.05126 4.42711 0
M  V30 9571 H 912.123 -2.69415 4.03167 0
M  V30 9572 N 913.466 -1.22244 -0.994698 0
M  V30 9573 C 914.706 -1.05747 -1.7492 0
M  V30 9574 C 915.07 0.4007 -1.87772 0
M  V30 9575 O 916.271 0.686469 -2.59887 0
M  V30 9576 C 914.542 -1.7471 -3.11787 0
M  V30 9577 S 916.101 -1.73604 -4.02998 0
M  V30 9578 H 912.919 -0.378731 -0.601734 0
M  V30 9579 H 915.521 -1.55155 -1.18942 0
M  V30 9580 H 914.225 -2.79972 -3.00073 0
M  V30 9581 H 913.756 -1.25525 -3.72836 0
M  V30 9582 H 915.771 -0.784445 -4.8996 0
M  V30 9583 N 914.944 1.19125 -1.03184 0
M  V30 9584 C 915.854 2.26112 -0.625329 0
M  V30 9585 C 916.87 1.7056 0.344298 0
M  V30 9586 O 918.046 2.0039 0.20144 0
M  V30 9587 C 915.111 3.46697 0.0145169 0
M  V30 9588 C 914.172 4.17419 -1.00299 0
M  V30 9589 C 913.405 5.32247 -0.393581 0
M  V30 9590 O 913.628 5.64724 0.802659 0
M  V30 9591 O 912.562 5.91428 -1.1179 0
M  V30 9592 H 916.388 2.63131 -1.51643 0
M  V30 9593 H 913.973 1.26036 -0.802197 0
M  V30 9594 H 915.855 4.19762 0.371139 0
M  V30 9595 H 914.53 3.11521 0.879581 0
M  V30 9596 H 913.437 3.4646 -1.41125 0
M  V30 9597 H 914.77 4.56573 -1.83852 0
M  V30 9598 N 916.422 0.810101 1.35185 0
M  V30 9599 C 917.352 0.237453 2.32289 0
M  V30 9600 C 918.333 -0.639032 1.5764 0
M  V30 9601 O 919.518 -0.568575 1.8569 0
M  V30 9602 C 916.648 -0.611964 3.41866 0
M  V30 9603 C 915.602 0.166318 4.27677 0
M  V30 9604 C 914.928 -0.805024 5.28605 0
M  V30 9605 C 916.228 1.36729 5.04086 0
M  V30 9606 H 917.922 1.04874 2.80432 0
M  V30 9607 H 915.468 0.505751 1.34826 0
M  V30 9608 H 917.421 -1.02267 4.08802 0
M  V30 9609 H 916.145 -1.45617 2.92341 0
M  V30 9610 H 914.804 0.558238 3.62325 0
M  V30 9611 H 914.452 -1.64483 4.75347 0
M  V30 9612 H 914.152 -0.288577 5.86891 0
M  V30 9613 H 915.676 -1.21386 5.98413 0
M  V30 9614 H 917.09 1.03128 5.63948 0
M  V30 9615 H 915.487 1.81848 5.71884 0
M  V30 9616 H 916.557 2.15214 4.34524 0
M  V30 9617 N 917.9 -1.47166 0.563914 0
M  V30 9618 C 918.863 -2.28571 -0.169624 0
M  V30 9619 C 919.863 -1.37331 -0.836467 0
M  V30 9620 O 921.053 -1.59896 -0.6913 0
M  V30 9621 C 918.185 -3.17201 -1.24886 0
M  V30 9622 H 919.378 -2.94896 0.545539 0
M  V30 9623 H 916.931 -1.52966 0.321121 0
M  V30 9624 H 917.666 -2.55582 -1.99621 0
M  V30 9625 H 917.451 -3.84356 -0.775426 0
M  V30 9626 H 918.941 -3.7852 -1.76388 0
M  V30 9627 N 919.378 -0.300708 -1.54705 0
M  V30 9628 C 920.31 0.609179 -2.20956 0
M  V30 9629 C 921.323 1.09776 -1.20221 0
M  V30 9630 O 922.512 1.01527 -1.46815 0
M  V30 9631 C 919.612 1.84595 -2.84214 0
M  V30 9632 C 918.785 1.49991 -4.10879 0
M  V30 9633 C 917.844 2.5918 -4.57943 0
M  V30 9634 O 916.87 2.24285 -5.23149 0
M  V30 9635 N 918.072 3.89714 -4.30236 0
M  V30 9636 H 920.837 0.0420111 -2.99671 0
M  V30 9637 H 918.398 -0.122896 -1.61433 0
M  V30 9638 H 920.39 2.56988 -3.12633 0
M  V30 9639 H 918.96 2.32152 -2.09342 0
M  V30 9640 H 918.18 0.608637 -3.89473 0
M  V30 9641 H 919.468 1.24409 -4.93356 0
M  V30 9642 H 918.866 4.20874 -3.77997 0
M  V30 9643 H 917.423 4.58406 -4.63365 0
M  V30 9644 N 920.856 1.57574 -0.0284266 0
M  V30 9645 C 922.133 1.83064 0.688979 0
M  V30 9646 C 922.513 0.91219 1.90374 0
M  V30 9647 O 921.861 -0.0323672 2.28477 0
M  V30 9648 C 922.071 3.32262 1.06785 0
M  V30 9649 C 923.419 3.98717 1.45978 0
M  V30 9650 O 924.443 3.36753 1.16085 0
M  V30 9651 O 923.302 5.07927 2.01673 0
M  V30 9652 H 920.396 0.7548 0.337944 0
M  V30 9653 H 922.942 1.69607 -0.0560555 0
M  V30 9654 H 921.714 3.90772 0.203235 0
M  V30 9655 H 921.337 3.50823 1.87107 0
M  V30 9656 N 922.334 -0.244713 1.55689 0
M  V30 9657 C 923.281 -1.30301 1.905 0
M  V30 9658 C 924.251 -1.4772 0.759478 0
M  V30 9659 O 925.436 -1.61667 1.01333 0
M  V30 9660 C 922.576 -2.653 2.20703 0
M  V30 9661 C 921.689 -2.55872 3.48071 0
M  V30 9662 C 920.824 -3.83238 3.67834 0
M  V30 9663 C 919.863 -3.68436 4.88796 0
M  V30 9664 N 919 -4.877 5.05068 0
M  V30 9665 H 923.84 -0.999143 2.80751 0
M  V30 9666 H 921.377 -0.482099 1.38976 0
M  V30 9667 H 923.335 -3.43884 2.36219 0
M  V30 9668 H 921.965 -2.93831 1.33653 0
M  V30 9669 H 921.017 -1.68846 3.40874 0
M  V30 9670 H 922.329 -2.40845 4.36801 0
M  V30 9671 H 921.483 -4.70266 3.83321 0
M  V30 9672 H 920.222 -4.01165 2.77341 0
M  V30 9673 H 919.227 -2.79793 4.73282 0
M  V30 9674 H 920.452 -3.52003 5.8075 0
M  V30 9675 H 918.398 -5.05983 4.17513 0
M  V30 9676 H 918.315 -4.75312 5.8789 0
M  V30 9677 H 919.583 -5.76219 5.24969 0
M  V30 9678 N 923.813 -1.49104 -0.510467 0
M  V30 9679 C 924.723 -1.67792 -1.6396 0
M  V30 9680 C 925.739 -0.560454 -1.64727 0
M  V30 9681 O 926.915 -0.833985 -1.83321 0
M  V30 9682 C 923.98 -1.73154 -3.00364 0
M  V30 9683 C 923.041 -2.9667 -3.10299 0
M  V30 9684 C 922.274 -3.01767 -4.40196 0
M  V30 9685 O 922.497 -2.1472 -5.28443 0
M  V30 9686 O 921.431 -3.94137 -4.54906 0
M  V30 9687 H 925.257 -2.63428 -1.51126 0
M  V30 9688 H 922.842 -1.32734 -0.685719 0
M  V30 9689 H 924.724 -1.79089 -3.81451 0
M  V30 9690 H 923.399 -0.806952 -3.1348 0
M  V30 9691 H 922.306 -2.96257 -2.28435 0
M  V30 9692 H 923.639 -3.88578 -3.02106 0
M  V30 9693 N 925.291 0.760815 -1.38019 0
M  V30 9694 C 926.254 1.85604 -1.34476 0
M  V30 9695 C 927.254 1.58897 -0.24666 0
M  V30 9696 O 928.444 1.66776 -0.50314 0
M  V30 9697 C 925.576 3.22945 -1.09176 0
M  V30 9698 H 926.769 1.90155 -2.31908 0
M  V30 9699 H 924.322 0.961746 -1.23208 0
M  V30 9700 H 925.057 3.24066 -0.123216 0
M  V30 9701 H 924.842 3.43723 -1.88672 0
M  V30 9702 H 926.332 4.03022 -1.09375 0
M  V30 9703 N 926.769 1.22769 0.988202 0
M  V30 9704 C 927.732 1.00325 2.06076 0
M  V30 9705 C 928.732 -0.0320618 1.60768 0
M  V30 9706 O 929.922 0.206912 1.72967 0
M  V30 9707 C 927.054 0.516376 3.36966 0
M  V30 9708 H 928.247 1.95499 2.27421 0
M  V30 9709 H 925.8 1.04704 1.16047 0
M  V30 9710 H 926.535 -0.439498 3.21308 0
M  V30 9711 H 926.32 1.26337 3.71189 0
M  V30 9712 H 927.81 0.37974 4.1587 0
M  V30 9713 N 928.247 -1.18576 1.03814 0
M  V30 9714 C 929.157 -2.25778 0.637311 0
M  V30 9715 C 930.173 -1.7074 -0.335248 0
M  V30 9716 O 931.349 -2.00494 -0.19081 0
M  V30 9717 C 928.414 -3.467 0.00386953 0
M  V30 9718 C 927.475 -4.16881 1.02511 0
M  V30 9719 C 926.708 -5.32031 0.421802 0
M  V30 9720 O 926.931 -5.65142 -0.772699 0
M  V30 9721 O 925.865 -5.90826 1.14925 0
M  V30 9722 H 929.691 -2.62323 1.53037 0
M  V30 9723 H 927.276 -1.25609 0.80887 0
M  V30 9724 H 929.158 -4.19953 -0.348873 0
M  V30 9725 H 927.833 -3.11983 -0.863047 0
M  V30 9726 H 926.74 -3.45707 1.4296 0
M  V30 9727 H 928.073 -4.55592 1.86271 0
M  V30 9728 N 929.725 -0.817259 -1.34754 0
M  V30 9729 C 930.688 -0.240611 -2.27934 0
M  V30 9730 C 931.688 0.578219 -1.50044 0
M  V30 9731 O 932.878 0.395148 -1.69659 0
M  V30 9732 C 930.01 0.663318 -3.34384 0
M  V30 9733 H 931.203 -1.06257 -2.80445 0
M  V30 9734 H 928.756 -0.588697 -1.4479 0
M  V30 9735 H 929.491 1.50855 -2.87077 0
M  V30 9736 H 929.276 0.0777388 -3.92023 0
M  V30 9737 H 930.766 1.06076 -4.03903 0
M  V30 9738 N 931.203 1.46865 -0.571711 0
M  V30 9739 C 932.452 2.01636 -0.050881 0
M  V30 9740 C 932.765 1.45001 1.31279 0
M  V30 9741 O 933.971 1.91523 1.92435 0
M  V30 9742 C 932.427 3.59877 -0.0404114 0
M  V30 9743 C 932.035 4.25506 -1.40172 0
M  V30 9744 C 933.779 4.22346 0.42705 0
M  V30 9745 C 931.686 5.75795 -1.34958 0
M  V30 9746 H 930.616 0.753846 -0.0152514 0
M  V30 9747 H 933.267 1.68711 -0.721723 0
M  V30 9748 H 931.649 3.89829 0.696374 0
M  V30 9749 H 932.823 4.07178 -2.15737 0
M  V30 9750 H 931.138 3.75086 -1.8083 0
M  V30 9751 H 933.735 5.32499 0.484688 0
M  V30 9752 H 934.078 3.9052 1.44222 0
M  V30 9753 H 934.611 3.9698 -0.255326 0
M  V30 9754 H 931.35 6.12265 -2.3412 0
M  V30 9755 H 930.87 5.96419 -0.635962 0
M  V30 9756 H 932.549 6.38294 -1.05779 0
M  V30 9757 N 932.681 0.308908 1.54543 0
M  V30 9758 C 933.591 -0.572939 2.27496 0
M  V30 9759 C 934.607 -1.14171 1.31305 0
M  V30 9760 O 935.783 -1.16481 1.64299 0
M  V30 9761 C 932.848 -1.72483 3.0075 0
M  V30 9762 C 931.909 -1.18934 4.12496 0
M  V30 9763 C 931.142 -2.28634 4.82247 0
M  V30 9764 O 931.365 -3.48691 4.5141 0
M  V30 9765 O 930.299 -1.94879 5.69478 0
M  V30 9766 H 934.125 0.0190877 3.03694 0
M  V30 9767 H 931.71 0.0750943 1.49211 0
M  V30 9768 H 933.592 -2.39578 3.46671 0
M  V30 9769 H 932.267 -2.30332 2.2744 0
M  V30 9770 H 931.174 -0.483904 3.70957 0
M  V30 9771 H 932.507 -0.656185 4.87806 0
M  V30 9772 N 934.159 -1.57557 0.0367827 0
M  V30 9773 C 935.122 -2.09591 -0.927589 0
M  V30 9774 C 936.122 -1.01252 -1.24919 0
M  V30 9775 O 937.312 -1.27382 -1.18825 0
M  V30 9776 C 934.444 -2.56816 -2.24184 0
M  V30 9777 H 935.637 -2.96086 -0.476784 0
M  V30 9778 H 933.19 -1.54864 -0.211385 0
M  V30 9779 H 933.925 -1.73673 -2.73876 0
M  V30 9780 H 933.71 -3.35973 -2.0215 0
M  V30 9781 H 935.2 -2.97271 -2.93291 0
M  V30 9782 N 935.637 0.236453 -1.55816 0
M  V30 9783 C 936.547 1.31418 -1.94336 0
M  V30 9784 C 937.563 1.52095 -0.845164 0
M  V30 9785 O 938.739 1.65515 -1.14746 0
M  V30 9786 C 935.804 2.6468 -2.23932 0
M  V30 9787 C 934.865 2.52435 -3.47239 0
M  V30 9788 C 934.098 3.79342 -3.75414 0
M  V30 9789 O 934.321 4.81694 -3.05495 0
M  V30 9790 O 933.255 3.77347 -4.68927 0
M  V30 9791 H 937.081 1.01739 -2.86152 0
M  V30 9792 H 934.666 0.438084 -1.42833 0
M  V30 9793 H 936.548 3.4341 -2.44228 0
M  V30 9794 H 935.223 2.94071 -1.35292 0
M  V30 9795 H 934.13 1.71955 -3.32238 0
M  V30 9796 H 935.463 2.27987 -4.36214 0
M  V30 9797 N 937.115 1.49373 0.502552 0
M  V30 9798 C 938.363 1.58467 1.25429 0
M  V30 9799 C 938.684 0.272593 1.93085 0
M  V30 9800 O 937.954 -0.707947 1.82661 0
M  V30 9801 H 936.534 0.583866 0.46595 0
M  V30 9802 H 939.196 1.8599 0.582568 0
M  V30 9803 H 938.292 2.37993 2.01906 0
M  V30 9804 N 938.594 -0.753485 1.38421 0
M  V30 9805 C 939.557 -1.84888 1.35459 0
M  V30 9806 C 940.557 -1.58764 0.255083 0
M  V30 9807 O 941.747 -1.66507 0.511978 0
M  V30 9808 C 938.879 -3.22361 1.10888 0
M  V30 9809 H 940.072 -1.88922 2.32913 0
M  V30 9810 H 937.625 -0.955199 1.23716 0
M  V30 9811 H 938.36 -3.23996 0.1404 0
M  V30 9812 H 938.145 -3.42717 1.90492 0
M  V30 9813 H 939.635 -4.02437 1.1151 0
M  V30 9814 N 940.072 -1.23292 -0.981677 0
M  V30 9815 C 941.3 -1.09088 -1.75805 0
M  V30 9816 C 941.715 0.357746 -1.8538 0
M  V30 9817 O 941.072 1.24751 -1.33205 0
M  V30 9818 C 941.123 -1.70885 -3.1856 0
M  V30 9819 O 940.844 -3.10082 -3.09484 0
M  V30 9820 C 942.345 -1.62106 -4.12597 0
M  V30 9821 H 939.565 -0.38184 -0.55176 0
M  V30 9822 H 942.109 -1.63116 -1.23342 0
M  V30 9823 H 940.264 -1.20893 -3.68054 0
M  V30 9824 H 940.678 -3.40039 -3.99342 0
M  V30 9825 H 942.152 -2.10049 -5.10474 0
M  V30 9826 H 942.629 -0.579642 -4.35358 0
M  V30 9827 H 943.235 -2.11457 -3.69007 0
M  V30 9828 N 941.55 1.18024 -1.04442 0
M  V30 9829 C 942.513 2.19992 -0.643136 0
M  V30 9830 C 943.513 1.57949 0.301444 0
M  V30 9831 O 944.703 1.73986 0.0863341 0
M  V30 9832 C 941.835 3.40853 0.0565208 0
M  V30 9833 H 943.028 2.57008 -1.54554 0
M  V30 9834 H 940.581 1.31974 -0.837408 0
M  V30 9835 H 941.316 3.09373 0.972553 0
M  V30 9836 H 941.101 3.87128 -0.622439 0
M  V30 9837 H 942.591 4.16344 0.323652 0
M  V30 9838 N 943.028 0.824394 1.34319 0
M  V30 9839 C 944.439 0.471802 1.8064 0
M  V30 9840 C 944.79 -1.00793 1.6833 0
M  V30 9841 O 943.915 -1.78447 1.22416 0
M  V30 9842 C 944.51 0.849609 3.27974 0
M  V30 9843 C 943.069 0.549365 3.72369 0
M  V30 9844 C 942.216 1.06573 2.56003 0
M  V30 9845 H 945.167 1.01443 1.22045 0
M  V30 9846 H 945.188 0.153968 3.80188 0
M  V30 9847 H 944.7 1.92663 3.36902 0
M  V30 9848 H 942.801 -0.518182 3.68979 0
M  V30 9849 H 942.914 1.09446 4.66432 0
M  V30 9850 H 941.278 0.487214 2.49997 0
M  V30 9851 H 942.061 2.14923 2.677 0
M  V30 9852 N 944.506 -1.46559 0.579492 0
M  V30 9853 C 945.436 -2.33059 -0.143437 0
M  V30 9854 C 946.417 -1.4515 -0.886868 0
M  V30 9855 O 947.602 -1.73973 -0.862961 0
M  V30 9856 C 944.732 -3.27364 -1.15973 0
M  V30 9857 C 943.686 -4.24689 -0.531348 0
M  V30 9858 C 943.012 -5.08479 -1.65388 0
M  V30 9859 C 944.312 -5.1961 0.529391 0
M  V30 9860 H 946.006 -2.93753 0.578762 0
M  V30 9861 H 943.552 -1.41256 0.279775 0
M  V30 9862 H 945.505 -3.86732 -1.67382 0
M  V30 9863 H 944.229 -2.64771 -1.91217 0
M  V30 9864 H 942.888 -3.6658 -0.0383749 0
M  V30 9865 H 942.536 -4.42273 -2.3959 0
M  V30 9866 H 942.236 -5.74387 -1.23909 0
M  V30 9867 H 943.76 -5.70709 -2.17079 0
M  V30 9868 H 945.174 -5.73212 0.100506 0
M  V30 9869 H 943.571 -5.93843 0.86432 0
M  V30 9870 H 944.641 -4.63737 1.4169 0
M  V30 9871 N 945.984 -0.3171 -1.54377 0
M  V30 9872 C 947.212 0.289558 -2.04864 0
M  V30 9873 C 947.627 1.46284 -1.19359 0
M  V30 9874 O 946.984 1.81135 -0.222795 0
M  V30 9875 C 947.035 0.730273 -3.54047 0
M  V30 9876 O 946.756 -0.396325 -4.36304 0
M  V30 9877 C 948.257 1.40041 -4.20599 0
M  V30 9878 H 945.477 0.0605836 -0.668259 0
M  V30 9879 H 948.021 -0.461411 -1.99227 0
M  V30 9880 H 946.176 1.43123 -3.59992 0
M  V30 9881 H 946.59 -0.0502901 -5.24476 0
M  V30 9882 H 948.064 1.65979 -5.26455 0
M  V30 9883 H 948.541 2.34565 -3.71316 0
M  V30 9884 H 949.147 0.742206 -4.18774 0
M  V30 9885 N 947.462 1.57535 -0.0451378 0
M  V30 9886 C 948.372 2.14653 0.946646 0
M  V30 9887 C 949.388 1.10279 1.3459 0
M  V30 9888 O 950.564 1.42417 1.42405 0
M  V30 9889 C 947.629 2.67533 2.20515 0
M  V30 9890 C 946.69 3.86682 1.86481 0
M  V30 9891 C 945.923 4.37031 3.06332 0
M  V30 9892 O 946.146 3.86481 4.1951 0
M  V30 9893 O 945.08 5.28691 2.87697 0
M  V30 9894 H 948.906 2.99706 0.49091 0
M  V30 9895 H 946.491 1.48355 0.17641 0
M  V30 9896 H 948.373 3.01542 2.94365 0
M  V30 9897 H 947.048 1.85554 2.65238 0
M  V30 9898 H 945.955 3.57573 1.09966 0
M  V30 9899 H 947.288 4.69873 1.46562 0
M  V30 9900 N 948.94 -0.228186 1.55939 0
M  V30 9901 C 949.87 -1.28607 1.94891 0
M  V30 9902 C 950.851 -1.49236 0.816245 0
M  V30 9903 O 952.036 -1.61531 1.07803 0
M  V30 9904 C 949.166 -2.63719 2.25986 0
M  V30 9905 C 948.12 -2.57757 3.4168 0
M  V30 9906 C 947.446 -3.96837 3.58364 0
M  V30 9907 C 948.746 -2.13116 4.76843 0
M  V30 9908 H 950.44 -0.962531 2.83506 0
M  V30 9909 H 947.986 -0.461577 1.36402 0
M  V30 9910 H 949.939 -3.37878 2.51826 0
M  V30 9911 H 948.663 -2.97747 1.34217 0
M  V30 9912 H 947.322 -1.86055 3.15878 0
M  V30 9913 H 946.97 -4.28162 2.63982 0
M  V30 9914 H 946.67 -3.93731 4.36176 0
M  V30 9915 H 948.194 -4.72668 3.86545 0
M  V30 9916 H 949.608 -2.77015 5.01932 0
M  V30 9917 H 948.005 -2.21083 5.57891 0
M  V30 9918 H 949.075 -1.08326 4.72645 0
M  V30 9919 N 950.418 -1.49637 -0.494624 0
M  V30 9920 C 951.348 -1.69692 -1.60396 0
M  V30 9921 C 952.329 -0.545648 -1.61111 0
M  V30 9922 O 953.514 -0.782202 -1.77751 0
M  V30 9923 C 950.644 -1.76934 -2.9885 0
M  V30 9924 C 949.598 -2.91915 -3.13001 0
M  V30 9925 C 948.924 -2.84276 -4.5287 0
M  V30 9926 C 950.224 -4.32764 -2.92426 0
M  V30 9927 H 951.918 -2.6257 -1.43866 0
M  V30 9928 H 949.464 -1.26355 -0.690679 0
M  V30 9929 H 951.417 -1.8955 -3.76362 0
M  V30 9930 H 950.141 -0.806609 -3.16483 0
M  V30 9931 H 948.8 -2.78911 -2.37916 0
M  V30 9932 H 948.448 -1.85897 -4.67388 0
M  V30 9933 H 948.148 -3.61452 -4.63278 0
M  V30 9934 H 949.672 -2.98909 -5.32434 0
M  V30 9935 H 951.086 -4.46415 -3.59703 0
M  V30 9936 H 949.483 -5.1121 -3.143 0
M  V30 9937 H 950.553 -4.46765 -1.88491 0
M  V30 9938 N 951.896 0.746133 -1.38819 0
M  V30 9939 C 952.846 1.85085 -1.33145 0
M  V30 9940 C 953.83 1.59466 -0.214339 0
M  V30 9941 O 955.022 1.71159 -0.450943 0
M  V30 9942 C 952.151 3.22884 -1.16623 0
M  V30 9943 C 951.237 3.54369 -2.32988 0
M  V30 9944 N 951.628 3.56863 -3.58445 0
M  V30 9945 C 949.926 3.84674 -2.25703 0
M  V30 9946 C 950.627 3.85827 -4.3533 0
M  V30 9947 N 949.603 4.03037 -3.64777 0
M  V30 9948 H 953.405 1.85301 -2.28124 0
M  V30 9949 H 950.919 0.943847 -1.32156 0
M  V30 9950 H 952.916 4.0195 -1.10642 0
M  V30 9951 H 951.576 3.23914 -0.225841 0
M  V30 9952 H 952.587 3.38443 -3.92017 0
M  V30 9953 H 949.264 3.93375 -1.39864 0
M  V30 9954 H 950.654 3.94317 -5.44025 0
M  V30 9955 N 953.375 1.23811 0.975125 0
M  V30 9956 C 954.6 1.10109 1.75757 0
M  V30 9957 C 955.025 -0.342922 1.84948 0
M  V30 9958 O 954.383 -1.24814 1.31496 0
M  V30 9959 C 954.431 1.73724 3.15994 0
M  V30 9960 O 953.535 1.00297 4.00018 0
M  V30 9961 H 952.876 0.385627 0.540544 0
M  V30 9962 H 955.406 1.63971 1.22372 0
M  V30 9963 H 955.416 1.79178 3.6655 0
M  V30 9964 H 954.091 2.78794 3.0862 0
M  V30 9965 H 952.668 1.02575 3.58515 0
M  V30 9966 N 954.853 -1.17469 1.05066 0
M  V30 9967 C 956.269 -1.39699 0.771769 0
M  V30 9968 C 956.469 -1.91253 -0.634382 0
M  V30 9969 O 955.525 -2.10334 -1.39699 0
M  V30 9970 C 956.838 -2.38886 1.82631 0
M  V30 9971 C 958.386 -2.52595 1.84838 0
M  V30 9972 C 958.861 -3.55054 2.89311 0
M  V30 9973 N 960.352 -3.6257 2.88266 0
M  V30 9974 C 961.087 -4.41603 3.65752 0
M  V30 9975 N 960.583 -5.24162 4.53019 0
M  V30 9976 N 962.376 -4.36464 3.54197 0
M  V30 9977 H 954.527 -0.823355 1.95792 0
M  V30 9978 H 956.79 -0.42432 0.847736 0
M  V30 9979 H 956.496 -2.08075 2.83545 0
M  V30 9980 H 956.37 -3.38371 1.66687 0
M  V30 9981 H 958.757 -2.82717 0.845888 0
M  V30 9982 H 958.838 -1.53188 2.04859 0
M  V30 9983 H 958.482 -3.2567 3.89745 0
M  V30 9984 H 958.412 -4.54162 2.66542 0
M  V30 9985 H 960.903 -3.03625 2.24989 0
M  V30 9986 H 961.216 -5.81646 5.0883 0
M  V30 9987 H 959.561 -5.23547 4.57081 0
M  V30 9988 H 962.752 -3.7102 2.85416 0
M  V30 9989 H 962.925 -4.97814 4.14832 0
M  V30 9990 N 956.331 -0.831506 -1.3388 0
M  V30 9991 C 957.279 -0.247896 -2.31275 0
M  V30 9992 C 958.273 0.616083 -1.578 0
M  V30 9993 O 959.479 0.506465 -1.72728 0
M  V30 9994 H 955.854 -0.0614293 -0.749487 0
M  V30 9995 H 957.825 -1.08401 -2.78014 0
M  V30 9996 C 956.574 0.568434 -3.43022 0
M  V30 9997 H 955.897 -0.0870654 -3.99705 0
M  V30 9998 H 957.337 0.942751 -4.13386 0
M  V30 9999 C 955.796 1.74431 -2.88228 0
M  V30 10000 O 956.326 2.84278 -2.83811 0
M  V30 10001 N 954.532 1.56382 -2.44935 0
M  V30 10002 H 954.079 0.670255 -2.48727 0
M  V30 10003 H 954.037 2.35208 -2.08625 0
M  V30 10004 N 957.809 1.4625 -0.587256 0
M  V30 10005 C 958.719 2.34147 0.145744 0
M  V30 10006 C 959.735 1.50026 0.881376 0
M  V30 10007 O 960.911 1.82884 0.843539 0
M  V30 10008 C 957.976 3.27294 1.14366 0
M  V30 10009 C 957.037 4.27317 0.412199 0
M  V30 10010 C 956.27 5.16013 1.36257 0
M  V30 10011 O 956.493 5.0773 2.59934 0
M  V30 10012 O 955.427 5.95569 0.870681 0
M  V30 10013 H 959.253 2.98187 -0.576055 0
M  V30 10014 H 956.838 1.45299 -0.347628 0
M  V30 10015 H 958.72 3.84747 1.71894 0
M  V30 10016 H 957.395 2.65845 1.84684 0
M  V30 10017 H 956.302 3.73538 -0.205036 0
M  V30 10018 H 957.635 4.91564 -0.250104 0
M  V30 10019 N 959.287 0.325282 1.54207 0
M  V30 10020 C 960.535 -0.276229 2.00203 0
M  V30 10021 C 960.856 -1.52519 1.21503 0
M  V30 10022 O 960.126 -1.93313 0.317302 0
M  V30 10023 H 958.706 -0.105059 0.739575 0
M  V30 10024 H 961.368 0.442225 1.89817 0
M  V30 10025 H 960.464 -0.531427 3.07542 0
M  V30 10026 N 960.765 -1.57509 0.0534917 0
M  V30 10027 C 962.011 -1.93068 -0.62069 0
M  V30 10028 C 962.344 -0.932313 -1.70357 0
M  V30 10029 O 961.619 0.0413393 -1.94456 0
M  V30 10030 C 961.902 -3.38997 -1.21463 0
M  V30 10031 C 961.755 -4.49583 -0.13965 0
M  V30 10032 C 963.074 -3.85366 -2.12558 0
M  V30 10033 H 960.193 -0.702083 -0.224163 0
M  V30 10034 H 962.835 -1.89647 0.115729 0
M  V30 10035 H 960.985 -3.42043 -1.84226 0
M  V30 10036 H 962.657 -4.58664 0.492411 0
M  V30 10037 H 960.9 -4.30525 0.532006 0
M  V30 10038 H 961.571 -5.48781 -0.595287 0
M  V30 10039 H 964.047 -3.8421 -1.59755 0
M  V30 10040 H 962.923 -4.8812 -2.51058 0
M  V30 10041 H 963.184 -3.22256 -3.02661 0
M  V30 10042 N 962.243 0.219913 -1.56058 0
M  V30 10043 C 963.206 1.25606 -1.91718 0
M  V30 10044 C 964.206 1.39721 -0.795912 0
M  V30 10045 O 965.396 1.37958 -1.06364 0
M  V30 10046 C 962.528 2.62961 -2.16943 0
M  V30 10047 H 963.721 0.951909 -2.84392 0
M  V30 10048 H 961.274 0.460398 -1.49365 0
M  V30 10049 H 962.009 2.98472 -1.26826 0
M  V30 10050 H 961.794 2.54093 -2.98629 0
M  V30 10051 H 963.284 3.37727 -2.45622 0
M  V30 10052 N 963.721 1.49897 0.486681 0
M  V30 10053 C 964.949 1.63837 1.26353 0
M  V30 10054 C 965.364 0.315428 1.86146 0
M  V30 10055 O 964.721 -0.700831 1.68507 0
M  V30 10056 C 964.772 2.71792 2.38351 0
M  V30 10057 O 964.493 3.98956 1.81013 0
M  V30 10058 C 965.994 2.96566 3.2949 0
M  V30 10059 H 963.214 0.551158 0.382709 0
M  V30 10060 H 965.758 1.96023 0.582694 0
M  V30 10061 H 963.913 2.42344 3.02238 0
M  V30 10062 H 964.327 4.58536 2.54647 0
M  V30 10063 H 965.801 3.75803 4.04322 0
M  V30 10064 H 966.278 2.07031 3.87343 0
M  V30 10065 H 966.884 3.27485 2.71355 0
M  V30 10066 N 965.199 -0.738761 1.39212 0
M  V30 10067 C 966.429 -1.5258 1.39295 0
M  V30 10068 C 966.837 -1.89194 -0.0153 0
M  V30 10069 O 966.18 -1.5435 -0.996073 0
M  V30 10070 C 966.242 -2.84462 2.19822 0
M  V30 10071 C 965.906 -2.70303 3.68491 0
M  V30 10072 C 966.903 -2.39102 4.61656 0
M  V30 10073 C 964.588 -2.87291 4.1203 0
M  V30 10074 C 966.582 -2.25066 5.96342 0
M  V30 10075 C 964.269 -2.72874 5.46793 0
M  V30 10076 C 965.267 -2.41807 6.38763 0
M  V30 10077 O 964.955 -2.27475 7.71045 0
M  V30 10078 H 964.687 -0.478236 0.477772 0
M  V30 10079 H 967.241 -0.920846 1.83602 0
M  V30 10080 H 965.471 -3.47202 1.70257 0
M  V30 10081 H 967.16 -3.46058 2.12129 0
M  V30 10082 H 967.926 -2.25632 4.2932 0
M  V30 10083 H 963.805 -3.10466 3.40781 0
M  V30 10084 H 967.349 -2.00739 6.68094 0
M  V30 10085 H 963.246 -2.85922 5.78722 0
M  V30 10086 H 964.014 -2.42574 7.81729 0
M  V30 10087 N 966.677 -1.24326 -0.968545 0
M  V30 10088 C 967.64 -1.03591 -2.04454 0
M  V30 10089 C 968.64 0.0064809 -1.60799 0
M  V30 10090 O 969.83 -0.234404 -1.72616 0
M  V30 10091 C 966.962 -0.56992 -3.36102 0
M  V30 10092 H 968.155 -1.99092 -2.24282 0
M  V30 10093 H 965.708 -1.06537 -1.14366 0
M  V30 10094 H 966.443 0.388325 -3.21967 0
M  V30 10095 H 966.228 -1.32227 -3.69132 0
M  V30 10096 H 967.718 -0.445854 -4.15213 0
M  V30 10097 N 968.156 1.1691 -1.05688 0
M  V30 10098 C 969.119 2.19297 -0.666433 0
M  V30 10099 C 970.119 1.5826 0.284674 0
M  V30 10100 O 971.309 1.74068 0.0678757 0
M  V30 10101 C 968.441 3.40894 0.0203656 0
M  V30 10102 H 969.634 2.55354 -1.57272 0
M  V30 10103 H 967.187 1.31078 -0.851359 0
M  V30 10104 H 967.922 3.10388 0.939686 0
M  V30 10105 H 967.707 3.86446 -0.663464 0
M  V30 10106 H 969.197 4.16664 0.279475 0
M  V30 10107 N 969.634 0.838594 1.33437 0
M  V30 10108 C 970.597 0.276843 2.27522 0
M  V30 10109 C 971.597 -0.554275 1.50945 0
M  V30 10110 O 972.787 -0.368107 1.70266 0
M  V30 10111 C 969.919 -0.610036 3.35397 0
M  V30 10112 H 971.112 1.10705 2.78719 0
M  V30 10113 H 968.665 0.611657 1.43835 0
M  V30 10114 H 969.4 -1.46269 2.89441 0
M  V30 10115 H 969.185 -0.0153615 3.92097 0
M  V30 10116 H 970.675 -0.996368 4.05539 0
M  V30 10117 N 971.112 -1.45937 0.595003 0
M  V30 10118 C 972.358 -2.0262 0.0854317 0
M  V30 10119 C 972.691 -1.46402 -1.27594 0
M  V30 10120 O 971.966 -0.633823 -1.83883 0
M  V30 10121 C 972.249 -3.60085 0.0329075 0
M  V30 10122 C 972.102 -4.26663 1.42405 0
M  V30 10123 C 973.421 -4.35101 -0.661426 0
M  V30 10124 H 970.54 -0.736282 0.0325196 0
M  V30 10125 H 973.182 -1.73938 0.764563 0
M  V30 10126 H 971.332 -3.84652 -0.545439 0
M  V30 10127 H 973.004 -4.13321 2.04851 0
M  V30 10128 H 971.247 -3.85549 1.98833 0
M  V30 10129 H 971.918 -5.35497 1.33965 0
M  V30 10130 H 974.394 -4.15753 -0.169977 0
M  V30 10131 H 973.27 -5.44829 -0.667243 0
M  V30 10132 H 973.531 -4.07053 -1.72513 0
M  V30 10133 N 972.59 -0.333456 -1.54032 0
M  V30 10134 C 973.52 0.52051 -2.27625 0
M  V30 10135 C 974.501 1.1111 -1.28797 0
M  V30 10136 O 975.686 1.13438 -1.57625 0
M  V30 10137 C 972.816 1.67663 -3.04149 0
M  V30 10138 C 971.77 1.21487 -4.10396 0
M  V30 10139 C 971.096 2.45872 -4.74817 0
M  V30 10140 C 972.396 0.322603 -5.21303 0
M  V30 10141 H 974.09 -0.0933823 -2.99254 0
M  V30 10142 H 971.636 -0.0463526 -1.43925 0
M  V30 10143 H 973.589 2.28041 -3.54366 0
M  V30 10144 H 972.313 2.31727 -2.30153 0
M  V30 10145 H 970.972 0.633966 -3.61077 0
M  V30 10146 H 970.62 3.0832 -3.97426 0
M  V30 10147 H 970.32 2.15662 -5.46593 0
M  V30 10148 H 971.844 3.06994 -5.27814 0
M  V30 10149 H 973.258 0.832942 -5.67217 0
M  V30 10150 H 971.655 0.112843 -5.99994 0
M  V30 10151 H 972.725 -0.643954 -4.80605 0
M  V30 10152 N 974.068 1.57479 -0.061844 0
M  V30 10153 C 975.315 1.93108 0.60954 0
M  V30 10154 C 975.643 0.941086 1.70217 0
M  V30 10155 O 974.898 -0.044914 1.95648 0
M  V30 10156 C 975.197 3.35394 1.23474 0
M  V30 10157 C 974.863 4.50095 0.269247 0
M  V30 10158 C 973.525 4.812 0.00360316 0
M  V30 10159 C 975.877 5.19725 -0.391839 0
M  V30 10160 C 973.205 5.79276 -0.930383 0
M  V30 10161 C 975.557 6.18801 -1.31408 0
M  V30 10162 C 974.221 6.48328 -1.58829 0
M  V30 10163 H 973.491 0.706634 0.223046 0
M  V30 10164 H 976.138 1.91054 -0.1306 0
M  V30 10165 H 974.443 3.33866 2.05039 0
M  V30 10166 H 976.14 3.60247 1.76134 0
M  V30 10167 H 972.73 4.2583 0.486477 0
M  V30 10168 H 976.914 4.95898 -0.199713 0
M  V30 10169 H 972.17 6.00484 -1.15019 0
M  V30 10170 H 976.344 6.71862 -1.83234 0
M  V30 10171 H 973.971 7.24137 -2.31363 0
M  V30 10172 N 975.546 -0.211634 1.56173 0
M  V30 10173 C 976.962 -0.56177 1.49386 0
M  V30 10174 C 977.162 -1.86666 0.758813 0
M  V30 10175 O 976.218 -2.50681 0.302534 0
M  V30 10176 C 977.531 -0.631815 2.93987 0
M  V30 10177 C 979.079 -0.721773 3.04564 0
M  V30 10178 C 979.554 -0.823075 4.50544 0
M  V30 10179 N 981.045 -0.887038 4.54627 0
M  V30 10180 C 981.78 -0.985304 5.64871 0
M  V30 10181 N 981.276 -1.0469 6.84844 0
M  V30 10182 N 983.069 -1.02121 5.52746 0
M  V30 10183 H 975.22 0.64452 2.02385 0
M  V30 10184 H 977.483 0.227466 0.920306 0
M  V30 10185 H 977.189 0.257592 3.50755 0
M  V30 10186 H 977.063 -1.4921 3.46433 0
M  V30 10187 H 979.45 -1.60162 2.47855 0
M  V30 10188 H 979.531 0.164385 2.55271 0
M  V30 10189 H 979.175 0.0523511 5.07873 0
M  V30 10190 H 979.105 -1.72479 4.97552 0
M  V30 10191 H 981.596 -0.849352 3.68231 0
M  V30 10192 H 981.909 -1.12193 7.64613 0
M  V30 10193 H 980.254 -1.01586 6.87536 0
M  V30 10194 H 983.445 -0.969814 4.57943 0
M  V30 10195 H 983.618 -1.09434 6.38693 0
M  V30 10196 N 977.024 -1.50153 -0.478725 0
M  V30 10197 C 977.957 -1.63089 -1.59616 0
M  V30 10198 C 978.935 -0.479211 -1.55378 0
M  V30 10199 O 980.119 -0.697715 -1.75112 0
M  V30 10200 C 977.246 -1.60643 -2.9818 0
M  V30 10201 C 976.292 -2.81279 -3.206 0
M  V30 10202 S 977.125 -4.42681 -3.0132 0
M  V30 10203 C 978.281 -4.42915 -4.42241 0
M  V30 10204 H 978.514 -2.57612 -1.48402 0
M  V30 10205 H 976.047 -1.39321 -0.665513 0
M  V30 10206 H 978.005 -1.59917 -3.7807 0
M  V30 10207 H 976.666 -0.673684 -3.0679 0
M  V30 10208 H 975.859 -2.7585 -4.21809 0
M  V30 10209 H 975.461 -2.79533 -2.4847 0
M  V30 10210 H 977.753 -4.16007 -5.34737 0
M  V30 10211 H 978.696 -5.44477 -4.52715 0
M  V30 10212 H 979.104 -3.72715 -4.23962 0
M  V30 10213 N 978.502 0.731368 -1.39602 0
M  V30 10214 C 979.727 1.52567 -1.40492 0
M  V30 10215 C 980.152 1.881 -0.00228828 0
M  V30 10216 O 979.51 1.52167 0.985643 0
M  V30 10217 C 979.558 2.78749 -2.2876 0
M  V30 10218 O 978.662 3.7482 -1.71999 0
M  V30 10219 H 978.003 0.460601 -0.478271 0
M  V30 10220 H 980.533 0.902042 -1.83642 0
M  V30 10221 H 980.543 3.27446 -2.43399 0
M  V30 10222 H 979.218 2.5222 -3.30693 0
M  V30 10223 H 977.795 3.33604 -1.66622 0
M  V30 10224 N 979.98 1.24838 0.961938 0
M  V30 10225 C 980.89 1.06304 2.09133 0
M  V30 10226 C 981.906 0.00221475 1.74 0
M  V30 10227 O 983.082 0.201611 2.00388 0
M  V30 10228 C 980.147 0.676117 3.40043 0
M  V30 10229 C 979.208 1.81407 3.89089 0
M  V30 10230 C 978.441 1.44551 5.13752 0
M  V30 10231 O 978.664 0.337894 5.69398 0
M  V30 10232 O 977.598 2.27316 5.57325 0
M  V30 10233 H 981.424 2.01001 2.27667 0
M  V30 10234 H 979.009 1.0371 1.07539 0
M  V30 10235 H 980.891 0.472124 4.18747 0
M  V30 10236 H 979.566 -0.241667 3.22797 0
M  V30 10237 H 978.473 2.07286 3.11421 0
M  V30 10238 H 979.806 2.71083 4.10822 0
M  V30 10239 N 981.458 -1.16348 1.06306 0
M  V30 10240 C 982.735 -1.829 0.69331 0
M  V30 10241 C 983.115 -1.94298 -0.82531 0
M  V30 10242 O 982.463 -1.48619 -1.73565 0
M  V30 10243 C 982.673 -3.1989 1.3954 0
M  V30 10244 C 984.021 -3.95662 1.54068 0
M  V30 10245 O 985.045 -3.29408 1.35532 0
M  V30 10246 O 983.904 -5.14422 1.84479 0
M  V30 10247 H 980.998 -0.789738 0.245445 0
M  V30 10248 H 983.544 -1.23549 1.16334 0
M  V30 10249 H 982.316 -3.06629 2.43093 0
M  V30 10250 H 981.939 -3.86918 0.915453 0
M  V30 10251 N 982.937 -0.845659 -1.3299 0
M  V30 10252 C 983.884 -0.281761 -2.29074 0
M  V30 10253 C 984.854 0.606237 -1.54641 0
M  V30 10254 O 986.039 0.543063 -1.82908 0
M  V30 10255 C 983.179 0.531451 -3.40983 0
M  V30 10256 C 982.292 -0.381328 -4.30314 0
M  V30 10257 C 981.427 0.443643 -5.29344 0
M  V30 10258 C 980.466 -0.467101 -6.10315 0
M  V30 10259 N 979.603 0.320148 -7.0137 0
M  V30 10260 H 984.443 -1.10641 -2.76699 0
M  V30 10261 H 981.98 -0.55706 -1.36144 0
M  V30 10262 H 983.938 1.01848 -4.04577 0
M  V30 10263 H 982.568 1.32101 -2.94532 0
M  V30 10264 H 981.62 -0.986701 -3.6738 0
M  V30 10265 H 982.932 -1.08067 -4.86953 0
M  V30 10266 H 982.086 0.994212 -5.98498 0
M  V30 10267 H 980.825 1.17639 -4.73299 0
M  V30 10268 H 979.83 -1.02963 -5.40073 0
M  V30 10269 H 981.055 -1.19832 -6.68444 0
M  V30 10270 H 979.001 1.03615 -6.47765 0
M  V30 10271 H 978.918 -0.320338 -7.55321 0
M  V30 10272 H 980.186 0.852735 -7.74822 0
M  V30 10273 N 984.415 1.45619 -0.602734 0
M  V30 10274 C 985.826 1.85814 -0.181636 0
M  V30 10275 C 986.177 1.5037 1.26029 0
M  V30 10276 O 985.302 0.928068 1.95489 0
M  V30 10277 C 985.897 3.37258 -0.322866 0
M  V30 10278 C 984.456 3.76375 0.043504 0
M  V30 10279 C 983.603 2.69585 -0.649561 0
M  V30 10280 H 986.554 1.36489 -0.809721 0
M  V30 10281 H 986.575 3.77874 0.446279 0
M  V30 10282 H 986.087 3.63024 -1.37241 0
M  V30 10283 H 984.188 3.56226 1.09241 0
M  V30 10284 H 984.301 4.77843 -0.346765 0
M  V30 10285 H 982.665 2.54549 -0.087706 0
M  V30 10286 H 983.448 2.98188 -1.70115 0
M  V30 10287 N 985.893 0.34162 1.53853 0
M  V30 10288 C 986.825 -0.550383 2.22494 0
M  V30 10289 C 987.838 -1.0655 1.23089 0
M  V30 10290 O 989.027 -0.975985 1.49455 0
M  V30 10291 C 986.127 -1.76995 2.89009 0
M  V30 10292 C 985.3 -1.39045 4.14711 0
M  V30 10293 C 984.359 -2.46947 4.64654 0
M  V30 10294 O 983.385 -2.10336 5.28912 0
M  V30 10295 N 984.587 -3.7817 4.40418 0
M  V30 10296 H 987.352 0.037456 2.99677 0
M  V30 10297 H 984.913 0.165654 1.6105 0
M  V30 10298 H 986.905 -2.48608 3.19337 0
M  V30 10299 H 985.475 -2.2652 2.15424 0
M  V30 10300 H 984.695 -0.505161 3.9095 0
M  V30 10301 H 985.983 -1.11284 4.96481 0
M  V30 10302 H 985.381 -4.10704 3.89023 0
M  V30 10303 H 983.938 -4.45959 4.75356 0
M  V30 10304 N 987.371 -1.57444 0.0701946 0
M  V30 10305 C 988.648 -1.84826 -0.6402 0
M  V30 10306 C 989.028 -0.962344 -1.87889 0
M  V30 10307 O 988.376 -0.0282209 -2.28483 0
M  V30 10308 C 988.586 -3.34976 -0.979382 0
M  V30 10309 C 989.934 -4.02448 -1.35355 0
M  V30 10310 O 990.958 -3.39713 -1.07116 0
M  V30 10311 O 989.817 -5.13096 -1.88136 0
M  V30 10312 H 986.911 -0.763494 -0.317813 0
M  V30 10313 H 989.457 -1.69399 0.101004 0
M  V30 10314 H 988.229 -3.91173 -0.0995576 0
M  V30 10315 H 987.852 -3.5566 -1.7774 0
M  V30 10316 N 988.849 0.203349 -1.56283 0
M  V30 10317 C 990.079 0.940061 -1.83974 0
M  V30 10318 C 990.487 1.77703 -0.649486 0
M  V30 10319 O 989.83 1.79487 0.391189 0
M  V30 10320 C 989.892 1.89249 -3.05655 0
M  V30 10321 C 989.556 1.23828 -4.39904 0
M  V30 10322 C 990.553 0.619231 -5.16199 0
M  V30 10323 C 988.238 1.2446 -4.86636 0
M  V30 10324 C 990.232 0.0152287 -6.37398 0
M  V30 10325 C 987.919 0.636764 -6.07773 0
M  V30 10326 C 988.917 0.0231481 -6.82996 0
M  V30 10327 O 988.605 -0.575187 -8.0184 0
M  V30 10328 H 988.337 0.280199 -0.615194 0
M  V30 10329 H 990.891 0.218111 -2.04239 0
M  V30 10330 H 989.121 2.65392 -2.81254 0
M  V30 10331 H 990.81 2.4963 -3.20062 0
M  V30 10332 H 991.576 0.606545 -4.81192 0
M  V30 10333 H 987.455 1.71161 -4.28048 0
M  V30 10334 H 990.999 -0.464333 -6.96053 0
M  V30 10335 H 986.896 0.646924 -6.4225 0
M  V30 10336 H 987.664 -0.471284 -8.17142 0
M  V30 10337 N 990.327 1.50405 0.470755 0
M  V30 10338 C 991.274 1.69293 1.56871 0
M  V30 10339 C 992.244 0.534248 1.57274 0
M  V30 10340 O 993.429 0.764855 1.74799 0
M  V30 10341 C 990.569 1.79338 2.94842 0
M  V30 10342 C 989.682 3.06709 3.04226 0
M  V30 10343 C 988.817 3.07548 4.33114 0
M  V30 10344 C 987.856 4.29372 4.36241 0
M  V30 10345 N 986.993 4.27949 5.56601 0
M  V30 10346 H 991.833 2.63029 1.40071 0
M  V30 10347 H 989.37 1.30386 0.681016 0
M  V30 10348 H 991.328 1.83143 3.74853 0
M  V30 10349 H 989.958 0.890411 3.10277 0
M  V30 10350 H 989.01 3.12374 2.17086 0
M  V30 10351 H 990.322 3.96684 3.02396 0
M  V30 10352 H 989.476 3.10084 5.21472 0
M  V30 10353 H 988.215 2.15404 4.37553 0
M  V30 10354 H 987.22 4.27048 3.4628 0
M  V30 10355 H 988.445 5.22743 4.33493 0
M  V30 10356 H 986.391 3.38658 5.61824 0
M  V30 10357 H 986.308 5.11692 5.56513 0
M  V30 10358 H 987.576 4.34631 6.47083 0
M  V30 10359 N 991.805 -0.723954 1.39988 0
M  V30 10360 C 992.752 -1.83803 1.39589 0
M  V30 10361 C 993.722 -1.64146 0.253996 0
M  V30 10362 O 994.907 -1.85398 0.450793 0
M  V30 10363 C 992.047 -3.21431 1.25604 0
M  V30 10364 C 991.16 -3.52717 2.49429 0
M  V30 10365 C 990.295 -4.79805 2.27949 0
M  V30 10366 C 989.334 -5.03968 3.47394 0
M  V30 10367 N 988.471 -6.22266 3.25161 0
M  V30 10368 H 993.311 -1.83479 2.34818 0
M  V30 10369 H 990.848 -0.896396 1.16633 0
M  V30 10370 H 992.806 -4.00892 1.15504 0
M  V30 10371 H 991.436 -3.21005 0.339986 0
M  V30 10372 H 990.488 -2.67872 2.7009 0
M  V30 10373 H 991.8 -3.66486 3.38363 0
M  V30 10374 H 990.954 -5.67268 2.15155 0
M  V30 10375 H 989.693 -4.68229 1.36428 0
M  V30 10376 H 988.698 -4.14963 3.60674 0
M  V30 10377 H 989.923 -5.17422 4.39831 0
M  V30 10378 H 987.869 -6.11957 2.36314 0
M  V30 10379 H 987.786 -6.36673 4.07656 0
M  V30 10380 H 989.054 -7.12539 3.16083 0
M  V30 10381 N 993.283 -1.25346 -0.955304 0
M  V30 10382 C 994.699 -1.02154 -1.22625 0
M  V30 10383 C 994.899 0.26206 -1.99789 0
M  V30 10384 O 993.955 0.974958 -2.32918 0
M  V30 10385 C 995.268 -2.2443 -2.00129 0
M  V30 10386 C 996.816 -2.29185 -2.13174 0
M  V30 10387 C 997.291 -3.51117 -2.94077 0
M  V30 10388 N 998.782 -3.51509 -3.01655 0
M  V30 10389 C 999.517 -4.42517 -3.64645 0
M  V30 10390 N 999.013 -5.43796 -4.29252 0
M  V30 10391 N 1000.81 -4.302 -3.61779 0
M  V30 10392 H 992.957 -2.07812 -0.439071 0
M  V30 10393 H 995.22 -0.91258 -0.256715 0
M  V30 10394 H 994.926 -3.17717 -1.50827 0
M  V30 10395 H 994.8 -2.27548 -3.00835 0
M  V30 10396 H 997.187 -1.36422 -2.61674 0
M  V30 10397 H 997.268 -2.30087 -1.11775 0
M  V30 10398 H 996.912 -4.44201 -2.46268 0
M  V30 10399 H 996.842 -3.4746 -3.95701 0
M  V30 10400 H 999.333 -2.78245 -2.55711 0
M  V30 10401 H 999.646 -6.09453 -4.75171 0
M  V30 10402 H 997.991 -5.4767 -4.27882 0
M  V30 10403 H 1001.18 -3.50304 -3.10491 0
M  V30 10404 H 1001.36 -5.01323 -4.10584 0
M  V30 10405 N 994.761 1.15782 -1.06922 0
M  V30 10406 C 995.691 2.22538 -0.707045 0
M  V30 10407 C 996.672 1.67371 0.303471 0
M  V30 10408 O 997.857 1.9339 0.177189 0
M  V30 10409 C 994.987 3.47158 -0.0994269 0
M  V30 10410 C 993.941 4.15257 -1.03661 0
M  V30 10411 C 993.267 5.33902 -0.291974 0
M  V30 10412 C 994.567 4.65516 -2.36837 0
M  V30 10413 H 996.261 2.53089 -1.59958 0
M  V30 10414 H 993.807 1.21649 -0.770552 0
M  V30 10415 H 995.76 4.21073 0.165852 0
M  V30 10416 H 994.484 3.15926 0.828155 0
M  V30 10417 H 993.143 3.43276 -1.28674 0
M  V30 10418 H 992.791 4.98926 0.638928 0
M  V30 10419 H 992.491 5.80407 -0.916613 0
M  V30 10420 H 994.015 6.1059 -0.0343915 0
M  V30 10421 H 995.429 5.30981 -2.16175 0
M  V30 10422 H 993.826 5.22666 -2.94856 0
M  V30 10423 H 994.896 3.81387 -2.99453 0
M  V30 10424 N 996.239 0.8527 1.3254 0
M  V30 10425 C 997.464 0.468157 2.02047 0
M  V30 10426 C 997.889 -0.926967 1.63673 0
M  V30 10427 O 997.247 -1.60855 0.836378 0
M  V30 10428 C 997.295 0.612519 3.5536 0
M  V30 10429 O 996.399 -0.355506 4.10865 0
M  V30 10430 H 995.74 0.188401 0.636711 0
M  V30 10431 H 998.27 1.15135 1.6913 0
M  V30 10432 H 998.28 0.499315 4.04933 0
M  V30 10433 H 996.955 1.62988 3.82632 0
M  V30 10434 H 995.532 -0.198703 3.7237 0
M  V30 10435 N 997.718 -1.45297 0.610449 0
M  V30 10436 C 998.964 -2.02518 0.106917 0
M  V30 10437 C 999.297 -1.47747 -1.26034 0
M  V30 10438 O 998.572 -0.65329 -1.832 0
M  V30 10439 C 998.855 -3.6003 0.0710975 0
M  V30 10440 C 998.708 -4.25128 1.46922 0
M  V30 10441 C 1000.03 -4.35778 -0.61524 0
M  V30 10442 H 997.146 -0.735896 0.040327 0
M  V30 10443 H 999.788 -1.73117 0.782968 0
M  V30 10444 H 997.938 -3.85209 -0.504611 0
M  V30 10445 H 999.61 -4.11125 2.09223 0
M  V30 10446 H 997.853 -3.83418 2.02911 0
M  V30 10447 H 998.524 -5.34046 1.39637 0
M  V30 10448 H 1001 -4.1591 -0.125871 0
M  V30 10449 H 999.876 -5.45506 -0.609419 0
M  V30 10450 H 1000.14 -4.08859 -1.68186 0
M  V30 10451 N 999.196 -0.349774 -1.5367 0
M  V30 10452 C 1000.11 0.512421 -2.28935 0
M  V30 10453 C 1001.12 1.1065 -1.34286 0
M  V30 10454 O 1002.3 1.12084 -1.67329 0
M  V30 10455 C 999.363 1.64449 -3.05217 0
M  V30 10456 C 998.424 1.07956 -4.15505 0
M  V30 10457 C 997.657 2.15768 -4.88139 0
M  V30 10458 O 997.88 3.366 -4.60496 0
M  V30 10459 O 996.814 1.79712 -5.74445 0
M  V30 10460 H 1000.64 -0.0996001 -3.03537 0
M  V30 10461 H 998.225 -0.114629 -1.4896 0
M  V30 10462 H 1000.11 2.30302 -3.52901 0
M  V30 10463 H 998.782 2.24221 -2.33467 0
M  V30 10464 H 997.689 0.385381 -3.7211 0
M  V30 10465 H 999.022 0.526621 -4.89375 0
M  V30 10466 N 1000.67 1.57404 -0.0785433 0
M  V30 10467 C 1001.6 2.16131 0.883726 0
M  V30 10468 C 1002.58 1.09015 1.30575 0
M  V30 10469 O 1003.77 1.3708 1.37559 0
M  V30 10470 C 1000.9 2.72836 2.1489 0
M  V30 10471 C 999.854 3.85178 1.86605 0
M  V30 10472 C 999.18 4.28516 3.1981 0
M  V30 10473 C 1000.48 5.09118 1.16601 0
M  V30 10474 H 1002.17 2.9679 0.394484 0
M  V30 10475 H 999.72 1.42763 0.188304 0
M  V30 10476 H 1001.67 3.12567 2.8263 0
M  V30 10477 H 1000.4 1.89408 2.66068 0
M  V30 10478 H 999.056 3.45962 1.21268 0
M  V30 10479 H 998.704 3.42 3.68843 0
M  V30 10480 H 998.404 5.04249 3.01674 0
M  V30 10481 H 999.928 4.70868 3.88737 0
M  V30 10482 H 1001.34 5.46123 1.74422 0
M  V30 10483 H 999.739 5.90173 1.087 0
M  V30 10484 H 1000.81 4.8468 0.146138 0
M  V30 10485 N 1002.15 -0.195058 1.56388 0
M  V30 10486 C 1003.38 -0.931642 1.84738 0
M  V30 10487 C 1003.79 -1.76849 0.661046 0
M  V30 10488 O 1003.15 -1.78705 -0.370241 0
M  V30 10489 C 1003.2 -1.82777 3.11889 0
M  V30 10490 O 1002.92 -1.02471 4.25948 0
M  V30 10491 C 1004.42 -2.67603 3.53417 0
M  V30 10492 H 1001.64 -0.271821 0.613477 0
M  V30 10493 H 1004.19 -0.202299 2.03497 0
M  V30 10494 H 1002.34 -2.51074 2.95027 0
M  V30 10495 H 1002.76 -1.63539 4.98353 0
M  V30 10496 H 1004.23 -3.26138 4.45352 0
M  V30 10497 H 1004.71 -3.41314 2.76408 0
M  V30 10498 H 1005.31 -2.04678 3.7281 0
M  V30 10499 N 1003.63 -1.50653 -0.462772 0
M  V30 10500 C 1004.85 -1.66103 -1.24196 0
M  V30 10501 C 1005.28 -0.347421 -1.84864 0
M  V30 10502 O 1004.64 0.689673 -1.6767 0
M  V30 10503 C 1004.69 -2.76027 -2.32037 0
M  V30 10504 O 1003.79 -2.37859 -3.36893 0
M  V30 10505 H 1003.13 -0.554672 -0.365014 0
M  V30 10506 H 1005.66 -1.97076 -0.549734 0
M  V30 10507 H 1005.67 -2.99354 -2.77221 0
M  V30 10508 H 1004.35 -3.71361 -1.87253 0
M  V30 10509 H 1002.92 -2.2501 -2.97363 0
M  V30 10510 N 1005.11 0.71652 -1.4037 0
M  V30 10511 C 1006.33 1.51069 -1.42102 0
M  V30 10512 C 1006.76 1.88087 -0.0222387 0
M  V30 10513 O 1006.12 1.53204 0.969448 0
M  V30 10514 C 1006.16 2.76307 -2.31704 0
M  V30 10515 O 1005.27 3.72975 -1.75964 0
M  V30 10516 H 1004.61 0.455502 -0.483129 0
M  V30 10517 H 1007.14 0.882514 -1.84588 0
M  V30 10518 H 1007.15 3.24846 -2.46859 0
M  V30 10519 H 1005.82 2.48698 -3.3335 0
M  V30 10520 H 1004.4 3.31818 -1.70151 0
M  V30 10521 N 1006.59 1.25851 0.948643 0
M  V30 10522 C 1007.52 1.09248 2.06367 0
M  V30 10523 C 1008.5 -0.000205168 1.701 0
M  V30 10524 O 1009.68 0.170442 1.93451 0
M  V30 10525 C 1006.81 0.716777 3.39823 0
M  V30 10526 C 1005.77 1.76036 3.90122 0
M  V30 10527 C 1005.09 1.23918 5.20143 0
M  V30 10528 C 1006.39 3.16039 4.15833 0
M  V30 10529 H 1008.09 2.02518 2.20515 0
M  V30 10530 H 1005.63 0.975093 1.05962 0
M  V30 10531 H 1007.59 0.587531 4.17284 0
M  V30 10532 H 1006.31 -0.251626 3.25629 0
M  V30 10533 H 1004.97 1.87815 3.14835 0
M  V30 10534 H 1004.62 0.260836 5.02323 0
M  V30 10535 H 1004.32 1.93673 5.54765 0
M  V30 10536 H 1005.84 1.12245 6.00194 0
M  V30 10537 H 1007.25 3.0738 4.83933 0
M  V30 10538 H 1005.65 3.83317 4.61723 0
M  V30 10539 H 1006.72 3.62652 3.21887 0
M  V30 10540 N 1008.06 -1.15214 1.07534 0
M  V30 10541 C 1009.31 -1.86043 0.799629 0
M  V30 10542 C 1009.64 -1.82435 -0.674356 0
M  V30 10543 O 1008.89 -1.24379 -1.51091 0
M  V30 10544 C 1009.19 -3.34623 1.25547 0
M  V30 10545 C 1008.86 -3.58425 2.73573 0
M  V30 10546 C 1007.52 -3.6463 3.14004 0
M  V30 10547 C 1009.87 -3.67977 3.6911 0
M  V30 10548 C 1007.2 -3.779 4.48786 0
M  V30 10549 C 1009.55 -3.82771 5.03656 0
M  V30 10550 C 1008.22 -3.87222 5.43705 0
M  V30 10551 H 1007.49 -0.680781 0.292605 0
M  V30 10552 H 1010.13 -1.36149 1.34669 0
M  V30 10553 H 1008.44 -3.86737 0.627828 0
M  V30 10554 H 1010.14 -3.87836 1.01901 0
M  V30 10555 H 1006.73 -3.54238 2.41275 0
M  V30 10556 H 1010.91 -3.62482 3.39 0
M  V30 10557 H 1006.17 -3.79604 4.79281 0
M  V30 10558 H 1010.34 -3.89104 5.77556 0
M  V30 10559 H 1007.97 -3.97256 6.48145 0
M  V30 10560 N 1009.54 -0.859717 -1.32086 0
M  V30 10561 C 1010.96 -0.55025 -1.49815 0
M  V30 10562 C 1011.16 0.917966 -1.79376 0
M  V30 10563 O 1010.21 1.70073 -1.86632 0
M  V30 10564 C 1011.53 -1.44161 -2.6389 0
M  V30 10565 C 1013.08 -1.44257 -2.77775 0
M  V30 10566 C 1013.55 -2.31926 -3.94936 0
M  V30 10567 N 1015.04 -2.2975 -4.02206 0
M  V30 10568 C 1015.78 -2.9431 -4.92107 0
M  V30 10569 N 1015.27 -3.68001 -5.86981 0
M  V30 10570 N 1017.07 -2.83671 -4.8527 0
M  V30 10571 H 1009.22 -1.80987 -1.11164 0
M  V30 10572 H 1011.48 -0.773313 -0.548353 0
M  V30 10573 H 1011.19 -2.48588 -2.4879 0
M  V30 10574 H 1011.06 -1.13268 -3.59792 0
M  V30 10575 H 1013.45 -0.405923 -2.92295 0
M  V30 10576 H 1013.53 -1.79169 -1.82571 0
M  V30 10577 H 1013.17 -3.35661 -3.81174 0
M  V30 10578 H 1013.1 -1.94344 -4.89426 0
M  V30 10579 H 1015.59 -1.76177 -3.3432 0
M  V30 10580 H 1015.91 -4.14417 -6.52287 0
M  V30 10581 H 1014.25 -3.72109 -5.86992 0
M  V30 10582 H 1017.44 -2.25647 -4.10123 0
M  V30 10583 H 1017.61 -3.34267 -5.5513 0
M  V30 10584 N 1011.02 1.44971 -0.618145 0
M  V30 10585 C 1012.25 2.06527 -0.124165 0
M  V30 10586 C 1012.66 1.46097 1.19588 0
M  V30 10587 O 1012.02 0.57901 1.73071 0
M  V30 10588 C 1012.07 3.61498 0.0106701 0
M  V30 10589 O 1011.79 4.19675 -1.25716 0
M  V30 10590 C 1013.29 4.40061 0.534872 0
M  V30 10591 H 1010.51 0.666941 -0.0736935 0
M  V30 10592 H 1013.06 1.8605 -0.848871 0
M  V30 10593 H 1011.21 3.81282 0.685752 0
M  V30 10594 H 1011.63 5.12972 -1.09362 0
M  V30 10595 H 1013.1 5.48963 0.57827 0
M  V30 10596 H 1013.58 4.10587 1.55931 0
M  V30 10597 H 1014.18 4.25167 -0.10652 0
M  V30 10598 N 1012.5 0.357919 1.53482 0
M  V30 10599 C 1013.41 -0.500273 2.29204 0
M  V30 10600 C 1014.42 -1.09936 1.3487 0
M  V30 10601 O 1015.6 -1.11195 1.67921 0
M  V30 10602 C 1012.67 -1.62828 3.06085 0
M  V30 10603 C 1011.73 -1.05751 4.16071 0
M  V30 10604 C 1010.96 -2.13176 4.89277 0
M  V30 10605 O 1011.18 -3.34153 4.62274 0
M  V30 10606 O 1010.12 -1.76663 5.7539 0
M  V30 10607 H 1013.94 0.115696 3.0348 0
M  V30 10608 H 1011.53 0.122527 1.48897 0
M  V30 10609 H 1013.41 -2.28427 3.54117 0
M  V30 10610 H 1012.08 -2.22979 2.34653 0
M  V30 10611 H 1010.99 -0.365642 3.72309 0
M  V30 10612 H 1012.32 -0.500661 4.89647 0
M  V30 10613 N 1013.98 -1.5736 0.0868897 0
M  V30 10614 C 1015.39 -1.81356 -0.443499 0
M  V30 10615 C 1015.74 -1.00192 -1.68689 0
M  V30 10616 O 1014.86 -0.228863 -2.15186 0
M  V30 10617 C 1015.46 -3.28941 -0.811387 0
M  V30 10618 C 1014.02 -3.53729 -1.28656 0
M  V30 10619 C 1013.16 -2.75891 -0.279153 0
M  V30 10620 H 1016.12 -1.55594 0.312427 0
M  V30 10621 H 1016.14 -3.41815 -1.6716 0
M  V30 10622 H 1015.65 -3.87987 0.0937598 0
M  V30 10623 H 1013.75 -3.00005 -2.2097 0
M  V30 10624 H 1013.86 -4.62396 -1.25406 0
M  V30 10625 H 1012.23 -2.4311 -0.759595 0
M  V30 10626 H 1013.01 -3.37682 0.618529 0
M  V30 10627 N 1015.45 0.186762 -1.56489 0
M  V30 10628 C 1016.39 1.25971 -1.9028 0
M  V30 10629 C 1017.37 1.43543 -0.763822 0
M  V30 10630 O 1018.55 1.58799 -1.01564 0
M  V30 10631 C 1015.68 2.62507 -2.14028 0
M  V30 10632 C 1014.72 2.61758 -3.36727 0
M  V30 10633 S 1015.56 2.12366 -4.9159 0
M  V30 10634 C 1016.71 3.5071 -5.18414 0
M  V30 10635 H 1016.94 0.971203 -2.80989 0
M  V30 10636 H 1014.48 0.390636 -1.49377 0
M  V30 10637 H 1016.44 3.41098 -2.28391 0
M  V30 10638 H 1015.1 2.88564 -1.24054 0
M  V30 10639 H 1014.29 3.62173 -3.50495 0
M  V30 10640 H 1013.89 1.91254 -3.214 0
M  V30 10641 H 1016.18 4.46622 -5.09445 0
M  V30 10642 H 1017.13 3.41829 -6.20128 0
M  V30 10643 H 1017.53 3.46008 -4.46026 0
M  V30 10644 N 1016.93 1.50896 0.454776 0
M  V30 10645 C 1017.9 1.70377 1.53312 0
M  V30 10646 C 1018.9 0.57408 1.50203 0
M  V30 10647 O 1020.09 0.841374 1.52534 0
M  V30 10648 C 1017.22 1.74411 2.92905 0
M  V30 10649 H 1018.41 2.66599 1.37349 0
M  V30 10650 H 1015.96 1.40622 0.68228 0
M  V30 10651 H 1016.7 0.799408 3.14293 0
M  V30 10652 H 1016.48 2.56496 2.96568 0
M  V30 10653 H 1017.97 1.91382 3.71164 0
M  V30 10654 N 1018.41 -0.709066 1.40748 0
M  V30 10655 C 1019.66 -1.46993 1.40587 0
M  V30 10656 C 1020.01 -1.92397 0.00986301 0
M  V30 10657 O 1019.3 -1.65712 -0.961772 0
M  V30 10658 C 1019.5 -2.70543 2.33541 0
M  V30 10659 C 1019.33 -2.37222 3.82041 0
M  V30 10660 C 1018.1 -2.28244 4.50813 0
M  V30 10661 C 1020.3 -2.01069 4.73367 0
M  V30 10662 N 1018.28 -1.87667 5.84512 0
M  V30 10663 C 1019.65 -1.71144 5.95911 0
M  V30 10664 C 1021.7 -1.87761 4.6114 0
M  V30 10665 C 1020.41 -1.2925 7.07592 0
M  V30 10666 C 1022.43 -1.47271 5.7277 0
M  V30 10667 C 1021.79 -1.18249 6.94404 0
M  V30 10668 H 1017.89 -0.535708 0.569685 0
M  V30 10669 H 1020.48 -0.821669 1.76513 0
M  V30 10670 H 1018.65 -3.33109 1.99733 0
M  V30 10671 H 1020.38 -3.36927 2.24192 0
M  V30 10672 H 1017.14 -2.46199 4.04578 0
M  V30 10673 H 1017.56 -1.69899 6.55335 0
M  V30 10674 H 1022.2 -2.08858 3.67611 0
M  V30 10675 H 1019.92 -1.06896 8.00999 0
M  V30 10676 H 1023.51 -1.37544 5.65308 0
M  V30 10677 H 1022.39 -0.873897 7.79316 0
M  V30 10678 N 1019.89 -1.26353 -0.941956 0
M  V30 10679 C 1020.84 -1.07654 -2.06188 0
M  V30 10680 C 1021.83 -0.00369741 -1.694 0
M  V30 10681 O 1023.04 -0.160316 -1.79285 0
M  V30 10682 H 1019.41 -0.331274 -0.675101 0
M  V30 10683 H 1021.38 -2.02566 -2.19111 0
M  V30 10684 C 1020.13 -0.725436 -3.40048 0
M  V30 10685 H 1019.46 -1.54283 -3.68832 0
M  V30 10686 H 1020.9 -0.634383 -4.19227 0
M  V30 10687 C 1019.35 0.569369 -3.32054 0
M  V30 10688 O 1019.88 1.60791 -3.68116 0
M  V30 10689 N 1018.09 0.559714 -2.85159 0
M  V30 10690 H 1017.64 -0.285817 -2.56009 0
M  V30 10691 H 1017.6 1.42617 -2.80193 0
M  V30 10692 N 1021.37 1.14642 -1.08144 0
M  V30 10693 C 1022.28 2.23257 -0.720668 0
M  V30 10694 C 1023.29 1.71866 0.271648 0
M  V30 10695 O 1024.47 2.01064 0.116266 0
M  V30 10696 C 1021.53 3.46447 -0.132542 0
M  V30 10697 C 1020.6 4.12789 -1.17913 0
M  V30 10698 C 1019.83 5.30099 -0.618971 0
M  V30 10699 O 1020.05 5.6762 0.562418 0
M  V30 10700 O 1018.99 5.86154 -1.36774 0
M  V30 10701 H 1022.81 2.56463 -1.62667 0
M  V30 10702 H 1020.4 1.22521 -0.854932 0
M  V30 10703 H 1022.28 4.20959 0.19277 0
M  V30 10704 H 1020.95 3.14971 0.746662 0
M  V30 10705 H 1019.86 3.40163 -1.55693 0
M  V30 10706 H 1021.19 4.48365 -2.03051 0
M  V30 10707 N 1022.85 0.866709 1.31628 0
M  V30 10708 C 1024.07 0.49039 2.01004 0
M  V30 10709 C 1024.49 -0.916244 1.65077 0
M  V30 10710 O 1023.85 -1.59975 0.8783 0
M  V30 10711 C 1023.9 0.634011 3.55897 0
M  V30 10712 O 1023.62 1.98525 3.90537 0
M  V30 10713 C 1025.12 0.258277 4.42547 0
M  V30 10714 H 1022.34 0.191421 0.643117 0
M  V30 10715 H 1024.88 1.16698 1.67934 0
M  V30 10716 H 1023.04 0.00501801 3.874 0
M  V30 10717 H 1023.45 1.99067 4.85255 0
M  V30 10718 H 1024.93 0.409733 5.50477 0
M  V30 10719 H 1025.4 -0.802301 4.3181 0
M  V30 10720 H 1026.01 0.862837 4.16456 0
M  V30 10721 N 1024.32 -1.44642 0.625825 0
M  V30 10722 C 1025.29 -2.29085 -0.072526 0
M  V30 10723 C 1026.29 -1.40755 -0.777467 0
M  V30 10724 O 1027.48 -1.62684 -0.622861 0
M  V30 10725 C 1024.61 -3.22212 -1.1132 0
M  V30 10726 H 1025.8 -2.92317 0.670124 0
M  V30 10727 H 1023.35 -1.51466 0.38571 0
M  V30 10728 H 1024.09 -2.63819 -1.88601 0
M  V30 10729 H 1023.87 -3.87299 -0.611709 0
M  V30 10730 H 1025.36 -3.8566 -1.60175 0
M  V30 10731 N 1025.8 -0.366053 -1.5329 0
M  V30 10732 C 1027.08 0.279902 -1.93587 0
M  V30 10733 C 1027.46 1.66352 -1.29963 0
M  V30 10734 O 1026.81 2.23845 -0.458895 0
M  V30 10735 C 1027.02 0.329634 -3.4744 0
M  V30 10736 C 1028.36 0.569754 -4.2076 0
M  V30 10737 O 1029.39 0.410823 -3.53823 0
M  V30 10738 O 1028.25 0.879262 -5.3938 0
M  V30 10739 H 1025.34 0.16802 -0.809752 0
M  V30 10740 H 1027.89 -0.418871 -1.64449 0
M  V30 10741 H 1026.66 -0.640434 -3.86023 0
M  V30 10742 H 1026.28 1.07428 -3.82812 0
M  V30 10743 N 1027.28 1.57312 -0.0952337 0
M  V30 10744 C 1028.21 2.17056 0.860753 0
M  V30 10745 C 1029.19 1.10394 1.29411 0
M  V30 10746 O 1030.38 1.38532 1.36098 0
M  V30 10747 C 1027.51 2.751 2.11984 0
M  V30 10748 C 1026.46 3.87136 1.8251 0
M  V30 10749 C 1025.79 4.31883 3.15247 0
M  V30 10750 C 1027.09 5.10326 1.11194 0
M  V30 10751 H 1028.78 2.97192 0.362983 0
M  V30 10752 H 1026.33 1.42955 0.173151 0
M  V30 10753 H 1028.28 3.15547 2.79299 0
M  V30 10754 H 1027 1.92219 2.64044 0
M  V30 10755 H 1025.66 3.47229 1.17592 0
M  V30 10756 H 1025.31 3.45893 3.65195 0
M  V30 10757 H 1025.01 5.0742 2.96309 0
M  V30 10758 H 1026.53 4.74964 3.83721 0
M  V30 10759 H 1027.95 5.47942 1.6862 0
M  V30 10760 H 1026.34 5.91293 1.02435 0
M  V30 10761 H 1027.41 4.84807 0.0947227 0
M  V30 10762 N 1028.76 -0.17846 1.56586 0
M  V30 10763 C 1030.01 -0.894464 1.81228 0
M  V30 10764 C 1030.33 -1.83089 0.671062 0
M  V30 10765 O 1029.6 -1.93439 -0.309557 0
M  V30 10766 H 1028.18 -0.333288 0.668527 0
M  V30 10767 H 1030.84 -0.179986 1.94067 0
M  V30 10768 H 1029.93 -1.47565 2.75011 0
M  V30 10769 N 1030.24 -1.51135 -0.446768 0
M  V30 10770 C 1031.17 -1.74709 -1.54916 0
M  V30 10771 C 1032.15 -0.596628 -1.59293 0
M  V30 10772 O 1033.33 -0.838356 -1.75172 0
M  V30 10773 C 1030.46 -1.86353 -2.9307 0
M  V30 10774 C 1029.42 -3.01725 -3.03556 0
M  V30 10775 C 1028.74 -2.9854 -4.43597 0
M  V30 10776 C 1030.04 -4.41848 -2.7851 0
M  V30 10777 H 1031.74 -2.67014 -1.3544 0
M  V30 10778 H 1029.28 -1.28489 -0.650131 0
M  V30 10779 H 1031.23 -2.01428 -3.70141 0
M  V30 10780 H 1029.96 -0.906887 -3.13756 0
M  V30 10781 H 1028.62 -2.86339 -2.28922 0
M  V30 10782 H 1028.27 -2.00673 -4.61237 0
M  V30 10783 H 1027.97 -3.76008 -4.51544 0
M  V30 10784 H 1029.49 -3.15696 -5.22655 0
M  V30 10785 H 1030.9 -4.57633 -3.45319 0
M  V30 10786 H 1029.3 -5.2095 -2.97877 0
M  V30 10787 H 1030.37 -4.52536 -1.74182 0
M  V30 10788 N 1031.71 0.701592 -1.41122 0
M  V30 10789 C 1032.99 1.45569 -1.30648 0
M  V30 10790 C 1033.37 2.10988 0.068744 0
M  V30 10791 O 1032.72 2.01228 1.08257 0
M  V30 10792 C 1032.93 2.48003 -2.45551 0
M  V30 10793 C 1034.28 3.13431 -2.86437 0
M  V30 10794 O 1035.3 2.58327 -2.45247 0
M  V30 10795 O 1034.16 4.13221 -3.57646 0
M  V30 10796 H 1031.25 0.648 -0.513834 0
M  V30 10797 H 1033.8 0.73258 -1.53073 0
M  V30 10798 H 1032.57 1.98276 -3.37346 0
M  V30 10799 H 1032.19 3.27832 -2.24971 0
M  V30 10800 N 1033.19 1.2685 0.935242 0
M  V30 10801 C 1034.44 1.12132 1.67658 0
M  V30 10802 C 1034.75 -0.333839 1.9273 0
M  V30 10803 O 1035.96 -0.601801 2.64746 0
M  V30 10804 C 1034.42 1.95873 3.0193 0
M  V30 10805 C 1034.02 3.46 2.84584 0
M  V30 10806 C 1035.77 1.89781 3.79715 0
M  V30 10807 C 1033.67 4.21966 4.14365 0
M  V30 10808 H 1032.6 0.416035 0.628833 0
M  V30 10809 H 1035.26 1.51209 1.03962 0
M  V30 10810 H 1033.64 1.49633 3.66641 0
M  V30 10811 H 1034.81 4.00049 2.28687 0
M  V30 10812 H 1033.13 3.53391 2.20236 0
M  V30 10813 H 1035.72 2.43819 4.75875 0
M  V30 10814 H 1036.07 0.869797 4.07112 0
M  V30 10815 H 1036.6 2.33875 3.21788 0
M  V30 10816 H 1033.34 5.2526 3.9215 0
M  V30 10817 H 1032.86 3.72696 4.69955 0
M  V30 10818 H 1034.54 4.30734 4.82781 0
M  V30 10819 N 1034.67 -1.14067 1.0875 0
M  V30 10820 C 1035.92 -1.84819 0.817698 0
M  V30 10821 C 1036.24 -1.83545 -0.658488 0
M  V30 10822 O 1035.51 -1.28633 -1.47751 0
M  V30 10823 H 1034.09 -0.68433 0.299502 0
M  V30 10824 H 1036.75 -1.38208 1.37421 0
M  V30 10825 H 1035.85 -2.89541 1.16501 0
M  V30 10826 N 1036.15 -0.873678 -1.31166 0
M  V30 10827 C 1037.11 -0.337069 -2.26708 0
M  V30 10828 C 1038.11 0.51406 -1.52362 0
M  V30 10829 O 1039.3 0.322834 -1.71182 0
M  V30 10830 C 1036.43 0.520897 -3.36897 0
M  V30 10831 H 1037.63 -1.18056 -2.75686 0
M  V30 10832 H 1035.18 -0.649577 -1.42163 0
M  V30 10833 H 1035.91 1.38543 -2.93217 0
M  V30 10834 H 1035.7 -0.0886015 -3.92 0
M  V30 10835 H 1037.19 0.888497 -4.08039 0
M  V30 10836 N 1037.63 1.44308 -0.633487 0
M  V30 10837 C 1038.56 2.28943 0.108474 0
M  V30 10838 C 1039.57 1.41415 0.806582 0
M  V30 10839 O 1040.76 1.65544 0.667634 0
M  V30 10840 C 1037.86 3.17845 1.1759 0
M  V30 10841 C 1037.03 4.33802 0.559842 0
M  V30 10842 C 1036.09 5.03722 1.52154 0
M  V30 10843 O 1035.12 5.5966 1.03776 0
M  V30 10844 N 1036.32 5.05392 2.85586 0
M  V30 10845 H 1039.09 2.93262 -0.617879 0
M  V30 10846 H 1036.65 1.54781 -0.474819 0
M  V30 10847 H 1038.64 3.61485 1.81963 0
M  V30 10848 H 1037.21 2.55261 1.80445 0
M  V30 10849 H 1036.43 3.93325 -0.262559 0
M  V30 10850 H 1037.72 5.08637 0.128942 0
M  V30 10851 H 1037.11 4.61282 3.27468 0
M  V30 10852 H 1035.67 5.52813 3.45313 0
M  V30 10853 N 1039.1 0.374177 1.53094 0
M  V30 10854 C 1040.35 -0.212396 2.00981 0
M  V30 10855 C 1040.67 -1.48576 1.26293 0
M  V30 10856 O 1039.94 -1.92206 0.378642 0
M  V30 10857 H 1038.52 -0.0814763 0.742543 0
M  V30 10858 H 1041.19 0.502389 1.88314 0
M  V30 10859 H 1040.28 -0.433316 3.09077 0
M  V30 10860 N 1040.58 -1.57259 0.103575 0
M  V30 10861 C 1041.49 -2.18018 -0.866327 0
M  V30 10862 C 1042.51 -1.15198 -1.30404 0
M  V30 10863 O 1043.68 -1.47605 -1.37021 0
M  V30 10864 C 1040.75 -2.75533 -2.10434 0
M  V30 10865 C 1039.81 -3.93337 -1.72002 0
M  V30 10866 C 1039.04 -4.481 -2.89901 0
M  V30 10867 O 1039.27 -4.01784 -4.04877 0
M  V30 10868 O 1038.2 -5.39004 -2.67877 0
M  V30 10869 H 1042.03 -3.01322 -0.379338 0
M  V30 10870 H 1039.61 -1.48907 -0.121228 0
M  V30 10871 H 1041.49 -3.12259 -2.8297 0
M  V30 10872 H 1040.17 -1.9527 -2.58169 0
M  V30 10873 H 1039.08 -3.61408 -0.966193 0
M  V30 10874 H 1040.41 -4.74989 -1.29022 0
M  V30 10875 N 1042.06 0.170153 -1.56679 0
M  V30 10876 C 1043.47 0.732502 -1.7173 0
M  V30 10877 C 1043.82 1.82736 -0.71428 0
M  V30 10878 O 1042.95 2.16044 0.124102 0
M  V30 10879 C 1043.54 1.33548 -3.11368 0
M  V30 10880 C 1042.1 1.84464 -3.281 0
M  V30 10881 C 1041.25 0.724069 -2.6768 0
M  V30 10882 H 1044.2 -0.0552543 -1.58604 0
M  V30 10883 H 1044.22 2.20519 -3.10083 0
M  V30 10884 H 1043.73 0.5384 -3.84347 0
M  V30 10885 H 1041.83 2.66813 -2.6008 0
M  V30 10886 H 1041.95 1.98928 -4.35849 0
M  V30 10887 H 1040.31 1.14481 -2.27522 0
M  V30 10888 H 1041.09 -0.0611861 -3.43245 0
M  V30 10889 N 1043.54 1.5137 0.438746 0
M  V30 10890 C 1044.47 1.75528 1.53987 0
M  V30 10891 C 1045.45 0.605067 1.58975 0
M  V30 10892 O 1046.63 0.847634 1.74725 0
M  V30 10893 C 1043.76 1.87904 2.92078 0
M  V30 10894 C 1042.72 3.0333 3.01951 0
M  V30 10895 C 1042.04 3.00888 4.42007 0
M  V30 10896 C 1043.34 4.43319 2.76163 0
M  V30 10897 H 1045.04 2.67728 1.34022 0
M  V30 10898 H 1042.58 1.28831 0.643308 0
M  V30 10899 H 1044.54 2.03388 3.69068 0
M  V30 10900 H 1043.26 0.923514 3.13271 0
M  V30 10901 H 1041.92 2.87549 2.274 0
M  V30 10902 H 1041.57 2.03116 4.60166 0
M  V30 10903 H 1041.27 3.78397 4.49544 0
M  V30 10904 H 1042.79 3.18464 5.20973 0
M  V30 10905 H 1044.21 4.59458 3.42887 0
M  V30 10906 H 1042.6 5.22523 2.9511 0
M  V30 10907 H 1043.67 4.53453 1.71779 0
M  V30 10908 N 1045.02 -0.694098 1.41492 0
M  V30 10909 C 1046.26 -1.45127 1.4065 0
M  V30 10910 C 1046.59 -1.94993 0.0170289 0
M  V30 10911 O 1045.86 -1.71799 -0.941372 0
M  V30 10912 H 1044.44 -0.538493 0.51772 0
M  V30 10913 H 1047.1 -0.821441 1.76744 0
M  V30 10914 H 1046.19 -2.31372 2.0946 0
M  V30 10915 N 1046.49 -1.27344 -0.928501 0
M  V30 10916 C 1047.72 -1.16278 -1.70772 0
M  V30 10917 C 1048.13 0.283131 -1.8707 0
M  V30 10918 O 1047.48 1.20466 -1.38685 0
M  V30 10919 C 1047.54 -1.77313 -3.1273 0
M  V30 10920 C 1047.2 -3.26488 -3.19773 0
M  V30 10921 C 1048.2 -4.23133 -3.02083 0
M  V30 10922 C 1045.88 -3.67182 -3.42757 0
M  V30 10923 C 1047.88 -5.5845 -3.07267 0
M  V30 10924 C 1045.56 -5.02629 -3.47574 0
M  V30 10925 C 1046.56 -5.98072 -3.29847 0
M  V30 10926 O 1046.25 -7.3105 -3.34397 0
M  V30 10927 H 1045.98 -0.405215 -0.541089 0
M  V30 10928 H 1048.54 -1.68707 -1.17163 0
M  V30 10929 H 1046.77 -1.19361 -3.67818 0
M  V30 10930 H 1048.46 -1.60972 -3.72616 0
M  V30 10931 H 1049.22 -3.93031 -2.84168 0
M  V30 10932 H 1045.1 -2.93369 -3.55606 0
M  V30 10933 H 1048.64 -6.32924 -2.93348 0
M  V30 10934 H 1044.54 -5.32387 -3.65013 0
M  V30 10935 H 1045.31 -7.39488 -3.50857 0
M  V30 10936 N 1047.97 1.13488 -1.09353 0
M  V30 10937 C 1049.39 1.36739 -0.823086 0
M  V30 10938 C 1049.59 1.93476 0.562963 0
M  V30 10939 O 1048.64 2.15374 1.31796 0
M  V30 10940 C 1049.96 2.31943 -1.91371 0
M  V30 10941 C 1051.51 2.4556 -1.94085 0
M  V30 10942 C 1051.98 3.44072 -3.02289 0
M  V30 10943 N 1053.47 3.51622 -3.01524 0
M  V30 10944 C 1054.21 4.27724 -3.8189 0
M  V30 10945 N 1053.7 5.06987 -4.72161 0
M  V30 10946 N 1055.5 4.23018 -3.70152 0
M  V30 10947 H 1047.65 0.75012 -1.98713 0
M  V30 10948 H 1049.91 0.392564 -0.862901 0
M  V30 10949 H 1049.62 1.97408 -2.91072 0
M  V30 10950 H 1049.49 3.31952 -1.79131 0
M  V30 10951 H 1051.88 2.79382 -0.950234 0
M  V30 10952 H 1051.96 1.45479 -2.10403 0
M  V30 10953 H 1051.6 3.10981 -4.01564 0
M  V30 10954 H 1051.53 4.43956 -2.83214 0
M  V30 10955 H 1054.02 2.95066 -2.36103 0
M  V30 10956 H 1054.34 5.6236 -5.30067 0
M  V30 10957 H 1052.68 5.06222 -4.76197 0
M  V30 10958 H 1055.87 3.60171 -2.98989 0
M  V30 10959 H 1056.04 4.82075 -4.33022 0
M  V30 10960 N 1049.45 0.880621 1.30701 0
M  V30 10961 C 1050.38 0.301443 2.27209 0
M  V30 10962 C 1051.4 -0.541533 1.53529 0
M  V30 10963 O 1052.59 -0.361791 1.74795 0
M  V30 10964 C 1049.69 -0.59038 3.33718 0
M  V30 10965 C 1048.86 0.222549 4.36833 0
M  V30 10966 C 1047.92 -0.599083 5.22779 0
M  V30 10967 O 1046.94 -0.0233267 5.69195 0
M  V30 10968 N 1048.15 -1.90904 5.48211 0
M  V30 10969 H 1050.91 1.13083 2.77547 0
M  V30 10970 H 1048.47 0.743168 1.43835 0
M  V30 10971 H 1050.46 -1.14599 3.88135 0
M  V30 10972 H 1049.03 -1.32044 2.83343 0
M  V30 10973 H 1048.25 0.959606 3.82342 0
M  V30 10974 H 1049.54 0.779965 5.02786 0
M  V30 10975 H 1048.94 -2.3998 5.12275 0
M  V30 10976 H 1047.5 -2.4122 6.05521 0
M  V30 10977 N 1050.93 -1.4397 0.641131 0
M  V30 10978 C 1052.21 -1.95436 0.0800918 0
M  V30 10979 C 1052.59 -1.58282 -1.39678 0
M  V30 10980 O 1051.93 -0.861867 -2.11623 0
M  V30 10981 C 1052.14 -3.47589 0.313531 0
M  V30 10982 C 1053.49 -4.2407 0.212034 0
M  V30 10983 O 1054.52 -3.55353 0.245434 0
M  V30 10984 O 1053.38 -5.46356 0.125455 0
M  V30 10985 H 1050.47 -0.826834 -0.0165735 0
M  V30 10986 H 1053.02 -1.5397 0.71353 0
M  V30 10987 H 1051.79 -3.67716 1.33793 0
M  V30 10988 H 1051.41 -3.96025 -0.353563 0
M  V30 10989 N 1052.41 -0.382291 -1.52893 0
M  V30 10990 C 1053.68 0.259354 -1.93873 0
M  V30 10991 C 1054.06 1.64964 -1.3172 0
M  V30 10992 O 1053.41 2.23345 -0.482611 0
M  V30 10993 C 1053.62 0.292765 -3.4777 0
M  V30 10994 C 1054.97 0.525095 -4.21341 0
M  V30 10995 O 1055.99 0.373272 -3.54239 0
M  V30 10996 O 1054.85 0.822004 -5.40283 0
M  V30 10997 H 1051.95 0.159422 -0.811489 0
M  V30 10998 H 1054.49 -0.436289 -1.63996 0
M  V30 10999 H 1053.27 -0.681341 -3.85323 0
M  V30 11000 H 1052.89 1.03362 -3.8393 0
M  V30 11001 N 1053.89 1.57202 -0.111913 0
M  V30 11002 C 1055.3 1.82039 0.414591 0
M  V30 11003 C 1055.65 1.02863 1.67074 0
M  V30 11004 O 1054.77 0.263068 2.14795 0
M  V30 11005 C 1055.37 3.3019 0.758953 0
M  V30 11006 C 1053.93 3.55732 1.23012 0
M  V30 11007 C 1053.07 2.76301 0.235226 0
M  V30 11008 H 1056.02 1.55078 -0.337142 0
M  V30 11009 H 1056.05 3.44431 1.61701 0
M  V30 11010 H 1055.56 3.87788 -0.155473 0
M  V30 11011 H 1053.66 3.03483 2.16169 0
M  V30 11012 H 1053.77 4.64333 1.18034 0
M  V30 11013 H 1052.14 2.44287 0.720822 0
M  V30 11014 H 1052.92 3.36655 -0.672173 0
M  V30 11015 N 1055.36 -0.161842 1.56767 0
M  V30 11016 C 1056.59 -0.896274 1.87034 0
M  V30 11017 C 1057.01 -1.74617 0.699314 0
M  V30 11018 O 1056.37 -1.77861 -0.351435 0
M  V30 11019 C 1056.42 -1.74105 3.15784 0
M  V30 11020 O 1055.52 -2.84372 2.98674 0
M  V30 11021 H 1054.86 -0.250523 0.614926 0
M  V30 11022 H 1057.39 -0.157127 2.03996 0
M  V30 11023 H 1057.4 -2.13907 3.4743 0
M  V30 11024 H 1056.08 -1.11684 4.00624 0
M  V30 11025 H 1054.66 -2.48084 2.78404 0
M  V30 11026 N 1056.84 -1.516 -0.430713 0
M  V30 11027 C 1058.07 -1.68169 -1.20011 0
M  V30 11028 C 1058.48 -0.381406 -1.85316 0
M  V30 11029 O 1057.82 0.6506 -1.71793 0
M  V30 11030 C 1057.88 -2.7454 -2.32095 0
M  V30 11031 C 1057.55 -4.16942 -1.87104 0
M  V30 11032 C 1058.55 -5.01503 -1.37078 0
M  V30 11033 C 1056.23 -4.63075 -1.94594 0
M  V30 11034 C 1058.22 -6.3026 -0.951362 0
M  V30 11035 C 1055.91 -5.91827 -1.52264 0
M  V30 11036 C 1056.91 -6.75247 -1.02618 0
M  V30 11037 O 1056.6 -8.01591 -0.608905 0
M  V30 11038 H 1056.33 -0.567361 -0.367528 0
M  V30 11039 H 1058.88 -1.98819 -0.515759 0
M  V30 11040 H 1057.11 -2.39219 -3.03828 0
M  V30 11041 H 1058.8 -2.79921 -2.93937 0
M  V30 11042 H 1059.57 -4.67063 -1.30681 0
M  V30 11043 H 1055.45 -3.98262 -2.32182 0
M  V30 11044 H 1058.99 -6.95323 -0.563163 0
M  V30 11045 H 1054.89 -6.2578 -1.58333 0
M  V30 11046 H 1055.66 -8.15201 -0.73416 0
M  V30 11047 N 1058.32 0.686584 -1.41858 0
M  V30 11048 C 1059.74 0.998283 -1.24525 0
M  V30 11049 C 1059.94 2.01006 -0.141007 0
M  V30 11050 O 1058.99 2.47667 0.491648 0
M  V30 11051 C 1060.3 1.51432 -2.59786 0
M  V30 11052 C 1061.85 1.6327 -2.67043 0
M  V30 11053 C 1062.33 2.18274 -4.02642 0
M  V30 11054 N 1063.82 2.25622 -4.04535 0
M  V30 11055 C 1064.55 2.69229 -5.06264 0
M  V30 11056 N 1064.05 3.12375 -6.1838 0
M  V30 11057 N 1065.84 2.68873 -4.93623 0
M  V30 11058 H 1057.99 0.0164825 -2.12394 0
M  V30 11059 H 1060.26 0.0698613 -0.945422 0
M  V30 11060 H 1059.96 0.845426 -3.41388 0
M  V30 11061 H 1059.84 2.49502 -2.82894 0
M  V30 11062 H 1062.22 2.29269 -1.85794 0
M  V30 11063 H 1062.3 0.637221 -2.47736 0
M  V30 11064 H 1061.95 1.52887 -4.84343 0
M  V30 11065 H 1061.88 3.18591 -4.19294 0
M  V30 11066 H 1064.37 1.95186 -3.23591 0
M  V30 11067 H 1064.68 3.44301 -6.91864 0
M  V30 11068 H 1063.03 3.10262 -6.21902 0
M  V30 11069 H 1066.22 2.34521 -4.05114 0
M  V30 11070 H 1066.39 3.02539 -5.7304 0
M  V30 11071 N 1059.8 1.27835 0.921735 0
M  V30 11072 C 1061.02 1.17465 1.70929 0
M  V30 11073 C 1061.45 -0.264171 1.86236 0
M  V30 11074 O 1060.81 -1.19124 1.36671 0
M  V30 11075 C 1060.85 1.8697 3.08342 0
M  V30 11076 O 1059.96 1.17173 3.95404 0
M  V30 11077 H 1059.3 0.408206 0.523702 0
M  V30 11078 H 1061.83 1.69013 1.15307 0
M  V30 11079 H 1061.84 1.94564 3.58621 0
M  V30 11080 H 1060.51 2.91633 2.96518 0
M  V30 11081 H 1059.09 1.17688 3.53842 0
M  V30 11082 N 1061.28 -1.12907 1.09954 0
M  V30 11083 C 1062.52 -1.84306 0.838912 0
M  V30 11084 C 1062.85 -1.83825 -0.635508 0
M  V30 11085 O 1062.11 -1.27556 -1.48418 0
M  V30 11086 C 1062.4 -3.31885 1.32616 0
M  V30 11087 C 1062.07 -3.52542 2.81114 0
M  V30 11088 C 1060.73 -3.57888 3.21667 0
M  V30 11089 C 1063.08 -3.60065 3.76833 0
M  V30 11090 C 1060.41 -3.68296 4.567 0
M  V30 11091 C 1062.76 -3.72001 5.11662 0
M  V30 11092 C 1061.43 -3.75602 5.51797 0
M  V30 11093 H 1060.7 -0.674422 0.30698 0
M  V30 11094 H 1063.35 -1.33261 1.37527 0
M  V30 11095 H 1061.65 -3.85318 0.709719 0
M  V30 11096 H 1063.35 -3.85588 1.10105 0
M  V30 11097 H 1059.94 -3.4904 2.48735 0
M  V30 11098 H 1064.12 -3.55209 3.46612 0
M  V30 11099 H 1059.38 -3.69352 4.87226 0
M  V30 11100 H 1063.55 -3.76765 5.8568 0
M  V30 11101 H 1061.18 -3.83419 6.56425 0
M  V30 11102 N 1062.75 -0.88754 -1.30232 0
M  V30 11103 C 1063.7 -0.327649 -2.25633 0
M  V30 11104 C 1064.69 0.545362 -1.51376 0
M  V30 11105 O 1065.88 0.389366 -1.72664 0
M  V30 11106 C 1063.01 0.454546 -3.40277 0
M  V30 11107 C 1062.09 -0.432698 -4.21887 0
M  V30 11108 N 1062.49 -1.53434 -4.81966 0
M  V30 11109 C 1060.78 -0.228275 -4.45415 0
M  V30 11110 C 1061.48 -2.08292 -5.43129 0
M  V30 11111 N 1060.46 -1.37754 -5.25856 0
M  V30 11112 H 1064.26 -1.16937 -2.69635 0
M  V30 11113 H 1061.78 -0.737232 -1.44702 0
M  V30 11114 H 1063.77 0.87231 -4.07672 0
M  V30 11115 H 1062.43 1.29367 -2.97816 0
M  V30 11116 H 1063.44 -1.91717 -4.81108 0
M  V30 11117 H 1060.12 0.573475 -4.13543 0
M  V30 11118 H 1061.51 -3.00818 -6.00798 0
M  V30 11119 N 1064.23 1.43628 -0.648757 0
M  V30 11120 C 1065.46 2.06732 -0.166284 0
M  V30 11121 C 1065.88 1.48281 1.15734 0
M  V30 11122 O 1065.24 0.591018 1.71396 0
M  V30 11123 C 1065.29 3.60502 -0.0838732 0
M  V30 11124 O 1064.39 4.01186 0.955185 0
M  V30 11125 H 1063.73 0.657479 -0.0928285 0
M  V30 11126 H 1066.26 1.84208 -0.890421 0
M  V30 11127 H 1066.27 4.07875 0.100923 0
M  V30 11128 H 1064.95 4.02424 -1.05014 0
M  V30 11129 H 1063.53 3.65412 0.743537 0
M  V30 11130 N 1065.71 0.390394 1.52688 0
M  V30 11131 C 1066.96 -0.191067 2.01195 0
M  V30 11132 C 1067.28 -1.47229 1.27862 0
M  V30 11133 O 1066.55 -1.91793 0.399007 0
M  V30 11134 H 1065.13 -0.073596 0.743366 0
M  V30 11135 H 1067.79 0.522334 1.8777 0
M  V30 11136 H 1066.89 -0.40051 3.0952 0
M  V30 11137 N 1067.19 -1.57141 0.120249 0
M  V30 11138 C 1068.44 -1.94852 -0.536387 0
M  V30 11139 C 1068.76 -1.00452 -1.67136 0
M  V30 11140 O 1068.03 -0.061053 -1.95805 0
M  V30 11141 H 1066.61 -0.719411 -0.201138 0
M  V30 11142 H 1069.27 -1.93977 0.189482 0
M  V30 11143 H 1068.37 -2.97917 -0.930145 0
M  V30 11144 N 1068.67 0.153526 -1.5685 0
M  V30 11145 C 1069.9 0.881055 -1.86872 0
M  V30 11146 C 1070.3 1.75547 -0.705692 0
M  V30 11147 O 1069.65 1.8064 0.333888 0
M  V30 11148 C 1069.71 1.79429 -3.11521 0
M  V30 11149 C 1069.37 1.0977 -4.43621 0
M  V30 11150 C 1070.37 0.454693 -5.17908 0
M  V30 11151 C 1068.06 1.08915 -4.9035 0
M  V30 11152 C 1070.05 -0.187562 -6.37124 0
M  V30 11153 C 1067.74 0.443084 -6.09492 0
M  V30 11154 C 1068.73 -0.194154 -6.82724 0
M  V30 11155 O 1068.42 -0.829995 -7.99604 0
M  V30 11156 H 1068.15 0.260486 -0.623797 0
M  V30 11157 H 1070.71 0.153024 -2.04829 0
M  V30 11158 H 1068.94 2.5631 -2.89555 0
M  V30 11159 H 1070.63 2.39321 -3.27842 0
M  V30 11160 H 1071.39 0.453151 -4.82878 0
M  V30 11161 H 1067.27 1.57456 -4.33276 0
M  V30 11162 H 1070.82 -0.685542 -6.94223 0
M  V30 11163 H 1066.71 0.44227 -6.43983 0
M  V30 11164 H 1067.48 -0.731013 -8.15229 0
M  V30 11165 N 1070.14 1.51827 0.422667 0
M  V30 11166 C 1071.39 1.64893 1.16853 0
M  V30 11167 C 1071.71 0.37456 1.91369 0
M  V30 11168 O 1070.98 -0.610128 1.86157 0
M  V30 11169 H 1069.56 0.607744 0.434345 0
M  V30 11170 H 1072.23 1.88816 0.483159 0
M  V30 11171 H 1071.32 2.48361 1.89006 0
M  V30 11172 N 1071.62 -0.679052 1.4222 0
M  V30 11173 C 1072.55 -1.80455 1.41311 0
M  V30 11174 C 1073.57 -1.59767 0.312799 0
M  V30 11175 O 1074.76 -1.68964 0.575612 0
M  V30 11176 C 1071.86 -3.17492 1.18541 0
M  V30 11177 C 1071.03 -3.65066 2.40926 0
M  V30 11178 C 1070.09 -4.80823 2.13765 0
M  V30 11179 O 1069.11 -4.91587 2.86934 0
M  V30 11180 N 1070.32 -5.69233 1.13813 0
M  V30 11181 H 1073.08 -1.81722 2.38322 0
M  V30 11182 H 1070.64 -0.861988 1.37045 0
M  V30 11183 H 1072.63 -3.92581 0.982958 0
M  V30 11184 H 1071.2 -3.1115 0.300691 0
M  V30 11185 H 1070.42 -2.80702 2.76767 0
M  V30 11186 H 1071.71 -3.93593 3.22431 0
M  V30 11187 H 1071.11 -5.63185 0.532887 0
M  V30 11188 H 1069.67 -6.44152 0.995554 0
M  V30 11189 N 1073.1 -1.28322 -0.914942 0
M  V30 11190 C 1074.38 -1.06111 -1.64316 0
M  V30 11191 C 1074.76 0.399934 -2.07277 0
M  V30 11192 O 1074.11 1.38577 -1.81683 0
M  V30 11193 C 1074.32 -2.03461 -2.83557 0
M  V30 11194 C 1075.66 -2.33541 -3.54604 0
M  V30 11195 O 1076.69 -2.01536 -2.93704 0
M  V30 11196 O 1075.55 -2.88158 -4.64357 0
M  V30 11197 H 1072.64 -0.405451 -0.72079 0
M  V30 11198 H 1075.19 -1.39636 -0.964352 0
M  V30 11199 H 1073.96 -3.01938 -2.48896 0
M  V30 11200 H 1073.58 -1.70574 -3.59152 0
M  V30 11201 N 1074.58 1.12322 -1.10551 0
M  V30 11202 C 1075.54 2.16273 -0.758844 0
M  V30 11203 C 1076.54 1.59325 0.217294 0
M  V30 11204 O 1077.73 1.74199 -0.00601346 0
M  V30 11205 C 1074.86 3.40674 -0.124238 0
M  V30 11206 H 1076.06 2.48454 -1.6796 0
M  V30 11207 H 1073.61 1.2735 -0.906188 0
M  V30 11208 H 1074.34 3.14094 0.807194 0
M  V30 11209 H 1074.13 3.83284 -0.826772 0
M  V30 11210 H 1075.62 4.17474 0.102502 0
M  V30 11211 N 1076.06 0.894434 1.2976 0
M  V30 11212 C 1076.99 0.3847 2.30309 0
M  V30 11213 C 1077.97 -0.537486 1.61385 0
M  V30 11214 O 1079.15 -0.449332 1.8893 0
M  V30 11215 C 1076.28 -0.393311 3.45066 0
M  V30 11216 C 1075.24 0.437968 4.25753 0
M  V30 11217 C 1074.56 -0.467221 5.32655 0
M  V30 11218 C 1075.86 1.6851 4.9437 0
M  V30 11219 H 1077.56 1.22496 2.73194 0
M  V30 11220 H 1075.1 0.590471 1.31337 0
M  V30 11221 H 1077.06 -0.760614 4.14479 0
M  V30 11222 H 1075.78 -1.2673 3.0101 0
M  V30 11223 H 1074.44 0.787533 3.58041 0
M  V30 11224 H 1074.09 -1.33919 4.84845 0
M  V30 11225 H 1073.79 0.0852482 5.87538 0
M  V30 11226 H 1075.31 -0.830833 6.04921 0
M  V30 11227 H 1076.72 1.38784 5.56248 0
M  V30 11228 H 1075.12 2.17849 5.59162 0
M  V30 11229 H 1076.19 2.42412 4.19958 0
M  V30 11230 N 1077.53 -1.43282 0.656365 0
M  V30 11231 C 1078.78 -2.01378 0.170702 0
M  V30 11232 C 1079.1 -1.52063 -1.22073 0
M  V30 11233 O 1078.37 -0.73456 -1.81607 0
M  V30 11234 H 1076.95 -0.744577 0.0601168 0
M  V30 11235 H 1079.62 -1.75449 0.848739 0
M  V30 11236 H 1078.71 -3.11701 0.157745 0
M  V30 11237 N 1079.01 -0.398486 -1.52479 0
M  V30 11238 C 1079.95 0.476551 -2.23169 0
M  V30 11239 C 1080.92 1.05665 -1.23587 0
M  V30 11240 O 1082.11 1.10654 -1.52604 0
M  V30 11241 C 1079.24 1.66048 -2.95204 0
M  V30 11242 C 1078.28 1.20478 -4.0913 0
M  V30 11243 S 1079.11 0.178711 -5.35202 0
M  V30 11244 C 1080.27 1.36821 -6.10762 0
M  V30 11245 H 1080.5 -0.123704 -2.97043 0
M  V30 11246 H 1078.04 -0.182722 -1.53315 0
M  V30 11247 H 1079.99 2.33942 -3.37315 0
M  V30 11248 H 1078.66 2.23206 -2.20993 0
M  V30 11249 H 1077.85 2.08901 -4.58668 0
M  V30 11250 H 1077.45 0.604632 -3.6908 0
M  V30 11251 H 1079.74 2.2937 -6.37492 0
M  V30 11252 H 1080.69 0.913579 -7.02182 0
M  V30 11253 H 1081.09 1.58919 -5.41669 0
M  V30 11254 N 1080.49 1.57075 -0.12858 0
M  V30 11255 C 1081.77 1.87075 0.571162 0
M  V30 11256 C 1082.15 1.03141 1.84188 0
M  V30 11257 O 1081.5 0.113001 2.2822 0
M  V30 11258 C 1081.71 3.3838 0.854383 0
M  V30 11259 C 1083.05 4.07194 1.20326 0
M  V30 11260 O 1084.08 3.43454 0.944338 0
M  V30 11261 O 1082.94 5.19725 1.68963 0
M  V30 11262 H 1080.03 0.774764 0.289258 0
M  V30 11263 H 1082.58 1.68908 -0.163806 0
M  V30 11264 H 1081.35 3.91273 -0.0456925 0
M  V30 11265 H 1080.97 3.62012 1.64418 0
M  V30 11266 N 1081.97 -0.145205 1.5693 0
M  V30 11267 C 1083.38 -0.705089 1.72874 0
M  V30 11268 C 1083.73 -1.81577 0.743261 0
M  V30 11269 O 1082.86 -2.16214 -0.0897153 0
M  V30 11270 C 1083.45 -1.28578 3.13454 0
M  V30 11271 C 1082.01 -1.79221 3.30994 0
M  V30 11272 C 1081.16 -0.681392 2.68798 0
M  V30 11273 H 1084.11 0.0804798 1.58496 0
M  V30 11274 H 1084.13 -2.15558 3.13552 0
M  V30 11275 H 1083.64 -0.477186 3.85155 0
M  V30 11276 H 1081.74 -2.62642 2.64292 0
M  V30 11277 H 1081.86 -1.91969 4.38959 0
M  V30 11278 H 1080.22 -1.10847 2.29314 0
M  V30 11279 H 1081 0.115786 3.43105 0
M  V30 11280 N 1083.45 -1.52049 -0.414609 0
M  V30 11281 C 1084.38 -1.69712 -1.52555 0
M  V30 11282 C 1085.36 -0.544681 -1.53206 0
M  V30 11283 O 1086.54 -0.771358 -1.71995 0
M  V30 11284 C 1083.67 -1.73145 -2.91099 0
M  V30 11285 C 1082.72 -2.94624 -3.08382 0
M  V30 11286 S 1083.55 -4.55062 -2.82274 0
M  V30 11287 C 1084.7 -4.61274 -4.23057 0
M  V30 11288 H 1084.94 -2.63675 -1.37342 0
M  V30 11289 H 1082.47 -1.42018 -0.605824 0
M  V30 11290 H 1084.43 -1.75808 -3.70947 0
M  V30 11291 H 1083.09 -0.803198 -3.03657 0
M  V30 11292 H 1082.28 -2.93492 -4.0973 0
M  V30 11293 H 1081.88 -2.8982 -2.36391 0
M  V30 11294 H 1084.18 -4.38313 -5.16612 0
M  V30 11295 H 1085.12 -5.63188 -4.29214 0
M  V30 11296 H 1085.53 -3.90361 -4.07773 0
M  V30 11297 N 1084.93 0.6715 -1.42579 0
M  V30 11298 C 1085.86 1.79625 -1.40749 0
M  V30 11299 C 1086.84 1.6032 -0.271312 0
M  V30 11300 O 1088.02 1.82749 -0.46205 0
M  V30 11301 C 1085.15 3.16672 -1.20153 0
M  V30 11302 C 1084.19 3.54718 -2.36807 0
M  V30 11303 S 1085.03 3.56771 -3.99343 0
M  V30 11304 C 1086.18 4.96505 -3.81095 0
M  V30 11305 H 1086.42 1.80903 -2.35926 0
M  V30 11306 H 1083.95 0.842469 -1.2939 0
M  V30 11307 H 1085.91 3.95776 -1.08956 0
M  V30 11308 H 1084.57 3.12976 -0.265545 0
M  V30 11309 H 1083.76 4.54341 -2.18152 0
M  V30 11310 H 1083.36 2.82982 -2.44535 0
M  V30 11311 H 1085.65 5.84674 -3.4229 0
M  V30 11312 H 1086.6 5.20207 -4.80406 0
M  V30 11313 H 1087.01 4.69178 -3.13898 0
M  V30 11314 N 1086.4 1.28806 0.908124 0
M  V30 11315 C 1087.31 1.15079 2.04436 0
M  V30 11316 C 1088.33 0.076012 1.73834 0
M  V30 11317 O 1089.51 0.286421 1.99353 0
M  V30 11318 C 1086.57 0.819733 3.3687 0
M  V30 11319 C 1085.63 1.97746 3.81045 0
M  V30 11320 C 1084.86 1.66211 5.07158 0
M  V30 11321 O 1085.09 0.579092 5.67453 0
M  V30 11322 O 1084.02 2.5075 5.47182 0
M  V30 11323 H 1087.85 2.10477 2.18937 0
M  V30 11324 H 1085.43 1.08177 1.03044 0
M  V30 11325 H 1087.31 0.649304 4.16368 0
M  V30 11326 H 1085.99 -0.10454 3.23531 0
M  V30 11327 H 1084.9 2.20308 3.02349 0
M  V30 11328 H 1086.23 2.88264 3.98955 0
M  V30 11329 N 1087.88 -1.11734 1.11145 0
M  V30 11330 C 1088.83 -2.15789 0.736133 0
M  V30 11331 C 1089.82 -1.58813 -0.25832 0
M  V30 11332 O 1091.01 -1.76877 -0.0659078 0
M  V30 11333 C 1088.14 -3.4284 0.177597 0
M  V30 11334 C 1087.22 -4.06783 1.19953 0
M  V30 11335 N 1087.61 -4.45626 2.39271 0
M  V30 11336 C 1085.91 -4.33663 1.04176 0
M  V30 11337 C 1086.61 -4.95684 3.04422 0
M  V30 11338 N 1085.59 -4.91648 2.31912 0
M  V30 11339 H 1089.39 -2.43598 1.6443 0
M  V30 11340 H 1086.9 -1.28716 0.990247 0
M  V30 11341 H 1088.9 -4.16756 -0.109402 0
M  V30 11342 H 1087.56 -3.16498 -0.725201 0
M  V30 11343 H 1088.57 -4.37757 2.76747 0
M  V30 11344 H 1085.25 -4.17044 0.195132 0
M  V30 11345 H 1086.64 -5.35394 4.05959 0
M  V30 11346 N 1089.36 -0.901303 -1.29284 0
M  V30 11347 C 1090.27 -0.3849 -2.31421 0
M  V30 11348 C 1091.29 0.521163 -1.66012 0
M  V30 11349 O 1092.46 0.410356 -1.97175 0
M  V30 11350 C 1089.53 0.377804 -3.44635 0
M  V30 11351 C 1088.59 -0.559974 -4.25632 0
M  V30 11352 C 1087.82 0.166425 -5.3344 0
M  V30 11353 O 1088.04 1.39012 -5.53202 0
M  V30 11354 O 1086.98 -0.491875 -5.99887 0
M  V30 11355 H 1090.8 -1.2323 -2.77575 0
M  V30 11356 H 1088.39 -0.665683 -1.3375 0
M  V30 11357 H 1090.27 0.809041 -4.13561 0
M  V30 11358 H 1088.95 1.20124 -3.00586 0
M  V30 11359 H 1087.85 -1.04036 -3.59343 0
M  V30 11360 H 1089.19 -1.34987 -4.73328 0
M  V30 11361 N 1090.84 1.42931 -0.663954 0
M  V30 11362 C 1091.77 2.28089 0.0710318 0
M  V30 11363 C 1092.75 1.40446 0.819375 0
M  V30 11364 O 1093.93 1.69887 0.816738 0
M  V30 11365 C 1091.06 3.20079 1.10756 0
M  V30 11366 C 1090.11 4.24055 0.456045 0
M  V30 11367 S 1090.94 5.29813 -0.778356 0
M  V30 11368 C 1092.09 6.25371 0.257373 0
M  V30 11369 H 1092.33 2.90078 -0.651315 0
M  V30 11370 H 1089.86 1.47601 -0.453137 0
M  V30 11371 H 1091.82 3.7362 1.70055 0
M  V30 11372 H 1090.48 2.57248 1.80229 0
M  V30 11373 H 1089.67 4.88564 1.23779 0
M  V30 11374 H 1089.27 3.73947 -0.0630832 0
M  V30 11375 H 1091.57 6.68172 1.12037 0
M  V30 11376 H 1092.51 7.0722 -0.352969 0
M  V30 11377 H 1092.92 5.61324 0.597991 0
M  V30 11378 N 1092.32 0.406567 1.52266 0
M  V30 11379 C 1093.56 -0.169717 2.01386 0
M  V30 11380 C 1093.88 -1.45864 1.29417 0
M  V30 11381 O 1093.15 -1.9136 0.419327 0
M  V30 11382 H 1091.73 -0.0657075 0.744105 0
M  V30 11383 H 1094.4 0.542221 1.87206 0
M  V30 11384 H 1093.49 -0.367659 3.09927 0
M  V30 11385 N 1093.79 -1.57004 0.136909 0
M  V30 11386 C 1095.04 -1.9541 -0.51569 0
M  V30 11387 C 1095.36 -1.02219 -1.66061 0
M  V30 11388 O 1094.63 -0.0818172 -1.95729 0
M  V30 11389 H 1093.21 -0.721504 -0.193497 0
M  V30 11390 H 1095.88 -1.93765 0.210046 0
M  V30 11391 H 1094.97 -2.98887 -0.898494 0
M  V30 11392 N 1095.27 0.136881 -1.57004 0
M  V30 11393 C 1096.22 1.17411 -1.95445 0
M  V30 11394 C 1097.21 1.38019 -0.827015 0
M  V30 11395 O 1098.4 1.39412 -1.09057 0
M  V30 11396 C 1095.53 2.50525 -2.34717 0
M  V30 11397 C 1094.61 2.33467 -3.54054 0
M  V30 11398 N 1095 1.86184 -4.70286 0
M  V30 11399 C 1093.3 2.64185 -3.59336 0
M  V30 11400 C 1094 1.82411 -5.5236 0
M  V30 11401 N 1092.98 2.26098 -4.94349 0
M  V30 11402 H 1096.78 0.8008 -2.8278 0
M  V30 11403 H 1094.3 0.344831 -1.58697 0
M  V30 11404 H 1096.29 3.2552 -2.60465 0
M  V30 11405 H 1094.95 2.8863 -1.48738 0
M  V30 11406 H 1095.96 1.55998 -4.93847 0
M  V30 11407 H 1092.64 3.06096 -2.83922 0
M  V30 11408 H 1094.03 1.4726 -6.55564 0
M  V30 11409 N 1096.75 1.52266 0.40654 0
M  V30 11410 C 1097.7 1.72175 1.49465 0
M  V30 11411 C 1098.68 0.575668 1.50249 0
M  V30 11412 O 1099.88 0.832835 1.56182 0
M  V30 11413 C 1097.01 1.87818 2.87366 0
M  V30 11414 C 1096.09 3.08305 2.91219 0
M  V30 11415 N 1096.48 4.30967 2.64766 0
M  V30 11416 C 1094.78 3.08192 3.22388 0
M  V30 11417 C 1095.48 5.12455 2.75254 0
M  V30 11418 N 1094.46 4.47758 3.08242 0
M  V30 11419 H 1098.26 2.64653 1.27812 0
M  V30 11420 H 1095.77 1.50334 0.61428 0
M  V30 11421 H 1097.77 2.00198 3.65686 0
M  V30 11422 H 1096.43 0.965414 3.10016 0
M  V30 11423 H 1097.44 4.59397 2.39113 0
M  V30 11424 H 1094.12 2.26662 3.50615 0
M  V30 11425 H 1095.51 6.20186 2.58495 0
M  V30 11426 N 1098.23 -0.663929 1.42933 0
M  V30 11427 C 1099.64 -1.24484 1.39143 0
M  V30 11428 C 1099.99 -1.95993 0.0901142 0
M  V30 11429 O 1099.12 -2.00636 -0.810812 0
M  V30 11430 C 1099.71 -2.26402 2.52047 0
M  V30 11431 C 1098.27 -2.79995 2.51555 0
M  V30 11432 C 1097.42 -1.54475 2.30289 0
M  V30 11433 H 1100.37 -0.456619 1.51989 0
M  V30 11434 H 1100.39 -3.08361 2.22921 0
M  V30 11435 H 1099.9 -1.74328 3.46744 0
M  V30 11436 H 1098 -3.36161 1.60707 0
M  V30 11437 H 1098.11 -3.2827 3.48964 0
M  V30 11438 H 1096.48 -1.81437 1.78753 0
M  V30 11439 H 1097.26 -1.04351 3.27056 0
M  V30 11440 N 1099.71 -1.29285 -0.901281 0
M  V30 11441 C 1100.95 -1.16934 -1.64836 0
M  V30 11442 C 1101.28 0.279826 -1.92982 0
M  V30 11443 O 1100.55 1.19179 -1.55478 0
M  V30 11444 H 1099.13 -0.429768 -0.61099 0
M  V30 11445 H 1101.79 -1.62189 -1.08077 0
M  V30 11446 H 1100.88 -1.71821 -2.60545 0
M  V30 11447 N 1101.18 1.11143 -1.11736 0
M  V30 11448 C 1102.15 2.15456 -0.78174 0
M  V30 11449 C 1103.15 1.59547 0.200383 0
M  V30 11450 O 1104.34 1.74183 -0.0244893 0
M  V30 11451 C 1101.47 3.40523 -0.160364 0
M  V30 11452 H 1102.66 2.46658 -1.70586 0
M  V30 11453 H 1100.22 1.26381 -0.919644 0
M  V30 11454 H 1100.95 3.14932 0.773835 0
M  V30 11455 H 1100.74 3.82386 -0.867378 0
M  V30 11456 H 1102.23 4.17559 0.0582175 0
M  V30 11457 N 1102.66 0.908147 1.28804 0
M  V30 11458 C 1103.94 0.457561 1.90173 0
M  V30 11459 C 1104.32 -1.06333 1.82364 0
M  V30 11460 O 1103.67 -1.90892 1.25589 0
M  V30 11461 C 1103.88 0.981624 3.34911 0
M  V30 11462 C 1105.23 1.03037 4.11908 0
M  V30 11463 O 1106.25 0.929878 3.43848 0
M  V30 11464 O 1105.11 1.18257 5.33552 0
M  V30 11465 H 1102.2 0.144081 0.814352 0
M  V30 11466 H 1104.75 0.998565 1.37211 0
M  V30 11467 H 1103.52 2.02561 3.34791 0
M  V30 11468 H 1103.14 0.421122 3.95364 0
M  V30 11469 N 1104.14 -1.42577 0.671525 0
M  V30 11470 C 1105.37 -2.05625 0.20044 0
M  V30 11471 C 1105.78 -1.50524 -1.14626 0
M  V30 11472 O 1105.12 -0.638468 -1.72248 0
M  V30 11473 C 1105.18 -3.59459 0.0545385 0
M  V30 11474 C 1104.85 -4.37236 1.32943 0
M  V30 11475 C 1105.84 -4.68104 2.26219 0
M  V30 11476 C 1103.53 -4.76932 1.57612 0
M  V30 11477 C 1105.52 -5.37599 3.42442 0
M  V30 11478 C 1103.21 -5.46167 2.74125 0
M  V30 11479 C 1104.21 -5.76425 3.66364 0
M  V30 11480 O 1103.9 -6.44242 4.8084 0
M  V30 11481 H 1103.63 -0.66918 0.0957843 0
M  V30 11482 H 1106.18 -1.83759 0.917701 0
M  V30 11483 H 1104.41 -3.79971 -0.718271 0
M  V30 11484 H 1106.1 -4.04152 -0.376251 0
M  V30 11485 H 1106.87 -4.37939 2.08409 0
M  V30 11486 H 1102.75 -4.52776 0.866887 0
M  V30 11487 H 1106.29 -5.61133 4.14458 0
M  V30 11488 H 1102.19 -5.75749 2.91861 0
M  V30 11489 H 1102.96 -6.62732 4.80342 0
M  V30 11490 N 1105.62 -0.414636 -1.52048 0
M  V30 11491 C 1107.03 0.0537107 -1.86623 0
M  V30 11492 C 1107.38 1.43955 -1.3331 0
M  V30 11493 O 1106.51 2.05616 -0.674606 0
M  V30 11494 C 1107.1 0.104241 -3.3864 0
M  V30 11495 C 1105.66 0.516936 -3.72833 0
M  V30 11496 C 1104.81 -0.305042 -2.75617 0
M  V30 11497 H 1107.76 -0.631469 -1.45596 0
M  V30 11498 H 1107.78 0.918395 -3.6925 0
M  V30 11499 H 1107.29 -0.904523 -3.77412 0
M  V30 11500 H 1105.39 1.53214 -3.39641 0
M  V30 11501 H 1105.5 0.2575 -4.78408 0
M  V30 11502 H 1103.87 0.233416 -2.53628 0
M  V30 11503 H 1104.65 -1.31226 -3.1723 0
M  V30 11504 N 1107.1 1.56929 -0.145233 0
M  V30 11505 C 1108.34 1.96358 0.50707 0
M  V30 11506 C 1108.68 1.03005 1.64632 0
M  V30 11507 O 1107.95 0.0721045 1.94366 0
M  V30 11508 C 1108.23 3.45502 1.01492 0
M  V30 11509 C 1108.09 4.49633 -0.122708 0
M  V30 11510 C 1109.41 3.97103 1.89729 0
M  V30 11511 H 1106.52 0.713958 0.182848 0
M  V30 11512 H 1109.17 1.8865 -0.226102 0
M  V30 11513 H 1107.32 3.52202 1.6397 0
M  V30 11514 H 1108.99 4.55013 -0.758988 0
M  V30 11515 H 1107.23 4.26691 -0.782109 0
M  V30 11516 H 1107.9 5.51318 0.27432 0
M  V30 11517 H 1110.38 3.92871 1.37082 0
M  V30 11518 H 1109.25 5.01927 2.22173 0
M  V30 11519 H 1109.52 3.39354 2.83357 0
M  V30 11520 N 1108.58 -0.128553 1.57075 0
M  V30 11521 C 1109.85 -0.867766 1.75297 0
M  V30 11522 C 1110.23 -1.98508 0.718176 0
M  V30 11523 O 1109.58 -2.2702 -0.259616 0
M  V30 11524 C 1109.79 -1.39326 3.19983 0
M  V30 11525 C 1111.14 -1.84939 3.82208 0
M  V30 11526 O 1112.16 -1.49027 3.23527 0
M  V30 11527 O 1111.02 -2.51227 4.85332 0
M  V30 11528 H 1108.12 -0.411393 0.717415 0
M  V30 11529 H 1110.66 -0.113038 1.69323 0
M  V30 11530 H 1109.43 -0.591172 3.86809 0
M  V30 11531 H 1109.06 -2.21097 3.30457 0
M  V30 11532 N 1110.05 -1.5248 -0.398459 0
M  V30 11533 C 1111.3 -1.66731 -1.14215 0
M  V30 11534 C 1111.62 -0.404957 -1.90749 0
M  V30 11535 O 1110.89 0.580434 -1.87104 0
M  V30 11536 H 1109.47 -0.614577 -0.424622 0
M  V30 11537 H 1112.13 -1.89561 -0.453059 0
M  V30 11538 H 1111.23 -2.51336 -1.85031 0
M  V30 11539 N 1111.53 0.65634 -1.43283 0
M  V30 11540 C 1112.46 1.78101 -1.51004 0
M  V30 11541 C 1113.44 1.66138 -0.36498 0
M  V30 11542 O 1114.63 1.85281 -0.581778 0
M  V30 11543 C 1111.76 3.16511 -1.42961 0
M  V30 11544 C 1110.71 3.43233 -2.55685 0
M  V30 11545 C 1110.04 4.81411 -2.32696 0
M  V30 11546 C 1111.34 3.38288 -3.97943 0
M  V30 11547 H 1113.03 1.71896 -2.45137 0
M  V30 11548 H 1110.58 0.825575 -1.17984 0
M  V30 11549 H 1112.53 3.94941 -1.46968 0
M  V30 11550 H 1111.25 3.23439 -0.45332 0
M  V30 11551 H 1109.91 2.67173 -2.51026 0
M  V30 11552 H 1109.56 4.85011 -1.33317 0
M  V30 11553 H 1109.26 5.00251 -3.08257 0
M  V30 11554 H 1110.79 5.62102 -2.38481 0
M  V30 11555 H 1112.2 4.06659 -4.04106 0
M  V30 11556 H 1110.6 3.68664 -4.73505 0
M  V30 11557 H 1111.67 2.36525 -4.23301 0
M  V30 11558 N 1113.01 1.29761 0.894412 0
M  V30 11559 C 1114.42 1.16275 1.46072 0
M  V30 11560 C 1114.77 -0.240123 1.94725 0
M  V30 11561 O 1113.9 -1.13606 1.84181 0
M  V30 11562 C 1114.49 2.10471 2.65494 0
M  V30 11563 C 1113.05 2.00992 3.18244 0
M  V30 11564 C 1112.2 2.01094 1.90936 0
M  V30 11565 H 1115.15 1.42169 0.705243 0
M  V30 11566 H 1115.17 1.68003 3.41402 0
M  V30 11567 H 1114.68 3.12566 2.30053 0
M  V30 11568 H 1112.78 1.02005 3.58365 0
M  V30 11569 H 1112.9 2.88916 3.82184 0
M  V30 11570 H 1111.26 1.45764 2.08866 0
M  V30 11571 H 1112.04 3.04902 1.57764 0
M  V30 11572 N 1114.49 -1.10549 1.12324 0
M  V30 11573 C 1115.76 -1.78968 0.789287 0
M  V30 11574 C 1116.14 -1.984 -0.721156 0
M  V30 11575 O 1115.49 -1.5761 -1.65443 0
M  V30 11576 C 1115.7 -3.12044 1.563 0
M  V30 11577 C 1117.05 -3.86939 1.74825 0
M  V30 11578 O 1118.07 -3.21761 1.52802 0
M  V30 11579 O 1116.93 -5.0392 2.11488 0
M  V30 11580 H 1114.03 -0.775617 0.286962 0
M  V30 11581 H 1116.57 -1.17209 1.2272 0
M  V30 11582 H 1115.35 -2.93313 2.59005 0
M  V30 11583 H 1114.97 -3.81521 1.11926 0
M  V30 11584 N 1115.97 -0.914965 -1.28321 0
M  V30 11585 C 1116.9 -0.421292 -2.29668 0
M  V30 11586 C 1117.88 0.511743 -1.6222 0
M  V30 11587 O 1119.06 0.419218 -1.89621 0
M  V30 11588 C 1116.19 0.338364 -3.45648 0
M  V30 11589 C 1115.15 -0.505646 -4.25003 0
M  V30 11590 C 1114.47 0.382421 -5.33331 0
M  V30 11591 C 1115.77 -1.76354 -4.91626 0
M  V30 11592 H 1117.47 -1.26826 -2.71211 0
M  V30 11593 H 1115.01 -0.611291 -1.30381 0
M  V30 11594 H 1116.96 0.694578 -4.15636 0
M  V30 11595 H 1115.69 1.21925 -3.02988 0
M  V30 11596 H 1114.35 -0.844395 -3.56743 0
M  V30 11597 H 1114 1.26189 -4.86914 0
M  V30 11598 H 1113.7 -0.17871 -5.87328 0
M  V30 11599 H 1115.22 0.73449 -6.06166 0
M  V30 11600 H 1116.63 -1.47616 -5.5397 0
M  V30 11601 H 1115.03 -2.26717 -5.55625 0
M  V30 11602 H 1116.1 -2.49063 -4.16048 0
M  V30 11603 N 1117.44 1.42219 -0.679077 0
M  V30 11604 C 1118.69 2.01081 -0.202718 0
M  V30 11605 C 1119.01 1.53986 1.19639 0
M  V30 11606 O 1118.28 0.763359 1.80415 0
M  V30 11607 H 1116.86 0.743526 -0.0719547 0
M  V30 11608 H 1119.52 1.74077 -0.876544 0
M  V30 11609 H 1118.62 3.11411 -0.207314 0
M  V30 11610 N 1118.92 0.422693 1.51826 0
M  V30 11611 C 1119.87 -0.413725 2.24215 0
M  V30 11612 C 1120.86 -1.00228 1.2587 0
M  V30 11613 O 1122.05 -0.922845 1.51038 0
M  V30 11614 C 1119.18 -1.52244 3.07696 0
M  V30 11615 C 1118.26 -0.943999 4.1346 0
M  V30 11616 N 1118.65 -0.0934117 5.05714 0
M  V30 11617 C 1116.95 -1.21311 4.29185 0
M  V30 11618 C 1117.65 0.229891 5.81246 0
M  V30 11619 N 1116.63 -0.382753 5.42251 0
M  V30 11620 H 1120.43 0.242283 2.929 0
M  V30 11621 H 1117.94 0.233902 1.60707 0
M  V30 11622 H 1119.94 -2.13438 3.5812 0
M  V30 11623 H 1118.6 -2.18093 2.40552 0
M  V30 11624 H 1119.61 0.271932 5.17186 0
M  V30 11625 H 1116.29 -1.87018 3.7327 0
M  V30 11626 H 1117.68 0.921159 6.65556 0
M  V30 11627 N 1120.4 -1.5685 0.153553 0
M  V30 11628 C 1121.36 -2.15894 -0.769564 0
M  V30 11629 C 1122.36 -1.10239 -1.17064 0
M  V30 11630 O 1123.55 -1.35845 -1.09049 0
M  V30 11631 C 1120.68 -2.72738 -2.04516 0
M  V30 11632 H 1121.88 -2.98807 -0.255842 0
M  V30 11633 H 1119.43 -1.56005 -0.0959279 0
M  V30 11634 H 1120.17 -1.9351 -2.60239 0
M  V30 11635 H 1119.95 -3.50042 -1.76672 0
M  V30 11636 H 1121.44 -3.18208 -2.70432 0
M  V30 11637 N 1121.88 0.120221 -1.57141 0
M  V30 11638 C 1122.81 1.1732 -1.96898 0
M  V30 11639 C 1123.82 1.37722 -0.868134 0
M  V30 11640 O 1125.01 1.36818 -1.14643 0
M  V30 11641 C 1122.11 2.53343 -2.25102 0
M  V30 11642 C 1121.28 2.53559 -3.56408 0
M  V30 11643 C 1120.34 3.71319 -3.72838 0
M  V30 11644 O 1119.37 3.54961 -4.44962 0
M  V30 11645 N 1120.57 4.89836 -3.11514 0
M  V30 11646 H 1123.34 0.835023 -2.87832 0
M  V30 11647 H 1120.9 0.309508 -1.58914 0
M  V30 11648 H 1122.89 3.30679 -2.3331 0
M  V30 11649 H 1121.46 2.79347 -1.403 0
M  V30 11650 H 1120.68 1.61946 -3.59398 0
M  V30 11651 H 1121.97 2.5076 -4.42716 0
M  V30 11652 H 1121.37 5.0603 -2.52884 0
M  V30 11653 H 1119.92 5.64853 -3.25246 0
M  V30 11654 N 1123.36 1.52689 0.390367 0
M  V30 11655 C 1124.63 1.58246 1.14968 0
M  V30 11656 C 1125.01 0.374808 2.07746 0
M  V30 11657 O 1124.36 -0.636969 2.19442 0
M  V30 11658 C 1124.57 2.92059 1.91056 0
M  V30 11659 C 1125.92 3.45745 2.46466 0
M  V30 11660 O 1126.94 2.93924 2.01214 0
M  V30 11661 O 1125.8 4.3628 3.29122 0
M  V30 11662 H 1122.9 0.638189 0.52597 0
M  V30 11663 H 1125.44 1.65024 0.39563 0
M  V30 11664 H 1124.21 3.71399 1.23201 0
M  V30 11665 H 1123.84 2.8866 2.73425 0
M  V30 11666 N 1124.83 -0.648732 1.43629 0
M  V30 11667 C 1125.76 -1.77298 1.51947 0
M  V30 11668 C 1126.75 -1.65942 0.373785 0
M  V30 11669 O 1127.93 -1.8497 0.591596 0
M  V30 11670 C 1125.06 -3.15749 1.44638 0
M  V30 11671 C 1124.01 -3.41872 2.57502 0
M  V30 11672 C 1123.34 -4.8017 2.35246 0
M  V30 11673 C 1124.64 -3.36173 3.99731 0
M  V30 11674 H 1126.33 -1.70594 2.46045 0
M  V30 11675 H 1123.88 -0.819306 1.1842 0
M  V30 11676 H 1125.83 -3.94156 1.4906 0
M  V30 11677 H 1124.56 -3.23194 0.470466 0
M  V30 11678 H 1123.22 -2.65838 2.5244 0
M  V30 11679 H 1122.86 -4.84297 1.35887 0
M  V30 11680 H 1122.56 -4.9861 3.10906 0
M  V30 11681 H 1124.09 -5.6083 2.41459 0
M  V30 11682 H 1125.5 -4.0451 4.06257 0
M  V30 11683 H 1123.9 -3.66148 4.75453 0
M  V30 11684 H 1124.97 -2.34277 4.24549 0
M  V30 11685 N 1126.31 -1.30234 -0.887518 0
M  V30 11686 C 1127.25 -1.10726 -1.99537 0
M  V30 11687 C 1128.22 -0.0156237 -1.62592 0
M  V30 11688 O 1129.41 -0.168687 -1.87744 0
M  V30 11689 C 1126.53 -0.688185 -3.31635 0
M  V30 11690 C 1125.58 -1.78031 -3.87566 0
M  V30 11691 S 1126.41 -3.38219 -4.15172 0
M  V30 11692 C 1127.57 -2.98208 -5.50293 0
M  V30 11693 H 1127.8 -2.04516 -2.15778 0
M  V30 11694 H 1125.34 -1.14519 -1.0356 0
M  V30 11695 H 1127.29 -0.453124 -4.07991 0
M  V30 11696 H 1125.95 0.230315 -3.13254 0
M  V30 11697 H 1125.15 -1.43931 -4.83011 0
M  V30 11698 H 1124.75 -1.96952 -3.1794 0
M  V30 11699 H 1127.04 -2.4601 -6.31257 0
M  V30 11700 H 1127.98 -3.92551 -5.89329 0
M  V30 11701 H 1128.39 -2.36149 -5.12732 0
M  V30 11702 N 1127.79 1.09952 -1.12909 0
M  V30 11703 C 1129.07 1.78547 -0.798767 0
M  V30 11704 C 1129.45 1.9878 0.710624 0
M  V30 11705 O 1128.8 1.58485 1.64604 0
M  V30 11706 C 1129.01 3.1121 -1.57953 0
M  V30 11707 C 1130.35 3.86006 -1.76874 0
M  V30 11708 O 1131.38 3.20946 -1.54506 0
M  V30 11709 O 1130.24 5.02791 -2.14158 0
M  V30 11710 H 1127.33 0.774084 -0.291072 0
M  V30 11711 H 1129.88 1.16557 -1.2334 0
M  V30 11712 H 1128.65 2.91935 -2.60557 0
M  V30 11713 H 1128.27 3.80922 -1.13948 0
M  V30 11714 N 1129.27 0.921757 1.27833 0
M  V30 11715 C 1130.52 0.557974 1.94245 0
M  V30 11716 C 1130.84 -0.90268 1.72849 0
M  V30 11717 O 1130.11 -1.63915 1.07279 0
M  V30 11718 H 1128.69 0.203364 0.718785 0
M  V30 11719 H 1131.35 1.17286 1.5566 0
M  V30 11720 H 1130.45 0.759202 3.02725 0
M  V30 11721 N 1130.75 -1.41857 0.686609 0
M  V30 11722 C 1131.68 -2.33481 0.0298353 0
M  V30 11723 C 1132.66 -1.51329 -0.776756 0
M  V30 11724 O 1133.84 -1.79895 -0.731535 0
M  V30 11725 C 1130.97 -3.35065 -0.913707 0
M  V30 11726 C 1129.93 -4.2746 -0.214861 0
M  V30 11727 C 1129.25 -5.19346 -1.27215 0
M  V30 11728 C 1130.55 -5.14252 0.913367 0
M  V30 11729 H 1132.25 -2.8865 0.795067 0
M  V30 11730 H 1129.79 -1.38792 0.383785 0
M  V30 11731 H 1131.75 -3.98082 -1.38234 0
M  V30 11732 H 1130.47 -2.78226 -1.7105 0
M  V30 11733 H 1129.13 -3.65855 0.233651 0
M  V30 11734 H 1128.78 -4.58827 -2.06124 0
M  V30 11735 H 1128.48 -5.81996 -0.80961 0
M  V30 11736 H 1130 -5.85239 -1.74147 0
M  V30 11737 H 1131.41 -5.70887 0.525424 0
M  V30 11738 H 1129.81 -5.85796 1.30244 0
M  V30 11739 H 1130.88 -4.51949 1.75699 0
M  V30 11740 N 1132.22 -0.430739 -1.51599 0
M  V30 11741 C 1133.64 0.0339139 -1.86669 0
M  V30 11742 C 1133.99 1.42533 -1.34829 0
M  V30 11743 O 1133.11 2.04889 -0.696376 0
M  V30 11744 C 1133.71 0.0683174 -3.38731 0
M  V30 11745 C 1132.27 0.477363 -3.73361 0
M  V30 11746 C 1131.41 -0.334258 -2.75278 0
M  V30 11747 H 1134.36 -0.646875 -1.44918 0
M  V30 11748 H 1134.38 0.879179 -3.70204 0
M  V30 11749 H 1133.9 -0.944501 -3.76432 0
M  V30 11750 H 1132 1.49603 -3.41247 0
M  V30 11751 H 1132.11 0.206744 -4.78654 0
M  V30 11752 H 1130.47 0.206503 -2.53861 0
M  V30 11753 H 1131.26 -1.34583 -3.1582 0
M  V30 11754 N 1133.7 1.56767 -0.161869 0
M  V30 11755 C 1135.11 1.83265 0.356466 0
M  V30 11756 C 1135.46 1.08127 1.63716 0
M  V30 11757 O 1134.59 0.33127 2.13849 0
M  V30 11758 C 1135.18 3.32437 0.653521 0
M  V30 11759 C 1133.74 3.59465 1.11633 0
M  V30 11760 C 1132.89 2.76909 0.147204 0
M  V30 11761 H 1135.84 1.53926 -0.386308 0
M  V30 11762 H 1135.86 3.49401 1.50662 0
M  V30 11763 H 1135.37 3.87098 -0.278766 0
M  V30 11764 H 1133.48 3.10206 2.06404 0
M  V30 11765 H 1133.59 4.67853 1.03202 0
M  V30 11766 H 1131.95 2.46457 0.642739 0
M  V30 11767 H 1132.74 3.34346 -0.778938 0
M  V30 11768 N 1135.18 -0.111886 1.57202 0
M  V30 11769 C 1136.43 -0.816794 1.84859 0
M  V30 11770 C 1136.75 -1.80079 0.748113 0
M  V30 11771 O 1136.02 -1.94578 -0.227235 0
M  V30 11772 H 1134.6 -0.304633 0.682061 0
M  V30 11773 H 1137.26 -0.097513 1.94656 0
M  V30 11774 H 1136.36 -1.35768 2.81022 0
M  V30 11775 N 1136.66 -1.52894 -0.382264 0
M  V30 11776 C 1137.94 -1.58853 -1.14127 0
M  V30 11777 C 1138.32 -0.38582 -2.07544 0
M  V30 11778 O 1137.66 0.625323 -2.19777 0
M  V30 11779 C 1137.87 -2.93068 -1.89504 0
M  V30 11780 C 1139.22 -3.47048 -2.44629 0
M  V30 11781 O 1140.25 -2.94987 -1.99652 0
M  V30 11782 O 1139.1 -4.3802 -3.26804 0
M  V30 11783 H 1136.2 -0.640969 -0.522578 0
M  V30 11784 H 1138.74 -1.65231 -0.386873 0
M  V30 11785 H 1137.52 -3.72047 -1.2123 0
M  V30 11786 H 1137.14 -2.90106 -2.7189 0
M  V30 11787 N 1138.14 0.641106 -1.43971 0
M  V30 11788 C 1139.36 1.43324 -1.4991 0
M  V30 11789 C 1139.79 1.87705 -0.121908 0
M  V30 11790 O 1139.15 1.58127 0.886875 0
M  V30 11791 C 1139.19 2.63637 -2.46025 0
M  V30 11792 O 1138.3 3.63123 -1.95488 0
M  V30 11793 H 1137.64 0.429252 -0.506595 0
M  V30 11794 H 1140.17 0.783427 -1.89007 0
M  V30 11795 H 1140.18 3.11304 -2.63731 0
M  V30 11796 H 1138.85 2.30678 -3.46064 0
M  V30 11797 H 1137.43 3.22332 -1.87501 0
M  V30 11798 N 1139.62 1.30703 0.880598 0
M  V30 11799 C 1140.56 1.17369 2.00817 0
M  V30 11800 C 1141.56 0.0845159 1.69189 0
M  V30 11801 O 1142.76 0.245673 1.78316 0
M  V30 11802 H 1139.14 0.363107 0.658527 0
M  V30 11803 H 1141.11 2.12789 2.09197 0
M  V30 11804 C 1139.86 0.886851 3.362 0
M  V30 11805 H 1139.18 1.71704 3.61051 0
M  V30 11806 H 1140.62 0.83368 4.15723 0
M  V30 11807 C 1139.08 -0.410293 3.34392 0
M  V30 11808 O 1139.61 -1.43044 3.75368 0
M  V30 11809 N 1137.82 -0.423023 2.87505 0
M  V30 11810 H 1137.36 0.407637 2.54354 0
M  V30 11811 H 1137.32 -1.29086 2.86678 0
M  V30 11812 N 1141.09 -1.09351 1.1349 0
M  V30 11813 C 1142.03 -2.15852 0.770763 0
M  V30 11814 C 1143.04 -1.61468 -0.207866 0
M  V30 11815 O 1144.23 -1.78496 0.0124385 0
M  V30 11816 C 1141.33 -3.38681 0.121871 0
M  V30 11817 C 1140.5 -4.22477 1.13279 0
M  V30 11818 C 1139.56 -5.23728 0.509448 0
M  V30 11819 O 1138.59 -5.57052 1.16967 0
M  V30 11820 N 1139.79 -5.76041 -0.718159 0
M  V30 11821 H 1142.55 -2.47696 1.6872 0
M  V30 11822 H 1140.11 -1.25074 1.02801 0
M  V30 11823 H 1142.11 -4.03531 -0.307404 0
M  V30 11824 H 1140.68 -3.04718 -0.697527 0
M  V30 11825 H 1139.9 -3.53753 1.73933 0
M  V30 11826 H 1141.18 -4.75288 1.81601 0
M  V30 11827 H 1140.58 -5.51183 -1.27331 0
M  V30 11828 H 1139.14 -6.4262 -1.09008 0
M  V30 11829 N 1142.57 -0.928524 -1.27343 0
M  V30 11830 C 1143.5 -0.445627 -2.29208 0
M  V30 11831 C 1144.48 0.494508 -1.62753 0
M  V30 11832 O 1145.67 0.399082 -1.90055 0
M  V30 11833 C 1142.8 0.301684 -3.45987 0
M  V30 11834 C 1141.75 -0.550695 -4.24442 0
M  V30 11835 C 1141.08 0.325833 -5.33706 0
M  V30 11836 C 1142.38 -1.81559 -4.89728 0
M  V30 11837 H 1144.07 -1.29696 -2.69851 0
M  V30 11838 H 1141.62 -0.625085 -1.29725 0
M  V30 11839 H 1143.57 0.650455 -4.1635 0
M  V30 11840 H 1142.29 1.18705 -3.04264 0
M  V30 11841 H 1140.95 -0.882185 -3.55827 0
M  V30 11842 H 1140.6 1.21018 -4.88225 0
M  V30 11843 H 1140.3 -0.240994 -5.87106 0
M  V30 11844 H 1141.83 0.670156 -6.06911 0
M  V30 11845 H 1143.24 -1.53483 -5.52373 0
M  V30 11846 H 1141.64 -2.32598 -5.53189 0
M  V30 11847 H 1142.71 -2.53461 -4.13383 0
M  V30 11848 N 1144.05 1.41491 -0.694123 0
M  V30 11849 C 1145.01 2.2917 -0.0368562 0
M  V30 11850 C 1146.01 1.44305 0.709426 0
M  V30 11851 O 1147.2 1.6547 0.544533 0
M  V30 11852 C 1144.33 3.27156 0.958201 0
M  V30 11853 H 1145.53 2.88787 -0.808829 0
M  V30 11854 H 1143.08 1.49453 -0.457538 0
M  V30 11855 H 1143.82 2.72516 1.75799 0
M  V30 11856 H 1143.6 3.89776 0.426227 0
M  V30 11857 H 1145.09 3.92863 1.41592 0
M  V30 11858 N 1145.53 0.438773 1.51369 0
M  V30 11859 C 1146.77 -0.119657 2.03048 0
M  V30 11860 C 1147.13 -1.4026 1.317 0
M  V30 11861 O 1146.42 -1.86858 0.423612 0
M  V30 11862 C 1146.62 -0.39186 3.55245 0
M  V30 11863 C 1146.44 0.863149 4.41339 0
M  V30 11864 C 1145.21 1.39709 4.85602 0
M  V30 11865 C 1147.41 1.74969 4.83622 0
M  V30 11866 N 1145.39 2.60449 5.55913 0
M  V30 11867 C 1146.77 2.80313 5.53014 0
M  V30 11868 C 1148.82 1.76393 4.65607 0
M  V30 11869 C 1147.52 3.87029 6.06301 0
M  V30 11870 C 1149.55 2.82045 5.19812 0
M  V30 11871 C 1148.91 3.86109 5.89151 0
M  V30 11872 H 1145.01 -0.00458455 0.781987 0
M  V30 11873 H 1147.59 0.599764 1.85232 0
M  V30 11874 H 1145.77 -1.08032 3.73073 0
M  V30 11875 H 1147.5 -0.941775 3.93589 0
M  V30 11876 H 1144.25 0.950817 4.63957 0
M  V30 11877 H 1144.68 3.21678 5.95695 0
M  V30 11878 H 1149.32 0.972686 4.11459 0
M  V30 11879 H 1147.04 4.66991 6.59504 0
M  V30 11880 H 1150.62 2.84091 5.07724 0
M  V30 11881 H 1149.5 4.66518 6.30342 0
M  V30 11882 N 1147.01 -1.56678 0.170181 0
M  V30 11883 C 1148.25 -1.96849 -0.475064 0
M  V30 11884 C 1148.58 -1.05611 -1.6333 0
M  V30 11885 O 1147.84 -0.0899708 -1.95493 0
M  V30 11886 C 1148.13 -3.43103 -1.00076 0
M  V30 11887 C 1147.8 -4.50881 0.0414538 0
M  V30 11888 C 1146.46 -4.80082 0.327894 0
M  V30 11889 C 1148.81 -5.15791 0.748936 0
M  V30 11890 C 1146.14 -5.71491 1.32722 0
M  V30 11891 C 1148.49 -6.08278 1.73724 0
M  V30 11892 C 1147.16 -6.35847 2.03114 0
M  V30 11893 H 1146.43 -0.72032 -0.173838 0
M  V30 11894 H 1149.08 -1.89701 0.261903 0
M  V30 11895 H 1147.38 -3.47197 -1.81553 0
M  V30 11896 H 1149.08 -3.71525 -1.50899 0
M  V30 11897 H 1145.67 -4.2817 -0.191976 0
M  V30 11898 H 1149.85 -4.93344 0.540852 0
M  V30 11899 H 1145.11 -5.91134 1.56112 0
M  V30 11900 H 1149.28 -6.57643 2.29082 0
M  V30 11901 H 1146.91 -7.06479 2.80698 0
M  V30 11902 N 1148.48 0.103547 -1.57259 0
M  V30 11903 C 1149.76 0.839768 -1.76656 0
M  V30 11904 C 1150.14 1.9734 -0.749666 0
M  V30 11905 O 1149.49 2.27405 0.223466 0
M  V30 11906 C 1149.7 1.34218 -3.22159 0
M  V30 11907 C 1151.05 1.78835 -3.85102 0
M  V30 11908 O 1152.07 1.43861 -3.25857 0
M  V30 11909 O 1150.93 2.43474 -4.89267 0
M  V30 11910 H 1148.02 0.399928 -0.723869 0
M  V30 11911 H 1150.57 0.0860857 -1.69482 0
M  V30 11912 H 1149.34 0.52956 -3.877 0
M  V30 11913 H 1148.96 2.15811 -3.33933 0
M  V30 11914 N 1149.96 1.53094 0.37415 0
M  V30 11915 C 1151.19 1.72758 1.13852 0
M  V30 11916 C 1151.6 0.452638 1.83294 0
M  V30 11917 O 1150.96 -0.573906 1.73241 0
M  V30 11918 C 1151.01 2.88724 2.17534 0
M  V30 11919 O 1150.73 4.11284 1.5092 0
M  V30 11920 C 1152.23 3.2019 3.06584 0
M  V30 11921 H 1149.45 0.578028 0.340771 0
M  V30 11922 H 1152 1.99805 0.435683 0
M  V30 11923 H 1150.15 2.64096 2.83429 0
M  V30 11924 H 1150.57 4.76162 2.19932 0
M  V30 11925 H 1152.04 4.04759 3.75332 0
M  V30 11926 H 1152.52 2.35193 3.70919 0
M  V30 11927 H 1153.12 3.46712 2.46315 0
M  V30 11928 N 1151.44 -0.633461 1.44309 0
M  V30 11929 C 1152.72 -1.3917 1.37444 0
M  V30 11930 C 1153.1 -2.11076 0.0319994 0
M  V30 11931 O 1152.44 -2.06164 -0.98533 0
M  V30 11932 C 1152.65 -2.36005 2.57104 0
M  V30 11933 C 1154 -2.99407 3.01065 0
M  V30 11934 O 1155.03 -2.46331 2.57292 0
M  V30 11935 O 1153.89 -3.95686 3.76954 0
M  V30 11936 H 1150.98 -0.622746 0.544166 0
M  V30 11937 H 1153.53 -0.658712 1.56394 0
M  V30 11938 H 1152.3 -1.81955 3.46422 0
M  V30 11939 H 1151.92 -3.16725 2.40356 0
M  V30 11940 N 1152.92 -1.31168 -0.873655 0
M  V30 11941 C 1153.85 -1.21094 -1.99646 0
M  V30 11942 C 1154.83 -0.0989684 -1.69812 0
M  V30 11943 O 1156.01 -0.282939 -1.92128 0
M  V30 11944 C 1153.14 -0.913684 -3.35066 0
M  V30 11945 C 1152.1 -1.98482 -3.79195 0
M  V30 11946 C 1151.42 -1.54033 -5.12033 0
M  V30 11947 C 1152.72 -3.39745 -3.96699 0
M  V30 11948 H 1154.42 -2.1503 -2.08333 0
M  V30 11949 H 1151.96 -1.03521 -1.00097 0
M  V30 11950 H 1153.92 -0.829821 -4.13149 0
M  V30 11951 H 1152.64 0.0613471 -3.26542 0
M  V30 11952 H 1151.3 -2.05851 -3.03349 0
M  V30 11953 H 1150.95 -0.553261 -4.99948 0
M  V30 11954 H 1150.65 -2.25688 -5.4253 0
M  V30 11955 H 1152.17 -1.47047 -5.92629 0
M  V30 11956 H 1153.59 -3.35071 -4.65188 0
M  V30 11957 H 1151.98 -4.09585 -4.38589 0
M  V30 11958 H 1153.05 -3.80802 -3.00196 0
M  V30 11959 O 1154.44 1.0102 -1.26005 0
M  V30 11960 H 1155.13 1.6297 -1.04692 0
M  V30 END ATOM
M  V30 BEGIN BOND
M  V30 END BOND
M  V30 END CTAB
M  END
$$$$
