drugbank_target|P9WN95 Cell division protein FtsZ (DB01864; DB04315)
 OpenBabel12092119533D

  0  0  0     0  0            999 V3000
M  V30 BEGIN CTAB
M  V30 COUNTS 5437 5467 0 0 0
M  V30 BEGIN ATOM
M  V30 1 H -0.908 1.98254 -0.117106 0
M  V30 2 N 0 1.576 0 0
M  V30 3 C 0.933 2.03868 1.02534 0
M  V30 4 C 1.911 0.928543 1.3348 0
M  V30 5 O 3.095 1.19667 1.45644 0
M  V30 6 C 0.222 2.43627 2.35294 0
M  V30 7 C -0.732 3.65373 2.2001 0
M  V30 8 S 0.101 5.13292 1.52614 0
M  V30 9 C 1.257 5.56322 2.86805 0
M  V30 10 H 1.49 2.90518 0.631377 0
M  V30 11 H -0.977 1.52953 0.210867 0
M  V30 12 H 0.981 2.67203 3.11629 0
M  V30 13 H -0.358 1.57376 2.7183 0
M  V30 14 H -1.165 3.90944 3.18086 0
M  V30 15 H -1.563 3.418 1.51819 0
M  V30 16 H 0.729 5.58782 3.83104 0
M  V30 17 H 1.672 6.56266 2.65933 0
M  V30 18 H 2.08 4.83886 2.90714 0
M  V30 19 N 1.4781 -0.272755 1.55222 0
M  V30 20 C 2.7061 -1.02255 1.79865 0
M  V30 21 C 3.1211 -1.79924 0.572088 0
M  V30 22 O 2.4781 -1.76638 -0.458842 0
M  V30 23 C 2.5291 -1.98094 3.02392 0
M  V30 24 O 2.2501 -1.23572 4.20311 0
M  V30 25 C 3.7511 -2.84884 3.39641 0
M  V30 26 H 0.9711 -0.302057 0.599168 0
M  V30 27 H 3.5151 -0.303465 2.02236 0
M  V30 28 H 1.6701 -2.65465 2.82147 0
M  V30 29 H 2.0841 -1.88172 4.89583 0
M  V30 30 H 3.5581 -3.47927 4.28545 0
M  V30 31 H 4.0351 -3.54665 2.59055 0
M  V30 32 H 4.6411 -2.23003 3.62146 0
M  V30 33 N 2.9562 -1.48159 -0.537278 0
M  V30 34 C 4.3672 -1.49429 -1.11928 0
M  V30 35 C 4.7182 -0.26 -1.9447 0
M  V30 36 O 3.8432 0.633489 -2.0692 0
M  V30 37 C 4.4382 -2.70758 -2.03656 0
M  V30 38 C 2.9972 -2.74923 -2.57088 0
M  V30 39 C 2.1442 -2.42835 -1.3389 0
M  V30 40 H 5.0952 -1.55381 -0.322886 0
M  V30 41 H 5.1162 -2.48861 -2.87834 0
M  V30 42 H 4.6282 -3.60575 -1.43553 0
M  V30 43 H 2.7292 -1.89296 -3.20933 0
M  V30 44 H 2.8422 -3.76157 -2.9672 0
M  V30 45 H 1.2062 -1.93836 -1.65226 0
M  V30 46 H 1.9892 -3.34884 -0.755504 0
M  V30 47 N 4.4343 0.785586 -1.36625 0
M  V30 48 C 5.8453 1.36101 -1.27803 0
M  V30 49 C 6.1963 1.96035 0.0804875 0
M  V30 50 O 5.3213 1.92834 0.982042 0
M  V30 51 C 5.9163 2.47442 -2.31426 0
M  V30 52 C 4.4753 3.00789 -2.26281 0
M  V30 53 C 3.6223 1.73896 -2.15999 0
M  V30 54 H 6.5733 0.586928 -1.47448 0
M  V30 55 H 6.5943 3.2656 -1.95291 0
M  V30 56 H 6.1063 2.03791 -3.30289 0
M  V30 57 H 4.2073 3.48851 -1.30896 0
M  V30 58 H 4.3203 3.57343 -3.19128 0
M  V30 59 H 2.6843 1.9628 -1.62316 0
M  V30 60 H 3.4673 1.32368 -3.16755 0
M  V30 61 N 5.9124 1.20967 1.01018 0
M  V30 62 C 6.8624 0.93182 2.08089 0
M  V30 63 C 7.8464 -0.110898 1.60517 0
M  V30 64 O 9.0384 0.0973392 1.76732 0
M  V30 65 C 6.1674 0.492719 3.39746 0
M  V30 66 C 5.2534 1.56922 3.94 0
M  V30 67 N 5.6444 2.79312 4.21686 0
M  V30 68 C 3.9424 1.43688 4.2222 0
M  V30 69 C 4.6434 3.48797 4.65527 0
M  V30 70 N 3.6194 2.76224 4.68189 0
M  V30 71 H 7.4214 1.86175 2.27412 0
M  V30 72 H 4.9354 1.10463 1.19045 0
M  V30 73 H 6.9324 0.275044 4.15992 0
M  V30 74 H 5.5924 -0.430509 3.21833 0
M  V30 75 H 6.6034 3.15903 4.10397 0
M  V30 76 H 3.2804 0.578548 4.13472 0
M  V30 77 H 4.6704 4.53561 4.95714 0
M  V30 78 N 7.3905 -1.2043 1.01659 0
M  V30 79 C 8.3385 -2.25249 0.580143 0
M  V30 80 C 9.3325 -1.65057 -0.381115 0
M  V30 81 O 10.5385 -1.78241 -0.251039 0
M  V30 82 H 6.9135 -0.732695 0.169299 0
M  V30 83 H 8.8845 -2.59389 1.47512 0
M  V30 84 C 7.6335 -3.47638 -0.065788 0
M  V30 85 H 6.9565 -3.94233 0.664874 0
M  V30 86 H 8.3965 -4.2268 -0.334282 0
M  V30 87 C 6.8555 -3.10447 -1.3086 0
M  V30 88 O 7.3855 -3.21981 -2.4019 0
M  V30 89 N 5.5915 -2.64996 -1.1927 0
M  V30 90 H 5.1385 -2.55811 -0.303064 0
M  V30 91 H 5.0965 -2.40482 -2.02523 0
M  V30 92 N 8.8686 -0.792821 -1.36206 0
M  V30 93 C 10.0986 -0.378275 -2.03107 0
M  V30 94 C 10.5066 1.01119 -1.59911 0
M  V30 95 O 9.8496 1.66052 -0.785658 0
M  V30 96 C 9.9116 -0.366535 -3.57627 0
M  V30 97 C 9.5756 -1.70416 -4.24037 0
M  V30 98 C 10.5726 -2.6602 -4.46687 0
M  V30 99 C 8.2576 -1.98439 -4.6144 0
M  V30 100 C 10.2516 -3.8784 -5.05825 0
M  V30 101 C 7.9386 -3.20525 -5.20295 0
M  V30 102 C 8.9366 -4.15044 -5.42427 0
M  V30 103 O 8.6246 -5.34978 -6.00045 0
M  V30 104 H 8.3566 -0.153543 -0.658332 0
M  V30 105 H 10.9106 -1.07383 -1.75094 0
M  V30 106 H 9.1406 0.385539 -3.84773 0
M  V30 107 H 10.8296 0.0238088 -4.05893 0
M  V30 108 H 11.5956 -2.45658 -4.18183 0
M  V30 109 H 7.4746 -1.25686 -4.43536 0
M  V30 110 H 11.0186 -4.61628 -5.23015 0
M  V30 111 H 6.9156 -3.40764 -5.48225 0
M  V30 112 H 7.6836 -5.36088 -6.18508 0
M  V30 113 N 10.3467 1.47872 -0.545128 0
M  V30 114 C 11.2767 2.32661 0.197793 0
M  V30 115 C 12.2577 1.43041 0.920504 0
M  V30 116 O 13.4427 1.71912 0.90333 0
M  V30 117 C 10.5727 3.24569 1.23582 0
M  V30 118 C 9.5267 4.23333 0.630323 0
M  V30 119 C 8.8527 5.0448 1.77211 0
M  V30 120 C 10.1527 5.20704 -0.407974 0
M  V30 121 H 11.8467 2.95024 -0.510045 0
M  V30 122 H 9.3927 1.4187 -0.246731 0
M  V30 123 H 11.3457 3.8272 1.76362 0
M  V30 124 H 10.0697 2.60236 1.97344 0
M  V30 125 H 8.7287 3.6639 0.123922 0
M  V30 126 H 8.3767 4.36561 2.49847 0
M  V30 127 H 8.0767 5.71339 1.37281 0
M  V30 128 H 9.6007 5.65487 2.3034 0
M  V30 129 H 11.0147 5.7329 0.033305 0
M  V30 130 H 9.4117 5.95699 -0.725486 0
M  V30 131 H 10.4817 4.66917 -1.30828 0
M  V30 132 N 11.8248 0.280983 1.55075 0
M  V30 133 C 12.7878 -0.590896 2.21452 0
M  V30 134 C 13.7878 -1.07682 1.19421 0
M  V30 135 O 14.9778 -0.97605 1.44288 0
M  V30 136 C 12.1098 -1.81587 2.88511 0
M  V30 137 H 13.3028 -0.0112554 2.99898 0
M  V30 138 H 10.8558 0.0316438 1.56268 0
M  V30 139 H 11.5908 -2.43587 2.14093 0
M  V30 140 H 11.3758 -1.4753 3.63287 0
M  V30 141 H 12.8658 -2.43575 3.39206 0
M  V30 142 N 13.3029 -1.57598 0.00835791 0
M  V30 143 C 14.5489 -1.91211 -0.675732 0
M  V30 144 C 14.8819 -0.883139 -1.72958 0
M  V30 145 O 14.1569 0.097016 -1.94258 0
M  V30 146 C 14.4399 -3.35379 -1.31123 0
M  V30 147 C 14.2929 -4.48999 -0.268356 0
M  V30 148 C 15.6119 -3.7912 -2.23508 0
M  V30 149 H 12.7309 -0.695374 -0.244179 0
M  V30 150 H 15.3729 -1.89901 0.0613655 0
M  V30 151 H 13.5229 -3.36626 -1.93946 0
M  V30 152 H 15.1949 -4.59887 0.360844 0
M  V30 153 H 13.4379 -4.31873 0.408482 0
M  V30 154 H 14.1089 -5.46851 -0.752218 0
M  V30 155 H 16.5849 -3.79477 -1.70693 0
M  V30 156 H 15.4609 -4.80729 -2.64936 0
M  V30 157 H 15.7219 -3.13455 -3.11766 0
M  V30 158 N 14.781 0.264519 -1.55364 0
M  V30 159 C 16.03 0.992812 -1.75574 0
M  V30 160 C 16.343 1.87142 -0.568979 0
M  V30 161 O 17.549 2.63513 -0.653682 0
M  V30 162 C 16.005 1.81519 -3.10771 0
M  V30 163 C 15.613 0.984839 -4.37041 0
M  V30 164 C 17.357 2.53727 -3.40327 0
M  V30 165 C 15.264 1.80209 -5.63275 0
M  V30 166 H 14.194 0.374412 -0.65447 0
M  V30 167 H 16.845 0.248138 -1.81815 0
M  V30 168 H 15.227 2.60115 -2.98591 0
M  V30 169 H 16.401 0.242455 -4.60162 0
M  V30 170 H 14.716 0.37691 -4.14691 0
M  V30 171 H 17.313 3.15292 -4.3185 0
M  V30 172 H 17.656 3.24447 -2.60845 0
M  V30 173 H 18.189 1.82156 -3.53644 0
M  V30 174 H 14.928 1.13896 -6.45529 0
M  V30 175 H 14.448 2.52022 -5.44284 0
M  V30 176 H 16.127 2.37364 -6.01887 0
M  V30 177 N 16.2591 1.48442 0.529413 0
M  V30 178 C 17.2061 1.63007 1.63394 0
M  V30 179 C 18.1761 0.47212 1.59249 0
M  V30 180 O 19.3611 0.695673 1.77666 0
M  V30 181 C 16.5011 1.6763 3.01653 0
M  V30 182 C 15.6141 2.94535 3.16027 0
M  V30 183 C 14.7491 2.90316 4.44849 0
M  V30 184 C 13.7881 4.11923 4.52754 0
M  V30 185 N 12.9251 4.05777 5.72965 0
M  V30 186 H 17.7651 2.5733 1.50285 0
M  V30 187 H 15.3021 1.27613 0.731656 0
M  V30 188 H 17.2601 1.68292 3.81751 0
M  V30 189 H 15.8901 0.76797 3.13532 0
M  V30 190 H 14.9421 3.03615 2.29177 0
M  V30 191 H 16.2541 3.84512 3.17729 0
M  V30 192 H 15.4081 2.89382 5.33238 0
M  V30 193 H 14.1471 1.98068 4.45668 0
M  V30 194 H 13.1521 4.13131 3.62771 0
M  V30 195 H 14.3771 5.0533 4.53672 0
M  V30 196 H 12.3231 3.16351 5.74681 0
M  V30 197 H 12.2401 4.8946 5.76164 0
M  V30 198 H 13.5081 4.08904 6.6364 0
M  V30 199 N 17.7372 -0.778329 1.37039 0
M  V30 200 C 18.9832 -1.53892 1.32079 0
M  V30 201 C 19.3162 -1.9396 -0.0965386 0
M  V30 202 O 18.5912 -1.63568 -1.05242 0
M  V30 203 C 18.8742 -2.80847 2.25382 0
M  V30 204 C 18.7272 -2.47076 3.75864 0
M  V30 205 C 20.0462 -3.82741 2.1725 0
M  V30 206 H 17.1652 -0.558303 0.48111 0
M  V30 207 H 19.8072 -0.893397 1.67685 0
M  V30 208 H 17.9572 -3.35931 1.95148 0
M  V30 209 H 19.6292 -1.97957 4.16666 0
M  V30 210 H 17.8722 -1.79863 3.94755 0
M  V30 211 H 18.5432 -3.37798 4.36574 0
M  V30 212 H 21.0192 -3.37133 2.43887 0
M  V30 213 H 19.8952 -4.69303 2.84686 0
M  V30 214 H 20.1562 -4.2652 1.16331 0
M  V30 215 N 19.2153 -1.21501 -1.00376 0
M  V30 216 C 20.4613 -1.03452 -1.74429 0
M  V30 217 C 20.7943 0.430764 -1.89362 0
M  V30 218 O 20.0693 1.31962 -1.42886 0
M  V30 219 C 20.3523 -1.73375 -3.15615 0
M  V30 220 C 20.2053 -3.27431 -3.08397 0
M  V30 221 C 21.5243 -1.47732 -4.14564 0
M  V30 222 H 18.6433 -0.377226 -0.633143 0
M  V30 223 H 21.2853 -1.49693 -1.17013 0
M  V30 224 H 19.4353 -1.34064 -3.64636 0
M  V30 225 H 21.1073 -3.76119 -2.67081 0
M  V30 226 H 19.3503 -3.5767 -2.45468 0
M  V30 227 H 20.0213 -3.71524 -4.08258 0
M  V30 228 H 22.4973 -1.8186 -3.74254 0
M  V30 229 H 21.3733 -1.99169 -5.11491 0
M  V30 230 H 21.6343 -0.407589 -4.40217 0
M  V30 231 N 20.6934 1.19889 -1.02296 0
M  V30 232 C 21.9414 1.89046 -0.714558 0
M  V30 233 C 22.2624 1.79636 0.758681 0
M  V30 234 O 21.5324 1.20292 1.54618 0
M  V30 235 H 20.1124 0.699802 -0.261317 0
M  V30 236 H 22.7744 1.45574 -1.29592 0
M  V30 237 H 21.8704 2.95524 -1.0036 0
M  V30 238 N 22.1715 0.800033 1.35784 0
M  V30 239 C 23.4205 0.37387 1.98205 0
M  V30 240 C 23.7335 -1.06302 1.64193 0
M  V30 241 O 24.9395 -1.59198 2.19928 0
M  V30 242 C 23.3955 0.617532 3.54562 0
M  V30 243 C 23.0035 2.06654 3.9749 0
M  V30 244 C 24.7475 0.256401 4.23725 0
M  V30 245 C 22.6545 2.2563 5.46667 0
M  V30 246 H 21.5845 0.136055 0.741623 0
M  V30 247 H 24.2355 0.983166 1.54939 0
M  V30 248 H 22.6175 -0.0616248 3.95952 0
M  V30 249 H 23.7915 2.78296 3.67271 0
M  V30 250 H 22.1065 2.38691 3.41197 0
M  V30 251 H 24.7035 0.376318 5.33374 0
M  V30 252 H 25.0465 -0.796692 4.08606 0
M  V30 253 H 25.5795 0.889214 3.87734 0
M  V30 254 H 22.3185 3.2936 5.66747 0
M  V30 255 H 21.8385 1.58504 5.78478 0
M  V30 256 H 23.5175 2.06861 6.1304 0
M  V30 257 N 23.6496 -1.47581 0.552962 0
M  V30 258 C 24.8976 -2.02082 0.0272703 0
M  V30 259 C 25.2186 -1.4301 -1.32563 0
M  V30 260 O 24.4886 -0.603745 -1.86365 0
M  V30 261 H 23.0686 -0.746966 0.00709182 0
M  V30 262 H 25.7306 -1.81033 0.722008 0
M  V30 263 H 24.8266 -3.12034 -0.0639951 0
M  V30 264 N 25.1277 -0.289203 -1.54924 0
M  V30 265 C 26.3757 0.322879 -1.99504 0
M  V30 266 C 26.6967 1.55313 -1.1791 0
M  V30 267 O 25.9667 1.94001 -0.272097 0
M  V30 268 H 24.5467 0.122291 -0.736922 0
M  V30 269 H 27.2087 -0.397802 -1.90797 0
M  V30 270 H 26.3047 0.603061 -3.06218 0
M  V30 271 N 26.6058 1.57591 -0.0167156 0
M  V30 272 C 27.8538 1.90906 0.663285 0
M  V30 273 C 28.1748 0.892509 1.73376 0
M  V30 274 O 27.4448 -0.0677623 1.95783 0
M  V30 275 H 26.0248 0.704637 0.247983 0
M  V30 276 H 28.6868 1.94803 -0.0615909 0
M  V30 277 H 27.7828 2.9116 1.12393 0
M  V30 278 N 28.0839 -0.256276 1.55502 0
M  V30 279 C 29.3319 -0.983672 1.76545 0
M  V30 280 C 29.6529 -1.86206 0.578982 0
M  V30 281 O 28.9229 -1.91656 -0.405577 0
M  V30 282 H 27.5029 -0.366191 0.651086 0
M  V30 283 H 30.1649 -0.276479 1.92929 0
M  V30 284 H 29.2609 -1.61087 2.67315 0
M  V30 285 N 29.562 -1.4872 -0.521534 0
M  V30 286 C 30.808 -1.574 -1.27879 0
M  V30 287 C 31.141 -0.250817 -1.92573 0
M  V30 288 O 30.416 0.743934 -1.79711 0
M  V30 289 C 30.699 -2.71843 -2.36164 0
M  V30 290 C 30.552 -4.13893 -1.76105 0
M  V30 291 C 31.871 -2.82008 -3.37875 0
M  V30 292 H 28.99 -0.572941 -0.463581 0
M  V30 293 H 31.632 -1.80927 -0.580119 0
M  V30 294 H 29.782 -2.51914 -2.95756 0
M  V30 295 H 31.454 -4.45284 -1.20499 0
M  V30 296 H 29.697 -4.20498 -1.06601 0
M  V30 297 H 30.368 -4.89804 -2.5455 0
M  V30 298 H 32.844 -3.00086 -2.88249 0
M  V30 299 H 31.72 -3.63796 -4.11028 0
M  V30 300 H 31.981 -1.90511 -3.98946 0
M  V30 301 N 31.0401 0.771051 -1.3745 0
M  V30 302 C 31.9881 1.90574 -1.33358 0
M  V30 303 C 32.9821 1.67936 -0.22224 0
M  V30 304 O 34.1881 1.75717 -0.390304 0
M  V30 305 H 30.5631 0.626714 -0.415612 0
M  V30 306 H 32.5341 1.91142 -2.29144 0
M  V30 307 C 31.2831 3.27845 -1.15813 0
M  V30 308 H 30.6061 3.45842 -2.00583 0
M  V30 309 H 32.0461 4.07538 -1.17 0
M  V30 310 C 30.5051 3.36625 0.136165 0
M  V30 311 O 31.0351 3.85785 1.11949 0
M  V30 312 N 29.2411 2.89997 0.187099 0
M  V30 313 H 28.7881 2.50182 -0.613753 0
M  V30 314 H 28.7461 2.96252 1.05272 0
M  V30 315 N 32.5182 1.22032 0.997298 0
M  V30 316 C 33.4812 0.987909 2.06816 0
M  V30 317 C 34.4812 -0.0440084 1.6074 0
M  V30 318 O 35.6712 0.194053 1.73116 0
M  V30 319 C 32.8032 0.49132 3.37341 0
M  V30 320 H 33.9962 1.93803 2.28868 0
M  V30 321 H 31.5492 1.03838 1.16822 0
M  V30 322 H 32.2842 -0.463364 3.20973 0
M  V30 323 H 32.0692 1.23575 3.72118 0
M  V30 324 H 33.5592 0.348824 4.16141 0
M  V30 325 N 33.9963 -1.19345 1.0293 0
M  V30 326 C 35.2423 -1.89318 0.727083 0
M  V30 327 C 35.5753 -1.79446 -0.742483 0
M  V30 328 O 34.8503 -1.1871 -1.54072 0
M  V30 329 C 35.1333 -3.40238 1.17942 0
M  V30 330 C 34.9863 -3.58979 2.71024 0
M  V30 331 C 36.3053 -4.33479 0.760548 0
M  V30 332 H 33.4243 -0.687475 0.265606 0
M  V30 333 H 36.0663 -1.40477 1.2793 0
M  V30 334 H 34.2163 -3.81964 0.709608 0
M  V30 335 H 35.8883 -3.26421 3.25955 0
M  V30 336 H 34.1313 -3.02018 3.11396 0
M  V30 337 H 34.8023 -4.64823 2.9773 0
M  V30 338 H 37.2783 -3.99469 1.16464 0
M  V30 339 H 36.1543 -5.37664 1.10493 0
M  V30 340 H 36.4153 -4.40813 -0.337063 0
M  V30 341 N 35.4744 -0.807222 -1.35358 0
M  V30 342 C 36.4224 -0.20614 -2.31685 0
M  V30 343 C 37.4164 0.644445 -1.56663 0
M  V30 344 O 38.6224 0.537538 -1.71786 0
M  V30 345 H 34.9974 -0.0479006 -0.750473 0
M  V30 346 H 36.9684 -1.03369 -2.79924 0
M  V30 347 C 35.7174 0.630212 -3.41941 0
M  V30 348 H 35.0404 -0.0149558 -3.99797 0
M  V30 349 H 36.4804 1.01716 -4.11619 0
M  V30 350 C 34.9394 1.79601 -2.85035 0
M  V30 351 O 35.4694 2.89351 -2.78637 0
M  V30 352 N 33.6754 1.60774 -2.42074 0
M  V30 353 H 33.2224 0.715009 -2.47478 0
M  V30 354 H 33.1804 2.38933 -2.04349 0
M  V30 355 N 36.9525 1.47285 -0.560781 0
M  V30 356 C 38.3685 1.58065 -0.22081 0
M  V30 357 C 38.5685 1.55892 1.27671 0
M  V30 358 O 37.6245 1.46422 2.0571 0
M  V30 359 C 38.9375 2.88418 -0.850625 0
M  V30 360 C 40.4855 3.02009 -0.822184 0
M  V30 361 C 40.9605 4.35066 -1.43113 0
M  V30 362 N 42.4515 4.41711 -1.39448 0
M  V30 363 C 43.1865 5.43237 -1.83525 0
M  V30 364 N 42.6825 6.51555 -2.35474 0
M  V30 365 N 44.4755 5.34304 -1.74574 0
M  V30 366 H 36.6265 1.46941 -1.53369 0
M  V30 367 H 38.8895 0.699558 -0.639783 0
M  V30 368 H 38.5955 2.95755 -1.9032 0
M  V30 369 H 38.4695 3.75612 -0.345773 0
M  V30 370 H 40.8565 2.94266 0.221714 0
M  V30 371 H 40.9375 2.16347 -1.36483 0
M  V30 372 H 40.5815 4.43565 -2.47412 0
M  V30 373 H 40.5115 5.19465 -0.863899 0
M  V30 374 H 43.0025 3.64027 -1.01452 0
M  V30 375 H 43.3155 7.25203 -2.67021 0
M  V30 376 H 41.6605 6.52435 -2.39487 0
M  V30 377 H 44.8515 4.48581 -1.33763 0
M  V30 378 H 45.0245 6.13288 -2.09242 0
M  V30 379 N 38.4306 0.297415 1.54768 0
M  V30 380 C 39.3636 -0.622188 2.19554 0
M  V30 381 C 40.3416 -1.13558 1.16376 0
M  V30 382 O 41.5256 -1.20444 1.45002 0
M  V30 383 C 38.6526 -1.8509 2.83653 0
M  V30 384 C 37.6986 -1.47106 4.00328 0
M  V30 385 S 38.5316 -0.53006 5.3287 0
M  V30 386 C 39.6876 -1.76665 6.0045 0
M  V30 387 H 39.9206 -0.0717806 2.97213 0
M  V30 388 H 37.4536 0.0815678 1.54184 0
M  V30 389 H 39.4116 -2.55605 3.21211 0
M  V30 390 H 38.0726 -2.37247 2.05846 0
M  V30 391 H 37.2656 -2.38594 4.43947 0
M  V30 392 H 36.8676 -0.845885 3.64309 0
M  V30 393 H 39.1596 -2.7077 6.21039 0
M  V30 394 H 40.1026 -1.37308 6.9466 0
M  V30 395 H 40.5106 -1.94174 5.30054 0
M  V30 396 N 39.9087 -1.5758 0.0250728 0
M  V30 397 C 41.1577 -1.90811 -0.653767 0
M  V30 398 C 41.4707 -0.90273 -1.73523 0
M  V30 399 O 42.6767 -1.12614 -2.47043 0
M  V30 400 C 41.1327 -3.38804 -1.21409 0
M  V30 401 C 40.7407 -4.47692 -0.166126 0
M  V30 402 C 42.4847 -3.81108 -1.86967 0
M  V30 403 C 40.3917 -5.86779 -0.737856 0
M  V30 404 H 39.3217 -0.712063 -0.247956 0
M  V30 405 H 41.9727 -1.83281 0.0897137 0
M  V30 406 H 40.3547 -3.41252 -2.00905 0
M  V30 407 H 41.5287 -4.56797 0.606079 0
M  V30 408 H 39.8437 -4.14565 0.390466 0
M  V30 409 H 42.4407 -4.82375 -2.30692 0
M  V30 410 H 42.7837 -3.15953 -2.71071 0
M  V30 411 H 43.3167 -3.81065 -1.14167 0
M  V30 412 H 40.0557 -6.55468 0.0649577 0
M  V30 413 H 39.5757 -5.81288 -1.47864 0
M  V30 414 H 41.2547 -6.35223 -1.22884 0
M  V30 415 N 41.3868 0.248026 -1.55636 0
M  V30 416 C 42.2968 1.32859 -1.93354 0
M  V30 417 C 43.3128 1.52719 -0.833838 0
M  V30 418 O 44.4888 1.66363 -1.13513 0
M  V30 419 C 41.5538 2.66337 -2.21958 0
M  V30 420 C 40.6148 2.55008 -3.45354 0
M  V30 421 C 39.8478 3.82121 -3.72584 0
M  V30 422 O 40.0708 4.83951 -3.01907 0
M  V30 423 O 39.0048 3.80822 -4.6611 0
M  V30 424 H 42.8308 1.03862 -2.85388 0
M  V30 425 H 40.4158 0.448686 -1.42503 0
M  V30 426 H 42.2978 3.45216 -2.4167 0
M  V30 427 H 40.9728 2.95068 -1.33103 0
M  V30 428 H 39.8798 1.7442 -3.30951 0
M  V30 429 H 41.2128 2.31222 -4.34508 0
M  V30 430 N 42.8649 1.48995 0.513639 0
M  V30 431 C 43.7969 1.60836 1.63293 0
M  V30 432 C 44.8099 0.491701 1.55197 0
M  V30 433 O 45.9989 0.763238 1.6136 0
M  V30 434 C 43.0989 1.53731 3.02027 0
M  V30 435 C 42.2719 2.80715 3.35437 0
M  V30 436 C 41.3309 2.66837 4.53525 0
M  V30 437 O 40.3569 3.40753 4.55934 0
M  V30 438 N 41.5589 1.77539 5.52684 0
M  V30 439 H 44.3239 2.57366 1.53566 0
M  V30 440 H 41.8849 1.45925 0.701259 0
M  V30 441 H 43.8769 1.42118 3.78926 0
M  V30 442 H 42.4469 0.651092 3.05744 0
M  V30 443 H 41.6669 3.06772 2.47557 0
M  V30 444 H 42.9549 3.64927 3.54551 0
M  V30 445 H 42.3529 1.16719 5.53528 0
M  V30 446 H 40.9099 1.71856 6.28736 0
M  V30 447 N 44.343 -0.763751 1.37857 0
M  V30 448 C 45.591 -1.51957 1.33243 0
M  V30 449 C 45.912 -1.94835 -0.0801709 0
M  V30 450 O 45.182 -1.66894 -1.02582 0
M  V30 451 H 43.762 -0.563626 0.49024 0
M  V30 452 H 46.424 -0.908504 1.7243 0
M  V30 453 H 45.52 -2.41523 1.97669 0
M  V30 454 N 45.8211 -1.22559 -0.990812 0
M  V30 455 C 46.7511 -1.0218 -2.09956 0
M  V30 456 C 47.7321 0.0579394 -1.70001 0
M  V30 457 O 48.9171 -0.104684 -1.93918 0
M  V30 458 C 46.0471 -0.601023 -3.4206 0
M  V30 459 C 45.0011 -1.62694 -3.95872 0
M  V30 460 C 44.3271 -1.06193 -5.24049 0
M  V30 461 C 45.6271 -3.01743 -4.2632 0
M  V30 462 H 47.3211 -1.94916 -2.27262 0
M  V30 463 H 44.8671 -0.938566 -1.09211 0
M  V30 464 H 46.8201 -0.445561 -4.19038 0
M  V30 465 H 45.5441 0.362005 -3.24588 0
M  V30 466 H 44.2031 -1.77021 -3.21028 0
M  V30 467 H 43.8511 -0.0901903 -5.02919 0
M  V30 468 H 43.5511 -1.74732 -5.61019 0
M  V30 469 H 45.0751 -0.918092 -6.03658 0
M  V30 470 H 46.4891 -2.90777 -4.94087 0
M  V30 471 H 44.8861 -3.67425 -4.74467 0
M  V30 472 H 45.9561 -3.51518 -3.34011 0
M  V30 473 N 47.2992 1.18797 -1.03562 0
M  V30 474 C 48.2462 2.22253 -0.622259 0
M  V30 475 C 49.2162 1.61987 0.36736 0
M  V30 476 O 50.4012 1.88986 0.262492 0
M  V30 477 C 47.5412 3.45097 0.0138462 0
M  V30 478 C 46.6542 4.19722 -1.02263 0
M  V30 479 C 45.7892 5.30009 -0.355573 0
M  V30 480 C 44.8282 5.96399 -1.37749 0
M  V30 481 N 43.9652 6.98234 -0.735766 0
M  V30 482 H 48.8052 2.56968 -1.50903 0
M  V30 483 H 46.3422 1.26245 -0.755017 0
M  V30 484 H 48.3002 4.15279 0.399948 0
M  V30 485 H 46.9302 3.11018 0.864158 0
M  V30 486 H 45.9822 3.48418 -1.52673 0
M  V30 487 H 47.2942 4.65227 -1.79903 0
M  V30 488 H 46.4482 6.0664 0.0850095 0
M  V30 489 H 45.1872 4.85592 0.452967 0
M  V30 490 H 44.1922 5.18512 -1.82826 0
M  V30 491 H 45.4172 6.42899 -2.18764 0
M  V30 492 H 43.3632 6.55979 0.0525597 0
M  V30 493 H 43.2802 7.41965 -1.44995 0
M  V30 494 H 44.5482 7.78845 -0.31941 0
M  V30 495 N 48.7773 0.814389 1.34928 0
M  V30 496 C 50.0253 0.397636 1.9815 0
M  V30 497 C 50.3463 -1.04069 1.64908 0
M  V30 498 O 49.6163 -1.72121 0.93548 0
M  V30 499 H 48.1963 0.144043 0.732981 0
M  V30 500 H 50.8583 1.04195 1.6471 0
M  V30 501 H 49.9543 0.509688 3.0791 0
M  V30 502 N 50.2554 -1.46986 0.568584 0
M  V30 503 C 51.5014 -2.02741 0.0488709 0
M  V30 504 C 51.8344 -1.44077 -1.30214 0
M  V30 505 O 51.1094 -0.600552 -1.84996 0
M  V30 506 C 51.3924 -3.60086 -0.032047 0
M  V30 507 C 51.2454 -4.29162 1.34686 0
M  V30 508 C 52.5644 -4.33838 -0.739798 0
M  V30 509 H 49.6834 -0.736749 0.0192338 0
M  V30 510 H 52.3254 -1.75289 0.733065 0
M  V30 511 H 50.4754 -3.83606 -0.61473 0
M  V30 512 H 52.1474 -4.16948 1.97362 0
M  V30 513 H 50.3904 -3.89073 1.91846 0
M  V30 514 H 51.0614 -5.37826 1.24285 0
M  V30 515 H 53.5374 -4.15378 -0.244939 0
M  V30 516 H 52.4134 -5.43537 -0.765406 0
M  V30 517 H 52.6744 -4.03875 -1.79827 0
M  V30 518 N 51.7335 -0.305618 -1.54608 0
M  V30 519 C 52.6435 0.57778 -2.27374 0
M  V30 520 C 53.6595 1.14451 -1.31061 0
M  V30 521 O 54.8355 1.16831 -1.6405 0
M  V30 522 C 51.9005 1.73123 -3.00382 0
M  V30 523 C 50.9615 1.19812 -4.12242 0
M  V30 524 C 50.1945 2.2966 -4.81759 0
M  V30 525 O 50.4175 3.49651 -4.50666 0
M  V30 526 O 49.3515 1.96091 -5.69062 0
M  V30 527 H 53.1775 -0.012624 -3.03697 0
M  V30 528 H 50.7625 -0.0719184 -1.49227 0
M  V30 529 H 52.6445 2.40315 -3.4616 0
M  V30 530 H 51.3195 2.30815 -2.26949 0
M  V30 531 H 50.2265 0.491798 -3.70853 0
M  V30 532 H 51.5595 0.666566 -4.87666 0
M  V30 533 N 53.2116 1.57565 -0.0334293 0
M  V30 534 C 54.4586 1.91978 0.644272 0
M  V30 535 C 54.7866 0.910231 1.71887 0
M  V30 536 O 54.0416 -0.0801961 1.95536 0
M  V30 537 C 54.3406 3.33112 1.29504 0
M  V30 538 C 54.0066 4.49537 0.350388 0
M  V30 539 C 52.6686 4.81115 0.0903974 0
M  V30 540 C 55.0206 5.20347 -0.298032 0
M  V30 541 C 52.3486 5.8086 -0.825746 0
M  V30 542 C 54.7006 6.2107 -1.20226 0
M  V30 543 C 53.3646 6.51088 -1.4711 0
M  V30 544 H 52.6346 0.702496 0.235756 0
M  V30 545 H 55.2816 1.91259 -0.0961176 0
M  V30 546 H 53.5866 3.30113 2.11028 0
M  V30 547 H 55.2836 3.57011 1.82603 0
M  V30 548 H 51.8736 4.24883 0.563205 0
M  V30 549 H 56.0576 4.96178 -0.110234 0
M  V30 550 H 51.3136 6.02461 -1.04169 0
M  V30 551 H 55.4876 6.75057 -1.71086 0
M  V30 552 H 53.1146 7.28193 -2.18264 0
M  V30 553 N 54.6897 -0.239769 1.55765 0
M  V30 554 C 55.9387 -0.964754 1.77131 0
M  V30 555 C 56.2517 -1.86213 0.59868 0
M  V30 556 O 57.4577 -2.6244 0.695522 0
M  V30 557 C 55.9137 -1.76552 3.1362 0
M  V30 558 C 55.5217 -0.915185 4.38553 0
M  V30 559 C 57.2657 -2.48281 3.44321 0
M  V30 560 C 55.1727 -1.71225 5.66071 0
M  V30 561 H 54.1027 -0.363953 0.660344 0
M  V30 562 H 56.7537 -0.219181 1.82186 0
M  V30 563 H 55.1357 -2.55331 3.02691 0
M  V30 564 H 56.3097 -0.169217 4.60489 0
M  V30 565 H 54.6247 -0.310889 4.15238 0
M  V30 566 H 57.2217 -3.08382 4.36812 0
M  V30 567 H 57.5647 -3.20256 2.65973 0
M  V30 568 H 58.0977 -1.76507 3.56497 0
M  V30 569 H 54.8367 -1.03612 6.4726 0
M  V30 570 H 54.3567 -2.43331 5.48224 0
M  V30 571 H 56.0357 -2.27758 6.05587 0
M  V30 572 N 56.1678 -1.49265 -0.50573 0
M  V30 573 C 57.1308 -1.65075 -1.59006 0
M  V30 574 C 58.1308 -0.522768 -1.52065 0
M  V30 575 O 59.3208 -0.789117 -1.55302 0
M  V30 576 C 56.4528 -1.64369 -2.98656 0
M  V30 577 H 57.6458 -2.61784 -1.46319 0
M  V30 578 H 55.1988 -1.38226 -0.729616 0
M  V30 579 H 55.9338 -0.692272 -3.16825 0
M  V30 580 H 55.7188 -2.46282 -3.05103 0
M  V30 581 H 57.2088 -1.78674 -3.77446 0
M  V30 582 N 57.6459 0.756429 -1.3826 0
M  V30 583 C 58.8949 1.51082 -1.3363 0
M  V30 584 C 59.2079 1.95467 0.0720068 0
M  V30 585 O 60.4139 2.7043 0.240834 0
M  V30 586 C 58.8699 2.72893 -2.34644 0
M  V30 587 C 58.4779 2.35544 -3.81081 0
M  V30 588 C 60.2219 3.50791 -2.39052 0
M  V30 589 C 58.1289 3.53948 -4.73787 0
M  V30 590 H 57.0589 0.56727 -0.49671 0
M  V30 591 H 59.7099 0.827147 -1.638 0
M  V30 592 H 58.0919 3.43227 -1.97513 0
M  V30 593 H 59.2659 1.72894 -4.27135 0
M  V30 594 H 57.5809 1.70786 -3.79764 0
M  V30 595 H 60.1779 4.38823 -3.05513 0
M  V30 596 H 60.5209 3.91745 -1.40861 0
M  V30 597 H 61.0539 2.87467 -2.74968 0
M  V30 598 H 57.7929 3.18064 -5.73163 0
M  V30 599 H 57.3129 4.15651 -4.32428 0
M  V30 600 H 58.9919 4.20566 -4.91663 0
M  V30 601 N 59.124 1.23083 0.984299 0
M  V30 602 C 60.072 1.00593 2.09723 0
M  V30 603 C 61.066 -0.0538014 1.69315 0
M  V30 604 O 62.272 0.0993719 1.79725 0
M  V30 605 H 58.647 0.30817 0.685956 0
M  V30 606 H 60.618 1.95012 2.2586 0
M  V30 607 C 59.367 0.609601 3.42314 0
M  V30 608 H 58.69 1.41675 3.73856 0
M  V30 609 H 60.13 0.491726 4.21139 0
M  V30 610 C 58.589 -0.681745 3.2993 0
M  V30 611 O 59.119 -1.73192 3.62446 0
M  V30 612 N 57.325 -0.656178 2.83095 0
M  V30 613 H 56.872 0.198759 2.56832 0
M  V30 614 H 56.83 -1.52044 2.75191 0
M  V30 615 N 60.6021 -1.18246 1.0419 0
M  V30 616 C 61.8301 -1.92195 0.766072 0
M  V30 617 C 62.2451 -1.76247 -0.676933 0
M  V30 618 O 61.6021 -1.09293 -1.46155 0
M  V30 619 C 61.6531 -3.43568 1.12442 0
M  V30 620 O 61.3741 -3.59015 2.51078 0
M  V30 621 C 62.8751 -4.34613 0.873275 0
M  V30 622 H 60.0951 -0.610114 0.279288 0
M  V30 623 H 62.6391 -1.50007 1.38989 0
M  V30 624 H 60.7941 -3.8354 0.545542 0
M  V30 625 H 61.2081 -4.5273 2.64831 0
M  V30 626 H 62.6821 -5.39374 1.17385 0
M  V30 627 H 63.1591 -4.38781 -0.191909 0
M  V30 628 H 63.7651 -4.00341 1.43551 0
M  V30 629 N 62.0802 -0.821533 -1.34494 0
M  V30 630 C 63.3572 -0.33159 -1.92769 0
M  V30 631 C 63.7372 1.18088 -1.74981 0
M  V30 632 O 63.0852 1.98733 -1.12772 0
M  V30 633 C 63.2952 -0.759398 -3.40638 0
M  V30 634 C 64.6432 -0.757433 -4.1779 0
M  V30 635 O 65.6672 -0.70189 -3.49216 0
M  V30 636 O 64.5262 -0.829361 -5.4017 0
M  V30 637 H 61.6202 -0.0902502 -0.822061 0
M  V30 638 H 64.1662 -0.906231 -1.43477 0
M  V30 639 H 62.9382 -1.8012 -3.47379 0
M  V30 640 H 62.5612 -0.160378 -3.97276 0
M  V30 641 N 63.5583 1.46682 -0.576371 0
M  V30 642 C 64.5213 2.28707 0.150239 0
M  V30 643 C 65.5213 1.38035 0.824794 0
M  V30 644 O 66.7113 1.60476 0.677719 0
M  V30 645 C 63.8433 3.18248 1.22192 0
M  V30 646 H 65.0363 2.94423 -0.570521 0
M  V30 647 H 62.5893 1.52688 -0.334078 0
M  V30 648 H 63.3243 2.57265 1.97447 0
M  V30 649 H 63.1093 3.85 0.742812 0
M  V30 650 H 64.5993 3.80001 1.73172 0
M  V30 651 N 65.0364 0.313813 1.54444 0
M  V30 652 C 65.9684 -0.590425 2.21465 0
M  V30 653 C 66.9814 -1.08753 1.21147 0
M  V30 654 O 68.1704 -1.00278 1.4767 0
M  V30 655 C 65.2704 -1.82179 2.85769 0
M  V30 656 C 64.4434 -1.46502 4.12136 0
M  V30 657 C 63.5024 -2.55288 4.60124 0
M  V30 658 O 62.5284 -2.19842 5.25032 0
M  V30 659 N 63.7304 -3.86053 4.33525 0
M  V30 660 H 66.4954 -0.0166033 2.99695 0
M  V30 661 H 64.0564 0.136578 1.61323 0
M  V30 662 H 66.0484 -2.54328 3.14801 0
M  V30 663 H 64.6184 -2.30369 2.11303 0
M  V30 664 H 63.8384 -0.575595 3.89975 0
M  V30 665 H 65.1264 -1.20221 4.94393 0
M  V30 666 H 64.5244 -4.17654 3.81552 0
M  V30 667 H 63.0814 -4.54461 4.67235 0
M  V30 668 N 66.5145 -1.57545 0.0417849 0
M  V30 669 C 67.4775 -2.09885 -0.92093 0
M  V30 670 C 68.4775 -1.01648 -1.24596 0
M  V30 671 O 69.6675 -1.27759 -1.1842 0
M  V30 672 C 66.7995 -2.57527 -2.23367 0
M  V30 673 H 67.9925 -2.96236 -0.467382 0
M  V30 674 H 65.5455 -1.5493 -0.206467 0
M  V30 675 H 66.2805 -1.74542 -2.73323 0
M  V30 676 H 66.0655 -3.36613 -2.01083 0
M  V30 677 H 67.5555 -2.98201 -2.92346 0
M  V30 678 N 67.9926 0.231505 -1.5589 0
M  V30 679 C 68.9226 1.29022 -1.94617 0
M  V30 680 C 69.9036 1.4941 -0.813067 0
M  V30 681 O 71.0886 1.6176 -1.07459 0
M  V30 682 C 68.2186 2.64199 -2.25424 0
M  V30 683 C 67.1726 2.58484 -3.41131 0
M  V30 684 C 66.4986 3.97599 -3.57518 0
M  V30 685 C 67.7986 2.1413 -4.76388 0
M  V30 686 H 69.4926 0.968563 -2.83301 0
M  V30 687 H 67.0386 0.464479 -1.36303 0
M  V30 688 H 68.9916 3.38413 -2.51107 0
M  V30 689 H 67.7156 2.98032 -1.33583 0
M  V30 690 H 66.3746 1.86727 -3.15481 0
M  V30 691 H 66.0226 4.28723 -2.6307 0
M  V30 692 H 65.7226 3.94659 -4.35337 0
M  V30 693 H 67.2466 4.7349 -3.85538 0
M  V30 694 H 68.6606 2.78083 -5.01341 0
M  V30 695 H 67.0576 2.2227 -5.57419 0
M  V30 696 H 68.1276 1.09331 -4.72414 0
M  V30 697 N 69.4707 1.49531 0.497807 0
M  V30 698 C 70.4007 1.6935 1.60757 0
M  V30 699 C 71.3817 0.542218 1.61227 0
M  V30 700 O 72.5667 0.778417 1.77917 0
M  V30 701 C 69.6967 1.76298 2.99226 0
M  V30 702 C 68.6507 2.91248 3.13622 0
M  V30 703 C 67.9767 2.83312 4.53474 0
M  V30 704 C 69.2767 4.3214 2.93346 0
M  V30 705 H 70.9707 2.62263 1.44425 0
M  V30 706 H 68.5167 1.26208 0.693367 0
M  V30 707 H 70.4697 1.88749 3.76765 0
M  V30 708 H 69.1937 0.799871 3.16654 0
M  V30 709 H 67.8527 2.78404 2.38509 0
M  V30 710 H 67.5007 1.84902 4.67782 0
M  V30 711 H 67.2007 3.60465 4.64046 0
M  V30 712 H 68.7247 2.97775 5.33069 0
M  V30 713 H 70.1387 4.45649 3.60652 0
M  V30 714 H 68.5357 5.1054 3.15387 0
M  V30 715 H 69.6057 4.46363 1.89441 0
M  V30 716 N 70.9488 -0.749086 1.3866 0
M  V30 717 C 71.8818 -1.87111 1.30631 0
M  V30 718 C 72.8598 -1.61572 0.18251 0
M  V30 719 O 74.0438 -1.85019 0.360592 0
M  V30 720 C 71.1708 -3.22815 1.02511 0
M  V30 721 C 70.2168 -3.67234 2.1689 0
M  V30 722 S 71.0498 -3.78245 3.79066 0
M  V30 723 C 72.2058 -5.16761 3.53142 0
M  V30 724 H 72.4388 -1.93636 2.25594 0
M  V30 725 H 69.9718 -0.912525 1.24549 0
M  V30 726 H 71.9298 -4.01181 0.869701 0
M  V30 727 H 70.5908 -3.13964 0.0925884 0
M  V30 728 H 69.7838 -4.65677 1.92771 0
M  V30 729 H 69.3858 -2.96034 2.28561 0
M  V30 730 H 71.6778 -6.02656 3.09534 0
M  V30 731 H 72.6208 -5.45902 4.50995 0
M  V30 732 H 73.0288 -4.85771 2.87554 0
M  V30 733 N 72.4269 -1.23603 -0.977757 0
M  V30 734 C 73.6519 -1.09735 -1.75991 0
M  V30 735 C 74.0769 0.346858 -1.84874 0
M  V30 736 O 73.4349 1.25093 -1.3123 0
M  V30 737 C 73.4829 -1.73051 -3.16363 0
M  V30 738 O 72.5869 -0.994452 -4.0023 0
M  V30 739 H 71.9279 -0.384476 -0.541364 0
M  V30 740 H 74.4579 -1.6371 -1.2272 0
M  V30 741 H 74.4679 -1.78398 -3.66931 0
M  V30 742 H 73.1429 -2.78137 -3.09213 0
M  V30 743 H 71.7199 -1.01812 -3.58732 0
M  V30 744 N 73.905 1.17692 -1.04816 0
M  V30 745 C 75.182 1.83768 -0.669963 0
M  V30 746 C 75.562 1.93232 0.849986 0
M  V30 747 O 74.91 1.46397 1.75443 0
M  V30 748 C 75.12 3.21641 -1.35455 0
M  V30 749 C 76.468 3.97592 -1.49017 0
M  V30 750 O 77.492 3.31107 -1.31326 0
M  V30 751 O 76.351 5.16729 -1.77914 0
M  V30 752 H 73.445 0.792799 -0.235368 0
M  V30 753 H 75.991 1.25021 -1.14751 0
M  V30 754 H 74.763 3.097 -2.39168 0
M  V30 755 H 74.386 3.88052 -0.866107 0
M  V30 756 N 75.3831 0.828654 1.34056 0
M  V30 757 C 76.3461 0.259927 2.27721 0
M  V30 758 C 77.3461 -0.565478 1.50529 0
M  V30 759 O 78.5361 -0.38075 1.69988 0
M  V30 760 C 75.6681 -0.634944 3.34935 0
M  V30 761 H 76.8611 1.0863 2.79534 0
M  V30 762 H 74.4141 0.600951 1.44285 0
M  V30 763 H 75.1491 -1.48416 2.88346 0
M  V30 764 H 74.9341 -0.0444999 3.92075 0
M  V30 765 H 76.4241 -1.02648 4.04788 0
M  V30 766 N 76.8612 -1.46375 0.584142 0
M  V30 767 C 78.1382 -1.956 0.0033388 0
M  V30 768 C 78.5182 -1.52679 -1.45782 0
M  V30 769 O 77.8662 -0.77816 -2.14842 0
M  V30 770 C 78.0762 -3.48551 0.176891 0
M  V30 771 C 79.4242 -4.24576 0.0454609 0
M  V30 772 O 80.4482 -3.56043 0.105801 0
M  V30 773 O 79.3072 -5.46427 -0.0890376 0
M  V30 774 H 76.4012 -0.825547 -0.0490066 0
M  V30 775 H 78.9472 -1.56652 0.65256 0
M  V30 776 H 77.7192 -3.72683 1.1926 0
M  V30 777 H 77.3422 -3.94332 -0.508695 0
M  V30 778 N 78.3393 -0.321999 -1.54275 0
M  V30 779 C 79.5853 0.281461 -2.00837 0
M  V30 780 C 79.9183 1.51909 -1.20985 0
M  V30 781 O 79.1933 1.923 -0.291733 0
M  V30 782 C 79.4763 0.617162 -3.54772 0
M  V30 783 C 79.3293 -0.631064 -4.45351 0
M  V30 784 C 80.6483 1.43542 -4.16033 0
M  V30 785 H 77.7673 0.100826 -0.730071 0
M  V30 786 H 80.4093 -0.438268 -1.84876 0
M  V30 787 H 78.5593 1.23034 -3.68504 0
M  V30 788 H 80.2313 -1.26934 -4.43492 0
M  V30 789 H 78.4743 -1.26025 -4.15091 0
M  V30 790 H 79.1453 -0.351735 -5.50878 0
M  V30 791 H 81.6213 0.917134 -4.05867 0
M  V30 792 H 80.4973 1.63907 -5.23856 0
M  V30 793 H 80.7583 2.43108 -3.69257 0
M  V30 794 N 79.8174 1.5752 -0.0501392 0
M  V30 795 C 80.7644 2.1147 0.924603 0
M  V30 796 C 81.7344 1.02182 1.30951 0
M  V30 797 O 82.9194 1.29723 1.39916 0
M  V30 798 C 80.0594 2.66337 2.19451 0
M  V30 799 C 79.1724 3.89708 1.86418 0
M  V30 800 C 78.3074 4.32893 3.07859 0
M  V30 801 C 77.3464 5.48967 2.70742 0
M  V30 802 N 76.4834 5.87211 3.84874 0
M  V30 803 H 81.3234 2.94465 0.457639 0
M  V30 804 H 78.8604 1.45531 0.214266 0
M  V30 805 H 80.8184 2.96247 2.93758 0
M  V30 806 H 79.4484 1.86141 2.63726 0
M  V30 807 H 78.5004 3.66396 1.02264 0
M  V30 808 H 79.8124 4.74074 1.55096 0
M  V30 809 H 78.9664 4.6435 3.90466 0
M  V30 810 H 77.7054 3.47336 3.42358 0
M  V30 811 H 76.7104 5.17183 1.86551 0
M  V30 812 H 77.9354 6.3624 2.37436 0
M  V30 813 H 75.8814 5.04607 4.19175 0
M  V30 814 H 75.7984 6.66266 3.57247 0
M  V30 815 H 77.0664 6.23282 4.68123 0
M  V30 816 N 81.2955 -0.223234 1.56011 0
M  V30 817 C 82.2255 -1.27988 1.95298 0
M  V30 818 C 83.2065 -1.48976 0.820979 0
M  V30 819 O 84.3915 -1.61188 1.08315 0
M  V30 820 C 81.5215 -2.63 2.26822 0
M  V30 821 C 80.4755 -2.56671 3.42497 0
M  V30 822 C 79.8015 -3.95697 3.59622 0
M  V30 823 C 81.1015 -2.11601 4.77517 0
M  V30 824 H 82.7955 -0.953525 2.8381 0
M  V30 825 H 80.3415 -0.457244 1.36548 0
M  V30 826 H 82.2945 -3.37077 2.52898 0
M  V30 827 H 81.0185 -2.9732 1.35161 0
M  V30 828 H 79.6775 -1.85051 3.16467 0
M  V30 829 H 79.3255 -4.27322 2.6534 0
M  V30 830 H 79.0255 -3.92345 4.37424 0
M  V30 831 H 80.5495 -4.71438 3.88044 0
M  V30 832 H 81.9635 -2.7542 5.02809 0
M  V30 833 H 80.3605 -2.19311 5.5859 0
M  V30 834 H 81.4305 -1.06824 4.72987 0
M  V30 835 N 82.7736 -1.49793 -0.48987 0
M  V30 836 C 84.0506 -1.50348 -1.25119 0
M  V30 837 C 84.4306 -0.237466 -2.0976 0
M  V30 838 O 83.7786 0.77981 -2.14782 0
M  V30 839 C 83.9886 -2.78872 -2.09837 0
M  V30 840 C 85.3366 -3.288 -2.68655 0
M  V30 841 O 86.3606 -2.80065 -2.20096 0
M  V30 842 O 85.2196 -4.13707 -3.57083 0
M  V30 843 H 82.3136 -0.602242 -0.566775 0
M  V30 844 H 84.8596 -1.62067 -0.503229 0
M  V30 845 H 83.6316 -3.62499 -1.47343 0
M  V30 846 H 83.2546 -2.70066 -2.91805 0
M  V30 847 N 84.2517 0.741722 -1.39055 0
M  V30 848 C 85.4977 1.50336 -1.36113 0
M  V30 849 C 85.8307 1.94148 0.0450796 0
M  V30 850 O 85.1057 1.66301 1.00868 0
M  V30 851 C 85.3887 2.74773 -2.32749 0
M  V30 852 C 85.2417 2.37023 -3.82283 0
M  V30 853 C 86.5607 3.76846 -2.27322 0
M  V30 854 H 83.6797 0.545351 -0.495743 0
M  V30 855 H 86.3217 0.848624 -1.69995 0
M  V30 856 H 84.4717 3.30639 -2.03986 0
M  V30 857 H 86.1437 1.8684 -4.21768 0
M  V30 858 H 84.3867 1.69334 -3.99385 0
M  V30 859 H 85.0577 3.26104 -4.45376 0
M  V30 860 H 87.5337 3.30548 -2.5274 0
M  V30 861 H 86.4097 4.6159 -2.97028 0
M  V30 862 H 86.6707 4.23286 -1.27599 0
M  V30 863 N 85.7298 1.2412 0.971189 0
M  V30 864 C 86.9778 1.07668 1.71032 0
M  V30 865 C 87.2988 -0.385797 1.91146 0
M  V30 866 O 86.5688 -1.27569 1.4867 0
M  V30 867 H 85.1488 0.395429 0.633755 0
M  V30 868 H 87.8108 1.55984 1.16855 0
M  V30 869 H 86.9068 1.57195 2.69622 0
M  V30 870 N 87.2079 -1.17134 1.05439 0
M  V30 871 C 88.6239 -1.39454 0.776201 0
M  V30 872 C 88.8239 -1.91454 -0.628307 0
M  V30 873 O 87.8799 -2.10777 -1.39031 0
M  V30 874 C 89.1929 -2.38305 1.83388 0
M  V30 875 C 90.7409 -2.52006 1.85639 0
M  V30 876 C 91.2159 -3.54133 2.90437 0
M  V30 877 N 92.7069 -3.61653 2.89415 0
M  V30 878 C 93.4419 -4.4044 3.67152 0
M  V30 879 N 92.9379 -5.22721 4.54681 0
M  V30 880 N 94.7309 -4.35337 3.55581 0
M  V30 881 H 86.8819 -0.817134 1.96053 0
M  V30 882 H 89.1449 -0.421626 0.849079 0
M  V30 883 H 88.8509 -2.07173 2.84204 0
M  V30 884 H 88.7249 -3.37841 1.67761 0
M  V30 885 H 91.1119 -2.82447 0.85486 0
M  V30 886 H 91.1929 -1.52537 2.05344 0
M  V30 887 H 90.8369 -3.24431 3.90777 0
M  V30 888 H 90.7669 -4.53313 2.67983 0
M  V30 889 H 93.2579 -3.02909 2.25952 0
M  V30 890 H 93.5709 -5.80027 5.10674 0
M  V30 891 H 91.9159 -5.22093 4.58741 0
M  V30 892 H 95.1069 -3.70112 2.86592 0
M  V30 893 H 95.2799 -4.96494 4.1641 0
M  V30 894 N 88.686 -0.835752 -1.33615 0
M  V30 895 C 89.963 -0.352017 -1.92406 0
M  V30 896 C 90.343 1.16225 -1.76224 0
M  V30 897 O 89.691 1.97526 -1.14873 0
M  V30 898 C 89.901 -0.795485 -3.39813 0
M  V30 899 C 91.249 -0.801703 -4.16963 0
M  V30 900 O 92.273 -0.738889 -3.48452 0
M  V30 901 O 91.132 -0.886607 -5.3926 0
M  V30 902 H 88.226 -0.0989641 -0.821057 0
M  V30 903 H 90.772 -0.921397 -1.42507 0
M  V30 904 H 89.544 -1.83795 -3.45449 0
M  V30 905 H 89.167 -0.202505 -3.97084 0
M  V30 906 N 90.1641 1.46063 -0.591896 0
M  V30 907 C 91.3891 2.07226 -0.0850314 0
M  V30 908 C 91.8141 1.43625 1.21463 0
M  V30 909 O 91.1721 0.523305 1.73583 0
M  V30 910 C 91.2201 3.60554 0.0576567 0
M  V30 911 O 90.3241 3.97128 1.11188 0
M  V30 912 H 89.6651 0.660615 -0.0669568 0
M  V30 913 H 92.1951 1.8756 -0.81745 0
M  V30 914 H 92.2051 4.07165 0.2609 0
M  V30 915 H 90.8801 4.06235 -0.891416 0
M  V30 916 H 89.4571 3.62213 0.886356 0
M  V30 917 N 91.6422 0.330177 1.54103 0
M  V30 918 C 92.8702 -0.272179 2.05102 0
M  V30 919 C 93.2852 -1.45267 1.20595 0
M  V30 920 O 92.6422 -1.8094 0.238144 0
M  V30 921 C 92.6932 -0.70023 3.54653 0
M  V30 922 O 92.4142 0.433301 4.35952 0
M  V30 923 C 93.9152 -1.3647 4.21771 0
M  V30 924 H 91.1352 -0.0549159 0.668749 0
M  V30 925 H 93.6792 0.478285 1.98828 0
M  V30 926 H 91.8342 -1.40066 3.61193 0
M  V30 927 H 92.2482 0.0947539 5.24414 0
M  V30 928 H 93.7222 -1.61509 5.27843 0
M  V30 929 H 94.1992 -2.31409 3.73292 0
M  V30 930 H 94.8052 -0.706675 4.19388 0
M  V30 931 N 93.1203 -1.57491 0.0584922 0
M  V30 932 C 94.5363 -1.56792 -0.298091 0
M  V30 933 C 94.7363 -1.06679 -1.70944 0
M  V30 934 O 93.7923 -0.726672 -2.41818 0
M  V30 935 C 95.1053 -3.00461 -0.119879 0
M  V30 936 C 96.6533 -3.1242 -0.190428 0
M  V30 937 C 97.1283 -4.57982 -0.0406567 0
M  V30 938 N 98.6193 -4.63099 -0.0966958 0
M  V30 939 C 99.3543 -5.734 -0.00502943 0
M  V30 940 N 98.8503 -6.9266 0.139402 0
M  V30 941 N 100.643 -5.62067 -0.0611391 0
M  V30 942 H 92.7943 -1.88386 0.98105 0
M  V30 943 H 95.0573 -0.867865 0.381463 0
M  V30 944 H 94.7633 -3.41187 0.85349 0
M  V30 945 H 94.6373 -3.66843 -0.877833 0
M  V30 946 H 97.0243 -2.71589 -1.15427 0
M  V30 947 H 97.1053 -2.48702 0.598405 0
M  V30 948 H 96.7493 -4.995 0.919897 0
M  V30 949 H 96.6793 -5.19715 -0.848727 0
M  V30 950 H 99.1703 -3.77331 -0.207277 0
M  V30 951 H 99.4833 -7.72536 0.201855 0
M  V30 952 H 97.8283 -6.94781 0.174586 0
M  V30 953 H 101.019 -4.67782 -0.172583 0
M  V30 954 H 101.192 -6.47999 0.0137562 0
M  V30 955 N 94.5984 0.214957 -1.56127 0
M  V30 956 C 95.8464 0.936518 -1.79091 0
M  V30 957 C 96.1674 1.84606 -0.628148 0
M  V30 958 O 95.4374 1.92664 0.35462 0
M  V30 959 H 94.0174 0.3488 -0.660566 0
M  V30 960 H 96.6794 0.22523 -1.93594 0
M  V30 961 H 95.7754 1.53943 -2.71492 0
M  V30 962 N 96.0765 1.50051 0.48192 0
M  V30 963 C 97.0065 1.71046 1.58951 0
M  V30 964 C 97.9875 0.559288 1.60642 0
M  V30 965 O 99.1725 0.797243 1.77081 0
M  V30 966 C 96.3025 1.79462 2.97339 0
M  V30 967 C 95.2565 2.94558 3.10515 0
M  V30 968 C 94.5825 2.88105 4.50444 0
M  V30 969 C 95.8825 4.35227 2.88747 0
M  V30 970 H 97.5765 2.6378 1.41635 0
M  V30 971 H 95.1225 1.26936 0.679942 0
M  V30 972 H 97.0755 1.92734 3.74742 0
M  V30 973 H 95.7995 0.833412 3.15788 0
M  V30 974 H 94.4585 2.80918 2.35543 0
M  V30 975 H 94.1065 1.89853 4.65795 0
M  V30 976 H 93.8065 3.65366 4.60197 0
M  V30 977 H 95.3305 3.03412 5.29881 0
M  V30 978 H 96.7445 4.49449 3.55905 0
M  V30 979 H 95.1415 5.13856 3.09955 0
M  V30 980 H 96.2115 4.48347 1.84696 0
M  V30 981 N 97.5546 -0.734337 1.39446 0
M  V30 982 C 98.8026 -1.49096 1.36436 0
M  V30 983 C 99.1236 -1.94961 -0.0388255 0
M  V30 984 O 98.3936 -1.69033 -0.990191 0
M  V30 985 H 96.9736 -0.5531 0.502085 0
M  V30 986 H 99.6356 -0.871725 1.74319 0
M  V30 987 H 98.7316 -2.37276 2.02747 0
M  V30 988 N 99.0327 -1.24633 -0.964593 0
M  V30 989 C 99.9957 -1.0424 -2.04124 0
M  V30 990 C 100.996 0.00137563 -1.608 0
M  V30 991 O 102.186 -0.239883 -1.7254 0
M  V30 992 C 99.3177 -0.580588 -3.3592 0
M  V30 993 H 100.511 -1.99803 -2.23649 0
M  V30 994 H 98.0637 -1.06899 -1.14027 0
M  V30 995 H 98.7987 0.3781 -3.22088 0
M  V30 996 H 98.5837 -1.33398 -3.6871 0
M  V30 997 H 100.074 -0.459034 -4.15069 0
M  V30 998 N 100.511 1.16574 -1.06058 0
M  V30 999 C 101.759 1.86677 -0.77434 0
M  V30 1000 C 102.08 1.81959 0.701147 0
M  V30 1001 O 101.35 1.2515 1.50713 0
M  V30 1002 H 99.9298 0.691134 -0.283449 0
M  V30 1003 H 102.592 1.41378 -1.34158 0
M  V30 1004 H 101.688 2.92181 -1.09711 0
M  V30 1005 N 101.989 0.842826 1.3317 0
M  V30 1006 C 102.952 0.284065 2.27433 0
M  V30 1007 C 103.952 -0.54948 1.5112 0
M  V30 1008 O 105.142 -0.362699 1.70382 0
M  V30 1009 C 102.274 -0.599384 3.35589 0
M  V30 1010 H 103.467 1.11589 2.78366 0
M  V30 1011 H 101.02 0.616221 1.4364 0
M  V30 1012 H 101.755 -1.45349 2.89904 0
M  V30 1013 H 101.54 -0.00291266 3.921 0
M  V30 1014 H 103.03 -0.983488 4.05854 0
M  V30 1015 N 103.467 -1.45747 0.599634 0
M  V30 1016 C 104.744 -1.95585 0.0240846 0
M  V30 1017 C 105.124 -1.54217 -1.44154 0
M  V30 1018 O 104.472 -0.800903 -2.14004 0
M  V30 1019 C 104.682 -3.48344 0.21385 0
M  V30 1020 C 106.03 -4.24504 0.0904902 0
M  V30 1021 O 107.054 -3.55911 0.143558 0
M  V30 1022 O 105.913 -5.46491 -0.0310766 0
M  V30 1023 H 103.007 -0.82602 -0.0402478 0
M  V30 1024 H 105.553 -1.55951 0.669139 0
M  V30 1025 H 104.325 -3.71397 1.23206 0
M  V30 1026 H 103.948 -3.9485 -0.466842 0
M  V30 1027 N 104.945 -0.338344 -1.53925 0
M  V30 1028 C 106.356 0.146651 -1.86123 0
M  V30 1029 C 106.707 1.5042 -1.2597 0
M  V30 1030 O 105.832 2.08723 -0.571294 0
M  V30 1031 C 106.427 0.272879 -3.37699 0
M  V30 1032 C 104.986 0.702103 -3.69794 0
M  V30 1033 C 104.133 -0.167304 -2.76795 0
M  V30 1034 H 107.084 -0.558123 -1.48562 0
M  V30 1035 H 107.105 1.10128 -3.64214 0
M  V30 1036 H 106.617 -0.715307 -3.81451 0
M  V30 1037 H 104.718 1.6995 -3.31584 0
M  V30 1038 H 104.831 0.495604 -4.7653 0
M  V30 1039 H 103.195 0.359527 -2.5215 0
M  V30 1040 H 103.978 -1.15253 -3.23375 0
M  V30 1041 N 106.423 1.57458 -0.0668435 0
M  V30 1042 C 107.333 2.15937 0.916975 0
M  V30 1043 C 108.349 1.12123 1.33058 0
M  V30 1044 O 109.525 1.44366 1.40429 0
M  V30 1045 C 106.59 2.70547 2.16807 0
M  V30 1046 C 105.651 3.89215 1.81135 0
M  V30 1047 C 104.884 4.41211 3.0028 0
M  V30 1048 O 105.107 3.92225 4.14144 0
M  V30 1049 O 104.041 5.32605 2.80384 0
M  V30 1050 H 107.867 3.00354 0.449561 0
M  V30 1051 H 105.452 1.48584 0.155949 0
M  V30 1052 H 107.334 3.0557 2.90181 0
M  V30 1053 H 106.009 1.89192 2.62656 0
M  V30 1054 H 104.916 3.59054 1.05028 0
M  V30 1055 H 106.249 4.71848 1.40073 0
M  V30 1056 N 107.901 -0.206675 1.56239 0
M  V30 1057 C 109.147 -0.930218 1.80208 0
M  V30 1058 C 109.48 -1.83387 0.638981 0
M  V30 1059 O 108.755 -1.91119 -0.361066 0
M  V30 1060 C 109.038 -1.75641 3.1436 0
M  V30 1061 C 108.891 -0.878257 4.41142 0
M  V30 1062 C 110.21 -2.73129 3.45092 0
M  V30 1063 H 107.329 -0.336742 0.655571 0
M  V30 1064 H 109.971 -0.198222 1.88963 0
M  V30 1065 H 108.121 -2.38048 3.07027 0
M  V30 1066 H 109.793 -0.269787 4.6051 0
M  V30 1067 H 108.036 -0.184385 4.33408 0
M  V30 1068 H 108.707 -1.49106 5.3148 0
M  V30 1069 H 111.183 -2.20856 3.52649 0
M  V30 1070 H 110.059 -3.28028 4.40101 0
M  V30 1071 H 110.32 -3.51606 2.68003 0
M  V30 1072 N 109.379 -1.50304 -0.473955 0
M  V30 1073 C 110.627 -1.60832 -1.22382 0
M  V30 1074 C 110.948 -0.30939 -1.9253 0
M  V30 1075 O 110.218 0.67296 -1.83978 0
M  V30 1076 H 108.798 -0.592652 -0.454723 0
M  V30 1077 H 111.46 -1.87068 -0.546968 0
M  V30 1078 H 110.556 -2.41803 -1.97327 0
M  V30 1079 N 110.857 0.726932 -1.39834 0
M  V30 1080 C 112.273 1.03354 -1.21615 0
M  V30 1081 C 112.473 2.01327 -0.08338 0
M  V30 1082 O 111.529 2.46158 0.56238 0
M  V30 1083 C 112.842 1.58811 -2.55342 0
M  V30 1084 C 114.39 1.70851 -2.62257 0
M  V30 1085 C 114.865 2.29716 -3.96225 0
M  V30 1086 N 116.356 2.37116 -3.97907 0
M  V30 1087 C 117.091 2.83619 -4.98345 0
M  V30 1088 N 116.587 3.29958 -6.09179 0
M  V30 1089 N 118.38 2.82901 -4.8572 0
M  V30 1090 H 110.531 0.0773069 -2.12259 0
M  V30 1091 H 112.794 0.0969102 -0.943034 0
M  V30 1092 H 112.5 0.942855 -3.38826 0
M  V30 1093 H 112.374 2.57502 -2.75632 0
M  V30 1094 H 114.761 2.34497 -1.79152 0
M  V30 1095 H 114.842 0.707913 -2.45809 0
M  V30 1096 H 114.486 1.66696 -4.79765 0
M  V30 1097 H 114.416 3.30469 -4.09997 0
M  V30 1098 H 116.907 2.04374 -3.17868 0
M  V30 1099 H 117.22 3.63976 -6.8172 0
M  V30 1100 H 115.565 3.27946 -6.12761 0
M  V30 1101 H 118.756 2.46027 -3.98231 0
M  V30 1102 H 118.929 3.18827 -5.6414 0
M  V30 1103 N 112.336 1.25143 0.95797 0
M  V30 1104 C 113.283 1.05235 2.05412 0
M  V30 1105 C 114.253 -0.0374561 1.66058 0
M  V30 1106 O 115.438 0.119073 1.90428 0
M  V30 1107 C 112.578 0.673589 3.38462 0
M  V30 1108 C 111.691 1.8379 3.90954 0
M  V30 1109 C 110.826 1.40381 5.12315 0
M  V30 1110 C 109.865 2.53746 5.57027 0
M  V30 1111 N 109.002 2.11136 6.69601 0
M  V30 1112 H 113.842 1.99048 2.21774 0
M  V30 1113 H 111.379 0.991277 1.08683 0
M  V30 1114 H 113.337 0.434964 4.14926 0
M  V30 1115 H 111.967 -0.227554 3.21997 0
M  V30 1116 H 111.019 2.18992 3.11041 0
M  V30 1117 H 112.331 2.68937 4.20089 0
M  V30 1118 H 111.485 1.12464 5.96185 0
M  V30 1119 H 110.224 0.523015 4.84887 0
M  V30 1120 H 109.229 2.82412 4.71724 0
M  V30 1121 H 110.454 3.42398 5.86464 0
M  V30 1122 H 108.4 1.25468 6.4389 0
M  V30 1123 H 108.317 2.89832 6.98236 0
M  V30 1124 H 109.585 1.86385 7.56889 0
M  V30 1125 N 113.814 -1.1601 1.06675 0
M  V30 1126 C 114.777 -2.18724 0.685001 0
M  V30 1127 C 115.777 -1.58496 -0.271246 0
M  V30 1128 O 116.967 -1.74119 -0.0531156 0
M  V30 1129 C 114.099 -3.40899 0.00853648 0
M  V30 1130 H 115.292 -2.54011 1.59431 0
M  V30 1131 H 112.845 -1.30352 0.862441 0
M  V30 1132 H 113.58 -3.11173 -0.913337 0
M  V30 1133 H 113.365 -3.8587 0.696204 0
M  V30 1134 H 114.855 -4.16886 -0.24414 0
M  V30 1135 N 115.292 -0.849877 -1.32721 0
M  V30 1136 C 116.255 -0.296122 -2.27279 0
M  V30 1137 C 117.255 0.541458 -1.5141 0
M  V30 1138 O 118.445 0.353658 -1.70572 0
M  V30 1139 C 115.577 0.581579 -3.35902 0
M  V30 1140 H 116.77 -1.13064 -2.77771 0
M  V30 1141 H 114.323 -0.62383 -1.43311 0
M  V30 1142 H 115.058 1.43809 -2.9067 0
M  V30 1143 H 114.843 -0.0178814 -3.92096 0
M  V30 1144 H 116.333 0.961951 -4.0637 0
M  V30 1145 N 116.77 1.45427 -0.607355 0
M  V30 1146 C 117.68 2.34325 0.113463 0
M  V30 1147 C 118.696 1.51226 0.860617 0
M  V30 1148 O 119.872 1.84029 0.818255 0
M  V30 1149 C 116.937 3.28839 1.09844 0
M  V30 1150 C 115.998 4.27844 0.353271 0
M  V30 1151 C 115.231 5.17842 1.29133 0
M  V30 1152 O 115.454 5.11264 2.52913 0
M  V30 1153 O 114.388 5.96713 0.788523 0
M  V30 1154 H 118.214 2.97364 -0.617094 0
M  V30 1155 H 115.799 1.44807 -0.367619 0
M  V30 1156 H 117.681 3.8708 1.66575 0
M  V30 1157 H 116.356 2.68365 1.81003 0
M  V30 1158 H 115.263 3.7322 -0.256494 0
M  V30 1159 H 116.596 4.91173 -0.317822 0
M  V30 1160 N 118.248 0.346503 1.53744 0
M  V30 1161 C 119.525 -0.304532 1.93215 0
M  V30 1162 C 119.905 -1.67993 1.27834 0
M  V30 1163 O 119.253 -2.24411 0.430352 0
M  V30 1164 C 119.463 -0.373852 3.46992 0
M  V30 1165 C 120.811 -0.62329 4.2 0
M  V30 1166 O 121.835 -0.455847 3.53271 0
M  V30 1167 O 120.694 -0.947879 5.38217 0
M  V30 1168 H 117.788 -0.178318 0.807547 0
M  V30 1169 H 120.334 0.397895 1.64969 0
M  V30 1170 H 119.106 0.591224 3.86808 0
M  V30 1171 H 118.729 -1.12294 3.81413 0
M  V30 1172 N 119.726 -1.57421 0.075193 0
M  V30 1173 C 120.689 -2.11791 -0.876203 0
M  V30 1174 C 121.689 -1.04268 -1.22412 0
M  V30 1175 O 122.879 -1.30242 -1.15684 0
M  V30 1176 C 120.011 -2.62207 -2.17854 0
M  V30 1177 H 121.204 -2.9716 -0.40444 0
M  V30 1178 H 118.757 -1.55333 -0.173557 0
M  V30 1179 H 119.492 -1.803 -2.6956 0
M  V30 1180 H 119.277 -3.40802 -1.93897 0
M  V30 1181 H 120.767 -3.04335 -2.85955 0
M  V30 1182 N 121.204 0.198386 -1.56346 0
M  V30 1183 C 122.151 1.24589 -1.94284 0
M  V30 1184 C 123.121 1.454 -0.802997 0
M  V30 1185 O 124.306 1.58588 -1.06087 0
M  V30 1186 C 121.446 2.58631 -2.28482 0
M  V30 1187 C 120.559 2.45426 -3.55514 0
M  V30 1188 C 119.694 3.7215 -3.79049 0
M  V30 1189 C 118.733 3.53763 -4.99518 0
M  V30 1190 N 117.87 4.72491 -5.19323 0
M  V30 1191 H 122.71 0.915356 -2.83593 0
M  V30 1192 H 120.247 0.440629 -1.40346 0
M  V30 1193 H 122.205 3.3672 -2.46324 0
M  V30 1194 H 120.835 2.89734 -1.42317 0
M  V30 1195 H 119.887 1.58652 -3.45737 0
M  V30 1196 H 121.199 2.27772 -4.43758 0
M  V30 1197 H 120.353 4.58679 -3.97113 0
M  V30 1198 H 119.092 3.92754 -2.89129 0
M  V30 1199 H 118.097 2.65619 -4.8138 0
M  V30 1200 H 119.322 3.34607 -5.90944 0
M  V30 1201 H 117.268 4.93365 -4.3235 0
M  V30 1202 H 117.185 4.5765 -6.01741 0
M  V30 1203 H 118.453 5.6038 -5.41843 0
M  V30 1204 N 122.682 1.50554 0.465978 0
M  V30 1205 C 123.959 1.5232 1.22712 0
M  V30 1206 C 124.339 0.270807 2.09356 0
M  V30 1207 O 123.687 -0.745541 2.15995 0
M  V30 1208 C 123.897 2.82175 2.05374 0
M  V30 1209 C 125.245 3.33033 2.6339 0
M  V30 1210 O 126.269 2.83531 2.15612 0
M  V30 1211 O 125.128 4.19336 3.50456 0
M  V30 1212 H 122.222 0.611183 0.557122 0
M  V30 1213 H 124.768 1.62847 0.477381 0
M  V30 1214 H 123.54 3.64797 1.41558 0
M  V30 1215 H 123.163 2.74675 2.87471 0
M  V30 1216 N 124.16 -0.719506 1.40217 0
M  V30 1217 C 125.07 -1.86378 1.42479 0
M  V30 1218 C 126.086 -1.71073 0.317834 0
M  V30 1219 O 127.262 -1.93406 0.561794 0
M  V30 1220 C 124.327 -3.22136 1.28178 0
M  V30 1221 C 123.388 -3.49723 2.48982 0
M  V30 1222 C 122.621 -4.79004 2.35353 0
M  V30 1223 O 122.844 -5.53821 1.36524 0
M  V30 1224 O 121.778 -5.06839 3.2465 0
M  V30 1225 H 125.604 -1.87425 2.38968 0
M  V30 1226 H 123.189 -0.869405 1.21498 0
M  V30 1227 H 125.071 -4.03234 1.22395 0
M  V30 1228 H 123.746 -3.21825 0.347934 0
M  V30 1229 H 122.653 -2.6865 2.60342 0
M  V30 1230 H 123.986 -3.54828 3.41113 0
M  V30 1231 N 125.638 -1.25649 -0.95132 0
M  V30 1232 C 126.887 -1.09988 -1.69073 0
M  V30 1233 C 127.2 0.358355 -1.92289 0
M  V30 1234 O 128.406 0.635466 -2.63958 0
M  V30 1235 C 126.862 -1.92012 -3.044 0
M  V30 1236 C 126.47 -3.42347 -2.88968 0
M  V30 1237 C 128.214 -1.8493 -3.82101 0
M  V30 1238 C 126.121 -4.16655 -4.19705 0
M  V30 1239 H 125.051 -0.407993 -0.63408 0
M  V30 1240 H 127.702 -1.49873 -1.05879 0
M  V30 1241 H 126.084 -1.44952 -3.68517 0
M  V30 1242 H 127.258 -3.97104 -2.33762 0
M  V30 1243 H 125.573 -3.50557 -2.24719 0
M  V30 1244 H 128.17 -2.37739 -4.78941 0
M  V30 1245 H 128.513 -0.817883 -4.08187 0
M  V30 1246 H 129.046 -2.29758 -3.2474 0
M  V30 1247 H 125.785 -5.20224 -3.98807 0
M  V30 1248 H 125.305 -3.66681 -4.74663 0
M  V30 1249 H 126.984 -4.24551 -4.88227 0
M  V30 1250 N 127.117 1.15442 -1.07289 0
M  V30 1251 C 128.027 2.23786 -0.704057 0
M  V30 1252 C 129.043 1.7166 0.284413 0
M  V30 1253 O 130.219 2.00972 0.131205 0
M  V30 1254 C 127.284 3.46535 -0.106792 0
M  V30 1255 C 126.345 4.13654 -1.14842 0
M  V30 1256 C 125.578 5.30544 -0.57956 0
M  V30 1257 O 125.801 5.67187 0.604585 0
M  V30 1258 O 124.735 5.87154 -1.32414 0
M  V30 1259 H 128.561 2.57664 -1.60757 0
M  V30 1260 H 126.146 1.23152 -0.845803 0
M  V30 1261 H 128.028 4.20804 0.224048 0
M  V30 1262 H 126.703 3.14407 0.770049 0
M  V30 1263 H 125.61 3.4131 -1.5316 0
M  V30 1264 H 126.943 4.49861 -1.99714 0
M  V30 1265 N 128.595 0.856903 1.32268 0
M  V30 1266 C 129.505 0.306131 2.32594 0
M  V30 1267 C 130.521 -0.577209 1.64147 0
M  V30 1268 O 131.697 -0.477043 1.95669 0
M  V30 1269 C 128.762 -0.494561 3.43154 0
M  V30 1270 C 127.823 0.415186 4.27288 0
M  V30 1271 C 127.056 -0.347387 5.32568 0
M  V30 1272 O 127.279 -1.57708 5.48165 0
M  V30 1273 O 126.213 0.287982 6.01211 0
M  V30 1274 H 130.039 1.13737 2.81598 0
M  V30 1275 H 127.624 0.619902 1.35932 0
M  V30 1276 H 129.506 -0.948944 4.10576 0
M  V30 1277 H 128.181 -1.30257 2.96336 0
M  V30 1278 H 127.088 0.917793 3.62667 0
M  V30 1279 H 128.421 1.18844 4.77637 0
M  V30 1280 N 130.073 -1.45103 0.615059 0
M  V30 1281 C 131.003 -2.33339 -0.0865619 0
M  V30 1282 C 131.984 -1.4727 -0.851209 0
M  V30 1283 O 133.169 -1.76026 -0.820281 0
M  V30 1284 C 130.299 -3.30095 -1.07956 0
M  V30 1285 C 129.253 -4.25858 -0.427628 0
M  V30 1286 C 128.579 -5.12361 -1.5294 0
M  V30 1287 C 129.879 -5.18165 0.655944 0
M  V30 1288 H 131.573 -2.92254 0.650224 0
M  V30 1289 H 129.119 -1.40532 0.314138 0
M  V30 1290 H 131.072 -3.90698 -1.57901 0
M  V30 1291 H 129.796 -2.69355 -1.84703 0
M  V30 1292 H 128.455 -3.66564 0.0510292 0
M  V30 1293 H 128.103 -4.47984 -2.28734 0
M  V30 1294 H 127.803 -5.77238 -1.09865 0
M  V30 1295 H 129.327 -5.75833 -2.03098 0
M  V30 1296 H 130.741 -5.72796 0.240257 0
M  V30 1297 H 129.138 -5.91559 1.00888 0
M  V30 1298 H 130.208 -4.60144 1.52957 0
M  V30 1299 N 131.551 -0.354651 -1.53558 0
M  V30 1300 C 132.481 0.489091 -2.2832 0
M  V30 1301 C 133.462 1.09324 -1.30316 0
M  V30 1302 O 134.647 1.11255 -1.59173 0
M  V30 1303 C 131.777 1.63456 -3.0643 0
M  V30 1304 C 130.731 1.1582 -4.12031 0
M  V30 1305 C 130.057 2.39305 -4.7816 0
M  V30 1306 C 131.357 0.250731 -5.21698 0
M  V30 1307 H 133.051 -0.134614 -2.99097 0
M  V30 1308 H 130.597 -0.0661826 -1.43848 0
M  V30 1309 H 132.55 2.23136 -3.57475 0
M  V30 1310 H 131.274 2.28533 -2.33325 0
M  V30 1311 H 129.933 0.584146 -3.61916 0
M  V30 1312 H 129.581 3.02814 -4.01637 0
M  V30 1313 H 129.281 2.08109 -5.49513 0
M  V30 1314 H 130.805 2.99691 -5.31994 0
M  V30 1315 H 132.219 0.754695 -5.68311 0
M  V30 1316 H 130.616 0.0301468 -6.00092 0
M  V30 1317 H 131.686 -0.710125 -4.79672 0
M  V30 1318 N 133.029 1.57378 -0.0835403 0
M  V30 1319 C 134.445 1.57246 0.273109 0
M  V30 1320 C 134.645 1.09385 1.69225 0
M  V30 1321 O 133.701 0.765051 2.40631 0
M  V30 1322 C 135.014 3.00614 0.0720628 0
M  V30 1323 C 136.562 3.12684 0.1407 0
M  V30 1324 C 137.037 4.57989 -0.0322094 0
M  V30 1325 N 138.528 4.63194 0.0230085 0
M  V30 1326 C 139.263 5.73335 -0.0861941 0
M  V30 1327 N 138.759 6.9235 -0.24958 0
M  V30 1328 N 140.552 5.62093 -0.0282886 0
M  V30 1329 H 132.703 1.86801 -1.0109 0
M  V30 1330 H 134.966 0.861687 -0.395222 0
M  V30 1331 H 134.672 3.39786 -0.907662 0
M  V30 1332 H 134.546 3.68193 0.81936 0
M  V30 1333 H 136.933 2.73391 1.11092 0
M  V30 1334 H 137.014 2.47719 -0.637896 0
M  V30 1335 H 136.658 4.97973 -0.999247 0
M  V30 1336 H 136.588 5.21 0.765937 0
M  V30 1337 H 139.079 3.77613 0.14722 0
M  V30 1338 H 139.392 7.72117 -0.324733 0
M  V30 1339 H 137.737 6.94415 -0.285097 0
M  V30 1340 H 140.928 4.67997 0.0981408 0
M  V30 1341 H 141.101 6.47895 -0.116845 0
M  V30 1342 N 134.507 -0.190092 1.56449 0
M  V30 1343 C 135.755 -0.907908 1.80559 0
M  V30 1344 C 136.076 -1.83583 0.657438 0
M  V30 1345 O 135.346 -1.93203 -0.323924 0
M  V30 1346 H 133.926 -0.338247 0.666032 0
M  V30 1347 H 136.588 -0.194403 1.93928 0
M  V30 1348 H 135.684 -1.49604 2.73907 0
M  V30 1349 N 135.985 -1.50799 -0.457987 0
M  V30 1350 C 136.948 -1.7005 -1.53674 0
M  V30 1351 C 137.948 -0.570881 -1.50325 0
M  V30 1352 O 139.138 -0.838126 -1.52712 0
M  V30 1353 C 136.27 -1.73788 -2.93276 0
M  V30 1354 H 137.463 -2.66306 -1.37917 0
M  V30 1355 H 135.016 -1.40477 -0.685271 0
M  V30 1356 H 135.751 -0.792717 -3.14462 0
M  V30 1357 H 135.536 -2.55864 -2.97113 0
M  V30 1358 H 137.026 -1.90591 -3.71571 0
M  V30 1359 N 137.463 0.71206 -1.40597 0
M  V30 1360 C 138.74 1.46536 -1.29563 0
M  V30 1361 C 139.12 2.10931 0.0844217 0
M  V30 1362 O 138.468 2.00418 1.0975 0
M  V30 1363 C 138.678 2.49821 -2.43701 0
M  V30 1364 C 140.026 3.15551 -2.841 0
M  V30 1365 O 141.05 2.60142 -2.4332 0
M  V30 1366 O 139.909 4.15867 -3.54566 0
M  V30 1367 H 137.003 0.651801 -0.509004 0
M  V30 1368 H 139.549 0.743935 -1.52524 0
M  V30 1369 H 138.321 2.00778 -3.35863 0
M  V30 1370 H 137.944 3.29495 -2.22528 0
M  V30 1371 N 138.941 1.26152 0.944643 0
M  V30 1372 C 139.874 1.01729 2.04271 0
M  V30 1373 C 140.852 -0.0568101 1.62501 0
M  V30 1374 O 142.036 0.0848987 1.88309 0
M  V30 1375 C 139.163 0.539792 3.34371 0
M  V30 1376 C 138.209 1.60593 3.9511 0
M  V30 1377 S 139.042 3.19392 4.29825 0
M  V30 1378 C 140.198 2.73402 5.63029 0
M  V30 1379 H 140.431 1.94703 2.24673 0
M  V30 1380 H 137.964 1.09793 1.08558 0
M  V30 1381 H 139.922 0.270956 4.09605 0
M  V30 1382 H 138.583 -0.369609 3.11918 0
M  V30 1383 H 137.776 1.22275 4.88943 0
M  V30 1384 H 137.378 1.82596 3.26397 0
M  V30 1385 H 139.67 2.1765 6.41588 0
M  V30 1386 H 140.613 3.65913 6.06229 0
M  V30 1387 H 141.021 2.13077 5.22741 0
M  V30 1388 N 140.419 -1.14872 1.07899 0
M  V30 1389 C 141.665 -1.86064 0.806725 0
M  V30 1390 C 141.998 -1.82434 -0.665706 0
M  V30 1391 O 141.273 -1.25138 -1.48899 0
M  V30 1392 C 141.556 -3.34929 1.32267 0
M  V30 1393 C 141.409 -3.47161 2.86006 0
M  V30 1394 C 142.728 -4.29863 0.943717 0
M  V30 1395 H 139.847 -0.675591 0.294526 0
M  V30 1396 H 142.489 -1.34925 1.33773 0
M  V30 1397 H 140.639 -3.78611 0.870974 0
M  V30 1398 H 142.311 -3.12302 3.39507 0
M  V30 1399 H 140.554 -2.88539 3.23925 0
M  V30 1400 H 141.225 -4.51777 3.17177 0
M  V30 1401 H 143.701 -3.9417 1.33302 0
M  V30 1402 H 142.577 -5.32494 1.33198 0
M  V30 1403 H 142.838 -4.41846 -0.149796 0
M  V30 1404 N 141.898 -0.863906 -1.31812 0
M  V30 1405 C 143.145 -0.471836 -1.96926 0
M  V30 1406 C 143.473 0.974578 -1.68322 0
M  V30 1407 O 142.728 1.7003 -0.968933 0
M  V30 1408 C 143.027 -0.668547 -3.51091 0
M  V30 1409 C 142.693 -2.08683 -3.99703 0
M  V30 1410 C 141.355 -2.47471 -4.12688 0
M  V30 1411 C 143.707 -3.01207 -4.25351 0
M  V30 1412 C 141.035 -3.78037 -4.4867 0
M  V30 1413 C 143.387 -4.31282 -4.62794 0
M  V30 1414 C 142.051 -4.69992 -4.73987 0
M  V30 1415 H 141.321 -0.172657 -0.720604 0
M  V30 1416 H 143.968 -1.09573 -1.57054 0
M  V30 1417 H 142.273 0.0385252 -3.91781 0
M  V30 1418 H 143.97 -0.345102 -3.99512 0
M  V30 1419 H 140.56 -1.77566 -3.90087 0
M  V30 1420 H 144.744 -2.72469 -4.14819 0
M  V30 1421 H 140 -4.078 -4.55532 0
M  V30 1422 H 144.174 -5.03031 -4.81594 0
M  V30 1423 H 141.801 -5.71207 -5.01624 0
M  V30 1424 N 143.376 1.44774 -0.622745 0
M  V30 1425 C 144.622 2.0242 -0.124083 0
M  V30 1426 C 144.955 1.4881 1.24777 0
M  V30 1427 O 144.23 0.668799 1.8264 0
M  V30 1428 C 144.513 3.59957 -0.101619 0
M  V30 1429 C 144.366 4.23867 -1.50521 0
M  V30 1430 C 145.685 4.36284 0.578272 0
M  V30 1431 H 142.804 0.735528 -0.0465645 0
M  V30 1432 H 145.446 1.72447 -0.797617 0
M  V30 1433 H 143.596 3.85623 0.471934 0
M  V30 1434 H 145.268 4.09336 -2.12701 0
M  V30 1435 H 143.511 3.81684 -2.06154 0
M  V30 1436 H 144.182 5.32843 -1.4416 0
M  V30 1437 H 146.658 4.16001 0.0906057 0
M  V30 1438 H 145.534 5.46004 0.563149 0
M  V30 1439 H 145.795 4.10271 1.64713 0
M  V30 1440 N 144.854 0.36279 1.53368 0
M  V30 1441 C 146.082 -0.228613 2.05633 0
M  V30 1442 C 146.497 -1.42676 1.23649 0
M  V30 1443 O 145.854 -1.80394 0.27647 0
M  V30 1444 C 145.905 -0.624845 3.56059 0
M  V30 1445 O 145.626 0.525675 4.34935 0
M  V30 1446 C 147.127 -1.27493 4.24571 0
M  V30 1447 H 144.347 -0.0407183 0.669763 0
M  V30 1448 H 146.891 0.520352 1.97769 0
M  V30 1449 H 145.046 -1.32373 3.64083 0
M  V30 1450 H 145.46 0.205969 5.24095 0
M  V30 1451 H 146.934 -1.50277 5.31151 0
M  V30 1452 H 147.411 -2.23439 3.78116 0
M  V30 1453 H 148.017 -0.617558 4.20792 0
M  V30 1454 N 146.332 -1.57332 0.0918853 0
M  V30 1455 C 147.295 -2.12708 -0.85369 0
M  V30 1456 C 148.295 -1.05561 -1.213 0
M  V30 1457 O 149.485 -1.31461 -1.14296 0
M  V30 1458 C 146.617 -2.64503 -2.15061 0
M  V30 1459 H 147.81 -2.97573 -0.3729 0
M  V30 1460 H 145.363 -1.55509 -0.157072 0
M  V30 1461 H 146.098 -1.83149 -2.67632 0
M  V30 1462 H 145.883 -3.4284 -1.90272 0
M  V30 1463 H 147.373 -3.07351 -2.82711 0
M  V30 1464 N 147.81 0.181792 -1.56548 0
M  V30 1465 C 149.058 0.89832 -1.81038 0
M  V30 1466 C 149.379 1.83232 -0.667164 0
M  V30 1467 O 148.649 1.93372 0.313673 0
M  V30 1468 H 147.229 0.33471 -0.667816 0
M  V30 1469 H 149.891 0.184116 -1.94028 0
M  V30 1470 H 148.987 1.4815 -2.74696 0
M  V30 1471 N 149.288 1.51039 0.449983 0
M  V30 1472 C 150.198 1.74261 1.57067 0
M  V30 1473 C 151.214 0.626363 1.62335 0
M  V30 1474 O 152.39 0.907162 1.79812 0
M  V30 1475 C 149.455 1.85114 2.93144 0
M  V30 1476 C 148.516 3.0893 2.98095 0
M  V30 1477 C 147.749 3.19256 4.27681 0
M  V30 1478 O 147.972 2.35835 5.19363 0
M  V30 1479 O 146.906 4.12144 4.38658 0
M  V30 1480 H 150.732 2.69303 1.40391 0
M  V30 1481 H 148.317 1.35389 0.631688 0
M  V30 1482 H 150.199 1.94311 3.73926 0
M  V30 1483 H 148.874 0.932588 3.09975 0
M  V30 1484 H 147.781 3.0522 2.16314 0
M  V30 1485 H 149.114 4.00433 2.86206 0
M  V30 1486 N 150.766 -0.704594 1.40972 0
M  V30 1487 C 152.014 -1.46169 1.39568 0
M  V30 1488 C 152.335 -1.95 0.00253745 0
M  V30 1489 O 151.605 -1.71095 -0.954114 0
M  V30 1490 H 150.185 -0.542326 0.513704 0
M  V30 1491 H 152.847 -0.834553 1.76128 0
M  V30 1492 H 151.943 -2.32922 2.07735 0
M  V30 1493 N 152.244 -1.26651 -0.937939 0
M  V30 1494 C 153.492 -1.12165 -1.68118 0
M  V30 1495 C 153.813 0.334983 -1.92101 0
M  V30 1496 O 153.083 1.23583 -1.52 0
M  V30 1497 H 151.663 -0.412093 -0.623048 0
M  V30 1498 H 154.325 -1.59027 -1.12678 0
M  V30 1499 H 153.421 -1.64289 -2.6536 0
M  V30 1500 N 153.722 1.14298 -1.08507 0
M  V30 1501 C 154.97 1.84993 -0.813763 0
M  V30 1502 C 155.291 1.83405 0.662393 0
M  V30 1503 O 154.561 1.28319 1.48024 0
M  V30 1504 H 153.141 0.684966 -0.298045 0
M  V30 1505 H 155.803 1.385 -1.37126 0
M  V30 1506 H 154.899 2.89788 -1.15884 0
M  V30 1507 N 155.201 0.870884 1.31352 0
M  V30 1508 C 156.429 0.49677 2.00848 0
M  V30 1509 C 156.844 -0.910998 1.65367 0
M  V30 1510 O 156.201 -1.59696 0.883374 0
M  V30 1511 C 156.252 0.645308 3.55694 0
M  V30 1512 O 155.973 1.99764 3.89905 0
M  V30 1513 C 157.474 0.272326 4.42463 0
M  V30 1514 H 154.694 0.193462 0.642506 0
M  V30 1515 H 157.238 1.1723 1.67563 0
M  V30 1516 H 155.393 0.0173176 3.87396 0
M  V30 1517 H 155.807 2.00607 4.84621 0
M  V30 1518 H 157.281 0.427208 5.50344 0
M  V30 1519 H 157.758 -0.788587 4.32062 0
M  V30 1520 H 158.364 0.876054 4.1618 0
M  V30 1521 N 156.679 -1.44442 0.630414 0
M  V30 1522 C 157.927 -2.01653 0.134351 0
M  V30 1523 C 158.248 -1.49836 -1.24796 0
M  V30 1524 O 157.518 -0.701684 -1.82902 0
M  V30 1525 H 156.098 -0.74554 0.0466769 0
M  V30 1526 H 158.76 -1.76952 0.816955 0
M  V30 1527 H 157.856 -3.11935 0.101498 0
M  V30 1528 N 158.157 -0.370918 -1.53173 0
M  V30 1529 C 159.385 0.217704 -2.05751 0
M  V30 1530 C 159.8 1.42018 -1.24404 0
M  V30 1531 O 159.157 1.80245 -0.286033 0
M  V30 1532 C 159.208 0.605954 -3.56385 0
M  V30 1533 O 158.929 -0.548734 -4.3465 0
M  V30 1534 C 160.43 1.2524 -4.25241 0
M  V30 1535 H 157.65 0.0371659 -0.66997 0
M  V30 1536 H 160.194 -0.530832 -1.9749 0
M  V30 1537 H 158.349 1.3044 -3.6478 0
M  V30 1538 H 158.763 -0.23376 -5.23979 0
M  V30 1539 H 160.237 1.47458 -5.3194 0
M  V30 1540 H 160.714 2.2143 -3.79296 0
M  V30 1541 H 161.32 0.595233 -4.21114 0
M  V30 1542 N 159.635 1.57281 -0.100228 0
M  V30 1543 C 160.883 1.94153 0.561157 0
M  V30 1544 C 161.204 0.983157 1.68401 0
M  V30 1545 O 160.474 0.0361132 1.95867 0
M  V30 1546 H 159.054 0.716791 0.210283 0
M  V30 1547 H 161.716 1.94202 -0.164765 0
M  V30 1548 H 160.812 2.96709 0.968008 0
M  V30 1549 N 161.113 -0.173488 1.56642 0
M  V30 1550 C 162.361 -0.888706 1.81512 0
M  V30 1551 C 162.682 -1.82875 0.676872 0
M  V30 1552 O 161.952 -1.93536 -0.303414 0
M  V30 1553 H 160.532 -0.331164 0.669582 0
M  V30 1554 H 163.194 -0.173823 1.94123 0
M  V30 1555 H 162.29 -1.46691 2.75478 0
M  V30 1556 N 162.591 -1.51276 -0.441967 0
M  V30 1557 C 163.554 -1.7167 -1.51862 0
M  V30 1558 C 164.554 -0.586793 -1.49711 0
M  V30 1559 O 165.744 -0.854276 -1.51815 0
M  V30 1560 C 162.876 -1.76889 -2.91416 0
M  V30 1561 H 164.069 -2.67754 -1.35084 0
M  V30 1562 H 161.622 -1.41196 -0.670333 0
M  V30 1563 H 162.357 -0.826026 -3.13604 0
M  V30 1564 H 162.142 -2.59001 -2.94382 0
M  V30 1565 H 163.632 -1.94522 -3.69528 0
M  V30 1566 N 164.069 0.697108 -1.41344 0
M  V30 1567 C 165.48 1.27697 -1.36199 0
M  V30 1568 C 165.831 1.9615 -0.0443463 0
M  V30 1569 O 164.956 1.98689 0.857419 0
M  V30 1570 C 165.551 2.32223 -2.46694 0
M  V30 1571 C 164.11 2.8579 -2.44952 0
M  V30 1572 C 163.257 1.59807 -2.26621 0
M  V30 1573 H 166.208 0.491968 -1.50882 0
M  V30 1574 H 166.229 3.1348 -2.15664 0
M  V30 1575 H 165.741 1.82373 -3.42581 0
M  V30 1576 H 163.842 3.3982 -1.52817 0
M  V30 1577 H 163.955 3.36325 -3.41207 0
M  V30 1578 H 162.319 1.8556 -1.7447 0
M  V30 1579 H 163.102 1.11956 -3.24532 0
M  V30 1580 N 165.547 1.27147 0.931209 0
M  V30 1581 C 166.793 1.13446 1.68101 0
M  V30 1582 C 167.126 -0.319628 1.91552 0
M  V30 1583 O 166.401 -1.23407 1.50336 0
M  V30 1584 C 166.684 1.91482 3.0497 0
M  V30 1585 C 166.537 3.44855 2.88782 0
M  V30 1586 C 167.856 1.71651 4.05246 0
M  V30 1587 H 164.975 0.413498 0.610072 0
M  V30 1588 H 167.617 1.56261 1.08086 0
M  V30 1589 H 165.767 1.55095 3.56199 0
M  V30 1590 H 167.439 3.9105 2.44698 0
M  V30 1591 H 165.682 3.71373 2.24198 0
M  V30 1592 H 166.353 3.94694 3.85902 0
M  V30 1593 H 168.829 2.0337 3.63015 0
M  V30 1594 H 167.705 2.28651 4.99009 0
M  V30 1595 H 167.966 0.663555 4.37092 0
M  V30 1596 N 167.025 -1.13721 1.09112 0
M  V30 1597 C 168.271 -1.85198 0.826414 0
M  V30 1598 C 168.604 -1.83129 -0.646319 0
M  V30 1599 O 167.879 -1.2671 -1.47563 0
M  V30 1600 C 168.162 -3.33507 1.35812 0
M  V30 1601 C 168.015 -3.44108 2.89672 0
M  V30 1602 C 169.334 -4.28838 0.989256 0
M  V30 1603 H 166.453 -0.67243 0.301675 0
M  V30 1604 H 169.095 -1.33499 1.35197 0
M  V30 1605 H 167.245 -3.77666 0.911082 0
M  V30 1606 H 168.917 -3.08684 3.428 0
M  V30 1607 H 167.16 -2.85087 3.26967 0
M  V30 1608 H 167.831 -4.48388 3.21951 0
M  V30 1609 H 170.307 -3.92734 1.37475 0
M  V30 1610 H 169.183 -5.31051 1.38838 0
M  V30 1611 H 169.444 -4.4198 -0.102924 0
M  V30 1612 N 168.503 -0.877838 -1.30888 0
M  V30 1613 C 169.466 -0.344265 -2.266 0
M  V30 1614 C 170.466 0.50922 -1.52524 0
M  V30 1615 O 171.656 0.317398 -1.71284 0
M  V30 1616 C 168.788 0.510198 -3.37061 0
M  V30 1617 H 169.981 -1.1893 -2.7531 0
M  V30 1618 H 167.534 -0.654088 -1.41956 0
M  V30 1619 H 168.269 1.37612 -2.93655 0
M  V30 1620 H 168.054 -0.101047 -3.9197 0
M  V30 1621 H 169.544 0.875537 -4.08319 0
M  V30 1622 N 169.982 1.44106 -0.638065 0
M  V30 1623 C 171.207 2.0685 -0.150916 0
M  V30 1624 C 171.632 1.47417 1.16833 0
M  V30 1625 O 170.99 0.578264 1.71831 0
M  V30 1626 C 171.038 3.60555 -0.05708 0
M  V30 1627 O 170.142 4.00465 0.984972 0
M  V30 1628 H 169.483 0.658151 -0.0879399 0
M  V30 1629 H 172.013 1.84865 -0.876707 0
M  V30 1630 H 172.023 4.07789 0.131232 0
M  V30 1631 H 170.698 4.03193 -1.02021 0
M  V30 1632 H 169.275 3.64849 0.770672 0
M  V30 1633 N 171.46 0.379036 1.52974 0
M  V30 1634 C 172.709 -0.207612 2.00629 0
M  V30 1635 C 173.022 -1.48758 1.27006 0
M  V30 1636 O 174.228 -2.15365 1.65318 0
M  V30 1637 C 172.684 -0.42053 3.57435 0
M  V30 1638 C 172.292 0.845587 4.39948 0
M  V30 1639 C 174.036 -0.964102 4.13407 0
M  V30 1640 C 171.943 0.601513 5.88333 0
M  V30 1641 H 170.873 -0.0813591 0.749598 0
M  V30 1642 H 173.524 0.499853 1.76561 0
M  V30 1643 H 171.906 -1.18959 3.7771 0
M  V30 1644 H 173.08 1.61848 4.31442 0
M  V30 1645 H 171.395 1.31336 3.95145 0
M  V30 1646 H 173.992 -1.16225 5.21916 0
M  V30 1647 H 174.335 -1.93019 3.68849 0
M  V30 1648 H 174.868 -0.25487 3.96983 0
M  V30 1649 H 171.607 1.53831 6.37194 0
M  V30 1650 H 171.127 -0.132628 5.99653 0
M  V30 1651 H 172.806 0.232134 6.46583 0
M  V30 1652 N 172.938 -1.57226 0.108567 0
M  V30 1653 C 173.901 -2.13602 -0.831082 0
M  V30 1654 C 174.901 -1.06841 -1.20173 0
M  V30 1655 O 176.091 -1.32666 -1.12895 0
M  V30 1656 C 173.223 -2.66769 -2.12243 0
M  V30 1657 H 174.416 -2.97951 -0.341317 0
M  V30 1658 H 171.969 -1.55667 -0.14057 0
M  V30 1659 H 172.704 -1.85977 -2.65675 0
M  V30 1660 H 172.489 -3.44839 -1.86625 0
M  V30 1661 H 173.979 -3.10332 -2.79435 0
M  V30 1662 N 174.416 0.165178 -1.56732 0
M  V30 1663 C 175.832 0.517174 -1.50988 0
M  V30 1664 C 176.032 1.84331 -0.813894 0
M  V30 1665 O 175.088 2.49672 -0.37682 0
M  V30 1666 C 176.401 0.544261 -2.95733 0
M  V30 1667 C 177.949 0.631039 -3.06573 0
M  V30 1668 C 178.424 0.68896 -4.52788 0
M  V30 1669 N 179.915 0.751683 -4.5706 0
M  V30 1670 C 180.65 0.817177 -5.67547 0
M  V30 1671 N 180.146 0.843129 -6.8765 0
M  V30 1672 N 181.939 0.856668 -5.55534 0
M  V30 1673 H 174.09 -0.704318 -2.00382 0
M  V30 1674 H 176.353 -0.254687 -0.913148 0
M  V30 1675 H 176.059 -0.361607 -3.49836 0
M  V30 1676 H 175.933 1.3886 -3.5071 0
M  V30 1677 H 178.32 1.52733 -2.52501 0
M  V30 1678 H 178.401 -0.240095 -2.54671 0
M  V30 1679 H 178.045 -0.2031 -5.07494 0
M  V30 1680 H 177.975 1.57633 -5.02454 0
M  V30 1681 H 180.466 0.739661 -3.70591 0
M  V30 1682 H 180.779 0.894448 -7.67606 0
M  V30 1683 H 179.124 0.811304 -6.90248 0
M  V30 1684 H 182.315 0.833437 -4.60621 0
M  V30 1685 H 182.488 0.904247 -6.4166 0
M  V30 1686 N 175.894 1.51508 0.433938 0
M  V30 1687 C 176.841 1.73068 1.52696 0
M  V30 1688 C 177.811 0.572441 1.55924 0
M  V30 1689 O 178.996 0.807253 1.72882 0
M  V30 1690 C 176.136 1.86474 2.90381 0
M  V30 1691 C 175.249 3.14037 2.96656 0
M  V30 1692 C 174.384 3.18019 4.25485 0
M  V30 1693 C 173.423 4.39882 4.2564 0
M  V30 1694 N 172.56 4.41394 5.45999 0
M  V30 1695 H 177.4 2.66366 1.33615 0
M  V30 1696 H 174.937 1.32008 0.649018 0
M  V30 1697 H 176.895 1.92229 3.70275 0
M  V30 1698 H 175.525 0.965809 3.08013 0
M  V30 1699 H 174.577 3.17575 2.09404 0
M  V30 1700 H 175.889 4.0394 2.92633 0
M  V30 1701 H 175.043 3.22708 5.13755 0
M  V30 1702 H 173.782 2.2601 4.3217 0
M  V30 1703 H 172.787 4.35366 3.35763 0
M  V30 1704 H 174.012 5.33159 4.20617 0
M  V30 1705 H 171.958 3.52258 5.53399 0
M  V30 1706 H 171.875 5.25111 5.4387 0
M  V30 1707 H 173.143 4.50281 6.36292 0
M  V30 1708 N 177.372 -0.689602 1.41712 0
M  V30 1709 C 178.302 -1.81577 1.46806 0
M  V30 1710 C 179.283 -1.66945 0.326105 0
M  V30 1711 O 180.468 -1.86588 0.538377 0
M  V30 1712 C 177.598 -3.19762 1.35535 0
M  V30 1713 C 176.552 -3.49107 2.47605 0
M  V30 1714 C 175.878 -4.86711 2.21397 0
M  V30 1715 C 177.178 -3.47483 3.89939 0
M  V30 1716 H 178.872 -1.7757 2.41058 0
M  V30 1717 H 176.418 -0.852887 1.16025 0
M  V30 1718 H 178.371 -3.98263 1.3771 0
M  V30 1719 H 177.095 -3.24409 0.377708 0
M  V30 1720 H 175.754 -2.72959 2.44722 0
M  V30 1721 H 175.402 -4.8799 1.21961 0
M  V30 1722 H 175.102 -5.0731 2.96497 0
M  V30 1723 H 176.626 -5.67515 2.25297 0
M  V30 1724 H 178.04 -4.1598 3.94505 0
M  V30 1725 H 176.437 -3.79615 4.64771 0
M  V30 1726 H 177.507 -2.46341 4.17665 0
M  V30 1727 N 178.85 -1.27639 -0.924453 0
M  V30 1728 C 180.098 -1.13941 -1.66918 0
M  V30 1729 C 180.419 0.314589 -1.92446 0
M  V30 1730 O 179.689 1.21964 -1.53303 0
M  V30 1731 H 178.269 -0.418678 -0.618642 0
M  V30 1732 H 180.931 -1.60213 -1.10985 0
M  V30 1733 H 180.027 -1.67094 -2.63602 0
M  V30 1734 N 180.328 1.1314 -1.09713 0
M  V30 1735 C 181.291 2.16831 -0.742751 0
M  V30 1736 C 182.291 1.59159 0.229129 0
M  V30 1737 O 183.481 1.74199 0.00693237 0
M  V30 1738 C 180.613 3.40756 -0.0989168 0
M  V30 1739 H 181.806 2.49695 -1.66109 0
M  V30 1740 H 179.359 1.2802 -0.896699 0
M  V30 1741 H 180.094 3.13485 0.830514 0
M  V30 1742 H 179.879 3.83888 -0.798265 0
M  V30 1743 H 181.369 4.17386 0.133524 0
M  V30 1744 N 181.806 0.884767 1.30421 0
M  V30 1745 C 182.736 0.367574 2.30589 0
M  V30 1746 C 183.717 -0.549464 1.60981 0
M  V30 1747 O 184.902 -0.46336 1.88591 0
M  V30 1748 C 182.032 -0.418944 3.44764 0
M  V30 1749 C 180.986 0.406316 4.26067 0
M  V30 1750 C 180.312 -0.506793 5.32293 0
M  V30 1751 C 181.612 1.64832 4.95608 0
M  V30 1752 H 183.306 1.20462 2.74097 0
M  V30 1753 H 180.852 0.580695 1.31772 0
M  V30 1754 H 182.805 -0.791395 4.13902 0
M  V30 1755 H 181.529 -1.28964 3.0006 0
M  V30 1756 H 180.188 0.760903 3.58617 0
M  V30 1757 H 179.836 -1.37519 4.83836 0
M  V30 1758 H 179.536 0.0415828 5.87585 0
M  V30 1759 H 181.06 -0.875764 6.04287 0
M  V30 1760 H 182.474 1.34646 5.57264 0
M  V30 1761 H 180.871 2.13688 5.60765 0
M  V30 1762 H 181.941 2.39284 4.21748 0
M  V30 1763 N 183.284 -1.43765 0.645699 0
M  V30 1764 C 184.512 -2.06253 0.163556 0
M  V30 1765 C 184.927 -1.48352 -1.16778 0
M  V30 1766 O 184.284 -0.611932 -1.71935 0
M  V30 1767 C 184.335 -3.61453 0.0583186 0
M  V30 1768 O 184.056 -4.172 1.33702 0
M  V30 1769 C 185.557 -4.41002 -0.450795 0
M  V30 1770 H 182.777 -0.665413 0.0864077 0
M  V30 1771 H 185.321 -1.84396 0.884222 0
M  V30 1772 H 183.476 -3.82522 -0.612865 0
M  V30 1773 H 183.89 -5.10791 1.19131 0
M  V30 1774 H 185.364 -5.49966 -0.473403 0
M  V30 1775 H 185.841 -4.13488 -1.48068 0
M  V30 1776 H 186.447 -4.24886 0.187637 0
M  V30 1777 N 184.763 -0.387143 -1.52771 0
M  V30 1778 C 186.009 0.196025 -2.0185 0
M  V30 1779 C 186.342 1.46641 -1.27319 0
M  V30 1780 O 185.617 1.90889 -0.373032 0
M  V30 1781 C 185.9 0.466136 -3.5707 0
M  V30 1782 C 185.753 -0.819385 -4.42274 0
M  V30 1783 C 187.072 1.25768 -4.21747 0
M  V30 1784 H 184.191 0.0697708 -0.73369 0
M  V30 1785 H 186.833 -0.516286 -1.82851 0
M  V30 1786 H 184.983 1.07293 -3.7339 0
M  V30 1787 H 186.655 -1.4563 -4.37709 0
M  V30 1788 H 184.898 -1.43517 -4.09372 0
M  V30 1789 H 185.569 -0.585065 -5.48891 0
M  V30 1790 H 188.045 0.744167 -4.09391 0
M  V30 1791 H 186.921 1.41541 -5.30337 0
M  V30 1792 H 187.182 2.27228 -3.79236 0
M  V30 1793 N 186.241 1.57166 -0.116904 0
M  V30 1794 C 187.489 1.94737 0.540533 0
M  V30 1795 C 187.81 1.00096 1.67349 0
M  V30 1796 O 187.08 0.0568854 1.95817 0
M  V30 1797 H 185.66 0.718981 0.202669 0
M  V30 1798 H 188.322 1.94017 -0.185353 0
M  V30 1799 H 187.418 2.97719 0.936483 0
M  V30 1800 N 187.719 -0.156864 1.56817 0
M  V30 1801 C 188.965 -0.872416 1.83076 0
M  V30 1802 C 189.298 -1.81261 0.697001 0
M  V30 1803 O 188.573 -1.92171 -0.30008 0
M  V30 1804 C 188.856 -1.65551 3.19789 0
M  V30 1805 C 188.709 -0.737467 4.43713 0
M  V30 1806 C 190.028 -2.62012 3.53606 0
M  V30 1807 H 187.147 -0.315715 0.665953 0
M  V30 1808 H 189.789 -0.138004 1.89498 0
M  V30 1809 H 187.939 -2.28159 3.14445 0
M  V30 1810 H 189.611 -0.123143 4.61136 0
M  V30 1811 H 187.854 -0.0464067 4.33775 0
M  V30 1812 H 188.525 -1.32122 5.35955 0
M  V30 1813 H 191.001 -2.09525 3.59497 0
M  V30 1814 H 189.877 -3.13861 4.50314 0
M  V30 1815 H 190.138 -3.42902 2.79053 0
M  V30 1816 N 189.197 -1.51736 -0.425897 0
M  V30 1817 C 190.443 -1.65214 -1.1761 0
M  V30 1818 C 190.776 -0.372778 -1.90589 0
M  V30 1819 O 190.051 0.628139 -1.84078 0
M  V30 1820 C 190.334 -2.86312 -2.18398 0
M  V30 1821 C 190.187 -4.24254 -1.49426 0
M  V30 1822 C 191.506 -3.02925 -3.19256 0
M  V30 1823 H 188.625 -0.601263 -0.426206 0
M  V30 1824 H 191.267 -1.8425 -0.463882 0
M  V30 1825 H 189.417 -2.70213 -2.79137 0
M  V30 1826 H 191.089 -4.52046 -0.919362 0
M  V30 1827 H 189.332 -4.26426 -0.796432 0
M  V30 1828 H 190.003 -5.05001 -2.22885 0
M  V30 1829 H 192.479 -3.1781 -2.68581 0
M  V30 1830 H 191.355 -3.89199 -3.8706 0
M  V30 1831 H 191.616 -2.15497 -3.86023 0
M  V30 1832 N 190.675 0.682077 -1.42076 0
M  V30 1833 C 191.903 1.47057 -1.4554 0
M  V30 1834 C 192.318 1.8869 -0.0645779 0
M  V30 1835 O 191.675 1.57666 0.919115 0
M  V30 1836 C 191.726 2.72442 -2.37609 0
M  V30 1837 O 191.447 2.32559 -3.71279 0
M  V30 1838 C 192.948 3.66069 -2.50017 0
M  V30 1839 H 190.168 0.452737 -0.495248 0
M  V30 1840 H 192.712 0.838695 -1.8651 0
M  V30 1841 H 190.867 3.31835 -1.9991 0
M  V30 1842 H 191.281 3.13475 -4.20516 0
M  V30 1843 H 192.755 4.50792 -3.18576 0
M  V30 1844 H 193.232 4.11476 -1.53572 0
M  V30 1845 H 193.838 3.12572 -2.88407 0
M  V30 1846 N 192.153 1.28127 0.917671 0
M  V30 1847 C 193.569 1.05749 1.19538 0
M  V30 1848 C 193.769 -0.202633 2.00479 0
M  V30 1849 O 192.825 -0.905382 2.3571 0
M  V30 1850 C 194.138 2.30273 1.93378 0
M  V30 1851 C 195.686 2.35412 2.06277 0
M  V30 1852 C 196.161 3.59692 2.83524 0
M  V30 1853 N 197.652 3.60309 2.91087 0
M  V30 1854 C 198.387 4.53147 3.51348 0
M  V30 1855 N 197.883 5.563 4.12919 0
M  V30 1856 N 199.676 4.40751 3.48849 0
M  V30 1857 H 191.827 2.09024 0.377184 0
M  V30 1858 H 194.09 0.919798 0.22951 0
M  V30 1859 H 193.796 3.22055 1.41328 0
M  V30 1860 H 193.67 2.36378 2.93947 0
M  V30 1861 H 196.057 1.4413 2.57508 0
M  V30 1862 H 196.138 2.33304 1.04895 0
M  V30 1863 H 195.782 4.51316 2.32973 0
M  V30 1864 H 195.712 3.59054 3.85211 0
M  V30 1865 H 198.203 2.85714 2.47338 0
M  V30 1866 H 198.516 6.2329 4.56869 0
M  V30 1867 H 196.861 5.60131 4.11435 0
M  V30 1868 H 200.052 3.59367 2.99955 0
M  V30 1869 H 200.225 5.13291 3.9552 0
M  V30 1870 N 193.631 -1.12557 1.10312 0
M  V30 1871 C 195.042 -1.65574 0.862678 0
M  V30 1872 C 195.393 -1.86566 -0.607256 0
M  V30 1873 O 194.518 -1.59121 -1.46662 0
M  V30 1874 C 195.113 -3.00776 1.55947 0
M  V30 1875 C 193.672 -3.50748 1.36576 0
M  V30 1876 C 192.819 -2.25797 1.60968 0
M  V30 1877 H 195.77 -0.963552 1.26101 0
M  V30 1878 H 195.791 -3.67185 0.997753 0
M  V30 1879 H 195.303 -2.85465 2.62928 0
M  V30 1880 H 193.404 -3.71245 0.317531 0
M  V30 1881 H 193.517 -4.30289 2.10686 0
M  V30 1882 H 191.881 -2.32841 1.03234 0
M  V30 1883 H 192.664 -2.13043 2.69198 0
M  V30 1884 N 195.109 -0.891671 -1.2995 0
M  V30 1885 C 196.356 -0.513501 -1.95881 0
M  V30 1886 C 196.684 0.938655 -1.70351 0
M  V30 1887 O 195.939 1.67936 -1.00478 0
M  V30 1888 C 196.238 -0.742868 -3.49594 0
M  V30 1889 C 195.904 -2.17114 -3.95186 0
M  V30 1890 C 194.566 -2.56169 -4.07346 0
M  V30 1891 C 196.918 -3.10162 -4.18866 0
M  V30 1892 C 194.246 -3.87469 -4.4055 0
M  V30 1893 C 196.598 -4.41001 -4.53542 0
M  V30 1894 C 195.262 -4.79941 -4.63911 0
M  V30 1895 H 194.532 -0.187903 -0.71678 0
M  V30 1896 H 197.179 -1.1288 -1.54694 0
M  V30 1897 H 195.484 -0.044586 -3.91775 0
M  V30 1898 H 197.181 -0.429767 -3.9869 0
M  V30 1899 H 193.771 -1.85801 -3.86233 0
M  V30 1900 H 197.955 -2.81206 -4.08946 0
M  V30 1901 H 193.211 -4.17371 -4.46779 0
M  V30 1902 H 197.385 -5.13133 -4.70815 0
M  V30 1903 H 195.012 -5.81719 -4.89395 0
M  V30 1904 N 196.587 1.43421 -0.653314 0
M  V30 1905 C 197.812 2.06678 -0.172846 0
M  V30 1906 C 198.237 1.48648 1.15262 0
M  V30 1907 O 197.595 0.596457 1.71208 0
M  V30 1908 C 197.643 3.60474 -0.0953184 0
M  V30 1909 O 196.747 4.01487 0.942442 0
M  V30 1910 H 196.088 0.657181 -0.0949155 0
M  V30 1911 H 198.618 1.83925 -0.896265 0
M  V30 1912 H 198.628 4.07905 0.0879728 0
M  V30 1913 H 197.303 4.02088 -1.06291 0
M  V30 1914 H 195.88 3.65646 0.731932 0
M  V30 1915 N 198.065 0.39524 1.52563 0
M  V30 1916 C 199.312 -0.185044 2.01653 0
M  V30 1917 C 199.64 -1.46317 1.28146 0
M  V30 1918 O 198.895 -1.9213 0.372074 0
M  V30 1919 C 199.194 -0.493444 3.53977 0
M  V30 1920 C 198.86 0.69384 4.4553 0
M  V30 1921 C 197.522 1.01954 4.70275 0
M  V30 1922 C 199.874 1.48785 4.99512 0
M  V30 1923 C 197.202 2.14069 5.46252 0
M  V30 1924 C 199.554 2.59965 5.76716 0
M  V30 1925 C 198.218 2.93037 5.99738 0
M  V30 1926 H 197.488 -0.0677123 0.7379 0
M  V30 1927 H 200.135 0.533807 1.8391 0
M  V30 1928 H 198.44 -1.29369 3.69825 0
M  V30 1929 H 200.137 -0.955163 3.89458 0
M  V30 1930 H 196.727 0.429987 4.26438 0
M  V30 1931 H 200.911 1.24946 4.80315 0
M  V30 1932 H 196.167 2.40056 5.62302 0
M  V30 1933 H 200.341 3.21887 6.17545 0
M  V30 1934 H 197.968 3.8003 6.58393 0
M  V30 1935 N 199.544 -1.57102 0.125237 0
M  V30 1936 C 200.454 -2.19191 -0.8362 0
M  V30 1937 C 201.47 -1.16985 -1.28805 0
M  V30 1938 O 202.646 -1.49479 -1.34974 0
M  V30 1939 C 199.711 -2.78407 -2.06617 0
M  V30 1940 C 198.772 -3.9567 -1.66565 0
M  V30 1941 C 198.005 -4.52052 -2.83698 0
M  V30 1942 O 198.228 -4.07326 -3.99302 0
M  V30 1943 O 197.162 -5.42645 -2.60423 0
M  V30 1944 H 200.988 -3.01816 -0.337776 0
M  V30 1945 H 198.573 -1.4906 -0.100695 0
M  V30 1946 H 200.455 -3.16129 -2.7864 0
M  V30 1947 H 199.13 -1.9881 -2.55453 0
M  V30 1948 H 198.037 -3.62705 -0.916296 0
M  V30 1949 H 199.37 -4.76722 -1.22464 0
M  V30 1950 N 201.022 0.148545 -1.56898 0
M  V30 1951 C 202.27 0.859717 -1.82902 0
M  V30 1952 C 202.591 1.81775 -0.70588 0
M  V30 1953 O 201.861 1.93994 0.272586 0
M  V30 1954 H 200.441 0.320469 -0.674766 0
M  V30 1955 H 203.103 0.142918 -1.94375 0
M  V30 1956 H 202.199 1.4229 -2.77777 0
M  V30 1957 N 202.5 1.5196 0.417844 0
M  V30 1958 C 203.447 1.74678 1.50852 0
M  V30 1959 C 204.417 0.588947 1.55308 0
M  V30 1960 O 205.602 0.825544 1.72016 0
M  V30 1961 C 202.742 1.89544 2.88387 0
M  V30 1962 C 201.855 3.17166 2.93309 0
M  V30 1963 C 200.99 3.22513 4.22088 0
M  V30 1964 C 200.029 4.44372 4.20951 0
M  V30 1965 N 199.166 4.47161 5.41287 0
M  V30 1966 H 204.006 2.67768 1.30783 0
M  V30 1967 H 201.543 1.32689 0.63498 0
M  V30 1968 H 203.501 1.96146 3.68216 0
M  V30 1969 H 202.131 0.998424 3.06971 0
M  V30 1970 H 201.183 3.19778 2.06024 0
M  V30 1971 H 202.495 4.07021 2.88332 0
M  V30 1972 H 201.649 3.28139 5.10303 0
M  V30 1973 H 200.388 2.30581 4.29748 0
M  V30 1974 H 199.393 4.38902 3.31127 0
M  V30 1975 H 200.618 5.3759 4.14938 0
M  V30 1976 H 198.564 3.58108 5.49632 0
M  V30 1977 H 198.481 5.3085 5.3827 0
M  V30 1978 H 199.749 4.57005 6.3148 0
M  V30 1979 N 203.978 -0.674533 1.42435 0
M  V30 1980 C 205.394 -0.98769 1.25367 0
M  V30 1981 C 205.594 -2.00879 0.158044 0
M  V30 1982 O 204.65 -2.48075 -0.470633 0
M  V30 1983 C 205.963 -1.49224 2.6106 0
M  V30 1984 C 207.511 -1.61 2.68417 0
M  V30 1985 C 207.986 -2.14852 4.04478 0
M  V30 1986 N 209.477 -2.22185 4.06434 0
M  V30 1987 C 210.212 -2.64928 5.08528 0
M  V30 1988 N 209.708 -3.07121 6.21006 0
M  V30 1989 N 211.501 -2.64679 4.95885 0
M  V30 1990 H 203.652 0.00152503 2.124 0
M  V30 1991 H 205.915 -0.0618434 0.945981 0
M  V30 1992 H 205.621 -0.816453 3.42092 0
M  V30 1993 H 205.495 -2.47094 2.84999 0
M  V30 1994 H 207.882 -2.27686 1.87732 0
M  V30 1995 H 207.963 -0.616195 2.48267 0
M  V30 1996 H 207.607 -1.48775 4.85622 0
M  V30 1997 H 207.537 -3.15024 4.2198 0
M  V30 1998 H 210.028 -1.92435 3.25234 0
M  V30 1999 H 210.341 -3.38423 6.94759 0
M  V30 2000 H 208.686 -3.04978 6.24511 0
M  V30 2001 H 211.877 -2.31078 4.07088 0
M  V30 2002 H 212.05 -2.9767 5.75584 0
M  V30 2003 N 205.456 -1.28612 -0.910864 0
M  V30 2004 C 206.872 -1.06381 -1.18976 0
M  V30 2005 C 207.072 0.191998 -2.00583 0
M  V30 2006 O 206.128 0.892869 -2.36187 0
M  V30 2007 C 207.441 -2.31295 -1.92154 0
M  V30 2008 C 208.989 -2.36503 -2.05025 0
M  V30 2009 C 209.464 -3.61191 -2.81612 0
M  V30 2010 N 210.955 -3.61847 -2.89172 0
M  V30 2011 C 211.69 -4.55004 -3.4894 0
M  V30 2012 N 211.186 -5.58482 -4.09963 0
M  V30 2013 N 212.979 -4.42594 -3.46506 0
M  V30 2014 H 205.13 -2.09221 -0.366094 0
M  V30 2015 H 207.393 -0.921003 -0.224629 0
M  V30 2016 H 207.099 -3.228 -1.39618 0
M  V30 2017 H 206.973 -2.37934 -2.9269 0
M  V30 2018 H 209.36 -1.45494 -2.5674 0
M  V30 2019 H 209.441 -2.33857 -1.03657 0
M  V30 2020 H 209.085 -4.52545 -2.30576 0
M  V30 2021 H 209.015 -3.61092 -3.83302 0
M  V30 2022 H 211.506 -2.87022 -2.45819 0
M  V30 2023 H 211.819 -6.25704 -4.53557 0
M  V30 2024 H 210.164 -5.62305 -4.08459 0
M  V30 2025 H 213.355 -3.60953 -2.98045 0
M  V30 2026 H 213.528 -5.15381 -3.92793 0
M  V30 2027 N 206.934 1.1197 -1.10907 0
M  V30 2028 C 208.159 1.87942 -0.877064 0
M  V30 2029 C 208.584 1.79341 0.567314 0
M  V30 2030 O 207.942 1.15184 1.40009 0
M  V30 2031 C 207.99 3.34926 -1.33629 0
M  V30 2032 O 207.094 4.09303 -0.504447 0
M  V30 2033 H 206.435 0.583785 -0.316371 0
M  V30 2034 H 208.965 1.4157 -1.47712 0
M  V30 2035 H 208.975 3.8577 -1.32837 0
M  V30 2036 H 207.65 3.40504 -2.3881 0
M  V30 2037 H 206.227 3.68393 -0.577993 0
M  V30 2038 N 208.412 0.89855 1.29475 0
M  V30 2039 C 209.36 0.365253 2.29714 0
M  V30 2040 C 210.354 -0.534993 1.6073 0
M  V30 2041 O 211.56 -0.417921 1.75081 0
M  V30 2042 H 207.935 0.0994853 0.74539 0
M  V30 2043 H 209.906 1.22406 2.72138 0
M  V30 2044 C 208.655 -0.393159 3.4547 0
M  V30 2045 H 207.978 0.290332 3.98744 0
M  V30 2046 H 209.418 -0.731189 4.17648 0
M  V30 2047 C 207.877 -1.59539 2.9673 0
M  V30 2048 O 208.407 -2.69469 2.97908 0
M  V30 2049 N 206.613 -1.43716 2.52575 0
M  V30 2050 H 206.16 -0.542828 2.51816 0
M  V30 2051 H 206.118 -2.24288 2.20323 0
M  V30 2052 N 209.89 -1.43072 0.660911 0
M  V30 2053 C 210.822 -2.29108 -0.0647641 0
M  V30 2054 C 211.835 -1.42928 -0.779448 0
M  V30 2055 O 213.024 -1.66788 -0.635921 0
M  V30 2056 C 210.124 -3.20032 -1.11503 0
M  V30 2057 C 209.297 -4.34792 -0.476955 0
M  V30 2058 C 208.356 -5.06534 -1.42513 0
M  V30 2059 O 207.382 -5.61538 -0.930771 0
M  V30 2060 N 208.584 -5.1075 -2.75889 0
M  V30 2061 H 211.349 -2.92029 0.673731 0
M  V30 2062 H 208.91 -1.53846 0.50427 0
M  V30 2063 H 210.902 -3.64892 -1.75032 0
M  V30 2064 H 209.472 -2.58658 -1.75541 0
M  V30 2065 H 208.692 -3.92752 0.337572 0
M  V30 2066 H 209.98 -5.0879 -0.0318525 0
M  V30 2067 H 209.378 -4.67447 -3.18606 0
M  V30 2068 H 207.935 -5.59302 -3.347 0
M  V30 2069 N 211.368 -0.403325 -1.52352 0
M  V30 2070 C 212.331 0.413051 -2.25447 0
M  V30 2071 C 213.331 0.978513 -1.276 0
M  V30 2072 O 214.521 0.858305 -1.51587 0
M  V30 2073 C 211.653 1.58087 -3.02029 0
M  V30 2074 H 212.846 -0.227094 -2.99039 0
M  V30 2075 H 210.399 -0.155722 -1.55522 0
M  V30 2076 H 211.134 2.25804 -2.32772 0
M  V30 2077 H 210.919 1.18195 -3.73861 0
M  V30 2078 H 212.409 2.1585 -3.57489 0
M  V30 2079 N 212.846 1.57033 -0.133567 0
M  V30 2080 C 213.756 2.19632 0.824564 0
M  V30 2081 C 214.772 1.17666 1.28182 0
M  V30 2082 O 215.948 1.50193 1.3418 0
M  V30 2083 C 213.013 2.79499 2.05137 0
M  V30 2084 C 212.074 3.96548 1.64464 0
M  V30 2085 C 211.307 4.5355 2.81297 0
M  V30 2086 O 211.53 4.09438 3.97136 0
M  V30 2087 O 210.464 5.44018 2.57542 0
M  V30 2088 H 214.29 3.01991 0.321766 0
M  V30 2089 H 211.875 1.49112 0.0927889 0
M  V30 2090 H 213.757 3.17602 2.7696 0
M  V30 2091 H 212.432 2.00162 2.54395 0
M  V30 2092 H 211.339 3.63186 0.897048 0
M  V30 2093 H 212.672 4.77364 1.19934 0
M  V30 2094 N 214.325 -0.140222 1.56975 0
M  V30 2095 C 215.273 -1.19207 1.99731 0
M  V30 2096 C 216.267 -1.44089 0.890777 0
M  V30 2097 O 217.473 -1.44301 1.07597 0
M  V30 2098 H 213.848 -0.40142 0.635898 0
M  V30 2099 H 215.819 -0.804813 2.87342 0
M  V30 2100 C 214.568 -2.51617 2.39967 0
M  V30 2101 H 213.891 -2.33303 3.24669 0
M  V30 2102 H 215.331 -3.23827 2.73701 0
M  V30 2103 C 213.79 -3.12654 1.25496 0
M  V30 2104 O 214.32 -3.97786 0.559371 0
M  V30 2105 N 212.526 -2.72206 1.01746 0
M  V30 2106 H 212.073 -2.03074 1.58489 0
M  V30 2107 H 212.031 -3.13377 0.253461 0
M  V30 2108 N 215.803 -1.52179 -0.40978 0
M  V30 2109 C 217.051 -1.65878 -1.15451 0
M  V30 2110 C 217.372 -0.390771 -1.91044 0
M  V30 2111 O 216.642 0.594323 -1.86667 0
M  V30 2112 H 215.222 -0.611405 -0.429177 0
M  V30 2113 H 217.884 -1.89219 -0.467134 0
M  V30 2114 H 216.98 -2.49954 -1.86894 0
M  V30 2115 N 217.281 0.66697 -1.42791 0
M  V30 2116 C 218.53 1.42278 -1.42968 0
M  V30 2117 C 218.843 1.9553 -0.0524489 0
M  V30 2118 O 220.049 2.71414 0.068363 0
M  V30 2119 C 218.505 2.57418 -2.51524 0
M  V30 2120 C 218.113 2.10832 -3.9529 0
M  V30 2121 C 219.857 3.34878 -2.60877 0
M  V30 2122 C 217.764 3.23101 -4.95338 0
M  V30 2123 H 216.694 0.534533 -0.531781 0
M  V30 2124 H 219.345 0.721302 -1.68729 0
M  V30 2125 H 217.727 3.29971 -2.18941 0
M  V30 2126 H 218.901 1.4538 -4.37266 0
M  V30 2127 H 217.216 1.46289 -3.89857 0
M  V30 2128 H 219.813 4.18505 -3.32802 0
M  V30 2129 H 220.156 3.81993 -1.6549 0
M  V30 2130 H 220.689 2.69398 -2.92693 0
M  V30 2131 H 217.428 2.80969 -5.9223 0
M  V30 2132 H 216.948 3.87309 -4.57987 0
M  V30 2133 H 218.627 3.88447 -5.17415 0
M  V30 2134 N 218.759 1.29093 0.90403 0
M  V30 2135 C 219.722 1.1386 1.98919 0
M  V30 2136 C 220.722 0.0753457 1.60623 0
M  V30 2137 O 221.912 0.321931 1.71199 0
M  V30 2138 C 219.044 0.740198 3.32767 0
M  V30 2139 H 220.237 2.10246 2.13861 0
M  V30 2140 H 217.79 1.12218 1.08797 0
M  V30 2141 H 218.525 -0.223997 3.23525 0
M  V30 2142 H 218.31 1.50838 3.61926 0
M  V30 2143 H 219.8 0.656546 4.12407 0
M  V30 2144 N 220.237 -1.11381 1.11499 0
M  V30 2145 C 221.2 -2.15622 0.777153 0
M  V30 2146 C 222.2 -1.59504 -0.203779 0
M  V30 2147 O 223.39 -1.74188 0.020782 0
M  V30 2148 C 220.522 -3.40556 0.153116 0
M  V30 2149 H 221.715 -2.47021 1.70061 0
M  V30 2150 H 219.268 -1.26577 0.916952 0
M  V30 2151 H 220.003 -3.14767 -0.780536 0
M  V30 2152 H 219.788 -3.8257 0.859238 0
M  V30 2153 H 221.278 -4.17546 -0.0671044 0
M  V30 2154 N 221.715 -0.905404 -1.28997 0
M  V30 2155 C 222.645 -0.404212 -2.29975 0
M  V30 2156 C 223.626 0.523784 -1.61835 0
M  V30 2157 O 224.811 0.433298 -1.89304 0
M  V30 2158 C 221.941 0.364042 -3.45387 0
M  V30 2159 C 220.895 -0.474048 -4.25367 0
M  V30 2160 C 220.221 0.422045 -5.33032 0
M  V30 2161 C 221.521 -1.72696 -4.92923 0
M  V30 2162 H 223.215 -1.24807 -2.72146 0
M  V30 2163 H 220.761 -0.601585 -1.30832 0
M  V30 2164 H 222.714 0.725447 -4.15109 0
M  V30 2165 H 221.438 1.24174 -3.02074 0
M  V30 2166 H 220.097 -0.81786 -3.57361 0
M  V30 2167 H 219.745 1.29804 -4.85963 0
M  V30 2168 H 219.445 -0.135057 -5.87445 0
M  V30 2169 H 220.969 0.779517 -6.05604 0
M  V30 2170 H 222.383 -1.43495 -5.55051 0
M  V30 2171 H 220.78 -2.22582 -5.57295 0
M  V30 2172 H 221.85 -2.45964 -4.17887 0
M  V30 2173 N 223.193 1.4272 -0.668489 0
M  V30 2174 C 224.609 1.55992 -0.33745 0
M  V30 2175 C 224.809 1.64933 1.15756 0
M  V30 2176 O 223.865 1.61278 1.94282 0
M  V30 2177 C 225.178 2.81314 -1.06222 0
M  V30 2178 C 226.726 2.95078 -1.04394 0
M  V30 2179 C 227.201 4.23252 -1.74991 0
M  V30 2180 N 228.692 4.3015 -1.71829 0
M  V30 2181 C 229.427 5.28127 -2.23315 0
M  V30 2182 N 228.923 6.32293 -2.83156 0
M  V30 2183 N 230.716 5.19882 -2.13726 0
M  V30 2184 H 222.867 1.3516 -1.63846 0
M  V30 2185 H 225.13 0.650174 -0.689912 0
M  V30 2186 H 224.836 2.80823 -2.11734 0
M  V30 2187 H 224.71 3.72012 -0.62344 0
M  V30 2188 H 227.097 2.951 0.0028244 0
M  V30 2189 H 227.178 2.05627 -1.52155 0
M  V30 2190 H 226.822 4.2399 -2.79633 0
M  V30 2191 H 226.752 5.11626 -1.24685 0
M  V30 2192 H 229.243 3.55499 -1.28175 0
M  V30 2193 H 229.556 7.03398 -3.20079 0
M  V30 2194 H 227.901 6.32873 -2.87223 0
M  V30 2195 H 231.092 4.37423 -1.66669 0
M  V30 2196 H 231.265 5.96077 -2.54158 0
M  V30 2197 N 224.671 0.411399 1.52136 0
M  V30 2198 C 225.581 -0.419774 2.30814 0
M  V30 2199 C 226.597 -1.0515 1.38634 0
M  V30 2200 O 227.773 -1.05252 1.71709 0
M  V30 2201 C 224.838 -1.52019 3.11594 0
M  V30 2202 C 223.899 -0.91129 4.19516 0
M  V30 2203 C 223.132 -1.95927 4.96436 0
M  V30 2204 O 223.355 -3.17775 4.73683 0
M  V30 2205 O 222.289 -1.56423 5.81219 0
M  V30 2206 H 226.115 0.221805 3.02889 0
M  V30 2207 H 223.7 0.174547 1.48377 0
M  V30 2208 H 225.582 -2.15898 3.61892 0
M  V30 2209 H 224.257 -2.14633 2.42311 0
M  V30 2210 H 223.164 -0.235157 3.7336 0
M  V30 2211 H 224.497 -0.32904 4.91099 0
M  V30 2212 N 226.149 -1.5696 0.141893 0
M  V30 2213 C 227.374 -2.00754 -0.520838 0
M  V30 2214 C 227.799 -1.0213 -1.57959 0
M  V30 2215 O 227.157 0.00371324 -1.813 0
M  V30 2216 C 227.205 -3.43318 -1.10294 0
M  V30 2217 O 226.309 -3.47679 -2.21795 0
M  V30 2218 H 225.65 -0.651564 -0.127908 0
M  V30 2219 H 228.18 -2.03221 0.23712 0
M  V30 2220 H 228.19 -3.82012 -1.43287 0
M  V30 2221 H 226.865 -4.14608 -0.327574 0
M  V30 2222 H 225.442 -3.20824 -1.9007 0
M  V30 2223 N 227.627 0.131896 -1.57047 0
M  V30 2224 C 228.867 0.847972 -1.85981 0
M  V30 2225 C 229.231 1.77655 -0.7282 0
M  V30 2226 O 230.432 2.53322 -0.898968 0
M  V30 2227 C 228.703 1.58919 -3.20124 0
M  V30 2228 S 230.262 2.34862 -3.70655 0
M  V30 2229 H 227.08 0.283273 -0.652133 0
M  V30 2230 H 229.682 0.107057 -1.95207 0
M  V30 2231 H 228.386 0.898771 -4.00438 0
M  V30 2232 H 227.917 2.37073 -3.13942 0
M  V30 2233 H 229.932 3.60344 -3.41126 0
M  V30 2234 N 229.106 1.52395 0.401703 0
M  V30 2235 C 230.383 1.57387 1.16141 0
M  V30 2236 C 230.763 0.359359 2.08019 0
M  V30 2237 O 230.111 -0.65326 2.18963 0
M  V30 2238 C 230.321 2.90631 1.93221 0
M  V30 2239 C 231.669 3.43904 2.49028 0
M  V30 2240 O 232.693 2.92421 2.03393 0
M  V30 2241 O 231.552 4.33823 3.32356 0
M  V30 2242 H 228.646 0.634262 0.530698 0
M  V30 2243 H 231.192 1.64725 0.407883 0
M  V30 2244 H 229.964 3.70473 1.25958 0
M  V30 2245 H 229.587 2.8662 2.75563 0
M  V30 2246 N 230.584 -0.659388 1.43143 0
M  V30 2247 C 231.812 -1.44723 1.47861 0
M  V30 2248 C 232.227 -1.88563 0.0945886 0
M  V30 2249 O 231.584 -1.59108 -0.893915 0
M  V30 2250 C 231.635 -2.68627 2.41913 0
M  V30 2251 O 231.356 -2.26623 3.74932 0
M  V30 2252 C 232.857 -3.62045 2.55809 0
M  V30 2253 H 230.077 -0.444801 0.502387 0
M  V30 2254 H 232.621 -0.808916 1.87821 0
M  V30 2255 H 230.776 -3.28613 2.05164 0
M  V30 2256 H 231.19 -3.06745 4.2545 0
M  V30 2257 H 232.664 -4.45666 3.25708 0
M  V30 2258 H 233.141 -4.08981 1.60099 0
M  V30 2259 H 233.747 -3.07944 2.93344 0
M  V30 2260 N 232.062 -1.29571 -0.897171 0
M  V30 2261 C 232.992 -1.17473 -2.01798 0
M  V30 2262 C 233.973 -0.068323 -1.69963 0
M  V30 2263 O 235.158 -0.248239 -1.92607 0
M  V30 2264 C 232.288 -0.853099 -3.36659 0
M  V30 2265 C 231.242 -1.9161 -3.82713 0
M  V30 2266 C 230.568 -1.44773 -5.14728 0
M  V30 2267 C 231.868 -3.32535 -4.02763 0
M  V30 2268 H 233.562 -2.11237 -2.12177 0
M  V30 2269 H 231.108 -1.01699 -1.01948 0
M  V30 2270 H 233.061 -0.755165 -4.14578 0
M  V30 2271 H 231.785 0.120236 -3.26379 0
M  V30 2272 H 230.444 -2.00346 -3.07013 0
M  V30 2273 H 230.092 -0.462995 -5.00865 0
M  V30 2274 H 229.792 -2.15865 -5.46513 0
M  V30 2275 H 231.316 -1.36334 -5.95185 0
M  V30 2276 H 232.73 -3.26626 -4.71156 0
M  V30 2277 H 231.127 -4.01607 -4.45905 0
M  V30 2278 H 232.197 -3.75326 -3.07016 0
M  V30 2279 N 233.54 1.10788 -1.12088 0
M  V30 2280 C 234.789 1.82036 -0.868659 0
M  V30 2281 C 235.102 1.85929 0.607426 0
M  V30 2282 O 236.308 2.53346 0.97613 0
M  V30 2283 C 234.764 3.26951 -1.50435 0
M  V30 2284 C 234.372 3.31367 -3.01496 0
M  V30 2285 C 236.116 4.03053 -1.33225 0
M  V30 2286 C 234.023 4.7072 -3.58017 0
M  V30 2287 H 232.953 0.682108 -0.321318 0
M  V30 2288 H 235.604 1.24618 -1.34694 0
M  V30 2289 H 233.986 3.84343 -0.953735 0
M  V30 2290 H 235.16 2.83819 -3.6302 0
M  V30 2291 H 233.475 2.6875 -3.18061 0
M  V30 2292 H 236.072 5.05981 -1.72878 0
M  V30 2293 H 236.415 4.15387 -0.275529 0
M  V30 2294 H 236.948 3.52066 -1.85188 0
M  V30 2295 H 233.687 4.63585 -4.63432 0
M  V30 2296 H 233.207 5.1865 -3.01268 0
M  V30 2297 H 234.886 5.39685 -3.56859 0
M  V30 2298 N 235.018 0.912232 1.28515 0
M  V30 2299 C 236.264 0.545405 1.95328 0
M  V30 2300 C 236.597 -0.908313 1.71649 0
M  V30 2301 O 235.872 -1.64575 1.03659 0
M  V30 2302 C 236.155 0.853483 3.4984 0
M  V30 2303 C 236.008 2.35982 3.82926 0
M  V30 2304 C 237.327 0.348589 4.38717 0
M  V30 2305 H 234.446 0.199626 0.709449 0
M  V30 2306 H 237.088 1.1412 1.5191 0
M  V30 2307 H 235.238 0.34643 3.86952 0
M  V30 2308 H 236.91 2.93738 3.55691 0
M  V30 2309 H 235.153 2.81543 3.30024 0
M  V30 2310 H 235.824 2.52593 4.90816 0
M  V30 2311 H 238.3 0.78294 4.08668 0
M  V30 2312 H 237.176 0.593242 5.45685 0
M  V30 2313 H 237.437 -0.751049 4.35674 0
M  V30 2314 N 236.496 -1.42363 0.676048 0
M  V30 2315 C 237.745 -2.00745 0.196037 0
M  V30 2316 C 238.058 -1.54083 -1.20489 0
M  V30 2317 O 239.264 -2.04891 -1.78134 0
M  V30 2318 C 237.72 -3.58651 0.299616 0
M  V30 2319 C 237.328 -4.143 1.70468 0
M  V30 2320 C 239.072 -4.24326 -0.121619 0
M  V30 2321 C 236.979 -5.64574 1.76096 0
M  V30 2322 H 235.909 -0.750787 0.0695301 0
M  V30 2323 H 238.56 -1.63072 0.841412 0
M  V30 2324 H 236.942 -3.93833 -0.413673 0
M  V30 2325 H 238.116 -3.90575 2.44515 0
M  V30 2326 H 236.431 -3.61081 2.07387 0
M  V30 2327 H 239.028 -5.34607 -0.0997362 0
M  V30 2328 H 239.371 -3.99897 -1.15708 0
M  V30 2329 H 239.904 -3.94108 0.540706 0
M  V30 2330 H 236.643 -5.93804 2.77628 0
M  V30 2331 H 236.163 -5.90286 1.06406 0
M  V30 2332 H 237.842 -6.29013 1.51496 0
M  V30 2333 N 237.974 -0.419461 -1.51915 0
M  V30 2334 C 239.385 0.0477853 -1.86639 0
M  V30 2335 C 239.736 1.43531 -1.33766 0
M  V30 2336 O 238.861 2.05401 -0.68113 0
M  V30 2337 C 239.456 0.0934885 -3.38671 0
M  V30 2338 C 238.015 0.505097 -3.72996 0
M  V30 2339 C 237.162 -0.313792 -2.75519 0
M  V30 2340 H 240.113 -0.636088 -1.45395 0
M  V30 2341 H 240.134 0.906667 -3.6954 0
M  V30 2342 H 239.646 -0.916501 -3.77123 0
M  V30 2343 H 237.747 1.52135 -3.40126 0
M  V30 2344 H 237.86 0.242309 -4.78487 0
M  V30 2345 H 236.224 0.225363 -2.53701 0
M  V30 2346 H 237.007 -1.32232 -3.16812 0
M  V30 2347 N 239.452 1.56882 -0.150215 0
M  V30 2348 C 240.4 2.18214 0.805313 0
M  V30 2349 C 241.394 1.14006 1.25296 0
M  V30 2350 O 242.6 1.3225 1.22107 0
M  V30 2351 H 238.975 0.698762 0.277913 0
M  V30 2352 H 240.946 2.97231 0.263862 0
M  V30 2353 C 239.695 2.82065 2.03309 0
M  V30 2354 H 239.018 3.61968 1.69763 0
M  V30 2355 H 240.458 3.28477 2.68103 0
M  V30 2356 C 238.917 1.80739 2.84315 0
M  V30 2357 O 239.447 1.27983 3.80767 0
M  V30 2358 N 237.653 1.4997 2.48913 0
M  V30 2359 H 237.2 1.93062 1.70542 0
M  V30 2360 H 237.158 0.824217 3.03404 0
M  V30 2361 N 240.93 -0.123565 1.57115 0
M  V30 2362 C 242.207 -0.862196 1.75572 0
M  V30 2363 C 242.587 -1.98279 0.724475 0
M  V30 2364 O 241.935 -2.27102 -0.252407 0
M  V30 2365 C 242.145 -1.38309 3.20424 0
M  V30 2366 C 243.493 -1.83724 3.82793 0
M  V30 2367 O 244.517 -1.47999 3.23998 0
M  V30 2368 O 243.376 -2.49685 4.86127 0
M  V30 2369 H 240.47 -0.409113 0.718718 0
M  V30 2370 H 243.016 -0.107661 1.69358 0
M  V30 2371 H 241.788 -0.578889 3.86994 0
M  V30 2372 H 241.411 -2.20046 3.31158 0
M  V30 2373 N 242.408 -1.52605 -0.393616 0
M  V30 2374 C 243.824 -1.41753 -0.733357 0
M  V30 2375 C 244.024 -0.534293 -1.94287 0
M  V30 2376 O 243.08 -0.0059787 -2.52499 0
M  V30 2377 C 244.393 -2.84531 -0.972772 0
M  V30 2378 C 245.941 -2.93978 -1.07453 0
M  V30 2379 C 246.416 -4.37756 -1.3466 0
M  V30 2380 N 247.907 -4.4106 -1.41492 0
M  V30 2381 C 248.642 -5.49387 -1.642 0
M  V30 2382 N 248.138 -6.67806 -1.8441 0
M  V30 2383 N 249.931 -5.36923 -1.66342 0
M  V30 2384 H 242.082 -2.08555 0.402328 0
M  V30 2385 H 244.345 -0.940654 0.117789 0
M  V30 2386 H 244.051 -3.51353 -0.156204 0
M  V30 2387 H 243.925 -3.26508 -1.88871 0
M  V30 2388 H 246.312 -2.27326 -1.88167 0
M  V30 2389 H 246.393 -2.55435 -0.136605 0
M  V30 2390 H 246.037 -5.04972 -0.544581 0
M  V30 2391 H 245.967 -4.73848 -2.2973 0
M  V30 2392 H 248.458 -3.55705 -1.27601 0
M  V30 2393 H 248.771 -7.46141 -2.01231 0
M  V30 2394 H 247.116 -6.70843 -1.81644 0
M  V30 2395 H 250.307 -4.43381 -1.50102 0
M  V30 2396 H 250.48 -6.21416 -1.837 0
M  V30 2397 N 243.887 0.651787 -1.4349 0
M  V30 2398 C 244.817 1.77621 -1.51569 0
M  V30 2399 C 245.798 1.66022 -0.370253 0
M  V30 2400 O 246.983 1.85095 -0.587658 0
M  V30 2401 C 244.113 3.16056 -1.43966 0
M  V30 2402 C 243.067 3.4242 -2.56774 0
M  V30 2403 C 242.393 4.8067 -2.34223 0
M  V30 2404 C 243.693 3.37023 -3.99015 0
M  V30 2405 H 245.387 1.71117 -2.45681 0
M  V30 2406 H 242.933 0.821825 -1.18246 0
M  V30 2407 H 244.886 3.94472 -1.48221 0
M  V30 2408 H 243.61 3.23293 -0.463586 0
M  V30 2409 H 242.269 2.66375 -2.51873 0
M  V30 2410 H 241.917 4.84585 -1.34856 0
M  V30 2411 H 241.617 4.9927 -3.09844 0
M  V30 2412 H 243.141 5.61342 -2.40265 0
M  V30 2413 H 244.555 4.05374 -4.05395 0
M  V30 2414 H 242.952 3.67159 -4.74673 0
M  V30 2415 H 244.022 2.3518 -4.2405 0
M  V30 2416 N 245.365 1.30045 0.890287 0
M  V30 2417 C 246.295 1.18541 2.01172 0
M  V30 2418 C 247.276 0.0773356 1.69924 0
M  V30 2419 O 248.461 0.25845 1.92473 0
M  V30 2420 C 245.591 0.870941 3.36202 0
M  V30 2421 C 244.545 1.93637 3.81692 0
M  V30 2422 C 243.871 1.475 5.13953 0
M  V30 2423 C 245.171 3.34666 4.00994 0
M  V30 2424 H 246.865 2.12359 2.11054 0
M  V30 2425 H 244.411 1.02238 1.01407 0
M  V30 2426 H 246.364 0.777141 4.14172 0
M  V30 2427 H 245.088 -0.102926 3.26438 0
M  V30 2428 H 243.747 2.01972 3.05946 0
M  V30 2429 H 243.395 0.489551 5.00612 0
M  V30 2430 H 243.095 2.1876 5.4536 0
M  V30 2431 H 244.619 1.39489 5.94454 0
M  V30 2432 H 246.033 3.2912 4.69417 0
M  V30 2433 H 244.43 4.03966 4.43769 0
M  V30 2434 H 245.5 3.76949 3.05021 0
M  V30 2435 N 246.843 -1.10192 1.12674 0
M  V30 2436 C 247.775 -2.16418 0.754701 0
M  V30 2437 C 248.788 -1.61309 -0.21986 0
M  V30 2438 O 249.977 -1.785 -0.000826841 0
M  V30 2439 C 247.077 -3.38762 0.096698 0
M  V30 2440 C 246.25 -4.23307 1.10136 0
M  V30 2441 C 245.309 -5.24092 0.470513 0
M  V30 2442 O 244.335 -5.57906 1.12824 0
M  V30 2443 N 245.537 -5.75491 -0.760948 0
M  V30 2444 H 248.302 -2.48943 1.66875 0
M  V30 2445 H 245.863 -1.25834 1.01869 0
M  V30 2446 H 247.855 -4.03291 -0.337384 0
M  V30 2447 H 246.425 -3.04192 -0.720153 0
M  V30 2448 H 245.645 -3.55036 1.71299 0
M  V30 2449 H 246.933 -4.76624 1.78064 0
M  V30 2450 H 246.331 -5.50222 -1.31424 0
M  V30 2451 H 244.888 -6.41792 -1.13781 0
M  V30 2452 N 248.321 -0.919034 -1.28029 0
M  V30 2453 C 249.254 -0.355887 -2.25408 0
M  V30 2454 C 250.232 0.542874 -1.5327 0
M  V30 2455 O 251.416 0.485338 -1.82145 0
M  V30 2456 C 248.543 0.490759 -3.35126 0
M  V30 2457 C 247.589 -0.343358 -4.25116 0
M  V30 2458 S 248.422 -1.75344 -5.05979 0
M  V30 2459 C 249.578 -0.914244 -6.19187 0
M  V30 2460 H 249.811 -1.18123 -2.72826 0
M  V30 2461 H 247.344 -0.720636 -1.36551 0
M  V30 2462 H 249.302 0.973404 -3.98792 0
M  V30 2463 H 247.963 1.29054 -2.86363 0
M  V30 2464 H 247.156 0.304266 -5.03081 0
M  V30 2465 H 246.758 -0.759851 -3.662 0
M  V30 2466 H 249.05 -0.146282 -6.77342 0
M  V30 2467 H 249.993 -1.66661 -6.88208 0
M  V30 2468 H 250.401 -0.460082 -5.62622 0
M  V30 2469 N 249.799 1.42003 -0.683588 0
M  V30 2470 C 251.047 2.01015 -0.209101 0
M  V30 2471 C 251.368 1.54365 1.19149 0
M  V30 2472 O 250.638 0.769083 1.80172 0
M  V30 2473 H 249.218 0.743294 -0.074315 0
M  V30 2474 H 251.88 1.73798 -0.882066 0
M  V30 2475 H 250.976 3.11343 -0.2172 0
M  V30 2476 N 251.277 0.427512 1.51691 0
M  V30 2477 C 252.554 -0.201684 1.94557 0
M  V30 2478 C 252.934 -1.60981 1.36559 0
M  V30 2479 O 252.282 -2.21814 0.548702 0
M  V30 2480 C 252.492 -0.189394 3.48486 0
M  V30 2481 C 253.84 -0.39978 4.22714 0
M  V30 2482 O 254.864 -0.267945 3.55191 0
M  V30 2483 O 253.723 -0.661249 5.42485 0
M  V30 2484 H 250.817 -0.135261 0.815864 0
M  V30 2485 H 253.363 0.484782 1.62628 0
M  V30 2486 H 252.135 0.795431 3.8313 0
M  V30 2487 H 251.758 -0.919187 3.86829 0
M  V30 2488 N 252.755 -1.56801 0.158532 0
M  V30 2489 C 253.718 -2.16138 -0.762705 0
M  V30 2490 C 254.718 -1.1061 -1.16713 0
M  V30 2491 O 255.908 -1.36191 -1.08617 0
M  V30 2492 C 253.04 -2.73386 -2.03649 0
M  V30 2493 H 254.233 -2.98886 -0.246354 0
M  V30 2494 H 251.786 -1.56035 -0.0909744 0
M  V30 2495 H 252.521 -1.94335 -2.59623 0
M  V30 2496 H 252.306 -3.50601 -1.75559 0
M  V30 2497 H 253.796 -3.19065 -2.6942 0
M  V30 2498 N 254.233 0.115231 -1.57178 0
M  V30 2499 C 255.196 1.12526 -1.99676 0
M  V30 2500 C 256.196 1.34095 -0.88742 0
M  V30 2501 O 257.386 1.30548 -1.15337 0
M  V30 2502 C 254.518 2.4789 -2.34015 0
M  V30 2503 H 255.711 0.759912 -2.90113 0
M  V30 2504 H 253.264 0.359648 -1.52106 0
M  V30 2505 H 253.999 2.89339 -1.4647 0
M  V30 2506 H 253.784 2.33588 -3.14927 0
M  V30 2507 H 255.274 3.20575 -2.67622 0
M  V30 2508 N 255.711 1.52812 0.385517 0
M  V30 2509 C 256.957 1.68275 1.13188 0
M  V30 2510 C 257.29 0.423179 1.89533 0
M  V30 2511 O 256.565 -0.579113 1.85679 0
M  V30 2512 C 256.848 2.92001 2.1073 0
M  V30 2513 C 256.701 4.28067 1.38125 0
M  V30 2514 C 258.02 3.11283 3.11113 0
M  V30 2515 H 255.139 0.612352 0.410115 0
M  V30 2516 H 257.781 1.85415 0.414869 0
M  V30 2517 H 255.931 2.77519 2.71874 0
M  V30 2518 H 257.603 4.54324 0.799187 0
M  V30 2519 H 255.846 4.28388 0.683092 0
M  V30 2520 H 256.517 5.10733 2.09417 0
M  V30 2521 H 258.993 3.2482 2.6006 0
M  V30 2522 H 257.869 3.99325 3.76605 0
M  V30 2523 H 258.13 2.25656 3.80173 0
M  V30 2524 N 257.189 -0.644168 1.43834 0
M  V30 2525 C 258.414 -1.43642 1.49605 0
M  V30 2526 C 258.839 -1.8773 0.117913 0
M  V30 2527 O 258.197 -1.57938 -0.890239 0
M  V30 2528 C 258.245 -2.6416 2.45463 0
M  V30 2529 O 257.349 -3.63538 1.94714 0
M  V30 2530 H 256.69 -0.430329 0.50568 0
M  V30 2531 H 259.22 -0.787448 1.8884 0
M  V30 2532 H 259.23 -3.11864 2.63068 0
M  V30 2533 H 257.905 -2.31414 3.45572 0
M  V30 2534 H 256.482 -3.2273 1.86814 0
M  V30 2535 N 258.668 -1.30515 -0.883378 0
M  V30 2536 C 259.598 -1.19607 -2.00541 0
M  V30 2537 C 260.579 -0.086346 -1.69881 0
M  V30 2538 O 261.764 -0.268654 -1.92333 0
M  V30 2539 C 258.894 -0.888758 -3.35736 0
M  V30 2540 C 257.848 -1.95659 -3.8066 0
M  V30 2541 C 257.174 -1.50224 -5.13164 0
M  V30 2542 C 258.474 -3.36788 -3.99213 0
M  V30 2543 H 260.168 -2.13476 -2.09925 0
M  V30 2544 H 257.714 -1.02775 -1.00863 0
M  V30 2545 H 259.667 -0.799094 -4.13754 0
M  V30 2546 H 258.391 0.0856125 -3.26488 0
M  V30 2547 H 257.05 -2.03591 -3.04871 0
M  V30 2548 H 256.698 -0.516092 -5.00345 0
M  V30 2549 H 256.398 -2.2165 -5.44192 0
M  V30 2550 H 257.922 -1.42639 -5.93706 0
M  V30 2551 H 259.336 -3.31605 -4.67665 0
M  V30 2552 H 257.733 -4.06314 -4.41621 0
M  V30 2553 H 258.803 -3.78561 -3.03017 0
M  V30 2554 N 260.146 1.09593 -1.13257 0
M  V30 2555 C 261.079 2.15451 -0.752061 0
M  V30 2556 C 262.057 1.60493 0.260913 0
M  V30 2557 O 263.241 1.8788 0.152819 0
M  V30 2558 C 260.368 3.38506 -0.114594 0
M  V30 2559 C 259.414 4.12183 -1.09579 0
M  V30 2560 S 260.247 4.6661 -2.62745 0
M  V30 2561 C 261.403 5.92966 -2.00354 0
M  V30 2562 H 261.636 2.47395 -1.64872 0
M  V30 2563 H 259.169 1.21515 -0.952545 0
M  V30 2564 H 261.127 4.09757 0.246808 0
M  V30 2565 H 259.788 3.04784 0.759309 0
M  V30 2566 H 258.981 5.00445 -0.597545 0
M  V30 2567 H 258.583 3.46785 -1.40057 0
M  V30 2568 H 260.875 6.63882 -1.35156 0
M  V30 2569 H 261.818 6.47467 -2.86691 0
M  V30 2570 H 262.226 5.45405 -1.4558 0
M  V30 2571 N 261.624 0.925811 1.2754 0
M  V30 2572 C 262.901 0.483726 1.89524 0
M  V30 2573 C 263.281 -1.03809 1.83812 0
M  V30 2574 O 262.629 -1.89143 1.28207 0
M  V30 2575 C 262.839 1.02769 3.33526 0
M  V30 2576 C 264.187 1.08703 4.10449 0
M  V30 2577 O 265.211 0.977175 3.42534 0
M  V30 2578 O 264.07 1.25599 5.31871 0
M  V30 2579 H 261.164 0.15529 0.812289 0
M  V30 2580 H 263.71 1.01738 1.35822 0
M  V30 2581 H 262.482 2.07155 3.31967 0
M  V30 2582 H 262.105 0.475567 3.94746 0
M  V30 2583 N 263.102 -1.41638 0.69111 0
M  V30 2584 C 264.065 -2.29178 0.0319786 0
M  V30 2585 C 265.065 -1.44153 -0.712496 0
M  V30 2586 O 266.255 -1.65354 -0.548053 0
M  V30 2587 C 263.387 -3.26952 -0.965161 0
M  V30 2588 H 264.58 -2.88959 0.802681 0
M  V30 2589 H 262.133 -1.4955 0.454356 0
M  V30 2590 H 262.868 -2.72142 -1.76378 0
M  V30 2591 H 262.653 -3.89685 -0.434522 0
M  V30 2592 H 264.143 -3.92561 -1.42428 0
M  V30 2593 N 264.58 -0.43555 -1.51462 0
M  V30 2594 C 265.827 0.131514 -2.02072 0
M  V30 2595 C 266.155 1.42868 -1.31981 0
M  V30 2596 O 265.41 1.91076 -0.422883 0
M  V30 2597 C 265.709 0.39942 -3.55161 0
M  V30 2598 C 265.375 -0.81172 -4.43533 0
M  V30 2599 C 264.037 -1.14387 -4.67407 0
M  V30 2600 C 266.389 -1.61976 -4.95392 0
M  V30 2601 C 263.717 -2.28477 -5.40384 0
M  V30 2602 C 266.069 -2.75164 -5.6962 0
M  V30 2603 C 264.733 -3.08835 -5.91758 0
M  V30 2604 H 264.003 0.0481244 -0.739436 0
M  V30 2605 H 266.65 -0.58238 -1.8243 0
M  V30 2606 H 264.955 1.19519 -3.73125 0
M  V30 2607 H 266.652 0.85157 -3.91854 0
M  V30 2608 H 263.242 -0.542898 -4.25148 0
M  V30 2609 H 267.426 -1.37637 -4.76833 0
M  V30 2610 H 262.682 -2.5488 -5.55739 0
M  V30 2611 H 266.856 -3.38147 -6.08793 0
M  V30 2612 H 264.483 -3.97353 -6.48086 0
M  V30 2613 N 266.058 1.56714 -0.166846 0
M  V30 2614 C 267.474 1.58473 0.189372 0
M  V30 2615 C 267.674 1.18201 1.63189 0
M  V30 2616 O 266.73 0.891528 2.36237 0
M  V30 2617 C 268.043 3.00573 -0.0873872 0
M  V30 2618 C 269.591 3.1299 -0.0252443 0
M  V30 2619 C 270.066 4.57174 -0.274934 0
M  V30 2620 N 271.557 4.62665 -0.222553 0
M  V30 2621 C 272.292 5.72072 -0.389985 0
M  V30 2622 N 271.788 6.90054 -0.616229 0
M  V30 2623 N 273.581 5.61153 -0.326202 0
M  V30 2624 H 265.732 1.8118 -1.10849 0
M  V30 2625 H 267.995 0.839525 -0.440342 0
M  V30 2626 H 267.701 3.34497 -1.0865 0
M  V30 2627 H 267.575 3.72019 0.623037 0
M  V30 2628 H 269.962 2.78895 0.96444 0
M  V30 2629 H 270.043 2.43989 -0.768309 0
M  V30 2630 H 269.687 4.91976 -1.26181 0
M  V30 2631 H 269.617 5.24328 0.48869 0
M  V30 2632 H 272.108 3.77863 -0.0531512 0
M  V30 2633 H 272.421 7.69311 -0.733559 0
M  V30 2634 H 270.766 6.91927 -0.652791 0
M  V30 2635 H 273.957 4.67859 -0.150072 0
M  V30 2636 H 274.13 6.46364 -0.460116 0
M  V30 2637 N 267.536 -0.106894 1.57237 0
M  V30 2638 C 268.761 -0.830287 1.90055 0
M  V30 2639 C 269.186 -1.72064 0.75998 0
M  V30 2640 O 268.544 -1.78982 -0.288991 0
M  V30 2641 C 268.592 -1.6295 3.21683 0
M  V30 2642 O 267.696 -2.73748 3.08441 0
M  V30 2643 H 267.037 -0.228855 0.623315 0
M  V30 2644 H 269.567 -0.085658 2.04421 0
M  V30 2645 H 269.577 -2.01621 3.54701 0
M  V30 2646 H 268.252 -0.975989 4.04286 0
M  V30 2647 H 266.829 -2.38192 2.86913 0
M  V30 2648 N 269.014 -1.53014 -0.377408 0
M  V30 2649 C 269.977 -1.77957 -1.44444 0
M  V30 2650 C 270.977 -0.649763 -1.47087 0
M  V30 2651 O 272.167 -0.917897 -1.48055 0
M  V30 2652 C 269.299 -1.89089 -2.83651 0
M  V30 2653 H 270.492 -2.73243 -1.23606 0
M  V30 2654 H 268.045 -1.43912 -0.609844 0
M  V30 2655 H 268.78 -0.958293 -3.09818 0
M  V30 2656 H 268.565 -2.71254 -2.83132 0
M  V30 2657 H 270.055 -2.1002 -3.60945 0
M  V30 2658 N 270.492 0.636531 -1.44174 0
M  V30 2659 C 271.769 1.39463 -1.37148 0
M  V30 2660 C 272.149 2.11082 -0.027507 0
M  V30 2661 O 271.497 2.05954 0.989716 0
M  V30 2662 C 271.707 2.36552 -2.56601 0
M  V30 2663 C 273.055 3.00048 -3.00427 0
M  V30 2664 O 274.079 2.46878 -2.56767 0
M  V30 2665 O 272.938 3.96488 -3.76111 0
M  V30 2666 H 270.032 0.623903 -0.542839 0
M  V30 2667 H 272.578 0.662039 -1.56253 0
M  V30 2668 H 271.35 1.82692 -3.46034 0
M  V30 2669 H 270.973 3.17236 -2.39681 0
M  V30 2670 N 271.97 1.30982 0.876444 0
M  V30 2671 C 272.88 1.2003 2.01569 0
M  V30 2672 C 273.896 0.11838 1.73597 0
M  V30 2673 O 275.072 0.33495 1.98595 0
M  V30 2674 C 272.137 0.901637 3.34771 0
M  V30 2675 C 271.198 2.06979 3.76109 0
M  V30 2676 C 270.431 1.78529 5.02954 0
M  V30 2677 O 270.654 0.717296 5.65872 0
M  V30 2678 O 269.588 2.64019 5.40905 0
M  V30 2679 H 273.414 2.15753 2.13739 0
M  V30 2680 H 270.999 1.10658 1.00375 0
M  V30 2681 H 272.881 0.750645 4.1466 0
M  V30 2682 H 271.556 -0.0256141 3.2369 0
M  V30 2683 H 270.463 2.27616 2.96887 0
M  V30 2684 H 271.796 2.97907 3.91807 0
M  V30 2685 N 273.449 -1.08991 1.13837 0
M  V30 2686 C 274.695 -1.81526 0.90422 0
M  V30 2687 C 275.028 -1.85706 -0.568066 0
M  V30 2688 O 274.303 -1.32855 -1.42056 0
M  V30 2689 C 274.586 -3.27447 1.49835 0
M  V30 2690 C 274.439 -3.31512 3.04006 0
M  V30 2691 C 275.758 -4.24256 1.17025 0
M  V30 2692 H 272.877 -0.659029 0.329923 0
M  V30 2693 H 275.519 -1.27644 1.40737 0
M  V30 2694 H 273.669 -3.73462 1.07044 0
M  V30 2695 H 275.341 -2.93867 3.55584 0
M  V30 2696 H 273.584 -2.70963 3.38765 0
M  V30 2697 H 274.255 -4.34329 3.40679 0
M  V30 2698 H 276.731 -3.86549 1.54009 0
M  V30 2699 H 275.607 -5.24684 1.61237 0
M  V30 2700 H 275.868 -4.42019 0.0846274 0
M  V30 2701 N 274.927 -0.932562 -1.27047 0
M  V30 2702 C 275.857 -0.452902 -2.29066 0
M  V30 2703 C 276.838 0.489338 -1.62909 0
M  V30 2704 O 278.023 0.393046 -1.90181 0
M  V30 2705 C 275.153 0.290698 -3.46081 0
M  V30 2706 C 274.107 -0.564168 -4.24265 0
M  V30 2707 C 273.433 0.308886 -5.33807 0
M  V30 2708 C 274.733 -1.83112 -4.89149 0
M  V30 2709 H 276.427 -1.30552 -2.69437 0
M  V30 2710 H 273.973 -0.629201 -1.29526 0
M  V30 2711 H 275.926 0.637233 -4.16554 0
M  V30 2712 H 274.65 1.17738 -3.0464 0
M  V30 2713 H 273.309 -0.893477 -3.55545 0
M  V30 2714 H 272.957 1.19467 -4.88607 0
M  V30 2715 H 272.657 -0.259633 -5.87026 0
M  V30 2716 H 274.181 0.650884 -6.07121 0
M  V30 2717 H 275.595 -1.55236 -5.51883 0
M  V30 2718 H 273.992 -2.34353 -5.52448 0
M  V30 2719 H 275.062 -2.54772 -4.12576 0
M  V30 2720 N 276.405 1.4127 -0.698611 0
M  V30 2721 C 277.335 2.33447 -0.049629 0
M  V30 2722 C 278.316 1.51982 0.763898 0
M  V30 2723 O 279.501 1.80509 0.716257 0
M  V30 2724 C 276.631 3.35828 0.885267 0
M  V30 2725 C 275.585 4.27627 0.178613 0
M  V30 2726 C 274.911 5.20406 1.22807 0
M  V30 2727 C 276.211 5.13459 -0.956933 0
M  V30 2728 H 277.905 2.87966 -0.81951 0
M  V30 2729 H 275.451 1.38461 -0.395538 0
M  V30 2730 H 277.404 3.9924 1.34854 0
M  V30 2731 H 276.128 2.79666 1.68685 0
M  V30 2732 H 274.787 3.65643 -0.26466 0
M  V30 2733 H 274.435 4.60558 2.02226 0
M  V30 2734 H 274.135 5.82661 0.760239 0
M  V30 2735 H 275.659 5.86695 1.69179 0
M  V30 2736 H 277.073 5.70421 -0.573805 0
M  V30 2737 H 275.47 5.8467 -1.35205 0
M  V30 2738 H 276.54 4.50443 -1.79524 0
M  V30 2739 N 277.883 0.443576 1.51229 0
M  V30 2740 C 278.831 -0.37904 2.29491 0
M  V30 2741 C 279.825 -1.0153 1.35603 0
M  V30 2742 O 281.031 -0.94955 1.52917 0
M  V30 2743 H 277.406 -0.141053 0.738653 0
M  V30 2744 H 279.377 0.301799 2.9687 0
M  V30 2745 C 278.126 -1.46426 3.15364 0
M  V30 2746 H 277.449 -0.984037 3.87501 0
M  V30 2747 H 278.889 -2.01297 3.7317 0
M  V30 2748 C 277.348 -2.45099 2.31146 0
M  V30 2749 O 277.878 -3.49773 1.9754 0
M  V30 2750 N 276.084 -2.16139 1.94249 0
M  V30 2751 H 275.631 -1.31044 2.21777 0
M  V30 2752 H 275.589 -2.82398 1.38198 0
M  V30 2753 N 279.361 -1.56624 0.175154 0
M  V30 2754 C 280.609 -1.96609 -0.467885 0
M  V30 2755 C 280.93 -1.06238 -1.63519 0
M  V30 2756 O 280.2 -0.129523 -1.95471 0
M  V30 2757 H 278.78 -0.726008 -0.175845 0
M  V30 2758 H 281.442 -1.93195 0.257234 0
M  V30 2759 H 280.538 -3.00989 -0.825342 0
M  V30 2760 N 280.839 0.0985539 -1.57292 0
M  V30 2761 C 282.085 0.803867 -1.86188 0
M  V30 2762 C 282.418 1.78549 -0.763794 0
M  V30 2763 O 281.693 1.93153 0.22855 0
M  V30 2764 C 281.976 1.53568 -3.25713 0
M  V30 2765 C 281.829 0.572277 -4.46145 0
M  V30 2766 C 283.148 2.48708 -3.63087 0
M  V30 2767 H 280.267 0.290781 -0.677211 0
M  V30 2768 H 282.909 0.0675783 -1.8988 0
M  V30 2769 H 281.059 2.16332 -3.22696 0
M  V30 2770 H 282.731 -0.0480894 -4.61275 0
M  V30 2771 H 280.974 -0.114618 -4.33649 0
M  V30 2772 H 281.645 1.12139 -5.40489 0
M  V30 2773 H 284.121 1.96039 -3.67026 0
M  V30 2774 H 282.997 2.96932 -4.61652 0
M  V30 2775 H 283.258 3.32309 -2.91588 0
M  V30 2776 N 282.317 1.53212 0.369288 0
M  V30 2777 C 283.249 1.75668 1.47219 0
M  V30 2778 C 284.262 0.637387 1.49804 0
M  V30 2779 O 285.451 0.913561 1.5335 0
M  V30 2780 C 282.551 1.81818 2.85999 0
M  V30 2781 C 281.724 3.11409 3.07153 0
M  V30 2782 C 280.783 3.08849 4.26026 0
M  V30 2783 O 279.809 3.82659 4.2138 0
M  V30 2784 N 281.011 2.29409 5.33246 0
M  V30 2785 H 283.776 2.70832 1.28337 0
M  V30 2786 H 281.337 1.51944 0.55898 0
M  V30 2787 H 283.329 1.77588 3.63655 0
M  V30 2788 H 281.899 0.939544 2.98146 0
M  V30 2789 H 281.119 3.28971 2.1719 0
M  V30 2790 H 282.407 3.97059 3.18154 0
M  V30 2791 H 281.805 1.68946 5.39883 0
M  V30 2792 H 280.362 2.31001 6.09493 0
M  V30 2793 N 283.795 -0.628877 1.44509 0
M  V30 2794 C 285.043 -1.38565 1.4712 0
M  V30 2795 C 285.364 -1.94712 0.105899 0
M  V30 2796 O 284.634 -1.75912 -0.862079 0
M  V30 2797 H 283.214 -0.514333 0.541729 0
M  V30 2798 H 285.876 -0.740018 1.80305 0
M  V30 2799 H 284.972 -2.21583 2.19789 0
M  V30 2800 N 285.273 -1.31445 -0.869486 0
M  V30 2801 C 286.522 -1.20517 -1.61736 0
M  V30 2802 C 286.835 0.235341 -1.94179 0
M  V30 2803 O 288.041 0.466312 -2.67465 0
M  V30 2804 C 286.497 -2.10982 -2.91573 0
M  V30 2805 C 286.105 -3.60032 -2.66611 0
M  V30 2806 C 287.849 -2.08856 -3.69567 0
M  V30 2807 C 285.756 -4.42503 -3.92358 0
M  V30 2808 H 284.686 -0.447493 -0.606849 0
M  V30 2809 H 287.337 -1.56303 -0.96133 0
M  V30 2810 H 285.719 -1.68095 -3.58553 0
M  V30 2811 H 286.893 -4.11167 -2.08035 0
M  V30 2812 H 285.208 -3.64139 -2.0197 0
M  V30 2813 H 287.805 -2.67716 -4.62852 0
M  V30 2814 H 288.148 -1.07582 -4.02159 0
M  V30 2815 H 288.681 -2.49945 -3.09471 0
M  V30 2816 H 285.42 -5.44533 -3.64916 0
M  V30 2817 H 284.94 -3.96125 -4.50383 0
M  V30 2818 H 286.619 -4.54741 -4.60238 0
M  V30 2819 N 286.751 1.08385 -1.14413 0
M  V30 2820 C 287.979 1.84517 -0.936001 0
M  V30 2821 C 288.394 1.81626 0.515503 0
M  V30 2822 O 287.751 1.22008 1.35721 0
M  V30 2823 C 287.802 3.32049 -1.42918 0
M  V30 2824 O 287.523 3.34951 -2.82381 0
M  V30 2825 C 289.024 4.24986 -1.26103 0
M  V30 2826 H 286.244 0.582491 -0.333084 0
M  V30 2827 H 288.788 1.36885 -1.5193 0
M  V30 2828 H 286.943 3.7707 -0.888641 0
M  V30 2829 H 287.357 4.27048 -3.04517 0
M  V30 2830 H 288.831 5.26615 -1.6547 0
M  V30 2831 H 289.308 4.38726 -0.20392 0
M  V30 2832 H 289.914 3.85791 -1.79012 0
M  V30 2833 N 288.23 0.939286 1.26551 0
M  V30 2834 C 289.507 0.5038 1.89001 0
M  V30 2835 C 289.887 -1.01854 1.84903 0
M  V30 2836 O 289.235 -1.87773 1.30206 0
M  V30 2837 C 289.445 1.063 3.32417 0
M  V30 2838 C 290.793 1.13051 4.09273 0
M  V30 2839 O 291.817 1.01345 3.41479 0
M  V30 2840 O 290.676 1.31233 5.30509 0
M  V30 2841 H 287.77 0.163897 0.810597 0
M  V30 2842 H 290.316 1.03173 1.34735 0
M  V30 2843 H 289.088 2.10665 3.29752 0
M  V30 2844 H 288.711 0.517408 3.94219 0
M  V30 2845 N 289.708 -1.40897 0.706093 0
M  V30 2846 C 290.638 -2.33418 0.0620085 0
M  V30 2847 C 291.619 -1.52385 -0.755827 0
M  V30 2848 O 292.804 -1.80886 -0.706674 0
M  V30 2849 C 289.934 -3.36293 -0.867445 0
M  V30 2850 C 288.888 -4.27716 -0.155932 0
M  V30 2851 C 288.214 -5.2105 -1.20046 0
M  V30 2852 C 289.514 -5.12944 0.984149 0
M  V30 2853 H 291.208 -2.87527 0.83477 0
M  V30 2854 H 288.754 -1.38249 0.402875 0
M  V30 2855 H 290.707 -3.99949 -1.32735 0
M  V30 2856 H 289.431 -2.80556 -1.67199 0
M  V30 2857 H 288.09 -3.65498 0.284047 0
M  V30 2858 H 287.738 -4.61624 -1.99781 0
M  V30 2859 H 287.438 -5.83056 -0.729328 0
M  V30 2860 H 288.962 -5.87584 -1.66066 0
M  V30 2861 H 290.376 -5.70109 0.604048 0
M  V30 2862 H 288.773 -5.83945 1.38304 0
M  V30 2863 H 289.843 -4.49485 1.81911 0
M  V30 2864 N 291.186 -0.45159 -1.50991 0
M  V30 2865 C 292.435 0.111653 -2.01391 0
M  V30 2866 C 292.748 1.42529 -1.33959 0
M  V30 2867 O 293.954 2.07232 -1.75405 0
M  V30 2868 C 292.41 0.249514 -3.59034 0
M  V30 2869 C 292.018 -1.05453 -4.35412 0
M  V30 2870 C 293.762 0.765762 -4.17536 0
M  V30 2871 C 291.669 -0.881529 -5.84793 0
M  V30 2872 H 290.599 0.0455022 -0.752626 0
M  V30 2873 H 293.25 -0.583524 -1.73975 0
M  V30 2874 H 291.632 1.00803 -3.82955 0
M  V30 2875 H 292.806 -1.82248 -4.23229 0
M  V30 2876 H 291.121 -1.50039 -3.88429 0
M  V30 2877 H 293.718 0.911913 -5.26866 0
M  V30 2878 H 294.061 1.75201 -3.77638 0
M  V30 2879 H 294.594 0.0651744 -3.97747 0
M  V30 2880 H 291.333 -1.84057 -6.29129 0
M  V30 2881 H 290.853 -0.153625 -5.99603 0
M  V30 2882 H 292.532 -0.540363 -6.4474 0
M  V30 2883 N 292.664 1.56529 -0.183458 0
M  V30 2884 C 293.892 2.01623 0.464285 0
M  V30 2885 C 294.307 1.06366 1.55986 0
M  V30 2886 O 293.664 0.0665398 1.82379 0
M  V30 2887 C 293.715 3.46475 1.03139 0
M  V30 2888 O 293.436 4.38095 -0.0204675 0
M  V30 2889 C 294.937 4.0703 1.75617 0
M  V30 2890 H 292.157 0.660596 0.117704 0
M  V30 2891 H 294.701 2.02451 -0.288751 0
M  V30 2892 H 292.856 3.46383 1.73486 0
M  V30 2893 H 293.27 5.22973 0.399952 0
M  V30 2894 H 294.744 5.10271 2.10542 0
M  V30 2895 H 295.221 3.49819 2.65563 0
M  V30 2896 H 295.827 4.1086 1.09882 0
M  V30 2897 N 294.142 -0.090211 1.57342 0
M  V30 2898 C 295.37 -0.806224 1.90546 0
M  V30 2899 C 295.785 -1.72041 0.777644 0
M  V30 2900 O 295.142 -1.80778 -0.250103 0
M  V30 2901 C 295.193 -1.61546 3.23396 0
M  V30 2902 O 294.914 -0.738043 4.31839 0
M  V30 2903 C 296.415 -2.4341 3.70495 0
M  V30 2904 H 293.635 -0.230256 0.630257 0
M  V30 2905 H 296.179 -0.0659843 2.04394 0
M  V30 2906 H 294.334 -2.30816 3.11131 0
M  V30 2907 H 294.748 -1.29901 5.08159 0
M  V30 2908 H 296.222 -2.95676 4.66133 0
M  V30 2909 H 296.699 -3.22098 2.98579 0
M  V30 2910 H 297.305 -1.79331 3.85643 0
M  V30 2911 N 295.62 -1.53406 -0.361157 0
M  V30 2912 C 297.031 -1.61442 -0.937728 0
M  V30 2913 C 297.382 -0.48461 -1.90121 0
M  V30 2914 O 296.507 0.388312 -2.12888 0
M  V30 2915 C 297.102 -2.92624 -1.70753 0
M  V30 2916 C 295.661 -3.02981 -2.23337 0
M  V30 2917 C 294.808 -2.5677 -1.04712 0
M  V30 2918 H 297.759 -1.58083 -0.139816 0
M  V30 2919 H 297.78 -2.80675 -2.56908 0
M  V30 2920 H 297.292 -3.74834 -1.00604 0
M  V30 2921 H 295.393 -2.25368 -2.96715 0
M  V30 2922 H 295.506 -4.0814 -2.50916 0
M  V30 2923 H 293.87 -2.11752 -1.41539 0
M  V30 2924 H 294.653 -3.41402 -0.360539 0
M  V30 2925 N 297.098 0.621204 -1.44841 0
M  V30 2926 C 298.346 1.37783 -1.47852 0
M  V30 2927 C 298.667 1.94653 -0.116224 0
M  V30 2928 O 297.937 1.76367 0.852737 0
M  V30 2929 H 296.517 0.511453 -0.544449 0
M  V30 2930 H 299.179 0.730446 -1.80694 0
M  V30 2931 H 298.275 2.20414 -2.20961 0
M  V30 2932 N 298.576 1.31904 0.862503 0
M  V30 2933 C 299.506 1.22782 1.98612 0
M  V30 2934 C 300.487 0.113362 1.69722 0
M  V30 2935 O 301.672 0.299218 1.91881 0
M  V30 2936 C 298.802 0.942058 3.34279 0
M  V30 2937 C 297.756 2.0169 3.77499 0
M  V30 2938 C 297.082 1.58369 5.10709 0
M  V30 2939 C 298.382 3.43096 3.93805 0
M  V30 2940 H 300.076 2.16788 2.06502 0
M  V30 2941 H 297.622 1.04366 0.992154 0
M  V30 2942 H 299.575 0.864818 4.1243 0
M  V30 2943 H 298.299 -0.0336603 3.26583 0
M  V30 2944 H 296.958 2.08416 3.01593 0
M  V30 2945 H 296.606 0.595628 4.99461 0
M  V30 2946 H 296.306 2.30279 5.40597 0
M  V30 2947 H 297.83 1.52067 5.91361 0
M  V30 2948 H 299.244 3.39003 4.62331 0
M  V30 2949 H 297.641 4.13288 4.35101 0
M  V30 2950 H 298.711 3.83334 2.96957 0
M  V30 2951 N 300.054 -1.07777 1.14986 0
M  V30 2952 C 301.303 -1.79669 0.916617 0
M  V30 2953 C 301.616 -1.87474 -0.557917 0
M  V30 2954 O 302.822 -2.55845 -0.908617 0
M  V30 2955 C 301.278 -3.22848 1.59051 0
M  V30 2956 C 300.886 -3.23257 3.10176 0
M  V30 2957 C 302.63 -3.99379 1.43864 0
M  V30 2958 C 300.537 -4.61063 3.70372 0
M  V30 2959 H 299.467 -0.673349 0.33929 0
M  V30 2960 H 302.118 -1.21003 1.37951 0
M  V30 2961 H 300.5 -3.8168 1.0553 0
M  V30 2962 H 301.674 -2.74095 3.70417 0
M  V30 2963 H 299.989 -2.60222 3.25074 0
M  V30 2964 H 302.586 -5.0122 1.86232 0
M  V30 2965 H 302.929 -4.14511 0.385564 0
M  V30 2966 H 303.462 -3.47032 1.94457 0
M  V30 2967 H 300.201 -4.51135 4.7556 0
M  V30 2968 H 299.721 -5.1048 3.14913 0
M  V30 2969 H 301.4 -5.30034 3.71043 0
M  V30 2970 N 301.532 -0.945985 -1.26051 0
M  V30 2971 C 302.48 -0.450259 -2.282 0
M  V30 2972 C 303.474 0.47497 -1.62605 0
M  V30 2973 O 304.68 0.352653 -1.76512 0
M  V30 2974 H 301.055 -0.127081 -0.741184 0
M  V30 2975 H 303.026 -1.32422 -2.67408 0
M  V30 2976 C 301.775 0.26467 -3.46691 0
M  V30 2977 H 301.098 -0.438123 -3.97392 0
M  V30 2978 H 302.538 0.575678 -4.20074 0
M  V30 2979 C 300.997 1.48416 -3.02447 0
M  V30 2980 O 301.527 2.58227 -3.07704 0
M  V30 2981 N 299.733 1.34243 -2.57735 0
M  V30 2982 H 299.28 0.448994 -2.53657 0
M  V30 2983 H 299.238 2.15957 -2.28495 0
M  V30 2984 N 303.011 1.40521 -0.713556 0
M  V30 2985 C 304.257 2.01221 -0.252564 0
M  V30 2986 C 304.59 1.56444 1.1506 0
M  V30 2987 O 303.865 0.783597 1.78017 0
M  V30 2988 C 304.148 3.58582 -0.330332 0
M  V30 2989 C 304.001 4.13437 -1.77173 0
M  V30 2990 C 305.32 4.39079 0.299641 0
M  V30 2991 H 302.439 0.731077 -0.0932471 0
M  V30 2992 H 305.081 1.67026 -0.905673 0
M  V30 2993 H 303.231 3.87844 0.225737 0
M  V30 2994 H 304.903 3.9498 -2.38303 0
M  V30 2995 H 303.146 3.67801 -2.3001 0
M  V30 2996 H 303.817 5.22597 -1.77755 0
M  V30 2997 H 306.293 4.15735 -0.174139 0
M  V30 2998 H 305.169 5.4848 0.214771 0
M  V30 2999 H 305.43 4.19915 1.38288 0
M  V30 3000 N 304.489 0.459591 1.5075 0
M  V30 3001 C 305.766 -0.160371 1.94941 0
M  V30 3002 C 306.146 -1.58048 1.39943 0
M  V30 3003 O 305.494 -2.206 0.595629 0
M  V30 3004 C 305.704 -0.115432 3.48809 0
M  V30 3005 C 307.052 -0.310026 4.23467 0
M  V30 3006 O 308.076 -0.192543 3.55679 0
M  V30 3007 O 306.935 -0.546031 5.43765 0
M  V30 3008 H 304.029 -0.117925 0.818549 0
M  V30 3009 H 306.575 0.519169 1.61563 0
M  V30 3010 H 305.347 0.87652 3.81357 0
M  V30 3011 H 304.97 -0.836928 3.88692 0
M  V30 3012 N 305.967 -1.56429 0.191757 0
M  V30 3013 C 307.214 -1.97485 -0.447891 0
M  V30 3014 C 307.542 -1.07852 -1.61859 0
M  V30 3015 O 306.797 -0.116903 -1.95351 0
M  V30 3016 C 307.096 -3.44449 -0.953384 0
M  V30 3017 C 306.762 -4.50781 0.103586 0
M  V30 3018 C 305.424 -4.79584 0.394023 0
M  V30 3019 C 307.776 -5.1471 0.819946 0
M  V30 3020 C 305.104 -5.69607 1.40585 0
M  V30 3021 C 307.456 -6.05827 1.8209 0
M  V30 3022 C 306.12 -6.32987 2.11857 0
M  V30 3023 H 305.39 -0.722648 -0.163895 0
M  V30 3024 H 308.037 -1.89322 0.28802 0
M  V30 3025 H 306.342 -3.49666 -1.76751 0
M  V30 3026 H 308.039 -3.73569 -1.45765 0
M  V30 3027 H 304.629 -4.28394 -0.132951 0
M  V30 3028 H 308.813 -4.92552 0.608789 0
M  V30 3029 H 304.069 -5.88926 1.64243 0
M  V30 3030 H 308.243 -6.54424 2.38123 0
M  V30 3031 H 305.87 -7.02544 2.90407 0
M  V30 3032 N 307.445 0.0818655 -1.57387 0
M  V30 3033 C 308.408 1.08265 -2.02018 0
M  V30 3034 C 309.408 1.32183 -0.915664 0
M  V30 3035 O 310.598 1.28073 -1.18081 0
M  V30 3036 C 307.73 2.42871 -2.39221 0
M  V30 3037 H 308.923 0.698204 -2.91659 0
M  V30 3038 H 306.476 0.327303 -1.52835 0
M  V30 3039 H 307.211 2.86167 -1.52575 0
M  V30 3040 H 306.996 2.26855 -3.19811 0
M  V30 3041 H 308.486 3.14826 -2.74362 0
M  V30 3042 N 308.923 1.53595 0.353017 0
M  V30 3043 C 310.2 1.61002 1.11075 0
M  V30 3044 C 310.58 0.425356 2.0677 0
M  V30 3045 O 309.928 -0.583267 2.2093 0
M  V30 3046 C 310.138 2.96631 1.83877 0
M  V30 3047 C 311.486 3.51653 2.37961 0
M  V30 3048 O 312.51 2.98743 1.93987 0
M  V30 3049 O 311.369 4.44177 3.18386 0
M  V30 3050 H 308.463 0.650825 0.510251 0
M  V30 3051 H 311.009 1.6594 0.35527 0
M  V30 3052 H 309.781 3.74293 1.14108 0
M  V30 3053 H 309.404 2.95242 2.66304 0
M  V30 3054 N 310.401 -0.613514 1.45168 0
M  V30 3055 C 311.647 -1.37471 1.49096 0
M  V30 3056 C 311.98 -1.93765 0.129901 0
M  V30 3057 O 311.255 -1.74707 -0.854858 0
M  V30 3058 C 311.538 -2.52701 2.56542 0
M  V30 3059 C 311.391 -2.01643 4.0207 0
M  V30 3060 C 312.71 -3.54849 2.60327 0
M  V30 3061 H 309.829 -0.498502 0.54283 0
M  V30 3062 H 312.471 -0.692125 1.76945 0
M  V30 3063 H 310.621 -3.10931 2.32926 0
M  V30 3064 H 312.293 -1.48108 4.36877 0
M  V30 3065 H 310.536 -1.32688 4.13009 0
M  V30 3066 H 311.207 -2.84681 4.72928 0
M  V30 3067 H 313.683 -3.0645 2.81474 0
M  V30 3068 H 312.559 -4.32973 3.37381 0
M  V30 3069 H 312.82 -4.10079 1.6519 0
M  V30 3070 N 311.879 -1.3236 -0.855495 0
M  V30 3071 C 312.826 -1.21225 -1.964 0
M  V30 3072 C 313.796 -0.0946204 -1.6583 0
M  V30 3073 O 314.981 -0.27002 -1.8888 0
M  V30 3074 C 312.121 -0.940419 -3.32039 0
M  V30 3075 C 311.234 -2.14276 -3.75113 0
M  V30 3076 C 310.369 -1.80648 -4.9954 0
M  V30 3077 C 309.408 -2.97208 -5.35102 0
M  V30 3078 N 308.545 -2.63678 -6.50706 0
M  V30 3079 H 313.385 -2.16042 -2.05255 0
M  V30 3080 H 310.922 -1.07451 -1.00463 0
M  V30 3081 H 312.88 -0.763311 -4.10158 0
M  V30 3082 H 311.51 -0.0290413 -3.22787 0
M  V30 3083 H 310.562 -2.43017 -2.92655 0
M  V30 3084 H 311.874 -3.01468 -3.97389 0
M  V30 3085 H 311.028 -1.59484 -5.85363 0
M  V30 3086 H 309.767 -0.906678 -4.79198 0
M  V30 3087 H 308.772 -3.19004 -4.47791 0
M  V30 3088 H 309.997 -3.87918 -5.57401 0
M  V30 3089 H 307.943 -1.76238 -6.31883 0
M  V30 3090 H 307.86 -3.444 -6.72997 0
M  V30 3091 H 309.128 -2.45942 -7.39684 0
M  V30 3092 N 313.357 1.07166 -1.15556 0
M  V30 3093 C 314.605 1.79443 -0.929764 0
M  V30 3094 C 314.926 1.87246 0.544414 0
M  V30 3095 O 314.196 1.37473 1.39564 0
M  V30 3096 H 312.776 0.664625 -0.341003 0
M  V30 3097 H 315.438 1.29499 -1.45657 0
M  V30 3098 H 314.534 2.81832 -1.34079 0
M  V30 3099 N 314.835 0.952656 1.25548 0
M  V30 3100 C 316.084 0.602053 1.92505 0
M  V30 3101 C 316.397 -0.864663 1.75451 0
M  V30 3102 O 317.603 -1.32514 2.36965 0
M  V30 3103 C 316.059 1.02607 3.44963 0
M  V30 3104 C 315.667 2.51519 3.70732 0
M  V30 3105 C 317.411 0.747905 4.1786 0
M  V30 3106 C 315.318 2.87732 5.16686 0
M  V30 3107 H 314.248 0.22146 0.720744 0
M  V30 3108 H 316.899 1.15684 1.42441 0
M  V30 3109 H 315.281 0.399712 3.93978 0
M  V30 3110 H 316.455 3.19157 3.32378 0
M  V30 3111 H 314.77 2.76786 3.11092 0
M  V30 3112 H 317.367 0.994647 5.25367 0
M  V30 3113 H 317.71 -0.315629 4.15102 0
M  V30 3114 H 318.243 1.33452 3.74747 0
M  V30 3115 H 314.982 3.93095 5.24554 0
M  V30 3116 H 314.502 2.24765 5.56094 0
M  V30 3117 H 316.181 2.76817 5.84792 0
M  V30 3118 N 316.313 -1.40141 0.720998 0
M  V30 3119 C 317.246 -2.2819 0.020916 0
M  V30 3120 C 318.224 -1.43633 -0.762129 0
M  V30 3121 O 319.408 -1.7304 -0.747633 0
M  V30 3122 C 316.535 -3.24281 -0.977715 0
M  V30 3123 C 315.581 -4.25548 -0.284836 0
M  V30 3124 S 316.414 -5.26247 0.991169 0
M  V30 3125 C 317.57 -6.259 -0.0052214 0
M  V30 3126 H 317.803 -2.87218 0.767649 0
M  V30 3127 H 315.336 -1.45656 0.512233 0
M  V30 3128 H 317.294 -3.80167 -1.54865 0
M  V30 3129 H 315.955 -2.643 -1.69719 0
M  V30 3130 H 315.148 -4.93154 -1.03996 0
M  V30 3131 H 314.75 -3.73389 0.213684 0
M  V30 3132 H 317.042 -6.72143 -0.850279 0
M  V30 3133 H 317.985 -7.05224 0.637599 0
M  V30 3134 H 318.393 -5.63277 -0.371366 0
M  V30 3135 N 317.792 -0.46758 -1.50504 0
M  V30 3136 C 319.017 0.0886943 -2.0721 0
M  V30 3137 C 319.442 1.33057 -1.32956 0
M  V30 3138 O 318.8 1.77354 -0.376197 0
M  V30 3139 C 318.848 0.359202 -3.58806 0
M  V30 3140 O 317.952 1.44034 -3.8643 0
M  V30 3141 H 317.293 -0.0114349 -0.663902 0
M  V30 3142 H 319.823 -0.657613 -1.93744 0
M  V30 3143 H 319.833 0.600742 -4.03553 0
M  V30 3144 H 318.508 -0.548311 -4.1227 0
M  V30 3145 H 317.085 1.18638 -3.53524 0
M  V30 3146 N 319.27 1.56325 -0.20005 0
M  V30 3147 C 320.518 1.97329 0.436547 0
M  V30 3148 C 320.839 1.08826 1.61808 0
M  V30 3149 O 320.109 0.160604 1.95241 0
M  V30 3150 H 318.689 0.728714 0.164272 0
M  V30 3151 H 321.351 1.92761 -0.287937 0
M  V30 3152 H 320.447 3.02264 0.777353 0
M  V30 3153 N 320.748 -0.0735177 1.57428 0
M  V30 3154 C 321.711 -1.07192 2.02589 0
M  V30 3155 C 322.711 -1.31695 0.922661 0
M  V30 3156 O 323.901 -1.27445 1.18758 0
M  V30 3157 C 321.033 -2.41599 2.40506 0
M  V30 3158 H 322.226 -0.682727 2.92025 0
M  V30 3159 H 319.779 -0.319193 1.53006 0
M  V30 3160 H 320.514 -2.85354 1.5409 0
M  V30 3161 H 320.299 -2.25156 3.21009 0
M  V30 3162 H 321.789 -3.13367 2.76027 0
M  V30 3163 N 322.226 -1.5378 -0.344866 0
M  V30 3164 C 323.474 -1.70625 -1.08311 0
M  V30 3165 C 323.795 -0.471447 -1.89215 0
M  V30 3166 O 323.065 0.514616 -1.8902 0
M  V30 3167 H 321.645 -0.629058 -0.402859 0
M  V30 3168 H 324.307 -1.9103 -0.386459 0
M  V30 3169 H 323.403 -2.57656 -1.76124 0
M  V30 3170 N 323.704 0.605807 -1.45491 0
M  V30 3171 C 324.932 1.39136 -1.5313 0
M  V30 3172 C 325.347 1.88082 -0.164507 0
M  V30 3173 O 324.704 1.62316 0.834247 0
M  V30 3174 C 324.755 2.59463 -2.51716 0
M  V30 3175 O 324.476 2.12551 -3.83084 0
M  V30 3176 C 325.977 3.52301 -2.6907 0
M  V30 3177 H 323.197 0.425849 -0.51855 0
M  V30 3178 H 325.741 0.73865 -1.90694 0
M  V30 3179 H 323.896 3.20772 -2.17219 0
M  V30 3180 H 324.31 2.90744 -4.36541 0
M  V30 3181 H 325.784 4.33271 -3.42024 0
M  V30 3182 H 326.261 4.02757 -1.75167 0
M  V30 3183 H 326.867 2.96845 -3.04571 0
M  V30 3184 N 325.182 1.32811 0.848464 0
M  V30 3185 C 326.145 1.22194 1.9391 0
M  V30 3186 C 327.145 0.143404 1.60159 0
M  V30 3187 O 328.335 0.394253 1.6968 0
M  V30 3188 C 325.467 0.88067 3.29328 0
M  V30 3189 H 326.66 2.19127 2.04752 0
M  V30 3190 H 324.213 1.16731 1.0394 0
M  V30 3191 H 324.948 -0.0865776 3.24184 0
M  V30 3192 H 324.733 1.66052 3.55203 0
M  V30 3193 H 326.223 0.830871 4.09251 0
M  V30 3194 N 326.66 -1.06551 1.16123 0
M  V30 3195 C 327.59 -2.15935 0.88851 0
M  V30 3196 C 328.571 -1.69306 -0.164135 0
M  V30 3197 O 329.756 -1.94193 -0.0167857 0
M  V30 3198 C 326.886 -3.45149 0.385942 0
M  V30 3199 C 325.84 -4.05271 1.3762 0
M  V30 3200 C 325.166 -5.29664 0.732137 0
M  V30 3201 C 326.466 -4.44355 2.74493 0
M  V30 3202 H 328.16 -2.39006 1.80323 0
M  V30 3203 H 325.706 -1.14866 0.868435 0
M  V30 3204 H 327.659 -4.21004 0.182647 0
M  V30 3205 H 326.383 -3.21689 -0.564274 0
M  V30 3206 H 325.042 -3.3147 1.56599 0
M  V30 3207 H 324.69 -5.02499 -0.224483 0
M  V30 3208 H 324.39 -5.70848 1.39307 0
M  V30 3209 H 325.914 -6.08218 0.538802 0
M  V30 3210 H 327.328 -5.11303 2.59311 0
M  V30 3211 H 325.725 -4.96515 3.37035 0
M  V30 3212 H 326.795 -3.55339 3.29943 0
M  V30 3213 N 328.138 -0.959301 -1.25041 0
M  V30 3214 C 329.071 -0.427418 -2.24161 0
M  V30 3215 C 330.049 0.493837 -1.54919 0
M  V30 3216 O 331.233 0.427144 -1.83597 0
M  V30 3217 C 328.36 0.383893 -3.36517 0
M  V30 3218 C 327.406 -0.478431 -4.23808 0
M  V30 3219 S 328.239 -1.91353 -5.00144 0
M  V30 3220 C 329.395 -1.11077 -6.15965 0
M  V30 3221 H 329.628 -1.26743 -2.6893 0
M  V30 3222 H 327.161 -0.763714 -1.34189 0
M  V30 3223 H 329.119 0.846039 -4.01687 0
M  V30 3224 H 327.78 1.19878 -2.90324 0
M  V30 3225 H 326.973 0.14406 -5.03794 0
M  V30 3226 H 326.575 -0.87597 -3.63597 0
M  V30 3227 H 328.867 -0.361699 -6.76534 0
M  V30 3228 H 329.81 -1.88472 -6.82557 0
M  V30 3229 H 330.218 -0.638843 -5.60873 0
M  V30 3230 N 329.616 1.39756 -0.72842 0
M  V30 3231 C 330.864 2.00248 -0.272946 0
M  V30 3232 C 331.185 1.58077 1.14178 0
M  V30 3233 O 330.455 0.826014 1.77634 0
M  V30 3234 H 329.035 0.740554 -0.0979247 0
M  V30 3235 H 331.697 1.70903 -0.936912 0
M  V30 3236 H 330.793 3.10495 -0.316142 0
M  V30 3237 N 331.094 0.475555 1.50254 0
M  V30 3238 C 332.343 -0.0795996 2.01543 0
M  V30 3239 C 332.656 -1.4038 1.36209 0
M  V30 3240 O 333.862 -2.04415 1.7868 0
M  V30 3241 C 332.318 -0.192363 3.59386 0
M  V30 3242 C 331.926 1.12367 4.33679 0
M  V30 3243 C 333.67 -0.699238 4.18701 0
M  V30 3244 C 331.577 0.974453 5.83317 0
M  V30 3245 H 330.507 -0.0335228 0.753254 0
M  V30 3246 H 333.158 0.611128 1.73025 0
M  V30 3247 H 331.54 -0.946974 3.84511 0
M  V30 3248 H 332.714 1.88958 4.20276 0
M  V30 3249 H 331.029 1.562 3.85993 0
M  V30 3250 H 333.626 -0.827978 5.28251 0
M  V30 3251 H 333.969 -1.69171 3.80377 0
M  V30 3252 H 334.502 -0.00188807 3.978 0
M  V30 3253 H 331.241 1.94042 6.26121 0
M  V30 3254 H 330.761 0.248998 5.99283 0
M  V30 3255 H 332.44 0.642867 6.43798 0
M  V30 3256 N 332.573 -1.56217 0.208337 0
M  V30 3257 C 333.821 -1.97558 -0.426076 0
M  V30 3258 C 334.142 -1.09683 -1.61229 0
M  V30 3259 O 333.412 -0.170956 -1.95153 0
M  V30 3260 H 331.992 -0.729575 -0.160405 0
M  V30 3261 H 334.654 -1.92606 0.298155 0
M  V30 3262 H 333.75 -3.02672 -0.761312 0
M  V30 3263 N 334.051 0.0651679 -1.57465 0
M  V30 3264 C 335.276 0.779605 -1.9219 0
M  V30 3265 C 335.701 1.69988 -0.805333 0
M  V30 3266 O 335.059 1.79685 0.241435 0
M  V30 3267 C 335.107 1.54364 -3.2589 0
M  V30 3268 O 334.211 2.65474 -3.1559 0
M  V30 3269 H 333.552 0.212249 -0.629163 0
M  V30 3270 H 336.082 0.0314294 -2.04576 0
M  V30 3271 H 336.092 1.92146 -3.59922 0
M  V30 3272 H 334.767 0.868457 -4.06732 0
M  V30 3273 H 333.344 2.30501 -2.93128 0
M  V30 3274 N 335.529 1.53961 0.336706 0
M  V30 3275 C 336.492 1.81724 1.39675 0
M  V30 3276 C 337.492 0.688532 1.45313 0
M  V30 3277 O 338.682 0.956829 1.45569 0
M  V30 3278 C 335.814 1.96543 2.78538 0
M  V30 3279 H 337.007 2.76424 1.16318 0
M  V30 3280 H 334.56 1.45478 0.571474 0
M  V30 3281 H 335.295 1.0401 3.07168 0
M  V30 3282 H 335.08 2.78665 2.75841 0
M  V30 3283 H 336.57 2.19516 3.5525 0
M  V30 3284 N 337.007 -0.598083 1.45811 0
M  V30 3285 C 338.423 -0.919847 1.30426 0
M  V30 3286 C 338.623 -1.99759 0.264303 0
M  V30 3287 O 337.679 -2.50221 -0.338472 0
M  V30 3288 C 338.992 -1.35176 2.68603 0
M  V30 3289 C 340.54 -1.46546 2.76574 0
M  V30 3290 C 341.015 -1.9311 4.15298 0
M  V30 3291 N 342.506 -2.00328 4.1764 0
M  V30 3292 C 343.241 -2.37599 5.21856 0
M  V30 3293 N 342.737 -2.73771 6.36413 0
M  V30 3294 N 344.53 -2.38021 5.09218 0
M  V30 3295 H 336.681 0.114111 2.12093 0
M  V30 3296 H 338.944 -0.0116121 0.947929 0
M  V30 3297 H 338.65 -0.633969 3.45939 0
M  V30 3298 H 338.524 -2.3164 2.97696 0
M  V30 3299 H 340.911 -2.17415 1.99537 0
M  V30 3300 H 340.992 -0.483727 2.51185 0
M  V30 3301 H 340.636 -1.22824 4.92825 0
M  V30 3302 H 340.566 -2.92213 4.38086 0
M  V30 3303 H 343.057 -1.74925 3.34977 0
M  V30 3304 H 343.37 -3.0112 7.11721 0
M  V30 3305 H 341.715 -2.71445 6.39799 0
M  V30 3306 H 344.906 -2.09174 4.18765 0
M  V30 3307 H 345.079 -2.66741 5.90554 0
M  V30 3308 N 338.485 -1.33259 -0.841409 0
M  V30 3309 C 339.733 -1.24326 -1.59334 0
M  V30 3310 C 340.054 0.191564 -1.94057 0
M  V30 3311 O 339.324 1.11967 -1.60749 0
M  V30 3312 H 337.904 -0.457174 -0.590763 0
M  V30 3313 H 340.566 -1.66947 -1.00571 0
M  V30 3314 H 339.662 -1.8352 -2.52442 0
M  V30 3315 N 339.963 1.05934 -1.16686 0
M  V30 3316 C 340.873 2.17014 -0.891183 0
M  V30 3317 C 341.889 1.73453 0.137907 0
M  V30 3318 O 343.065 2.01361 -0.039592 0
M  V30 3319 C 340.13 3.44384 -0.400099 0
M  V30 3320 C 339.191 4.02433 -1.49486 0
M  V30 3321 C 338.424 5.23723 -1.02711 0
M  V30 3322 O 338.647 5.7027 0.121716 0
M  V30 3323 O 337.581 5.7382 -1.81699 0
M  V30 3324 H 341.407 2.43113 -1.82015 0
M  V30 3325 H 338.992 1.15541 -0.947132 0
M  V30 3326 H 340.874 4.21189 -0.133392 0
M  V30 3327 H 339.549 3.19802 0.500817 0
M  V30 3328 H 338.456 3.27102 -1.81535 0
M  V30 3329 H 339.789 4.31317 -2.37121 0
M  V30 3330 N 341.441 0.965919 1.2453 0
M  V30 3331 C 342.689 0.625593 1.92174 0
M  V30 3332 C 343.01 -0.841652 1.75901 0
M  V30 3333 O 342.28 -1.60061 1.12948 0
M  V30 3334 H 340.86 0.228388 0.71123 0
M  V30 3335 H 343.522 1.2266 1.51461 0
M  V30 3336 H 342.618 0.864653 2.99884 0
M  V30 3337 N 342.919 -1.39368 0.735821 0
M  V30 3338 C 344.335 -1.54204 0.411492 0
M  V30 3339 C 344.535 -1.70268 -1.07755 0
M  V30 3340 O 343.591 -1.70364 -1.86366 0
M  V30 3341 C 344.904 -2.75925 1.19523 0
M  V30 3342 C 346.452 -2.89761 1.18354 0
M  V30 3343 C 346.927 -4.14421 1.94986 0
M  V30 3344 N 348.418 -4.21462 1.92156 0
M  V30 3345 C 349.153 -5.16871 2.48258 0
M  V30 3346 N 348.649 -6.18063 3.13001 0
M  V30 3347 N 350.442 -5.09093 2.38287 0
M  V30 3348 H 342.593 -1.27189 1.70108 0
M  V30 3349 H 344.856 -0.616517 0.720147 0
M  V30 3350 H 344.562 -2.70401 2.24892 0
M  V30 3351 H 344.436 -3.68614 0.800222 0
M  V30 3352 H 346.823 -2.94777 0.137975 0
M  V30 3353 H 346.904 -1.98133 1.61793 0
M  V30 3354 H 346.548 -4.10166 2.99543 0
M  V30 3355 H 346.478 -5.05095 1.48953 0
M  V30 3356 H 348.969 -3.48979 1.44991 0
M  V30 3357 H 349.282 -6.87326 3.53275 0
M  V30 3358 H 347.627 -6.18448 3.17091 0
M  V30 3359 H 350.818 -4.28973 1.8735 0
M  V30 3360 H 350.991 -5.83272 2.82308 0
M  V30 3361 N 344.397 -0.483516 -1.5 0
M  V30 3362 C 345.622 0.0667119 -2.07293 0
M  V30 3363 C 346.047 1.3164 -1.3436 0
M  V30 3364 O 345.405 1.76945 -0.394987 0
M  V30 3365 C 345.453 0.321126 -3.59167 0
M  V30 3366 O 344.557 1.39927 -3.87936 0
M  V30 3367 H 343.898 -0.0184758 -0.663743 0
M  V30 3368 H 346.428 -0.678125 -1.93035 0
M  V30 3369 H 346.438 0.557906 -4.04168 0
M  V30 3370 H 345.113 -0.592007 -4.11665 0
M  V30 3371 H 343.69 1.14882 -3.54763 0
M  V30 3372 N 345.875 1.56104 -0.216619 0
M  V30 3373 C 346.805 2.23063 0.690296 0
M  V30 3374 C 347.786 1.20072 1.20485 0
M  V30 3375 O 348.971 1.48643 1.24976 0
M  V30 3376 C 346.101 2.90672 1.90072 0
M  V30 3377 C 345.055 4.00092 1.5202 0
M  V30 3378 C 344.381 4.54972 2.80899 0
M  V30 3379 C 345.681 5.17398 0.71391 0
M  V30 3380 H 347.375 2.99109 0.132038 0
M  V30 3381 H 344.921 1.43866 0.0620664 0
M  V30 3382 H 346.874 3.36204 2.54057 0
M  V30 3383 H 345.598 2.12066 2.48386 0
M  V30 3384 H 344.257 3.55283 0.903839 0
M  V30 3385 H 343.905 3.73102 3.37348 0
M  V30 3386 H 343.605 5.28817 2.56176 0
M  V30 3387 H 345.129 5.0322 3.45836 0
M  V30 3388 H 346.543 5.59342 1.25735 0
M  V30 3389 H 344.94 5.97444 0.563951 0
M  V30 3390 H 346.01 4.84088 -0.280527 0
M  V30 3391 N 347.353 -0.0568162 1.57498 0
M  V30 3392 C 348.3 -1.06591 2.04712 0
M  V30 3393 C 349.27 -1.3758 0.930644 0
M  V30 3394 O 350.455 -1.48392 1.19935 0
M  V30 3395 C 347.595 -2.3701 2.50839 0
M  V30 3396 C 346.708 -2.12421 3.76167 0
M  V30 3397 C 345.843 -3.36511 4.11015 0
M  V30 3398 C 344.882 -3.07353 5.2934 0
M  V30 3399 N 344.019 -4.23816 5.59754 0
M  V30 3400 H 348.859 -0.65631 2.90683 0
M  V30 3401 H 346.396 -0.312481 1.43743 0
M  V30 3402 H 348.354 -3.13175 2.7564 0
M  V30 3403 H 346.984 -2.75744 1.67825 0
M  V30 3404 H 346.036 -1.2688 3.58616 0
M  V30 3405 H 347.348 -1.86894 4.62463 0
M  V30 3406 H 346.502 -4.21062 4.36797 0
M  V30 3407 H 345.241 -3.65128 3.23315 0
M  V30 3408 H 344.246 -2.212 5.03339 0
M  V30 3409 H 345.471 -2.80043 6.1867 0
M  V30 3410 H 343.417 -4.52436 4.75014 0
M  V30 3411 H 343.334 -4.01614 6.40501 0
M  V30 3412 H 344.602 -5.0932 5.90096 0
M  V30 3413 N 348.832 -1.54138 -0.328536 0
M  V30 3414 C 349.795 -1.82462 -1.38709 0
M  V30 3415 C 350.795 -0.696229 -1.44946 0
M  V30 3416 O 351.985 -0.964535 -1.4506 0
M  V30 3417 C 349.117 -1.98018 -2.77492 0
M  V30 3418 H 350.31 -2.77037 -1.14851 0
M  V30 3419 H 347.863 -1.45779 -0.563751 0
M  V30 3420 H 348.598 -1.05637 -3.06613 0
M  V30 3421 H 348.383 -2.80124 -2.74359 0
M  V30 3422 H 349.873 -2.21396 -3.54081 0
M  V30 3423 N 350.31 0.590341 -1.46126 0
M  V30 3424 C 351.273 1.68194 -1.55703 0
M  V30 3425 C 352.273 1.54808 -0.434868 0
M  V30 3426 O 353.463 1.59564 -0.698928 0
M  V30 3427 C 350.595 3.07575 -1.47005 0
M  V30 3428 H 351.788 1.61064 -2.52979 0
M  V30 3429 H 349.341 0.807541 -1.33823 0
M  V30 3430 H 350.076 3.20268 -0.509785 0
M  V30 3431 H 349.861 3.187 -2.28414 0
M  V30 3432 H 351.351 3.87055 -1.56776 0
M  V30 3433 N 351.788 1.33704 0.83433 0
M  V30 3434 C 352.698 1.26382 1.97648 0
M  V30 3435 C 353.714 0.173548 1.73132 0
M  V30 3436 O 354.89 0.397962 1.97429 0
M  V30 3437 C 351.955 1.00769 3.31733 0
M  V30 3438 C 351.016 2.1884 3.69334 0
M  V30 3439 C 350.249 1.9444 4.9702 0
M  V30 3440 O 350.472 0.896961 5.63303 0
M  V30 3441 O 349.406 2.81093 5.32231 0
M  V30 3442 H 353.232 2.22444 2.06767 0
M  V30 3443 H 350.817 1.13795 0.968037 0
M  V30 3444 H 352.699 0.882186 4.12062 0
M  V30 3445 H 351.374 0.0773783 3.23608 0
M  V30 3446 H 350.281 2.36946 2.89495 0
M  V30 3447 H 351.614 3.10221 3.82131 0
M  V30 3448 N 353.266 -1.05314 1.17247 0
M  V30 3449 C 354.515 -1.77685 0.954521 0
M  V30 3450 C 354.828 -1.88616 -0.518025 0
M  V30 3451 O 356.034 -2.57714 -0.854144 0
M  V30 3452 C 354.49 -3.19402 1.65863 0
M  V30 3453 C 354.098 -3.16605 3.16963 0
M  V30 3454 C 355.842 -3.96237 1.52303 0
M  V30 3455 C 353.749 -4.53103 3.80068 0
M  V30 3456 H 352.679 -0.666 0.353496 0
M  V30 3457 H 355.33 -1.1805 1.40486 0
M  V30 3458 H 353.712 -3.79355 1.13602 0
M  V30 3459 H 354.886 -2.66176 3.76148 0
M  V30 3460 H 353.201 -2.53268 3.30521 0
M  V30 3461 H 355.798 -4.97157 1.96822 0
M  V30 3462 H 356.141 -4.136 0.473401 0
M  V30 3463 H 356.674 -3.42829 2.01775 0
M  V30 3464 H 353.413 -4.40946 4.85023 0
M  V30 3465 H 352.933 -5.03686 3.2567 0
M  V30 3466 H 354.612 -5.22045 3.82202 0
M  V30 3467 N 354.744 -0.972509 -1.24016 0
M  V30 3468 C 355.707 -0.511403 -2.23422 0
M  V30 3469 C 356.707 0.394679 -1.55881 0
M  V30 3470 O 357.897 0.189469 -1.73167 0
M  V30 3471 C 355.029 0.258769 -3.39916 0
M  V30 3472 H 356.222 -1.39024 -2.6573 0
M  V30 3473 H 353.775 -0.757585 -1.36713 0
M  V30 3474 H 354.51 1.1545 -3.03054 0
M  V30 3475 H 354.295 -0.391522 -3.9014 0
M  V30 3476 H 355.785 0.570244 -4.13688 0
M  V30 3477 N 356.222 1.38976 -0.743202 0
M  V30 3478 C 357.471 1.99581 -0.291592 0
M  V30 3479 C 357.784 1.59656 1.13001 0
M  V30 3480 O 358.99 2.13157 1.68156 0
M  V30 3481 C 357.446 3.56813 -0.470391 0
M  V30 3482 C 357.054 4.05695 -1.90041 0
M  V30 3483 C 358.798 4.24423 -0.0809709 0
M  V30 3484 C 356.705 5.5553 -2.02832 0
M  V30 3485 H 355.635 0.746615 -0.105272 0
M  V30 3486 H 358.286 1.58872 -0.918258 0
M  V30 3487 H 356.668 3.95359 0.225299 0
M  V30 3488 H 357.842 3.78464 -2.62872 0
M  V30 3489 H 356.157 3.50775 -2.24379 0
M  V30 3490 H 358.754 5.34474 -0.155445 0
M  V30 3491 H 359.097 4.04962 0.96497 0
M  V30 3492 H 359.63 3.9108 -0.728124 0
M  V30 3493 H 356.369 5.79881 -3.05643 0
M  V30 3494 H 355.889 5.84537 -1.34448 0
M  V30 3495 H 357.568 6.21069 -1.81335 0
M  V30 3496 N 357.7 0.491464 1.49741 0
M  V30 3497 C 358.648 -0.305837 2.30581 0
M  V30 3498 C 359.642 -0.971642 1.38764 0
M  V30 3499 O 360.848 -0.90042 1.5586 0
M  V30 3500 H 357.223 -0.117482 0.742767 0
M  V30 3501 H 359.194 0.396093 2.95759 0
M  V30 3502 C 357.943 -1.36319 3.19863 0
M  V30 3503 H 357.266 -0.860258 3.90435 0
M  V30 3504 H 358.706 -1.89323 3.79385 0
M  V30 3505 C 357.165 -2.37621 2.38826 0
M  V30 3506 O 357.695 -3.43311 2.08567 0
M  V30 3507 N 355.901 -2.09849 2.01026 0
M  V30 3508 H 355.448 -1.23922 2.25834 0
M  V30 3509 H 355.406 -2.77859 1.47112 0
M  V30 3510 N 359.178 -1.55987 0.224894 0
M  V30 3511 C 360.403 -2.03232 -0.41369 0
M  V30 3512 C 360.828 -1.10359 -1.52323 0
M  V30 3513 O 360.186 -0.092395 -1.81064 0
M  V30 3514 C 360.234 -3.48682 -0.919405 0
M  V30 3515 O 359.338 -3.58947 -2.03054 0
M  V30 3516 H 358.679 -0.657428 -0.0931903 0
M  V30 3517 H 361.209 -2.01679 0.34451 0
M  V30 3518 H 361.219 -3.8907 -1.22835 0
M  V30 3519 H 359.894 -4.15761 -0.107339 0
M  V30 3520 H 358.471 -3.30448 -1.72796 0
M  V30 3521 N 360.656 0.0484629 -1.57525 0
M  V30 3522 C 362.067 0.597486 -1.76881 0
M  V30 3523 C 362.418 1.76664 -0.853475 0
M  V30 3524 O 361.543 2.16357 -0.0433656 0
M  V30 3525 C 362.138 1.09066 -3.20765 0
M  V30 3526 C 360.697 1.58535 -3.41385 0
M  V30 3527 C 359.844 0.514868 -2.72478 0
M  V30 3528 H 362.795 -0.177758 -1.57701 0
M  V30 3529 H 362.816 1.95875 -3.2621 0
M  V30 3530 H 362.328 0.239521 -3.8736 0
M  V30 3531 H 360.429 2.45898 -2.79937 0
M  V30 3532 H 360.542 1.64622 -4.49929 0
M  V30 3533 H 358.906 0.965407 -2.35695 0
M  V30 3534 H 359.689 -0.32648 -3.41744 0
M  V30 3535 N 362.134 1.5431 0.320358 0
M  V30 3536 C 363.064 1.86912 1.3995 0
M  V30 3537 C 364.045 0.726211 1.53819 0
M  V30 3538 O 365.23 0.980233 1.67646 0
M  V30 3539 C 362.36 2.09932 2.7667 0
M  V30 3540 C 361.314 3.25776 2.77586 0
M  V30 3541 C 360.64 3.34173 4.17412 0
M  V30 3542 C 361.94 4.6335 2.41048 0
M  V30 3543 H 363.634 2.77292 1.12914 0
M  V30 3544 H 361.18 1.33421 0.541738 0
M  V30 3545 H 363.133 2.31324 3.52232 0
M  V30 3546 H 361.857 1.16304 3.0519 0
M  V30 3547 H 360.516 3.04276 2.04479 0
M  V30 3548 H 360.164 2.38098 4.43078 0
M  V30 3549 H 359.864 4.12033 4.18931 0
M  V30 3550 H 361.388 3.57803 4.94782 0
M  V30 3551 H 362.802 4.84602 3.06324 0
M  V30 3552 H 361.199 5.43782 2.53813 0
M  V30 3553 H 362.269 4.65381 1.36193 0
M  V30 3554 N 363.613 -0.582584 1.46437 0
M  V30 3555 C 364.543 -1.70187 1.59871 0
M  V30 3556 C 365.524 -1.64066 0.449042 0
M  V30 3557 O 366.709 -1.82081 0.6753 0
M  V30 3558 C 363.839 -3.08827 1.58881 0
M  V30 3559 C 362.793 -3.29779 2.72819 0
M  V30 3560 C 362.119 -4.68947 2.5689 0
M  V30 3561 C 363.419 -3.17601 4.1464 0
M  V30 3562 H 365.113 -1.592 2.53566 0
M  V30 3563 H 362.659 -0.764472 1.22032 0
M  V30 3564 H 364.612 -3.86951 1.66873 0
M  V30 3565 H 363.336 -3.20713 0.617306 0
M  V30 3566 H 361.995 -2.54054 2.64296 0
M  V30 3567 H 361.643 -4.77599 1.57823 0
M  V30 3568 H 361.343 -4.83919 3.33312 0
M  V30 3569 H 362.867 -5.4924 2.66773 0
M  V30 3570 H 364.281 -3.8557 4.24274 0
M  V30 3571 H 362.678 -3.44094 4.9165 0
M  V30 3572 H 363.748 -2.14681 4.34788 0
M  V30 3573 N 365.091 -1.34144 -0.827227 0
M  V30 3574 C 366.001 -1.27428 -1.96975 0
M  V30 3575 C 367.017 -0.182728 -1.73038 0
M  V30 3576 O 368.193 -0.408426 -1.97215 0
M  V30 3577 C 365.258 -1.02526 -3.31194 0
M  V30 3578 C 364.319 -2.20796 -3.68168 0
M  V30 3579 C 363.552 -1.97073 -4.95982 0
M  V30 3580 O 363.775 -0.926822 -5.6282 0
M  V30 3581 O 362.709 -2.83912 -5.30733 0
M  V30 3582 H 366.535 -2.23537 -2.05584 0
M  V30 3583 H 364.12 -1.14307 -0.961989 0
M  V30 3584 H 366.002 -0.904026 -4.11589 0
M  V30 3585 H 364.677 -0.0945389 -3.23562 0
M  V30 3586 H 363.584 -2.38477 -2.88235 0
M  V30 3587 H 364.917 -3.12243 -3.8048 0
M  V30 3588 N 366.569 1.04691 -1.17803 0
M  V30 3589 C 367.532 2.10724 -0.901545 0
M  V30 3590 C 368.532 1.6042 0.110437 0
M  V30 3591 O 369.722 1.7377 -0.122303 0
M  V30 3592 C 366.854 3.39084 -0.351409 0
M  V30 3593 H 368.047 2.36686 -1.84174 0
M  V30 3594 H 365.6 1.21015 -0.98919 0
M  V30 3595 H 366.335 3.18782 0.59569 0
M  V30 3596 H 366.12 3.76909 -1.08083 0
M  V30 3597 H 367.61 4.17227 -0.176451 0
M  V30 3598 N 368.047 0.979072 1.23499 0
M  V30 3599 C 369.272 0.664845 1.96455 0
M  V30 3600 C 369.697 -0.761287 1.72006 0
M  V30 3601 O 369.055 -1.51837 0.990713 0
M  V30 3602 C 369.103 0.959479 3.47601 0
M  V30 3603 O 368.207 0.0508168 4.12369 0
M  V30 3604 H 367.548 0.250185 0.615064 0
M  V30 3605 H 370.078 1.31231 1.5697 0
M  V30 3606 H 370.088 0.895642 3.98048 0
M  V30 3607 H 368.763 1.99876 3.64723 0
M  V30 3608 H 367.34 0.16895 3.72517 0
M  V30 3609 N 369.525 -1.3858 0.750561 0
M  V30 3610 C 370.458 -2.28095 0.0693139 0
M  V30 3611 C 371.436 -1.45217 -0.731491 0
M  V30 3612 O 372.62 -1.74587 -0.71076 0
M  V30 3613 C 369.747 -3.26282 -0.90871 0
M  V30 3614 C 368.793 -4.26056 -0.194507 0
M  V30 3615 S 369.626 -5.24026 1.10257 0
M  V30 3616 C 370.782 -6.2577 0.127542 0
M  V30 3617 H 371.015 -2.85526 0.8284 0
M  V30 3618 H 368.548 -1.44536 0.543014 0
M  V30 3619 H 370.506 -3.83367 -1.46766 0
M  V30 3620 H 369.167 -2.6784 -1.64075 0
M  V30 3621 H 368.36 -4.95249 -0.93512 0
M  V30 3622 H 367.962 -3.72852 0.292837 0
M  V30 3623 H 370.254 -6.73796 -0.707516 0
M  V30 3624 H 371.197 -7.03712 0.787044 0
M  V30 3625 H 371.605 -5.63938 -0.251803 0
M  V30 3626 N 371.003 -0.499398 -1.49478 0
M  V30 3627 C 371.913 0.284489 -2.32869 0
M  V30 3628 C 372.929 0.968885 -1.44529 0
M  V30 3629 O 374.105 0.95062 -1.77553 0
M  V30 3630 C 371.17 1.33594 -3.19928 0
M  V30 3631 C 370.231 0.665149 -4.24116 0
M  V30 3632 C 369.464 1.6665 -5.07014 0
M  V30 3633 O 369.687 2.89618 -4.91404 0
M  V30 3634 O 368.621 1.22271 -5.8935 0
M  V30 3635 H 372.447 -0.39802 -3.01081 0
M  V30 3636 H 370.032 -0.260758 -1.47107 0
M  V30 3637 H 371.914 1.94431 -3.73864 0
M  V30 3638 H 370.589 2.0014 -2.54412 0
M  V30 3639 H 369.496 0.0170769 -3.74096 0
M  V30 3640 H 370.829 0.0421555 -4.92182 0
M  V30 3641 N 372.481 1.55866 -0.233164 0
M  V30 3642 C 373.729 1.9821 0.394593 0
M  V30 3643 C 374.05 1.12234 1.59463 0
M  V30 3644 O 373.32 0.201981 1.94856 0
M  V30 3645 H 371.9 0.732034 0.148778 0
M  V30 3646 H 374.562 1.92107 -0.32876 0
M  V30 3647 H 373.658 3.03845 0.713063 0
M  V30 3648 N 373.959 -0.0401083 1.57549 0
M  V30 3649 C 374.922 -1.02871 2.04817 0
M  V30 3650 C 375.922 -1.29708 0.950388 0
M  V30 3651 O 377.112 -1.24897 1.21435 0
M  V30 3652 C 374.244 -2.36443 2.45576 0
M  V30 3653 H 375.437 -0.620631 2.93408 0
M  V30 3654 H 372.99 -0.286667 1.53649 0
M  V30 3655 H 373.725 -2.82021 1.60108 0
M  V30 3656 H 373.51 -2.18296 3.25713 0
M  V30 3657 H 375 -3.07441 2.82612 0
M  V30 3658 N 375.437 -1.54477 -0.31217 0
M  V30 3659 C 376.369 -1.81011 -1.40598 0
M  V30 3660 C 377.382 -0.692546 -1.47335 0
M  V30 3661 O 378.571 -0.969847 -1.49854 0
M  V30 3662 C 375.671 -1.92307 -2.79054 0
M  V30 3663 C 374.844 -3.22594 -2.95384 0
M  V30 3664 C 373.903 -3.24448 -4.1427 0
M  V30 3665 O 372.929 -3.98035 -4.06887 0
M  V30 3666 N 374.131 -2.49042 -5.24365 0
M  V30 3667 H 376.896 -2.75408 -1.18196 0
M  V30 3668 H 374.457 -1.53914 -0.502202 0
M  V30 3669 H 376.449 -1.90962 -3.56813 0
M  V30 3670 H 375.019 -1.04955 -2.94454 0
M  V30 3671 H 374.239 -3.36806 -2.04831 0
M  V30 3672 H 375.527 -4.08593 -3.03198 0
M  V30 3673 H 374.925 -1.88867 -5.33241 0
M  V30 3674 H 373.482 -2.53463 -6.005 0
M  V30 3675 N 376.915 0.57481 -1.46744 0
M  V30 3676 C 378.163 1.33009 -1.52161 0
M  V30 3677 C 378.484 1.94185 -0.178092 0
M  V30 3678 O 377.754 1.7899 0.796196 0
M  V30 3679 H 376.334 0.493873 -0.560445 0
M  V30 3680 H 378.996 0.672589 -1.82927 0
M  V30 3681 H 378.092 2.13273 -2.27862 0
M  V30 3682 N 378.394 1.34581 0.820102 0
M  V30 3683 C 379.64 1.27285 1.57881 0
M  V30 3684 C 379.973 -0.156137 1.93571 0
M  V30 3685 O 379.248 -1.10222 1.60254 0
M  V30 3686 C 379.531 2.16639 2.87645 0
M  V30 3687 C 379.384 3.68088 2.58517 0
M  V30 3688 C 380.703 2.05378 3.8924 0
M  V30 3689 H 377.822 0.463714 0.572833 0
M  V30 3690 H 380.464 1.64859 0.944539 0
M  V30 3691 H 378.614 1.84725 3.41773 0
M  V30 3692 H 380.286 4.10382 2.10676 0
M  V30 3693 H 378.529 3.89038 1.91917 0
M  V30 3694 H 379.2 4.2598 3.51063 0
M  V30 3695 H 381.676 2.33404 3.44473 0
M  V30 3696 H 380.552 2.7012 4.77835 0
M  V30 3697 H 380.813 1.0316 4.29896 0
M  V30 3698 N 379.872 -1.04064 1.18357 0
M  V30 3699 C 380.802 -2.14001 0.934113 0
M  V30 3700 C 381.783 -1.69616 -0.128186 0
M  V30 3701 O 382.968 -1.94185 0.0244093 0
M  V30 3702 C 380.098 -3.44253 0.459066 0
M  V30 3703 C 379.052 -4.02261 1.46185 0
M  V30 3704 C 378.378 -5.27992 0.844322 0
M  V30 3705 C 379.678 -4.38432 2.83856 0
M  V30 3706 H 381.372 -2.35127 1.85352 0
M  V30 3707 H 378.918 -1.12998 0.892604 0
M  V30 3708 H 380.871 -4.20522 0.271907 0
M  V30 3709 H 379.595 -3.22813 -0.495912 0
M  V30 3710 H 378.254 -3.28074 1.63595 0
M  V30 3711 H 377.902 -5.02862 -0.117845 0
M  V30 3712 H 377.602 -5.67765 1.51384 0
M  V30 3713 H 379.126 -6.06938 0.667693 0
M  V30 3714 H 380.54 -5.05688 2.70098 0
M  V30 3715 H 378.937 -4.89254 3.47491 0
M  V30 3716 H 380.007 -3.4826 3.37406 0
M  V30 3717 N 381.35 -0.985608 -1.22978 0
M  V30 3718 C 382.283 -0.47487 -2.23204 0
M  V30 3719 C 383.261 0.460865 -1.55932 0
M  V30 3720 O 384.445 0.388105 -1.84461 0
M  V30 3721 C 381.572 0.312427 -3.37256 0
M  V30 3722 C 380.618 -0.568219 -4.22698 0
M  V30 3723 S 381.451 -2.01919 -4.95973 0
M  V30 3724 C 382.607 -1.24118 -6.1347 0
M  V30 3725 H 382.84 -1.32419 -2.66181 0
M  V30 3726 H 380.373 -0.792005 -1.32539 0
M  V30 3727 H 382.331 0.760645 -4.03391 0
M  V30 3728 H 380.992 1.13693 -2.92801 0
M  V30 3729 H 380.185 0.0371657 -5.03986 0
M  V30 3730 H 379.787 -0.952897 -3.61657 0
M  V30 3731 H 382.079 -0.505121 -6.75614 0
M  V30 3732 H 383.022 -2.02907 -6.78406 0
M  V30 3733 H 383.43 -0.757669 -5.59392 0
M  V30 3734 N 382.828 1.3818 -0.7579 0
M  V30 3735 C 384.053 2.04827 -0.325679 0
M  V30 3736 C 384.478 1.56788 1.03919 0
M  V30 3737 O 383.836 0.721811 1.66312 0
M  V30 3738 C 383.884 3.58774 -0.362447 0
M  V30 3739 O 382.988 4.07372 0.642033 0
M  V30 3740 H 382.329 0.64833 -0.143402 0
M  V30 3741 H 384.859 1.7677 -1.03023 0
M  V30 3742 H 384.869 4.07434 -0.214844 0
M  V30 3743 H 383.544 3.93096 -1.35824 0
M  V30 3744 H 382.121 3.70068 0.458688 0
M  V30 3745 N 384.306 0.507319 1.49211 0
M  V30 3746 C 385.555 -0.0368315 2.01666 0
M  V30 3747 C 385.868 -1.37459 1.39156 0
M  V30 3748 O 387.074 -2.00579 1.82976 0
M  V30 3749 C 385.53 -0.116089 3.59713 0
M  V30 3750 C 385.138 1.2154 4.31198 0
M  V30 3751 C 386.882 -0.610268 4.2009 0
M  V30 3752 C 384.789 1.09796 5.81119 0
M  V30 3753 H 383.719 -0.0175376 0.753796 0
M  V30 3754 H 386.37 0.647691 1.71689 0
M  V30 3755 H 384.752 -0.8652 3.86433 0
M  V30 3756 H 385.926 1.9783 4.16173 0
M  V30 3757 H 384.241 1.64352 3.82593 0
M  V30 3758 H 386.838 -0.715742 5.29888 0
M  V30 3759 H 387.181 -1.61064 3.8388 0
M  V30 3760 H 387.714 0.0824916 3.97714 0
M  V30 3761 H 384.453 2.0728 6.21864 0
M  V30 3762 H 383.973 0.376058 5.9862 0
M  V30 3763 H 385.652 0.779281 6.4229 0
M  V30 3764 N 385.784 -1.5574 0.241426 0
M  V30 3765 C 386.747 -2.19877 -0.647063 0
M  V30 3766 C 387.747 -1.16642 -1.10686 0
M  V30 3767 O 388.937 -1.41757 -1.01245 0
M  V30 3768 C 386.069 -2.83797 -1.88871 0
M  V30 3769 H 387.262 -2.99772 -0.087574 0
M  V30 3770 H 384.815 -1.56298 -0.00813574 0
M  V30 3771 H 385.55 -2.07824 -2.48957 0
M  V30 3772 H 385.335 -3.59414 -1.56728 0
M  V30 3773 H 386.825 -3.32898 -2.52129 0
M  V30 3774 N 387.262 0.0317525 -1.57568 0
M  V30 3775 C 388.51 0.721676 -1.88776 0
M  V30 3776 C 388.831 1.76039 -0.838772 0
M  V30 3777 O 388.101 1.95482 0.127935 0
M  V30 3778 H 386.681 0.269534 -0.696678 0
M  V30 3779 H 389.343 -0.00165879 -1.949 0
M  V30 3780 H 388.439 1.21293 -2.87566 0
M  V30 3781 N 388.74 1.54641 0.303973 0
M  V30 3782 C 389.988 1.73437 1.0375 0
M  V30 3783 C 390.309 0.521449 1.87899 0
M  V30 3784 O 389.579 -0.46432 1.90318 0
M  V30 3785 H 388.159 0.639518 0.386039 0
M  V30 3786 H 390.821 1.91988 0.335675 0
M  V30 3787 H 389.917 2.62235 1.69231 0
M  V30 3788 N 390.218 -0.567019 1.47046 0
M  V30 3789 C 391.443 -1.3551 1.57009 0
M  V30 3790 C 391.868 -1.86841 0.217259 0
M  V30 3791 O 391.226 -1.62435 -0.805268 0
M  V30 3792 C 391.274 -2.50777 2.5912 0
M  V30 3793 O 390.378 -3.52706 2.13711 0
M  V30 3794 H 389.719 -0.402919 0.52778 0
M  V30 3795 H 392.249 -0.686241 1.92748 0
M  V30 3796 H 392.259 -2.97481 2.79229 0
M  V30 3797 H 390.934 -2.12771 3.57353 0
M  V30 3798 H 389.511 -3.12374 2.03659 0
M  V30 3799 N 391.696 -1.35014 -0.812953 0
M  V30 3800 C 392.973 -1.18502 -1.55617 0
M  V30 3801 C 393.353 0.238421 -2.09749 0
M  V30 3802 O 392.701 1.2411 -1.91857 0
M  V30 3803 C 392.911 -2.24783 -2.66971 0
M  V30 3804 C 394.259 -2.60268 -3.35478 0
M  V30 3805 O 395.283 -2.23648 -2.77236 0
M  V30 3806 O 394.142 -3.2321 -4.40678 0
M  V30 3807 H 391.236 -0.459984 -0.687272 0
M  V30 3808 H 393.782 -1.46677 -0.853464 0
M  V30 3809 H 392.554 -3.20284 -2.24798 0
M  V30 3810 H 392.177 -1.97841 -3.44884 0
M  V30 3811 N 393.175 1.03435 -1.18907 0
M  V30 3812 C 394.105 2.13503 -0.945448 0
M  V30 3813 C 395.086 1.69682 0.119189 0
M  V30 3814 O 396.271 1.94169 -0.034707 0
M  V30 3815 C 393.401 3.44004 -0.477316 0
M  V30 3816 C 392.355 4.0148 -1.48316 0
M  V30 3817 C 391.681 5.27537 -0.872311 0
M  V30 3818 C 392.981 4.36921 -2.86177 0
M  V30 3819 H 394.675 2.34141 -1.86597 0
M  V30 3820 H 392.221 1.12523 -0.898584 0
M  V30 3821 H 394.174 4.20372 -0.294204 0
M  V30 3822 H 392.898 3.23072 0.478786 0
M  V30 3823 H 391.557 3.27201 -1.65332 0
M  V30 3824 H 391.205 5.02917 0.0911752 0
M  V30 3825 H 390.905 5.66954 -1.54393 0
M  V30 3826 H 392.429 6.06576 -0.699871 0
M  V30 3827 H 393.843 5.04248 -2.72776 0
M  V30 3828 H 392.24 4.87405 -3.50081 0
M  V30 3829 H 393.31 3.46466 -3.39248 0
M  V30 3830 N 394.653 0.992116 1.22453 0
M  V30 3831 C 395.901 0.666215 1.90804 0
M  V30 3832 C 396.222 -0.804152 1.77647 0
M  V30 3833 O 395.492 -1.57629 1.16318 0
M  V30 3834 H 394.072 0.243423 0.706225 0
M  V30 3835 H 396.734 1.25845 1.48825 0
M  V30 3836 H 395.83 0.928069 2.97982 0
M  V30 3837 N 396.131 -1.37776 0.765217 0
M  V30 3838 C 397.061 -2.32945 0.160953 0
M  V30 3839 C 398.042 -1.55454 -0.690516 0
M  V30 3840 O 399.227 -1.83721 -0.629318 0
M  V30 3841 C 396.357 -3.39669 -0.724031 0
M  V30 3842 C 395.311 -4.27992 0.0256173 0
M  V30 3843 C 394.637 -5.25673 -0.978383 0
M  V30 3844 C 395.937 -5.08309 1.20082 0
M  V30 3845 H 397.631 -2.83728 0.955969 0
M  V30 3846 H 395.177 -1.36416 0.461149 0
M  V30 3847 H 397.13 -4.05219 -1.15652 0
M  V30 3848 H 395.854 -2.87396 -1.5515 0
M  V30 3849 H 394.513 -3.63964 0.438812 0
M  V30 3850 H 394.161 -4.69682 -1.80022 0
M  V30 3851 H 393.861 -5.85625 -0.481378 0
M  V30 3852 H 395.385 -5.94098 -1.40995 0
M  V30 3853 H 396.799 -5.67034 0.845307 0
M  V30 3854 H 395.196 -5.77554 1.62947 0
M  V30 3855 H 396.266 -4.41365 2.00811 0
M  V30 3856 N 397.609 -0.515225 -1.4894 0
M  V30 3857 C 398.856 0.024215 -2.02486 0
M  V30 3858 C 399.184 1.35671 -1.39368 0
M  V30 3859 O 398.439 1.88566 -0.523574 0
M  V30 3860 C 398.738 0.210595 -3.56779 0
M  V30 3861 C 398.404 -1.04569 -4.38607 0
M  V30 3862 C 397.066 -1.39002 -4.60686 0
M  V30 3863 C 399.418 -1.88008 -4.86109 0
M  V30 3864 C 396.746 -2.568 -5.27514 0
M  V30 3865 C 399.098 -3.04972 -5.54234 0
M  V30 3866 C 397.762 -3.39768 -5.74555 0
M  V30 3867 H 397.032 0.00886088 -0.740947 0
M  V30 3868 H 399.679 -0.678263 -1.79086 0
M  V30 3869 H 397.984 0.99572 -3.78936 0
M  V30 3870 H 399.681 0.642659 -3.95817 0
M  V30 3871 H 396.271 -0.767497 -4.21672 0
M  V30 3872 H 400.455 -1.62719 -4.68867 0
M  V30 3873 H 395.711 -2.8398 -5.41447 0
M  V30 3874 H 399.885 -3.69943 -5.90013 0
M  V30 3875 H 397.512 -4.31148 -6.26112 0
M  V30 3876 N 399.087 1.5561 -0.249682 0
M  V30 3877 C 399.997 2.25143 0.659375 0
M  V30 3878 C 401.013 1.2685 1.19101 0
M  V30 3879 O 402.189 1.59732 1.22669 0
M  V30 3880 C 399.254 2.93945 1.8384 0
M  V30 3881 C 398.315 4.07655 1.34596 0
M  V30 3882 C 397.548 4.73167 2.46878 0
M  V30 3883 O 397.771 4.37768 3.65671 0
M  V30 3884 O 396.705 5.61623 2.16478 0
M  V30 3885 H 400.531 3.03545 0.0968698 0
M  V30 3886 H 398.116 1.49389 -0.018074 0
M  V30 3887 H 399.998 3.37271 2.52638 0
M  V30 3888 H 398.673 2.18481 2.38847 0
M  V30 3889 H 397.58 3.68839 0.625174 0
M  V30 3890 H 398.913 4.84946 0.841941 0
M  V30 3891 N 400.565 -0.0233959 1.57583 0
M  V30 3892 C 401.814 -0.712133 1.8871 0
M  V30 3893 C 402.127 -1.76217 0.848944 0
M  V30 3894 O 403.333 -2.50389 1.04964 0
M  V30 3895 C 401.789 -1.3177 3.3491 0
M  V30 3896 C 401.397 -0.303715 4.46969 0
M  V30 3897 C 403.141 -1.98598 3.75179 0
M  V30 3898 C 401.048 -0.917945 5.84233 0
M  V30 3899 H 399.978 -0.269735 0.704101 0
M  V30 3900 H 402.629 0.0333114 1.8347 0
M  V30 3901 H 401.011 -2.11304 3.34913 0
M  V30 3902 H 402.185 0.465325 4.58445 0
M  V30 3903 H 400.5 0.2628 4.1557 0
M  V30 3904 H 403.097 -2.45416 4.75053 0
M  V30 3905 H 403.44 -2.80659 3.07468 0
M  V30 3906 H 403.973 -1.25831 3.77374 0
M  V30 3907 H 400.712 -0.136633 6.55358 0
M  V30 3908 H 400.232 -1.65669 5.76467 0
M  V30 3909 H 401.911 -1.4236 6.31144 0
M  V30 3910 N 402.043 -1.548 -0.295768 0
M  V30 3911 C 402.991 -1.86874 -1.38495 0
M  V30 3912 C 403.985 -0.742938 -1.52239 0
M  V30 3913 O 405.191 -0.926999 -1.54294 0
M  V30 3914 H 401.566 -0.592786 -0.462719 0
M  V30 3915 H 403.537 -2.77904 -1.08682 0
M  V30 3916 C 402.286 -2.13732 -2.74252 0
M  V30 3917 H 401.609 -2.99835 -2.64459 0
M  V30 3918 H 403.049 -2.4011 -3.49461 0
M  V30 3919 C 401.508 -0.937539 -3.23592 0
M  V30 3920 O 402.038 -0.160665 -4.01379 0
M  V30 3921 N 400.244 -0.741478 -2.80981 0
M  V30 3922 H 399.791 -1.37489 -2.1784 0
M  V30 3923 H 399.749 0.0597103 -3.14343 0
M  V30 3924 N 403.521 0.559213 -1.47345 0
M  V30 3925 C 404.431 1.69388 -1.62311 0
M  V30 3926 C 405.447 1.6648 -0.505993 0
M  V30 3927 O 406.623 1.85964 -0.773262 0
M  V30 3928 C 403.688 3.05894 -1.63185 0
M  V30 3929 C 402.749 3.19885 -2.86307 0
M  V30 3930 C 401.982 4.49879 -2.87131 0
M  V30 3931 O 402.205 5.35217 -1.97229 0
M  V30 3932 O 401.139 4.67618 -3.78968 0
M  V30 3933 H 404.965 1.59706 -2.58317 0
M  V30 3934 H 402.55 0.728989 -1.30407 0
M  V30 3935 H 404.432 3.87133 -1.66451 0
M  V30 3936 H 403.107 3.15964 -0.70345 0
M  V30 3937 H 402.014 2.38052 -2.88587 0
M  V30 3938 H 403.347 3.14718 -3.78435 0
M  V30 3939 N 404.999 1.35443 0.805782 0
M  V30 3940 C 405.962 1.28301 1.89925 0
M  V30 3941 C 406.962 0.194285 1.59622 0
M  V30 3942 O 408.152 0.448036 1.6834 0
M  V30 3943 C 405.284 0.984997 3.2636 0
M  V30 3944 H 406.477 2.2553 1.97677 0
M  V30 3945 H 404.03 1.19979 1.00173 0
M  V30 3946 H 404.765 0.016603 3.24296 0
M  V30 3947 H 404.55 1.77269 3.4974 0
M  V30 3948 H 406.04 0.960651 4.064 0
M  V30 3949 N 406.477 -1.02803 1.19454 0
M  V30 3950 C 407.44 -2.09264 0.934955 0
M  V30 3951 C 408.44 -1.60576 -0.0849015 0
M  V30 3952 O 409.63 -1.73554 0.149933 0
M  V30 3953 C 406.762 -3.38482 0.40531 0
M  V30 3954 H 407.955 -2.33726 1.87916 0
M  V30 3955 H 405.508 -1.19426 1.00832 0
M  V30 3956 H 406.243 -3.19689 -0.544899 0
M  V30 3957 H 406.028 -3.75142 1.14065 0
M  V30 3958 H 407.518 -4.16894 0.242806 0
M  V30 3959 N 407.956 -0.998596 -1.21925 0
M  V30 3960 C 409.181 -0.696015 -1.95372 0
M  V30 3961 C 409.606 0.733826 -1.73195 0
M  V30 3962 O 408.964 1.50242 -1.01474 0
M  V30 3963 C 409.012 -1.01466 -3.4603 0
M  V30 3964 O 408.116 -0.116415 -4.12236 0
M  V30 3965 H 407.457 -0.259938 -0.611006 0
M  V30 3966 H 409.987 -1.33711 -1.54863 0
M  V30 3967 H 409.997 -0.958855 -3.96573 0
M  V30 3968 H 408.672 -2.05653 -3.61497 0
M  V30 3969 H 407.249 -0.228193 -3.72201 0
M  V30 3970 N 409.434 1.37368 -0.772513 0
M  V30 3971 C 410.364 2.32856 -0.173304 0
M  V30 3972 C 411.345 1.55818 0.682262 0
M  V30 3973 O 412.53 1.84052 0.619566 0
M  V30 3974 C 409.66 3.40048 0.706007 0
M  V30 3975 C 408.614 4.27973 -0.0483144 0
M  V30 3976 C 407.94 5.26184 0.950491 0
M  V30 3977 C 409.24 5.07665 -1.22776 0
M  V30 3978 H 410.934 2.83217 -0.971002 0
M  V30 3979 H 408.48 1.3617 -0.468377 0
M  V30 3980 H 410.433 4.05827 1.13501 0
M  V30 3981 H 409.157 2.88214 1.53623 0
M  V30 3982 H 407.816 3.63726 -0.458107 0
M  V30 3983 H 407.464 4.7063 1.77529 0
M  V30 3984 H 407.164 5.85872 0.450314 0
M  V30 3985 H 408.688 5.94838 1.37842 0
M  V30 3986 H 410.102 5.66578 -0.875366 0
M  V30 3987 H 408.499 5.76681 -1.66007 0
M  V30 3988 H 409.569 4.40294 -2.03149 0
M  V30 3989 N 410.912 0.523116 1.48665 0
M  V30 3990 C 412.158 -0.0134963 2.02796 0
M  V30 3991 C 412.491 -1.34582 1.40004 0
M  V30 3992 O 411.766 -1.86756 0.543381 0
M  V30 3993 C 412.049 -0.14276 3.59817 0
M  V30 3994 C 411.902 1.21425 4.331 0
M  V30 3995 C 413.221 -0.872856 4.31357 0
M  V30 3996 H 410.34 -0.00343074 0.736992 0
M  V30 3997 H 412.982 0.678816 1.7746 0
M  V30 3998 H 411.132 -0.732401 3.81534 0
M  V30 3999 H 412.804 1.84447 4.2282 0
M  V30 4000 H 411.047 1.79791 3.94788 0
M  V30 4001 H 411.718 1.07687 5.41394 0
M  V30 4002 H 414.194 -0.372555 4.14429 0
M  V30 4003 H 413.07 -0.932185 5.40927 0
M  V30 4004 H 413.331 -1.92161 3.98154 0
M  V30 4005 N 412.39 -1.55475 0.257931 0
M  V30 4006 C 413.322 -2.19192 -0.669881 0
M  V30 4007 C 414.335 -1.17148 -1.1305 0
M  V30 4008 O 415.524 -1.43959 -1.05537 0
M  V30 4009 C 412.624 -2.79016 -1.92363 0
M  V30 4010 C 411.797 -4.06586 -1.61265 0
M  V30 4011 C 410.856 -4.50622 -2.7171 0
M  V30 4012 O 409.882 -5.16765 -2.38627 0
M  V30 4013 N 411.084 -4.19325 -4.01431 0
M  V30 4014 H 413.849 -2.99441 -0.124635 0
M  V30 4015 H 411.41 -1.6171 0.0783311 0
M  V30 4016 H 413.402 -3.05427 -2.65511 0
M  V30 4017 H 411.972 -2.0286 -2.37837 0
M  V30 4018 H 411.192 -3.87646 -0.715811 0
M  V30 4019 H 412.48 -4.89737 -1.37967 0
M  V30 4020 H 411.878 -3.66247 -4.31138 0
M  V30 4021 H 410.435 -4.50547 -4.7101 0
M  V30 4022 N 413.868 0.0150385 -1.57593 0
M  V30 4023 C 415.145 0.7392 -1.81094 0
M  V30 4024 C 415.525 1.92817 -0.859344 0
M  V30 4025 O 414.873 2.28301 0.095362 0
M  V30 4026 C 415.083 1.15907 -3.29191 0
M  V30 4027 C 416.431 1.56918 -3.9454 0
M  V30 4028 O 417.455 1.25328 -3.33424 0
M  V30 4029 O 416.314 2.15604 -5.02173 0
M  V30 4030 H 413.408 0.358631 -0.745193 0
M  V30 4031 H 415.954 -0.00926156 -1.69697 0
M  V30 4032 H 414.726 0.310921 -3.90063 0
M  V30 4033 H 414.349 1.96711 -3.45529 0
M  V30 4034 N 415.346 1.54954 0.287554 0
M  V30 4035 C 416.309 1.86076 1.33823 0
M  V30 4036 C 417.309 0.734414 1.43049 0
M  V30 4037 O 418.499 1.00266 1.42452 0
M  V30 4038 C 415.631 2.05305 2.72144 0
M  V30 4039 H 416.824 2.79984 1.07465 0
M  V30 4040 H 414.377 1.47223 0.524902 0
M  V30 4041 H 415.112 1.1373 3.03704 0
M  V30 4042 H 414.897 2.873 2.66836 0
M  V30 4043 H 416.387 2.30706 3.48087 0
M  V30 4044 N 416.824 -0.551391 1.4764 0
M  V30 4045 C 417.787 -1.64007 1.60107 0
M  V30 4046 C 418.787 -1.53601 0.47576 0
M  V30 4047 O 419.977 -1.57655 0.740988 0
M  V30 4048 C 417.109 -3.03569 1.55108 0
M  V30 4049 H 418.302 -1.543 2.57161 0
M  V30 4050 H 415.855 -0.771776 1.35917 0
M  V30 4051 H 416.59 -3.18804 0.594519 0
M  V30 4052 H 416.375 -3.12532 2.36783 0
M  V30 4053 H 417.865 -3.82762 1.66982 0
M  V30 4054 N 418.302 -1.35869 -0.798587 0
M  V30 4055 C 419.252 -1.25982 -1.90033 0
M  V30 4056 C 420.236 -0.153303 -1.60168 0
M  V30 4057 O 421.428 -0.38527 -1.72756 0
M  V30 4058 C 418.557 -1.04211 -3.27101 0
M  V30 4059 C 417.643 -2.19289 -3.63006 0
M  V30 4060 N 418.034 -3.44559 -3.70287 0
M  V30 4061 C 416.332 -2.10852 -3.93011 0
M  V30 4062 C 417.033 -4.20283 -4.02166 0
M  V30 4063 N 416.009 -3.49124 -4.16669 0
M  V30 4064 H 419.811 -2.20883 -1.93876 0
M  V30 4065 H 417.325 -1.28457 -0.993614 0
M  V30 4066 H 419.322 -0.952155 -4.05881 0
M  V30 4067 H 417.982 -0.102013 -3.2454 0
M  V30 4068 H 418.993 -3.7881 -3.53162 0
M  V30 4069 H 415.67 -1.24744 -3.98428 0
M  V30 4070 H 417.06 -5.28575 -4.14799 0
M  V30 4071 N 419.78 1.02168 -1.19998 0
M  V30 4072 C 421.191 1.57135 -1.00825 0
M  V30 4073 C 421.542 1.91276 0.436818 0
M  V30 4074 O 420.667 1.71679 1.3174 0
M  V30 4075 C 421.262 2.85514 -1.82393 0
M  V30 4076 C 419.821 3.37027 -1.67601 0
M  V30 4077 C 418.968 2.10388 -1.80644 0
M  V30 4078 H 421.919 0.846106 -1.34264 0
M  V30 4079 H 421.94 3.56711 -1.32429 0
M  V30 4080 H 421.452 2.60634 -2.87561 0
M  V30 4081 H 419.553 3.66878 -0.650485 0
M  V30 4082 H 419.666 4.09572 -2.4857 0
M  V30 4083 H 418.03 2.22601 -1.23778 0
M  V30 4084 H 418.813 1.8794 -2.87286 0
M  V30 4085 N 421.258 1.00505 1.21394 0
M  V30 4086 C 422.535 0.603277 1.86064 0
M  V30 4087 C 422.915 -0.919095 1.90042 0
M  V30 4088 O 422.263 -1.80607 1.39977 0
M  V30 4089 C 422.473 1.23772 3.26315 0
M  V30 4090 C 423.821 1.34586 4.02705 0
M  V30 4091 O 424.845 1.19304 3.35626 0
M  V30 4092 O 423.704 1.59169 5.22807 0
M  V30 4093 H 420.798 0.206634 0.800769 0
M  V30 4094 H 423.344 1.1017 1.29076 0
M  V30 4095 H 422.116 2.27848 3.18121 0
M  V30 4096 H 421.739 0.725648 3.90922 0
M  V30 4097 N 422.737 -1.36956 0.779787 0
M  V30 4098 C 423.7 -2.2851 0.177662 0
M  V30 4099 C 424.7 -1.48393 -0.619377 0
M  V30 4100 O 425.89 -1.68505 -0.441785 0
M  V30 4101 C 423.022 -3.32428 -0.755279 0
M  V30 4102 H 424.215 -2.83269 0.984823 0
M  V30 4103 H 421.768 -1.46358 0.548544 0
M  V30 4104 H 422.503 -2.82808 -1.58714 0
M  V30 4105 H 422.288 -3.91659 -0.185817 0
M  V30 4106 H 423.778 -4.00824 -1.17174 0
M  V30 4107 N 424.215 -0.530993 -1.48385 0
M  V30 4108 C 425.163 0.244595 -2.3131 0
M  V30 4109 C 426.157 0.93451 -1.41291 0
M  V30 4110 O 427.363 0.85878 -1.58193 0
M  V30 4111 H 423.738 0.0977472 -0.74562 0
M  V30 4112 H 425.709 -0.474369 -2.94605 0
M  V30 4113 C 424.458 1.2779 -3.23365 0
M  V30 4114 H 423.781 0.756439 -3.92579 0
M  V30 4115 H 425.221 1.79198 -3.84271 0
M  V30 4116 C 423.68 2.31205 -2.45042 0
M  V30 4117 O 424.21 3.37661 -2.17596 0
M  V30 4118 N 422.416 2.04446 -2.0652 0
M  V30 4119 H 421.963 1.17891 -2.2904 0
M  V30 4120 H 421.921 2.73861 -1.54427 0
M  V30 4121 N 425.693 1.55336 -0.266172 0
M  V30 4122 C 426.942 1.98574 0.353749 0
M  V30 4123 C 427.255 1.15789 1.57646 0
M  V30 4124 O 428.461 1.49129 2.26876 0
M  V30 4125 C 426.917 3.53403 0.680747 0
M  V30 4126 C 426.525 4.44953 -0.52165 0
M  V30 4127 C 428.269 4.05251 1.26379 0
M  V30 4128 C 426.176 5.91156 -0.169736 0
M  V30 4129 H 425.106 0.741643 0.135949 0
M  V30 4130 H 427.757 1.79743 -0.369421 0
M  V30 4131 H 426.139 3.68001 1.46257 0
M  V30 4132 H 427.313 4.42121 -1.29869 0
M  V30 4133 H 425.628 4.03691 -1.02093 0
M  V30 4134 H 428.225 5.12021 1.54074 0
M  V30 4135 H 428.568 3.53749 2.19471 0
M  V30 4136 H 429.101 3.94057 0.544447 0
M  V30 4137 H 425.84 6.46736 -1.0683 0
M  V30 4138 H 425.36 5.97079 0.570717 0
M  V30 4139 H 427.039 6.4655 0.241245 0
M  V30 4140 N 427.171 -0.0066808 1.57599 0
M  V30 4141 C 428.42 -0.692078 1.89455 0
M  V30 4142 C 428.733 -1.75306 0.867586 0
M  V30 4143 O 429.939 -2.49262 1.07614 0
M  V30 4144 C 428.395 -1.2821 3.36289 0
M  V30 4145 C 428.003 -0.256291 4.47266 0
M  V30 4146 C 429.747 -1.94608 3.77264 0
M  V30 4147 C 427.654 -0.855927 5.85173 0
M  V30 4148 H 426.584 -0.262252 0.706923 0
M  V30 4149 H 429.235 0.052769 1.83424 0
M  V30 4150 H 427.617 -2.0774 3.37135 0
M  V30 4151 H 428.791 0.513923 4.57925 0
M  V30 4152 H 427.106 0.306862 4.15268 0
M  V30 4153 H 429.703 -2.40364 4.77629 0
M  V30 4154 H 430.046 -2.77382 3.10427 0
M  V30 4155 H 430.579 -1.21822 3.78688 0
M  V30 4156 H 427.318 -0.0671161 6.55466 0
M  V30 4157 H 426.838 -1.59546 5.78191 0
M  V30 4158 H 428.517 -1.35658 6.32618 0
M  V30 4159 N 428.649 -1.55105 -0.279332 0
M  V30 4160 C 429.896 -1.75412 -1.01177 0
M  V30 4161 C 430.224 -0.551728 -1.86511 0
M  V30 4162 O 429.479 0.465919 -1.90073 0
M  V30 4163 C 429.778 -3.0086 -1.92919 0
M  V30 4164 C 429.444 -4.33689 -1.23387 0
M  V30 4165 C 428.106 -4.69792 -1.04159 0
M  V30 4166 C 430.458 -5.15941 -0.738562 0
M  V30 4167 C 427.786 -5.85707 -0.341166 0
M  V30 4168 C 430.138 -6.32579 -0.0517636 0
M  V30 4169 C 428.802 -6.67326 0.152292 0
M  V30 4170 H 428.072 -0.641879 -0.370233 0
M  V30 4171 H 430.719 -1.89373 -0.284627 0
M  V30 4172 H 429.024 -2.81773 -2.72234 0
M  V30 4173 H 430.721 -3.13768 -2.49701 0
M  V30 4174 H 427.311 -4.05309 -1.39364 0
M  V30 4175 H 431.495 -4.8853 -0.874764 0
M  V30 4176 H 426.751 -6.11157 -0.172287 0
M  V30 4177 H 430.925 -6.9557 0.339828 0
M  V30 4178 H 428.552 -7.56998 0.697014 0
M  V30 4179 N 430.127 0.543554 -1.4793 0
M  V30 4180 C 431.375 1.29752 -1.54948 0
M  V30 4181 C 431.696 1.93764 -0.219242 0
M  V30 4182 O 430.966 1.80639 0.75805 0
M  V30 4183 H 429.546 0.481874 -0.570795 0
M  V30 4184 H 432.208 0.633636 -1.84312 0
M  V30 4185 H 431.304 2.08392 -2.32334 0
M  V30 4186 N 431.605 1.3629 0.791371 0
M  V30 4187 C 432.833 1.33562 1.58016 0
M  V30 4188 C 433.248 -0.0835616 1.88615 0
M  V30 4189 O 432.605 -1.0399 1.49974 0
M  V30 4190 C 432.656 2.15517 2.90232 0
M  V30 4191 O 432.377 3.51902 2.60953 0
M  V30 4192 C 433.878 2.20546 3.84544 0
M  V30 4193 H 431.098 0.458226 0.490173 0
M  V30 4194 H 433.642 1.79361 0.982345 0
M  V30 4195 H 431.797 1.73278 3.46487 0
M  V30 4196 H 432.211 3.94644 3.4548 0
M  V30 4197 H 433.685 2.82252 4.74382 0
M  V30 4198 H 434.162 1.20838 4.2225 0
M  V30 4199 H 434.768 2.63013 3.34222 0
M  V30 4200 N 433.083 -1.0153 1.20538 0
M  V30 4201 C 434.329 -1.75408 1.01783 0
M  V30 4202 C 434.662 -1.88943 -0.448814 0
M  V30 4203 O 433.937 -1.4162 -1.33319 0
M  V30 4204 C 434.22 -3.17255 1.70356 0
M  V30 4205 C 434.073 -3.11508 3.24473 0
M  V30 4206 C 435.392 -4.15955 1.43769 0
M  V30 4207 H 432.511 -0.636713 0.371167 0
M  V30 4208 H 435.153 -1.18436 1.4857 0
M  V30 4209 H 433.303 -3.65898 1.30578 0
M  V30 4210 H 434.975 -2.70658 3.73553 0
M  V30 4211 H 433.218 -2.4887 3.55311 0
M  V30 4212 H 433.889 -4.11784 3.67611 0
M  V30 4213 H 436.365 -3.75973 1.7828 0
M  V30 4214 H 435.241 -5.13368 1.94279 0
M  V30 4215 H 435.502 -4.40586 0.365564 0
M  V30 4216 N 434.561 -1.01147 -1.20859 0
M  V30 4217 C 435.81 -0.693214 -1.89413 0
M  V30 4218 C 436.123 0.779969 -1.79376 0
M  V30 4219 O 437.329 1.21057 -2.43017 0
M  V30 4220 C 435.785 -1.18949 -3.39675 0
M  V30 4221 C 435.393 -2.68921 -3.58309 0
M  V30 4222 C 437.137 -0.94642 -4.13815 0
M  V30 4223 C 435.044 -3.12056 -5.0237 0
M  V30 4224 H 433.974 -0.255595 -0.709357 0
M  V30 4225 H 436.625 -1.22349 -1.36759 0
M  V30 4226 H 435.007 -0.587228 -3.91622 0
M  V30 4227 H 436.181 -3.34652 -3.16772 0
M  V30 4228 H 434.496 -2.91314 -2.97532 0
M  V30 4229 H 437.093 -1.24417 -5.20023 0
M  V30 4230 H 437.436 0.117219 -4.16135 0
M  V30 4231 H 437.969 -1.5118 -3.67953 0
M  V30 4232 H 434.708 -4.17674 -5.05202 0
M  V30 4233 H 434.228 -2.51041 -5.44737 0
M  V30 4234 H 435.907 -3.04403 -5.70918 0
M  V30 4235 N 436.039 1.36541 -0.78704 0
M  V30 4236 C 437.316 1.9355 -0.282424 0
M  V30 4237 C 437.696 1.71919 1.22503 0
M  V30 4238 O 437.044 1.07677 2.01539 0
M  V30 4239 C 437.254 3.4246 -0.672462 0
M  V30 4240 C 438.602 4.19582 -0.650863 0
M  V30 4241 O 439.626 3.50889 -0.612789 0
M  V30 4242 O 438.485 5.42106 -0.691623 0
M  V30 4243 H 435.579 0.824091 -0.0693 0
M  V30 4244 H 438.125 1.45736 -0.869423 0
M  V30 4245 H 436.897 3.51851 -1.71221 0
M  V30 4246 H 436.52 3.97556 -0.0592211 0
M  V30 4247 N 437.518 0.538854 1.48102 0
M  V30 4248 C 438.795 -0.0568108 1.95517 0
M  V30 4249 C 439.175 -1.50408 1.48124 0
M  V30 4250 O 438.523 -2.17133 0.711727 0
M  V30 4251 C 438.733 0.0696262 3.48931 0
M  V30 4252 C 440.081 -0.0851202 4.24515 0
M  V30 4253 O 441.105 -0.0037347 3.562 0
M  V30 4254 O 439.964 -0.257025 5.45895 0
M  V30 4255 H 437.058 -0.0743695 0.823649 0
M  V30 4256 H 439.604 0.604081 1.58584 0
M  V30 4257 H 438.376 1.07744 3.76174 0
M  V30 4258 H 437.999 -0.629714 3.92582 0
M  V30 4259 N 438.996 -1.55193 0.274407 0
M  V30 4260 C 440.221 -2.04446 -0.348824 0
M  V30 4261 C 440.646 -1.15149 -1.48735 0
M  V30 4262 O 440.004 -0.149952 -1.80679 0
M  V30 4263 C 440.052 -3.51431 -0.808009 0
M  V30 4264 O 439.156 -3.65225 -1.91531 0
M  V30 4265 H 438.497 -0.66006 -0.0722276 0
M  V30 4266 H 441.027 -2.00481 0.408498 0
M  V30 4267 H 441.037 -3.92781 -1.10395 0
M  V30 4268 H 439.712 -4.15892 0.0249865 0
M  V30 4269 H 438.289 -3.35778 -1.62196 0
M  V30 4270 N 440.474 -0.00167713 -1.576 0
M  V30 4271 C 441.404 0.988091 -2.11563 0
M  V30 4272 C 442.385 1.35736 -1.02517 0
M  V30 4273 O 443.57 1.44082 -1.30208 0
M  V30 4274 C 440.7 2.27941 -2.62031 0
M  V30 4275 C 439.654 2.0517 -3.75619 0
M  V30 4276 C 438.98 3.4033 -4.12407 0
M  V30 4277 C 440.28 1.41294 -5.02825 0
M  V30 4278 H 441.974 0.538771 -2.94513 0
M  V30 4279 H 439.52 0.257712 -1.41675 0
M  V30 4280 H 441.473 2.97539 -2.9841 0
M  V30 4281 H 440.197 2.74989 -1.76205 0
M  V30 4282 H 438.856 1.37998 -3.39635 0
M  V30 4283 H 438.504 3.85085 -3.23603 0
M  V30 4284 H 438.204 3.25909 -4.88935 0
M  V30 4285 H 439.728 4.1124 -4.51347 0
M  V30 4286 H 441.142 2.00851 -5.36965 0
M  V30 4287 H 439.539 1.37356 -5.84169 0
M  V30 4288 H 440.609 0.382362 -4.8339 0
M  V30 4289 N 441.952 1.55251 0.271103 0
M  V30 4290 C 443.2 1.75599 1.00047 0
M  V30 4291 C 443.521 0.561188 1.8675 0
M  V30 4292 O 442.791 -0.423846 1.9126 0
M  V30 4293 H 441.371 0.647562 0.372387 0
M  V30 4294 H 444.033 1.92656 0.294876 0
M  V30 4295 H 443.129 2.65766 1.6363 0
M  V30 4296 N 443.43 -0.535701 1.48216 0
M  V30 4297 C 444.707 -1.29683 1.46429 0
M  V30 4298 C 445.087 -2.10391 0.172852 0
M  V30 4299 O 444.435 -2.12282 -0.845488 0
M  V30 4300 C 444.645 -2.18313 2.72287 0
M  V30 4301 C 445.993 -2.78639 3.20383 0
M  V30 4302 O 447.017 -2.28604 2.73164 0
M  V30 4303 O 445.876 -3.69636 4.02531 0
M  V30 4304 H 442.97 -0.585026 0.584529 0
M  V30 4305 H 445.516 -0.552827 1.60443 0
M  V30 4306 H 444.288 -1.58421 3.57797 0
M  V30 4307 H 443.911 -2.99971 2.60966 0
M  V30 4308 N 444.908 -1.36708 -0.784132 0
M  V30 4309 C 445.818 -1.3363 -1.92822 0
M  V30 4310 C 446.834 -0.237686 -1.72369 0
M  V30 4311 O 448.01 -0.470962 -1.95816 0
M  V30 4312 C 445.075 -1.13011 -3.27764 0
M  V30 4313 C 444.136 -2.32397 -3.60957 0
M  V30 4314 C 443.369 -2.12752 -4.89461 0
M  V30 4315 O 443.592 -1.10541 -5.59586 0
M  V30 4316 O 442.526 -3.00653 -5.21432 0
M  V30 4317 H 446.352 -2.29964 -1.98369 0
M  V30 4318 H 443.937 -1.1731 -0.925136 0
M  V30 4319 H 445.819 -1.03451 -4.08504 0
M  V30 4320 H 444.494 -0.19743 -3.23097 0
M  V30 4321 H 443.401 -2.47527 -2.80502 0
M  V30 4322 H 444.734 -3.2419 -3.70354 0
M  V30 4323 N 446.386 1.0089 -1.21074 0
M  V30 4324 C 447.632 1.74866 -1.02712 0
M  V30 4325 C 447.965 1.89178 0.438787 0
M  V30 4326 O 447.24 1.42325 1.32567 0
M  V30 4327 C 447.523 3.16347 -1.72036 0
M  V30 4328 C 447.376 3.09782 -3.26121 0
M  V30 4329 C 448.695 4.15187 -1.45973 0
M  V30 4330 H 445.814 0.634736 -0.374539 0
M  V30 4331 H 448.456 1.17646 -1.49196 0
M  V30 4332 H 446.606 3.65201 -1.32517 0
M  V30 4333 H 448.278 2.68673 -3.74983 0
M  V30 4334 H 446.521 2.46982 -3.56626 0
M  V30 4335 H 447.192 4.09829 -3.6979 0
M  V30 4336 H 449.668 3.75022 -1.80272 0
M  V30 4337 H 448.544 5.12331 -1.96999 0
M  V30 4338 H 448.805 4.40386 -0.388924 0
M  V30 4339 N 447.864 1.01787 1.20321 0
M  V30 4340 C 449.28 0.732951 1.41774 0
M  V30 4341 C 449.48 -0.686883 1.89431 0
M  V30 4342 O 448.536 -1.45446 2.06402 0
M  V30 4343 C 449.849 1.75973 2.43832 0
M  V30 4344 C 451.397 1.77802 2.57596 0
M  V30 4345 C 451.872 2.7941 3.62897 0
M  V30 4346 N 453.363 2.78157 3.70382 0
M  V30 4347 C 454.098 3.53434 4.51521 0
M  V30 4348 N 453.594 4.38392 5.36455 0
M  V30 4349 N 455.387 3.42026 4.46066 0
M  V30 4350 H 447.538 1.93447 0.877035 0
M  V30 4351 H 449.801 0.835712 0.447536 0
M  V30 4352 H 449.507 2.77699 2.15815 0
M  V30 4353 H 449.381 1.57292 3.4284 0
M  V30 4354 H 451.768 0.767602 2.84942 0
M  V30 4355 H 451.849 2.00557 1.58779 0
M  V30 4356 H 451.493 3.80616 3.36295 0
M  V30 4357 H 451.423 2.53916 4.61339 0
M  V30 4358 H 453.914 2.16531 3.09714 0
M  V30 4359 H 454.227 4.92596 5.95457 0
M  V30 4360 H 452.572 4.4247 5.35953 0
M  V30 4361 H 455.763 2.75075 3.78749 0
M  V30 4362 H 455.936 4.00946 5.09064 0
M  V30 4363 N 449.342 -1.36122 0.79427 0
M  V30 4364 C 450.588 -1.99406 0.369452 0
M  V30 4365 C 450.921 -1.62886 -1.05743 0
M  V30 4366 O 450.196 -0.886053 -1.73145 0
M  V30 4367 C 450.479 -3.56046 0.538833 0
M  V30 4368 C 450.332 -4.02404 2.00976 0
M  V30 4369 C 451.651 -4.40079 -0.0431359 0
M  V30 4370 H 448.77 -0.724397 0.135712 0
M  V30 4371 H 451.412 -1.61461 1.00151 0
M  V30 4372 H 449.562 -3.885 0.000771004 0
M  V30 4373 H 451.234 -3.80415 2.60926 0
M  V30 4374 H 449.477 -3.53765 2.51063 0
M  V30 4375 H 450.148 -5.11344 2.07922 0
M  V30 4376 H 452.624 -4.14013 0.416228 0
M  V30 4377 H 451.5 -5.48799 0.105374 0
M  V30 4378 H 451.761 -4.27264 -1.13571 0
M  V30 4379 N 450.82 -0.546701 -1.47814 0
M  V30 4380 C 452.048 -0.0232857 -2.06887 0
M  V30 4381 C 452.463 1.26571 -1.4009 0
M  V30 4382 O 451.82 1.7569 -0.493906 0
M  V30 4383 C 451.871 0.186975 -3.61016 0
M  V30 4384 O 451.592 -1.05097 -4.25307 0
M  V30 4385 C 453.093 0.748872 -4.36929 0
M  V30 4386 H 450.313 -0.0410763 -0.669742 0
M  V30 4387 H 452.857 -0.757117 -1.89968 0
M  V30 4388 H 451.012 0.870903 -3.77484 0
M  V30 4389 H 451.426 -0.842121 -5.17695 0
M  V30 4390 H 452.9 0.845334 -5.45489 0
M  V30 4391 H 453.377 1.75772 -4.02493 0
M  V30 4392 H 453.983 0.100979 -4.2518 0
M  V30 4393 N 452.299 1.55045 -0.282633 0
M  V30 4394 C 453.545 2.00056 0.332481 0
M  V30 4395 C 453.878 1.1708 1.54939 0
M  V30 4396 O 453.153 0.2427 1.9298 0
M  V30 4397 C 453.436 3.53086 0.70725 0
M  V30 4398 C 453.289 4.46813 -0.517521 0
M  V30 4399 C 454.608 4.12245 1.54084 0
M  V30 4400 H 451.727 0.727268 0.119373 0
M  V30 4401 H 454.369 1.85932 -0.391076 0
M  V30 4402 H 452.519 3.65253 1.32372 0
M  V30 4403 H 454.191 4.46579 -1.15607 0
M  V30 4404 H 452.434 4.18163 -1.1542 0
M  V30 4405 H 453.105 5.51595 -0.211426 0
M  V30 4406 H 455.581 4.03401 1.02013 0
M  V30 4407 H 454.457 5.19515 1.77186 0
M  V30 4408 H 454.718 3.62951 2.52427 0
M  V30 4409 N 453.777 0.010035 1.57597 0
M  V30 4410 C 455.026 -0.671945 1.90178 0
M  V30 4411 C 455.339 -1.74376 0.886131 0
M  V30 4412 O 456.545 -2.48107 1.10252 0
M  V30 4413 C 455.001 -1.24636 3.3763 0
M  V30 4414 C 454.609 -0.208838 4.47513 0
M  V30 4415 C 456.353 -1.90595 3.79307 0
M  V30 4416 C 454.26 -0.793814 5.86048 0
M  V30 4417 H 453.19 -0.25474 0.709665 0
M  V30 4418 H 455.841 0.0722206 1.83358 0
M  V30 4419 H 454.223 -2.04152 3.3932 0
M  V30 4420 H 455.397 0.562463 4.57354 0
M  V30 4421 H 453.712 0.350889 4.14919 0
M  V30 4422 H 456.309 -2.35284 4.80151 0
M  V30 4423 H 456.652 -2.74074 3.13352 0
M  V30 4424 H 457.185 -1.17798 3.79958 0
M  V30 4425 H 453.924 0.00240855 6.555 0
M  V30 4426 H 453.444 -1.53404 5.79851 0
M  V30 4427 H 455.123 -1.2894 6.34022 0
M  V30 4428 N 455.255 -1.55392 -0.262866 0
M  V30 4429 C 456.218 -1.88181 -1.30846 0
M  V30 4430 C 457.218 -0.757079 -1.41862 0
M  V30 4431 O 458.408 -1.02519 -1.40838 0
M  V30 4432 C 455.54 -2.09609 -2.68844 0
M  V30 4433 H 456.733 -2.81659 -1.02997 0
M  V30 4434 H 454.286 -1.48039 -0.501414 0
M  V30 4435 H 455.021 -1.18547 -3.01856 0
M  V30 4436 H 454.806 -2.91508 -2.62231 0
M  V30 4437 H 456.296 -2.36215 -3.44372 0
M  V30 4438 N 456.733 0.527833 -1.48498 0
M  V30 4439 C 457.696 1.61439 -1.62696 0
M  V30 4440 C 458.696 1.52824 -0.500136 0
M  V30 4441 O 459.886 1.56456 -0.765976 0
M  V30 4442 C 457.018 3.01063 -1.59918 0
M  V30 4443 H 458.211 1.50189 -2.59583 0
M  V30 4444 H 455.764 0.750055 -1.37127 0
M  V30 4445 H 456.499 3.17818 -0.645163 0
M  V30 4446 H 456.284 3.08725 -2.41726 0
M  V30 4447 H 457.774 3.80057 -1.73051 0
M  V30 4448 N 458.211 1.37122 0.776871 0
M  V30 4449 C 459.459 1.31787 1.53221 0
M  V30 4450 C 459.78 -0.0987589 1.9475 0
M  V30 4451 O 459.05 -1.0417 1.65908 0
M  V30 4452 H 457.63 0.484839 0.568278 0
M  V30 4453 H 460.292 1.71556 0.924917 0
M  V30 4454 H 459.388 1.95355 2.43398 0
M  V30 4455 N 459.689 -1.00246 1.21608 0
M  V30 4456 C 460.936 -1.74061 1.03485 0
M  V30 4457 C 461.264 -1.89658 -0.431308 0
M  V30 4458 O 460.519 -1.42976 -1.33627 0
M  V30 4459 C 460.818 -3.15448 1.68009 0
M  V30 4460 C 460.484 -3.19792 3.17874 0
M  V30 4461 C 459.146 -3.20685 3.58768 0
M  V30 4462 C 461.498 -3.16835 4.13842 0
M  V30 4463 C 458.826 -3.16309 4.94131 0
M  V30 4464 C 461.178 -3.14001 5.49169 0
M  V30 4465 C 459.842 -3.13204 5.89457 0
M  V30 4466 H 459.112 -0.636934 0.378677 0
M  V30 4467 H 461.759 -1.17473 1.51236 0
M  V30 4468 H 460.064 -3.75284 1.12557 0
M  V30 4469 H 461.761 -3.71285 1.51487 0
M  V30 4470 H 458.351 -3.19842 2.85305 0
M  V30 4471 H 462.535 -3.15303 3.83272 0
M  V30 4472 H 457.791 -3.14032 5.24589 0
M  V30 4473 H 461.965 -3.10667 6.23265 0
M  V30 4474 H 459.592 -3.09568 6.94314 0
M  V30 4475 N 461.167 -1.02423 -1.1978 0
M  V30 4476 C 462.444 -0.632802 -1.85081 0
M  V30 4477 C 462.824 0.888745 -1.9148 0
M  V30 4478 O 462.172 1.78357 -1.42832 0
M  V30 4479 C 462.382 -1.28947 -3.24305 0
M  V30 4480 C 463.73 -1.40976 -4.00513 0
M  V30 4481 O 464.754 -1.24628 -3.33686 0
M  V30 4482 O 463.613 -1.67467 -5.20209 0
M  V30 4483 H 460.707 -0.219348 -0.79738 0
M  V30 4484 H 463.253 -1.12209 -1.27307 0
M  V30 4485 H 462.025 -2.3288 -3.14456 0
M  V30 4486 H 461.648 -0.787748 -3.89718 0
M  V30 4487 N 462.645 1.35699 -0.801477 0
M  V30 4488 C 463.891 1.99208 -0.380022 0
M  V30 4489 C 464.224 1.63445 1.04878 0
M  V30 4490 O 463.499 0.895223 1.72673 0
M  V30 4491 C 463.782 3.55755 -0.557708 0
M  V30 4492 C 463.635 4.01332 -2.03107 0
M  V30 4493 C 464.954 4.40096 0.0197968 0
M  V30 4494 H 462.073 0.723667 -0.139552 0
M  V30 4495 H 464.715 1.60928 -1.01006 0
M  V30 4496 H 462.865 3.88494 -0.0213741 0
M  V30 4497 H 464.537 3.79026 -2.62939 0
M  V30 4498 H 462.78 3.52429 -2.52936 0
M  V30 4499 H 463.451 5.10234 -2.1063 0
M  V30 4500 H 465.927 4.13786 -0.438179 0
M  V30 4501 H 464.803 5.48735 -0.134477 0
M  V30 4502 H 465.064 4.2786 1.11303 0
M  V30 4503 N 464.123 0.554532 1.47522 0
M  V30 4504 C 465.348 0.0322661 2.07375 0
M  V30 4505 C 465.773 -1.25079 1.40488 0
M  V30 4506 O 465.131 -1.74859 0.47896 0
M  V30 4507 C 465.179 -0.149397 3.6029 0
M  V30 4508 O 464.283 -1.21259 3.9417 0
M  V30 4509 H 463.624 0.0501228 0.662106 0
M  V30 4510 H 466.154 0.769452 1.8958 0
M  V30 4511 H 466.164 -0.364437 4.06369 0
M  V30 4512 H 464.839 0.787743 4.08372 0
M  V30 4513 H 463.416 -0.97825 3.5984 0
M  V30 4514 N 465.601 -1.54893 0.290851 0
M  V30 4515 C 466.849 -1.99538 -0.320756 0
M  V30 4516 C 467.17 -1.18075 -1.55188 0
M  V30 4517 O 466.44 -0.274162 -1.93972 0
M  V30 4518 H 465.02 -0.737052 -0.121507 0
M  V30 4519 H 467.682 -1.90755 0.399832 0
M  V30 4520 H 466.778 -3.06282 -0.599802 0
M  V30 4521 N 467.08 -0.0183926 -1.57589 0
M  V30 4522 C 468.491 0.521927 -1.79256 0
M  V30 4523 C 468.842 1.72885 -0.927636 0
M  V30 4524 O 467.967 2.15978 -0.135091 0
M  V30 4525 C 468.562 0.953632 -3.25102 0
M  V30 4526 C 467.121 1.43913 -3.47801 0
M  V30 4527 C 466.268 0.398837 -2.74417 0
M  V30 4528 H 469.219 -0.244485 -1.56805 0
M  V30 4529 H 469.24 1.81863 -3.34224 0
M  V30 4530 H 468.752 0.0750123 -3.88028 0
M  V30 4531 H 466.853 2.33804 -2.90115 0
M  V30 4532 H 466.966 1.45391 -4.56507 0
M  V30 4533 H 465.33 0.864572 -2.39577 0
M  V30 4534 H 466.113 -0.471132 -3.40052 0
M  V30 4535 N 468.558 1.5553 0.254621 0
M  V30 4536 C 469.806 1.7665 0.981793 0
M  V30 4537 C 470.127 0.580963 1.86145 0
M  V30 4538 O 469.397 -0.403537 1.91699 0
M  V30 4539 H 467.977 0.651475 0.365498 0
M  V30 4540 H 470.639 1.92958 0.274426 0
M  V30 4541 H 469.735 2.67486 1.60802 0
M  V30 4542 N 470.036 -0.519951 1.48776 0
M  V30 4543 C 471.452 -0.849418 1.35119 0
M  V30 4544 C 471.652 -1.98077 0.36982 0
M  V30 4545 O 470.708 -2.51664 -0.205359 0
M  V30 4546 C 472.021 -1.20748 2.75391 0
M  V30 4547 C 473.569 -1.31679 2.83954 0
M  V30 4548 C 474.044 -1.70824 4.24951 0
M  V30 4549 N 475.535 -1.77908 4.27672 0
M  V30 4550 C 476.27 -2.09603 5.33717 0
M  V30 4551 N 475.766 -2.39652 6.5003 0
M  V30 4552 N 477.559 -2.10694 5.21119 0
M  V30 4553 H 469.71 0.226377 2.1119 0
M  V30 4554 H 471.973 0.0386519 0.947212 0
M  V30 4555 H 471.679 -0.449703 3.48813 0
M  V30 4556 H 471.553 -2.15534 3.09556 0
M  V30 4557 H 473.94 -2.06532 2.10781 0
M  V30 4558 H 474.021 -0.3499 2.53396 0
M  V30 4559 H 473.665 -0.965282 4.98643 0
M  V30 4560 H 473.595 -2.6858 4.52959 0
M  V30 4561 H 476.086 -1.56923 3.43779 0
M  V30 4562 H 476.399 -2.6297 7.26682 0
M  V30 4563 H 474.744 -2.37149 6.53288 0
M  V30 4564 H 477.935 -1.86682 4.29264 0
M  V30 4565 H 478.108 -2.35062 6.03863 0
M  V30 4566 N 471.514 -1.37532 -0.769588 0
M  V30 4567 C 472.461 -1.3347 -1.88293 0
M  V30 4568 C 473.431 -0.199891 -1.64893 0
M  V30 4569 O 474.616 -0.389594 -1.8678 0
M  V30 4570 C 471.756 -1.14968 -3.25387 0
M  V30 4571 C 470.869 -2.37698 -3.60727 0
M  V30 4572 C 470.004 -2.12051 -4.8704 0
M  V30 4573 C 469.043 -3.30636 -5.15117 0
M  V30 4574 N 468.18 -3.04527 -6.3262 0
M  V30 4575 H 473.02 -2.28658 -1.911 0
M  V30 4576 H 470.557 -1.13622 -0.934257 0
M  V30 4577 H 472.515 -1.02261 -4.04473 0
M  V30 4578 H 471.145 -0.234263 -3.21949 0
M  V30 4579 H 470.197 -2.61137 -2.76608 0
M  V30 4580 H 471.509 -3.26131 -3.77413 0
M  V30 4581 H 470.663 -1.96388 -5.74035 0
M  V30 4582 H 469.402 -1.20959 -4.72462 0
M  V30 4583 H 468.407 -3.46836 -4.26597 0
M  V30 4584 H 469.632 -4.22582 -5.31603 0
M  V30 4585 H 467.578 -2.16067 -6.19396 0
M  V30 4586 H 467.495 -3.86503 -6.49732 0
M  V30 4587 H 468.763 -2.92485 -7.22546 0
M  V30 4588 N 472.992 0.995999 -1.22138 0
M  V30 4589 C 474.403 1.54961 -1.04135 0
M  V30 4590 C 474.754 1.92159 0.396147 0
M  V30 4591 O 473.879 1.74435 1.28069 0
M  V30 4592 C 474.474 2.81581 -1.88408 0
M  V30 4593 C 473.033 3.33396 -1.74712 0
M  V30 4594 C 472.18 2.06509 -1.85066 0
M  V30 4595 H 475.131 0.817436 -1.36028 0
M  V30 4596 H 475.152 3.53822 -1.39966 0
M  V30 4597 H 474.664 2.54476 -2.93025 0
M  V30 4598 H 472.765 3.65416 -0.728159 0
M  V30 4599 H 472.878 4.04208 -2.57202 0
M  V30 4600 H 471.242 2.19925 -1.28472 0
M  V30 4601 H 472.025 1.81804 -2.91208 0
M  V30 4602 N 474.47 1.03057 1.19235 0
M  V30 4603 C 475.716 0.729098 1.89241 0
M  V30 4604 C 476.049 -0.740573 1.79525 0
M  V30 4605 O 475.324 -1.53946 1.18874 0
M  V30 4606 C 475.607 1.18304 3.40112 0
M  V30 4607 C 475.46 2.71406 3.5869 0
M  V30 4608 C 476.779 0.765161 4.33397 0
M  V30 4609 H 473.898 0.266338 0.687192 0
M  V30 4610 H 476.54 1.28079 1.40341 0
M  V30 4611 H 474.69 0.713672 3.81889 0
M  V30 4612 H 476.362 3.26303 3.26074 0
M  V30 4613 H 474.605 3.11717 3.01687 0
M  V30 4614 H 475.276 2.98225 4.64506 0
M  V30 4615 H 477.752 1.16889 3.99345 0
M  V30 4616 H 476.628 1.11065 5.37546 0
M  V30 4617 H 476.889 -0.332372 4.40849 0
M  V30 4618 N 475.948 -1.35272 0.808662 0
M  V30 4619 C 476.881 -2.27595 0.165994 0
M  V30 4620 C 477.859 -1.48189 -0.669241 0
M  V30 4621 O 479.043 -1.77444 -0.636073 0
M  V30 4622 C 476.17 -3.29843 -0.769505 0
M  V30 4623 C 475.216 -4.26498 -0.0136267 0
M  V30 4624 S 476.049 -5.18878 1.32384 0
M  V30 4625 C 477.205 -6.24666 0.392838 0
M  V30 4626 H 477.438 -2.81755 0.948756 0
M  V30 4627 H 474.971 -1.42103 0.603828 0
M  V30 4628 H 476.929 -3.89247 -1.30374 0
M  V30 4629 H 475.59 -2.74558 -1.52567 0
M  V30 4630 H 474.783 -4.98769 -0.724227 0
M  V30 4631 H 474.385 -3.71274 0.450713 0
M  V30 4632 H 476.677 -6.7619 -0.4211 0
M  V30 4633 H 477.62 -6.99741 1.0848 0
M  V30 4634 H 478.028 -5.64499 -0.0123908 0
M  V30 4635 N 477.426 -0.562348 -1.47226 0
M  V30 4636 C 478.674 -0.0401371 -2.0206 0
M  V30 4637 C 478.995 1.3165 -1.43852 0
M  V30 4638 O 478.265 1.85976 -0.615599 0
M  V30 4639 H 476.845 -0.0118479 -0.746906 0
M  V30 4640 H 479.507 -0.73352 -1.8057 0
M  V30 4641 H 478.603 0.0441254 -3.12069 0
M  V30 4642 N 478.904 1.54736 -0.299062 0
M  V30 4643 C 479.814 2.27127 0.587413 0
M  V30 4644 C 480.83 1.30575 1.15005 0
M  V30 4645 O 482.006 1.63554 1.17525 0
M  V30 4646 C 479.071 2.99645 1.74395 0
M  V30 4647 C 478.132 4.11731 1.21559 0
M  V30 4648 C 477.365 4.80781 2.317 0
M  V30 4649 O 477.588 4.4918 3.51558 0
M  V30 4650 O 476.522 5.68226 1.98501 0
M  V30 4651 H 480.348 3.037 0.000250109 0
M  V30 4652 H 477.933 1.49256 -0.0655919 0
M  V30 4653 H 479.815 3.45138 2.4178 0
M  V30 4654 H 478.49 2.25969 2.31775 0
M  V30 4655 H 477.397 3.70641 0.507514 0
M  V30 4656 H 478.73 4.87379 0.687233 0
M  V30 4657 N 480.382 0.0267497 1.57577 0
M  V30 4658 C 481.61 -0.662661 1.96001 0
M  V30 4659 C 482.025 -1.65799 0.903117 0
M  V30 4660 O 481.382 -1.82135 -0.115317 0
M  V30 4661 C 481.433 -1.37112 3.34488 0
M  V30 4662 O 481.154 -0.415683 4.36123 0
M  V30 4663 C 482.655 -2.15257 3.8753 0
M  V30 4664 H 479.875 -0.18287 0.6456 0
M  V30 4665 H 482.419 0.0858116 2.0432 0
M  V30 4666 H 480.574 -2.07101 3.27395 0
M  V30 4667 H 480.988 -0.918496 5.16395 0
M  V30 4668 H 482.462 -2.60285 4.86781 0
M  V30 4669 H 482.939 -2.99063 3.21649 0
M  V30 4670 H 483.545 -1.50231 3.97883 0
M  V30 4671 N 481.861 -1.55662 -0.24637 0
M  V30 4672 C 483.109 -1.77168 -0.972411 0
M  V30 4673 C 483.43 -0.590827 -1.85834 0
M  V30 4674 O 482.7 0.393365 -1.9191 0
M  V30 4675 H 481.28 -0.653405 -0.362038 0
M  V30 4676 H 483.942 -1.93101 -0.264189 0
M  V30 4677 H 483.038 -2.68335 -1.59382 0
M  V30 4678 N 483.339 0.512053 -1.4905 0
M  V30 4679 C 484.587 1.26436 -1.57665 0
M  V30 4680 C 484.908 1.93255 -0.260293 0
M  V30 4681 O 484.178 1.82206 0.719564 0
M  V30 4682 H 482.758 0.469658 -0.580888 0
M  V30 4683 H 485.42 0.594398 -1.85615 0
M  V30 4684 H 484.516 2.03417 -2.36702 0
M  V30 4685 N 484.817 1.37938 0.762283 0
M  V30 4686 C 485.78 1.34279 1.85747 0
M  V30 4687 C 486.78 0.244969 1.58923 0
M  V30 4688 O 487.97 0.501365 1.66829 0
M  V30 4689 C 485.102 1.08833 3.23061 0
M  V30 4690 H 486.295 2.31705 1.90401 0
M  V30 4691 H 483.848 1.23105 0.963057 0
M  V30 4692 H 484.583 0.119767 3.24079 0
M  V30 4693 H 484.368 1.88306 3.43923 0
M  V30 4694 H 485.858 1.08946 4.03138 0
M  V30 4695 N 486.295 -0.989507 1.22664 0
M  V30 4696 C 487.245 -2.06478 0.967005 0
M  V30 4697 C 488.229 -1.60682 -0.0836374 0
M  V30 4698 O 489.421 -1.76541 0.127322 0
M  V30 4699 C 486.55 -3.38861 0.550313 0
M  V30 4700 C 485.636 -3.9128 1.63587 0
M  V30 4701 N 486.027 -4.16884 2.86429 0
M  V30 4702 C 484.325 -4.1972 1.50834 0
M  V30 4703 C 485.026 -4.5954 3.56648 0
M  V30 4704 N 484.002 -4.63434 2.84131 0
M  V30 4705 H 487.804 -2.24219 1.90008 0
M  V30 4706 H 485.318 -1.17153 1.12467 0
M  V30 4707 H 487.315 -4.15465 0.345612 0
M  V30 4708 H 485.975 -3.22518 -0.375822 0
M  V30 4709 H 486.986 -4.04976 3.22823 0
M  V30 4710 H 483.663 -4.1243 0.648643 0
M  V30 4711 H 485.053 -4.87944 4.61909 0
M  V30 4712 N 487.773 -1.03688 -1.18687 0
M  V30 4713 C 489.189 -0.755413 -1.4059 0
M  V30 4714 C 489.389 0.656659 -1.905 0
M  V30 4715 O 488.445 1.42144 -2.08689 0
M  V30 4716 C 489.758 -1.7983 -2.41001 0
M  V30 4717 C 491.306 -1.81877 -2.54735 0
M  V30 4718 C 491.781 -2.85148 -3.58406 0
M  V30 4719 N 493.272 -2.84015 -3.6591 0
M  V30 4720 C 494.007 -3.60573 -4.45841 0
M  V30 4721 N 493.503 -4.46871 -5.29413 0
M  V30 4722 N 495.296 -3.49079 -4.40568 0
M  V30 4723 H 487.447 -1.94818 -0.846148 0
M  V30 4724 H 489.71 -0.842727 -0.434184 0
M  V30 4725 H 489.416 -2.81097 -2.1137 0
M  V30 4726 H 489.29 -1.62727 -3.40294 0
M  V30 4727 H 491.677 -0.812836 -2.83685 0
M  V30 4728 H 491.758 -2.03057 -1.55568 0
M  V30 4729 H 491.402 -3.85918 -3.30197 0
M  V30 4730 H 491.332 -2.61224 -4.57241 0
M  V30 4731 H 493.823 -2.21431 -3.0623 0
M  V30 4732 H 494.136 -5.02007 -5.87545 0
M  V30 4733 H 492.481 -4.5094 -5.28846 0
M  V30 4734 H 495.672 -2.81066 -3.74325 0
M  V30 4735 H 495.845 -4.08994 -5.02621 0
M  V30 4736 N 489.251 1.34841 -0.815825 0
M  V30 4737 C 490.5 1.97755 -0.396976 0
M  V30 4738 C 490.813 1.65422 1.04379 0
M  V30 4739 O 492.019 2.21771 1.5662 0
M  V30 4740 C 490.475 3.53818 -0.658869 0
M  V30 4741 C 490.083 3.95051 -2.11278 0
M  V30 4742 C 491.827 4.23397 -0.305834 0
M  V30 4743 C 489.734 5.43997 -2.31994 0
M  V30 4744 H 488.664 0.739985 -0.1447 0
M  V30 4745 H 491.315 1.53781 -1.00118 0
M  V30 4746 H 489.697 3.95997 0.0154112 0
M  V30 4747 H 490.871 3.63998 -2.82564 0
M  V30 4748 H 489.186 3.38388 -2.42657 0
M  V30 4749 H 491.783 5.32899 -0.43854 0
M  V30 4750 H 492.126 4.09508 0.748952 0
M  V30 4751 H 492.659 3.8667 -0.934403 0
M  V30 4752 H 489.398 5.62865 -3.35952 0
M  V30 4753 H 488.918 5.76589 -1.65244 0
M  V30 4754 H 490.597 6.10584 -2.14001 0
M  V30 4755 N 490.729 0.570148 1.46925 0
M  V30 4756 C 491.639 -0.173061 2.33961 0
M  V30 4757 C 492.655 -0.898825 1.48987 0
M  V30 4758 O 493.831 -0.864825 1.81887 0
M  V30 4759 C 490.896 -1.18177 3.25937 0
M  V30 4760 C 489.957 -0.462041 4.26806 0
M  V30 4761 C 489.19 -1.4227 5.14388 0
M  V30 4762 O 489.413 -2.65842 5.04662 0
M  V30 4763 O 488.347 -0.940127 5.94513 0
M  V30 4764 H 492.173 0.541216 2.98839 0
M  V30 4765 H 489.758 0.330647 1.45695 0
M  V30 4766 H 491.64 -1.76372 3.82715 0
M  V30 4767 H 490.315 -1.87774 2.63671 0
M  V30 4768 H 489.222 0.161429 3.73752 0
M  V30 4769 H 490.555 0.192719 4.91823 0
M  V30 4770 N 492.207 -1.54576 0.307264 0
M  V30 4771 C 493.432 -2.05139 -0.305379 0
M  V30 4772 C 493.857 -1.18278 -1.46259 0
M  V30 4773 O 493.215 -0.188243 -1.8032 0
M  V30 4774 C 493.263 -3.53066 -0.733283 0
M  V30 4775 O 492.367 -3.69206 -1.83741 0
M  V30 4776 H 491.708 -0.661444 -0.0582105 0
M  V30 4777 H 494.238 -1.99569 0.450931 0
M  V30 4778 H 494.248 -3.95034 -1.02039 0
M  V30 4779 H 492.923 -4.15746 0.113198 0
M  V30 4780 H 491.5 -3.39143 -1.55037 0
M  V30 4781 N 493.685 -0.035106 -1.57561 0
M  V30 4782 C 494.648 0.929819 -2.09492 0
M  V30 4783 C 495.648 1.25026 -1.01119 0
M  V30 4784 O 496.838 1.18961 -1.27255 0
M  V30 4785 C 493.97 2.24457 -2.56577 0
M  V30 4786 H 495.163 0.479935 -2.96035 0
M  V30 4787 H 492.716 0.213033 -1.54841 0
M  V30 4788 H 493.451 2.74061 -1.73382 0
M  V30 4789 H 493.236 2.02508 -3.35757 0
M  V30 4790 H 494.726 2.93607 -2.96959 0
M  V30 4791 N 495.163 1.55791 0.238111 0
M  V30 4792 C 496.11 1.9105 1.29493 0
M  V30 4793 C 497.08 0.765733 1.47397 0
M  V30 4794 O 498.265 1.02017 1.61236 0
M  V30 4795 C 495.405 2.21826 2.64362 0
M  V30 4796 C 494.518 3.49153 2.54394 0
M  V30 4797 C 493.653 3.69455 3.81676 0
M  V30 4798 C 492.692 4.90353 3.66361 0
M  V30 4799 N 491.829 5.07131 4.85554 0
M  V30 4800 H 496.669 2.81172 0.987233 0
M  V30 4801 H 494.206 1.39179 0.476203 0
M  V30 4802 H 496.164 2.37675 3.4288 0
M  V30 4803 H 494.794 1.34897 2.93262 0
M  V30 4804 H 493.846 3.41587 1.67399 0
M  V30 4805 H 495.158 4.37818 2.38991 0
M  V30 4806 H 494.312 3.85311 4.68636 0
M  V30 4807 H 493.051 2.7904 3.99985 0
M  V30 4808 H 492.056 4.74464 2.77784 0
M  V30 4809 H 493.281 5.82237 3.49538 0
M  V30 4810 H 491.227 4.19654 5.04209 0
M  V30 4811 H 491.144 5.89899 4.72816 0
M  V30 4812 H 492.412 5.27407 5.73988 0
M  V30 4813 N 496.642 -0.504142 1.49319 0
M  V30 4814 C 497.605 -1.5883 1.65244 0
M  V30 4815 C 498.605 -1.52009 0.524386 0
M  V30 4816 O 499.795 -1.55218 0.79077 0
M  V30 4817 C 496.927 -2.98481 1.64687 0
M  V30 4818 H 498.12 -1.4604 2.61939 0
M  V30 4819 H 495.673 -0.728144 1.38303 0
M  V30 4820 H 496.408 -3.16751 0.695644 0
M  V30 4821 H 496.193 -3.0484 2.46607 0
M  V30 4822 H 497.683 -3.77256 1.79075 0
M  V30 4823 N 498.12 -1.38341 -0.754957 0
M  V30 4824 C 499.368 -1.34208 -1.51105 0
M  V30 4825 C 499.689 0.0677634 -1.94882 0
M  V30 4826 O 498.959 1.01517 -1.67544 0
M  V30 4827 H 497.539 -0.493819 -0.560493 0
M  V30 4828 H 500.201 -1.73005 -0.897507 0
M  V30 4829 H 499.297 -1.99203 -2.4026 0
M  V30 4830 N 499.598 0.982988 -1.23187 0
M  V30 4831 C 500.545 2.07491 -1.01075 0
M  V30 4832 C 501.515 1.65949 0.070905 0
M  V30 4833 O 502.7 1.90629 -0.0806822 0
M  V30 4834 C 499.84 3.39751 -0.605261 0
M  V30 4835 C 498.953 3.94578 -1.75876 0
M  V30 4836 C 498.088 5.15039 -1.3003 0
M  V30 4837 C 497.127 5.62027 -2.42472 0
M  V30 4838 N 496.264 6.73719 -1.97602 0
M  V30 4839 H 501.104 2.25739 -1.9454 0
M  V30 4840 H 498.641 1.10659 -0.969179 0
M  V30 4841 H 500.599 4.15719 -0.351279 0
M  V30 4842 H 499.229 3.21473 0.292382 0
M  V30 4843 H 498.281 3.1539 -2.12681 0
M  V30 4844 H 499.593 4.25422 -2.60418 0
M  V30 4845 H 498.747 5.9833 -1.00429 0
M  V30 4846 H 497.486 4.85843 -0.425216 0
M  V30 4847 H 496.491 4.77318 -2.7285 0
M  V30 4848 H 497.716 5.93244 -3.30512 0
M  V30 4849 H 495.662 6.46287 -1.1247 0
M  V30 4850 H 495.579 7.03934 -2.75705 0
M  V30 4851 H 496.847 7.6049 -1.71098 0
M  V30 4852 N 501.076 1.04316 1.18135 0
M  V30 4853 C 502.006 0.657299 2.24058 0
M  V30 4854 C 502.987 -0.340678 1.66654 0
M  V30 4855 O 504.172 -0.220223 1.92947 0
M  V30 4856 C 501.302 0.0220715 3.47293 0
M  V30 4857 C 500.256 0.943857 4.17463 0
M  V30 4858 C 499.582 0.172973 5.3442 0
M  V30 4859 C 500.882 2.26409 4.70677 0
M  V30 4860 H 502.576 1.5428 2.56589 0
M  V30 4861 H 500.122 0.743263 1.23335 0
M  V30 4862 H 502.075 -0.259607 4.206 0
M  V30 4863 H 500.799 -0.898323 3.14003 0
M  V30 4864 H 499.458 1.20996 3.46057 0
M  V30 4865 H 499.106 -0.749907 4.97379 0
M  V30 4866 H 498.806 0.787098 5.82304 0
M  V30 4867 H 500.33 -0.101628 6.10515 0
M  V30 4868 H 501.744 2.04294 5.35665 0
M  V30 4869 H 500.141 2.8314 5.29105 0
M  V30 4870 H 501.211 2.90883 3.87962 0
M  V30 4871 N 502.554 -1.34406 0.822964 0
M  V30 4872 C 503.782 -2.02508 0.424039 0
M  V30 4873 C 504.197 -1.61975 -0.970022 0
M  V30 4874 O 503.554 -0.825228 -1.62777 0
M  V30 4875 C 503.605 -3.57789 0.516657 0
M  V30 4876 O 503.326 -3.96853 1.85577 0
M  V30 4877 C 504.827 -4.43157 0.112637 0
M  V30 4878 H 502.047 -0.649063 0.170173 0
M  V30 4879 H 504.591 -1.7168 1.11113 0
M  V30 4880 H 502.746 -3.87207 -0.122353 0
M  V30 4881 H 503.16 -4.91538 1.83005 0
M  V30 4882 H 504.634 -5.51527 0.228526 0
M  V30 4883 H 505.111 -4.28939 -0.943837 0
M  V30 4884 H 505.717 -4.19067 0.725449 0
M  V30 4885 N 504.032 -0.577932 -1.46621 0
M  V30 4886 C 505.257 -0.0652536 -2.07297 0
M  V30 4887 C 505.682 1.22828 -1.4246 0
M  V30 4888 O 505.04 1.74075 -0.506718 0
M  V30 4889 C 505.088 0.0920589 -3.60482 0
M  V30 4890 O 504.192 1.14972 -3.96049 0
M  V30 4891 H 503.533 -0.06065 -0.661224 0
M  V30 4892 H 506.063 -0.799515 -1.88332 0
M  V30 4893 H 506.073 0.299741 -4.06897 0
M  V30 4894 H 504.748 -0.852612 -4.07067 0
M  V30 4895 H 503.325 0.920879 -3.61351 0
M  V30 4896 N 505.51 1.54411 -0.315457 0
M  V30 4897 C 506.738 2.04833 0.291738 0
M  V30 4898 C 507.153 1.19203 1.46411 0
M  V30 4899 O 506.51 0.220867 1.81159 0
M  V30 4900 C 506.561 3.53969 0.73404 0
M  V30 4901 O 506.282 4.36346 -0.391682 0
M  V30 4902 C 507.783 4.2045 1.40489 0
M  V30 4903 H 505.003 0.668195 0.0612947 0
M  V30 4904 H 507.547 1.99276 -0.45929 0
M  V30 4905 H 505.702 3.5984 1.43506 0
M  V30 4906 H 506.116 5.24481 -0.0447088 0
M  V30 4907 H 507.59 5.26278 1.66539 0
M  V30 4908 H 508.067 3.71067 2.3496 0
M  V30 4909 H 508.673 4.18694 0.746662 0
M  V30 4910 N 506.988 0.0434614 1.5754 0
M  V30 4911 C 507.918 -0.931651 2.14109 0
M  V30 4912 C 508.899 -1.32971 1.06079 0
M  V30 4913 O 510.084 -1.40579 1.33982 0
M  V30 4914 C 507.214 -2.20914 2.67982 0
M  V30 4915 C 506.168 -1.95139 3.80926 0
M  V30 4916 C 505.494 -3.29276 4.21285 0
M  V30 4917 C 506.794 -1.27913 5.06395 0
M  V30 4918 H 508.488 -0.460497 2.95837 0
M  V30 4919 H 506.034 -0.220058 1.42309 0
M  V30 4920 H 507.987 -2.89522 3.06194 0
M  V30 4921 H 506.711 -2.70221 1.83434 0
M  V30 4922 H 505.37 -1.28945 3.43175 0
M  V30 4923 H 505.018 -3.76369 3.33699 0
M  V30 4924 H 504.718 -3.12831 4.97404 0
M  V30 4925 H 506.242 -3.99129 4.62091 0
M  V30 4926 H 507.656 -1.86544 5.42102 0
M  V30 4927 H 506.053 -1.2182 5.87605 0
M  V30 4928 H 507.123 -0.254066 4.84234 0
M  V30 4929 N 508.466 -1.55915 -0.229846 0
M  V30 4930 C 509.713 -1.78542 -0.955452 0
M  V30 4931 C 510.041 -0.610785 -1.84661 0
M  V30 4932 O 509.296 0.405213 -1.91459 0
M  V30 4933 C 509.595 -3.06845 -1.8325 0
M  V30 4934 C 509.261 -4.37395 -1.09528 0
M  V30 4935 C 507.923 -4.72868 -0.891598 0
M  V30 4936 C 510.275 -5.18029 -0.574046 0
M  V30 4937 C 507.603 -5.86496 -0.154655 0
M  V30 4938 C 509.955 -6.32423 0.149513 0
M  V30 4939 C 508.619 -6.66504 0.364519 0
M  V30 4940 H 507.889 -0.653333 -0.349625 0
M  V30 4941 H 510.536 -1.90183 -0.224235 0
M  V30 4942 H 508.841 -2.90291 -2.63132 0
M  V30 4943 H 510.538 -3.21553 -2.39592 0
M  V30 4944 H 507.128 -4.09538 -1.26399 0
M  V30 4945 H 511.312 -4.91066 -0.718899 0
M  V30 4946 H 506.568 -6.11396 0.0222356 0
M  V30 4947 H 510.742 -6.94137 0.560947 0
M  V30 4948 H 508.369 -7.54397 0.937495 0
M  V30 4949 N 509.944 0.496216 -1.49584 0
M  V30 4950 C 510.854 1.62352 -1.69349 0
M  V30 4951 C 511.87 1.64184 -0.576147 0
M  V30 4952 O 513.046 1.82517 -0.85144 0
M  V30 4953 C 510.111 2.98698 -1.76013 0
M  V30 4954 C 509.172 3.07454 -2.99617 0
M  V30 4955 C 508.405 4.37296 -3.05953 0
M  V30 4956 O 508.628 5.2637 -2.19752 0
M  V30 4957 O 507.562 4.51124 -3.9846 0
M  V30 4958 H 511.388 1.48606 -2.64859 0
M  V30 4959 H 508.973 0.673022 -1.33382 0
M  V30 4960 H 510.855 3.79725 -1.82721 0
M  V30 4961 H 509.53 3.12696 -0.836828 0
M  V30 4962 H 508.437 2.25597 -2.98424 0
M  V30 4963 H 509.77 2.98385 -3.91443 0
M  V30 4964 N 511.423 1.38739 0.74761 0
M  V30 4965 C 512.834 1.31507 1.32524 0
M  V30 4966 C 513.185 -0.0263963 1.96182 0
M  V30 4967 O 512.31 -0.92849 1.95469 0
M  V30 4968 C 512.905 2.38162 2.40966 0
M  V30 4969 C 511.464 2.34489 2.94434 0
M  V30 4970 C 510.611 2.20712 1.67873 0
M  V30 4971 H 513.562 1.4901 0.546043 0
M  V30 4972 H 513.583 2.04222 3.21051 0
M  V30 4973 H 513.095 3.35783 1.94605 0
M  V30 4974 H 511.196 1.40467 3.45108 0
M  V30 4975 H 511.309 3.28861 3.48407 0
M  V30 4976 H 509.673 1.67667 1.91729 0
M  V30 4977 H 510.456 3.20285 1.23582 0
M  V30 4978 N 512.901 -0.976442 1.23707 0
M  V30 4979 C 514.147 -1.72081 1.07312 0
M  V30 4980 C 514.48 -1.90275 -0.388476 0
M  V30 4981 O 513.755 -1.4579 -1.28746 0
M  V30 4982 C 514.038 -3.11675 1.80363 0
M  V30 4983 C 513.891 -3.01027 3.3422 0
M  V30 4984 C 515.21 -4.1117 1.5693 0
M  V30 4985 H 512.329 -0.624583 0.391236 0
M  V30 4986 H 514.971 -1.13649 1.52263 0
M  V30 4987 H 513.121 -3.61559 1.42153 0
M  V30 4988 H 514.793 -2.58637 3.81975 0
M  V30 4989 H 513.036 -2.3744 3.63049 0
M  V30 4990 H 513.707 -3.9988 3.80525 0
M  V30 4991 H 516.183 -3.7011 1.90151 0
M  V30 4992 H 515.059 -5.06928 2.10513 0
M  V30 4993 H 515.32 -4.392 0.505548 0
M  V30 4994 N 514.379 -1.04941 -1.1758 0
M  V30 4995 C 515.656 -0.671918 -1.83697 0
M  V30 4996 C 516.036 0.847929 -1.93322 0
M  V30 4997 O 515.384 1.75287 -1.46583 0
M  V30 4998 C 515.594 -1.35797 -3.21497 0
M  V30 4999 C 516.942 -1.4944 -3.97433 0
M  V30 5000 O 517.966 -1.31678 -3.30967 0
M  V30 5001 O 516.825 -1.78463 -5.1654 0
M  V30 5002 H 513.919 -0.236212 -0.792548 0
M  V30 5003 H 516.465 -1.14884 -1.24899 0
M  V30 5004 H 515.237 -2.39498 -3.09446 0
M  V30 5005 H 514.86 -0.870236 -3.8796 0
M  V30 5006 N 515.857 1.33968 -0.830081 0
M  V30 5007 C 516.82 2.27694 -0.26235 0
M  V30 5008 C 517.82 1.50589 0.563876 0
M  V30 5009 O 519.01 1.70028 0.378941 0
M  V30 5010 C 516.142 3.35002 0.63138 0
M  V30 5011 H 517.335 2.79419 -1.08928 0
M  V30 5012 H 514.888 1.44221 -0.602486 0
M  V30 5013 H 515.623 2.88504 1.48109 0
M  V30 5014 H 515.408 3.92079 0.0403276 0
M  V30 5015 H 516.898 4.04897 1.02217 0
M  V30 5016 N 517.335 0.585699 1.46312 0
M  V30 5017 C 518.581 0.0725284 2.0267 0
M  V30 5018 C 518.914 -1.28523 1.45586 0
M  V30 5019 O 518.189 -1.84283 0.622101 0
M  V30 5020 C 518.472 0.0099788 3.60099 0
M  V30 5021 C 518.325 1.39685 4.27561 0
M  V30 5022 C 519.644 -0.689117 4.34671 0
M  V30 5023 H 516.763 0.0278307 0.736474 0
M  V30 5024 H 519.405 0.753472 1.74421 0
M  V30 5025 H 517.555 -0.56992 3.84297 0
M  V30 5026 H 519.227 2.02215 4.14617 0
M  V30 5027 H 517.47 1.96374 3.86807 0
M  V30 5028 H 518.141 1.30553 5.36339 0
M  V30 5029 H 520.617 -0.196446 4.15636 0
M  V30 5030 H 519.493 -0.701921 5.44393 0
M  V30 5031 H 519.754 -1.75101 4.05946 0
M  V30 5032 N 518.813 -1.54241 0.323641 0
M  V30 5033 C 520.038 -2.05452 -0.283605 0
M  V30 5034 C 520.463 -1.19823 -1.44997 0
M  V30 5035 O 519.821 -0.207358 -1.8011 0
M  V30 5036 C 519.869 -3.53823 -0.695795 0
M  V30 5037 O 518.973 -3.71134 -1.79815 0
M  V30 5038 H 518.314 -0.662024 -0.0511917 0
M  V30 5039 H 520.844 -1.99079 0.472073 0
M  V30 5040 H 520.854 -3.96094 -0.978434 0
M  V30 5041 H 519.529 -4.15602 0.157287 0
M  V30 5042 H 518.106 -3.40768 -1.51431 0
M  V30 5043 N 520.291 -0.0518155 -1.57515 0
M  V30 5044 C 521.537 0.622745 -1.93002 0
M  V30 5045 C 521.87 1.70456 -0.930499 0
M  V30 5046 O 521.145 1.94452 0.0434086 0
M  V30 5047 C 521.428 1.21824 -3.38867 0
M  V30 5048 C 521.281 0.144434 -4.49568 0
M  V30 5049 C 522.6 2.12968 -3.8514 0
M  V30 5050 H 519.719 0.22491 -0.701844 0
M  V30 5051 H 522.361 -0.113711 -1.89659 0
M  V30 5052 H 520.511 1.8459 -3.41846 0
M  V30 5053 H 522.183 -0.48753 -4.58717 0
M  V30 5054 H 520.426 -0.527424 -4.30582 0
M  V30 5055 H 521.097 0.601127 -5.48717 0
M  V30 5056 H 523.573 1.60163 -3.8404 0
M  V30 5057 H 522.449 2.51578 -4.87852 0
M  V30 5058 H 522.71 3.03004 -3.21934 0
M  V30 5059 N 521.769 1.56035 0.221574 0
M  V30 5060 C 523.18 1.69229 0.788567 0
M  V30 5061 C 523.531 0.653814 1.84986 0
M  V30 5062 O 522.656 -0.195065 2.15519 0
M  V30 5063 C 523.251 3.06809 1.43713 0
M  V30 5064 C 521.81 3.21858 1.95152 0
M  V30 5065 C 520.957 2.65155 0.811685 0
M  V30 5066 H 523.908 1.587 -0.00307894 0
M  V30 5067 H 523.929 3.02666 2.30594 0
M  V30 5068 H 523.441 3.82369 0.664475 0
M  V30 5069 H 521.542 2.51167 2.7522 0
M  V30 5070 H 521.655 4.29073 2.1315 0
M  V30 5071 H 520.019 2.23635 1.21899 0
M  V30 5072 H 520.802 3.43261 0.0516987 0
M  V30 5073 N 523.247 -0.488276 1.49845 0
M  V30 5074 C 524.177 -1.59675 1.70371 0
M  V30 5075 C 525.158 -1.60878 0.552473 0
M  V30 5076 O 526.343 -1.77417 0.78973 0
M  V30 5077 C 523.473 -2.98098 1.782 0
M  V30 5078 C 522.427 -3.11761 2.93239 0
M  V30 5079 C 521.753 -4.51661 2.86193 0
M  V30 5080 C 523.053 -2.90589 4.33999 0
M  V30 5081 H 524.747 -1.42752 2.63177 0
M  V30 5082 H 522.293 -0.685317 1.26647 0
M  V30 5083 H 524.246 -3.75555 1.91144 0
M  V30 5084 H 522.97 -3.16138 0.820018 0
M  V30 5085 H 521.629 -2.36732 2.79917 0
M  V30 5086 H 521.277 -4.66595 1.87877 0
M  V30 5087 H 520.977 -4.61742 3.63412 0
M  V30 5088 H 522.501 -5.31162 3.01163 0
M  V30 5089 H 523.915 -3.57807 4.47936 0
M  V30 5090 H 522.312 -3.1213 5.12538 0
M  V30 5091 H 523.382 -1.86595 4.4756 0
M  V30 5092 N 524.725 -1.39134 -0.740242 0
M  V30 5093 C 525.675 -1.33928 -1.84519 0
M  V30 5094 C 526.659 -0.221097 -1.59374 0
M  V30 5095 O 527.851 -0.458195 -1.70967 0
M  V30 5096 C 524.98 -1.17991 -3.22387 0
M  V30 5097 C 524.066 -2.34488 -3.53378 0
M  V30 5098 N 524.457 -3.59954 -3.5534 0
M  V30 5099 C 522.755 -2.27331 -3.83714 0
M  V30 5100 C 523.456 -4.36962 -3.83978 0
M  V30 5101 N 522.432 -3.66482 -4.01487 0
M  V30 5102 H 526.234 -2.28907 -1.84333 0
M  V30 5103 H 523.748 -1.32555 -0.938237 0
M  V30 5104 H 525.745 -1.12345 -4.01478 0
M  V30 5105 H 524.405 -0.23957 -3.23815 0
M  V30 5106 H 525.416 -3.93448 -3.36778 0
M  V30 5107 H 522.093 -1.41531 -3.92779 0
M  V30 5108 H 523.483 -5.45692 -3.92008 0
M  V30 5109 N 526.204 0.969867 -1.24223 0
M  V30 5110 C 527.432 1.74756 -1.10761 0
M  V30 5111 C 527.847 1.85713 0.340041 0
M  V30 5112 O 527.204 1.34389 1.23474 0
M  V30 5113 C 527.255 3.16915 -1.73917 0
M  V30 5114 O 526.976 3.06511 -3.13021 0
M  V30 5115 C 528.477 4.11032 -1.66036 0
M  V30 5116 H 525.697 0.548092 -0.387087 0
M  V30 5117 H 528.241 1.2178 -1.64286 0
M  V30 5118 H 526.396 3.66884 -1.244 0
M  V30 5119 H 526.81 3.96079 -3.43834 0
M  V30 5120 H 528.284 5.08446 -2.14911 0
M  V30 5121 H 528.761 4.34785 -0.621159 0
M  V30 5122 H 529.367 3.66972 -2.14969 0
M  V30 5123 N 527.682 1.05563 1.17022 0
M  V30 5124 C 528.63 0.653887 2.2322 0
M  V30 5125 C 529.624 -0.326642 1.66221 0
M  V30 5126 O 530.83 -0.192301 1.7897 0
M  V30 5127 H 527.205 0.193297 0.726733 0
M  V30 5128 H 529.176 1.5596 2.54399 0
M  V30 5129 C 527.925 0.0485434 3.47666 0
M  V30 5130 H 527.248 0.79413 3.91834 0
M  V30 5131 H 528.688 -0.195133 4.23551 0
M  V30 5132 C 527.147 -1.20583 3.14581 0
M  V30 5133 O 527.677 -2.29475 3.29703 0
M  V30 5134 N 525.883 -1.10493 2.68774 0
M  V30 5135 H 525.43 -0.218795 2.56669 0
M  V30 5136 H 525.388 -1.94507 2.47011 0
M  V30 5137 N 529.16 -1.33526 0.837174 0
M  V30 5138 C 530.408 -1.97446 0.431211 0
M  V30 5139 C 530.729 -1.6665 -1.01255 0
M  V30 5140 O 529.999 -0.964559 -1.70508 0
M  V30 5141 H 528.579 -0.73043 0.156463 0
M  V30 5142 H 531.241 -1.62918 1.06976 0
M  V30 5143 H 530.337 -3.07001 0.561877 0
M  V30 5144 N 530.638 -0.59345 -1.46 0
M  V30 5145 C 531.601 0.123538 -2.28867 0
M  V30 5146 C 532.601 0.808628 -1.38989 0
M  V30 5147 O 533.791 0.658945 -1.61256 0
M  V30 5148 C 530.923 1.1847 -3.19653 0
M  V30 5149 H 532.116 -0.604843 -2.93737 0
M  V30 5150 H 529.669 -0.351875 -1.52288 0
M  V30 5151 H 530.404 1.94431 -2.59552 0
M  V30 5152 H 530.189 0.69783 -3.8584 0
M  V30 5153 H 531.679 1.68726 -3.81997 0
M  V30 5154 N 532.116 1.54067 -0.331816 0
M  V30 5155 C 533.344 2.05131 0.269996 0
M  V30 5156 C 533.759 1.20749 1.45138 0
M  V30 5157 O 533.116 0.240069 1.80914 0
M  V30 5158 C 533.167 3.54728 0.696456 0
M  V30 5159 O 532.888 4.35906 -0.43794 0
M  V30 5160 C 534.389 4.21916 1.36021 0
M  V30 5161 H 531.609 0.668807 0.0542042 0
M  V30 5162 H 534.153 1.98777 -0.4804 0
M  V30 5163 H 532.308 3.61342 1.39681 0
M  V30 5164 H 532.722 5.24404 -0.100334 0
M  V30 5165 H 534.196 5.28015 1.60947 0
M  V30 5166 H 534.673 3.73538 2.31011 0
M  V30 5167 H 535.279 4.19463 0.702212 0
M  V30 5168 N 533.594 0.0601682 1.57485 0
M  V30 5169 C 534.524 -0.90889 2.15085 0
M  V30 5170 C 535.505 -1.31838 1.07484 0
M  V30 5171 O 536.69 -1.3915 1.35466 0
M  V30 5172 C 533.82 -2.18059 2.7031 0
M  V30 5173 C 532.774 -1.91088 3.82974 0
M  V30 5174 C 532.1 -3.24789 4.24754 0
M  V30 5175 C 533.4 -1.22535 5.07723 0
M  V30 5176 H 535.094 -0.429093 2.96309 0
M  V30 5177 H 532.64 -0.204952 1.42534 0
M  V30 5178 H 534.593 -2.86258 3.09248 0
M  V30 5179 H 533.317 -2.6826 1.8629 0
M  V30 5180 H 531.976 -1.25297 3.44523 0
M  V30 5181 H 531.624 -3.72809 3.37672 0
M  V30 5182 H 531.324 -3.07538 5.00694 0
M  V30 5183 H 532.848 -3.94205 4.66299 0
M  V30 5184 H 534.262 -1.80783 5.4405 0
M  V30 5185 H 532.659 -1.1558 5.88864 0
M  V30 5186 H 533.729 -0.202692 4.84476 0
M  V30 5187 N 535.072 -1.5615 -0.213296 0
M  V30 5188 C 536.297 -1.83986 -0.957282 0
M  V30 5189 C 536.722 -0.641526 -1.76822 0
M  V30 5190 O 536.08 0.409722 -1.7661 0
M  V30 5191 C 536.128 -3.09889 -1.84393 0
M  V30 5192 O 535.232 -2.89163 -2.94038 0
M  V30 5193 H 534.573 -0.606357 -0.270605 0
M  V30 5194 H 537.103 -2.03369 -0.224111 0
M  V30 5195 H 537.113 -3.40209 -2.25215 0
M  V30 5196 H 535.788 -3.96735 -1.24795 0
M  V30 5197 H 534.365 -2.70097 -2.57103 0
M  V30 5198 N 536.55 0.480323 -1.50102 0
M  V30 5199 C 537.799 1.22979 -1.59872 0
M  V30 5200 C 538.112 1.93282 -0.30022 0
M  V30 5201 O 539.318 2.70086 -0.276709 0
M  V30 5202 C 537.774 2.23408 -2.82164 0
M  V30 5203 C 537.382 1.5895 -4.18854 0
M  V30 5204 C 539.126 2.99055 -3.01275 0
M  V30 5205 C 537.033 2.57611 -5.32344 0
M  V30 5206 H 535.963 0.462707 -0.59533 0
M  V30 5207 H 538.614 0.501291 -1.7652 0
M  V30 5208 H 536.996 2.99511 -2.59055 0
M  V30 5209 H 538.17 0.887 -4.52182 0
M  V30 5210 H 536.485 0.956191 -4.05273 0
M  V30 5211 H 539.082 3.72876 -3.83233 0
M  V30 5212 H 539.425 3.57897 -2.12639 0
M  V30 5213 H 539.958 2.30066 -3.24522 0
M  V30 5214 H 536.697 2.03521 -6.23105 0
M  V30 5215 H 536.217 3.26041 -5.03445 0
M  V30 5216 H 537.896 3.19627 -5.62537 0
M  V30 5217 N 538.028 1.39524 0.732853 0
M  V30 5218 C 539.276 1.36594 1.48951 0
M  V30 5219 C 539.597 -0.0367507 1.94965 0
M  V30 5220 O 538.867 -0.988391 1.69138 0
M  V30 5221 H 537.447 0.502673 0.552566 0
M  V30 5222 H 540.109 1.74411 0.869869 0
M  V30 5223 H 539.205 2.03 2.3706 0
M  V30 5224 N 539.506 -0.963266 1.24736 0
M  V30 5225 C 540.754 -1.70343 1.08755 0
M  V30 5226 C 541.075 -1.91387 -0.373619 0
M  V30 5227 O 540.345 -1.4948 -1.2662 0
M  V30 5228 H 538.925 -0.631224 0.399456 0
M  V30 5229 H 541.587 -1.15859 1.56725 0
M  V30 5230 H 540.683 -2.68616 1.58909 0
M  V30 5231 N 540.985 -1.06182 -1.16461 0
M  V30 5232 C 542.262 -0.691364 -1.82974 0
M  V30 5233 C 542.642 0.827377 -1.9421 0
M  V30 5234 O 541.99 1.73723 -1.48434 0
M  V30 5235 C 542.2 -1.39199 -3.20038 0
M  V30 5236 C 543.548 -1.53647 -3.95825 0
M  V30 5237 O 544.572 -1.35181 -3.29552 0
M  V30 5238 O 543.431 -1.83932 -5.14618 0
M  V30 5239 H 540.525 -0.244605 -0.789998 0
M  V30 5240 H 543.071 -1.16203 -1.23673 0
M  V30 5241 H 541.843 -2.42766 -3.06888 0
M  V30 5242 H 541.466 -0.911335 -3.87015 0
M  V30 5243 N 542.463 1.3308 -0.844243 0
M  V30 5244 C 543.74 1.92178 -0.364261 0
M  V30 5245 C 544.12 1.76961 1.15101 0
M  V30 5246 O 543.468 1.16128 1.9679 0
M  V30 5247 C 543.678 3.393 -0.817106 0
M  V30 5248 C 545.026 4.16444 -0.828236 0
M  V30 5249 O 546.05 3.47975 -0.761062 0
M  V30 5250 O 544.909 5.38685 -0.920926 0
M  V30 5251 H 542.003 0.820411 -0.10419 0
M  V30 5252 H 544.549 1.41918 -0.930453 0
M  V30 5253 H 543.321 3.44272 -1.85991 0
M  V30 5254 H 542.944 3.96947 -0.227785 0
M  V30 5255 N 543.941 0.601185 1.45683 0
M  V30 5256 C 545.218 0.0261659 1.95582 0
M  V30 5257 C 545.598 -1.4399 1.5437 0
M  V30 5258 O 544.946 -2.13919 0.80318 0
M  V30 5259 C 545.156 0.217557 3.48321 0
M  V30 5260 C 546.504 0.0950076 4.24494 0
M  V30 5261 O 547.528 0.147345 3.55895 0
M  V30 5262 O 546.387 -0.025261 5.46494 0
M  V30 5263 H 543.481 -0.0393688 0.826062 0
M  V30 5264 H 546.027 0.670798 1.55879 0
M  V30 5265 H 544.799 1.23601 3.71266 0
M  V30 5266 H 544.422 -0.46264 3.94899 0
M  V30 5267 N 545.419 -1.53889 0.339982 0
M  V30 5268 C 546.696 -1.93084 -0.312719 0
M  V30 5269 C 547.076 -1.2712 -1.68534 0
M  V30 5270 O 546.424 -0.420835 -2.24591 0
M  V30 5271 C 546.634 -3.4683 -0.388558 0
M  V30 5272 C 547.982 -4.19732 -0.641088 0
M  V30 5273 O 549.006 -3.53075 -0.470818 0
M  V30 5274 O 547.865 -5.3781 -0.970685 0
M  V30 5275 H 544.959 -0.806784 -0.18174 0
M  V30 5276 H 547.505 -1.65137 0.390898 0
M  V30 5277 H 546.277 -3.87055 0.574821 0
M  V30 5278 H 545.9 -3.80933 -1.1391 0
M  V30 5279 N 546.897 -0.0685191 -1.57451 0
M  V30 5280 C 548.143 0.602239 -1.93652 0
M  V30 5281 C 548.476 1.6946 -0.948526 0
M  V30 5282 O 547.751 1.94487 0.022782 0
M  V30 5283 C 548.034 1.18223 -3.4014 0
M  V30 5284 C 547.887 0.0967431 -4.49696 0
M  V30 5285 C 549.206 2.08872 -3.87377 0
M  V30 5286 H 546.325 0.217453 -0.70419 0
M  V30 5287 H 548.967 -0.133821 -1.89528 0
M  V30 5288 H 547.117 1.80953 -3.43785 0
M  V30 5289 H 548.789 -0.536155 -4.58174 0
M  V30 5290 H 547.032 -0.573063 -4.29998 0
M  V30 5291 H 547.703 0.542894 -5.49324 0
M  V30 5292 H 550.179 1.56081 -3.85717 0
M  V30 5293 H 549.055 2.46389 -4.90493 0
M  V30 5294 H 549.316 2.99572 -3.25129 0
M  V30 5295 N 548.375 1.56261 0.205012 0
M  V30 5296 C 549.652 1.70856 0.952233 0
M  V30 5297 C 550.032 0.620501 2.01775 0
M  V30 5298 O 549.38 -0.370035 2.25484 0
M  V30 5299 C 549.59 3.12807 1.54767 0
M  V30 5300 C 550.938 3.72733 2.0336 0
M  V30 5301 O 551.962 3.15873 1.64629 0
M  V30 5302 O 550.821 4.72501 2.746 0
M  V30 5303 H 547.915 0.696496 0.445895 0
M  V30 5304 H 550.461 1.6857 0.195489 0
M  V30 5305 H 549.233 3.83465 0.779132 0
M  V30 5306 H 548.856 3.1928 2.36951 0
M  V30 5307 N 549.853 -0.472356 1.50355 0
M  V30 5308 C 551.099 -1.22634 1.6152 0
M  V30 5309 C 551.432 -1.91645 0.313995 0
M  V30 5310 O 550.707 -1.82059 -0.684446 0
M  V30 5311 C 550.99 -2.27099 2.7946 0
M  V30 5312 C 550.843 -1.62402 4.19459 0
M  V30 5313 C 552.162 -3.28421 2.92964 0
M  V30 5314 H 549.281 -0.444494 0.587873 0
M  V30 5315 H 551.923 -0.520321 1.82737 0
M  V30 5316 H 550.073 -2.87314 2.61501 0
M  V30 5317 H 551.745 -1.05793 4.49005 0
M  V30 5318 H 549.988 -0.927184 4.23776 0
M  V30 5319 H 550.659 -2.38309 4.97909 0
M  V30 5320 H 553.135 -2.78227 3.09401 0
M  V30 5321 H 552.011 -3.98845 3.77113 0
M  V30 5322 H 552.272 -3.92467 2.03525 0
M  V30 5323 N 551.331 -1.39911 -0.725443 0
M  V30 5324 C 552.742 -1.33599 -1.30415 0
M  V30 5325 C 553.093 -0.00481792 -1.96199 0
M  V30 5326 O 552.218 0.897275 -1.96921 0
M  V30 5327 C 552.813 -2.41965 -2.37146 0
M  V30 5328 C 551.372 -2.39144 -2.90667 0
M  V30 5329 C 550.519 -2.23355 -1.64341 0
M  V30 5330 H 553.47 -1.4986 -0.522267 0
M  V30 5331 H 553.491 -2.09304 -3.17761 0
M  V30 5332 H 553.003 -3.38837 -1.89238 0
M  V30 5333 H 551.104 -1.4594 -3.4283 0
M  V30 5334 H 551.217 -3.34362 -3.43131 0
M  V30 5335 H 549.581 -1.70696 -1.89037 0
M  V30 5336 H 550.364 -3.2221 -1.18471 0
M  V30 5337 N 552.809 0.956637 -1.25245 0
M  V30 5338 C 554.22 1.51569 -1.09012 0
M  V30 5339 C 554.571 1.93322 0.334813 0
M  V30 5340 O 553.696 1.78421 1.22454 0
M  V30 5341 C 554.291 2.75444 -1.97271 0
M  V30 5342 C 552.85 3.27669 -1.8523 0
M  V30 5343 C 551.997 2.00517 -1.91542 0
M  V30 5344 H 554.948 0.773746 -1.3856 0
M  V30 5345 H 554.969 3.4919 -1.51151 0
M  V30 5346 H 554.481 2.45024 -3.00973 0
M  V30 5347 H 552.582 3.62914 -0.844045 0
M  V30 5348 H 552.695 3.9582 -2.69932 0
M  V30 5349 H 551.059 2.15727 -1.35404 0
M  V30 5350 H 551.842 1.72448 -2.96844 0
M  V30 5351 N 554.287 1.06798 1.15896 0
M  V30 5352 C 555.534 0.787767 1.86549 0
M  V30 5353 C 555.862 -0.685959 1.82002 0
M  V30 5354 O 555.117 -1.5188 1.23414 0
M  V30 5355 C 555.416 1.23414 3.35416 0
M  V30 5356 C 555.082 2.71285 3.6016 0
M  V30 5357 C 553.744 3.11676 3.66622 0
M  V30 5358 C 556.096 3.6676 3.7032 0
M  V30 5359 C 553.424 4.4637 3.8075 0
M  V30 5360 C 555.776 5.01209 3.8597 0
M  V30 5361 C 554.44 5.41229 3.90676 0
M  V30 5362 H 553.71 0.288264 0.682631 0
M  V30 5363 H 556.357 1.338 1.37003 0
M  V30 5364 H 554.662 0.60319 3.87129 0
M  V30 5365 H 556.359 0.994298 3.88477 0
M  V30 5366 H 552.949 2.39015 3.55767 0
M  V30 5367 H 557.133 3.36685 3.64633 0
M  V30 5368 H 552.389 4.76855 3.82648 0
M  V30 5369 H 556.563 5.75067 3.92773 0
M  V30 5370 H 554.19 6.45602 4.01375 0
M  V30 5371 N 555.766 -1.3263 0.851289 0
M  V30 5372 C 556.699 -2.26952 0.238318 0
M  V30 5373 C 557.677 -1.50243 -0.621757 0
M  V30 5374 O 558.861 -1.79378 -0.579298 0
M  V30 5375 C 555.988 -3.32124 -0.664178 0
M  V30 5376 C 555.034 -4.26325 0.122067 0
M  V30 5377 S 555.867 -5.14404 1.48824 0
M  V30 5378 C 557.023 -6.231 0.591372 0
M  V30 5379 H 557.256 -2.78594 1.03791 0
M  V30 5380 H 554.789 -1.4011 0.648731 0
M  V30 5381 H 556.747 -3.93197 -1.17924 0
M  V30 5382 H 555.408 -2.79273 -1.43755 0
M  V30 5383 H 554.601 -5.00821 -0.565181 0
M  V30 5384 H 554.203 -3.69652 0.568602 0
M  V30 5385 H 556.495 -6.77187 -0.205762 0
M  V30 5386 H 557.438 -6.95936 1.30687 0
M  V30 5387 H 557.846 -5.64252 0.167206 0
M  V30 5388 N 557.244 -0.608902 -1.45362 0
M  V30 5389 C 558.66 -0.272659 -1.57254 0
M  V30 5390 C 558.86 1.22477 -1.60005 0
M  V30 5391 O 557.916 2.00785 -1.53106 0
M  V30 5392 C 559.229 -0.944991 -2.85465 0
M  V30 5393 C 560.777 -0.921033 -2.99142 0
M  V30 5394 C 561.252 -1.5734 -4.30126 0
M  V30 5395 N 562.743 -1.53895 -4.36887 0
M  V30 5396 C 563.478 -2.01286 -5.36909 0
M  V30 5397 N 562.974 -2.56768 -6.43461 0
M  V30 5398 N 564.767 -1.92046 -5.28275 0
M  V30 5399 H 556.918 -1.58117 -1.4182 0
M  V30 5400 H 559.181 -0.662437 -0.678146 0
M  V30 5401 H 558.887 -1.99941 -2.89338 0
M  V30 5402 H 558.761 -0.469079 -3.74272 0
M  V30 5403 H 561.148 0.124846 -2.94836 0
M  V30 5404 H 561.229 -1.43522 -2.11743 0
M  V30 5405 H 560.873 -2.61862 -4.35191 0
M  V30 5406 H 560.803 -1.03422 -5.16344 0
M  V30 5407 H 563.294 -1.13366 -3.60495 0
M  V30 5408 H 563.607 -2.9072 -7.16032 0
M  V30 5409 H 561.952 -2.60808 -6.44208 0
M  V30 5410 H 565.143 -1.48439 -4.43941 0
M  V30 5411 H 565.316 -2.29293 -6.06077 0
M  V30 5412 N 558.722 1.53707 -0.348139 0
M  V30 5413 C 560.138 1.596 0.00361134 0
M  V30 5414 C 560.338 1.36394 1.4832 0
M  V30 5415 O 559.394 1.16046 2.24253 0
M  V30 5416 C 560.707 2.97512 -0.436682 0
M  V30 5417 C 562.255 3.10568 -0.389416 0
M  V30 5418 C 562.73 4.50866 -0.805249 0
M  V30 5419 N 564.221 4.56929 -0.759616 0
M  V30 5420 C 564.956 5.63643 -1.05327 0
M  V30 5421 N 564.452 6.78189 -1.41531 0
M  V30 5422 N 566.245 5.5354 -0.977207 0
M  V30 5423 H 558.396 1.67044 -1.31187 0
M  V30 5424 H 560.659 0.782559 -0.535075 0
M  V30 5425 H 560.365 3.19575 -1.46849 0
M  V30 5426 H 560.239 3.76742 0.185744 0
M  V30 5427 H 562.626 2.88226 0.633228 0
M  V30 5428 H 562.707 2.33387 -1.04711 0
M  V30 5429 H 562.351 4.73943 -1.82593 0
M  V30 5430 H 562.281 5.26452 -0.124989 0
M  V30 5431 H 564.772 3.74675 -0.49265 0
M  V30 5432 H 565.085 7.55541 -1.62411 0
M  V30 5433 H 563.43 6.79624 -1.45381 0
M  V30 5434 H 566.621 4.62932 -0.693675 0
M  V30 5435 H 566.794 6.36614 -1.2094 0
M  V30 5436 O 560.239 0.216617 1.60041 0
M  V30 5437 H 560.93 -0.364805 1.90234 0
M  V30 END ATOM
M  V30 BEGIN BOND
M  V30 END BOND
M  V30 END CTAB
M  END
$$$$
