drugbank_target|P05062 Fructose-bisphosphate aldolase B (DB02512; DB02515; DB04326)
 OpenBabel12092120553D

  0  0  0     0  0            999 V3000
M  V30 BEGIN CTAB
M  V30 COUNTS 5544 5592 0 0 0
M  V30 BEGIN ATOM
M  V30 1 H -0.908 1.98254 -0.117106 0
M  V30 2 N 0 1.576 0 0
M  V30 3 C 0.933 2.03868 1.02534 0
M  V30 4 C 1.911 0.928543 1.3348 0
M  V30 5 O 3.095 1.19667 1.45644 0
M  V30 6 C 0.222 2.43627 2.35294 0
M  V30 7 C -0.732 3.65373 2.2001 0
M  V30 8 S 0.101 5.13292 1.52614 0
M  V30 9 C 1.257 5.56322 2.86805 0
M  V30 10 H 1.49 2.90518 0.631377 0
M  V30 11 H -0.977 1.52953 0.210867 0
M  V30 12 H 0.981 2.67203 3.11629 0
M  V30 13 H -0.358 1.57376 2.7183 0
M  V30 14 H -1.165 3.90944 3.18086 0
M  V30 15 H -1.563 3.418 1.51819 0
M  V30 16 H 0.729 5.58782 3.83104 0
M  V30 17 H 1.672 6.56266 2.65933 0
M  V30 18 H 2.08 4.83886 2.90714 0
M  V30 19 N 1.4781 -0.272755 1.55222 0
M  V30 20 C 2.4411 -1.32041 1.87344 0
M  V30 21 C 3.4411 -1.42342 0.74803 0
M  V30 22 O 4.6311 -1.41488 1.0162 0
M  V30 23 C 1.7631 -2.70173 2.07893 0
M  V30 24 H 2.9561 -1.04789 2.80997 0
M  V30 25 H 0.5091 -0.51083 1.47717 0
M  V30 26 H 1.2441 -3.02605 1.16622 0
M  V30 27 H 1.0291 -2.64082 2.89833 0
M  V30 28 H 2.5191 -3.45869 2.34017 0
M  V30 29 N 2.9562 -1.48159 -0.537278 0
M  V30 30 C 3.9062 -1.5854 -1.63857 0
M  V30 31 C 4.8902 -0.442969 -1.54682 0
M  V30 32 O 6.0822 -0.69401 -1.62827 0
M  V30 33 C 3.2112 -1.62144 -3.02596 0
M  V30 34 C 2.2972 -2.81841 -3.16901 0
M  V30 35 N 2.6882 -4.06337 -3.01204 0
M  V30 36 C 0.9862 -2.79021 -3.47942 0
M  V30 37 C 1.6872 -4.86606 -3.18731 0
M  V30 38 N 0.6632 -4.19288 -3.45974 0
M  V30 39 H 4.4652 -2.5255 -1.50319 0
M  V30 40 H 1.9792 -1.4443 -0.742555 0
M  V30 41 H 3.9762 -1.67674 -3.81695 0
M  V30 42 H 2.6362 -0.69245 -3.17231 0
M  V30 43 H 3.6472 -4.36888 -2.78117 0
M  V30 44 H 0.3242 -1.95347 -3.6898 0
M  V30 45 H 1.7142 -5.95385 -3.11394 0
M  V30 46 N 4.4343 0.785586 -1.36625 0
M  V30 47 C 5.8503 1.08419 -1.17122 0
M  V30 48 C 6.0503 2.015 0.00208491 0
M  V30 49 O 5.1063 2.43551 0.666278 0
M  V30 50 C 6.4193 1.69498 -2.48377 0
M  V30 51 C 7.9673 1.81821 -2.54775 0
M  V30 52 C 8.4423 2.46315 -3.86126 0
M  V30 53 N 9.9333 2.53779 -3.87492 0
M  V30 54 C 10.6683 3.045 -4.85868 0
M  V30 55 N 10.1643 3.55499 -5.94637 0
M  V30 56 N 11.9573 3.03247 -4.73284 0
M  V30 57 H 4.1083 0.167264 -2.1174 0
M  V30 58 H 6.3713 0.13682 -0.938075 0
M  V30 59 H 6.0773 1.08571 -3.34522 0
M  V30 60 H 5.9513 2.6896 -2.64462 0
M  V30 61 H 8.3383 2.41884 -1.69045 0
M  V30 62 H 8.4193 0.811532 -2.42586 0
M  V30 63 H 8.0633 1.86895 -4.72263 0
M  V30 64 H 7.9933 3.47561 -3.95612 0
M  V30 65 H 10.4843 2.17672 -3.08913 0
M  V30 66 H 10.7973 3.92562 -6.65669 0
M  V30 67 H 9.1423 3.5364 -5.98301 0
M  V30 68 H 12.3333 2.62696 -3.87438 0
M  V30 69 H 12.5063 3.42467 -5.50109 0
M  V30 70 N 5.9124 1.20967 1.01018 0
M  V30 71 C 7.1594 1.02374 1.74716 0
M  V30 72 C 7.4874 -0.443375 1.89379 0
M  V30 73 O 6.7424 -1.34535 1.42123 0
M  V30 74 C 7.0414 1.65997 3.16512 0
M  V30 75 C 6.7074 3.15831 3.2181 0
M  V30 76 C 5.3694 3.56719 3.22963 0
M  V30 77 C 7.7214 4.11816 3.19464 0
M  V30 78 C 5.0494 4.92107 3.19449 0
M  V30 79 C 7.4014 5.47158 3.17491 0
M  V30 80 C 6.0654 5.87451 3.16951 0
M  V30 81 H 5.3354 0.374614 0.639332 0
M  V30 82 H 7.9824 1.50485 1.18434 0
M  V30 83 H 6.2874 1.10166 3.75993 0
M  V30 84 H 7.9844 1.49119 3.72242 0
M  V30 85 H 4.5744 2.83263 3.21652 0
M  V30 86 H 8.7584 3.81257 3.17737 0
M  V30 87 H 4.0144 5.22579 3.17366 0
M  V30 88 H 8.1884 6.21274 3.14629 0
M  V30 89 H 5.8154 6.92329 3.13983 0
M  V30 90 N 7.3905 -1.2043 1.01659 0
M  V30 91 C 8.8015 -1.71517 0.737482 0
M  V30 92 C 9.1525 -1.81547 -0.743973 0
M  V30 93 O 8.2775 -1.47803 -1.58061 0
M  V30 94 C 8.8725 -3.11515 1.33206 0
M  V30 95 C 7.4315 -3.59912 1.10183 0
M  V30 96 C 6.5785 -2.37116 1.43776 0
M  V30 97 H 9.5295 -1.05444 1.18606 0
M  V30 98 H 9.5505 -3.73575 0.722636 0
M  V30 99 H 9.0625 -3.04182 2.41028 0
M  V30 100 H 7.1635 -3.72577 0.0412756 0
M  V30 101 H 7.2765 -4.44731 1.78188 0
M  V30 102 H 5.6405 -2.39857 0.856778 0
M  V30 103 H 6.4235 -2.32424 2.52654 0
M  V30 104 N 8.8686 -0.792821 -1.36206 0
M  V30 105 C 9.8316 -0.199459 -2.2833 0
M  V30 106 C 10.8316 0.605189 -1.48977 0
M  V30 107 O 12.0216 0.425685 -1.68919 0
M  V30 108 C 9.1536 0.723523 -3.33134 0
M  V30 109 H 10.3466 -1.01181 -2.82316 0
M  V30 110 H 7.8996 -0.562485 -1.45828 0
M  V30 111 H 8.6346 1.56008 -2.84309 0
M  V30 112 H 8.4196 0.148436 -3.91819 0
M  V30 113 H 9.9096 1.13344 -4.01924 0
M  V30 114 N 10.3467 1.47872 -0.545128 0
M  V30 115 C 11.2767 2.32661 0.197793 0
M  V30 116 C 12.2577 1.43041 0.920504 0
M  V30 117 O 13.4427 1.71912 0.90333 0
M  V30 118 C 10.5727 3.24569 1.23582 0
M  V30 119 C 9.5267 4.23333 0.630323 0
M  V30 120 C 8.8527 5.0448 1.77211 0
M  V30 121 C 10.1527 5.20704 -0.407974 0
M  V30 122 H 11.8467 2.95024 -0.510045 0
M  V30 123 H 9.3927 1.4187 -0.246731 0
M  V30 124 H 11.3457 3.8272 1.76362 0
M  V30 125 H 10.0697 2.60236 1.97344 0
M  V30 126 H 8.7287 3.6639 0.123922 0
M  V30 127 H 8.3767 4.36561 2.49847 0
M  V30 128 H 8.0767 5.71339 1.37281 0
M  V30 129 H 9.6007 5.65487 2.3034 0
M  V30 130 H 11.0147 5.7329 0.033305 0
M  V30 131 H 9.4117 5.95699 -0.725486 0
M  V30 132 H 10.4817 4.66917 -1.30828 0
M  V30 133 N 11.8248 0.280983 1.55075 0
M  V30 134 C 13.0528 -0.337293 2.04132 0
M  V30 135 C 13.4678 -1.4903 1.15912 0
M  V30 136 O 12.8248 -1.81606 0.180459 0
M  V30 137 C 12.8758 -0.812706 3.52246 0
M  V30 138 O 12.5968 0.294387 4.3711 0
M  V30 139 C 14.0978 -1.4982 4.17216 0
M  V30 140 H 11.3178 -0.0761638 0.666663 0
M  V30 141 H 13.8618 0.414787 2.00249 0
M  V30 142 H 12.0168 -1.51486 3.56554 0
M  V30 143 H 12.4308 -0.0721325 5.2445 0
M  V30 144 H 13.9048 -1.7822 5.22438 0
M  V30 145 H 14.3818 -2.43168 3.65741 0
M  V30 146 H 14.9878 -0.839742 4.16927 0
M  V30 147 N 13.3029 -1.57598 0.00835791 0
M  V30 148 C 14.2349 -2.05811 -1.00868 0
M  V30 149 C 15.2479 -0.977579 -1.30182 0
M  V30 150 O 16.4369 -1.25421 -1.27011 0
M  V30 151 C 13.5369 -2.45016 -2.34137 0
M  V30 152 C 12.7099 -3.75903 -2.23643 0
M  V30 153 C 11.7689 -4.01884 -3.3967 0
M  V30 154 O 10.7949 -4.72433 -3.17483 0
M  V30 155 N 11.9969 -3.50432 -4.62793 0
M  V30 156 H 14.7619 -2.93684 -0.597458 0
M  V30 157 H 12.3229 -1.60909 -0.178852 0
M  V30 158 H 14.3149 -2.59506 -3.10546 0
M  V30 159 H 12.8849 -1.62618 -2.66972 0
M  V30 160 H 12.1049 -3.7141 -1.32091 0
M  V30 161 H 13.3929 -4.61695 -2.13812 0
M  V30 162 H 12.7909 -2.93317 -4.83716 0
M  V30 163 H 11.3479 -3.70236 -5.3644 0
M  V30 164 N 14.781 0.264519 -1.55364 0
M  V30 165 C 15.691 1.34902 -1.91934 0
M  V30 166 C 16.707 1.53595 -0.817593 0
M  V30 167 O 17.883 1.67558 -1.11742 0
M  V30 168 C 14.948 2.68676 -2.19121 0
M  V30 169 C 14.009 2.58657 -3.4263 0
M  V30 170 C 13.242 3.86051 -3.68511 0
M  V30 171 O 13.465 4.87126 -2.96757 0
M  V30 172 O 12.399 3.85744 -4.62045 0
M  V30 173 H 16.225 1.06883 -2.8427 0
M  V30 174 H 13.81 0.463775 -1.42019 0
M  V30 175 H 15.692 3.47759 -2.37995 0
M  V30 176 H 14.367 2.96463 -1.29966 0
M  V30 177 H 13.274 1.7792 -3.29082 0
M  V30 178 H 14.607 2.35818 -4.32031 0
M  V30 179 N 16.2591 1.48442 0.529413 0
M  V30 180 C 17.1911 1.59095 1.64989 0
M  V30 181 C 18.2041 0.475212 1.5571 0
M  V30 182 O 19.3931 0.746081 1.6216 0
M  V30 183 C 16.4931 1.50518 3.0364 0
M  V30 184 C 15.6661 2.77142 3.38395 0
M  V30 185 C 14.7251 2.62012 4.56329 0
M  V30 186 O 13.7511 3.35898 4.59522 0
M  V30 187 N 14.9531 1.71667 5.54536 0
M  V30 188 H 17.7181 2.55723 1.56287 0
M  V30 189 H 15.2791 1.45173 0.716697 0
M  V30 190 H 17.2711 1.38091 3.80412 0
M  V30 191 H 15.8411 0.618627 3.06418 0
M  V30 192 H 15.0611 3.0413 2.50796 0
M  V30 193 H 16.3491 3.61146 3.58401 0
M  V30 194 H 15.7471 1.10841 5.54735 0
M  V30 195 H 14.3041 1.65178 6.30523 0
M  V30 196 N 17.7372 -0.778329 1.37039 0
M  V30 197 C 18.6842 -1.89139 1.32269 0
M  V30 198 C 19.6542 -1.65017 0.189387 0
M  V30 199 O 20.8392 -1.87024 0.377693 0
M  V30 200 C 17.9792 -3.26112 1.12894 0
M  V30 201 C 17.0922 -3.62233 2.35396 0
M  V30 202 C 16.2272 -4.8838 2.08946 0
M  V30 203 C 15.2662 -5.17212 3.2735 0
M  V30 204 N 14.4032 -6.34546 3.00492 0
M  V30 205 H 19.2432 -1.92552 2.27437 0
M  V30 206 H 16.7802 -0.941473 1.13025 0
M  V30 207 H 18.7382 -4.05116 0.996835 0
M  V30 208 H 17.3682 -3.22091 0.213758 0
M  V30 209 H 16.4202 -2.78265 2.5937 0
M  V30 210 H 17.7322 -3.79481 3.23721 0
M  V30 211 H 16.8862 -5.75274 1.92729 0
M  V30 212 H 15.6252 -4.73222 1.17949 0
M  V30 213 H 14.6302 -4.28796 3.44113 0
M  V30 214 H 15.8552 -5.34283 4.19188 0
M  V30 215 H 13.8012 -6.20759 2.12118 0
M  V30 216 H 13.7182 -6.52179 3.82358 0
M  V30 217 H 14.9862 -7.24394 2.87879 0
M  V30 218 N 19.2153 -1.21501 -1.00376 0
M  V30 219 C 20.1623 -0.975387 -2.09177 0
M  V30 220 C 21.1323 0.0990615 -1.65804 0
M  V30 221 O 22.3173 -0.0483147 -1.90739 0
M  V30 222 C 19.4573 -0.547507 -3.40729 0
M  V30 223 C 18.5703 -1.69153 -3.97506 0
M  V30 224 C 17.7053 -1.2127 -5.17172 0
M  V30 225 C 16.7443 -2.32897 -5.66061 0
M  V30 226 N 15.8813 -1.86138 -6.76976 0
M  V30 227 H 20.7213 -1.9068 -2.29009 0
M  V30 228 H 18.2583 -0.950257 -1.12288 0
M  V30 229 H 20.2163 -0.280667 -4.16255 0
M  V30 230 H 18.8463 0.346904 -3.20931 0
M  V30 231 H 17.8983 -2.07298 -3.18954 0
M  V30 232 H 19.2103 -2.5316 -4.29781 0
M  V30 233 H 18.3643 -0.902591 -5.99948 0
M  V30 234 H 17.1033 -0.342692 -4.86495 0
M  V30 235 H 16.1083 -2.64709 -4.81881 0
M  V30 236 H 17.3333 -3.20396 -5.98768 0
M  V30 237 H 15.2793 -1.01484 -6.48103 0
M  V30 238 H 15.1963 -2.63717 -7.08512 0
M  V30 239 H 16.4643 -1.58165 -7.63285 0
M  V30 240 N 20.6934 1.19889 -1.02296 0
M  V30 241 C 21.6034 2.26571 -0.608508 0
M  V30 242 C 22.6194 1.70299 0.356964 0
M  V30 243 O 23.7954 2.00235 0.216326 0
M  V30 244 C 20.8604 3.46677 0.0402814 0
M  V30 245 C 19.9214 4.18153 -0.97194 0
M  V30 246 C 19.1544 5.32525 -0.354016 0
M  V30 247 O 19.3774 5.64112 0.844604 0
M  V30 248 O 18.3114 5.92242 -1.07391 0
M  V30 249 H 22.1374 2.64251 -1.49684 0
M  V30 250 H 19.7224 1.26629 -0.792809 0
M  V30 251 H 21.6044 4.19475 0.402324 0
M  V30 252 H 20.2794 3.10858 0.902707 0
M  V30 253 H 19.1864 3.47499 -1.38546 0
M  V30 254 H 20.5194 4.57927 -1.80454 0
M  V30 255 N 22.1715 0.800033 1.35784 0
M  V30 256 C 23.1015 0.220184 2.3246 0
M  V30 257 C 24.0825 -0.65073 1.57161 0
M  V30 258 O 25.2675 -0.582359 1.85263 0
M  V30 259 C 22.3975 -0.637353 3.41402 0
M  V30 260 C 21.3515 0.134531 4.27789 0
M  V30 261 C 20.6775 -0.844285 5.27992 0
M  V30 262 C 21.9775 1.32979 5.05088 0
M  V30 263 H 23.6715 1.02787 2.81203 0
M  V30 264 H 21.2175 0.495717 1.35199 0
M  V30 265 H 23.1705 -1.05302 4.08031 0
M  V30 266 H 21.8945 -1.47785 2.91251 0
M  V30 267 H 20.5535 0.531296 3.6273 0
M  V30 268 H 20.2015 -1.68011 4.74111 0
M  V30 269 H 19.9015 -0.332184 5.8666 0
M  V30 270 H 21.4255 -1.2583 5.97494 0
M  V30 271 H 22.8395 0.98934 5.64699 0
M  V30 272 H 21.2365 1.77593 5.7322 0
M  V30 273 H 22.3065 2.11978 4.36111 0
M  V30 274 N 23.6496 -1.47581 0.552962 0
M  V30 275 C 24.8746 -2.07378 0.0300593 0
M  V30 276 C 25.2996 -1.40355 -1.25229 0
M  V30 277 O 24.6576 -0.477099 -1.7491 0
M  V30 278 C 24.7056 -3.60274 -0.153231 0
M  V30 279 O 23.8096 -3.94041 -1.21678 0
M  V30 280 H 23.1506 -0.662158 0.0494182 0
M  V30 281 H 25.6806 -1.89662 0.767434 0
M  V30 282 H 25.6906 -4.0633 -0.368761 0
M  V30 283 H 24.3656 -4.08455 0.783397 0
M  V30 284 H 22.9426 -3.59735 -0.982079 0
M  V30 285 N 25.1277 -0.289203 -1.54924 0
M  V30 286 C 26.0377 0.601863 -2.26748 0
M  V30 287 C 27.0537 1.15834 -1.2984 0
M  V30 288 O 28.2297 1.18564 -1.62802 0
M  V30 289 C 25.2947 1.76299 -2.98529 0
M  V30 290 C 24.3557 1.24178 -4.10948 0
M  V30 291 C 23.5887 2.34757 -4.79296 0
M  V30 292 O 23.8117 3.54411 -4.46933 0
M  V30 293 O 22.7457 2.02115 -5.66951 0
M  V30 294 H 26.5717 0.0195879 -3.03694 0
M  V30 295 H 24.1567 -0.0560868 -1.49295 0
M  V30 296 H 26.0387 2.43973 -3.43592 0
M  V30 297 H 24.7137 2.33209 -2.24488 0
M  V30 298 H 23.6207 0.531104 -3.70311 0
M  V30 299 H 24.9537 0.718252 -4.86931 0
M  V30 300 N 26.6058 1.57591 -0.0167156 0
M  V30 301 C 27.8548 1.90461 0.663877 0
M  V30 302 C 28.1678 0.893515 1.73999 0
M  V30 303 O 29.3738 1.11302 2.47637 0
M  V30 304 C 27.8298 3.38155 1.23204 0
M  V30 305 C 27.4378 4.47597 0.189866 0
M  V30 306 C 29.1818 3.80111 1.88986 0
M  V30 307 C 27.0888 5.86379 0.768964 0
M  V30 308 H 26.0188 0.710738 0.251729 0
M  V30 309 H 28.6698 1.83326 -0.0799926 0
M  V30 310 H 27.0518 3.40182 2.02712 0
M  V30 311 H 28.2258 4.57112 -0.581846 0
M  V30 312 H 26.5408 4.14766 -0.368475 0
M  V30 313 H 29.1378 4.81145 2.33247 0
M  V30 314 H 29.4808 3.14511 2.72743 0
M  V30 315 H 30.0138 3.80454 1.16187 0
M  V30 316 H 26.7528 6.55493 -0.0301957 0
M  V30 317 H 26.2728 5.80496 1.50945 0
M  V30 318 H 27.9518 6.34563 1.26251 0
M  V30 319 N 28.0839 -0.256276 1.55502 0
M  V30 320 C 29.0469 -1.30047 1.88734 0
M  V30 321 C 30.0469 -1.4154 0.763086 0
M  V30 322 O 31.2369 -1.40403 1.03115 0
M  V30 323 C 28.3689 -2.67953 2.10747 0
M  V30 324 H 29.5619 -1.01802 2.82093 0
M  V30 325 H 27.1149 -0.495134 1.4825 0
M  V30 326 H 27.8499 -3.01351 1.19825 0
M  V30 327 H 27.6349 -2.60993 2.92617 0
M  V30 328 H 29.1249 -3.43368 2.37673 0
M  V30 329 N 29.562 -1.4872 -0.521534 0
M  V30 330 C 30.494 -1.59968 -1.64143 0
M  V30 331 C 31.507 -0.483463 -1.55456 0
M  V30 332 O 32.696 -0.75467 -1.61762 0
M  V30 333 C 29.796 -1.52127 -3.02838 0
M  V30 334 C 28.969 -2.78932 -3.36921 0
M  V30 335 C 28.028 -2.64428 -4.54933 0
M  V30 336 O 27.054 -3.38331 -4.57735 0
M  V30 337 N 28.256 -1.74606 -5.53618 0
M  V30 338 H 31.021 -2.56548 -1.54929 0
M  V30 339 H 28.582 -1.45551 -0.708988 0
M  V30 340 H 30.574 -1.40106 -3.79674 0
M  V30 341 H 29.144 -0.634868 -3.06085 0
M  V30 342 H 28.364 -3.05455 -2.4918 0
M  V30 343 H 29.652 -3.63041 -3.56481 0
M  V30 344 H 29.05 -1.13782 -5.54139 0
M  V30 345 H 27.607 -1.6852 -6.29638 0
M  V30 346 N 31.0401 0.771051 -1.3745 0
M  V30 347 C 32.2651 1.56529 -1.36065 0
M  V30 348 C 32.6901 1.88029 0.0515859 0
M  V30 349 O 32.0481 1.49282 1.02882 0
M  V30 350 C 32.0961 2.85187 -2.20683 0
M  V30 351 O 31.2001 3.79593 -1.61193 0
M  V30 352 H 30.5411 0.47411 -0.464883 0
M  V30 353 H 33.0711 0.954269 -1.80983 0
M  V30 354 H 33.0811 3.34283 -2.33921 0
M  V30 355 H 31.7561 2.61588 -3.23334 0
M  V30 356 H 30.3331 3.38239 -1.56999 0
M  V30 357 N 32.5182 1.22032 0.997298 0
M  V30 358 C 33.7672 1.03637 1.73038 0
M  V30 359 C 34.0802 -0.429475 1.90827 0
M  V30 360 O 35.2862 -0.732995 2.61418 0
M  V30 361 C 33.7422 1.80582 3.11317 0
M  V30 362 C 33.3502 3.31387 3.01474 0
M  V30 363 C 35.0942 1.70621 3.88701 0
M  V30 364 C 33.0012 4.00791 4.3488 0
M  V30 365 H 31.9312 0.384179 0.648785 0
M  V30 366 H 34.5822 1.4584 1.11368 0
M  V30 367 H 32.9642 1.31175 3.73643 0
M  V30 368 H 34.1382 3.88155 2.4834 0
M  V30 369 H 32.4532 3.41976 2.37575 0
M  V30 370 H 35.0502 2.19799 4.87434 0
M  V30 371 H 35.3932 0.665823 4.10941 0
M  V30 372 H 35.9262 2.17547 3.33044 0
M  V30 373 H 32.6652 5.05064 4.1784 0
M  V30 374 H 32.1852 3.48811 4.87945 0
M  V30 375 H 33.8642 4.06139 5.03647 0
M  V30 376 N 33.9963 -1.19345 1.0293 0
M  V30 377 C 35.2423 -1.89318 0.727083 0
M  V30 378 C 35.5753 -1.79446 -0.742483 0
M  V30 379 O 34.8503 -1.1871 -1.54072 0
M  V30 380 C 35.1333 -3.40238 1.17942 0
M  V30 381 C 34.9863 -3.58979 2.71024 0
M  V30 382 C 36.3053 -4.33479 0.760548 0
M  V30 383 H 33.4243 -0.687475 0.265606 0
M  V30 384 H 36.0663 -1.40477 1.2793 0
M  V30 385 H 34.2163 -3.81964 0.709608 0
M  V30 386 H 35.8883 -3.26421 3.25955 0
M  V30 387 H 34.1313 -3.02018 3.11396 0
M  V30 388 H 34.8023 -4.64823 2.9773 0
M  V30 389 H 37.2783 -3.99469 1.16464 0
M  V30 390 H 36.1543 -5.37664 1.10493 0
M  V30 391 H 36.4153 -4.40813 -0.337063 0
M  V30 392 N 35.4744 -0.807222 -1.35358 0
M  V30 393 C 36.4374 -0.223665 -2.28106 0
M  V30 394 C 37.4374 0.589354 -1.4961 0
M  V30 395 O 38.6274 0.407745 -1.69361 0
M  V30 396 C 35.7594 0.688149 -3.33882 0
M  V30 397 H 36.9524 -1.04169 -2.81227 0
M  V30 398 H 34.5054 -0.577921 -1.45223 0
M  V30 399 H 35.2404 1.52984 -2.85948 0
M  V30 400 H 35.0254 0.10687 -3.91954 0
M  V30 401 H 36.5154 1.09075 -4.03104 0
M  V30 402 N 36.9525 1.47285 -0.560781 0
M  V30 403 C 37.9005 2.31756 0.197942 0
M  V30 404 C 38.8945 1.43146 0.905854 0
M  V30 405 O 40.1005 1.59891 0.826733 0
M  V30 406 H 36.4755 0.747438 0.0827049 0
M  V30 407 H 38.4465 2.9359 -0.533629 0
M  V30 408 C 37.1955 3.25874 1.21249 0
M  V30 409 H 36.5185 3.94023 0.67719 0
M  V30 410 H 37.9585 3.87803 1.71419 0
M  V30 411 C 36.4175 2.49651 2.26221 0
M  V30 412 O 36.9475 2.24355 3.33208 0
M  V30 413 N 35.1535 2.10597 2.00243 0
M  V30 414 H 34.7005 2.31369 1.13252 0
M  V30 415 H 34.6585 1.59913 2.70694 0
M  V30 416 N 38.4306 0.297415 1.54768 0
M  V30 417 C 39.6786 -0.312295 1.99673 0
M  V30 418 C 39.9996 -1.54686 1.18732 0
M  V30 419 O 39.2696 -1.93854 0.282382 0
M  V30 420 H 37.8496 -0.118381 0.73756 0
M  V30 421 H 40.5116 0.407915 1.90583 0
M  V30 422 H 39.6076 -0.586813 3.06534 0
M  V30 423 N 39.9087 -1.5758 0.0250728 0
M  V30 424 C 40.8557 -2.09973 -0.958129 0
M  V30 425 C 41.8257 -1.00085 -1.3256 0
M  V30 426 O 43.0107 -1.27481 -1.41962 0
M  V30 427 C 40.1507 -2.62812 -2.2366 0
M  V30 428 C 39.2637 -3.86693 -1.92594 0
M  V30 429 C 38.3987 -4.27941 -3.14707 0
M  V30 430 C 37.4377 -5.44591 -2.79442 0
M  V30 431 N 36.5747 -5.81014 -3.94167 0
M  V30 432 H 41.4147 -2.937 -0.504428 0
M  V30 433 H 38.9517 -1.45172 -0.237392 0
M  V30 434 H 40.9097 -2.91536 -2.98434 0
M  V30 435 H 39.5397 -1.81922 -2.66654 0
M  V30 436 H 38.5917 -3.64723 -1.0808 0
M  V30 437 H 39.9037 -4.71547 -1.62619 0
M  V30 438 H 39.0577 -4.58079 -3.97804 0
M  V30 439 H 37.7967 -3.41845 -3.4784 0
M  V30 440 H 36.8017 -5.1415 -1.94755 0
M  V30 441 H 38.0267 -6.32382 -2.47528 0
M  V30 442 H 35.9727 -4.97874 -4.2715 0
M  V30 443 H 35.8897 -6.60498 -3.67801 0
M  V30 444 H 37.1577 -6.15756 -4.7798 0
M  V30 445 N 41.3868 0.248026 -1.55636 0
M  V30 446 C 42.6348 0.974295 -1.77065 0
M  V30 447 C 42.9558 1.85897 -0.588849 0
M  V30 448 O 42.2258 1.91868 0.395407 0
M  V30 449 H 40.8058 0.362733 -0.653019 0
M  V30 450 H 43.4678 0.266244 -1.93073 0
M  V30 451 H 42.5638 1.59667 -2.68166 0
M  V30 452 N 42.8649 1.48995 0.513639 0
M  V30 453 C 44.1139 1.57093 1.2651 0
M  V30 454 C 44.4269 0.257091 1.93903 0
M  V30 455 O 45.6329 0.216478 2.70636 0
M  V30 456 C 44.0889 2.77118 2.29638 0
M  V30 457 C 43.6969 4.15209 1.68241 0
M  V30 458 C 45.4409 2.94538 3.05692 0
M  V30 459 C 43.3479 5.26474 2.69406 0
M  V30 460 H 42.2779 0.584876 0.475854 0
M  V30 461 H 44.9289 1.7536 0.540487 0
M  V30 462 H 43.3109 2.52319 3.05207 0
M  V30 463 H 44.4849 4.50094 0.987505 0
M  V30 464 H 42.7999 4.03042 1.04623 0
M  V30 465 H 45.3969 3.74832 3.8132 0
M  V30 466 H 45.7399 2.04614 3.62545 0
M  V30 467 H 46.2729 3.19316 2.37238 0
M  V30 468 H 43.0119 6.18417 2.17351 0
M  V30 469 H 42.5319 4.96058 3.37175 0
M  V30 470 H 44.2109 5.55277 3.32078 0
M  V30 471 N 44.343 -0.763751 1.37857 0
M  V30 472 C 45.273 -1.89103 1.36975 0
M  V30 473 C 46.254 -1.68439 0.237152 0
M  V30 474 O 47.439 -1.8918 0.438713 0
M  V30 475 C 44.569 -3.26496 1.18395 0
M  V30 476 C 43.523 -3.61741 2.28751 0
M  V30 477 C 42.849 -4.97762 1.95286 0
M  V30 478 C 44.149 -3.67665 3.70972 0
M  V30 479 H 45.843 -1.90099 2.31307 0
M  V30 480 H 43.389 -0.91319 1.11341 0
M  V30 481 H 45.342 -4.05003 1.16406 0
M  V30 482 H 44.066 -3.25955 0.205215 0
M  V30 483 H 42.725 -2.85547 2.29909 0
M  V30 484 H 42.373 -4.93769 0.959221 0
M  V30 485 H 42.073 -5.22313 2.69189 0
M  V30 486 H 43.597 -5.7866 1.94898 0
M  V30 487 H 45.011 -4.36307 3.719 0
M  V30 488 H 43.408 -4.03718 4.43995 0
M  V30 489 H 44.478 -2.68134 4.0402 0
M  V30 490 N 45.8211 -1.22559 -0.990812 0
M  V30 491 C 46.7841 -0.998863 -2.0629 0
M  V30 492 C 47.7841 0.0354834 -1.60761 0
M  V30 493 O 48.9741 -0.203231 -1.7301 0
M  V30 494 C 46.1061 -0.509203 -3.37076 0
M  V30 495 H 47.2991 -1.95014 -2.27837 0
M  V30 496 H 44.8521 -1.04456 -1.16269 0
M  V30 497 H 45.5871 0.446335 -3.21214 0
M  V30 498 H 45.3721 -1.25547 -3.71457 0
M  V30 499 H 46.8621 -0.370888 -4.1595 0
M  V30 500 N 47.2992 1.18797 -1.03562 0
M  V30 501 C 48.2622 2.20464 -0.626769 0
M  V30 502 C 49.2622 1.57721 0.313173 0
M  V30 503 O 50.4522 1.73917 0.0992615 0
M  V30 504 C 47.5842 3.40802 0.0818498 0
M  V30 505 H 48.7772 2.58149 -1.5264 0
M  V30 506 H 46.3302 1.32593 -0.827578 0
M  V30 507 H 47.0652 3.08642 0.995518 0
M  V30 508 H 46.8502 3.8758 -0.593652 0
M  V30 509 H 48.3402 4.16092 0.354584 0
M  V30 510 N 48.7773 0.814389 1.34928 0
M  V30 511 C 50.0543 0.321363 1.92942 0
M  V30 512 C 50.4343 -1.19014 1.74353 0
M  V30 513 O 49.7823 -1.99328 1.11716 0
M  V30 514 C 49.9923 0.741323 3.41036 0
M  V30 515 C 51.3403 0.735266 4.18185 0
M  V30 516 O 52.3643 0.68336 3.49584 0
M  V30 517 O 51.2233 0.800703 5.40602 0
M  V30 518 H 48.3173 0.0858893 0.822528 0
M  V30 519 H 50.8633 0.898609 1.43955 0
M  V30 520 H 49.6353 1.78276 3.4833 0
M  V30 521 H 49.2583 0.139307 3.97356 0
M  V30 522 N 50.2554 -1.46986 0.568584 0
M  V30 523 C 51.1654 -2.33942 -0.17555 0
M  V30 524 C 52.1814 -1.48891 -0.90041 0
M  V30 525 O 53.3574 -1.81794 -0.86676 0
M  V30 526 C 50.4224 -3.25811 -1.18524 0
M  V30 527 C 49.4834 -4.26757 -0.466582 0
M  V30 528 C 48.7164 -5.14236 -1.42817 0
M  V30 529 O 48.9394 -5.04379 -2.66379 0
M  V30 530 O 47.8734 -5.94412 -0.946453 0
M  V30 531 H 51.6994 -2.98896 0.538036 0
M  V30 532 H 49.2844 -1.4573 0.329097 0
M  V30 533 H 51.1664 -3.82527 -1.76779 0
M  V30 534 H 49.8414 -2.63471 -1.88055 0
M  V30 535 H 48.7484 -3.73769 0.157451 0
M  V30 536 H 50.0814 -4.91843 0.187485 0
M  V30 537 N 51.7335 -0.305618 -1.54608 0
M  V30 538 C 52.9585 0.307562 -2.05107 0
M  V30 539 C 53.3835 1.46385 -1.18123 0
M  V30 540 O 52.7415 1.8034 -0.186324 0
M  V30 541 C 52.7895 0.73704 -3.52987 0
M  V30 542 O 51.8935 1.84134 -3.6901 0
M  V30 543 H 51.2345 0.0589143 -0.661381 0
M  V30 544 H 53.7645 -0.448807 -1.99617 0
M  V30 545 H 53.7745 1.02459 -3.94925 0
M  V30 546 H 52.4495 -0.108773 -4.15758 0
M  V30 547 H 51.0265 1.55398 -3.38978 0
M  V30 548 N 53.2116 1.57565 -0.0334293 0
M  V30 549 C 54.4576 1.92262 0.645226 0
M  V30 550 C 54.7906 0.910543 1.71531 0
M  V30 551 O 54.0656 -0.066099 1.94388 0
M  V30 552 C 54.3486 3.37422 1.2577 0
M  V30 553 C 54.2016 4.49369 0.196891 0
M  V30 554 C 55.5206 3.82628 2.17449 0
M  V30 555 H 52.6396 0.699171 0.233085 0
M  V30 556 H 55.2816 1.89779 -0.0915694 0
M  V30 557 H 53.4316 3.39669 1.88566 0
M  V30 558 H 55.1036 4.59254 -0.433962 0
M  V30 559 H 53.3466 4.31168 -0.477137 0
M  V30 560 H 54.0176 5.47978 0.665124 0
M  V30 561 H 56.4936 3.82145 1.64634 0
M  V30 562 H 55.3696 4.84883 2.57254 0
M  V30 563 H 55.6306 3.18376 3.0674 0
M  V30 564 N 54.6897 -0.239769 1.55765 0
M  V30 565 C 55.9377 -0.964892 1.77579 0
M  V30 566 C 56.2587 -1.85582 0.598699 0
M  V30 567 O 55.5287 -1.92075 -0.385226 0
M  V30 568 H 54.1087 -0.359265 0.654933 0
M  V30 569 H 56.7707 -0.256001 1.93211 0
M  V30 570 H 55.8667 -1.58243 2.69009 0
M  V30 571 N 56.1678 -1.49265 -0.50573 0
M  V30 572 C 57.3958 -1.62215 -1.28429 0
M  V30 573 C 57.8108 -0.291697 -1.86533 0
M  V30 574 O 57.1678 0.722233 -1.67601 0
M  V30 575 C 57.2188 -2.68735 -2.41793 0
M  V30 576 O 56.9398 -3.96619 -1.86078 0
M  V30 577 C 58.4408 -2.92346 -3.3324 0
M  V30 578 H 55.6608 -0.546239 -0.389697 0
M  V30 579 H 58.2048 -1.95265 -0.607609 0
M  V30 580 H 56.3598 -2.38476 -3.053 0
M  V30 581 H 56.7738 -4.55256 -2.60465 0
M  V30 582 H 58.2478 -3.70623 -4.09075 0
M  V30 583 H 58.7248 -2.02081 -3.89948 0
M  V30 584 H 59.3308 -3.24003 -2.75503 0
M  V30 585 N 57.6459 0.756429 -1.3826 0
M  V30 586 C 58.5789 1.87802 -1.29637 0
M  V30 587 C 59.5569 1.61667 -0.173939 0
M  V30 588 O 60.7409 1.85208 -0.350775 0
M  V30 589 C 57.8679 3.23354 -1.00797 0
M  V30 590 C 56.9139 3.68379 -2.14939 0
M  V30 591 S 57.7469 3.8025 -3.77054 0
M  V30 592 C 58.9029 5.18626 -3.50396 0
M  V30 593 H 59.1359 1.94829 -2.24564 0
M  V30 594 H 56.6689 0.919117 -1.24063 0
M  V30 595 H 58.6269 4.01637 -0.848413 0
M  V30 596 H 57.2879 3.14008 -0.0759369 0
M  V30 597 H 56.4809 4.66693 -1.90299 0
M  V30 598 H 56.0829 2.97242 -2.26988 0
M  V30 599 H 58.3749 6.04289 -3.06334 0
M  V30 600 H 59.3179 5.48286 -4.48094 0
M  V30 601 H 59.7259 4.87289 -2.84973 0
M  V30 602 N 59.124 1.23083 0.984299 0
M  V30 603 C 60.372 1.05848 1.72165 0
M  V30 604 C 60.693 -0.406049 1.90726 0
M  V30 605 O 59.963 -1.29139 1.47309 0
M  V30 606 H 58.543 0.388685 0.637913 0
M  V30 607 H 61.205 1.54736 1.18503 0
M  V30 608 H 60.301 1.54327 2.71274 0
M  V30 609 N 60.6021 -1.18246 1.0419 0
M  V30 610 C 61.5501 -2.23968 0.627792 0
M  V30 611 C 62.5441 -1.65828 -0.346019 0
M  V30 612 O 63.7501 -1.78733 -0.213175 0
M  V30 613 H 60.1251 -0.728939 0.184802 0
M  V30 614 H 62.0961 -2.56202 1.52981 0
M  V30 615 C 60.8451 -3.47699 0.00796591 0
M  V30 616 H 60.1681 -3.92734 0.748347 0
M  V30 617 H 61.6081 -4.23294 -0.24455 0
M  V30 618 C 60.0671 -3.13153 -1.24246 0
M  V30 619 O 60.5971 -3.27003 -2.33307 0
M  V30 620 N 58.8031 -2.67467 -1.13622 0
M  V30 621 H 58.3501 -2.56396 -0.248734 0
M  V30 622 H 58.3081 -2.44724 -1.97377 0
M  V30 623 N 62.0802 -0.821533 -1.34494 0
M  V30 624 C 63.4962 -0.507117 -1.51329 0
M  V30 625 C 63.6962 0.968964 -1.76673 0
M  V30 626 O 62.7522 1.75348 -1.81685 0
M  V30 627 C 64.0652 -1.36544 -2.67911 0
M  V30 628 C 65.6132 -1.36242 -2.81793 0
M  V30 629 C 66.0882 -2.2052 -4.01416 0
M  V30 630 N 67.5792 -2.18136 -4.08621 0
M  V30 631 C 68.3142 -2.80095 -5.00334 0
M  V30 632 N 67.8102 -3.51039 -5.9728 0
M  V30 633 N 69.6032 -2.69656 -4.93196 0
M  V30 634 H 61.7542 -1.77729 -1.16302 0
M  V30 635 H 64.0172 -0.757291 -0.570276 0
M  V30 636 H 63.7232 -2.41361 -2.55808 0
M  V30 637 H 63.5972 -1.02917 -3.62888 0
M  V30 638 H 65.9842 -0.322041 -2.93338 0
M  V30 639 H 66.0652 -1.73866 -1.87628 0
M  V30 640 H 65.7092 -3.24607 -3.90631 0
M  V30 641 H 65.6392 -1.80247 -4.94791 0
M  V30 642 H 68.1302 -1.6653 -3.39229 0
M  V30 643 H 68.4432 -3.95565 -6.63889 0
M  V30 644 H 66.7882 -3.55145 -5.97409 0
M  V30 645 H 69.9792 -2.13808 -4.16418 0
M  V30 646 H 70.1522 -3.1823 -5.64476 0
M  V30 647 N 63.5583 1.46682 -0.576371 0
M  V30 648 C 64.4883 2.33028 0.148397 0
M  V30 649 C 65.4693 1.44961 0.889956 0
M  V30 650 O 66.6543 1.73789 0.866662 0
M  V30 651 C 63.7843 3.27117 1.1667 0
M  V30 652 C 62.7383 4.24575 0.540386 0
M  V30 653 C 62.0643 5.08126 1.6647 0
M  V30 654 C 63.3643 5.19722 -0.518331 0
M  V30 655 H 65.0583 2.93875 -0.572509 0
M  V30 656 H 62.6043 1.41315 -0.276768 0
M  V30 657 H 64.5573 3.86374 1.68204 0
M  V30 658 H 63.2813 2.64364 1.9178 0
M  V30 659 H 61.9403 3.66571 0.0461769 0
M  V30 660 H 61.5883 4.41762 2.40531 0
M  V30 661 H 61.2883 5.74122 1.25131 0
M  V30 662 H 62.8123 5.70246 2.18293 0
M  V30 663 H 64.2263 5.73232 -0.0883058 0
M  V30 664 H 62.6233 5.94026 -0.851679 0
M  V30 665 H 63.6933 4.64037 -1.40703 0
M  V30 666 N 65.0364 0.313813 1.54444 0
M  V30 667 C 65.9684 -0.590425 2.21465 0
M  V30 668 C 66.9814 -1.08753 1.21147 0
M  V30 669 O 68.1704 -1.00278 1.4767 0
M  V30 670 C 65.2704 -1.82179 2.85769 0
M  V30 671 C 64.4434 -1.46502 4.12136 0
M  V30 672 C 63.5024 -2.55288 4.60124 0
M  V30 673 O 62.5284 -2.19842 5.25032 0
M  V30 674 N 63.7304 -3.86053 4.33525 0
M  V30 675 H 66.4954 -0.0166033 2.99695 0
M  V30 676 H 64.0564 0.136578 1.61323 0
M  V30 677 H 66.0484 -2.54328 3.14801 0
M  V30 678 H 64.6184 -2.30369 2.11303 0
M  V30 679 H 63.8384 -0.575595 3.89975 0
M  V30 680 H 65.1264 -1.20221 4.94393 0
M  V30 681 H 64.5244 -4.17654 3.81552 0
M  V30 682 H 63.0814 -4.54461 4.67235 0
M  V30 683 N 66.5145 -1.57545 0.0417849 0
M  V30 684 C 67.9305 -1.56467 -0.314704 0
M  V30 685 C 68.1305 -1.04859 -1.72066 0
M  V30 686 O 67.1865 -0.700983 -2.42575 0
M  V30 687 C 68.4995 -3.00317 -0.15174 0
M  V30 688 C 70.0475 -3.12201 -0.223553 0
M  V30 689 C 70.5225 -4.57913 -0.0892295 0
M  V30 690 N 72.0135 -4.6297 -0.145808 0
M  V30 691 C 72.7485 -5.73362 -0.0658459 0
M  V30 692 N 72.2445 -6.92769 0.0659282 0
M  V30 693 N 74.0375 -5.6197 -0.12075 0
M  V30 694 H 66.1885 -1.89416 0.961014 0
M  V30 695 H 68.4515 -0.871862 0.372237 0
M  V30 696 H 68.1575 -3.42073 0.817254 0
M  V30 697 H 68.0315 -3.65892 -0.916692 0
M  V30 698 H 70.4185 -2.70349 -1.18301 0
M  V30 699 H 70.4995 -2.49323 0.571994 0
M  V30 700 H 70.1435 -5.00448 0.866867 0
M  V30 701 H 70.0735 -5.18786 -0.903802 0
M  V30 702 H 72.5645 -3.7709 -0.247286 0
M  V30 703 H 72.8775 -7.72707 0.119905 0
M  V30 704 H 71.2225 -6.94927 0.100885 0
M  V30 705 H 74.4135 -4.67572 -0.222187 0
M  V30 706 H 74.5865 -6.47977 -0.0549735 0
M  V30 707 N 67.9926 0.231505 -1.5589 0
M  V30 708 C 69.2416 0.955346 -1.7764 0
M  V30 709 C 69.5546 1.85893 -0.608546 0
M  V30 710 O 70.7606 2.62067 -0.70943 0
M  V30 711 C 69.2166 1.74886 -3.14552 0
M  V30 712 C 68.8246 0.891915 -4.39032 0
M  V30 713 C 70.5686 2.46452 -3.45633 0
M  V30 714 C 68.4756 1.68221 -5.66971 0
M  V30 715 H 67.4056 0.360446 -0.662265 0
M  V30 716 H 70.0566 0.209516 -1.823 0
M  V30 717 H 68.4386 2.53723 -3.04041 0
M  V30 718 H 69.6126 0.144793 -4.60572 0
M  V30 719 H 67.9276 0.288863 -4.15397 0
M  V30 720 H 70.5246 3.06061 -4.38441 0
M  V30 721 H 70.8676 3.18841 -2.67668 0
M  V30 722 H 71.4006 1.74613 -3.57428 0
M  V30 723 H 68.1396 1.00178 -6.478 0
M  V30 724 H 67.6596 2.4042 -5.49507 0
M  V30 725 H 69.3386 2.24544 -6.06786 0
M  V30 726 N 69.4707 1.49531 0.497807 0
M  V30 727 C 70.4177 1.66436 1.59899 0
M  V30 728 C 71.3877 0.505793 1.58212 0
M  V30 729 O 72.5727 0.733202 1.7615 0
M  V30 730 C 69.7127 1.7399 2.98029 0
M  V30 731 C 68.8257 3.01172 3.09708 0
M  V30 732 C 67.9607 2.99686 4.38591 0
M  V30 733 C 66.9997 4.21434 4.43914 0
M  V30 734 N 66.1367 4.1784 5.64229 0
M  V30 735 H 70.9767 2.60459 1.44793 0
M  V30 736 H 68.5137 1.29137 0.704423 0
M  V30 737 H 70.4717 1.76352 3.78095 0
M  V30 738 H 69.1017 0.834301 3.11832 0
M  V30 739 H 68.1537 3.08408 2.22685 0
M  V30 740 H 69.4657 3.91165 3.09502 0
M  V30 741 H 68.6197 3.00628 5.2698 0
M  V30 742 H 67.3587 2.07477 4.41367 0
M  V30 743 H 66.3637 4.20733 3.53926 0
M  V30 744 H 67.5887 5.14839 4.42851 0
M  V30 745 H 65.5347 3.28469 5.67841 0
M  V30 746 H 65.4517 5.01571 5.65652 0
M  V30 747 H 66.7197 4.22889 6.54817 0
M  V30 748 N 70.9488 -0.749086 1.3866 0
M  V30 749 C 72.1948 -1.51056 1.35314 0
M  V30 750 C 72.5278 -1.94121 -0.0553751 0
M  V30 751 O 71.8028 -1.65763 -1.01749 0
M  V30 752 C 72.0858 -2.76003 2.31288 0
M  V30 753 C 71.9388 -2.39047 3.8102 0
M  V30 754 C 73.2578 -3.78046 2.2532 0
M  V30 755 H 70.3768 -0.547972 0.492844 0
M  V30 756 H 73.0188 -0.857628 1.69543 0
M  V30 757 H 71.1688 -3.31716 2.02229 0
M  V30 758 H 72.8408 -1.89074 4.20771 0
M  V30 759 H 71.0838 -1.71449 3.98482 0
M  V30 760 H 71.7548 -3.28462 4.4364 0
M  V30 761 H 74.2308 -3.31884 2.50983 0
M  V30 762 H 73.1068 -4.63159 2.94576 0
M  V30 763 H 73.3678 -4.23957 1.25352 0
M  V30 764 N 72.4269 -1.23603 -0.977757 0
M  V30 765 C 73.3369 -1.03632 -2.1047 0
M  V30 766 C 74.3529 0.0199435 -1.73989 0
M  V30 767 O 75.5289 -0.176076 -2.00629 0
M  V30 768 C 72.5939 -0.63276 -3.40877 0
M  V30 769 C 71.6549 -1.76437 -3.91367 0
M  V30 770 C 70.8879 -1.37997 -5.15551 0
M  V30 771 O 71.1109 -0.265357 -5.69782 0
M  V30 772 O 70.0449 -2.20201 -5.60174 0
M  V30 773 H 73.8709 -1.98086 -2.30208 0
M  V30 774 H 71.4559 -1.02332 -1.08851 0
M  V30 775 H 73.3379 -0.418761 -4.19314 0
M  V30 776 H 72.0129 0.282754 -3.22463 0
M  V30 777 H 70.9199 -2.03304 -3.14036 0
M  V30 778 H 72.2529 -2.6583 -4.14241 0
M  V30 779 N 73.905 1.17692 -1.04816 0
M  V30 780 C 74.853 2.23632 -0.63966 0
M  V30 781 C 75.847 1.6601 0.337219 0
M  V30 782 O 77.053 1.78844 0.203693 0
M  V30 783 H 73.428 0.727949 -0.188665 0
M  V30 784 H 75.399 2.55387 -1.54337 0
M  V30 785 C 74.148 3.4769 -0.0264051 0
M  V30 786 H 73.471 3.92331 -0.769164 0
M  V30 787 H 74.911 4.23418 0.222098 0
M  V30 788 C 73.37 3.13807 1.22584 0
M  V30 789 O 73.9 3.28236 2.31569 0
M  V30 790 N 72.106 2.68065 1.12202 0
M  V30 791 H 71.653 2.56525 0.235133 0
M  V30 792 H 71.611 2.45767 1.96076 0
M  V30 793 N 75.3831 0.828654 1.34056 0
M  V30 794 C 76.6111 0.43262 2.02326 0
M  V30 795 C 77.0261 -0.963147 1.62385 0
M  V30 796 O 76.3831 -1.62425 0.832121 0
M  V30 797 C 76.4341 0.53182 3.57567 0
M  V30 798 O 76.1551 1.87258 3.96063 0
M  V30 799 C 77.6561 0.131422 4.43105 0
M  V30 800 H 74.8761 0.172923 0.648335 0
M  V30 801 H 77.4201 1.1184 1.71208 0
M  V30 802 H 75.5751 -0.105938 3.87255 0
M  V30 803 H 75.9891 1.85087 4.90758 0
M  V30 804 H 77.4631 0.251904 5.51425 0
M  V30 805 H 77.9401 -0.925645 4.29335 0
M  V30 806 H 78.5461 0.743207 4.18756 0
M  V30 807 N 76.8612 -1.46375 0.584142 0
M  V30 808 C 77.7712 -2.34115 -0.150728 0
M  V30 809 C 78.7872 -1.49838 -0.884567 0
M  V30 810 O 79.9632 -1.82704 -0.847429 0
M  V30 811 C 77.0282 -3.2705 -1.15062 0
M  V30 812 C 76.0892 -4.27228 -0.421293 0
M  V30 813 C 75.3222 -5.15722 -1.37355 0
M  V30 814 O 75.5452 -5.07176 -2.61014 0
M  V30 815 O 74.4792 -5.95383 -0.883355 0
M  V30 816 H 78.3052 -2.98309 0.569708 0
M  V30 817 H 75.8902 -1.45373 0.344535 0
M  V30 818 H 77.7722 -3.84381 -1.72712 0
M  V30 819 H 76.4472 -2.65451 -1.8525 0
M  V30 820 H 75.3542 -3.7358 0.197085 0
M  V30 821 H 76.6872 -4.91616 0.239641 0
M  V30 822 N 78.3393 -0.321999 -1.54275 0
M  V30 823 C 79.2493 0.553631 -2.27974 0
M  V30 824 C 80.2653 1.13054 -1.32268 0
M  V30 825 O 81.4413 1.15084 -1.6528 0
M  V30 826 C 78.5063 1.69927 -3.02201 0
M  V30 827 C 77.5673 1.15433 -4.1349 0
M  V30 828 C 76.8003 2.24537 -4.84168 0
M  V30 829 O 77.0233 3.44852 -4.5435 0
M  V30 830 O 75.9573 1.90044 -5.7111 0
M  V30 831 H 79.7833 -0.0448345 -3.03667 0
M  V30 832 H 77.3683 -0.0877418 -1.49142 0
M  V30 833 H 79.2503 2.3663 -3.48689 0
M  V30 834 H 77.9253 2.28395 -2.29385 0
M  V30 835 H 76.8323 0.452436 -3.71354 0
M  V30 836 H 78.1653 0.614805 -4.88345 0
M  V30 837 N 79.8174 1.5752 -0.0501392 0
M  V30 838 C 80.7654 2.12651 0.942459 0
M  V30 839 C 81.7594 1.05807 1.32292 0
M  V30 840 O 82.9654 1.24217 1.3027 0
M  V30 841 H 79.3404 0.679673 0.321789 0
M  V30 842 H 81.3114 2.94951 0.452356 0
M  V30 843 C 80.0604 2.68565 2.20836 0
M  V30 844 H 79.3834 3.50439 1.92439 0
M  V30 845 H 80.8234 3.10761 2.8845 0
M  V30 846 C 79.2824 1.62291 2.95234 0
M  V30 847 O 79.8124 1.03508 3.88135 0
M  V30 848 N 78.0184 1.33836 2.57946 0
M  V30 849 H 77.5654 1.81826 1.82475 0
M  V30 850 H 77.5234 0.629595 3.08032 0
M  V30 851 N 81.2955 -0.223234 1.56011 0
M  V30 852 C 82.7115 -0.572856 1.48965 0
M  V30 853 C 82.9115 -1.87225 0.74492 0
M  V30 854 O 81.9675 -2.50899 0.283896 0
M  V30 855 C 83.2805 -0.653646 2.9351 0
M  V30 856 C 84.8285 -0.744386 3.0402 0
M  V30 857 C 85.3035 -0.856535 4.49919 0
M  V30 858 N 86.7945 -0.9208 4.53955 0
M  V30 859 C 87.5295 -1.02726 5.64123 0
M  V30 860 N 87.0255 -1.09777 6.84047 0
M  V30 861 N 88.8185 -1.06226 5.51971 0
M  V30 862 H 80.9695 0.629462 2.02858 0
M  V30 863 H 83.2325 0.220621 0.921971 0
M  V30 864 H 82.9385 0.231518 3.50937 0
M  V30 865 H 82.8125 -1.51781 3.45315 0
M  V30 866 H 85.1995 -1.61999 2.46658 0
M  V30 867 H 85.2805 0.14541 2.55386 0
M  V30 868 H 84.9245 0.0146069 5.07898 0
M  V30 869 H 84.8545 -1.76172 4.96257 0
M  V30 870 H 87.3455 -0.876694 3.6759 0
M  V30 871 H 87.6585 -1.17872 7.63758 0
M  V30 872 H 86.0035 -1.06693 6.86762 0
M  V30 873 H 89.1945 -1.00382 4.5721 0
M  V30 874 H 89.3675 -1.14177 6.37862 0
M  V30 875 N 82.7736 -1.49793 -0.48987 0
M  V30 876 C 84.1896 -1.36803 -0.822022 0
M  V30 877 C 84.3896 -0.409652 -1.97292 0
M  V30 878 O 83.4456 0.154614 -2.52026 0
M  V30 879 C 84.7586 -2.77768 -1.15175 0
M  V30 880 C 86.3066 -2.86549 -1.25931 0
M  V30 881 C 86.7816 -4.28306 -1.62228 0
M  V30 882 N 88.2726 -4.31169 -1.69256 0
M  V30 883 C 89.0076 -5.37832 -1.98807 0
M  V30 884 N 88.5036 -6.54726 -2.26507 0
M  V30 885 N 90.2966 -5.25258 -2.00152 0
M  V30 886 H 82.4476 -2.10691 0.268881 0
M  V30 887 H 84.7106 -0.946241 0.057728 0
M  V30 888 H 84.4166 -3.49648 -0.379335 0
M  V30 889 H 84.2906 -3.13836 -2.09253 0
M  V30 890 H 86.6776 -2.14899 -2.02243 0
M  V30 891 H 86.7586 -2.54049 -0.298776 0
M  V30 892 H 86.4026 -5.00486 -0.864622 0
M  V30 893 H 86.3326 -4.58279 -2.594 0
M  V30 894 H 88.8236 -3.4687 -1.49965 0
M  V30 895 H 89.1366 -7.31833 -2.48276 0
M  V30 896 H 87.4816 -6.57933 -2.23939 0
M  V30 897 H 90.6726 -4.32938 -1.77996 0
M  V30 898 H 90.8456 -6.08476 -2.22848 0
M  V30 899 N 84.2517 0.741722 -1.39055 0
M  V30 900 C 85.1837 1.8657 -1.33133 0
M  V30 901 C 86.1967 1.61001 -0.241329 0
M  V30 902 O 87.3857 1.7136 -0.499784 0
M  V30 903 C 84.4857 3.22457 -1.04283 0
M  V30 904 C 83.6587 3.75435 -2.24427 0
M  V30 905 C 82.7177 4.89867 -1.92138 0
M  V30 906 O 81.7437 5.03879 -2.64754 0
M  V30 907 N 82.9457 5.73738 -0.88347 0
M  V30 908 H 85.7107 1.92156 -2.29991 0
M  V30 909 H 83.2717 0.922172 -1.3307 0
M  V30 910 H 85.2637 3.9657 -0.807128 0
M  V30 911 H 83.8337 3.12181 -0.161807 0
M  V30 912 H 83.0537 2.92751 -2.6399 0
M  V30 913 H 84.3417 4.07563 -3.04581 0
M  V30 914 H 83.7397 5.64999 -0.281517 0
M  V30 915 H 82.2967 6.47947 -0.707662 0
M  V30 916 N 85.7298 1.2412 0.971189 0
M  V30 917 C 86.9768 1.07881 1.71371 0
M  V30 918 C 87.3048 -0.382901 1.90694 0
M  V30 919 O 86.5598 -1.29945 1.46331 0
M  V30 920 C 86.8588 1.75983 3.11071 0
M  V30 921 C 86.5248 3.25909 3.11599 0
M  V30 922 C 85.1868 3.66813 3.11451 0
M  V30 923 C 87.5388 4.21771 3.062 0
M  V30 924 C 84.8668 5.02021 3.03631 0
M  V30 925 C 87.2188 5.56982 2.99923 0
M  V30 926 C 85.8828 5.97237 2.98102 0
M  V30 927 H 85.1528 0.394764 0.62709 0
M  V30 928 H 87.7998 1.54176 1.13587 0
M  V30 929 H 86.1048 1.22072 3.72298 0
M  V30 930 H 87.8018 1.60887 3.6731 0
M  V30 931 H 84.3918 2.93353 3.12477 0
M  V30 932 H 88.5758 3.91172 3.05447 0
M  V30 933 H 83.8318 5.32411 3.0058 0
M  V30 934 H 88.0058 6.30969 2.94704 0
M  V30 935 H 85.6328 7.01967 2.91798 0
M  V30 936 N 87.2079 -1.17134 1.05439 0
M  V30 937 C 88.6239 -1.39454 0.776201 0
M  V30 938 C 88.8239 -1.91454 -0.628307 0
M  V30 939 O 87.8799 -2.10777 -1.39031 0
M  V30 940 C 89.1929 -2.38305 1.83388 0
M  V30 941 C 90.7409 -2.52006 1.85639 0
M  V30 942 C 91.2159 -3.54133 2.90437 0
M  V30 943 N 92.7069 -3.61653 2.89415 0
M  V30 944 C 93.4419 -4.4044 3.67152 0
M  V30 945 N 92.9379 -5.22721 4.54681 0
M  V30 946 N 94.7309 -4.35337 3.55581 0
M  V30 947 H 86.8819 -0.817134 1.96053 0
M  V30 948 H 89.1449 -0.421626 0.849079 0
M  V30 949 H 88.8509 -2.07173 2.84204 0
M  V30 950 H 88.7249 -3.37841 1.67761 0
M  V30 951 H 91.1119 -2.82447 0.85486 0
M  V30 952 H 91.1929 -1.52537 2.05344 0
M  V30 953 H 90.8369 -3.24431 3.90777 0
M  V30 954 H 90.7669 -4.53313 2.67983 0
M  V30 955 H 93.2579 -3.02909 2.25952 0
M  V30 956 H 93.5709 -5.80027 5.10674 0
M  V30 957 H 91.9159 -5.22093 4.58741 0
M  V30 958 H 95.1069 -3.70112 2.86592 0
M  V30 959 H 95.2799 -4.96494 4.1641 0
M  V30 960 N 88.686 -0.835752 -1.33615 0
M  V30 961 C 89.596 -0.269088 -2.33052 0
M  V30 962 C 90.612 0.603251 -1.63208 0
M  V30 963 O 91.788 0.508112 -1.94885 0
M  V30 964 C 88.853 0.549091 -3.42324 0
M  V30 965 C 87.914 -0.347156 -4.27894 0
M  V30 966 C 87.147 0.43207 -5.31948 0
M  V30 967 O 87.37 1.66409 -5.45586 0
M  V30 968 O 86.304 -0.192298 -6.01593 0
M  V30 969 H 90.13 -1.09243 -2.83372 0
M  V30 970 H 87.715 -0.598198 -1.36901 0
M  V30 971 H 89.597 1.01414 -4.09015 0
M  V30 972 H 88.272 1.34955 -2.94226 0
M  V30 973 H 87.179 -0.859979 -3.64081 0
M  V30 974 H 88.512 -1.1123 -4.79467 0
M  V30 975 N 90.1641 1.46063 -0.591896 0
M  V30 976 C 91.4131 2.01547 -0.0786637 0
M  V30 977 C 91.7261 1.46796 1.29268 0
M  V30 978 O 92.9321 1.94157 1.89777 0
M  V30 979 C 91.3881 3.59787 -0.0900024 0
M  V30 980 C 90.9961 4.23534 -1.46023 0
M  V30 981 C 92.7401 4.22895 0.368806 0
M  V30 982 C 90.6471 5.73881 -1.4288 0
M  V30 983 H 89.5771 0.753564 -0.0256388 0
M  V30 984 H 92.2281 1.677 -0.744905 0
M  V30 985 H 90.6101 3.90752 0.642586 0
M  V30 986 H 91.7841 4.04167 -2.21328 0
M  V30 987 H 90.0991 3.72558 -1.85982 0
M  V30 988 H 92.6961 5.33116 0.411258 0
M  V30 989 H 93.0391 3.9247 1.38827 0
M  V30 990 H 93.5721 3.9659 -0.31001 0
M  V30 991 H 90.3111 6.0898 -2.42536 0
M  V30 992 H 89.8311 5.95486 -0.718095 0
M  V30 993 H 91.5101 6.36776 -1.14565 0
M  V30 994 N 91.6422 0.330177 1.54103 0
M  V30 995 C 92.5722 -0.525353 2.27513 0
M  V30 996 C 93.5532 -1.11383 1.2856 0
M  V30 997 O 94.7382 -1.13773 1.57383 0
M  V30 998 C 91.8682 -1.6831 3.03791 0
M  V30 999 C 90.8222 -1.2236 4.10137 0
M  V30 1000 C 90.1482 -2.46882 4.74293 0
M  V30 1001 C 91.4482 -0.333697 5.21233 0
M  V30 1002 H 93.1422 0.087013 2.99274 0
M  V30 1003 H 90.6882 0.0432893 1.43935 0
M  V30 1004 H 92.6412 -2.28795 3.5388 0
M  V30 1005 H 91.3652 -2.32216 2.29659 0
M  V30 1006 H 90.0242 -0.64165 3.60941 0
M  V30 1007 H 89.6722 -3.09165 3.96769 0
M  V30 1008 H 89.3722 -2.16825 5.46133 0
M  V30 1009 H 90.8962 -3.08117 5.27159 0
M  V30 1010 H 92.3102 -0.845013 5.67038 0
M  V30 1011 H 90.7072 -0.125612 5.99969 0
M  V30 1012 H 91.7772 0.633724 4.80741 0
M  V30 1013 N 93.1203 -1.57491 0.0584922 0
M  V30 1014 C 94.3673 -1.92978 -0.613648 0
M  V30 1015 C 94.6953 -0.937461 -1.70417 0
M  V30 1016 O 93.9503 0.049078 -1.95638 0
M  V30 1017 C 94.2493 -3.3513 -1.24188 0
M  V30 1018 C 93.9153 -4.50037 -0.278826 0
M  V30 1019 C 92.5773 -4.81198 -0.0138447 0
M  V30 1020 C 94.9293 -5.19807 0.380777 0
M  V30 1021 C 92.2573 -5.79473 0.918052 0
M  V30 1022 C 94.6093 -6.19079 1.30091 0
M  V30 1023 C 93.2733 -6.48665 1.57449 0
M  V30 1024 H 92.5433 -0.706157 -0.22455 0
M  V30 1025 H 95.1903 -1.91082 0.126533 0
M  V30 1026 H 93.4953 -3.33429 -2.05749 0
M  V30 1027 H 95.1923 -3.59871 -1.769 0
M  V30 1028 H 91.7823 -4.25726 -0.495539 0
M  V30 1029 H 95.9663 -4.95939 0.189158 0
M  V30 1030 H 91.2223 -6.00727 1.1374 0
M  V30 1031 H 95.3963 -6.7225 1.81804 0
M  V30 1032 H 93.0233 -7.24628 2.29822 0
M  V30 1033 N 94.5984 0.214957 -1.56127 0
M  V30 1034 C 95.8234 0.95924 -1.83884 0
M  V30 1035 C 96.2484 1.7689 -0.639644 0
M  V30 1036 O 95.6064 1.76566 0.411601 0
M  V30 1037 C 95.6544 1.84723 -3.09693 0
M  V30 1038 O 94.7584 2.94346 -2.8885 0
M  V30 1039 H 94.0994 0.27125 -0.606069 0
M  V30 1040 H 96.6294 0.226276 -2.03345 0
M  V30 1041 H 96.6394 2.25576 -3.39969 0
M  V30 1042 H 95.3144 1.25218 -3.96602 0
M  V30 1043 H 93.8914 2.57391 -2.69823 0
M  V30 1044 N 96.0765 1.50051 0.48192 0
M  V30 1045 C 97.3225 1.60736 1.2366 0
M  V30 1046 C 97.6555 0.301786 1.91841 0
M  V30 1047 O 96.9305 -0.696025 1.8162 0
M  V30 1048 C 97.2135 2.78009 2.28874 0
M  V30 1049 C 97.0665 4.18416 1.65069 0
M  V30 1050 C 98.3855 2.90867 3.30279 0
M  V30 1051 H 95.5045 0.585031 0.448228 0
M  V30 1052 H 98.1465 1.82402 0.531946 0
M  V30 1053 H 96.2965 2.59667 2.88973 0
M  V30 1054 H 97.9685 4.48322 1.0865 0
M  V30 1055 H 96.2115 4.23177 0.954148 0
M  V30 1056 H 96.8825 4.96381 2.41474 0
M  V30 1057 H 99.3585 3.07623 2.80191 0
M  V30 1058 H 98.2345 3.74566 4.01238 0
M  V30 1059 H 98.4955 2.01021 3.93755 0
M  V30 1060 N 97.5546 -0.734337 1.39446 0
M  V30 1061 C 98.8316 -1.48579 1.27215 0
M  V30 1062 C 99.2116 -2.1077 -0.117968 0
M  V30 1063 O 98.5596 -1.98646 -1.12924 0
M  V30 1064 C 98.7696 -2.53667 2.39696 0
M  V30 1065 C 100.118 -3.20031 2.79044 0
M  V30 1066 O 101.142 -2.6398 2.39151 0
M  V30 1067 O 100.001 -4.21455 3.47905 0
M  V30 1068 H 97.0946 -0.659816 0.49857 0
M  V30 1069 H 99.6406 -0.768106 1.51322 0
M  V30 1070 H 98.4126 -2.06096 3.32626 0
M  V30 1071 H 98.0356 -3.32994 2.17258 0
M  V30 1072 N 99.0327 -1.24633 -0.964593 0
M  V30 1073 C 100.258 -1.11596 -1.74818 0
M  V30 1074 C 100.683 0.32723 -1.85232 0
M  V30 1075 O 100.041 1.23695 -1.32549 0
M  V30 1076 C 100.089 -1.76397 -3.1451 0
M  V30 1077 O 99.1927 -1.03685 -3.99153 0
M  V30 1078 H 98.5337 -0.390196 -0.537255 0
M  V30 1079 H 101.064 -1.65002 -1.20977 0
M  V30 1080 H 101.074 -1.8228 -3.65018 0
M  V30 1081 H 99.7487 -2.81401 -3.06246 0
M  V30 1082 H 98.3257 -1.05611 -3.57632 0
M  V30 1083 N 100.511 1.16574 -1.06058 0
M  V30 1084 C 101.736 1.91493 -0.796562 0
M  V30 1085 C 102.161 1.76773 0.642868 0
M  V30 1086 O 101.519 1.09142 1.44768 0
M  V30 1087 C 101.567 3.40293 -1.19303 0
M  V30 1088 O 100.671 4.11074 -0.330394 0
M  V30 1089 H 100.012 0.596678 -0.291326 0
M  V30 1090 H 102.542 1.47708 -1.41575 0
M  V30 1091 H 102.552 3.91057 -1.16356 0
M  V30 1092 H 101.227 3.50326 -2.24153 0
M  V30 1093 H 99.8038 3.70513 -0.421225 0
M  V30 1094 N 101.989 0.842826 1.3317 0
M  V30 1095 C 103.238 0.436738 1.96915 0
M  V30 1096 C 103.551 -1.01025 1.67491 0
M  V30 1097 O 104.757 -1.5212 2.24881 0
M  V30 1098 C 103.213 0.730021 3.52418 0
M  V30 1099 C 102.821 2.19195 3.90714 0
M  V30 1100 C 104.565 0.391076 4.22695 0
M  V30 1101 C 102.472 2.42907 5.39212 0
M  V30 1102 H 101.402 0.15958 0.736919 0
M  V30 1103 H 104.053 1.03196 1.51733 0
M  V30 1104 H 102.435 0.0643755 3.95948 0
M  V30 1105 H 103.609 2.8984 3.58231 0
M  V30 1106 H 101.924 2.49425 3.33431 0
M  V30 1107 H 104.521 0.545817 5.31907 0
M  V30 1108 H 104.864 -0.666294 4.10933 0
M  V30 1109 H 105.397 1.01212 3.84709 0
M  V30 1110 H 102.136 3.47224 5.55982 0
M  V30 1111 H 101.656 1.76827 5.73142 0
M  V30 1112 H 103.335 2.2626 6.06148 0
M  V30 1113 N 103.467 -1.45747 0.599634 0
M  V30 1114 C 104.415 -2.322 -0.136426 0
M  V30 1115 C 105.409 -1.45497 -0.867583 0
M  V30 1116 O 106.615 -1.62027 -0.78405 0
M  V30 1117 H 102.99 -0.749368 -0.0628588 0
M  V30 1118 H 104.961 -2.92072 0.611281 0
M  V30 1119 C 103.71 -3.28974 -1.12567 0
M  V30 1120 H 103.033 -3.9568 -0.572484 0
M  V30 1121 H 104.473 -3.92212 -1.61077 0
M  V30 1122 C 102.932 -2.55561 -2.19523 0
M  V30 1123 O 103.462 -2.33111 -3.27143 0
M  V30 1124 N 101.668 -2.15832 -1.94589 0
M  V30 1125 H 101.215 -2.3429 -1.07078 0
M  V30 1126 H 101.173 -1.67034 -2.66359 0
M  V30 1127 N 104.945 -0.338344 -1.53925 0
M  V30 1128 C 105.877 0.555117 -2.22376 0
M  V30 1129 C 106.89 1.06812 -1.22862 0
M  V30 1130 O 108.079 0.979163 -1.49247 0
M  V30 1131 C 105.179 1.77609 -2.88631 0
M  V30 1132 C 104.352 1.39927 -4.14414 0
M  V30 1133 C 103.411 2.47936 -4.64127 0
M  V30 1134 O 102.437 2.11461 -5.28463 0
M  V30 1135 N 103.639 3.79107 -4.39612 0
M  V30 1136 H 106.404 -0.0310778 -2.99684 0
M  V30 1137 H 103.965 -0.162226 -1.61085 0
M  V30 1138 H 105.957 2.49287 -3.18807 0
M  V30 1139 H 104.527 2.26978 -2.14941 0
M  V30 1140 H 103.747 0.513481 -3.90841 0
M  V30 1141 H 105.035 1.12341 -4.96243 0
M  V30 1142 H 104.433 4.11531 -3.88148 0
M  V30 1143 H 102.99 4.4697 -4.74406 0
M  V30 1144 N 106.423 1.57458 -0.0668435 0
M  V30 1145 C 107.648 1.9804 0.616027 0
M  V30 1146 C 108.073 0.944771 1.62652 0
M  V30 1147 O 107.431 -0.0902094 1.81075 0
M  V30 1148 C 107.479 3.37665 1.26549 0
M  V30 1149 O 106.583 3.36701 2.38131 0
M  V30 1150 H 105.924 0.644719 0.158849 0
M  V30 1151 H 108.454 2.04121 -0.139891 0
M  V30 1152 H 108.464 3.7474 1.6135 0
M  V30 1153 H 107.139 4.12573 0.525016 0
M  V30 1154 H 105.716 3.1139 2.0516 0
M  V30 1155 N 107.901 -0.206675 1.56239 0
M  V30 1156 C 109.15 -0.926964 1.79138 0
M  V30 1157 C 109.463 -1.84901 0.638043 0
M  V30 1158 O 110.669 -2.60906 0.751033 0
M  V30 1159 C 109.125 -1.6986 3.17294 0
M  V30 1160 C 108.733 -0.821956 4.40395 0
M  V30 1161 C 110.477 -2.40922 3.4951 0
M  V30 1162 C 108.384 -1.59179 5.69575 0
M  V30 1163 H 107.314 -0.349864 0.667915 0
M  V30 1164 H 109.965 -0.180487 1.8261 0
M  V30 1165 H 108.347 -2.48853 3.08039 0
M  V30 1166 H 109.521 -0.0715019 4.60745 0
M  V30 1167 H 107.836 -0.222741 4.15804 0
M  V30 1168 H 110.433 -2.99047 4.43255 0
M  V30 1169 H 110.776 -3.14542 2.72707 0
M  V30 1170 H 111.309 -1.68905 3.60161 0
M  V30 1171 H 108.048 -0.898589 6.49312 0
M  V30 1172 H 107.568 -2.31648 5.53262 0
M  V30 1173 H 109.247 -2.14862 6.10281 0
M  V30 1174 N 109.379 -1.50304 -0.473955 0
M  V30 1175 C 110.627 -1.60832 -1.22382 0
M  V30 1176 C 110.948 -0.30939 -1.9253 0
M  V30 1177 O 110.218 0.67296 -1.83978 0
M  V30 1178 H 108.798 -0.592652 -0.454723 0
M  V30 1179 H 111.46 -1.87068 -0.546968 0
M  V30 1180 H 110.556 -2.41803 -1.97327 0
M  V30 1181 N 110.857 0.726932 -1.39834 0
M  V30 1182 C 112.105 1.4837 -1.37225 0
M  V30 1183 C 112.426 1.94979 0.0284857 0
M  V30 1184 O 111.696 1.69555 0.981213 0
M  V30 1185 H 110.276 0.55043 -0.505011 0
M  V30 1186 H 112.938 0.862468 -1.74778 0
M  V30 1187 H 112.034 2.36198 -2.04003 0
M  V30 1188 N 112.336 1.25143 0.95797 0
M  V30 1189 C 113.582 1.09855 1.70469 0
M  V30 1190 C 113.915 -0.360187 1.90831 0
M  V30 1191 O 113.19 -1.26568 1.47685 0
M  V30 1192 C 113.473 1.8497 3.08963 0
M  V30 1193 C 113.326 3.38652 2.96032 0
M  V30 1194 C 114.645 1.63016 4.08795 0
M  V30 1195 H 111.764 0.400465 0.618706 0
M  V30 1196 H 114.406 1.53933 1.11376 0
M  V30 1197 H 112.556 1.47505 3.59409 0
M  V30 1198 H 114.228 3.85772 2.52938 0
M  V30 1199 H 112.471 3.66534 2.32025 0
M  V30 1200 H 113.142 3.8642 3.94187 0
M  V30 1201 H 115.618 1.95625 3.67247 0
M  V30 1202 H 114.494 2.18015 5.03747 0
M  V30 1203 H 114.755 0.570692 4.38401 0
M  V30 1204 N 113.814 -1.1601 1.06675 0
M  V30 1205 C 115.063 -1.85973 0.780818 0
M  V30 1206 C 115.376 -1.82819 -0.695444 0
M  V30 1207 O 116.582 -2.484 -1.09589 0
M  V30 1208 C 115.038 -3.33757 1.34665 0
M  V30 1209 C 114.646 -3.45374 2.85343 0
M  V30 1210 C 116.39 -4.0895 1.13843 0
M  V30 1211 C 114.297 -4.87266 3.35151 0
M  V30 1212 H 113.227 -0.696661 0.288407 0
M  V30 1213 H 115.878 -1.30903 1.28595 0
M  V30 1214 H 114.26 -3.88456 0.769274 0
M  V30 1215 H 115.434 -3.00816 3.49065 0
M  V30 1216 H 113.749 -2.83619 3.04876 0
M  V30 1217 H 116.346 -5.13654 1.4854 0
M  V30 1218 H 116.689 -4.16229 0.0770282 0
M  V30 1219 H 117.222 -3.605 1.68179 0
M  V30 1220 H 113.961 -4.85168 4.40786 0
M  V30 1221 H 113.481 -5.32433 2.76179 0
M  V30 1222 H 115.16 -5.56097 3.30704 0
M  V30 1223 N 115.292 -0.849877 -1.32721 0
M  V30 1224 C 116.222 -0.306308 -2.31482 0
M  V30 1225 C 117.203 0.591952 -1.59468 0
M  V30 1226 O 118.388 0.513199 -1.87296 0
M  V30 1227 C 115.518 0.510204 -3.43532 0
M  V30 1228 C 114.472 -0.293209 -4.26994 0
M  V30 1229 C 113.798 0.647743 -5.30762 0
M  V30 1230 C 115.098 -1.51634 -4.99804 0
M  V30 1231 H 116.792 -1.13153 -2.77195 0
M  V30 1232 H 114.338 -0.545553 -1.33266 0
M  V30 1233 H 116.291 0.900856 -4.11658 0
M  V30 1234 H 115.015 1.36874 -2.96535 0
M  V30 1235 H 113.674 -0.665555 -3.60508 0
M  V30 1236 H 113.322 1.50299 -4.8002 0
M  V30 1237 H 113.022 0.11422 -5.87489 0
M  V30 1238 H 114.546 1.03567 -6.01753 0
M  V30 1239 H 115.96 -1.19824 -5.60638 0
M  V30 1240 H 114.357 -1.98745 -5.66234 0
M  V30 1241 H 115.427 -2.28018 -4.27943 0
M  V30 1242 N 116.77 1.45427 -0.607355 0
M  V30 1243 C 118.017 2.02241 -0.102455 0
M  V30 1244 C 118.345 1.4758 1.26691 0
M  V30 1245 O 117.6 0.640468 1.84923 0
M  V30 1246 C 117.899 3.57398 -0.0129263 0
M  V30 1247 C 117.565 4.3121 -1.31792 0
M  V30 1248 C 116.227 4.51092 -1.67539 0
M  V30 1249 C 118.579 4.73401 -2.18039 0
M  V30 1250 C 115.907 5.10422 -2.89285 0
M  V30 1251 C 118.259 5.34078 -3.39034 0
M  V30 1252 C 116.923 5.52184 -3.75033 0
M  V30 1253 H 116.193 0.740051 -0.037491 0
M  V30 1254 H 118.84 1.74494 -0.788926 0
M  V30 1255 H 117.145 3.84421 0.756806 0
M  V30 1256 H 118.842 3.99061 0.393881 0
M  V30 1257 H 115.432 4.16047 -1.02968 0
M  V30 1258 H 119.616 4.57774 -1.91721 0
M  V30 1259 H 114.872 5.22629 -3.17283 0
M  V30 1260 H 119.046 5.65724 -4.06115 0
M  V30 1261 H 116.673 5.97925 -4.69457 0
M  V30 1262 N 118.248 0.346503 1.53744 0
M  V30 1263 C 119.198 -0.524953 2.21874 0
M  V30 1264 C 120.182 -1.06376 1.20718 0
M  V30 1265 O 121.374 -0.996972 1.46251 0
M  V30 1266 C 118.503 -1.6739 2.99726 0
M  V30 1267 C 117.589 -1.14888 4.08242 0
M  V30 1268 N 117.98 -0.345329 5.0462 0
M  V30 1269 C 116.278 -1.4255 4.22606 0
M  V30 1270 C 116.979 -0.0600706 5.81669 0
M  V30 1271 N 115.955 -0.65252 5.39669 0
M  V30 1272 H 119.757 0.0960091 2.93743 0
M  V30 1273 H 117.271 0.15352 1.61673 0
M  V30 1274 H 119.268 -2.3102 3.47038 0
M  V30 1275 H 117.928 -2.29811 2.29384 0
M  V30 1276 H 118.939 0.0138439 5.17898 0
M  V30 1277 H 115.616 -2.05389 3.63486 0
M  V30 1278 H 117.006 0.588321 6.69319 0
M  V30 1279 N 119.726 -1.57421 0.075193 0
M  V30 1280 C 120.636 -2.1642 -0.905511 0
M  V30 1281 C 121.652 -1.12828 -1.32461 0
M  V30 1282 O 122.828 -1.45109 -1.39661 0
M  V30 1283 C 119.893 -2.71693 -2.15369 0
M  V30 1284 C 118.954 -3.90171 -1.79068 0
M  V30 1285 C 118.187 -4.42798 -2.97936 0
M  V30 1286 O 118.41 -3.94416 -4.12058 0
M  V30 1287 O 117.344 -5.34085 -2.77555 0
M  V30 1288 H 121.17 -3.00588 -0.433626 0
M  V30 1289 H 118.755 -1.48664 -0.148067 0
M  V30 1290 H 120.637 -3.07104 -2.88557 0
M  V30 1291 H 119.312 -1.90582 -2.61649 0
M  V30 1292 H 118.219 -3.59606 -1.03122 0
M  V30 1293 H 119.552 -4.72584 -1.37569 0
M  V30 1294 N 121.204 0.198386 -1.56346 0
M  V30 1295 C 122.432 0.935572 -1.84539 0
M  V30 1296 C 122.847 1.76989 -0.657281 0
M  V30 1297 O 122.204 1.78626 0.374043 0
M  V30 1298 C 122.255 1.8344 -3.11499 0
M  V30 1299 O 121.976 1.03377 -4.25728 0
M  V30 1300 C 123.477 2.68355 -3.52846 0
M  V30 1301 H 120.697 0.273126 -0.612897 0
M  V30 1302 H 123.241 0.20663 -2.03453 0
M  V30 1303 H 121.396 2.51701 -2.94492 0
M  V30 1304 H 121.81 1.64599 -4.98003 0
M  V30 1305 H 123.284 3.27085 -4.44657 0
M  V30 1306 H 123.761 3.41901 -2.75681 0
M  V30 1307 H 124.367 2.05471 -3.72373 0
M  V30 1308 N 122.682 1.50554 0.465978 0
M  V30 1309 C 123.612 1.72722 1.57128 0
M  V30 1310 C 124.593 0.576294 1.6004 0
M  V30 1311 O 125.778 0.81598 1.76225 0
M  V30 1312 C 122.908 1.82605 2.95419 0
M  V30 1313 C 121.862 2.97835 3.07373 0
M  V30 1314 C 121.188 2.92867 4.47363 0
M  V30 1315 C 122.488 4.38265 2.84114 0
M  V30 1316 H 124.182 2.65267 1.38829 0
M  V30 1317 H 121.728 1.2765 0.666441 0
M  V30 1318 H 123.681 1.96698 3.72677 0
M  V30 1319 H 122.405 0.866858 3.14886 0
M  V30 1320 H 121.064 2.83401 2.3255 0
M  V30 1321 H 120.712 1.94783 4.63755 0
M  V30 1322 H 120.412 3.70227 4.56296 0
M  V30 1323 H 121.936 3.09015 5.26633 0
M  V30 1324 H 123.35 4.53198 3.51118 0
M  V30 1325 H 121.747 5.17115 3.04487 0
M  V30 1326 H 122.817 4.50281 1.7993 0
M  V30 1327 N 124.16 -0.719506 1.40217 0
M  V30 1328 C 125.39 -1.50646 1.41384 0
M  V30 1329 C 125.798 -1.89197 0.0107743 0
M  V30 1330 O 125.141 -1.55709 -0.974708 0
M  V30 1331 C 125.203 -2.81405 2.23722 0
M  V30 1332 C 124.867 -2.65199 3.72181 0
M  V30 1333 C 125.864 -2.32717 4.64907 0
M  V30 1334 C 123.549 -2.81586 4.1595 0
M  V30 1335 C 125.543 -2.16827 5.99387 0
M  V30 1336 C 123.23 -2.65313 5.50502 0
M  V30 1337 C 124.228 -2.32981 6.42035 0
M  V30 1338 O 123.916 -2.16827 7.74107 0
M  V30 1339 H 123.648 -0.471606 0.484318 0
M  V30 1340 H 126.202 -0.895456 1.84853 0
M  V30 1341 H 124.432 -3.44823 1.75026 0
M  V30 1342 H 126.121 -3.43102 2.16878 0
M  V30 1343 H 126.887 -2.19694 4.32388 0
M  V30 1344 H 122.766 -3.0574 3.45027 0
M  V30 1345 H 126.31 -1.91513 6.70797 0
M  V30 1346 H 122.207 -2.7792 5.82607 0
M  V30 1347 H 122.975 -2.31778 7.84998 0
M  V30 1348 N 125.638 -1.25649 -0.95132 0
M  V30 1349 C 126.57 -1.02112 -2.05197 0
M  V30 1350 C 127.583 0.0150571 -1.62793 0
M  V30 1351 O 128.772 -0.223874 -1.77091 0
M  V30 1352 C 125.872 -0.522361 -3.3485 0
M  V30 1353 C 125.045 -1.62546 -4.06076 0
M  V30 1354 C 124.104 -1.12649 -5.14001 0
M  V30 1355 O 123.13 -1.82156 -5.39266 0
M  V30 1356 N 124.332 0.03047 -5.80492 0
M  V30 1357 H 127.097 -1.96885 -2.25957 0
M  V30 1358 H 124.658 -1.16899 -1.1201 0
M  V30 1359 H 126.65 -0.172961 -4.0433 0
M  V30 1360 H 125.22 0.33151 -3.10837 0
M  V30 1361 H 124.44 -2.14628 -3.30649 0
M  V30 1362 H 125.728 -2.36644 -4.50419 0
M  V30 1363 H 125.126 0.611169 -5.62389 0
M  V30 1364 H 123.683 0.320875 -6.5101 0
M  V30 1365 N 127.117 1.15442 -1.07289 0
M  V30 1366 C 128.064 2.20161 -0.692653 0
M  V30 1367 C 129.034 1.63073 0.31564 0
M  V30 1368 O 130.219 1.89725 0.202235 0
M  V30 1369 C 127.359 3.44967 -0.0959509 0
M  V30 1370 C 126.472 4.16256 -1.15564 0
M  V30 1371 C 125.607 5.28609 -0.524011 0
M  V30 1372 C 124.646 5.91715 -1.56653 0
M  V30 1373 N 123.783 6.9554 -0.957531 0
M  V30 1374 H 128.623 2.52037 -1.59002 0
M  V30 1375 H 126.16 1.2378 -0.794798 0
M  V30 1376 H 128.118 4.16341 0.267628 0
M  V30 1377 H 126.748 3.1361 0.764772 0
M  V30 1378 H 125.8 3.43385 -1.6368 0
M  V30 1379 H 127.112 4.59268 -1.94613 0
M  V30 1380 H 126.266 6.06604 -0.108032 0
M  V30 1381 H 125.005 4.86787 0.29825 0
M  V30 1382 H 124.01 5.12433 -1.9923 0
M  V30 1383 H 125.235 6.35614 -2.39107 0
M  V30 1384 H 123.181 6.55814 -0.156162 0
M  V30 1385 H 123.098 7.36977 -1.68526 0
M  V30 1386 H 124.366 7.77435 -0.567032 0
M  V30 1387 N 128.595 0.856903 1.32268 0
M  V30 1388 C 129.872 0.382583 1.91822 0
M  V30 1389 C 130.252 -1.13407 1.78051 0
M  V30 1390 O 129.6 -1.95673 1.18001 0
M  V30 1391 C 129.81 0.849446 3.38505 0
M  V30 1392 C 131.158 0.867936 4.15634 0
M  V30 1393 O 132.182 0.794232 3.47232 0
M  V30 1394 O 131.041 0.972286 5.37781 0
M  V30 1395 H 128.135 0.112014 0.819379 0
M  V30 1396 H 130.681 0.943952 1.41024 0
M  V30 1397 H 129.453 1.89267 3.42482 0
M  V30 1398 H 129.076 0.265652 3.96712 0
M  V30 1399 N 130.073 -1.45103 0.615059 0
M  V30 1400 C 131.298 -2.07064 0.117988 0
M  V30 1401 C 131.723 -1.4554 -1.19163 0
M  V30 1402 O 131.081 -0.550855 -1.72729 0
M  V30 1403 C 131.129 -3.606 -0.000288387 0
M  V30 1404 O 130.233 -3.98847 -1.04856 0
M  V30 1405 H 129.574 -0.659467 0.0774581 0
M  V30 1406 H 132.104 -1.86236 0.847186 0
M  V30 1407 H 132.114 -4.07529 -0.196091 0
M  V30 1408 H 130.789 -4.04765 0.955932 0
M  V30 1409 H 129.366 -3.63577 -0.828619 0
M  V30 1410 N 131.551 -0.354651 -1.53558 0
M  V30 1411 C 132.483 0.5315 -2.22952 0
M  V30 1412 C 133.496 1.05503 -1.23988 0
M  V30 1413 O 134.685 0.963279 -1.50277 0
M  V30 1414 C 131.785 1.74538 -2.90499 0
M  V30 1415 C 130.958 1.35524 -4.15875 0
M  V30 1416 C 130.017 2.42999 -4.66731 0
M  V30 1417 O 129.043 2.05844 -5.30676 0
M  V30 1418 N 130.245 3.74423 -4.43608 0
M  V30 1419 H 133.01 -0.0628615 -2.99634 0
M  V30 1420 H 130.571 -0.179302 -1.60904 0
M  V30 1421 H 132.563 2.45892 -3.21433 0
M  V30 1422 H 131.133 2.24686 -2.17336 0
M  V30 1423 H 130.353 0.471998 -3.91364 0
M  V30 1424 H 131.641 1.07071 -4.97406 0
M  V30 1425 H 131.039 4.07391 -3.92491 0
M  V30 1426 H 129.596 4.41913 -4.7912 0
M  V30 1427 N 133.029 1.57378 -0.0835403 0
M  V30 1428 C 134.277 1.93547 0.581718 0
M  V30 1429 C 134.598 0.96524 1.69435 0
M  V30 1430 O 133.868 0.0153369 1.95894 0
M  V30 1431 H 132.448 0.714521 0.217874 0
M  V30 1432 H 135.11 1.94366 -0.144158 0
M  V30 1433 H 134.206 2.95665 0.999423 0
M  V30 1434 N 134.507 -0.190092 1.56449 0
M  V30 1435 C 135.454 -1.23557 1.94942 0
M  V30 1436 C 136.424 -1.44972 0.810696 0
M  V30 1437 O 137.609 -1.58023 1.06927 0
M  V30 1438 C 134.749 -2.57416 2.2985 0
M  V30 1439 C 133.862 -2.43537 3.5681 0
M  V30 1440 C 132.997 -3.70134 3.81017 0
M  V30 1441 C 132.036 -3.51109 5.01387 0
M  V30 1442 N 131.173 -4.6973 5.21822 0
M  V30 1443 H 136.013 -0.900304 2.84075 0
M  V30 1444 H 133.55 -0.43318 1.40577 0
M  V30 1445 H 135.508 -3.35409 2.48106 0
M  V30 1446 H 134.138 -2.88975 1.43852 0
M  V30 1447 H 133.19 -1.56816 3.46573 0
M  V30 1448 H 134.502 -2.25415 4.4496 0
M  V30 1449 H 133.656 -4.56566 3.9954 0
M  V30 1450 H 132.395 -3.91215 2.91207 0
M  V30 1451 H 131.4 -2.63063 4.82782 0
M  V30 1452 H 132.625 -3.31468 5.9271 0
M  V30 1453 H 130.571 -4.91065 4.34961 0
M  V30 1454 H 130.488 -4.54452 6.0416 0
M  V30 1455 H 131.756 -5.57499 5.44808 0
M  V30 1456 N 135.985 -1.50799 -0.457987 0
M  V30 1457 C 136.915 -1.73553 -1.5621 0
M  V30 1458 C 137.896 -0.584774 -1.59732 0
M  V30 1459 O 139.081 -0.825314 -1.7579 0
M  V30 1460 C 136.211 -1.84169 -2.94447 0
M  V30 1461 C 135.165 -2.99461 -3.0579 0
M  V30 1462 C 134.491 -2.95235 -4.45803 0
M  V30 1463 C 135.791 -4.39766 -2.81786 0
M  V30 1464 H 137.485 -2.66 -1.37421 0
M  V30 1465 H 135.031 -1.28002 -0.659662 0
M  V30 1466 H 136.984 -1.98672 -3.71628 0
M  V30 1467 H 135.708 -0.883545 -3.14422 0
M  V30 1468 H 134.367 -2.8463 -2.31044 0
M  V30 1469 H 134.015 -1.97239 -4.62715 0
M  V30 1470 H 133.715 -3.72642 -4.54326 0
M  V30 1471 H 135.239 -3.11803 -5.24987 0
M  V30 1472 H 136.653 -4.55054 -3.4871 0
M  V30 1473 H 135.05 -5.18722 -3.0174 0
M  V30 1474 H 136.12 -4.51229 -1.7754 0
M  V30 1475 N 137.463 0.71206 -1.40597 0
M  V30 1476 C 138.71 1.47197 -1.39065 0
M  V30 1477 C 139.038 1.94499 0.00583891 0
M  V30 1478 O 138.293 1.68752 0.99102 0
M  V30 1479 C 138.592 2.71039 -2.32965 0
M  V30 1480 C 138.258 2.42484 -3.80148 0
M  V30 1481 C 136.92 2.34406 -4.20247 0
M  V30 1482 C 139.272 2.18598 -4.73143 0
M  V30 1483 C 136.6 2.00516 -5.51371 0
M  V30 1484 C 138.952 1.8622 -6.0457 0
M  V30 1485 C 137.616 1.76626 -6.43708 0
M  V30 1486 H 136.886 0.538634 -0.508876 0
M  V30 1487 H 139.533 0.815325 -1.73276 0
M  V30 1488 H 137.838 3.41558 -1.91951 0
M  V30 1489 H 139.535 3.29138 -2.29061 0
M  V30 1490 H 136.125 2.49659 -3.4838 0
M  V30 1491 H 140.309 2.23793 -4.42979 0
M  V30 1492 H 135.565 1.91628 -5.80593 0
M  V30 1493 H 139.739 1.66752 -6.76141 0
M  V30 1494 H 137.366 1.50133 -7.45228 0
M  V30 1495 N 138.941 1.26152 0.944643 0
M  V30 1496 C 140.357 1.03189 1.21754 0
M  V30 1497 C 140.557 -0.245112 2.00004 0
M  V30 1498 O 139.613 -0.955176 2.33736 0
M  V30 1499 C 140.926 2.26119 1.98219 0
M  V30 1500 C 142.474 2.30984 2.11224 0
M  V30 1501 C 142.949 3.53597 2.91089 0
M  V30 1502 N 144.44 3.54053 2.98664 0
M  V30 1503 C 145.175 4.45593 3.60881 0
M  V30 1504 N 144.671 5.47416 4.24626 0
M  V30 1505 N 146.464 4.33252 3.58119 0
M  V30 1506 H 138.615 2.08177 0.421437 0
M  V30 1507 H 140.878 0.914723 0.248969 0
M  V30 1508 H 140.584 3.18984 1.48128 0
M  V30 1509 H 140.458 2.3009 2.98895 0
M  V30 1510 H 142.845 1.38635 2.60508 0
M  V30 1511 H 142.926 2.31026 1.09821 0
M  V30 1512 H 142.57 4.46273 2.42493 0
M  V30 1513 H 142.5 3.50802 3.92741 0
M  V30 1514 H 144.991 2.80403 2.53343 0
M  V30 1515 H 145.304 6.13459 4.69987 0
M  V30 1516 H 143.649 5.51278 4.23223 0
M  V30 1517 H 146.84 3.52924 3.0751 0
M  V30 1518 H 147.013 5.04786 4.06319 0
M  V30 1519 N 140.419 -1.14872 1.07899 0
M  V30 1520 C 141.367 -2.21857 0.698727 0
M  V30 1521 C 142.361 -1.66845 -0.293086 0
M  V30 1522 O 143.567 -1.79321 -0.156204 0
M  V30 1523 H 139.942 -0.722691 0.207899 0
M  V30 1524 H 141.913 -2.51205 1.61054 0
M  V30 1525 C 140.662 -3.47498 0.11858 0
M  V30 1526 H 139.985 -3.90154 0.872914 0
M  V30 1527 H 141.425 -4.23858 -0.109759 0
M  V30 1528 C 139.884 -3.16947 -1.1422 0
M  V30 1529 O 140.414 -3.3426 -2.22785 0
M  V30 1530 N 138.62 -2.70946 -1.05055 0
M  V30 1531 H 138.167 -2.57058 -0.167038 0
M  V30 1532 H 138.125 -2.50879 -1.89491 0
M  V30 1533 N 141.898 -0.863906 -1.31812 0
M  V30 1534 C 143.147 -0.46801 -1.96195 0
M  V30 1535 C 143.46 0.983474 -1.69077 0
M  V30 1536 O 144.666 1.48523 -2.27273 0
M  V30 1537 C 143.122 -0.785995 -3.51212 0
M  V30 1538 C 142.73 -2.25383 -3.87178 0
M  V30 1539 C 144.474 -0.458274 -4.22019 0
M  V30 1540 C 142.381 -2.51455 -5.3528 0
M  V30 1541 H 141.311 -0.171283 -0.734287 0
M  V30 1542 H 143.962 -1.05597 -1.50072 0
M  V30 1543 H 142.344 -0.127359 -3.95795 0
M  V30 1544 H 143.518 -2.95502 -3.53575 0
M  V30 1545 H 141.833 -2.54698 -3.2942 0
M  V30 1546 H 144.43 -0.630369 -5.30971 0
M  V30 1547 H 144.773 0.600834 -4.11941 0
M  V30 1548 H 145.306 -1.07319 -3.8305 0
M  V30 1549 H 142.045 -3.56025 -5.50387 0
M  V30 1550 H 141.565 -1.85923 -5.70257 0
M  V30 1551 H 143.244 -2.35874 -6.02472 0
M  V30 1552 N 143.376 1.44774 -0.622745 0
M  V30 1553 C 144.306 2.33382 0.0741861 0
M  V30 1554 C 145.287 1.47719 0.843387 0
M  V30 1555 O 146.472 1.76458 0.810934 0
M  V30 1556 C 143.602 3.30663 1.06204 0
M  V30 1557 C 142.556 4.26079 0.405037 0
M  V30 1558 C 141.882 5.13165 1.5022 0
M  V30 1559 C 143.182 5.1781 -0.683414 0
M  V30 1560 H 144.876 2.91905 -0.665713 0
M  V30 1561 H 142.422 1.40363 -0.321587 0
M  V30 1562 H 144.375 3.9153 1.55827 0
M  V30 1563 H 143.099 2.70331 1.83272 0
M  V30 1564 H 141.758 3.66532 -0.0704683 0
M  V30 1565 H 141.406 4.49191 2.26355 0
M  V30 1566 H 141.106 5.77812 1.06803 0
M  V30 1567 H 142.63 5.76902 2.00041 0
M  V30 1568 H 144.044 5.72661 -0.270631 0
M  V30 1569 H 142.441 5.91015 -1.04023 0
M  V30 1570 H 143.511 4.59326 -1.55395 0
M  V30 1571 N 144.854 0.36279 1.53368 0
M  V30 1572 C 145.801 -0.485008 2.25646 0
M  V30 1573 C 146.771 -1.07982 1.2621 0
M  V30 1574 O 147.956 -1.11284 1.54986 0
M  V30 1575 C 145.096 -1.62023 3.04701 0
M  V30 1576 C 144.209 -1.05086 4.19024 0
M  V30 1577 C 143.344 -2.15496 4.85525 0
M  V30 1578 C 142.383 -1.5601 5.91884 0
M  V30 1579 N 141.52 -2.60241 6.52088 0
M  V30 1580 H 146.36 0.137864 2.97681 0
M  V30 1581 H 143.897 0.0798061 1.46883 0
M  V30 1582 H 145.855 -2.28887 3.48807 0
M  V30 1583 H 144.485 -2.2138 2.34927 0
M  V30 1584 H 143.537 -0.27259 3.79422 0
M  V30 1585 H 144.849 -0.575926 4.95464 0
M  V30 1586 H 144.003 -2.90186 5.32801 0
M  V30 1587 H 142.742 -2.66341 4.08551 0
M  V30 1588 H 141.747 -0.798338 5.43973 0
M  V30 1589 H 142.972 -1.05994 6.70777 0
M  V30 1590 H 140.918 -3.10304 5.77968 0
M  V30 1591 H 140.835 -2.17426 7.24059 0
M  V30 1592 H 142.103 -3.34641 7.04014 0
M  V30 1593 N 146.332 -1.57332 0.0918853 0
M  V30 1594 C 147.242 -2.17368 -0.882505 0
M  V30 1595 C 148.258 -1.14226 -1.31257 0
M  V30 1596 O 149.434 -1.46582 -1.38115 0
M  V30 1597 C 146.499 -2.73962 -2.12476 0
M  V30 1598 C 145.56 -3.92048 -1.7492 0
M  V30 1599 C 144.793 -4.45933 -2.93223 0
M  V30 1600 O 145.016 -3.98764 -4.07852 0
M  V30 1601 O 143.95 -5.36999 -2.71875 0
M  V30 1602 H 147.776 -3.01031 -0.40172 0
M  V30 1603 H 145.361 -1.48813 -0.132291 0
M  V30 1604 H 147.243 -3.10147 -2.85283 0
M  V30 1605 H 145.918 -1.93347 -2.59613 0
M  V30 1606 H 144.825 -3.6068 -0.993025 0
M  V30 1607 H 146.158 -4.74017 -1.32548 0
M  V30 1608 N 147.81 0.181792 -1.56548 0
M  V30 1609 C 148.757 1.22521 -1.95595 0
M  V30 1610 C 149.727 1.4454 -0.818373 0
M  V30 1611 O 150.912 1.57454 -1.07763 0
M  V30 1612 C 148.052 2.56193 -2.31212 0
M  V30 1613 C 147.165 2.41641 -3.58097 0
M  V30 1614 C 146.3 3.68108 -3.82975 0
M  V30 1615 C 145.339 3.48445 -5.03242 0
M  V30 1616 N 144.476 4.66956 -5.24306 0
M  V30 1617 H 149.316 0.885226 -2.84548 0
M  V30 1618 H 146.853 0.425718 -1.40805 0
M  V30 1619 H 148.811 3.34088 -2.49882 0
M  V30 1620 H 147.441 2.88208 -1.45382 0
M  V30 1621 H 146.493 1.54976 -3.474 0
M  V30 1622 H 147.805 2.23052 -4.46149 0
M  V30 1623 H 146.959 4.54441 -4.01956 0
M  V30 1624 H 145.698 3.89666 -2.93278 0
M  V30 1625 H 144.703 2.60499 -4.8417 0
M  V30 1626 H 145.928 3.2832 -5.9446 0
M  V30 1627 H 143.874 4.88752 -4.37559 0
M  V30 1628 H 143.791 4.51242 -6.06561 0
M  V30 1629 H 145.059 5.54602 -5.47756 0
M  V30 1630 N 149.288 1.51039 0.449983 0
M  V30 1631 C 150.536 1.62759 1.19808 0
M  V30 1632 C 150.857 0.339981 1.92013 0
M  V30 1633 O 150.127 -0.643606 1.85026 0
M  V30 1634 H 148.707 0.599811 0.445237 0
M  V30 1635 H 151.369 1.87914 0.517138 0
M  V30 1636 H 150.465 2.44911 1.93455 0
M  V30 1637 N 150.766 -0.704594 1.40972 0
M  V30 1638 C 152.015 -1.46018 1.39146 0
M  V30 1639 C 152.328 -1.956 0.000589254 0
M  V30 1640 O 153.534 -2.71137 -0.1403 0
M  V30 1641 C 151.99 -2.63996 2.4461 0
M  V30 1642 C 151.598 -2.21238 3.89561 0
M  V30 1643 C 153.342 -3.41677 2.51907 0
M  V30 1644 C 151.249 -3.3612 4.86598 0
M  V30 1645 H 150.179 -0.548444 0.517422 0
M  V30 1646 H 152.83 -0.765784 1.66757 0
M  V30 1647 H 151.212 -3.3566 2.10115 0
M  V30 1648 H 152.386 -1.56923 4.33257 0
M  V30 1649 H 150.701 -1.56574 3.85841 0
M  V30 1650 H 153.298 -4.27182 3.2159 0
M  V30 1651 H 153.641 -3.86247 1.55303 0
M  V30 1652 H 154.174 -2.77064 2.85448 0
M  V30 1653 H 150.913 -2.96572 5.84573 0
M  V30 1654 H 150.433 -3.99315 4.47557 0
M  V30 1655 H 152.112 -4.02029 5.06934 0
M  V30 1656 N 152.244 -1.26651 -0.937939 0
M  V30 1657 C 153.49 -1.12553 -1.687 0
M  V30 1658 C 153.823 0.329782 -1.91379 0
M  V30 1659 O 153.098 1.24202 -1.4968 0
M  V30 1660 C 153.381 -1.89862 -3.05981 0
M  V30 1661 C 153.234 -3.43318 -2.90607 0
M  V30 1662 C 154.553 -1.69499 -4.0615 0
M  V30 1663 H 151.672 -0.410257 -0.612257 0
M  V30 1664 H 154.314 -1.55685 -1.08913 0
M  V30 1665 H 152.464 -1.53204 -3.57017 0
M  V30 1666 H 154.136 -3.89747 -2.46769 0
M  V30 1667 H 152.379 -3.70179 -2.26164 0
M  V30 1668 H 153.05 -3.92642 -3.8799 0
M  V30 1669 H 155.526 -2.01442 -3.64088 0
M  V30 1670 H 154.402 -2.26002 -5.00214 0
M  V30 1671 H 154.663 -0.640365 -4.37438 0
M  V30 1672 N 153.722 1.14298 -1.08507 0
M  V30 1673 C 154.968 1.85633 -0.816581 0
M  V30 1674 C 155.301 1.82784 0.656021 0
M  V30 1675 O 154.576 1.25926 1.48233 0
M  V30 1676 C 154.859 3.34223 -1.34041 0
M  V30 1677 C 154.712 3.45639 -2.87843 0
M  V30 1678 C 156.031 4.29356 -0.9665 0
M  V30 1679 H 153.15 0.67402 -0.298104 0
M  V30 1680 H 155.792 1.34214 -1.34487 0
M  V30 1681 H 153.942 3.78144 -0.89104 0
M  V30 1682 H 155.614 3.10498 -3.41158 0
M  V30 1683 H 153.857 2.86817 -3.25451 0
M  V30 1684 H 154.528 4.50089 -3.19569 0
M  V30 1685 H 157.004 3.93457 -1.35391 0
M  V30 1686 H 155.88 5.3178 -1.3602 0
M  V30 1687 H 156.141 4.41919 0.126362 0
M  V30 1688 N 155.201 0.870884 1.31352 0
M  V30 1689 C 156.449 0.48132 1.96285 0
M  V30 1690 C 156.77 -0.969813 1.69173 0
M  V30 1691 O 156.04 -1.67998 1.00764 0
M  V30 1692 H 154.62 0.175002 0.726212 0
M  V30 1693 H 157.282 1.11087 1.60143 0
M  V30 1694 H 156.378 0.639825 3.05471 0
M  V30 1695 N 156.679 -1.44442 0.630414 0
M  V30 1696 C 157.928 -2.01267 0.132073 0
M  V30 1697 C 158.241 -1.50172 -1.25331 0
M  V30 1698 O 159.447 -1.9912 -1.84562 0
M  V30 1699 C 157.903 -3.59422 0.185362 0
M  V30 1700 C 157.511 -4.19514 1.57201 0
M  V30 1701 C 159.255 -4.23724 -0.256553 0
M  V30 1702 C 157.162 -5.69891 1.58045 0
M  V30 1703 H 156.092 -0.752619 0.0456092 0
M  V30 1704 H 158.743 -1.65666 0.789106 0
M  V30 1705 H 157.125 -3.92318 -0.538759 0
M  V30 1706 H 158.299 -3.98156 2.31966 0
M  V30 1707 H 156.614 -3.67496 1.95795 0
M  V30 1708 H 159.211 -5.34019 -0.269767 0
M  V30 1709 H 159.554 -3.96013 -1.28372 0
M  V30 1710 H 160.087 -3.95629 0.41505 0
M  V30 1711 H 156.826 -6.02336 2.58597 0
M  V30 1712 H 156.346 -5.93373 0.875725 0
M  V30 1713 H 158.025 -6.33515 1.31408 0
M  V30 1714 N 158.157 -0.370918 -1.53173 0
M  V30 1715 C 159.104 0.473035 -2.259 0
M  V30 1716 C 160.074 1.07311 -1.26781 0
M  V30 1717 O 161.259 1.1046 -1.55574 0
M  V30 1718 C 158.399 1.60405 -3.05556 0
M  V30 1719 C 157.512 1.02863 -4.19575 0
M  V30 1720 C 156.647 2.12918 -4.86661 0
M  V30 1721 C 155.686 1.52869 -5.92704 0
M  V30 1722 N 154.823 2.56779 -6.53459 0
M  V30 1723 H 159.663 -0.153649 -2.97604 0
M  V30 1724 H 157.2 -0.0875946 -1.46839 0
M  V30 1725 H 159.158 2.27034 -3.50016 0
M  V30 1726 H 157.788 2.20131 -2.36097 0
M  V30 1727 H 156.84 0.252465 -3.79561 0
M  V30 1728 H 158.152 0.549642 -4.95762 0
M  V30 1729 H 157.306 2.87356 -5.34333 0
M  V30 1730 H 156.045 2.6417 -4.09958 0
M  V30 1731 H 155.05 0.769479 -5.44389 0
M  V30 1732 H 156.275 1.02435 -6.7133 0
M  V30 1733 H 154.221 3.07235 -5.79606 0
M  V30 1734 H 154.138 2.13583 -7.25202 0
M  V30 1735 H 155.406 3.30903 -7.05779 0
M  V30 1736 N 159.635 1.57281 -0.100228 0
M  V30 1737 C 160.565 2.17328 0.853857 0
M  V30 1738 C 161.546 1.10804 1.2906 0
M  V30 1739 O 162.731 1.38963 1.35657 0
M  V30 1740 C 159.861 2.75772 2.11109 0
M  V30 1741 C 158.815 3.87713 1.81279 0
M  V30 1742 C 158.141 4.32882 3.13874 0
M  V30 1743 C 159.441 5.10677 1.09574 0
M  V30 1744 H 161.135 2.97305 0.353545 0
M  V30 1745 H 158.681 1.43009 0.168612 0
M  V30 1746 H 160.634 3.16433 2.78296 0
M  V30 1747 H 159.358 1.93057 2.63432 0
M  V30 1748 H 158.017 3.476 1.16489 0
M  V30 1749 H 157.665 3.47051 3.64095 0
M  V30 1750 H 157.365 5.08358 2.94696 0
M  V30 1751 H 158.889 4.7618 3.82211 0
M  V30 1752 H 160.303 5.48474 1.66879 0
M  V30 1753 H 158.7 5.91615 1.00557 0
M  V30 1754 H 159.77 4.84835 0.0793299 0
M  V30 1755 N 161.113 -0.173488 1.56642 0
M  V30 1756 C 162.39 -0.917617 1.7274 0
M  V30 1757 C 162.77 -2.00484 0.661027 0
M  V30 1758 O 162.118 -2.26184 -0.32453 0
M  V30 1759 C 162.328 -1.48433 3.15862 0
M  V30 1760 C 163.676 -1.95809 3.76754 0
M  V30 1761 O 164.7 -1.58231 3.19126 0
M  V30 1762 O 163.559 -2.65024 4.77938 0
M  V30 1763 H 160.653 -0.431772 0.705338 0
M  V30 1764 H 163.199 -0.161487 1.6893 0
M  V30 1765 H 161.971 -0.701715 3.84957 0
M  V30 1766 H 161.594 -2.30471 3.23989 0
M  V30 1767 N 162.591 -1.51276 -0.441967 0
M  V30 1768 C 163.523 -1.68444 -1.55433 0
M  V30 1769 C 164.536 -0.565187 -1.52674 0
M  V30 1770 O 165.725 -0.839356 -1.57534 0
M  V30 1771 C 162.825 -1.67966 -2.94348 0
M  V30 1772 C 161.998 -2.964 -3.21661 0
M  V30 1773 C 161.057 -2.88171 -4.40277 0
M  V30 1774 O 160.083 -3.62119 -4.39157 0
M  V30 1775 N 161.285 -2.03706 -5.43584 0
M  V30 1776 H 164.05 -2.644 -1.41112 0
M  V30 1777 H 161.611 -1.49104 -0.630838 0
M  V30 1778 H 163.603 -1.60035 -3.71713 0
M  V30 1779 H 162.173 -0.796225 -3.0229 0
M  V30 1780 H 161.393 -3.18234 -2.32638 0
M  V30 1781 H 162.681 -3.81427 -3.36736 0
M  V30 1782 H 162.079 -1.42995 -5.47329 0
M  V30 1783 H 160.636 -2.01658 -6.1982 0
M  V30 1784 N 164.069 0.697108 -1.41344 0
M  V30 1785 C 165.317 1.45426 -1.40341 0
M  V30 1786 C 165.638 1.94996 -0.0128787 0
M  V30 1787 O 164.908 1.71599 0.945027 0
M  V30 1788 H 163.488 0.539594 -0.516573 0
M  V30 1789 H 166.15 0.825201 -1.76569 0
M  V30 1790 H 165.246 2.31817 -2.08967 0
M  V30 1791 N 165.547 1.27147 0.931209 0
M  V30 1792 C 166.795 1.13055 1.6752 0
M  V30 1793 C 167.116 -0.324791 1.92276 0
M  V30 1794 O 166.386 -1.22775 1.52654 0
M  V30 1795 H 164.966 0.415391 0.620854 0
M  V30 1796 H 167.628 1.59623 1.11833 0
M  V30 1797 H 166.724 1.65694 2.64485 0
M  V30 1798 N 167.025 -1.13721 1.09112 0
M  V30 1799 C 167.988 -2.17222 0.731241 0
M  V30 1800 C 168.988 -1.59035 -0.237566 0
M  V30 1801 O 170.178 -1.74192 -0.0161704 0
M  V30 1802 C 167.31 -3.40804 0.0808443 0
M  V30 1803 H 168.503 -2.50573 1.64783 0
M  V30 1804 H 166.056 -1.28493 0.889897 0
M  V30 1805 H 166.791 -3.1304 -0.847127 0
M  V30 1806 H 166.576 -3.84306 0.777896 0
M  V30 1807 H 168.066 -4.1731 -0.155657 0
M  V30 1808 N 168.503 -0.877838 -1.30888 0
M  V30 1809 C 169.914 -0.544193 -1.78593 0
M  V30 1810 C 170.265 0.939301 -1.72254 0
M  V30 1811 O 169.39 1.7337 -1.29505 0
M  V30 1812 C 169.985 -0.98105 -3.24285 0
M  V30 1813 C 168.544 -0.698935 -3.69854 0
M  V30 1814 C 167.691 -1.168 -2.51502 0
M  V30 1815 H 170.642 -1.06278 -1.17859 0
M  V30 1816 H 170.663 -0.307009 -3.79259 0
M  V30 1817 H 170.175 -2.06079 -3.28866 0
M  V30 1818 H 168.276 0.369112 -3.70767 0
M  V30 1819 H 168.389 -1.28148 -4.61644 0
M  V30 1820 H 166.753 -0.587535 -2.47831 0
M  V30 1821 H 167.536 -2.25533 -2.58824 0
M  V30 1822 N 169.982 1.44106 -0.638065 0
M  V30 1823 C 170.912 2.33448 0.0494287 0
M  V30 1824 C 171.893 1.48606 0.827672 0
M  V30 1825 O 173.078 1.77308 0.792173 0
M  V30 1826 C 170.208 3.31771 1.02691 0
M  V30 1827 C 169.162 4.26485 0.359823 0
M  V30 1828 C 168.488 5.14729 1.44769 0
M  V30 1829 C 169.788 5.17056 -0.738296 0
M  V30 1830 H 171.482 2.91183 -0.696636 0
M  V30 1831 H 169.028 1.40014 -0.336456 0
M  V30 1832 H 170.981 3.93161 1.51666 0
M  V30 1833 H 169.705 2.7226 1.80395 0
M  V30 1834 H 168.364 3.66437 -0.10934 0
M  V30 1835 H 168.012 4.51566 2.21578 0
M  V30 1836 H 167.712 5.78913 1.00668 0
M  V30 1837 H 169.236 5.78991 1.93911 0
M  V30 1838 H 170.65 5.72342 -0.331354 0
M  V30 1839 H 169.047 5.89879 -1.10286 0
M  V30 1840 H 170.117 4.57652 -1.60258 0
M  V30 1841 N 171.46 0.379036 1.52974 0
M  V30 1842 C 172.423 -0.448865 2.24762 0
M  V30 1843 C 173.423 -0.998689 1.26027 0
M  V30 1844 O 174.613 -0.882313 1.50203 0
M  V30 1845 C 171.745 -1.62872 2.99476 0
M  V30 1846 H 172.938 0.179491 2.99362 0
M  V30 1847 H 170.491 0.13096 1.5575 0
M  V30 1848 H 171.226 -2.29479 2.29151 0
M  V30 1849 H 171.011 -1.24128 3.71934 0
M  V30 1850 H 172.501 -2.2151 3.5401 0
M  V30 1851 N 172.938 -1.57226 0.108567 0
M  V30 1852 C 174.186 -1.94448 -0.550853 0
M  V30 1853 C 174.507 -0.992074 -1.67878 0
M  V30 1854 O 173.777 -0.0465 -1.95845 0
M  V30 1855 H 172.357 -0.717897 -0.206479 0
M  V30 1856 H 175.019 -1.94112 0.175062 0
M  V30 1857 H 174.115 -2.97218 -0.952259 0
M  V30 1858 N 174.416 0.165178 -1.56732 0
M  V30 1859 C 175.644 0.896218 -1.86482 0
M  V30 1860 C 176.059 1.75555 -0.694675 0
M  V30 1861 O 175.416 1.79379 0.33607 0
M  V30 1862 C 175.467 1.76792 -3.1532 0
M  V30 1863 O 175.188 0.943239 -4.27825 0
M  V30 1864 C 176.689 2.6081 -3.58459 0
M  V30 1865 H 173.909 0.260064 -0.618553 0
M  V30 1866 H 176.453 0.163428 -2.03846 0
M  V30 1867 H 174.608 2.45398 -2.99764 0
M  V30 1868 H 175.022 1.53998 -5.01383 0
M  V30 1869 H 176.496 3.17579 -4.51495 0
M  V30 1870 H 176.973 3.35977 -2.82872 0
M  V30 1871 H 177.579 1.97526 -3.76648 0
M  V30 1872 N 175.894 1.51508 0.433938 0
M  V30 1873 C 176.842 1.73646 1.54757 0
M  V30 1874 C 177.836 0.602854 1.5831 0
M  V30 1875 O 179.042 0.784318 1.62014 0
M  V30 1876 H 175.417 0.548718 0.51421 0
M  V30 1877 H 177.388 2.66991 1.33261 0
M  V30 1878 C 176.137 1.88172 2.92381 0
M  V30 1879 H 175.46 2.74808 2.90381 0
M  V30 1880 H 176.9 2.07672 3.6966 0
M  V30 1881 C 175.359 0.64239 3.30719 0
M  V30 1882 O 175.889 -0.201362 4.01195 0
M  V30 1883 N 174.095 0.485489 2.86516 0
M  V30 1884 H 173.642 1.17318 2.29334 0
M  V30 1885 H 173.6 -0.342482 3.12529 0
M  V30 1886 N 177.372 -0.689602 1.41712 0
M  V30 1887 C 178.319 -1.80345 1.44029 0
M  V30 1888 C 179.289 -1.63478 0.293948 0
M  V30 1889 O 180.474 -1.84244 0.495869 0
M  V30 1890 C 177.614 -3.18272 1.33405 0
M  V30 1891 C 176.727 -3.46529 2.57956 0
M  V30 1892 C 175.862 -4.74103 2.39582 0
M  V30 1893 C 174.901 -4.95347 3.5958 0
M  V30 1894 N 174.038 -6.14151 3.40239 0
M  V30 1895 H 178.878 -1.77698 2.39222 0
M  V30 1896 H 176.415 -0.867688 1.18784 0
M  V30 1897 H 178.373 -3.97956 1.25246 0
M  V30 1898 H 177.003 -3.2008 0.418164 0
M  V30 1899 H 176.055 -2.61207 2.76542 0
M  V30 1900 H 177.367 -3.58126 3.47199 0
M  V30 1901 H 176.521 -5.61853 2.28924 0
M  V30 1902 H 175.26 -4.64763 1.47805 0
M  V30 1903 H 174.265 -4.06044 3.70686 0
M  V30 1904 H 175.49 -5.06542 4.52318 0
M  V30 1905 H 173.436 -6.06013 2.51167 0
M  V30 1906 H 173.353 -6.26543 4.23061 0
M  V30 1907 H 174.621 -7.04619 3.33365 0
M  V30 1908 N 178.85 -1.27639 -0.924453 0
M  V30 1909 C 179.76 -1.12466 -2.05885 0
M  V30 1910 C 180.776 -0.053869 -1.73917 0
M  V30 1911 O 181.952 -0.261012 -1.99702 0
M  V30 1912 C 179.017 -0.776768 -3.37886 0
M  V30 1913 C 178.078 -1.92878 -3.83532 0
M  V30 1914 C 177.311 -1.59739 -5.09234 0
M  V30 1915 O 177.534 -0.506782 -5.68144 0
M  V30 1916 O 176.468 -2.43761 -5.50331 0
M  V30 1917 H 180.294 -2.07671 -2.21599 0
M  V30 1918 H 177.879 -1.06857 -1.04413 0
M  V30 1919 H 179.761 -0.596229 -4.17161 0
M  V30 1920 H 178.436 0.145732 -3.23372 0
M  V30 1921 H 177.343 -2.1644 -3.0513 0
M  V30 1922 H 178.676 -2.8316 -4.02593 0
M  V30 1923 N 180.328 1.1314 -1.09713 0
M  V30 1924 C 181.556 1.88321 -0.856898 0
M  V30 1925 C 181.971 1.79276 0.592073 0
M  V30 1926 O 181.328 1.16142 1.40774 0
M  V30 1927 C 181.379 3.37812 -1.28706 0
M  V30 1928 O 181.1 3.46627 -2.67921 0
M  V30 1929 C 182.601 4.29952 -1.07964 0
M  V30 1930 H 179.821 0.596094 -0.308079 0
M  V30 1931 H 182.365 1.43205 -1.45988 0
M  V30 1932 H 180.52 3.805 -0.727912 0
M  V30 1933 H 180.934 4.39579 -2.8613 0
M  V30 1934 H 182.408 5.33159 -1.42986 0
M  V30 1935 H 182.885 4.39196 -0.0176577 0
M  V30 1936 H 183.491 3.93036 -1.62489 0
M  V30 1937 N 181.806 0.884767 1.30421 0
M  V30 1938 C 183.034 0.518044 2.0031 0
M  V30 1939 C 183.449 -0.893408 1.66324 0
M  V30 1940 O 182.806 -1.5875 0.900262 0
M  V30 1941 C 182.857 0.682997 3.54989 0
M  V30 1942 O 182.578 2.03888 3.87764 0
M  V30 1943 C 184.079 0.31924 4.42149 0
M  V30 1944 H 181.299 0.200265 0.640418 0
M  V30 1945 H 183.843 1.19001 1.6631 0
M  V30 1946 H 181.998 0.0584052 3.87356 0
M  V30 1947 H 182.412 2.05735 4.82466 0
M  V30 1948 H 183.886 0.485555 5.4986 0
M  V30 1949 H 184.363 -0.742717 4.32875 0
M  V30 1950 H 184.969 0.920147 4.15227 0
M  V30 1951 N 183.284 -1.43765 0.645699 0
M  V30 1952 C 184.533 -2.01116 0.153412 0
M  V30 1953 C 184.846 -1.51493 -1.23731 0
M  V30 1954 O 186.052 -2.01067 -1.8244 0
M  V30 1955 C 184.508 -3.59206 0.223473 0
M  V30 1956 C 184.116 -4.17823 1.61642 0
M  V30 1957 C 185.86 -4.23972 -0.211597 0
M  V30 1958 C 183.767 -5.68183 1.64081 0
M  V30 1959 H 182.697 -0.752093 0.0535891 0
M  V30 1960 H 185.348 -1.6482 0.806633 0
M  V30 1961 H 183.73 -3.92867 -0.497118 0
M  V30 1962 H 184.904 -3.95674 2.36176 0
M  V30 1963 H 183.219 -3.65399 1.99681 0
M  V30 1964 H 185.816 -5.34275 -0.213112 0
M  V30 1965 H 186.159 -3.97352 -1.24165 0
M  V30 1966 H 186.692 -3.95166 0.456988 0
M  V30 1967 H 183.431 -5.99559 2.64971 0
M  V30 1968 H 182.951 -5.9241 0.938611 0
M  V30 1969 H 184.63 -6.32085 1.3812 0
M  V30 1970 N 184.763 -0.387143 -1.52771 0
M  V30 1971 C 185.695 0.484089 -2.2403 0
M  V30 1972 C 186.708 1.02849 -1.26198 0
M  V30 1973 O 187.897 0.931186 -1.52286 0
M  V30 1974 C 184.997 1.68337 -2.94136 0
M  V30 1975 C 184.17 1.26672 -4.18656 0
M  V30 1976 C 183.229 2.33045 -4.7178 0
M  V30 1977 O 182.255 1.94541 -5.34923 0
M  V30 1978 N 183.457 3.64929 -4.5145 0
M  V30 1979 H 186.222 -0.126404 -2.99433 0
M  V30 1980 H 183.783 -0.213392 -1.60488 0
M  V30 1981 H 185.775 2.39019 -3.26577 0
M  V30 1982 H 184.345 2.20025 -2.22053 0
M  V30 1983 H 183.565 0.388878 -3.92277 0
M  V30 1984 H 184.853 0.964964 -4.99566 0
M  V30 1985 H 184.251 3.98974 -4.01044 0
M  V30 1986 H 182.808 4.31651 -4.88386 0
M  V30 1987 N 186.241 1.57166 -0.116904 0
M  V30 1988 C 187.489 1.94737 0.540533 0
M  V30 1989 C 187.81 1.00096 1.67349 0
M  V30 1990 O 187.08 0.0568854 1.95817 0
M  V30 1991 H 185.66 0.718981 0.202669 0
M  V30 1992 H 188.322 1.94017 -0.185353 0
M  V30 1993 H 187.418 2.97719 0.936483 0
M  V30 1994 N 187.719 -0.156864 1.56817 0
M  V30 1995 C 188.649 -1.19589 2.00551 0
M  V30 1996 C 189.63 -1.4536 0.883426 0
M  V30 1997 O 190.815 -1.56449 1.15054 0
M  V30 1998 C 187.945 -2.53143 2.37773 0
M  V30 1999 C 186.899 -2.41913 3.53075 0
M  V30 2000 C 186.225 -3.80088 3.76081 0
M  V30 2001 C 187.525 -1.91157 4.86062 0
M  V30 2002 H 189.219 -0.832293 2.87599 0
M  V30 2003 H 186.765 -0.398918 1.38364 0
M  V30 2004 H 188.718 -3.26047 2.66967 0
M  V30 2005 H 187.442 -2.91319 1.4765 0
M  V30 2006 H 186.101 -1.71462 3.24031 0
M  V30 2007 H 185.749 -4.15683 2.83225 0
M  V30 2008 H 185.449 -3.73439 4.53671 0
M  V30 2009 H 186.973 -4.54556 4.0769 0
M  V30 2010 H 188.387 -2.53846 5.14038 0
M  V30 2011 H 186.784 -1.95422 5.67389 0
M  V30 2012 H 187.854 -0.866673 4.77092 0
M  V30 2013 N 189.197 -1.51736 -0.425897 0
M  V30 2014 C 190.474 -1.55519 -1.1863 0
M  V30 2015 C 190.854 -0.326219 -2.08564 0
M  V30 2016 O 190.202 0.688012 -2.17896 0
M  V30 2017 C 190.412 -2.87521 -1.9782 0
M  V30 2018 C 191.76 -3.39899 -2.54468 0
M  V30 2019 O 192.784 -2.89148 -2.08019 0
M  V30 2020 O 191.643 -4.2848 -3.39215 0
M  V30 2021 H 188.737 -0.625739 -0.540721 0
M  V30 2022 H 191.283 -1.64055 -0.434038 0
M  V30 2023 H 190.055 -3.68422 -1.31836 0
M  V30 2024 H 189.678 -2.822 -2.80088 0
M  V30 2025 N 190.675 0.682077 -1.42076 0
M  V30 2026 C 191.923 1.4393 -1.41876 0
M  V30 2027 C 192.244 1.94971 -0.0335599 0
M  V30 2028 O 191.514 1.72591 0.926773 0
M  V30 2029 H 190.094 0.534085 -0.522267 0
M  V30 2030 H 192.756 0.806427 -1.77434 0
M  V30 2031 H 191.852 2.29588 -2.11414 0
M  V30 2032 N 192.153 1.28127 0.917671 0
M  V30 2033 C 193.083 1.14248 2.03641 0
M  V30 2034 C 194.064 0.0412748 1.7005 0
M  V30 2035 O 195.249 0.217566 1.92977 0
M  V30 2036 C 192.379 0.799431 3.37974 0
M  V30 2037 C 191.333 1.85497 3.85713 0
M  V30 2038 C 190.659 1.36565 5.16966 0
M  V30 2039 C 191.959 3.26085 4.08002 0
M  V30 2040 H 193.653 2.07835 2.15511 0
M  V30 2041 H 191.199 1.00064 1.03553 0
M  V30 2042 H 193.152 0.689114 4.15727 0
M  V30 2043 H 191.876 -0.172145 3.26146 0
M  V30 2044 H 190.535 1.95437 3.10161 0
M  V30 2045 H 190.183 0.383253 5.01538 0
M  V30 2046 H 189.883 2.07143 5.49878 0
M  V30 2047 H 191.407 1.26848 5.97279 0
M  V30 2048 H 192.821 3.19089 4.76293 0
M  V30 2049 H 191.218 3.94462 4.52238 0
M  V30 2050 H 192.288 3.70394 3.12948 0
M  V30 2051 N 193.631 -1.12557 1.10312 0
M  V30 2052 C 194.856 -1.88405 0.867085 0
M  V30 2053 C 195.281 -1.79038 -0.576817 0
M  V30 2054 O 194.639 -1.14439 -1.40618 0
M  V30 2055 C 194.687 -3.3563 1.31851 0
M  V30 2056 O 193.791 -4.09565 0.482734 0
M  V30 2057 H 193.132 -0.585455 0.313271 0
M  V30 2058 H 195.662 -1.42352 1.4696 0
M  V30 2059 H 195.672 -3.86469 1.3079 0
M  V30 2060 H 194.347 -3.41765 2.37001 0
M  V30 2061 H 192.924 -3.68695 0.558448 0
M  V30 2062 N 195.109 -0.891671 -1.2995 0
M  V30 2063 C 196.019 -0.367691 -2.31701 0
M  V30 2064 C 197.035 0.533486 -1.6562 0
M  V30 2065 O 198.211 0.424997 -1.96865 0
M  V30 2066 C 195.276 0.403406 -3.44345 0
M  V30 2067 C 194.337 -0.528328 -4.26037 0
M  V30 2068 C 193.57 0.206063 -5.33302 0
M  V30 2069 O 193.793 1.43119 -5.52153 0
M  V30 2070 O 192.727 -0.447281 -6.00236 0
M  V30 2071 H 196.553 -1.21163 -2.78484 0
M  V30 2072 H 194.138 -0.655725 -1.34241 0
M  V30 2073 H 196.02 0.839753 -4.12948 0
M  V30 2074 H 194.695 1.22354 -2.99685 0
M  V30 2075 H 193.602 -1.01362 -3.60106 0
M  V30 2076 H 194.935 -1.31465 -4.74318 0
M  V30 2077 N 196.587 1.43421 -0.653314 0
M  V30 2078 C 198.003 1.56341 -0.320886 0
M  V30 2079 C 198.203 1.63696 1.17499 0
M  V30 2080 O 197.259 1.59208 1.95982 0
M  V30 2081 C 198.572 2.82424 -1.03233 0
M  V30 2082 C 200.12 2.96168 -1.01259 0
M  V30 2083 C 200.595 4.25084 -1.70492 0
M  V30 2084 N 202.086 4.31948 -1.67257 0
M  V30 2085 C 202.821 5.30466 -2.17701 0
M  V30 2086 N 202.317 6.35261 -2.76434 0
M  V30 2087 N 204.11 5.2212 -2.082 0
M  V30 2088 H 196.261 1.3689 -1.62403 0
M  V30 2089 H 198.524 0.657455 -0.682977 0
M  V30 2090 H 198.23 2.83053 -2.08744 0
M  V30 2091 H 198.104 3.72653 -0.583948 0
M  V30 2092 H 200.491 2.9508 0.0341235 0
M  V30 2093 H 200.572 2.07229 -1.49966 0
M  V30 2094 H 200.216 4.26932 -2.7512 0
M  V30 2095 H 200.146 5.1292 -1.19251 0
M  V30 2096 H 202.637 3.56838 -1.24398 0
M  V30 2097 H 202.95 7.06754 -3.12601 0
M  V30 2098 H 201.295 6.35884 -2.80495 0
M  V30 2099 H 204.486 4.39166 -1.62021 0
M  V30 2100 H 204.659 5.98739 -2.47822 0
M  V30 2101 N 198.065 0.39524 1.52563 0
M  V30 2102 C 199.305 -0.184744 2.03563 0
M  V30 2103 C 199.669 -1.43548 1.27507 0
M  V30 2104 O 200.87 -2.093 1.68662 0
M  V30 2105 C 199.141 -0.440294 3.54678 0
M  V30 2106 S 200.7 -0.989712 4.27493 0
M  V30 2107 H 197.518 -0.0515075 0.709132 0
M  V30 2108 H 200.12 0.544957 1.87751 0
M  V30 2109 H 198.824 0.477005 4.07618 0
M  V30 2110 H 198.355 -1.19825 3.74707 0
M  V30 2111 H 200.37 -2.27155 4.41152 0
M  V30 2112 N 199.544 -1.57102 0.125237 0
M  V30 2113 C 200.507 -2.14471 -0.80838 0
M  V30 2114 C 201.507 -1.0811 -1.19033 0
M  V30 2115 O 202.697 -1.33856 -1.11482 0
M  V30 2116 C 199.829 -2.69005 -2.09402 0
M  V30 2117 H 201.022 -2.98297 -0.309696 0
M  V30 2118 H 198.575 -1.55807 -0.124051 0
M  V30 2119 H 199.31 -1.88785 -2.63687 0
M  V30 2120 H 199.095 -3.46799 -1.82957 0
M  V30 2121 H 200.585 -3.13278 -2.76128 0
M  V30 2122 N 201.022 0.148545 -1.56898 0
M  V30 2123 C 201.954 1.20852 -1.9475 0
M  V30 2124 C 202.967 1.39265 -0.843152 0
M  V30 2125 O 204.156 1.38864 -1.12156 0
M  V30 2126 C 201.256 2.57362 -2.20495 0
M  V30 2127 C 200.429 2.59947 -3.51776 0
M  V30 2128 C 199.488 3.77984 -3.6608 0
M  V30 2129 O 198.514 3.62929 -4.38487 0
M  V30 2130 N 199.716 4.95375 -3.02629 0
M  V30 2131 H 202.481 0.886804 -2.86279 0
M  V30 2132 H 200.042 0.338121 -1.5833 0
M  V30 2133 H 202.034 3.34833 -2.27307 0
M  V30 2134 H 200.604 2.81832 -1.35238 0
M  V30 2135 H 199.824 1.68403 -3.56419 0
M  V30 2136 H 201.112 2.58704 -4.38121 0
M  V30 2137 H 200.51 5.10509 -2.43715 0
M  V30 2138 H 199.067 5.70627 -3.15004 0
M  V30 2139 N 202.5 1.5196 0.417844 0
M  V30 2140 C 203.73 1.69181 1.18581 0
M  V30 2141 C 204.138 0.397104 1.84986 0
M  V30 2142 O 203.481 -0.636011 1.72339 0
M  V30 2143 C 203.543 2.76497 2.29759 0
M  V30 2144 C 203.207 4.18514 1.83563 0
M  V30 2145 C 204.204 5.02648 1.32821 0
M  V30 2146 C 201.889 4.64708 1.90661 0
M  V30 2147 C 203.883 6.31044 0.897894 0
M  V30 2148 C 201.57 5.93096 1.47241 0
M  V30 2149 C 202.568 6.76093 0.968891 0
M  V30 2150 O 202.256 8.02078 0.540924 0
M  V30 2151 H 201.988 0.570457 0.362705 0
M  V30 2152 H 204.542 1.99249 0.498885 0
M  V30 2153 H 202.772 2.41786 3.01789 0
M  V30 2154 H 204.461 2.82403 2.91553 0
M  V30 2155 H 205.227 4.68154 1.26716 0
M  V30 2156 H 201.106 4.00216 2.28797 0
M  V30 2157 H 204.65 6.95776 0.504192 0
M  V30 2158 H 200.547 6.271 1.53022 0
M  V30 2159 H 201.315 8.15794 0.66502 0
M  V30 2160 N 203.978 -0.674533 1.42435 0
M  V30 2161 C 204.925 -1.78807 1.45934 0
M  V30 2162 C 205.895 -1.63157 0.311271 0
M  V30 2163 O 207.08 -1.83707 0.515383 0
M  V30 2164 C 204.22 -3.16839 1.36773 0
M  V30 2165 C 203.333 -3.43774 2.61617 0
M  V30 2166 C 202.468 -4.71536 2.44597 0
M  V30 2167 C 201.507 -4.91505 3.64814 0
M  V30 2168 N 200.644 -6.10508 3.46734 0
M  V30 2169 H 205.484 -1.75151 2.41093 0
M  V30 2170 H 203.021 -0.85504 1.19697 0
M  V30 2171 H 204.979 -3.96606 1.29459 0
M  V30 2172 H 203.609 -3.19619 0.452089 0
M  V30 2173 H 202.661 -2.58259 2.79297 0
M  V30 2174 H 203.973 -3.54423 3.50978 0
M  V30 2175 H 203.127 -5.59393 2.3487 0
M  V30 2176 H 201.866 -4.6317 1.52726 0
M  V30 2177 H 200.871 -4.0209 3.74972 0
M  V30 2178 H 202.096 -5.01716 4.57665 0
M  V30 2179 H 200.042 -6.03315 2.5758 0
M  V30 2180 H 199.959 -6.2202 4.29682 0
M  V30 2181 H 201.227 -7.01044 3.40819 0
M  V30 2182 N 205.456 -1.28612 -0.910864 0
M  V30 2183 C 206.403 -1.12786 -2.01365 0
M  V30 2184 C 207.373 -0.024201 -1.66082 0
M  V30 2185 O 208.558 -0.189667 -1.89855 0
M  V30 2186 C 205.698 -0.798743 -3.35729 0
M  V30 2187 C 204.811 -1.98173 -3.83864 0
M  V30 2188 C 203.946 -1.59298 -5.06752 0
M  V30 2189 C 202.985 -2.74245 -5.47226 0
M  V30 2190 N 202.122 -2.35842 -6.61304 0
M  V30 2191 H 206.962 -2.07142 -2.14234 0
M  V30 2192 H 204.499 -1.03093 -1.0493 0
M  V30 2193 H 206.457 -0.588662 -4.13026 0
M  V30 2194 H 205.087 0.10789 -3.2262 0
M  V30 2195 H 204.139 -2.30386 -3.02699 0
M  V30 2196 H 205.451 -2.84343 -4.09818 0
M  V30 2197 H 204.605 -1.34513 -5.916 0
M  V30 2198 H 203.344 -0.702618 -4.82612 0
M  V30 2199 H 202.349 -2.99725 -4.60918 0
M  V30 2200 H 203.574 -3.63928 -5.73353 0
M  V30 2201 H 201.52 -1.49279 -6.38789 0
M  V30 2202 H 201.437 -3.15546 -6.86998 0
M  V30 2203 H 202.705 -2.14348 -7.4945 0
M  V30 2204 N 206.934 1.1197 -1.10907 0
M  V30 2205 C 208.211 1.79959 -0.766432 0
M  V30 2206 C 208.591 1.97466 0.746363 0
M  V30 2207 O 207.939 1.55491 1.67436 0
M  V30 2208 C 208.149 3.14009 -1.52314 0
M  V30 2209 C 209.497 3.89134 -1.69883 0
M  V30 2210 O 210.521 3.2368 -1.48692 0
M  V30 2211 O 209.38 5.06572 -2.05054 0
M  V30 2212 H 206.474 0.779208 -0.277062 0
M  V30 2213 H 209.02 1.18762 -1.21217 0
M  V30 2214 H 207.792 2.96587 -2.55249 0
M  V30 2215 H 207.415 3.82915 -1.07059 0
M  V30 2216 N 208.412 0.89855 1.29475 0
M  V30 2217 C 209.66 0.522847 1.9522 0
M  V30 2218 C 209.981 -0.93371 1.71192 0
M  V30 2219 O 209.251 -1.65823 1.04305 0
M  V30 2220 H 207.831 0.190366 0.722336 0
M  V30 2221 H 210.493 1.14459 1.5775 0
M  V30 2222 H 209.589 0.704476 3.04045 0
M  V30 2223 N 209.89 -1.43072 0.660911 0
M  V30 2224 C 211.136 -2.0202 0.177708 0
M  V30 2225 C 211.469 -1.52066 -1.20787 0
M  V30 2226 O 210.744 -0.716987 -1.80802 0
M  V30 2227 C 211.027 -3.59561 0.197019 0
M  V30 2228 C 210.88 -4.19727 1.61706 0
M  V30 2229 C 212.199 -4.37664 -0.462396 0
M  V30 2230 H 209.318 -0.734034 0.0660494 0
M  V30 2231 H 211.96 -1.70272 0.843058 0
M  V30 2232 H 210.11 -3.86739 -0.369527 0
M  V30 2233 H 211.782 -4.03553 2.23479 0
M  V30 2234 H 210.025 -3.76084 2.16201 0
M  V30 2235 H 210.696 -5.28834 1.58237 0
M  V30 2236 H 213.172 -4.16095 0.0197215 0
M  V30 2237 H 212.048 -5.47305 -0.418188 0
M  V30 2238 H 212.309 -4.14493 -1.53778 0
M  V30 2239 N 211.368 -0.403325 -1.52352 0
M  V30 2240 C 212.645 0.232611 -1.94212 0
M  V30 2241 C 213.025 1.63133 -1.33981 0
M  V30 2242 O 212.373 2.22659 -0.513344 0
M  V30 2243 C 212.583 0.244811 -3.4814 0
M  V30 2244 C 213.931 0.46698 -4.22024 0
M  V30 2245 O 214.955 0.324419 -3.5472 0
M  V30 2246 O 213.814 0.74747 -5.41364 0
M  V30 2247 H 210.908 0.148223 -0.813609 0
M  V30 2248 H 213.454 -0.458848 -1.63379 0
M  V30 2249 H 212.226 -0.734378 -3.84347 0
M  V30 2250 H 211.849 0.980611 -3.85318 0
M  V30 2251 N 212.846 1.57033 -0.133567 0
M  V30 2252 C 214.093 1.95686 0.520877 0
M  V30 2253 C 214.421 1.0177 1.6575 0
M  V30 2254 O 213.676 0.0443195 1.9565 0
M  V30 2255 C 213.975 3.40674 1.08057 0
M  V30 2256 C 213.641 4.50855 0.0637899 0
M  V30 2257 C 212.303 4.80716 -0.215757 0
M  V30 2258 C 214.655 5.17398 -0.62835 0
M  V30 2259 C 211.983 5.74433 -1.19348 0
M  V30 2260 C 214.335 6.12167 -1.5948 0
M  V30 2261 C 212.999 6.40414 -1.88218 0
M  V30 2262 H 212.269 0.716067 0.190602 0
M  V30 2263 H 214.916 1.9026 -0.217556 0
M  V30 2264 H 213.221 3.42865 1.89606 0
M  V30 2265 H 214.918 3.67902 1.59529 0
M  V30 2266 H 211.508 4.27605 0.291855 0
M  V30 2267 H 215.692 4.94472 -0.425562 0
M  V30 2268 H 210.948 5.94616 -1.42272 0
M  V30 2269 H 215.122 6.6281 -2.13671 0
M  V30 2270 H 212.749 7.12838 -2.64133 0
M  V30 2271 N 214.325 -0.140222 1.56975 0
M  V30 2272 C 215.573 -0.850005 1.83356 0
M  V30 2273 C 215.894 -1.81399 0.71551 0
M  V30 2274 O 215.164 -1.94136 -0.262294 0
M  V30 2275 H 213.744 -0.316886 0.676456 0
M  V30 2276 H 216.406 -0.132608 1.94448 0
M  V30 2277 H 215.502 -1.40814 2.78528 0
M  V30 2278 N 215.803 -1.52179 -0.40978 0
M  V30 2279 C 216.75 -1.75475 -1.49924 0
M  V30 2280 C 217.72 -0.597175 -1.54994 0
M  V30 2281 O 218.905 -0.834655 -1.71575 0
M  V30 2282 C 216.045 -1.9107 -2.87378 0
M  V30 2283 C 215.158 -3.18717 -2.91622 0
M  V30 2284 C 214.293 -3.24747 -4.20372 0
M  V30 2285 C 213.332 -4.46598 -4.18588 0
M  V30 2286 N 212.469 -4.50025 -5.38908 0
M  V30 2287 H 217.309 -2.68458 -1.29361 0
M  V30 2288 H 214.846 -1.33024 -0.627934 0
M  V30 2289 H 216.804 -1.98096 -3.6717 0
M  V30 2290 H 215.434 -1.01469 -3.06437 0
M  V30 2291 H 214.486 -3.20866 -2.04326 0
M  V30 2292 H 215.798 -4.08544 -2.86169 0
M  V30 2293 H 214.952 -3.30841 -5.08556 0
M  V30 2294 H 213.691 -2.32857 -4.28519 0
M  V30 2295 H 212.696 -4.40652 -3.28794 0
M  V30 2296 H 213.921 -5.39783 -4.12081 0
M  V30 2297 H 211.867 -3.61017 -5.47725 0
M  V30 2298 H 211.784 -5.33697 -5.35447 0
M  V30 2299 H 213.052 -4.60347 -6.29048 0
M  V30 2300 N 217.281 0.66697 -1.42791 0
M  V30 2301 C 218.527 1.42754 -1.44889 0
M  V30 2302 C 218.882 1.92283 -0.0669755 0
M  V30 2303 O 218.175 1.68494 0.912154 0
M  V30 2304 C 218.369 2.6349 -2.4147 0
M  V30 2305 C 218.198 2.25776 -3.88915 0
M  V30 2306 C 216.968 2.1476 -4.57391 0
M  V30 2307 C 219.166 1.86927 -4.79127 0
M  V30 2308 N 217.148 1.70232 -5.89826 0
M  V30 2309 C 218.519 1.53378 -6.00729 0
M  V30 2310 C 220.574 1.73989 -4.66511 0
M  V30 2311 C 219.277 1.08187 -7.11117 0
M  V30 2312 C 221.303 1.30203 -5.76889 0
M  V30 2313 C 220.665 0.975818 -6.97608 0
M  V30 2314 H 216.764 0.518559 -0.585338 0
M  V30 2315 H 219.348 0.768906 -1.78874 0
M  V30 2316 H 217.519 3.27033 -2.09533 0
M  V30 2317 H 219.251 3.30123 -2.34096 0
M  V30 2318 H 216.006 2.3408 -4.11708 0
M  V30 2319 H 216.43 1.50369 -6.6009 0
M  V30 2320 H 221.072 1.97853 -3.7365 0
M  V30 2321 H 218.79 0.830701 -8.03819 0
M  V30 2322 H 222.376 1.20701 -5.69142 0
M  V30 2323 H 221.256 0.642157 -7.81566 0
M  V30 2324 N 218.759 1.29093 0.90403 0
M  V30 2325 C 220.175 1.07011 1.1841 0
M  V30 2326 C 220.375 -0.181358 2.00682 0
M  V30 2327 O 219.431 -0.880331 2.36657 0
M  V30 2328 C 220.744 2.32311 1.90924 0
M  V30 2329 C 222.292 2.37587 2.03768 0
M  V30 2330 C 222.767 3.62679 2.79693 0
M  V30 2331 N 224.258 3.63376 2.87249 0
M  V30 2332 C 224.993 4.56848 3.46522 0
M  V30 2333 N 224.489 5.60648 4.06996 0
M  V30 2334 N 226.282 4.44426 3.44154 0
M  V30 2335 H 218.433 2.09412 0.354993 0
M  V30 2336 H 220.696 0.922181 0.219742 0
M  V30 2337 H 220.402 3.23536 1.37905 0
M  V30 2338 H 220.276 2.39483 2.91424 0
M  V30 2339 H 222.663 1.46853 2.55965 0
M  V30 2340 H 222.744 2.34403 1.02415 0
M  V30 2341 H 222.388 4.53762 2.28173 0
M  V30 2342 H 222.318 3.63119 3.81381 0
M  V30 2343 H 224.809 2.88321 2.44293 0
M  V30 2344 H 225.122 6.28101 4.50232 0
M  V30 2345 H 223.467 5.64463 4.05471 0
M  V30 2346 H 226.658 3.62529 2.96126 0
M  V30 2347 H 226.831 5.17457 3.90054 0
M  V30 2348 N 220.237 -1.11381 1.11499 0
M  V30 2349 C 221.2 -2.15622 0.777153 0
M  V30 2350 C 222.2 -1.59504 -0.203779 0
M  V30 2351 O 223.39 -1.74188 0.020782 0
M  V30 2352 C 220.522 -3.40556 0.153116 0
M  V30 2353 H 221.715 -2.47021 1.70061 0
M  V30 2354 H 219.268 -1.26577 0.916952 0
M  V30 2355 H 220.003 -3.14767 -0.780536 0
M  V30 2356 H 219.788 -3.8257 0.859238 0
M  V30 2357 H 221.278 -4.17546 -0.0671044 0
M  V30 2358 N 221.715 -0.905404 -1.28997 0
M  V30 2359 C 222.961 -0.535039 -1.95615 0
M  V30 2360 C 223.294 0.917404 -1.71165 0
M  V30 2361 O 222.569 1.65123 -1.02785 0
M  V30 2362 C 222.852 -0.834918 -3.50287 0
M  V30 2363 C 222.705 -2.33948 -3.84172 0
M  V30 2364 C 224.024 -0.325318 -4.38896 0
M  V30 2365 H 221.143 -0.195861 -0.710498 0
M  V30 2366 H 223.785 -1.13313 -1.52513 0
M  V30 2367 H 221.935 -0.325904 -3.87131 0
M  V30 2368 H 223.607 -2.91847 -3.57243 0
M  V30 2369 H 221.85 -2.79789 -3.31513 0
M  V30 2370 H 222.521 -2.49987 -4.92149 0
M  V30 2371 H 224.997 -0.761256 -4.09077 0
M  V30 2372 H 223.873 -0.564295 -5.45992 0
M  V30 2373 H 224.134 0.774144 -4.35269 0
M  V30 2374 N 223.193 1.4272 -0.668489 0
M  V30 2375 C 224.123 2.335 -0.000100175 0
M  V30 2376 C 225.104 1.50328 0.795964 0
M  V30 2377 O 226.289 1.78949 0.754385 0
M  V30 2378 C 223.419 3.33874 0.956302 0
M  V30 2379 C 222.373 4.27152 0.269278 0
M  V30 2380 C 221.699 5.17684 1.33818 0
M  V30 2381 C 222.999 5.15373 -0.847805 0
M  V30 2382 H 224.693 2.89639 -0.758244 0
M  V30 2383 H 222.239 1.39269 -0.366079 0
M  V30 2384 H 224.192 3.9629 1.43292 0
M  V30 2385 H 222.916 2.76025 1.74579 0
M  V30 2386 H 221.575 3.66123 -0.187042 0
M  V30 2387 H 221.223 4.56165 2.1195 0
M  V30 2388 H 220.923 5.80918 0.883659 0
M  V30 2389 H 222.447 5.82974 1.81586 0
M  V30 2390 H 223.861 5.7151 -0.452681 0
M  V30 2391 H 222.258 5.87407 -1.22773 0
M  V30 2392 H 223.328 4.5415 -1.69929 0
M  V30 2393 N 224.671 0.411399 1.52136 0
M  V30 2394 C 226.087 0.0623865 1.59478 0
M  V30 2395 C 226.287 -1.42554 1.4241 0
M  V30 2396 O 225.343 -2.19263 1.2522 0
M  V30 2397 C 226.656 0.559331 2.95452 0
M  V30 2398 C 228.204 0.517503 3.08692 0
M  V30 2399 C 228.679 0.990994 4.4715 0
M  V30 2400 N 230.17 0.947908 4.53397 0
M  V30 2401 C 230.905 1.28544 5.58806 0
M  V30 2402 N 230.401 1.69454 6.71757 0
M  V30 2403 N 232.194 1.20526 5.49026 0
M  V30 2404 H 224.345 1.37982 1.61477 0
M  V30 2405 H 226.608 0.566977 0.759764 0
M  V30 2406 H 226.314 1.59938 3.1323 0
M  V30 2407 H 226.188 -0.0298014 3.77188 0
M  V30 2408 H 228.575 -0.513505 2.90598 0
M  V30 2409 H 228.656 1.14272 2.28857 0
M  V30 2410 H 228.3 2.02034 4.65988 0
M  V30 2411 H 228.23 0.34257 5.25485 0
M  V30 2412 H 230.721 0.647157 3.72317 0
M  V30 2413 H 231.034 1.93513 7.48179 0
M  V30 2414 H 229.379 1.73359 6.73032 0
M  V30 2415 H 232.57 0.884505 4.59667 0
M  V30 2416 H 232.743 1.47161 6.31069 0
M  V30 2417 N 226.149 -1.5696 0.141893 0
M  V30 2418 C 227.398 -1.95135 -0.510427 0
M  V30 2419 C 227.711 -1.02896 -1.66348 0
M  V30 2420 O 228.917 -1.30629 -2.38009 0
M  V30 2421 C 227.373 -3.46876 -0.959427 0
M  V30 2422 C 226.981 -4.47691 0.166419 0
M  V30 2423 C 228.725 -3.93927 -1.58183 0
M  V30 2424 C 226.632 -5.90636 -0.300565 0
M  V30 2425 H 225.562 -0.728494 -0.194454 0
M  V30 2426 H 228.213 -1.8211 0.22542 0
M  V30 2427 H 226.595 -3.55215 -1.75038 0
M  V30 2428 H 227.769 -4.51043 0.94325 0
M  V30 2429 H 226.084 -4.10527 0.696905 0
M  V30 2430 H 228.681 -4.98158 -1.94275 0
M  V30 2431 H 229.024 -3.3519 -2.46888 0
M  V30 2432 H 229.557 -3.88484 -0.855863 0
M  V30 2433 H 226.296 -6.5318 0.550989 0
M  V30 2434 H 225.816 -5.90655 -1.04338 0
M  V30 2435 H 227.495 -6.42588 -0.754265 0
M  V30 2436 N 227.627 0.131896 -1.57047 0
M  V30 2437 C 228.59 1.14638 -1.98471 0
M  V30 2438 C 229.59 1.35029 -0.873148 0
M  V30 2439 O 230.78 1.31764 -1.13946 0
M  V30 2440 C 227.912 2.50358 -2.31373 0
M  V30 2441 H 229.105 0.79064 -2.8929 0
M  V30 2442 H 226.658 0.375761 -1.51716 0
M  V30 2443 H 227.393 2.90876 -1.43393 0
M  V30 2444 H 227.178 2.36915 -3.12432 0
M  V30 2445 H 228.668 3.23395 -2.64207 0
M  V30 2446 N 229.106 1.52395 0.401703 0
M  V30 2447 C 230.383 1.57387 1.16141 0
M  V30 2448 C 230.763 0.359359 2.08019 0
M  V30 2449 O 230.111 -0.65326 2.18963 0
M  V30 2450 C 230.321 2.90631 1.93221 0
M  V30 2451 C 231.669 3.43904 2.49028 0
M  V30 2452 O 232.693 2.92421 2.03393 0
M  V30 2453 O 231.552 4.33823 3.32356 0
M  V30 2454 H 228.646 0.634262 0.530698 0
M  V30 2455 H 231.192 1.64725 0.407883 0
M  V30 2456 H 229.964 3.70473 1.25958 0
M  V30 2457 H 229.587 2.8662 2.75563 0
M  V30 2458 N 230.584 -0.659388 1.43143 0
M  V30 2459 C 231.516 -1.7849 1.43784 0
M  V30 2460 C 232.529 -1.5932 0.334787 0
M  V30 2461 O 233.718 -1.68155 0.598842 0
M  V30 2462 C 230.818 -3.15828 1.22906 0
M  V30 2463 C 229.991 -3.61711 2.45934 0
M  V30 2464 C 229.05 -4.77831 2.20371 0
M  V30 2465 O 228.076 -4.87586 2.93681 0
M  V30 2466 N 229.278 -5.67611 1.21647 0
M  V30 2467 H 232.043 -1.7842 2.40803 0
M  V30 2468 H 229.604 -0.84302 1.3822 0
M  V30 2469 H 231.596 -3.91189 1.03697 0
M  V30 2470 H 230.166 -3.10707 0.343542 0
M  V30 2471 H 229.386 -2.76861 2.80609 0
M  V30 2472 H 230.674 -3.89112 3.27825 0
M  V30 2473 H 230.072 -5.62397 0.610449 0
M  V30 2474 H 228.629 -6.42719 1.08423 0
M  V30 2475 N 232.062 -1.29571 -0.897171 0
M  V30 2476 C 233.302 -1.18959 -1.66217 0
M  V30 2477 C 233.666 0.254271 -1.90309 0
M  V30 2478 O 234.867 0.483407 -2.64417 0
M  V30 2479 C 233.138 -1.98302 -2.9734 0
M  V30 2480 S 234.697 -2.04253 -3.88364 0
M  V30 2481 H 231.515 -0.424137 -0.570639 0
M  V30 2482 H 234.117 -1.6389 -1.06585 0
M  V30 2483 H 232.821 -3.02342 -2.77521 0
M  V30 2484 H 232.352 -1.53986 -3.62011 0
M  V30 2485 H 234.367 -1.16105 -4.82425 0
M  V30 2486 N 233.54 1.10788 -1.12088 0
M  V30 2487 C 234.951 1.64181 -0.88891 0
M  V30 2488 C 235.302 1.87508 0.577498 0
M  V30 2489 O 234.427 1.61434 1.44112 0
M  V30 2490 C 235.022 2.98257 -1.60712 0
M  V30 2491 C 233.581 3.4853 -1.42139 0
M  V30 2492 C 232.728 2.23208 -1.6454 0
M  V30 2493 H 235.679 0.943368 -1.27618 0
M  V30 2494 H 235.7 3.65552 -1.05604 0
M  V30 2495 H 235.212 2.81246 -2.67436 0
M  V30 2496 H 233.313 3.70692 -0.376552 0
M  V30 2497 H 233.426 4.26882 -2.17505 0
M  V30 2498 H 231.79 2.31169 -1.06925 0
M  V30 2499 H 232.573 2.08733 -2.72554 0
M  V30 2500 N 235.018 0.912232 1.28515 0
M  V30 2501 C 236.243 0.559774 1.99703 0
M  V30 2502 C 236.668 -0.851393 1.67729 0
M  V30 2503 O 236.026 -1.56875 0.908834 0
M  V30 2504 C 236.074 0.773874 3.52198 0
M  V30 2505 O 235.178 -0.167842 4.12058 0
M  V30 2506 H 234.519 0.21723 0.627461 0
M  V30 2507 H 237.049 1.22725 1.63706 0
M  V30 2508 H 237.059 0.683386 4.02236 0
M  V30 2509 H 235.734 1.80261 3.74805 0
M  V30 2510 H 234.311 -0.0287509 3.72889 0
M  V30 2511 N 236.496 -1.42363 0.676048 0
M  V30 2512 C 237.721 -2.06377 0.205705 0
M  V30 2513 C 238.146 -1.50463 -1.12883 0
M  V30 2514 O 237.504 -0.623619 -1.70237 0
M  V30 2515 C 237.552 -3.60277 0.152655 0
M  V30 2516 O 236.656 -4.02935 -0.87845 0
M  V30 2517 H 235.997 -0.655588 0.105359 0
M  V30 2518 H 238.527 -1.82475 0.925412 0
M  V30 2519 H 238.537 -4.07993 -0.0230675 0
M  V30 2520 H 237.212 -4.00346 1.12675 0
M  V30 2521 H 235.789 -3.66764 -0.673668 0
M  V30 2522 N 237.974 -0.419461 -1.51915 0
M  V30 2523 C 238.904 0.391813 -2.30189 0
M  V30 2524 C 239.885 1.03699 -1.34836 0
M  V30 2525 O 241.07 1.04403 -1.63748 0
M  V30 2526 C 238.2 1.50312 -3.13087 0
M  V30 2527 C 237.154 0.9824 -4.16573 0
M  V30 2528 C 236.48 2.18809 -4.8788 0
M  V30 2529 C 237.78 0.0292356 -5.22292 0
M  V30 2530 H 239.474 -0.26135 -2.98257 0
M  V30 2531 H 237.02 -0.127134 -1.43438 0
M  V30 2532 H 238.973 2.07773 -3.66617 0
M  V30 2533 H 237.697 2.18431 -2.42807 0
M  V30 2534 H 236.356 0.430119 -3.64068 0
M  V30 2535 H 236.004 2.85507 -4.14119 0
M  V30 2536 H 235.704 1.84615 -5.57845 0
M  V30 2537 H 237.228 2.76858 -5.44226 0
M  V30 2538 H 238.642 0.512976 -5.71 0
M  V30 2539 H 237.039 -0.2244 -5.9968 0
M  V30 2540 H 238.109 -0.912931 -4.76228 0
M  V30 2541 N 239.452 1.56882 -0.150215 0
M  V30 2542 C 240.415 2.1573 0.774157 0
M  V30 2543 C 241.415 1.0999 1.17298 0
M  V30 2544 O 242.605 1.35613 1.09338 0
M  V30 2545 C 239.737 2.72302 2.05096 0
M  V30 2546 H 240.93 2.98752 0.262201 0
M  V30 2547 H 238.483 1.55985 0.099248 0
M  V30 2548 H 239.218 1.92956 2.6065 0
M  V30 2549 H 239.003 3.49665 1.77416 0
M  V30 2550 H 240.493 3.17632 2.71109 0
M  V30 2551 N 240.93 -0.123565 1.57115 0
M  V30 2552 C 242.179 -0.830704 1.83799 0
M  V30 2553 C 242.492 -1.81259 0.735158 0
M  V30 2554 O 243.698 -2.56558 0.888278 0
M  V30 2555 C 242.154 -1.52802 3.25852 0
M  V30 2556 C 241.762 -0.587356 4.44133 0
M  V30 2557 C 243.506 -2.22056 3.61789 0
M  V30 2558 C 241.413 -1.28764 5.77212 0
M  V30 2559 H 240.343 -0.313967 0.685522 0
M  V30 2560 H 242.994 -0.0834359 1.8331 0
M  V30 2561 H 241.376 -2.32175 3.20797 0
M  V30 2562 H 242.55 0.172829 4.60476 0
M  V30 2563 H 240.865 -0.00201892 4.164 0
M  V30 2564 H 243.462 -2.75131 4.58483 0
M  V30 2565 H 243.805 -2.99644 2.88997 0
M  V30 2566 H 244.338 -1.49576 3.68608 0
M  V30 2567 H 241.077 -0.55314 6.53162 0
M  V30 2568 H 240.597 -2.01995 5.64764 0
M  V30 2569 H 242.276 -1.8221 6.20813 0
M  V30 2570 N 242.408 -1.52605 -0.393616 0
M  V30 2571 C 243.34 -1.73303 -1.49995 0
M  V30 2572 C 244.353 -0.613473 -1.50799 0
M  V30 2573 O 245.542 -0.889049 -1.54784 0
M  V30 2574 C 242.642 -1.77245 -2.88855 0
M  V30 2575 C 241.815 -3.06483 -3.12069 0
M  V30 2576 C 240.874 -3.02033 -4.30886 0
M  V30 2577 O 239.9 -3.75907 -4.27414 0
M  V30 2578 N 241.102 -2.20897 -5.36828 0
M  V30 2579 H 243.867 -2.68756 -1.32629 0
M  V30 2580 H 241.428 -1.51036 -0.583083 0
M  V30 2581 H 243.42 -1.7178 -3.66434 0
M  V30 2582 H 241.99 -0.891993 -2.99603 0
M  V30 2583 H 241.21 -3.25474 -2.22396 0
M  V30 2584 H 242.498 -3.91947 -3.2443 0
M  V30 2585 H 241.896 -1.60336 -5.42502 0
M  V30 2586 H 240.453 -2.21275 -6.13091 0
M  V30 2587 N 243.887 0.651787 -1.4349 0
M  V30 2588 C 244.797 1.79368 -1.5121 0
M  V30 2589 C 245.813 1.69361 -0.399093 0
M  V30 2590 O 246.989 1.90505 -0.653431 0
M  V30 2591 C 244.054 3.15653 -1.43401 0
M  V30 2592 C 243.115 3.37446 -2.65384 0
M  V30 2593 C 242.348 4.67229 -2.57939 0
M  V30 2594 O 242.571 5.46676 -1.62792 0
M  V30 2595 O 241.505 4.90773 -3.48462 0
M  V30 2596 H 245.331 1.7581 -2.47638 0
M  V30 2597 H 242.916 0.810447 -1.25507 0
M  V30 2598 H 244.798 3.96935 -1.41494 0
M  V30 2599 H 243.473 3.19798 -0.501085 0
M  V30 2600 H 242.38 2.55923 -2.72863 0
M  V30 2601 H 243.713 3.38148 -3.57654 0
M  V30 2602 N 245.365 1.30045 0.890287 0
M  V30 2603 C 246.313 1.15873 2.01683 0
M  V30 2604 C 247.307 0.0719403 1.69247 0
M  V30 2605 O 248.513 0.232414 1.78493 0
M  V30 2606 H 244.888 0.358203 0.661207 0
M  V30 2607 H 246.859 2.11229 2.10772 0
M  V30 2608 C 245.608 0.861842 3.36849 0
M  V30 2609 H 244.931 1.69016 3.62317 0
M  V30 2610 H 246.371 0.802762 4.16331 0
M  V30 2611 C 244.83 -0.435132 3.34078 0
M  V30 2612 O 245.36 -1.4583 3.74295 0
M  V30 2613 N 243.566 -0.444377 2.87182 0
M  V30 2614 H 243.113 0.388723 2.5465 0
M  V30 2615 H 243.071 -1.31213 2.85711 0
M  V30 2616 N 246.843 -1.10192 1.12674 0
M  V30 2617 C 247.806 -2.14786 0.799979 0
M  V30 2618 C 248.806 -1.59711 -0.18685 0
M  V30 2619 O 249.996 -1.74156 0.0392558 0
M  V30 2620 C 247.128 -3.40374 0.189228 0
M  V30 2621 H 248.321 -2.45203 1.72671 0
M  V30 2622 H 245.874 -1.25597 0.930326 0
M  V30 2623 H 246.609 -3.15577 -0.747107 0
M  V30 2624 H 246.394 -3.81637 0.899766 0
M  V30 2625 H 247.884 -4.17594 -0.0228143 0
M  V30 2626 N 248.321 -0.919034 -1.28029 0
M  V30 2627 C 249.269 -0.401753 -2.29104 0
M  V30 2628 C 250.263 0.509354 -1.61561 0
M  V30 2629 O 251.469 0.390014 -1.75724 0
M  V30 2630 H 247.844 -0.111331 -0.743713 0
M  V30 2631 H 249.815 -1.2672 -2.70156 0
M  V30 2632 C 248.564 0.338148 -3.46052 0
M  V30 2633 H 247.887 -0.353732 -3.98232 0
M  V30 2634 H 249.327 0.664653 -4.18758 0
M  V30 2635 C 247.786 1.54798 -2.99231 0
M  V30 2636 O 248.316 2.64696 -3.02157 0
M  V30 2637 N 246.522 1.3968 -2.54829 0
M  V30 2638 H 246.069 0.502698 -2.52647 0
M  V30 2639 H 246.027 2.20755 -2.23863 0
M  V30 2640 N 249.799 1.42003 -0.683588 0
M  V30 2641 C 250.762 2.29191 -0.0198243 0
M  V30 2642 C 251.762 1.43773 0.72013 0
M  V30 2643 O 252.952 1.65061 0.556815 0
M  V30 2644 C 250.084 3.26435 0.982487 0
M  V30 2645 H 251.277 2.8938 -0.787345 0
M  V30 2646 H 248.83 1.49789 -0.446418 0
M  V30 2647 H 249.565 2.71203 1.77819 0
M  V30 2648 H 249.35 3.89449 0.455182 0
M  V30 2649 H 250.84 3.918 1.44508 0
M  V30 2650 N 251.277 0.427512 1.51691 0
M  V30 2651 C 252.207 -0.3796 2.30394 0
M  V30 2652 C 253.188 -1.02982 1.35384 0
M  V30 2653 O 254.373 -1.03534 1.643 0
M  V30 2654 C 251.503 -1.48649 3.1388 0
M  V30 2655 C 250.457 -0.960294 4.17088 0
M  V30 2656 C 249.783 -2.16219 4.89033 0
M  V30 2657 C 251.083 -0.00153679 5.223 0
M  V30 2658 H 252.777 0.277164 2.98114 0
M  V30 2659 H 250.323 0.134739 1.43368 0
M  V30 2660 H 252.276 -2.05826 3.67714 0
M  V30 2661 H 251 -2.1714 2.43962 0
M  V30 2662 H 249.659 -0.410806 3.64291 0
M  V30 2663 H 249.307 -2.83307 4.15628 0
M  V30 2664 H 249.007 -1.81654 5.58816 0
M  V30 2665 H 250.531 -2.73968 5.45687 0
M  V30 2666 H 251.945 -0.482687 5.71264 0
M  V30 2667 H 250.342 0.256199 5.99553 0
M  V30 2668 H 251.412 0.938174 4.75738 0
M  V30 2669 N 252.755 -1.56801 0.158532 0
M  V30 2670 C 253.718 -2.16138 -0.762705 0
M  V30 2671 C 254.718 -1.1061 -1.16713 0
M  V30 2672 O 255.908 -1.36191 -1.08617 0
M  V30 2673 C 253.04 -2.73386 -2.03649 0
M  V30 2674 H 254.233 -2.98886 -0.246354 0
M  V30 2675 H 251.786 -1.56035 -0.0909744 0
M  V30 2676 H 252.521 -1.94335 -2.59623 0
M  V30 2677 H 252.306 -3.50601 -1.75559 0
M  V30 2678 H 253.796 -3.19065 -2.6942 0
M  V30 2679 N 254.233 0.115231 -1.57178 0
M  V30 2680 C 255.649 0.468877 -1.52557 0
M  V30 2681 C 255.849 1.81649 -0.872125 0
M  V30 2682 O 254.905 2.48347 -0.45606 0
M  V30 2683 C 256.218 0.4499 -2.97315 0
M  V30 2684 C 257.766 0.533185 -3.08425 0
M  V30 2685 C 258.241 0.54456 -4.54751 0
M  V30 2686 N 259.732 0.605892 -4.5922 0
M  V30 2687 C 260.467 0.636203 -5.6986 0
M  V30 2688 N 259.963 0.623931 -6.89985 0
M  V30 2689 N 261.756 0.679496 -5.57978 0
M  V30 2690 H 253.907 -0.767712 -1.9804 0
M  V30 2691 H 256.17 -0.283609 -0.904583 0
M  V30 2692 H 255.876 -0.472721 -3.48509 0
M  V30 2693 H 255.75 1.27632 -3.5495 0
M  V30 2694 H 258.137 1.44623 -2.57232 0
M  V30 2695 H 258.218 -0.320995 -2.53778 0
M  V30 2696 H 257.862 -0.364452 -5.06591 0
M  V30 2697 H 257.792 1.41568 -5.07214 0
M  V30 2698 H 260.283 0.621386 -3.72756 0
M  V30 2699 H 260.596 0.649787 -7.70063 0
M  V30 2700 H 258.941 0.591296 -6.9248 0
M  V30 2701 H 262.132 0.686472 -4.63039 0
M  V30 2702 H 262.305 0.69965 -6.44212 0
M  V30 2703 N 255.711 1.52812 0.385517 0
M  V30 2704 C 256.941 1.71658 1.14966 0
M  V30 2705 C 257.349 0.436253 1.84102 0
M  V30 2706 O 256.692 -0.599313 1.73649 0
M  V30 2707 C 256.754 2.81309 2.23843 0
M  V30 2708 C 256.418 4.22313 1.74644 0
M  V30 2709 C 257.415 5.05352 1.22129 0
M  V30 2710 C 255.1 4.68648 1.80761 0
M  V30 2711 C 257.094 6.32807 0.763838 0
M  V30 2712 C 254.781 5.96086 1.34627 0
M  V30 2713 C 255.779 6.77996 0.825264 0
M  V30 2714 O 255.467 8.03045 0.370669 0
M  V30 2715 H 255.199 0.578022 0.350523 0
M  V30 2716 H 257.753 2.00263 0.456509 0
M  V30 2717 H 255.983 2.48133 2.96592 0
M  V30 2718 H 257.672 2.88524 2.85497 0
M  V30 2719 H 258.438 4.70736 1.16758 0
M  V30 2720 H 254.317 4.04979 2.20256 0
M  V30 2721 H 257.861 6.96689 0.356494 0
M  V30 2722 H 253.758 6.30205 1.39686 0
M  V30 2723 H 254.526 8.17021 0.491829 0
M  V30 2724 N 257.189 -0.644168 1.43834 0
M  V30 2725 C 258.152 -1.73857 1.49353 0
M  V30 2726 C 259.152 -1.56315 0.377112 0
M  V30 2727 O 260.342 -1.62048 0.639226 0
M  V30 2728 C 257.474 -3.12819 1.35488 0
M  V30 2729 H 258.667 -1.70342 2.46827 0
M  V30 2730 H 256.22 -0.856652 1.30733 0
M  V30 2731 H 256.955 -3.2194 0.390569 0
M  V30 2732 H 256.74 -3.26958 2.16428 0
M  V30 2733 H 258.23 -3.92606 1.42302 0
M  V30 2734 N 258.668 -1.30515 -0.883378 0
M  V30 2735 C 259.893 -1.22487 -1.67367 0
M  V30 2736 C 260.318 0.208767 -1.86938 0
M  V30 2737 O 259.676 1.15015 -1.40148 0
M  V30 2738 C 259.724 -1.96041 -3.02655 0
M  V30 2739 O 258.828 -1.28859 -3.91751 0
M  V30 2740 H 258.169 -0.423573 -0.511353 0
M  V30 2741 H 260.699 -1.72362 -1.10239 0
M  V30 2742 H 260.709 -2.05124 -3.52687 0
M  V30 2743 H 259.384 -3.00307 -2.8773 0
M  V30 2744 H 257.961 -1.28141 -3.50192 0
M  V30 2745 N 260.146 1.09593 -1.13257 0
M  V30 2746 C 261.395 1.81105 -0.887917 0
M  V30 2747 C 261.708 1.86563 0.587672 0
M  V30 2748 O 262.914 2.54367 0.949204 0
M  V30 2749 C 261.37 3.25338 -1.53895 0
M  V30 2750 C 260.978 3.28151 -3.04994 0
M  V30 2751 C 262.722 4.01617 -1.37492 0
M  V30 2752 C 260.629 4.66897 -3.6299 0
M  V30 2753 H 259.559 0.678661 -0.328534 0
M  V30 2754 H 262.21 1.23183 -1.36008 0
M  V30 2755 H 260.592 3.8331 -0.994446 0
M  V30 2756 H 261.766 2.79953 -3.66009 0
M  V30 2757 H 260.081 2.65361 -3.20893 0
M  V30 2758 H 262.678 5.04119 -1.78235 0
M  V30 2759 H 263.021 4.15072 -0.31957 0
M  V30 2760 H 263.554 3.50082 -1.88912 0
M  V30 2761 H 260.293 4.58643 -4.68323 0
M  V30 2762 H 259.813 5.15426 -3.06752 0
M  V30 2763 H 261.492 5.3587 -3.62563 0
M  V30 2764 N 261.624 0.925811 1.2754 0
M  V30 2765 C 262.864 0.572521 1.96218 0
M  V30 2766 C 263.228 -0.869719 1.71172 0
M  V30 2767 O 264.429 -1.33119 2.33523 0
M  V30 2768 C 262.7 0.887325 3.4621 0
M  V30 2769 S 264.259 0.642266 4.34074 0
M  V30 2770 H 261.077 0.211403 0.678845 0
M  V30 2771 H 263.679 1.19384 1.54815 0
M  V30 2772 H 262.383 1.93469 3.61936 0
M  V30 2773 H 261.914 0.255123 3.92572 0
M  V30 2774 H 263.929 -0.500822 4.93666 0
M  V30 2775 N 263.102 -1.41638 0.69111 0
M  V30 2776 C 264.034 -2.29194 -0.0161523 0
M  V30 2777 C 265.047 -1.44549 -0.748955 0
M  V30 2778 O 266.236 -1.681 -0.6004 0
M  V30 2779 C 263.336 -3.22325 -1.0469 0
M  V30 2780 C 262.509 -4.35706 -0.384621 0
M  V30 2781 C 261.568 -5.09443 -1.31737 0
M  V30 2782 O 260.594 -5.63386 -0.811451 0
M  V30 2783 N 261.796 -5.16487 -2.64993 0
M  V30 2784 H 264.561 -2.90534 0.735523 0
M  V30 2785 H 262.122 -1.52742 0.53679 0
M  V30 2786 H 264.114 -3.68522 -1.67252 0
M  V30 2787 H 262.684 -2.62323 -1.70015 0
M  V30 2788 H 261.904 -3.91948 0.420804 0
M  V30 2789 H 263.192 -5.08743 0.0760765 0
M  V30 2790 H 262.59 -4.741 -3.08619 0
M  V30 2791 H 261.147 -5.66276 -3.22761 0
M  V30 2792 N 264.58 -0.43555 -1.51462 0
M  V30 2793 C 265.512 0.41257 -2.25456 0
M  V30 2794 C 266.525 0.987822 -1.29406 0
M  V30 2795 O 267.714 0.882266 -1.55172 0
M  V30 2796 C 264.814 1.58894 -2.99342 0
M  V30 2797 C 263.987 1.13288 -4.22474 0
M  V30 2798 C 263.046 2.17917 -4.78956 0
M  V30 2799 O 262.072 1.77425 -5.40841 0
M  V30 2800 N 263.274 3.50382 -4.62832 0
M  V30 2801 H 266.039 -0.221603 -2.9888 0
M  V30 2802 H 263.6 -0.264342 -1.59727 0
M  V30 2803 H 265.592 2.28508 -3.34015 0
M  V30 2804 H 264.162 2.12849 -2.28941 0
M  V30 2805 H 263.382 0.263881 -3.93316 0
M  V30 2806 H 264.67 0.805542 -5.02383 0
M  V30 2807 H 264.068 3.86013 -4.13534 0
M  V30 2808 H 262.625 4.15895 -5.01871 0
M  V30 2809 N 266.058 1.56714 -0.166846 0
M  V30 2810 C 267.006 2.19056 0.782123 0
M  V30 2811 C 268 1.15328 1.24079 0
M  V30 2812 O 269.206 1.33537 1.20697 0
M  V30 2813 H 265.581 0.70167 0.270486 0
M  V30 2814 H 267.552 2.97494 0.232322 0
M  V30 2815 C 266.301 2.84206 2.00306 0
M  V30 2816 H 265.624 3.63748 1.65914 0
M  V30 2817 H 267.064 3.31302 2.64604 0
M  V30 2818 C 265.523 1.83744 2.82382 0
M  V30 2819 O 266.053 1.32014 3.79388 0
M  V30 2820 N 264.259 1.52601 2.47308 0
M  V30 2821 H 263.806 1.9486 1.68485 0
M  V30 2822 H 263.764 0.856351 3.02513 0
M  V30 2823 N 267.536 -0.106894 1.57237 0
M  V30 2824 C 268.784 -0.810921 1.85117 0
M  V30 2825 C 269.105 -1.7984 0.753827 0
M  V30 2826 O 268.375 -1.94649 -0.221056 0
M  V30 2827 H 266.955 -0.302466 0.683025 0
M  V30 2828 H 269.617 -0.0913324 1.94686 0
M  V30 2829 H 268.713 -1.34875 2.81452 0
M  V30 2830 N 269.014 -1.53014 -0.377408 0
M  V30 2831 C 269.944 -1.81589 -1.46791 0
M  V30 2832 C 270.925 -0.668622 -1.56408 0
M  V30 2833 O 272.11 -0.917337 -1.71168 0
M  V30 2834 C 269.24 -1.99519 -2.8427 0
M  V30 2835 C 268.194 -3.15249 -2.89486 0
M  V30 2836 C 267.52 -3.18451 -4.29527 0
M  V30 2837 C 268.82 -4.54084 -2.58079 0
M  V30 2838 H 270.514 -2.7291 -1.23127 0
M  V30 2839 H 268.06 -1.31319 -0.590883 0
M  V30 2840 H 270.013 -2.18092 -3.60575 0
M  V30 2841 H 268.737 -1.04897 -3.09296 0
M  V30 2842 H 267.396 -2.96477 -2.15631 0
M  V30 2843 H 267.044 -2.2149 -4.5161 0
M  V30 2844 H 266.744 -3.962 -4.33934 0
M  V30 2845 H 268.268 -3.39193 -5.07721 0
M  V30 2846 H 269.682 -4.72899 -3.24098 0
M  V30 2847 H 268.079 -5.33987 -2.7382 0
M  V30 2848 H 269.149 -4.60006 -1.53372 0
M  V30 2849 N 270.492 0.636531 -1.44174 0
M  V30 2850 C 271.738 1.39826 -1.4689 0
M  V30 2851 C 272.071 1.93947 -0.0990585 0
M  V30 2852 O 271.346 1.73325 0.882544 0
M  V30 2853 C 271.629 2.56751 -2.5249 0
M  V30 2854 C 271.482 2.08014 -3.98811 0
M  V30 2855 C 272.801 3.58946 -2.54649 0
M  V30 2856 H 269.92 0.507075 -0.53483 0
M  V30 2857 H 272.562 0.720188 -1.75822 0
M  V30 2858 H 270.712 3.14597 -2.2795 0
M  V30 2859 H 272.384 1.5504 -4.34466 0
M  V30 2860 H 270.627 1.39242 -4.10846 0
M  V30 2861 H 271.298 2.92169 -4.68339 0
M  V30 2862 H 273.774 3.1089 -2.76563 0
M  V30 2863 H 272.65 4.38286 -3.3045 0
M  V30 2864 H 272.911 4.12655 -1.58646 0
M  V30 2865 N 271.97 1.30982 0.876444 0
M  V30 2866 C 273.381 1.18277 1.44456 0
M  V30 2867 C 273.732 -0.213265 1.95037 0
M  V30 2868 O 272.857 -1.11057 1.85729 0
M  V30 2869 C 273.452 2.1411 2.62569 0
M  V30 2870 C 272.011 2.05358 3.15444 0
M  V30 2871 C 271.158 2.03706 1.88146 0
M  V30 2872 H 274.109 1.43127 0.685584 0
M  V30 2873 H 274.13 1.72692 3.39054 0
M  V30 2874 H 273.642 3.15706 2.25724 0
M  V30 2875 H 271.743 1.06934 3.56926 0
M  V30 2876 H 271.856 2.94156 3.78166 0
M  V30 2877 H 270.22 1.48629 2.06837 0
M  V30 2878 H 271.003 3.07047 1.53547 0
M  V30 2879 N 273.449 -1.08991 1.13837 0
M  V30 2880 C 274.698 -1.80631 0.897509 0
M  V30 2881 C 275.011 -1.86872 -0.57777 0
M  V30 2882 O 276.217 -2.54866 -0.935701 0
M  V30 2883 C 274.673 -3.24517 1.55618 0
M  V30 2884 C 274.281 -3.26529 3.0673 0
M  V30 2885 C 276.025 -4.00882 1.3962 0
M  V30 2886 C 273.932 -4.64965 3.65461 0
M  V30 2887 H 272.862 -0.67691 0.332129 0
M  V30 2888 H 275.513 -1.2246 1.3666 0
M  V30 2889 H 273.895 -3.82778 1.01476 0
M  V30 2890 H 275.069 -2.78008 3.67489 0
M  V30 2891 H 273.384 -2.63656 3.22296 0
M  V30 2892 H 275.981 -5.03167 1.80906 0
M  V30 2893 H 276.324 -4.14896 0.341578 0
M  V30 2894 H 276.857 -3.49075 1.90766 0
M  V30 2895 H 273.596 -4.56153 4.70749 0
M  V30 2896 H 273.116 -5.13792 3.09481 0
M  V30 2897 H 274.795 -5.3394 3.654 0
M  V30 2898 N 274.927 -0.932562 -1.27047 0
M  V30 2899 C 276.173 -0.576412 -1.94436 0
M  V30 2900 C 276.506 0.880891 -1.73072 0
M  V30 2901 O 275.781 1.62905 -1.06264 0
M  V30 2902 C 276.064 -0.909031 -3.48437 0
M  V30 2903 C 275.917 -2.42044 -3.79123 0
M  V30 2904 C 277.236 -0.418341 -4.38107 0
M  V30 2905 H 274.355 -0.210888 -0.706184 0
M  V30 2906 H 276.997 -1.16522 -1.50075 0
M  V30 2907 H 275.147 -0.407947 -3.86352 0
M  V30 2908 H 276.819 -2.99359 -3.50973 0
M  V30 2909 H 275.062 -2.86758 -3.25503 0
M  V30 2910 H 275.733 -2.6037 -4.86736 0
M  V30 2911 H 278.209 -0.847856 -4.0737 0
M  V30 2912 H 277.085 -0.679981 -5.44672 0
M  V30 2913 H 277.346 0.681642 -4.36814 0
M  V30 2914 N 276.405 1.4127 -0.698611 0
M  V30 2915 C 277.315 2.34573 -0.0357891 0
M  V30 2916 C 278.331 1.56393 0.762701 0
M  V30 2917 O 279.507 1.8886 0.699564 0
M  V30 2918 C 276.572 3.35159 0.887089 0
M  V30 2919 C 275.633 4.29225 0.0804634 0
M  V30 2920 C 274.866 5.25006 0.959387 0
M  V30 2921 O 275.089 5.26314 2.19886 0
M  V30 2922 O 274.023 6.00519 0.407439 0
M  V30 2923 H 277.849 2.92838 -0.804957 0
M  V30 2924 H 275.434 1.42175 -0.458966 0
M  V30 2925 H 277.316 3.9689 1.41621 0
M  V30 2926 H 275.991 2.79333 1.6357 0
M  V30 2927 H 274.898 3.70833 -0.493328 0
M  V30 2928 H 276.231 4.88157 -0.629547 0
M  V30 2929 N 277.883 0.443576 1.51229 0
M  V30 2930 C 279.294 -0.0180867 1.86691 0
M  V30 2931 C 279.645 -1.41384 1.36033 0
M  V30 2932 O 278.77 -2.04291 0.713722 0
M  V30 2933 C 279.365 -0.039597 3.38777 0
M  V30 2934 C 277.924 -0.445692 3.73752 0
M  V30 2935 C 277.071 0.357584 2.74985 0
M  V30 2936 H 280.022 0.659138 1.44364 0
M  V30 2937 H 280.043 -0.847761 3.70936 0
M  V30 2938 H 279.555 0.976382 3.75617 0
M  V30 2939 H 277.656 -1.46704 3.42503 0
M  V30 2940 H 277.769 -0.166155 4.78812 0
M  V30 2941 H 276.133 -0.184973 2.54027 0
M  V30 2942 H 276.916 1.37256 3.14668 0
M  V30 2943 N 279.361 -1.56624 0.175154 0
M  V30 2944 C 280.271 -2.21741 -0.766042 0
M  V30 2945 C 281.287 -1.21023 -1.25018 0
M  V30 2946 O 282.463 -1.53697 -1.3015 0
M  V30 2947 C 279.528 -2.84839 -1.97655 0
M  V30 2948 C 278.589 -4.00769 -1.53892 0
M  V30 2949 C 277.822 -4.60849 -2.69173 0
M  V30 2950 O 278.045 -4.19823 -3.86141 0
M  V30 2951 O 276.979 -5.50655 -2.43028 0
M  V30 2952 H 280.805 -3.02738 -0.241585 0
M  V30 2953 H 278.39 -1.49305 -0.053222 0
M  V30 2954 H 280.272 -3.24834 -2.68442 0
M  V30 2955 H 278.947 -2.06836 -2.48999 0
M  V30 2956 H 277.854 -3.65436 -0.80044 0
M  V30 2957 H 279.187 -4.80376 -1.07236 0
M  V30 2958 N 280.839 0.0985539 -1.57292 0
M  V30 2959 C 282.085 0.803867 -1.86188 0
M  V30 2960 C 282.418 1.78549 -0.763794 0
M  V30 2961 O 281.693 1.93153 0.22855 0
M  V30 2962 C 281.976 1.53568 -3.25713 0
M  V30 2963 C 281.829 0.572277 -4.46145 0
M  V30 2964 C 283.148 2.48708 -3.63087 0
M  V30 2965 H 280.267 0.290781 -0.677211 0
M  V30 2966 H 282.909 0.0675783 -1.8988 0
M  V30 2967 H 281.059 2.16332 -3.22696 0
M  V30 2968 H 282.731 -0.0480894 -4.61275 0
M  V30 2969 H 280.974 -0.114618 -4.33649 0
M  V30 2970 H 281.645 1.12139 -5.40489 0
M  V30 2971 H 284.121 1.96039 -3.67026 0
M  V30 2972 H 282.997 2.96932 -4.61652 0
M  V30 2973 H 283.258 3.32309 -2.91588 0
M  V30 2974 N 282.317 1.53212 0.369288 0
M  V30 2975 C 283.566 1.68436 1.10961 0
M  V30 2976 C 283.879 0.440738 1.9057 0
M  V30 2977 O 285.085 0.473446 2.6734 0
M  V30 2978 C 283.541 2.97744 2.0218 0
M  V30 2979 C 283.149 4.29355 1.279 0
M  V30 2980 C 284.893 3.22334 2.76226 0
M  V30 2981 C 282.8 5.49755 2.17999 0
M  V30 2982 H 281.73 0.627568 0.41794 0
M  V30 2983 H 284.381 1.79713 0.370884 0
M  V30 2984 H 282.763 2.8026 2.79768 0
M  V30 2985 H 283.937 4.57458 0.554007 0
M  V30 2986 H 282.252 4.11179 0.657311 0
M  V30 2987 H 284.849 4.09471 3.43857 0
M  V30 2988 H 285.192 2.38238 3.41392 0
M  V30 2989 H 285.725 3.40475 2.05723 0
M  V30 2990 H 282.464 6.36318 1.57417 0
M  V30 2991 H 281.984 5.25937 2.88359 0
M  V30 2992 H 283.663 5.84401 2.77641 0
M  V30 2993 N 283.795 -0.628877 1.44509 0
M  V30 2994 C 285.206 -1.21054 1.42137 0
M  V30 2995 C 285.557 -1.95715 0.137881 0
M  V30 2996 O 284.682 -2.02554 -0.761645 0
M  V30 2997 C 285.277 -2.20189 2.57493 0
M  V30 2998 C 283.836 -2.73777 2.58308 0
M  V30 2999 C 282.983 -1.48813 2.33987 0
M  V30 3000 H 285.934 -0.41942 1.53057 0
M  V30 3001 H 285.955 -3.02833 2.30375 0
M  V30 3002 H 285.467 -1.6582 3.50892 0
M  V30 3003 H 283.568 -3.32142 1.68856 0
M  V30 3004 H 283.681 -3.19662 3.56865 0
M  V30 3005 H 282.045 -1.77024 1.83124 0
M  V30 3006 H 282.828 -0.963442 3.29504 0
M  V30 3007 N 285.273 -1.31445 -0.869486 0
M  V30 3008 C 286.55 -1.11795 -1.60503 0
M  V30 3009 C 286.93 0.327168 -2.08549 0
M  V30 3010 O 286.278 1.32135 -1.8642 0
M  V30 3011 C 286.488 -2.13258 -2.76265 0
M  V30 3012 C 287.836 -2.45805 -3.46215 0
M  V30 3013 O 288.86 -2.11688 -2.86473 0
M  V30 3014 O 287.719 -3.04228 -4.5399 0
M  V30 3015 H 284.813 -0.430421 -0.706163 0
M  V30 3016 H 287.359 -1.42925 -0.914907 0
M  V30 3017 H 286.131 -3.10461 -2.3818 0
M  V30 3018 H 285.754 -1.83035 -3.52964 0
M  V30 3019 N 286.751 1.08385 -1.14413 0
M  V30 3020 C 287.999 1.80419 -0.910679 0
M  V30 3021 C 288.32 1.86658 0.564243 0
M  V30 3022 O 287.59 1.35985 1.41014 0
M  V30 3023 H 286.17 0.668204 -0.333934 0
M  V30 3024 H 288.832 1.31037 -1.44275 0
M  V30 3025 H 287.928 2.83238 -1.31082 0
M  V30 3026 N 288.23 0.939286 1.26551 0
M  V30 3027 C 289.507 0.5038 1.89001 0
M  V30 3028 C 289.887 -1.01854 1.84903 0
M  V30 3029 O 289.235 -1.87773 1.30206 0
M  V30 3030 C 289.445 1.063 3.32417 0
M  V30 3031 C 290.793 1.13051 4.09273 0
M  V30 3032 O 291.817 1.01345 3.41479 0
M  V30 3033 O 290.676 1.31233 5.30509 0
M  V30 3034 H 287.77 0.163897 0.810597 0
M  V30 3035 H 290.316 1.03173 1.34735 0
M  V30 3036 H 289.088 2.10665 3.29752 0
M  V30 3037 H 288.711 0.517408 3.94219 0
M  V30 3038 N 289.708 -1.40897 0.706093 0
M  V30 3039 C 290.658 -2.27987 0.0240746 0
M  V30 3040 C 291.642 -1.42759 -0.742204 0
M  V30 3041 O 292.834 -1.65936 -0.615966 0
M  V30 3042 C 289.963 -3.31186 -0.903907 0
M  V30 3043 C 289.049 -4.2389 -0.133318 0
M  V30 3044 N 289.44 -4.98113 0.878444 0
M  V30 3045 C 287.738 -4.44485 -0.367269 0
M  V30 3046 C 288.439 -5.6604 1.34064 0
M  V30 3047 N 287.415 -5.39522 0.664565 0
M  V30 3048 H 291.217 -2.82812 0.799658 0
M  V30 3049 H 288.731 -1.53235 0.537845 0
M  V30 3050 H 290.728 -3.92413 -1.40775 0
M  V30 3051 H 289.388 -2.77922 -1.67897 0
M  V30 3052 H 290.399 -5.02364 1.25901 0
M  V30 3053 H 287.076 -4.02213 -1.1194 0
M  V30 3054 H 288.466 -6.35524 2.1808 0
M  V30 3055 N 291.186 -0.45159 -1.50991 0
M  V30 3056 C 292.463 0.170707 -1.94854 0
M  V30 3057 C 292.843 1.58788 -1.39103 0
M  V30 3058 O 292.191 2.20913 -0.583921 0
M  V30 3059 C 292.401 0.133929 -3.48743 0
M  V30 3060 C 293.749 0.33248 -4.23296 0
M  V30 3061 O 294.773 0.211403 -3.55572 0
M  V30 3062 O 293.632 0.57486 -5.43468 0
M  V30 3063 H 290.726 0.122264 -0.817912 0
M  V30 3064 H 293.272 -0.510594 -1.61836 0
M  V30 3065 H 292.044 -0.856283 -3.81816 0
M  V30 3066 H 291.667 0.857529 -3.88242 0
M  V30 3067 N 292.664 1.56529 -0.183458 0
M  V30 3068 C 293.594 2.21549 0.737456 0
M  V30 3069 C 294.575 1.17489 1.23005 0
M  V30 3070 O 295.76 1.45959 1.281 0
M  V30 3071 C 292.89 2.86575 1.96194 0
M  V30 3072 C 291.844 3.96778 1.60473 0
M  V30 3073 C 291.17 4.48911 2.90487 0
M  V30 3074 C 292.47 5.15767 0.823497 0
M  V30 3075 H 294.164 2.98761 0.195453 0
M  V30 3076 H 291.71 1.43702 0.0925686 0
M  V30 3077 H 293.663 3.30739 2.61131 0
M  V30 3078 H 292.387 2.06749 2.52828 0
M  V30 3079 H 291.046 3.53286 0.978997 0
M  V30 3080 H 290.694 3.65862 3.45186 0
M  V30 3081 H 290.394 5.23265 2.67335 0
M  V30 3082 H 291.918 4.95771 3.56432 0
M  V30 3083 H 293.332 5.56549 1.37571 0
M  V30 3084 H 291.729 5.96114 0.690551 0
M  V30 3085 H 292.799 4.84574 -0.177782 0
M  V30 3086 N 294.142 -0.090211 1.57342 0
M  V30 3087 C 295.052 -1.12735 2.05738 0
M  V30 3088 C 296.068 -1.43557 0.983231 0
M  V30 3089 O 297.244 -1.54101 1.29672 0
M  V30 3090 C 294.309 -2.42659 2.47624 0
M  V30 3091 C 293.37 -2.18975 3.69254 0
M  V30 3092 C 292.603 -3.42704 4.09133 0
M  V30 3093 O 292.826 -4.51127 3.49057 0
M  V30 3094 O 291.76 -3.32003 5.02053 0
M  V30 3095 H 295.586 -0.746279 2.94388 0
M  V30 3096 H 293.171 -0.303064 1.46294 0
M  V30 3097 H 295.053 -3.19155 2.7517 0
M  V30 3098 H 293.728 -2.80182 1.62109 0
M  V30 3099 H 292.635 -1.40244 3.46818 0
M  V30 3100 H 293.968 -1.86342 4.55563 0
M  V30 3101 N 295.62 -1.53406 -0.361157 0
M  V30 3102 C 296.57 -1.76536 -1.44287 0
M  V30 3103 C 297.554 -0.620019 -1.48474 0
M  V30 3104 O 298.746 -0.878834 -1.53641 0
M  V30 3105 C 295.875 -1.96266 -2.81664 0
M  V30 3106 C 294.961 -3.16815 -2.81938 0
M  V30 3107 N 295.352 -4.38637 -2.51855 0
M  V30 3108 C 293.65 -3.17627 -3.13096 0
M  V30 3109 C 294.351 -5.20401 -2.59919 0
M  V30 3110 N 293.327 -4.56712 -2.94814 0
M  V30 3111 H 297.129 -2.68331 -1.19899 0
M  V30 3112 H 294.643 -1.52091 -0.56938 0
M  V30 3113 H 296.64 -2.10966 -3.59582 0
M  V30 3114 H 295.3 -1.05702 -3.07013 0
M  V30 3115 H 296.311 -4.66293 -2.25369 0
M  V30 3116 H 292.988 -2.36971 -3.43731 0
M  V30 3117 H 294.378 -6.27586 -2.39969 0
M  V30 3118 N 297.098 0.621204 -1.44841 0
M  V30 3119 C 298.338 1.39201 -1.49674 0
M  V30 3120 C 298.702 1.91561 -0.129764 0
M  V30 3121 O 299.903 2.68748 -0.0527814 0
M  V30 3122 C 298.174 2.519 -2.53537 0
M  V30 3123 S 299.733 3.39916 -2.77494 0
M  V30 3124 H 296.551 0.474758 -0.529269 0
M  V30 3125 H 299.153 0.718171 -1.81831 0
M  V30 3126 H 297.857 2.11761 -3.51547 0
M  V30 3127 H 297.388 3.241 -2.22986 0
M  V30 3128 H 299.403 4.49646 -2.0984 0
M  V30 3129 N 298.576 1.31904 0.862503 0
M  V30 3130 C 299.508 1.16005 1.97675 0
M  V30 3131 C 300.521 0.0971234 1.6251 0
M  V30 3132 O 301.71 0.345337 1.75128 0
M  V30 3133 C 298.81 0.751791 3.30456 0
M  V30 3134 C 297.983 1.90133 3.93914 0
M  V30 3135 C 297.042 1.4779 5.05019 0
M  V30 3136 O 296.068 2.18872 5.25437 0
M  V30 3137 N 297.27 0.369491 5.79323 0
M  V30 3138 H 300.035 2.11982 2.11857 0
M  V30 3139 H 297.596 1.24337 1.03691 0
M  V30 3140 H 299.588 0.451084 4.02178 0
M  V30 3141 H 298.158 -0.116593 3.12382 0
M  V30 3142 H 297.378 2.36896 3.15078 0
M  V30 3143 H 298.666 2.67111 4.33047 0
M  V30 3144 H 298.064 -0.222299 5.65263 0
M  V30 3145 H 296.621 0.128354 6.51674 0
M  V30 3146 N 300.054 -1.07777 1.14986 0
M  V30 3147 C 301.284 -1.83752 0.944402 0
M  V30 3148 C 301.692 -1.8218 -0.51058 0
M  V30 3149 O 301.035 -1.22852 -1.36576 0
M  V30 3150 C 301.097 -3.32128 1.37592 0
M  V30 3151 C 300.761 -3.57425 2.84775 0
M  V30 3152 C 301.758 -3.5173 3.8286 0
M  V30 3153 C 299.443 -3.8523 3.2234 0
M  V30 3154 C 301.437 -3.73482 5.16517 0
M  V30 3155 C 299.124 -4.06634 4.56171 0
M  V30 3156 C 300.122 -4.00754 5.53069 0
M  V30 3157 O 299.81 -4.2159 6.84483 0
M  V30 3158 H 299.542 -0.58673 0.335744 0
M  V30 3159 H 302.096 -1.36982 1.53052 0
M  V30 3160 H 300.326 -3.79686 0.733165 0
M  V30 3161 H 302.015 -3.89555 1.14024 0
M  V30 3162 H 302.781 -3.30256 3.55184 0
M  V30 3163 H 298.66 -3.88923 2.47508 0
M  V30 3164 H 302.204 -3.68808 5.92137 0
M  V30 3165 H 298.101 -4.27593 4.83564 0
M  V30 3166 H 298.869 -4.38961 6.90837 0
M  V30 3167 N 301.532 -0.945985 -1.26051 0
M  V30 3168 C 302.778 -0.597002 -1.93814 0
M  V30 3169 C 303.111 0.862484 -1.73997 0
M  V30 3170 O 302.386 1.61769 -1.07986 0
M  V30 3171 C 302.669 -0.945937 -3.47454 0
M  V30 3172 C 302.522 -2.46052 -3.76535 0
M  V30 3173 C 303.841 -0.464785 -4.37639 0
M  V30 3174 H 300.96 -0.218366 -0.703907 0
M  V30 3175 H 303.602 -1.18107 -1.48831 0
M  V30 3176 H 301.752 -0.448902 -3.85898 0
M  V30 3177 H 303.424 -3.03065 -3.47778 0
M  V30 3178 H 301.667 -2.90194 -3.22444 0
M  V30 3179 H 302.338 -2.65517 -4.83947 0
M  V30 3180 H 304.814 -0.891016 -4.06448 0
M  V30 3181 H 303.69 -0.737712 -5.4392 0
M  V30 3182 H 303.951 0.635274 -4.37512 0
M  V30 3183 N 303.011 1.40521 -0.713556 0
M  V30 3184 C 304.239 2.05237 -0.261775 0
M  V30 3185 C 304.654 1.53755 1.09567 0
M  V30 3186 O 304.011 0.693268 1.6882 0
M  V30 3187 C 304.062 3.60763 -0.230706 0
M  V30 3188 O 303.783 4.10345 -1.53455 0
M  V30 3189 C 305.284 4.42651 0.239874 0
M  V30 3190 H 302.504 0.660533 -0.118057 0
M  V30 3191 H 305.048 1.79967 -0.971192 0
M  V30 3192 H 303.203 3.8501 0.429661 0
M  V30 3193 H 303.617 5.04526 -1.43366 0
M  V30 3194 H 305.091 5.51599 0.210468 0
M  V30 3195 H 305.568 4.20082 1.28171 0
M  V30 3196 H 306.174 4.23507 -0.390142 0
M  V30 3197 N 304.489 0.459591 1.5075 0
M  V30 3198 C 305.399 -0.34613 2.32033 0
M  V30 3199 C 306.415 -1.00686 1.41909 0
M  V30 3200 O 307.591 -0.997361 1.7497 0
M  V30 3201 C 304.656 -1.42029 3.16273 0
M  V30 3202 C 303.717 -0.777362 4.22203 0
M  V30 3203 C 302.95 -1.80034 5.02418 0
M  V30 3204 O 303.173 -3.02544 4.83553 0
M  V30 3205 O 302.107 -1.37853 5.85901 0
M  V30 3206 H 305.933 0.318054 3.0203 0
M  V30 3207 H 303.518 0.221663 1.47746 0
M  V30 3208 H 305.4 -2.04275 3.68578 0
M  V30 3209 H 304.075 -2.06815 2.49016 0
M  V30 3210 H 302.982 -0.116256 3.73919 0
M  V30 3211 H 304.315 -0.172634 4.91897 0
M  V30 3212 N 305.967 -1.56429 0.191757 0
M  V30 3213 C 306.914 -2.18936 -0.730454 0
M  V30 3214 C 307.884 -1.13557 -1.21219 0
M  V30 3215 O 309.069 -1.41794 -1.27668 0
M  V30 3216 C 306.209 -2.85013 -1.9458 0
M  V30 3217 C 305.322 -4.04909 -1.50574 0
M  V30 3218 C 304.457 -4.58853 -2.67634 0
M  V30 3219 C 303.496 -5.71114 -2.20217 0
M  V30 3220 N 302.633 -6.19478 -3.30442 0
M  V30 3221 H 307.473 -2.97389 -0.190664 0
M  V30 3222 H 305.01 -1.46869 -0.0823694 0
M  V30 3223 H 306.968 -3.21492 -2.65893 0
M  V30 3224 H 305.598 -2.09129 -2.45896 0
M  V30 3225 H 304.65 -3.74115 -0.688605 0
M  V30 3226 H 305.962 -4.86113 -1.11784 0
M  V30 3227 H 305.116 -4.97619 -3.47074 0
M  V30 3228 H 303.855 -3.76749 -3.09696 0
M  V30 3229 H 302.86 -5.31879 -1.3923 0
M  V30 3230 H 304.085 -6.55033 -1.79189 0
M  V30 3231 H 302.031 -5.40297 -3.72041 0
M  V30 3232 H 301.948 -6.95725 -2.9581 0
M  V30 3233 H 303.216 -6.62898 -4.10106 0
M  V30 3234 N 307.445 0.0818655 -1.57387 0
M  V30 3235 C 308.691 0.784074 -1.8703 0
M  V30 3236 C 309.024 1.77729 -0.782689 0
M  V30 3237 O 308.299 1.93384 0.208051 0
M  V30 3238 C 308.582 1.50105 -3.27323 0
M  V30 3239 C 308.435 0.524925 -4.46727 0
M  V30 3240 C 309.754 2.44843 -3.65705 0
M  V30 3241 H 306.873 0.283582 -0.680257 0
M  V30 3242 H 309.515 0.0474352 -1.89941 0
M  V30 3243 H 307.665 2.12897 -3.24972 0
M  V30 3244 H 309.337 -0.0970111 -4.61198 0
M  V30 3245 H 307.58 -0.160606 -4.33503 0
M  V30 3246 H 308.251 1.064 -5.41648 0
M  V30 3247 H 310.727 1.92135 -3.69085 0
M  V30 3248 H 309.603 2.92018 -4.64776 0
M  V30 3249 H 309.864 3.29197 -2.95096 0
M  V30 3250 N 308.923 1.53595 0.353017 0
M  V30 3251 C 309.853 1.83902 1.43883 0
M  V30 3252 C 310.834 0.693421 1.55324 0
M  V30 3253 O 312.019 0.944452 1.69687 0
M  V30 3254 C 309.149 2.04016 2.8106 0
M  V30 3255 C 308.103 3.19814 2.84434 0
M  V30 3256 C 307.429 3.25244 4.24406 0
M  V30 3257 C 308.729 4.58133 2.50822 0
M  V30 3258 H 310.423 2.74835 1.1877 0
M  V30 3259 H 307.969 1.32242 0.569917 0
M  V30 3260 H 309.922 2.238 3.57059 0
M  V30 3261 H 308.646 1.09804 3.07588 0
M  V30 3262 H 307.305 2.9987 2.10887 0
M  V30 3263 H 306.953 2.28646 4.48029 0
M  V30 3264 H 306.653 4.03054 4.27576 0
M  V30 3265 H 308.177 3.47228 5.0226 0
M  V30 3266 H 309.591 4.77995 3.16534 0
M  V30 3267 H 307.988 5.38276 2.6529 0
M  V30 3268 H 309.058 4.62387 1.46034 0
M  V30 3269 N 310.401 -0.613514 1.45168 0
M  V30 3270 C 311.364 -1.7065 1.53007 0
M  V30 3271 C 312.364 -1.5548 0.410184 0
M  V30 3272 O 313.554 -1.60656 0.673455 0
M  V30 3273 C 310.686 -3.09875 1.42093 0
M  V30 3274 H 311.879 -1.65068 2.50385 0
M  V30 3275 H 309.432 -0.828728 1.32521 0
M  V30 3276 H 310.167 -3.21039 0.458769 0
M  V30 3277 H 309.952 -3.22293 2.23315 0
M  V30 3278 H 311.442 -3.895 1.50598 0
M  V30 3279 N 311.879 -1.3236 -0.855495 0
M  V30 3280 C 312.842 -1.21164 -1.94556 0
M  V30 3281 C 313.842 -0.134908 -1.60233 0
M  V30 3282 O 315.032 -0.385249 -1.69887 0
M  V30 3283 C 312.164 -0.863192 -3.29791 0
M  V30 3284 H 313.357 -2.18038 -2.05911 0
M  V30 3285 H 310.91 -1.16179 -1.04557 0
M  V30 3286 H 311.645 0.103769 -3.24134 0
M  V30 3287 H 311.43 -1.64166 -3.56078 0
M  V30 3288 H 312.92 -0.809156 -4.09686 0
M  V30 3289 N 313.357 1.07166 -1.15556 0
M  V30 3290 C 314.603 1.80065 -0.932984 0
M  V30 3291 C 314.936 1.86586 0.53845 0
M  V30 3292 O 314.211 1.35098 1.39924 0
M  V30 3293 C 314.494 3.25022 -1.55025 0
M  V30 3294 C 314.347 3.26634 -3.09242 0
M  V30 3295 C 315.666 4.22341 -1.2376 0
M  V30 3296 H 312.785 0.653697 -0.340366 0
M  V30 3297 H 315.427 1.25389 -1.4275 0
M  V30 3298 H 313.577 3.71712 -1.12972 0
M  V30 3299 H 315.249 2.88173 -3.60214 0
M  V30 3300 H 313.492 2.65539 -3.43033 0
M  V30 3301 H 314.163 4.28854 -3.47546 0
M  V30 3302 H 316.639 3.8405 -1.60139 0
M  V30 3303 H 315.515 5.22053 -1.69564 0
M  V30 3304 H 315.776 4.41828 -0.154938 0
M  V30 3305 N 314.835 0.952656 1.25548 0
M  V30 3306 C 316.065 0.622592 1.96996 0
M  V30 3307 C 316.473 -0.809112 1.71026 0
M  V30 3308 O 315.816 -1.55258 0.981861 0
M  V30 3309 C 315.878 0.798946 3.5051 0
M  V30 3310 C 315.542 2.20744 4.00151 0
M  V30 3311 C 316.539 3.18394 4.11001 0
M  V30 3312 C 314.224 2.5311 4.33867 0
M  V30 3313 C 316.218 4.46504 4.54877 0
M  V30 3314 C 313.905 3.8145 4.7743 0
M  V30 3315 C 314.903 4.77959 4.87897 0
M  V30 3316 O 314.591 6.04012 5.30494 0
M  V30 3317 H 314.323 0.232503 0.634758 0
M  V30 3318 H 316.877 1.2789 1.60728 0
M  V30 3319 H 315.107 0.0854903 3.86605 0
M  V30 3320 H 316.796 0.47023 4.03167 0
M  V30 3321 H 317.562 2.94715 3.85186 0
M  V30 3322 H 313.441 1.78719 4.24948 0
M  V30 3323 H 316.985 5.21835 4.62962 0
M  V30 3324 H 312.882 4.04936 5.0269 0
M  V30 3325 H 313.65 6.0736 5.48685 0
M  V30 3326 N 316.313 -1.40141 0.720998 0
M  V30 3327 C 317.26 -2.30688 0.071919 0
M  V30 3328 C 318.23 -1.48476 -0.744584 0
M  V30 3329 O 319.415 -1.77201 -0.707423 0
M  V30 3330 C 316.555 -3.34724 -0.839855 0
M  V30 3331 C 315.668 -4.31998 -0.0122438 0
M  V30 3332 C 314.803 -5.23102 -0.923995 0
M  V30 3333 C 313.842 -6.12033 -0.0907969 0
M  V30 3334 N 312.979 -6.95537 -0.957718 0
M  V30 3335 H 317.819 -2.85628 0.849755 0
M  V30 3336 H 315.356 -1.40653 0.430726 0
M  V30 3337 H 317.314 -3.93618 -1.38279 0
M  V30 3338 H 315.944 -2.81274 -1.58381 0
M  V30 3339 H 314.996 -3.74841 0.64794 0
M  V30 3340 H 316.308 -4.94772 0.632595 0
M  V30 3341 H 315.462 -5.86953 -1.53527 0
M  V30 3342 H 314.201 -4.60615 -1.60264 0
M  V30 3343 H 313.206 -5.47207 0.533377 0
M  V30 3344 H 314.431 -6.76581 0.584428 0
M  V30 3345 H 312.377 -6.35633 -1.62192 0
M  V30 3346 H 312.294 -7.55099 -0.36904 0
M  V30 3347 H 313.562 -7.63832 -1.555 0
M  V30 3348 N 317.792 -0.46758 -1.50504 0
M  V30 3349 C 318.755 0.317059 -2.26996 0
M  V30 3350 C 319.755 0.923513 -1.31635 0
M  V30 3351 O 320.945 0.793239 -1.55091 0
M  V30 3352 C 318.077 1.45134 -3.08462 0
M  V30 3353 H 319.27 -0.353723 -2.97807 0
M  V30 3354 H 316.823 -0.221545 -1.54722 0
M  V30 3355 H 317.558 2.15728 -2.4214 0
M  V30 3356 H 317.343 1.02232 -3.78538 0
M  V30 3357 H 318.833 2.00493 -3.66323 0
M  V30 3358 N 319.27 1.56325 -0.20005 0
M  V30 3359 C 320.2 2.22318 0.713916 0
M  V30 3360 C 321.181 1.18788 1.21752 0
M  V30 3361 O 322.366 1.47309 1.26545 0
M  V30 3362 C 319.496 2.88639 1.93144 0
M  V30 3363 C 318.45 3.98457 1.56255 0
M  V30 3364 C 317.776 4.51967 2.85709 0
M  V30 3365 C 319.076 5.16612 0.768747 0
M  V30 3366 H 320.77 2.98952 0.163755 0
M  V30 3367 H 318.316 1.43792 0.0773219 0
M  V30 3368 H 320.269 3.33491 2.57608 0
M  V30 3369 H 318.993 2.09419 2.50621 0
M  V30 3370 H 317.652 3.54305 0.941471 0
M  V30 3371 H 317.3 3.69503 3.41287 0
M  V30 3372 H 317 5.26071 2.6177 0
M  V30 3373 H 318.524 4.99523 3.51154 0
M  V30 3374 H 319.938 5.57977 1.3166 0
M  V30 3375 H 318.335 5.96812 0.627286 0
M  V30 3376 H 319.405 4.84358 -0.229168 0
M  V30 3377 N 320.748 -0.0735177 1.57428 0
M  V30 3378 C 321.696 -1.10628 2.04607 0
M  V30 3379 C 322.69 -1.40181 0.951088 0
M  V30 3380 O 323.896 -1.39608 1.1362 0
M  V30 3381 H 320.271 -0.374088 0.652351 0
M  V30 3382 H 322.242 -0.682218 2.90497 0
M  V30 3383 C 320.991 -2.41212 2.50423 0
M  V30 3384 H 320.314 -2.19322 3.34272 0
M  V30 3385 H 321.754 -3.11927 2.87189 0
M  V30 3386 C 320.213 -3.0705 1.38644 0
M  V30 3387 O 320.743 -3.95056 0.727582 0
M  V30 3388 N 318.949 -2.67645 1.132 0
M  V30 3389 H 318.496 -1.96169 1.66959 0
M  V30 3390 H 318.454 -3.1202 0.386147 0
M  V30 3391 N 322.226 -1.5378 -0.344866 0
M  V30 3392 C 323.503 -1.61589 -1.10219 0
M  V30 3393 C 323.883 -0.436316 -2.06542 0
M  V30 3394 O 323.231 0.571543 -2.21237 0
M  V30 3395 C 323.441 -2.97602 -1.82301 0
M  V30 3396 C 324.789 -3.5291 -2.36093 0
M  V30 3397 O 325.813 -2.99768 -1.924 0
M  V30 3398 O 324.672 -4.45859 -3.16026 0
M  V30 3399 H 321.766 -0.653522 -0.506792 0
M  V30 3400 H 324.312 -1.66126 -0.346465 0
M  V30 3401 H 323.084 -3.74893 -1.12121 0
M  V30 3402 H 322.707 -2.9665 -2.64735 0
M  V30 3403 N 323.704 0.605807 -1.45491 0
M  V30 3404 C 324.654 1.71074 -1.50724 0
M  V30 3405 C 325.638 1.5658 -0.37033 0
M  V30 3406 O 326.83 1.65887 -0.617299 0
M  V30 3407 C 323.959 3.0983 -1.47852 0
M  V30 3408 C 323.045 3.29704 -2.66751 0
M  V30 3409 N 323.436 3.19831 -3.91844 0
M  V30 3410 C 321.734 3.60579 -2.62486 0
M  V30 3411 C 322.435 3.41083 -4.71208 0
M  V30 3412 N 321.411 3.65157 -4.02693 0
M  V30 3413 H 325.213 1.61937 -2.45263 0
M  V30 3414 H 322.727 0.80912 -1.40808 0
M  V30 3415 H 324.724 3.89101 -1.49686 0
M  V30 3416 H 323.384 3.20115 -0.543714 0
M  V30 3417 H 324.395 2.98194 -4.23439 0
M  V30 3418 H 321.072 3.7769 -1.77922 0
M  V30 3419 H 322.462 3.38828 -5.80211 0
M  V30 3420 N 325.182 1.32811 0.848464 0
M  V30 3421 C 326.132 1.18842 1.94578 0
M  V30 3422 C 327.116 0.0937517 1.60627 0
M  V30 3423 O 328.308 0.320887 1.74067 0
M  V30 3424 C 325.437 0.91999 3.30743 0
M  V30 3425 C 324.523 2.05665 3.70894 0
M  V30 3426 N 324.914 3.30579 3.8282 0
M  V30 3427 C 323.212 1.9612 4.00566 0
M  V30 3428 C 323.913 4.05067 4.17487 0
M  V30 3429 N 322.889 3.33419 4.2934 0
M  V30 3430 H 326.691 2.13536 2.0194 0
M  V30 3431 H 324.205 1.2468 1.0406 0
M  V30 3432 H 326.202 0.800859 4.09136 0
M  V30 3433 H 324.862 -0.0185076 3.24695 0
M  V30 3434 H 325.873 3.65441 3.66978 0
M  V30 3435 H 322.55 1.09871 4.02784 0
M  V30 3436 H 323.94 5.12815 4.34131 0
M  V30 3437 N 326.66 -1.06551 1.16123 0
M  V30 3438 C 327.906 -1.79567 0.94252 0
M  V30 3439 C 328.239 -1.86869 -0.528547 0
M  V30 3440 O 327.514 -1.35838 -1.39206 0
M  V30 3441 C 327.797 -3.24195 1.56747 0
M  V30 3442 C 327.65 -3.24989 3.10969 0
M  V30 3443 C 328.969 -4.21678 1.25998 0
M  V30 3444 H 326.088 -0.651883 0.343828 0
M  V30 3445 H 328.73 -1.2463 1.43413 0
M  V30 3446 H 326.88 -3.71107 1.14942 0
M  V30 3447 H 328.552 -2.86258 3.61737 0
M  V30 3448 H 326.795 -2.63716 3.44436 0
M  V30 3449 H 327.466 -4.27005 3.49815 0
M  V30 3450 H 329.942 -3.83196 1.62174 0
M  V30 3451 H 328.818 -5.21146 1.7233 0
M  V30 3452 H 329.079 -4.4174 0.178367 0
M  V30 3453 N 328.138 -0.959301 -1.25041 0
M  V30 3454 C 329.368 -0.63303 -1.96663 0
M  V30 3455 C 329.776 0.800031 -1.71453 0
M  V30 3456 O 329.119 1.54736 -0.99008 0
M  V30 3457 C 329.181 -0.817523 -3.50081 0
M  V30 3458 C 328.845 -2.22863 -3.98975 0
M  V30 3459 C 329.842 -3.20569 -4.09306 0
M  V30 3460 C 327.527 -2.55407 -4.32519 0
M  V30 3461 C 329.521 -4.4891 -4.52503 0
M  V30 3462 C 327.208 -3.83976 -4.754 0
M  V30 3463 C 328.206 -4.8054 -4.85356 0
M  V30 3464 O 327.894 -6.06817 -5.27284 0
M  V30 3465 H 327.626 -0.235866 -0.633516 0
M  V30 3466 H 330.18 -1.2874 -1.60047 0
M  V30 3467 H 328.41 -0.105992 -3.86555 0
M  V30 3468 H 330.099 -0.491604 -4.02912 0
M  V30 3469 H 330.865 -2.96753 -3.83618 0
M  V30 3470 H 326.744 -1.8097 -4.23994 0
M  V30 3471 H 330.288 -5.24283 -4.60188 0
M  V30 3472 H 326.185 -4.07596 -5.00535 0
M  V30 3473 H 326.953 -6.10262 -5.45457 0
M  V30 3474 N 329.616 1.39756 -0.72842 0
M  V30 3475 C 330.546 2.33289 -0.0991354 0
M  V30 3476 C 331.527 1.53568 0.731489 0
M  V30 3477 O 332.712 1.81987 0.677807 0
M  V30 3478 C 329.842 3.3763 0.813834 0
M  V30 3479 C 328.796 4.2791 0.0878663 0
M  V30 3480 C 328.122 5.22894 1.11741 0
M  V30 3481 C 329.422 5.11314 -1.06563 0
M  V30 3482 H 331.116 2.86163 -0.880408 0
M  V30 3483 H 328.662 1.37591 -0.424819 0
M  V30 3484 H 330.615 4.0201 1.26355 0
M  V30 3485 H 329.339 2.83181 1.62715 0
M  V30 3486 H 327.998 3.65 -0.342159 0
M  V30 3487 H 327.646 4.64744 1.92412 0
M  V30 3488 H 327.346 5.84143 0.636477 0
M  V30 3489 H 328.87 5.90151 1.56697 0
M  V30 3490 H 330.284 5.69076 -0.694671 0
M  V30 3491 H 328.681 5.81671 -1.47577 0
M  V30 3492 H 329.751 4.46534 -1.89038 0
M  V30 3493 N 331.094 0.475555 1.50254 0
M  V30 3494 C 332.004 -0.321501 2.32387 0
M  V30 3495 C 333.02 -0.991755 1.42969 0
M  V30 3496 O 334.196 -0.978747 1.76018 0
M  V30 3497 C 331.261 -1.38667 3.17762 0
M  V30 3498 C 330.322 -0.732538 4.23004 0
M  V30 3499 C 329.555 -1.74695 5.04299 0
M  V30 3500 O 329.778 -2.97399 4.86734 0
M  V30 3501 O 328.712 -1.31631 5.8733 0
M  V30 3502 H 332.538 0.350071 3.01676 0
M  V30 3503 H 330.123 0.237321 1.47503 0
M  V30 3504 H 332.005 -2.00354 3.70724 0
M  V30 3505 H 330.68 -2.04163 2.51196 0
M  V30 3506 H 329.587 -0.0765902 3.74022 0
M  V30 3507 H 330.92 -0.120452 4.92053 0
M  V30 3508 N 332.573 -1.56217 0.208337 0
M  V30 3509 C 333.821 -1.97558 -0.426076 0
M  V30 3510 C 334.142 -1.09683 -1.61229 0
M  V30 3511 O 333.412 -0.170956 -1.95153 0
M  V30 3512 H 331.992 -0.729575 -0.160405 0
M  V30 3513 H 334.654 -1.92606 0.298155 0
M  V30 3514 H 333.75 -3.02672 -0.761312 0
M  V30 3515 N 334.051 0.0651679 -1.57465 0
M  V30 3516 C 335.279 0.775808 -1.91804 0
M  V30 3517 C 335.694 1.70782 -0.804916 0
M  V30 3518 O 335.051 1.81153 0.221311 0
M  V30 3519 C 335.102 1.56381 -3.25925 0
M  V30 3520 O 334.823 0.669248 -4.32958 0
M  V30 3521 C 336.324 2.37485 -3.7432 0
M  V30 3522 H 333.544 0.2202 -0.63384 0
M  V30 3523 H 336.088 0.0334587 -2.04473 0
M  V30 3524 H 334.243 2.25837 -3.14764 0
M  V30 3525 H 334.657 1.21801 -5.10162 0
M  V30 3526 H 336.131 2.88223 -4.70778 0
M  V30 3527 H 336.608 3.17307 -3.03666 0
M  V30 3528 H 337.214 1.73173 -3.88447 0
M  V30 3529 N 335.529 1.53961 0.336706 0
M  V30 3530 C 336.459 1.85417 1.41925 0
M  V30 3531 C 337.44 0.709856 1.5458 0
M  V30 3532 O 338.625 0.962396 1.68676 0
M  V30 3533 C 335.755 2.06985 2.78881 0
M  V30 3534 C 334.709 3.22813 2.81026 0
M  V30 3535 C 334.035 3.29727 4.20932 0
M  V30 3536 C 335.335 4.60767 2.45949 0
M  V30 3537 H 337.029 2.76079 1.15848 0
M  V30 3538 H 334.575 1.32839 0.555859 0
M  V30 3539 H 336.528 2.27575 3.54665 0
M  V30 3540 H 335.252 1.13061 3.06406 0
M  V30 3541 H 333.911 3.0209 2.07695 0
M  V30 3542 H 333.559 2.33385 4.45579 0
M  V30 3543 H 333.259 4.07566 4.23277 0
M  V30 3544 H 334.783 3.52536 4.98549 0
M  V30 3545 H 336.197 4.81325 3.11446 0
M  V30 3546 H 334.594 5.4106 2.59566 0
M  V30 3547 H 335.664 4.6391 1.41122 0
M  V30 3548 N 337.007 -0.598083 1.45811 0
M  V30 3549 C 337.937 -1.71873 1.58057 0
M  V30 3550 C 338.918 -1.64533 0.431615 0
M  V30 3551 O 340.103 -1.82787 0.65595 0
M  V30 3552 C 337.233 -3.10495 1.55597 0
M  V30 3553 C 336.187 -3.32654 2.69305 0
M  V30 3554 C 335.513 -4.71646 2.51902 0
M  V30 3555 C 336.813 -3.21981 4.11248 0
M  V30 3556 H 338.507 -1.61881 2.51863 0
M  V30 3557 H 336.053 -0.777372 1.21214 0
M  V30 3558 H 338.006 -3.88699 1.6276 0
M  V30 3559 H 336.73 -3.2135 0.583255 0
M  V30 3560 H 335.389 -2.56843 2.61586 0
M  V30 3561 H 335.037 -4.79246 1.52748 0
M  V30 3562 H 334.737 -4.87426 3.2816 0
M  V30 3563 H 336.261 -5.52038 2.60933 0
M  V30 3564 H 337.675 -3.90049 4.20161 0
M  V30 3565 H 336.072 -3.49289 4.87972 0
M  V30 3566 H 337.142 -2.1928 4.32486 0
M  V30 3567 N 338.485 -1.33259 -0.841409 0
M  V30 3568 C 339.432 -1.23302 -1.95103 0
M  V30 3569 C 340.402 -0.112204 -1.65721 0
M  V30 3570 O 341.587 -0.290038 -1.88583 0
M  V30 3571 C 338.727 -0.975583 -3.31023 0
M  V30 3572 C 337.84 -2.18243 -3.72819 0
M  V30 3573 C 336.975 -1.85936 -4.97595 0
M  V30 3574 C 336.014 -3.02866 -5.3192 0
M  V30 3575 N 335.151 -2.70565 -6.47873 0
M  V30 3576 H 339.991 -2.18207 -2.02952 0
M  V30 3577 H 337.528 -1.0851 -0.993173 0
M  V30 3578 H 339.486 -0.80677 -4.09325 0
M  V30 3579 H 338.116 -0.0632755 -3.22738 0
M  V30 3580 H 337.168 -2.46107 -2.90061 0
M  V30 3581 H 338.48 -3.05666 -3.94169 0
M  V30 3582 H 337.634 -1.65684 -5.83638 0
M  V30 3583 H 336.373 -0.957452 -4.78209 0
M  V30 3584 H 335.378 -3.23736 -4.44382 0
M  V30 3585 H 336.603 -3.93809 -5.53255 0
M  V30 3586 H 334.549 -1.8293 -6.29978 0
M  V30 3587 H 334.466 -3.51519 -6.69306 0
M  V30 3588 H 335.734 -2.53774 -7.37034 0
M  V30 3589 N 339.963 1.05934 -1.16686 0
M  V30 3590 C 341.374 1.60263 -0.957745 0
M  V30 3591 C 341.725 1.89789 0.49745 0
M  V30 3592 O 340.85 1.67401 1.37135 0
M  V30 3593 C 341.445 2.91172 -1.73218 0
M  V30 3594 C 340.004 3.42188 -1.56794 0
M  V30 3595 C 339.151 2.16028 -1.73859 0
M  V30 3596 H 342.102 0.888392 -1.31504 0
M  V30 3597 H 342.123 3.60744 -1.21014 0
M  V30 3598 H 341.635 2.6965 -2.79124 0
M  V30 3599 H 339.736 3.68762 -0.533437 0
M  V30 3600 H 339.849 4.17273 -2.35414 0
M  V30 3601 H 338.213 2.26426 -1.16633 0
M  V30 3602 H 338.996 1.96985 -2.81161 0
M  V30 3603 N 341.441 0.965919 1.2453 0
M  V30 3604 C 342.389 0.486506 2.27455 0
M  V30 3605 C 343.383 -0.449041 1.6334 0
M  V30 3606 O 344.589 -0.324527 1.7705 0
M  V30 3607 H 340.964 0.138857 0.739069 0
M  V30 3608 H 342.935 1.3666 2.65267 0
M  V30 3609 C 341.684 -0.209481 3.47068 0
M  V30 3610 H 341.007 0.50129 3.96645 0
M  V30 3611 H 342.447 -0.508775 4.20936 0
M  V30 3612 C 340.906 -1.43586 3.0477 0
M  V30 3613 O 341.436 -2.53299 3.11773 0
M  V30 3614 N 339.642 -1.30126 2.59838 0
M  V30 3615 H 339.189 -0.408583 2.54339 0
M  V30 3616 H 339.147 -2.12294 2.31902 0
M  V30 3617 N 342.919 -1.39368 0.735821 0
M  V30 3618 C 343.852 -2.28155 0.0451175 0
M  V30 3619 C 344.83 -1.44433 -0.746852 0
M  V30 3620 O 346.014 -1.73823 -0.729237 0
M  V30 3621 C 343.141 -3.253 -0.943266 0
M  V30 3622 C 342.187 -4.25826 -0.239685 0
M  V30 3623 S 343.02 -5.25166 1.04693 0
M  V30 3624 C 344.176 -6.2587 0.0611639 0
M  V30 3625 H 344.409 -2.86388 0.79807 0
M  V30 3626 H 341.942 -1.45104 0.527653 0
M  V30 3627 H 343.9 -3.81789 -1.50824 0
M  V30 3628 H 342.561 -2.66085 -1.66906 0
M  V30 3629 H 341.754 -4.94229 -0.987596 0
M  V30 3630 H 341.356 -3.73141 0.253274 0
M  V30 3631 H 343.648 -6.73007 -0.778941 0
M  V30 3632 H 344.591 -7.04508 0.712362 0
M  V30 3633 H 344.999 -5.63639 -0.311602 0
M  V30 3634 N 344.397 -0.483516 -1.5 0
M  V30 3635 C 345.643 0.0672592 -2.02688 0
M  V30 3636 C 345.976 1.38247 -1.36387 0
M  V30 3637 O 345.251 1.88131 -0.493675 0
M  V30 3638 C 345.534 0.238109 -3.59312 0
M  V30 3639 C 345.387 -1.099 -4.36168 0
M  V30 3640 C 346.706 0.986916 -4.28892 0
M  V30 3641 H 343.825 0.0229696 -0.736642 0
M  V30 3642 H 346.467 -0.631527 -1.79197 0
M  V30 3643 H 344.617 0.8333 -3.79458 0
M  V30 3644 H 346.289 -1.73172 -4.27562 0
M  V30 3645 H 344.532 -1.69261 -3.99416 0
M  V30 3646 H 345.203 -0.932954 -5.44059 0
M  V30 3647 H 347.679 0.482302 -4.13295 0
M  V30 3648 H 346.555 1.07527 -5.38265 0
M  V30 3649 H 346.816 2.0265 -3.92919 0
M  V30 3650 N 345.875 1.56104 -0.216619 0
M  V30 3651 C 347.103 2.02563 0.421413 0
M  V30 3652 C 347.518 1.0965 1.53695 0
M  V30 3653 O 346.875 0.10521 1.82196 0
M  V30 3654 C 346.926 3.48584 0.957665 0
M  V30 3655 O 346.647 4.37953 -0.113389 0
M  V30 3656 C 348.148 4.10664 1.66943 0
M  V30 3657 H 345.368 0.662944 0.103665 0
M  V30 3658 H 347.912 2.01793 -0.331629 0
M  V30 3659 H 346.067 3.49985 1.661 0
M  V30 3660 H 346.481 5.23704 0.288932 0
M  V30 3661 H 347.955 5.14622 1.99671 0
M  V30 3662 H 348.432 3.55373 2.58083 0
M  V30 3663 H 349.038 4.13098 1.01142 0
M  V30 3664 N 347.353 -0.0568162 1.57498 0
M  V30 3665 C 348.316 -1.05038 2.03715 0
M  V30 3666 C 349.316 -1.30709 0.936577 0
M  V30 3667 O 350.506 -1.26178 1.20103 0
M  V30 3668 C 347.638 -2.39034 2.43055 0
M  V30 3669 H 348.831 -0.651715 2.92733 0
M  V30 3670 H 346.384 -0.302947 1.53336 0
M  V30 3671 H 347.119 -2.83703 1.57108 0
M  V30 3672 H 346.904 -2.21739 3.2338 0
M  V30 3673 H 348.394 -3.10421 2.79336 0
M  V30 3674 N 348.832 -1.54138 -0.328536 0
M  V30 3675 C 350.08 -1.71765 -1.06496 0
M  V30 3676 C 350.401 -0.49149 -1.88704 0
M  V30 3677 O 349.671 0.494539 -1.89555 0
M  V30 3678 H 348.251 -0.633295 -0.396164 0
M  V30 3679 H 350.913 -1.91429 -0.366176 0
M  V30 3680 H 350.009 -2.5951 -1.73381 0
M  V30 3681 N 350.31 0.590341 -1.46126 0
M  V30 3682 C 351.26 1.69466 -1.5253 0
M  V30 3683 C 352.244 1.56179 -0.386917 0
M  V30 3684 O 353.436 1.65223 -0.634858 0
M  V30 3685 C 350.565 3.08245 -1.5113 0
M  V30 3686 C 349.651 3.26856 -2.70233 0
M  V30 3687 N 350.042 3.15657 -3.95214 0
M  V30 3688 C 348.34 3.57775 -2.66296 0
M  V30 3689 C 349.041 3.36066 -4.74799 0
M  V30 3690 N 348.017 3.60865 -4.06543 0
M  V30 3691 H 351.819 1.59326 -2.46966 0
M  V30 3692 H 349.333 0.79414 -1.41659 0
M  V30 3693 H 351.33 3.87492 -1.53804 0
M  V30 3694 H 349.99 3.19521 -0.577636 0
M  V30 3695 H 351.001 2.93686 -4.26578 0
M  V30 3696 H 347.678 3.75782 -1.81918 0
M  V30 3697 H 349.068 3.32655 -5.83772 0
M  V30 3698 N 351.788 1.33704 0.83433 0
M  V30 3699 C 352.751 1.24244 1.92603 0
M  V30 3700 C 353.751 0.160383 1.59998 0
M  V30 3701 O 354.941 0.412228 1.69252 0
M  V30 3702 C 352.073 0.91555 3.28376 0
M  V30 3703 H 353.266 2.21287 2.02416 0
M  V30 3704 H 350.819 1.17827 1.02696 0
M  V30 3705 H 351.554 -0.0521886 3.24258 0
M  V30 3706 H 351.339 1.69811 3.53422 0
M  V30 3707 H 352.829 0.874231 4.08347 0
M  V30 3708 N 353.266 -1.05314 1.17247 0
M  V30 3709 C 354.506 -1.79869 0.970898 0
M  V30 3710 C 354.87 -1.85594 -0.491808 0
M  V30 3711 O 356.071 -2.56229 -0.812409 0
M  V30 3712 C 354.342 -3.19937 1.59295 0
M  V30 3713 S 355.901 -4.10986 1.53741 0
M  V30 3714 H 352.719 -0.61949 0.348931 0
M  V30 3715 H 355.321 -1.26368 1.49169 0
M  V30 3716 H 354.025 -3.13372 2.65003 0
M  V30 3717 H 353.556 -3.78515 1.07191 0
M  V30 3718 H 355.571 -4.93203 0.544537 0
M  V30 3719 N 354.744 -0.972509 -1.24016 0
M  V30 3720 C 355.972 -0.654803 -1.96265 0
M  V30 3721 C 356.387 0.776708 -1.72083 0
M  V30 3722 O 355.744 1.52171 -1.00748 0
M  V30 3723 C 355.795 -0.92592 -3.49441 0
M  V30 3724 O 355.516 -2.30116 -3.72798 0
M  V30 3725 C 357.017 -0.623068 -4.38899 0
M  V30 3726 H 354.237 -0.243907 -0.6251 0
M  V30 3727 H 356.781 -1.30175 -1.57717 0
M  V30 3728 H 354.936 -0.325108 -3.86033 0
M  V30 3729 H 355.35 -2.38483 -4.67147 0
M  V30 3730 H 356.824 -0.863189 -5.45209 0
M  V30 3731 H 357.301 0.442754 -4.36963 0
M  V30 3732 H 357.907 -1.204 -4.07902 0
M  V30 3733 N 356.222 1.38976 -0.743202 0
M  V30 3734 C 357.169 2.30544 -0.10861 0
M  V30 3735 C 358.139 1.49642 0.720869 0
M  V30 3736 O 359.324 1.78304 0.679142 0
M  V30 3737 C 356.464 3.36018 0.786496 0
M  V30 3738 C 355.577 4.31963 -0.0564849 0
M  V30 3739 C 354.712 5.24506 0.840657 0
M  V30 3740 C 353.751 6.121 -0.00658363 0
M  V30 3741 N 352.888 6.96973 0.846943 0
M  V30 3742 H 357.728 2.8424 -0.895088 0
M  V30 3743 H 355.265 1.3995 -0.453048 0
M  V30 3744 H 357.223 3.95768 1.31999 0
M  V30 3745 H 355.853 2.83758 1.53887 0
M  V30 3746 H 354.905 3.73763 -0.707492 0
M  V30 3747 H 356.217 4.93703 -0.711229 0
M  V30 3748 H 355.371 5.89322 1.4417 0
M  V30 3749 H 354.11 4.63107 1.52916 0
M  V30 3750 H 353.115 5.46289 -0.620366 0
M  V30 3751 H 354.34 6.75565 -0.691992 0
M  V30 3752 H 352.286 6.38133 1.52059 0
M  V30 3753 H 352.203 7.5559 0.248864 0
M  V30 3754 H 353.471 7.6621 1.43328 0
M  V30 3755 N 357.7 0.491464 1.49741 0
M  V30 3756 C 358.647 -0.292027 2.28945 0
M  V30 3757 C 359.617 -0.968973 1.34908 0
M  V30 3758 O 360.802 -0.97748 1.6386 0
M  V30 3759 C 357.942 -1.35617 3.17336 0
M  V30 3760 C 357.055 -0.691957 4.26422 0
M  V30 3761 C 356.19 -1.73572 5.02042 0
M  V30 3762 C 355.229 -1.05286 6.02977 0
M  V30 3763 N 354.366 -2.0404 6.71798 0
M  V30 3764 H 359.206 0.389654 2.95442 0
M  V30 3765 H 356.743 0.204003 1.45679 0
M  V30 3766 H 358.701 -1.98502 3.66951 0
M  V30 3767 H 357.331 -2.00674 2.52844 0
M  V30 3768 H 356.383 0.0499523 3.80367 0
M  V30 3769 H 357.695 -0.153946 4.98562 0
M  V30 3770 H 356.849 -2.43987 5.55478 0
M  V30 3771 H 355.588 -2.30757 4.29654 0
M  V30 3772 H 354.593 -0.334446 5.48782 0
M  V30 3773 H 355.818 -0.487636 6.77347 0
M  V30 3774 H 353.764 -2.60205 6.02187 0
M  V30 3775 H 353.681 -1.55279 7.39881 0
M  V30 3776 H 354.949 -2.73772 7.29842 0
M  V30 3777 N 359.178 -1.55987 0.224894 0
M  V30 3778 C 360.408 -2.02489 -0.41007 0
M  V30 3779 C 360.816 -1.10391 -1.53657 0
M  V30 3780 O 360.159 -0.106458 -1.83391 0
M  V30 3781 C 360.221 -3.45319 -0.999757 0
M  V30 3782 C 359.885 -4.56999 -0.00827976 0
M  V30 3783 C 360.882 -5.13812 0.793314 0
M  V30 3784 C 358.567 -5.02176 0.111442 0
M  V30 3785 C 360.561 -6.14276 1.7013 0
M  V30 3786 C 358.248 -6.02477 1.02296 0
M  V30 3787 C 359.246 -6.58403 1.81643 0
M  V30 3788 O 358.934 -7.56751 2.71262 0
M  V30 3789 H 358.666 -0.667915 -0.104235 0
M  V30 3790 H 361.22 -2.0257 0.339782 0
M  V30 3791 H 359.45 -3.42318 -1.79876 0
M  V30 3792 H 361.139 -3.7545 -1.54248 0
M  V30 3793 H 361.905 -4.79756 0.711288 0
M  V30 3794 H 357.784 -4.58323 -0.49605 0
M  V30 3795 H 361.328 -6.57854 2.32107 0
M  V30 3796 H 357.225 -6.35954 1.10599 0
M  V30 3797 H 357.993 -7.74286 2.65375 0
M  V30 3798 N 360.656 0.0484629 -1.57525 0
M  V30 3799 C 361.884 0.755421 -1.92616 0
M  V30 3800 C 362.299 1.69919 -0.822984 0
M  V30 3801 O 361.656 1.81378 0.202085 0
M  V30 3802 C 361.707 1.52915 -3.27566 0
M  V30 3803 O 361.428 0.62329 -4.33644 0
M  V30 3804 C 362.929 2.33502 -3.76818 0
M  V30 3805 H 360.149 0.213465 -0.63614 0
M  V30 3806 H 362.693 0.0117698 -2.04497 0
M  V30 3807 H 360.848 2.22486 -3.17142 0
M  V30 3808 H 361.262 1.16383 -5.11425 0
M  V30 3809 H 362.736 2.83214 -4.73808 0
M  V30 3810 H 363.213 3.14068 -3.07014 0
M  V30 3811 H 363.819 1.69043 -3.90262 0
M  V30 3812 N 362.134 1.5431 0.320358 0
M  V30 3813 C 363.545 1.63872 0.894594 0
M  V30 3814 C 363.896 0.534847 1.88769 0
M  V30 3815 O 363.021 -0.331732 2.13842 0
M  V30 3816 C 363.616 2.97049 1.62934 0
M  V30 3817 C 362.175 3.08796 2.15226 0
M  V30 3818 C 361.322 2.59456 0.978671 0
M  V30 3819 H 364.273 1.58398 0.0978544 0
M  V30 3820 H 364.294 2.87388 2.49376 0
M  V30 3821 H 363.806 3.7737 0.906302 0
M  V30 3822 H 361.907 2.33156 2.90636 0
M  V30 3823 H 362.02 4.14649 2.40006 0
M  V30 3824 H 360.384 2.1543 1.35875 0
M  V30 3825 H 361.167 3.42237 0.269895 0
M  V30 3826 N 363.613 -0.582584 1.46437 0
M  V30 3827 C 364.523 -1.71949 1.59595 0
M  V30 3828 C 365.539 -1.67264 0.479443 0
M  V30 3829 O 366.715 -1.87171 0.743579 0
M  V30 3830 C 363.78 -3.08452 1.58298 0
M  V30 3831 C 362.841 -3.244 2.81182 0
M  V30 3832 C 362.074 -4.54391 2.79937 0
M  V30 3833 O 362.297 -5.38287 1.8869 0
M  V30 3834 O 361.231 -4.73588 3.71481 0
M  V30 3835 H 365.057 -1.63795 2.55744 0
M  V30 3836 H 362.642 -0.749643 1.29231 0
M  V30 3837 H 364.524 -3.89732 1.60271 0
M  V30 3838 H 363.199 -3.17043 0.653094 0
M  V30 3839 H 362.106 -2.42613 2.84763 0
M  V30 3840 H 363.439 -3.20699 3.7338 0
M  V30 3841 N 365.091 -1.34144 -0.827227 0
M  V30 3842 C 366.023 -1.21206 -1.9453 0
M  V30 3843 C 367.036 -0.140176 -1.62195 0
M  V30 3844 O 368.225 -0.391647 -1.7415 0
M  V30 3845 C 365.325 -0.839141 -3.28347 0
M  V30 3846 C 364.498 -2.0051 -3.88734 0
M  V30 3847 C 363.557 -1.61128 -5.00923 0
M  V30 3848 O 362.583 -2.32726 -5.19449 0
M  V30 3849 N 363.785 -0.522958 -5.7814 0
M  V30 3850 H 366.55 -2.17525 -2.06162 0
M  V30 3851 H 364.111 -1.27043 -1.00358 0
M  V30 3852 H 366.103 -0.557556 -4.00841 0
M  V30 3853 H 364.673 0.0337293 -3.12582 0
M  V30 3854 H 363.893 -2.45166 -3.08686 0
M  V30 3855 H 365.181 -2.78498 -4.25812 0
M  V30 3856 H 364.579 0.0723518 -5.65654 0
M  V30 3857 H 363.136 -0.301089 -6.51104 0
M  V30 3858 N 366.569 1.04691 -1.17803 0
M  V30 3859 C 367.815 1.78045 -0.970969 0
M  V30 3860 C 368.148 1.87686 0.498751 0
M  V30 3861 O 367.423 1.38035 1.37027 0
M  V30 3862 C 367.706 3.2166 -1.61884 0
M  V30 3863 C 367.559 3.20001 -3.161 0
M  V30 3864 C 368.878 4.1962 -1.3269 0
M  V30 3865 H 365.997 0.64633 -0.354155 0
M  V30 3866 H 368.639 1.22333 -1.45378 0
M  V30 3867 H 366.789 3.69232 -1.20831 0
M  V30 3868 H 368.461 2.80467 -3.66246 0
M  V30 3869 H 366.704 2.58203 -3.48588 0
M  V30 3870 H 367.375 4.21386 -3.56564 0
M  V30 3871 H 369.851 3.80567 -1.68249 0
M  V30 3872 H 368.727 5.18339 -1.80599 0
M  V30 3873 H 368.988 4.414 -0.248622 0
M  V30 3874 N 368.047 0.979072 1.23499 0
M  V30 3875 C 369.01 0.523244 2.23147 0
M  V30 3876 C 370.01 -0.386406 1.56088 0
M  V30 3877 O 371.2 -0.180283 1.73265 0
M  V30 3878 C 368.332 -0.240739 3.40049 0
M  V30 3879 H 369.525 1.40432 2.64989 0
M  V30 3880 H 367.078 0.764824 1.36309 0
M  V30 3881 H 367.813 -1.13841 3.03662 0
M  V30 3882 H 367.598 0.412207 3.89927 0
M  V30 3883 H 369.088 -0.548297 4.13985 0
M  V30 3884 N 369.525 -1.3858 0.750561 0
M  V30 3885 C 370.458 -2.28095 0.0693139 0
M  V30 3886 C 371.436 -1.45217 -0.731491 0
M  V30 3887 O 372.62 -1.74587 -0.71076 0
M  V30 3888 C 369.747 -3.26282 -0.90871 0
M  V30 3889 C 368.793 -4.26056 -0.194507 0
M  V30 3890 S 369.626 -5.24026 1.10257 0
M  V30 3891 C 370.782 -6.2577 0.127542 0
M  V30 3892 H 371.015 -2.85526 0.8284 0
M  V30 3893 H 368.548 -1.44536 0.543014 0
M  V30 3894 H 370.506 -3.83367 -1.46766 0
M  V30 3895 H 369.167 -2.6784 -1.64075 0
M  V30 3896 H 368.36 -4.95249 -0.93512 0
M  V30 3897 H 367.962 -3.72852 0.292837 0
M  V30 3898 H 370.254 -6.73796 -0.707516 0
M  V30 3899 H 371.197 -7.03712 0.787044 0
M  V30 3900 H 371.605 -5.63938 -0.251803 0
M  V30 3901 N 371.003 -0.499398 -1.49478 0
M  V30 3902 C 371.966 0.268838 -2.27618 0
M  V30 3903 C 372.966 0.895383 -1.33565 0
M  V30 3904 O 374.156 0.760164 -1.56739 0
M  V30 3905 C 371.288 1.38559 -3.11471 0
M  V30 3906 H 372.481 -0.416812 -2.96989 0
M  V30 3907 H 370.034 -0.254313 -1.54217 0
M  V30 3908 H 370.769 2.10544 -2.46661 0
M  V30 3909 H 370.554 0.941797 -3.80621 0
M  V30 3910 H 372.044 1.92678 -3.70493 0
M  V30 3911 N 372.481 1.55866 -0.233164 0
M  V30 3912 C 373.709 2.02998 0.399905 0
M  V30 3913 C 374.124 1.11274 1.52524 0
M  V30 3914 O 373.481 0.124528 1.82075 0
M  V30 3915 C 373.532 3.4958 0.920639 0
M  V30 3916 O 373.253 4.37808 -0.159834 0
M  V30 3917 C 374.754 4.12411 1.62578 0
M  V30 3918 H 371.974 0.664006 0.0966281 0
M  V30 3919 H 374.518 2.0143 -0.353013 0
M  V30 3920 H 372.673 3.51727 1.62379 0
M  V30 3921 H 373.087 5.23981 0.23337 0
M  V30 3922 H 374.561 5.16711 1.94201 0
M  V30 3923 H 375.038 3.5809 2.54299 0
M  V30 3924 H 375.644 4.14148 0.967553 0
M  V30 3925 N 373.959 -0.0401083 1.57549 0
M  V30 3926 C 375.205 -0.734211 1.89043 0
M  V30 3927 C 375.538 -1.75591 0.829535 0
M  V30 3928 O 374.813 -1.93868 -0.156706 0
M  V30 3929 C 375.096 -1.41374 3.31188 0
M  V30 3930 C 374.949 -0.406299 4.47961 0
M  V30 3931 C 376.268 -2.35061 3.72068 0
M  V30 3932 H 373.387 -0.265447 0.687537 0
M  V30 3933 H 376.029 0.00294087 1.9 0
M  V30 3934 H 374.179 -2.04206 3.30503 0
M  V30 3935 H 375.851 0.219255 4.60779 0
M  V30 3936 H 374.094 0.275485 4.32924 0
M  V30 3937 H 374.765 -0.920022 5.44279 0
M  V30 3938 H 377.241 -1.82282 3.74049 0
M  V30 3939 H 376.117 -2.79593 4.72355 0
M  V30 3940 H 376.378 -3.21258 3.0372 0
M  V30 3941 N 375.437 -1.54477 -0.31217 0
M  V30 3942 C 376.665 -1.77205 -1.068 0
M  V30 3943 C 377.08 -0.526114 -1.81321 0
M  V30 3944 O 376.437 0.503647 -1.75413 0
M  V30 3945 C 376.488 -2.97253 -2.05725 0
M  V30 3946 O 376.209 -4.1703 -1.34228 0
M  V30 3947 C 377.71 -3.32281 -2.93435 0
M  V30 3948 H 374.93 -0.591287 -0.317208 0
M  V30 3949 H 377.474 -2.01398 -0.354834 0
M  V30 3950 H 375.629 -2.753 -2.72559 0
M  V30 3951 H 376.043 -4.84636 -2.00571 0
M  V30 3952 H 377.517 -4.19551 -3.58721 0
M  V30 3953 H 377.994 -2.49945 -3.61143 0
M  V30 3954 H 378.6 -3.56353 -2.32147 0
M  V30 3955 N 376.915 0.57481 -1.46744 0
M  V30 3956 C 377.878 1.66533 -1.57478 0
M  V30 3957 C 378.878 1.54338 -0.451263 0
M  V30 3958 O 380.068 1.58814 -0.715813 0
M  V30 3959 C 377.2 3.05999 -1.50259 0
M  V30 3960 H 378.393 1.58372 -2.54673 0
M  V30 3961 H 375.946 0.793301 -1.34672 0
M  V30 3962 H 376.681 3.19709 -0.543725 0
M  V30 3963 H 376.466 3.16259 -2.31781 0
M  V30 3964 H 377.956 3.8537 -1.60872 0
M  V30 3965 N 378.394 1.34581 0.820102 0
M  V30 3966 C 379.324 1.29038 1.94606 0
M  V30 3967 C 380.305 0.1673 1.69275 0
M  V30 3968 O 381.49 0.360112 1.90832 0
M  V30 3969 C 378.62 1.04793 3.31113 0
M  V30 3970 C 377.574 2.13597 3.70891 0
M  V30 3971 C 376.9 1.74537 5.05412 0
M  V30 3972 C 378.2 3.55451 3.8269 0
M  V30 3973 H 379.894 2.23248 1.99501 0
M  V30 3974 H 377.44 1.0747 0.958449 0
M  V30 3975 H 379.393 0.995592 4.0947 0
M  V30 3976 H 378.117 0.0702565 3.26524 0
M  V30 3977 H 376.776 2.17905 2.9481 0
M  V30 3978 H 376.424 0.754226 4.97313 0
M  V30 3979 H 376.124 2.47361 5.32997 0
M  V30 3980 H 377.648 1.70803 5.86224 0
M  V30 3981 H 379.062 3.5354 4.51312 0
M  V30 3982 H 377.459 4.26922 4.21732 0
M  V30 3983 H 378.529 3.92587 2.84611 0
M  V30 3984 N 379.872 -1.04064 1.18357 0
M  V30 3985 C 380.822 -2.10393 0.878561 0
M  V30 3986 C 381.806 -1.60183 -0.151713 0
M  V30 3987 O 382.998 -1.76923 0.0523303 0
M  V30 3988 C 380.127 -3.4089 0.406096 0
M  V30 3989 C 379.213 -3.97866 1.46844 0
M  V30 3990 N 379.604 -4.28657 2.68489 0
M  V30 3991 C 377.902 -4.2574 1.32896 0
M  V30 3992 C 378.603 -4.74253 3.36836 0
M  V30 3993 N 377.579 -4.75068 2.64219 0
M  V30 3994 H 381.381 -2.32076 1.80327 0
M  V30 3995 H 378.895 -1.21818 1.07397 0
M  V30 3996 H 380.892 -4.16557 0.169088 0
M  V30 3997 H 379.552 -3.20633 -0.512275 0
M  V30 3998 H 380.563 -4.18304 3.05356 0
M  V30 3999 H 377.24 -4.1481 0.473134 0
M  V30 4000 H 378.63 -5.07096 4.40798 0
M  V30 4001 N 381.35 -0.985608 -1.22978 0
M  V30 4002 C 382.766 -0.695104 -1.43668 0
M  V30 4003 C 382.966 0.736866 -1.87543 0
M  V30 4004 O 382.022 1.50868 -2.02473 0
M  V30 4005 C 383.335 -1.69447 -2.48412 0
M  V30 4006 C 384.883 -1.70909 -2.62219 0
M  V30 4007 C 385.358 -2.6969 -3.70178 0
M  V30 4008 N 386.849 -2.6824 -3.77626 0
M  V30 4009 C 387.584 -3.41339 -4.60733 0
M  V30 4010 N 387.08 -4.24015 -5.4789 0
M  V30 4011 N 388.873 -3.30079 -4.54977 0
M  V30 4012 H 381.024 -1.91054 -0.928016 0
M  V30 4013 H 383.287 -0.823553 -0.469536 0
M  V30 4014 H 382.993 -2.7188 -2.23102 0
M  V30 4015 H 382.867 -1.48147 -3.46889 0
M  V30 4016 H 385.254 -0.691785 -2.86877 0
M  V30 4017 H 385.335 -1.96276 -1.6404 0
M  V30 4018 H 384.979 -3.71566 -3.46268 0
M  V30 4019 H 384.909 -2.41595 -4.67909 0
M  V30 4020 H 387.4 -2.08243 -3.15346 0
M  V30 4021 H 387.713 -4.76636 -6.08308 0
M  V30 4022 H 386.058 -4.28104 -5.47496 0
M  V30 4023 H 389.249 -2.64937 -3.85909 0
M  V30 4024 H 389.422 -3.87308 -5.19516 0
M  V30 4025 N 382.828 1.3818 -0.7579 0
M  V30 4026 C 384.056 2.04301 -0.326937 0
M  V30 4027 C 384.471 1.57163 1.0462 0
M  V30 4028 O 383.828 0.746626 1.66529 0
M  V30 4029 C 383.879 3.59846 -0.345363 0
M  V30 4030 O 383.6 4.05256 -1.66432 0
M  V30 4031 C 385.101 4.4319 0.098927 0
M  V30 4032 H 382.321 0.656443 -0.139012 0
M  V30 4033 H 384.865 1.76786 -1.02796 0
M  V30 4034 H 383.02 3.86182 0.306955 0
M  V30 4035 H 383.434 4.99709 -1.59345 0
M  V30 4036 H 384.908 5.51989 0.0348745 0
M  V30 4037 H 385.385 4.23947 1.14741 0
M  V30 4038 H 385.991 4.22051 -0.52468 0
M  V30 4039 N 384.306 0.507319 1.49211 0
M  V30 4040 C 385.552 -0.0350047 2.0277 0
M  V30 4041 C 385.885 -1.3606 1.38569 0
M  V30 4042 O 385.16 -1.87321 0.523542 0
M  V30 4043 C 385.443 -0.180916 3.59645 0
M  V30 4044 C 385.296 1.16825 4.34364 0
M  V30 4045 C 386.615 -0.918558 4.30407 0
M  V30 4046 H 383.734 -0.0112473 0.736914 0
M  V30 4047 H 386.376 0.659956 1.7817 0
M  V30 4048 H 384.526 -0.772826 3.80736 0
M  V30 4049 H 386.198 1.79952 4.24753 0
M  V30 4050 H 384.441 1.75594 3.96673 0
M  V30 4051 H 385.112 1.01939 5.42506 0
M  V30 4052 H 387.588 -0.41649 4.1401 0
M  V30 4053 H 386.464 -0.989505 5.39907 0
M  V30 4054 H 386.725 -1.96373 3.96093 0
M  V30 4055 N 385.784 -1.5574 0.241426 0
M  V30 4056 C 387.195 -1.84842 -0.262755 0
M  V30 4057 C 387.546 -1.16317 -1.58003 0
M  V30 4058 O 386.671 -0.439653 -2.11887 0
M  V30 4059 C 387.266 -3.35332 -0.483523 0
M  V30 4060 C 385.825 -3.6468 -0.931977 0
M  V30 4061 C 384.972 -2.77299 -0.0061151 0
M  V30 4062 H 387.923 -1.51761 0.464129 0
M  V30 4063 H 387.944 -3.56615 -1.32688 0
M  V30 4064 H 387.456 -3.85178 0.47537 0
M  V30 4065 H 385.557 -3.20307 -1.90353 0
M  V30 4066 H 385.67 -4.72498 -0.792628 0
M  V30 4067 H 384.034 -2.49408 -0.516503 0
M  V30 4068 H 384.817 -3.2995 0.948052 0
M  V30 4069 N 387.262 0.0317525 -1.57568 0
M  V30 4070 C 388.225 1.01783 -2.0536 0
M  V30 4071 C 389.225 1.29203 -0.957253 0
M  V30 4072 O 390.415 1.24251 -1.22095 0
M  V30 4073 C 387.547 2.35137 -2.46827 0
M  V30 4074 H 388.74 0.605062 -2.93733 0
M  V30 4075 H 386.293 0.278514 -1.53799 0
M  V30 4076 H 387.028 2.81168 -1.61602 0
M  V30 4077 H 386.813 2.16566 -3.26866 0
M  V30 4078 H 388.303 3.05938 -2.84239 0
M  V30 4079 N 388.74 1.54641 0.303973 0
M  V30 4080 C 389.703 1.84646 1.35789 0
M  V30 4081 C 390.703 0.7192 1.4382 0
M  V30 4082 O 391.893 0.987491 1.43507 0
M  V30 4083 C 389.025 2.02407 2.74307 0
M  V30 4084 H 390.218 2.78829 1.10429 0
M  V30 4085 H 387.771 1.46658 0.540487 0
M  V30 4086 H 388.506 1.10502 3.04893 0
M  V30 4087 H 388.291 2.84453 2.69868 0
M  V30 4088 H 389.781 2.27002 3.50514 0
M  V30 4089 N 390.218 -0.567019 1.47046 0
M  V30 4090 C 391.464 -1.32658 1.53394 0
M  V30 4091 C 391.797 -1.93254 0.19148 0
M  V30 4092 O 391.072 -1.77338 -0.798844 0
M  V30 4093 C 391.355 -2.44412 2.64452 0
M  V30 4094 C 391.208 -1.88749 4.08282 0
M  V30 4095 C 392.527 -3.46387 2.71485 0
M  V30 4096 H 389.646 -0.48098 0.558415 0
M  V30 4097 H 392.288 -0.635481 1.79058 0
M  V30 4098 H 390.438 -3.03363 2.427 0
M  V30 4099 H 392.11 -1.34134 4.41368 0
M  V30 4100 H 390.353 -1.19481 4.17021 0
M  V30 4101 H 391.024 -2.69491 4.81745 0
M  V30 4102 H 393.5 -2.9734 2.91081 0
M  V30 4103 H 392.376 -4.2202 3.50985 0
M  V30 4104 H 392.637 -4.04616 1.78153 0
M  V30 4105 N 391.696 -1.35014 -0.812953 0
M  V30 4106 C 393.107 -1.25035 -1.38648 0
M  V30 4107 C 393.458 0.119967 -1.95833 0
M  V30 4108 O 392.583 1.02069 -1.90816 0
M  V30 4109 C 393.178 -2.26394 -2.52054 0
M  V30 4110 C 391.737 -2.20175 -3.05287 0
M  V30 4111 C 390.884 -2.12451 -1.78213 0
M  V30 4112 H 393.835 -1.46235 -0.616516 0
M  V30 4113 H 393.856 -1.88672 -3.30429 0
M  V30 4114 H 393.368 -3.26116 -2.10404 0
M  V30 4115 H 391.469 -1.23841 -3.51417 0
M  V30 4116 H 391.582 -3.11863 -3.63701 0
M  V30 4117 H 389.946 -1.58328 -1.9951 0
M  V30 4118 H 390.729 -3.14024 -1.38723 0
M  V30 4119 N 393.175 1.03435 -1.18907 0
M  V30 4120 C 394.423 1.76394 -0.986382 0
M  V30 4121 C 394.744 1.88883 0.484567 0
M  V30 4122 O 394.014 1.41843 1.3512 0
M  V30 4123 H 392.594 0.65344 -0.361975 0
M  V30 4124 H 395.256 1.248 -1.49703 0
M  V30 4125 H 394.352 2.77424 -1.42978 0
M  V30 4126 N 394.653 0.992116 1.22453 0
M  V30 4127 C 395.902 0.662992 1.90492 0
M  V30 4128 C 396.215 -0.808407 1.78113 0
M  V30 4129 O 397.421 -1.24908 2.41061 0
M  V30 4130 C 395.877 1.1353 3.41524 0
M  V30 4131 C 395.485 2.63187 3.62542 0
M  V30 4132 C 397.229 0.880465 4.15269 0
M  V30 4133 C 395.136 3.04024 5.0727 0
M  V30 4134 H 394.066 0.244278 0.713333 0
M  V30 4135 H 396.717 1.20157 1.38688 0
M  V30 4136 H 395.099 0.52485 3.92506 0
M  V30 4137 H 396.273 3.2957 3.22056 0
M  V30 4138 H 394.588 2.86543 3.02129 0
M  V30 4139 H 397.185 1.16128 5.21937 0
M  V30 4140 H 397.528 -0.183408 4.15896 0
M  V30 4141 H 398.061 1.45307 3.70312 0
M  V30 4142 H 394.8 4.09584 5.11782 0
M  V30 4143 H 394.32 2.42343 5.48662 0
M  V30 4144 H 395.999 2.95282 5.75689 0
M  V30 4145 N 396.131 -1.37776 0.765217 0
M  V30 4146 C 397.371 -2.01691 0.331669 0
M  V30 4147 C 397.735 -1.59432 -1.06983 0
M  V30 4148 O 398.936 -2.15761 -1.60314 0
M  V30 4149 C 397.207 -3.54385 0.463261 0
M  V30 4150 S 398.766 -4.38652 0.114011 0
M  V30 4151 H 395.584 -0.699387 0.127979 0
M  V30 4152 H 398.186 -1.68084 0.998396 0
M  V30 4153 H 396.89 -3.82629 1.48401 0
M  V30 4154 H 396.421 -3.92783 -0.220246 0
M  V30 4155 H 398.436 -4.84021 -1.09261 0
M  V30 4156 N 397.609 -0.515225 -1.4894 0
M  V30 4157 C 398.856 0.024215 -2.02486 0
M  V30 4158 C 399.184 1.35671 -1.39368 0
M  V30 4159 O 398.439 1.88566 -0.523574 0
M  V30 4160 C 398.738 0.210595 -3.56779 0
M  V30 4161 C 398.404 -1.04569 -4.38607 0
M  V30 4162 C 397.066 -1.39002 -4.60686 0
M  V30 4163 C 399.418 -1.88008 -4.86109 0
M  V30 4164 C 396.746 -2.568 -5.27514 0
M  V30 4165 C 399.098 -3.04972 -5.54234 0
M  V30 4166 C 397.762 -3.39768 -5.74555 0
M  V30 4167 H 397.032 0.00886088 -0.740947 0
M  V30 4168 H 399.679 -0.678263 -1.79086 0
M  V30 4169 H 397.984 0.99572 -3.78936 0
M  V30 4170 H 399.681 0.642659 -3.95817 0
M  V30 4171 H 396.271 -0.767497 -4.21672 0
M  V30 4172 H 400.455 -1.62719 -4.68867 0
M  V30 4173 H 395.711 -2.8398 -5.41447 0
M  V30 4174 H 399.885 -3.69943 -5.90013 0
M  V30 4175 H 397.512 -4.31148 -6.26112 0
M  V30 4176 N 399.087 1.5561 -0.249682 0
M  V30 4177 C 400.017 2.24477 0.642826 0
M  V30 4178 C 400.998 1.22601 1.17911 0
M  V30 4179 O 402.183 1.5126 1.21795 0
M  V30 4180 C 399.313 2.94638 1.83863 0
M  V30 4181 C 398.267 4.03227 1.435 0
M  V30 4182 C 397.593 4.60828 2.71186 0
M  V30 4183 C 398.893 5.18796 0.604002 0
M  V30 4184 H 400.587 2.99321 0.0685625 0
M  V30 4185 H 398.133 1.43965 0.0315363 0
M  V30 4186 H 400.086 3.41517 2.46868 0
M  V30 4187 H 398.81 2.17287 2.43832 0
M  V30 4188 H 397.469 3.57121 0.828275 0
M  V30 4189 H 397.117 3.80174 3.29358 0
M  V30 4190 H 396.817 5.34132 2.44901 0
M  V30 4191 H 398.341 5.10442 3.35084 0
M  V30 4192 H 399.755 5.61883 1.13842 0
M  V30 4193 H 398.152 5.98506 0.437097 0
M  V30 4194 H 399.222 4.83384 -0.383147 0
M  V30 4195 N 400.565 -0.0233959 1.57583 0
M  V30 4196 C 401.79 -0.728376 1.94189 0
M  V30 4197 C 402.215 -1.67793 0.850119 0
M  V30 4198 O 401.573 -1.80262 -0.19371 0
M  V30 4199 C 401.621 -1.45669 3.29868 0
M  V30 4200 O 400.725 -2.57013 3.22518 0
M  V30 4201 H 400.066 -0.195493 0.63457 0
M  V30 4202 H 402.596 0.0228214 2.04587 0
M  V30 4203 H 402.606 -1.82535 3.6489 0
M  V30 4204 H 401.281 -0.760314 4.08891 0
M  V30 4205 H 399.858 -2.22648 2.99136 0
M  V30 4206 N 402.043 -1.548 -0.295768 0
M  V30 4207 C 403.291 -1.73985 -1.02828 0
M  V30 4208 C 403.612 -0.531406 -1.87619 0
M  V30 4209 O 402.882 0.454221 -1.90561 0
M  V30 4210 H 401.462 -0.641556 -0.382642 0
M  V30 4211 H 404.124 -1.92163 -0.325489 0
M  V30 4212 H 403.22 -2.63129 -1.67838 0
M  V30 4213 N 403.521 0.559213 -1.47345 0
M  V30 4214 C 404.769 1.31388 -1.53563 0
M  V30 4215 C 405.09 1.93985 -0.198678 0
M  V30 4216 O 404.36 1.79825 0.777167 0
M  V30 4217 H 402.94 0.487901 -0.565652 0
M  V30 4218 H 405.602 0.65315 -1.8363 0
M  V30 4219 H 404.698 2.10844 -2.30111 0
M  V30 4220 N 404.999 1.35443 0.805782 0
M  V30 4221 C 405.932 1.22783 1.92353 0
M  V30 4222 C 406.91 0.115543 1.62189 0
M  V30 4223 O 408.094 0.283778 1.86352 0
M  V30 4224 C 405.221 0.890746 3.26777 0
M  V30 4225 C 404.267 2.01519 3.75889 0
M  V30 4226 S 405.1 3.63101 3.93596 0
M  V30 4227 C 406.256 3.31472 5.30921 0
M  V30 4228 H 406.489 2.17394 2.02798 0
M  V30 4229 H 404.022 1.20669 0.963245 0
M  V30 4230 H 405.98 0.703068 4.04434 0
M  V30 4231 H 404.641 -0.0373152 3.14078 0
M  V30 4232 H 403.834 1.7335 4.7325 0
M  V30 4233 H 403.436 2.16124 3.05231 0
M  V30 4234 H 405.728 2.8435 6.1494 0
M  V30 4235 H 406.671 4.28036 5.64084 0
M  V30 4236 H 407.079 2.67221 4.97246 0
M  V30 4237 N 406.477 -1.02803 1.19454 0
M  V30 4238 C 407.702 -1.80378 1.02364 0
M  V30 4239 C 408.127 -1.83282 -0.423007 0
M  V30 4240 O 407.485 -1.25945 -1.30413 0
M  V30 4241 C 407.533 -3.23248 1.59821 0
M  V30 4242 O 406.637 -4.04 0.828105 0
M  V30 4243 H 405.978 -0.556799 0.361761 0
M  V30 4244 H 408.508 -1.29385 1.58495 0
M  V30 4245 H 408.518 -3.73994 1.63073 0
M  V30 4246 H 407.193 -3.2045 2.65113 0
M  V30 4247 H 405.77 -3.62635 0.86891 0
M  V30 4248 N 407.956 -0.998596 -1.21925 0
M  V30 4249 C 408.866 -0.562736 -2.27751 0
M  V30 4250 C 409.882 0.391203 -1.69545 0
M  V30 4251 O 411.058 0.256625 -1.99758 0
M  V30 4252 C 408.123 0.11012 -3.46525 0
M  V30 4253 C 407.184 -0.887495 -4.20026 0
M  V30 4254 C 406.417 -0.246654 -5.3313 0
M  V30 4255 O 406.64 0.958088 -5.62296 0
M  V30 4256 O 405.574 -0.954374 -5.94286 0
M  V30 4257 H 409.4 -1.44329 -2.67213 0
M  V30 4258 H 406.985 -0.767135 -1.28201 0
M  V30 4259 H 408.867 0.486756 -4.18579 0
M  V30 4260 H 407.542 0.965154 -3.08976 0
M  V30 4261 H 406.449 -1.31517 -3.5022 0
M  V30 4262 H 407.782 -1.71191 -4.6147 0
M  V30 4263 N 409.434 1.37368 -0.772513 0
M  V30 4264 C 410.344 2.34053 -0.160081 0
M  V30 4265 C 411.36 1.60216 0.678728 0
M  V30 4266 O 412.536 1.92303 0.59847 0
M  V30 4267 C 409.601 3.3939 0.708182 0
M  V30 4268 C 408.662 4.29048 -0.147172 0
M  V30 4269 C 407.895 5.29354 0.679744 0
M  V30 4270 O 408.118 5.3723 1.91678 0
M  V30 4271 O 407.052 6.01835 0.0885444 0
M  V30 4272 H 410.878 2.88159 -0.959053 0
M  V30 4273 H 408.463 1.39543 -0.533685 0
M  V30 4274 H 410.345 4.03839 1.20384 0
M  V30 4275 H 409.02 2.8761 1.48533 0
M  V30 4276 H 407.927 3.67697 -0.689205 0
M  V30 4277 H 409.26 4.84134 -0.887423 0
M  V30 4278 N 410.912 0.523116 1.48665 0
M  V30 4279 C 412.189 -0.0775449 1.95446 0
M  V30 4280 C 412.569 -1.5197 1.4652 0
M  V30 4281 O 411.917 -2.17876 0.688657 0
M  V30 4282 C 412.127 0.0326135 3.48985 0
M  V30 4283 C 413.475 -0.130141 4.24401 0
M  V30 4284 O 414.499 -0.0415142 3.56176 0
M  V30 4285 O 413.358 -0.31491 5.45592 0
M  V30 4286 H 410.452 -0.0831012 0.822814 0
M  V30 4287 H 412.998 0.587227 1.59216 0
M  V30 4288 H 411.77 1.03748 3.77296 0
M  V30 4289 H 411.393 -0.671317 3.91892 0
M  V30 4290 N 412.39 -1.55475 0.257931 0
M  V30 4291 C 413.353 -2.20551 -0.623706 0
M  V30 4292 C 414.353 -1.17809 -1.09443 0
M  V30 4293 O 415.543 -1.42823 -0.997362 0
M  V30 4294 C 412.675 -2.85784 -1.8585 0
M  V30 4295 H 413.868 -2.99848 -0.0557743 0
M  V30 4296 H 411.421 -1.56298 0.0084422 0
M  V30 4297 H 412.156 -2.10453 -2.46739 0
M  V30 4298 H 411.941 -3.61057 -1.52907 0
M  V30 4299 H 413.431 -3.35553 -2.48584 0
M  V30 4300 N 413.868 0.0150385 -1.57593 0
M  V30 4301 C 415.096 0.714395 -1.94175 0
M  V30 4302 C 415.511 1.68135 -0.858841 0
M  V30 4303 O 414.868 1.81766 0.163567 0
M  V30 4304 C 414.919 1.45933 -3.30735 0
M  V30 4305 O 414.64 0.531167 -4.34868 0
M  V30 4306 C 416.141 2.25456 -3.81686 0
M  V30 4307 H 413.361 0.199923 -0.640525 0
M  V30 4308 H 415.905 -0.0316096 -2.04476 0
M  V30 4309 H 414.06 2.15709 -3.21789 0
M  V30 4310 H 414.474 1.05509 -5.13778 0
M  V30 4311 H 415.948 2.731 -4.79709 0
M  V30 4312 H 416.425 3.07485 -3.13607 0
M  V30 4313 H 417.031 1.60727 -3.9376 0
M  V30 4314 N 415.346 1.54954 0.287554 0
M  V30 4315 C 416.276 1.89839 1.35954 0
M  V30 4316 C 417.257 0.758675 1.52244 0
M  V30 4317 O 418.442 1.01557 1.65529 0
M  V30 4318 C 415.572 2.15753 2.72154 0
M  V30 4319 C 414.526 3.3159 2.70614 0
M  V30 4320 C 413.852 3.42952 4.10229 0
M  V30 4321 C 415.152 4.68359 2.31165 0
M  V30 4322 H 416.846 2.79625 1.07007 0
M  V30 4323 H 414.392 1.3454 0.513316 0
M  V30 4324 H 416.345 2.38743 3.47246 0
M  V30 4325 H 415.069 1.22752 3.02654 0
M  V30 4326 H 413.728 3.08545 1.97979 0
M  V30 4327 H 413.376 2.47443 4.37928 0
M  V30 4328 H 413.076 4.20826 4.10097 0
M  V30 4329 H 414.6 3.68218 4.87081 0
M  V30 4330 H 416.014 4.9099 2.95976 0
M  V30 4331 H 414.411 5.49044 2.42221 0
M  V30 4332 H 415.481 4.68165 1.26291 0
M  V30 4333 N 416.824 -0.551391 1.4764 0
M  V30 4334 C 417.772 -1.67896 1.60978 0
M  V30 4335 C 418.766 -1.62549 0.476877 0
M  V30 4336 O 419.972 -1.67664 0.654878 0
M  V30 4337 H 416.347 -0.555649 0.506713 0
M  V30 4338 H 418.318 -1.53784 2.55721 0
M  V30 4339 C 417.067 -3.06234 1.64669 0
M  V30 4340 H 416.39 -3.11033 2.51194 0
M  V30 4341 H 417.83 -3.84804 1.7805 0
M  V30 4342 C 416.289 -3.34737 0.381115 0
M  V30 4343 O 416.819 -3.98381 -0.515297 0
M  V30 4344 N 415.025 -2.8944 0.259354 0
M  V30 4345 H 414.572 -2.37827 0.98976 0
M  V30 4346 H 414.53 -3.08882 -0.586464 0
M  V30 4347 N 418.302 -1.35869 -0.798587 0
M  V30 4348 C 419.232 -1.32118 -1.92528 0
M  V30 4349 C 420.213 -0.194209 -1.68988 0
M  V30 4350 O 421.398 -0.390426 -1.90235 0
M  V30 4351 C 418.528 -1.10047 -3.29404 0
M  V30 4352 C 417.482 -2.19471 -3.67446 0
M  V30 4353 C 416.808 -1.82555 -5.02571 0
M  V30 4354 C 418.108 -3.61495 -3.76987 0
M  V30 4355 H 419.802 -2.26394 -1.95924 0
M  V30 4356 H 417.348 -1.08981 -0.94123 0
M  V30 4357 H 419.301 -1.06061 -4.07835 0
M  V30 4358 H 418.025 -0.122195 -3.26371 0
M  V30 4359 H 416.684 -2.22568 -2.91306 0
M  V30 4360 H 416.332 -0.833249 -4.9605 0
M  V30 4361 H 416.032 -2.5581 -5.28995 0
M  V30 4362 H 417.556 -1.80108 -5.83432 0
M  V30 4363 H 418.97 -3.60676 -4.4563 0
M  V30 4364 H 417.367 -4.33577 -4.14887 0
M  V30 4365 H 418.437 -3.97065 -2.78329 0
M  V30 4366 N 419.78 1.02168 -1.19998 0
M  V30 4367 C 420.728 2.12717 -0.940967 0
M  V30 4368 C 421.722 1.69069 0.105841 0
M  V30 4369 O 422.928 1.79946 -0.0440583 0
M  V30 4370 H 419.303 0.695108 -0.28693 0
M  V30 4371 H 421.274 2.3175 -1.87975 0
M  V30 4372 C 420.023 3.44027 -0.504049 0
M  V30 4373 H 419.346 3.78036 -1.30112 0
M  V30 4374 H 420.786 4.22452 -0.361991 0
M  V30 4375 C 419.245 3.27678 0.782878 0
M  V30 4376 O 419.775 3.56949 1.84256 0
M  V30 4377 N 417.981 2.80943 0.742921 0
M  V30 4378 H 417.528 2.57322 -0.119687 0
M  V30 4379 H 417.486 2.70385 1.60435 0
M  V30 4380 N 421.258 1.00505 1.21394 0
M  V30 4381 C 422.221 0.570459 2.21987 0
M  V30 4382 C 423.221 -0.353211 1.56873 0
M  V30 4383 O 424.411 -0.14349 1.73608 0
M  V30 4384 C 421.543 -0.168555 3.40483 0
M  V30 4385 H 422.736 1.46021 2.6195 0
M  V30 4386 H 420.289 0.793565 1.34656 0
M  V30 4387 H 421.024 -1.07374 3.06009 0
M  V30 4388 H 420.809 0.494823 3.88965 0
M  V30 4389 H 422.299 -0.460362 4.15055 0
M  V30 4390 N 422.737 -1.36956 0.779787 0
M  V30 4391 C 423.986 -1.98738 0.344405 0
M  V30 4392 C 424.299 -1.62596 -1.08728 0
M  V30 4393 O 425.505 -2.1754 -1.62445 0
M  V30 4394 C 423.961 -3.5544 0.564829 0
M  V30 4395 C 423.569 -4.00514 2.0073 0
M  V30 4396 C 425.313 -4.24059 0.193471 0
M  V30 4397 C 423.22 -5.49957 2.17489 0
M  V30 4398 H 422.15 -0.743561 0.12503 0
M  V30 4399 H 424.801 -1.56381 0.960057 0
M  V30 4400 H 423.183 -3.95817 -0.120397 0
M  V30 4401 H 424.357 -3.71362 2.72814 0
M  V30 4402 H 422.672 -3.44703 2.336 0
M  V30 4403 H 425.269 -5.33874 0.297097 0
M  V30 4404 H 425.612 -4.07378 -0.857263 0
M  V30 4405 H 426.145 -3.89012 0.831556 0
M  V30 4406 H 422.884 -5.71574 3.2091 0
M  V30 4407 H 422.404 -5.80767 1.49899 0
M  V30 4408 H 424.083 -6.16043 1.97738 0
M  V30 4409 N 424.215 -0.530993 -1.48385 0
M  V30 4410 C 425.163 0.244595 -2.3131 0
M  V30 4411 C 426.157 0.93451 -1.41291 0
M  V30 4412 O 427.363 0.85878 -1.58193 0
M  V30 4413 H 423.738 0.0977472 -0.74562 0
M  V30 4414 H 425.709 -0.474369 -2.94605 0
M  V30 4415 C 424.458 1.2779 -3.23365 0
M  V30 4416 H 423.781 0.756439 -3.92579 0
M  V30 4417 H 425.221 1.79198 -3.84271 0
M  V30 4418 C 423.68 2.31205 -2.45042 0
M  V30 4419 O 424.21 3.37661 -2.17596 0
M  V30 4420 N 422.416 2.04446 -2.0652 0
M  V30 4421 H 421.963 1.17891 -2.2904 0
M  V30 4422 H 421.921 2.73861 -1.54427 0
M  V30 4423 N 425.693 1.55336 -0.266172 0
M  V30 4424 C 426.623 2.25146 0.618981 0
M  V30 4425 C 427.604 1.23845 1.16604 0
M  V30 4426 O 428.789 1.52544 1.20183 0
M  V30 4427 C 425.919 2.96572 1.80728 0
M  V30 4428 C 424.873 4.04726 1.39215 0
M  V30 4429 C 424.199 4.63678 2.66283 0
M  V30 4430 C 425.499 5.19407 0.548942 0
M  V30 4431 H 427.193 2.99377 0.0368116 0
M  V30 4432 H 424.739 1.43991 0.0162651 0
M  V30 4433 H 426.692 3.44116 2.43232 0
M  V30 4434 H 425.416 2.19861 2.41514 0
M  V30 4435 H 424.075 3.57979 0.790351 0
M  V30 4436 H 423.723 3.83646 3.25308 0
M  V30 4437 H 423.423 5.367 2.39222 0
M  V30 4438 H 424.947 5.13967 3.29651 0
M  V30 4439 H 426.361 5.63059 1.07876 0
M  V30 4440 H 424.758 5.98936 0.373593 0
M  V30 4441 H 425.828 4.8295 -0.434394 0
M  V30 4442 N 427.171 -0.0066808 1.57599 0
M  V30 4443 C 428.411 -0.697501 1.92131 0
M  V30 4444 C 428.775 -1.71306 0.867071 0
M  V30 4445 O 429.976 -2.45377 1.09743 0
M  V30 4446 C 428.247 -1.32978 3.3174 0
M  V30 4447 S 429.806 -2.04665 3.88146 0
M  V30 4448 H 426.624 -0.230555 0.672581 0
M  V30 4449 H 429.226 0.0484026 1.9544 0
M  V30 4450 H 427.93 -0.57772 4.06313 0
M  V30 4451 H 427.461 -2.11376 3.31789 0
M  V30 4452 H 429.476 -3.32097 3.68682 0
M  V30 4453 N 428.649 -1.55105 -0.279332 0
M  V30 4454 C 430.06 -1.66186 -0.850832 0
M  V30 4455 C 430.411 -0.584707 -1.87285 0
M  V30 4456 O 429.536 0.274919 -2.14647 0
M  V30 4457 C 430.131 -3.01264 -1.55001 0
M  V30 4458 C 428.69 -3.14394 -2.06963 0
M  V30 4459 C 427.837 -2.61959 -0.909536 0
M  V30 4460 H 430.788 -1.58602 -0.0558235 0
M  V30 4461 H 430.809 -2.93899 -2.41669 0
M  V30 4462 H 430.321 -3.7964 -0.805931 0
M  V30 4463 H 428.422 -2.4078 -2.84352 0
M  V30 4464 H 428.535 -4.20867 -2.28928 0
M  V30 4465 H 426.899 -2.18957 -1.30116 0
M  V30 4466 H 427.682 -3.42833 -0.179062 0
M  V30 4467 N 430.127 0.543554 -1.4793 0
M  V30 4468 C 431.057 1.65888 -1.64327 0
M  V30 4469 C 432.038 1.62818 -0.492383 0
M  V30 4470 O 433.223 1.80226 -0.723338 0
M  V30 4471 C 430.353 3.04506 -1.67013 0
M  V30 4472 C 429.307 3.2243 -2.81466 0
M  V30 4473 C 428.633 4.61972 -2.69233 0
M  V30 4474 C 429.933 3.06496 -4.22915 0
M  V30 4475 H 431.627 1.52421 -2.57698 0
M  V30 4476 H 429.173 0.731849 -1.24016 0
M  V30 4477 H 431.126 3.82391 -1.77074 0
M  V30 4478 H 429.85 3.18964 -0.70212 0
M  V30 4479 H 428.509 2.46957 -2.70938 0
M  V30 4480 H 428.157 4.73247 -1.7043 0
M  V30 4481 H 427.857 4.74911 -3.46025 0
M  V30 4482 H 429.381 5.41974 -2.81242 0
M  V30 4483 H 430.795 3.74186 -4.34348 0
M  V30 4484 H 429.192 3.30938 -5.006 0
M  V30 4485 H 430.262 2.03077 -4.40327 0
M  V30 4486 N 431.605 1.3629 0.791371 0
M  V30 4487 C 433.016 1.27225 1.36641 0
M  V30 4488 C 433.367 -0.0887968 1.95999 0
M  V30 4489 O 432.492 -0.990207 1.92416 0
M  V30 4490 C 433.087 2.30375 2.48421 0
M  V30 4491 C 431.646 2.25004 3.01746 0
M  V30 4492 C 430.793 2.15259 1.7481 0
M  V30 4493 H 433.744 1.47198 0.593173 0
M  V30 4494 H 433.765 1.93905 3.27385 0
M  V30 4495 H 433.277 3.29422 2.05189 0
M  V30 4496 H 431.378 1.29417 3.49403 0
M  V30 4497 H 431.491 3.1761 3.58693 0
M  V30 4498 H 429.855 1.61482 1.96966 0
M  V30 4499 H 430.638 3.16191 1.33709 0
M  V30 4500 N 433.083 -1.0153 1.20538 0
M  V30 4501 C 434.03 -2.10098 0.955383 0
M  V30 4502 C 435 -1.65702 -0.114878 0
M  V30 4503 O 436.185 -1.90776 0.0301118 0
M  V30 4504 C 433.325 -3.41236 0.514969 0
M  V30 4505 C 432.438 -3.99102 1.65353 0
M  V30 4506 C 431.573 -5.18306 1.16329 0
M  V30 4507 C 430.612 -5.68258 2.27485 0
M  V30 4508 N 429.749 -6.78722 1.7967 0
M  V30 4509 H 434.589 -2.30818 1.88486 0
M  V30 4510 H 432.126 -1.13189 0.939499 0
M  V30 4511 H 434.084 -4.16504 0.240935 0
M  V30 4512 H 432.714 -3.20585 -0.377512 0
M  V30 4513 H 431.766 -3.20918 2.04245 0
M  V30 4514 H 433.078 -4.32177 2.49047 0
M  V30 4515 H 432.232 -6.00782 0.845302 0
M  V30 4516 H 430.971 -4.86799 0.296254 0
M  V30 4517 H 429.976 -4.84385 2.60099 0
M  V30 4518 H 431.201 -6.01798 3.14667 0
M  V30 4519 H 429.147 -6.49042 0.95295 0
M  V30 4520 H 429.064 -7.10996 2.56944 0
M  V30 4521 H 430.332 -7.64759 1.50875 0
M  V30 4522 N 434.561 -1.01147 -1.20859 0
M  V30 4523 C 435.972 -0.730205 -1.71828 0
M  V30 4524 C 436.323 0.751662 -1.8123 0
M  V30 4525 O 435.448 1.58686 -1.47132 0
M  V30 4526 C 436.043 -1.31885 -3.12077 0
M  V30 4527 C 434.602 -1.08656 -3.60376 0
M  V30 4528 C 433.749 -1.42769 -2.37723 0
M  V30 4529 H 436.7 -1.18158 -1.05945 0
M  V30 4530 H 436.721 -0.706793 -3.73878 0
M  V30 4531 H 436.233 -2.39737 -3.05201 0
M  V30 4532 H 434.334 -0.0254814 -3.72591 0
M  V30 4533 H 434.447 -1.76301 -4.45483 0
M  V30 4534 H 432.811 -0.846603 -2.40218 0
M  V30 4535 H 433.594 -2.51666 -2.33493 0
M  V30 4536 N 436.039 1.36541 -0.78704 0
M  V30 4537 C 437.285 2.00044 -0.367938 0
M  V30 4538 C 437.64 1.61345 1.04812 0
M  V30 4539 O 436.933 0.856936 1.71368 0
M  V30 4540 C 437.127 3.54343 -0.466485 0
M  V30 4541 C 436.956 4.08029 -1.89058 0
M  V30 4542 C 435.726 4.38284 -2.51466 0
M  V30 4543 C 437.924 4.27954 -2.85236 0
M  V30 4544 N 435.906 4.77778 -3.85488 0
M  V30 4545 C 437.277 4.70227 -4.04088 0
M  V30 4546 C 439.332 4.10119 -2.82324 0
M  V30 4547 C 438.035 4.96532 -5.20432 0
M  V30 4548 C 440.061 4.37569 -3.97854 0
M  V30 4549 C 439.423 4.80095 -5.15449 0
M  V30 4550 H 435.522 0.760525 -0.182004 0
M  V30 4551 H 438.106 1.65589 -1.02413 0
M  V30 4552 H 436.277 3.88072 0.159606 0
M  V30 4553 H 438.009 4.04693 -0.0238577 0
M  V30 4554 H 434.764 4.27905 -2.02965 0
M  V30 4555 H 435.188 5.01813 -4.54437 0
M  V30 4556 H 439.83 3.76399 -1.92571 0
M  V30 4557 H 437.548 5.29134 -6.10773 0
M  V30 4558 H 441.134 4.25341 -3.96958 0
M  V30 4559 H 440.014 5.00925 -6.0336 0
M  V30 4560 N 437.518 0.538854 1.48102 0
M  V30 4561 C 438.465 -0.219042 2.29758 0
M  V30 4562 C 439.435 -0.925562 1.37922 0
M  V30 4563 O 440.62 -0.924855 1.66886 0
M  V30 4564 C 437.76 -1.25452 3.2149 0
M  V30 4565 C 436.873 -0.555943 4.28408 0
M  V30 4566 C 436.008 -1.57512 5.0731 0
M  V30 4567 C 435.047 -0.860498 6.06021 0
M  V30 4568 N 434.184 -1.82564 6.77949 0
M  V30 4569 H 439.024 0.483449 2.94052 0
M  V30 4570 H 436.561 0.250247 1.44956 0
M  V30 4571 H 438.519 -1.86727 3.7308 0
M  V30 4572 H 437.149 -1.92528 2.591 0
M  V30 4573 H 436.201 0.170938 3.80016 0
M  V30 4574 H 437.513 0.00474616 4.988 0
M  V30 4575 H 436.667 -2.26191 5.62959 0
M  V30 4576 H 435.406 -2.16972 4.36778 0
M  V30 4577 H 434.411 -0.159686 5.49568 0
M  V30 4578 H 435.636 -0.271897 6.78555 0
M  V30 4579 H 433.582 -2.40915 6.10161 0
M  V30 4580 H 433.499 -1.31662 7.44447 0
M  V30 4581 H 434.767 -2.50414 7.38182 0
M  V30 4582 N 438.996 -1.55193 0.274407 0
M  V30 4583 C 439.926 -2.25471 -0.607032 0
M  V30 4584 C 440.907 -1.24461 -1.15946 0
M  V30 4585 O 442.092 -1.53179 -1.19373 0
M  V30 4586 C 439.222 -2.97526 -1.79153 0
M  V30 4587 C 438.176 -4.05459 -1.37067 0
M  V30 4588 C 437.502 -4.65084 -2.6382 0
M  V30 4589 C 438.802 -5.19691 -0.521389 0
M  V30 4590 H 440.496 -2.99393 -0.0209343 0
M  V30 4591 H 438.042 -1.43997 -0.00862866 0
M  V30 4592 H 439.995 -3.45402 -2.41404 0
M  V30 4593 H 438.719 -2.21138 -2.40344 0
M  V30 4594 H 437.378 -3.58393 -0.771355 0
M  V30 4595 H 437.026 -3.85365 -3.23268 0
M  V30 4596 H 436.726 -5.37961 -2.36372 0
M  V30 4597 H 438.25 -5.15708 -3.26921 0
M  V30 4598 H 439.664 -5.63623 -1.04889 0
M  V30 4599 H 438.061 -5.99126 -0.341825 0
M  V30 4600 H 439.131 -4.82713 0.46 0
M  V30 4601 N 440.474 -0.00167713 -1.576 0
M  V30 4602 C 441.699 0.69739 -1.95323 0
M  V30 4603 C 442.124 1.6642 -0.876706 0
M  V30 4604 O 441.482 1.80548 0.165007 0
M  V30 4605 C 441.53 1.40403 -3.32144 0
M  V30 4606 O 440.634 2.5185 -3.26566 0
M  V30 4607 H 439.975 0.185373 -0.637599 0
M  V30 4608 H 442.505 -0.0553665 -2.04525 0
M  V30 4609 H 442.515 1.76707 -3.67748 0
M  V30 4610 H 441.19 0.695167 -4.10049 0
M  V30 4611 H 439.767 2.17861 -3.0264 0
M  V30 4612 N 441.952 1.55251 0.271103 0
M  V30 4613 C 443.199 1.75946 1.00245 0
M  V30 4614 C 443.527 0.561611 1.86215 0
M  V30 4615 O 442.782 -0.455832 1.90317 0
M  V30 4616 C 443.081 3.01879 1.91321 0
M  V30 4617 C 442.747 4.34337 1.21086 0
M  V30 4618 C 441.409 4.70338 1.01666 0
M  V30 4619 C 443.761 5.16325 0.71119 0
M  V30 4620 C 441.089 5.8588 0.310099 0
M  V30 4621 C 443.441 6.32597 0.0182157 0
M  V30 4622 C 442.105 6.67236 -0.18768 0
M  V30 4623 H 441.375 0.643833 0.366824 0
M  V30 4624 H 444.022 1.89521 0.27458 0
M  V30 4625 H 442.327 2.83212 2.70736 0
M  V30 4626 H 444.024 3.15088 2.48033 0
M  V30 4627 H 440.614 4.06043 1.37213 0
M  V30 4628 H 444.798 4.88987 0.848844 0
M  V30 4629 H 440.054 6.1124 0.139873 0
M  V30 4630 H 444.228 6.9538 -0.376711 0
M  V30 4631 H 441.855 7.56618 -0.73715 0
M  V30 4632 N 443.43 -0.535701 1.48216 0
M  V30 4633 C 444.655 -1.32149 1.59848 0
M  V30 4634 C 445.08 -1.86338 0.256842 0
M  V30 4635 O 444.438 -1.64107 -0.770632 0
M  V30 4636 C 444.486 -2.45224 2.64381 0
M  V30 4637 O 443.59 -3.48093 2.21144 0
M  V30 4638 H 442.931 -0.391634 0.536208 0
M  V30 4639 H 445.461 -0.645202 1.94161 0
M  V30 4640 H 445.471 -2.91491 2.85476 0
M  V30 4641 H 444.146 -2.05143 3.61786 0
M  V30 4642 H 442.723 -3.07984 2.10239 0
M  V30 4643 N 444.908 -1.36708 -0.784132 0
M  V30 4644 C 446.138 -1.34203 -1.57077 0
M  V30 4645 C 446.546 0.0774945 -1.89041 0
M  V30 4646 O 445.889 1.04628 -1.50992 0
M  V30 4647 C 445.951 -2.10351 -2.91535 0
M  V30 4648 C 445.615 -3.59405 -2.82272 0
M  V30 4649 C 446.612 -4.53545 -2.54151 0
M  V30 4650 C 444.297 -4.02362 -3.00683 0
M  V30 4651 C 446.291 -5.8862 -2.44551 0
M  V30 4652 C 443.978 -5.37526 -2.90704 0
M  V30 4653 C 444.976 -6.30468 -2.62677 0
M  V30 4654 O 444.664 -7.63149 -2.52702 0
M  V30 4655 H 444.396 -0.461791 -0.493685 0
M  V30 4656 H 446.95 -1.80475 -0.980712 0
M  V30 4657 H 445.18 -1.5875 -3.52612 0
M  V30 4658 H 446.869 -2.00636 -3.52845 0
M  V30 4659 H 447.635 -4.21669 -2.39625 0
M  V30 4660 H 443.514 -3.30389 -3.21503 0
M  V30 4661 H 447.058 -6.61133 -2.22596 0
M  V30 4662 H 442.955 -5.69008 -3.04795 0
M  V30 4663 H 443.723 -7.73331 -2.68144 0
M  V30 4664 N 446.386 1.0089 -1.21074 0
M  V30 4665 C 447.634 1.74262 -1.02358 0
M  V30 4666 C 447.955 1.89869 0.444393 0
M  V30 4667 O 447.225 1.44677 1.32081 0
M  V30 4668 H 445.805 0.645615 -0.375754 0
M  V30 4669 H 448.467 1.21596 -1.52317 0
M  V30 4670 H 447.563 2.74328 -1.4883 0
M  V30 4671 N 447.864 1.01787 1.20321 0
M  V30 4672 C 449.28 0.732951 1.41774 0
M  V30 4673 C 449.48 -0.686883 1.89431 0
M  V30 4674 O 448.536 -1.45446 2.06402 0
M  V30 4675 C 449.849 1.75973 2.43832 0
M  V30 4676 C 451.397 1.77802 2.57596 0
M  V30 4677 C 451.872 2.7941 3.62897 0
M  V30 4678 N 453.363 2.78157 3.70382 0
M  V30 4679 C 454.098 3.53434 4.51521 0
M  V30 4680 N 453.594 4.38392 5.36455 0
M  V30 4681 N 455.387 3.42026 4.46066 0
M  V30 4682 H 447.538 1.93447 0.877035 0
M  V30 4683 H 449.801 0.835712 0.447536 0
M  V30 4684 H 449.507 2.77699 2.15815 0
M  V30 4685 H 449.381 1.57292 3.4284 0
M  V30 4686 H 451.768 0.767602 2.84942 0
M  V30 4687 H 451.849 2.00557 1.58779 0
M  V30 4688 H 451.493 3.80616 3.36295 0
M  V30 4689 H 451.423 2.53916 4.61339 0
M  V30 4690 H 453.914 2.16531 3.09714 0
M  V30 4691 H 454.227 4.92596 5.95457 0
M  V30 4692 H 452.572 4.4247 5.35953 0
M  V30 4693 H 455.763 2.75075 3.78749 0
M  V30 4694 H 455.936 4.00946 5.09064 0
M  V30 4695 N 449.342 -1.36122 0.79427 0
M  V30 4696 C 450.305 -2.28309 0.201889 0
M  V30 4697 C 451.305 -1.49041 -0.603603 0
M  V30 4698 O 452.495 -1.68964 -0.423888 0
M  V30 4699 C 449.627 -3.3321 -0.719978 0
M  V30 4700 H 450.82 -2.82208 1.01481 0
M  V30 4701 H 448.373 -1.45768 0.564037 0
M  V30 4702 H 449.108 -2.84475 -1.55706 0
M  V30 4703 H 448.893 -3.91835 -0.144266 0
M  V30 4704 H 450.383 -4.02044 -1.12916 0
M  V30 4705 N 450.82 -0.546701 -1.47814 0
M  V30 4706 C 451.75 0.195317 -2.32682 0
M  V30 4707 C 452.731 0.918981 -1.43139 0
M  V30 4708 O 453.916 0.901501 -1.72008 0
M  V30 4709 C 451.046 1.23237 -3.247 0
M  V30 4710 C 450 0.625818 -4.234 0
M  V30 4711 C 449.326 1.76674 -5.04669 0
M  V30 4712 C 450.626 -0.413515 -5.2066 0
M  V30 4713 H 452.32 -0.513184 -2.94969 0
M  V30 4714 H 449.866 -0.248241 -1.41844 0
M  V30 4715 H 451.819 1.75955 -3.82907 0
M  V30 4716 H 450.543 1.97067 -2.60446 0
M  V30 4717 H 449.202 0.120023 -3.66403 0
M  V30 4718 H 448.85 2.49383 -4.36826 0
M  V30 4719 H 448.55 1.36673 -5.71484 0
M  V30 4720 H 450.074 2.29738 -5.65732 0
M  V30 4721 H 451.488 0.0272042 -5.73294 0
M  V30 4722 H 449.885 -0.731825 -5.95621 0
M  V30 4723 H 450.955 -1.31325 -4.66778 0
M  V30 4724 N 452.299 1.55045 -0.282633 0
M  V30 4725 C 453.231 2.2023 0.634924 0
M  V30 4726 C 454.244 1.18931 1.11172 0
M  V30 4727 O 455.433 1.4562 1.03233 0
M  V30 4728 C 452.533 2.82041 1.87899 0
M  V30 4729 C 451.706 4.091 1.54776 0
M  V30 4730 C 450.765 4.54887 2.64507 0
M  V30 4731 O 449.791 5.20496 2.30375 0
M  V30 4732 N 450.993 4.25659 3.94709 0
M  V30 4733 H 453.758 2.99601 0.0769811 0
M  V30 4734 H 451.319 1.61565 -0.104048 0
M  V30 4735 H 453.311 3.09613 2.60619 0
M  V30 4736 H 451.881 2.06618 2.3458 0
M  V30 4737 H 451.101 3.88736 0.654049 0
M  V30 4738 H 452.389 4.9187 1.30158 0
M  V30 4739 H 451.787 3.7306 4.25256 0
M  V30 4740 H 450.344 4.57984 4.63782 0
M  V30 4741 N 453.777 0.010035 1.57597 0
M  V30 4742 C 454.74 -0.963029 2.07986 0
M  V30 4743 C 455.74 -1.26619 0.991173 0
M  V30 4744 O 456.93 -1.2097 1.25347 0
M  V30 4745 C 454.062 -2.2851 2.52974 0
M  V30 4746 H 455.255 -0.526971 2.95234 0
M  V30 4747 H 452.808 -0.237639 1.54483 0
M  V30 4748 H 453.543 -2.76784 1.69 0
M  V30 4749 H 453.328 -2.07824 3.32493 0
M  V30 4750 H 454.818 -2.98294 2.9225 0
M  V30 4751 N 455.255 -1.55392 -0.262866 0
M  V30 4752 C 456.48 -1.80847 -1.01533 0
M  V30 4753 C 456.905 -0.584946 -1.78774 0
M  V30 4754 O 456.263 0.465701 -1.75217 0
M  V30 4755 C 456.311 -3.03866 -1.94159 0
M  V30 4756 O 455.415 -2.79662 -3.03089 0
M  V30 4757 H 454.756 -0.597441 -0.289759 0
M  V30 4758 H 457.286 -2.02553 -0.288698 0
M  V30 4759 H 457.296 -3.32872 -2.35924 0
M  V30 4760 H 455.971 -3.92564 -1.37354 0
M  V30 4761 H 454.548 -2.61781 -2.65566 0
M  V30 4762 N 456.733 0.527833 -1.48498 0
M  V30 4763 C 457.696 1.61439 -1.62696 0
M  V30 4764 C 458.696 1.52824 -0.500136 0
M  V30 4765 O 459.886 1.56456 -0.765976 0
M  V30 4766 C 457.018 3.01063 -1.59918 0
M  V30 4767 H 458.211 1.50189 -2.59583 0
M  V30 4768 H 455.764 0.750055 -1.37127 0
M  V30 4769 H 456.499 3.17818 -0.645163 0
M  V30 4770 H 456.284 3.08725 -2.41726 0
M  V30 4771 H 457.774 3.80057 -1.73051 0
M  V30 4772 N 458.211 1.37122 0.776871 0
M  V30 4773 C 459.141 1.35164 1.90402 0
M  V30 4774 C 460.122 0.221069 1.68657 0
M  V30 4775 O 461.307 0.420642 1.8959 0
M  V30 4776 C 458.437 1.15274 3.27611 0
M  V30 4777 C 457.391 2.25289 3.63908 0
M  V30 4778 C 456.717 1.90527 4.99603 0
M  V30 4779 C 458.017 3.67446 3.71188 0
M  V30 4780 H 459.711 2.29482 1.92297 0
M  V30 4781 H 457.257 1.10465 0.923773 0
M  V30 4782 H 459.21 1.12536 4.06096 0
M  V30 4783 H 457.934 0.174102 3.26136 0
M  V30 4784 H 456.593 2.27174 2.87728 0
M  V30 4785 H 456.241 0.91206 4.94662 0
M  V30 4786 H 455.941 2.64193 5.24858 0
M  V30 4787 H 457.465 1.89367 5.80493 0
M  V30 4788 H 458.879 3.67719 4.39836 0
M  V30 4789 H 457.276 4.40123 4.07936 0
M  V30 4790 H 458.346 4.01443 2.71977 0
M  V30 4791 N 459.689 -1.00246 1.21608 0
M  V30 4792 C 460.652 -2.07233 0.979133 0
M  V30 4793 C 461.652 -1.6072 -0.0508219 0
M  V30 4794 O 462.842 -1.73196 0.186712 0
M  V30 4795 C 459.974 -3.37546 0.477016 0
M  V30 4796 H 461.167 -2.29687 1.92831 0
M  V30 4797 H 458.72 -1.17261 1.03342 0
M  V30 4798 H 459.455 -3.20773 -0.476966 0
M  V30 4799 H 459.24 -3.72638 1.21997 0
M  V30 4800 H 460.73 -4.16285 0.331181 0
M  V30 4801 N 461.167 -1.02423 -1.1978 0
M  V30 4802 C 462.13 -0.605703 -2.21052 0
M  V30 4803 C 463.13 0.328209 -1.57415 0
M  V30 4804 O 464.32 0.115853 -1.73814 0
M  V30 4805 C 461.452 0.114366 -3.40708 0
M  V30 4806 H 462.645 -1.5017 -2.59594 0
M  V30 4807 H 460.198 -0.814888 -1.33376 0
M  V30 4808 H 460.933 1.02492 -3.07678 0
M  V30 4809 H 460.718 -0.556641 -3.88129 0
M  V30 4810 H 462.208 0.394272 -4.15735 0
M  V30 4811 N 462.645 1.35699 -0.801477 0
M  V30 4812 C 463.891 1.99643 -0.389135 0
M  V30 4813 C 464.246 1.62447 1.03095 0
M  V30 4814 O 463.539 0.875064 1.7045 0
M  V30 4815 C 463.733 3.53828 -0.504041 0
M  V30 4816 C 463.562 4.06 -1.93375 0
M  V30 4817 C 462.332 4.35592 -2.561 0
M  V30 4818 C 464.53 4.24905 -2.89759 0
M  V30 4819 N 462.512 4.73663 -3.90534 0
M  V30 4820 C 463.883 4.65914 -4.09052 0
M  V30 4821 C 465.938 4.07101 -2.86658 0
M  V30 4822 C 464.641 4.90984 -5.25669 0
M  V30 4823 C 466.667 4.33324 -4.02472 0
M  V30 4824 C 466.029 4.74601 -5.20512 0
M  V30 4825 H 462.128 0.758552 -0.19006 0
M  V30 4826 H 464.712 1.64493 -1.04164 0
M  V30 4827 H 462.883 3.88219 0.118437 0
M  V30 4828 H 464.615 4.04645 -0.0667794 0
M  V30 4829 H 461.37 4.25728 -2.07492 0
M  V30 4830 H 461.794 4.96965 -4.59734 0
M  V30 4831 H 466.436 3.74335 -1.96552 0
M  V30 4832 H 464.154 5.22626 -6.1635 0
M  V30 4833 H 467.74 4.21107 -4.01447 0
M  V30 4834 H 466.62 4.94497 -6.08639 0
M  V30 4835 N 464.123 0.554532 1.47522 0
M  V30 4836 C 465.371 0.0294208 2.02079 0
M  V30 4837 C 465.692 -1.32411 1.43151 0
M  V30 4838 O 464.962 -1.863 0.605728 0
M  V30 4839 H 463.542 0.00788672 0.746958 0
M  V30 4840 H 466.204 0.723934 1.80956 0
M  V30 4841 H 465.3 -0.0606745 3.12041 0
M  V30 4842 N 465.601 -1.54893 0.290851 0
M  V30 4843 C 466.849 -1.99538 -0.320756 0
M  V30 4844 C 467.17 -1.18075 -1.55188 0
M  V30 4845 O 466.44 -0.274162 -1.93972 0
M  V30 4846 H 465.02 -0.737052 -0.121507 0
M  V30 4847 H 467.682 -1.90755 0.399832 0
M  V30 4848 H 466.778 -3.06282 -0.599802 0
M  V30 4849 N 467.08 -0.0183926 -1.57589 0
M  V30 4850 C 468.027 0.967022 -2.09565 0
M  V30 4851 C 468.997 1.32983 -0.995225 0
M  V30 4852 O 470.182 1.42501 -1.26878 0
M  V30 4853 C 467.322 2.24772 -2.61861 0
M  V30 4854 C 466.435 1.94232 -3.85873 0
M  V30 4855 C 465.57 3.16518 -4.26603 0
M  V30 4856 C 464.609 2.81748 -5.43401 0
M  V30 4857 N 463.746 3.96626 -5.79338 0
M  V30 4858 H 468.586 0.516874 -2.93483 0
M  V30 4859 H 466.123 0.243544 -1.4507 0
M  V30 4860 H 468.081 2.99667 -2.90268 0
M  V30 4861 H 466.711 2.67423 -1.8079 0
M  V30 4862 H 465.763 1.09625 -3.64262 0
M  V30 4863 H 467.075 1.64616 -4.70853 0
M  V30 4864 H 466.229 3.99743 -4.56389 0
M  V30 4865 H 464.968 3.49286 -3.40368 0
M  V30 4866 H 463.973 1.96933 -5.1332 0
M  V30 4867 H 465.198 2.50207 -6.31327 0
M  V30 4868 H 463.144 4.29257 -4.96059 0
M  V30 4869 H 463.061 3.70598 -6.58933 0
M  V30 4870 H 464.329 4.80586 -6.13724 0
M  V30 4871 N 468.558 1.5553 0.254621 0
M  V30 4872 C 469.521 1.88872 1.29846 0
M  V30 4873 C 470.521 0.764591 1.41459 0
M  V30 4874 O 471.711 1.03265 1.40293 0
M  V30 4875 C 468.843 2.11032 2.67728 0
M  V30 4876 H 470.036 2.82201 1.01502 0
M  V30 4877 H 467.589 1.48303 0.493556 0
M  V30 4878 H 468.324 1.20146 3.01223 0
M  V30 4879 H 468.109 2.92895 2.60682 0
M  V30 4880 H 469.599 2.38038 3.43115 0
M  V30 4881 N 470.036 -0.519951 1.48776 0
M  V30 4882 C 470.999 -1.60574 1.6355 0
M  V30 4883 C 471.999 -1.52557 0.508234 0
M  V30 4884 O 473.189 -1.56047 0.774262 0
M  V30 4885 C 470.321 -3.00211 1.61512 0
M  V30 4886 H 471.514 -1.4881 2.60376 0
M  V30 4887 H 469.067 -0.742772 1.37523 0
M  V30 4888 H 469.802 -3.17471 0.662009 0
M  V30 4889 H 469.587 -3.07439 2.43359 0
M  V30 4890 H 471.077 -3.79134 1.75064 0
M  V30 4891 N 471.514 -1.37532 -0.769588 0
M  V30 4892 C 472.462 -1.33561 -1.90432 0
M  V30 4893 C 473.456 -0.224027 -1.67912 0
M  V30 4894 O 474.662 -0.392174 -1.75676 0
M  V30 4895 H 471.037 -0.416279 -0.626271 0
M  V30 4896 H 473.008 -2.29348 -1.90899 0
M  V30 4897 C 471.757 -1.16162 -3.27722 0
M  V30 4898 H 471.08 -2.00951 -3.45628 0
M  V30 4899 H 472.52 -1.17434 -4.07413 0
M  V30 4900 C 470.979 0.132583 -3.36639 0
M  V30 4901 O 471.509 1.11539 -3.85904 0
M  V30 4902 N 469.715 0.184013 -2.90017 0
M  V30 4903 H 469.262 -0.616415 -2.50116 0
M  V30 4904 H 469.22 1.04956 -2.96364 0
M  V30 4905 N 472.992 0.995999 -1.22138 0
M  V30 4906 C 473.939 2.08551 -0.988687 0
M  V30 4907 C 474.909 1.65864 0.0885021 0
M  V30 4908 O 476.094 1.90704 -0.0604589 0
M  V30 4909 C 473.234 3.40374 -0.569191 0
M  V30 4910 C 472.347 3.96421 -1.71681 0
M  V30 4911 C 471.482 5.1639 -1.2456 0
M  V30 4912 C 470.521 5.64567 -2.36497 0
M  V30 4913 N 469.658 6.75777 -1.90445 0
M  V30 4914 H 474.498 2.2779 -1.92135 0
M  V30 4915 H 472.035 1.1168 -0.957388 0
M  V30 4916 H 473.993 4.16068 -0.307166 0
M  V30 4917 H 472.623 3.21145 0.326462 0
M  V30 4918 H 471.675 3.17628 -2.09324 0
M  V30 4919 H 472.987 4.2816 -2.55891 0
M  V30 4920 H 472.141 5.99362 -0.940774 0
M  V30 4921 H 470.88 4.86266 -0.373662 0
M  V30 4922 H 469.885 4.80185 -2.67772 0
M  V30 4923 H 471.11 5.96716 -3.24202 0
M  V30 4924 H 469.056 6.47443 -1.05609 0
M  V30 4925 H 468.973 7.06818 -2.68223 0
M  V30 4926 H 470.241 7.62262 -1.63022 0
M  V30 4927 N 474.47 1.03057 1.19235 0
M  V30 4928 C 475.38 0.622922 2.26179 0
M  V30 4929 C 476.396 -0.346113 1.70523 0
M  V30 4930 O 477.572 -0.203572 2.00369 0
M  V30 4931 C 474.637 -0.0182063 3.46695 0
M  V30 4932 C 473.698 0.998546 4.17526 0
M  V30 4933 C 472.931 0.387917 5.32288 0
M  V30 4934 O 473.154 -0.808668 5.64639 0
M  V30 4935 O 472.088 1.1116 5.91546 0
M  V30 4936 H 475.914 1.51363 2.63292 0
M  V30 4937 H 473.499 0.800856 1.26122 0
M  V30 4938 H 475.381 -0.375606 4.19723 0
M  V30 4939 H 474.056 -0.882895 3.11427 0
M  V30 4940 H 472.963 1.40756 3.4661 0
M  V30 4941 H 474.296 1.83366 4.56769 0
M  V30 4942 N 475.948 -1.35272 0.808662 0
M  V30 4943 C 476.911 -2.28082 0.226093 0
M  V30 4944 C 477.911 -1.49673 -0.587762 0
M  V30 4945 O 479.101 -1.69404 -0.405943 0
M  V30 4946 C 476.233 -3.33955 -0.684596 0
M  V30 4947 H 477.426 -2.81116 1.04469 0
M  V30 4948 H 474.979 -1.45162 0.579466 0
M  V30 4949 H 475.714 -2.86111 -1.5268 0
M  V30 4950 H 475.499 -3.91965 -0.102699 0
M  V30 4951 H 476.989 -4.03219 -1.08646 0
M  V30 4952 N 477.426 -0.562348 -1.47226 0
M  V30 4953 C 478.654 -0.0452275 -2.06851 0
M  V30 4954 C 479.069 1.25078 -1.41424 0
M  V30 4955 O 478.426 1.75156 -0.512513 0
M  V30 4956 C 478.477 0.148674 -3.61194 0
M  V30 4957 O 478.198 -1.09602 -4.24169 0
M  V30 4958 C 479.699 0.702488 -4.37699 0
M  V30 4959 H 476.919 -0.0481775 -0.669268 0
M  V30 4960 H 479.463 -0.777223 -1.89155 0
M  V30 4961 H 477.618 0.830817 -3.78386 0
M  V30 4962 H 478.032 -0.896982 -5.16773 0
M  V30 4963 H 479.506 0.78743 -5.46355 0
M  V30 4964 H 479.983 1.71493 -4.04335 0
M  V30 4965 H 480.589 0.0558772 -4.25263 0
M  V30 4966 N 478.904 1.54736 -0.299062 0
M  V30 4967 C 479.836 2.20891 0.61153 0
M  V30 4968 C 480.849 1.20104 1.09904 0
M  V30 4969 O 482.038 1.46707 1.01683 0
M  V30 4970 C 479.138 2.84018 1.84897 0
M  V30 4971 C 478.311 4.10719 1.50428 0
M  V30 4972 C 477.37 4.57667 2.59667 0
M  V30 4973 O 476.396 5.2291 2.24842 0
M  V30 4974 N 477.598 4.29821 3.90172 0
M  V30 4975 H 480.363 2.99666 0.0452001 0
M  V30 4976 H 477.924 1.61446 -0.121178 0
M  V30 4977 H 479.916 3.1236 2.5732 0
M  V30 4978 H 478.486 2.09095 2.32375 0
M  V30 4979 H 477.706 3.89408 0.612781 0
M  V30 4980 H 478.994 4.93223 1.24934 0
M  V30 4981 H 478.392 3.77549 4.21276 0
M  V30 4982 H 476.949 4.62877 4.58899 0
M  V30 4983 N 480.382 0.0267497 1.57577 0
M  V30 4984 C 481.292 -0.971633 2.13533 0
M  V30 4985 C 482.308 -1.35868 1.08701 0
M  V30 4986 O 483.484 -1.44058 1.40746 0
M  V30 4987 C 480.549 -2.23622 2.64941 0
M  V30 4988 C 479.61 -1.90982 3.8448 0
M  V30 4989 C 478.843 -3.11411 4.33427 0
M  V30 4990 O 479.066 -4.23992 3.81558 0
M  V30 4991 O 478 -2.93848 5.25297 0
M  V30 4992 H 481.826 -0.525853 2.99113 0
M  V30 4993 H 479.411 -0.193712 1.48139 0
M  V30 4994 H 481.293 -2.97864 2.98086 0
M  V30 4995 H 479.968 -2.67386 1.82446 0
M  V30 4996 H 478.875 -1.14132 3.56265 0
M  V30 4997 H 480.208 -1.52036 4.6813 0
M  V30 4998 N 481.861 -1.55662 -0.24637 0
M  V30 4999 C 482.824 -1.89558 -1.28842 0
M  V30 5000 C 483.824 -0.772082 -1.41052 0
M  V30 5001 O 485.014 -1.04007 -1.39743 0
M  V30 5002 C 482.146 -2.12449 -2.66605 0
M  V30 5003 H 483.339 -2.82735 -1.00004 0
M  V30 5004 H 480.892 -1.48562 -0.485684 0
M  V30 5005 H 481.627 -1.21742 -3.00582 0
M  V30 5006 H 481.412 -2.94273 -2.59125 0
M  V30 5007 H 482.902 -2.39854 -3.41847 0
M  V30 5008 N 483.339 0.512053 -1.4905 0
M  V30 5009 C 484.586 1.26686 -1.57978 0
M  V30 5010 C 484.914 1.92733 -0.261553 0
M  V30 5011 O 484.169 1.80772 0.749667 0
M  V30 5012 C 484.468 2.36446 -2.68008 0
M  V30 5013 C 484.134 1.87932 -4.09869 0
M  V30 5014 C 482.796 1.74419 -4.48477 0
M  V30 5015 C 485.148 1.5149 -4.98698 0
M  V30 5016 C 482.476 1.22827 -5.73699 0
M  V30 5017 C 484.828 1.01355 -6.24428 0
M  V30 5018 C 483.492 0.864735 -6.61875 0
M  V30 5019 H 482.762 0.463577 -0.578081 0
M  V30 5020 H 485.409 0.569421 -1.82838 0
M  V30 5021 H 483.714 3.11933 -2.37076 0
M  V30 5022 H 485.411 2.9453 -2.72127 0
M  V30 5023 H 482.001 1.99405 -3.79389 0
M  V30 5024 H 486.185 1.60782 -4.69535 0
M  V30 5025 H 481.441 1.10008 -6.01422 0
M  V30 5026 H 485.615 0.722351 -6.92644 0
M  V30 5027 H 483.242 0.462777 -7.5879 0
M  V30 5028 N 484.817 1.37938 0.762283 0
M  V30 5029 C 485.75 1.2884 1.88349 0
M  V30 5030 C 486.728 0.167084 1.61739 0
M  V30 5031 O 487.912 0.34292 1.85355 0
M  V30 5032 C 485.039 0.994257 3.23778 0
M  V30 5033 C 484.085 2.13376 3.69287 0
M  V30 5034 S 484.918 3.75439 3.81845 0
M  V30 5035 C 486.074 3.48195 5.20107 0
M  V30 5036 H 486.307 2.23736 1.95779 0
M  V30 5037 H 483.84 1.23672 0.924368 0
M  V30 5038 H 485.798 0.83138 4.01993 0
M  V30 5039 H 484.459 0.0626251 3.14038 0
M  V30 5040 H 483.652 1.88319 4.67495 0
M  V30 5041 H 483.254 2.25726 2.98201 0
M  V30 5042 H 485.546 3.0377 6.05583 0
M  V30 5043 H 486.489 4.45765 5.50181 0
M  V30 5044 H 486.897 2.82905 4.88493 0
M  V30 5045 N 486.295 -0.989507 1.22664 0
M  V30 5046 C 487.242 -2.08024 0.999733 0
M  V30 5047 C 488.212 -1.65909 -0.0797047 0
M  V30 5048 O 489.397 -1.90669 0.0705715 0
M  V30 5049 C 486.537 -3.40067 0.587234 0
M  V30 5050 C 485.65 -3.95505 1.73781 0
M  V30 5051 C 484.785 -5.15722 1.27297 0
M  V30 5052 C 483.824 -5.63305 2.39488 0
M  V30 5053 N 482.961 -6.74758 1.94026 0
M  V30 5054 H 487.801 -2.26768 1.9334 0
M  V30 5055 H 485.338 -1.11171 0.963297 0
M  V30 5056 H 487.296 -4.15899 0.329227 0
M  V30 5057 H 485.926 -3.21314 -0.309426 0
M  V30 5058 H 484.978 -3.16513 2.11006 0
M  V30 5059 H 486.29 -4.26797 2.58158 0
M  V30 5060 H 485.444 -5.98854 0.972546 0
M  V30 5061 H 484.183 -4.86061 0.399445 0
M  V30 5062 H 483.188 -4.78759 2.70315 0
M  V30 5063 H 484.413 -5.94988 3.27362 0
M  V30 5064 H 482.359 -6.46874 1.09041 0
M  V30 5065 H 482.276 -7.05386 2.71968 0
M  V30 5066 H 483.544 -7.61387 1.67062 0
M  V30 5067 N 487.773 -1.03688 -1.18687 0
M  V30 5068 C 489.189 -0.755413 -1.4059 0
M  V30 5069 C 489.389 0.656659 -1.905 0
M  V30 5070 O 488.445 1.42144 -2.08689 0
M  V30 5071 C 489.758 -1.7983 -2.41001 0
M  V30 5072 C 491.306 -1.81877 -2.54735 0
M  V30 5073 C 491.781 -2.85148 -3.58406 0
M  V30 5074 N 493.272 -2.84015 -3.6591 0
M  V30 5075 C 494.007 -3.60573 -4.45841 0
M  V30 5076 N 493.503 -4.46871 -5.29413 0
M  V30 5077 N 495.296 -3.49079 -4.40568 0
M  V30 5078 H 487.447 -1.94818 -0.846148 0
M  V30 5079 H 489.71 -0.842727 -0.434184 0
M  V30 5080 H 489.416 -2.81097 -2.1137 0
M  V30 5081 H 489.29 -1.62727 -3.40294 0
M  V30 5082 H 491.677 -0.812836 -2.83685 0
M  V30 5083 H 491.758 -2.03057 -1.55568 0
M  V30 5084 H 491.402 -3.85918 -3.30197 0
M  V30 5085 H 491.332 -2.61224 -4.57241 0
M  V30 5086 H 493.823 -2.21431 -3.0623 0
M  V30 5087 H 494.136 -5.02007 -5.87545 0
M  V30 5088 H 492.481 -4.5094 -5.28846 0
M  V30 5089 H 495.672 -2.81066 -3.74325 0
M  V30 5090 H 495.845 -4.08994 -5.02621 0
M  V30 5091 N 489.251 1.34841 -0.815825 0
M  V30 5092 C 490.214 2.27959 -0.238185 0
M  V30 5093 C 491.214 1.49983 0.579816 0
M  V30 5094 O 492.404 1.69617 0.396953 0
M  V30 5095 C 489.536 3.34314 0.666876 0
M  V30 5096 H 490.729 2.80558 -1.05958 0
M  V30 5097 H 488.282 1.44852 -0.587156 0
M  V30 5098 H 489.017 2.86916 1.5116 0
M  V30 5099 H 488.802 3.92014 0.0819106 0
M  V30 5100 H 490.292 4.0379 1.06506 0
M  V30 5101 N 490.729 0.570148 1.46925 0
M  V30 5102 C 491.662 -0.218362 2.27153 0
M  V30 5103 C 492.64 -0.90847 1.34854 0
M  V30 5104 O 493.824 -0.924875 1.64251 0
M  V30 5105 C 490.951 -1.3122 3.12248 0
M  V30 5106 C 489.997 -0.729277 4.20219 0
M  V30 5107 S 490.83 0.434159 5.33737 0
M  V30 5108 C 491.986 -0.661188 6.22398 0
M  V30 5109 H 492.219 0.462393 2.93682 0
M  V30 5110 H 489.752 0.356753 1.50222 0
M  V30 5111 H 491.71 -1.93856 3.61842 0
M  V30 5112 H 490.371 -1.96485 2.45056 0
M  V30 5113 H 489.564 -1.5511 4.79538 0
M  V30 5114 H 489.166 -0.178836 3.73572 0
M  V30 5115 H 491.458 -1.55006 6.5953 0
M  V30 5116 H 492.401 -0.105046 7.08022 0
M  V30 5117 H 492.809 -0.959682 5.56283 0
M  V30 5118 N 492.207 -1.54576 0.307264 0
M  V30 5119 C 493.17 -2.22423 -0.553224 0
M  V30 5120 C 494.17 -1.21231 -1.05639 0
M  V30 5121 O 495.36 -1.45923 -0.951419 0
M  V30 5122 C 492.492 -2.91552 -1.76664 0
M  V30 5123 H 493.685 -2.99874 0.0396484 0
M  V30 5124 H 491.238 -1.56192 0.0581629 0
M  V30 5125 H 491.973 -2.18196 -2.39918 0
M  V30 5126 H 491.758 -3.65738 -1.41343 0
M  V30 5127 H 493.248 -3.43292 -2.37783 0
M  V30 5128 N 493.685 -0.035106 -1.57561 0
M  V30 5129 C 494.633 0.962707 -2.11742 0
M  V30 5130 C 495.627 1.33296 -1.0454 0
M  V30 5131 O 496.833 1.31449 -1.22968 0
M  V30 5132 H 493.208 0.32826 -0.676572 0
M  V30 5133 H 495.179 0.48048 -2.94506 0
M  V30 5134 C 493.928 2.23388 -2.66445 0
M  V30 5135 H 493.251 1.95774 -3.48587 0
M  V30 5136 H 494.691 2.91402 -3.07995 0
M  V30 5137 C 493.15 2.96769 -1.59467 0
M  V30 5138 O 493.68 3.89105 -0.998 0
M  V30 5139 N 491.886 2.59212 -1.31369 0
M  V30 5140 H 491.433 1.84202 -1.80076 0
M  V30 5141 H 491.391 3.08618 -0.600173 0
M  V30 5142 N 495.163 1.55791 0.238111 0
M  V30 5143 C 496.403 1.79801 0.972163 0
M  V30 5144 C 496.767 0.606027 1.82185 0
M  V30 5145 O 497.968 0.725079 2.58836 0
M  V30 5146 C 496.239 3.08608 1.80266 0
M  V30 5147 S 497.798 3.53872 2.59461 0
M  V30 5148 H 494.616 0.631418 0.326852 0
M  V30 5149 H 497.218 1.94031 0.239212 0
M  V30 5150 H 495.922 3.93419 1.1683 0
M  V30 5151 H 495.453 2.9714 2.57821 0
M  V30 5152 H 497.468 3.15899 3.82651 0
M  V30 5153 N 496.642 -0.504142 1.49319 0
M  V30 5154 C 497.574 -1.62265 1.61872 0
M  V30 5155 C 498.587 -1.54881 0.501573 0
M  V30 5156 O 499.776 -1.6087 0.773497 0
M  V30 5157 C 496.876 -3.01042 1.55651 0
M  V30 5158 C 496.049 -3.33642 2.82845 0
M  V30 5159 C 495.108 -4.51816 2.69719 0
M  V30 5160 O 494.134 -4.53755 3.4365 0
M  V30 5161 N 495.336 -5.51543 1.81055 0
M  V30 5162 H 498.101 -1.51924 2.58339 0
M  V30 5163 H 495.662 -0.691954 1.46368 0
M  V30 5164 H 497.654 -3.78013 1.44528 0
M  V30 5165 H 496.224 -3.05323 0.670546 0
M  V30 5166 H 495.444 -2.45598 3.08343 0
M  V30 5167 H 496.732 -3.5222 3.67177 0
M  V30 5168 H 496.13 -5.52774 1.20241 0
M  V30 5169 H 494.687 -6.27629 1.75856 0
M  V30 5170 N 498.12 -1.38341 -0.754957 0
M  V30 5171 C 499.083 -1.35262 -1.85032 0
M  V30 5172 C 500.083 -0.253393 -1.58791 0
M  V30 5173 O 501.273 -0.510205 -1.66561 0
M  V30 5174 C 498.405 -1.10544 -3.22479 0
M  V30 5175 H 499.598 -2.32712 -1.8917 0
M  V30 5176 H 497.151 -1.23614 -0.956515 0
M  V30 5177 H 497.886 -0.136952 -3.24011 0
M  V30 5178 H 497.671 -1.90127 -3.4292 0
M  V30 5179 H 499.161 -1.11082 -4.02555 0
M  V30 5180 N 499.598 0.982988 -1.23187 0
M  V30 5181 C 500.561 2.05649 -1.01198 0
M  V30 5182 C 501.561 1.6078 0.0252464 0
M  V30 5183 O 502.751 1.72878 -0.214243 0
M  V30 5184 C 499.883 3.36744 -0.530656 0
M  V30 5185 H 501.076 2.2659 -1.96461 0
M  V30 5186 H 498.629 1.15602 -1.05195 0
M  V30 5187 H 499.364 3.21492 0.425873 0
M  V30 5188 H 499.149 3.7065 -1.2791 0
M  V30 5189 H 500.639 4.15705 -0.397366 0
M  V30 5190 N 501.076 1.04316 1.18135 0
M  V30 5191 C 502.023 0.636398 2.21853 0
M  V30 5192 C 502.993 -0.357039 1.62217 0
M  V30 5193 O 504.178 -0.250453 1.89149 0
M  V30 5194 C 501.318 0.00812779 3.45099 0
M  V30 5195 C 500.431 1.04933 4.19062 0
M  V30 5196 C 499.566 0.389313 5.29771 0
M  V30 5197 C 498.605 1.41544 5.9551 0
M  V30 5198 N 497.742 0.78021 6.97751 0
M  V30 5199 H 502.582 1.52536 2.56002 0
M  V30 5200 H 500.119 0.76304 1.25762 0
M  V30 5201 H 502.077 -0.373497 4.15525 0
M  V30 5202 H 500.707 -0.844336 3.11562 0
M  V30 5203 H 499.759 1.54888 3.47439 0
M  V30 5204 H 501.071 1.82862 4.64072 0
M  V30 5205 H 500.225 -0.0463805 6.06682 0
M  V30 5206 H 498.964 -0.422038 4.8587 0
M  V30 5207 H 497.969 1.86124 5.17337 0
M  V30 5208 H 499.194 2.22854 6.41493 0
M  V30 5209 H 497.14 -0.0107899 6.55999 0
M  V30 5210 H 497.057 1.49716 7.41027 0
M  V30 5211 H 498.325 0.368996 7.78626 0
M  V30 5212 N 502.554 -1.34406 0.822964 0
M  V30 5213 C 503.802 -1.97892 0.410245 0
M  V30 5214 C 504.123 -1.65567 -1.03017 0
M  V30 5215 O 503.393 -0.94642 -1.71522 0
M  V30 5216 H 501.973 -0.732049 0.148707 0
M  V30 5217 H 504.635 -1.64043 1.05242 0
M  V30 5218 H 503.731 -3.07579 0.529284 0
M  V30 5219 N 504.032 -0.577932 -1.46621 0
M  V30 5220 C 504.964 0.195801 -2.28362 0
M  V30 5221 C 505.977 0.859983 -1.38232 0
M  V30 5222 O 507.166 0.730349 -1.62875 0
M  V30 5223 C 504.266 1.29639 -3.13124 0
M  V30 5224 C 503.439 0.725049 -4.31349 0
M  V30 5225 C 502.498 1.71274 -4.97546 0
M  V30 5226 O 501.524 1.25067 -5.5529 0
M  V30 5227 N 502.726 3.04672 -4.94121 0
M  V30 5228 H 505.491 -0.505468 -2.95407 0
M  V30 5229 H 503.052 -0.415381 -1.56481 0
M  V30 5230 H 505.044 1.95631 -3.54275 0
M  V30 5231 H 503.614 1.90059 -2.48186 0
M  V30 5232 H 502.834 -0.112205 -3.9404 0
M  V30 5233 H 504.122 0.323034 -5.07774 0
M  V30 5234 H 503.52 3.4484 -4.48444 0
M  V30 5235 H 502.077 3.66166 -5.39227 0
M  V30 5236 N 505.51 1.54411 -0.315457 0
M  V30 5237 C 506.74 2.04536 0.291315 0
M  V30 5238 C 507.148 1.19162 1.4696 0
M  V30 5239 O 506.491 0.213199 1.82459 0
M  V30 5240 C 506.553 3.5056 0.796725 0
M  V30 5241 C 506.217 4.5627 -0.258178 0
M  V30 5242 C 507.214 5.08312 -1.09153 0
M  V30 5243 C 504.899 5.00672 -0.404036 0
M  V30 5244 C 506.893 6.03312 -2.05655 0
M  V30 5245 C 504.58 5.95488 -1.37248 0
M  V30 5246 C 505.578 6.46693 -2.19721 0
M  V30 5247 O 505.266 7.39648 -3.14921 0
M  V30 5248 H 504.998 0.672856 0.0651165 0
M  V30 5249 H 507.552 2.00244 -0.457308 0
M  V30 5250 H 505.782 3.52223 1.59612 0
M  V30 5251 H 507.471 3.83804 1.32096 0
M  V30 5252 H 508.237 4.74793 -0.98979 0
M  V30 5253 H 504.116 4.60436 0.22799 0
M  V30 5254 H 507.66 6.43203 -2.70067 0
M  V30 5255 H 503.557 6.28424 -1.47489 0
M  V30 5256 H 504.325 7.57496 -3.10067 0
M  V30 5257 N 506.988 0.0434614 1.5754 0
M  V30 5258 C 508.234 -0.632971 1.92669 0
M  V30 5259 C 508.567 -1.70947 0.921446 0
M  V30 5260 O 507.842 -1.94426 -0.0537202 0
M  V30 5261 C 508.125 -1.23619 3.38216 0
M  V30 5262 C 507.978 -0.168274 4.49485 0
M  V30 5263 C 509.297 -2.15008 3.84005 0
M  V30 5264 H 506.416 -0.228629 0.700641 0
M  V30 5265 H 509.058 0.103651 1.89717 0
M  V30 5266 H 507.208 -1.864 3.40863 0
M  V30 5267 H 508.88 0.463196 4.58969 0
M  V30 5268 H 507.123 0.504581 4.30855 0
M  V30 5269 H 507.794 -0.630218 5.48391 0
M  V30 5270 H 510.27 -1.62198 3.83185 0
M  V30 5271 H 509.146 -2.54161 4.86511 0
M  V30 5272 H 509.407 -3.04707 3.20322 0
M  V30 5273 N 508.466 -1.55915 -0.229846 0
M  V30 5274 C 509.416 -1.8813 -1.28807 0
M  V30 5275 C 510.4 -0.743621 -1.42685 0
M  V30 5276 O 511.592 -1.00588 -1.4564 0
M  V30 5277 C 508.721 -2.19431 -2.64017 0
M  V30 5278 C 507.807 -3.39569 -2.54074 0
M  V30 5279 N 508.198 -4.58404 -2.13774 0
M  V30 5280 C 506.496 -3.43019 -2.85051 0
M  V30 5281 C 507.197 -5.40557 -2.1488 0
M  V30 5282 N 506.173 -4.80054 -2.55047 0
M  V30 5283 H 509.975 -2.77527 -0.967261 0
M  V30 5284 H 507.489 -1.5637 -0.438433 0
M  V30 5285 H 509.486 -2.40681 -3.40409 0
M  V30 5286 H 508.146 -1.31341 -2.9695 0
M  V30 5287 H 509.157 -4.83716 -1.8504 0
M  V30 5288 H 505.834 -2.65249 -3.22411 0
M  V30 5289 H 507.224 -6.45666 -1.85918 0
M  V30 5290 N 509.944 0.496216 -1.49584 0
M  V30 5291 C 511.172 1.27394 -1.63029 0
M  V30 5292 C 511.587 1.86344 -0.303569 0
M  V30 5293 O 510.944 1.68057 0.711547 0
M  V30 5294 C 510.995 2.40077 -2.70269 0
M  V30 5295 O 510.716 1.83549 -3.97796 0
M  V30 5296 C 512.217 3.31372 -2.94462 0
M  V30 5297 H 509.437 0.386211 -0.54871 0
M  V30 5298 H 511.981 0.595163 -1.95648 0
M  V30 5299 H 510.136 3.03775 -2.40415 0
M  V30 5300 H 510.55 2.57561 -4.56905 0
M  V30 5301 H 512.024 4.06707 -3.73221 0
M  V30 5302 H 512.501 3.88654 -2.0456 0
M  V30 5303 H 513.107 2.73435 -3.25751 0
M  V30 5304 N 511.423 1.38739 0.74761 0
M  V30 5305 C 512.671 1.35007 1.50391 0
M  V30 5306 C 512.992 -0.0574274 1.94915 0
M  V30 5307 O 512.262 -1.00628 1.6808 0
M  V30 5308 H 510.842 0.496784 0.557866 0
M  V30 5309 H 513.504 1.73479 0.888319 0
M  V30 5310 H 512.6 2.00474 2.392 0
M  V30 5311 N 512.901 -0.976442 1.23707 0
M  V30 5312 C 514.126 -1.75875 1.09922 0
M  V30 5313 C 514.551 -1.84911 -0.34489 0
M  V30 5314 O 513.909 -1.31363 -1.24954 0
M  V30 5315 C 513.957 -3.16179 1.73388 0
M  V30 5316 O 513.061 -4.00124 0.99871 0
M  V30 5317 H 512.402 -0.540954 0.385052 0
M  V30 5318 H 514.932 -1.22546 1.6384 0
M  V30 5319 H 514.942 -3.66741 1.78788 0
M  V30 5320 H 513.617 -3.08917 2.78466 0
M  V30 5321 H 512.194 -3.58624 1.02193 0
M  V30 5322 N 514.379 -1.04941 -1.1758 0
M  V30 5323 C 515.604 -0.778253 -1.92245 0
M  V30 5324 C 516.029 0.659707 -1.76152 0
M  V30 5325 O 515.387 1.45803 -1.07755 0
M  V30 5326 C 515.435 -1.16051 -3.41416 0
M  V30 5327 O 514.539 -0.291153 -4.11371 0
M  V30 5328 H 513.88 -0.285619 -0.599431 0
M  V30 5329 H 516.41 -1.40159 -1.49052 0
M  V30 5330 H 516.42 -1.12619 -3.92149 0
M  V30 5331 H 515.095 -2.208 -3.52449 0
M  V30 5332 H 513.672 -0.385851 -3.70898 0
M  V30 5333 N 515.857 1.33968 -0.830081 0
M  V30 5334 C 517.105 1.97672 -0.420734 0
M  V30 5335 C 517.426 1.66111 1.02138 0
M  V30 5336 O 516.696 0.955503 1.71017 0
M  V30 5337 H 515.276 0.73125 -0.152587 0
M  V30 5338 H 517.938 1.63483 -1.0611 0
M  V30 5339 H 517.034 3.07294 -0.545588 0
M  V30 5340 N 517.335 0.585699 1.46312 0
M  V30 5341 C 518.298 -0.135673 2.28798 0
M  V30 5342 C 519.298 -0.815988 1.38558 0
M  V30 5343 O 520.488 -0.667487 1.60904 0
M  V30 5344 C 517.62 -1.20163 3.1902 0
M  V30 5345 H 518.813 0.589257 2.94054 0
M  V30 5346 H 516.366 0.343794 1.52472 0
M  V30 5347 H 517.101 -1.95804 2.58517 0
M  V30 5348 H 516.886 -0.718282 3.85465 0
M  V30 5349 H 518.376 -1.70749 3.81096 0
M  V30 5350 N 518.813 -1.54241 0.323641 0
M  V30 5351 C 519.776 -2.22997 -0.529602 0
M  V30 5352 C 520.776 -1.22345 -1.04347 0
M  V30 5353 O 521.966 -1.46924 -0.935889 0
M  V30 5354 C 519.098 -2.93409 -1.73562 0
M  V30 5355 H 520.291 -2.99815 0.0714518 0
M  V30 5356 H 517.844 -1.56121 0.0747258 0
M  V30 5357 H 518.579 -2.20729 -2.37591 0
M  V30 5358 H 518.364 -3.67217 -1.37456 0
M  V30 5359 H 519.854 -3.45794 -2.34128 0
M  V30 5360 N 520.291 -0.0518155 -1.57515 0
M  V30 5361 C 521.516 0.634896 -1.97443 0
M  V30 5362 C 521.941 1.63546 -0.929207 0
M  V30 5363 O 521.299 1.80981 0.107484 0
M  V30 5364 C 521.347 1.29765 -3.36442 0
M  V30 5365 O 520.451 2.41333 -3.34413 0
M  V30 5366 H 519.792 0.164994 -0.643174 0
M  V30 5367 H 522.322 -0.120407 -2.04245 0
M  V30 5368 H 522.332 1.64918 -3.73184 0
M  V30 5369 H 521.007 0.564361 -4.12053 0
M  V30 5370 H 519.584 2.08122 -3.09418 0
M  V30 5371 N 521.769 1.56035 0.221574 0
M  V30 5372 C 522.997 1.8313 0.962864 0
M  V30 5373 C 523.412 0.630934 1.77946 0
M  V30 5374 O 522.769 -0.400519 1.78051 0
M  V30 5375 C 522.82 3.08742 1.88045 0
M  V30 5376 O 522.541 4.24147 1.09686 0
M  V30 5377 C 524.042 3.48824 2.73563 0
M  V30 5378 H 521.262 0.608775 0.282194 0
M  V30 5379 H 523.806 2.03124 0.23681 0
M  V30 5380 H 521.961 2.90723 2.56045 0
M  V30 5381 H 522.375 4.95505 1.71974 0
M  V30 5382 H 523.849 4.39752 3.3365 0
M  V30 5383 H 524.326 2.70575 3.45956 0
M  V30 5384 H 524.932 3.69282 2.10976 0
M  V30 5385 N 523.247 -0.488276 1.49845 0
M  V30 5386 C 524.179 -1.60539 1.63584 0
M  V30 5387 C 525.192 -1.5434 0.517972 0
M  V30 5388 O 526.381 -1.60041 0.790516 0
M  V30 5389 C 523.481 -2.99374 1.58835 0
M  V30 5390 C 522.654 -3.30624 2.86368 0
M  V30 5391 C 521.713 -4.4893 2.74496 0
M  V30 5392 O 520.739 -4.50085 3.48443 0
M  V30 5393 N 521.941 -5.49591 1.86894 0
M  V30 5394 H 524.706 -1.49176 2.59936 0
M  V30 5395 H 522.267 -0.67639 1.47094 0
M  V30 5396 H 524.259 -3.76459 1.48529 0
M  V30 5397 H 522.829 -3.04595 0.702892 0
M  V30 5398 H 522.049 -2.42314 3.1093 0
M  V30 5399 H 523.337 -3.48305 3.70892 0
M  V30 5400 H 522.735 -5.51467 1.26097 0
M  V30 5401 H 521.292 -6.25728 1.82503 0
M  V30 5402 N 524.725 -1.39134 -0.740242 0
M  V30 5403 C 525.95 -1.39518 -1.53459 0
M  V30 5404 C 526.375 0.00968883 -1.88098 0
M  V30 5405 O 525.733 0.995312 -1.51536 0
M  V30 5406 C 525.781 -2.26981 -2.802 0
M  V30 5407 O 524.885 -1.69609 -3.75908 0
M  V30 5408 H 524.226 -0.475328 -0.463637 0
M  V30 5409 H 526.756 -1.83064 -0.913717 0
M  V30 5410 H 526.766 -2.41309 -3.28989 0
M  V30 5411 H 525.441 -3.29081 -2.5432 0
M  V30 5412 H 524.018 -1.64495 -3.34658 0
M  V30 5413 N 526.204 0.969867 -1.24223 0
M  V30 5414 C 527.134 2.08191 -1.05729 0
M  V30 5415 C 528.115 1.70075 0.0290765 0
M  V30 5416 O 529.3 1.93712 -0.137583 0
M  V30 5417 C 526.43 3.40991 -0.658995 0
M  V30 5418 C 525.384 3.93054 -1.69389 0
M  V30 5419 C 524.71 5.22171 -1.15072 0
M  V30 5420 C 526.01 4.21137 -3.08935 0
M  V30 5421 H 527.704 2.23921 -1.98746 0
M  V30 5422 H 525.25 1.07602 -0.956967 0
M  V30 5423 H 527.203 4.18221 -0.51662 0
M  V30 5424 H 525.927 3.25155 0.30686 0
M  V30 5425 H 524.586 3.17977 -1.82444 0
M  V30 5426 H 524.234 5.02694 -0.175539 0
M  V30 5427 H 523.934 5.57973 -1.84229 0
M  V30 5428 H 525.458 6.02013 -1.02042 0
M  V30 5429 H 526.872 4.8908 -2.99121 0
M  V30 5430 H 525.269 4.68163 -3.75425 0
M  V30 5431 H 526.339 3.27996 -3.57137 0
M  V30 5432 N 527.682 1.05563 1.17022 0
M  V30 5433 C 528.929 0.767937 1.87374 0
M  V30 5434 C 529.257 -0.705224 1.81265 0
M  V30 5435 O 528.512 -1.5318 1.21796 0
M  V30 5436 C 528.811 1.19849 3.36706 0
M  V30 5437 C 528.477 2.6745 3.63017 0
M  V30 5438 C 527.139 3.0777 3.69907 0
M  V30 5439 C 529.491 3.62811 3.74189 0
M  V30 5440 C 526.819 4.42307 3.85463 0
M  V30 5441 C 529.171 4.97087 3.91264 0
M  V30 5442 C 527.835 5.37055 3.96394 0
M  V30 5443 H 527.105 0.281008 0.68565 0
M  V30 5444 H 529.752 1.32339 1.38415 0
M  V30 5445 H 528.057 0.562096 3.87747 0
M  V30 5446 H 529.754 0.953038 3.8951 0
M  V30 5447 H 526.344 2.35228 3.58282 0
M  V30 5448 H 530.528 3.32798 3.68183 0
M  V30 5449 H 525.784 4.72769 3.87684 0
M  V30 5450 H 529.958 5.70869 3.9885 0
M  V30 5451 H 527.585 6.41308 4.082 0
M  V30 5452 N 529.16 -1.33526 0.837174 0
M  V30 5453 C 530.388 -2.02047 0.445494 0
M  V30 5454 C 530.803 -1.62995 -0.952788 0
M  V30 5455 O 530.16 -0.842447 -1.61892 0
M  V30 5456 C 530.211 -3.57221 0.554577 0
M  V30 5457 O 529.932 -3.94863 1.89776 0
M  V30 5458 C 531.433 -4.43012 0.159634 0
M  V30 5459 H 528.653 -0.647221 0.177048 0
M  V30 5460 H 531.197 -1.70492 1.12928 0
M  V30 5461 H 529.352 -3.87315 -0.0812781 0
M  V30 5462 H 529.766 -4.89569 1.88208 0
M  V30 5463 H 531.24 -5.51253 0.28701 0
M  V30 5464 H 531.717 -4.29916 -0.898289 0
M  V30 5465 H 532.323 -4.18274 0.769855 0
M  V30 5466 N 530.638 -0.59345 -1.46 0
M  V30 5467 C 531.601 0.123538 -2.28867 0
M  V30 5468 C 532.601 0.808628 -1.38989 0
M  V30 5469 O 533.791 0.658945 -1.61256 0
M  V30 5470 C 530.923 1.1847 -3.19653 0
M  V30 5471 H 532.116 -0.604843 -2.93737 0
M  V30 5472 H 529.669 -0.351875 -1.52288 0
M  V30 5473 H 530.404 1.94431 -2.59552 0
M  V30 5474 H 530.189 0.69783 -3.8584 0
M  V30 5475 H 531.679 1.68726 -3.81997 0
M  V30 5476 N 532.116 1.54067 -0.331816 0
M  V30 5477 C 533.356 2.02625 0.26876 0
M  V30 5478 C 533.72 1.21462 1.48697 0
M  V30 5479 O 534.921 1.59863 2.16096 0
M  V30 5480 C 533.192 3.52554 0.586577 0
M  V30 5481 S 534.751 4.23035 1.16563 0
M  V30 5482 H 531.569 0.706395 0.0807862 0
M  V30 5483 H 534.171 1.89844 -0.466856 0
M  V30 5484 H 532.875 4.09242 -0.308046 0
M  V30 5485 H 532.406 3.69432 1.35217 0
M  V30 5486 H 534.421 4.31382 2.45203 0
M  V30 5487 N 533.594 0.0601682 1.57485 0
M  V30 5488 C 534.824 -0.620037 1.97076 0
M  V30 5489 C 535.232 -1.64381 0.936784 0
M  V30 5490 O 534.575 -1.83497 -0.0863377 0
M  V30 5491 C 534.637 -1.35617 3.32939 0
M  V30 5492 C 534.301 -0.487208 4.54396 0
M  V30 5493 C 535.298 0.250428 5.19297 0
M  V30 5494 C 532.983 -0.415494 5.00579 0
M  V30 5495 C 534.977 1.04812 6.28723 0
M  V30 5496 C 532.664 0.385879 6.0988 0
M  V30 5497 C 533.662 1.11637 6.73815 0
M  V30 5498 O 533.35 1.90454 7.81014 0
M  V30 5499 H 533.082 -0.173664 0.653312 0
M  V30 5500 H 535.636 0.1256 2.05016 0
M  V30 5501 H 533.866 -2.14763 3.2158 0
M  V30 5502 H 535.555 -1.92749 3.57215 0
M  V30 5503 H 536.321 0.204546 4.84568 0
M  V30 5504 H 532.2 -0.973679 4.506 0
M  V30 5505 H 535.744 1.6188 6.78558 0
M  V30 5506 H 531.641 0.433366 6.44044 0
M  V30 5507 H 532.409 1.82762 7.97835 0
M  V30 5508 N 535.072 -1.5615 -0.213296 0
M  V30 5509 C 536.3 -1.83638 -0.953139 0
M  V30 5510 C 536.715 -0.640362 -1.77609 0
M  V30 5511 O 536.072 0.391071 -1.78261 0
M  V30 5512 C 536.123 -3.09735 -1.86405 0
M  V30 5513 O 535.844 -4.24723 -1.07435 0
M  V30 5514 C 537.345 -3.5027 -2.71709 0
M  V30 5515 H 534.565 -0.610263 -0.278962 0
M  V30 5516 H 537.109 -2.03247 -0.226035 0
M  V30 5517 H 535.264 -2.92077 -2.545 0
M  V30 5518 H 535.678 -4.9641 -1.69343 0
M  V30 5519 H 537.152 -4.41515 -3.31313 0
M  V30 5520 H 537.629 -2.72406 -3.44516 0
M  V30 5521 H 538.235 -3.70396 -2.09015 0
M  V30 5522 N 536.55 0.480323 -1.50102 0
M  V30 5523 C 537.78 1.25475 -1.64133 0
M  V30 5524 C 538.188 1.8647 -0.320272 0
M  V30 5525 O 537.531 1.69561 0.70673 0
M  V30 5526 C 537.593 2.40996 -2.6676 0
M  V30 5527 C 537.257 2.00711 -4.10565 0
M  V30 5528 C 538.254 1.53492 -4.96725 0
M  V30 5529 C 535.939 2.09714 -4.56427 0
M  V30 5530 C 537.933 1.15806 -6.26792 0
M  V30 5531 C 535.62 1.7164 -5.86501 0
M  V30 5532 C 536.618 1.24763 -6.71508 0
M  V30 5533 O 536.306 0.872122 -7.99155 0
M  V30 5534 H 536.038 0.385983 -0.554971 0
M  V30 5535 H 538.592 0.580848 -1.97016 0
M  V30 5536 H 536.822 3.11528 -2.291 0
M  V30 5537 H 538.511 3.02981 -2.70106 0
M  V30 5538 H 539.277 1.45966 -4.62514 0
M  V30 5539 H 535.156 2.4515 -3.90413 0
M  V30 5540 H 538.7 0.791465 -6.93096 0
M  V30 5541 H 534.597 1.78822 -6.20236 0
M  V30 5542 H 535.365 1.00178 -8.12346 0
M  V30 5543 O 538.067 1.48883 0.625791 0
M  V30 5544 H 538.758 1.45381 1.28 0
M  V30 END ATOM
M  V30 BEGIN BOND
M  V30 END BOND
M  V30 END CTAB
M  END
$$$$
