drugbank_target|Q3MS49 Reverse transcriptase (DB09299; DB14126)
 OpenBabel12092121193D

670677  0  0  0  0  0  0  0  0999 V2000
   -0.9080    1.9825   -0.1171 H   0  0  0  0  0 15  0  0  0  0  0  0
    0.0000    1.5760    0.0000 N   0  0  0  0  0 15  0  0  0  0  0  0
    0.9330    2.0387    1.0253 C   0  0  0  0  0 15  0  0  0  0  0  0
    1.9110    0.9285    1.3348 C   0  0  0  0  0 15  0  0  0  0  0  0
    3.0950    1.1967    1.4564 O   0  0  0  0  0 15  0  0  0  0  0  0
    0.2220    2.4363    2.3529 C   0  0  0  0  0 15  0  0  0  0  0  0
   -0.7320    3.6537    2.2001 C   0  0  0  0  0 15  0  0  0  0  0  0
    0.1010    5.1329    1.5261 S   0  0  0  0  0 15  0  0  0  0  0  0
    1.2570    5.5632    2.8680 C   0  0  0  0  0 15  0  0  0  0  0  0
    1.4900    2.9052    0.6314 H   0  0  0  0  0 15  0  0  0  0  0  0
   -0.9770    1.5295    0.2109 H   0  0  0  0  0 15  0  0  0  0  0  0
    0.9810    2.6720    3.1163 H   0  0  0  0  0 15  0  0  0  0  0  0
   -0.3580    1.5738    2.7183 H   0  0  0  0  0 15  0  0  0  0  0  0
   -1.1650    3.9094    3.1809 H   0  0  0  0  0 15  0  0  0  0  0  0
   -1.5630    3.4180    1.5182 H   0  0  0  0  0 15  0  0  0  0  0  0
    0.7290    5.5878    3.8310 H   0  0  0  0  0 15  0  0  0  0  0  0
    1.6720    6.5627    2.6593 H   0  0  0  0  0 15  0  0  0  0  0  0
    2.0800    4.8389    2.9071 H   0  0  0  0  0 15  0  0  0  0  0  0
    1.4781   -0.2728    1.5522 N   0  0  0  0  0 15  0  0  0  0  0  0
    2.7261   -1.0023    1.7549 C   0  0  0  0  0 15  0  0  0  0  0  0
    3.0471   -1.8681    0.5592 C   0  0  0  0  0 15  0  0  0  0  0  0
    2.3171   -1.9121   -0.4259 O   0  0  0  0  0 15  0  0  0  0  0  0
    0.8971   -0.3731    0.6472 H   0  0  0  0  0 15  0  0  0  0  0  0
    3.5591   -0.2969    1.9262 H   0  0  0  0  0 15  0  0  0  0  0  0
    2.6551   -1.6391    2.6559 H   0  0  0  0  0 15  0  0  0  0  0  0
    2.9562   -1.4816   -0.5373 N   0  0  0  0  0 15  0  0  0  0  0  0
    4.2022   -1.5604   -1.2954 C   0  0  0  0  0 15  0  0  0  0  0  0
    4.5352   -0.2304   -1.9283 C   0  0  0  0  0 15  0  0  0  0  0  0
    3.8102    0.7630   -1.7891 O   0  0  0  0  0 15  0  0  0  0  0  0
    4.0932   -2.6932   -2.3903 C   0  0  0  0  0 15  0  0  0  0  0  0
    3.9462   -4.1200   -1.8048 C   0  0  0  0  0 15  0  0  0  0  0  0
    5.2652   -2.7841   -3.4085 C   0  0  0  0  0 15  0  0  0  0  0  0
    2.3842   -0.5680   -0.4696 H   0  0  0  0  0 15  0  0  0  0  0  0
    5.0262   -1.8030   -0.5993 H   0  0  0  0  0 15  0  0  0  0  0  0
    3.1762   -2.4876   -2.9841 H   0  0  0  0  0 15  0  0  0  0  0  0
    4.8482   -4.4398   -1.2521 H   0  0  0  0  0 15  0  0  0  0  0  0
    3.0912   -4.1934   -1.1106 H   0  0  0  0  0 15  0  0  0  0  0  0
    3.7622   -4.8708   -2.5973 H   0  0  0  0  0 15  0  0  0  0  0  0
    6.2382   -2.9701   -2.9142 H   0  0  0  0  0 15  0  0  0  0  0  0
    5.1142   -3.5942   -4.1486 H   0  0  0  0  0 15  0  0  0  0  0  0
    5.3752   -1.8627   -4.0094 H   0  0  0  0  0 15  0  0  0  0  0  0
    4.4343    0.7856   -1.3662 N   0  0  0  0  0 15  0  0  0  0  0  0
    5.6823    1.5406   -1.3081 C   0  0  0  0  0 15  0  0  0  0  0  0
    6.0033    1.9468    0.1112 C   0  0  0  0  0 15  0  0  0  0  0  0
    5.2733    1.6524    1.0522 O   0  0  0  0  0 15  0  0  0  0  0  0
    3.8533    0.5714   -0.4812 H   0  0  0  0  0 15  0  0  0  0  0  0
    6.5153    0.9358   -1.7096 H   0  0  0  0  0 15  0  0  0  0  0  0
    5.6113    2.4464   -1.9380 H   0  0  0  0  0 15  0  0  0  0  0  0
    5.9124    1.2097    1.0102 N   0  0  0  0  0 15  0  0  0  0  0  0
    6.8424    0.9883    2.1155 C   0  0  0  0  0 15  0  0  0  0  0  0
    7.8234   -0.0850    1.6989 C   0  0  0  0  0 15  0  0  0  0  0  0
    9.0084    0.0738    1.9406 O   0  0  0  0  0 15  0  0  0  0  0  0
    6.1384    0.5465    3.4297 C   0  0  0  0  0 15  0  0  0  0  0  0
    5.0924    1.5637    3.9841 C   0  0  0  0  0 15  0  0  0  0  0  0
    4.4184    0.9784    5.2567 C   0  0  0  0  0 15  0  0  0  0  0  0
    5.7184    2.9492    4.3107 C   0  0  0  0  0 15  0  0  0  0  0  0
    7.4124    1.9128    2.3033 H   0  0  0  0  0 15  0  0  0  0  0  0
    4.9584    0.9211    1.1069 H   0  0  0  0  0 15  0  0  0  0  0  0
    6.9114    0.3788    4.1969 H   0  0  0  0  0 15  0  0  0  0  0  0
    5.6354   -0.4136    3.2397 H   0  0  0  0  0 15  0  0  0  0  0  0
    4.2944    1.7189    3.2380 H   0  0  0  0  0 15  0  0  0  0  0  0
    3.9424    0.0102    5.0300 H   0  0  0  0  0 15  0  0  0  0  0  0
    3.6424    1.6578    5.6373 H   0  0  0  0  0 15  0  0  0  0  0  0
    5.1664    0.8219    6.0504 H   0  0  0  0  0 15  0  0  0  0  0  0
    6.5804    2.8288    4.9865 H   0  0  0  0  0 15  0  0  0  0  0  0
    4.9774    3.5983    4.8025 H   0  0  0  0  0 15  0  0  0  0  0  0
    6.0474    3.4616    3.3956 H   0  0  0  0  0 15  0  0  0  0  0  0
    7.3905   -1.2043    1.0166 N   0  0  0  0  0 15  0  0  0  0  0  0
    8.6155   -1.9432    0.7249 C   0  0  0  0  0 15  0  0  0  0  0  0
    9.0405   -1.7427   -0.7080 C   0  0  0  0  0 15  0  0  0  0  0  0
    8.3985   -1.0369   -1.4872 O   0  0  0  0  0 15  0  0  0  0  0  0
    8.4465   -3.4449    1.0659 C   0  0  0  0  0 15  0  0  0  0  0  0
    7.5505   -4.1202    0.1776 O   0  0  0  0  0 15  0  0  0  0  0  0
    6.8915   -0.6071    0.2690 H   0  0  0  0  0 15  0  0  0  0  0  0
    9.4215   -1.5286    1.3600 H   0  0  0  0  0 15  0  0  0  0  0  0
    9.4315   -3.9511    1.0176 H   0  0  0  0  0 15  0  0  0  0  0  0
    8.1065   -3.5840    2.1100 H   0  0  0  0  0 15  0  0  0  0  0  0
    6.6835   -3.7182    0.2834 H   0  0  0  0  0 15  0  0  0  0  0  0
    8.8686   -0.7928   -1.3621 N   0  0  0  0  0 15  0  0  0  0  0  0
   10.2796   -0.4295   -1.8169 C   0  0  0  0  0 15  0  0  0  0  0  0
   10.6306    1.0469   -1.6593 C   0  0  0  0  0 15  0  0  0  0  0  0
    9.7556    1.8126   -1.1822 O   0  0  0  0  0 15  0  0  0  0  0  0
   10.3506   -0.7728   -3.2987 C   0  0  0  0  0 15  0  0  0  0  0  0
    8.9096   -0.4623   -3.7355 C   0  0  0  0  0 15  0  0  0  0  0  0
    8.0566   -1.0057   -2.5842 C   0  0  0  0  0 15  0  0  0  0  0  0
   11.0076   -0.9857   -1.2438 H   0  0  0  0  0 15  0  0  0  0  0  0
   11.0286   -0.0652   -3.8044 H   0  0  0  0  0 15  0  0  0  0  0  0
   10.5406   -1.8475   -3.4131 H   0  0  0  0  0 15  0  0  0  0  0  0
    8.6416    0.6042   -3.6767 H   0  0  0  0  0 15  0  0  0  0  0  0
    8.7546   -0.9853   -4.6886 H   0  0  0  0  0 15  0  0  0  0  0  0
    7.1186   -0.4287   -2.5107 H   0  0  0  0  0 15  0  0  0  0  0  0
    7.9016   -2.0862   -2.7264 H   0  0  0  0  0 15  0  0  0  0  0  0
   10.3467    1.4787   -0.5451 N   0  0  0  0  0 15  0  0  0  0  0  0
   11.5937    2.0249   -0.0166 C   0  0  0  0  0 15  0  0  0  0  0  0
   11.9217    1.4207    1.3284 C   0  0  0  0  0 15  0  0  0  0  0  0
   11.1767    0.5615    1.8747 O   0  0  0  0  0 15  0  0  0  0  0  0
   11.4757    3.5713    0.1387 C   0  0  0  0  0 15  0  0  0  0  0  0
   11.1417    4.3641   -1.1338 C   0  0  0  0  0 15  0  0  0  0  0  0
    9.8037    4.5779   -1.4826 C   0  0  0  0  0 15  0  0  0  0  0  0
   12.1557    4.8222   -1.9776 C   0  0  0  0  0 15  0  0  0  0  0  0
    9.4837    5.2223   -2.6738 C   0  0  0  0  0 15  0  0  0  0  0  0
   11.8357    5.4798   -3.1608 C   0  0  0  0  0 15  0  0  0  0  0  0
   10.4997    5.6759   -3.5128 C   0  0  0  0  0 15  0  0  0  0  0  0
    9.7697    0.7410   -0.0061 H   0  0  0  0  0 15  0  0  0  0  0  0
   12.4167    1.7768   -0.7142 H   0  0  0  0  0 15  0  0  0  0  0  0
   10.7217    3.8087    0.9192 H   0  0  0  0  0 15  0  0  0  0  0  0
   12.4187    3.9703    0.5628 H   0  0  0  0  0 15  0  0  0  0  0  0
    9.0087    4.2004   -0.8523 H   0  0  0  0  0 15  0  0  0  0  0  0
   13.1927    4.6549   -1.7213 H   0  0  0  0  0 15  0  0  0  0  0  0
    8.4487    5.3562   -2.9483 H   0  0  0  0  0 15  0  0  0  0  0  0
   12.6227    5.8244   -3.8175 H   0  0  0  0  0 15  0  0  0  0  0  0
   10.2497    6.1730   -4.4367 H   0  0  0  0  0 15  0  0  0  0  0  0
   11.8248    0.2810    1.5507 N   0  0  0  0  0 15  0  0  0  0  0  0
   12.7548   -0.5975    2.2573 C   0  0  0  0  0 15  0  0  0  0  0  0
   13.7358   -1.1542    1.2495 C   0  0  0  0  0 15  0  0  0  0  0  0
   14.9208   -1.1872    1.5368 O   0  0  0  0  0 15  0  0  0  0  0  0
   12.0508   -1.7789    2.9828 C   0  0  0  0  0 15  0  0  0  0  0  0
   11.0048   -1.3535    4.0604 C   0  0  0  0  0 15  0  0  0  0  0  0
   10.3308   -2.6185    4.6620 C   0  0  0  0  0 15  0  0  0  0  0  0
   11.6308   -0.4994    5.1991 C   0  0  0  0  0 15  0  0  0  0  0  0
   13.3248   -0.0082    2.9940 H   0  0  0  0  0 15  0  0  0  0  0  0
   10.8708   -0.0025    1.4400 H   0  0  0  0  0 15  0  0  0  0  0  0
   12.8238   -2.3994    3.4642 H   0  0  0  0  0 15  0  0  0  0  0  0
   11.5478   -2.3940    2.2216 H   0  0  0  0  0 15  0  0  0  0  0  0
   10.2068   -0.7562    3.5872 H   0  0  0  0  0 15  0  0  0  0  0  0
    9.8548   -3.2163    3.8673 H   0  0  0  0  0 15  0  0  0  0  0  0
    9.5548   -2.3409    5.3896 H   0  0  0  0  0 15  0  0  0  0  0  0
   11.0788   -3.2473    5.1709 H   0  0  0  0  0 15  0  0  0  0  0  0
   12.4928   -1.0250    5.6406 H   0  0  0  0  0 15  0  0  0  0  0  0
   10.8898   -0.3164    5.9927 H   0  0  0  0  0 15  0  0  0  0  0  0
   11.9598    0.4805    4.8251 H   0  0  0  0  0 15  0  0  0  0  0  0
   13.3029   -1.5760    0.0084 N   0  0  0  0  0 15  0  0  0  0  0  0
   14.2329   -2.1198   -0.9791 C   0  0  0  0  0 15  0  0  0  0  0  0
   15.2139   -1.0309   -1.3530 C   0  0  0  0  0 15  0  0  0  0  0  0
   16.3989   -1.3082   -1.4353 O   0  0  0  0  0 15  0  0  0  0  0  0
   13.5289   -2.6299   -2.2683 C   0  0  0  0  0 15  0  0  0  0  0  0
   12.4829   -3.7648   -2.0358 C   0  0  0  0  0 15  0  0  0  0  0  0
   11.8089   -4.1385   -3.3858 C   0  0  0  0  0 15  0  0  0  0  0  0
   13.1089   -5.0342   -1.3916 C   0  0  0  0  0 15  0  0  0  0  0  0
   14.8029   -2.9474   -0.5263 H   0  0  0  0  0 15  0  0  0  0  0  0
   12.3489   -1.4178   -0.2517 H   0  0  0  0  0 15  0  0  0  0  0  0
   14.3019   -2.9967   -2.9627 H   0  0  0  0  0 15  0  0  0  0  0  0
   13.0259   -1.7737   -2.7424 H   0  0  0  0  0 15  0  0  0  0  0  0
   11.6849   -3.4022   -1.3656 H   0  0  0  0  0 15  0  0  0  0  0  0
   11.3329   -3.2523   -3.8371 H   0  0  0  0  0 15  0  0  0  0  0  0
   11.0329   -4.9031   -3.2383 H   0  0  0  0  0 15  0  0  0  0  0  0
   12.5569   -4.5309   -4.0932 H   0  0  0  0  0 15  0  0  0  0  0  0
   13.9709   -5.3781   -1.9857 H   0  0  0  0  0 15  0  0  0  0  0  0
   12.3679   -5.8475   -1.3488 H   0  0  0  0  0 15  0  0  0  0  0  0
   13.4379   -4.8355   -0.3619 H   0  0  0  0  0 15  0  0  0  0  0  0
   14.7810    0.2645   -1.5536 N   0  0  0  0  0 15  0  0  0  0  0  0
   16.0060    1.0173   -1.8074 C   0  0  0  0  0 15  0  0  0  0  0  0
   16.4310    1.7884   -0.5830 C   0  0  0  0  0 15  0  0  0  0  0  0
   15.7890    1.7517    0.4676 O   0  0  0  0  0 15  0  0  0  0  0  0
   15.8370    1.9448   -3.0366 C   0  0  0  0  0 15  0  0  0  0  0  0
   14.9410    3.0339   -2.7934 O   0  0  0  0  0 15  0  0  0  0  0  0
   14.2820    0.2904   -0.5971 H   0  0  0  0  0 15  0  0  0  0  0  0
   16.8120    0.2909   -2.0252 H   0  0  0  0  0 15  0  0  0  0  0  0
   16.8220    2.3628   -3.3262 H   0  0  0  0  0 15  0  0  0  0  0  0
   15.4970    1.3777   -3.9242 H   0  0  0  0  0 15  0  0  0  0  0  0
   14.0740    2.6584   -2.6150 H   0  0  0  0  0 15  0  0  0  0  0  0
   16.2591    1.4844    0.5294 N   0  0  0  0  0 15  0  0  0  0  0  0
   17.1911    1.5909    1.6499 C   0  0  0  0  0 15  0  0  0  0  0  0
   18.2041    0.4752    1.5571 C   0  0  0  0  0 15  0  0  0  0  0  0
   19.3931    0.7461    1.6216 O   0  0  0  0  0 15  0  0  0  0  0  0
   16.4931    1.5052    3.0364 C   0  0  0  0  0 15  0  0  0  0  0  0
   15.6661    2.7714    3.3840 C   0  0  0  0  0 15  0  0  0  0  0  0
   14.7251    2.6201    4.5633 C   0  0  0  0  0 15  0  0  0  0  0  0
   13.7511    3.3590    4.5952 O   0  0  0  0  0 15  0  0  0  0  0  0
   14.9531    1.7167    5.5454 N   0  0  0  0  0 15  0  0  0  0  0  0
   17.7181    2.5572    1.5629 H   0  0  0  0  0 15  0  0  0  0  0  0
   15.2791    1.4517    0.7167 H   0  0  0  0  0 15  0  0  0  0  0  0
   17.2711    1.3809    3.8041 H   0  0  0  0  0 15  0  0  0  0  0  0
   15.8411    0.6186    3.0642 H   0  0  0  0  0 15  0  0  0  0  0  0
   15.0611    3.0413    2.5080 H   0  0  0  0  0 15  0  0  0  0  0  0
   16.3491    3.6115    3.5840 H   0  0  0  0  0 15  0  0  0  0  0  0
   15.7471    1.1084    5.5473 H   0  0  0  0  0 15  0  0  0  0  0  0
   14.3041    1.6518    6.3052 H   0  0  0  0  0 15  0  0  0  0  0  0
   17.7372   -0.7783    1.3704 N   0  0  0  0  0 15  0  0  0  0  0  0
   18.9842   -1.5366    1.3188 C   0  0  0  0  0 15  0  0  0  0  0  0
   19.3122   -1.9425   -0.0986 C   0  0  0  0  0 15  0  0  0  0  0  0
   18.5672   -1.6383   -1.0704 O   0  0  0  0  0 15  0  0  0  0  0  0
   18.8662   -2.8185    2.1977 C   0  0  0  0  0 15  0  0  0  0  0  0
   18.5322   -2.6034    3.6815 C   0  0  0  0  0 15  0  0  0  0  0  0
   17.1942   -2.5419    4.0858 C   0  0  0  0  0 15  0  0  0  0  0  0
   19.5462   -2.4092    4.6217 C   0  0  0  0  0 15  0  0  0  0  0  0
   16.8742   -2.2659    5.4118 C   0  0  0  0  0 15  0  0  0  0  0  0
   19.2262   -2.1485    5.9500 C   0  0  0  0  0 15  0  0  0  0  0  0
   17.8902   -2.0714    6.3455 C   0  0  0  0  0 15  0  0  0  0  0  0
   17.1602   -0.5623    0.4826 H   0  0  0  0  0 15  0  0  0  0  0  0
   19.8072   -0.8971    1.6919 H   0  0  0  0  0 15  0  0  0  0  0  0
   18.1122   -3.5033    1.7544 H   0  0  0  0  0 15  0  0  0  0  0  0
   19.8092   -3.3969    2.1310 H   0  0  0  0  0 15  0  0  0  0  0  0
   16.3992   -2.6600    3.3607 H   0  0  0  0  0 15  0  0  0  0  0  0
   20.5832   -2.4467    4.3180 H   0  0  0  0  0 15  0  0  0  0  0  0
   15.8392   -2.1911    5.7079 H   0  0  0  0  0 15  0  0  0  0  0  0
   20.0132   -1.9882    6.6742 H   0  0  0  0  0 15  0  0  0  0  0  0
   17.6402   -1.8552    7.3722 H   0  0  0  0  0 15  0  0  0  0  0  0
   19.2153   -1.2150   -1.0038 N   0  0  0  0  0 15  0  0  0  0  0  0
   20.4433   -1.0590   -1.7774 C   0  0  0  0  0 15  0  0  0  0  0  0
   20.8583    0.3911   -1.8470 C   0  0  0  0  0 15  0  0  0  0  0  0
   20.2153    1.2713   -1.3093 O   0  0  0  0  0 15  0  0  0  0  0  0
   20.2663   -1.6511   -3.2159 C   0  0  0  0  0 15  0  0  0  0  0  0
   19.9873   -3.0445   -3.1503 O   0  0  0  0  0 15  0  0  0  0  0  0
   21.4883   -1.5464   -4.1545 C   0  0  0  0  0 15  0  0  0  0  0  0
   18.7083   -0.3718   -0.5586 H   0  0  0  0  0 15  0  0  0  0  0  0
   21.2523   -1.6086   -1.2626 H   0  0  0  0  0 15  0  0  0  0  0  0
   19.4073   -1.1423   -3.7017 H   0  0  0  0  0 15  0  0  0  0  0  0
   19.8213   -3.3278   -4.0541 H   0  0  0  0  0 15  0  0  0  0  0  0
   21.2953   -2.0081   -5.1418 H   0  0  0  0  0 15  0  0  0  0  0  0
   21.7723   -0.5010   -4.3633 H   0  0  0  0  0 15  0  0  0  0  0  0
   22.3783   -2.0477   -3.7276 H   0  0  0  0  0 15  0  0  0  0  0  0
   20.6934    1.1989   -1.0230 N   0  0  0  0  0 15  0  0  0  0  0  0
   21.9184    1.9393   -0.7352 C   0  0  0  0  0 15  0  0  0  0  0  0
   22.3434    1.7464    0.6988 C   0  0  0  0  0 15  0  0  0  0  0  0
   21.7014    1.0448    1.4817 O   0  0  0  0  0 15  0  0  0  0  0  0
   21.7494    3.4392   -1.0842 C   0  0  0  0  0 15  0  0  0  0  0  0
   20.8534    4.1192   -0.1994 O   0  0  0  0  0 15  0  0  0  0  0  0
   20.1944    0.6056   -0.2722 H   0  0  0  0  0 15  0  0  0  0  0  0
   22.7244    1.5214   -1.3680 H   0  0  0  0  0 15  0  0  0  0  0  0
   22.7344    3.9456   -1.0386 H   0  0  0  0  0 15  0  0  0  0  0  0
   21.4094    3.5728   -2.1289 H   0  0  0  0  0 15  0  0  0  0  0  0
   19.9864    3.7167   -0.3031 H   0  0  0  0  0 15  0  0  0  0  0  0
   22.1715    0.8000    1.3578 N   0  0  0  0  0 15  0  0  0  0  0  0
   23.1345    0.2116    2.2822 C   0  0  0  0  0 15  0  0  0  0  0  0
   24.1345   -0.5973    1.4930 C   0  0  0  0  0 15  0  0  0  0  0  0
   25.3245   -0.4167    1.6914 O   0  0  0  0  0 15  0  0  0  0  0  0
   22.4565   -0.7058    3.3351 C   0  0  0  0  0 15  0  0  0  0  0  0
   23.6495    1.0268    2.8178 H   0  0  0  0  0 15  0  0  0  0  0  0
   21.2025    0.5702    1.4553 H   0  0  0  0  0 15  0  0  0  0  0  0
   21.9375   -1.5450    2.8513 H   0  0  0  0  0 15  0  0  0  0  0  0
   21.7225   -0.1277    3.9189 H   0  0  0  0  0 15  0  0  0  0  0  0
   23.2125   -1.1121    4.0252 H   0  0  0  0  0 15  0  0  0  0  0  0
   23.6496   -1.4758    0.5530 N   0  0  0  0  0 15  0  0  0  0  0  0
   24.8986   -2.0168    0.0252 C   0  0  0  0  0 15  0  0  0  0  0  0
   25.2116   -1.4332   -1.3311 C   0  0  0  0  0 15  0  0  0  0  0  0
   26.4176   -1.8906   -1.9486 O   0  0  0  0  0 15  0  0  0  0  0  0
   24.8736   -3.5990   -0.0054 C   0  0  0  0  0 15  0  0  0  0  0  0
   24.4816   -4.2726    1.3474 C   0  0  0  0  0 15  0  0  0  0  0  0
   26.2256   -4.2177   -0.4808 C   0  0  0  0  0 15  0  0  0  0  0  0
   24.1326   -5.7747    1.2761 C   0  0  0  0  0 15  0  0  0  0  0  0
   23.0626   -0.7540    0.0057 H   0  0  0  0  0 15  0  0  0  0  0  0
   25.7136   -1.6962    0.7002 H   0  0  0  0  0 15  0  0  0  0  0  0
   24.0956   -3.8891   -0.7460 H   0  0  0  0  0 15  0  0  0  0  0  0
   25.2696   -4.0989    2.1053 H   0  0  0  0  0 15  0  0  0  0  0  0
   23.5846   -3.7736    1.7604 H   0  0  0  0  0 15  0  0  0  0  0  0
   26.1816   -5.3184   -0.5525 H   0  0  0  0  0 15  0  0  0  0  0  0
   26.5246   -3.8865   -1.4918 H   0  0  0  0  0 15  0  0  0  0  0  0
   27.0576   -3.9727    0.2048 H   0  0  0  0  0 15  0  0  0  0  0  0
   23.7966   -6.1520    2.2630 H   0  0  0  0  0 15  0  0  0  0  0  0
   23.3166   -5.9718    0.5600 H   0  0  0  0  0 15  0  0  0  0  0  0
   24.9956   -6.3959    0.9764 H   0  0  0  0  0 15  0  0  0  0  0  0
   25.1277   -0.2892   -1.5492 N   0  0  0  0  0 15  0  0  0  0  0  0
   26.3677    0.3245   -2.0181 C   0  0  0  0  0 15  0  0  0  0  0  0
   26.7317    1.5199   -1.1732 C   0  0  0  0  0 15  0  0  0  0  0  0
   27.9327    2.2042   -1.5384 O   0  0  0  0  0 15  0  0  0  0  0  0
   26.2037    0.6836   -3.5080 C   0  0  0  0  0 15  0  0  0  0  0  0
   27.7627    1.2819   -4.1966 S   0  0  0  0  0 15  0  0  0  0  0  0
   24.5807    0.1002   -0.7039 H   0  0  0  0  0 15  0  0  0  0  0  0
   27.1827   -0.4143   -1.9106 H   0  0  0  0  0 15  0  0  0  0  0  0
   25.8867   -0.1951   -4.0994 H   0  0  0  0  0 15  0  0  0  0  0  0
   25.4177    1.4535   -3.6556 H   0  0  0  0  0 15  0  0  0  0  0  0
   27.4327    2.5701   -4.2446 H   0  0  0  0  0 15  0  0  0  0  0  0
   26.6058    1.5759   -0.0167 N   0  0  0  0  0 15  0  0  0  0  0  0
   27.8308    1.9598    0.6787 C   0  0  0  0  0 15  0  0  0  0  0  0
   28.2558    0.8925    1.6558 C   0  0  0  0  0 15  0  0  0  0  0  0
   27.6138   -0.1478    1.8070 O   0  0  0  0  0 15  0  0  0  0  0  0
   27.6618    3.3347    1.3723 C   0  0  0  0  0 15  0  0  0  0  0  0
   26.7658    3.2895    2.4872 O   0  0  0  0  0 15  0  0  0  0  0  0
   26.1068    0.6393    0.1793 H   0  0  0  0  0 15  0  0  0  0  0  0
   28.6368    2.0446   -0.0749 H   0  0  0  0  0 15  0  0  0  0  0  0
   28.6468    3.6942    1.7319 H   0  0  0  0  0 15  0  0  0  0  0  0
   27.3218    4.1069    0.6560 H   0  0  0  0  0 15  0  0  0  0  0  0
   25.8988    3.0471    2.1496 H   0  0  0  0  0 15  0  0  0  0  0  0
   28.0839   -0.2563    1.5550 N   0  0  0  0  0 15  0  0  0  0  0  0
   29.3299   -0.9871    1.7716 C   0  0  0  0  0 15  0  0  0  0  0  0
   29.6629   -1.8533    0.5803 C   0  0  0  0  0 15  0  0  0  0  0  0
   28.9379   -1.8987   -0.4217 O   0  0  0  0  0 15  0  0  0  0  0  0
   29.2209   -1.8555    3.0861 C   0  0  0  0  0 15  0  0  0  0  0  0
   29.0739   -1.0182    4.3813 C   0  0  0  0  0 15  0  0  0  0  0  0
   30.3929   -2.8397    3.3623 C   0  0  0  0  0 15  0  0  0  0  0  0
   27.5119   -0.3574    0.6445 H   0  0  0  0  0 15  0  0  0  0  0  0
   30.1539   -0.2582    1.8824 H   0  0  0  0  0 15  0  0  0  0  0  0
   28.3039   -2.4770    2.9930 H   0  0  0  0  0 15  0  0  0  0  0  0
   29.9759   -0.4162    4.5942 H   0  0  0  0  0 15  0  0  0  0  0  0
   28.2189   -0.3222    4.3260 H   0  0  0  0  0 15  0  0  0  0  0  0
   28.8899   -1.6594    5.2647 H   0  0  0  0  0 15  0  0  0  0  0  0
   31.3659   -2.3196    3.4544 H   0  0  0  0  0 15  0  0  0  0  0  0
   30.2419   -3.4186    4.2944 H   0  0  0  0  0 15  0  0  0  0  0  0
   30.5029   -3.5995    2.5668 H   0  0  0  0  0 15  0  0  0  0  0  0
   29.5620   -1.4872   -0.5215 N   0  0  0  0  0 15  0  0  0  0  0  0
   30.8080   -1.5740   -1.2788 C   0  0  0  0  0 15  0  0  0  0  0  0
   31.1410   -0.2508   -1.9257 C   0  0  0  0  0 15  0  0  0  0  0  0
   30.4160    0.7439   -1.7971 O   0  0  0  0  0 15  0  0  0  0  0  0
   30.6990   -2.7184   -2.3616 C   0  0  0  0  0 15  0  0  0  0  0  0
   30.5520   -4.1389   -1.7610 C   0  0  0  0  0 15  0  0  0  0  0  0
   31.8710   -2.8201   -3.3788 C   0  0  0  0  0 15  0  0  0  0  0  0
   28.9900   -0.5729   -0.4636 H   0  0  0  0  0 15  0  0  0  0  0  0
   31.6320   -1.8093   -0.5801 H   0  0  0  0  0 15  0  0  0  0  0  0
   29.7820   -2.5191   -2.9576 H   0  0  0  0  0 15  0  0  0  0  0  0
   31.4540   -4.4528   -1.2050 H   0  0  0  0  0 15  0  0  0  0  0  0
   29.6970   -4.2050   -1.0660 H   0  0  0  0  0 15  0  0  0  0  0  0
   30.3680   -4.8980   -2.5455 H   0  0  0  0  0 15  0  0  0  0  0  0
   32.8440   -3.0009   -2.8825 H   0  0  0  0  0 15  0  0  0  0  0  0
   31.7200   -3.6380   -4.1103 H   0  0  0  0  0 15  0  0  0  0  0  0
   31.9810   -1.9051   -3.9895 H   0  0  0  0  0 15  0  0  0  0  0  0
   31.0401    0.7711   -1.3745 N   0  0  0  0  0 15  0  0  0  0  0  0
   32.4561    1.0717   -1.1827 C   0  0  0  0  0 15  0  0  0  0  0  0
   32.6561    2.0149   -0.0193 C   0  0  0  0  0 15  0  0  0  0  0  0
   31.7121    2.4424    0.6404 O   0  0  0  0  0 15  0  0  0  0  0  0
   33.0251    1.6685   -2.5016 C   0  0  0  0  0 15  0  0  0  0  0  0
   34.5731    1.7911   -2.5669 C   0  0  0  0  0 15  0  0  0  0  0  0
   35.0481    2.4221   -3.8872 C   0  0  0  0  0 15  0  0  0  0  0  0
   36.5391    2.4966   -3.9016 N   0  0  0  0  0 15  0  0  0  0  0  0
   37.2741    2.9933   -4.8907 C   0  0  0  0  0 15  0  0  0  0  0  0
   36.7701    3.4917   -5.9837 N   0  0  0  0  0 15  0  0  0  0  0  0
   38.5631    2.9821   -4.7647 N   0  0  0  0  0 15  0  0  0  0  0  0
   30.7141    0.1448   -2.1191 H   0  0  0  0  0 15  0  0  0  0  0  0
   32.9771    0.1269   -0.9395 H   0  0  0  0  0 15  0  0  0  0  0  0
   32.6831    1.0502   -3.3565 H   0  0  0  0  0 15  0  0  0  0  0  0
   32.5571    2.6614   -2.6730 H   0  0  0  0  0 15  0  0  0  0  0  0
   34.9441    2.4008   -1.7160 H   0  0  0  0  0 15  0  0  0  0  0  0
   35.0251    0.7858   -2.4343 H   0  0  0  0  0 15  0  0  0  0  0  0
   34.6691    1.8188   -4.7422 H   0  0  0  0  0 15  0  0  0  0  0  0
   34.5991    3.4335   -3.9928 H   0  0  0  0  0 15  0  0  0  0  0  0
   37.0901    2.1438   -3.1120 H   0  0  0  0  0 15  0  0  0  0  0  0
   37.4031    3.8548   -6.6979 H   0  0  0  0  0 15  0  0  0  0  0  0
   35.7481    3.4727   -6.0202 H   0  0  0  0  0 15  0  0  0  0  0  0
   38.9391    2.5857   -3.9020 H   0  0  0  0  0 15  0  0  0  0  0  0
   39.1121    3.3661   -5.5371 H   0  0  0  0  0 15  0  0  0  0  0  0
   32.5182    1.2203    0.9973 N   0  0  0  0  0 15  0  0  0  0  0  0
   33.9342    0.9793    1.2602 C   0  0  0  0  0 15  0  0  0  0  0  0
   34.1342   -0.3297    1.9878 C   0  0  0  0  0 15  0  0  0  0  0  0
   33.1902   -1.0535    2.2947 O   0  0  0  0  0 15  0  0  0  0  0  0
   34.5032    2.1751    2.0763 C   0  0  0  0  0 15  0  0  0  0  0  0
   36.0512    2.2182    2.2083 C   0  0  0  0  0 15  0  0  0  0  0  0
   36.5262    3.4093    3.0582 C   0  0  0  0  0 15  0  0  0  0  0  0
   38.0172    3.4107    3.1341 N   0  0  0  0  0 15  0  0  0  0  0  0
   38.7522    4.2989    3.7946 C   0  0  0  0  0 15  0  0  0  0  0  0
   38.2482    5.2891    4.4746 N   0  0  0  0  0 15  0  0  0  0  0  0
   40.0412    4.1767    3.7617 N   0  0  0  0  0 15  0  0  0  0  0  0
   32.1922    2.0620    0.5094 H   0  0  0  0  0 15  0  0  0  0  0  0
   34.4552    0.9033    0.2875 H   0  0  0  0  0 15  0  0  0  0  0  0
   34.1612    3.1241    1.6152 H   0  0  0  0  0 15  0  0  0  0  0  0
   34.0352    2.1721    3.0839 H   0  0  0  0  0 15  0  0  0  0  0  0
   36.4222    1.2746    2.6615 H   0  0  0  0  0 15  0  0  0  0  0  0
   36.5032    2.2616    1.1952 H   0  0  0  0  0 15  0  0  0  0  0  0
   36.1472    4.3559    2.6120 H   0  0  0  0  0 15  0  0  0  0  0  0
   36.0772    3.3383    4.0727 H   0  0  0  0  0 15  0  0  0  0  0  0
   38.5682    2.6941    2.6501 H   0  0  0  0  0 15  0  0  0  0  0  0
   38.8812    5.9297    4.9558 H   0  0  0  0  0 15  0  0  0  0  0  0
   37.2262    5.3283    4.4622 H   0  0  0  0  0 15  0  0  0  0  0  0
   40.4172    3.3956    3.2220 H   0  0  0  0  0 15  0  0  0  0  0  0
   40.5902    4.8710    4.2736 H   0  0  0  0  0 15  0  0  0  0  0  0
   33.9963   -1.1934    1.0293 N   0  0  0  0  0 15  0  0  0  0  0  0
   34.9593   -2.2079    0.6151 C   0  0  0  0  0 15  0  0  0  0  0  0
   35.9593   -1.5755   -0.3215 C   0  0  0  0  0 15  0  0  0  0  0  0
   37.1493   -1.7386   -0.1085 O   0  0  0  0  0 15  0  0  0  0  0  0
   34.2813   -3.4075   -0.0999 C   0  0  0  0  0 15  0  0  0  0  0  0
   35.4743   -2.5896    1.5127 H   0  0  0  0  0 15  0  0  0  0  0  0
   33.0273   -1.3303    0.8205 H   0  0  0  0  0 15  0  0  0  0  0  0
   33.7623   -3.0811   -1.0119 H   0  0  0  0  0 15  0  0  0  0  0  0
   33.5473   -3.8789    0.5731 H   0  0  0  0  0 15  0  0  0  0  0  0
   35.0373   -4.1590   -0.3766 H   0  0  0  0  0 15  0  0  0  0  0  0
   35.4744   -0.8072   -1.3536 N   0  0  0  0  0 15  0  0  0  0  0  0
   36.7214   -0.3879   -1.9875 C   0  0  0  0  0 15  0  0  0  0  0  0
   37.0494    1.0451   -1.6404 C   0  0  0  0  0 15  0  0  0  0  0  0
   36.3044    1.7399   -0.8959 O   0  0  0  0  0 15  0  0  0  0  0  0
   36.6034   -0.5190   -3.5361 C   0  0  0  0  0 15  0  0  0  0  0  0
   36.2694   -1.9154   -4.0819 C   0  0  0  0  0 15  0  0  0  0  0  0
   34.9314   -2.2974   -4.2281 C   0  0  0  0  0 15  0  0  0  0  0  0
   37.2834   -2.8290   -4.3774 C   0  0  0  0  0 15  0  0  0  0  0  0
   34.6114   -3.5867   -4.6430 C   0  0  0  0  0 15  0  0  0  0  0  0
   36.9634   -4.1127   -4.8067 C   0  0  0  0  0 15  0  0  0  0  0  0
   35.6274   -4.4947   -4.9349 C   0  0  0  0  0 15  0  0  0  0  0  0
   34.8974   -0.1419   -0.7273 H   0  0  0  0  0 15  0  0  0  0  0  0
   37.5444   -1.0281   -1.6156 H   0  0  0  0  0 15  0  0  0  0  0  0
   35.8494    0.2047   -3.9127 H   0  0  0  0  0 15  0  0  0  0  0  0
   37.5464   -0.1753   -4.0062 H   0  0  0  0  0 15  0  0  0  0  0  0
   34.1364   -1.6086   -3.9727 H   0  0  0  0  0 15  0  0  0  0  0  0
   38.3204   -2.5463   -4.2600 H   0  0  0  0  0 15  0  0  0  0  0  0
   33.5764   -3.8811   -4.7242 H   0  0  0  0  0 15  0  0  0  0  0  0
   37.7504   -4.8215   -5.0250 H   0  0  0  0  0 15  0  0  0  0  0  0
   35.3774   -5.4942   -5.2540 H   0  0  0  0  0 15  0  0  0  0  0  0
   36.9525    1.4729   -0.5608 N   0  0  0  0  0 15  0  0  0  0  0  0
   38.3635    1.8626   -0.1283 C   0  0  0  0  0 15  0  0  0  0  0  0
   38.7145    1.4670    1.3028 C   0  0  0  0  0 15  0  0  0  0  0  0
   37.8395    0.8717    1.9807 O   0  0  0  0  0 15  0  0  0  0  0  0
   38.4345    3.3804   -0.2261 C   0  0  0  0  0 15  0  0  0  0  0  0
   36.9935    3.7610    0.1513 C   0  0  0  0  0 15  0  0  0  0  0  0
   36.1405    2.7133   -0.5721 C   0  0  0  0  0 15  0  0  0  0  0  0
   39.0915    1.3875   -0.7703 H   0  0  0  0  0 15  0  0  0  0  0  0
   39.1125    3.7644    0.5543 H   0  0  0  0  0 15  0  0  0  0  0  0
   38.6245    3.6681   -1.2679 H   0  0  0  0  0 15  0  0  0  0  0  0
   36.7255    3.5295    1.1940 H   0  0  0  0  0 15  0  0  0  0  0  0
   36.8385    4.7864   -0.2098 H   0  0  0  0  0 15  0  0  0  0  0  0
   35.2025    2.5470   -0.0148 H   0  0  0  0  0 15  0  0  0  0  0  0
   35.9855    3.0294   -1.6150 H   0  0  0  0  0 15  0  0  0  0  0  0
   38.4306    0.2974    1.5477 N   0  0  0  0  0 15  0  0  0  0  0  0
   39.3806   -0.5953    2.2009 C   0  0  0  0  0 15  0  0  0  0  0  0
   40.3646   -1.1016    1.1727 C   0  0  0  0  0 15  0  0  0  0  0  0
   41.5566   -1.0430    1.4301 O   0  0  0  0  0 15  0  0  0  0  0  0
   38.6856   -1.7684    2.9425 C   0  0  0  0  0 15  0  0  0  0  0  0
   37.7716   -1.2782    4.0438 C   0  0  0  0  0 15  0  0  0  0  0  0
   38.1626   -0.5057    5.0327 N   0  0  0  0  0 15  0  0  0  0  0  0
   36.4606   -1.5592    4.1786 C   0  0  0  0  0 15  0  0  0  0  0  0
   37.1616   -0.2451    5.8118 C   0  0  0  0  0 15  0  0  0  0  0  0
   36.1376   -0.8239    5.3732 N   0  0  0  0  0 15  0  0  0  0  0  0
   39.9396    0.0025    2.9390 H   0  0  0  0  0 15  0  0  0  0  0  0
   37.4536    0.1020    1.6208 H   0  0  0  0  0 15  0  0  0  0  0  0
   39.4506   -2.4194    3.3951 H   0  0  0  0  0 15  0  0  0  0  0  0
   38.1106   -2.3699    2.2196 H   0  0  0  0  0 15  0  0  0  0  0  0
   39.1216   -0.1509    5.1768 H   0  0  0  0  0 15  0  0  0  0  0  0
   35.7986   -2.1685    3.5677 H   0  0  0  0  0 15  0  0  0  0  0  0
   37.1886    0.3751    6.7085 H   0  0  0  0  0 15  0  0  0  0  0  0
   39.9087   -1.5758    0.0251 N   0  0  0  0  0 15  0  0  0  0  0  0
   41.1487   -1.9350   -0.6586 C   0  0  0  0  0 15  0  0  0  0  0  0
   41.5127   -0.9014   -1.6952 C   0  0  0  0  0 15  0  0  0  0  0  0
   42.7137   -1.1466   -2.4312 O   0  0  0  0  0 15  0  0  0  0  0  0
   40.9847   -3.3435   -1.2627 C   0  0  0  0  0 15  0  0  0  0  0  0
   42.5437   -3.9219   -1.9680 S   0  0  0  0  0 15  0  0  0  0  0  0
   39.3617   -0.6771   -0.2170 H   0  0  0  0  0 15  0  0  0  0  0  0
   41.9637   -1.9530    0.0878 H   0  0  0  0  0 15  0  0  0  0  0  0
   40.6677   -4.0739   -0.4957 H   0  0  0  0  0 15  0  0  0  0  0  0
   40.1987   -3.3598   -2.0465 H   0  0  0  0  0 15  0  0  0  0  0  0
   42.2137   -3.7530   -3.2460 H   0  0  0  0  0 15  0  0  0  0  0  0
   41.3868    0.2480   -1.5564 N   0  0  0  0  0 15  0  0  0  0  0  0
   42.3168    1.3108   -1.9324 C   0  0  0  0  0 15  0  0  0  0  0  0
   43.2978    1.5026   -0.7972 C   0  0  0  0  0 15  0  0  0  0  0  0
   44.4828    1.6289   -1.0574 O   0  0  0  0  0 15  0  0  0  0  0  0
   41.6128    2.6658   -2.2261 C   0  0  0  0  0 15  0  0  0  0  0  0
   40.5668    2.6209   -3.3837 C   0  0  0  0  0 15  0  0  0  0  0  0
   39.8928    4.0137   -3.5328 C   0  0  0  0  0 15  0  0  0  0  0  0
   41.1928    2.1917   -4.7409 C   0  0  0  0  0 15  0  0  0  0  0  0
   42.8868    0.9986   -2.8226 H   0  0  0  0  0 15  0  0  0  0  0  0
   40.4328    0.4789   -1.3580 H   0  0  0  0  0 15  0  0  0  0  0  0
   42.3858    3.4106   -2.4750 H   0  0  0  0  0 15  0  0  0  0  0  0
   41.1098    2.9943   -1.3041 H   0  0  0  0  0 15  0  0  0  0  0  0
   39.7688    1.9006   -3.1348 H   0  0  0  0  0 15  0  0  0  0  0  0
   39.4168    4.3149   -2.5851 H   0  0  0  0  0 15  0  0  0  0  0  0
   39.1168    3.9925   -4.3113 H   0  0  0  0  0 15  0  0  0  0  0  0
   40.6408    4.7755   -3.8049 H   0  0  0  0  0 15  0  0  0  0  0  0
   42.0548    2.8338   -4.9836 H   0  0  0  0  0 15  0  0  0  0  0  0
   40.4518    2.2817   -5.5503 H   0  0  0  0  0 15  0  0  0  0  0  0
   41.5218    1.1434   -4.7123 H   0  0  0  0  0 15  0  0  0  0  0  0
   42.8649    1.4899    0.5136 N   0  0  0  0  0 15  0  0  0  0  0  0
   43.8279    1.6423    1.5988 C   0  0  0  0  0 15  0  0  0  0  0  0
   44.8279    0.5147    1.5234 C   0  0  0  0  0 15  0  0  0  0  0  0
   46.0179    0.7809    1.5572 O   0  0  0  0  0 15  0  0  0  0  0  0
   43.1499    1.6278    2.9952 C   0  0  0  0  0 15  0  0  0  0  0  0
   44.3429    2.6100    1.4771 H   0  0  0  0  0 15  0  0  0  0  0  0
   41.8959    1.3784    0.7369 H   0  0  0  0  0 15  0  0  0  0  0  0
   42.6309    0.6755    3.1719 H   0  0  0  0  0 15  0  0  0  0  0  0
   42.4159    2.4466    3.0640 H   0  0  0  0  0 15  0  0  0  0  0  0
   43.9059    1.7667    3.7839 H   0  0  0  0  0 15  0  0  0  0  0  0
   44.3430   -0.7638    1.3786 N   0  0  0  0  0 15  0  0  0  0  0  0
   45.5900   -1.5226    1.3351 C   0  0  0  0  0 15  0  0  0  0  0  0
   45.9180   -1.9434   -0.0780 C   0  0  0  0  0 15  0  0  0  0  0  0
   45.1730   -1.6496   -1.0530 O   0  0  0  0  0 15  0  0  0  0  0  0
   45.4720   -2.7950    2.2274 C   0  0  0  0  0 15  0  0  0  0  0  0
   45.1380   -2.5643    3.7089 C   0  0  0  0  0 15  0  0  0  0  0  0
   43.8000   -2.4984    4.1126 C   0  0  0  0  0 15  0  0  0  0  0  0
   46.1520   -2.3601    4.6470 C   0  0  0  0  0 15  0  0  0  0  0  0
   43.4800   -2.2084    5.4355 C   0  0  0  0  0 15  0  0  0  0  0  0
   45.8320   -2.0853    5.9724 C   0  0  0  0  0 15  0  0  0  0  0  0
   44.4960   -2.0040    6.3671 C   0  0  0  0  0 15  0  0  0  0  0  0
   43.7660   -0.5571    0.4885 H   0  0  0  0  0 15  0  0  0  0  0  0
   46.4130   -0.8791    1.7013 H   0  0  0  0  0 15  0  0  0  0  0  0
   44.7180   -3.4845    1.7914 H   0  0  0  0  0 15  0  0  0  0  0  0
   46.4150   -3.3741    2.1669 H   0  0  0  0  0 15  0  0  0  0  0  0
   43.0050   -2.6242    3.3887 H   0  0  0  0  0 15  0  0  0  0  0  0
   47.1890   -2.4008    4.3437 H   0  0  0  0  0 15  0  0  0  0  0  0
   42.4450   -2.1304    5.7308 H   0  0  0  0  0 15  0  0  0  0  0  0
   46.6190   -1.9173    6.6949 H   0  0  0  0  0 15  0  0  0  0  0  0
   44.2460   -1.7769    7.3914 H   0  0  0  0  0 15  0  0  0  0  0  0
   45.8211   -1.2256   -0.9908 N   0  0  0  0  0 15  0  0  0  0  0  0
   47.0461   -1.0786   -1.7715 C   0  0  0  0  0 15  0  0  0  0  0  0
   47.4711    0.3664   -1.8450 C   0  0  0  0  0 15  0  0  0  0  0  0
   46.8291    1.2648   -1.2990 O   0  0  0  0  0 15  0  0  0  0  0  0
   46.8771   -1.6969   -3.1818 C   0  0  0  0  0 15  0  0  0  0  0  0
   45.9811   -0.9519   -4.0126 O   0  0  0  0  0 15  0  0  0  0  0  0
   45.3221   -0.3787   -0.5454 H   0  0  0  0  0 15  0  0  0  0  0  0
   47.8521   -1.6240   -1.2445 H   0  0  0  0  0 15  0  0  0  0  0  0
   47.8621   -1.7450   -3.6880 H   0  0  0  0  0 15  0  0  0  0  0  0
   46.5371   -2.7484   -3.1215 H   0  0  0  0  0 15  0  0  0  0  0  0
   45.1141   -0.9800   -3.5979 H   0  0  0  0  0 15  0  0  0  0  0  0
   47.2992    1.1880   -1.0356 N   0  0  0  0  0 15  0  0  0  0  0  0
   48.5292    1.9232   -0.7548 C   0  0  0  0  0 15  0  0  0  0  0  0
   48.9372    1.7612    0.6912 C   0  0  0  0  0 15  0  0  0  0  0  0
   48.2802    1.0849    1.4824 O   0  0  0  0  0 15  0  0  0  0  0  0
   48.3422    3.4428   -1.0348 C   0  0  0  0  0 15  0  0  0  0  0  0
   48.0062    3.8426   -2.4738 C   0  0  0  0  0 15  0  0  0  0  0  0
   49.0032    3.8846   -3.4554 C   0  0  0  0  0 15  0  0  0  0  0  0
   46.6882    4.1570   -2.8195 C   0  0  0  0  0 15  0  0  0  0  0  0
   48.6822    4.2354   -4.7633 C   0  0  0  0  0 15  0  0  0  0  0  0
   46.3692    4.5046   -4.1295 C   0  0  0  0  0 15  0  0  0  0  0  0
   47.3672    4.5436   -5.0995 C   0  0  0  0  0 15  0  0  0  0  0  0
   47.0552    4.8830   -6.3860 O   0  0  0  0  0 15  0  0  0  0  0  0
   46.7872    0.6175   -0.2750 H   0  0  0  0  0 15  0  0  0  0  0  0
   49.3412    1.5168   -1.3850 H   0  0  0  0  0 15  0  0  0  0  0  0
   47.5712    3.8514   -0.3475 H   0  0  0  0  0 15  0  0  0  0  0  0
   49.2602    3.9905   -0.7426 H   0  0  0  0  0 15  0  0  0  0  0  0
   50.0262    3.6431   -3.2016 H   0  0  0  0  0 15  0  0  0  0  0  0
   45.9052    4.1185   -2.0713 H   0  0  0  0  0 15  0  0  0  0  0  0
   49.4492    4.2650   -5.5203 H   0  0  0  0  0 15  0  0  0  0  0  0
   45.3462    4.7407   -4.3810 H   0  0  0  0  0 15  0  0  0  0  0  0
   46.1142    5.0623   -6.4318 H   0  0  0  0  0 15  0  0  0  0  0  0
   48.7773    0.8144    1.3493 N   0  0  0  0  0 15  0  0  0  0  0  0
   49.7103    0.1756    2.2752 C   0  0  0  0  0 15  0  0  0  0  0  0
   50.6883   -0.6630    1.4847 C   0  0  0  0  0 15  0  0  0  0  0  0
   51.8723   -0.6285    1.7771 O   0  0  0  0  0 15  0  0  0  0  0  0
   48.9993   -0.7555    3.3017 C   0  0  0  0  0 15  0  0  0  0  0  0
   48.0453    0.0045    4.2650 C   0  0  0  0  0 15  0  0  0  0  0  0
   48.8783    1.3458    5.1831 S   0  0  0  0  0 15  0  0  0  0  0  0
   50.0343    0.4193    6.2449 C   0  0  0  0  0 15  0  0  0  0  0  0
   50.2673    0.9607    2.8135 H   0  0  0  0  0 15  0  0  0  0  0  0
   47.8003    0.6098    1.4185 H   0  0  0  0  0 15  0  0  0  0  0  0
   49.7583   -1.2872    3.8980 H   0  0  0  0  0 15  0  0  0  0  0  0
   48.4193   -1.5140    2.7520 H   0  0  0  0  0 15  0  0  0  0  0  0
   47.6123   -0.7031    4.9907 H   0  0  0  0  0 15  0  0  0  0  0  0
   47.2143    0.4664    3.7108 H   0  0  0  0  0 15  0  0  0  0  0  0
   49.5063   -0.3924    6.7636 H   0  0  0  0  0 15  0  0  0  0  0  0
   50.4493    1.1145    6.9927 H   0  0  0  0  0 15  0  0  0  0  0  0
   50.8573    0.0115    5.6450 H   0  0  0  0  0 15  0  0  0  0  0  0
   50.2554   -1.4699    0.5686 N   0  0  0  0  0 15  0  0  0  0  0  0
   51.5324   -1.9559   -0.0174 C   0  0  0  0  0 15  0  0  0  0  0  0
   51.9124   -1.5112   -1.4739 C   0  0  0  0  0 15  0  0  0  0  0  0
   51.2604   -0.7553   -2.1565 O   0  0  0  0  0 15  0  0  0  0  0  0
   51.4704   -3.4872    0.1399 C   0  0  0  0  0 15  0  0  0  0  0  0
   52.8184   -4.2460    0.0004 C   0  0  0  0  0 15  0  0  0  0  0  0
   53.8424   -3.5614    0.0680 O   0  0  0  0  0 15  0  0  0  0  0  0
   52.7014   -5.4630   -0.1470 O   0  0  0  0  0 15  0  0  0  0  0  0
   49.7954   -0.8250   -0.0578 H   0  0  0  0  0 15  0  0  0  0  0  0
   52.3414   -1.5733    0.6359 H   0  0  0  0  0 15  0  0  0  0  0  0
   51.1134   -3.7393    1.1530 H   0  0  0  0  0 15  0  0  0  0  0  0
   50.7364   -3.9377   -0.5505 H   0  0  0  0  0 15  0  0  0  0  0  0
   51.7335   -0.3056   -1.5461 N   0  0  0  0  0 15  0  0  0  0  0  0
   53.0105    0.3557   -1.9234 C   0  0  0  0  0 15  0  0  0  0  0  0
   53.3905    1.7132   -1.2333 C   0  0  0  0  0 15  0  0  0  0  0  0
   52.7385    2.2547   -0.3707 O   0  0  0  0  0 15  0  0  0  0  0  0
   52.9485    0.4657   -3.4588 C   0  0  0  0  0 15  0  0  0  0  0  0
   54.2965    0.7344   -4.1820 C   0  0  0  0  0 15  0  0  0  0  0  0
   55.3205    0.5494   -3.5194 O   0  0  0  0  0 15  0  0  0  0  0  0
   54.1795    1.0902   -5.3551 O   0  0  0  0  0 15  0  0  0  0  0  0
   51.2735    0.1997   -0.8025 H   0  0  0  0  0 15  0  0  0  0  0  0
   53.8195   -0.3540   -1.6597 H   0  0  0  0  0 15  0  0  0  0  0  0
   52.5915   -0.4885   -3.8824 H   0  0  0  0  0 15  0  0  0  0  0  0
   52.2145    1.2237   -3.7830 H   0  0  0  0  0 15  0  0  0  0  0  0
   53.2116    1.5756   -0.0334 N   0  0  0  0  0 15  0  0  0  0  0  0
   54.4576    1.9226    0.6452 C   0  0  0  0  0 15  0  0  0  0  0  0
   54.7906    0.9105    1.7153 C   0  0  0  0  0 15  0  0  0  0  0  0
   54.0656   -0.0661    1.9439 O   0  0  0  0  0 15  0  0  0  0  0  0
   54.3486    3.3742    1.2577 C   0  0  0  0  0 15  0  0  0  0  0  0
   54.2016    4.4937    0.1969 C   0  0  0  0  0 15  0  0  0  0  0  0
   55.5206    3.8263    2.1745 C   0  0  0  0  0 15  0  0  0  0  0  0
   52.6396    0.6992    0.2331 H   0  0  0  0  0 15  0  0  0  0  0  0
   55.2816    1.8978   -0.0916 H   0  0  0  0  0 15  0  0  0  0  0  0
   53.4316    3.3967    1.8857 H   0  0  0  0  0 15  0  0  0  0  0  0
   55.1036    4.5925   -0.4340 H   0  0  0  0  0 15  0  0  0  0  0  0
   53.3466    4.3117   -0.4771 H   0  0  0  0  0 15  0  0  0  0  0  0
   54.0176    5.4798    0.6651 H   0  0  0  0  0 15  0  0  0  0  0  0
   56.4936    3.8214    1.6463 H   0  0  0  0  0 15  0  0  0  0  0  0
   55.3696    4.8488    2.5725 H   0  0  0  0  0 15  0  0  0  0  0  0
   55.6306    3.1838    3.0674 H   0  0  0  0  0 15  0  0  0  0  0  0
   54.6897   -0.2398    1.5577 N   0  0  0  0  0 15  0  0  0  0  0  0
   55.9357   -0.9682    1.7819 C   0  0  0  0  0 15  0  0  0  0  0  0
   56.2687   -1.8470    0.5999 C   0  0  0  0  0 15  0  0  0  0  0  0
   55.5437   -1.9031   -0.4015 O   0  0  0  0  0 15  0  0  0  0  0  0
   55.8267   -1.8227    3.1056 C   0  0  0  0  0 15  0  0  0  0  0  0
   55.6797   -0.9716    4.3918 C   0  0  0  0  0 15  0  0  0  0  0  0
   56.9987   -2.8039    3.3922 C   0  0  0  0  0 15  0  0  0  0  0  0
   54.1177   -0.3506    0.6483 H   0  0  0  0  0 15  0  0  0  0  0  0
   56.7597   -0.2383    1.8850 H   0  0  0  0  0 15  0  0  0  0  0  0
   54.9097   -2.4451    3.0191 H   0  0  0  0  0 15  0  0  0  0  0  0
   56.5817   -0.3674    4.5983 H   0  0  0  0  0 15  0  0  0  0  0  0
   54.8247   -0.2763    4.3292 H   0  0  0  0  0 15  0  0  0  0  0  0
   55.4957   -1.6035    5.2820 H   0  0  0  0  0 15  0  0  0  0  0  0
   57.9717   -2.2829    3.4789 H   0  0  0  0  0 15  0  0  0  0  0  0
   56.8477   -3.3729    4.3304 H   0  0  0  0  0 15  0  0  0  0  0  0
   57.1087   -3.5721    2.6048 H   0  0  0  0  0 15  0  0  0  0  0  0
   56.1678   -1.4927   -0.5057 N   0  0  0  0  0 15  0  0  0  0  0  0
   57.0978   -1.6850   -1.6165 C   0  0  0  0  0 15  0  0  0  0  0  0
   58.0788   -0.5337   -1.6151 C   0  0  0  0  0 15  0  0  0  0  0  0
   59.2638   -0.7690   -1.7833 O   0  0  0  0  0 15  0  0  0  0  0  0
   56.3938   -1.7471   -3.0016 C   0  0  0  0  0 15  0  0  0  0  0  0
   55.3478   -2.8958   -3.1516 C   0  0  0  0  0 15  0  0  0  0  0  0
   54.6738   -2.8090   -4.5497 C   0  0  0  0  0 15  0  0  0  0  0  0
   55.9738   -4.3058   -2.9563 C   0  0  0  0  0 15  0  0  0  0  0  0
   57.6678   -2.6149   -1.4581 H   0  0  0  0  0 15  0  0  0  0  0  0
   55.2138   -1.2584   -0.7001 H   0  0  0  0  0 15  0  0  0  0  0  0
   57.1668   -1.8675   -3.7776 H   0  0  0  0  0 15  0  0  0  0  0  0
   55.8908   -0.7831   -3.1707 H   0  0  0  0  0 15  0  0  0  0  0  0
   54.5498   -2.7714   -2.3998 H   0  0  0  0  0 15  0  0  0  0  0  0
   54.1978   -1.8242   -4.6876 H   0  0  0  0  0 15  0  0  0  0  0  0
   53.8978   -3.5800   -4.6595 H   0  0  0  0  0 15  0  0  0  0  0  0
   55.4218   -2.9494   -5.3464 H   0  0  0  0  0 15  0  0  0  0  0  0
   56.8358   -4.4373   -3.6301 H   0  0  0  0  0 15  0  0  0  0  0  0
   55.2328   -5.0886   -3.1809 H   0  0  0  0  0 15  0  0  0  0  0  0
   56.3028   -4.4535   -1.9181 H   0  0  0  0  0 15  0  0  0  0  0  0
   57.6459    0.7564   -1.3826 N   0  0  0  0  0 15  0  0  0  0  0  0
   58.8939    1.5125   -1.3405 C   0  0  0  0  0 15  0  0  0  0  0  0
   59.2149    1.9487    0.0698 C   0  0  0  0  0 15  0  0  0  0  0  0
   58.4849    1.6744    1.0170 O   0  0  0  0  0 15  0  0  0  0  0  0
   57.0649    0.5610   -0.4932 H   0  0  0  0  0 15  0  0  0  0  0  0
   59.7269    0.8993   -1.7291 H   0  0  0  0  0 15  0  0  0  0  0  0
   58.8229    2.4047   -1.9895 H   0  0  0  0  0 15  0  0  0  0  0  0
   59.1240    1.2308    0.9843 N   0  0  0  0  0 15  0  0  0  0  0  0
   60.0870    1.0098    2.0576 C   0  0  0  0  0 15  0  0  0  0  0  0
   61.0870   -0.0270    1.6078 C   0  0  0  0  0 15  0  0  0  0  0  0
   62.2770    0.2124    1.7290 O   0  0  0  0  0 15  0  0  0  0  0  0
   59.4090    0.5271    3.3680 C   0  0  0  0  0 15  0  0  0  0  0  0
   60.6020    1.9622    2.2680 H   0  0  0  0  0 15  0  0  0  0  0  0
   58.1550    1.0507    1.1571 H   0  0  0  0  0 15  0  0  0  0  0  0
   58.8900   -0.4293    3.2145 H   0  0  0  0  0 15  0  0  0  0  0  0
   58.6750    1.2752    3.7079 H   0  0  0  0  0 15  0  0  0  0  0  0
   60.1650    0.3929    4.1575 H   0  0  0  0  0 15  0  0  0  0  0  0
   60.6021   -1.1825    1.0419 N   0  0  0  0  0 15  0  0  0  0  0  0
   61.5491   -2.2192    0.6340 C   0  0  0  0  0 15  0  0  0  0  0  0
   62.5191   -1.6218   -0.3588 C   0  0  0  0  0 15  0  0  0  0  0  0
   63.7041   -1.8912   -0.2525 O   0  0  0  0  0 15  0  0  0  0  0  0
   60.8441   -3.4510    0.0045 C   0  0  0  0  0 15  0  0  0  0  0  0
   59.9571   -4.1917    1.0449 C   0  0  0  0  0 15  0  0  0  0  0  0
   59.0921   -5.2981    0.3837 C   0  0  0  0  0 15  0  0  0  0  0  0
   58.1311   -5.9566    1.4091 C   0  0  0  0  0 15  0  0  0  0  0  0
   57.2681   -6.9783    0.7728 N   0  0  0  0  0 15  0  0  0  0  0  0
   62.1081   -2.5616    1.5226 H   0  0  0  0  0 15  0  0  0  0  0  0
   59.6451   -1.2584    0.7617 H   0  0  0  0  0 15  0  0  0  0  0  0
   61.6031   -4.1548   -0.3779 H   0  0  0  0  0 15  0  0  0  0  0  0
   60.2331   -3.1147   -0.8477 H   0  0  0  0  0 15  0  0  0  0  0  0
   59.2851   -3.4760    1.5452 H   0  0  0  0  0 15  0  0  0  0  0  0
   60.5971   -4.6427    1.8237 H   0  0  0  0  0 15  0  0  0  0  0  0
   59.7511   -6.0668   -0.0528 H   0  0  0  0  0 15  0  0  0  0  0  0
   58.4901   -4.8583   -0.4272 H   0  0  0  0  0 15  0  0  0  0  0  0
   57.4951   -5.1753    1.8557 H   0  0  0  0  0 15  0  0  0  0  0  0
   58.7201   -6.4173    2.2217 H   0  0  0  0  0 15  0  0  0  0  0  0
   56.6661   -6.5600   -0.0178 H   0  0  0  0  0 15  0  0  0  0  0  0
   56.5831   -7.4119    1.4893 H   0  0  0  0  0 15  0  0  0  0  0  0
   57.8511   -7.7866    0.3607 H   0  0  0  0  0 15  0  0  0  0  0  0
   62.0802   -0.8215   -1.3449 N   0  0  0  0  0 15  0  0  0  0  0  0
   63.3082   -0.4219   -2.0255 C   0  0  0  0  0 15  0  0  0  0  0  0
   63.7232    0.9717   -1.6187 C   0  0  0  0  0 15  0  0  0  0  0  0
   63.0802    1.6286   -0.8235 O   0  0  0  0  0 15  0  0  0  0  0  0
   63.1312   -0.5128   -3.5784 C   0  0  0  0  0 15  0  0  0  0  0  0
   62.8522   -1.8516   -3.9705 O   0  0  0  0  0 15  0  0  0  0  0  0
   64.3532   -0.1079   -4.4317 C   0  0  0  0  0 15  0  0  0  0  0  0
   61.5732   -0.1695   -0.6492 H   0  0  0  0  0 15  0  0  0  0  0  0
   64.1172   -1.1093   -1.7180 H   0  0  0  0  0 15  0  0  0  0  0  0
   62.2722    0.1265   -3.8719 H   0  0  0  0  0 15  0  0  0  0  0  0
   62.6862   -1.8248   -4.9173 H   0  0  0  0  0 15  0  0  0  0  0  0
   64.1602   -0.2227   -5.5155 H   0  0  0  0  0 15  0  0  0  0  0  0
   64.6372    0.9484   -4.2884 H   0  0  0  0  0 15  0  0  0  0  0  0
   65.2432   -0.7210   -4.1914 H   0  0  0  0  0 15  0  0  0  0  0  0
   63.5583    1.4668   -0.5764 N   0  0  0  0  0 15  0  0  0  0  0  0
   64.8043    2.0271   -0.0596 C   0  0  0  0  0 15  0  0  0  0  0  0
   65.1373    1.4477    1.2945 C   0  0  0  0  0 15  0  0  0  0  0  0
   64.4123    0.6104    1.8468 O   0  0  0  0  0 15  0  0  0  0  0  0
   64.6953    3.6010    0.0130 C   0  0  0  0  0 15  0  0  0  0  0  0
   64.5483    4.2844   -1.3696 C   0  0  0  0  0 15  0  0  0  0  0  0
   65.8673    4.3422    0.7168 C   0  0  0  0  0 15  0  0  0  0  0  0
   62.9863    0.7366   -0.0231 H   0  0  0  0  0 15  0  0  0  0  0  0
   65.6283    1.7490   -0.7424 H   0  0  0  0  0 15  0  0  0  0  0  0
   63.7783    3.8393    0.5944 H   0  0  0  0  0 15  0  0  0  0  0  0
   65.4503    4.1590   -1.9957 H   0  0  0  0  0 15  0  0  0  0  0  0
   63.6933    3.8805   -1.9391 H   0  0  0  0  0 15  0  0  0  0  0  0
   64.3643    5.3716   -1.2714 H   0  0  0  0  0 15  0  0  0  0  0  0
   66.8403    4.1550    0.2229 H   0  0  0  0  0 15  0  0  0  0  0  0
   65.7163    5.4394    0.7366 H   0  0  0  0  0 15  0  0  0  0  0  0
   65.9773    4.0482    1.7768 H   0  0  0  0  0 15  0  0  0  0  0  0
   65.0753    0.4559    1.5493 O   0  0  0  0  0 15  0  0  0  0  0  0
   65.7663   -0.0732    1.9356 H   0  0  0  0  0 15  0  0  0  0  0  0
M  END
$$$$
