drugbank_target|P28329 Choline O-acetyltransferase (DB00184)
 OpenBabel12092119333D

  0  0  0     0  0            999 V3000
M  V30 BEGIN CTAB
M  V30 COUNTS 11605 11736 0 0 0
M  V30 BEGIN ATOM
M  V30 1 H -0.908 1.98254 -0.117106 0
M  V30 2 N 0 1.576 0 0
M  V30 3 C 0.933 2.03868 1.02534 0
M  V30 4 C 1.911 0.928543 1.3348 0
M  V30 5 O 3.095 1.19667 1.45644 0
M  V30 6 C 0.222 2.43627 2.35294 0
M  V30 7 C -0.732 3.65373 2.2001 0
M  V30 8 S 0.101 5.13292 1.52614 0
M  V30 9 C 1.257 5.56322 2.86805 0
M  V30 10 H 1.49 2.90518 0.631377 0
M  V30 11 H -0.977 1.52953 0.210867 0
M  V30 12 H 0.981 2.67203 3.11629 0
M  V30 13 H -0.358 1.57376 2.7183 0
M  V30 14 H -1.165 3.90944 3.18086 0
M  V30 15 H -1.563 3.418 1.51819 0
M  V30 16 H 0.729 5.58782 3.83104 0
M  V30 17 H 1.672 6.56266 2.65933 0
M  V30 18 H 2.08 4.83886 2.90714 0
M  V30 19 N 1.4781 -0.272755 1.55222 0
M  V30 20 C 2.7261 -1.00234 1.75492 0
M  V30 21 C 3.0471 -1.8681 0.5592 0
M  V30 22 O 2.3171 -1.91215 -0.425882 0
M  V30 23 H 0.8971 -0.373076 0.647166 0
M  V30 24 H 3.5591 -0.296926 1.92625 0
M  V30 25 H 2.6551 -1.63913 2.65592 0
M  V30 26 N 2.9562 -1.48159 -0.537278 0
M  V30 27 C 3.8862 -1.65029 -1.6519 0
M  V30 28 C 4.8672 -0.499281 -1.62607 0
M  V30 29 O 6.0522 -0.730972 -1.79918 0
M  V30 30 C 3.1822 -1.68303 -3.03795 0
M  V30 31 C 2.1362 -2.8283 -3.21234 0
M  V30 32 C 1.4622 -2.71189 -4.60826 0
M  V30 33 C 2.7622 -4.24211 -3.04701 0
M  V30 34 H 4.4562 -2.58341 -1.51328 0
M  V30 35 H 2.0022 -1.24325 -0.726585 0
M  V30 36 H 3.9552 -1.78693 -3.81637 0
M  V30 37 H 2.6792 -0.715635 -3.18663 0
M  V30 38 H 1.3382 -2.71983 -2.45807 0
M  V30 39 H 0.9862 -1.72435 -4.7252 0
M  V30 40 H 0.6862 -3.48035 -4.7344 0
M  V30 41 H 2.2102 -2.83537 -5.40777 0
M  V30 42 H 3.6242 -4.3593 -3.72341 0
M  V30 43 H 2.0212 -5.01998 -3.28813 0
M  V30 44 H 3.0912 -4.41184 -2.01209 0
M  V30 45 N 4.4343 0.785586 -1.36625 0
M  V30 46 C 5.8503 1.08419 -1.17122 0
M  V30 47 C 6.0503 2.015 0.00208491 0
M  V30 48 O 5.1063 2.43551 0.666278 0
M  V30 49 C 6.4193 1.69498 -2.48377 0
M  V30 50 C 7.9673 1.81821 -2.54775 0
M  V30 51 C 8.4423 2.46315 -3.86126 0
M  V30 52 N 9.9333 2.53779 -3.87492 0
M  V30 53 C 10.6683 3.045 -4.85868 0
M  V30 54 N 10.1643 3.55499 -5.94637 0
M  V30 55 N 11.9573 3.03247 -4.73284 0
M  V30 56 H 4.1083 0.167264 -2.1174 0
M  V30 57 H 6.3713 0.13682 -0.938075 0
M  V30 58 H 6.0773 1.08571 -3.34522 0
M  V30 59 H 5.9513 2.6896 -2.64462 0
M  V30 60 H 8.3383 2.41884 -1.69045 0
M  V30 61 H 8.4193 0.811532 -2.42586 0
M  V30 62 H 8.0633 1.86895 -4.72263 0
M  V30 63 H 7.9933 3.47561 -3.95612 0
M  V30 64 H 10.4843 2.17672 -3.08913 0
M  V30 65 H 10.7973 3.92562 -6.65669 0
M  V30 66 H 9.1423 3.5364 -5.98301 0
M  V30 67 H 12.3333 2.62696 -3.87438 0
M  V30 68 H 12.5063 3.42467 -5.50109 0
M  V30 69 N 5.9124 1.20967 1.01018 0
M  V30 70 C 7.1404 1.04956 1.78303 0
M  V30 71 C 7.5554 -0.400915 1.84494 0
M  V30 72 O 6.9124 -1.27826 1.30257 0
M  V30 73 C 6.9634 1.63403 3.22462 0
M  V30 74 O 6.6844 3.02775 3.16637 0
M  V30 75 C 8.1854 1.52432 4.16268 0
M  V30 76 H 5.4054 0.368858 0.560522 0
M  V30 77 H 7.9494 1.60193 1.27116 0
M  V30 78 H 6.1044 1.1227 3.70775 0
M  V30 79 H 6.5184 3.30626 4.07169 0
M  V30 80 H 7.9924 1.98078 5.15237 0
M  V30 81 H 8.4694 0.477875 4.36592 0
M  V30 82 H 9.0754 2.02787 3.73841 0
M  V30 83 N 7.3905 -1.2043 1.01659 0
M  V30 84 C 8.3535 -2.21433 0.591616 0
M  V30 85 C 9.3535 -1.57203 -0.338226 0
M  V30 86 O 10.5435 -1.73737 -0.126918 0
M  V30 87 C 7.6755 -3.40628 -0.136058 0
M  V30 88 H 8.8685 -2.60545 1.48514 0
M  V30 89 H 6.4215 -1.33893 0.806379 0
M  V30 90 H 7.1565 -3.07019 -1.04449 0
M  V30 91 H 6.9415 -3.88475 0.531917 0
M  V30 92 H 8.4315 -4.15475 -0.420735 0
M  V30 93 N 8.8686 -0.792821 -1.36206 0
M  V30 94 C 9.8156 -0.191653 -2.30003 0
M  V30 95 C 10.7856 0.666453 -1.52143 0
M  V30 96 O 11.9706 0.61442 -1.80636 0
M  V30 97 C 9.1106 0.664848 -3.38635 0
M  V30 98 C 8.2236 -0.212175 -4.31479 0
M  V30 99 C 7.3586 0.651022 -5.27196 0
M  V30 100 C 6.3976 -0.227247 -6.11678 0
M  V30 101 N 5.5346 0.595127 -6.99573 0
M  V30 102 H 10.3746 -0.996978 -2.80828 0
M  V30 103 H 7.9116 -0.503206 -1.38225 0
M  V30 104 H 9.8696 1.17645 -4.00269 0
M  V30 105 H 8.4996 1.43557 -2.89122 0
M  V30 106 H 7.5516 -0.841777 -3.70969 0
M  V30 107 H 8.8636 -0.888751 -4.90818 0
M  V30 108 H 8.0176 1.2283 -5.94136 0
M  V30 109 H 6.7566 1.36121 -4.68319 0
M  V30 110 H 5.7616 -0.816904 -5.43697 0
M  V30 111 H 6.9866 -0.93509 -6.72631 0
M  V30 112 H 4.9326 1.28955 -6.432 0
M  V30 113 H 4.8496 -0.0236952 -7.55996 0
M  V30 114 H 6.1176 1.15613 -7.70879 0
M  V30 115 N 10.3467 1.47872 -0.545128 0
M  V30 116 C 11.2937 2.29849 0.2093 0
M  V30 117 C 12.2637 1.38313 0.919707 0
M  V30 118 O 13.4487 1.67277 0.917772 0
M  V30 119 C 10.5887 3.22019 1.24088 0
M  V30 120 C 9.7017 4.2864 0.537778 0
M  V30 121 C 8.8367 5.07973 1.5536 0
M  V30 122 C 7.8757 6.06381 0.8348 0
M  V30 123 N 7.0127 6.78717 1.79688 0
M  V30 124 H 11.8527 2.93845 -0.49591 0
M  V30 125 H 9.3897 1.44848 -0.256389 0
M  V30 126 H 11.3477 3.73868 1.85144 0
M  V30 127 H 9.9777 2.59914 1.91428 0
M  V30 128 H 9.0297 3.7994 -0.187046 0
M  V30 129 H 10.3417 4.98793 -0.0258907 0
M  V30 130 H 9.4957 5.63912 2.23803 0
M  V30 131 H 8.2347 4.37693 2.15118 0
M  V30 132 H 7.2397 5.49631 0.136388 0
M  V30 133 H 8.4647 6.78665 0.24313 0
M  V30 134 H 6.4107 6.11177 2.38326 0
M  V30 135 H 6.3277 7.44998 1.28505 0
M  V30 136 H 7.5957 7.39237 2.47282 0
M  V30 137 N 11.8248 0.280983 1.55075 0
M  V30 138 C 13.2408 -0.0729964 1.59433 0
M  V30 139 C 13.4408 -1.5411 1.29817 0
M  V30 140 O 12.4968 -2.29086 1.06187 0
M  V30 141 C 13.8098 0.306921 2.9913 0
M  V30 142 C 15.3578 0.254023 3.11968 0
M  V30 143 C 15.8328 0.608467 4.5394 0
M  V30 144 N 17.3238 0.560241 4.59799 0
M  V30 145 C 18.0588 0.80722 5.6769 0
M  V30 146 N 17.5548 1.11912 6.83701 0
M  V30 147 N 19.3478 0.735623 5.57266 0
M  V30 148 H 11.4988 1.238 1.7259 0
M  V30 149 H 13.7618 0.500547 0.805082 0
M  V30 150 H 13.4678 1.32816 3.25657 0
M  V30 151 H 13.3418 -0.349363 3.75579 0
M  V30 152 H 15.7288 -0.75794 2.852 0
M  V30 153 H 15.8098 0.944649 2.37718 0
M  V30 154 H 15.4538 1.61814 4.81434 0
M  V30 155 H 15.3838 -0.104013 5.26497 0
M  V30 156 H 17.8748 0.329288 3.76463 0
M  V30 157 H 18.1878 1.29409 7.61888 0
M  V30 158 H 16.5328 1.15695 6.85303 0
M  V30 159 H 19.7238 0.491752 4.6551 0
M  V30 160 H 19.8968 0.931482 6.4127 0
M  V30 161 N 13.3029 -1.57598 0.00835791 0
M  V30 162 C 14.5509 -1.90551 -0.6734 0
M  V30 163 C 14.8719 -0.883301 -1.73847 0
M  V30 164 O 14.1419 0.0781442 -1.95744 0
M  V30 165 H 12.7219 -0.703312 -0.251717 0
M  V30 166 H 15.3839 -1.94833 0.0512592 0
M  V30 167 H 14.4799 -2.9056 -1.13935 0
M  V30 168 N 14.781 0.264519 -1.55364 0
M  V30 169 C 15.711 1.33121 -1.91836 0
M  V30 170 C 16.692 1.51101 -0.781192 0
M  V30 171 O 17.877 1.64003 -1.04003 0
M  V30 172 C 15.007 2.68921 -2.19769 0
M  V30 173 C 13.961 2.65661 -3.35571 0
M  V30 174 C 13.287 4.05093 -3.49004 0
M  V30 175 C 14.587 2.24187 -4.71739 0
M  V30 176 H 16.281 1.02844 -2.81182 0
M  V30 177 H 13.827 0.493286 -1.35287 0
M  V30 178 H 15.78 3.43663 -2.43872 0
M  V30 179 H 14.504 3.00799 -1.27231 0
M  V30 180 H 13.163 1.93377 -3.1145 0
M  V30 181 H 12.811 4.34206 -2.53917 0
M  V30 182 H 12.511 4.03804 -4.26868 0
M  V30 183 H 14.035 4.81561 -3.75408 0
M  V30 184 H 15.449 2.88654 -4.9533 0
M  V30 185 H 13.846 2.34044 -5.52579 0
M  V30 186 H 14.916 1.19327 -4.69988 0
M  V30 187 N 16.2591 1.48442 0.529413 0
M  V30 188 C 17.5071 1.56179 1.28267 0
M  V30 189 C 17.8281 0.237721 1.93546 0
M  V30 190 O 17.0981 -0.740779 1.81354 0
M  V30 191 H 15.6781 0.575367 0.476405 0
M  V30 192 H 18.3401 1.84909 0.61602 0
M  V30 193 H 17.4361 2.34312 2.06165 0
M  V30 194 N 17.7372 -0.778329 1.37039 0
M  V30 195 C 18.9852 -1.53361 1.31623 0
M  V30 196 C 19.3062 -1.94739 -0.100831 0
M  V30 197 O 18.5762 -1.65797 -1.04347 0
M  V30 198 H 17.1562 -0.568794 0.484234 0
M  V30 199 H 19.8182 -0.926742 1.71457 0
M  V30 200 H 18.9142 -2.43606 1.95096 0
M  V30 201 N 19.2153 -1.21501 -1.00376 0
M  V30 202 C 20.4633 -1.03095 -1.73827 0
M  V30 203 C 20.7843 0.436341 -1.90055 0
M  V30 204 O 20.0543 1.31466 -1.45236 0
M  V30 205 H 18.6343 -0.378487 -0.644016 0
M  V30 206 H 21.2963 -1.52831 -1.20949 0
M  V30 207 H 20.3923 -1.49991 -2.73695 0
M  V30 208 N 20.6934 1.19889 -1.02296 0
M  V30 209 C 21.9414 1.89046 -0.714558 0
M  V30 210 C 22.2624 1.79636 0.758681 0
M  V30 211 O 21.5324 1.20292 1.54618 0
M  V30 212 H 20.1124 0.699802 -0.261317 0
M  V30 213 H 22.7744 1.45574 -1.29592 0
M  V30 214 H 21.8704 2.95524 -1.0036 0
M  V30 215 N 22.1715 0.800033 1.35784 0
M  V30 216 C 23.1185 0.203848 2.29898 0
M  V30 217 C 24.0885 -0.658375 1.52495 0
M  V30 218 O 25.2735 -0.604832 1.8096 0
M  V30 219 C 22.4135 -0.64688 3.38983 0
M  V30 220 C 21.5265 0.235054 4.3136 0
M  V30 221 C 20.6615 -0.623054 5.27533 0
M  V30 222 C 19.7005 0.259682 6.11549 0
M  V30 223 N 18.8375 -0.558019 6.99879 0
M  V30 224 H 23.6775 1.01186 2.80295 0
M  V30 225 H 21.2145 0.51053 1.37957 0
M  V30 226 H 23.1725 -1.15521 4.00887 0
M  V30 227 H 21.8025 -1.42021 2.89879 0
M  V30 228 H 20.8545 0.861438 3.70518 0
M  V30 229 H 22.1665 0.914768 4.9034 0
M  V30 230 H 21.3205 -1.19678 5.94779 0
M  V30 231 H 20.0595 -1.33636 4.69034 0
M  V30 232 H 19.0645 0.845726 5.43256 0
M  V30 233 H 20.2895 0.970748 6.72126 0
M  V30 234 H 18.2355 -1.25542 6.43875 0
M  V30 235 H 18.1525 0.0637872 7.55973 0
M  V30 236 H 19.4205 -1.11523 7.71481 0
M  V30 237 N 23.6496 -1.47581 0.552962 0
M  V30 238 C 24.8956 -2.03369 0.0355807 0
M  V30 239 C 25.2506 -1.42016 -1.29805 0
M  V30 240 O 24.5436 -0.564917 -1.83083 0
M  V30 241 C 24.7376 -3.57199 -0.119728 0
M  V30 242 C 24.5666 -4.33468 1.1973 0
M  V30 243 C 23.3366 -4.7353 1.76345 0
M  V30 244 C 25.5346 -4.68866 2.11351 0
M  V30 245 N 23.5166 -5.34426 3.02097 0
M  V30 246 C 24.8876 -5.3002 3.21681 0
M  V30 247 C 26.9426 -4.50795 2.11397 0
M  V30 248 C 25.6456 -5.75011 4.32151 0
M  V30 249 C 27.6716 -4.96782 3.20876 0
M  V30 250 C 27.0336 -5.57981 4.29926 0
M  V30 251 H 23.1326 -0.780058 0.0550806 0
M  V30 252 H 25.7166 -1.80117 0.739315 0
M  V30 253 H 23.8876 -3.80227 -0.792579 0
M  V30 254 H 25.6196 -3.99627 -0.638792 0
M  V30 255 H 22.3746 -4.55352 1.30196 0
M  V30 256 H 22.7986 -5.69421 3.66182 0
M  V30 257 H 27.4406 -4.0284 1.28372 0
M  V30 258 H 25.1586 -6.21959 5.15938 0
M  V30 259 H 28.7446 -4.84573 3.21994 0
M  V30 260 H 27.6246 -5.92918 5.13243 0
M  V30 261 N 25.1277 -0.289203 -1.54924 0
M  V30 262 C 26.0747 0.592115 -2.23075 0
M  V30 263 C 27.0447 1.13881 -1.20915 0
M  V30 264 O 28.2297 1.18551 -1.495 0
M  V30 265 C 25.3697 1.76376 -2.96623 0
M  V30 266 C 24.4827 1.24959 -4.13533 0
M  V30 267 C 23.6177 2.38416 -4.74691 0
M  V30 268 C 22.6567 1.84072 -5.83767 0
M  V30 269 N 21.7937 2.91057 -6.38929 0
M  V30 270 H 26.6337 0.00432038 -2.98 0
M  V30 271 H 24.1707 -0.00963529 -1.47097 0
M  V30 272 H 26.1287 2.45268 -3.3749 0
M  V30 273 H 24.7587 2.32337 -2.24097 0
M  V30 274 H 23.8107 0.453307 -3.77689 0
M  V30 275 H 25.1227 0.811662 -4.92152 0
M  V30 276 H 24.2767 3.15276 -5.18349 0
M  V30 277 H 23.0157 2.8553 -3.95378 0
M  V30 278 H 22.0207 1.05697 -5.39545 0
M  V30 279 H 23.2457 1.37877 -6.64956 0
M  V30 280 H 21.1917 3.37526 -5.62505 0
M  V30 281 H 21.1087 2.51724 -7.12861 0
M  V30 282 H 22.3767 3.6785 -6.87246 0
M  V30 283 N 26.6058 1.57591 -0.0167156 0
M  V30 284 C 28.0218 1.55946 0.339557 0
M  V30 285 C 28.2218 1.02109 1.73713 0
M  V30 286 O 27.2778 0.662303 2.43659 0
M  V30 287 C 28.5908 3.00037 0.199499 0
M  V30 288 C 30.1388 3.11805 0.273193 0
M  V30 289 C 30.6138 4.57713 0.162068 0
M  V30 290 N 32.1048 4.6268 0.219444 0
M  V30 291 C 32.8398 5.73185 0.157054 0
M  V30 292 N 32.3358 6.92786 0.0442936 0
M  V30 293 N 34.1288 5.61707 0.21014 0
M  V30 294 H 26.2798 1.90921 -0.930758 0
M  V30 295 H 28.5428 0.877674 -0.358319 0
M  V30 296 H 28.2488 3.4333 -0.76273 0
M  V30 297 H 28.1228 3.64387 0.974786 0
M  V30 298 H 30.5098 2.68433 1.22587 0
M  V30 299 H 30.5908 2.50201 -0.532256 0
M  V30 300 H 30.2348 5.01763 -0.78714 0
M  V30 301 H 30.1648 5.17283 0.986222 0
M  V30 302 H 32.6558 3.76649 0.307246 0
M  V30 303 H 32.9688 7.728 0.00304069 0
M  V30 304 H 31.3138 6.94999 0.00968457 0
M  V30 305 H 34.5048 4.6716 0.296546 0
M  V30 306 H 34.6778 6.47807 0.158054 0
M  V30 307 N 28.0839 -0.256276 1.55502 0
M  V30 308 C 28.9939 -1.33882 1.92647 0
M  V30 309 C 30.0099 -1.53159 0.825727 0
M  V30 310 O 31.1859 -1.66963 1.12629 0
M  V30 311 C 28.2509 -2.6751 2.20543 0
M  V30 312 C 27.3119 -2.56836 3.43997 0
M  V30 313 C 26.5449 -3.84092 3.70553 0
M  V30 314 O 26.7679 -4.85545 2.99336 0
M  V30 315 O 25.7019 -3.83288 4.64084 0
M  V30 316 H 29.5279 -1.05374 2.84833 0
M  V30 317 H 27.1129 -0.456237 1.42263 0
M  V30 318 H 28.9949 -3.46492 2.39835 0
M  V30 319 H 27.6699 -2.9577 1.31536 0
M  V30 320 H 26.5769 -1.76172 3.30021 0
M  V30 321 H 27.9099 -2.33523 4.33275 0
M  V30 322 N 29.562 -1.4872 -0.521534 0
M  V30 323 C 30.472 -1.66569 -1.65203 0
M  V30 324 C 31.488 -0.548197 -1.65139 0
M  V30 325 O 32.664 -0.820339 -1.83936 0
M  V30 326 C 29.729 -1.70917 -3.01642 0
M  V30 327 C 28.79 -2.94356 -3.12495 0
M  V30 328 C 28.023 -2.98487 -4.42426 0
M  V30 329 O 28.246 -2.10786 -5.30024 0
M  V30 330 O 27.18 -3.90746 -4.57822 0
M  V30 331 H 31.006 -2.62298 -1.5308 0
M  V30 332 H 28.591 -1.3222 -0.695565 0
M  V30 333 H 30.473 -1.7625 -3.82771 0
M  V30 334 H 29.148 -0.783633 -3.14071 0
M  V30 335 H 28.055 -2.94552 -2.3063 0
M  V30 336 H 29.388 -3.86322 -3.04986 0
M  V30 337 N 31.0401 0.771051 -1.3745 0
M  V30 338 C 32.2881 1.52661 -1.32435 0
M  V30 339 C 32.6091 1.9479 0.0905024 0
M  V30 340 O 31.8791 1.66348 1.03466 0
M  V30 341 H 30.4591 0.566218 -0.487244 0
M  V30 342 H 33.1211 0.917636 -1.71946 0
M  V30 343 H 32.2171 2.42568 -1.96385 0
M  V30 344 N 32.5182 1.22032 0.997298 0
M  V30 345 C 33.7662 1.04016 1.73278 0
M  V30 346 C 34.0872 -0.426255 1.90284 0
M  V30 347 O 33.3572 -1.30694 1.45931 0
M  V30 348 H 31.9372 0.381897 0.642 0
M  V30 349 H 34.5992 1.5347 1.20137 0
M  V30 350 H 33.6952 1.51441 2.72896 0
M  V30 351 N 33.9963 -1.19345 1.0293 0
M  V30 352 C 35.2443 -1.88665 0.724574 0
M  V30 353 C 35.5653 -1.80036 -0.749144 0
M  V30 354 O 34.8353 -1.2111 -1.53978 0
M  V30 355 H 33.4153 -0.698406 0.265025 0
M  V30 356 H 36.0773 -1.44885 1.30362 0
M  V30 357 H 35.1733 -2.94987 1.01926 0
M  V30 358 N 35.4744 -0.807222 -1.35358 0
M  V30 359 C 36.7024 -0.400377 -2.02989 0
M  V30 360 C 37.1174 0.988859 -1.60832 0
M  V30 361 O 36.4744 1.63729 -0.806175 0
M  V30 362 C 36.5254 -0.474867 -3.58368 0
M  V30 363 O 36.2464 -1.80933 -3.98992 0
M  V30 364 C 37.7474 -0.0609112 -4.43258 0
M  V30 365 H 34.9674 -0.162587 -0.651004 0
M  V30 366 H 37.5114 -1.09102 -1.72965 0
M  V30 367 H 35.6664 0.167534 -3.87038 0
M  V30 368 H 36.0804 -1.77256 -4.9364 0
M  V30 369 H 37.5544 -0.164145 -5.51756 0
M  V30 370 H 38.0314 0.993831 -4.27808 0
M  V30 371 H 38.6374 -0.676492 -4.19885 0
M  V30 372 N 36.9525 1.47285 -0.560781 0
M  V30 373 C 38.3685 1.58065 -0.22081 0
M  V30 374 C 38.5685 1.55892 1.27671 0
M  V30 375 O 37.6245 1.46422 2.0571 0
M  V30 376 C 38.9375 2.88418 -0.850625 0
M  V30 377 C 40.4855 3.02009 -0.822184 0
M  V30 378 C 40.9605 4.35066 -1.43113 0
M  V30 379 N 42.4515 4.41711 -1.39448 0
M  V30 380 C 43.1865 5.43237 -1.83525 0
M  V30 381 N 42.6825 6.51555 -2.35474 0
M  V30 382 N 44.4755 5.34304 -1.74574 0
M  V30 383 H 36.6265 1.46941 -1.53369 0
M  V30 384 H 38.8895 0.699558 -0.639783 0
M  V30 385 H 38.5955 2.95755 -1.9032 0
M  V30 386 H 38.4695 3.75612 -0.345773 0
M  V30 387 H 40.8565 2.94266 0.221714 0
M  V30 388 H 40.9375 2.16347 -1.36483 0
M  V30 389 H 40.5815 4.43565 -2.47412 0
M  V30 390 H 40.5115 5.19465 -0.863899 0
M  V30 391 H 43.0025 3.64027 -1.01452 0
M  V30 392 H 43.3155 7.25203 -2.67021 0
M  V30 393 H 41.6605 6.52435 -2.39487 0
M  V30 394 H 44.8515 4.48581 -1.33763 0
M  V30 395 H 45.0245 6.13288 -2.09242 0
M  V30 396 N 38.4306 0.297415 1.54768 0
M  V30 397 C 39.6786 -0.312295 1.99673 0
M  V30 398 C 39.9996 -1.54686 1.18732 0
M  V30 399 O 39.2696 -1.93854 0.282382 0
M  V30 400 H 37.8496 -0.118381 0.73756 0
M  V30 401 H 40.5116 0.407915 1.90583 0
M  V30 402 H 39.6076 -0.586813 3.06534 0
M  V30 403 N 39.9087 -1.5758 0.0250728 0
M  V30 404 C 41.3247 -1.56124 -0.331282 0
M  V30 405 C 41.5247 -1.03029 -1.73169 0
M  V30 406 O 40.5807 -0.675215 -2.43305 0
M  V30 407 C 41.8937 -3.00139 -0.183584 0
M  V30 408 C 43.4417 -3.11946 -0.256654 0
M  V30 409 C 43.9167 -4.57793 -0.137792 0
M  V30 410 N 45.4077 -4.6279 -0.194904 0
M  V30 411 C 46.1427 -5.7326 -0.126655 0
M  V30 412 N 45.6387 -6.928 -0.00755288 0
M  V30 413 N 47.4317 -5.61811 -0.180348 0
M  V30 414 H 39.5827 -1.90424 0.94087 0
M  V30 415 H 41.8457 -0.875761 0.362968 0
M  V30 416 H 41.5517 -3.4292 0.780927 0
M  V30 417 H 41.4257 -3.64899 -0.955448 0
M  V30 418 H 43.8127 -2.69079 -1.21162 0
M  V30 419 H 43.8937 -2.49915 0.545517 0
M  V30 420 H 43.5377 -5.01339 0.813739 0
M  V30 421 H 43.4677 -5.17798 -0.958775 0
M  V30 422 H 45.9587 -3.76807 -0.287267 0
M  V30 423 H 46.2717 -7.72791 0.0379428 0
M  V30 424 H 44.6167 -6.94995 0.0271731 0
M  V30 425 H 47.8077 -4.6731 -0.271767 0
M  V30 426 H 47.9807 -6.47882 -0.123697 0
M  V30 427 N 41.3868 0.248026 -1.55636 0
M  V30 428 C 42.8028 0.596483 -1.48035 0
M  V30 429 C 43.0028 1.88386 -0.715039 0
M  V30 430 O 42.0588 2.51319 -0.243944 0
M  V30 431 C 43.3718 0.700258 -2.92433 0
M  V30 432 C 44.9198 0.792659 -3.02797 0
M  V30 433 C 45.3948 0.928005 -4.485 0
M  V30 434 N 46.8858 0.992903 -4.52433 0
M  V30 435 C 47.6208 1.11687 -5.62418 0
M  V30 436 N 47.1168 1.20645 -6.82214 0
M  V30 437 N 48.9098 1.14994 -5.50212 0
M  V30 438 H 41.0608 -0.597109 -2.03834 0
M  V30 439 H 43.3238 -0.205925 -0.925364 0
M  V30 440 H 43.0298 -0.175658 -3.51261 0
M  V30 441 H 42.9038 1.57255 -3.42857 0
M  V30 442 H 45.2908 1.65903 -2.4405 0
M  V30 443 H 45.3718 -0.104762 -2.55585 0
M  V30 444 H 45.0158 0.0661971 -5.07857 0
M  V30 445 H 44.9458 1.84045 -4.93391 0
M  V30 446 H 47.4368 0.935064 -3.66149 0
M  V30 447 H 47.7498 1.30008 -7.61786 0
M  V30 448 H 46.0948 1.17605 -6.84977 0
M  V30 449 H 49.2858 1.07643 -4.55555 0
M  V30 450 H 49.4588 1.24311 -6.35965 0
M  V30 451 N 42.8649 1.48995 0.513639 0
M  V30 452 C 43.7749 1.67443 1.64317 0
M  V30 453 C 44.7909 0.556947 1.64846 0
M  V30 454 O 45.9669 0.830082 1.83498 0
M  V30 455 C 43.0319 1.72515 3.00732 0
M  V30 456 C 42.0929 2.96009 3.1093 0
M  V30 457 C 41.3259 3.00829 4.40837 0
M  V30 458 O 41.5489 2.13594 5.28898 0
M  V30 459 O 40.4829 3.93168 4.55744 0
M  V30 460 H 44.3089 2.63106 1.51687 0
M  V30 461 H 41.8939 1.32588 0.688543 0
M  V30 462 H 43.7759 1.78277 3.81831 0
M  V30 463 H 42.4509 0.800278 3.13651 0
M  V30 464 H 41.3579 2.9577 2.29065 0
M  V30 465 H 42.6909 3.87934 3.02933 0
M  V30 466 N 44.343 -0.763751 1.37857 0
M  V30 467 C 45.589 -1.52483 1.33704 0
M  V30 468 C 45.922 -1.94051 -0.0759612 0
M  V30 469 O 45.197 -1.64675 -1.03501 0
M  V30 470 C 45.48 -2.78441 2.28348 0
M  V30 471 C 45.333 -2.43075 3.78463 0
M  V30 472 C 46.652 -3.80415 2.21298 0
M  V30 473 H 43.771 -0.553169 0.487005 0
M  V30 474 H 46.413 -0.875562 1.68624 0
M  V30 475 H 44.563 -3.33842 1.987 0
M  V30 476 H 46.235 -1.93527 4.18742 0
M  V30 477 H 44.478 -1.75666 3.96641 0
M  V30 478 H 45.149 -3.33149 4.40132 0
M  V30 479 H 47.625 -3.34527 2.47449 0
M  V30 480 H 46.501 -4.66257 2.89647 0
M  V30 481 H 46.762 -4.25262 1.20849 0
M  V30 482 N 45.8211 -1.22559 -0.990812 0
M  V30 483 C 47.2371 -0.985996 -1.255 0
M  V30 484 C 47.4371 0.319173 -1.98956 0
M  V30 485 O 46.4931 1.04127 -2.3003 0
M  V30 486 C 47.8061 -2.18607 -2.06474 0
M  V30 487 C 49.3541 -2.22985 -2.19651 0
M  V30 488 C 49.8291 -3.4255 -3.04012 0
M  V30 489 N 51.3201 -3.42725 -3.11599 0
M  V30 490 C 52.0551 -4.31892 -3.7717 0
M  V30 491 N 51.5511 -5.31279 -4.44651 0
M  V30 492 N 53.3441 -4.19662 -3.73952 0
M  V30 493 H 45.4951 -2.06469 -0.49841 0
M  V30 494 H 47.7581 -0.904853 -0.282747 0
M  V30 495 H 47.4641 -3.13267 -1.59865 0
M  V30 496 H 47.3381 -2.18838 -3.07229 0
M  V30 497 H 49.7251 -1.28871 -2.65474 0
M  V30 498 H 49.8061 -2.26791 -1.18319 0
M  V30 499 H 49.4501 -4.36965 -2.58889 0
M  V30 500 H 49.3801 -3.35984 -4.0549 0
M  V30 501 H 51.8711 -2.70807 -2.63575 0
M  V30 502 H 52.1841 -5.95593 -4.92431 0
M  V30 503 H 50.5291 -5.3519 -4.43392 0
M  V30 504 H 53.7201 -3.41268 -3.20396 0
M  V30 505 H 53.8931 -4.89358 -4.24774 0
M  V30 506 N 47.2992 1.18797 -1.03562 0
M  V30 507 C 48.7102 1.70322 -0.764676 0
M  V30 508 C 49.0612 1.82708 0.714996 0
M  V30 509 O 48.1862 1.50299 1.55689 0
M  V30 510 C 48.7812 3.09356 -1.38145 0
M  V30 511 C 47.3402 3.58114 -1.15895 0
M  V30 512 C 46.4872 2.34798 -1.4753 0
M  V30 513 H 49.4382 1.03543 -1.20268 0
M  V30 514 H 49.4592 3.72378 -0.781977 0
M  V30 515 H 48.9712 3.00309 -2.45837 0
M  V30 516 H 47.0722 3.72464 -0.100544 0
M  V30 517 H 47.1852 4.4184 -1.8524 0
M  V30 518 H 45.5492 2.38464 -0.894829 0
M  V30 519 H 46.3322 2.28375 -2.56319 0
M  V30 520 N 48.7773 0.814389 1.34928 0
M  V30 521 C 49.7403 0.235759 2.27984 0
M  V30 522 C 50.7403 -0.581412 1.49921 0
M  V30 523 O 51.9303 -0.398758 1.69575 0
M  V30 524 C 49.0623 -0.670433 3.34242 0
M  V30 525 H 50.2553 1.05659 2.80671 0
M  V30 526 H 47.8083 0.585614 1.44915 0
M  V30 527 H 48.5433 -1.51466 2.86755 0
M  V30 528 H 48.3283 -0.0860822 3.92005 0
M  V30 529 H 49.8183 -1.06935 4.03676 0
M  V30 530 N 50.2554 -1.46986 0.568584 0
M  V30 531 C 51.4954 -2.04336 0.0512999 0
M  V30 532 C 51.8594 -1.43214 -1.27881 0
M  V30 533 O 53.0604 -1.91679 -1.88448 0
M  V30 534 C 51.3314 -3.57389 -0.0282328 0
M  V30 535 S 52.8904 -4.36056 -0.489991 0
M  V30 536 H 49.7084 -0.71034 0.0306349 0
M  V30 537 H 52.3104 -1.80212 0.757891 0
M  V30 538 H 51.0144 -3.99395 0.944011 0
M  V30 539 H 50.5454 -3.86028 -0.75803 0
M  V30 540 H 52.5604 -4.6441 -1.74752 0
M  V30 541 N 51.7335 -0.305618 -1.54608 0
M  V30 542 C 52.9805 0.302298 -2.00231 0
M  V30 543 C 53.3085 1.5354 -1.19398 0
M  V30 544 O 52.5635 1.93973 -0.259423 0
M  V30 545 C 52.8625 0.698983 -3.50498 0
M  V30 546 C 52.5285 -0.432903 -4.48817 0
M  V30 547 C 51.1905 -0.743622 -4.75419 0
M  V30 548 C 53.5425 -1.19409 -5.07337 0
M  V30 549 C 50.8705 -1.81857 -5.57804 0
M  V30 550 C 53.2225 -2.25899 -5.90891 0
M  V30 551 C 51.8865 -2.57572 -6.15803 0
M  V30 552 H 51.1565 0.110619 -0.732697 0
M  V30 553 H 53.8035 -0.425674 -1.86709 0
M  V30 554 H 52.1085 1.50711 -3.61654 0
M  V30 555 H 53.8055 1.1806 -3.83227 0
M  V30 556 H 50.3955 -0.18063 -4.28219 0
M  V30 557 H 54.5795 -0.967295 -4.86782 0
M  V30 558 H 49.8355 -2.06864 -5.75341 0
M  V30 559 H 54.0095 -2.85335 -6.35261 0
M  V30 560 H 51.6365 -3.40998 -6.7943 0
M  V30 561 N 53.2116 1.57565 -0.0334293 0
M  V30 562 C 54.1416 2.13511 0.945265 0
M  V30 563 C 55.1226 1.05231 1.33643 0
M  V30 564 O 56.3076 1.33084 1.41429 0
M  V30 565 C 53.4376 2.6657 2.22616 0
M  V30 566 C 52.3916 3.79676 1.97561 0
M  V30 567 C 51.7176 4.1918 3.31952 0
M  V30 568 C 53.0176 5.0557 1.31135 0
M  V30 569 H 54.7116 2.95538 0.479325 0
M  V30 570 H 52.2576 1.42166 0.229115 0
M  V30 571 H 54.2106 3.04344 2.91466 0
M  V30 572 H 52.9346 1.8171 2.71384 0
M  V30 573 H 51.5936 3.42347 1.31127 0
M  V30 574 H 51.2416 3.31296 3.78487 0
M  V30 575 H 50.9416 4.95402 3.15992 0
M  V30 576 H 52.4656 4.59541 4.02063 0
M  V30 577 H 53.8796 5.40903 1.89992 0
M  V30 578 H 52.2766 5.86818 1.25559 0
M  V30 579 H 53.3466 4.84062 0.284894 0
M  V30 580 N 54.6897 -0.239769 1.55765 0
M  V30 581 C 55.6217 -1.32001 1.87372 0
M  V30 582 C 56.6347 -1.43944 0.760522 0
M  V30 583 O 57.8237 -1.45167 1.0387 0
M  V30 584 C 54.9237 -2.69779 2.05115 0
M  V30 585 C 54.0967 -2.80014 3.36022 0
M  V30 586 C 53.1557 -3.98684 3.4342 0
M  V30 587 O 52.1817 -3.87877 4.16582 0
M  V30 588 N 53.3837 -5.12176 2.73232 0
M  V30 589 H 56.1487 -1.0522 2.80622 0
M  V30 590 H 53.7097 -0.429857 1.56089 0
M  V30 591 H 55.7017 -3.47517 2.07399 0
M  V30 592 H 54.2717 -2.89237 1.18577 0
M  V30 593 H 53.4917 -1.88896 3.45994 0
M  V30 594 H 54.7797 -2.83808 4.22292 0
M  V30 595 H 54.1777 -5.2385 2.13536 0
M  V30 596 H 52.7347 -5.88022 2.81199 0
M  V30 597 N 56.1678 -1.49265 -0.50573 0
M  V30 598 C 57.3928 -1.62478 -1.28902 0
M  V30 599 C 57.8178 -0.294332 -1.85783 0
M  V30 600 O 57.1758 0.737412 -1.65626 0
M  V30 601 C 57.2238 -2.69268 -2.39848 0
M  V30 602 O 56.3278 -2.28113 -3.43567 0
M  V30 603 H 55.6688 -0.54399 -0.380751 0
M  V30 604 H 58.1988 -1.95421 -0.605952 0
M  V30 605 H 58.2088 -2.91291 -2.85681 0
M  V30 606 H 56.8838 -3.65846 -1.97812 0
M  V30 607 H 55.4608 -2.16401 -3.03685 0
M  V30 608 N 57.6459 0.756429 -1.3826 0
M  V30 609 C 58.8939 1.51248 -1.34047 0
M  V30 610 C 59.2149 1.94875 0.0698372 0
M  V30 611 O 58.4849 1.67436 1.01696 0
M  V30 612 H 57.0649 0.561018 -0.493222 0
M  V30 613 H 59.7269 0.899347 -1.7291 0
M  V30 614 H 58.8229 2.40472 -1.98947 0
M  V30 615 N 59.124 1.23083 0.984299 0
M  V30 616 C 60.372 1.05848 1.72165 0
M  V30 617 C 60.693 -0.406049 1.90726 0
M  V30 618 O 59.963 -1.29139 1.47309 0
M  V30 619 H 58.543 0.388685 0.637913 0
M  V30 620 H 61.205 1.54736 1.18503 0
M  V30 621 H 60.301 1.54327 2.71274 0
M  V30 622 N 60.6021 -1.18246 1.0419 0
M  V30 623 C 62.0181 -1.40269 0.761366 0
M  V30 624 C 62.2181 -1.90777 -0.648578 0
M  V30 625 O 61.2741 -2.0929 -1.41258 0
M  V30 626 C 62.5871 -2.40237 1.8085 0
M  V30 627 C 64.1351 -2.53961 1.82955 0
M  V30 628 C 64.6101 -3.57194 2.86664 0
M  V30 629 N 66.1011 -3.64702 2.85563 0
M  V30 630 C 66.8361 -4.44309 3.6246 0
M  V30 631 N 66.3321 -5.27514 4.49111 0
M  V30 632 N 68.1251 -4.39084 3.50944 0
M  V30 633 H 60.2761 -0.837882 1.95175 0
M  V30 634 H 62.5391 -0.430608 0.84456 0
M  V30 635 H 62.2451 -2.10176 2.81991 0
M  V30 636 H 62.1191 -3.39601 1.64168 0
M  V30 637 H 64.5061 -2.83338 0.824855 0
M  V30 638 H 64.5871 -1.54706 2.03715 0
M  V30 639 H 64.2311 -3.28558 3.87314 0
M  V30 640 H 64.1611 -4.5613 2.6316 0
M  V30 641 H 66.6521 -3.05289 2.22727 0
M  V30 642 H 66.9651 -5.85411 5.04493 0
M  V30 643 H 65.3101 -5.2693 4.53178 0
M  V30 644 H 68.5011 -3.7313 2.82651 0
M  V30 645 H 68.6741 -5.00883 4.11121 0
M  V30 646 N 62.0802 -0.821533 -1.34494 0
M  V30 647 C 63.3282 -0.408139 -1.97936 0
M  V30 648 C 63.6492 1.03193 -1.65457 0
M  V30 649 O 62.9192 1.71622 -0.944595 0
M  V30 650 H 61.4992 -0.147928 -0.732206 0
M  V30 651 H 64.1612 -1.05067 -1.64155 0
M  V30 652 H 63.2572 -0.52601 -3.07635 0
M  V30 653 N 63.5583 1.46682 -0.576371 0
M  V30 654 C 64.8353 1.95599 0.00703437 0
M  V30 655 C 65.2153 1.51904 1.46589 0
M  V30 656 O 64.5633 0.766755 2.15251 0
M  V30 657 C 64.7733 3.4864 -0.158404 0
M  V30 658 C 66.1213 4.24594 -0.0229439 0
M  V30 659 O 67.1453 3.56094 -0.0869173 0
M  V30 660 O 66.0043 5.46373 0.118015 0
M  V30 661 H 63.0983 0.825275 0.053384 0
M  V30 662 H 65.6443 1.56996 -0.644244 0
M  V30 663 H 64.4163 3.7331 -1.17282 0
M  V30 664 H 64.0393 3.94057 0.5296 0
M  V30 665 N 65.0364 0.313813 1.54444 0
M  V30 666 C 66.4474 -0.176243 1.85866 0
M  V30 667 C 66.7984 -1.52405 1.23561 0
M  V30 668 O 65.9234 -2.09605 0.538016 0
M  V30 669 C 66.5184 -0.32657 3.37222 0
M  V30 670 C 65.0774 -0.760846 3.6863 0
M  V30 671 C 64.2244 0.123247 2.77026 0
M  V30 672 H 67.1754 0.534418 1.49431 0
M  V30 673 H 67.1964 -1.15908 3.62416 0
M  V30 674 H 66.7084 0.654531 3.82541 0
M  V30 675 H 64.8094 -1.75204 3.28838 0
M  V30 676 H 64.9224 -0.571353 4.75681 0
M  V30 677 H 63.2864 -0.399597 2.51546 0
M  V30 678 H 64.0694 1.10094 3.25168 0
M  V30 679 N 66.5145 -1.57545 0.0417849 0
M  V30 680 C 67.7625 -1.91937 -0.632829 0
M  V30 681 C 68.0835 -0.919978 -1.71934 0
M  V30 682 O 67.3535 0.0366064 -1.95866 0
M  V30 683 H 65.9335 -0.708493 -0.236742 0
M  V30 684 H 68.5955 -1.9468 0.0925745 0
M  V30 685 H 67.6915 -2.92912 -1.07746 0
M  V30 686 N 67.9926 0.231505 -1.5589 0
M  V30 687 C 69.2696 0.981096 -1.69215 0
M  V30 688 C 69.6496 2.02799 -0.586164 0
M  V30 689 O 68.9976 2.24823 0.408253 0
M  V30 690 C 69.2076 1.60054 -3.10135 0
M  V30 691 C 70.5556 2.09658 -3.69227 0
M  V30 692 O 71.5796 1.69967 -3.13033 0
M  V30 693 O 70.4386 2.8258 -4.67772 0
M  V30 694 H 67.5326 0.457653 -0.688827 0
M  V30 695 H 70.0786 0.224073 -1.68214 0
M  V30 696 H 68.8506 0.844105 -3.82087 0
M  V30 697 H 68.4736 2.42336 -3.15212 0
M  V30 698 N 69.4707 1.49531 0.497807 0
M  V30 699 C 70.7167 1.59415 1.25358 0
M  V30 700 C 71.0497 0.281422 1.9215 0
M  V30 701 O 70.3247 -0.715249 1.80871 0
M  V30 702 C 70.6077 2.75566 2.3181 0
M  V30 703 C 70.4607 4.16642 1.69498 0
M  V30 704 C 71.7797 2.87347 3.33346 0
M  V30 705 H 68.8987 0.580244 0.454408 0
M  V30 706 H 71.5407 1.81827 0.551262 0
M  V30 707 H 69.6907 2.56587 2.91711 0
M  V30 708 H 71.3627 4.47145 1.13399 0
M  V30 709 H 69.6057 4.22141 0.998978 0
M  V30 710 H 70.2767 4.93792 2.46725 0
M  V30 711 H 72.7527 3.04634 2.83438 0
M  V30 712 H 71.6287 3.70289 4.05188 0
M  V30 713 H 71.8897 1.96834 3.95865 0
M  V30 714 N 70.9488 -0.749086 1.3866 0
M  V30 715 C 72.1968 -1.50535 1.34847 0
M  V30 716 C 72.5178 -1.94909 -0.0595016 0
M  V30 717 O 71.7878 -1.67973 -1.00806 0
M  V30 718 H 70.3678 -0.558395 0.49619 0
M  V30 719 H 73.0298 -0.890165 1.73384 0
M  V30 720 H 72.1258 -2.39413 2.00219 0
M  V30 721 N 72.4269 -1.23603 -0.977757 0
M  V30 722 C 73.6749 -1.06759 -1.71601 0
M  V30 723 C 73.9959 0.395929 -1.90938 0
M  V30 724 O 73.2659 1.28356 -1.47992 0
M  V30 725 H 71.8459 -0.392062 -0.635843 0
M  V30 726 H 74.5079 -1.55362 -1.1768 0
M  V30 727 H 73.6039 -1.55763 -2.70452 0
M  V30 728 N 73.905 1.17692 -1.04816 0
M  V30 729 C 75.316 1.69501 -0.782698 0
M  V30 730 C 75.667 1.83456 0.695577 0
M  V30 731 O 74.792 1.51942 1.54086 0
M  V30 732 C 75.387 3.07874 -1.41419 0
M  V30 733 C 73.946 3.56864 -1.19686 0
M  V30 734 C 73.093 2.3322 -1.50012 0
M  V30 735 H 76.044 1.02262 -1.2136 0
M  V30 736 H 76.065 3.71528 -0.821428 0
M  V30 737 H 75.577 2.97685 -2.49009 0
M  V30 738 H 73.678 3.72337 -0.140043 0
M  V30 739 H 73.791 4.39851 -1.89916 0
M  V30 740 H 72.155 2.37501 -0.920071 0
M  V30 741 H 72.938 2.25644 -2.58727 0
M  V30 742 N 75.3831 0.828654 1.34056 0
M  V30 743 C 76.3461 0.259927 2.27721 0
M  V30 744 C 77.3461 -0.565478 1.50529 0
M  V30 745 O 78.5361 -0.38075 1.69988 0
M  V30 746 C 75.6681 -0.634944 3.34935 0
M  V30 747 H 76.8611 1.0863 2.79534 0
M  V30 748 H 74.4141 0.600951 1.44285 0
M  V30 749 H 75.1491 -1.48416 2.88346 0
M  V30 750 H 74.9341 -0.0444999 3.92075 0
M  V30 751 H 76.4241 -1.02648 4.04788 0
M  V30 752 N 76.8612 -1.46375 0.584142 0
M  V30 753 C 78.1092 -2.01978 0.0701287 0
M  V30 754 C 78.4302 -1.4579 -1.295 0
M  V30 755 O 77.7002 -0.64314 -1.85042 0
M  V30 756 H 76.2802 -0.746648 0.0229345 0
M  V30 757 H 78.9422 -1.79461 0.760245 0
M  V30 758 H 78.0382 -3.121 0.0022064 0
M  V30 759 N 78.3393 -0.321999 -1.54275 0
M  V30 760 C 79.2873 0.560206 -2.25753 0
M  V30 761 C 80.2813 1.11984 -1.27106 0
M  V30 762 O 81.4873 1.06806 -1.44888 0
M  V30 763 H 77.8623 0.199304 -0.725108 0
M  V30 764 H 79.8333 -0.0649365 -2.98329 0
M  V30 765 C 78.5823 1.71023 -3.02731 0
M  V30 766 H 77.9053 1.28885 -3.78456 0
M  V30 767 H 79.3453 2.30314 -3.55993 0
M  V30 768 C 77.8043 2.62692 -2.10938 0
M  V30 769 O 78.3343 3.64364 -1.6912 0
M  V30 770 N 76.5403 2.30891 -1.76459 0
M  V30 771 H 76.0873 1.48253 -2.10663 0
M  V30 772 H 76.0453 2.92487 -1.1532 0
M  V30 773 N 79.8174 1.5752 -0.0501392 0
M  V30 774 C 81.2284 1.80271 0.485705 0
M  V30 775 C 81.5794 0.96228 1.70981 0
M  V30 776 O 80.7044 0.178578 2.15662 0
M  V30 777 C 81.2994 3.26957 0.887938 0
M  V30 778 C 79.8584 3.5063 1.36877 0
M  V30 779 C 79.0054 2.75165 0.343468 0
M  V30 780 H 81.9564 1.56281 -0.276028 0
M  V30 781 H 81.9774 3.37821 1.75093 0
M  V30 782 H 81.4894 3.881 -0.0031809 0
M  V30 783 H 79.5904 2.94766 2.27911 0
M  V30 784 H 79.7034 4.59343 1.36164 0
M  V30 785 H 78.0674 2.4127 0.816128 0
M  V30 786 H 78.8504 3.39034 -0.539548 0
M  V30 787 N 81.2955 -0.223234 1.56011 0
M  V30 788 C 82.5435 -0.946003 1.78592 0
M  V30 789 C 82.8645 -1.84936 0.618349 0
M  V30 790 O 82.1345 -1.92473 -0.364833 0
M  V30 791 H 80.7145 -0.352298 0.658707 0
M  V30 792 H 83.3765 -0.235494 1.93472 0
M  V30 793 H 82.4725 -1.55381 2.70672 0
M  V30 794 N 82.7736 -1.49793 -0.48987 0
M  V30 795 C 84.0136 -1.61466 -1.25332 0
M  V30 796 C 84.3776 -0.299688 -1.89647 0
M  V30 797 O 85.5786 -0.291687 -2.67213 0
M  V30 798 C 83.8496 -2.74944 -2.28343 0
M  V30 799 S 85.4086 -3.06637 -3.13878 0
M  V30 800 H 82.2266 -0.569411 -0.425784 0
M  V30 801 H 84.8286 -1.875 -0.553541 0
M  V30 802 H 83.5326 -3.68994 -1.79643 0
M  V30 803 H 83.0636 -2.50938 -3.02975 0
M  V30 804 H 85.0786 -2.49015 -4.29192 0
M  V30 805 N 84.2517 0.741722 -1.39055 0
M  V30 806 C 85.4767 1.53607 -1.39354 0
M  V30 807 C 85.9017 1.88096 0.0116905 0
M  V30 808 O 85.2597 1.5143 0.996924 0
M  V30 809 C 85.3077 2.80441 -2.26682 0
M  V30 810 O 84.4117 3.76088 -1.69208 0
M  V30 811 H 83.7527 0.464142 -0.474835 0
M  V30 812 H 86.2827 0.915665 -1.82967 0
M  V30 813 H 86.2927 3.29246 -2.40959 0
M  V30 814 H 84.9677 2.5467 -3.2881 0
M  V30 815 H 83.5447 3.34833 -1.64138 0
M  V30 816 N 85.7298 1.2412 0.971189 0
M  V30 817 C 87.1408 1.07236 1.52831 0
M  V30 818 C 87.4918 -0.357352 1.92918 0
M  V30 819 O 86.6168 -1.24528 1.76979 0
M  V30 820 C 87.2118 1.94043 2.77728 0
M  V30 821 C 85.7708 1.81394 3.29808 0
M  V30 822 C 84.9178 1.89189 2.02738 0
M  V30 823 H 87.8688 1.37648 0.789864 0
M  V30 824 H 87.8898 1.47066 3.5093 0
M  V30 825 H 87.4018 2.98093 2.4852 0
M  V30 826 H 85.5028 0.801634 3.63874 0
M  V30 827 H 85.6158 2.65294 3.98944 0
M  V30 828 H 83.9798 1.32877 2.17292 0
M  V30 829 H 84.7628 2.94812 1.759 0
M  V30 830 N 87.2079 -1.17134 1.05439 0
M  V30 831 C 88.1579 -2.1919 0.627675 0
M  V30 832 C 89.1419 -1.57328 -0.337147 0
M  V30 833 O 90.3339 -1.76329 -0.153976 0
M  V30 834 C 87.4629 -3.43299 0.00651435 0
M  V30 835 C 86.5489 -4.12255 0.995312 0
M  V30 836 N 86.9399 -4.56997 2.16765 0
M  V30 837 C 85.2379 -4.38316 0.824336 0
M  V30 838 C 85.9389 -5.10239 2.7934 0
M  V30 839 N 84.9149 -5.02595 2.07122 0
M  V30 840 H 88.7169 -2.5149 1.52086 0
M  V30 841 H 86.2309 -1.33491 0.924868 0
M  V30 842 H 88.2279 -4.15693 -0.316965 0
M  V30 843 H 86.8879 -3.1249 -0.882033 0
M  V30 844 H 87.8989 -4.51006 2.54587 0
M  V30 845 H 84.5759 -4.17498 -0.0129526 0
M  V30 846 H 85.9659 -5.54961 3.78772 0
M  V30 847 N 88.686 -0.835752 -1.33615 0
M  V30 848 C 90.097 -0.487099 -1.80234 0
M  V30 849 C 90.448 0.993627 -1.69179 0
M  V30 850 O 89.573 1.77403 -1.23924 0
M  V30 851 C 90.168 -0.877385 -3.27242 0
M  V30 852 C 88.727 -0.580915 -3.7189 0
M  V30 853 C 87.874 -1.0874 -2.5509 0
M  V30 854 H 90.825 -1.02474 -1.2118 0
M  V30 855 H 90.846 -0.186195 -3.80044 0
M  V30 856 H 90.358 -1.95512 -3.35256 0
M  V30 857 H 88.459 0.486881 -3.69405 0
M  V30 858 H 88.572 -1.13396 -4.65487 0
M  V30 859 H 86.936 -0.508392 -2.49575 0
M  V30 860 H 87.719 -2.17184 -2.65868 0
M  V30 861 N 90.1641 1.46063 -0.591896 0
M  V30 862 C 91.5801 1.57561 -0.254288 0
M  V30 863 C 91.7801 1.58565 1.24336 0
M  V30 864 O 90.8361 1.50753 2.02558 0
M  V30 865 C 92.1491 2.86549 -0.911611 0
M  V30 866 C 93.6971 3.00197 -0.886059 0
M  V30 867 C 94.1721 4.31933 -1.5231 0
M  V30 868 N 95.6631 4.38654 -1.48786 0
M  V30 869 C 96.3981 5.39222 -1.95006 0
M  V30 870 N 95.8941 6.46414 -2.49241 0
M  V30 871 N 97.6871 5.3048 -1.85868 0
M  V30 872 H 89.8381 1.43655 -1.56451 0
M  V30 873 H 92.1011 0.68583 -0.654478 0
M  V30 874 H 91.8071 2.91651 -1.96551 0
M  V30 875 H 91.6811 3.74794 -0.425368 0
M  V30 876 H 94.0681 2.9467 0.159246 0
M  V30 877 H 94.1491 2.13403 -1.41041 0
M  V30 878 H 93.7931 4.38217 -2.56765 0
M  V30 879 H 93.7231 5.17516 -0.973891 0
M  V30 880 H 96.2141 3.61793 -1.09151 0
M  V30 881 H 96.5271 7.19376 -2.82344 0
M  V30 882 H 94.8721 6.47208 -2.53272 0
M  V30 883 H 98.0631 4.45643 -1.43248 0
M  V30 884 H 98.2361 6.08711 -2.22204 0
M  V30 885 N 91.6422 0.330177 1.54103 0
M  V30 886 C 92.6052 -0.520144 2.2322 0
M  V30 887 C 93.6052 -1.03828 1.22786 0
M  V30 888 O 94.7952 -0.929652 1.4732 0
M  V30 889 C 91.9272 -1.72317 2.94142 0
M  V30 890 H 93.1202 0.0841605 2.99782 0
M  V30 891 H 90.6732 0.0813433 1.56088 0
M  V30 892 H 91.4082 -2.36653 2.21734 0
M  V30 893 H 91.1932 -1.35898 3.67796 0
M  V30 894 H 92.6832 -2.3266 3.46784 0
M  V30 895 N 93.1203 -1.57491 0.0584922 0
M  V30 896 C 94.0833 -2.1085 -0.898617 0
M  V30 897 C 95.0833 -1.02964 -1.23511 0
M  V30 898 O 96.2733 -1.29007 -1.17059 0
M  V30 899 C 93.4053 -2.59881 -2.20623 0
M  V30 900 H 94.5983 -2.96715 -0.435936 0
M  V30 901 H 92.1513 -1.55141 -0.190023 0
M  V30 902 H 92.8863 -1.77431 -2.71457 0
M  V30 903 H 92.6713 -3.38727 -1.97501 0
M  V30 904 H 94.1613 -3.01285 -2.89166 0
M  V30 905 N 94.5984 0.214957 -1.56127 0
M  V30 906 C 95.8264 0.955092 -1.83536 0
M  V30 907 C 96.2414 1.77677 -0.638472 0
M  V30 908 O 95.5984 1.78219 0.392968 0
M  V30 909 C 95.6494 1.86734 -3.09536 0
M  V30 910 O 95.3704 1.07887 -4.24608 0
M  V30 911 C 96.8714 2.72082 -3.4998 0
M  V30 912 H 94.0914 0.279611 -0.609966 0
M  V30 913 H 96.6354 0.228197 -2.03223 0
M  V30 914 H 94.7904 2.5481 -2.91806 0
M  V30 915 H 95.2044 1.69872 -4.9623 0
M  V30 916 H 96.6784 3.31782 -4.41163 0
M  V30 917 H 97.1554 3.44806 -2.7204 0
M  V30 918 H 97.7614 2.09409 -3.70173 0
M  V30 919 N 96.0765 1.50051 0.48192 0
M  V30 920 C 97.4925 1.37237 0.814756 0
M  V30 921 C 97.6925 0.420109 1.97072 0
M  V30 922 O 96.7485 -0.141246 2.52105 0
M  V30 923 C 98.0615 2.78375 1.13701 0
M  V30 924 C 99.6095 2.87213 1.2441 0
M  V30 925 C 100.084 4.29161 1.59954 0
M  V30 926 N 101.575 4.32061 1.66967 0
M  V30 927 C 102.31 5.38879 1.95952 0
M  V30 928 N 101.806 6.55918 2.23031 0
M  V30 929 N 103.599 5.26312 1.97363 0
M  V30 930 H 95.7505 2.10546 -0.28005 0
M  V30 931 H 98.0135 0.945921 -0.0627454 0
M  V30 932 H 97.7195 3.49845 0.360787 0
M  V30 933 H 97.5935 3.14941 2.07586 0
M  V30 934 H 99.9805 2.15969 2.01101 0
M  V30 935 H 100.061 2.54204 0.285299 0
M  V30 936 H 99.7055 5.00938 0.838067 0
M  V30 937 H 99.6355 4.59648 2.56966 0
M  V30 938 H 102.126 3.47661 1.48123 0
M  V30 939 H 102.439 7.33139 2.44391 0
M  V30 940 H 100.784 6.59112 2.20447 0
M  V30 941 H 103.975 4.33876 1.75697 0
M  V30 942 H 104.148 6.09649 2.19618 0
M  V30 943 N 97.5546 -0.734337 1.39446 0
M  V30 944 C 98.9656 -1.31264 1.32766 0
M  V30 945 C 99.3166 -1.96198 -0.00767497 0
M  V30 946 O 98.4416 -1.96346 -0.909796 0
M  V30 947 C 99.0366 -2.38682 2.4045 0
M  V30 948 C 97.5956 -2.92184 2.37288 0
M  V30 949 C 96.7426 -1.6576 2.22304 0
M  V30 950 H 99.6936 -0.531799 1.49525 0
M  V30 951 H 99.7146 -3.19087 2.07276 0
M  V30 952 H 99.2266 -1.91392 3.37625 0
M  V30 953 H 97.3276 -3.43752 1.43754 0
M  V30 954 H 97.4406 -3.45253 3.3217 0
M  V30 955 H 95.8046 -1.9012 1.69489 0
M  V30 956 H 96.5876 -1.20521 3.21449 0
M  V30 957 N 99.0327 -1.24633 -0.964593 0
M  V30 958 C 100.444 -1.08045 -1.5226 0
M  V30 959 C 100.795 0.347116 -1.93105 0
M  V30 960 O 99.9197 1.23588 -1.77637 0
M  V30 961 C 100.515 -1.95514 -2.76695 0
M  V30 962 C 99.0737 -1.8314 -3.28841 0
M  V30 963 C 98.2207 -1.90262 -2.01732 0
M  V30 964 H 101.172 -1.38064 -0.782553 0
M  V30 965 H 101.193 -1.48925 -3.50145 0
M  V30 966 H 100.705 -2.99407 -2.46936 0
M  V30 967 H 98.8057 -0.82092 -3.63444 0
M  V30 968 H 98.9187 -2.67406 -3.97531 0
M  V30 969 H 97.2827 -1.34027 -2.16584 0
M  V30 970 H 98.0657 -2.9574 -1.74334 0
M  V30 971 N 100.511 1.16574 -1.06058 0
M  V30 972 C 101.922 1.68662 -0.800632 0
M  V30 973 C 102.273 1.84184 0.67608 0
M  V30 974 O 101.398 1.53568 1.52466 0
M  V30 975 C 101.993 3.06356 -1.44676 0
M  V30 976 C 100.552 3.55575 -1.23465 0
M  V30 977 C 99.6988 2.31616 -1.52477 0
M  V30 978 H 102.65 1.00969 -1.22438 0
M  V30 979 H 102.671 3.70636 -0.860788 0
M  V30 980 H 102.183 2.95027 -2.52152 0
M  V30 981 H 100.284 3.72167 -0.179527 0
M  V30 982 H 100.397 4.37812 -1.94571 0
M  V30 983 H 98.7608 2.36512 -0.945209 0
M  V30 984 H 99.5438 2.22887 -2.61106 0
M  V30 985 N 101.989 0.842826 1.3317 0
M  V30 986 C 102.919 0.294028 2.31641 0
M  V30 987 C 103.9 -0.600401 1.59151 0
M  V30 988 O 105.085 -0.523124 1.87022 0
M  V30 989 C 102.215 -0.528416 3.43257 0
M  V30 990 C 101.169 0.27056 4.27144 0
M  V30 991 C 100.495 -0.675881 5.30411 0
M  V30 992 C 101.795 1.48981 5.00602 0
M  V30 993 H 103.489 1.11681 2.77791 0
M  V30 994 H 101.035 0.538478 1.33553 0
M  V30 995 H 102.988 -0.922674 4.11175 0
M  V30 996 H 101.712 -1.38445 2.95805 0
M  V30 997 H 100.371 0.646427 3.60856 0
M  V30 998 H 100.019 -1.52842 4.79216 0
M  V30 999 H 99.7189 -0.145374 5.8742 0
M  V30 1000 H 101.243 -1.06757 6.01195 0
M  V30 1001 H 102.657 1.16849 5.61266 0
M  V30 1002 H 101.054 1.95739 5.6728 0
M  V30 1003 H 102.124 2.25746 4.29147 0
M  V30 1004 N 103.467 -1.45747 0.599634 0
M  V30 1005 C 104.878 -1.85853 0.177681 0
M  V30 1006 C 105.229 -1.50102 -1.26348 0
M  V30 1007 O 104.354 -0.923905 -1.95686 0
M  V30 1008 C 104.949 -3.37326 0.315688 0
M  V30 1009 C 103.508 -3.76365 -0.0515144 0
M  V30 1010 C 102.655 -2.69722 0.643822 0
M  V30 1011 H 105.606 -1.36661 0.806814 0
M  V30 1012 H 105.627 -3.77778 -0.454321 0
M  V30 1013 H 105.139 -3.63315 1.36468 0
M  V30 1014 H 103.24 -3.55993 -1.09999 0
M  V30 1015 H 103.353 -4.77916 0.336594 0
M  V30 1016 H 101.717 -2.54567 0.0822881 0
M  V30 1017 H 102.5 -2.98549 1.6948 0
M  V30 1018 N 104.945 -0.338344 -1.53925 0
M  V30 1019 C 105.908 0.508299 -2.23493 0
M  V30 1020 C 106.908 1.03175 -1.23335 0
M  V30 1021 O 108.098 0.921826 -1.47811 0
M  V30 1022 C 105.23 1.70754 -2.95052 0
M  V30 1023 H 106.423 -0.100058 -2.99733 0
M  V30 1024 H 103.976 -0.0896198 -1.56043 0
M  V30 1025 H 104.711 2.35474 -2.22986 0
M  V30 1026 H 104.496 1.33946 -3.68512 0
M  V30 1027 H 105.986 2.30818 -3.48013 0
M  V30 1028 N 106.423 1.57458 -0.0668435 0
M  V30 1029 C 107.373 2.0896 0.912119 0
M  V30 1030 C 108.357 0.998186 1.26195 0
M  V30 1031 O 109.549 1.26133 1.24175 0
M  V30 1032 C 106.678 2.6508 2.18145 0
M  V30 1033 C 105.764 3.81218 1.85832 0
M  V30 1034 N 106.155 4.90378 1.23948 0
M  V30 1035 C 104.453 3.9042 2.15612 0
M  V30 1036 C 105.154 5.71279 1.09616 0
M  V30 1037 N 104.13 5.19389 1.60423 0
M  V30 1038 H 107.932 2.90749 0.42924 0
M  V30 1039 H 105.446 1.6182 0.137184 0
M  V30 1040 H 107.443 3.0029 2.89192 0
M  V30 1041 H 106.103 1.84736 2.67025 0
M  V30 1042 H 107.114 5.09847 0.909731 0
M  V30 1043 H 103.791 3.21043 2.66903 0
M  V30 1044 H 105.181 6.69085 0.614425 0
M  V30 1045 N 107.901 -0.206675 1.56239 0
M  V30 1046 C 109.129 -0.945345 1.8404 0
M  V30 1047 C 109.544 -1.77336 0.647885 0
M  V30 1048 O 108.901 -1.78425 -0.383511 0
M  V30 1049 C 108.952 -1.8509 3.10522 0
M  V30 1050 O 108.673 -1.05634 4.25174 0
M  V30 1051 C 110.174 -2.70222 3.51418 0
M  V30 1052 H 107.394 -0.276372 0.61144 0
M  V30 1053 H 109.938 -0.217417 2.03341 0
M  V30 1054 H 108.093 -2.53259 2.93153 0
M  V30 1055 H 108.507 -1.67238 4.97124 0
M  V30 1056 H 109.981 -3.29438 4.42916 0
M  V30 1057 H 110.458 -3.43358 2.73864 0
M  V30 1058 H 111.064 -2.07443 3.71278 0
M  V30 1059 N 109.379 -1.50304 -0.473955 0
M  V30 1060 C 110.79 -1.54042 -1.0549 0
M  V30 1061 C 111.141 -0.342248 -1.93192 0
M  V30 1062 O 110.266 0.545157 -2.09421 0
M  V30 1063 C 110.861 -2.79152 -1.91989 0
M  V30 1064 C 109.42 -2.8558 -2.45196 0
M  V30 1065 C 108.567 -2.48295 -1.2347 0
M  V30 1066 H 111.518 -1.5661 -0.256693 0
M  V30 1067 H 111.539 -2.60845 -2.7702 0
M  V30 1068 H 111.051 -3.66339 -1.28131 0
M  V30 1069 H 109.152 -2.02738 -3.12615 0
M  V30 1070 H 109.265 -3.88403 -2.80499 0
M  V30 1071 H 107.629 -2.00669 -1.56856 0
M  V30 1072 H 108.412 -3.37787 -0.612789 0
M  V30 1073 N 110.857 0.726932 -1.39834 0
M  V30 1074 C 111.82 1.82269 -1.38962 0
M  V30 1075 C 112.82 1.58248 -0.285334 0
M  V30 1076 O 114.01 1.65499 -0.54366 0
M  V30 1077 C 111.142 3.20186 -1.17019 0
M  V30 1078 H 112.335 1.84443 -2.36476 0
M  V30 1079 H 109.888 0.931416 -1.25516 0
M  V30 1080 H 110.623 3.23669 -0.202204 0
M  V30 1081 H 110.408 3.3902 -1.96998 0
M  V30 1082 H 111.898 4.00235 -1.1917 0
M  V30 1083 N 112.336 1.25143 0.95797 0
M  V30 1084 C 113.286 1.01924 2.0395 0
M  V30 1085 C 114.27 -0.0427175 1.60843 0
M  V30 1086 O 115.462 0.17221 1.7616 0
M  V30 1087 C 112.591 0.636373 3.3735 0
M  V30 1088 C 111.677 1.73492 3.8699 0
M  V30 1089 N 112.068 2.96945 4.0946 0
M  V30 1090 C 110.366 1.61467 4.15746 0
M  V30 1091 C 111.067 3.68228 4.50315 0
M  V30 1092 N 110.043 2.95833 4.56053 0
M  V30 1093 H 113.845 1.95653 2.19311 0
M  V30 1094 H 111.359 1.15413 1.14253 0
M  V30 1095 H 113.356 0.451233 4.14451 0
M  V30 1096 H 112.016 -0.293621 3.2337 0
M  V30 1097 H 113.027 3.33025 3.96629 0
M  V30 1098 H 109.704 0.753394 4.10646 0
M  V30 1099 H 111.094 4.74178 4.76031 0
M  V30 1100 N 113.814 -1.1601 1.06675 0
M  V30 1101 C 115.042 -1.90527 0.806667 0
M  V30 1102 C 115.457 -1.77643 -0.639396 0
M  V30 1103 O 114.814 -1.12369 -1.43803 0
M  V30 1104 C 114.865 -3.41106 1.19705 0
M  V30 1105 O 114.586 -3.53608 2.58636 0
M  V30 1106 C 116.087 -4.32663 0.965266 0
M  V30 1107 H 113.307 -0.604053 0.292166 0
M  V30 1108 H 115.851 -1.47026 1.4214 0
M  V30 1109 H 114.006 -3.82296 0.626774 0
M  V30 1110 H 114.42 -4.47011 2.74375 0
M  V30 1111 H 115.894 -5.36763 1.288 0
M  V30 1112 H 116.371 -4.39089 -0.0987936 0
M  V30 1113 H 116.977 -3.97206 1.52011 0
M  V30 1114 N 115.292 -0.849877 -1.32721 0
M  V30 1115 C 116.703 -0.506188 -1.79707 0
M  V30 1116 C 117.054 0.975627 -1.70223 0
M  V30 1117 O 116.179 1.76078 -1.25799 0
M  V30 1118 C 116.774 -0.912044 -3.26293 0
M  V30 1119 C 115.333 -0.620326 -3.71253 0
M  V30 1120 C 114.48 -1.11439 -2.53922 0
M  V30 1121 H 117.431 -1.03754 -1.20087 0
M  V30 1122 H 117.452 -0.226493 -3.79825 0
M  V30 1123 H 116.964 -1.99057 -3.33164 0
M  V30 1124 H 115.065 0.447674 -3.69901 0
M  V30 1125 H 115.178 -1.18327 -4.64258 0
M  V30 1126 H 113.542 -0.534834 -2.49021 0
M  V30 1127 H 114.325 -2.19992 -2.6355 0
M  V30 1128 N 116.77 1.45427 -0.607355 0
M  V30 1129 C 117.68 2.34325 0.113463 0
M  V30 1130 C 118.696 1.51226 0.860617 0
M  V30 1131 O 119.872 1.84029 0.818255 0
M  V30 1132 C 116.937 3.28839 1.09844 0
M  V30 1133 C 115.998 4.27844 0.353271 0
M  V30 1134 C 115.231 5.17842 1.29133 0
M  V30 1135 O 115.454 5.11264 2.52913 0
M  V30 1136 O 114.388 5.96713 0.788523 0
M  V30 1137 H 118.214 2.97364 -0.617094 0
M  V30 1138 H 115.799 1.44807 -0.367619 0
M  V30 1139 H 117.681 3.8708 1.66575 0
M  V30 1140 H 116.356 2.68365 1.81003 0
M  V30 1141 H 115.263 3.7322 -0.256494 0
M  V30 1142 H 116.596 4.91173 -0.317822 0
M  V30 1143 N 118.248 0.346503 1.53744 0
M  V30 1144 C 119.494 -0.242135 2.01954 0
M  V30 1145 C 119.849 -1.47962 1.22984 0
M  V30 1146 O 119.142 -1.89077 0.309924 0
M  V30 1147 C 119.336 -0.605809 3.52228 0
M  V30 1148 C 119.165 0.594882 4.45748 0
M  V30 1149 C 117.935 1.1011 4.93157 0
M  V30 1150 C 120.133 1.45425 4.93311 0
M  V30 1151 N 118.115 2.26381 5.70636 0
M  V30 1152 C 119.486 2.46383 5.68942 0
M  V30 1153 C 121.541 1.47935 4.75415 0
M  V30 1154 C 120.244 3.49684 6.28581 0
M  V30 1155 C 122.27 2.50119 5.35905 0
M  V30 1156 C 121.632 3.49803 6.11406 0
M  V30 1157 H 117.731 -0.0518296 0.780281 0
M  V30 1158 H 120.315 0.486736 1.88518 0
M  V30 1159 H 118.486 -1.30378 3.65864 0
M  V30 1160 H 120.218 -1.17789 3.87179 0
M  V30 1161 H 116.973 0.668721 4.68855 0
M  V30 1162 H 117.397 2.85094 6.14044 0
M  V30 1163 H 122.039 0.722274 4.16585 0
M  V30 1164 H 119.757 4.26285 6.86518 0
M  V30 1165 H 123.343 2.52892 5.23963 0
M  V30 1166 H 122.223 4.27576 6.5738 0
M  V30 1167 N 119.726 -1.57421 0.075193 0
M  V30 1168 C 120.966 -1.95495 -0.596757 0
M  V30 1169 C 121.33 -0.954886 -1.66571 0
M  V30 1170 O 122.531 -1.22341 -2.39345 0
M  V30 1171 C 120.802 -3.382 -1.15566 0
M  V30 1172 S 122.361 -3.98254 -1.84226 0
M  V30 1173 H 119.179 -0.683649 -0.195307 0
M  V30 1174 H 121.781 -1.94925 0.149859 0
M  V30 1175 H 120.485 -4.08766 -0.36588 0
M  V30 1176 H 120.016 -3.42321 -1.93856 0
M  V30 1177 H 122.031 -3.85435 -3.12497 0
M  V30 1178 N 121.204 0.198386 -1.56346 0
M  V30 1179 C 122.452 0.91747 -1.80075 0
M  V30 1180 C 122.773 1.83929 -0.647692 0
M  V30 1181 O 122.043 1.93029 0.334166 0
M  V30 1182 H 120.623 0.341774 -0.664228 0
M  V30 1183 H 123.285 0.204684 -1.93822 0
M  V30 1184 H 122.381 1.51055 -2.7311 0
M  V30 1185 N 122.682 1.50554 0.465978 0
M  V30 1186 C 123.645 1.69233 1.54574 0
M  V30 1187 C 124.645 0.562901 1.50626 0
M  V30 1188 O 125.835 0.830016 1.53155 0
M  V30 1189 C 122.967 1.7223 2.94193 0
M  V30 1190 H 124.16 2.65571 1.39327 0
M  V30 1191 H 121.713 1.40111 0.692711 0
M  V30 1192 H 122.448 0.77603 3.14878 0
M  V30 1193 H 122.233 2.54285 2.98466 0
M  V30 1194 H 123.723 1.88618 3.72576 0
M  V30 1195 N 124.16 -0.719506 1.40217 0
M  V30 1196 C 125.123 -1.8153 1.39927 0
M  V30 1197 C 126.123 -1.58095 0.293723 0
M  V30 1198 O 127.313 -1.65209 0.552429 0
M  V30 1199 C 124.445 -3.19561 1.18716 0
M  V30 1200 H 125.638 -1.83186 2.37451 0
M  V30 1201 H 123.191 -0.924746 1.26008 0
M  V30 1202 H 123.926 -3.23557 0.219366 0
M  V30 1203 H 123.711 -3.3797 1.98793 0
M  V30 1204 H 125.201 -3.99598 1.21291 0
M  V30 1205 N 125.638 -1.25649 -0.95132 0
M  V30 1206 C 126.863 -1.13443 -1.73624 0
M  V30 1207 C 127.288 0.307565 -1.85568 0
M  V30 1208 O 126.646 1.22282 -1.33854 0
M  V30 1209 C 126.694 -1.79723 -3.12621 0
M  V30 1210 O 125.798 -1.07912 -3.98031 0
M  V30 1211 H 125.139 -0.395872 -0.533086 0
M  V30 1212 H 127.669 -1.66276 -1.1922 0
M  V30 1213 H 127.679 -1.86141 -3.63064 0
M  V30 1214 H 126.354 -2.84633 -3.03244 0
M  V30 1215 H 124.931 -1.09398 -3.56492 0
M  V30 1216 N 127.117 1.15442 -1.07289 0
M  V30 1217 C 128.08 2.18358 -0.696591 0
M  V30 1218 C 129.08 1.58637 0.262837 0
M  V30 1219 O 130.27 1.74145 0.0438809 0
M  V30 1220 C 127.402 3.4089 -0.0266151 0
M  V30 1221 H 128.595 2.53162 -1.60776 0
M  V30 1222 H 126.148 1.29893 -0.869342 0
M  V30 1223 H 126.883 3.11653 0.896822 0
M  V30 1224 H 126.668 3.85495 -0.716657 0
M  V30 1225 H 128.158 4.17009 0.222028 0
M  V30 1226 N 128.595 0.856903 1.32268 0
M  V30 1227 C 129.505 0.306131 2.32594 0
M  V30 1228 C 130.521 -0.577209 1.64147 0
M  V30 1229 O 131.697 -0.477043 1.95669 0
M  V30 1230 C 128.762 -0.494561 3.43154 0
M  V30 1231 C 127.823 0.415186 4.27288 0
M  V30 1232 C 127.056 -0.347387 5.32568 0
M  V30 1233 O 127.279 -1.57708 5.48165 0
M  V30 1234 O 126.213 0.287982 6.01211 0
M  V30 1235 H 130.039 1.13737 2.81598 0
M  V30 1236 H 127.624 0.619902 1.35932 0
M  V30 1237 H 129.506 -0.948944 4.10576 0
M  V30 1238 H 128.181 -1.30257 2.96336 0
M  V30 1239 H 127.088 0.917793 3.62667 0
M  V30 1240 H 128.421 1.18844 4.77637 0
M  V30 1241 N 130.073 -1.45103 0.615059 0
M  V30 1242 C 131.036 -2.29025 -0.0895485 0
M  V30 1243 C 132.036 -1.40174 -0.787906 0
M  V30 1244 O 133.226 -1.62217 -0.634933 0
M  V30 1245 C 130.358 -3.21376 -1.13711 0
M  V30 1246 H 131.551 -2.92807 0.648382 0
M  V30 1247 H 129.104 -1.51749 0.374444 0
M  V30 1248 H 129.839 -2.6241 -1.90556 0
M  V30 1249 H 129.624 -3.86834 -0.640475 0
M  V30 1250 H 131.114 -3.84459 -1.63036 0
M  V30 1251 N 131.551 -0.354651 -1.53558 0
M  V30 1252 C 132.514 0.484566 -2.24019 0
M  V30 1253 C 133.514 1.01861 -1.24422 0
M  V30 1254 O 134.704 0.906097 -1.4878 0
M  V30 1255 C 131.836 1.67615 -2.96847 0
M  V30 1256 H 133.029 -0.131843 -2.9961 0
M  V30 1257 H 130.582 -0.106165 -1.55939 0
M  V30 1258 H 131.317 2.33095 -2.25471 0
M  V30 1259 H 131.102 1.30029 -3.69912 0
M  V30 1260 H 132.592 2.27114 -3.50441 0
M  V30 1261 N 133.029 1.57378 -0.0835403 0
M  V30 1262 C 133.939 2.16897 0.894021 0
M  V30 1263 C 134.955 1.13528 1.31861 0
M  V30 1264 O 136.131 1.45848 1.3889 0
M  V30 1265 C 133.196 2.72831 2.13925 0
M  V30 1266 C 132.257 3.91115 1.76997 0
M  V30 1267 C 131.49 4.44371 2.95584 0
M  V30 1268 O 131.713 3.96596 4.09961 0
M  V30 1269 O 130.647 5.35549 2.74719 0
M  V30 1270 H 134.473 3.00814 0.417679 0
M  V30 1271 H 132.058 1.48741 0.140181 0
M  V30 1272 H 133.94 3.0863 2.86924 0
M  V30 1273 H 132.615 1.91967 2.60635 0
M  V30 1274 H 131.522 3.60148 1.01214 0
M  V30 1275 H 132.855 4.73307 1.3506 0
M  V30 1276 N 134.507 -0.190092 1.56449 0
M  V30 1277 C 135.918 -0.754312 1.70784 0
M  V30 1278 C 136.269 -1.83631 0.690951 0
M  V30 1279 O 135.394 -2.15868 -0.151604 0
M  V30 1280 C 135.989 -1.37503 3.09642 0
M  V30 1281 C 134.548 -1.88628 3.25725 0
M  V30 1282 C 133.695 -0.758098 2.66736 0
M  V30 1283 H 136.646 0.0350524 1.58661 0
M  V30 1284 H 136.667 -2.2445 3.0725 0
M  V30 1285 H 136.179 -0.587302 3.83631 0
M  V30 1286 H 134.28 -2.70103 2.56661 0
M  V30 1287 H 134.393 -2.04462 4.3328 0
M  V30 1288 H 132.757 -1.17369 2.26046 0
M  V30 1289 H 133.54 0.0174705 3.43296 0
M  V30 1290 N 135.985 -1.50799 -0.457987 0
M  V30 1291 C 137.401 -1.38515 -0.792819 0
M  V30 1292 C 137.601 -0.451409 -1.96379 0
M  V30 1293 O 136.657 0.10112 -2.52297 0
M  V30 1294 C 137.97 -2.80149 -1.09258 0
M  V30 1295 C 139.518 -2.89156 -1.19825 0
M  V30 1296 C 139.993 -4.31651 -1.53106 0
M  V30 1297 N 141.484 -4.34662 -1.60072 0
M  V30 1298 C 142.219 -5.41928 -1.87354 0
M  V30 1299 N 141.715 -6.59384 -2.12568 0
M  V30 1300 N 143.508 -5.29385 -1.88965 0
M  V30 1301 H 135.659 -2.10073 0.313511 0
M  V30 1302 H 137.922 -0.944803 0.0777862 0
M  V30 1303 H 137.628 -3.50374 -0.305084 0
M  V30 1304 H 137.502 -3.18204 -2.02549 0
M  V30 1305 H 139.889 -2.19141 -1.97639 0
M  V30 1306 H 139.97 -2.54626 -0.244821 0
M  V30 1307 H 139.614 -5.02208 -0.758266 0
M  V30 1308 H 139.544 -4.63678 -2.49621 0
M  V30 1309 H 142.035 -3.49973 -1.42573 0
M  V30 1310 H 142.348 -7.36934 -2.32696 0
M  V30 1311 H 140.693 -6.62535 -2.09933 0
M  V30 1312 H 143.884 -4.36616 -1.68772 0
M  V30 1313 H 144.057 -6.13066 -2.09891 0
M  V30 1314 N 137.463 0.71206 -1.40597 0
M  V30 1315 C 138.879 1.02058 -1.22704 0
M  V30 1316 C 139.079 2.01228 -0.104729 0
M  V30 1317 O 138.135 2.4674 0.53624 0
M  V30 1318 C 139.448 1.56094 -2.57012 0
M  V30 1319 C 140.996 1.6806 -2.64054 0
M  V30 1320 C 141.471 2.25501 -3.9864 0
M  V30 1321 N 142.962 2.32882 -4.004 0
M  V30 1322 C 143.697 2.78317 -5.01325 0
M  V30 1323 N 143.193 3.23478 -6.12645 0
M  V30 1324 N 144.986 2.77733 -4.88693 0
M  V30 1325 H 137.137 0.0547896 -2.12329 0
M  V30 1326 H 139.4 0.0869027 -0.944008 0
M  V30 1327 H 139.106 0.906865 -3.39807 0
M  V30 1328 H 138.98 2.54564 -2.78347 0
M  V30 1329 H 141.367 2.32583 -1.81629 0
M  V30 1330 H 141.448 0.681802 -2.46546 0
M  V30 1331 H 141.092 1.61598 -4.81506 0
M  V30 1332 H 141.022 3.26102 -4.13479 0
M  V30 1333 H 143.513 2.00991 -3.20017 0
M  V30 1334 H 143.826 3.56725 -6.85542 0
M  V30 1335 H 142.171 3.21429 -6.16205 0
M  V30 1336 H 145.362 2.4179 -4.00818 0
M  V30 1337 H 145.535 3.12826 -5.67489 0
M  V30 1338 N 138.941 1.26152 0.944643 0
M  V30 1339 C 139.904 1.07474 2.0244 0
M  V30 1340 C 140.904 0.0242064 1.60782 0
M  V30 1341 O 142.094 0.267302 1.72137 0
M  V30 1342 C 139.226 0.633956 3.34953 0
M  V30 1343 H 140.419 2.03336 2.20442 0
M  V30 1344 H 137.972 1.087 1.12312 0
M  V30 1345 H 138.707 -0.326811 3.22649 0
M  V30 1346 H 138.492 1.39247 3.66542 0
M  V30 1347 H 139.982 0.52501 4.14287 0
M  V30 1348 N 140.419 -1.14872 1.07899 0
M  V30 1349 C 141.667 -1.85422 0.803941 0
M  V30 1350 C 141.988 -1.83051 -0.67211 0
M  V30 1351 O 141.258 -1.27532 -1.48703 0
M  V30 1352 H 139.838 -0.686537 0.294408 0
M  V30 1353 H 142.5 -1.39226 1.3639 0
M  V30 1354 H 141.596 -2.90399 1.14346 0
M  V30 1355 N 141.898 -0.863906 -1.31812 0
M  V30 1356 C 143.309 -0.52522 -1.7916 0
M  V30 1357 C 143.66 0.957518 -1.71248 0
M  V30 1358 O 142.785 1.74734 -1.27659 0
M  V30 1359 C 143.38 -0.9466 -3.25307 0
M  V30 1360 C 141.939 -0.659668 -3.70574 0
M  V30 1361 C 141.086 -1.14126 -2.52726 0
M  V30 1362 H 144.037 -1.05022 -1.1898 0
M  V30 1363 H 144.058 -0.266766 -3.79564 0
M  V30 1364 H 143.57 -2.02579 -3.31034 0
M  V30 1365 H 141.671 0.408416 -3.70355 0
M  V30 1366 H 141.784 -1.23245 -4.62977 0
M  V30 1367 H 140.148 -0.561216 -2.4844 0
M  V30 1368 H 140.931 -2.22775 -2.61201 0
M  V30 1369 N 143.376 1.44774 -0.622745 0
M  V30 1370 C 144.326 2.2774 0.108889 0
M  V30 1371 C 145.31 1.38189 0.824175 0
M  V30 1372 O 146.502 1.62063 0.711664 0
M  V30 1373 C 143.631 3.25353 1.09546 0
M  V30 1374 C 142.717 4.22392 0.380232 0
M  V30 1375 N 143.108 5.02388 -0.586535 0
M  V30 1376 C 141.406 4.41588 0.625792 0
M  V30 1377 C 142.107 5.72894 -1.00834 0
M  V30 1378 N 141.083 5.42479 -0.348878 0
M  V30 1379 H 144.885 2.86993 -0.63341 0
M  V30 1380 H 142.399 1.5611 -0.447589 0
M  V30 1381 H 144.396 3.83538 1.63414 0
M  V30 1382 H 143.056 2.6766 1.83815 0
M  V30 1383 H 144.067 5.0885 -0.963975 0
M  V30 1384 H 140.744 3.95003 1.352 0
M  V30 1385 H 142.134 6.47158 -1.80656 0
M  V30 1386 N 144.854 0.36279 1.53368 0
M  V30 1387 C 145.784 -0.476976 2.28576 0
M  V30 1388 C 146.765 -1.08631 1.30894 0
M  V30 1389 O 147.95 -1.10409 1.59761 0
M  V30 1390 C 145.08 -1.61828 3.07293 0
M  V30 1391 C 144.034 -1.13633 4.1264 0
M  V30 1392 C 143.36 -2.36766 4.79423 0
M  V30 1393 C 144.66 -0.223061 5.21823 0
M  V30 1394 H 146.354 0.150474 2.99022 0
M  V30 1395 H 143.9 0.0738103 1.43811 0
M  V30 1396 H 145.853 -2.21237 3.58653 0
M  V30 1397 H 144.577 -2.27292 2.34533 0
M  V30 1398 H 143.236 -0.564945 3.62221 0
M  V30 1399 H 142.884 -3.0068 4.03238 0
M  V30 1400 H 142.584 -2.05192 5.50609 0
M  V30 1401 H 144.108 -2.96865 5.33576 0
M  V30 1402 H 145.522 -0.724545 5.68703 0
M  V30 1403 H 143.919 0.001678 6.001 0
M  V30 1404 H 144.989 0.735553 4.79289 0
M  V30 1405 N 146.332 -1.57332 0.0918853 0
M  V30 1406 C 147.572 -1.96117 -0.575988 0
M  V30 1407 C 147.936 -0.972499 -1.65549 0
M  V30 1408 O 149.137 -1.24872 -2.38034 0
M  V30 1409 C 147.408 -3.39407 -1.11973 0
M  V30 1410 S 148.967 -4.00185 -1.79992 0
M  V30 1411 H 145.785 -0.685682 -0.188045 0
M  V30 1412 H 148.387 -1.94755 0.170525 0
M  V30 1413 H 147.091 -4.09131 -0.322504 0
M  V30 1414 H 146.622 -3.44358 -1.90214 0
M  V30 1415 H 148.637 -3.88728 -3.08391 0
M  V30 1416 N 147.81 0.181792 -1.56548 0
M  V30 1417 C 149.059 0.898348 -1.8059 0
M  V30 1418 C 149.372 1.83862 -0.667379 0
M  V30 1419 O 150.578 2.59678 -0.792446 0
M  V30 1420 C 149.034 1.64791 -3.19956 0
M  V30 1421 C 148.642 0.751789 -4.41647 0
M  V30 1422 C 150.386 2.35331 -3.53298 0
M  V30 1423 C 148.293 1.50098 -5.72035 0
M  V30 1424 H 147.223 0.339194 -0.673397 0
M  V30 1425 H 149.874 0.151413 -1.82874 0
M  V30 1426 H 148.256 2.43921 -3.11959 0
M  V30 1427 H 149.43 -0.0018076 -4.608 0
M  V30 1428 H 147.745 0.156562 -4.16106 0
M  V30 1429 H 150.342 2.91958 -4.47956 0
M  V30 1430 H 150.685 3.10164 -2.77676 0
M  V30 1431 H 151.218 1.63154 -3.62803 0
M  V30 1432 H 147.957 0.795175 -6.50659 0
M  V30 1433 H 147.477 2.22817 -5.56878 0
M  V30 1434 H 149.156 2.05125 -6.13622 0
M  V30 1435 N 149.288 1.51039 0.449983 0
M  V30 1436 C 150.699 1.557 1.03026 0
M  V30 1437 C 151.05 0.372939 1.92623 0
M  V30 1438 O 150.175 -0.511771 2.10261 0
M  V30 1439 C 150.77 2.82171 1.87523 0
M  V30 1440 C 149.329 2.89444 2.40622 0
M  V30 1441 C 148.476 2.50228 1.19504 0
M  V30 1442 H 151.427 1.56999 0.231745 0
M  V30 1443 H 151.448 2.65219 2.72835 0
M  V30 1444 H 150.96 3.68331 1.22286 0
M  V30 1445 H 149.061 2.07685 3.0935 0
M  V30 1446 H 149.174 3.92816 2.74285 0
M  V30 1447 H 147.538 2.03139 1.53644 0
M  V30 1448 H 148.321 3.38719 0.558972 0
M  V30 1449 N 150.766 -0.704594 1.40972 0
M  V30 1450 C 151.729 -1.80035 1.41845 0
M  V30 1451 C 152.729 -1.57774 0.310474 0
M  V30 1452 O 153.919 -1.64613 0.56992 0
M  V30 1453 C 151.051 -3.18284 1.22098 0
M  V30 1454 H 152.244 -1.80658 2.3938 0
M  V30 1455 H 149.797 -0.911329 1.26982 0
M  V30 1456 H 150.532 -3.23306 0.253672 0
M  V30 1457 H 150.317 -3.35843 2.02366 0
M  V30 1458 H 151.807 -3.98289 1.25522 0
M  V30 1459 N 152.244 -1.26651 -0.937939 0
M  V30 1460 C 153.655 -1.1125 -1.49934 0
M  V30 1461 C 154.006 0.306077 -1.93798 0
M  V30 1462 O 153.131 1.19792 -1.80219 0
M  V30 1463 C 153.726 -2.01339 -2.72485 0
M  V30 1464 C 152.285 -1.90074 -3.24883 0
M  V30 1465 C 151.432 -1.94498 -1.97651 0
M  V30 1466 H 154.383 -1.39693 -0.753091 0
M  V30 1467 H 154.404 -1.56319 -3.46907 0
M  V30 1468 H 153.916 -3.04577 -2.40529 0
M  V30 1469 H 152.017 -0.897827 -3.61621 0
M  V30 1470 H 152.13 -2.75778 -3.9177 0
M  V30 1471 H 150.494 -1.38591 -2.13693 0
M  V30 1472 H 151.277 -2.99372 -1.68022 0
M  V30 1473 N 153.722 1.14298 -1.08507 0
M  V30 1474 C 154.97 1.84993 -0.813763 0
M  V30 1475 C 155.291 1.83405 0.662393 0
M  V30 1476 O 154.561 1.28319 1.48024 0
M  V30 1477 H 153.141 0.684966 -0.298045 0
M  V30 1478 H 155.803 1.385 -1.37126 0
M  V30 1479 H 154.899 2.89788 -1.15884 0
M  V30 1480 N 155.201 0.870884 1.31352 0
M  V30 1481 C 156.131 0.343096 2.30966 0
M  V30 1482 C 157.112 -0.566507 1.60389 0
M  V30 1483 O 158.297 -0.483336 1.88089 0
M  V30 1484 C 155.427 -0.455487 3.443 0
M  V30 1485 C 154.381 0.361103 4.26474 0
M  V30 1486 C 153.707 -0.563221 5.31725 0
M  V30 1487 C 155.007 1.59566 4.97329 0
M  V30 1488 H 156.701 1.17548 2.75359 0
M  V30 1489 H 154.247 0.566686 1.32381 0
M  V30 1490 H 156.2 -0.83525 4.13039 0
M  V30 1491 H 154.924 -1.32139 2.98675 0
M  V30 1492 H 153.583 0.722825 3.59403 0
M  V30 1493 H 153.231 -1.42643 4.82351 0
M  V30 1494 H 152.931 -0.0207409 5.87596 0
M  V30 1495 H 154.455 -0.939808 6.03324 0
M  V30 1496 H 155.869 1.28728 5.58661 0
M  V30 1497 H 154.266 2.07728 5.63 0
M  V30 1498 H 155.336 2.34798 4.24262 0
M  V30 1499 N 156.679 -1.44442 0.630414 0
M  V30 1500 C 157.907 -2.06414 0.141671 0
M  V30 1501 C 158.322 -1.47105 -1.18345 0
M  V30 1502 O 157.679 -0.593662 -1.72574 0
M  V30 1503 C 157.73 -3.61494 0.0199784 0
M  V30 1504 O 157.451 -4.18594 1.29269 0
M  V30 1505 C 158.952 -4.40499 -0.497544 0
M  V30 1506 H 156.172 -0.666292 0.0793452 0
M  V30 1507 H 158.716 -1.85323 0.864614 0
M  V30 1508 H 156.871 -3.8185 -0.653402 0
M  V30 1509 H 157.285 -5.12026 1.13707 0
M  V30 1510 H 158.759 -5.49433 -0.531708 0
M  V30 1511 H 159.236 -4.11895 -1.52445 0
M  V30 1512 H 159.842 -4.25061 0.142562 0
M  V30 1513 N 158.157 -0.370918 -1.53173 0
M  V30 1514 C 159.104 0.473035 -2.259 0
M  V30 1515 C 160.074 1.07311 -1.26781 0
M  V30 1516 O 161.259 1.1046 -1.55574 0
M  V30 1517 C 158.399 1.60405 -3.05556 0
M  V30 1518 C 157.512 1.02863 -4.19575 0
M  V30 1519 C 156.647 2.12918 -4.86661 0
M  V30 1520 C 155.686 1.52869 -5.92704 0
M  V30 1521 N 154.823 2.56779 -6.53459 0
M  V30 1522 H 159.663 -0.153649 -2.97604 0
M  V30 1523 H 157.2 -0.0875946 -1.46839 0
M  V30 1524 H 159.158 2.27034 -3.50016 0
M  V30 1525 H 157.788 2.20131 -2.36097 0
M  V30 1526 H 156.84 0.252465 -3.79561 0
M  V30 1527 H 158.152 0.549642 -4.95762 0
M  V30 1528 H 157.306 2.87356 -5.34333 0
M  V30 1529 H 156.045 2.6417 -4.09958 0
M  V30 1530 H 155.05 0.769479 -5.44389 0
M  V30 1531 H 156.275 1.02435 -6.7133 0
M  V30 1532 H 154.221 3.07235 -5.79606 0
M  V30 1533 H 154.138 2.13583 -7.25202 0
M  V30 1534 H 155.406 3.30903 -7.05779 0
M  V30 1535 N 159.635 1.57281 -0.100228 0
M  V30 1536 C 160.863 1.98879 0.570509 0
M  V30 1537 C 161.278 0.979476 1.61405 0
M  V30 1538 O 160.635 -0.0302288 1.82475 0
M  V30 1539 C 160.686 3.4052 1.2136 0
M  V30 1540 O 160.407 4.37588 0.211786 0
M  V30 1541 C 161.908 3.97149 1.96945 0
M  V30 1542 H 159.128 0.653428 0.152555 0
M  V30 1543 H 161.672 2.03697 -0.18103 0
M  V30 1544 H 159.827 3.367 1.91603 0
M  V30 1545 H 160.241 5.20118 0.676607 0
M  V30 1546 H 161.715 4.98393 2.37294 0
M  V30 1547 H 162.192 3.3525 2.83733 0
M  V30 1548 H 162.798 4.04458 1.31506 0
M  V30 1549 N 161.113 -0.173488 1.56642 0
M  V30 1550 C 162.524 -0.736155 1.71574 0
M  V30 1551 C 162.875 -1.82888 0.710389 0
M  V30 1552 O 162 -2.16017 -0.1287 0
M  V30 1553 C 162.595 -1.34211 3.11083 0
M  V30 1554 C 161.154 -1.85162 3.27707 0
M  V30 1555 C 160.301 -0.729765 2.67525 0
M  V30 1556 H 163.252 0.0518786 1.58615 0
M  V30 1557 H 163.273 -2.21178 3.09613 0
M  V30 1558 H 162.785 -0.546579 3.84232 0
M  V30 1559 H 160.886 -2.67366 2.59512 0
M  V30 1560 H 160.999 -1.99855 4.35425 0
M  V30 1561 H 159.363 -1.14965 2.27278 0
M  V30 1562 H 160.146 0.0538806 3.43258 0
M  V30 1563 N 162.591 -1.51276 -0.441967 0
M  V30 1564 C 163.84 -1.6295 -1.18871 0
M  V30 1565 C 164.153 -0.349312 -1.92456 0
M  V30 1566 O 165.359 -0.345355 -2.69295 0
M  V30 1567 C 163.815 -2.87759 -2.16155 0
M  V30 1568 C 163.423 -4.22764 -1.48239 0
M  V30 1569 C 165.167 -3.08788 -2.91291 0
M  V30 1570 C 163.074 -5.38728 -2.4398 0
M  V30 1571 H 162.004 -0.606913 -0.447406 0
M  V30 1572 H 164.655 -1.77739 -0.456205 0
M  V30 1573 H 163.037 -2.66593 -2.92821 0
M  V30 1574 H 164.211 -4.54293 -0.771635 0
M  V30 1575 H 162.526 -4.07575 -0.852741 0
M  V30 1576 H 165.123 -3.92599 -3.63002 0
M  V30 1577 H 165.466 -2.21679 -3.5237 0
M  V30 1578 H 165.999 -3.30272 -2.21733 0
M  V30 1579 H 162.738 -6.28082 -1.87598 0
M  V30 1580 H 162.258 -5.1158 -3.13123 0
M  V30 1581 H 163.937 -5.70489 -3.05207 0
M  V30 1582 N 164.069 0.697108 -1.41344 0
M  V30 1583 C 164.999 1.82353 -1.45841 0
M  V30 1584 C 165.98 1.67115 -0.317247 0
M  V30 1585 O 167.165 1.86871 -0.528474 0
M  V30 1586 C 164.295 3.20476 -1.33838 0
M  V30 1587 C 163.249 3.50415 -2.4575 0
M  V30 1588 C 162.575 4.87878 -2.18813 0
M  V30 1589 C 163.875 3.49546 -3.88091 0
M  V30 1590 H 165.569 1.78846 -2.40113 0
M  V30 1591 H 163.115 0.859028 -1.15571 0
M  V30 1592 H 165.068 3.98988 -1.35596 0
M  V30 1593 H 163.792 3.24604 -0.360498 0
M  V30 1594 H 162.451 2.74253 -2.43271 0
M  V30 1595 H 162.099 4.8863 -1.19371 0
M  V30 1596 H 161.799 5.08875 -2.93803 0
M  V30 1597 H 163.323 5.68702 -2.22284 0
M  V30 1598 H 164.737 4.18066 -3.92293 0
M  V30 1599 H 163.134 3.82075 -4.62751 0
M  V30 1600 H 164.204 2.48552 -4.16353 0
M  V30 1601 N 165.547 1.27147 0.931209 0
M  V30 1602 C 166.457 1.11372 2.06478 0
M  V30 1603 C 167.473 0.044645 1.73943 0
M  V30 1604 O 168.649 0.250417 1.99837 0
M  V30 1605 C 165.714 0.758838 3.38294 0
M  V30 1606 C 164.775 1.90841 3.84549 0
M  V30 1607 C 164.008 1.57036 5.10074 0
M  V30 1608 O 164.231 0.476645 5.68405 0
M  V30 1609 O 163.165 2.40839 5.51616 0
M  V30 1610 H 166.991 2.06493 2.22698 0
M  V30 1611 H 164.576 1.06301 1.04978 0
M  V30 1612 H 166.458 0.574098 4.17471 0
M  V30 1613 H 165.133 -0.162879 3.2329 0
M  V30 1614 H 164.04 2.14819 3.06274 0
M  V30 1615 H 165.373 2.81021 4.04089 0
M  V30 1616 N 167.025 -1.13721 1.09112 0
M  V30 1617 C 167.972 -2.19031 0.727591 0
M  V30 1618 C 168.942 -1.63555 -0.289656 0
M  V30 1619 O 170.127 -1.90023 -0.172026 0
M  V30 1620 C 167.267 -3.4477 0.15082 0
M  V30 1621 C 166.38 -4.14365 1.22172 0
M  V30 1622 C 165.515 -5.27709 0.608042 0
M  V30 1623 C 164.554 -5.89147 1.66047 0
M  V30 1624 N 163.691 -6.93929 1.06806 0
M  V30 1625 H 168.531 -2.49475 1.62991 0
M  V30 1626 H 166.068 -1.22499 0.81439 0
M  V30 1627 H 168.026 -4.16714 -0.201358 0
M  V30 1628 H 166.656 -3.14787 -0.714783 0
M  V30 1629 H 165.708 -3.40737 1.69122 0
M  V30 1630 H 167.02 -4.56114 2.01895 0
M  V30 1631 H 166.174 -6.06355 0.204523 0
M  V30 1632 H 164.913 -4.872 -0.220769 0
M  V30 1633 H 163.918 -5.09198 2.07357 0
M  V30 1634 H 165.143 -6.31729 2.49189 0
M  V30 1635 H 163.089 -6.55483 0.260476 0
M  V30 1636 H 163.006 -7.34202 1.8023 0
M  V30 1637 H 164.274 -7.76434 0.690644 0
M  V30 1638 N 168.503 -0.877838 -1.30888 0
M  V30 1639 C 169.749 -0.493426 -1.96706 0
M  V30 1640 C 170.082 0.953504 -1.6918 0
M  V30 1641 O 169.357 1.67266 -0.992594 0
M  V30 1642 C 169.64 -0.760429 -3.51979 0
M  V30 1643 C 169.493 -2.25747 -3.89048 0
M  V30 1644 C 170.812 -0.232148 -4.39487 0
M  V30 1645 H 167.931 -0.180746 -0.714493 0
M  V30 1646 H 170.573 -1.10052 -1.54882 0
M  V30 1647 H 168.723 -0.243715 -3.87735 0
M  V30 1648 H 170.395 -2.84204 -3.63354 0
M  V30 1649 H 168.638 -2.72694 -3.37373 0
M  V30 1650 H 169.309 -2.39491 -4.97341 0
M  V30 1651 H 171.785 -0.674314 -4.106 0
M  V30 1652 H 170.661 -0.448355 -5.47066 0
M  V30 1653 H 170.922 0.866297 -4.33529 0
M  V30 1654 N 169.982 1.44106 -0.638065 0
M  V30 1655 C 171.393 1.85316 -0.226894 0
M  V30 1656 C 171.744 1.53399 1.22324 0
M  V30 1657 O 170.869 0.975463 1.93167 0
M  V30 1658 C 171.464 3.3637 -0.405013 0
M  V30 1659 C 170.023 3.76369 -0.0482902 0
M  V30 1660 C 169.17 2.67921 -0.715108 0
M  V30 1661 H 172.121 1.34474 -0.842764 0
M  V30 1662 H 172.142 3.7885 0.354 0
M  V30 1663 H 171.654 3.59569 -1.46053 0
M  V30 1664 H 169.755 3.58784 1.00522 0
M  V30 1665 H 169.868 4.76856 -0.463187 0
M  V30 1666 H 168.232 2.54259 -0.149753 0
M  V30 1667 H 169.015 2.93951 -1.77335 0
M  V30 1668 N 171.46 0.379036 1.52974 0
M  V30 1669 C 172.876 0.0285448 1.59574 0
M  V30 1670 C 173.076 -1.45542 1.39355 0
M  V30 1671 O 172.132 -2.2187 1.20541 0
M  V30 1672 C 173.445 0.496535 2.96572 0
M  V30 1673 C 174.993 0.451909 3.0972 0
M  V30 1674 C 175.468 0.895924 4.49152 0
M  V30 1675 N 176.959 0.851522 4.55306 0
M  V30 1676 C 177.694 1.16661 5.61407 0
M  V30 1677 N 177.19 1.55166 6.752 0
M  V30 1678 N 178.983 1.08853 5.51459 0
M  V30 1679 H 171.134 1.34525 1.64367 0
M  V30 1680 H 173.397 0.550733 0.771619 0
M  V30 1681 H 173.103 1.53258 3.16552 0
M  V30 1682 H 172.977 -0.109802 3.7704 0
M  V30 1683 H 175.364 -0.575029 2.89443 0
M  V30 1684 H 175.445 1.09392 2.3123 0
M  V30 1685 H 175.089 1.92104 4.70168 0
M  V30 1686 H 175.019 0.23103 5.26093 0
M  V30 1687 H 177.51 0.568038 3.73606 0
M  V30 1688 H 177.823 1.776 7.52116 0
M  V30 1689 H 176.168 1.59044 6.76557 0
M  V30 1690 H 179.359 0.786803 4.6144 0
M  V30 1691 H 179.532 1.33742 6.34048 0
M  V30 1692 N 172.938 -1.57226 0.108567 0
M  V30 1693 C 173.885 -2.14756 -0.845481 0
M  V30 1694 C 174.855 -1.06971 -1.27068 0
M  V30 1695 O 176.04 -1.34827 -1.35005 0
M  V30 1696 C 173.18 -2.74298 -2.09415 0
M  V30 1697 C 172.293 -3.96358 -1.71826 0
M  V30 1698 C 171.428 -4.44021 -2.9158 0
M  V30 1699 C 170.467 -5.58637 -2.50181 0
M  V30 1700 N 169.604 -6.01091 -3.62814 0
M  V30 1701 H 174.444 -2.95961 -0.348035 0
M  V30 1702 H 171.981 -1.46226 -0.160106 0
M  V30 1703 H 173.939 -3.06945 -2.82561 0
M  V30 1704 H 172.569 -1.95801 -2.56636 0
M  V30 1705 H 171.621 -3.69939 -0.885947 0
M  V30 1706 H 172.933 -4.79504 -1.37394 0
M  V30 1707 H 172.087 -4.78522 -3.72963 0
M  V30 1708 H 170.826 -3.59803 -3.29231 0
M  V30 1709 H 169.831 -5.23751 -1.67228 0
M  V30 1710 H 171.056 -6.44613 -2.13659 0
M  V30 1711 H 169.002 -5.19817 -4.00158 0
M  V30 1712 H 168.919 -6.79066 -3.32273 0
M  V30 1713 H 170.187 -6.40227 -4.44668 0
M  V30 1714 N 174.416 0.165178 -1.56732 0
M  V30 1715 C 175.349 1.23336 -1.91998 0
M  V30 1716 C 176.327 1.42476 -0.783531 0
M  V30 1717 O 177.511 1.57384 -1.03743 0
M  V30 1718 C 174.638 2.59533 -2.17625 0
M  V30 1719 C 173.684 2.57093 -3.40302 0
M  V30 1720 S 174.517 2.05571 -4.9447 0
M  V30 1721 C 175.673 3.43532 -5.23198 0
M  V30 1722 H 175.906 0.932387 -2.82301 0
M  V30 1723 H 173.439 0.370013 -1.49901 0
M  V30 1724 H 175.397 3.37918 -2.3307 0
M  V30 1725 H 174.058 2.86827 -1.28019 0
M  V30 1726 H 173.251 3.57308 -3.55453 0
M  V30 1727 H 172.853 1.86806 -3.24005 0
M  V30 1728 H 175.145 4.39559 -5.15552 0
M  V30 1729 H 176.088 3.33251 -6.2478 0
M  V30 1730 H 176.496 3.39828 -4.50752 0
M  V30 1731 N 175.894 1.51508 0.433938 0
M  V30 1732 C 176.857 1.72473 1.50949 0
M  V30 1733 C 177.857 0.594725 1.49398 0
M  V30 1734 O 179.047 0.862315 1.5136 0
M  V30 1735 C 176.179 1.78431 2.90474 0
M  V30 1736 H 177.372 2.68467 1.33662 0
M  V30 1737 H 174.925 1.41549 0.662836 0
M  V30 1738 H 175.66 0.842645 3.13161 0
M  V30 1739 H 175.445 2.60558 2.93005 0
M  V30 1740 H 176.935 1.96479 3.68491 0
M  V30 1741 N 177.372 -0.689602 1.41712 0
M  V30 1742 C 178.335 -1.78521 1.43746 0
M  V30 1743 C 179.335 -1.57436 0.327191 0
M  V30 1744 O 180.525 -1.64 0.587348 0
M  V30 1745 C 177.657 -3.16971 1.25467 0
M  V30 1746 H 178.85 -1.78108 2.41283 0
M  V30 1747 H 176.403 -0.89781 1.27942 0
M  V30 1748 H 177.138 -3.23019 0.287948 0
M  V30 1749 H 176.923 -3.33678 2.05917 0
M  V30 1750 H 178.413 -3.96935 1.2974 0
M  V30 1751 N 178.85 -1.27639 -0.924453 0
M  V30 1752 C 179.797 -1.10644 -2.0255 0
M  V30 1753 C 180.767 -0.00658438 -1.66099 0
M  V30 1754 O 181.952 -0.16952 -1.90045 0
M  V30 1755 C 179.092 -0.76309 -3.36557 0
M  V30 1756 C 178.205 -1.94091 -3.85944 0
M  V30 1757 C 177.34 -1.53914 -5.08413 0
M  V30 1758 C 176.379 -2.68425 -5.50104 0
M  V30 1759 N 175.516 -2.28815 -6.63768 0
M  V30 1760 H 180.356 -2.04858 -2.16419 0
M  V30 1761 H 177.893 -1.01974 -1.06017 0
M  V30 1762 H 179.851 -0.544822 -4.13627 0
M  V30 1763 H 178.481 0.142102 -3.22487 0
M  V30 1764 H 177.533 -2.27162 -3.05125 0
M  V30 1765 H 178.845 -2.7998 -4.12811 0
M  V30 1766 H 177.999 -1.28231 -5.92994 0
M  V30 1767 H 176.738 -0.651391 -4.8333 0
M  V30 1768 H 175.743 -2.94819 -4.64071 0
M  V30 1769 H 176.968 -3.57826 -5.7718 0
M  V30 1770 H 174.914 -1.42495 -6.40337 0
M  V30 1771 H 174.831 -3.08242 -6.90306 0
M  V30 1772 H 176.099 -2.06387 -7.51681 0
M  V30 1773 N 180.328 1.1314 -1.09713 0
M  V30 1774 C 181.556 1.88321 -0.856898 0
M  V30 1775 C 181.971 1.79276 0.592073 0
M  V30 1776 O 181.328 1.16142 1.40774 0
M  V30 1777 C 181.379 3.37812 -1.28706 0
M  V30 1778 O 181.1 3.46627 -2.67921 0
M  V30 1779 C 182.601 4.29952 -1.07964 0
M  V30 1780 H 179.821 0.596094 -0.308079 0
M  V30 1781 H 182.365 1.43205 -1.45988 0
M  V30 1782 H 180.52 3.805 -0.727912 0
M  V30 1783 H 180.934 4.39579 -2.8613 0
M  V30 1784 H 182.408 5.33159 -1.42986 0
M  V30 1785 H 182.885 4.39196 -0.0176577 0
M  V30 1786 H 183.491 3.93036 -1.62489 0
M  V30 1787 N 181.806 0.884767 1.30421 0
M  V30 1788 C 183.217 0.553656 1.78302 0
M  V30 1789 C 183.568 -0.930153 1.7275 0
M  V30 1790 O 182.693 -1.72681 1.30423 0
M  V30 1791 C 183.288 0.998234 3.2376 0
M  V30 1792 C 181.847 0.71854 3.69478 0
M  V30 1793 C 180.994 1.18132 2.50879 0
M  V30 1794 H 183.945 1.06901 1.17294 0
M  V30 1795 H 183.966 0.327118 3.79091 0
M  V30 1796 H 183.478 2.0782 3.27769 0
M  V30 1797 H 181.579 -0.349444 3.70958 0
M  V30 1798 H 181.692 1.30595 4.60958 0
M  V30 1799 H 180.056 0.600669 2.47516 0
M  V30 1800 H 180.839 2.26902 2.57624 0
M  V30 1801 N 183.284 -1.43765 0.645699 0
M  V30 1802 C 184.509 -2.06767 0.161883 0
M  V30 1803 C 184.934 -1.48034 -1.16049 0
M  V30 1804 O 184.292 -0.587369 -1.71522 0
M  V30 1805 C 184.34 -3.60519 0.0762003 0
M  V30 1806 O 183.444 -4.00982 -0.963721 0
M  V30 1807 H 182.785 -0.657675 0.091429 0
M  V30 1808 H 185.315 -1.84397 0.886499 0
M  V30 1809 H 185.325 -4.07853 -0.109604 0
M  V30 1810 H 184 -4.02646 1.04157 0
M  V30 1811 H 182.577 -3.65253 -0.751312 0
M  V30 1812 N 184.763 -0.387143 -1.52771 0
M  V30 1813 C 185.988 0.198407 -2.06449 0
M  V30 1814 C 186.413 1.39918 -1.25716 0
M  V30 1815 O 185.771 1.79099 -0.281657 0
M  V30 1816 C 185.819 0.548893 -3.56398 0
M  V30 1817 O 184.923 1.64315 -3.78252 0
M  V30 1818 H 184.264 0.0237731 -0.663574 0
M  V30 1819 H 186.794 -0.553989 -1.96957 0
M  V30 1820 H 186.804 0.813812 -3.99801 0
M  V30 1821 H 185.479 -0.329005 -4.14597 0
M  V30 1822 H 184.056 1.37211 -3.46738 0
M  V30 1823 N 186.241 1.57166 -0.116904 0
M  V30 1824 C 187.151 2.18745 0.847812 0
M  V30 1825 C 188.167 1.163 1.29423 0
M  V30 1826 O 189.343 1.48761 1.35765 0
M  V30 1827 C 186.408 2.77307 2.0809 0
M  V30 1828 C 185.469 3.94781 1.68661 0
M  V30 1829 C 184.702 4.50541 2.86091 0
M  V30 1830 O 184.925 4.05202 4.01456 0
M  V30 1831 O 183.859 5.41256 2.63298 0
M  V30 1832 H 187.685 3.01632 0.353778 0
M  V30 1833 H 185.27 1.49005 0.108599 0
M  V30 1834 H 187.152 3.14647 2.80313 0
M  V30 1835 H 185.827 1.97452 2.56504 0
M  V30 1836 H 184.734 3.62214 0.935518 0
M  V30 1837 H 186.067 4.76065 1.24991 0
M  V30 1838 N 187.719 -0.156864 1.56817 0
M  V30 1839 C 188.629 -1.2136 2.00771 0
M  V30 1840 C 189.645 -1.47598 0.921459 0
M  V30 1841 O 190.821 -1.59462 1.2302 0
M  V30 1842 C 187.886 -2.52943 2.37109 0
M  V30 1843 C 186.947 -2.34439 3.59634 0
M  V30 1844 C 186.18 -3.59748 3.94229 0
M  V30 1845 O 186.403 -4.65526 3.29609 0
M  V30 1846 O 185.337 -3.52998 4.8752 0
M  V30 1847 H 189.163 -0.870468 2.90958 0
M  V30 1848 H 186.748 -0.36484 1.44877 0
M  V30 1849 H 188.63 -3.30538 2.61386 0
M  V30 1850 H 187.305 -2.86806 1.5008 0
M  V30 1851 H 186.212 -1.54828 3.40557 0
M  V30 1852 H 187.545 -2.05496 4.4725 0
M  V30 1853 N 189.197 -1.51736 -0.425897 0
M  V30 1854 C 190.422 -1.69082 -1.20108 0
M  V30 1855 C 190.847 -0.392398 -1.83962 0
M  V30 1856 O 190.205 0.64858 -1.69302 0
M  V30 1857 C 190.253 -2.81604 -2.25237 0
M  V30 1858 O 189.357 -2.46004 -3.30992 0
M  V30 1859 H 188.698 -0.563408 -0.35138 0
M  V30 1860 H 191.228 -1.98358 -0.501512 0
M  V30 1861 H 191.238 -3.06025 -2.69838 0
M  V30 1862 H 189.913 -3.75817 -1.78142 0
M  V30 1863 H 188.49 -2.32195 -2.91787 0
M  V30 1864 N 190.675 0.682077 -1.42076 0
M  V30 1865 C 191.923 1.4393 -1.41876 0
M  V30 1866 C 192.244 1.94971 -0.0335599 0
M  V30 1867 O 191.514 1.72591 0.926773 0
M  V30 1868 H 190.094 0.534085 -0.522267 0
M  V30 1869 H 192.756 0.806427 -1.77434 0
M  V30 1870 H 191.852 2.29588 -2.11414 0
M  V30 1871 N 192.153 1.28127 0.917671 0
M  V30 1872 C 193.083 1.14248 2.03641 0
M  V30 1873 C 194.064 0.0412748 1.7005 0
M  V30 1874 O 195.249 0.217566 1.92977 0
M  V30 1875 C 192.379 0.799431 3.37974 0
M  V30 1876 C 191.333 1.85497 3.85713 0
M  V30 1877 C 190.659 1.36565 5.16966 0
M  V30 1878 C 191.959 3.26085 4.08002 0
M  V30 1879 H 193.653 2.07835 2.15511 0
M  V30 1880 H 191.199 1.00064 1.03553 0
M  V30 1881 H 193.152 0.689114 4.15727 0
M  V30 1882 H 191.876 -0.172145 3.26146 0
M  V30 1883 H 190.535 1.95437 3.10161 0
M  V30 1884 H 190.183 0.383253 5.01538 0
M  V30 1885 H 189.883 2.07143 5.49878 0
M  V30 1886 H 191.407 1.26848 5.97279 0
M  V30 1887 H 192.821 3.19089 4.76293 0
M  V30 1888 H 191.218 3.94462 4.52238 0
M  V30 1889 H 192.288 3.70394 3.12948 0
M  V30 1890 N 193.631 -1.12557 1.10312 0
M  V30 1891 C 195.042 -1.65574 0.862678 0
M  V30 1892 C 195.393 -1.86566 -0.607256 0
M  V30 1893 O 194.518 -1.59121 -1.46662 0
M  V30 1894 C 195.113 -3.00776 1.55947 0
M  V30 1895 C 193.672 -3.50748 1.36576 0
M  V30 1896 C 192.819 -2.25797 1.60968 0
M  V30 1897 H 195.77 -0.963552 1.26101 0
M  V30 1898 H 195.791 -3.67185 0.997753 0
M  V30 1899 H 195.303 -2.85465 2.62928 0
M  V30 1900 H 193.404 -3.71245 0.317531 0
M  V30 1901 H 193.517 -4.30289 2.10686 0
M  V30 1902 H 191.881 -2.32841 1.03234 0
M  V30 1903 H 192.664 -2.13043 2.69198 0
M  V30 1904 N 195.109 -0.891671 -1.2995 0
M  V30 1905 C 196.056 -0.361736 -2.27948 0
M  V30 1906 C 197.026 0.551761 -1.56668 0
M  V30 1907 O 198.211 0.478736 -1.84696 0
M  V30 1908 C 195.351 0.411825 -3.42634 0
M  V30 1909 C 194.464 -0.531651 -4.28716 0
M  V30 1910 C 193.599 0.258167 -5.30572 0
M  V30 1911 C 192.638 -0.680349 -6.08307 0
M  V30 1912 N 191.775 0.0745613 -7.0206 0
M  V30 1913 H 196.615 -1.20254 -2.72659 0
M  V30 1914 H 194.152 -0.604352 -1.34112 0
M  V30 1915 H 196.11 0.876304 -4.07893 0
M  V30 1916 H 194.74 1.21715 -2.98974 0
M  V30 1917 H 193.792 -1.11463 -3.63703 0
M  V30 1918 H 195.104 -1.25038 -4.82874 0
M  V30 1919 H 194.258 0.784204 -6.0161 0
M  V30 1920 H 192.997 1.01008 -4.77126 0
M  V30 1921 H 192.002 -1.21796 -5.3614 0
M  V30 1922 H 193.227 -1.43145 -6.63842 0
M  V30 1923 H 191.173 0.808883 -6.50994 0
M  V30 1924 H 191.09 -0.584409 -7.53738 0
M  V30 1925 H 192.358 0.581123 -7.77331 0
M  V30 1926 N 196.587 1.43421 -0.653314 0
M  V30 1927 C 197.517 2.33487 0.0246656 0
M  V30 1928 C 198.498 1.49475 0.811863 0
M  V30 1929 O 199.683 1.78139 0.773322 0
M  V30 1930 C 196.813 3.32841 0.99166 0
M  V30 1931 C 195.767 4.26842 0.314568 0
M  V30 1932 C 195.093 5.16236 1.39302 0
M  V30 1933 C 196.393 5.16243 -0.793095 0
M  V30 1934 H 198.087 2.90427 -0.727481 0
M  V30 1935 H 195.633 1.39649 -0.351287 0
M  V30 1936 H 197.586 3.94747 1.47487 0
M  V30 1937 H 196.31 2.74158 1.77497 0
M  V30 1938 H 194.969 3.663 -0.148199 0
M  V30 1939 H 194.617 4.53891 2.16776 0
M  V30 1940 H 194.317 5.79948 0.945223 0
M  V30 1941 H 195.841 5.81015 1.87759 0
M  V30 1942 H 197.255 5.71958 -0.392039 0
M  V30 1943 H 195.652 5.88676 -1.16536 0
M  V30 1944 H 196.722 4.55927 -1.65103 0
M  V30 1945 N 198.065 0.39524 1.52563 0
M  V30 1946 C 199.476 -0.0774719 1.86539 0
M  V30 1947 C 199.827 -1.45641 1.31466 0
M  V30 1948 O 198.952 -2.06459 0.648367 0
M  V30 1949 C 199.547 -0.147356 3.38479 0
M  V30 1950 C 198.106 -0.564373 3.72145 0
M  V30 1951 C 197.253 0.269919 2.75983 0
M  V30 1952 H 200.204 0.612876 1.46388 0
M  V30 1953 H 200.225 -0.965343 3.68051 0
M  V30 1954 H 199.737 0.856387 3.78534 0
M  V30 1955 H 197.838 -1.57527 3.37663 0
M  V30 1956 H 197.951 -0.318402 4.78041 0
M  V30 1957 H 196.315 -0.265696 2.5331 0
M  V30 1958 H 197.098 1.27175 3.18875 0
M  V30 1959 N 199.544 -1.57102 0.125237 0
M  V30 1960 C 200.79 -1.95697 -0.532035 0
M  V30 1961 C 201.123 -1.009 -1.6593 0
M  V30 1962 O 200.398 -0.047347 -1.94442 0
M  V30 1963 C 200.681 -3.44181 -1.05884 0
M  V30 1964 C 200.534 -4.49752 0.0654392 0
M  V30 1965 C 201.853 -3.94655 -1.9477 0
M  V30 1966 H 198.972 -0.711571 -0.191925 0
M  V30 1967 H 201.614 -1.88923 0.20206 0
M  V30 1968 H 199.764 -3.50085 -1.68442 0
M  V30 1969 H 201.436 -4.55943 0.700982 0
M  V30 1970 H 199.679 -4.27653 0.727709 0
M  V30 1971 H 200.35 -5.50924 -0.344505 0
M  V30 1972 H 202.826 -3.91094 -1.42074 0
M  V30 1973 H 201.702 -4.99057 -2.28546 0
M  V30 1974 H 201.963 -3.35718 -2.87656 0
M  V30 1975 N 201.022 0.148545 -1.56898 0
M  V30 1976 C 202.433 0.708766 -1.72723 0
M  V30 1977 C 202.784 1.81734 -0.739395 0
M  V30 1978 O 201.909 2.16194 0.0943169 0
M  V30 1979 C 202.504 1.29245 -3.13179 0
M  V30 1980 C 201.063 1.79925 -3.30611 0
M  V30 1981 C 200.21 0.687111 -2.68652 0
M  V30 1982 H 203.161 -0.0771063 -1.58513 0
M  V30 1983 H 203.182 2.16224 -3.13093 0
M  V30 1984 H 202.694 0.485382 -3.85053 0
M  V30 1985 H 200.795 2.63203 -2.63732 0
M  V30 1986 H 200.908 1.92903 -4.38549 0
M  V30 1987 H 199.272 1.11335 -2.29078 0
M  V30 1988 H 200.055 -0.108483 -3.43129 0
M  V30 1989 N 202.5 1.5196 0.417844 0
M  V30 1990 C 203.911 1.57851 0.997 0
M  V30 1991 C 204.262 0.413714 1.91789 0
M  V30 1992 O 203.387 -0.467057 2.113 0
M  V30 1993 C 203.982 2.86085 1.81496 0
M  V30 1994 C 202.541 2.94483 2.34428 0
M  V30 1995 C 201.688 2.52707 1.14169 0
M  V30 1996 H 204.639 1.57455 0.198392 0
M  V30 1997 H 204.66 2.70947 2.67148 0
M  V30 1998 H 204.172 3.70842 1.14446 0
M  V30 1999 H 202.273 2.142 3.04875 0
M  V30 2000 H 202.386 3.98546 2.65891 0
M  V30 2001 H 200.75 2.06353 1.49301 0
M  V30 2002 H 201.533 3.39828 0.486999 0
M  V30 2003 N 203.978 -0.674533 1.42435 0
M  V30 2004 C 204.908 -1.80009 1.48724 0
M  V30 2005 C 205.889 -1.6659 0.343793 0
M  V30 2006 O 207.074 -1.86007 0.558137 0
M  V30 2007 C 204.204 -3.18306 1.38919 0
M  V30 2008 C 203.158 -3.46461 2.51294 0
M  V30 2009 C 202.484 -4.84335 2.26547 0
M  V30 2010 C 203.784 -3.43328 3.93603 0
M  V30 2011 H 205.478 -1.75004 2.42928 0
M  V30 2012 H 203.024 -0.840533 1.16923 0
M  V30 2013 H 204.977 -3.9678 1.41927 0
M  V30 2014 H 203.701 -3.2399 0.412094 0
M  V30 2015 H 202.36 -2.70348 2.47604 0
M  V30 2016 H 202.008 -4.86669 1.2713 0
M  V30 2017 H 201.708 -5.04136 3.01861 0
M  V30 2018 H 203.232 -5.65094 2.31304 0
M  V30 2019 H 204.646 -4.11772 3.98894 0
M  V30 2020 H 203.043 -3.74664 4.68771 0
M  V30 2021 H 204.113 -2.41897 4.20255 0
M  V30 2022 N 205.456 -1.28612 -0.910864 0
M  V30 2023 C 206.388 -1.08589 -2.01844 0
M  V30 2024 C 207.401 -0.0367419 -1.62759 0
M  V30 2025 O 208.59 -0.280101 -1.76289 0
M  V30 2026 C 205.69 -0.628626 -3.33019 0
M  V30 2027 C 204.863 -1.75382 -4.00699 0
M  V30 2028 C 203.922 -1.28945 -5.10156 0
M  V30 2029 O 202.948 -1.9922 -5.33198 0
M  V30 2030 N 204.15 -0.154224 -5.80295 0
M  V30 2031 H 206.915 -2.03973 -2.19579 0
M  V30 2032 H 204.476 -1.20403 -1.08234 0
M  V30 2033 H 206.468 -0.301508 -4.03575 0
M  V30 2034 H 205.038 0.232451 -3.11735 0
M  V30 2035 H 204.258 -2.25039 -3.23653 0
M  V30 2036 H 205.546 -2.50854 -4.42662 0
M  V30 2037 H 204.944 0.43194 -5.64049 0
M  V30 2038 H 203.501 0.113599 -6.51701 0
M  V30 2039 N 206.934 1.1197 -1.10907 0
M  V30 2040 C 207.866 2.17592 -0.720175 0
M  V30 2041 C 208.879 1.60938 0.245495 0
M  V30 2042 O 210.068 1.78476 0.0292245 0
M  V30 2043 C 207.168 3.38873 -0.0427917 0
M  V30 2044 C 206.341 4.25006 -1.03388 0
M  V30 2045 C 205.4 5.24774 -0.387075 0
M  V30 2046 O 204.426 5.59631 -1.03934 0
M  V30 2047 N 205.628 5.74208 0.852407 0
M  V30 2048 H 208.393 2.51567 -1.62893 0
M  V30 2049 H 205.954 1.27439 -0.998543 0
M  V30 2050 H 207.946 4.02703 0.401501 0
M  V30 2051 H 206.516 3.03007 0.768456 0
M  V30 2052 H 205.736 3.57716 -1.65629 0
M  V30 2053 H 207.024 4.79397 -1.70458 0
M  V30 2054 H 206.422 5.48062 1.40161 0
M  V30 2055 H 204.979 6.39901 1.23977 0
M  V30 2056 N 208.412 0.89855 1.29475 0
M  V30 2057 C 209.64 0.539261 1.99749 0
M  V30 2058 C 210.055 -0.875716 1.67262 0
M  V30 2059 O 209.412 -1.57786 0.917049 0
M  V30 2060 C 209.463 0.72061 3.54245 0
M  V30 2061 O 209.184 2.07989 3.8558 0
M  V30 2062 C 210.685 0.366118 4.41786 0
M  V30 2063 H 207.905 0.207047 0.638258 0
M  V30 2064 H 210.449 1.20758 1.65039 0
M  V30 2065 H 208.604 0.0994862 3.87272 0
M  V30 2066 H 209.018 2.10841 4.80257 0
M  V30 2067 H 210.492 0.543848 5.49314 0
M  V30 2068 H 210.969 -0.696763 4.33638 0
M  V30 2069 H 211.575 0.964135 4.14228 0
M  V30 2070 N 209.89 -1.43072 0.660911 0
M  V30 2071 C 210.82 -2.33497 -0.0122829 0
M  V30 2072 C 211.801 -1.49903 -0.803925 0
M  V30 2073 O 212.986 -1.78546 -0.763864 0
M  V30 2074 C 210.116 -3.33363 -0.973994 0
M  V30 2075 C 209.07 -4.27003 -0.291928 0
M  V30 2076 C 208.396 -5.16967 -1.36562 0
M  V30 2077 C 209.696 -5.15816 0.820462 0
M  V30 2078 H 211.39 -2.90038 0.742873 0
M  V30 2079 H 208.936 -1.39461 0.358688 0
M  V30 2080 H 210.889 -3.95524 -1.45392 0
M  V30 2081 H 209.613 -2.75095 -1.7604 0
M  V30 2082 H 208.272 -3.66217 0.167623 0
M  V30 2083 H 207.92 -4.55034 -2.14366 0
M  V30 2084 H 207.62 -5.80441 -0.914454 0
M  V30 2085 H 209.144 -5.82003 -1.84675 0
M  V30 2086 H 210.558 -5.71742 0.422366 0
M  V30 2087 H 208.955 -5.8805 1.19656 0
M  V30 2088 H 210.025 -4.55045 1.67518 0
M  V30 2089 N 211.368 -0.403325 -1.52352 0
M  V30 2090 C 212.331 0.413051 -2.25447 0
M  V30 2091 C 213.331 0.978513 -1.276 0
M  V30 2092 O 214.521 0.858305 -1.51587 0
M  V30 2093 C 211.653 1.58087 -3.02029 0
M  V30 2094 H 212.846 -0.227094 -2.99039 0
M  V30 2095 H 210.399 -0.155722 -1.55522 0
M  V30 2096 H 211.134 2.25804 -2.32772 0
M  V30 2097 H 210.919 1.18195 -3.73861 0
M  V30 2098 H 212.409 2.1585 -3.57489 0
M  V30 2099 N 212.846 1.57033 -0.133567 0
M  V30 2100 C 214.074 2.00044 0.528195 0
M  V30 2101 C 214.489 1.01349 1.59291 0
M  V30 2102 O 213.846 0.00848369 1.82498 0
M  V30 2103 C 213.897 3.43018 1.1411 0
M  V30 2104 O 213.618 4.37939 0.11892 0
M  V30 2105 C 215.119 4.01237 1.88477 0
M  V30 2106 H 212.339 0.656517 0.138661 0
M  V30 2107 H 214.883 2.03267 -0.224196 0
M  V30 2108 H 213.038 3.40688 1.84418 0
M  V30 2109 H 213.452 5.21436 0.56613 0
M  V30 2110 H 214.926 5.03314 2.26669 0
M  V30 2111 H 215.403 3.41193 2.76558 0
M  V30 2112 H 216.009 4.07156 1.22898 0
M  V30 2113 N 214.325 -0.140222 1.56975 0
M  V30 2114 C 215.555 -0.865181 1.87612 0
M  V30 2115 C 215.963 -1.74942 0.72055 0
M  V30 2116 O 215.306 -1.80917 -0.318561 0
M  V30 2117 C 215.368 -1.76782 3.13031 0
M  V30 2118 C 215.032 -1.06005 4.44536 0
M  V30 2119 C 216.029 -0.410768 5.18275 0
M  V30 2120 C 213.714 -1.04754 4.91255 0
M  V30 2121 C 215.708 0.241572 6.36942 0
M  V30 2122 C 213.395 -0.391394 6.09845 0
M  V30 2123 C 214.393 0.252029 6.82535 0
M  V30 2124 O 214.081 0.897757 7.98871 0
M  V30 2125 H 213.813 -0.255188 0.625983 0
M  V30 2126 H 216.367 -0.135653 2.04952 0
M  V30 2127 H 214.597 -2.53846 2.91718 0
M  V30 2128 H 216.286 -2.36533 3.29859 0
M  V30 2129 H 217.052 -0.412195 4.83245 0
M  V30 2130 H 212.931 -1.53777 4.34596 0
M  V30 2131 H 216.475 0.744375 6.93617 0
M  V30 2132 H 212.372 -0.387656 6.44335 0
M  V30 2133 H 213.14 0.800102 8.1458 0
M  V30 2134 N 215.803 -1.52179 -0.40978 0
M  V30 2135 C 216.733 -1.78435 -1.5061 0
M  V30 2136 C 217.714 -0.635295 -1.57791 0
M  V30 2137 O 218.899 -0.880823 -1.73076 0
M  V30 2138 C 216.029 -1.93444 -2.88439 0
M  V30 2139 C 214.983 -3.09038 -2.96108 0
M  V30 2140 C 214.309 -3.09268 -4.36185 0
M  V30 2141 C 215.609 -4.48508 -2.67652 0
M  V30 2142 H 217.303 -2.70237 -1.28889 0
M  V30 2143 H 214.849 -1.30036 -0.618605 0
M  V30 2144 H 216.802 -2.10394 -3.65119 0
M  V30 2145 H 215.526 -0.983129 -3.11452 0
M  V30 2146 H 214.185 -2.91837 -2.21872 0
M  V30 2147 H 213.833 -2.11861 -4.56206 0
M  V30 2148 H 213.533 -3.86907 -4.42241 0
M  V30 2149 H 215.057 -3.28348 -5.14801 0
M  V30 2150 H 216.471 -4.65918 -3.34056 0
M  V30 2151 H 214.868 -5.28059 -2.85085 0
M  V30 2152 H 215.938 -4.56649 -1.63095 0
M  V30 2153 N 217.281 0.66697 -1.42791 0
M  V30 2154 C 218.213 1.7925 -1.42836 0
M  V30 2155 C 219.226 1.59496 -0.326333 0
M  V30 2156 O 220.415 1.6847 -0.589916 0
M  V30 2157 C 217.515 3.16476 -1.21229 0
M  V30 2158 C 216.688 3.63011 -2.44013 0
M  V30 2159 C 215.747 4.78993 -2.17834 0
M  V30 2160 O 214.773 4.89137 -2.91091 0
M  V30 2161 N 215.975 5.68248 -1.18635 0
M  V30 2162 H 218.74 1.79695 -2.39854 0
M  V30 2163 H 216.301 0.850338 -1.37771 0
M  V30 2164 H 218.293 3.91734 -1.01621 0
M  V30 2165 H 216.863 3.10884 -0.32706 0
M  V30 2166 H 216.083 2.78346 -2.79137 0
M  V30 2167 H 217.371 3.90845 -3.25757 0
M  V30 2168 H 216.769 5.62712 -0.580615 0
M  V30 2169 H 215.326 6.43285 -1.05013 0
M  V30 2170 N 218.759 1.29093 0.90403 0
M  V30 2171 C 219.999 1.18076 1.66845 0
M  V30 2172 C 220.363 -0.26436 1.90171 0
M  V30 2173 O 221.564 -0.497423 2.64157 0
M  V30 2174 C 219.835 1.96722 2.98388 0
M  V30 2175 S 221.394 2.0219 3.89441 0
M  V30 2176 H 218.212 0.421104 0.572881 0
M  V30 2177 H 220.814 1.63322 1.07453 0
M  V30 2178 H 219.518 3.00866 2.7912 0
M  V30 2179 H 219.049 1.52064 3.62823 0
M  V30 2180 H 221.064 1.13545 4.83034 0
M  V30 2181 N 220.237 -1.11381 1.11499 0
M  V30 2182 C 221.17 -2.16621 0.71769 0
M  V30 2183 C 222.148 -1.60058 -0.286413 0
M  V30 2184 O 223.332 -1.87613 -0.182689 0
M  V30 2185 C 220.459 -3.38646 0.0607265 0
M  V30 2186 C 219.505 -4.13874 1.03008 0
M  V30 2187 S 220.338 -4.70731 2.55289 0
M  V30 2188 C 221.494 -5.96079 1.90895 0
M  V30 2189 H 221.727 -2.49987 1.60915 0
M  V30 2190 H 219.26 -1.23015 0.933092 0
M  V30 2191 H 221.218 -4.09313 -0.311965 0
M  V30 2192 H 219.879 -3.03537 -0.807702 0
M  V30 2193 H 219.072 -5.01333 0.517853 0
M  V30 2194 H 218.674 -3.4897 1.34522 0
M  V30 2195 H 220.966 -6.65948 1.24577 0
M  V30 2196 H 221.909 -6.51946 2.76354 0
M  V30 2197 H 222.317 -5.47652 1.36885 0
M  V30 2198 N 221.715 -0.905404 -1.28997 0
M  V30 2199 C 223.131 -0.60233 -1.47798 0
M  V30 2200 C 223.331 0.854645 -1.82478 0
M  V30 2201 O 222.387 1.63439 -1.92468 0
M  V30 2202 C 223.7 -1.53306 -2.58685 0
M  V30 2203 C 225.248 -1.53887 -2.72558 0
M  V30 2204 C 225.723 -2.45602 -3.86579 0
M  V30 2205 N 227.214 -2.43681 -3.93921 0
M  V30 2206 C 227.949 -3.11347 -4.81509 0
M  V30 2207 N 227.445 -3.88313 -5.73746 0
M  V30 2208 N 229.238 -3.00476 -4.75048 0
M  V30 2209 H 221.389 -1.84765 -1.04764 0
M  V30 2210 H 223.652 -0.792025 -0.520961 0
M  V30 2211 H 223.358 -2.57141 -2.39941 0
M  V30 2212 H 223.232 -1.25787 -3.55609 0
M  V30 2213 H 225.619 -0.507941 -2.90696 0
M  V30 2214 H 225.7 -1.85447 -1.76191 0
M  V30 2215 H 225.344 -3.48792 -3.69197 0
M  V30 2216 H 225.274 -2.11349 -4.82327 0
M  V30 2217 H 227.765 -1.87767 -3.27951 0
M  V30 2218 H 228.078 -4.36985 -6.37389 0
M  V30 2219 H 226.423 -3.92419 -5.73614 0
M  V30 2220 H 229.614 -2.39858 -4.01977 0
M  V30 2221 H 229.787 -3.53485 -5.43095 0
M  V30 2222 N 223.193 1.4272 -0.668489 0
M  V30 2223 C 224.143 2.27971 0.0363806 0
M  V30 2224 C 225.127 1.40741 0.779794 0
M  V30 2225 O 226.319 1.64245 0.659745 0
M  V30 2226 C 223.448 3.28673 0.991398 0
M  V30 2227 C 222.534 4.23388 0.245658 0
M  V30 2228 N 222.925 5.00267 -0.746069 0
M  V30 2229 C 221.223 4.43355 0.484988 0
M  V30 2230 C 221.924 5.69396 -1.19009 0
M  V30 2231 N 220.9 5.41095 -0.521287 0
M  V30 2232 H 224.702 2.84833 -0.724394 0
M  V30 2233 H 222.216 1.54607 -0.497028 0
M  V30 2234 H 224.213 3.88543 1.51129 0
M  V30 2235 H 222.873 2.73373 1.75207 0
M  V30 2236 H 223.884 5.05525 -1.12537 0
M  V30 2237 H 220.561 3.99104 1.22565 0
M  V30 2238 H 221.951 6.41083 -2.01153 0
M  V30 2239 N 224.671 0.411399 1.52136 0
M  V30 2240 C 225.601 -0.404015 2.29978 0
M  V30 2241 C 226.582 -1.04412 1.34284 0
M  V30 2242 O 227.767 -1.0527 1.63192 0
M  V30 2243 C 224.897 -1.5197 3.12286 0
M  V30 2244 C 223.851 -1.00448 4.16046 0
M  V30 2245 C 223.177 -2.21393 4.86712 0
M  V30 2246 C 224.477 -0.0569336 5.22269 0
M  V30 2247 H 226.171 0.245529 2.98392 0
M  V30 2248 H 223.717 0.119525 1.43503 0
M  V30 2249 H 225.67 -2.09715 3.6551 0
M  V30 2250 H 224.394 -2.19716 2.41646 0
M  V30 2251 H 223.053 -0.449421 3.63835 0
M  V30 2252 H 222.701 -2.87699 4.12599 0
M  V30 2253 H 222.401 -1.87571 5.56858 0
M  V30 2254 H 223.925 -2.7974 5.4275 0
M  V30 2255 H 225.339 -0.54325 5.7072 0
M  V30 2256 H 223.736 0.192594 5.99791 0
M  V30 2257 H 224.806 0.887663 4.76706 0
M  V30 2258 N 226.149 -1.5696 0.141893 0
M  V30 2259 C 227.395 -1.9625 -0.511248 0
M  V30 2260 C 227.728 -1.02654 -1.64851 0
M  V30 2261 O 227.003 -0.0679676 -1.94381 0
M  V30 2262 C 227.286 -3.45285 -1.02227 0
M  V30 2263 C 227.139 -4.49658 0.113138 0
M  V30 2264 C 228.458 -3.96698 -1.90574 0
M  V30 2265 H 225.577 -0.713567 -0.184367 0
M  V30 2266 H 228.219 -1.88698 0.222087 0
M  V30 2267 H 226.369 -3.51852 -1.64719 0
M  V30 2268 H 228.041 -4.55174 0.749302 0
M  V30 2269 H 226.284 -4.26857 0.773026 0
M  V30 2270 H 226.955 -5.51258 -0.286053 0
M  V30 2271 H 229.431 -3.92578 -1.37918 0
M  V30 2272 H 228.307 -5.01453 -2.2324 0
M  V30 2273 H 228.568 -3.3875 -2.84079 0
M  V30 2274 N 227.627 0.131896 -1.57047 0
M  V30 2275 C 228.852 0.860418 -1.8871 0
M  V30 2276 C 229.277 1.73251 -0.73251 0
M  V30 2277 O 228.635 1.785 0.317429 0
M  V30 2278 C 228.683 1.68047 -3.19049 0
M  V30 2279 O 227.787 2.7862 -3.04047 0
M  V30 2280 H 227.128 0.238743 -0.619595 0
M  V30 2281 H 229.658 0.118169 -2.04258 0
M  V30 2282 H 229.668 2.07238 -3.51449 0
M  V30 2283 H 228.343 1.04018 -4.02682 0
M  V30 2284 H 226.92 2.42726 -2.83088 0
M  V30 2285 N 229.106 1.52395 0.401703 0
M  V30 2286 C 230.016 1.7917 1.51444 0
M  V30 2287 C 231.032 0.677691 1.6026 0
M  V30 2288 O 232.208 0.963909 1.76835 0
M  V30 2289 C 229.273 1.94347 2.87107 0
M  V30 2290 C 228.334 3.18257 2.88116 0
M  V30 2291 C 227.567 3.32701 4.17308 0
M  V30 2292 O 227.79 2.52238 5.11598 0
M  V30 2293 O 226.724 4.25891 4.25324 0
M  V30 2294 H 230.55 2.73633 1.31752 0
M  V30 2295 H 228.135 1.3733 0.588296 0
M  V30 2296 H 230.017 2.06109 3.67555 0
M  V30 2297 H 228.692 1.03073 3.06851 0
M  V30 2298 H 227.599 3.11947 2.06494 0
M  V30 2299 H 228.932 4.09336 2.73322 0
M  V30 2300 N 230.584 -0.659388 1.43143 0
M  V30 2301 C 231.494 -1.80167 1.50256 0
M  V30 2302 C 232.51 -1.69571 0.390106 0
M  V30 2303 O 233.686 -1.90849 0.643319 0
M  V30 2304 C 230.751 -3.16409 1.41725 0
M  V30 2305 C 229.812 -3.38848 2.63591 0
M  V30 2306 C 229.045 -4.68591 2.55458 0
M  V30 2307 O 229.268 -5.47532 1.59891 0
M  V30 2308 O 228.202 -4.92614 3.45854 0
M  V30 2309 H 232.028 -1.77121 2.46702 0
M  V30 2310 H 229.613 -0.817092 1.25076 0
M  V30 2311 H 231.495 -3.9768 1.39387 0
M  V30 2312 H 230.17 -3.20059 0.484118 0
M  V30 2313 H 229.077 -2.57366 2.71502 0
M  V30 2314 H 230.41 -3.4004 3.55856 0
M  V30 2315 N 232.062 -1.29571 -0.897171 0
M  V30 2316 C 232.994 -1.10724 -2.00681 0
M  V30 2317 C 234.007 -0.0540026 -1.6271 0
M  V30 2318 O 235.196 -0.298783 -1.75982 0
M  V30 2319 C 232.296 -0.663912 -3.32333 0
M  V30 2320 C 231.469 -1.79622 -3.98816 0
M  V30 2321 C 230.528 -1.34349 -5.0876 0
M  V30 2322 O 229.554 -2.04864 -5.31055 0
M  V30 2323 N 230.756 -0.215764 -5.80099 0
M  V30 2324 H 233.521 -2.06291 -2.17403 0
M  V30 2325 H 231.082 -1.21544 -1.06951 0
M  V30 2326 H 233.074 -0.344295 -4.03233 0
M  V30 2327 H 231.644 0.199375 -3.11964 0
M  V30 2328 H 230.864 -2.28459 -3.21248 0
M  V30 2329 H 232.152 -2.55535 -4.39976 0
M  V30 2330 H 231.55 0.372091 -5.64475 0
M  V30 2331 H 230.107 0.0444707 -6.51785 0
M  V30 2332 N 233.54 1.10788 -1.12088 0
M  V30 2333 C 234.787 1.82671 -0.873931 0
M  V30 2334 C 235.115 1.85004 0.600311 0
M  V30 2335 O 234.37 1.30365 1.45957 0
M  V30 2336 C 234.669 3.29294 -1.38926 0
M  V30 2337 C 234.335 3.47113 -2.87791 0
M  V30 2338 C 232.997 3.51684 -3.28439 0
M  V30 2339 C 235.349 3.52808 -3.83635 0
M  V30 2340 C 232.677 3.59513 -4.63646 0
M  V30 2341 C 235.029 3.62169 -5.18668 0
M  V30 2342 C 233.693 3.65003 -5.58864 0
M  V30 2343 H 232.963 0.668441 -0.319794 0
M  V30 2344 H 235.61 1.30613 -1.40045 0
M  V30 2345 H 233.915 3.83894 -0.783122 0
M  V30 2346 H 235.612 3.83416 -1.17443 0
M  V30 2347 H 232.202 3.4423 -2.5535 0
M  V30 2348 H 236.386 3.4853 -3.53328 0
M  V30 2349 H 231.642 3.59987 -4.94185 0
M  V30 2350 H 235.816 3.6552 -5.92763 0
M  V30 2351 H 233.443 3.70822 -6.63623 0
M  V30 2352 N 235.018 0.912232 1.28515 0
M  V30 2353 C 236.434 0.610159 1.47476 0
M  V30 2354 C 236.634 -0.844955 1.82928 0
M  V30 2355 O 235.69 -1.62416 1.93332 0
M  V30 2356 C 237.003 1.54675 2.57868 0
M  V30 2357 C 238.551 1.55331 2.71738 0
M  V30 2358 C 239.026 2.47649 3.85272 0
M  V30 2359 N 240.517 2.45767 3.92623 0
M  V30 2360 C 241.252 3.13896 4.79851 0
M  V30 2361 N 240.748 3.9135 5.71679 0
M  V30 2362 N 242.541 3.02991 4.73448 0
M  V30 2363 H 234.692 1.85318 1.03783 0
M  V30 2364 H 236.955 0.794777 0.516753 0
M  V30 2365 H 236.661 2.5841 2.38574 0
M  V30 2366 H 236.535 1.27671 3.54937 0
M  V30 2367 H 238.922 0.52335 2.90422 0
M  V30 2368 H 239.003 1.86378 1.75205 0
M  V30 2369 H 238.647 3.50745 3.67342 0
M  V30 2370 H 238.577 2.13904 4.81199 0
M  V30 2371 H 241.068 1.89503 3.26951 0
M  V30 2372 H 241.381 4.40359 6.35062 0
M  V30 2373 H 239.726 3.95455 5.71524 0
M  V30 2374 H 242.917 2.41987 4.007 0
M  V30 2375 H 243.09 3.5636 5.41213 0
M  V30 2376 N 236.496 -1.42363 0.676048 0
M  V30 2377 C 237.443 -2.308 -0.00150904 0
M  V30 2378 C 238.413 -1.46032 -0.791444 0
M  V30 2379 O 239.598 -1.74861 -0.76344 0
M  V30 2380 C 236.738 -3.31883 -0.945919 0
M  V30 2381 C 235.851 -4.31741 -0.149675 0
M  V30 2382 C 234.986 -5.19898 -1.08995 0
M  V30 2383 C 234.025 -6.11434 -0.285465 0
M  V30 2384 N 233.162 -6.92138 -1.17851 0
M  V30 2385 H 238.002 -2.88187 0.758455 0
M  V30 2386 H 235.539 -1.41952 0.38576 0
M  V30 2387 H 237.497 -3.89019 -1.50731 0
M  V30 2388 H 236.127 -2.76093 -1.6725 0
M  V30 2389 H 235.179 -3.76713 0.528359 0
M  V30 2390 H 236.491 -4.96534 0.474866 0
M  V30 2391 H 235.645 -5.81772 -1.72123 0
M  V30 2392 H 234.384 -4.55284 -1.74837 0
M  V30 2393 H 233.389 -5.48627 0.359018 0
M  V30 2394 H 234.614 -6.78097 0.368883 0
M  V30 2395 H 232.56 -6.30152 -1.82332 0
M  V30 2396 H 232.477 -7.53542 -0.609082 0
M  V30 2397 H 233.745 -7.58499 -1.79722 0
M  V30 2398 N 237.974 -0.419461 -1.51915 0
M  V30 2399 C 239.199 0.154572 -2.06823 0
M  V30 2400 C 239.624 1.3722 -1.28656 0
M  V30 2401 O 238.982 1.78461 -0.319583 0
M  V30 2402 C 239.03 0.473172 -3.57482 0
M  V30 2403 O 238.134 1.56255 -3.81652 0
M  V30 2404 H 237.475 0.0096924 -0.663929 0
M  V30 2405 H 240.005 -0.595642 -1.95738 0
M  V30 2406 H 240.015 0.728825 -4.01438 0
M  V30 2407 H 238.69 -0.416873 -4.13805 0
M  V30 2408 H 237.267 1.29825 -3.49571 0
M  V30 2409 N 239.452 1.56882 -0.150215 0
M  V30 2410 C 240.384 2.14057 0.819286 0
M  V30 2411 C 241.397 1.09082 1.20851 0
M  V30 2412 O 242.586 1.36347 1.15203 0
M  V30 2413 C 239.686 2.65102 2.11127 0
M  V30 2414 C 238.859 3.94511 1.88891 0
M  V30 2415 C 237.918 4.30834 3.02107 0
M  V30 2416 O 236.944 4.99099 2.73659 0
M  V30 2417 N 238.146 3.90676 4.29363 0
M  V30 2418 H 240.911 2.97871 0.330618 0
M  V30 2419 H 238.472 1.61866 0.0332538 0
M  V30 2420 H 240.464 2.86411 2.85921 0
M  V30 2421 H 239.034 1.85994 2.51247 0
M  V30 2422 H 238.254 3.81795 0.981152 0
M  V30 2423 H 239.542 4.7907 1.71376 0
M  V30 2424 H 238.94 3.35677 4.55343 0
M  V30 2425 H 237.497 4.1703 5.00928 0
M  V30 2426 N 240.93 -0.123565 1.57115 0
M  V30 2427 C 241.893 -1.13583 1.99076 0
M  V30 2428 C 242.893 -1.34564 0.880296 0
M  V30 2429 O 244.083 -1.31158 1.14644 0
M  V30 2430 C 241.215 -2.49128 2.32698 0
M  V30 2431 H 242.408 -0.775287 2.89706 0
M  V30 2432 H 239.961 -0.36771 1.51913 0
M  V30 2433 H 240.696 -2.90111 1.44934 0
M  V30 2434 H 240.481 -2.35255 3.13684 0
M  V30 2435 H 241.971 -3.2199 2.65918 0
M  V30 2436 N 242.408 -1.52605 -0.393616 0
M  V30 2437 C 243.657 -1.66649 -1.13627 0
M  V30 2438 C 243.97 -0.410364 -1.91247 0
M  V30 2439 O 245.176 -0.430854 -2.68059 0
M  V30 2440 C 243.632 -2.9449 -2.06891 0
M  V30 2441 C 243.24 -4.27266 -1.34714 0
M  V30 2442 C 244.984 -3.17899 -2.81319 0
M  V30 2443 C 242.891 -5.46217 -2.26717 0
M  V30 2444 H 241.821 -0.62084 -0.427871 0
M  V30 2445 H 244.472 -1.791 -0.399428 0
M  V30 2446 H 242.854 -2.75774 -2.84191 0
M  V30 2447 H 244.028 -4.56518 -0.626714 0
M  V30 2448 H 242.343 -4.10081 -0.722643 0
M  V30 2449 H 244.94 -4.03949 -3.50328 0
M  V30 2450 H 245.283 -2.32777 -3.45139 0
M  V30 2451 H 245.816 -3.37159 -2.11113 0
M  V30 2452 H 242.555 -6.33733 -1.67521 0
M  V30 2453 H 242.075 -5.21283 -2.96689 0
M  V30 2454 H 243.754 -5.7991 -2.86903 0
M  V30 2455 N 243.887 0.651787 -1.4349 0
M  V30 2456 C 245.133 1.41376 -1.45398 0
M  V30 2457 C 245.466 1.94041 -0.0784823 0
M  V30 2458 O 244.741 1.72379 0.900878 0
M  V30 2459 C 245.024 2.59414 -2.49752 0
M  V30 2460 C 244.877 2.12232 -3.96582 0
M  V30 2461 C 246.196 3.61626 -2.50827 0
M  V30 2462 H 243.315 0.512719 -0.529422 0
M  V30 2463 H 245.957 0.738796 -1.75048 0
M  V30 2464 H 244.107 3.16997 -2.246 0
M  V30 2465 H 245.779 1.59639 -4.32797 0
M  V30 2466 H 244.022 1.43592 -4.09346 0
M  V30 2467 H 244.693 2.9712 -4.65214 0
M  V30 2468 H 247.169 3.13805 -2.7325 0
M  V30 2469 H 246.045 4.41766 -3.25783 0
M  V30 2470 H 246.306 4.14314 -1.5426 0
M  V30 2471 N 245.365 1.30045 0.890287 0
M  V30 2472 C 246.297 1.11786 2.00091 0
M  V30 2473 C 247.31 0.0626307 1.62679 0
M  V30 2474 O 248.499 0.308112 1.75821 0
M  V30 2475 C 245.599 0.681527 3.31977 0
M  V30 2476 C 244.772 1.81735 3.97858 0
M  V30 2477 C 243.831 1.37045 5.08041 0
M  V30 2478 O 242.857 2.07677 5.29961 0
M  V30 2479 N 244.059 0.246525 5.79976 0
M  V30 2480 H 246.824 2.07441 2.16306 0
M  V30 2481 H 244.385 1.2211 1.06305 0
M  V30 2482 H 246.377 0.365675 4.03045 0
M  V30 2483 H 244.947 -0.182828 3.12065 0
M  V30 2484 H 244.167 2.30159 3.20032 0
M  V30 2485 H 245.455 2.57865 4.38615 0
M  V30 2486 H 244.853 -0.34215 5.64664 0
M  V30 2487 H 243.41 -0.00990438 6.51799 0
M  V30 2488 N 246.843 -1.10192 1.12674 0
M  V30 2489 C 247.775 -2.16418 0.754701 0
M  V30 2490 C 248.788 -1.61309 -0.21986 0
M  V30 2491 O 249.977 -1.785 -0.000826841 0
M  V30 2492 C 247.077 -3.38762 0.096698 0
M  V30 2493 C 246.25 -4.23307 1.10136 0
M  V30 2494 C 245.309 -5.24092 0.470513 0
M  V30 2495 O 244.335 -5.57906 1.12824 0
M  V30 2496 N 245.537 -5.75491 -0.760948 0
M  V30 2497 H 248.302 -2.48943 1.66875 0
M  V30 2498 H 245.863 -1.25834 1.01869 0
M  V30 2499 H 247.855 -4.03291 -0.337384 0
M  V30 2500 H 246.425 -3.04192 -0.720153 0
M  V30 2501 H 245.645 -3.55036 1.71299 0
M  V30 2502 H 246.933 -4.76624 1.78064 0
M  V30 2503 H 246.331 -5.50222 -1.31424 0
M  V30 2504 H 244.888 -6.41792 -1.13781 0
M  V30 2505 N 248.321 -0.919034 -1.28029 0
M  V30 2506 C 249.568 -0.554934 -1.94748 0
M  V30 2507 C 249.896 0.90231 -1.72304 0
M  V30 2508 O 249.151 1.65767 -1.04018 0
M  V30 2509 C 249.45 -0.816855 -3.4794 0
M  V30 2510 C 249.116 -2.25448 -3.90492 0
M  V30 2511 C 247.778 -2.64752 -4.01821 0
M  V30 2512 C 250.13 -3.18977 -4.12193 0
M  V30 2513 C 247.458 -3.96727 -4.32232 0
M  V30 2514 C 249.81 -4.50523 -4.44086 0
M  V30 2515 C 248.474 -4.89673 -4.53626 0
M  V30 2516 H 247.744 -0.203065 -0.712633 0
M  V30 2517 H 250.391 -1.16136 -1.52265 0
M  V30 2518 H 248.696 -0.127677 -3.91592 0
M  V30 2519 H 250.393 -0.514238 -3.97689 0
M  V30 2520 H 246.983 -1.93952 -3.82205 0
M  V30 2521 H 251.167 -2.89817 -4.02889 0
M  V30 2522 H 246.423 -4.26754 -4.37825 0
M  V30 2523 H 250.597 -5.23005 -4.59825 0
M  V30 2524 H 248.224 -5.91969 -4.76946 0
M  V30 2525 N 249.799 1.42003 -0.683588 0
M  V30 2526 C 251.047 2.01015 -0.209101 0
M  V30 2527 C 251.368 1.54365 1.19149 0
M  V30 2528 O 250.638 0.769083 1.80172 0
M  V30 2529 H 249.218 0.743294 -0.074315 0
M  V30 2530 H 251.88 1.73798 -0.882066 0
M  V30 2531 H 250.976 3.11343 -0.2172 0
M  V30 2532 N 251.277 0.427512 1.51691 0
M  V30 2533 C 252.24 -0.377132 2.26076 0
M  V30 2534 C 253.24 -0.958089 1.29141 0
M  V30 2535 O 254.43 -0.83408 1.52934 0
M  V30 2536 C 251.562 -1.53262 3.04506 0
M  V30 2537 H 252.755 0.27464 2.9864 0
M  V30 2538 H 250.308 0.180445 1.55255 0
M  V30 2539 H 251.043 -2.22072 2.36335 0
M  V30 2540 H 250.828 -1.12232 3.75694 0
M  V30 2541 H 252.318 -2.10135 3.60878 0
M  V30 2542 N 252.755 -1.56801 0.158532 0
M  V30 2543 C 254.166 -1.83189 -0.360366 0
M  V30 2544 C 254.517 -1.07778 -1.63946 0
M  V30 2545 O 253.642 -0.326718 -2.13919 0
M  V30 2546 C 254.237 -3.32297 -0.660595 0
M  V30 2547 C 252.796 -3.59227 -1.12398 0
M  V30 2548 C 251.943 -2.76877 -0.153097 0
M  V30 2549 H 254.894 -1.54008 0.383031 0
M  V30 2550 H 254.915 -3.4908 -1.51405 0
M  V30 2551 H 254.427 -3.87156 0.270527 0
M  V30 2552 H 252.528 -3.09766 -2.07064 0
M  V30 2553 H 252.641 -4.67632 -1.04197 0
M  V30 2554 H 251.005 -2.46319 -0.647983 0
M  V30 2555 H 251.788 -3.34511 0.77182 0
M  V30 2556 N 254.233 0.115231 -1.57178 0
M  V30 2557 C 255.481 0.820727 -1.84685 0
M  V30 2558 C 255.802 1.80237 -0.744279 0
M  V30 2559 O 255.072 1.94529 0.231375 0
M  V30 2560 H 253.652 0.306084 -0.681411 0
M  V30 2561 H 256.314 0.101656 -1.94635 0
M  V30 2562 H 255.41 1.36366 -2.80733 0
M  V30 2563 N 255.711 1.52812 0.385517 0
M  V30 2564 C 256.959 1.67694 1.12797 0
M  V30 2565 C 257.28 0.421115 1.90399 0
M  V30 2566 O 256.55 -0.564551 1.87589 0
M  V30 2567 H 255.13 0.618155 0.419396 0
M  V30 2568 H 257.792 1.89938 0.436972 0
M  V30 2569 H 256.888 2.52896 1.82894 0
M  V30 2570 N 257.189 -0.644168 1.43834 0
M  V30 2571 C 258.119 -1.76814 1.52509 0
M  V30 2572 C 259.1 -1.65823 0.379052 0
M  V30 2573 O 260.285 -1.84781 0.597466 0
M  V30 2574 C 257.415 -3.15288 1.4564 0
M  V30 2575 C 256.369 -3.41053 2.58586 0
M  V30 2576 C 255.695 -4.79421 2.36769 0
M  V30 2577 C 256.995 -3.34902 4.00797 0
M  V30 2578 H 258.689 -1.69812 2.46586 0
M  V30 2579 H 256.235 -0.815542 1.1868 0
M  V30 2580 H 258.188 -3.93681 1.50311 0
M  V30 2581 H 256.912 -3.23043 0.480725 0
M  V30 2582 H 255.571 -2.65035 2.53282 0
M  V30 2583 H 255.219 -4.83863 1.37424 0
M  V30 2584 H 254.919 -4.9762 3.12487 0
M  V30 2585 H 256.443 -5.6006 2.43238 0
M  V30 2586 H 257.857 -4.03218 4.07539 0
M  V30 2587 H 256.254 -3.64637 4.76613 0
M  V30 2588 H 257.324 -2.32928 4.25291 0
M  V30 2589 N 258.668 -1.30515 -0.883378 0
M  V30 2590 C 259.916 -1.19194 -1.63209 0
M  V30 2591 C 260.237 0.253205 -1.93349 0
M  V30 2592 O 259.507 1.17025 -1.57105 0
M  V30 2593 H 258.087 -0.438148 -0.605009 0
M  V30 2594 H 260.749 -1.63663 -1.05832 0
M  V30 2595 H 259.845 -1.75396 -2.58153 0
M  V30 2596 N 260.146 1.09593 -1.13257 0
M  V30 2597 C 261.056 2.19739 -0.821691 0
M  V30 2598 C 262.072 1.72926 0.19302 0
M  V30 2599 O 263.248 2.01385 0.0244895 0
M  V30 2600 C 260.313 3.45482 -0.290333 0
M  V30 2601 C 259.374 4.06985 -1.36607 0
M  V30 2602 C 258.607 5.26726 -0.859975 0
M  V30 2603 O 258.83 5.69594 0.303082 0
M  V30 2604 O 257.764 5.7931 -1.63351 0
M  V30 2605 H 261.59 2.48781 -1.74189 0
M  V30 2606 H 259.175 1.18496 -0.909894 0
M  V30 2607 H 261.057 4.214 0.000674022 0
M  V30 2608 H 259.732 3.18047 0.602306 0
M  V30 2609 H 258.639 3.32712 -1.71037 0
M  V30 2610 H 259.972 4.38643 -2.23279 0
M  V30 2611 N 261.624 0.925811 1.2754 0
M  V30 2612 C 262.852 0.581509 1.9856 0
M  V30 2613 C 263.267 -0.840041 1.69082 0
M  V30 2614 O 262.624 -1.55805 0.950312 0
M  V30 2615 C 262.675 0.795589 3.52637 0
M  V30 2616 O 262.396 2.16121 3.81082 0
M  V30 2617 C 263.897 0.459744 4.4091 0
M  V30 2618 H 261.117 0.220538 0.633722 0
M  V30 2619 H 263.661 1.24232 1.6244 0
M  V30 2620 H 261.816 0.18161 3.86974 0
M  V30 2621 H 262.23 2.2098 4.75676 0
M  V30 2622 H 263.704 0.660244 5.48037 0
M  V30 2623 H 264.181 -0.604625 4.35018 0
M  V30 2624 H 264.787 1.05178 4.12089 0
M  V30 2625 N 263.102 -1.41638 0.69111 0
M  V30 2626 C 264.032 -2.3347 0.037248 0
M  V30 2627 C 265.013 -1.51575 -0.771947 0
M  V30 2628 O 266.198 -1.80126 -0.72582 0
M  V30 2629 C 263.328 -3.35354 -0.903064 0
M  V30 2630 C 262.282 -4.27526 -0.201288 0
M  V30 2631 C 261.608 -5.19747 -1.25565 0
M  V30 2632 C 262.908 -5.13959 0.929689 0
M  V30 2633 H 264.602 -2.88397 0.804227 0
M  V30 2634 H 262.148 -1.38669 0.388189 0
M  V30 2635 H 264.101 -3.98519 -1.36969 0
M  V30 2636 H 262.825 -2.78767 -1.70166 0
M  V30 2637 H 261.484 -3.65779 0.245265 0
M  V30 2638 H 261.132 -4.59479 -2.04666 0
M  V30 2639 H 260.832 -5.8225 -0.791128 0
M  V30 2640 H 262.356 -5.85789 -1.72288 0
M  V30 2641 H 263.77 -5.70718 0.543546 0
M  V30 2642 H 262.167 -5.85379 1.32103 0
M  V30 2643 H 263.237 -4.51389 1.77133 0
M  V30 2644 N 264.58 -0.43555 -1.51462 0
M  V30 2645 C 265.512 0.41257 -2.25456 0
M  V30 2646 C 266.525 0.987822 -1.29406 0
M  V30 2647 O 267.714 0.882266 -1.55172 0
M  V30 2648 C 264.814 1.58894 -2.99342 0
M  V30 2649 C 263.987 1.13288 -4.22474 0
M  V30 2650 C 263.046 2.17917 -4.78956 0
M  V30 2651 O 262.072 1.77425 -5.40841 0
M  V30 2652 N 263.274 3.50382 -4.62832 0
M  V30 2653 H 266.039 -0.221603 -2.9888 0
M  V30 2654 H 263.6 -0.264342 -1.59727 0
M  V30 2655 H 265.592 2.28508 -3.34015 0
M  V30 2656 H 264.162 2.12849 -2.28941 0
M  V30 2657 H 263.382 0.263881 -3.93316 0
M  V30 2658 H 264.67 0.805542 -5.02383 0
M  V30 2659 H 264.068 3.86013 -4.13534 0
M  V30 2660 H 262.625 4.15895 -5.01871 0
M  V30 2661 N 266.058 1.56714 -0.166846 0
M  V30 2662 C 266.99 2.14914 0.796537 0
M  V30 2663 C 268.003 1.10357 1.19688 0
M  V30 2664 O 269.192 1.37561 1.13751 0
M  V30 2665 C 266.292 2.67326 2.08303 0
M  V30 2666 C 265.465 3.96493 1.84696 0
M  V30 2667 C 264.524 4.34014 2.97521 0
M  V30 2668 O 263.55 5.01973 2.6835 0
M  V30 2669 N 264.752 3.95208 4.25196 0
M  V30 2670 H 267.517 2.98205 0.299006 0
M  V30 2671 H 265.078 1.61892 0.0160839 0
M  V30 2672 H 267.07 2.89428 2.82867 0
M  V30 2673 H 265.64 1.88649 2.4926 0
M  V30 2674 H 264.86 3.82814 0.940602 0
M  V30 2675 H 266.148 4.8086 1.66285 0
M  V30 2676 H 265.546 3.40487 4.51758 0
M  V30 2677 H 264.103 4.2232 4.96477 0
M  V30 2678 N 267.536 -0.106894 1.57237 0
M  V30 2679 C 268.483 -1.13049 2.01217 0
M  V30 2680 C 269.453 -1.40471 0.886403 0
M  V30 2681 O 270.638 -1.52133 1.15153 0
M  V30 2682 C 267.778 -2.4487 2.43172 0
M  V30 2683 C 266.891 -2.24281 3.69218 0
M  V30 2684 C 266.026 -3.49417 4.00101 0
M  V30 2685 C 265.065 -3.24038 5.19294 0
M  V30 2686 N 264.202 -4.41409 5.45988 0
M  V30 2687 H 269.042 -0.748456 2.88448 0
M  V30 2688 H 266.579 -0.358054 1.42676 0
M  V30 2689 H 268.537 -3.21786 2.65537 0
M  V30 2690 H 267.167 -2.80944 1.58967 0
M  V30 2691 H 266.219 -1.38224 3.54398 0
M  V30 2692 H 267.531 -2.01512 4.56283 0
M  V30 2693 H 266.685 -4.34746 4.2318 0
M  V30 2694 H 265.424 -3.75229 3.11535 0
M  V30 2695 H 264.429 -2.37102 4.96047 0
M  V30 2696 H 265.654 -2.99584 6.09447 0
M  V30 2697 H 263.6 -4.67319 4.60379 0
M  V30 2698 H 263.517 -4.21788 6.274 0
M  V30 2699 H 264.785 -5.27836 5.73593 0
M  V30 2700 N 269.014 -1.53014 -0.377408 0
M  V30 2701 C 269.944 -1.81589 -1.46791 0
M  V30 2702 C 270.925 -0.668622 -1.56408 0
M  V30 2703 O 272.11 -0.917337 -1.71168 0
M  V30 2704 C 269.24 -1.99519 -2.8427 0
M  V30 2705 C 268.194 -3.15249 -2.89486 0
M  V30 2706 C 267.52 -3.18451 -4.29527 0
M  V30 2707 C 268.82 -4.54084 -2.58079 0
M  V30 2708 H 270.514 -2.7291 -1.23127 0
M  V30 2709 H 268.06 -1.31319 -0.590883 0
M  V30 2710 H 270.013 -2.18092 -3.60575 0
M  V30 2711 H 268.737 -1.04897 -3.09296 0
M  V30 2712 H 267.396 -2.96477 -2.15631 0
M  V30 2713 H 267.044 -2.2149 -4.5161 0
M  V30 2714 H 266.744 -3.962 -4.33934 0
M  V30 2715 H 268.268 -3.39193 -5.07721 0
M  V30 2716 H 269.682 -4.72899 -3.24098 0
M  V30 2717 H 268.079 -5.33987 -2.7382 0
M  V30 2718 H 269.149 -4.60006 -1.53372 0
M  V30 2719 N 270.492 0.636531 -1.44174 0
M  V30 2720 C 271.422 1.76003 -1.53444 0
M  V30 2721 C 272.403 1.65619 -0.387841 0
M  V30 2722 O 273.588 1.84461 -0.607257 0
M  V30 2723 C 270.718 3.14511 -1.4731 0
M  V30 2724 C 269.672 3.39677 -2.60391 0
M  V30 2725 C 268.998 4.78159 -2.39308 0
M  V30 2726 C 270.298 3.32772 -4.02567 0
M  V30 2727 H 271.992 1.68501 -2.47483 0
M  V30 2728 H 269.538 0.809237 -1.19111 0
M  V30 2729 H 271.491 3.92878 -1.52397 0
M  V30 2730 H 270.215 3.22783 -0.49785 0
M  V30 2731 H 268.874 2.63688 -2.54684 0
M  V30 2732 H 268.522 4.83128 -1.39988 0
M  V30 2733 H 268.222 4.95956 -3.15122 0
M  V30 2734 H 269.746 5.58762 -2.46205 0
M  V30 2735 H 271.16 4.01051 -4.09672 0
M  V30 2736 H 269.557 3.62104 -4.7854 0
M  V30 2737 H 270.627 2.30669 -4.2652 0
M  V30 2738 N 271.97 1.30982 0.876444 0
M  V30 2739 C 272.88 1.2003 2.01569 0
M  V30 2740 C 273.896 0.11838 1.73597 0
M  V30 2741 O 275.072 0.33495 1.98595 0
M  V30 2742 C 272.137 0.901637 3.34771 0
M  V30 2743 C 271.198 2.06979 3.76109 0
M  V30 2744 C 270.431 1.78529 5.02954 0
M  V30 2745 O 270.654 0.717296 5.65872 0
M  V30 2746 O 269.588 2.64019 5.40905 0
M  V30 2747 H 273.414 2.15753 2.13739 0
M  V30 2748 H 270.999 1.10658 1.00375 0
M  V30 2749 H 272.881 0.750645 4.1466 0
M  V30 2750 H 271.556 -0.0256141 3.2369 0
M  V30 2751 H 270.463 2.27616 2.96887 0
M  V30 2752 H 271.796 2.97907 3.91807 0
M  V30 2753 N 273.449 -1.08991 1.13837 0
M  V30 2754 C 274.865 -1.33312 0.877506 0
M  V30 2755 C 275.065 -1.95587 -0.48456 0
M  V30 2756 O 274.121 -2.20509 -1.23013 0
M  V30 2757 C 275.434 -2.24045 2.0056 0
M  V30 2758 C 276.982 -2.37542 2.03821 0
M  V30 2759 C 277.457 -3.31614 3.15905 0
M  V30 2760 N 278.948 -3.39189 3.15445 0
M  V30 2761 C 279.683 -4.11992 3.98811 0
M  V30 2762 N 279.179 -4.87553 4.92203 0
M  V30 2763 N 280.972 -4.07762 3.86894 0
M  V30 2764 H 273.123 -0.669456 2.01574 0
M  V30 2765 H 275.386 -0.357482 0.878015 0
M  V30 2766 H 275.092 -1.85521 2.98789 0
M  V30 2767 H 274.966 -3.24466 1.92359 0
M  V30 2768 H 277.353 -2.75327 1.06202 0
M  V30 2769 H 277.434 -1.36884 2.16093 0
M  V30 2770 H 277.078 -2.94551 4.13766 0
M  V30 2771 H 277.008 -4.32186 3.0087 0
M  V30 2772 H 279.499 -2.85314 2.47799 0
M  V30 2773 H 279.812 -5.40549 5.52292 0
M  V30 2774 H 278.157 -4.86627 4.96205 0
M  V30 2775 H 281.348 -3.47833 3.13257 0
M  V30 2776 H 281.521 -4.64238 4.52092 0
M  V30 2777 N 274.927 -0.932562 -1.27047 0
M  V30 2778 C 275.859 -0.392734 -2.2581 0
M  V30 2779 C 276.872 0.479241 -1.55586 0
M  V30 2780 O 278.061 0.291078 -1.76111 0
M  V30 2781 C 275.161 0.455456 -3.35826 0
M  V30 2782 C 274.334 -0.398355 -4.35582 0
M  V30 2783 C 273.393 0.387985 -5.24768 0
M  V30 2784 O 272.419 -0.206003 -5.68827 0
M  V30 2785 N 273.621 1.68664 -5.55457 0
M  V30 2786 H 276.386 -1.24173 -2.72766 0
M  V30 2787 H 273.947 -0.800511 -1.40725 0
M  V30 2788 H 275.939 0.988692 -3.92437 0
M  V30 2789 H 274.509 1.20522 -2.88432 0
M  V30 2790 H 273.729 -1.11286 -3.78165 0
M  V30 2791 H 275.017 -0.981889 -4.99236 0
M  V30 2792 H 274.415 2.19147 -5.21528 0
M  V30 2793 H 272.972 2.1663 -6.14748 0
M  V30 2794 N 276.405 1.4127 -0.698611 0
M  V30 2795 C 277.315 2.34573 -0.0357891 0
M  V30 2796 C 278.331 1.56393 0.762701 0
M  V30 2797 O 279.507 1.8886 0.699564 0
M  V30 2798 C 276.572 3.35159 0.887089 0
M  V30 2799 C 275.633 4.29225 0.0804634 0
M  V30 2800 C 274.866 5.25006 0.959387 0
M  V30 2801 O 275.089 5.26314 2.19886 0
M  V30 2802 O 274.023 6.00519 0.407439 0
M  V30 2803 H 277.849 2.92838 -0.804957 0
M  V30 2804 H 275.434 1.42175 -0.458966 0
M  V30 2805 H 277.316 3.9689 1.41621 0
M  V30 2806 H 275.991 2.79333 1.6357 0
M  V30 2807 H 274.898 3.70833 -0.493328 0
M  V30 2808 H 276.231 4.88157 -0.629547 0
M  V30 2809 N 277.883 0.443576 1.51229 0
M  V30 2810 C 278.83 -0.364716 2.279 0
M  V30 2811 C 279.8 -1.0114 1.31757 0
M  V30 2812 O 280.985 -1.02912 1.60667 0
M  V30 2813 C 278.125 -1.45644 3.12861 0
M  V30 2814 C 277.238 -0.827269 4.24005 0
M  V30 2815 C 276.373 -1.89456 4.96266 0
M  V30 2816 C 275.412 -1.24416 5.99322 0
M  V30 2817 N 274.549 -2.25309 6.64966 0
M  V30 2818 H 279.389 0.295464 2.96532 0
M  V30 2819 H 276.926 0.157554 1.46254 0
M  V30 2820 H 278.884 -2.10076 3.6045 0
M  V30 2821 H 277.514 -2.08616 2.46331 0
M  V30 2822 H 276.566 -0.0710839 3.80334 0
M  V30 2823 H 277.878 -0.312481 4.9782 0
M  V30 2824 H 277.032 -2.61535 5.47434 0
M  V30 2825 H 275.771 -2.4431 4.22095 0
M  V30 2826 H 274.776 -0.508868 5.4744 0
M  V30 2827 H 276.001 -0.702882 6.75453 0
M  V30 2828 H 273.947 -2.79231 5.93604 0
M  V30 2829 H 273.864 -1.78739 7.34567 0
M  V30 2830 H 275.132 -2.96853 7.20763 0
M  V30 2831 N 279.361 -1.56624 0.175154 0
M  V30 2832 C 280.589 -2.01374 -0.474971 0
M  V30 2833 C 281.004 -1.05537 -1.56548 0
M  V30 2834 O 280.361 -0.0568668 -1.82411 0
M  V30 2835 C 280.412 -3.45923 -1.04975 0
M  V30 2836 O 280.133 -4.381 -0.00276605 0
M  V30 2837 C 281.634 -4.06093 -1.77773 0
M  V30 2838 H 278.854 -0.659962 -0.121206 0
M  V30 2839 H 281.398 -2.02601 0.27801 0
M  V30 2840 H 279.553 -3.45458 -1.75321 0
M  V30 2841 H 279.967 -5.22753 -0.427681 0
M  V30 2842 H 281.441 -5.09147 -2.13245 0
M  V30 2843 H 281.918 -3.48405 -2.67414 0
M  V30 2844 H 282.524 -4.10272 -1.12059 0
M  V30 2845 N 280.839 0.0985539 -1.57292 0
M  V30 2846 C 281.802 1.10402 -2.00858 0
M  V30 2847 C 282.802 1.33146 -0.901593 0
M  V30 2848 O 283.992 1.29318 -1.16716 0
M  V30 2849 C 281.124 2.45394 -2.36632 0
M  V30 2850 H 282.317 0.729099 -2.90902 0
M  V30 2851 H 279.87 0.343495 -1.52479 0
M  V30 2852 H 280.605 2.87769 -1.49531 0
M  V30 2853 H 280.39 2.30235 -3.17387 0
M  V30 2854 H 281.88 3.17718 -2.71007 0
M  V30 2855 N 282.317 1.53212 0.369288 0
M  V30 2856 C 283.265 1.80054 1.47253 0
M  V30 2857 C 284.259 0.669456 1.55611 0
M  V30 2858 O 285.465 0.852328 1.58541 0
M  V30 2859 H 281.84 0.570034 0.490475 0
M  V30 2860 H 283.811 2.72403 1.21817 0
M  V30 2861 C 282.56 2.00403 2.84137 0
M  V30 2862 H 281.883 2.86876 2.78464 0
M  V30 2863 H 283.323 2.23164 3.60519 0
M  V30 2864 C 281.782 0.782081 3.27697 0
M  V30 2865 O 282.312 -0.0310205 4.01688 0
M  V30 2866 N 280.518 0.606573 2.84199 0
M  V30 2867 H 280.065 1.26939 2.24152 0
M  V30 2868 H 280.023 -0.20962 3.137 0
M  V30 2869 N 283.795 -0.628877 1.44509 0
M  V30 2870 C 285.041 -1.38863 1.48623 0
M  V30 2871 C 285.396 -1.92038 0.117933 0
M  V30 2872 O 284.689 -1.70853 -0.86716 0
M  V30 2873 C 284.883 -2.56995 2.48371 0
M  V30 2874 C 284.712 -2.15385 3.94765 0
M  V30 2875 C 283.482 -2.02558 4.62924 0
M  V30 2876 C 285.68 -1.74158 4.83915 0
M  V30 2877 N 283.662 -1.54534 5.94132 0
M  V30 2878 C 285.033 -1.37396 6.04584 0
M  V30 2879 C 287.088 -1.61559 4.7096 0
M  V30 2880 C 285.791 -0.892948 7.13736 0
M  V30 2881 C 287.817 -1.14862 5.80139 0
M  V30 2882 C 287.179 -0.790516 6.9995 0
M  V30 2883 H 283.278 -0.502858 0.59888 0
M  V30 2884 H 285.862 -0.72121 1.8085 0
M  V30 2885 H 284.033 -3.21362 2.1813 0
M  V30 2886 H 285.765 -3.23801 2.42766 0
M  V30 2887 H 282.52 -2.23082 4.1777 0
M  V30 2888 H 282.944 -1.32815 6.63844 0
M  V30 2889 H 287.586 -1.87876 3.78764 0
M  V30 2890 H 285.304 -0.617291 8.05739 0
M  V30 2891 H 288.89 -1.05569 5.72142 0
M  V30 2892 H 287.77 -0.434713 7.82994 0
M  V30 2893 N 285.273 -1.31445 -0.869486 0
M  V30 2894 C 286.519 -1.21337 -1.62496 0
M  V30 2895 C 286.852 0.227872 -1.92858 0
M  V30 2896 O 286.127 1.16094 -1.56053 0
M  V30 2897 C 286.41 -2.05814 -2.95487 0
M  V30 2898 C 286.263 -3.5824 -2.72 0
M  V30 2899 C 287.582 -1.9079 -3.96594 0
M  V30 2900 H 284.701 -0.442135 -0.589649 0
M  V30 2901 H 287.343 -1.6124 -1.00507 0
M  V30 2902 H 285.493 -1.71913 -3.48394 0
M  V30 2903 H 287.165 -4.0228 -2.25762 0
M  V30 2904 H 285.408 -3.81647 -2.06224 0
M  V30 2905 H 286.079 -4.12657 -3.66631 0
M  V30 2906 H 288.555 -2.20459 -3.52898 0
M  V30 2907 H 287.431 -2.52199 -4.87531 0
M  V30 2908 H 287.692 -0.871341 -4.33428 0
M  V30 2909 N 286.751 1.08385 -1.14413 0
M  V30 2910 C 287.976 1.85057 -0.936413 0
M  V30 2911 C 288.401 1.81055 0.509971 0
M  V30 2912 O 287.759 1.1958 1.36273 0
M  V30 2913 C 287.807 3.30505 -1.44217 0
M  V30 2914 O 286.911 4.07491 -0.634409 0
M  V30 2915 H 286.252 0.573425 -0.334784 0
M  V30 2916 H 288.782 1.36799 -1.52142 0
M  V30 2917 H 288.792 3.81348 -1.45043 0
M  V30 2918 H 287.467 3.32734 -2.49522 0
M  V30 2919 H 286.044 3.66368 -0.694902 0
M  V30 2920 N 288.23 0.939286 1.26551 0
M  V30 2921 C 289.14 0.453432 2.30176 0
M  V30 2922 C 290.156 -0.471649 1.67486 0
M  V30 2923 O 291.332 -0.35164 1.98306 0
M  V30 2924 C 288.397 -0.275326 3.45605 0
M  V30 2925 C 287.458 0.686084 4.23782 0
M  V30 2926 C 286.691 -0.00798994 5.33699 0
M  V30 2927 O 286.914 -1.22528 5.57085 0
M  V30 2928 O 285.848 0.669746 5.98162 0
M  V30 2929 H 289.674 1.31416 2.73795 0
M  V30 2930 H 287.259 0.705095 1.31715 0
M  V30 2931 H 289.141 -0.685911 4.1578 0
M  V30 2932 H 287.816 -1.11147 3.0402 0
M  V30 2933 H 286.723 1.14658 3.56096 0
M  V30 2934 H 288.056 1.48979 4.69112 0
M  V30 2935 N 289.708 -1.40897 0.706093 0
M  V30 2936 C 290.938 -2.05075 0.250523 0
M  V30 2937 C 291.346 -1.53275 -1.10921 0
M  V30 2938 O 290.689 -0.680281 -1.7064 0
M  V30 2939 C 290.751 -3.59219 0.142178 0
M  V30 2940 C 290.415 -4.33864 1.43566 0
M  V30 2941 C 291.412 -4.62448 2.37566 0
M  V30 2942 C 289.097 -4.72946 1.69195 0
M  V30 2943 C 291.091 -5.29088 3.5545 0
M  V30 2944 C 288.778 -5.3932 2.87362 0
M  V30 2945 C 289.776 -5.6732 3.80312 0
M  V30 2946 O 289.464 -6.32325 4.96408 0
M  V30 2947 H 289.196 -0.666645 0.112074 0
M  V30 2948 H 291.75 -1.81467 0.962239 0
M  V30 2949 H 289.98 -3.81609 -0.6254 0
M  V30 2950 H 291.669 -4.0495 -0.277584 0
M  V30 2951 H 292.435 -4.32727 2.19027 0
M  V30 2952 H 288.314 -4.50527 0.977042 0
M  V30 2953 H 291.858 -5.50859 4.28018 0
M  V30 2954 H 287.755 -5.68461 3.05814 0
M  V30 2955 H 288.523 -6.50821 4.9636 0
M  V30 2956 N 291.186 -0.45159 -1.50991 0
M  V30 2957 C 292.432 0.102439 -2.03142 0
M  V30 2958 C 292.787 1.39138 -1.32884 0
M  V30 2959 O 292.08 1.86493 -0.439438 0
M  V30 2960 C 292.274 0.361728 -3.55565 0
M  V30 2961 C 292.103 -0.900535 -4.40591 0
M  V30 2962 C 290.873 -1.43821 -4.844 0
M  V30 2963 C 293.071 -1.79063 -4.82121 0
M  V30 2964 N 291.053 -2.65153 -5.53685 0
M  V30 2965 C 292.424 -2.84991 -5.50618 0
M  V30 2966 C 294.479 -1.80334 -4.64095 0
M  V30 2967 C 293.182 -3.92155 -6.02998 0
M  V30 2968 C 295.208 -2.86442 -5.17402 0
M  V30 2969 C 294.57 -3.9109 -5.85857 0
M  V30 2970 H 290.669 -0.00204537 -0.781997 0
M  V30 2971 H 293.253 -0.615446 -1.84717 0
M  V30 2972 H 291.424 1.04865 -3.73976 0
M  V30 2973 H 293.156 0.908372 -3.94374 0
M  V30 2974 H 289.911 -0.990117 -4.63135 0
M  V30 2975 H 290.335 -3.26717 -5.92946 0
M  V30 2976 H 294.977 -1.00753 -4.1062 0
M  V30 2977 H 292.695 -4.72565 -6.55521 0
M  V30 2978 H 296.281 -2.88386 -5.05297 0
M  V30 2979 H 295.161 -4.71845 -6.26364 0
M  V30 2980 N 292.664 1.56529 -0.183458 0
M  V30 2981 C 293.594 2.21549 0.737456 0
M  V30 2982 C 294.575 1.17489 1.23005 0
M  V30 2983 O 295.76 1.45959 1.281 0
M  V30 2984 C 292.89 2.86575 1.96194 0
M  V30 2985 C 291.844 3.96778 1.60473 0
M  V30 2986 C 291.17 4.48911 2.90487 0
M  V30 2987 C 292.47 5.15767 0.823497 0
M  V30 2988 H 294.164 2.98761 0.195453 0
M  V30 2989 H 291.71 1.43702 0.0925686 0
M  V30 2990 H 293.663 3.30739 2.61131 0
M  V30 2991 H 292.387 2.06749 2.52828 0
M  V30 2992 H 291.046 3.53286 0.978997 0
M  V30 2993 H 290.694 3.65862 3.45186 0
M  V30 2994 H 290.394 5.23265 2.67335 0
M  V30 2995 H 291.918 4.95771 3.56432 0
M  V30 2996 H 293.332 5.56549 1.37571 0
M  V30 2997 H 291.729 5.96114 0.690551 0
M  V30 2998 H 292.799 4.84574 -0.177782 0
M  V30 2999 N 294.142 -0.090211 1.57342 0
M  V30 3000 C 295.09 -1.12792 2.03422 0
M  V30 3001 C 296.084 -1.41182 0.936166 0
M  V30 3002 O 297.29 -1.40805 1.12133 0
M  V30 3003 H 293.665 -0.380986 0.648347 0
M  V30 3004 H 295.636 -0.71299 2.89757 0
M  V30 3005 C 294.385 -2.43855 2.47851 0
M  V30 3006 H 293.708 -2.22855 3.31927 0
M  V30 3007 H 295.148 -3.14955 2.83865 0
M  V30 3008 C 293.607 -3.08503 1.3538 0
M  V30 3009 O 294.137 -3.95805 0.685641 0
M  V30 3010 N 292.343 -2.68831 1.10355 0
M  V30 3011 H 291.89 -1.97929 1.64869 0
M  V30 3012 H 291.848 -3.12412 0.353031 0
M  V30 3013 N 295.62 -1.53406 -0.361157 0
M  V30 3014 C 296.897 -1.60411 -1.11927 0
M  V30 3015 C 297.277 -0.414385 -2.06993 0
M  V30 3016 O 296.625 0.594976 -2.20618 0
M  V30 3017 C 296.835 -2.95652 -1.85448 0
M  V30 3018 C 298.183 -3.50386 -2.39823 0
M  V30 3019 O 299.207 -2.97711 -1.95568 0
M  V30 3020 O 298.066 -4.42482 -3.20737 0
M  V30 3021 H 295.16 -0.64811 -0.513695 0
M  V30 3022 H 297.706 -1.65749 -0.364065 0
M  V30 3023 H 296.478 -3.73682 -1.16091 0
M  V30 3024 H 296.101 -2.93825 -2.67866 0
M  V30 3025 N 297.098 0.621204 -1.44841 0
M  V30 3026 C 298.031 1.7459 -1.46947 0
M  V30 3027 C 299.009 1.59273 -0.327238 0
M  V30 3028 O 300.193 1.81021 -0.525706 0
M  V30 3029 C 297.32 3.12274 -1.31159 0
M  V30 3030 C 296.366 3.46216 -2.49072 0
M  V30 3031 S 297.199 3.4258 -4.11581 0
M  V30 3032 C 298.355 4.82867 -3.98233 0
M  V30 3033 H 298.588 1.72538 -2.42111 0
M  V30 3034 H 296.121 0.796683 -1.32259 0
M  V30 3035 H 298.079 3.91722 -1.22737 0
M  V30 3036 H 296.74 3.11855 -0.374885 0
M  V30 3037 H 295.933 4.4643 -2.33915 0
M  V30 3038 H 295.535 2.74253 -2.54286 0
M  V30 3039 H 297.827 5.7234 -3.62537 0
M  V30 3040 H 298.77 5.0308 -4.98313 0
M  V30 3041 H 299.178 4.57908 -3.30121 0
M  V30 3042 N 298.576 1.31904 0.862503 0
M  V30 3043 C 299.806 1.24817 1.64634 0
M  V30 3044 C 300.214 -0.187579 1.88268 0
M  V30 3045 O 299.557 -1.13253 1.44635 0
M  V30 3046 C 299.619 1.92996 3.03303 0
M  V30 3047 C 299.283 3.42336 3.02746 0
M  V30 3048 C 300.28 4.37956 2.80162 0
M  V30 3049 C 297.965 3.84147 3.2363 0
M  V30 3050 C 299.959 5.73361 2.78453 0
M  V30 3051 C 297.646 5.19663 3.21549 0
M  V30 3052 C 298.644 6.14081 2.98988 0
M  V30 3053 O 298.332 7.47118 2.96766 0
M  V30 3054 H 298.064 0.432222 0.519769 0
M  V30 3055 H 300.618 1.7445 1.08427 0
M  V30 3056 H 298.848 1.37922 3.61268 0
M  V30 3057 H 300.537 1.79723 3.63943 0
M  V30 3058 H 301.303 4.06981 2.63802 0
M  V30 3059 H 297.182 3.11083 3.40218 0
M  V30 3060 H 300.726 6.4703 2.60763 0
M  V30 3061 H 296.623 5.5027 3.37451 0
M  V30 3062 H 297.391 7.56382 3.12775 0
M  V30 3063 N 300.054 -1.07777 1.14986 0
M  V30 3064 C 300.984 -2.16865 0.865557 0
M  V30 3065 C 301.965 -1.69123 -0.182083 0
M  V30 3066 O 303.15 -1.94164 -0.0373815 0
M  V30 3067 C 300.28 -3.45539 0.349313 0
M  V30 3068 C 299.234 -4.06708 1.33313 0
M  V30 3069 C 298.56 -5.30411 0.675918 0
M  V30 3070 C 299.86 -4.47241 2.69764 0
M  V30 3071 H 301.554 -2.40905 1.77778 0
M  V30 3072 H 299.1 -1.15781 0.856203 0
M  V30 3073 H 301.053 -4.21174 0.137983 0
M  V30 3074 H 299.777 -3.21072 -0.598362 0
M  V30 3075 H 298.436 -3.33112 1.53075 0
M  V30 3076 H 298.084 -5.02232 -0.277767 0
M  V30 3077 H 297.784 -5.72293 1.33244 0
M  V30 3078 H 299.308 -6.08755 0.474262 0
M  V30 3079 H 300.722 -5.14025 2.53873 0
M  V30 3080 H 299.119 -5.00062 3.3175 0
M  V30 3081 H 300.189 -3.58818 3.26156 0
M  V30 3082 N 301.532 -0.945985 -1.26051 0
M  V30 3083 C 302.48 -0.450259 -2.282 0
M  V30 3084 C 303.474 0.47497 -1.62605 0
M  V30 3085 O 304.68 0.352653 -1.76512 0
M  V30 3086 H 301.055 -0.127081 -0.741184 0
M  V30 3087 H 303.026 -1.32422 -2.67408 0
M  V30 3088 C 301.775 0.26467 -3.46691 0
M  V30 3089 H 301.098 -0.438123 -3.97392 0
M  V30 3090 H 302.538 0.575678 -4.20074 0
M  V30 3091 C 300.997 1.48416 -3.02447 0
M  V30 3092 O 301.527 2.58227 -3.07704 0
M  V30 3093 N 299.733 1.34243 -2.57735 0
M  V30 3094 H 299.28 0.448994 -2.53657 0
M  V30 3095 H 299.238 2.15957 -2.28495 0
M  V30 3096 N 303.011 1.40521 -0.713556 0
M  V30 3097 C 303.959 2.32549 -0.0485227 0
M  V30 3098 C 304.953 1.51931 0.74922 0
M  V30 3099 O 306.159 1.67745 0.652816 0
M  V30 3100 H 302.534 0.751994 0.00311138 0
M  V30 3101 H 304.505 2.86291 -0.841443 0
M  V30 3102 C 303.254 3.36879 0.860687 0
M  V30 3103 H 302.577 3.98978 0.256246 0
M  V30 3104 H 304.017 4.03772 1.294 0
M  V30 3105 C 302.476 2.72197 1.9852 0
M  V30 3106 O 303.006 2.5837 3.07584 0
M  V30 3107 N 301.212 2.30612 1.76823 0
M  V30 3108 H 300.759 2.42059 0.881217 0
M  V30 3109 H 300.717 1.87672 2.52243 0
M  V30 3110 N 304.489 0.459591 1.5075 0
M  V30 3111 C 305.905 0.113092 1.59199 0
M  V30 3112 C 306.105 -1.37951 1.46874 0
M  V30 3113 O 305.161 -2.15168 1.32132 0
M  V30 3114 C 306.474 0.653043 2.93523 0
M  V30 3115 C 308.022 0.615449 3.0689 0
M  V30 3116 C 308.497 1.13275 4.43771 0
M  V30 3117 N 309.988 1.09167 4.50152 0
M  V30 3118 C 310.723 1.46256 5.54434 0
M  V30 3119 N 310.219 1.90739 6.66026 0
M  V30 3120 N 312.012 1.37932 5.44914 0
M  V30 3121 H 304.163 1.43049 1.57005 0
M  V30 3122 H 306.426 0.590861 0.741341 0
M  V30 3123 H 306.132 1.69822 3.07983 0
M  V30 3124 H 306.006 0.0902132 3.77092 0
M  V30 3125 H 308.393 -0.420793 2.92084 0
M  V30 3126 H 308.474 1.21495 2.25106 0
M  V30 3127 H 308.118 2.16757 4.59324 0
M  V30 3128 H 308.048 0.509576 5.24129 0
M  V30 3129 H 310.539 0.76528 3.7007 0
M  V30 3130 H 310.852 2.17218 7.41644 0
M  V30 3131 H 309.197 1.94683 6.67176 0
M  V30 3132 H 312.388 1.0303 4.56621 0
M  V30 3133 H 312.561 1.67164 6.26067 0
M  V30 3134 N 305.967 -1.56429 0.191757 0
M  V30 3135 C 306.897 -2.21937 -0.725696 0
M  V30 3136 C 307.878 -1.1814 -1.2238 0
M  V30 3137 O 309.063 -1.46636 -1.27325 0
M  V30 3138 C 306.193 -2.87611 -1.94672 0
M  V30 3139 C 305.147 -3.97623 -1.58366 0
M  V30 3140 C 304.473 -4.50446 -2.88102 0
M  V30 3141 C 305.773 -5.16197 -0.796133 0
M  V30 3142 H 307.467 -2.98861 -0.179606 0
M  V30 3143 H 305.013 -1.43749 -0.0849464 0
M  V30 3144 H 306.966 -3.3212 -2.59373 0
M  V30 3145 H 305.69 -2.08087 -2.51728 0
M  V30 3146 H 304.349 -3.53801 -0.960247 0
M  V30 3147 H 303.997 -3.67688 -3.43241 0
M  V30 3148 H 303.697 -5.24675 -2.64556 0
M  V30 3149 H 305.221 -4.97654 -3.53798 0
M  V30 3150 H 306.635 -5.57271 -1.34618 0
M  V30 3151 H 305.032 -5.96471 -0.658928 0
M  V30 3152 H 306.102 -4.84473 0.203478 0
M  V30 3153 N 307.445 0.0818655 -1.57387 0
M  V30 3154 C 308.408 1.08265 -2.02018 0
M  V30 3155 C 309.408 1.32183 -0.915664 0
M  V30 3156 O 310.598 1.28073 -1.18081 0
M  V30 3157 C 307.73 2.42871 -2.39221 0
M  V30 3158 H 308.923 0.698204 -2.91659 0
M  V30 3159 H 306.476 0.327303 -1.52835 0
M  V30 3160 H 307.211 2.86167 -1.52575 0
M  V30 3161 H 306.996 2.26855 -3.19811 0
M  V30 3162 H 308.486 3.14826 -2.74362 0
M  V30 3163 N 308.923 1.53595 0.353017 0
M  V30 3164 C 309.853 1.83902 1.43883 0
M  V30 3165 C 310.834 0.693421 1.55324 0
M  V30 3166 O 312.019 0.944452 1.69687 0
M  V30 3167 C 309.149 2.04016 2.8106 0
M  V30 3168 C 308.103 3.19814 2.84434 0
M  V30 3169 C 307.429 3.25244 4.24406 0
M  V30 3170 C 308.729 4.58133 2.50822 0
M  V30 3171 H 310.423 2.74835 1.1877 0
M  V30 3172 H 307.969 1.32242 0.569917 0
M  V30 3173 H 309.922 2.238 3.57059 0
M  V30 3174 H 308.646 1.09804 3.07588 0
M  V30 3175 H 307.305 2.9987 2.10887 0
M  V30 3176 H 306.953 2.28646 4.48029 0
M  V30 3177 H 306.653 4.03054 4.27576 0
M  V30 3178 H 308.177 3.47228 5.0226 0
M  V30 3179 H 309.591 4.77995 3.16534 0
M  V30 3180 H 307.988 5.38276 2.6529 0
M  V30 3181 H 309.058 4.62387 1.46034 0
M  V30 3182 N 310.401 -0.613514 1.45168 0
M  V30 3183 C 311.812 -1.19539 1.43413 0
M  V30 3184 C 312.163 -1.95558 0.158632 0
M  V30 3185 O 311.288 -2.0335 -0.740119 0
M  V30 3186 C 311.883 -2.17445 2.59813 0
M  V30 3187 C 310.442 -2.71022 2.61197 0
M  V30 3188 C 309.589 -1.46323 2.35552 0
M  V30 3189 H 312.54 -0.403163 1.53494 0
M  V30 3190 H 312.561 -3.00373 2.33574 0
M  V30 3191 H 312.073 -1.62089 3.52631 0
M  V30 3192 H 310.174 -3.30332 1.7237 0
M  V30 3193 H 310.287 -3.15859 3.60236 0
M  V30 3194 H 308.651 -1.75072 1.84992 0
M  V30 3195 H 309.434 -0.92844 3.30507 0
M  V30 3196 N 311.879 -1.3236 -0.855495 0
M  V30 3197 C 313.125 -1.23054 -1.612 0
M  V30 3198 C 313.458 0.207404 -1.93089 0
M  V30 3199 O 312.733 1.14432 -1.57275 0
M  V30 3200 C 313.016 -2.08937 -2.93287 0
M  V30 3201 C 312.869 -3.61105 -2.68185 0
M  V30 3202 C 314.188 -1.94986 -3.94549 0
M  V30 3203 H 311.307 -0.448364 -0.584926 0
M  V30 3204 H 313.949 -1.62297 -0.987917 0
M  V30 3205 H 312.099 -1.75599 -3.46551 0
M  V30 3206 H 313.771 -4.04652 -2.21483 0
M  V30 3207 H 312.014 -3.83813 -2.02164 0
M  V30 3208 H 312.685 -4.16522 -3.62234 0
M  V30 3209 H 315.161 -2.24189 -3.5054 0
M  V30 3210 H 314.037 -2.57356 -4.84829 0
M  V30 3211 H 314.298 -0.917263 -4.3248 0
M  V30 3212 N 313.357 1.07166 -1.15556 0
M  V30 3213 C 314.305 2.16517 -0.8499 0
M  V30 3214 C 315.299 1.68468 0.177454 0
M  V30 3215 O 316.505 1.79971 0.0323026 0
M  V30 3216 H 312.88 0.706652 -0.25719 0
M  V30 3217 H 314.851 2.39514 -1.77976 0
M  V30 3218 C 313.6 3.45855 -0.357682 0
M  V30 3219 H 312.923 3.83214 -1.13961 0
M  V30 3220 H 314.363 4.23607 -0.182489 0
M  V30 3221 C 312.822 3.24062 0.921152 0
M  V30 3222 O 313.352 3.48813 1.9923 0
M  V30 3223 N 311.558 2.77539 0.86141 0
M  V30 3224 H 311.105 2.57598 -0.0104408 0
M  V30 3225 H 311.063 2.63337 1.71758 0
M  V30 3226 N 314.835 0.952656 1.25548 0
M  V30 3227 C 316.06 0.623025 1.97821 0
M  V30 3228 C 316.485 -0.7976 1.70352 0
M  V30 3229 O 315.843 -1.53905 0.958283 0
M  V30 3230 C 315.891 0.885532 3.49558 0
M  V30 3231 O 314.995 -0.0366641 4.12384 0
M  V30 3232 H 314.336 0.237082 0.620232 0
M  V30 3233 H 316.866 1.27871 1.59719 0
M  V30 3234 H 316.876 0.811009 3.99858 0
M  V30 3235 H 315.551 1.92094 3.6888 0
M  V30 3236 H 314.128 0.0898954 3.72792 0
M  V30 3237 N 316.313 -1.40141 0.720998 0
M  V30 3238 C 317.538 -2.05618 0.271258 0
M  V30 3239 C 317.963 -1.53978 -1.08039 0
M  V30 3240 O 317.321 -0.677463 -1.68167 0
M  V30 3241 C 317.369 -3.59609 0.267197 0
M  V30 3242 O 316.473 -4.05526 -0.749814 0
M  V30 3243 H 315.814 -0.651904 0.126162 0
M  V30 3244 H 318.344 -1.79439 0.982997 0
M  V30 3245 H 318.354 -4.0786 0.106744 0
M  V30 3246 H 317.029 -3.96559 1.25354 0
M  V30 3247 H 315.606 -3.68722 -0.556644 0
M  V30 3248 N 317.792 -0.46758 -1.50504 0
M  V30 3249 C 319.203 -0.0116166 -1.86696 0
M  V30 3250 C 319.554 1.39202 -1.38265 0
M  V30 3251 O 318.679 2.0313 -0.746132 0
M  V30 3252 C 319.274 -0.0143044 -3.38797 0
M  V30 3253 C 317.833 0.386175 -3.74414 0
M  V30 3254 C 316.98 -0.401287 -2.74381 0
M  V30 3255 H 319.931 -0.682022 -1.43297 0
M  V30 3256 H 319.952 0.788641 -3.72237 0
M  V30 3257 H 319.464 -1.03602 -3.74016 0
M  V30 3258 H 317.565 1.41237 -3.44794 0
M  V30 3259 H 317.678 0.0899596 -4.79016 0
M  V30 3260 H 316.042 0.144536 -2.5429 0
M  V30 3261 H 316.825 -1.42244 -3.12444 0
M  V30 3262 N 319.27 1.56325 -0.20005 0
M  V30 3263 C 320.233 2.18084 0.705132 0
M  V30 3264 C 321.233 1.13666 1.1374 0
M  V30 3265 O 322.423 1.39023 1.04968 0
M  V30 3266 C 319.555 2.78689 1.96329 0
M  V30 3267 H 320.748 2.99435 0.167023 0
M  V30 3268 H 318.301 1.56221 0.0495725 0
M  V30 3269 H 319.036 2.0115 2.5438 0
M  V30 3270 H 318.821 3.55133 1.66202 0
M  V30 3271 H 320.311 3.26096 2.60866 0
M  V30 3272 N 320.748 -0.0735177 1.57428 0
M  V30 3273 C 321.994 -0.774145 1.87443 0
M  V30 3274 C 322.327 -1.77311 0.792103 0
M  V30 3275 O 321.602 -1.93492 -0.197793 0
M  V30 3276 C 321.885 -1.48367 3.28115 0
M  V30 3277 C 321.738 -0.501227 4.46999 0
M  V30 3278 C 323.057 -2.429 3.66998 0
M  V30 3279 H 320.176 -0.279971 0.681752 0
M  V30 3280 H 322.818 -0.0373616 1.89963 0
M  V30 3281 H 320.968 -2.11171 3.26097 0
M  V30 3282 H 322.64 0.121468 4.6114 0
M  V30 3283 H 320.883 0.183593 4.33411 0
M  V30 3284 H 321.554 -1.03526 5.42205 0
M  V30 3285 H 324.03 -1.90175 3.70098 0
M  V30 3286 H 322.906 -2.89549 4.66318 0
M  V30 3287 H 323.167 -3.27628 2.96837 0
M  V30 3288 N 322.226 -1.5378 -0.344866 0
M  V30 3289 C 323.475 -1.7018 -1.08267 0
M  V30 3290 C 323.788 -0.471 -1.89845 0
M  V30 3291 O 324.994 -0.515917 -2.66553 0
M  V30 3292 C 323.45 -3.00923 -1.97417 0
M  V30 3293 C 323.058 -4.31335 -1.21053 0
M  V30 3294 C 324.802 -3.26688 -2.71063 0
M  V30 3295 C 322.709 -5.53153 -2.09225 0
M  V30 3296 H 321.639 -0.634138 -0.407903 0
M  V30 3297 H 324.29 -1.8028 -0.342246 0
M  V30 3298 H 322.672 -2.84676 -2.75274 0
M  V30 3299 H 323.846 -4.58281 -0.481159 0
M  V30 3300 H 322.161 -4.12173 -0.591813 0
M  V30 3301 H 324.758 -4.1489 -3.37299 0
M  V30 3302 H 325.101 -2.43639 -3.37558 0
M  V30 3303 H 325.634 -3.43705 -2.0028 0
M  V30 3304 H 322.373 -6.38741 -1.47274 0
M  V30 3305 H 321.893 -5.30458 -2.79955 0
M  V30 3306 H 323.572 -5.88744 -2.68308 0
M  V30 3307 N 323.704 0.605807 -1.45491 0
M  V30 3308 C 324.951 1.36476 -1.49601 0
M  V30 3309 C 325.279 1.94007 -0.138452 0
M  V30 3310 O 324.534 1.75638 0.863114 0
M  V30 3311 C 324.833 2.53012 -2.52428 0
M  V30 3312 C 324.499 2.13617 -3.97087 0
M  V30 3313 C 323.161 2.02587 -4.36477 0
M  V30 3314 C 325.513 1.82899 -4.88055 0
M  V30 3315 C 322.841 1.59064 -5.64726 0
M  V30 3316 C 325.193 1.40861 -6.16718 0
M  V30 3317 C 323.857 1.28391 -6.55036 0
M  V30 3318 H 323.127 0.499402 -0.547429 0
M  V30 3319 H 325.774 0.684546 -1.78847 0
M  V30 3320 H 324.079 3.26379 -2.16758 0
M  V30 3321 H 325.776 3.1124 -2.52845 0
M  V30 3322 H 322.366 2.23129 -3.65939 0
M  V30 3323 H 326.55 1.90317 -4.58359 0
M  V30 3324 H 321.806 1.48034 -5.93208 0
M  V30 3325 H 325.98 1.16138 -6.86648 0
M  V30 3326 H 323.607 0.944403 -7.54311 0
M  V30 3327 N 325.182 1.32811 0.848464 0
M  V30 3328 C 326.145 1.22194 1.9391 0
M  V30 3329 C 327.145 0.143404 1.60159 0
M  V30 3330 O 328.335 0.394253 1.6968 0
M  V30 3331 C 325.467 0.88067 3.29328 0
M  V30 3332 H 326.66 2.19127 2.04752 0
M  V30 3333 H 324.213 1.16731 1.0394 0
M  V30 3334 H 324.948 -0.0865776 3.24184 0
M  V30 3335 H 324.733 1.66052 3.55203 0
M  V30 3336 H 326.223 0.830871 4.09251 0
M  V30 3337 N 326.66 -1.06551 1.16123 0
M  V30 3338 C 328.076 -1.3142 0.905585 0
M  V30 3339 C 328.276 -1.96571 -0.442964 0
M  V30 3340 O 327.332 -2.23068 -1.18308 0
M  V30 3341 C 328.645 -2.19741 2.05267 0
M  V30 3342 C 330.193 -2.33165 2.08813 0
M  V30 3343 C 330.668 -3.24838 3.22868 0
M  V30 3344 N 332.159 -3.32421 3.22568 0
M  V30 3345 C 332.894 -4.0344 4.0746 0
M  V30 3346 N 332.39 -4.77003 5.02434 0
M  V30 3347 N 334.183 -3.99464 3.95456 0
M  V30 3348 H 326.334 -0.626548 2.02949 0
M  V30 3349 H 328.597 -0.338777 0.8854 0
M  V30 3350 H 328.303 -1.79142 3.02657 0
M  V30 3351 H 328.177 -3.20313 1.99198 0
M  V30 3352 H 330.564 -2.73013 1.12018 0
M  V30 3353 H 330.645 -1.3227 2.18948 0
M  V30 3354 H 330.289 -2.85708 4.19921 0
M  V30 3355 H 330.219 -4.25707 3.0997 0
M  V30 3356 H 332.71 -2.79994 2.53795 0
M  V30 3357 H 333.023 -5.28712 5.63634 0
M  V30 3358 H 331.368 -4.75992 5.06415 0
M  V30 3359 H 334.559 -3.4111 3.20564 0
M  V30 3360 H 334.732 -4.54544 4.61837 0
M  V30 3361 N 328.138 -0.959301 -1.25041 0
M  V30 3362 C 329.07 -0.440543 -2.24926 0
M  V30 3363 C 330.083 0.446131 -1.56568 0
M  V30 3364 O 331.272 0.253657 -1.76689 0
M  V30 3365 C 328.372 0.38412 -3.36716 0
M  V30 3366 C 327.545 -0.490658 -4.34639 0
M  V30 3367 C 326.604 0.276587 -5.25473 0
M  V30 3368 O 325.63 -0.326614 -5.68262 0
M  V30 3369 N 326.832 1.56844 -5.5891 0
M  V30 3370 H 329.597 -1.29931 -2.70071 0
M  V30 3371 H 327.158 -0.830181 -1.38995 0
M  V30 3372 H 329.15 0.905228 -3.94446 0
M  V30 3373 H 327.72 1.14377 -2.90924 0
M  V30 3374 H 326.94 -1.19282 -3.7572 0
M  V30 3375 H 328.228 -1.08756 -4.97041 0
M  V30 3376 H 327.626 2.08036 -5.26059 0
M  V30 3377 H 326.183 2.03541 -6.19205 0
M  V30 3378 N 329.616 1.39756 -0.72842 0
M  V30 3379 C 330.566 2.2792 -0.0603424 0
M  V30 3380 C 331.55 1.43922 0.719399 0
M  V30 3381 O 332.742 1.66895 0.589489 0
M  V30 3382 C 329.871 3.32582 0.851104 0
M  V30 3383 C 328.957 4.24049 0.0658641 0
M  V30 3384 N 329.348 4.96653 -0.957578 0
M  V30 3385 C 327.646 4.45013 0.296509 0
M  V30 3386 C 328.347 5.63836 -1.43052 0
M  V30 3387 N 327.323 5.38397 -0.750315 0
M  V30 3388 H 331.125 2.81504 -0.84455 0
M  V30 3389 H 328.639 1.5236 -0.562155 0
M  V30 3390 H 330.636 3.94603 1.34514 0
M  V30 3391 H 329.296 2.80558 1.63454 0
M  V30 3392 H 330.307 5.00297 -1.33877 0
M  V30 3393 H 326.984 4.03943 1.05527 0
M  V30 3394 H 328.374 6.31974 -2.28163 0
M  V30 3395 N 331.094 0.475555 1.50254 0
M  V30 3396 C 332.341 -0.0778919 2.0235 0
M  V30 3397 C 332.669 -1.39319 1.35722 0
M  V30 3398 O 331.924 -1.89888 0.473395 0
M  V30 3399 C 332.223 -0.305114 3.56095 0
M  V30 3400 C 331.889 0.92903 4.41225 0
M  V30 3401 C 330.551 1.26739 4.6421 0
M  V30 3402 C 332.903 1.75054 4.90923 0
M  V30 3403 C 330.231 2.42724 5.34137 0
M  V30 3404 C 332.583 2.9017 5.62125 0
M  V30 3405 C 331.247 3.24416 5.83362 0
M  V30 3406 H 330.517 -0.0285027 0.740452 0
M  V30 3407 H 333.164 0.630543 1.80821 0
M  V30 3408 H 331.469 -1.09584 3.76163 0
M  V30 3409 H 333.166 -0.747377 3.93974 0
M  V30 3410 H 329.756 0.655428 4.23559 0
M  V30 3411 H 333.94 1.50231 4.73016 0
M  V30 3412 H 329.196 2.69525 5.48786 0
M  V30 3413 H 333.37 3.54169 5.99614 0
M  V30 3414 H 330.997 4.14396 6.37323 0
M  V30 3415 N 332.573 -1.56217 0.208337 0
M  V30 3416 C 333.984 -1.84243 -0.301904 0
M  V30 3417 C 334.335 -1.12939 -1.60434 0
M  V30 3418 O 333.46 -0.39461 -2.12772 0
M  V30 3419 C 334.055 -3.34231 -0.554543 0
M  V30 3420 C 332.614 -3.62621 -1.00912 0
M  V30 3421 C 331.761 -2.77224 -0.064933 0
M  V30 3422 H 334.712 -1.52712 0.431833 0
M  V30 3423 H 334.733 -3.5372 -1.40223 0
M  V30 3424 H 334.245 -3.86099 0.393561 0
M  V30 3425 H 332.346 -3.16197 -1.97104 0
M  V30 3426 H 332.459 -4.7071 -0.892674 0
M  V30 3427 H 330.823 -2.48256 -0.56929 0
M  V30 3428 H 331.606 -3.31887 0.877851 0
M  V30 3429 N 334.051 0.0651679 -1.57465 0
M  V30 3430 C 335.299 0.761555 -1.87202 0
M  V30 3431 C 335.62 1.77778 -0.801243 0
M  V30 3432 O 334.89 1.95166 0.16937 0
M  V30 3433 H 333.47 0.284251 -0.690804 0
M  V30 3434 H 336.132 0.0396827 -1.9486 0
M  V30 3435 H 335.228 1.27365 -2.84929 0
M  V30 3436 N 335.529 1.53961 0.336706 0
M  V30 3437 C 336.757 1.75483 1.09605 0
M  V30 3438 C 337.172 0.4972 1.82136 0
M  V30 3439 O 336.529 -0.53149 1.74589 0
M  V30 3440 C 336.58 2.93943 2.10428 0
M  V30 3441 O 336.301 4.14842 1.40846 0
M  V30 3442 C 337.802 3.27571 2.98684 0
M  V30 3443 H 335.022 0.586166 0.326574 0
M  V30 3444 H 337.566 2.00808 0.38683 0
M  V30 3445 H 335.721 2.70929 2.76905 0
M  V30 3446 H 336.135 4.81383 2.08255 0
M  V30 3447 H 337.609 4.13791 3.6535 0
M  V30 3448 H 338.086 2.44168 3.65074 0
M  V30 3449 H 338.692 3.52615 2.37787 0
M  V30 3450 N 337.007 -0.598083 1.45811 0
M  V30 3451 C 338.284 -1.35777 1.40797 0
M  V30 3452 C 338.664 -2.10935 0.083462 0
M  V30 3453 O 338.012 -2.08505 -0.934763 0
M  V30 3454 C 338.222 -2.29666 2.62783 0
M  V30 3455 C 339.57 -2.91977 3.08277 0
M  V30 3456 O 340.594 -2.39984 2.63223 0
M  V30 3457 O 339.453 -3.86376 3.86491 0
M  V30 3458 H 336.547 -0.609291 0.55919 0
M  V30 3459 H 339.093 -0.620379 1.57954 0
M  V30 3460 H 337.865 -1.73454 3.50756 0
M  V30 3461 H 337.488 -3.1077 2.48008 0
M  V30 3462 N 338.485 -1.33259 -0.841409 0
M  V30 3463 C 339.762 -1.15174 -1.58096 0
M  V30 3464 C 340.142 0.282858 -2.09196 0
M  V30 3465 O 339.49 1.28151 -1.89181 0
M  V30 3466 C 339.7 -2.1907 -2.71679 0
M  V30 3467 C 341.048 -2.53093 -3.40924 0
M  V30 3468 O 342.072 -2.17717 -2.81918 0
M  V30 3469 O 340.931 -3.1379 -4.47435 0
M  V30 3470 H 338.025 -0.445303 -0.696875 0
M  V30 3471 H 340.571 -1.44833 -0.884385 0
M  V30 3472 H 339.343 -3.15443 -2.31541 0
M  V30 3473 H 338.966 -1.90481 -3.49002 0
M  V30 3474 N 339.963 1.05934 -1.16686 0
M  V30 3475 C 340.895 2.13468 -0.834503 0
M  V30 3476 C 341.908 1.62013 0.15984 0
M  V30 3477 O 343.097 1.7838 -0.0654228 0
M  V30 3478 C 340.197 3.3817 -0.222361 0
M  V30 3479 C 339.37 4.18928 -1.25771 0
M  V30 3480 C 338.429 5.21985 -0.664703 0
M  V30 3481 O 337.455 5.53334 -1.33453 0
M  V30 3482 N 338.657 5.77919 0.546834 0
M  V30 3483 H 341.422 2.42578 -1.75999 0
M  V30 3484 H 338.983 1.21967 -1.06469 0
M  V30 3485 H 340.975 4.04266 0.187472 0
M  V30 3486 H 339.545 3.06655 0.606758 0
M  V30 3487 H 338.765 3.48433 -1.84358 0
M  V30 3488 H 340.053 4.69687 -1.95631 0
M  V30 3489 H 339.451 5.54721 1.10912 0
M  V30 3490 H 338.008 6.45573 0.898829 0
M  V30 3491 N 341.441 0.965919 1.2453 0
M  V30 3492 C 342.371 0.513476 2.27784 0
M  V30 3493 C 343.352 -0.445974 1.6415 0
M  V30 3494 O 344.537 -0.342485 1.91156 0
M  V30 3495 C 341.667 -0.198839 3.4673 0
M  V30 3496 C 340.621 0.676456 4.2262 0
M  V30 3497 C 339.947 -0.167248 5.34438 0
M  V30 3498 C 341.247 1.96017 4.84123 0
M  V30 3499 H 342.941 1.3765 2.65881 0
M  V30 3500 H 340.487 0.663321 1.27813 0
M  V30 3501 H 342.44 -0.526567 4.18097 0
M  V30 3502 H 341.164 -1.0962 3.07654 0
M  V30 3503 H 339.823 0.98743 3.53052 0
M  V30 3504 H 339.471 -1.0647 4.91603 0
M  V30 3505 H 339.171 0.415181 5.86131 0
M  V30 3506 H 340.695 -0.489688 6.08633 0
M  V30 3507 H 342.109 1.69814 5.47573 0
M  V30 3508 H 340.506 2.48918 5.4604 0
M  V30 3509 H 341.576 2.65622 4.05676 0
M  V30 3510 N 342.919 -1.39368 0.735821 0
M  V30 3511 C 344.335 -1.54204 0.411492 0
M  V30 3512 C 344.535 -1.70268 -1.07755 0
M  V30 3513 O 343.591 -1.70364 -1.86366 0
M  V30 3514 C 344.904 -2.75925 1.19523 0
M  V30 3515 C 346.452 -2.89761 1.18354 0
M  V30 3516 C 346.927 -4.14421 1.94986 0
M  V30 3517 N 348.418 -4.21462 1.92156 0
M  V30 3518 C 349.153 -5.16871 2.48258 0
M  V30 3519 N 348.649 -6.18063 3.13001 0
M  V30 3520 N 350.442 -5.09093 2.38287 0
M  V30 3521 H 342.593 -1.27189 1.70108 0
M  V30 3522 H 344.856 -0.616517 0.720147 0
M  V30 3523 H 344.562 -2.70401 2.24892 0
M  V30 3524 H 344.436 -3.68614 0.800222 0
M  V30 3525 H 346.823 -2.94777 0.137975 0
M  V30 3526 H 346.904 -1.98133 1.61793 0
M  V30 3527 H 346.548 -4.10166 2.99543 0
M  V30 3528 H 346.478 -5.05095 1.48953 0
M  V30 3529 H 348.969 -3.48979 1.44991 0
M  V30 3530 H 349.282 -6.87326 3.53275 0
M  V30 3531 H 347.627 -6.18448 3.17091 0
M  V30 3532 H 350.818 -4.28973 1.8735 0
M  V30 3533 H 350.991 -5.83272 2.82308 0
M  V30 3534 N 344.397 -0.483516 -1.5 0
M  V30 3535 C 345.644 0.0671597 -2.02389 0
M  V30 3536 C 345.972 1.38597 -1.36459 0
M  V30 3537 O 345.227 1.89634 -0.483458 0
M  V30 3538 C 345.526 0.286226 -3.56252 0
M  V30 3539 C 345.192 -0.952416 -4.40726 0
M  V30 3540 C 343.854 -1.29199 -4.63531 0
M  V30 3541 C 346.206 -1.77655 -4.89988 0
M  V30 3542 C 343.534 -2.45553 -5.32842 0
M  V30 3543 C 345.886 -2.93147 -5.60578 0
M  V30 3544 C 344.55 -3.27505 -5.81633 0
M  V30 3545 H 343.82 0.0245755 -0.740592 0
M  V30 3546 H 346.467 -0.640124 -1.80485 0
M  V30 3547 H 344.772 1.07587 -3.76739 0
M  V30 3548 H 346.469 0.726473 -3.94365 0
M  V30 3549 H 343.059 -0.677881 -4.23205 0
M  V30 3550 H 347.243 -1.52737 -4.72213 0
M  V30 3551 H 342.499 -2.72431 -5.47349 0
M  V30 3552 H 346.673 -3.57344 -5.97727 0
M  V30 3553 H 344.3 -4.1777 -6.35116 0
M  V30 3554 N 345.875 1.56104 -0.216619 0
M  V30 3555 C 346.838 2.18819 0.681962 0
M  V30 3556 C 347.838 1.14866 1.12528 0
M  V30 3557 O 349.028 1.40128 1.03488 0
M  V30 3558 C 346.16 2.80756 1.93362 0
M  V30 3559 H 347.353 2.99595 0.135254 0
M  V30 3560 H 344.906 1.56265 0.0330003 0
M  V30 3561 H 345.641 2.03837 2.52232 0
M  V30 3562 H 345.426 3.56876 1.62426 0
M  V30 3563 H 346.916 3.28844 2.57393 0
M  V30 3564 N 347.353 -0.0568162 1.57498 0
M  V30 3565 C 348.316 -1.05038 2.03715 0
M  V30 3566 C 349.316 -1.30709 0.936577 0
M  V30 3567 O 350.506 -1.26178 1.20103 0
M  V30 3568 C 347.638 -2.39034 2.43055 0
M  V30 3569 H 348.831 -0.651715 2.92733 0
M  V30 3570 H 346.384 -0.302947 1.53336 0
M  V30 3571 H 347.119 -2.83703 1.57108 0
M  V30 3572 H 346.904 -2.21739 3.2338 0
M  V30 3573 H 348.394 -3.10421 2.79336 0
M  V30 3574 N 348.832 -1.54138 -0.328536 0
M  V30 3575 C 350.057 -1.76378 -1.09112 0
M  V30 3576 C 350.482 -0.508596 -1.81094 0
M  V30 3577 O 349.84 0.539598 -1.73084 0
M  V30 3578 C 349.888 -2.95358 -2.06872 0
M  V30 3579 O 348.992 -2.66556 -3.14677 0
M  V30 3580 H 348.333 -0.584614 -0.314838 0
M  V30 3581 H 350.863 -2.01146 -0.374348 0
M  V30 3582 H 350.873 -3.22566 -2.4983 0
M  V30 3583 H 349.548 -3.86385 -1.5388 0
M  V30 3584 H 348.125 -2.50282 -2.7643 0
M  V30 3585 N 350.31 0.590341 -1.46126 0
M  V30 3586 C 351.24 1.71032 -1.58966 0
M  V30 3587 C 352.221 1.64302 -0.440335 0
M  V30 3588 O 353.406 1.82436 -0.665634 0
M  V30 3589 C 350.536 3.09665 -1.57241 0
M  V30 3590 C 349.49 3.31221 -2.71066 0
M  V30 3591 C 348.816 4.70303 -2.54399 0
M  V30 3592 C 350.116 3.19796 -4.1295 0
M  V30 3593 H 351.81 1.60543 -2.52718 0
M  V30 3594 H 349.356 0.770933 -1.21625 0
M  V30 3595 H 351.309 3.87831 -1.64819 0
M  V30 3596 H 350.033 3.21036 -0.600289 0
M  V30 3597 H 348.692 2.55452 -2.62944 0
M  V30 3598 H 348.34 4.78429 -1.55288 0
M  V30 3599 H 348.04 4.85679 -3.30741 0
M  V30 3600 H 349.564 5.50647 -2.63857 0
M  V30 3601 H 350.978 3.87815 -4.22223 0
M  V30 3602 H 349.375 3.46696 -4.89818 0
M  V30 3603 H 350.445 2.16983 -4.33643 0
M  V30 3604 N 351.788 1.33704 0.83433 0
M  V30 3605 C 353.037 1.24763 1.58484 0
M  V30 3606 C 353.35 -0.183775 1.94735 0
M  V30 3607 O 354.556 -0.395234 2.68608 0
M  V30 3608 C 353.012 2.18638 2.85876 0
M  V30 3609 C 352.62 3.66974 2.56971 0
M  V30 3610 C 354.364 2.18581 3.63899 0
M  V30 3611 C 352.271 4.5275 3.80488 0
M  V30 3612 H 351.201 0.463425 0.594772 0
M  V30 3613 H 353.852 1.58797 0.919551 0
M  V30 3614 H 352.234 1.77542 3.5397 0
M  V30 3615 H 353.408 4.16538 1.9706 0
M  V30 3616 H 351.723 3.69366 1.92244 0
M  V30 3617 H 354.32 2.79894 4.55591 0
M  V30 3618 H 354.663 1.18207 3.99165 0
M  V30 3619 H 355.196 2.58062 3.02735 0
M  V30 3620 H 351.935 5.54017 3.5035 0
M  V30 3621 H 351.455 4.07927 4.39722 0
M  V30 3622 H 353.134 4.66784 4.4802 0
M  V30 3623 N 353.266 -1.05314 1.17247 0
M  V30 3624 C 354.491 -1.82509 0.985148 0
M  V30 3625 C 354.916 -1.82343 -0.461788 0
M  V30 3626 O 354.274 -1.23151 -1.33055 0
M  V30 3627 C 354.322 -3.26566 1.52929 0
M  V30 3628 O 353.426 -4.05666 0.742225 0
M  V30 3629 H 352.767 -0.564347 0.349869 0
M  V30 3630 H 355.297 -1.32718 1.55715 0
M  V30 3631 H 355.307 -3.77369 1.55103 0
M  V30 3632 H 353.982 -3.26001 2.58256 0
M  V30 3633 H 352.559 -3.64397 0.791794 0
M  V30 3634 N 354.744 -0.972509 -1.24016 0
M  V30 3635 C 355.992 -0.635776 -1.91839 0
M  V30 3636 C 356.313 0.832312 -1.76345 0
M  V30 3637 O 355.583 1.5946 -1.13795 0
M  V30 3638 H 354.163 -0.232157 -0.710009 0
M  V30 3639 H 356.825 -1.23462 -1.50809 0
M  V30 3640 H 355.921 -0.880545 -2.99421 0
M  V30 3641 N 356.222 1.38976 -0.743202 0
M  V30 3642 C 357.468 2.0064 -0.295189 0
M  V30 3643 C 357.801 1.5885 1.11716 0
M  V30 3644 O 357.076 0.821181 1.76315 0
M  V30 3645 C 357.359 3.578 -0.406318 0
M  V30 3646 C 357.212 4.09586 -1.85903 0
M  V30 3647 C 358.531 4.39616 0.206439 0
M  V30 3648 H 355.65 0.728935 -0.108733 0
M  V30 3649 H 358.292 1.65067 -0.940897 0
M  V30 3650 H 356.442 3.88235 0.143419 0
M  V30 3651 H 358.114 3.89837 -2.46627 0
M  V30 3652 H 356.357 3.6284 -2.3776 0
M  V30 3653 H 357.028 5.18708 -1.888 0
M  V30 3654 H 359.504 4.15273 -0.262283 0
M  V30 3655 H 358.38 5.48812 0.0983819 0
M  V30 3656 H 358.641 4.22754 1.2935 0
M  V30 3657 N 357.7 0.491464 1.49741 0
M  V30 3658 C 358.63 -0.28154 2.31796 0
M  V30 3659 C 359.611 -0.971473 1.3963 0
M  V30 3660 O 360.796 -0.964719 1.68543 0
M  V30 3661 C 357.926 -1.35203 3.19902 0
M  V30 3662 C 356.88 -0.782529 4.20786 0
M  V30 3663 C 356.206 -1.95283 4.97764 0
M  V30 3664 C 357.506 0.21999 5.21837 0
M  V30 3665 H 359.2 0.403355 2.96671 0
M  V30 3666 H 356.746 0.195425 1.42668 0
M  V30 3667 H 358.699 -1.90045 3.76113 0
M  V30 3668 H 357.423 -2.06598 2.52953 0
M  V30 3669 H 356.082 -0.255928 3.65706 0
M  V30 3670 H 355.73 -2.65423 4.2727 0
M  V30 3671 H 355.43 -1.57789 5.66018 0
M  V30 3672 H 356.954 -2.50577 5.56816 0
M  V30 3673 H 358.368 -0.23996 5.72798 0
M  V30 3674 H 356.765 0.51026 5.97927 0
M  V30 3675 H 357.835 1.13911 4.7133 0
M  V30 3676 N 359.178 -1.55987 0.224894 0
M  V30 3677 C 360.403 -2.03232 -0.41369 0
M  V30 3678 C 360.828 -1.10359 -1.52323 0
M  V30 3679 O 360.186 -0.092395 -1.81064 0
M  V30 3680 C 360.234 -3.48682 -0.919405 0
M  V30 3681 O 359.338 -3.58947 -2.03054 0
M  V30 3682 H 358.679 -0.657428 -0.0931903 0
M  V30 3683 H 361.209 -2.01679 0.34451 0
M  V30 3684 H 361.219 -3.8907 -1.22835 0
M  V30 3685 H 359.894 -4.15761 -0.107339 0
M  V30 3686 H 358.471 -3.30448 -1.72796 0
M  V30 3687 N 360.656 0.0484629 -1.57525 0
M  V30 3688 C 361.886 0.754326 -1.92337 0
M  V30 3689 C 362.294 1.70443 -0.82132 0
M  V30 3690 O 361.637 1.82466 0.21254 0
M  V30 3691 C 361.699 1.58231 -3.22805 0
M  V30 3692 C 361.363 0.799074 -4.4996 0
M  V30 3693 C 362.36 0.1079 -5.19788 0
M  V30 3694 C 360.045 0.759345 -4.96527 0
M  V30 3695 C 362.039 -0.612516 -6.3445 0
M  V30 3696 C 359.726 0.0351713 -6.1109 0
M  V30 3697 C 360.724 -0.649537 -6.79904 0
M  V30 3698 O 360.412 -1.36199 -7.92278 0
M  V30 3699 H 360.144 0.218257 -0.639797 0
M  V30 3700 H 362.698 0.0159295 -2.05394 0
M  V30 3701 H 360.928 2.36406 -3.06021 0
M  V30 3702 H 362.617 2.16898 -3.43089 0
M  V30 3703 H 363.383 0.129748 -4.84826 0
M  V30 3704 H 359.262 1.28177 -4.42822 0
M  V30 3705 H 362.806 -1.14751 -6.88097 0
M  V30 3706 H 358.703 0.0113314 -6.45499 0
M  V30 3707 H 359.471 -1.27366 -8.0853 0
M  V30 3708 N 362.134 1.5431 0.320358 0
M  V30 3709 C 363.081 1.83918 1.39438 0
M  V30 3710 C 364.051 0.686525 1.51248 0
M  V30 3711 O 365.236 0.933269 1.66417 0
M  V30 3712 C 362.376 2.075 2.75749 0
M  V30 3713 C 361.489 3.35177 2.72544 0
M  V30 3714 C 360.624 3.48704 4.00723 0
M  V30 3715 C 359.663 4.70244 3.91838 0
M  V30 3716 N 358.8 4.80679 5.11754 0
M  V30 3717 H 363.64 2.75544 1.13489 0
M  V30 3718 H 361.177 1.36459 0.549309 0
M  V30 3719 H 363.135 2.19166 3.54996 0
M  V30 3720 H 361.765 1.19163 3 0
M  V30 3721 H 360.817 3.32233 1.85271 0
M  V30 3722 H 362.129 4.24534 2.61863 0
M  V30 3723 H 361.283 3.59928 4.88402 0
M  V30 3724 H 360.022 2.57445 4.14214 0
M  V30 3725 H 359.027 4.59072 3.02544 0
M  V30 3726 H 360.252 5.6289 3.7991 0
M  V30 3727 H 358.198 3.92337 5.25745 0
M  V30 3728 H 358.115 5.64007 5.0342 0
M  V30 3729 H 359.383 4.96239 6.01138 0
M  V30 3730 N 363.613 -0.582584 1.46437 0
M  V30 3731 C 364.576 -1.67366 1.56592 0
M  V30 3732 C 365.576 -1.54575 0.443072 0
M  V30 3733 O 366.766 -1.59191 0.707381 0
M  V30 3734 C 363.898 -3.06791 1.48634 0
M  V30 3735 H 365.091 -1.5972 2.5383 0
M  V30 3736 H 362.644 -0.800432 1.34249 0
M  V30 3737 H 363.379 -3.19993 0.526763 0
M  V30 3738 H 363.164 -3.17484 2.30101 0
M  V30 3739 H 364.654 -3.86218 1.58826 0
M  V30 3740 N 365.091 -1.34144 -0.827227 0
M  V30 3741 C 366.021 -1.28005 -1.95287 0
M  V30 3742 C 367.002 -0.158321 -1.69362 0
M  V30 3743 O 368.187 -0.349987 -1.9102 0
M  V30 3744 C 365.317 -1.03036 -3.31664 0
M  V30 3745 C 364.271 -2.11628 -3.72019 0
M  V30 3746 C 363.597 -1.71854 -5.0633 0
M  V30 3747 C 364.897 -3.53417 -3.8457 0
M  V30 3748 H 366.591 -2.22187 -2.00682 0
M  V30 3749 H 364.137 -1.0696 -0.964135 0
M  V30 3750 H 366.09 -0.973863 -4.09993 0
M  V30 3751 H 364.814 -0.0529391 -3.26557 0
M  V30 3752 H 363.473 -2.16339 -2.95961 0
M  V30 3753 H 363.121 -0.727841 -4.97706 0
M  V30 3754 H 362.821 -2.44531 -5.34302 0
M  V30 3755 H 364.345 -1.67692 -5.87122 0
M  V30 3756 H 365.759 -3.51142 -4.5318 0
M  V30 3757 H 364.156 -4.24679 -4.2399 0
M  V30 3758 H 365.226 -3.91072 -2.86689 0
M  V30 3759 N 366.569 1.04691 -1.17803 0
M  V30 3760 C 367.499 2.14494 -0.92275 0
M  V30 3761 C 368.48 1.69546 0.137179 0
M  V30 3762 O 369.665 1.94195 -0.0141108 0
M  V30 3763 C 366.795 3.44491 -0.440803 0
M  V30 3764 C 365.749 4.03031 -1.4405 0
M  V30 3765 C 365.075 5.28432 -0.81631 0
M  V30 3766 C 366.375 4.39932 -2.81527 0
M  V30 3767 H 368.069 2.36107 -1.84103 0
M  V30 3768 H 365.615 1.1347 -0.886599 0
M  V30 3769 H 367.568 4.2066 -0.249602 0
M  V30 3770 H 366.292 3.22546 0.513025 0
M  V30 3771 H 364.951 3.28937 -1.61853 0
M  V30 3772 H 364.599 5.02792 0.144511 0
M  V30 3773 H 364.299 5.68559 -1.48371 0
M  V30 3774 H 365.823 6.07284 -0.635496 0
M  V30 3775 H 367.237 5.07113 -2.67412 0
M  V30 3776 H 365.634 4.9109 -3.44892 0
M  V30 3777 H 366.704 3.50045 -3.35554 0
M  V30 3778 N 368.047 0.979072 1.23499 0
M  V30 3779 C 369.324 0.563674 1.87302 0
M  V30 3780 C 369.704 -0.959199 1.88049 0
M  V30 3781 O 369.052 -1.83535 1.36114 0
M  V30 3782 C 369.262 1.16822 3.28867 0
M  V30 3783 C 370.61 1.26014 4.0547 0
M  V30 3784 O 371.634 1.12158 3.38082 0
M  V30 3785 O 370.493 1.48044 5.26066 0
M  V30 3786 H 367.587 0.189602 0.804972 0
M  V30 3787 H 370.133 1.07407 1.31384 0
M  V30 3788 H 368.905 2.21049 3.22883 0
M  V30 3789 H 368.528 0.642564 3.92373 0
M  V30 3790 N 369.525 -1.3858 0.750561 0
M  V30 3791 C 370.75 -2.04997 0.314812 0
M  V30 3792 C 371.175 -1.56235 -1.04749 0
M  V30 3793 O 370.533 -0.712981 -1.66692 0
M  V30 3794 C 370.581 -3.58961 0.343415 0
M  V30 3795 O 369.685 -4.07025 -0.663628 0
M  V30 3796 H 369.026 -0.649081 0.139962 0
M  V30 3797 H 371.556 -1.77313 1.02084 0
M  V30 3798 H 371.566 -4.07542 0.193233 0
M  V30 3799 H 370.241 -3.93811 1.33738 0
M  V30 3800 H 368.818 -3.6982 -0.478307 0
M  V30 3801 N 371.003 -0.499398 -1.49478 0
M  V30 3802 C 371.953 0.299103 -2.2603 0
M  V30 3803 C 372.937 0.936934 -1.30807 0
M  V30 3804 O 374.129 0.844798 -1.55538 0
M  V30 3805 C 371.258 1.36391 -3.15044 0
M  V30 3806 C 370.344 0.732398 -4.17728 0
M  V30 3807 N 370.735 -0.164028 -5.05534 0
M  V30 3808 C 369.033 0.993162 -4.34801 0
M  V30 3809 C 369.734 -0.525345 -5.79323 0
M  V30 3810 N 368.71 0.106348 -5.43496 0
M  V30 3811 H 372.512 -0.391003 -2.91287 0
M  V30 3812 H 370.026 -0.31537 -1.59308 0
M  V30 3813 H 372.023 1.94939 -3.68516 0
M  V30 3814 H 370.683 2.05571 -2.51338 0
M  V30 3815 H 371.694 -0.534736 -5.15132 0
M  V30 3816 H 368.371 1.67783 -3.82302 0
M  V30 3817 H 369.761 -1.25862 -6.60006 0
M  V30 3818 N 372.481 1.55866 -0.233164 0
M  V30 3819 C 373.706 2.03449 0.402906 0
M  V30 3820 C 374.131 1.11166 1.51736 0
M  V30 3821 O 373.489 0.101996 1.81013 0
M  V30 3822 C 373.537 3.49165 0.9009 0
M  V30 3823 O 372.641 3.60019 2.01147 0
M  V30 3824 H 371.982 0.657913 0.0897025 0
M  V30 3825 H 374.512 2.01493 -0.355201 0
M  V30 3826 H 374.522 3.89716 1.2077 0
M  V30 3827 H 373.197 4.15813 0.0852889 0
M  V30 3828 H 371.774 3.3136 1.71042 0
M  V30 3829 N 373.959 -0.0401083 1.57549 0
M  V30 3830 C 375.208 -0.732108 1.87944 0
M  V30 3831 C 375.521 -1.77107 0.830206 0
M  V30 3832 O 376.727 -2.51488 1.02302 0
M  V30 3833 C 375.183 -1.35315 3.33494 0
M  V30 3834 C 374.791 -0.351105 4.46622 0
M  V30 3835 C 376.535 -2.02566 3.73051 0
M  V30 3836 C 374.442 -0.979859 5.83226 0
M  V30 3837 H 373.372 -0.277188 0.701201 0
M  V30 3838 H 376.023 0.0138501 1.83495 0
M  V30 3839 H 374.405 -2.14844 3.32653 0
M  V30 3840 H 375.579 0.416674 4.58912 0
M  V30 3841 H 373.894 0.218708 4.15825 0
M  V30 3842 H 376.491 -2.50441 4.72423 0
M  V30 3843 H 376.834 -2.83904 3.04474 0
M  V30 3844 H 377.367 -1.29827 3.76018 0
M  V30 3845 H 374.106 -0.206135 6.55176 0
M  V30 3846 H 373.626 -1.71774 5.74677 0
M  V30 3847 H 375.305 -1.49046 6.29599 0
M  V30 3848 N 375.437 -1.54477 -0.31217 0
M  V30 3849 C 376.848 -1.64344 -0.885891 0
M  V30 3850 C 377.199 -0.54485 -1.88483 0
M  V30 3851 O 376.324 0.320387 -2.14015 0
M  V30 3852 C 376.919 -2.97908 -1.61357 0
M  V30 3853 C 375.478 -3.09933 -2.13585 0
M  V30 3854 C 374.625 -2.59971 -0.964897 0
M  V30 3855 H 377.576 -1.58448 -0.0894528 0
M  V30 3856 H 377.597 -2.88706 -2.47848 0
M  V30 3857 H 377.109 -3.77845 -0.886277 0
M  V30 3858 H 375.21 -2.34694 -2.89395 0
M  V30 3859 H 375.323 -4.15916 -2.37804 0
M  V30 3860 H 373.687 -2.16147 -1.34731 0
M  V30 3861 H 374.47 -3.42376 -0.251742 0
M  V30 3862 N 376.915 0.57481 -1.46744 0
M  V30 3863 C 378.143 1.35856 -1.56047 0
M  V30 3864 C 378.558 1.87691 -0.204365 0
M  V30 3865 O 377.915 1.64049 0.79963 0
M  V30 3866 C 377.966 2.54066 -2.57163 0
M  V30 3867 O 377.687 2.04377 -3.87507 0
M  V30 3868 C 379.188 3.46514 -2.76483 0
M  V30 3869 H 376.408 0.414754 -0.527466 0
M  V30 3870 H 378.952 0.698035 -1.92218 0
M  V30 3871 H 377.107 3.16092 -2.23974 0
M  V30 3872 H 377.521 2.81419 -4.4261 0
M  V30 3873 H 378.995 4.25919 -3.51137 0
M  V30 3874 H 379.472 3.98951 -1.83671 0
M  V30 3875 H 380.078 2.90318 -3.10799 0
M  V30 3876 N 378.394 1.34581 0.820102 0
M  V30 3877 C 379.671 1.17675 1.56244 0
M  V30 3878 C 380.051 -0.249541 2.0962 0
M  V30 3879 O 379.399 -1.25125 1.91196 0
M  V30 3880 C 379.609 2.23364 2.6816 0
M  V30 3881 C 380.957 2.58485 3.36854 0
M  V30 3882 O 381.981 2.22175 2.78418 0
M  V30 3883 O 380.84 3.20868 4.42386 0
M  V30 3884 H 377.934 0.456333 0.689702 0
M  V30 3885 H 380.48 1.46222 0.861231 0
M  V30 3886 H 379.252 3.19087 2.26493 0
M  V30 3887 H 378.875 1.96009 3.45928 0
M  V30 3888 N 379.872 -1.04064 1.18357 0
M  V30 3889 C 381.112 -1.78829 0.989921 0
M  V30 3890 C 381.476 -1.86106 -0.472095 0
M  V30 3891 O 382.677 -2.57076 -0.785187 0
M  V30 3892 C 380.948 -3.1823 1.6268 0
M  V30 3893 S 382.507 -4.09332 1.58091 0
M  V30 3894 H 379.325 -0.615754 0.355482 0
M  V30 3895 H 381.927 -1.24778 1.50501 0
M  V30 3896 H 380.631 -3.10543 2.68311 0
M  V30 3897 H 380.162 -3.77357 1.112 0
M  V30 3898 H 382.177 -4.92598 0.596817 0
M  V30 3899 N 381.35 -0.985608 -1.22978 0
M  V30 3900 C 382.313 -0.535071 -2.22867 0
M  V30 3901 C 383.313 0.378123 -1.56291 0
M  V30 3902 O 384.503 0.171092 -1.73358 0
M  V30 3903 C 381.635 0.222702 -3.40172 0
M  V30 3904 H 382.828 -1.41835 -2.6424 0
M  V30 3905 H 380.381 -0.772042 -1.35901 0
M  V30 3906 H 381.116 1.12229 -3.04262 0
M  V30 3907 H 380.901 -0.43288 -3.89703 0
M  V30 3908 H 382.391 0.526335 -4.1427 0
M  V30 3909 N 382.828 1.3818 -0.7579 0
M  V30 3910 C 383.775 2.30416 -0.133057 0
M  V30 3911 C 384.745 1.50398 0.704957 0
M  V30 3912 O 385.93 1.79014 0.660192 0
M  V30 3913 C 383.07 3.36834 0.750813 0
M  V30 3914 C 382.183 4.31879 -0.102297 0
M  V30 3915 C 381.318 5.25368 0.784979 0
M  V30 3916 C 380.357 6.12058 -0.0715046 0
M  V30 3917 N 379.494 6.97832 0.772972 0
M  V30 3918 H 384.334 2.83274 -0.925186 0
M  V30 3919 H 381.871 1.39461 -0.467866 0
M  V30 3920 H 383.829 3.97145 1.27794 0
M  V30 3921 H 382.459 2.85374 1.50868 0
M  V30 3922 H 381.511 3.72991 -0.747095 0
M  V30 3923 H 382.823 4.92921 -0.763552 0
M  V30 3924 H 381.977 5.90818 1.37911 0
M  V30 3925 H 380.716 4.64703 1.47996 0
M  V30 3926 H 379.721 5.456 -0.678272 0
M  V30 3927 H 380.946 6.74793 -0.763606 0
M  V30 3928 H 378.892 6.3971 1.45282 0
M  V30 3929 H 378.809 7.55812 0.168709 0
M  V30 3930 H 380.077 7.67687 1.35194 0
M  V30 3931 N 384.306 0.507319 1.49211 0
M  V30 3932 C 385.554 -0.0348839 2.0207 0
M  V30 3933 C 385.875 -1.36898 1.38866 0
M  V30 3934 O 385.145 -1.88133 0.546151 0
M  V30 3935 H 383.725 -0.0158812 0.746831 0
M  V30 3936 H 386.387 0.665998 1.83168 0
M  V30 3937 H 385.483 -0.159917 3.1169 0
M  V30 3938 N 385.784 -1.5574 0.241426 0
M  V30 3939 C 386.716 -2.18469 -0.693091 0
M  V30 3940 C 387.729 -1.15942 -1.14286 0
M  V30 3941 O 388.918 -1.42832 -1.07058 0
M  V30 3942 C 386.018 -2.7696 -1.95311 0
M  V30 3943 C 385.191 -4.04853 -1.65568 0
M  V30 3944 C 384.25 -4.47715 -2.76474 0
M  V30 3945 O 383.276 -5.14205 -2.44094 0
M  V30 3946 N 384.478 -4.15044 -4.05855 0
M  V30 3947 H 387.243 -2.99292 -0.156388 0
M  V30 3948 H 384.804 -1.61784 0.0611752 0
M  V30 3949 H 386.796 -3.02594 -2.68736 0
M  V30 3950 H 385.366 -2.00326 -2.39975 0
M  V30 3951 H 384.586 -3.86865 -0.756886 0
M  V30 3952 H 385.874 -4.88246 -1.43153 0
M  V30 3953 H 385.272 -3.61654 -4.34998 0
M  V30 3954 H 383.829 -4.45526 -4.75762 0
M  V30 3955 N 387.262 0.0317525 -1.57568 0
M  V30 3956 C 388.192 1.03274 -2.0942 0
M  V30 3957 C 389.173 1.3788 -0.996143 0
M  V30 3958 O 390.358 1.46811 -1.27122 0
M  V30 3959 C 387.488 2.33448 -2.57137 0
M  V30 3960 C 386.442 2.13091 -3.71182 0
M  V30 3961 C 385.768 3.49001 -4.05095 0
M  V30 3962 C 387.068 1.51928 -4.99715 0
M  V30 3963 H 388.762 0.60112 -2.93303 0
M  V30 3964 H 386.308 0.287705 -1.41097 0
M  V30 3965 H 388.261 3.03802 -2.92032 0
M  V30 3966 H 386.985 2.78665 -1.70333 0
M  V30 3967 H 385.644 1.45171 -3.36632 0
M  V30 3968 H 385.292 3.91862 -3.15362 0
M  V30 3969 H 384.992 3.36207 -4.81911 0
M  V30 3970 H 386.516 4.20721 -4.42522 0
M  V30 3971 H 387.93 2.12196 -5.32584 0
M  V30 3972 H 386.327 1.49716 -5.81124 0
M  V30 3973 H 387.397 0.484811 -4.8247 0
M  V30 3974 N 388.74 1.54641 0.303973 0
M  V30 3975 C 389.965 1.78092 1.06292 0
M  V30 3976 C 390.39 0.537342 1.80262 0
M  V30 3977 O 389.748 -0.511993 1.7392 0
M  V30 3978 C 389.796 2.98612 2.02147 0
M  V30 3979 O 388.9 2.71528 3.10397 0
M  V30 3980 H 388.241 0.589548 0.305497 0
M  V30 3981 H 390.771 2.01716 0.3423 0
M  V30 3982 H 390.781 3.265 2.44667 0
M  V30 3983 H 389.456 3.88785 1.47714 0
M  V30 3984 H 388.033 2.54648 2.72413 0
M  V30 3985 N 390.218 -0.567019 1.47046 0
M  V30 3986 C 391.466 -1.322 1.52864 0
M  V30 3987 C 391.787 -1.94088 0.188388 0
M  V30 3988 O 391.057 -1.7941 -0.786693 0
M  V30 3989 H 389.637 -0.490894 0.563056 0
M  V30 3990 H 392.299 -0.662879 1.83281 0
M  V30 3991 H 391.395 -2.12062 2.2899 0
M  V30 3992 N 391.696 -1.35014 -0.812953 0
M  V30 3993 C 392.628 -1.23262 -1.93233 0
M  V30 3994 C 393.641 -0.157371 -1.62038 0
M  V30 3995 O 394.83 -0.410096 -1.73725 0
M  V30 3996 C 391.93 -0.87392 -3.27438 0
M  V30 3997 C 391.103 -2.04622 -3.86586 0
M  V30 3998 C 390.162 -1.66432 -4.99186 0
M  V30 3999 O 389.188 -2.38222 -5.16951 0
M  V30 4000 N 390.39 -0.584248 -5.77552 0
M  V30 4001 H 393.155 -2.19699 -2.03844 0
M  V30 4002 H 390.716 -1.281 -0.99005 0
M  V30 4003 H 392.708 -0.600039 -4.00227 0
M  V30 4004 H 391.278 0.00057392 -3.126 0
M  V30 4005 H 390.498 -2.48427 -3.06068 0
M  V30 4006 H 391.786 -2.82999 -4.22835 0
M  V30 4007 H 391.184 0.0123526 -5.65699 0
M  V30 4008 H 389.741 -0.37013 -6.50748 0
M  V30 4009 N 393.175 1.03435 -1.18907 0
M  V30 4010 C 394.586 1.58195 -0.991523 0
M  V30 4011 C 394.937 1.90801 0.457081 0
M  V30 4012 O 394.062 1.70272 1.33553 0
M  V30 4013 C 394.657 2.87432 -1.79355 0
M  V30 4014 C 393.216 3.38785 -1.64017 0
M  V30 4015 C 392.363 2.12292 -1.78402 0
M  V30 4016 H 395.314 0.860299 -1.33359 0
M  V30 4017 H 395.335 3.58096 -1.28638 0
M  V30 4018 H 394.847 2.63669 -2.84781 0
M  V30 4019 H 392.948 3.67547 -0.611536 0
M  V30 4020 H 393.061 4.12186 -2.44212 0
M  V30 4021 H 391.425 2.23901 -1.2141 0
M  V30 4022 H 392.208 1.90977 -2.85277 0
M  V30 4023 N 394.653 0.992116 1.22453 0
M  V30 4024 C 395.583 0.561677 2.26644 0
M  V30 4025 C 396.564 -0.411055 1.65059 0
M  V30 4026 O 397.749 -0.301861 1.9184 0
M  V30 4027 C 394.879 -0.125247 3.47074 0
M  V30 4028 C 393.833 0.765948 4.21091 0
M  V30 4029 C 393.159 -0.0538484 5.34673 0
M  V30 4030 C 394.459 2.06242 4.79856 0
M  V30 4031 H 396.153 1.43259 2.62902 0
M  V30 4032 H 393.699 0.690283 1.26377 0
M  V30 4033 H 395.652 -0.437764 4.1912 0
M  V30 4034 H 394.376 -1.03069 3.0991 0
M  V30 4035 H 393.035 1.0621 3.50878 0
M  V30 4036 H 392.683 -0.960188 4.9375 0
M  V30 4037 H 392.383 0.539415 5.85119 0
M  V30 4038 H 393.907 -0.360477 6.09535 0
M  V30 4039 H 395.321 1.8139 5.43848 0
M  V30 4040 H 393.718 2.60444 5.40638 0
M  V30 4041 H 394.788 2.74167 3.99951 0
M  V30 4042 N 396.131 -1.37776 0.765217 0
M  V30 4043 C 397.371 -2.01691 0.331669 0
M  V30 4044 C 397.735 -1.59432 -1.06983 0
M  V30 4045 O 398.936 -2.15761 -1.60314 0
M  V30 4046 C 397.207 -3.54385 0.463261 0
M  V30 4047 S 398.766 -4.38652 0.114011 0
M  V30 4048 H 395.584 -0.699387 0.127979 0
M  V30 4049 H 398.186 -1.68084 0.998396 0
M  V30 4050 H 396.89 -3.82629 1.48401 0
M  V30 4051 H 396.421 -3.92783 -0.220246 0
M  V30 4052 H 398.436 -4.84021 -1.09261 0
M  V30 4053 N 397.609 -0.515225 -1.4894 0
M  V30 4054 C 398.542 0.302518 -2.26186 0
M  V30 4055 C 399.52 0.957895 -1.31389 0
M  V30 4056 O 400.704 0.985198 -1.60705 0
M  V30 4057 C 397.831 1.42719 -3.07163 0
M  V30 4058 C 396.877 0.884736 -4.17223 0
M  V30 4059 S 397.71 -0.235767 -5.34981 0
M  V30 4060 C 398.866 0.891731 -6.19515 0
M  V30 4061 H 399.099 -0.353076 -2.95196 0
M  V30 4062 H 396.632 -0.300753 -1.51443 0
M  V30 4063 H 398.59 2.07152 -3.54398 0
M  V30 4064 H 397.251 2.05445 -2.37595 0
M  V30 4065 H 396.444 1.72801 -4.73451 0
M  V30 4066 H 396.046 0.317362 -3.72651 0
M  V30 4067 H 398.338 1.79377 -6.53322 0
M  V30 4068 H 399.281 0.367751 -7.07144 0
M  V30 4069 H 399.689 1.16548 -5.52338 0
M  V30 4070 N 399.087 1.5561 -0.249682 0
M  V30 4071 C 400.034 2.21496 0.648694 0
M  V30 4072 C 401.004 1.17977 1.16921 0
M  V30 4073 O 402.189 1.46434 1.22318 0
M  V30 4074 C 399.329 2.92039 1.83868 0
M  V30 4075 C 398.442 4.10219 1.35442 0
M  V30 4076 C 397.577 4.6847 2.50419 0
M  V30 4077 C 396.616 5.78893 1.98869 0
M  V30 4078 N 395.753 6.31315 3.07223 0
M  V30 4079 H 400.593 2.97892 0.0801582 0
M  V30 4080 H 398.13 1.47074 0.0278031 0
M  V30 4081 H 400.088 3.31138 2.53778 0
M  V30 4082 H 398.718 2.18111 2.37965 0
M  V30 4083 H 397.77 3.76413 0.54928 0
M  V30 4084 H 399.082 4.89927 0.936649 0
M  V30 4085 H 398.236 5.10158 3.28366 0
M  V30 4086 H 396.975 3.87984 2.95499 0
M  V30 4087 H 395.98 5.3668 1.19393 0
M  V30 4088 H 397.205 6.61232 1.54755 0
M  V30 4089 H 395.151 5.53733 3.51732 0
M  V30 4090 H 395.068 7.06224 2.69784 0
M  V30 4091 H 396.336 6.77662 3.8522 0
M  V30 4092 N 400.565 -0.0233959 1.57583 0
M  V30 4093 C 401.497 -1.04994 2.03737 0
M  V30 4094 C 402.51 -1.32125 0.951152 0
M  V30 4095 O 403.699 -1.29512 1.22837 0
M  V30 4096 C 400.799 -2.39026 2.40249 0
M  V30 4097 C 399.972 -2.31171 3.7132 0
M  V30 4098 C 399.031 -3.47698 3.94959 0
M  V30 4099 O 398.057 -3.26937 4.65941 0
M  V30 4100 N 399.259 -4.6976 3.41037 0
M  V30 4101 H 402.024 -0.656507 2.92421 0
M  V30 4102 H 399.585 -0.211235 1.60516 0
M  V30 4103 H 401.577 -3.15712 2.53196 0
M  V30 4104 H 400.147 -2.70194 1.57207 0
M  V30 4105 H 399.367 -1.39547 3.68674 0
M  V30 4106 H 400.655 -2.23071 4.57293 0
M  V30 4107 H 400.053 -4.89528 2.83512 0
M  V30 4108 H 398.61 -5.43791 3.59353 0
M  V30 4109 N 402.043 -1.548 -0.295768 0
M  V30 4110 C 403.273 -1.78069 -1.04762 0
M  V30 4111 C 403.681 -0.542847 -1.81245 0
M  V30 4112 O 403.024 0.497051 -1.76848 0
M  V30 4113 C 403.086 -2.93881 -2.07061 0
M  V30 4114 C 402.75 -4.31777 -1.49725 0
M  V30 4115 C 403.747 -5.11613 -0.924581 0
M  V30 4116 C 401.432 -4.78389 -1.5313 0
M  V30 4117 C 403.426 -6.36184 -0.393594 0
M  V30 4118 C 401.113 -6.02921 -0.996447 0
M  V30 4119 C 402.111 -6.81654 -0.428569 0
M  V30 4120 O 401.799 -8.0384 0.0981593 0
M  V30 4121 H 401.531 -0.597475 -0.316226 0
M  V30 4122 H 404.085 -2.02584 -0.338973 0
M  V30 4123 H 402.315 -2.65003 -2.81621 0
M  V30 4124 H 404.004 -3.04679 -2.6819 0
M  V30 4125 H 404.77 -4.76743 -0.891136 0
M  V30 4126 H 400.649 -4.17132 -1.9627 0
M  V30 4127 H 404.193 -6.97582 0.0503014 0
M  V30 4128 H 400.09 -6.37277 -1.02706 0
M  V30 4129 H 400.858 -8.18499 -0.0146455 0
M  V30 4130 N 403.521 0.559213 -1.47345 0
M  V30 4131 C 404.751 1.33999 -1.57251 0
M  V30 4132 C 405.159 1.87905 -0.220978 0
M  V30 4133 O 404.502 1.65577 0.795617 0
M  V30 4134 C 404.564 2.54798 -2.53611 0
M  V30 4135 C 404.228 2.22192 -3.99349 0
M  V30 4136 C 405.225 1.79607 -4.87891 0
M  V30 4137 C 402.91 2.33613 -4.44669 0
M  V30 4138 C 404.904 1.48868 -6.19772 0
M  V30 4139 C 402.591 2.02487 -5.76578 0
M  V30 4140 C 403.589 1.60183 -6.63951 0
M  V30 4141 O 403.277 1.29451 -7.93409 0
M  V30 4142 H 403.009 0.414858 -0.533731 0
M  V30 4143 H 405.563 0.684465 -1.9366 0
M  V30 4144 H 403.793 3.23235 -2.12265 0
M  V30 4145 H 405.482 3.16873 -2.53666 0
M  V30 4146 H 406.248 1.70278 -4.54126 0
M  V30 4147 H 402.127 2.65501 -3.76869 0
M  V30 4148 H 405.671 1.15775 -6.87926 0
M  V30 4149 H 401.568 2.11448 -6.09885 0
M  V30 4150 H 402.336 1.43098 -8.05894 0
M  V30 4151 N 404.999 1.35443 0.805782 0
M  V30 4152 C 406.247 1.28507 1.55982 0
M  V30 4153 C 406.568 -0.140046 1.94496 0
M  V30 4154 O 405.838 -1.07666 1.63661 0
M  V30 4155 H 404.418 0.472676 0.578434 0
M  V30 4156 H 407.08 1.69555 0.961098 0
M  V30 4157 H 406.176 1.90148 2.47488 0
M  V30 4158 N 406.477 -1.02803 1.19454 0
M  V30 4159 C 407.407 -2.12999 0.956758 0
M  V30 4160 C 408.388 -1.69743 -0.110188 0
M  V30 4161 O 409.573 -1.94148 0.0450038 0
M  V30 4162 C 406.703 -3.43746 0.495553 0
M  V30 4163 C 405.657 -4.00688 1.50443 0
M  V30 4164 C 404.983 -5.27067 0.900275 0
M  V30 4165 C 406.283 -4.35397 2.8849 0
M  V30 4166 H 407.977 -2.33148 1.87836 0
M  V30 4167 H 405.523 -1.12045 0.904539 0
M  V30 4168 H 407.476 -4.2021 0.316493 0
M  V30 4169 H 406.2 -3.23321 -0.461646 0
M  V30 4170 H 404.859 -3.2632 1.67065 0
M  V30 4171 H 404.507 -5.02959 -0.064503 0
M  V30 4172 H 404.207 -5.66127 1.57397 0
M  V30 4173 H 405.731 -6.06196 0.73203 0
M  V30 4174 H 407.145 -5.02795 2.75446 0
M  V30 4175 H 405.542 -4.85541 3.52661 0
M  V30 4176 H 406.612 -3.44662 3.41081 0
M  V30 4177 N 407.956 -0.998596 -1.21925 0
M  V30 4178 C 409.203 -0.677663 -1.90824 0
M  V30 4179 C 409.531 0.790905 -1.77693 0
M  V30 4180 O 408.786 1.58817 -1.14349 0
M  V30 4181 C 409.085 -1.03648 -3.42041 0
M  V30 4182 C 408.751 -2.49825 -3.75364 0
M  V30 4183 C 407.413 -2.8977 -3.8417 0
M  V30 4184 C 409.765 -3.44545 -3.91073 0
M  V30 4185 C 407.093 -4.23412 -4.06127 0
M  V30 4186 C 409.445 -4.77853 -4.14535 0
M  V30 4187 C 408.109 -5.17531 -4.21566 0
M  V30 4188 H 407.379 -0.247975 -0.698276 0
M  V30 4189 H 410.026 -1.25584 -1.44571 0
M  V30 4190 H 408.331 -0.376457 -3.89987 0
M  V30 4191 H 410.028 -0.766113 -3.93614 0
M  V30 4192 H 406.618 -2.17866 -3.69097 0
M  V30 4193 H 410.802 -3.14853 -3.83642 0
M  V30 4194 H 406.058 -4.53734 -4.09799 0
M  V30 4195 H 410.232 -5.51189 -4.25633 0
M  V30 4196 H 407.859 -6.21102 -4.38333 0
M  V30 4197 N 409.434 1.37368 -0.772513 0
M  V30 4198 C 410.659 2.0447 -0.347386 0
M  V30 4199 C 411.084 1.57882 1.0225 0
M  V30 4200 O 410.442 0.73941 1.65537 0
M  V30 4201 C 410.49 3.58369 -0.400479 0
M  V30 4202 O 409.594 4.0803 0.598789 0
M  V30 4203 H 408.935 0.646773 -0.15027 0
M  V30 4204 H 411.465 1.75667 -1.04892 0
M  V30 4205 H 411.475 4.07183 -0.258045 0
M  V30 4206 H 410.15 3.91633 -1.39986 0
M  V30 4207 H 408.727 3.70534 0.419411 0
M  V30 4208 N 410.912 0.523116 1.48665 0
M  V30 4209 C 412.137 -0.0117284 2.07397 0
M  V30 4210 C 412.562 -1.28031 1.37803 0
M  V30 4211 O 411.92 -1.75836 0.441762 0
M  V30 4212 C 411.968 -0.225786 3.59892 0
M  V30 4213 O 411.072 -1.29592 3.91509 0
M  V30 4214 H 410.413 0.0360673 0.66302 0
M  V30 4215 H 412.943 0.729066 1.9117 0
M  V30 4216 H 412.953 -0.450552 4.05505 0
M  V30 4217 H 411.628 0.700944 4.09951 0
M  V30 4218 H 410.205 -1.05436 3.57684 0
M  V30 4219 N 412.39 -1.55475 0.257931 0
M  V30 4220 C 413.62 -2.03314 -0.367026 0
M  V30 4221 C 414.028 -1.13625 -1.51281 0
M  V30 4222 O 413.371 -0.145334 -1.83124 0
M  V30 4223 C 413.433 -3.47362 -0.926284 0
M  V30 4224 C 413.097 -4.56914 0.0886584 0
M  V30 4225 C 414.094 -5.12013 0.902123 0
M  V30 4226 C 411.779 -5.01827 0.217936 0
M  V30 4227 C 413.773 -6.10529 1.83122 0
M  V30 4228 C 411.46 -6.00172 1.15052 0
M  V30 4229 C 412.458 -6.54402 1.95568 0
M  V30 4230 O 412.146 -7.50827 2.87253 0
M  V30 4231 H 411.878 -0.669976 -0.0900443 0
M  V30 4232 H 414.432 -2.01804 0.382673 0
M  V30 4233 H 412.662 -3.46056 -1.72575 0
M  V30 4234 H 414.351 -3.78637 -1.46249 0
M  V30 4235 H 415.117 -4.78139 0.812891 0
M  V30 4236 H 410.996 -4.59272 -0.398721 0
M  V30 4237 H 414.54 -6.52783 2.46008 0
M  V30 4238 H 410.437 -6.33465 1.24064 0
M  V30 4239 H 411.205 -7.68483 2.81739 0
M  V30 4240 N 413.868 0.0150385 -1.57593 0
M  V30 4241 C 415.284 0.370907 -1.5523 0
M  V30 4242 C 415.484 1.75735 -0.985882 0
M  V30 4243 O 414.54 2.44944 -0.613077 0
M  V30 4244 C 415.853 0.259908 -2.99575 0
M  V30 4245 C 417.401 0.335959 -3.11192 0
M  V30 4246 C 417.876 0.254253 -4.57294 0
M  V30 4247 N 419.367 0.312618 -4.62144 0
M  V30 4248 C 420.102 0.272505 -5.72752 0
M  V30 4249 N 419.598 0.183864 -6.92556 0
M  V30 4250 N 421.391 0.323267 -5.6117 0
M  V30 4251 H 413.542 -0.892104 -1.92757 0
M  V30 4252 H 415.805 -0.340563 -0.884715 0
M  V30 4253 H 415.511 -0.693403 -3.44797 0
M  V30 4254 H 415.385 1.048 -3.62349 0
M  V30 4255 H 417.772 1.27971 -2.65909 0
M  V30 4256 H 417.853 -0.481739 -2.51223 0
M  V30 4257 H 417.497 -0.685887 -5.03247 0
M  V30 4258 H 417.427 1.09024 -5.15191 0
M  V30 4259 H 419.918 0.38307 -3.75953 0
M  V30 4260 H 420.231 0.15874 -7.72637 0
M  V30 4261 H 418.576 0.149708 -6.94839 0
M  V30 4262 H 421.767 0.390607 -4.66467 0
M  V30 4263 H 421.94 0.288539 -6.47357 0
M  V30 4264 N 415.346 1.54954 0.287554 0
M  V30 4265 C 416.276 1.89839 1.35954 0
M  V30 4266 C 417.257 0.758675 1.52244 0
M  V30 4267 O 418.442 1.01557 1.65529 0
M  V30 4268 C 415.572 2.15753 2.72154 0
M  V30 4269 C 414.526 3.3159 2.70614 0
M  V30 4270 C 413.852 3.42952 4.10229 0
M  V30 4271 C 415.152 4.68359 2.31165 0
M  V30 4272 H 416.846 2.79625 1.07007 0
M  V30 4273 H 414.392 1.3454 0.513316 0
M  V30 4274 H 416.345 2.38743 3.47246 0
M  V30 4275 H 415.069 1.22752 3.02654 0
M  V30 4276 H 413.728 3.08545 1.97979 0
M  V30 4277 H 413.376 2.47443 4.37928 0
M  V30 4278 H 413.076 4.20826 4.10097 0
M  V30 4279 H 414.6 3.68218 4.87081 0
M  V30 4280 H 416.014 4.9099 2.95976 0
M  V30 4281 H 414.411 5.49044 2.42221 0
M  V30 4282 H 415.481 4.68165 1.26291 0
M  V30 4283 N 416.824 -0.551391 1.4764 0
M  V30 4284 C 418.235 -1.13349 1.48354 0
M  V30 4285 C 418.586 -1.94709 0.241432 0
M  V30 4286 O 417.711 -2.06306 -0.653205 0
M  V30 4287 C 418.306 -2.0623 2.68802 0
M  V30 4288 C 416.865 -2.597 2.72457 0
M  V30 4289 C 416.012 -1.36201 2.41546 0
M  V30 4290 H 418.963 -0.337698 1.55065 0
M  V30 4291 H 418.984 -2.90196 2.46103 0
M  V30 4292 H 418.496 -1.46987 3.59188 0
M  V30 4293 H 416.597 -3.22724 1.86225 0
M  V30 4294 H 416.71 -3.00296 3.73308 0
M  V30 4295 H 415.074 -1.67068 1.9225 0
M  V30 4296 H 415.857 -0.787425 3.34147 0
M  V30 4297 N 418.302 -1.35869 -0.798587 0
M  V30 4298 C 419.55 -1.29332 -1.55298 0
M  V30 4299 C 419.871 0.129729 -1.94568 0
M  V30 4300 O 419.141 1.06796 -1.6423 0
M  V30 4301 H 417.721 -0.475737 -0.57592 0
M  V30 4302 H 420.383 -1.70062 -0.952093 0
M  V30 4303 H 419.479 -1.91458 -2.46476 0
M  V30 4304 N 419.78 1.02168 -1.19998 0
M  V30 4305 C 420.73 2.08969 -0.911921 0
M  V30 4306 C 421.714 1.60404 0.12621 0
M  V30 4307 O 422.906 1.76817 -0.0804706 0
M  V30 4308 C 420.035 3.402 -0.460277 0
M  V30 4309 C 419.121 3.9548 -1.53155 0
M  V30 4310 N 419.512 4.24332 -2.75275 0
M  V30 4311 C 417.81 4.23572 -1.39653 0
M  V30 4312 C 418.511 4.68834 -3.44339 0
M  V30 4313 N 417.487 4.70804 -2.71744 0
M  V30 4314 H 421.289 2.29178 -1.83997 0
M  V30 4315 H 418.803 1.20094 -1.09322 0
M  V30 4316 H 420.8 4.16235 -0.235337 0
M  V30 4317 H 419.46 3.21408 0.4612 0
M  V30 4318 H 420.471 4.13393 -3.11973 0
M  V30 4319 H 417.148 4.14005 -0.539067 0
M  V30 4320 H 418.538 5.00019 -4.4881 0
M  V30 4321 N 421.258 1.00505 1.21394 0
M  V30 4322 C 422.486 0.706609 1.9446 0
M  V30 4323 C 422.901 -0.73081 1.74082 0
M  V30 4324 O 422.258 -1.49446 1.04747 0
M  V30 4325 C 422.309 1.01824 3.46863 0
M  V30 4326 O 422.03 2.39919 3.66566 0
M  V30 4327 C 423.531 0.739216 4.37093 0
M  V30 4328 H 420.751 0.260394 0.618414 0
M  V30 4329 H 423.295 1.34311 1.54211 0
M  V30 4330 H 421.45 0.427343 3.85036 0
M  V30 4331 H 421.864 2.50784 4.6066 0
M  V30 4332 H 423.338 1.00744 5.42729 0
M  V30 4333 H 423.815 -0.326746 4.37983 0
M  V30 4334 H 424.421 1.31173 4.04566 0
M  V30 4335 N 422.737 -1.36956 0.779787 0
M  V30 4336 C 423.669 -2.28833 0.129639 0
M  V30 4337 C 424.682 -1.4902 -0.655511 0
M  V30 4338 O 425.871 -1.71578 -0.492279 0
M  V30 4339 C 422.971 -3.2833 -0.839792 0
M  V30 4340 C 422.144 -4.3727 -0.10675 0
M  V30 4341 C 421.203 -5.16789 -0.990717 0
M  V30 4342 O 420.229 -5.67406 -0.451516 0
M  V30 4343 N 421.431 -5.32294 -2.3161 0
M  V30 4344 H 424.196 -2.85268 0.918803 0
M  V30 4345 H 421.757 -1.49019 0.632841 0
M  V30 4346 H 423.749 -3.78413 -1.43477 0
M  V30 4347 H 422.319 -2.72605 -1.52988 0
M  V30 4348 H 421.539 -3.88478 0.669216 0
M  V30 4349 H 422.827 -5.07229 0.399464 0
M  V30 4350 H 422.225 -4.92768 -2.77843 0
M  V30 4351 H 420.782 -5.85656 -2.86095 0
M  V30 4352 N 424.215 -0.530993 -1.48385 0
M  V30 4353 C 425.492 0.0671788 -1.95485 0
M  V30 4354 C 425.872 1.51191 -1.47324 0
M  V30 4355 O 425.22 2.17507 -0.700202 0
M  V30 4356 C 425.43 -0.0511206 -3.48963 0
M  V30 4357 C 426.778 0.107632 -4.24464 0
M  V30 4358 O 427.802 0.0226248 -3.56193 0
M  V30 4359 O 426.661 0.285972 -5.45751 0
M  V30 4360 H 423.755 0.0787365 -0.823243 0
M  V30 4361 H 426.301 -0.595662 -1.58902 0
M  V30 4362 H 425.073 -1.05747 -3.7674 0
M  V30 4363 H 424.696 0.650525 -3.92242 0
M  V30 4364 N 425.693 1.55336 -0.266172 0
M  V30 4365 C 426.921 2.03801 0.356756 0
M  V30 4366 C 427.336 1.14485 1.50129 0
M  V30 4367 O 426.693 0.163121 1.8177 0
M  V30 4368 C 426.744 3.51455 0.846281 0
M  V30 4369 O 426.465 4.37371 -0.252663 0
M  V30 4370 C 427.966 4.15767 1.53794 0
M  V30 4371 H 425.186 0.665906 0.0825218 0
M  V30 4372 H 427.73 2.00636 -0.39566 0
M  V30 4373 H 425.885 3.55092 1.54881 0
M  V30 4374 H 426.299 5.24358 0.122173 0
M  V30 4375 H 427.773 5.20714 1.83198 0
M  V30 4376 H 428.25 3.63404 2.46646 0
M  V30 4377 H 428.856 4.16107 0.879488 0
M  V30 4378 N 427.171 -0.0066808 1.57599 0
M  V30 4379 C 428.101 -0.999296 2.11036 0
M  V30 4380 C 429.082 -1.36278 1.01795 0
M  V30 4381 O 430.267 -1.4477 1.29442 0
M  V30 4382 C 427.397 -2.29328 2.60818 0
M  V30 4383 C 426.351 -2.07159 3.74525 0
M  V30 4384 C 425.677 -3.42512 4.10596 0
M  V30 4385 C 426.977 -1.43959 5.02069 0
M  V30 4386 H 428.671 -0.554382 2.94223 0
M  V30 4387 H 426.217 -0.265221 1.41536 0
M  V30 4388 H 428.17 -2.99117 2.96828 0
M  V30 4389 H 426.894 -2.7592 1.74745 0
M  V30 4390 H 425.553 -1.39797 3.38899 0
M  V30 4391 H 425.201 -3.86795 3.21556 0
M  V30 4392 H 424.901 -3.28498 4.87199 0
M  V30 4393 H 426.425 -4.13628 4.4916 0
M  V30 4394 H 427.839 -2.03696 5.35893 0
M  V30 4395 H 426.236 -1.40452 5.83432 0
M  V30 4396 H 427.306 -0.407992 4.83181 0
M  V30 4397 N 428.649 -1.55105 -0.279332 0
M  V30 4398 C 429.895 -1.75672 -1.01327 0
M  V30 4399 C 430.228 -0.552739 -1.86168 0
M  V30 4400 O 429.503 0.449827 -1.89227 0
M  V30 4401 C 429.786 -3.05825 -1.90114 0
M  V30 4402 C 429.639 -4.36565 -1.08309 0
M  V30 4403 C 430.958 -3.31975 -2.8893 0
M  V30 4404 H 428.077 -0.639149 -0.366957 0
M  V30 4405 H 430.719 -1.87833 -0.286154 0
M  V30 4406 H 428.869 -2.95588 -2.52111 0
M  V30 4407 H 430.541 -4.58751 -0.484314 0
M  V30 4408 H 428.784 -4.32076 -0.386362 0
M  V30 4409 H 429.455 -5.23946 -1.73737 0
M  V30 4410 H 431.931 -3.41963 -2.37067 0
M  V30 4411 H 430.807 -4.2432 -3.48201 0
M  V30 4412 H 431.068 -2.51309 -3.63725 0
M  V30 4413 N 430.127 0.543554 -1.4793 0
M  V30 4414 C 431.09 1.63156 -1.60975 0
M  V30 4415 C 432.09 1.53346 -0.483899 0
M  V30 4416 O 433.28 1.5726 -0.749339 0
M  V30 4417 C 430.412 3.02743 -1.56716 0
M  V30 4418 H 431.605 1.52934 -2.57975 0
M  V30 4419 H 429.158 0.764557 -1.36324 0
M  V30 4420 H 429.893 3.18484 -0.611418 0
M  V30 4421 H 429.678 3.11272 -2.38438 0
M  V30 4422 H 431.168 3.81871 -1.6901 0
M  V30 4423 N 431.605 1.3629 0.791371 0
M  V30 4424 C 432.537 1.26321 1.91248 0
M  V30 4425 C 433.55 0.18313 1.61767 0
M  V30 4426 O 434.739 0.437682 1.73051 0
M  V30 4427 C 431.839 0.925901 3.26007 0
M  V30 4428 C 431.012 2.10746 3.83281 0
M  V30 4429 C 430.071 1.74352 4.96475 0
M  V30 4430 O 429.097 2.46416 5.13096 0
M  V30 4431 N 430.299 0.676058 5.7655 0
M  V30 4432 H 433.064 2.22915 2.00323 0
M  V30 4433 H 430.625 1.29659 0.969546 0
M  V30 4434 H 432.617 0.663636 3.99222 0
M  V30 4435 H 431.187 0.0491581 3.12561 0
M  V30 4436 H 430.407 2.53264 3.02077 0
M  V30 4437 H 431.695 2.8969 4.18279 0
M  V30 4438 H 431.093 0.0776467 5.65647 0
M  V30 4439 H 429.65 0.473612 6.50077 0
M  V30 4440 N 433.083 -1.0153 1.20538 0
M  V30 4441 C 434.031 -2.12215 0.952235 0
M  V30 4442 C 435.025 -1.69123 -0.0968735 0
M  V30 4443 O 436.231 -1.7992 0.0536006 0
M  V30 4444 H 432.606 -0.693576 0.290613 0
M  V30 4445 H 434.577 -2.3075 1.89201 0
M  V30 4446 C 433.326 -3.43755 0.522287 0
M  V30 4447 H 432.649 -3.7734 1.32115 0
M  V30 4448 H 434.089 -4.22254 0.384389 0
M  V30 4449 C 432.548 -3.28088 -0.765489 0
M  V30 4450 O 433.078 -3.57921 -1.8236 0
M  V30 4451 N 431.284 -2.81333 -0.728011 0
M  V30 4452 H 430.831 -2.57255 0.133332 0
M  V30 4453 H 430.789 -2.71232 -1.58999 0
M  V30 4454 N 434.561 -1.01147 -1.20859 0
M  V30 4455 C 435.786 -0.716698 -1.94623 0
M  V30 4456 C 436.211 0.715415 -1.73964 0
M  V30 4457 O 435.569 1.49157 -1.03062 0
M  V30 4458 C 435.617 -1.0513 -3.44935 0
M  V30 4459 O 434.721 -0.160131 -4.12089 0
M  V30 4460 H 434.062 -0.266404 -0.608214 0
M  V30 4461 H 436.592 -1.35346 -1.53436 0
M  V30 4462 H 436.602 -1.00086 -3.95533 0
M  V30 4463 H 435.277 -2.09475 -3.59295 0
M  V30 4464 H 433.854 -0.267657 -3.71938 0
M  V30 4465 N 436.039 1.36541 -0.78704 0
M  V30 4466 C 437.264 2.0409 -0.369053 0
M  V30 4467 C 437.689 1.58957 1.00569 0
M  V30 4468 O 437.047 0.756926 1.64743 0
M  V30 4469 C 437.095 3.57924 -0.438466 0
M  V30 4470 O 436.199 4.08642 0.555479 0
M  V30 4471 H 435.54 0.645142 -0.157122 0
M  V30 4472 H 438.07 1.74545 -1.06749 0
M  V30 4473 H 438.08 4.06887 -0.301218 0
M  V30 4474 H 436.755 3.90127 -1.44132 0
M  V30 4475 H 435.332 3.70958 0.380088 0
M  V30 4476 N 437.518 0.538854 1.48102 0
M  V30 4477 C 438.767 0.0059532 2.01699 0
M  V30 4478 C 439.08 -1.34476 1.42041 0
M  V30 4479 O 440.286 -1.96653 1.87189 0
M  V30 4480 C 438.742 -0.0397627 3.59878 0
M  V30 4481 C 438.35 1.30659 4.28523 0
M  V30 4482 C 440.094 -0.521024 4.2129 0
M  V30 4483 C 438.001 1.22098 5.78659 0
M  V30 4484 H 436.931 -0.00154456 0.753998 0
M  V30 4485 H 439.582 0.683963 1.70277 0
M  V30 4486 H 437.964 -0.783037 3.88181 0
M  V30 4487 H 439.138 2.06613 4.11883 0
M  V30 4488 H 437.453 1.7243 3.79021 0
M  V30 4489 H 440.05 -0.603184 5.31287 0
M  V30 4490 H 440.393 -1.52885 3.8721 0
M  V30 4491 H 440.926 0.166834 3.9745 0
M  V30 4492 H 437.665 2.20424 6.17328 0
M  V30 4493 H 437.185 0.50295 5.97688 0
M  V30 4494 H 438.864 0.915345 6.40492 0
M  V30 4495 N 438.996 -1.55193 0.274407 0
M  V30 4496 C 439.929 -2.18606 -0.654712 0
M  V30 4497 C 440.907 -1.14677 -1.15273 0
M  V30 4498 O 442.091 -1.43198 -1.22583 0
M  V30 4499 C 439.218 -2.80875 -1.89281 0
M  V30 4500 C 438.264 -3.981 -1.53032 0
M  V30 4501 S 439.097 -5.32025 -0.609107 0
M  V30 4502 C 440.253 -5.97761 -1.85559 0
M  V30 4503 H 440.486 -2.97074 -0.115894 0
M  V30 4504 H 438.019 -1.54288 0.05867 0
M  V30 4505 H 439.977 -3.17381 -2.60345 0
M  V30 4506 H 438.638 -2.02302 -2.40277 0
M  V30 4507 H 437.831 -4.40356 -2.45158 0
M  V30 4508 H 437.433 -3.63013 -0.899874 0
M  V30 4509 H 439.725 -6.16951 -2.7996 0
M  V30 4510 H 440.668 -6.92545 -1.47605 0
M  V30 4511 H 441.076 -5.27113 -2.02021 0
M  V30 4512 N 440.474 -0.00167713 -1.576 0
M  V30 4513 C 441.885 0.54091 -1.78693 0
M  V30 4514 C 442.236 1.7386 -0.909247 0
M  V30 4515 O 441.361 2.16109 -0.112176 0
M  V30 4516 C 441.956 0.98806 -3.24072 0
M  V30 4517 C 440.515 1.47594 -3.46256 0
M  V30 4518 C 439.662 0.42792 -2.73978 0
M  V30 4519 H 442.613 -0.22784 -1.57056 0
M  V30 4520 H 442.634 1.85398 -3.32277 0
M  V30 4521 H 442.146 0.116164 -3.87926 0
M  V30 4522 H 440.247 2.36868 -2.87618 0
M  V30 4523 H 440.36 1.50225 -4.54939 0
M  V30 4524 H 438.724 0.889934 -2.38647 0
M  V30 4525 H 439.507 -0.435038 -3.40532 0
M  V30 4526 N 441.952 1.55251 0.271103 0
M  V30 4527 C 442.862 1.9136 1.35714 0
M  V30 4528 C 443.878 0.811075 1.5394 0
M  V30 4529 O 445.054 1.11031 1.6803 0
M  V30 4530 C 442.119 2.1798 2.69603 0
M  V30 4531 C 441.18 3.4153 2.60107 0
M  V30 4532 C 440.413 3.66871 3.8761 0
M  V30 4533 O 440.636 2.94689 4.8838 0
M  V30 4534 O 439.57 4.60405 3.87699 0
M  V30 4535 H 443.396 2.83815 1.08088 0
M  V30 4536 H 440.981 1.41821 0.469792 0
M  V30 4537 H 442.863 2.36518 3.48765 0
M  V30 4538 H 441.538 1.28708 2.97012 0
M  V30 4539 H 440.445 3.28325 1.79314 0
M  V30 4540 H 441.778 4.31027 2.37647 0
M  V30 4541 N 443.43 -0.535701 1.48216 0
M  V30 4542 C 444.841 -1.11769 1.49548 0
M  V30 4543 C 445.192 -1.94442 0.26207 0
M  V30 4544 O 444.317 -2.06987 -0.631287 0
M  V30 4545 C 444.912 -2.03367 2.70975 0
M  V30 4546 C 443.471 -2.56795 2.75196 0
M  V30 4547 C 442.618 -1.33631 2.42977 0
M  V30 4548 H 445.569 -0.321232 1.55415 0
M  V30 4549 H 445.59 -2.87569 2.49167 0
M  V30 4550 H 445.102 -1.43169 3.60727 0
M  V30 4551 H 443.203 -3.20731 1.89638 0
M  V30 4552 H 443.316 -2.9632 3.76472 0
M  V30 4553 H 441.68 -1.6502 1.94012 0
M  V30 4554 H 442.463 -0.75194 3.34964 0
M  V30 4555 N 444.908 -1.36708 -0.784132 0
M  V30 4556 C 445.818 -1.3363 -1.92822 0
M  V30 4557 C 446.834 -0.237686 -1.72369 0
M  V30 4558 O 448.01 -0.470962 -1.95816 0
M  V30 4559 C 445.075 -1.13011 -3.27764 0
M  V30 4560 C 444.136 -2.32397 -3.60957 0
M  V30 4561 C 443.369 -2.12752 -4.89461 0
M  V30 4562 O 443.592 -1.10541 -5.59586 0
M  V30 4563 O 442.526 -3.00653 -5.21432 0
M  V30 4564 H 446.352 -2.29964 -1.98369 0
M  V30 4565 H 443.937 -1.1731 -0.925136 0
M  V30 4566 H 445.819 -1.03451 -4.08504 0
M  V30 4567 H 444.494 -0.19743 -3.23097 0
M  V30 4568 H 443.401 -2.47527 -2.80502 0
M  V30 4569 H 444.734 -3.2419 -3.70354 0
M  V30 4570 N 446.386 1.0089 -1.21074 0
M  V30 4571 C 447.336 2.0799 -0.934034 0
M  V30 4572 C 448.32 1.60529 0.10919 0
M  V30 4573 O 449.512 1.76722 -0.0992198 0
M  V30 4574 C 446.641 3.39693 -0.496334 0
M  V30 4575 C 445.727 3.93833 -1.57341 0
M  V30 4576 N 446.118 4.21388 -2.7976 0
M  V30 4577 C 444.416 4.22067 -1.44137 0
M  V30 4578 C 445.117 4.65156 -3.49292 0
M  V30 4579 N 444.093 4.67895 -2.76722 0
M  V30 4580 H 447.895 2.27213 -1.86417 0
M  V30 4581 H 445.409 1.18927 -1.10589 0
M  V30 4582 H 447.406 4.15962 -0.279471 0
M  V30 4583 H 446.066 3.21879 0.427084 0
M  V30 4584 H 447.077 4.10061 -3.1634 0
M  V30 4585 H 443.754 4.1341 -0.582947 0
M  V30 4586 H 445.144 4.95231 -4.54088 0
M  V30 4587 N 447.864 1.01787 1.20321 0
M  V30 4588 C 449.11 0.708985 1.90003 0
M  V30 4589 C 449.443 -0.759572 1.78729 0
M  V30 4590 O 448.718 -1.55198 1.17234 0
M  V30 4591 C 449.001 1.1469 3.41348 0
M  V30 4592 C 448.854 2.67586 3.61549 0
M  V30 4593 C 450.173 0.71915 4.34185 0
M  V30 4594 H 447.292 0.259034 0.689978 0
M  V30 4595 H 449.934 1.26584 1.41692 0
M  V30 4596 H 448.084 0.673128 3.82624 0
M  V30 4597 H 449.756 3.22826 3.29517 0
M  V30 4598 H 447.999 3.085 3.04976 0
M  V30 4599 H 448.67 2.93281 4.67643 0
M  V30 4600 H 451.146 1.12647 4.00562 0
M  V30 4601 H 450.022 1.05358 5.38694 0
M  V30 4602 H 450.283 -0.379111 4.40472 0
M  V30 4603 N 449.342 -1.36122 0.79427 0
M  V30 4604 C 450.591 -1.98361 0.365464 0
M  V30 4605 C 450.904 -1.6374 -1.06997 0
M  V30 4606 O 452.11 -2.19251 -1.60129 0
M  V30 4607 C 450.566 -3.54821 0.602496 0
M  V30 4608 C 450.174 -3.98362 2.04967 0
M  V30 4609 C 451.918 -4.2383 0.238437 0
M  V30 4610 C 449.825 -5.47619 2.2331 0
M  V30 4611 H 448.755 -0.742193 0.13291 0
M  V30 4612 H 451.406 -1.55354 0.976589 0
M  V30 4613 H 449.788 -3.95922 -0.078409 0
M  V30 4614 H 450.962 -3.68447 2.76737 0
M  V30 4615 H 449.277 -3.42206 2.37243 0
M  V30 4616 H 451.874 -5.33529 0.353705 0
M  V30 4617 H 452.217 -4.08264 -0.814006 0
M  V30 4618 H 452.75 -3.88108 0.872769 0
M  V30 4619 H 449.489 -5.68138 3.26955 0
M  V30 4620 H 449.009 -5.79145 1.5605 0
M  V30 4621 H 450.688 -6.13911 2.0426 0
M  V30 4622 N 450.82 -0.546701 -1.47814 0
M  V30 4623 C 452.066 -0.0187684 -2.02791 0
M  V30 4624 C 452.399 1.32338 -1.42128 0
M  V30 4625 O 451.674 1.85867 -0.573023 0
M  V30 4626 C 451.957 0.0854985 -3.59998 0
M  V30 4627 C 451.81 -1.283 -4.31114 0
M  V30 4628 C 453.129 0.80412 -4.32691 0
M  V30 4629 H 450.248 -0.0082946 -0.736953 0
M  V30 4630 H 452.89 -0.706962 -1.76358 0
M  V30 4631 H 451.04 0.671609 -3.82651 0
M  V30 4632 H 452.712 -1.91151 -4.19832 0
M  V30 4633 H 450.955 -1.86049 -3.91878 0
M  V30 4634 H 451.626 -1.16287 -5.39612 0
M  V30 4635 H 454.102 0.306576 -4.14969 0
M  V30 4636 H 452.978 0.846011 -5.42341 0
M  V30 4637 H 453.239 1.85802 -4.01161 0
M  V30 4638 N 452.299 1.55045 -0.282633 0
M  V30 4639 C 453.262 2.21515 0.588539 0
M  V30 4640 C 454.262 1.19535 1.07554 0
M  V30 4641 O 455.452 1.44391 0.974514 0
M  V30 4642 C 452.584 2.88704 1.8128 0
M  V30 4643 H 453.777 2.99899 0.00806397 0
M  V30 4644 H 451.33 1.56265 -0.0333067 0
M  V30 4645 H 452.065 2.14352 2.43359 0
M  V30 4646 H 451.85 3.63443 1.47144 0
M  V30 4647 H 453.34 3.39465 2.43214 0
M  V30 4648 N 453.777 0.010035 1.57597 0
M  V30 4649 C 455.017 -0.677084 1.9286 0
M  V30 4650 C 455.381 -1.70377 0.885192 0
M  V30 4651 O 456.582 -2.44199 1.12339 0
M  V30 4652 C 454.853 -1.29452 3.33132 0
M  V30 4653 S 456.412 -2.00537 3.90295 0
M  V30 4654 H 453.23 -0.223409 0.674989 0
M  V30 4655 H 455.832 0.0691289 1.95378 0
M  V30 4656 H 454.536 -0.534593 4.06903 0
M  V30 4657 H 454.067 -2.07845 3.34012 0
M  V30 4658 H 456.082 -3.28168 3.72183 0
M  V30 4659 N 455.255 -1.55392 -0.262866 0
M  V30 4660 C 456.495 -1.78231 -1.00064 0
M  V30 4661 C 456.859 -0.576966 -1.83126 0
M  V30 4662 O 458.06 -0.683809 -2.59957 0
M  V30 4663 C 456.331 -3.05701 -1.85153 0
M  V30 4664 S 457.89 -3.49699 -2.65058 0
M  V30 4665 H 454.708 -0.626138 -0.336856 0
M  V30 4666 H 457.31 -1.93626 -0.27005 0
M  V30 4667 H 456.014 -3.91511 -1.23074 0
M  V30 4668 H 455.545 -2.93 -2.62515 0
M  V30 4669 H 457.56 -3.09772 -3.87629 0
M  V30 4670 N 456.733 0.527833 -1.48498 0
M  V30 4671 C 457.681 1.65313 -1.63628 0
M  V30 4672 C 458.675 1.6177 -0.502676 0
M  V30 4673 O 459.881 1.66601 -0.681469 0
M  V30 4674 H 456.256 0.547518 -0.515488 0
M  V30 4675 H 458.227 1.49696 -2.58135 0
M  V30 4676 C 456.976 3.03576 -1.6952 0
M  V30 4677 H 456.299 3.06997 -2.56111 0
M  V30 4678 H 457.739 3.81923 -1.84149 0
M  V30 4679 C 456.198 3.34089 -0.43432 0
M  V30 4680 O 456.728 3.99151 0.451852 0
M  V30 4681 N 454.934 2.88991 -0.305368 0
M  V30 4682 H 454.481 2.36222 -1.02747 0
M  V30 4683 H 454.439 3.09776 0.537249 0
M  V30 4684 N 458.211 1.37122 0.776871 0
M  V30 4685 C 459.143 1.28342 1.89897 0
M  V30 4686 C 460.156 0.200277 1.61563 0
M  V30 4687 O 461.345 0.456012 1.72577 0
M  V30 4688 C 458.445 0.960427 3.25006 0
M  V30 4689 C 457.618 2.148 3.81025 0
M  V30 4690 C 456.677 1.79608 4.94598 0
M  V30 4691 O 455.703 2.51845 5.10454 0
M  V30 4692 N 456.905 0.737171 5.758 0
M  V30 4693 H 459.67 2.25027 1.97947 0
M  V30 4694 H 457.231 1.3068 0.955739 0
M  V30 4695 H 459.223 0.705942 3.98495 0
M  V30 4696 H 457.793 0.0823066 3.12492 0
M  V30 4697 H 457.013 2.56454 2.99374 0
M  V30 4698 H 458.301 2.9411 4.15183 0
M  V30 4699 H 457.699 0.137637 5.65533 0
M  V30 4700 H 456.256 0.542534 6.49538 0
M  V30 4701 N 459.689 -1.00246 1.21608 0
M  V30 4702 C 460.936 -1.74061 1.03485 0
M  V30 4703 C 461.264 -1.89658 -0.431308 0
M  V30 4704 O 460.519 -1.42976 -1.33627 0
M  V30 4705 C 460.818 -3.15448 1.68009 0
M  V30 4706 C 460.484 -3.19792 3.17874 0
M  V30 4707 C 459.146 -3.20685 3.58768 0
M  V30 4708 C 461.498 -3.16835 4.13842 0
M  V30 4709 C 458.826 -3.16309 4.94131 0
M  V30 4710 C 461.178 -3.14001 5.49169 0
M  V30 4711 C 459.842 -3.13204 5.89457 0
M  V30 4712 H 459.112 -0.636934 0.378677 0
M  V30 4713 H 461.759 -1.17473 1.51236 0
M  V30 4714 H 460.064 -3.75284 1.12557 0
M  V30 4715 H 461.761 -3.71285 1.51487 0
M  V30 4716 H 458.351 -3.19842 2.85305 0
M  V30 4717 H 462.535 -3.15303 3.83272 0
M  V30 4718 H 457.791 -3.14032 5.24589 0
M  V30 4719 H 461.965 -3.10667 6.23265 0
M  V30 4720 H 459.592 -3.09568 6.94314 0
M  V30 4721 N 461.167 -1.02423 -1.1978 0
M  V30 4722 C 462.414 -0.717988 -1.89344 0
M  V30 4723 C 462.742 0.753036 -1.79331 0
M  V30 4724 O 461.997 1.56355 -1.17692 0
M  V30 4725 C 462.296 -1.1088 -3.39765 0
M  V30 4726 C 461.962 -2.57731 -3.6998 0
M  V30 4727 C 460.624 -2.97854 -3.77937 0
M  V30 4728 C 462.976 -3.52763 -3.83677 0
M  V30 4729 C 460.304 -4.31931 -3.97054 0
M  V30 4730 C 462.656 -4.86538 -4.04306 0
M  V30 4731 C 461.32 -5.26356 -4.10494 0
M  V30 4732 H 460.59 -0.26273 -0.692859 0
M  V30 4733 H 463.237 -1.28623 -1.41875 0
M  V30 4734 H 461.542 -0.459094 -3.89101 0
M  V30 4735 H 463.239 -0.849432 -3.919 0
M  V30 4736 H 459.829 -2.25646 -3.64393 0
M  V30 4737 H 464.013 -3.2292 -3.76877 0
M  V30 4738 H 459.269 -4.62324 -4.00083 0
M  V30 4739 H 463.443 -5.60093 -4.13846 0
M  V30 4740 H 461.07 -6.3026 -4.2506 0
M  V30 4741 N 462.645 1.35699 -0.801477 0
M  V30 4742 C 463.891 1.99208 -0.380022 0
M  V30 4743 C 464.224 1.63445 1.04878 0
M  V30 4744 O 463.499 0.895223 1.72673 0
M  V30 4745 C 463.782 3.55755 -0.557708 0
M  V30 4746 C 463.635 4.01332 -2.03107 0
M  V30 4747 C 464.954 4.40096 0.0197968 0
M  V30 4748 H 462.073 0.723667 -0.139552 0
M  V30 4749 H 464.715 1.60928 -1.01006 0
M  V30 4750 H 462.865 3.88494 -0.0213741 0
M  V30 4751 H 464.537 3.79026 -2.62939 0
M  V30 4752 H 462.78 3.52429 -2.52936 0
M  V30 4753 H 463.451 5.10234 -2.1063 0
M  V30 4754 H 465.927 4.13786 -0.438179 0
M  V30 4755 H 464.803 5.48735 -0.134477 0
M  V30 4756 H 465.064 4.2786 1.11303 0
M  V30 4757 N 464.123 0.554532 1.47522 0
M  V30 4758 C 465.053 -0.182974 2.32782 0
M  V30 4759 C 466.034 -0.911377 1.43624 0
M  V30 4760 O 467.219 -0.892366 1.72483 0
M  V30 4761 C 464.349 -1.21513 3.25349 0
M  V30 4762 C 463.303 -0.603355 4.23726 0
M  V30 4763 C 462.629 -1.73995 5.05598 0
M  V30 4764 C 463.929 0.441121 5.20434 0
M  V30 4765 H 465.623 0.52882 2.94693 0
M  V30 4766 H 463.169 0.255759 1.41711 0
M  V30 4767 H 465.122 -1.73922 3.83835 0
M  V30 4768 H 463.846 -1.95683 2.61487 0
M  V30 4769 H 462.505 -0.10059 3.66462 0
M  V30 4770 H 462.153 -2.47063 4.38143 0
M  V30 4771 H 461.853 -1.3364 5.72201 0
M  V30 4772 H 463.377 -2.26735 5.66942 0
M  V30 4773 H 464.791 0.00319931 5.733 0
M  V30 4774 H 463.188 0.763402 5.95224 0
M  V30 4775 H 464.258 1.33799 4.66075 0
M  V30 4776 N 465.601 -1.54893 0.290851 0
M  V30 4777 C 466.878 -1.91991 -0.373989 0
M  V30 4778 C 467.258 -1.21694 -1.72493 0
M  V30 4779 O 466.606 -0.34917 -2.25816 0
M  V30 4780 C 466.816 -3.45419 -0.498703 0
M  V30 4781 C 468.164 -4.1748 -0.774298 0
M  V30 4782 O 469.188 -3.51398 -0.582908 0
M  V30 4783 O 468.047 -5.3445 -1.14129 0
M  V30 4784 H 465.141 -0.800593 -0.207315 0
M  V30 4785 H 467.687 -1.66297 0.338164 0
M  V30 4786 H 466.459 -3.88688 0.451392 0
M  V30 4787 H 466.082 -3.77117 -1.25972 0
M  V30 4788 N 467.08 -0.0183926 -1.57589 0
M  V30 4789 C 468.326 0.663543 -1.91638 0
M  V30 4790 C 468.659 1.72392 -0.894134 0
M  V30 4791 O 467.934 1.94316 0.0846449 0
M  V30 4792 C 468.217 1.28984 -3.36207 0
M  V30 4793 C 468.07 0.239761 -4.49161 0
M  V30 4794 C 469.389 2.2109 -3.80536 0
M  V30 4795 H 466.508 0.239746 -0.696915 0
M  V30 4796 H 469.15 -0.073456 -1.89858 0
M  V30 4797 H 467.3 1.91799 -3.37854 0
M  V30 4798 H 468.972 -0.390119 -4.59647 0
M  V30 4799 H 467.215 -0.435972 -4.31604 0
M  V30 4800 H 467.886 0.717383 -5.47319 0
M  V30 4801 H 470.362 1.68273 -3.80557 0
M  V30 4802 H 469.238 2.61869 -4.82406 0
M  V30 4803 H 469.499 3.09764 -3.15434 0
M  V30 4804 N 468.558 1.5553 0.254621 0
M  V30 4805 C 469.804 1.77262 0.985193 0
M  V30 4806 C 470.137 0.582286 1.85265 0
M  V30 4807 O 469.412 -0.419666 1.89919 0
M  V30 4808 C 469.695 3.0881 1.85225 0
M  V30 4809 C 469.548 4.38233 1.0135 0
M  V30 4810 C 470.867 3.3653 2.83612 0
M  V30 4811 H 467.986 0.644906 0.356742 0
M  V30 4812 H 470.628 1.88264 0.256236 0
M  V30 4813 H 468.778 2.99562 2.47376 0
M  V30 4814 H 470.45 4.59463 0.411269 0
M  V30 4815 H 468.693 4.32636 0.317574 0
M  V30 4816 H 469.364 5.26644 1.65379 0
M  V30 4817 H 471.84 3.45691 2.31596 0
M  V30 4818 H 470.716 4.29805 3.41407 0
M  V30 4819 H 470.977 2.57064 3.59681 0
M  V30 4820 N 470.036 -0.519951 1.48776 0
M  V30 4821 C 471.285 -1.27175 1.56555 0
M  V30 4822 C 471.598 -1.9401 0.248869 0
M  V30 4823 O 472.804 -2.70725 0.205004 0
M  V30 4824 C 471.26 -2.30811 2.76142 0
M  V30 4825 C 470.868 -1.7 4.14493 0
M  V30 4826 C 472.612 -3.06937 2.9324 0
M  V30 4827 C 470.519 -2.71635 5.25327 0
M  V30 4828 H 469.449 -0.478329 0.582853 0
M  V30 4829 H 472.1 -0.547916 1.75129 0
M  V30 4830 H 470.482 -3.06274 2.51023 0
M  V30 4831 H 471.656 -1.00658 4.49672 0
M  V30 4832 H 469.971 -1.06331 4.02595 0
M  V30 4833 H 472.568 -3.82905 3.73213 0
M  V30 4834 H 472.911 -3.63409 2.03075 0
M  V30 4835 H 473.444 -2.38589 3.18308 0
M  V30 4836 H 470.183 -2.1997 6.1749 0
M  V30 4837 H 469.703 -3.39275 4.94624 0
M  V30 4838 H 471.382 -3.34429 5.53865 0
M  V30 4839 N 471.514 -1.37532 -0.769588 0
M  V30 4840 C 472.462 -1.33561 -1.90432 0
M  V30 4841 C 473.456 -0.224027 -1.67912 0
M  V30 4842 O 474.662 -0.392174 -1.75676 0
M  V30 4843 H 471.037 -0.416279 -0.626271 0
M  V30 4844 H 473.008 -2.29348 -1.90899 0
M  V30 4845 C 471.757 -1.16162 -3.27722 0
M  V30 4846 H 471.08 -2.00951 -3.45628 0
M  V30 4847 H 472.52 -1.17434 -4.07413 0
M  V30 4848 C 470.979 0.132583 -3.36639 0
M  V30 4849 O 471.509 1.11539 -3.85904 0
M  V30 4850 N 469.715 0.184013 -2.90017 0
M  V30 4851 H 469.262 -0.616415 -2.50116 0
M  V30 4852 H 469.22 1.04956 -2.96364 0
M  V30 4853 N 472.992 0.995999 -1.22138 0
M  V30 4854 C 474.239 1.7351 -1.04406 0
M  V30 4855 C 474.567 1.89884 0.421244 0
M  V30 4856 O 473.822 1.43683 1.32867 0
M  V30 4857 C 474.121 3.14553 -1.6968 0
M  V30 4858 C 473.787 3.18102 -3.19565 0
M  V30 4859 C 472.449 3.18778 -3.60464 0
M  V30 4860 C 474.801 3.14636 -4.15516 0
M  V30 4861 C 472.129 3.13684 -4.95801 0
M  V30 4862 C 474.481 3.11084 -5.50826 0
M  V30 4863 C 473.145 3.10074 -5.91109 0
M  V30 4864 H 472.415 0.634916 -0.38205 0
M  V30 4865 H 475.062 1.1667 -1.51857 0
M  V30 4866 H 473.367 3.74682 -1.14546 0
M  V30 4867 H 475.064 3.70477 -1.53454 0
M  V30 4868 H 471.654 3.18324 -2.86998 0
M  V30 4869 H 475.838 3.13266 -3.84939 0
M  V30 4870 H 471.094 3.11245 -5.26247 0
M  V30 4871 H 475.268 3.07357 -6.24904 0
M  V30 4872 H 472.895 3.05882 -6.95946 0
M  V30 4873 N 474.47 1.03057 1.19235 0
M  V30 4874 C 475.886 0.747947 1.40989 0
M  V30 4875 C 476.086 -0.666752 1.90149 0
M  V30 4876 O 475.142 -1.43249 2.07933 0
M  V30 4877 C 476.455 1.7855 2.41951 0
M  V30 4878 C 478.003 1.80524 2.55695 0
M  V30 4879 C 478.478 2.83243 3.59913 0
M  V30 4880 N 479.969 2.8207 3.67411 0
M  V30 4881 C 480.704 3.58204 4.47747 0
M  V30 4882 N 480.2 4.44057 5.31775 0
M  V30 4883 N 481.993 3.46738 4.42413 0
M  V30 4884 H 474.144 1.94367 0.856468 0
M  V30 4885 H 476.407 0.840412 0.438647 0
M  V30 4886 H 476.113 2.79973 2.12857 0
M  V30 4887 H 475.987 1.6092 3.41152 0
M  V30 4888 H 478.374 0.79778 2.84112 0
M  V30 4889 H 478.455 2.02229 1.56643 0
M  V30 4890 H 478.099 3.84161 3.32239 0
M  V30 4891 H 478.029 2.58795 4.5862 0
M  V30 4892 H 480.52 2.19803 3.074 0
M  V30 4893 H 480.833 4.98884 5.90199 0
M  V30 4894 H 479.178 4.48129 5.3123 0
M  V30 4895 H 482.369 2.79077 3.75811 0
M  V30 4896 H 482.542 4.06322 5.04783 0
M  V30 4897 N 475.948 -1.35272 0.808662 0
M  V30 4898 C 477.364 -1.51806 0.492653 0
M  V30 4899 C 477.564 -1.7574 -0.985778 0
M  V30 4900 O 476.62 -1.80003 -1.77074 0
M  V30 4901 C 477.933 -2.69202 1.33981 0
M  V30 4902 C 479.481 -2.8308 1.33547 0
M  V30 4903 C 479.956 -4.03502 2.16679 0
M  V30 4904 N 481.447 -4.10684 2.14227 0
M  V30 4905 C 482.182 -5.02984 2.75308 0
M  V30 4906 N 481.678 -6.00603 3.45323 0
M  V30 4907 N 483.471 -4.95746 2.64938 0
M  V30 4908 H 475.622 -1.17993 1.76611 0
M  V30 4909 H 477.885 -0.577476 0.751814 0
M  V30 4910 H 477.591 -2.581 2.38909 0
M  V30 4911 H 477.465 -3.63854 0.994491 0
M  V30 4912 H 479.852 -2.93631 0.294036 0
M  V30 4913 H 479.933 -1.89278 1.72068 0
M  V30 4914 H 479.577 -3.93711 3.20864 0
M  V30 4915 H 479.507 -4.96489 1.75517 0
M  V30 4916 H 481.998 -3.40802 1.63285 0
M  V30 4917 H 482.311 -6.67633 3.89212 0
M  V30 4918 H 480.656 -6.0077 3.49428 0
M  V30 4919 H 483.847 -4.18439 2.09825 0
M  V30 4920 H 484.02 -5.67487 3.12829 0
M  V30 4921 N 477.426 -0.562348 -1.47226 0
M  V30 4922 C 478.356 0.170627 -2.32876 0
M  V30 4923 C 479.337 0.903748 -1.44106 0
M  V30 4924 O 480.522 0.883206 -1.72954 0
M  V30 4925 C 477.652 1.19786 -3.25989 0
M  V30 4926 C 476.606 0.580875 -4.2404 0
M  V30 4927 C 475.932 1.71311 -5.06514 0
M  V30 4928 C 477.232 -0.468714 -5.20193 0
M  V30 4929 H 478.926 -0.544441 -2.94408 0
M  V30 4930 H 476.472 -0.263271 -1.41573 0
M  V30 4931 H 478.425 1.71884 -3.84752 0
M  V30 4932 H 477.149 1.94294 -2.62521 0
M  V30 4933 H 475.808 0.0811538 -3.6651 0
M  V30 4934 H 475.456 2.44736 -4.39447 0
M  V30 4935 H 475.156 1.30604 -5.72902 0
M  V30 4936 H 476.68 2.23725 -5.68137 0
M  V30 4937 H 478.094 -0.0336028 -5.7329 0
M  V30 4938 H 476.491 -0.794957 -5.94811 0
M  V30 4939 H 477.561 -1.36269 -4.65359 0
M  V30 4940 N 478.904 1.54736 -0.299062 0
M  V30 4941 C 480.129 2.04975 0.316254 0
M  V30 4942 C 480.554 1.17501 1.46885 0
M  V30 4943 O 479.912 0.178678 1.80417 0
M  V30 4944 C 479.96 3.52672 0.751997 0
M  V30 4945 O 479.064 3.68226 1.85697 0
M  V30 4946 H 478.405 0.661126 0.0617175 0
M  V30 4947 H 480.935 1.99805 -0.440341 0
M  V30 4948 H 480.945 3.94488 1.04133 0
M  V30 4949 H 479.62 4.158 -0.0911482 0
M  V30 4950 H 478.197 3.38316 1.56834 0
M  V30 4951 N 480.382 0.0267497 1.57577 0
M  V30 4952 C 481.292 -0.971633 2.13533 0
M  V30 4953 C 482.308 -1.35868 1.08701 0
M  V30 4954 O 483.484 -1.44058 1.40746 0
M  V30 4955 C 480.549 -2.23622 2.64941 0
M  V30 4956 C 479.61 -1.90982 3.8448 0
M  V30 4957 C 478.843 -3.11411 4.33427 0
M  V30 4958 O 479.066 -4.23992 3.81558 0
M  V30 4959 O 478 -2.93848 5.25297 0
M  V30 4960 H 481.826 -0.525853 2.99113 0
M  V30 4961 H 479.411 -0.193712 1.48139 0
M  V30 4962 H 481.293 -2.97864 2.98086 0
M  V30 4963 H 479.968 -2.67386 1.82446 0
M  V30 4964 H 478.875 -1.14132 3.56265 0
M  V30 4965 H 480.208 -1.52036 4.6813 0
M  V30 4966 N 481.861 -1.55662 -0.24637 0
M  V30 4967 C 483.109 -1.77168 -0.972411 0
M  V30 4968 C 483.43 -0.590827 -1.85834 0
M  V30 4969 O 482.7 0.393365 -1.9191 0
M  V30 4970 H 481.28 -0.653405 -0.362038 0
M  V30 4971 H 483.942 -1.93101 -0.264189 0
M  V30 4972 H 483.038 -2.68335 -1.59382 0
M  V30 4973 N 483.339 0.512053 -1.4905 0
M  V30 4974 C 484.616 1.27337 -1.48474 0
M  V30 4975 C 484.996 2.1009 -0.206301 0
M  V30 4976 O 484.344 2.136 0.811609 0
M  V30 4977 C 484.554 2.13954 -2.75726 0
M  V30 4978 C 485.902 2.73507 -3.24776 0
M  V30 4979 O 486.926 2.24229 -2.76767 0
M  V30 4980 O 485.785 3.63186 -4.08361 0
M  V30 4981 H 482.879 0.575652 -0.593762 0
M  V30 4982 H 485.425 0.527232 -1.61302 0
M  V30 4983 H 484.197 1.52709 -3.60272 0
M  V30 4984 H 483.82 2.95782 -2.65705 0
M  V30 4985 N 484.817 1.37938 0.762283 0
M  V30 4986 C 485.747 1.37176 1.88958 0
M  V30 4987 C 486.728 0.238945 1.68413 0
M  V30 4988 O 487.913 0.440726 1.89133 0
M  V30 4989 C 485.043 1.18742 3.2637 0
M  V30 4990 C 483.997 2.29136 3.61498 0
M  V30 4991 C 483.323 1.95816 4.97554 0
M  V30 4992 C 484.623 3.71363 3.6727 0
M  V30 4993 H 486.317 2.31509 1.89853 0
M  V30 4994 H 483.863 1.11438 0.912005 0
M  V30 4995 H 485.816 1.16837 4.04879 0
M  V30 4996 H 484.54 0.208683 3.25933 0
M  V30 4997 H 483.199 2.30213 2.85303 0
M  V30 4998 H 482.847 0.964475 4.93667 0
M  V30 4999 H 482.547 2.69745 5.22026 0
M  V30 5000 H 484.071 1.95513 5.78452 0
M  V30 5001 H 485.485 3.72364 4.35911 0
M  V30 5002 H 483.882 4.44425 4.03245 0
M  V30 5003 H 484.952 4.04305 2.67704 0
M  V30 5004 N 486.295 -0.989507 1.22664 0
M  V30 5005 C 487.542 -1.72953 1.05325 0
M  V30 5006 C 487.87 -1.90104 -0.411168 0
M  V30 5007 O 487.125 -1.44386 -1.32103 0
M  V30 5008 C 487.424 -3.13649 1.71345 0
M  V30 5009 C 487.09 -3.16403 3.21248 0
M  V30 5010 C 485.752 -3.16862 3.62149 0
M  V30 5011 C 488.104 -3.12428 4.17179 0
M  V30 5012 C 485.432 -3.11051 4.97458 0
M  V30 5013 C 487.784 -3.08159 5.52468 0
M  V30 5014 C 486.448 -3.06935 5.92746 0
M  V30 5015 H 485.718 -0.632881 0.385412 0
M  V30 5016 H 488.365 -1.15863 1.52473 0
M  V30 5017 H 486.67 -3.74069 1.16532 0
M  V30 5018 H 488.367 -3.69658 1.55416 0
M  V30 5019 H 484.957 -3.16798 2.88682 0
M  V30 5020 H 489.141 -3.11221 3.86595 0
M  V30 5021 H 484.397 -3.0845 5.27891 0
M  V30 5022 H 488.571 -3.04039 6.26525 0
M  V30 5023 H 486.198 -3.02186 6.97558 0
M  V30 5024 N 487.773 -1.03688 -1.18687 0
M  V30 5025 C 489.001 -0.757918 -1.92518 0
M  V30 5026 C 489.416 0.684398 -1.75959 0
M  V30 5027 O 488.773 1.46617 -1.08673 0
M  V30 5028 C 488.824 -1.10985 -3.44042 0
M  V30 5029 O 488.545 -2.49554 -3.60076 0
M  V30 5030 C 490.046 -0.854844 -4.3498 0
M  V30 5031 H 487.266 -0.276699 -0.611293 0
M  V30 5032 H 489.81 -1.38352 -1.50595 0
M  V30 5033 H 487.965 -0.529279 -3.83767 0
M  V30 5034 H 488.379 -2.6291 -4.53849 0
M  V30 5035 H 489.853 -1.15098 -5.39867 0
M  V30 5036 H 490.33 0.210507 -4.38695 0
M  V30 5037 H 490.936 -1.41853 -4.00946 0
M  V30 5038 N 489.251 1.34841 -0.815825 0
M  V30 5039 C 490.183 2.28409 -0.190265 0
M  V30 5040 C 491.196 1.50705 0.615771 0
M  V30 5041 O 492.385 1.72822 0.446616 0
M  V30 5042 C 489.485 3.30441 0.752446 0
M  V30 5043 C 488.658 4.37399 -0.00922152 0
M  V30 5044 C 487.717 5.19234 0.853351 0
M  V30 5045 O 486.743 5.68404 0.300919 0
M  V30 5046 N 487.945 5.38248 2.17416 0
M  V30 5047 H 490.71 2.82732 -0.994114 0
M  V30 5048 H 488.271 1.47289 -0.672129 0
M  V30 5049 H 490.263 3.82084 1.33394 0
M  V30 5050 H 488.833 2.76565 1.45707 0
M  V30 5051 H 488.053 3.86567 -0.771979 0
M  V30 5052 H 489.341 5.05992 -0.533807 0
M  V30 5053 H 488.739 4.99961 2.6468 0
M  V30 5054 H 487.296 5.93035 2.70467 0
M  V30 5055 N 490.729 0.570148 1.46925 0
M  V30 5056 C 491.659 -0.158274 2.32963 0
M  V30 5057 C 492.64 -0.896093 1.44583 0
M  V30 5058 O 493.825 -0.874022 1.7342 0
M  V30 5059 C 490.955 -1.18055 3.26619 0
M  V30 5060 C 489.909 -0.558379 4.24342 0
M  V30 5061 C 489.235 -1.68623 5.07415 0
M  V30 5062 C 490.535 0.496295 5.19937 0
M  V30 5063 H 492.229 0.560046 2.94115 0
M  V30 5064 H 489.775 0.270775 1.41431 0
M  V30 5065 H 491.728 -1.69841 3.85658 0
M  V30 5066 H 490.452 -1.92899 2.63548 0
M  V30 5067 H 489.111 -0.0617157 3.66548 0
M  V30 5068 H 488.759 -2.42402 4.40738 0
M  V30 5069 H 488.459 -1.27564 5.73586 0
M  V30 5070 H 489.983 -2.20709 5.69315 0
M  V30 5071 H 491.397 0.0640052 5.73264 0
M  V30 5072 H 489.794 0.82649 5.94381 0
M  V30 5073 H 490.864 1.38735 4.6463 0
M  V30 5074 N 492.207 -1.54576 0.307264 0
M  V30 5075 C 493.623 -1.59534 -0.0459251 0
M  V30 5076 C 493.823 -1.32414 -1.51884 0
M  V30 5077 O 492.879 -1.1006 -2.27251 0
M  V30 5078 C 494.192 -2.98566 0.357649 0
M  V30 5079 C 495.74 -3.11491 0.306937 0
M  V30 5080 C 496.215 -4.52842 0.685427 0
M  V30 5081 N 497.706 -4.58782 0.638203 0
M  V30 5082 C 498.441 -5.66238 0.903458 0
M  V30 5083 N 497.937 -6.81703 1.23501 0
M  V30 5084 N 499.73 -5.55937 0.830102 0
M  V30 5085 H 491.881 -1.70464 1.26712 0
M  V30 5086 H 494.144 -0.79647 0.514139 0
M  V30 5087 H 493.85 -3.23356 1.38325 0
M  V30 5088 H 493.724 -3.76117 -0.285565 0
M  V30 5089 H 496.111 -2.86446 -0.709424 0
M  V30 5090 H 496.192 -2.36081 0.984861 0
M  V30 5091 H 495.836 -4.78618 1.69963 0
M  V30 5092 H 495.766 -5.26598 -0.0146346 0
M  V30 5093 H 498.257 -3.75849 0.393138 0
M  V30 5094 H 498.57 -7.59582 1.42322 0
M  V30 5095 H 496.915 -6.8324 1.27311 0
M  V30 5096 H 500.106 -4.64608 0.570693 0
M  V30 5097 H 500.279 -6.39597 1.04019 0
M  V30 5098 N 493.685 -0.035106 -1.57561 0
M  V30 5099 C 494.632 0.94474 -2.10578 0
M  V30 5100 C 495.602 1.3192 -1.00927 0
M  V30 5101 O 496.787 1.41147 -1.28382 0
M  V30 5102 C 493.927 2.21982 -2.64231 0
M  V30 5103 C 493.04 1.90128 -3.87911 0
M  V30 5104 C 492.175 3.11975 -4.29936 0
M  V30 5105 C 491.214 2.75968 -5.46359 0
M  V30 5106 N 490.351 3.90459 -5.83512 0
M  V30 5107 H 495.191 0.485717 -2.94015 0
M  V30 5108 H 492.728 0.228143 -1.4532 0
M  V30 5109 H 494.686 2.96572 -2.9343 0
M  V30 5110 H 493.316 2.6549 -1.83616 0
M  V30 5111 H 492.368 1.05755 -3.65404 0
M  V30 5112 H 493.68 1.59613 -4.72573 0
M  V30 5113 H 492.834 3.9488 -4.60603 0
M  V30 5114 H 491.573 3.45657 -3.44053 0
M  V30 5115 H 490.578 1.91478 -5.1538 0
M  V30 5116 H 491.803 2.43497 -6.33945 0
M  V30 5117 H 489.749 4.23971 -5.00584 0
M  V30 5118 H 489.666 3.63588 -6.62827 0
M  V30 5119 H 490.934 4.7405 -6.18787 0
M  V30 5120 N 495.163 1.55791 0.238111 0
M  V30 5121 C 496.412 1.77234 0.962868 0
M  V30 5122 C 496.725 0.600661 1.86149 0
M  V30 5123 O 497.931 0.698315 2.62366 0
M  V30 5124 C 496.387 3.13808 1.76218 0
M  V30 5125 C 495.995 4.3865 0.910518 0
M  V30 5126 C 497.739 3.44585 2.47914 0
M  V30 5127 C 495.646 5.66252 1.70623 0
M  V30 5128 H 494.576 0.660731 0.36325 0
M  V30 5129 H 497.227 1.8221 0.217242 0
M  V30 5130 H 495.609 3.02963 2.55009 0
M  V30 5131 H 496.783 4.60507 0.164316 0
M  V30 5132 H 495.098 4.15271 0.30647 0
M  V30 5133 H 497.695 4.3714 3.07917 0
M  V30 5134 H 498.038 2.66314 3.19973 0
M  V30 5135 H 498.571 3.56685 1.76127 0
M  V30 5136 H 495.31 6.47369 1.02923 0
M  V30 5137 H 494.83 5.48483 2.42748 0
M  V30 5138 H 496.509 6.05829 2.27114 0
M  V30 5139 N 496.642 -0.504142 1.49319 0
M  V30 5140 C 497.888 -1.26033 1.58882 0
M  V30 5141 C 498.221 -1.92268 0.273274 0
M  V30 5142 O 497.496 -1.80567 -0.72291 0
M  V30 5143 C 497.779 -2.32976 2.7458 0
M  V30 5144 C 497.632 -1.71263 4.1592 0
M  V30 5145 C 498.951 -3.34561 2.85932 0
M  V30 5146 H 496.07 -0.456863 0.578312 0
M  V30 5147 H 498.712 -0.558965 1.81592 0
M  V30 5148 H 496.862 -2.92796 2.55348 0
M  V30 5149 H 498.534 -1.15294 4.4666 0
M  V30 5150 H 496.777 -1.01686 4.21714 0
M  V30 5151 H 497.448 -2.48816 4.92742 0
M  V30 5152 H 499.924 -2.84727 3.0343 0
M  V30 5153 H 498.8 -4.06754 3.68568 0
M  V30 5154 H 499.061 -3.96695 1.95154 0
M  V30 5155 N 498.12 -1.38341 -0.754957 0
M  V30 5156 C 499.067 -1.3546 -1.86867 0
M  V30 5157 C 500.037 -0.217369 -1.64672 0
M  V30 5158 O 501.222 -0.409383 -1.86356 0
M  V30 5159 C 498.362 -1.18413 -3.24149 0
M  V30 5160 C 497.475 -2.41511 -3.58185 0
M  V30 5161 C 496.61 -2.17205 -4.84763 0
M  V30 5162 C 495.649 -3.36081 -5.11582 0
M  V30 5163 N 494.786 -3.11219 -6.29354 0
M  V30 5164 H 499.626 -2.30672 -1.88664 0
M  V30 5165 H 497.163 -1.14607 -0.922154 0
M  V30 5166 H 499.121 -1.06545 -4.03366 0
M  V30 5167 H 497.751 -0.268397 -3.21682 0
M  V30 5168 H 496.803 -2.64056 -2.73822 0
M  V30 5169 H 498.115 -3.30115 -3.73932 0
M  V30 5170 H 497.269 -2.02465 -5.7192 0
M  V30 5171 H 496.008 -1.25964 -4.71152 0
M  V30 5172 H 495.013 -3.51341 -4.22894 0
M  V30 5173 H 496.238 -4.28196 -5.27091 0
M  V30 5174 H 494.184 -2.22624 -6.17069 0
M  V30 5175 H 494.101 -3.93373 -6.45596 0
M  V30 5176 H 495.369 -3.00132 -7.19403 0
M  V30 5177 N 499.598 0.982988 -1.23187 0
M  V30 5178 C 500.531 2.07302 -0.953993 0
M  V30 5179 C 501.509 1.62249 0.106753 0
M  V30 5180 O 502.693 1.88481 -0.0269525 0
M  V30 5181 C 499.82 3.35873 -0.436716 0
M  V30 5182 C 498.866 3.99862 -1.48367 0
M  V30 5183 S 499.699 4.39443 -3.06023 0
M  V30 5184 C 500.855 5.7117 -2.55959 0
M  V30 5185 H 501.088 2.30554 -1.87702 0
M  V30 5186 H 498.621 1.11883 -1.06403 0
M  V30 5187 H 500.579 4.10244 -0.144872 0
M  V30 5188 H 499.24 3.10634 0.465351 0
M  V30 5189 H 498.433 4.92471 -1.07182 0
M  V30 5190 H 498.035 3.31857 -1.72473 0
M  V30 5191 H 500.327 6.47977 -1.97818 0
M  V30 5192 H 501.27 6.17194 -3.47098 0
M  V30 5193 H 501.678 5.29046 -1.96902 0
M  V30 5194 N 501.076 1.04316 1.18135 0
M  V30 5195 C 502.039 0.640794 2.2006 0
M  V30 5196 C 503.039 -0.303124 1.57917 0
M  V30 5197 O 504.229 -0.0881855 1.73977 0
M  V30 5198 C 501.361 -0.060148 3.40847 0
M  V30 5199 H 502.554 1.54281 2.57172 0
M  V30 5200 H 500.107 0.836004 1.32063 0
M  V30 5201 H 500.842 -0.975845 3.0927 0
M  V30 5202 H 500.627 0.618319 3.87194 0
M  V30 5203 H 502.117 -0.328082 4.16309 0
M  V30 5204 N 502.554 -1.34406 0.822964 0
M  V30 5205 C 503.779 -2.0304 0.423034 0
M  V30 5206 C 504.204 -1.61568 -0.963196 0
M  V30 5207 O 503.562 -0.800339 -1.62678 0
M  V30 5208 C 503.61 -3.56636 0.53321 0
M  V30 5209 O 502.714 -4.09971 -0.446939 0
M  V30 5210 H 502.055 -0.64075 0.174171 0
M  V30 5211 H 504.585 -1.71653 1.11339 0
M  V30 5212 H 504.595 -4.05945 0.408991 0
M  V30 5213 H 503.27 -3.86168 1.54425 0
M  V30 5214 H 501.847 -3.71835 -0.281601 0
M  V30 5215 N 504.032 -0.577932 -1.46621 0
M  V30 5216 C 504.98 0.170882 -2.31971 0
M  V30 5217 C 505.974 0.889086 -1.44193 0
M  V30 5218 O 507.18 0.808017 -1.60845 0
M  V30 5219 H 503.555 0.0739763 -0.748353 0
M  V30 5220 H 505.526 -0.567856 -2.92947 0
M  V30 5221 C 504.275 1.17438 -3.27267 0
M  V30 5222 H 503.598 0.63116 -3.94787 0
M  V30 5223 H 505.038 1.66882 -3.89778 0
M  V30 5224 C 503.497 2.23292 -2.52274 0
M  V30 5225 O 504.027 3.30567 -2.28229 0
M  V30 5226 N 502.233 1.97772 -2.12919 0
M  V30 5227 H 501.78 1.10545 -2.32675 0
M  V30 5228 H 501.738 2.68809 -1.63062 0
M  V30 5229 N 505.51 1.54411 -0.315457 0
M  V30 5230 C 506.42 2.27737 0.56329 0
M  V30 5231 C 507.436 1.31787 1.13614 0
M  V30 5232 O 508.612 1.64791 1.15784 0
M  V30 5233 C 505.677 3.01478 1.71207 0
M  V30 5234 C 504.738 4.12997 1.17185 0
M  V30 5235 C 503.971 4.83212 2.26588 0
M  V30 5236 O 504.194 4.52884 3.46775 0
M  V30 5237 O 503.128 5.70299 1.92463 0
M  V30 5238 H 506.954 3.03683 -0.0319614 0
M  V30 5239 H 504.539 1.49178 -0.0814188 0
M  V30 5240 H 506.421 3.47683 2.38106 0
M  V30 5241 H 505.096 2.28414 2.29366 0
M  V30 5242 H 504.003 3.71159 0.468174 0
M  V30 5243 H 505.336 4.8808 0.635501 0
M  V30 5244 N 506.988 0.0434614 1.5754 0
M  V30 5245 C 508.265 -0.671479 1.83713 0
M  V30 5246 C 508.645 -1.89495 0.930315 0
M  V30 5247 O 507.993 -2.28498 -0.0105639 0
M  V30 5248 C 508.203 -1.0361 3.33266 0
M  V30 5249 C 509.551 -1.42167 4.00092 0
M  V30 5250 O 510.575 -1.12866 3.37846 0
M  V30 5251 O 509.434 -1.96817 5.09829 0
M  V30 5252 H 506.528 -0.330726 0.75799 0
M  V30 5253 H 509.074 0.0722373 1.69546 0
M  V30 5254 H 507.846 -0.165938 3.90948 0
M  V30 5255 H 507.469 -1.83751 3.52592 0
M  V30 5256 N 508.466 -1.55915 -0.229846 0
M  V30 5257 C 509.376 -1.94891 -1.30593 0
M  V30 5258 C 510.392 -0.851604 -1.51736 0
M  V30 5259 O 511.568 -1.15447 -1.65027 0
M  V30 5260 C 508.633 -2.25052 -2.63728 0
M  V30 5261 C 507.694 -3.48306 -2.5096 0
M  V30 5262 C 506.927 -3.77019 -3.77747 0
M  V30 5263 O 507.15 -3.07534 -4.80395 0
M  V30 5264 O 506.084 -4.70523 -3.75356 0
M  V30 5265 H 509.91 -2.86581 -1.00525 0
M  V30 5266 H 507.495 -1.43017 -0.432025 0
M  V30 5267 H 509.377 -2.45682 -3.42372 0
M  V30 5268 H 508.052 -1.36538 -2.93495 0
M  V30 5269 H 506.959 -3.32964 -1.70546 0
M  V30 5270 H 508.292 -4.37177 -2.26136 0
M  V30 5271 N 509.944 0.496216 -1.49584 0
M  V30 5272 C 511.36 0.827814 -1.36453 0
M  V30 5273 C 511.56 1.97464 -0.401285 0
M  V30 5274 O 510.616 2.51958 0.165296 0
M  V30 5275 C 511.929 1.16352 -2.77277 0
M  V30 5276 C 513.477 1.27145 -2.86013 0
M  V30 5277 C 513.952 1.64042 -4.27615 0
M  V30 5278 N 515.443 1.71082 -4.30448 0
M  V30 5279 C 516.178 2.01085 -5.36984 0
M  V30 5280 N 515.674 2.2928 -6.5376 0
M  V30 5281 N 517.467 2.02376 -5.24405 0
M  V30 5282 H 509.618 -0.259947 -2.10803 0
M  V30 5283 H 511.881 -0.0537163 -0.946477 0
M  V30 5284 H 511.587 0.394153 -3.49484 0
M  V30 5285 H 511.461 2.10582 -3.12946 0
M  V30 5286 H 513.848 2.03152 -2.1404 0
M  V30 5287 H 513.929 0.309542 -2.5392 0
M  V30 5288 H 513.573 0.88583 -5.00115 0
M  V30 5289 H 513.503 2.6134 -4.57175 0
M  V30 5290 H 515.994 1.51434 -3.46232 0
M  V30 5291 H 516.307 2.51376 -7.30774 0
M  V30 5292 H 514.652 2.26726 -6.56978 0
M  V30 5293 H 517.843 1.79829 -4.32179 0
M  V30 5294 H 518.016 2.25425 -6.07526 0
M  V30 5295 N 511.423 1.38739 0.74761 0
M  V30 5296 C 512.353 1.39173 1.87492 0
M  V30 5297 C 513.334 0.256794 1.6815 0
M  V30 5298 O 514.519 0.460762 1.88655 0
M  V30 5299 C 511.649 1.22197 3.25093 0
M  V30 5300 C 510.603 2.32957 3.59047 0
M  V30 5301 C 509.929 2.01082 4.95449 0
M  V30 5302 C 511.229 3.75237 3.6331 0
M  V30 5303 H 512.923 2.3351 1.87386 0
M  V30 5304 H 510.469 1.12399 0.900134 0
M  V30 5305 H 512.422 1.21124 4.03617 0
M  V30 5306 H 511.146 0.243241 3.25693 0
M  V30 5307 H 509.805 2.33226 2.82845 0
M  V30 5308 H 509.453 1.01678 4.92616 0
M  V30 5309 H 509.153 2.75267 5.19136 0
M  V30 5310 H 510.677 2.01638 5.76346 0
M  V30 5311 H 512.091 3.76966 4.31937 0
M  V30 5312 H 510.488 4.48677 3.98509 0
M  V30 5313 H 511.558 4.07122 2.634 0
M  V30 5314 N 512.901 -0.976442 1.23707 0
M  V30 5315 C 514.312 -1.53284 1.06587 0
M  V30 5316 C 514.663 -1.92765 -0.365526 0
M  V30 5317 O 513.788 -1.7645 -1.25277 0
M  V30 5318 C 514.383 -2.78548 1.92864 0
M  V30 5319 C 512.942 -3.30574 1.79994 0
M  V30 5320 C 512.089 -2.03538 1.88328 0
M  V30 5321 H 515.04 -0.795692 1.37311 0
M  V30 5322 H 515.061 -3.5155 1.45577 0
M  V30 5323 H 514.573 -2.49782 2.97037 0
M  V30 5324 H 512.674 -3.64211 0.786202 0
M  V30 5325 H 512.787 -4.00065 2.636 0
M  V30 5326 H 511.151 -2.17853 1.31954 0
M  V30 5327 H 511.934 -1.77149 2.94063 0
M  V30 5328 N 514.379 -1.04941 -1.1758 0
M  V30 5329 C 515.79 -0.784501 -1.69418 0
M  V30 5330 C 516.141 0.693625 -1.8353 0
M  V30 5331 O 515.266 1.53925 -1.52106 0
M  V30 5332 C 515.861 -1.41746 -3.07723 0
M  V30 5333 C 514.42 -1.20066 -3.56737 0
M  V30 5334 C 513.567 -1.5026 -2.33061 0
M  V30 5335 H 516.518 -1.21469 -1.02133 0
M  V30 5336 H 516.539 -0.825381 -3.7144 0
M  V30 5337 H 516.051 -2.49325 -2.9742 0
M  V30 5338 H 514.152 -0.144006 -3.72322 0
M  V30 5339 H 514.265 -1.90384 -4.39648 0
M  V30 5340 H 512.629 -0.922598 -2.37403 0
M  V30 5341 H 513.412 -2.58967 -2.25368 0
M  V30 5342 N 515.857 1.33968 -0.830081 0
M  V30 5343 C 517.106 1.97323 -0.417928 0
M  V30 5344 C 517.419 1.6652 1.02618 0
M  V30 5345 O 518.625 2.2342 1.54259 0
M  V30 5346 C 517.081 3.53099 -0.696359 0
M  V30 5347 C 516.689 3.92788 -2.15457 0
M  V30 5348 C 518.433 4.23049 -0.350724 0
M  V30 5349 C 516.34 5.41506 -2.37751 0
M  V30 5350 H 515.27 0.738409 -0.152541 0
M  V30 5351 H 517.921 1.52711 -1.01744 0
M  V30 5352 H 516.303 3.95991 -0.0265904 0
M  V30 5353 H 517.477 3.6098 -2.86408 0
M  V30 5354 H 515.792 3.35795 -2.46232 0
M  V30 5355 H 518.389 5.32403 -0.495036 0
M  V30 5356 H 518.732 4.10279 0.705476 0
M  V30 5357 H 519.265 3.85657 -0.975362 0
M  V30 5358 H 516.004 5.5927 -3.41903 0
M  V30 5359 H 515.524 5.74804 -1.7135 0
M  V30 5360 H 517.203 6.0828 -2.20465 0
M  V30 5361 N 517.335 0.585699 1.46312 0
M  V30 5362 C 518.583 0.072278 2.01971 0
M  V30 5363 C 518.904 -1.29345 1.45928 0
M  V30 5364 O 518.174 -1.84973 0.645109 0
M  V30 5365 H 516.754 0.023729 0.746623 0
M  V30 5366 H 519.416 0.762155 1.7938 0
M  V30 5367 H 518.512 0.00552767 3.121 0
M  V30 5368 N 518.813 -1.54241 0.323641 0
M  V30 5369 C 519.743 -2.27289 -0.534993 0
M  V30 5370 C 520.724 -1.28087 -1.11927 0
M  V30 5371 O 521.909 -1.56899 -1.14439 0
M  V30 5372 C 519.039 -3.03075 -1.69596 0
M  V30 5373 C 517.993 -4.09614 -1.24098 0
M  V30 5374 C 517.319 -4.73242 -2.4889 0
M  V30 5375 C 518.619 -5.21087 -0.355789 0
M  V30 5376 H 520.313 -2.99308 0.0743257 0
M  V30 5377 H 517.859 -1.43952 0.0371874 0
M  V30 5378 H 519.812 -3.52907 -2.30293 0
M  V30 5379 H 518.536 -2.28673 -2.33187 0
M  V30 5380 H 517.195 -3.60666 -0.656945 0
M  V30 5381 H 516.843 -3.95455 -3.10845 0
M  V30 5382 H 516.543 -5.45209 -2.19138 0
M  V30 5383 H 518.067 -5.25848 -3.10348 0
M  V30 5384 H 519.481 -5.66675 -0.869042 0
M  V30 5385 H 517.878 -5.9991 -0.151045 0
M  V30 5386 H 518.948 -4.81005 0.613339 0
M  V30 5387 N 520.291 -0.0518155 -1.57515 0
M  V30 5388 C 521.221 0.920283 -2.146 0
M  V30 5389 C 522.202 1.32406 -1.06783 0
M  V30 5390 O 523.387 1.39866 -1.34726 0
M  V30 5391 C 520.517 2.1949 -2.6915 0
M  V30 5392 C 519.471 1.93116 -3.81956 0
M  V30 5393 C 518.797 3.27037 -4.23026 0
M  V30 5394 C 520.097 1.25225 -5.07066 0
M  V30 5395 H 521.791 0.444801 -2.96077 0
M  V30 5396 H 519.337 0.212508 -1.42423 0
M  V30 5397 H 521.29 2.87894 -3.07725 0
M  V30 5398 H 520.014 2.69244 -1.84865 0
M  V30 5399 H 518.673 1.27123 -3.43854 0
M  V30 5400 H 518.321 3.74595 -3.3569 0
M  V30 5401 H 518.021 3.10189 -4.99056 0
M  V30 5402 H 519.545 3.96673 -4.64202 0
M  V30 5403 H 520.959 1.83666 -5.43083 0
M  V30 5404 H 519.356 1.18702 -5.88243 0
M  V30 5405 H 520.426 0.228382 -4.84362 0
M  V30 5406 N 521.769 1.56035 0.221574 0
M  V30 5407 C 522.997 1.8313 0.962864 0
M  V30 5408 C 523.412 0.630934 1.77946 0
M  V30 5409 O 522.769 -0.400519 1.78051 0
M  V30 5410 C 522.82 3.08742 1.88045 0
M  V30 5411 O 522.541 4.24147 1.09686 0
M  V30 5412 C 524.042 3.48824 2.73563 0
M  V30 5413 H 521.262 0.608775 0.282194 0
M  V30 5414 H 523.806 2.03124 0.23681 0
M  V30 5415 H 521.961 2.90723 2.56045 0
M  V30 5416 H 522.375 4.95505 1.71974 0
M  V30 5417 H 523.849 4.39752 3.3365 0
M  V30 5418 H 524.326 2.70575 3.45956 0
M  V30 5419 H 524.932 3.69282 2.10976 0
M  V30 5420 N 523.247 -0.488276 1.49845 0
M  V30 5421 C 524.472 -1.26997 1.63971 0
M  V30 5422 C 524.897 -1.85427 0.315994 0
M  V30 5423 O 524.255 -1.66475 -0.718032 0
M  V30 5424 C 524.303 -2.36689 2.72049 0
M  V30 5425 O 523.407 -3.40882 2.32107 0
M  V30 5426 H 522.748 -0.374376 0.548396 0
M  V30 5427 H 525.278 -0.583104 1.96115 0
M  V30 5428 H 525.288 -2.82262 2.94605 0
M  V30 5429 H 523.963 -1.93529 3.68129 0
M  V30 5430 H 522.54 -3.01139 2.19931 0
M  V30 5431 N 524.725 -1.39134 -0.740242 0
M  V30 5432 C 526.002 -1.26584 -1.49117 0
M  V30 5433 C 526.382 0.126902 -2.10718 0
M  V30 5434 O 525.73 1.13765 -1.98166 0
M  V30 5435 C 525.94 -2.38619 -2.54681 0
M  V30 5436 C 527.288 -2.77685 -3.21211 0
M  V30 5437 O 528.312 -2.38029 -2.64991 0
M  V30 5438 O 527.171 -3.46115 -4.22926 0
M  V30 5439 H 524.265 -0.495769 -0.661923 0
M  V30 5440 H 526.811 -1.50995 -0.774514 0
M  V30 5441 H 525.583 -3.3175 -2.07504 0
M  V30 5442 H 525.206 -2.15845 -3.33911 0
M  V30 5443 N 526.204 0.969867 -1.24223 0
M  V30 5444 C 527.452 1.70918 -1.0785 0
M  V30 5445 C 527.773 1.91186 0.383763 0
M  V30 5446 O 527.043 1.48806 1.27411 0
M  V30 5447 H 525.623 0.633334 -0.396103 0
M  V30 5448 H 528.285 1.16689 -1.56108 0
M  V30 5449 H 527.381 2.69455 -1.57482 0
M  V30 5450 N 527.682 1.05563 1.17022 0
M  V30 5451 C 529.098 0.777684 1.39371 0
M  V30 5452 C 529.298 -0.626269 1.91521 0
M  V30 5453 O 528.354 -1.38806 2.10924 0
M  V30 5454 C 529.667 1.83642 2.3811 0
M  V30 5455 C 531.215 1.85907 2.51809 0
M  V30 5456 C 531.69 2.90813 3.53824 0
M  V30 5457 N 533.181 2.898 3.61345 0
M  V30 5458 C 533.916 3.6762 4.40049 0
M  V30 5459 N 533.412 4.55237 5.22237 0
M  V30 5460 N 535.205 3.56044 4.34959 0
M  V30 5461 H 527.356 1.9614 0.815047 0
M  V30 5462 H 529.619 0.849527 0.420722 0
M  V30 5463 H 529.325 2.84425 2.06871 0
M  V30 5464 H 529.199 1.6812 3.37662 0
M  V30 5465 H 531.586 0.857865 2.82356 0
M  V30 5466 H 531.667 2.05506 1.52318 0
M  V30 5467 H 531.311 3.91122 3.24015 0
M  V30 5468 H 531.241 2.68465 4.53028 0
M  V30 5469 H 533.732 2.26274 3.02669 0
M  V30 5470 H 534.045 5.11291 5.79484 0
M  V30 5471 H 532.39 4.59296 5.21605 0
M  V30 5472 H 535.581 2.86986 3.69806 0
M  V30 5473 H 535.754 4.16938 4.96051 0
M  V30 5474 N 529.16 -1.33526 0.837174 0
M  V30 5475 C 530.385 -2.0258 0.444545 0
M  V30 5476 C 530.81 -1.6258 -0.946006 0
M  V30 5477 O 530.168 -0.817548 -1.6182 0
M  V30 5478 C 530.216 -3.5605 0.571006 0
M  V30 5479 O 529.32 -4.10422 -0.403431 0
M  V30 5480 H 528.661 -0.638866 0.180958 0
M  V30 5481 H 531.191 -1.70462 1.13154 0
M  V30 5482 H 531.201 -4.05488 0.452024 0
M  V30 5483 H 529.876 -3.84509 1.58512 0
M  V30 5484 H 528.453 -3.72113 -0.242147 0
M  V30 5485 N 530.638 -0.59345 -1.46 0
M  V30 5486 C 531.548 0.135817 -2.34207 0
M  V30 5487 C 532.564 0.875008 -1.50398 0
M  V30 5488 O 533.74 0.835778 -1.83239 0
M  V30 5489 C 530.805 1.12977 -3.27776 0
M  V30 5490 C 529.866 0.394081 -4.27487 0
M  V30 5491 C 529.099 1.34068 -5.16586 0
M  V30 5492 O 529.322 2.5778 -5.08828 0
M  V30 5493 O 528.256 0.845426 -5.95933 0
M  V30 5494 H 532.082 -0.588691 -2.9794 0
M  V30 5495 H 529.667 -0.353784 -1.45151 0
M  V30 5496 H 531.549 1.70261 -3.85473 0
M  V30 5497 H 530.224 1.83556 -2.66625 0
M  V30 5498 H 529.131 -0.220869 -3.73447 0
M  V30 5499 H 530.464 -0.270939 -4.91454 0
M  V30 5500 N 532.116 1.54067 -0.331816 0
M  V30 5501 C 533.362 2.01713 0.261395 0
M  V30 5502 C 533.717 1.21566 1.49129 0
M  V30 5503 O 533.01 0.291867 1.89364 0
M  V30 5504 C 533.204 3.51634 0.639392 0
M  V30 5505 C 533.033 4.46295 -0.552321 0
M  V30 5506 C 531.803 4.94185 -1.05399 0
M  V30 5507 C 534.001 4.94677 -1.40711 0
M  V30 5508 N 531.983 5.7277 -2.20925 0
M  V30 5509 C 533.354 5.71267 -2.40943 0
M  V30 5510 C 535.409 4.76805 -1.43392 0
M  V30 5511 C 534.112 6.31889 -3.4367 0
M  V30 5512 C 536.138 5.38268 -2.44994 0
M  V30 5513 C 535.5 6.14716 -3.43952 0
M  V30 5514 H 531.599 0.77975 0.0592729 0
M  V30 5515 H 534.183 1.88974 -0.468726 0
M  V30 5516 H 532.354 3.64603 1.33863 0
M  V30 5517 H 534.086 3.86038 1.21478 0
M  V30 5518 H 530.841 4.69472 -0.623952 0
M  V30 5519 H 531.265 6.16737 -2.79222 0
M  V30 5520 H 535.907 4.17255 -0.682489 0
M  V30 5521 H 533.625 6.90554 -4.19715 0
M  V30 5522 H 537.211 5.26352 -2.4788 0
M  V30 5523 H 536.091 6.6143 -4.21283 0
M  V30 5524 N 533.594 0.0601682 1.57485 0
M  V30 5525 C 534.557 -0.896373 2.10945 0
M  V30 5526 C 535.557 -1.23402 1.03095 0
M  V30 5527 O 536.747 -1.16921 1.29132 0
M  V30 5528 C 533.879 -2.20346 2.60116 0
M  V30 5529 H 535.072 -0.432778 2.96761 0
M  V30 5530 H 532.625 -0.188372 1.55161 0
M  V30 5531 H 533.36 -2.71268 1.7772 0
M  V30 5532 H 533.145 -1.9714 3.38937 0
M  V30 5533 H 534.635 -2.88846 3.01592 0
M  V30 5534 N 535.072 -1.5615 -0.213296 0
M  V30 5535 C 535.982 -1.96265 -1.28519 0
M  V30 5536 C 536.998 -0.86765 -1.50824 0
M  V30 5537 O 538.174 -1.17191 -1.63793 0
M  V30 5538 C 535.239 -2.27836 -2.61327 0
M  V30 5539 C 534.3 -3.50949 -2.47252 0
M  V30 5540 C 533.533 -3.81004 -3.73727 0
M  V30 5541 O 533.756 -3.12612 -4.77106 0
M  V30 5542 O 532.69 -4.74477 -3.70344 0
M  V30 5543 H 536.516 -2.87631 -0.974795 0
M  V30 5544 H 534.101 -1.43467 -0.416832 0
M  V30 5545 H 535.983 -2.49299 -3.39747 0
M  V30 5546 H 534.658 -1.39643 -2.9203 0
M  V30 5547 H 533.565 -3.34754 -1.67004 0
M  V30 5548 H 534.898 -4.39551 -2.21486 0
M  V30 5549 N 536.55 0.480323 -1.50102 0
M  V30 5550 C 537.513 1.56181 -1.6775 0
M  V30 5551 C 538.513 1.51156 -0.548503 0
M  V30 5552 O 539.703 1.5394 -0.815363 0
M  V30 5553 C 536.835 2.95823 -1.69415 0
M  V30 5554 H 538.028 1.41855 -2.6423 0
M  V30 5555 H 535.581 0.70605 -1.39444 0
M  V30 5556 H 536.316 3.15604 -0.745948 0
M  V30 5557 H 536.101 3.00878 -2.51425 0
M  V30 5558 H 537.591 3.74359 -1.85054 0
M  V30 5559 N 538.028 1.39524 0.732853 0
M  V30 5560 C 539.444 1.21176 1.03868 0
M  V30 5561 C 539.644 0.0748448 2.01361 0
M  V30 5562 O 538.7 -0.57281 2.45917 0
M  V30 5563 C 540.013 2.54667 1.59892 0
M  V30 5564 C 541.561 2.6153 1.71962 0
M  V30 5565 C 542.036 3.95248 2.31394 0
M  V30 5566 N 543.527 3.96899 2.38801 0
M  V30 5567 C 544.262 4.97138 2.85729 0
M  V30 5568 N 543.758 6.07775 3.32537 0
M  V30 5569 N 545.551 4.84516 2.84957 0
M  V30 5570 H 537.702 2.12225 0.086304 0
M  V30 5571 H 539.965 0.942614 0.100907 0
M  V30 5572 H 539.671 3.38423 0.95721 0
M  V30 5573 H 539.545 2.74538 2.58668 0
M  V30 5574 H 541.932 1.78156 2.35254 0
M  V30 5575 H 542.013 2.45507 0.718327 0
M  V30 5576 H 541.657 4.79054 1.68729 0
M  V30 5577 H 541.587 4.08593 3.32204 0
M  V30 5578 H 544.078 3.16998 2.05719 0
M  V30 5579 H 544.391 6.8017 3.66862 0
M  V30 5580 H 542.736 6.11366 3.30541 0
M  V30 5581 H 545.927 3.97185 2.47713 0
M  V30 5582 H 546.1 5.62783 3.21215 0
M  V30 5583 N 539.506 -0.963266 1.24736 0
M  V30 5584 C 540.734 -1.74166 1.11686 0
M  V30 5585 C 541.149 -1.8589 -0.330187 0
M  V30 5586 O 540.506 -1.35042 -1.2276 0
M  V30 5587 C 540.557 -3.15989 1.75595 0
M  V30 5588 O 540.278 -3.04847 3.14642 0
M  V30 5589 C 541.779 -4.10145 1.68213 0
M  V30 5590 H 538.999 -0.546031 0.389989 0
M  V30 5591 H 541.543 -1.20907 1.64929 0
M  V30 5592 H 539.698 -3.66219 1.26343 0
M  V30 5593 H 540.112 -3.9425 3.4593 0
M  V30 5594 H 541.586 -5.07299 2.17604 0
M  V30 5595 H 542.063 -4.3445 0.644208 0
M  V30 5596 H 542.669 -3.65827 2.16912 0
M  V30 5597 N 540.985 -1.06182 -1.16461 0
M  V30 5598 C 542.231 -0.779015 -1.87241 0
M  V30 5599 C 542.564 0.692715 -1.81425 0
M  V30 5600 O 541.839 1.5074 -1.22913 0
M  V30 5601 C 542.122 -1.2728 -3.36856 0
M  V30 5602 C 541.975 -2.80821 -3.51368 0
M  V30 5603 C 543.294 -0.879799 -4.31216 0
M  V30 5604 H 540.413 -0.284464 -0.679889 0
M  V30 5605 H 543.055 -1.31755 -1.36896 0
M  V30 5606 H 541.205 -0.814673 -3.79862 0
M  V30 5607 H 542.877 -3.34833 -3.17308 0
M  V30 5608 H 541.12 -3.19606 -2.93316 0
M  V30 5609 H 541.791 -3.10435 -4.56436 0
M  V30 5610 H 544.267 -1.27436 -3.96105 0
M  V30 5611 H 543.143 -1.25278 -5.34412 0
M  V30 5612 H 543.404 0.215372 -4.41575 0
M  V30 5613 N 542.463 1.3308 -0.844243 0
M  V30 5614 C 543.393 2.3161 -0.296493 0
M  V30 5615 C 544.374 1.59215 0.598707 0
M  V30 5616 O 545.559 1.87077 0.521134 0
M  V30 5617 C 542.689 3.43313 0.524762 0
M  V30 5618 C 541.643 4.27115 -0.275106 0
M  V30 5619 C 540.969 5.30483 0.670236 0
M  V30 5620 C 542.269 5.00443 -1.49514 0
M  V30 5621 H 543.963 2.77672 -1.11976 0
M  V30 5622 H 541.509 1.33496 -0.539899 0
M  V30 5623 H 543.462 4.11273 0.918298 0
M  V30 5624 H 542.186 2.95952 1.3813 0
M  V30 5625 H 540.845 3.60787 -0.650267 0
M  V30 5626 H 540.493 4.79379 1.52332 0
M  V30 5627 H 540.193 5.87435 0.139123 0
M  V30 5628 H 541.717 6.01308 1.06117 0
M  V30 5629 H 543.131 5.61141 -1.17447 0
M  V30 5630 H 541.528 5.67071 -1.96343 0
M  V30 5631 H 542.598 4.28906 -2.26202 0
M  V30 5632 N 543.941 0.601185 1.45683 0
M  V30 5633 C 545.187 0.0940202 2.02582 0
M  V30 5634 C 545.52 -1.26972 1.46941 0
M  V30 5635 O 544.795 -1.83613 0.641612 0
M  V30 5636 C 545.078 0.0481715 3.60068 0
M  V30 5637 C 544.931 1.44212 4.26055 0
M  V30 5638 C 546.25 -0.642975 4.35378 0
M  V30 5639 H 543.369 0.0356404 0.736138 0
M  V30 5640 H 546.011 0.771929 1.73612 0
M  V30 5641 H 544.161 -0.529128 3.8488 0
M  V30 5642 H 545.833 2.06601 4.12449 0
M  V30 5643 H 544.076 2.00465 3.84703 0
M  V30 5644 H 544.747 1.36234 5.34925 0
M  V30 5645 H 547.223 -0.152351 4.15821 0
M  V30 5646 H 546.099 -0.644141 5.45107 0
M  V30 5647 H 546.36 -1.70785 4.0778 0
M  V30 5648 N 545.419 -1.53889 0.339982 0
M  V30 5649 C 546.366 -2.24902 -0.518452 0
M  V30 5650 C 547.336 -1.24593 -1.09844 0
M  V30 5651 O 548.521 -1.53317 -1.13572 0
M  V30 5652 C 545.661 -3.02262 -1.66529 0
M  V30 5653 C 544.774 -4.17418 -1.11295 0
M  V30 5654 C 543.909 -4.82273 -2.2268 0
M  V30 5655 C 542.948 -5.89503 -1.6478 0
M  V30 5656 N 542.085 -6.48153 -2.69893 0
M  V30 5657 H 546.925 -2.97853 0.0936579 0
M  V30 5658 H 544.462 -1.46986 0.0579924 0
M  V30 5659 H 546.42 -3.45371 -2.3404 0
M  V30 5660 H 545.05 -2.31614 -2.24844 0
M  V30 5661 H 544.102 -3.78976 -0.328886 0
M  V30 5662 H 545.414 -4.94554 -0.649414 0
M  V30 5663 H 544.568 -5.28435 -2.98063 0
M  V30 5664 H 543.307 -4.04552 -2.72376 0
M  V30 5665 H 542.312 -5.42728 -0.879004 0
M  V30 5666 H 543.537 -6.6913 -1.1594 0
M  V30 5667 H 541.483 -5.73298 -3.1885 0
M  V30 5668 H 541.4 -7.20752 -2.28151 0
M  V30 5669 H 542.668 -6.98968 -3.45056 0
M  V30 5670 N 546.897 -0.0685191 -1.57451 0
M  V30 5671 C 548.174 0.642167 -1.84758 0
M  V30 5672 C 548.554 1.87991 -0.960344 0
M  V30 5673 O 547.902 2.28485 -0.0257894 0
M  V30 5674 C 548.112 0.982946 -3.34872 0
M  V30 5675 C 549.46 1.35784 -4.02303 0
M  V30 5676 O 550.484 1.07477 -3.39598 0
M  V30 5677 O 549.343 1.88681 -5.12895 0
M  V30 5678 H 546.437 0.318625 -0.763156 0
M  V30 5679 H 548.983 -0.0992015 -1.6941 0
M  V30 5680 H 547.755 0.10372 -3.91163 0
M  V30 5681 H 547.378 1.78119 -3.55471 0
M  V30 5682 N 548.375 1.56261 0.205012 0
M  V30 5683 C 549.6 1.84491 0.947512 0
M  V30 5684 C 550.025 0.650894 1.76479 0
M  V30 5685 O 549.383 -0.40035 1.76824 0
M  V30 5686 C 549.431 3.10863 1.82747 0
M  V30 5687 O 548.535 2.90719 2.925 0
M  V30 5688 H 547.876 0.607783 0.267386 0
M  V30 5689 H 550.406 2.03485 0.213323 0
M  V30 5690 H 550.416 3.41399 2.23407 0
M  V30 5691 H 549.091 3.97392 1.2269 0
M  V30 5692 H 547.668 2.71457 2.55667 0
M  V30 5693 N 549.853 -0.472356 1.50355 0
M  V30 5694 C 551.081 -1.24784 1.65035 0
M  V30 5695 C 551.496 -1.85837 0.333176 0
M  V30 5696 O 550.853 -1.69168 -0.68472 0
M  V30 5697 C 550.904 -2.35747 2.74054 0
M  V30 5698 O 550.625 -1.77197 4.00665 0
M  V30 5699 C 552.126 -3.26645 2.99696 0
M  V30 5700 H 549.346 -0.377432 0.554785 0
M  V30 5701 H 551.89 -0.563962 1.9657 0
M  V30 5702 H 550.045 -2.99912 2.45217 0
M  V30 5703 H 550.459 -2.5026 4.60945 0
M  V30 5704 H 551.933 -4.00718 3.79644 0
M  V30 5705 H 552.41 -3.8535 2.10718 0
M  V30 5706 H 553.016 -2.68218 3.3006 0
M  V30 5707 N 551.331 -1.39911 -0.725443 0
M  V30 5708 C 552.279 -1.39552 -1.86086 0
M  V30 5709 C 553.273 -0.277334 -1.67114 0
M  V30 5710 O 554.479 -0.447865 -1.74339 0
M  V30 5711 H 550.854 -0.435993 -0.612711 0
M  V30 5712 H 552.825 -2.35305 -1.83505 0
M  V30 5713 C 551.574 -1.26529 -3.2386 0
M  V30 5714 H 550.897 -2.11845 -3.3906 0
M  V30 5715 H 552.337 -1.30336 -4.03471 0
M  V30 5716 C 550.796 0.0254168 -3.3689 0
M  V30 5717 O 551.326 0.992048 -3.89257 0
M  V30 5718 N 549.532 0.0916528 -2.90455 0
M  V30 5719 H 549.079 -0.695675 -2.48028 0
M  V30 5720 H 549.037 0.954745 -2.99553 0
M  V30 5721 N 552.809 0.956637 -1.25245 0
M  V30 5722 C 554.225 1.22733 -1.02023 0
M  V30 5723 C 554.425 1.99761 0.264186 0
M  V30 5724 O 553.481 2.32814 0.977436 0
M  V30 5725 C 554.794 2.00367 -2.24217 0
M  V30 5726 C 556.342 2.13418 -2.28958 0
M  V30 5727 C 556.817 2.9445 -3.50803 0
M  V30 5728 N 558.308 3.02029 -3.51187 0
M  V30 5729 C 559.043 3.65116 -4.42129 0
M  V30 5730 N 558.539 4.2983 -5.43339 0
M  V30 5731 N 560.332 3.62237 -4.29815 0
M  V30 5732 H 552.483 0.441282 -2.07765 0
M  V30 5733 H 554.746 0.257686 -0.912306 0
M  V30 5734 H 554.452 1.51165 -3.17556 0
M  V30 5735 H 554.326 3.01077 -2.27228 0
M  V30 5736 H 556.713 2.61819 -1.36143 0
M  V30 5737 H 556.794 1.1202 -2.29968 0
M  V30 5738 H 556.438 2.46741 -4.43939 0
M  V30 5739 H 556.368 3.9607 -3.47039 0
M  V30 5740 H 558.859 2.56007 -2.77973 0
M  V30 5741 H 559.172 4.75819 -6.08947 0
M  V30 5742 H 557.517 4.28465 -5.47214 0
M  V30 5743 H 560.708 3.10863 -3.49974 0
M  V30 5744 H 560.881 4.11117 -5.00886 0
M  V30 5745 N 554.287 1.06798 1.15896 0
M  V30 5746 C 555.564 0.701057 1.82605 0
M  V30 5747 C 555.944 -0.817066 1.94646 0
M  V30 5748 O 555.292 -1.72933 1.49353 0
M  V30 5749 C 555.502 1.40895 3.19296 0
M  V30 5750 C 556.85 1.55744 3.95005 0
M  V30 5751 O 557.874 1.36927 3.28831 0
M  V30 5752 O 556.733 1.86658 5.13635 0
M  V30 5753 H 553.827 0.248791 0.78869 0
M  V30 5754 H 556.373 1.16857 1.23055 0
M  V30 5755 H 555.145 2.4439 3.05596 0
M  V30 5756 H 554.768 0.931847 3.86526 0
M  V30 5757 N 555.766 -1.3263 0.851289 0
M  V30 5758 C 556.991 -2.02097 0.466006 0
M  V30 5759 C 557.416 -1.63574 -0.928709 0
M  V30 5760 O 556.774 -0.834665 -1.60944 0
M  V30 5761 C 556.822 -3.55425 0.608737 0
M  V30 5762 O 555.926 -4.10827 -0.359878 0
M  V30 5763 H 555.267 -0.636911 0.187724 0
M  V30 5764 H 557.797 -1.69253 1.14955 0
M  V30 5765 H 557.807 -4.04986 0.495006 0
M  V30 5766 H 556.482 -3.82806 1.62581 0
M  V30 5767 H 555.059 -3.72349 -0.202666 0
M  V30 5768 N 557.244 -0.608902 -1.45362 0
M  V30 5769 C 558.174 0.0964526 -2.33301 0
M  V30 5770 C 559.155 0.857444 -1.46908 0
M  V30 5771 O 560.34 0.827735 -1.75676 0
M  V30 5772 C 557.47 1.09354 -3.29635 0
M  V30 5773 C 556.424 0.445676 -4.25673 0
M  V30 5774 C 555.75 1.5511 -5.11708 0
M  V30 5775 C 557.05 -0.633972 -5.18438 0
M  V30 5776 H 558.744 -0.637829 -2.92527 0
M  V30 5777 H 556.29 -0.308178 -1.40664 0
M  V30 5778 H 558.243 1.59556 -3.90025 0
M  V30 5779 H 556.967 1.85843 -2.6857 0
M  V30 5780 H 555.626 -0.0354897 -3.66583 0
M  V30 5781 H 555.274 2.30631 -4.4701 0
M  V30 5782 H 554.974 1.12311 -5.76767 0
M  V30 5783 H 556.498 2.05537 -5.74967 0
M  V30 5784 H 557.912 -0.215974 -5.72893 0
M  V30 5785 H 556.309 -0.983789 -5.91981 0
M  V30 5786 H 557.379 -1.51005 -4.60788 0
M  V30 5787 N 558.722 1.53707 -0.348139 0
M  V30 5788 C 559.999 1.93247 0.302475 0
M  V30 5789 C 560.379 1.28012 1.67857 0
M  V30 5790 O 559.727 0.43274 2.24365 0
M  V30 5791 C 559.937 3.47031 0.370159 0
M  V30 5792 C 561.285 4.20066 0.61882 0
M  V30 5793 O 562.309 3.53319 0.452087 0
M  V30 5794 O 561.168 5.38318 0.94215 0
M  V30 5795 H 558.262 0.807736 0.177458 0
M  V30 5796 H 560.808 1.64927 -0.399651 0
M  V30 5797 H 559.58 3.86745 -0.59534 0
M  V30 5798 H 559.203 3.81532 1.11888 0
M  V30 5799 N 560.2 0.0768682 1.57412 0
M  V30 5800 C 561.133 -0.924685 2.08626 0
M  V30 5801 C 562.111 -1.28792 0.992542 0
M  V30 5802 O 563.295 -1.39634 1.26628 0
M  V30 5803 C 560.422 -2.23131 2.54814 0
M  V30 5804 C 559.468 -2.01928 3.75669 0
M  V30 5805 S 560.301 -1.27397 5.20125 0
M  V30 5806 C 561.457 -2.59329 5.69648 0
M  V30 5807 H 561.69 -0.488928 2.93252 0
M  V30 5808 H 559.223 -0.136014 1.538 0
M  V30 5809 H 561.181 -2.98226 2.82084 0
M  V30 5810 H 559.842 -2.63831 1.70447 0
M  V30 5811 H 559.035 -2.98639 4.05993 0
M  V30 5812 H 558.637 -1.34967 3.48798 0
M  V30 5813 H 560.929 -3.55394 5.76803 0
M  V30 5814 H 561.872 -2.33608 6.68456 0
M  V30 5815 H 562.28 -2.66767 4.9749 0
M  V30 5816 N 561.678 -1.56367 -0.196722 0
M  V30 5817 C 562.927 -1.79724 -0.915539 0
M  V30 5818 C 563.24 -0.649804 -1.84491 0
M  V30 5819 O 564.446 -0.767631 -2.60422 0
M  V30 5820 C 562.902 -3.18369 -1.67836 0
M  V30 5821 C 562.51 -4.4091 -0.793897 0
M  V30 5822 C 564.254 -3.51037 -2.38691 0
M  V30 5823 C 562.161 -5.70577 -1.55549 0
M  V30 5824 H 561.091 -0.67013 -0.345604 0
M  V30 5825 H 563.742 -1.82721 -0.168856 0
M  V30 5826 H 562.124 -3.09617 -2.46887 0
M  V30 5827 H 563.298 -4.60781 -0.042163 0
M  V30 5828 H 561.613 -4.15937 -0.19626 0
M  V30 5829 H 564.21 -4.4515 -2.96219 0
M  V30 5830 H 564.553 -2.74704 -3.12799 0
M  V30 5831 H 565.086 -3.61229 -1.66608 0
M  V30 5832 H 561.825 -6.49871 -0.857226 0
M  V30 5833 H 561.345 -5.54726 -2.2812 0
M  V30 5834 H 563.024 -6.11637 -2.10971 0
M  V30 5835 N 563.156 0.464375 -1.50603 0
M  V30 5836 C 564.066 1.58723 -1.72754 0
M  V30 5837 C 565.082 1.62925 -0.610844 0
M  V30 5838 O 566.258 1.8067 -0.889963 0
M  V30 5839 C 563.323 2.94897 -1.82309 0
M  V30 5840 C 562.384 3.0103 -3.06071 0
M  V30 5841 C 561.617 4.30708 -3.1516 0
M  V30 5842 O 561.84 5.2159 -2.30868 0
M  V30 5843 O 560.774 4.42571 -4.0794 0
M  V30 5844 H 564.6 1.42954 -2.67951 0
M  V30 5845 H 562.185 0.644579 -1.3478 0
M  V30 5846 H 564.067 3.75764 -1.90735 0
M  V30 5847 H 562.742 3.10851 -0.902967 0
M  V30 5848 H 561.649 2.19217 -3.03142 0
M  V30 5849 H 562.982 2.90014 -3.97684 0
M  V30 5850 N 564.634 1.40294 0.718013 0
M  V30 5851 C 566.05 1.2227 1.02577 0
M  V30 5852 C 566.25 0.0961976 2.0127 0
M  V30 5853 O 565.306 -0.546695 2.46511 0
M  V30 5854 C 566.619 2.56348 1.57182 0
M  V30 5855 C 568.167 2.6334 1.69178 0
M  V30 5856 C 568.642 3.9768 2.27188 0
M  V30 5857 N 570.133 3.99409 2.34578 0
M  V30 5858 C 570.868 5.00141 2.8044 0
M  V30 5859 N 570.364 6.11268 3.26073 0
M  V30 5860 N 572.157 4.87511 2.79802 0
M  V30 5861 H 564.308 2.12304 0.0637899 0
M  V30 5862 H 566.571 0.943632 0.0909036 0
M  V30 5863 H 566.277 3.3942 0.921262 0
M  V30 5864 H 566.151 2.77266 2.55741 0
M  V30 5865 H 568.538 1.80641 2.33351 0
M  V30 5866 H 568.619 2.46255 0.692247 0
M  V30 5867 H 568.263 4.80817 1.63638 0
M  V30 5868 H 568.193 4.12093 3.27852 0
M  V30 5869 H 570.684 3.19162 2.02346 0
M  V30 5870 H 570.997 6.84023 3.59628 0
M  V30 5871 H 569.342 6.14837 3.24038 0
M  V30 5872 H 572.533 3.9979 2.43487 0
M  V30 5873 H 572.706 5.66158 3.15228 0
M  V30 5874 N 566.112 -0.949982 1.2575 0
M  V30 5875 C 567.352 -1.70994 1.11984 0
M  V30 5876 C 567.716 -1.89095 -0.332746 0
M  V30 5877 O 568.917 -2.62192 -0.592331 0
M  V30 5878 C 567.188 -3.05286 1.85837 0
M  V30 5879 S 568.747 -3.96477 1.88019 0
M  V30 5880 H 565.565 -0.587689 0.400178 0
M  V30 5881 H 568.167 -1.13271 1.59342 0
M  V30 5882 H 566.871 -2.89785 2.90608 0
M  V30 5883 H 566.402 -3.68069 1.38885 0
M  V30 5884 H 568.417 -4.86814 0.96057 0
M  V30 5885 N 567.59 -1.07411 -1.15328 0
M  V30 5886 C 568.839 -0.792643 -1.85473 0
M  V30 5887 C 569.152 0.683789 -1.83259 0
M  V30 5888 O 570.358 1.08005 -2.49093 0
M  V30 5889 C 568.814 -1.36787 -3.32892 0
M  V30 5890 C 568.422 -2.87536 -3.43551 0
M  V30 5891 C 570.166 -1.16444 -4.08217 0
M  V30 5892 C 568.073 -3.38247 -4.85122 0
M  V30 5893 H 567.003 -0.292838 -0.694811 0
M  V30 5894 H 569.654 -1.29426 -1.30082 0
M  V30 5895 H 568.036 -0.793993 -3.87958 0
M  V30 5896 H 569.21 -3.50973 -2.98588 0
M  V30 5897 H 567.525 -3.06676 -2.81672 0
M  V30 5898 H 570.122 -1.51808 -5.12697 0
M  V30 5899 H 570.465 -0.10353 -4.16171 0
M  V30 5900 H 570.998 -1.70472 -3.59422 0
M  V30 5901 H 567.737 -4.43866 -4.82351 0
M  V30 5902 H 567.257 -2.79564 -5.30664 0
M  V30 5903 H 568.936 -3.34238 -5.5398 0
M  V30 5904 N 569.068 1.32177 -0.85831 0
M  V30 5905 C 570.308 1.98927 -0.469822 0
M  V30 5906 C 570.672 1.66423 0.95746 0
M  V30 5907 O 571.873 2.26293 1.45069 0
M  V30 5908 C 570.144 3.50352 -0.706288 0
M  V30 5909 S 571.703 4.36824 -0.415918 0
M  V30 5910 H 568.521 0.688909 -0.175855 0
M  V30 5911 H 571.123 1.60807 -1.11181 0
M  V30 5912 H 569.827 3.71497 -1.74407 0
M  V30 5913 H 569.358 3.93367 -0.0508568 0
M  V30 5914 H 571.373 4.90398 0.756581 0
M  V30 5915 N 570.547 0.616602 1.45037 0
M  V30 5916 C 571.477 -0.0840787 2.33349 0
M  V30 5917 C 572.458 -0.849641 1.4736 0
M  V30 5918 O 573.643 -0.818407 1.76113 0
M  V30 5919 C 570.773 -1.07604 3.3021 0
M  V30 5920 C 569.727 -0.423096 4.25904 0
M  V30 5921 C 569.053 -1.52394 5.12523 0
M  V30 5922 C 570.353 0.661457 5.18095 0
M  V30 5923 H 572.047 0.653333 2.92185 0
M  V30 5924 H 569.593 0.315634 1.40498 0
M  V30 5925 H 571.546 -1.57485 3.90866 0
M  V30 5926 H 570.27 -1.84416 2.69552 0
M  V30 5927 H 568.929 0.05493 3.66559 0
M  V30 5928 H 568.577 -2.28257 4.48227 0
M  V30 5929 H 568.277 -1.09251 5.77354 0
M  V30 5930 H 569.801 -2.02485 5.76049 0
M  V30 5931 H 571.215 0.246353 5.7277 0
M  V30 5932 H 569.612 1.01517 5.91451 0
M  V30 5933 H 570.682 1.53446 4.59981 0
M  V30 5934 N 572.025 -1.5352 0.356285 0
M  V30 5935 C 573.271 -2.01414 -0.236653 0
M  V30 5936 C 573.604 -1.24339 -1.49176 0
M  V30 5937 O 572.879 -0.334496 -1.91602 0
M  V30 5938 C 573.162 -3.56059 -0.537982 0
M  V30 5939 C 573.015 -4.43835 0.730112 0
M  V30 5940 C 574.334 -4.19127 -1.34239 0
M  V30 5941 H 571.453 -0.732135 -0.0845386 0
M  V30 5942 H 574.095 -1.83854 0.479341 0
M  V30 5943 H 572.245 -3.71153 -1.14795 0
M  V30 5944 H 573.917 -4.40555 1.36782 0
M  V30 5945 H 572.16 -4.1218 1.3524 0
M  V30 5946 H 572.831 -5.49958 0.474358 0
M  V30 5947 H 575.307 -4.07809 -0.826498 0
M  V30 5948 H 574.183 -5.27378 -1.52198 0
M  V30 5949 H 574.444 -3.74581 -2.34822 0
M  V30 5950 N 573.503 -0.0852151 -1.57369 0
M  V30 5951 C 574.743 0.584297 -1.95871 0
M  V30 5952 C 575.107 1.6596 -0.965473 0
M  V30 5953 O 576.308 2.38561 -1.23862 0
M  V30 5954 C 574.579 1.13411 -3.38929 0
M  V30 5955 S 576.138 1.81687 -3.99419 0
M  V30 5956 H 572.956 0.19095 -0.684879 0
M  V30 5957 H 575.558 -0.162267 -1.94825 0
M  V30 5958 H 574.262 0.339845 -4.0899 0
M  V30 5959 H 573.793 1.91672 -3.43548 0
M  V30 5960 H 575.808 3.10037 -3.87417 0
M  V30 5961 N 574.981 1.5647 0.188427 0
M  V30 5962 C 575.911 1.98101 1.23606 0
M  V30 5963 C 576.892 0.853961 1.47111 0
M  V30 5964 O 578.077 1.11879 1.58735 0
M  V30 5965 C 575.207 2.32624 2.57882 0
M  V30 5966 C 574.161 3.48129 2.48978 0
M  V30 5967 C 573.487 3.68347 3.87588 0
M  V30 5968 C 574.787 4.82112 2.00911 0
M  V30 5969 H 576.481 2.85864 0.890068 0
M  V30 5970 H 574.027 1.37532 0.426714 0
M  V30 5971 H 575.98 2.60343 3.3136 0
M  V30 5972 H 574.704 1.41751 2.94235 0
M  V30 5973 H 573.363 3.20511 1.77956 0
M  V30 5974 H 573.011 2.74793 4.21305 0
M  V30 5975 H 572.711 4.46055 3.82503 0
M  V30 5976 H 574.235 3.98449 4.62678 0
M  V30 5977 H 575.649 5.08819 2.64151 0
M  V30 5978 H 574.046 5.63337 2.06814 0
M  V30 5979 H 575.116 4.75249 0.96262 0
M  V30 5980 N 576.459 -0.456382 1.50847 0
M  V30 5981 C 577.736 -1.21739 1.53098 0
M  V30 5982 C 578.116 -2.09179 0.284132 0
M  V30 5983 O 577.464 -2.16466 -0.731773 0
M  V30 5984 C 577.674 -2.03573 2.83477 0
M  V30 5985 C 579.022 -2.61264 3.34703 0
M  V30 5986 O 580.046 -2.13802 2.84898 0
M  V30 5987 O 578.905 -3.47779 4.21559 0
M  V30 5988 H 575.999 -0.553219 0.614718 0
M  V30 5989 H 578.545 -0.467003 1.63148 0
M  V30 5990 H 577.317 -1.39232 3.65691 0
M  V30 5991 H 576.94 -2.85716 2.76499 0
M  V30 5992 N 577.937 -1.40673 -0.710563 0
M  V30 5993 C 578.9 -1.4108 -1.80635 0
M  V30 5994 C 579.9 -0.303783 -1.57904 0
M  V30 5995 O 581.09 -0.562937 -1.64853 0
M  V30 5996 C 578.222 -1.20748 -3.18799 0
M  V30 5997 H 579.415 -2.38612 -1.81671 0
M  V30 5998 H 576.968 -1.26595 -0.916704 0
M  V30 5999 H 577.703 -0.239964 -3.23411 0
M  V30 6000 H 577.488 -2.00941 -3.36698 0
M  V30 6001 H 578.978 -1.23833 -3.98817 0
M  V30 6002 N 579.415 0.9433 -1.26252 0
M  V30 6003 C 580.826 1.50404 -1.10614 0
M  V30 6004 C 581.177 1.93666 0.31429 0
M  V30 6005 O 580.302 1.79709 1.20555 0
M  V30 6006 C 580.897 2.73336 -2.00182 0
M  V30 6007 C 579.456 3.25686 -1.88695 0
M  V30 6008 C 578.603 1.98474 -1.93658 0
M  V30 6009 H 581.554 0.759006 -1.39373 0
M  V30 6010 H 581.575 3.47567 -1.54847 0
M  V30 6011 H 581.087 2.41818 -3.03555 0
M  V30 6012 H 579.188 3.61998 -0.882489 0
M  V30 6013 H 579.301 3.92935 -2.74115 0
M  V30 6014 H 577.665 2.14278 -1.37684 0
M  V30 6015 H 578.448 1.6929 -2.98657 0
M  V30 6016 N 580.893 1.08022 1.14757 0
M  V30 6017 C 582.141 0.805913 1.85336 0
M  V30 6018 C 582.462 -0.670162 1.83122 0
M  V30 6019 O 581.732 -1.48567 1.2769 0
M  V30 6020 H 580.312 0.295138 0.686223 0
M  V30 6021 H 582.974 1.36538 1.3908 0
M  V30 6022 H 582.07 1.14655 2.90277 0
M  V30 6023 N 582.371 -1.3172 0.865308 0
M  V30 6024 C 583.619 -1.96487 0.472995 0
M  V30 6025 C 583.94 -1.68761 -0.976975 0
M  V30 6026 O 583.21 -1.00051 -1.68424 0
M  V30 6027 H 581.79 -0.726947 0.171922 0
M  V30 6028 H 584.452 -1.60612 1.10407 0
M  V30 6029 H 583.548 -3.0574 0.62687 0
M  V30 6030 N 583.85 -0.624285 -1.44708 0
M  V30 6031 C 585.096 -0.126237 -2.02407 0
M  V30 6032 C 585.428 1.24618 -1.48943 0
M  V30 6033 O 584.704 1.82569 -0.670742 0
M  V30 6034 C 584.986 -0.105449 -3.59946 0
M  V30 6035 C 584.84 -1.50972 -4.23707 0
M  V30 6036 C 586.159 0.573629 -4.36346 0
M  V30 6037 H 583.278 -0.0473472 -0.735478 0
M  V30 6038 H 585.92 -0.799452 -1.72362 0
M  V30 6039 H 584.07 0.46783 -3.85673 0
M  V30 6040 H 585.742 -2.13136 -4.0911 0
M  V30 6041 H 583.985 -2.0656 -3.81465 0
M  V30 6042 H 584.656 -1.44727 -5.32689 0
M  V30 6043 H 587.132 0.0861787 -4.16011 0
M  V30 6044 H 586.008 0.557338 -5.46063 0
M  V30 6045 H 586.269 1.64276 -4.10446 0
M  V30 6046 N 585.328 1.53329 -0.364422 0
M  V30 6047 C 586.238 2.29414 0.490552 0
M  V30 6048 C 587.254 1.35335 1.09363 0
M  V30 6049 O 588.43 1.68391 1.10483 0
M  V30 6050 C 585.495 3.06772 1.61529 0
M  V30 6051 C 584.556 4.16516 1.03986 0
M  V30 6052 C 583.789 4.90176 2.111 0
M  V30 6053 O 584.012 4.63687 3.32191 0
M  V30 6054 O 582.946 5.76134 1.74222 0
M  V30 6055 H 586.772 3.03428 -0.12856 0
M  V30 6056 H 584.357 1.48843 -0.128837 0
M  V30 6057 H 586.239 3.55082 2.26924 0
M  V30 6058 H 584.914 2.35596 2.21983 0
M  V30 6059 H 583.821 3.7246 0.349856 0
M  V30 6060 H 585.154 4.89855 0.4799 0
M  V30 6061 N 586.806 0.0935595 1.57322 0
M  V30 6062 C 587.736 -0.863062 2.16964 0
M  V30 6063 C 588.717 -1.29528 1.10256 0
M  V30 6064 O 589.902 -1.36245 1.38387 0
M  V30 6065 C 587.032 -2.12276 2.74875 0
M  V30 6066 C 585.986 -1.82921 3.86942 0
M  V30 6067 C 585.312 -3.15707 4.31548 0
M  V30 6068 C 586.612 -1.11737 5.10208 0
M  V30 6069 H 588.306 -0.366145 2.97153 0
M  V30 6070 H 585.852 -0.174673 1.42937 0
M  V30 6071 H 587.805 -2.79634 3.1525 0
M  V30 6072 H 586.529 -2.64248 1.91938 0
M  V30 6073 H 585.188 -1.17961 3.47103 0
M  V30 6074 H 584.836 -3.65563 3.45504 0
M  V30 6075 H 584.536 -2.96849 5.07104 0
M  V30 6076 H 586.06 -3.84226 4.74555 0
M  V30 6077 H 587.474 -1.69203 5.47762 0
M  V30 6078 H 585.871 -1.03064 5.91183 0
M  V30 6079 H 586.941 -0.0998818 4.84797 0
M  V30 6080 N 588.284 -1.56567 -0.180126 0
M  V30 6081 C 589.509 -1.85975 -0.918041 0
M  V30 6082 C 589.934 -0.678888 -1.75422 0
M  V30 6083 O 589.292 0.372168 -1.77439 0
M  V30 6084 C 589.34 -3.13731 -1.77779 0
M  V30 6085 O 588.444 -2.95335 -2.87838 0
M  V30 6086 H 587.785 -0.61196 -0.257683 0
M  V30 6087 H 590.315 -2.03798 -0.180923 0
M  V30 6088 H 590.325 -3.4491 -2.17948 0
M  V30 6089 H 589 -3.99293 -1.16352 0
M  V30 6090 H 587.577 -2.7549 -2.51316 0
M  V30 6091 N 589.762 0.448376 -1.51087 0
M  V30 6092 C 591.039 1.20926 -1.53741 0
M  V30 6093 C 591.419 2.09025 -0.295222 0
M  V30 6094 O 590.767 2.16851 0.720283 0
M  V30 6095 C 590.977 2.02067 -2.84552 0
M  V30 6096 C 592.325 2.59486 -3.36084 0
M  V30 6097 O 593.349 2.12289 -2.86028 0
M  V30 6098 O 592.208 3.45539 -4.23397 0
M  V30 6099 H 589.302 0.549951 -0.617643 0
M  V30 6100 H 591.848 0.458344 -1.63393 0
M  V30 6101 H 590.62 1.37291 -3.66425 0
M  V30 6102 H 590.243 2.84246 -2.78011 0
M  V30 6103 N 591.24 1.41047 0.703093 0
M  V30 6104 C 592.468 1.4334 1.49202 0
M  V30 6105 C 592.883 0.0365596 1.88765 0
M  V30 6106 O 592.24 -0.942419 1.56284 0
M  V30 6107 C 592.291 2.33538 2.75939 0
M  V30 6108 O 592.012 3.67786 2.38045 0
M  V30 6109 C 593.513 2.44555 3.6974 0
M  V30 6110 H 590.733 0.488472 0.460039 0
M  V30 6111 H 593.277 1.85245 0.86629 0
M  V30 6112 H 591.432 1.94962 3.34766 0
M  V30 6113 H 591.846 4.15816 3.19683 0
M  V30 6114 H 593.32 3.11849 4.55471 0
M  V30 6115 H 593.797 1.47447 4.1371 0
M  V30 6116 H 594.403 2.83735 3.16819 0
M  V30 6117 N 592.718 -0.936591 1.26751 0
M  V30 6118 C 593.668 -2.0219 1.05371 0
M  V30 6119 C 594.652 -1.60893 -0.0154112 0
M  V30 6120 O 595.844 -1.75843 0.202085 0
M  V30 6121 C 592.973 -3.36222 0.693541 0
M  V30 6122 C 592.059 -3.8399 1.80035 0
M  V30 6123 N 592.45 -4.0436 3.03852 0
M  V30 6124 C 590.748 -4.12945 1.685 0
M  V30 6125 C 591.449 -4.44 3.75818 0
M  V30 6126 N 590.425 -4.50966 3.03531 0
M  V30 6127 H 594.227 -2.15958 1.99347 0
M  V30 6128 H 591.741 -1.12277 1.17335 0
M  V30 6129 H 593.738 -4.13625 0.521513 0
M  V30 6130 H 592.398 -3.23821 -0.238693 0
M  V30 6131 H 593.409 -3.9092 3.39709 0
M  V30 6132 H 590.086 -4.09308 0.822986 0
M  V30 6133 H 591.476 -4.67914 4.82189 0
M  V30 6134 N 594.196 -1.08629 -1.14182 0
M  V30 6135 C 595.612 -0.814363 -1.3726 0
M  V30 6136 C 595.812 0.575271 -1.93114 0
M  V30 6137 O 594.868 1.33165 -2.1453 0
M  V30 6138 C 596.181 -1.8989 -2.33157 0
M  V30 6139 C 597.729 -1.92518 -2.46791 0
M  V30 6140 C 598.204 -3.00092 -3.45989 0
M  V30 6141 N 599.695 -2.99279 -3.53534 0
M  V30 6142 C 600.43 -3.79158 -4.30147 0
M  V30 6143 N 599.926 -4.68923 -5.09983 0
M  V30 6144 N 601.719 -3.67451 -4.25366 0
M  V30 6145 H 593.87 -1.98232 -0.762758 0
M  V30 6146 H 596.133 -0.860383 -0.398051 0
M  V30 6147 H 595.839 -2.89809 -1.99257 0
M  V30 6148 H 595.713 -1.77013 -3.33086 0
M  V30 6149 H 598.1 -0.932425 -2.79982 0
M  V30 6150 H 598.181 -2.09473 -1.46816 0
M  V30 6151 H 597.825 -3.99575 -3.13532 0
M  V30 6152 H 597.755 -2.80382 -4.45751 0
M  V30 6153 H 600.246 -2.3422 -2.96563 0
M  V30 6154 H 600.559 -5.26475 -5.65724 0
M  V30 6155 H 598.904 -4.72964 -5.09244 0
M  V30 6156 H 602.095 -2.9669 -3.62067 0
M  V30 6157 H 602.268 -4.29944 -4.84822 0
M  V30 6158 N 595.674 1.31259 -0.872281 0
M  V30 6159 C 596.637 2.26744 -0.334656 0
M  V30 6160 C 597.637 1.52307 0.515681 0
M  V30 6161 O 598.827 1.71148 0.324656 0
M  V30 6162 C 595.959 3.36841 0.524482 0
M  V30 6163 H 597.152 2.75812 -1.17762 0
M  V30 6164 H 594.705 1.42232 -0.648064 0
M  V30 6165 H 595.44 2.93069 1.38855 0
M  V30 6166 H 595.225 3.92009 -0.0844299 0
M  V30 6167 H 596.715 4.07944 0.892838 0
M  V30 6168 N 597.152 0.631951 1.44375 0
M  V30 6169 C 598.082 -0.0593243 2.33425 0
M  V30 6170 C 599.063 -0.833964 1.48253 0
M  V30 6171 O 600.248 -0.799682 1.76971 0
M  V30 6172 C 597.378 -1.04096 3.31333 0
M  V30 6173 C 596.332 -0.377899 4.26328 0
M  V30 6174 C 595.658 -1.4695 5.14111 0
M  V30 6175 C 596.958 0.716371 5.17364 0
M  V30 6176 H 598.652 0.684287 2.91475 0
M  V30 6177 H 596.198 0.330518 1.40156 0
M  V30 6178 H 598.151 -1.53331 3.92514 0
M  V30 6179 H 596.875 -1.81547 2.71493 0
M  V30 6180 H 595.534 0.0938054 3.6648 0
M  V30 6181 H 595.182 -2.2349 4.50623 0
M  V30 6182 H 594.882 -1.03121 5.78481 0
M  V30 6183 H 596.406 -1.96363 5.78164 0
M  V30 6184 H 597.82 0.307089 5.72477 0
M  V30 6185 H 596.217 1.07784 5.90341 0
M  V30 6186 H 597.287 1.58316 4.58327 0
M  V30 6187 N 598.631 -1.53133 0.372548 0
M  V30 6188 C 599.563 -2.23557 -0.505444 0
M  V30 6189 C 600.576 -1.25211 -1.04049 0
M  V30 6190 O 601.765 -1.51391 -0.945675 0
M  V30 6191 C 598.865 -2.92516 -1.71136 0
M  V30 6192 C 598.038 -4.17428 -1.30661 0
M  V30 6193 C 597.097 -4.69535 -2.37536 0
M  V30 6194 O 596.123 -5.33042 -1.99637 0
M  V30 6195 N 597.325 -4.47947 -3.6922 0
M  V30 6196 H 600.09 -2.9954 0.0978259 0
M  V30 6197 H 597.651 -1.60684 0.198068 0
M  V30 6198 H 599.643 -3.24281 -2.42124 0
M  V30 6199 H 598.213 -2.19944 -2.22134 0
M  V30 6200 H 597.433 -3.91888 -0.426292 0
M  V30 6201 H 598.721 -4.98622 -1.01259 0
M  V30 6202 H 598.119 -3.97219 -4.02783 0
M  V30 6203 H 596.676 -4.84245 -4.36292 0
M  V30 6204 N 600.109 -0.101901 -1.5727 0
M  V30 6205 C 601.039 0.851544 -2.17419 0
M  V30 6206 C 602.02 1.28942 -1.10941 0
M  V30 6207 O 603.205 1.35509 -1.39107 0
M  V30 6208 C 600.335 2.10816 -2.75996 0
M  V30 6209 C 599.289 1.80867 -3.87906 0
M  V30 6210 C 598.615 3.13413 -4.33216 0
M  V30 6211 C 599.915 1.0903 -5.10793 0
M  V30 6212 H 601.609 0.350381 -2.97343 0
M  V30 6213 H 599.155 0.16709 -1.43027 0
M  V30 6214 H 601.108 2.77959 -3.16729 0
M  V30 6215 H 599.832 2.63227 -1.93337 0
M  V30 6216 H 598.491 1.16119 -3.47724 0
M  V30 6217 H 598.139 3.63725 -3.47438 0
M  V30 6218 H 597.839 2.94155 -5.08671 0
M  V30 6219 H 599.363 3.81704 -4.76586 0
M  V30 6220 H 600.777 1.66295 -5.48652 0
M  V30 6221 H 599.174 0.99927 -5.91722 0
M  V30 6222 H 600.244 0.0741704 -4.84843 0
M  V30 6223 N 601.587 1.56661 0.17182 0
M  V30 6224 C 602.517 1.99401 1.21498 0
M  V30 6225 C 603.498 0.869516 1.46197 0
M  V30 6226 O 604.683 1.13556 1.57539 0
M  V30 6227 C 601.813 2.35346 2.55401 0
M  V30 6228 C 600.767 3.5075 2.45272 0
M  V30 6229 C 600.093 3.72437 3.8366 0
M  V30 6230 C 601.393 4.84216 1.95787 0
M  V30 6231 H 603.087 2.86792 0.859699 0
M  V30 6232 H 600.633 1.37977 0.412103 0
M  V30 6233 H 602.586 2.63843 3.2858 0
M  V30 6234 H 601.31 1.44864 2.92715 0
M  V30 6235 H 599.969 3.2238 1.74547 0
M  V30 6236 H 599.617 2.79246 4.18367 0
M  V30 6237 H 599.317 4.50087 3.77751 0
M  V30 6238 H 600.841 4.03334 4.58426 0
M  V30 6239 H 602.255 5.11592 2.5874 0
M  V30 6240 H 600.652 5.65498 2.00827 0
M  V30 6241 H 601.722 4.76243 0.912159 0
M  V30 6242 N 603.065 -0.440357 1.51323 0
M  V30 6243 C 604.015 -1.53263 1.68803 0
M  V30 6244 C 604.999 -1.51494 0.542057 0
M  V30 6245 O 606.191 -1.57999 0.797839 0
M  V30 6246 C 603.32 -2.91479 1.8137 0
M  V30 6247 C 602.406 -2.98015 3.01742 0
M  V30 6248 N 602.797 -2.743 4.24962 0
M  V30 6249 C 601.095 -3.29173 3.00934 0
M  V30 6250 C 601.796 -2.86601 5.06197 0
M  V30 6251 N 600.772 -3.1814 4.40781 0
M  V30 6252 H 604.574 -1.33675 2.61741 0
M  V30 6253 H 602.088 -0.647616 1.48929 0
M  V30 6254 H 604.085 -3.70055 1.92002 0
M  V30 6255 H 602.745 -3.12089 0.896117 0
M  V30 6256 H 603.756 -2.49287 4.53957 0
M  V30 6257 H 600.433 -3.55577 2.18796 0
M  V30 6258 H 601.823 -2.72246 6.14274 0
M  V30 6259 N 604.543 -1.41418 -0.695603 0
M  V30 6260 C 605.791 -1.40496 -1.45277 0
M  V30 6261 C 606.112 -0.0149538 -1.94994 0
M  V30 6262 O 605.382 0.9432 -1.71699 0
M  V30 6263 H 603.962 -0.517147 -0.539044 0
M  V30 6264 H 606.624 -1.76656 -0.823321 0
M  V30 6265 H 605.72 -2.09214 -2.31595 0
M  V30 6266 N 606.021 0.929856 -1.27246 0
M  V30 6267 C 607.269 1.674 -1.13233 0
M  V30 6268 C 607.59 1.92311 0.322744 0
M  V30 6269 O 606.86 1.52784 1.22612 0
M  V30 6270 H 605.44 0.620411 -0.416052 0
M  V30 6271 H 608.102 1.11663 -1.59741 0
M  V30 6272 H 607.198 2.64308 -1.65975 0
M  V30 6273 N 607.499 1.09233 1.13605 0
M  V30 6274 C 608.747 0.825525 1.84471 0
M  V30 6275 C 609.068 -0.650702 1.83823 0
M  V30 6276 O 608.338 -1.47204 1.29259 0
M  V30 6277 H 606.918 0.3024 0.683054 0
M  V30 6278 H 609.58 1.38006 1.37624 0
M  V30 6279 H 608.676 1.17727 2.89045 0
M  V30 6280 N 608.977 -1.30795 0.87923 0
M  V30 6281 C 610.207 -2.00237 0.50881 0
M  V30 6282 C 610.615 -1.66115 -0.905682 0
M  V30 6283 O 609.958 -0.89138 -1.60624 0
M  V30 6284 C 610.02 -3.54508 0.597003 0
M  V30 6285 C 609.684 -4.12131 1.97477 0
M  V30 6286 C 610.681 -4.28552 2.94346 0
M  V30 6287 C 608.366 -4.47644 2.2786 0
M  V30 6288 C 610.36 -4.79689 4.19735 0
M  V30 6289 C 608.047 -4.98481 3.53496 0
M  V30 6290 C 609.045 -5.14456 4.49248 0
M  V30 6291 O 608.733 -5.64199 5.72656 0
M  V30 6292 H 608.465 -0.647026 0.195788 0
M  V30 6293 H 611.019 -1.67785 1.1848 0
M  V30 6294 H 609.249 -3.86461 -0.135945 0
M  V30 6295 H 610.938 -4.05198 0.238684 0
M  V30 6296 H 611.704 -4.01424 2.72183 0
M  V30 6297 H 607.583 -4.34481 1.54102 0
M  V30 6298 H 611.127 -4.92073 4.9448 0
M  V30 6299 H 607.024 -5.25044 3.75498 0
M  V30 6300 H 607.792 -5.82551 5.74957 0
M  V30 6301 N 610.455 -0.639598 -1.44038 0
M  V30 6302 C 611.68 -0.153117 -2.06834 0
M  V30 6303 C 612.105 1.16676 -1.47541 0
M  V30 6304 O 611.463 1.71769 -0.580093 0
M  V30 6305 C 611.511 -0.0609169 -3.60549 0
M  V30 6306 O 610.615 0.98071 -4.00569 0
M  V30 6307 H 609.956 -0.0886402 -0.658057 0
M  V30 6308 H 612.486 -0.878674 -1.84771 0
M  V30 6309 H 612.496 0.126892 -4.07803 0
M  V30 6310 H 611.171 -1.0245 -4.03084 0
M  V30 6311 H 609.748 0.766789 -3.64931 0
M  V30 6312 N 611.933 1.52934 -0.380664 0
M  V30 6313 C 612.88 2.26197 0.458641 0
M  V30 6314 C 613.85 1.27462 1.06502 0
M  V30 6315 O 615.035 1.56274 1.09467 0
M  V30 6316 C 612.175 3.06571 1.58456 0
M  V30 6317 C 611.288 4.20222 1.00189 0
M  V30 6318 C 610.423 4.88007 2.09815 0
M  V30 6319 C 609.462 5.93665 1.49092 0
M  V30 6320 N 608.599 6.55081 2.52613 0
M  V30 6321 H 613.439 2.975 -0.172595 0
M  V30 6322 H 610.976 1.4678 -0.0969426 0
M  V30 6323 H 612.934 3.51455 2.24801 0
M  V30 6324 H 611.564 2.37494 2.18624 0
M  V30 6325 H 610.616 3.79714 0.228292 0
M  V30 6326 H 611.928 4.96102 0.518064 0
M  V30 6327 H 611.082 5.36151 2.83948 0
M  V30 6328 H 609.821 4.11632 2.61555 0
M  V30 6329 H 608.826 5.44868 0.7348 0
M  V30 6330 H 610.051 6.71969 0.981582 0
M  V30 6331 H 607.997 5.8155 3.03538 0
M  V30 6332 H 607.914 7.26548 2.08961 0
M  V30 6333 H 609.182 7.07871 3.26402 0
M  V30 6334 N 613.412 0.11024 1.57214 0
M  V30 6335 C 614.36 -0.860586 2.16094 0
M  V30 6336 C 615.354 -1.28156 1.1078 0
M  V30 6337 O 616.56 -1.25433 1.29099 0
M  V30 6338 H 612.935 -0.295606 0.691463 0
M  V30 6339 H 614.906 -0.33942 2.96463 0
M  V30 6340 C 613.655 -2.10421 2.768 0
M  V30 6341 H 612.978 -1.7892 3.5753 0
M  V30 6342 H 614.418 -2.76375 3.21547 0
M  V30 6343 C 612.877 -2.88823 1.73444 0
M  V30 6344 O 613.407 -3.839 1.18251 0
M  V30 6345 N 611.613 -2.52649 1.43586 0
M  V30 6346 H 611.16 -1.754 1.8866 0
M  V30 6347 H 611.118 -3.05403 0.746735 0
M  V30 6348 N 614.89 -1.56749 -0.16351 0
M  V30 6349 C 616.138 -1.82074 -0.87713 0
M  V30 6350 C 616.459 -0.688503 -1.82441 0
M  V30 6351 O 615.729 0.291085 -1.93725 0
M  V30 6352 H 614.309 -0.671677 -0.326893 0
M  V30 6353 H 616.971 -1.9423 -0.161459 0
M  V30 6354 H 616.067 -2.76407 -1.44934 0
M  V30 6355 N 616.368 0.432326 -1.51554 0
M  V30 6356 C 617.331 1.50765 -1.72634 0
M  V30 6357 C 618.331 1.49334 -0.596314 0
M  V30 6358 O 619.521 1.51268 -0.863925 0
M  V30 6359 C 616.653 2.90284 -1.7874 0
M  V30 6360 H 617.846 1.33377 -2.68609 0
M  V30 6361 H 615.399 0.661329 -1.4162 0
M  V30 6362 H 616.134 3.13071 -0.845977 0
M  V30 6363 H 615.919 2.92727 -2.6087 0
M  V30 6364 H 617.409 3.68282 -1.96871 0
M  V30 6365 N 617.846 1.41785 0.688094 0
M  V30 6366 C 618.794 1.44436 1.82321 0
M  V30 6367 C 619.788 0.321544 1.6632 0
M  V30 6368 O 620.994 0.493931 1.73091 0
M  V30 6369 H 617.369 0.452084 0.600936 0
M  V30 6370 H 619.34 2.40087 1.77202 0
M  V30 6371 C 618.089 1.35071 3.20392 0
M  V30 6372 H 617.412 2.2076 3.33324 0
M  V30 6373 H 618.852 1.40988 3.99873 0
M  V30 6374 C 617.311 0.0639127 3.36839 0
M  V30 6375 O 617.841 -0.888495 3.91751 0
M  V30 6376 N 616.047 -0.0146114 2.90596 0
M  V30 6377 H 615.594 0.761191 2.46097 0
M  V30 6378 H 615.552 -0.874988 3.01979 0
M  V30 6379 N 619.324 -0.923095 1.27737 0
M  V30 6380 C 620.74 -1.19985 1.05241 0
M  V30 6381 C 620.94 -2.00391 -0.21113 0
M  V30 6382 O 619.996 -2.35324 -0.915366 0
M  V30 6383 C 621.309 -1.94352 2.29451 0
M  V30 6384 C 622.857 -2.07273 2.34536 0
M  V30 6385 C 623.332 -2.85046 3.58487 0
M  V30 6386 N 624.823 -2.92612 3.59072 0
M  V30 6387 C 625.558 -3.53266 4.51654 0
M  V30 6388 N 625.054 -4.15274 5.54545 0
M  V30 6389 N 626.847 -3.50714 4.39268 0
M  V30 6390 H 618.998 -0.386042 2.08862 0
M  V30 6391 H 621.261 -0.233407 0.918817 0
M  V30 6392 H 620.967 -1.42692 3.21453 0
M  V30 6393 H 620.841 -2.94947 2.3513 0
M  V30 6394 H 623.228 -2.58117 1.43037 0
M  V30 6395 H 623.309 -1.05884 2.32857 0
M  V30 6396 H 622.953 -2.34884 4.50324 0
M  V30 6397 H 622.883 -3.8673 3.57418 0
M  V30 6398 H 625.374 -2.48547 2.84663 0
M  V30 6399 H 625.687 -4.59507 6.21348 0
M  V30 6400 H 624.032 -4.13806 5.58382 0
M  V30 6401 H 627.223 -3.01475 3.58093 0
M  V30 6402 H 627.396 -3.97693 5.1161 0
M  V30 6403 N 620.802 -1.09834 -1.13024 0
M  V30 6404 C 622.048 -0.848072 -1.84876 0
M  V30 6405 C 622.403 0.619663 -1.82148 0
M  V30 6406 O 621.696 1.45067 -1.25164 0
M  V30 6407 C 621.89 -1.32263 -3.32026 0
M  V30 6408 C 621.719 -2.83497 -3.49084 0
M  V30 6409 C 620.489 -3.51425 -3.63082 0
M  V30 6410 C 622.687 -3.81623 -3.44773 0
M  V30 6411 N 620.669 -4.91042 -3.68443 0
M  V30 6412 C 622.04 -5.07217 -3.56555 0
M  V30 6413 C 624.095 -3.74419 -3.282 0
M  V30 6414 C 622.798 -6.26457 -3.53474 0
M  V30 6415 C 624.824 -4.93151 -3.26429 0
M  V30 6416 C 624.186 -6.1759 -3.38765 0
M  V30 6417 H 620.285 -0.363249 -0.692513 0
M  V30 6418 H 622.869 -1.39952 -1.35357 0
M  V30 6419 H 621.04 -0.79858 -3.80102 0
M  V30 6420 H 622.772 -1.01725 -3.91707 0
M  V30 6421 H 619.527 -3.0186 -3.64935 0
M  V30 6422 H 619.951 -5.63782 -3.74805 0
M  V30 6423 H 624.593 -2.79132 -3.17561 0
M  V30 6424 H 622.311 -7.22039 -3.62884 0
M  V30 6425 H 625.897 -4.8928 -3.14796 0
M  V30 6426 H 624.777 -7.07925 -3.37361 0
M  V30 6427 N 622.28 1.30327 -0.886154 0
M  V30 6428 C 623.51 1.99964 -0.519421 0
M  V30 6429 C 623.918 1.66593 0.89686 0
M  V30 6430 O 623.261 0.899886 1.60149 0
M  V30 6431 C 623.323 3.54187 -0.615795 0
M  V30 6432 C 622.987 4.11078 -1.9966 0
M  V30 6433 C 623.984 4.26985 -2.96614 0
M  V30 6434 C 621.669 4.46429 -2.30231 0
M  V30 6435 C 623.663 4.77456 -4.22273 0
M  V30 6436 C 621.35 4.966 -3.56135 0
M  V30 6437 C 622.348 5.12066 -4.5197 0
M  V30 6438 O 622.036 5.61154 -5.7564 0
M  V30 6439 H 621.768 0.645979 -0.199217 0
M  V30 6440 H 624.322 1.67154 -1.19368 0
M  V30 6441 H 622.552 3.86528 0.115448 0
M  V30 6442 H 624.241 4.05065 -0.26017 0
M  V30 6443 H 625.007 3.99975 -2.74308 0
M  V30 6444 H 620.886 4.33658 -1.56404 0
M  V30 6445 H 624.43 4.89444 -4.97082 0
M  V30 6446 H 620.327 5.23045 -3.78277 0
M  V30 6447 H 621.095 5.79494 -5.78039 0
M  V30 6448 N 623.758 0.647228 1.43697 0
M  V30 6449 C 625.035 0.0883758 1.954 0
M  V30 6450 C 625.415 -1.39006 1.58873 0
M  V30 6451 O 624.763 -2.11255 0.87083 0
M  V30 6452 C 624.973 0.328263 3.47453 0
M  V30 6453 C 626.321 0.230009 4.23977 0
M  V30 6454 O 627.345 0.260496 3.55246 0
M  V30 6455 O 626.204 0.148615 5.46298 0
M  V30 6456 H 623.298 -0.0130683 0.826897 0
M  V30 6457 H 625.844 0.72005 1.53666 0
M  V30 6458 H 624.616 1.3535 3.67146 0
M  V30 6459 H 624.239 -0.336772 3.96171 0
M  V30 6460 N 625.236 -1.5273 0.388769 0
M  V30 6461 C 626.183 -2.26437 -0.446639 0
M  V30 6462 C 627.153 -1.28025 -1.05824 0
M  V30 6463 O 628.338 -1.56852 -1.08637 0
M  V30 6464 C 625.478 -3.07407 -1.56828 0
M  V30 6465 C 624.591 -4.20747 -0.979589 0
M  V30 6466 C 623.726 -4.89113 -2.07224 0
M  V30 6467 C 622.765 -5.94447 -1.45942 0
M  V30 6468 N 621.902 -6.56411 -2.49135 0
M  V30 6469 H 626.742 -2.97404 0.18837 0
M  V30 6470 H 624.279 -1.46727 0.104725 0
M  V30 6471 H 626.237 -3.52642 -2.22934 0
M  V30 6472 H 624.867 -2.3865 -2.17361 0
M  V30 6473 H 623.919 -3.7983 -0.208151 0
M  V30 6474 H 625.231 -4.9637 -0.491747 0
M  V30 6475 H 624.385 -5.3765 -2.81101 0
M  V30 6476 H 623.124 -4.13013 -2.59368 0
M  V30 6477 H 622.129 -5.4525 -0.705894 0
M  V30 6478 H 623.354 -6.7248 -0.945932 0
M  V30 6479 H 621.3 -5.83152 -3.00449 0
M  V30 6480 H 621.217 -7.27645 -2.05105 0
M  V30 6481 H 622.485 -7.09592 -3.22644 0
M  V30 6482 N 626.714 -0.118576 -1.57153 0
M  V30 6483 C 627.939 0.550582 -1.99958 0
M  V30 6484 C 628.364 1.59458 -0.997736 0
M  V30 6485 O 627.722 1.81274 0.0306269 0
M  V30 6486 C 627.77 1.15379 -3.41643 0
M  V30 6487 O 626.874 2.26932 -3.44348 0
M  V30 6488 H 626.215 0.137567 -0.649593 0
M  V30 6489 H 628.745 -0.206926 -2.03551 0
M  V30 6490 H 628.755 1.48942 -3.79843 0
M  V30 6491 H 627.43 0.389087 -4.14076 0
M  V30 6492 H 626.007 1.94812 -3.17967 0
M  V30 6493 N 628.193 1.56834 0.155195 0
M  V30 6494 C 629.123 2.00678 1.19376 0
M  V30 6495 C 630.104 0.884973 1.45266 0
M  V30 6496 O 631.289 1.1522 1.56326 0
M  V30 6497 C 628.419 2.38042 2.5289 0
M  V30 6498 C 627.373 3.53332 2.41538 0
M  V30 6499 C 626.699 3.76485 3.79688 0
M  V30 6500 C 627.999 4.86265 1.9064 0
M  V30 6501 H 629.693 2.87688 0.829232 0
M  V30 6502 H 627.239 1.38407 0.397445 0
M  V30 6503 H 629.192 2.67314 3.25763 0
M  V30 6504 H 627.916 1.4796 2.91162 0
M  V30 6505 H 626.575 3.24213 1.71117 0
M  V30 6506 H 626.223 2.83667 4.15382 0
M  V30 6507 H 625.923 4.54068 3.72956 0
M  V30 6508 H 627.447 4.08174 4.54122 0
M  V30 6509 H 628.861 5.14308 2.53299 0
M  V30 6510 H 627.258 5.67597 1.94818 0
M  V30 6511 H 628.328 4.77184 0.861596 0
M  V30 6512 N 629.671 -0.424282 1.51781 0
M  V30 6513 C 630.603 -1.53457 1.70246 0
M  V30 6514 C 631.616 -1.52004 0.582967 0
M  V30 6515 O 632.805 -1.56544 0.857683 0
M  V30 6516 C 629.905 -2.92368 1.71389 0
M  V30 6517 C 629.078 -3.1818 3.00133 0
M  V30 6518 C 628.137 -4.36884 2.9329 0
M  V30 6519 O 627.163 -4.34901 3.67219 0
M  V30 6520 N 628.365 -5.4117 2.10036 0
M  V30 6521 H 631.13 -1.38017 2.66029 0
M  V30 6522 H 628.691 -0.613394 1.4983 0
M  V30 6523 H 630.683 -3.6982 1.64362 0
M  V30 6524 H 629.253 -3.0134 0.831449 0
M  V30 6525 H 628.473 -2.28908 3.20928 0
M  V30 6526 H 629.761 -3.32261 3.85331 0
M  V30 6527 H 629.159 -5.45623 1.49373 0
M  V30 6528 H 627.716 -6.17425 2.08878 0
M  V30 6529 N 631.149 -1.42148 -0.680565 0
M  V30 6530 C 632.396 -1.4231 -1.44063 0
M  V30 6531 C 632.724 -0.037488 -1.94464 0
M  V30 6532 O 631.979 0.953184 -1.70918 0
M  V30 6533 C 632.278 -2.38945 -2.65782 0
M  V30 6534 C 631.944 -3.85455 -2.33956 0
M  V30 6535 C 630.606 -4.25364 -2.24987 0
M  V30 6536 C 632.958 -4.77895 -2.08004 0
M  V30 6537 C 630.286 -5.55701 -1.88184 0
M  V30 6538 C 632.638 -6.08568 -1.72706 0
M  V30 6539 C 631.302 -6.47482 -1.62244 0
M  V30 6540 H 630.572 -0.520748 -0.527164 0
M  V30 6541 H 633.219 -1.7505 -0.776524 0
M  V30 6542 H 631.524 -1.99511 -3.37198 0
M  V30 6543 H 633.221 -2.36336 -3.23954 0
M  V30 6544 H 629.811 -3.53855 -2.41836 0
M  V30 6545 H 633.995 -4.47854 -2.1387 0
M  V30 6546 H 629.251 -5.84718 -1.78648 0
M  V30 6547 H 633.425 -6.79688 -1.5165 0
M  V30 6548 H 631.052 -7.48387 -1.33496 0
M  V30 6549 N 632.627 0.916307 -1.28225 0
M  V30 6550 C 633.873 1.66765 -1.154 0
M  V30 6551 C 634.206 1.91912 0.297251 0
M  V30 6552 O 633.481 1.51766 1.21644 0
M  V30 6553 C 633.764 3.02715 -1.95028 0
M  V30 6554 C 633.617 2.84738 -3.48201 0
M  V30 6555 C 634.936 4.03215 -1.76369 0
M  V30 6556 H 632.055 0.605205 -0.42059 0
M  V30 6557 H 634.697 1.06255 -1.57512 0
M  V30 6558 H 632.847 3.54365 -1.59242 0
M  V30 6559 H 634.519 2.40118 -3.9388 0
M  V30 6560 H 632.762 2.19848 -3.73964 0
M  V30 6561 H 633.433 3.8127 -3.99171 0
M  V30 6562 H 635.909 3.60617 -2.07593 0
M  V30 6563 H 634.785 4.96306 -2.34459 0
M  V30 6564 H 635.046 4.36288 -0.71452 0
M  V30 6565 N 634.105 1.10431 1.1244 0
M  V30 6566 C 635.351 0.847972 1.84221 0
M  V30 6567 C 635.684 -0.624903 1.83871 0
M  V30 6568 O 634.959 -1.46074 1.28423 0
M  V30 6569 C 635.242 1.39695 3.319 0
M  V30 6570 C 635.095 2.93668 3.40704 0
M  V30 6571 C 636.414 1.03924 4.27654 0
M  V30 6572 H 633.533 0.309502 0.668863 0
M  V30 6573 H 636.175 1.36745 1.31912 0
M  V30 6574 H 634.325 0.955095 3.76577 0
M  V30 6575 H 635.997 3.46379 3.04662 0
M  V30 6576 H 634.24 3.30272 2.81252 0
M  V30 6577 H 634.911 3.27162 4.446 0
M  V30 6578 H 637.387 1.42049 3.91102 0
M  V30 6579 H 636.263 1.45027 5.29394 0
M  V30 6580 H 636.524 -0.051336 4.4207 0
M  V30 6581 N 635.583 -1.29855 0.893053 0
M  V30 6582 C 636.831 -1.9544 0.514566 0
M  V30 6583 C 637.152 -1.70795 -0.940959 0
M  V30 6584 O 636.422 -1.03601 -1.66264 0
M  V30 6585 H 635.002 -0.723137 0.187302 0
M  V30 6586 H 637.664 -1.58234 1.13789 0
M  V30 6587 H 636.76 -3.04341 0.691581 0
M  V30 6588 N 637.061 -0.65484 -1.43351 0
M  V30 6589 C 638.477 -0.32255 -1.56307 0
M  V30 6590 C 638.677 1.17324 -1.63821 0
M  V30 6591 O 637.733 1.95813 -1.59417 0
M  V30 6592 C 639.046 -1.03533 -2.82314 0
M  V30 6593 C 640.594 -1.01574 -2.9606 0
M  V30 6594 C 641.069 -1.70945 -4.24902 0
M  V30 6595 N 642.56 -1.67716 -4.3177 0
M  V30 6596 C 643.295 -2.18265 -5.30234 0
M  V30 6597 N 642.791 -2.7711 -6.34966 0
M  V30 6598 N 644.584 -2.08756 -5.21898 0
M  V30 6599 H 636.735 -1.62549 -1.36717 0
M  V30 6600 H 638.998 -0.683676 -0.656727 0
M  V30 6601 H 638.704 -2.09045 -2.8283 0
M  V30 6602 H 638.578 -0.587913 -3.7259 0
M  V30 6603 H 640.965 0.0309834 -2.95084 0
M  V30 6604 H 641.046 -1.50186 -2.07069 0
M  V30 6605 H 640.69 -2.75574 -4.26639 0
M  V30 6606 H 640.62 -1.19797 -5.12793 0
M  V30 6607 H 643.111 -1.24777 -3.56706 0
M  V30 6608 H 643.424 -3.13353 -7.06421 0
M  V30 6609 H 641.769 -2.81171 -6.35585 0
M  V30 6610 H 644.96 -1.62488 -4.38994 0
M  V30 6611 H 645.133 -2.48459 -5.98475 0
M  V30 6612 N 638.539 1.52521 -0.396863 0
M  V30 6613 C 639.816 1.94112 0.240842 0
M  V30 6614 C 640.196 1.33288 1.637 0
M  V30 6615 O 639.544 0.503901 2.22875 0
M  V30 6616 C 639.754 3.48033 0.259567 0
M  V30 6617 C 641.102 4.21822 0.484866 0
M  V30 6618 O 642.126 3.54579 0.339453 0
M  V30 6619 O 640.985 5.41042 0.770412 0
M  V30 6620 H 638.079 0.812973 0.151671 0
M  V30 6621 H 640.625 1.63572 -0.451918 0
M  V30 6622 H 639.397 3.84655 -0.718078 0
M  V30 6623 H 639.02 3.84899 0.996937 0
M  V30 6624 N 640.017 0.126909 1.57088 0
M  V30 6625 C 641.265 -0.528123 1.95078 0
M  V30 6626 C 641.586 -1.66708 1.0116 0
M  V30 6627 O 640.856 -1.95777 0.0693527 0
M  V30 6628 H 639.436 -0.198087 0.720257 0
M  V30 6629 H 642.098 0.197703 1.93895 0
M  V30 6630 H 641.194 -0.917507 2.98309 0
M  V30 6631 N 641.495 -1.56914 -0.146875 0
M  V30 6632 C 642.723 -1.87515 -0.874394 0
M  V30 6633 C 643.138 -0.715116 -1.74733 0
M  V30 6634 O 642.495 0.315113 -1.79759 0
M  V30 6635 C 642.546 -3.17362 -1.731 0
M  V30 6636 O 642.267 -4.28897 -0.893245 0
M  V30 6637 C 643.768 -3.61479 -2.56609 0
M  V30 6638 H 640.988 -0.621546 -0.252827 0
M  V30 6639 H 643.532 -2.04023 -0.139627 0
M  V30 6640 H 641.687 -3.02608 -2.41883 0
M  V30 6641 H 642.101 -5.03146 -1.48137 0
M  V30 6642 H 643.575 -4.5517 -3.12289 0
M  V30 6643 H 644.052 -2.86773 -3.32653 0
M  V30 6644 H 644.658 -3.78927 -1.93117 0
M  V30 6645 N 642.974 0.416227 -1.52004 0
M  V30 6646 C 644.214 1.17307 -1.67387 0
M  V30 6647 C 644.578 1.87959 -0.39183 0
M  V30 6648 O 645.779 2.65472 -0.421671 0
M  V30 6649 C 644.05 2.14661 -2.85754 0
M  V30 6650 S 645.609 2.98549 -3.21581 0
M  V30 6651 H 642.427 0.397505 -0.5895 0
M  V30 6652 H 645.029 0.461431 -1.89976 0
M  V30 6653 H 643.733 1.61431 -3.77317 0
M  V30 6654 H 643.264 2.90375 -2.65417 0
M  V30 6655 H 645.279 4.16536 -2.69652 0
M  V30 6656 N 644.452 1.42507 0.673017 0
M  V30 6657 C 645.7 1.42789 1.43023 0
M  V30 6658 C 646.021 0.0459738 1.94946 0
M  V30 6659 O 645.291 -0.915765 1.73178 0
M  V30 6660 H 643.871 0.525657 0.530748 0
M  V30 6661 H 646.533 1.77944 0.795113 0
M  V30 6662 H 645.629 2.12872 2.28237 0
M  V30 6663 N 645.93 -0.909495 1.28709 0
M  V30 6664 C 647.176 -1.66151 1.16283 0
M  V30 6665 C 647.509 -1.92067 -0.287069 0
M  V30 6666 O 646.784 -1.52409 -1.20837 0
M  V30 6667 C 647.067 -3.01676 1.9663 0
M  V30 6668 C 646.92 -2.82888 3.49707 0
M  V30 6669 C 648.239 -4.02274 1.78504 0
M  V30 6670 H 645.358 -0.602966 0.423793 0
M  V30 6671 H 648 -1.05418 1.58073 0
M  V30 6672 H 646.15 -3.53515 1.61119 0
M  V30 6673 H 647.822 -2.38026 3.95147 0
M  V30 6674 H 646.065 -2.17862 3.75125 0
M  V30 6675 H 646.736 -3.79147 4.01187 0
M  V30 6676 H 649.212 -3.59511 2.09503 0
M  V30 6677 H 648.088 -4.95056 2.37088 0
M  V30 6678 H 648.349 -4.35903 0.737647 0
M  V30 6679 N 647.408 -1.11026 -1.11852 0
M  V30 6680 C 648.654 -0.857729 -1.83768 0
M  V30 6681 C 648.987 0.615143 -1.842 0
M  V30 6682 O 648.262 1.45391 -1.29196 0
M  V30 6683 C 648.545 -1.41453 -3.31154 0
M  V30 6684 C 648.398 -2.95471 -3.39142 0
M  V30 6685 C 649.717 -1.0619 -4.27097 0
M  V30 6686 H 646.836 -0.313044 -0.667212 0
M  V30 6687 H 649.478 -1.37443 -1.31185 0
M  V30 6688 H 647.628 -0.975052 -3.76065 0
M  V30 6689 H 649.3 -3.4799 -3.02821 0
M  V30 6690 H 647.543 -3.31759 -2.79497 0
M  V30 6691 H 648.214 -3.29515 -4.42859 0
M  V30 6692 H 650.69 -1.44122 -3.90344 0
M  V30 6693 H 649.566 -1.47832 -5.28618 0
M  V30 6694 H 649.827 0.0278912 -4.42091 0
M  V30 6695 N 648.886 1.2938 -0.899927 0
M  V30 6696 C 650.126 1.97332 -0.532871 0
M  V30 6697 C 650.49 1.69385 0.904029 0
M  V30 6698 O 651.691 2.30793 1.37797 0
M  V30 6699 C 649.962 3.47927 -0.817393 0
M  V30 6700 S 651.521 4.3528 -0.55468 0
M  V30 6701 H 648.339 0.682966 -0.197683 0
M  V30 6702 H 650.941 1.57189 -1.16241 0
M  V30 6703 H 649.645 3.65761 -1.86138 0
M  V30 6704 H 649.176 3.93006 -0.175978 0
M  V30 6705 H 651.191 4.92557 0.600182 0
M  V30 6706 N 650.364 0.662433 1.43002 0
M  V30 6707 C 651.274 -0.0239199 2.34588 0
M  V30 6708 C 652.29 -0.802255 1.54402 0
M  V30 6709 O 653.466 -0.747401 1.87018 0
M  V30 6710 C 650.531 -0.972098 3.32793 0
M  V30 6711 C 649.592 -0.189673 4.28881 0
M  V30 6712 C 648.825 -1.09269 5.22395 0
M  V30 6713 O 649.048 -2.33209 5.20547 0
M  V30 6714 O 647.982 -0.560136 5.99288 0
M  V30 6715 H 651.808 0.730171 2.94792 0
M  V30 6716 H 649.393 0.422635 1.43297 0
M  V30 6717 H 651.275 -1.51676 3.93157 0
M  V30 6718 H 649.95 -1.70626 2.75079 0
M  V30 6719 H 648.857 0.398794 3.71968 0
M  V30 6720 H 650.19 0.50511 4.89601 0
M  V30 6721 N 651.842 -1.52309 0.404946 0
M  V30 6722 C 652.792 -2.23717 -0.439864 0
M  V30 6723 C 653.776 -1.24692 -1.0169 0
M  V30 6724 O 654.968 -1.49951 -0.940409 0
M  V30 6725 C 652.097 -3.05898 -1.55825 0
M  V30 6726 C 651.183 -4.12331 -0.992188 0
M  V30 6727 N 651.574 -5.0557 -0.152424 0
M  V30 6728 C 649.872 -4.2774 -1.26312 0
M  V30 6729 C 650.573 -5.81474 0.162041 0
M  V30 6730 N 649.549 -5.41767 -0.44601 0
M  V30 6731 H 653.351 -2.93162 0.208084 0
M  V30 6732 H 650.865 -1.60969 0.215131 0
M  V30 6733 H 652.862 -3.55605 -2.17603 0
M  V30 6734 H 651.522 -2.37991 -2.20886 0
M  V30 6735 H 652.533 -5.17468 0.211556 0
M  V30 6736 H 649.21 -3.71062 -1.91362 0
M  V30 6737 H 650.6 -6.66585 0.843423 0
M  V30 6738 N 653.32 -0.135238 -1.57019 0
M  V30 6739 C 654.545 0.529343 -2.00531 0
M  V30 6740 C 654.97 1.58391 -1.01459 0
M  V30 6741 O 654.328 1.81296 0.0113986 0
M  V30 6742 C 654.376 1.11748 -3.42848 0
M  V30 6743 O 653.48 2.23267 -3.46736 0
M  V30 6744 H 652.821 0.130669 -0.651016 0
M  V30 6745 H 655.351 -0.228503 -2.0332 0
M  V30 6746 H 655.361 1.44905 -3.81401 0
M  V30 6747 H 654.036 0.345147 -4.14465 0
M  V30 6748 H 652.613 1.91428 -3.20015 0
M  V30 6749 N 654.798 1.5699 0.138552 0
M  V30 6750 C 656.209 1.73171 0.697754 0
M  V30 6751 C 656.56 0.750952 1.8126 0
M  V30 6752 O 655.685 -0.080549 2.1625 0
M  V30 6753 C 656.28 3.13996 1.27248 0
M  V30 6754 C 654.839 3.3175 1.77816 0
M  V30 6755 C 653.986 2.69084 0.669991 0
M  V30 6756 H 656.937 1.5846 -0.0871979 0
M  V30 6757 H 656.958 3.14463 2.14227 0
M  V30 6758 H 656.47 3.85354 0.460855 0
M  V30 6759 H 654.571 2.65403 2.61519 0
M  V30 6760 H 654.684 4.39768 1.90107 0
M  V30 6761 H 653.048 2.29782 1.09874 0
M  V30 6762 H 653.831 3.43053 -0.130329 0
M  V30 6763 N 656.276 -0.40816 1.52223 0
M  V30 6764 C 657.523 -1.15502 1.66329 0
M  V30 6765 C 657.851 -1.90474 0.393701 0
M  V30 6766 O 657.106 -1.85507 -0.623356 0
M  V30 6767 C 657.405 -2.17422 2.83659 0
M  V30 6768 C 657.071 -1.5925 4.21841 0
M  V30 6769 C 655.733 -1.4311 4.59427 0
M  V30 6770 C 658.085 -1.16776 5.0795 0
M  V30 6771 C 655.413 -0.830148 5.80797 0
M  V30 6772 C 657.765 -0.580988 6.29926 0
M  V30 6773 C 656.429 -0.406729 6.6626 0
M  V30 6774 H 655.699 -0.422653 0.608642 0
M  V30 6775 H 658.346 -0.442114 1.86327 0
M  V30 6776 H 656.651 -2.94861 2.58001 0
M  V30 6777 H 658.348 -2.75084 2.9177 0
M  V30 6778 H 654.938 -1.72796 3.92224 0
M  V30 6779 H 659.122 -1.28055 4.79495 0
M  V30 6780 H 654.378 -0.68316 6.07571 0
M  V30 6781 H 658.552 -0.243488 6.95974 0
M  V30 6782 H 656.179 0.0610366 7.60175 0
M  V30 6783 N 657.755 -1.42862 -0.66545 0
M  V30 6784 C 659.032 -1.3431 -1.42197 0
M  V30 6785 C 659.412 0.0150265 -2.11095 0
M  V30 6786 O 658.76 1.03101 -2.03918 0
M  V30 6787 C 658.97 -2.51783 -2.41674 0
M  V30 6788 C 660.318 -2.94321 -3.0604 0
M  V30 6789 O 661.342 -2.51741 -2.52001 0
M  V30 6790 O 660.201 -3.68047 -4.03985 0
M  V30 6791 H 657.295 -0.530159 -0.634713 0
M  V30 6792 H 659.841 -1.54888 -0.693386 0
M  V30 6793 H 658.613 -3.42282 -1.89627 0
M  V30 6794 H 658.236 -2.33241 -3.22001 0
M  V30 6795 N 659.233 0.902656 -1.29189 0
M  V30 6796 C 660.481 1.6496 -1.16758 0
M  V30 6797 C 660.802 1.92952 0.28188 0
M  V30 6798 O 660.072 1.55351 1.19344 0
M  V30 6799 H 658.652 0.611447 -0.429118 0
M  V30 6800 H 661.314 1.0825 -1.62074 0
M  V30 6801 H 660.41 2.60728 -1.71544 0
M  V30 6802 N 660.711 1.11618 1.11262 0
M  V30 6803 C 661.96 0.860934 1.82403 0
M  V30 6804 C 662.273 -0.615303 1.8567 0
M  V30 6805 O 663.479 -0.986861 2.52929 0
M  V30 6806 C 661.935 1.49048 3.27586 0
M  V30 6807 C 661.543 3.00089 3.32642 0
M  V30 6808 C 663.287 1.31515 4.03614 0
M  V30 6809 C 661.194 3.56019 4.72234 0
M  V30 6810 H 660.124 0.318423 0.683464 0
M  V30 6811 H 662.775 1.34165 1.25188 0
M  V30 6812 H 661.157 0.937434 3.84744 0
M  V30 6813 H 662.331 3.61813 2.85356 0
M  V30 6814 H 660.646 3.16919 2.70096 0
M  V30 6815 H 663.243 1.70732 5.0671 0
M  V30 6816 H 663.586 0.257917 4.155 0
M  V30 6817 H 664.119 1.83694 3.52848 0
M  V30 6818 H 660.858 4.61463 4.65545 0
M  V30 6819 H 660.378 2.99066 5.19923 0
M  V30 6820 H 662.057 3.54568 5.41193 0
M  V30 6821 N 662.189 -1.289 0.906776 0
M  V30 6822 C 663.435 -1.95558 0.53712 0
M  V30 6823 C 663.768 -1.71262 -0.915582 0
M  V30 6824 O 663.043 -1.02961 -1.65013 0
M  V30 6825 C 663.326 -3.50198 0.838645 0
M  V30 6826 C 663.179 -3.83923 2.34357 0
M  V30 6827 C 664.498 -4.38861 0.329988 0
M  V30 6828 H 661.617 -0.710289 0.196617 0
M  V30 6829 H 664.259 -1.52392 1.13475 0
M  V30 6830 H 662.409 -3.87096 0.330024 0
M  V30 6831 H 664.081 -3.56933 2.92227 0
M  V30 6832 H 662.324 -3.31215 2.80141 0
M  V30 6833 H 662.995 -4.91883 2.5051 0
M  V30 6834 H 665.471 -4.08996 0.765609 0
M  V30 6835 H 664.347 -5.45931 0.570105 0
M  V30 6836 H 664.608 -4.35352 -0.769511 0
M  V30 6837 N 663.667 -0.670007 -1.42649 0
M  V30 6838 C 664.597 -0.00258501 -2.335 0
M  V30 6839 C 665.578 0.794364 -1.50412 0
M  V30 6840 O 666.763 0.75248 -1.79029 0
M  V30 6841 C 663.893 0.952748 -3.33976 0
M  V30 6842 C 662.847 0.264733 -4.2718 0
M  V30 6843 C 662.173 1.33267 -5.17826 0
M  V30 6844 C 663.473 -0.853289 -5.15283 0
M  V30 6845 H 665.167 -0.761326 -2.89559 0
M  V30 6846 H 662.713 -0.367561 -1.3923 0
M  V30 6847 H 664.666 1.4287 -3.96442 0
M  V30 6848 H 663.39 1.74285 -2.7621 0
M  V30 6849 H 662.049 -0.190938 -3.66102 0
M  V30 6850 H 661.697 2.11464 -4.5639 0
M  V30 6851 H 661.397 0.877476 -5.81011 0
M  V30 6852 H 662.921 1.80965 -5.83167 0
M  V30 6853 H 664.335 -0.458763 -5.71462 0
M  V30 6854 H 662.732 -1.23398 -5.87276 0
M  V30 6855 H 663.802 -1.70412 -4.53969 0
M  V30 6856 N 665.145 1.52092 -0.413018 0
M  V30 6857 C 666.391 2.02154 0.161737 0
M  V30 6858 C 666.724 1.29789 1.44459 0
M  V30 6859 O 665.999 0.405378 1.90229 0
M  V30 6860 C 666.282 3.5781 0.405463 0
M  V30 6861 C 666.135 4.40819 -0.894335 0
M  V30 6862 C 667.454 4.23821 1.18591 0
M  V30 6863 H 664.573 0.734769 0.0573077 0
M  V30 6864 H 667.215 1.81948 -0.547247 0
M  V30 6865 H 665.365 3.75158 1.0094 0
M  V30 6866 H 667.037 4.35175 -1.53039 0
M  V30 6867 H 665.28 4.06877 -1.50444 0
M  V30 6868 H 665.951 5.47819 -0.678144 0
M  V30 6869 H 668.427 4.10596 0.674573 0
M  V30 6870 H 667.303 5.32663 1.3252 0
M  V30 6871 H 667.564 3.83038 2.20758 0
M  V30 6872 N 666.623 0.143563 1.56945 0
M  V30 6873 C 667.555 -0.828353 2.13708 0
M  V30 6874 C 668.568 -1.21313 1.08568 0
M  V30 6875 O 669.757 -1.1578 1.35857 0
M  V30 6876 C 666.857 -2.12248 2.64204 0
M  V30 6877 C 666.03 -1.90561 3.93707 0
M  V30 6878 C 665.089 -3.03931 4.29549 0
M  V30 6879 O 664.115 -2.75772 4.97934 0
M  V30 6880 N 665.317 -4.31016 3.88852 0
M  V30 6881 H 668.082 -0.343242 2.97728 0
M  V30 6882 H 665.643 -0.0401152 1.6185 0
M  V30 6883 H 667.635 -2.87132 2.85197 0
M  V30 6884 H 666.205 -2.52033 1.84928 0
M  V30 6885 H 665.425 -0.997327 3.81375 0
M  V30 6886 H 666.713 -1.73405 4.78339 0
M  V30 6887 H 666.111 -4.56762 3.33743 0
M  V30 6888 H 664.668 -5.02691 4.14903 0
M  V30 6889 N 668.101 -1.57061 -0.130224 0
M  V30 6890 C 669.341 -1.86071 -0.845993 0
M  V30 6891 C 669.705 -0.73009 -1.77577 0
M  V30 6892 O 670.906 -0.901663 -2.53226 0
M  V30 6893 C 669.177 -3.20293 -1.58579 0
M  V30 6894 S 670.736 -3.70905 -2.34467 0
M  V30 6895 H 667.554 -0.652434 -0.282579 0
M  V30 6896 H 670.156 -1.95218 -0.10498 0
M  V30 6897 H 668.86 -4.00533 -0.894509 0
M  V30 6898 H 668.391 -3.14195 -2.36739 0
M  V30 6899 H 670.406 -3.41509 -3.59981 0
M  V30 6900 N 669.579 0.400081 -1.52437 0
M  V30 6901 C 670.807 1.16768 -1.70801 0
M  V30 6902 C 671.222 1.84036 -0.421462 0
M  V30 6903 O 670.579 1.72242 0.603228 0
M  V30 6904 C 670.63 2.22403 -2.8499 0
M  V30 6905 O 670.351 1.57879 -4.08663 0
M  V30 6906 C 671.852 3.11974 -3.1494 0
M  V30 6907 H 669.072 0.350533 -0.57216 0
M  V30 6908 H 671.616 0.469534 -1.99037 0
M  V30 6909 H 669.771 2.87871 -2.59247 0
M  V30 6910 H 670.185 2.27982 -4.7236 0
M  V30 6911 H 671.659 3.82148 -3.9833 0
M  V30 6912 H 672.136 3.74858 -2.28863 0
M  V30 6913 H 672.742 2.52165 -3.42481 0
M  V30 6914 N 671.057 1.43213 0.657864 0
M  V30 6915 C 671.967 1.50448 1.80007 0
M  V30 6916 C 672.983 0.39191 1.69529 0
M  V30 6917 O 674.159 0.645349 1.90781 0
M  V30 6918 C 671.224 1.42062 3.16258 0
M  V30 6919 C 670.285 2.63951 3.38568 0
M  V30 6920 C 669.518 2.55956 4.68318 0
M  V30 6921 O 669.741 1.60473 5.47361 0
M  V30 6922 O 668.675 3.46378 4.92245 0
M  V30 6923 H 672.501 2.4689 1.76858 0
M  V30 6924 H 670.086 1.25163 0.81576 0
M  V30 6925 H 671.968 1.3981 3.97531 0
M  V30 6926 H 670.643 0.487524 3.20008 0
M  V30 6927 H 669.55 2.71776 2.57077 0
M  V30 6928 H 670.883 3.56217 3.39662 0
M  V30 6929 N 672.536 -0.895792 1.29666 0
M  V30 6930 C 673.486 -1.98736 1.1175 0
M  V30 6931 C 674.47 -1.6086 0.0357834 0
M  V30 6932 O 675.662 -1.75111 0.257926 0
M  V30 6933 C 672.791 -3.33845 0.800156 0
M  V30 6934 C 671.877 -3.78068 1.9216 0
M  V30 6935 N 672.268 -3.94489 3.16563 0
M  V30 6936 C 670.566 -4.07376 1.81552 0
M  V30 6937 C 671.267 -4.31819 3.89753 0
M  V30 6938 N 670.243 -4.41081 3.17724 0
M  V30 6939 H 674.045 -2.09507 2.06117 0
M  V30 6940 H 671.559 -1.08488 1.20848 0
M  V30 6941 H 673.556 -4.11757 0.652841 0
M  V30 6942 H 672.216 -3.24417 -0.135551 0
M  V30 6943 H 673.227 -3.79914 3.51974 0
M  V30 6944 H 669.904 -4.06483 0.952787 0
M  V30 6945 H 671.294 -4.52337 4.96831 0
M  V30 6946 N 674.014 -1.12206 -1.10668 0
M  V30 6947 C 674.944 -0.810086 -2.18997 0
M  V30 6948 C 675.925 0.225065 -1.68604 0
M  V30 6949 O 677.11 0.086783 -1.94006 0
M  V30 6950 C 674.24 -0.261262 -3.46316 0
M  V30 6951 C 673.194 -1.2292 -4.09969 0
M  V30 6952 C 672.52 -0.540713 -5.31959 0
M  V30 6953 C 673.82 -2.58295 -4.53962 0
M  V30 6954 H 675.514 -1.7159 -2.45352 0
M  V30 6955 H 673.06 -0.82646 -1.17922 0
M  V30 6956 H 675.013 -0.0307522 -4.21389 0
M  V30 6957 H 673.737 0.679879 -3.19445 0
M  V30 6958 H 672.396 -1.44548 -3.369 0
M  V30 6959 H 672.044 0.405492 -5.01363 0
M  V30 6960 H 671.744 -1.18637 -5.75499 0
M  V30 6961 H 673.268 -0.319184 -6.09765 0
M  V30 6962 H 674.682 -2.40709 -5.20319 0
M  V30 6963 H 673.079 -3.18916 -5.08343 0
M  V30 6964 H 674.149 -3.16918 -3.67002 0
M  V30 6965 N 675.492 1.28418 -0.913599 0
M  V30 6966 C 676.422 2.29713 -0.418847 0
M  V30 6967 C 677.403 1.62165 0.513469 0
M  V30 6968 O 678.588 1.89576 0.421235 0
M  V30 6969 C 675.718 3.45612 0.342042 0
M  V30 6970 C 674.672 4.25056 -0.501123 0
M  V30 6971 C 673.998 5.3329 0.388097 0
M  V30 6972 C 675.298 4.91814 -1.75831 0
M  V30 6973 H 676.992 2.71346 -1.26538 0
M  V30 6974 H 674.538 1.30446 -0.609903 0
M  V30 6975 H 676.491 4.15562 0.699 0
M  V30 6976 H 675.215 3.02858 1.22248 0
M  V30 6977 H 673.874 3.56833 -0.840598 0
M  V30 6978 H 673.522 4.8678 1.26707 0
M  V30 6979 H 673.222 5.87347 -0.172459 0
M  V30 6980 H 674.746 6.06088 0.74094 0
M  V30 6981 H 676.16 5.54126 -1.47026 0
M  V30 6982 H 674.557 5.55866 -2.26126 0
M  V30 6983 H 675.627 4.16313 -2.4862 0
M  V30 6984 N 676.97 0.677563 1.42291 0
M  V30 6985 C 677.917 0.000947061 2.308 0
M  V30 6986 C 678.887 -0.789889 1.46116 0
M  V30 6987 O 680.072 -0.761578 1.74942 0
M  V30 6988 C 677.212 -0.942387 3.31984 0
M  V30 6989 C 676.325 -0.14508 4.31756 0
M  V30 6990 C 675.46 -1.08442 5.20013 0
M  V30 6991 C 674.499 -0.278958 6.11464 0
M  V30 6992 N 673.636 -1.17115 6.92263 0
M  V30 6993 H 678.476 0.761521 2.88106 0
M  V30 6994 H 676.013 0.38727 1.41911 0
M  V30 6995 H 677.971 -1.50317 3.89179 0
M  V30 6996 H 676.601 -1.66956 2.76271 0
M  V30 6997 H 675.653 0.532368 3.76656 0
M  V30 6998 H 676.965 0.48015 4.96484 0
M  V30 6999 H 676.119 -1.71504 5.81955 0
M  V30 7000 H 674.858 -1.74353 4.55469 0
M  V30 7001 H 673.863 0.364856 5.48588 0
M  V30 7002 H 675.088 0.376099 6.78058 0
M  V30 7003 H 673.034 -1.81661 6.30345 0
M  V30 7004 H 672.951 -0.601063 7.53607 0
M  V30 7005 H 674.219 -1.78915 7.58689 0
M  V30 7006 N 678.448 -1.51871 0.421078 0
M  V30 7007 C 679.398 -2.24171 -0.416111 0
M  V30 7008 C 680.382 -1.25763 -1.00362 0
M  V30 7009 O 681.574 -1.5094 -0.924452 0
M  V30 7010 C 678.703 -3.07533 -1.52571 0
M  V30 7011 C 677.789 -4.1336 -0.948399 0
M  V30 7012 N 678.18 -5.05704 -0.0987933 0
M  V30 7013 C 676.478 -4.29055 -1.21768 0
M  V30 7014 C 677.179 -5.8127 0.223705 0
M  V30 7015 N 676.155 -5.4221 -0.388524 0
M  V30 7016 H 679.957 -2.92925 0.239166 0
M  V30 7017 H 677.471 -1.60732 0.232191 0
M  V30 7018 H 679.468 -3.57893 -2.13819 0
M  V30 7019 H 678.128 -2.4032 -2.18349 0
M  V30 7020 H 679.139 -5.17214 0.266428 0
M  V30 7021 H 675.816 -3.73071 -1.87416 0
M  V30 7022 H 677.206 -6.65653 0.914076 0
M  V30 7023 N 679.926 -0.151884 -1.56866 0
M  V30 7024 C 681.172 0.498742 -1.96572 0
M  V30 7025 C 681.505 1.64194 -1.03702 0
M  V30 7026 O 680.78 1.94334 -0.0803432 0
M  V30 7027 C 681.063 1.00027 -3.45929 0
M  V30 7028 C 680.916 -0.141767 -4.49577 0
M  V30 7029 C 682.235 1.88044 -3.97904 0
M  V30 7030 H 679.354 0.17982 -0.714726 0
M  V30 7031 H 681.996 -0.234097 -1.88552 0
M  V30 7032 H 680.146 1.62476 -3.52894 0
M  V30 7033 H 681.818 -0.778269 -4.54687 0
M  V30 7034 H 680.061 -0.80019 -4.26356 0
M  V30 7035 H 680.732 0.250947 -5.51429 0
M  V30 7036 H 683.208 1.35416 -3.93449 0
M  V30 7037 H 682.084 2.20043 -5.02864 0
M  V30 7038 H 682.345 2.81916 -3.40552 0
M  V30 7039 N 681.404 1.57128 0.121893 0
M  V30 7040 C 682.632 1.88883 0.844451 0
M  V30 7041 C 683.047 0.742824 1.73573 0
M  V30 7042 O 682.404 -0.286475 1.80238 0
M  V30 7043 C 682.455 3.20076 1.68029 0
M  V30 7044 O 682.176 4.30264 0.824898 0
M  V30 7045 C 683.677 3.65515 2.50826 0
M  V30 7046 H 680.897 0.62549 0.242907 0
M  V30 7047 H 683.441 2.04219 0.107151 0
M  V30 7048 H 681.596 3.06418 2.37038 0
M  V30 7049 H 682.01 5.05439 1.40113 0
M  V30 7050 H 683.484 4.60081 3.05008 0
M  V30 7051 H 683.961 2.92029 3.28048 0
M  V30 7052 H 684.567 3.81952 1.87064 0
M  V30 7053 N 682.882 -0.391992 1.52647 0
M  V30 7054 C 683.814 -1.49811 1.73463 0
M  V30 7055 C 684.827 -1.50734 0.615078 0
M  V30 7056 O 686.016 -1.5469 0.890696 0
M  V30 7057 C 683.116 -2.88667 1.77552 0
M  V30 7058 C 682.289 -3.11743 3.06815 0
M  V30 7059 C 681.348 -4.30564 3.02491 0
M  V30 7060 O 680.374 -4.27014 3.76361 0
M  V30 7061 N 681.576 -5.36593 2.21468 0
M  V30 7062 H 684.341 -1.32343 2.68897 0
M  V30 7063 H 681.902 -0.581475 1.51098 0
M  V30 7064 H 683.894 -3.66251 1.7217 0
M  V30 7065 H 682.464 -2.99508 0.895181 0
M  V30 7066 H 681.684 -2.2205 3.25711 0
M  V30 7067 H 682.972 -3.24013 3.92292 0
M  V30 7068 H 682.37 -5.42332 1.60913 0
M  V30 7069 H 680.927 -6.12855 2.21928 0
M  V30 7070 N 684.36 -1.4356 -0.65026 0
M  V30 7071 C 685.585 -1.48995 -1.44275 0
M  V30 7072 C 686.01 -0.109954 -1.87778 0
M  V30 7073 O 685.368 0.896926 -1.57559 0
M  V30 7074 C 685.416 -2.44341 -2.65198 0
M  V30 7075 O 684.52 -1.93172 -3.6436 0
M  V30 7076 H 683.861 -0.503852 -0.432469 0
M  V30 7077 H 686.391 -1.88504 -0.795446 0
M  V30 7078 H 686.401 -2.61743 -3.12977 0
M  V30 7079 H 685.076 -3.44588 -2.32877 0
M  V30 7080 H 683.653 -1.85445 -3.23519 0
M  V30 7081 N 685.838 0.888903 -1.30139 0
M  V30 7082 C 687.063 1.67884 -1.21777 0
M  V30 7083 C 687.488 1.86848 0.216689 0
M  V30 7084 O 686.846 1.39659 1.15608 0
M  V30 7085 C 686.894 3.03483 -1.94757 0
M  V30 7086 O 685.998 3.92294 -1.27198 0
M  V30 7087 H 685.339 0.513144 -0.421402 0
M  V30 7088 H 687.869 1.10968 -1.71893 0
M  V30 7089 H 687.879 3.53553 -2.03627 0
M  V30 7090 H 686.554 2.89 -2.99085 0
M  V30 7091 H 685.131 3.50732 -1.26655 0
M  V30 7092 N 687.317 1.12792 1.10072 0
M  V30 7093 C 688.733 0.864745 1.34143 0
M  V30 7094 C 688.933 -0.503201 1.95116 0
M  V30 7095 O 687.989 -1.25111 2.19325 0
M  V30 7096 C 689.302 1.98413 2.25949 0
M  V30 7097 C 690.85 2.01545 2.39476 0
M  V30 7098 C 691.325 3.12727 3.34613 0
M  V30 7099 N 692.816 3.12194 3.42183 0
M  V30 7100 C 693.551 3.94862 4.15779 0
M  V30 7101 N 693.047 4.87528 4.92228 0
M  V30 7102 N 694.84 3.82985 4.11435 0
M  V30 7103 H 686.991 2.00926 0.68866 0
M  V30 7104 H 689.254 0.874564 0.365844 0
M  V30 7105 H 688.96 2.97005 1.88364 0
M  V30 7106 H 688.834 1.89254 3.26287 0
M  V30 7107 H 691.221 1.0357 2.76328 0
M  V30 7108 H 691.302 2.14777 1.3894 0
M  V30 7109 H 690.946 4.10936 2.98486 0
M  V30 7110 H 690.876 2.96732 4.35037 0
M  V30 7111 H 693.367 2.45065 2.87666 0
M  V30 7112 H 693.68 5.47109 5.45794 0
M  V30 7113 H 692.025 4.91539 4.9134 0
M  V30 7114 H 695.216 3.09923 3.50807 0
M  V30 7115 H 695.389 4.47641 4.68531 0
M  V30 7116 N 688.795 -1.27931 0.920396 0
M  V30 7117 C 689.742 -2.27085 0.412422 0
M  V30 7118 C 690.712 -1.57858 -0.516725 0
M  V30 7119 O 691.897 -1.85717 -0.437475 0
M  V30 7120 C 689.037 -3.43466 -0.335399 0
M  V30 7121 C 688.15 -4.27425 0.627017 0
M  V30 7122 C 687.285 -5.31016 -0.139916 0
M  V30 7123 C 686.324 -6.06641 0.815683 0
M  V30 7124 N 685.461 -7.02052 0.0818439 0
M  V30 7125 H 690.301 -2.69913 1.26298 0
M  V30 7126 H 687.838 -1.32732 0.634076 0
M  V30 7127 H 689.796 -4.09744 -0.785226 0
M  V30 7128 H 688.426 -3.01611 -1.15025 0
M  V30 7129 H 687.478 -3.6113 1.19537 0
M  V30 7130 H 688.79 -4.79969 1.35763 0
M  V30 7131 H 687.944 -6.03208 -0.649998 0
M  V30 7132 H 686.683 -4.79257 -0.903543 0
M  V30 7133 H 685.688 -5.33294 1.33708 0
M  V30 7134 H 686.913 -6.60489 1.57897 0
M  V30 7135 H 684.859 -6.52634 -0.663671 0
M  V30 7136 H 684.776 -7.52249 0.752163 0
M  V30 7137 H 686.044 -7.78432 -0.407825 0
M  V30 7138 N 690.273 -0.685099 -1.4193 0
M  V30 7139 C 691.203 -0.0273506 -2.33484 0
M  V30 7140 C 692.184 0.778366 -1.51246 0
M  V30 7141 O 693.369 0.733449 -1.79817 0
M  V30 7142 C 690.499 0.917272 -3.34968 0
M  V30 7143 C 689.453 0.21941 -4.27437 0
M  V30 7144 C 688.779 1.27768 -5.1921 0
M  V30 7145 C 690.079 -0.907894 -5.14349 0
M  V30 7146 H 691.773 -0.791994 -2.88735 0
M  V30 7147 H 689.319 -0.382308 -1.38832 0
M  V30 7148 H 691.272 1.38657 -3.97935 0
M  V30 7149 H 689.996 1.71346 -2.78043 0
M  V30 7150 H 688.655 -0.229757 -3.65879 0
M  V30 7151 H 688.303 2.06612 -4.58607 0
M  V30 7152 H 688.003 0.815803 -5.81909 0
M  V30 7153 H 689.527 1.7477 -5.85054 0
M  V30 7154 H 690.941 -0.519348 -5.70943 0
M  V30 7155 H 689.338 -1.2962 -5.85934 0
M  V30 7156 H 690.408 -1.75218 -4.52136 0
M  V30 7157 N 691.751 1.51645 -0.429126 0
M  V30 7158 C 693 2.01203 0.141538 0
M  V30 7159 C 693.313 1.31828 1.44502 0
M  V30 7160 O 694.519 1.7231 2.09813 0
M  V30 7161 C 692.975 3.58624 0.302786 0
M  V30 7162 C 692.583 4.3693 -0.989775 0
M  V30 7163 C 694.327 4.16353 0.827661 0
M  V30 7164 C 692.234 5.86037 -0.794619 0
M  V30 7165 H 691.164 0.751867 0.05667 0
M  V30 7166 H 693.815 1.74822 -0.557633 0
M  V30 7167 H 692.197 3.81417 1.06476 0
M  V30 7168 H 693.371 4.25887 -1.75945 0
M  V30 7169 H 691.686 3.90614 -1.44256 0
M  V30 7170 H 694.283 5.25455 0.990026 0
M  V30 7171 H 694.626 3.74995 1.80787 0
M  V30 7172 H 695.159 3.97606 0.124213 0
M  V30 7173 H 691.898 6.31792 -1.74697 0
M  V30 7174 H 691.418 5.99765 -0.0645968 0
M  V30 7175 H 693.097 6.45471 -0.444591 0
M  V30 7176 N 693.229 0.160201 1.56784 0
M  V30 7177 C 694.645 -0.196089 1.58391 0
M  V30 7178 C 694.845 -1.63689 1.17508 0
M  V30 7179 O 693.901 -2.36613 0.881506 0
M  V30 7180 C 695.214 0.0746449 3.00607 0
M  V30 7181 C 696.762 0.0119762 3.12998 0
M  V30 7182 C 697.237 0.255551 4.57286 0
M  V30 7183 N 698.728 0.202938 4.62755 0
M  V30 7184 C 699.463 0.365731 5.72232 0
M  V30 7185 N 698.959 0.586972 6.90309 0
M  V30 7186 N 700.752 0.302411 5.61286 0
M  V30 7187 H 692.903 1.1008 1.81648 0
M  V30 7188 H 695.166 0.436779 0.841384 0
M  V30 7189 H 694.872 1.07231 3.34954 0
M  V30 7190 H 694.746 -0.638802 3.71751 0
M  V30 7191 H 697.133 -0.976254 2.78484 0
M  V30 7192 H 697.214 0.75796 2.44313 0
M  V30 7193 H 696.858 1.24094 4.92507 0
M  V30 7194 H 696.788 -0.510912 5.24116 0
M  V30 7195 H 699.279 0.0371328 3.77882 0
M  V30 7196 H 699.592 0.700941 7.69615 0
M  V30 7197 H 697.937 0.623453 6.92198 0
M  V30 7198 H 701.128 0.130238 4.67919 0
M  V30 7199 H 701.301 0.432712 6.46554 0
M  V30 7200 N 694.707 -1.5719 -0.113559 0
M  V30 7201 C 695.67 -1.99796 -1.12314 0
M  V30 7202 C 696.67 -0.888847 -1.34001 0
M  V30 7203 O 697.86 -1.15476 -1.30426 0
M  V30 7204 C 694.992 -2.34279 -2.47641 0
M  V30 7205 H 696.185 -2.90193 -0.756825 0
M  V30 7206 H 693.738 -1.52144 -0.358029 0
M  V30 7207 H 694.473 -1.46778 -2.89183 0
M  V30 7208 H 694.258 -3.15175 -2.33253 0
M  V30 7209 H 695.748 -2.67963 -3.2029 0
M  V30 7210 N 696.185 0.383891 -1.52853 0
M  V30 7211 C 697.462 1.14296 -1.58732 0
M  V30 7212 C 697.842 2.07585 -0.383611 0
M  V30 7213 O 697.19 2.1971 0.627661 0
M  V30 7214 C 697.4 1.89816 -2.92867 0
M  V30 7215 C 698.748 2.44998 -3.46787 0
M  V30 7216 O 699.772 1.99966 -2.94774 0
M  V30 7217 O 698.631 3.2727 -4.37672 0
M  V30 7218 H 695.725 0.52326 -0.640413 0
M  V30 7219 H 698.271 0.388631 -1.6519 0
M  V30 7220 H 697.043 1.21626 -3.71918 0
M  V30 7221 H 696.666 2.72199 -2.89816 0
M  V30 7222 N 697.663 1.43903 0.642637 0
M  V30 7223 C 698.888 1.49758 1.43483 0
M  V30 7224 C 699.313 0.119911 1.87717 0
M  V30 7225 O 698.671 -0.888558 1.58033 0
M  V30 7226 C 698.719 2.45744 2.63898 0
M  V30 7227 O 697.823 1.95101 3.63331 0
M  V30 7228 H 697.164 0.506138 0.429791 0
M  V30 7229 H 699.694 1.88923 0.785438 0
M  V30 7230 H 699.704 2.63399 3.11584 0
M  V30 7231 H 698.379 3.45818 2.31046 0
M  V30 7232 H 696.956 1.87158 3.22531 0
M  V30 7233 N 699.141 -0.881989 1.30609 0
M  V30 7234 C 700.387 -1.63647 1.19781 0
M  V30 7235 C 700.72 -1.92632 -0.246265 0
M  V30 7236 O 699.995 -1.54938 -1.17577 0
M  V30 7237 C 700.278 -2.97437 2.02985 0
M  V30 7238 C 700.131 -2.75406 3.55628 0
M  V30 7239 C 701.45 -3.98397 1.86997 0
M  V30 7240 H 698.569 -0.593841 0.436488 0
M  V30 7241 H 701.211 -1.02041 1.60273 0
M  V30 7242 H 699.361 -3.50018 1.68581 0
M  V30 7243 H 701.033 -2.2959 4.00107 0
M  V30 7244 H 699.276 -2.09856 3.79662 0
M  V30 7245 H 699.947 -3.70552 4.09139 0
M  V30 7246 H 702.423 -3.54986 2.17081 0
M  V30 7247 H 701.299 -4.89916 2.47536 0
M  V30 7248 H 701.56 -4.3424 0.829943 0
M  V30 7249 N 700.619 -1.13374 -1.09472 0
M  V30 7250 C 701.844 -0.918711 -1.85942 0
M  V30 7251 C 702.269 0.527225 -1.8056 0
M  V30 7252 O 701.627 1.37408 -1.18274 0
M  V30 7253 C 701.675 -1.41056 -3.31867 0
M  V30 7254 O 700.779 -0.595496 -4.08078 0
M  V30 7255 H 700.12 -0.329297 -0.576593 0
M  V30 7256 H 702.65 -1.50829 -1.38245 0
M  V30 7257 H 702.66 -1.41398 -3.82715 0
M  V30 7258 H 701.335 -2.46335 -3.35099 0
M  V30 7259 H 699.912 -0.659911 -3.67014 0
M  V30 7260 N 702.098 1.27442 -0.927168 0
M  V30 7261 C 703.008 2.30599 -0.431448 0
M  V30 7262 C 704.024 1.67028 0.48761 0
M  V30 7263 O 705.2 1.97962 0.370546 0
M  V30 7264 C 702.265 3.45327 0.308292 0
M  V30 7265 C 701.326 4.24418 -0.645615 0
M  V30 7266 C 700.559 5.33667 0.0589164 0
M  V30 7267 O 700.782 5.5589 1.27838 0
M  V30 7268 O 699.716 5.98774 -0.612638 0
M  V30 7269 H 703.542 2.75036 -1.28797 0
M  V30 7270 H 701.127 1.32382 -0.692495 0
M  V30 7271 H 703.009 4.15107 0.725555 0
M  V30 7272 H 701.684 3.02945 1.14043 0
M  V30 7273 H 700.591 3.57174 -1.11255 0
M  V30 7274 H 701.924 4.70512 -1.44496 0
M  V30 7275 N 703.576 0.692616 1.41565 0
M  V30 7276 C 704.506 0.0397325 2.33466 0
M  V30 7277 C 705.487 -0.770334 1.51657 0
M  V30 7278 O 706.672 -0.723903 1.80203 0
M  V30 7279 C 703.802 -0.899495 3.3545 0
M  V30 7280 C 702.756 -0.196738 4.27548 0
M  V30 7281 C 702.082 -1.25012 5.19881 0
M  V30 7282 C 703.382 0.935158 5.1386 0
M  V30 7283 H 705.076 0.807296 2.88311 0
M  V30 7284 H 702.622 0.389665 1.38628 0
M  V30 7285 H 704.575 -1.36545 3.98665 0
M  V30 7286 H 703.299 -1.69869 2.78948 0
M  V30 7287 H 701.958 0.249158 3.65752 0
M  V30 7288 H 701.606 -2.04177 4.59696 0
M  V30 7289 H 701.306 -0.784931 5.82334 0
M  V30 7290 H 702.83 -1.71665 5.85972 0
M  V30 7291 H 704.244 0.549619 5.70659 0
M  V30 7292 H 702.641 1.32726 5.85238 0
M  V30 7293 H 703.711 1.77613 4.512 0
M  V30 7294 N 705.054 -1.51416 0.437162 0
M  V30 7295 C 706.465 -1.86682 -0.0260005 0
M  V30 7296 C 706.816 -1.35432 -1.4196 0
M  V30 7297 O 705.941 -0.705055 -2.04592 0
M  V30 7298 C 706.536 -3.38757 -0.0539577 0
M  V30 7299 C 705.095 -3.7356 -0.461532 0
M  V30 7300 C 704.242 -2.75134 0.345924 0
M  V30 7301 H 707.193 -1.44642 0.653013 0
M  V30 7302 H 707.214 -3.70573 -0.863478 0
M  V30 7303 H 706.726 -3.76028 0.96045 0
M  V30 7304 H 704.827 -3.41878 -1.48155 0
M  V30 7305 H 704.94 -4.78737 -0.186451 0
M  V30 7306 H 703.304 -2.53947 -0.195739 0
M  V30 7307 H 704.087 -3.15247 1.35921 0
M  V30 7308 N 706.532 -0.168513 -1.56696 0
M  V30 7309 C 707.495 0.748928 -2.16619 0
M  V30 7310 C 708.495 1.16007 -1.11351 0
M  V30 7311 O 709.685 1.07748 -1.3688 0
M  V30 7312 C 706.817 2.01904 -2.74677 0
M  V30 7313 H 708.01 0.227317 -2.99037 0
M  V30 7314 H 705.563 0.0810372 -1.5609 0
M  V30 7315 H 706.298 2.58381 -1.95985 0
M  V30 7316 H 706.083 1.73323 -3.51712 0
M  V30 7317 H 707.573 2.67383 -3.20774 0
M  V30 7318 N 708.01 1.57248 0.105221 0
M  V30 7319 C 709.421 1.74612 0.660865 0
M  V30 7320 C 709.772 0.789231 1.79626 0
M  V30 7321 O 708.897 -0.0346611 2.16372 0
M  V30 7322 C 709.492 3.16624 1.20559 0
M  V30 7323 C 708.051 3.35447 1.7074 0
M  V30 7324 C 707.198 2.70445 0.612764 0
M  V30 7325 H 710.149 1.5824 -0.12079 0
M  V30 7326 H 710.17 3.18937 2.07508 0
M  V30 7327 H 709.682 3.86245 0.379012 0
M  V30 7328 H 707.783 2.7089 2.5583 0
M  V30 7329 H 707.896 4.43702 1.80736 0
M  V30 7330 H 706.26 2.32061 1.04975 0
M  V30 7331 H 707.043 3.42699 -0.203066 0
M  V30 7332 N 709.488 -0.375779 1.53054 0
M  V30 7333 C 710.904 -0.716764 1.426 0
M  V30 7334 C 711.104 -1.93651 0.556931 0
M  V30 7335 O 710.16 -2.52475 0.0354461 0
M  V30 7336 C 711.473 -0.939499 2.85646 0
M  V30 7337 C 713.021 -1.04015 2.95212 0
M  V30 7338 C 713.496 -1.29543 4.39298 0
M  V30 7339 N 714.987 -1.36335 4.42682 0
M  V30 7340 C 715.722 -1.57778 5.51266 0
M  V30 7341 N 715.218 -1.76604 6.69913 0
M  V30 7342 N 717.011 -1.60065 5.38828 0
M  V30 7343 H 709.162 0.42664 2.08071 0
M  V30 7344 H 711.425 0.128758 0.939215 0
M  V30 7345 H 711.131 -0.115189 3.51511 0
M  V30 7346 H 711.005 -1.85048 3.2869 0
M  V30 7347 H 713.392 -1.85501 2.29507 0
M  V30 7348 H 713.473 -0.106785 2.55577 0
M  V30 7349 H 713.117 -0.485611 5.05573 0
M  V30 7350 H 713.047 -2.24184 4.76497 0
M  V30 7351 H 715.538 -1.23441 3.5717 0
M  V30 7352 H 715.851 -1.9251 7.48438 0
M  V30 7353 H 714.196 -1.73802 6.72917 0
M  V30 7354 H 717.387 -1.44917 4.45103 0
M  V30 7355 H 717.56 -1.76435 6.23518 0
M  V30 7356 N 710.966 -1.44241 -0.634997 0
M  V30 7357 C 712.382 -1.28043 -0.952742 0
M  V30 7358 C 712.582 -0.21338 -2.00367 0
M  V30 7359 O 711.638 0.402042 -2.49279 0
M  V30 7360 C 712.951 -2.65076 -1.41968 0
M  V30 7361 C 714.499 -2.72755 -1.53537 0
M  V30 7362 C 714.974 -4.10249 -2.03616 0
M  V30 7363 N 716.465 -4.12406 -2.10892 0
M  V30 7364 C 717.2 -5.15641 -2.50803 0
M  V30 7365 N 716.696 -6.29239 -2.89879 0
M  V30 7366 N 718.489 -5.02995 -2.50903 0
M  V30 7367 H 710.64 -2.12315 0.060098 0
M  V30 7368 H 712.903 -0.947326 -0.0357325 0
M  V30 7369 H 712.609 -3.44213 -0.721804 0
M  V30 7370 H 712.483 -2.91704 -2.39141 0
M  V30 7371 H 714.87 -1.93939 -2.22422 0
M  V30 7372 H 714.951 -2.49872 -0.547496 0
M  V30 7373 H 714.595 -4.8954 -1.35327 0
M  V30 7374 H 714.525 -4.30507 -3.03268 0
M  V30 7375 H 717.016 -3.30417 -1.83393 0
M  V30 7376 H 717.329 -7.03827 -3.19135 0
M  V30 7377 H 715.674 -6.32683 -2.8764 0
M  V30 7378 H 718.865 -4.13306 -2.19763 0
M  V30 7379 H 719.038 -5.83574 -2.81683 0
M  V30 7380 N 712.444 0.87505 -1.31075 0
M  V30 7381 C 713.374 1.99775 -1.20881 0
M  V30 7382 C 714.355 1.69822 -0.0971612 0
M  V30 7383 O 715.54 1.92158 -0.280895 0
M  V30 7384 C 712.67 3.35163 -0.910118 0
M  V30 7385 C 711.624 3.79406 -1.98078 0
M  V30 7386 C 710.95 5.12197 -1.53488 0
M  V30 7387 C 712.25 3.97061 -3.39323 0
M  V30 7388 H 713.944 2.08562 -2.14808 0
M  V30 7389 H 711.49 1.00207 -1.03415 0
M  V30 7390 H 713.443 4.13237 -0.825423 0
M  V30 7391 H 712.167 3.26536 0.064822 0
M  V30 7392 H 710.826 3.03568 -2.05528 0
M  V30 7393 H 710.474 5.00007 -0.547941 0
M  V30 7394 H 710.174 5.4277 -2.2511 0
M  V30 7395 H 711.698 5.92785 -1.46417 0
M  V30 7396 H 713.112 4.65545 -3.34576 0
M  V30 7397 H 711.509 4.39025 -4.09118 0
M  V30 7398 H 712.579 3.00601 -3.80483 0
M  V30 7399 N 713.922 1.13953 1.08869 0
M  V30 7400 C 715.338 0.878924 1.33218 0
M  V30 7401 C 715.538 -0.482478 1.95638 0
M  V30 7402 O 714.594 -1.22778 2.2064 0
M  V30 7403 C 715.907 2.00798 2.23832 0
M  V30 7404 C 717.455 2.04073 2.37325 0
M  V30 7405 C 717.93 3.16258 3.31278 0
M  V30 7406 N 719.421 3.15805 3.38853 0
M  V30 7407 C 720.156 3.99249 4.11567 0
M  V30 7408 N 719.652 4.92721 4.87029 0
M  V30 7409 N 721.445 3.87327 4.0735 0
M  V30 7410 H 713.596 2.01645 0.66731 0
M  V30 7411 H 715.859 0.878395 0.356547 0
M  V30 7412 H 715.565 2.98986 1.85203 0
M  V30 7413 H 715.439 1.92704 3.24261 0
M  V30 7414 H 717.826 1.06495 2.75214 0
M  V30 7415 H 717.907 2.16239 1.36654 0
M  V30 7416 H 717.551 4.14079 2.9411 0
M  V30 7417 H 717.481 3.0133 4.31866 0
M  V30 7418 H 719.972 2.48102 2.8505 0
M  V30 7419 H 720.285 5.52867 5.39961 0
M  V30 7420 H 718.63 4.96723 4.86098 0
M  V30 7421 H 721.821 3.13627 3.475 0
M  V30 7422 H 721.994 4.52585 4.63757 0
M  V30 7423 N 715.4 -1.26948 0.933913 0
M  V30 7424 C 716.646 -1.94716 0.587985 0
M  V30 7425 C 717.001 -1.71994 -0.862312 0
M  V30 7426 O 716.294 -1.04208 -1.60783 0
M  V30 7427 C 716.488 -3.46963 0.857406 0
M  V30 7428 C 716.317 -3.84489 2.33234 0
M  V30 7429 C 715.087 -4.07621 2.98618 0
M  V30 7430 C 717.285 -3.93602 3.31031 0
M  V30 7431 N 715.267 -4.31976 4.362 0
M  V30 7432 C 716.638 -4.22404 4.53845 0
M  V30 7433 C 718.693 -3.76201 3.26155 0
M  V30 7434 C 717.396 -4.35615 5.72391 0
M  V30 7435 C 719.422 -3.90641 4.4402 0
M  V30 7436 C 718.784 -4.19835 5.65613 0
M  V30 7437 H 714.883 -0.735586 0.2654 0
M  V30 7438 H 717.467 -1.53181 1.20182 0
M  V30 7439 H 715.638 -3.87442 0.27268 0
M  V30 7440 H 717.37 -4.01921 0.47348 0
M  V30 7441 H 714.125 -4.02696 2.49264 0
M  V30 7442 H 714.549 -4.48199 5.07392 0
M  V30 7443 H 719.191 -3.52665 2.3321 0
M  V30 7444 H 716.909 -4.57975 6.65796 0
M  V30 7445 H 720.495 -3.78589 4.41771 0
M  V30 7446 H 719.375 -4.30765 6.55295 0
M  V30 7447 N 716.879 -0.700114 -1.41195 0
M  V30 7448 C 717.826 -0.0376652 -2.30769 0
M  V30 7449 C 718.796 0.766544 -1.47354 0
M  V30 7450 O 719.981 0.73365 -1.76131 0
M  V30 7451 C 717.121 0.889452 -3.33441 0
M  V30 7452 C 716.234 0.076373 -4.31932 0
M  V30 7453 C 715.369 1.00155 -5.21673 0
M  V30 7454 C 714.408 0.181644 -6.1183 0
M  V30 7455 N 713.545 1.06087 -6.94039 0
M  V30 7456 H 718.385 -0.80726 -2.86858 0
M  V30 7457 H 715.922 -0.409798 -1.41277 0
M  V30 7458 H 717.88 1.44107 -3.91522 0
M  V30 7459 H 716.51 1.6254 -2.78892 0
M  V30 7460 H 715.562 -0.592223 -3.75762 0
M  V30 7461 H 716.874 -0.559076 -4.95657 0
M  V30 7462 H 716.028 1.62223 -5.8461 0
M  V30 7463 H 714.767 1.67085 -4.58186 0
M  V30 7464 H 713.772 -0.452085 -5.47938 0
M  V30 7465 H 714.997 -0.483925 -6.77374 0
M  V30 7466 H 712.943 1.7161 -6.33156 0
M  V30 7467 H 712.86 0.481094 -7.54468 0
M  V30 7468 H 714.128 1.66822 -7.6144 0
M  V30 7469 N 718.357 1.51182 -0.445186 0
M  V30 7470 C 719.597 2.04061 0.117717 0
M  V30 7471 C 719.961 1.32158 1.39278 0
M  V30 7472 O 721.162 1.75452 2.03642 0
M  V30 7473 C 719.433 3.55933 0.323445 0
M  V30 7474 S 720.992 4.30516 0.848627 0
M  V30 7475 H 717.81 0.710442 0.028165 0
M  V30 7476 H 720.412 1.85858 -0.606391 0
M  V30 7477 H 719.116 4.0583 -0.610764 0
M  V30 7478 H 718.647 3.78444 1.07441 0
M  V30 7479 H 720.662 4.48382 2.12528 0
M  V30 7480 N 719.835 0.176821 1.56605 0
M  V30 7481 C 721.06 -0.47599 2.01864 0
M  V30 7482 C 721.485 -1.55645 1.05623 0
M  V30 7483 O 720.843 -1.81263 0.0366729 0
M  V30 7484 C 720.891 -1.02619 3.4569 0
M  V30 7485 O 719.995 -2.13996 3.52533 0
M  V30 7486 H 719.336 -0.113363 0.654251 0
M  V30 7487 H 721.866 0.28233 2.02643 0
M  V30 7488 H 721.876 -1.34742 3.85109 0
M  V30 7489 H 720.551 -0.235138 4.15235 0
M  V30 7490 H 719.128 -1.82876 3.24978 0
M  V30 7491 N 721.313 -1.57302 -0.09688 0
M  V30 7492 C 722.724 -1.7496 -0.651595 0
M  V30 7493 C 723.075 -0.798746 -1.79205 0
M  V30 7494 O 722.2 0.0231858 -2.16388 0
M  V30 7495 C 722.795 -3.17259 -1.18878 0
M  V30 7496 C 721.354 -3.36348 -1.68958 0
M  V30 7497 C 720.501 -2.70766 -0.598413 0
M  V30 7498 H 723.452 -1.58173 0.12918 0
M  V30 7499 H 723.473 -3.20033 -2.05814 0
M  V30 7500 H 722.985 -3.8644 -0.358523 0
M  V30 7501 H 721.086 -2.72243 -2.5439 0
M  V30 7502 H 721.199 -4.44654 -1.7838 0
M  V30 7503 H 719.563 -2.32615 -1.03743 0
M  V30 7504 H 720.346 -3.42586 0.221238 0
M  V30 7505 N 722.791 0.367657 -1.53252 0
M  V30 7506 C 723.701 1.47415 -1.82499 0
M  V30 7507 C 724.717 1.58711 -0.713222 0
M  V30 7508 O 725.893 1.74644 -1.00306 0
M  V30 7509 C 722.958 2.82706 -2.00694 0
M  V30 7510 C 722.019 2.80955 -3.24596 0
M  V30 7511 C 721.252 4.09793 -3.41914 0
M  V30 7512 O 721.475 5.05852 -2.63572 0
M  V30 7513 O 720.409 4.15731 -4.3526 0
M  V30 7514 H 724.235 1.25624 -2.765 0
M  V30 7515 H 721.82 0.557559 -1.38606 0
M  V30 7516 H 723.702 3.62873 -2.14246 0
M  V30 7517 H 722.377 3.04479 -1.09883 0
M  V30 7518 H 721.284 1.99494 -3.16469 0
M  V30 7519 H 722.617 2.64136 -4.15323 0
M  V30 7520 N 724.269 1.44576 0.627338 0
M  V30 7521 C 725.518 1.46837 1.38281 0
M  V30 7522 C 725.831 0.10635 1.95311 0
M  V30 7523 O 727.037 0.00651084 2.71499 0
M  V30 7524 C 725.493 2.58527 2.50384 0
M  V30 7525 C 725.101 4.00953 1.99851 0
M  V30 7526 C 726.845 2.70013 3.27557 0
M  V30 7527 C 724.752 5.0406 3.09318 0
M  V30 7528 H 723.682 0.546319 0.519664 0
M  V30 7529 H 726.333 1.70654 0.674497 0
M  V30 7530 H 724.715 2.27957 3.23808 0
M  V30 7531 H 725.889 4.41108 1.33267 0
M  V30 7532 H 724.204 3.93743 1.35482 0
M  V30 7533 H 726.801 3.44217 4.09168 0
M  V30 7534 H 727.144 1.75961 3.77284 0
M  V30 7535 H 727.677 3.00011 2.61224 0
M  V30 7536 H 724.416 5.99753 2.6453 0
M  V30 7537 H 723.936 4.68493 3.74532 0
M  V30 7538 H 725.615 5.2793 3.74031 0
M  V30 7539 N 725.747 -0.868086 1.31537 0
M  V30 7540 C 726.679 -1.98165 1.15166 0
M  V30 7541 C 727.692 -1.6255 0.0902335 0
M  V30 7542 O 728.881 -1.75272 0.33791 0
M  V30 7543 C 725.981 -3.30772 0.737776 0
M  V30 7544 C 725.154 -3.94716 1.88462 0
M  V30 7545 C 724.213 -5.05641 1.45648 0
M  V30 7546 O 723.239 -5.2636 2.16642 0
M  V30 7547 N 724.441 -5.79474 0.34493 0
M  V30 7548 H 727.206 -2.12754 2.11083 0
M  V30 7549 H 724.767 -1.04217 1.23897 0
M  V30 7550 H 726.759 -4.02366 0.434032 0
M  V30 7551 H 725.329 -3.1233 -0.129834 0
M  V30 7552 H 724.549 -3.16079 2.35558 0
M  V30 7553 H 725.837 -4.34175 2.65273 0
M  V30 7554 H 725.235 -5.65164 -0.246259 0
M  V30 7555 H 723.792 -6.51722 0.100728 0
M  V30 7556 N 727.225 -1.14528 -1.08264 0
M  V30 7557 C 728.473 -0.912599 -1.80322 0
M  V30 7558 C 728.794 0.562256 -1.86718 0
M  V30 7559 O 728.064 1.40869 -1.36135 0
M  V30 7560 H 726.644 -0.334645 -0.667849 0
M  V30 7561 H 729.306 -1.44415 -1.30883 0
M  V30 7562 H 728.402 -1.31384 -2.83098 0
M  V30 7563 N 728.703 1.26451 -0.940633 0
M  V30 7564 C 729.653 2.24086 -0.420669 0
M  V30 7565 C 730.637 1.53501 0.482301 0
M  V30 7566 O 731.829 1.74127 0.317636 0
M  V30 7567 C 728.958 3.41866 0.313452 0
M  V30 7568 C 728.044 4.19737 -0.606779 0
M  V30 7569 N 728.435 4.7521 -1.73232 0
M  V30 7570 C 726.733 4.44091 -0.41226 0
M  V30 7571 C 727.434 5.34052 -2.30572 0
M  V30 7572 N 726.41 5.1971 -1.59381 0
M  V30 7573 H 730.212 2.64569 -1.27986 0
M  V30 7574 H 727.726 1.4153 -0.796436 0
M  V30 7575 H 729.723 4.1093 0.702991 0
M  V30 7576 H 728.383 3.0291 1.16942 0
M  V30 7577 H 729.394 4.72769 -2.11447 0
M  V30 7578 H 726.071 4.1556 0.401984 0
M  V30 7579 H 727.461 5.87845 -3.25404 0
M  V30 7580 N 730.181 0.707592 1.40822 0
M  V30 7581 C 731.111 0.0644925 2.33411 0
M  V30 7582 C 732.092 -0.754205 1.52466 0
M  V30 7583 O 733.277 -0.704749 1.80961 0
M  V30 7584 C 730.407 -0.863865 3.36385 0
M  V30 7585 C 729.361 -0.15138 4.27732 0
M  V30 7586 C 728.687 -1.19491 5.21177 0
M  V30 7587 C 729.987 0.989607 5.12839 0
M  V30 7588 H 731.681 0.837829 2.87438 0
M  V30 7589 H 729.227 0.404346 1.38207 0
M  V30 7590 H 731.18 -1.32309 4.0009 0
M  V30 7591 H 729.904 -1.66901 2.80734 0
M  V30 7592 H 728.563 0.287937 3.65467 0
M  V30 7593 H 728.211 -1.9929 4.61836 0
M  V30 7594 H 727.911 -0.723123 5.83134 0
M  V30 7595 H 729.435 -1.6544 5.8776 0
M  V30 7596 H 730.849 0.610114 5.70044 0
M  V30 7597 H 729.246 1.38926 5.83798 0
M  V30 7598 H 730.316 1.82389 4.49291 0
M  V30 7599 N 731.66 -1.50943 0.453197 0
M  V30 7600 C 732.623 -2.26684 -0.338705 0
M  V30 7601 C 733.623 -1.30748 -0.936032 0
M  V30 7602 O 734.813 -1.54327 -0.808002 0
M  V30 7603 C 731.945 -3.07063 -1.48071 0
M  V30 7604 H 733.138 -2.98131 0.325289 0
M  V30 7605 H 730.691 -1.54926 0.206771 0
M  V30 7606 H 731.426 -2.4007 -2.18029 0
M  V30 7607 H 731.211 -3.77545 -1.0584 0
M  V30 7608 H 732.701 -3.64393 -2.0398 0
M  V30 7609 N 733.138 -0.185124 -1.56509 0
M  V30 7610 C 734.363 0.465278 -2.02114 0
M  V30 7611 C 734.788 1.55083 -1.06447 0
M  V30 7612 O 734.146 1.81241 -0.0462852 0
M  V30 7613 C 734.194 1.00784 -3.46229 0
M  V30 7614 O 733.298 2.12123 -3.53663 0
M  V30 7615 H 732.639 0.109891 -0.654843 0
M  V30 7616 H 735.169 -0.293072 -2.0249 0
M  V30 7617 H 735.179 1.32697 -3.85818 0
M  V30 7618 H 733.854 0.213113 -4.15354 0
M  V30 7619 H 732.431 1.8115 -3.25943 0
M  V30 7620 N 734.616 1.57351 0.0885366 0
M  V30 7621 C 735.841 1.91011 0.80805 0
M  V30 7622 C 736.266 0.780009 1.71165 0
M  V30 7623 O 735.624 -0.268083 1.79307 0
M  V30 7624 C 735.672 3.23562 1.59185 0
M  V30 7625 O 734.776 3.11615 2.7013 0
M  V30 7626 H 734.117 0.625943 0.221565 0
M  V30 7627 H 736.647 2.04507 0.0617954 0
M  V30 7628 H 736.657 3.5703 1.97468 0
M  V30 7629 H 735.332 4.05398 0.928741 0
M  V30 7630 H 733.909 2.89673 2.34827 0
M  V30 7631 N 736.094 -0.359525 1.53444 0
M  V30 7632 C 737.057 -1.42357 1.7963 0
M  V30 7633 C 738.057 -1.46319 0.666884 0
M  V30 7634 O 739.247 -1.46974 0.935113 0
M  V30 7635 C 736.379 -2.81425 1.92387 0
M  V30 7636 H 737.572 -1.20409 2.74666 0
M  V30 7637 H 735.125 -0.593007 1.44614 0
M  V30 7638 H 735.86 -3.08679 0.994384 0
M  V30 7639 H 735.645 -2.79947 2.74539 0
M  V30 7640 H 737.135 -3.5847 2.14218 0
M  V30 7641 N 737.572 -1.44907 -0.619662 0
M  V30 7642 C 738.482 -1.55168 -1.75955 0
M  V30 7643 C 739.498 -0.43672 -1.6843 0
M  V30 7644 O 740.674 -0.695704 -1.89002 0
M  V30 7645 C 737.739 -1.50397 -3.12381 0
M  V30 7646 C 736.8 -2.72835 -3.31451 0
M  V30 7647 C 736.033 -2.68283 -4.61368 0
M  V30 7648 O 736.256 -1.74929 -5.42914 0
M  V30 7649 O 735.19 -3.59308 -4.82889 0
M  V30 7650 H 739.016 -2.51493 -1.7025 0
M  V30 7651 H 736.601 -1.27282 -0.782289 0
M  V30 7652 H 738.483 -1.50301 -3.93685 0
M  V30 7653 H 737.158 -0.572197 -3.18603 0
M  V30 7654 H 736.065 -2.78496 -2.49781 0
M  V30 7655 H 737.398 -3.65098 -3.30098 0
M  V30 7656 N 739.05 0.861098 -1.31996 0
M  V30 7657 C 739.997 1.96912 -1.20392 0
M  V30 7658 C 740.967 1.65869 -0.0875899 0
M  V30 7659 O 742.152 1.88992 -0.262011 0
M  V30 7660 C 739.292 3.32435 -0.926335 0
M  V30 7661 C 738.405 3.76018 -2.12684 0
M  V30 7662 C 737.54 5.00301 -1.78529 0
M  V30 7663 C 736.579 5.36357 -2.94937 0
M  V30 7664 N 735.716 6.51818 -2.60917 0
M  V30 7665 H 740.556 2.06169 -2.1517 0
M  V30 7666 H 738.093 1.00917 -1.07024 0
M  V30 7667 H 740.051 4.10478 -0.745917 0
M  V30 7668 H 738.681 3.22796 -0.0153578 0
M  V30 7669 H 737.733 2.93683 -2.41774 0
M  V30 7670 H 739.045 3.98664 -2.99781 0
M  V30 7671 H 738.199 5.86034 -1.57001 0
M  V30 7672 H 736.938 4.79578 -0.886356 0
M  V30 7673 H 735.943 4.49139 -3.17103 0
M  V30 7674 H 737.168 5.59041 -3.85552 0
M  V30 7675 H 735.114 6.32624 -1.73558 0
M  V30 7676 H 735.031 6.7445 -3.41544 0
M  V30 7677 H 736.299 7.4072 -2.42804 0
M  V30 7678 N 740.528 1.15101 1.07655 0
M  V30 7679 C 741.458 0.867864 2.16773 0
M  V30 7680 C 742.439 -0.180283 1.69142 0
M  V30 7681 O 743.624 -0.0353152 1.94168 0
M  V30 7682 C 740.754 0.35299 3.45501 0
M  V30 7683 C 739.708 1.33746 4.06566 0
M  V30 7684 C 739.034 0.681562 5.30338 0
M  V30 7685 C 740.334 2.7024 4.46954 0
M  V30 7686 H 742.028 1.78034 2.40716 0
M  V30 7687 H 739.574 0.857435 1.15689 0
M  V30 7688 H 741.527 0.142465 4.21159 0
M  V30 7689 H 740.251 -0.594945 3.21135 0
M  V30 7690 H 738.91 1.53429 3.32949 0
M  V30 7691 H 738.558 -0.272422 5.02262 0
M  V30 7692 H 738.258 1.33853 5.72151 0
M  V30 7693 H 739.782 0.48074 6.08705 0
M  V30 7694 H 741.196 2.5442 5.13754 0
M  V30 7695 H 739.593 3.32282 4.99709 0
M  V30 7696 H 740.663 3.26537 3.58471 0
M  V30 7697 N 742.006 -1.2595 0.947325 0
M  V30 7698 C 742.938 -2.25336 0.41906 0
M  V30 7699 C 743.951 -1.56135 -0.461051 0
M  V30 7700 O 745.14 -1.76438 -0.270505 0
M  V30 7701 C 742.24 -3.36334 -0.416233 0
M  V30 7702 C 741.413 -4.35088 0.449162 0
M  V30 7703 C 740.472 -5.25185 -0.326716 0
M  V30 7704 O 739.498 -5.68548 0.272374 0
M  V30 7705 N 740.7 -5.57388 -1.6217 0
M  V30 7706 H 743.465 -2.71298 1.27348 0
M  V30 7707 H 741.026 -1.39781 0.81688 0
M  V30 7708 H 743.018 -3.93564 -0.942826 0
M  V30 7709 H 741.588 -2.89819 -1.17148 0
M  V30 7710 H 740.808 -3.76841 1.15692 0
M  V30 7711 H 742.096 -4.98056 1.04008 0
M  V30 7712 H 741.494 -5.2405 -2.13046 0
M  V30 7713 H 740.051 -6.17234 -2.0944 0
M  V30 7714 N 743.484 -0.715051 -1.40445 0
M  V30 7715 C 744.9 -0.388555 -1.54798 0
M  V30 7716 C 745.1 1.10271 -1.68649 0
M  V30 7717 O 744.156 1.88875 -1.67578 0
M  V30 7718 C 745.469 -1.15414 -2.77669 0
M  V30 7719 C 747.017 -1.14039 -2.91486 0
M  V30 7720 C 747.492 -1.88812 -4.1727 0
M  V30 7721 N 748.983 -1.85878 -4.24268 0
M  V30 7722 C 749.718 -2.40558 -5.20499 0
M  V30 7723 N 749.214 -3.03791 -6.22642 0
M  V30 7724 N 751.007 -2.30703 -5.12574 0
M  V30 7725 H 743.158 -1.68201 -1.297 0
M  V30 7726 H 745.421 -0.710915 -0.627139 0
M  V30 7727 H 745.127 -2.20853 -2.7371 0
M  V30 7728 H 745.001 -0.745412 -3.69761 0
M  V30 7729 H 747.388 -0.0941996 -2.9495 0
M  V30 7730 H 747.469 -1.58834 -2.00513 0
M  V30 7731 H 747.113 -2.93422 -4.14568 0
M  V30 7732 H 747.043 -1.41438 -5.0725 0
M  V30 7733 H 749.534 -1.39794 -3.51093 0
M  V30 7734 H 749.847 -3.43032 -6.92495 0
M  V30 7735 H 748.192 -3.07875 -6.23087 0
M  V30 7736 H 751.383 -1.80961 -4.31707 0
M  V30 7737 H 751.556 -2.73618 -5.87398 0
M  V30 7738 N 744.962 1.50701 -0.461195 0
M  V30 7739 C 746.211 2.01458 0.0988277 0
M  V30 7740 C 746.524 1.34863 1.41673 0
M  V30 7741 O 747.73 1.76721 2.06111 0
M  V30 7742 C 746.186 3.59186 0.226648 0
M  V30 7743 C 745.794 4.34732 -1.08223 0
M  V30 7744 C 747.538 4.18015 0.73916 0
M  V30 7745 C 745.445 5.8422 -0.918747 0
M  V30 7746 H 744.375 0.7529 0.040709 0
M  V30 7747 H 747.026 1.736 -0.594589 0
M  V30 7748 H 745.408 3.83589 0.983621 0
M  V30 7749 H 746.582 4.22059 -1.84939 0
M  V30 7750 H 744.897 3.87466 -1.52509 0
M  V30 7751 H 747.494 5.27436 0.878347 0
M  V30 7752 H 747.837 3.78746 1.72793 0
M  V30 7753 H 748.37 3.9778 0.0398469 0
M  V30 7754 H 745.109 6.27944 -1.88059 0
M  V30 7755 H 744.629 5.99493 -0.191801 0
M  V30 7756 H 746.308 6.44382 -0.581405 0
M  V30 7757 N 746.441 0.193421 1.56409 0
M  V30 7758 C 747.687 -0.446449 1.97825 0
M  V30 7759 C 748.02 -1.61386 1.08019 0
M  V30 7760 O 747.295 -1.94053 0.131839 0
M  V30 7761 C 747.578 -0.908199 3.48459 0
M  V30 7762 C 747.431 0.260914 4.49043 0
M  V30 7763 C 748.75 -1.77428 4.0275 0
M  V30 7764 H 745.869 -0.160807 0.719243 0
M  V30 7765 H 748.511 0.284006 1.87865 0
M  V30 7766 H 746.661 -1.53062 3.57077 0
M  V30 7767 H 748.333 0.898548 4.52464 0
M  V30 7768 H 746.576 0.912949 4.24085 0
M  V30 7769 H 747.247 -0.104657 5.51901 0
M  V30 7770 H 749.723 -1.24936 3.96901 0
M  V30 7771 H 748.599 -2.06633 5.08521 0
M  V30 7772 H 748.86 -2.72788 3.47907 0
M  V30 7773 N 747.919 -1.57396 -0.0801906 0
M  V30 7774 C 748.866 -2.03107 -1.09618 0
M  V30 7775 C 749.836 -0.910118 -1.38946 0
M  V30 7776 O 751.021 -1.17719 -1.50156 0
M  V30 7777 C 748.161 -2.47293 -2.40708 0
M  V30 7778 C 747.274 -3.72972 -2.17982 0
M  V30 7779 C 746.409 -4.05975 -3.42576 0
M  V30 7780 C 745.448 -5.24719 -3.15177 0
M  V30 7781 N 744.585 -5.53401 -4.32078 0
M  V30 7782 H 749.425 -2.89677 -0.69939 0
M  V30 7783 H 746.962 -1.43263 -0.333785 0
M  V30 7784 H 748.92 -2.7096 -3.17232 0
M  V30 7785 H 747.55 -1.63713 -2.78205 0
M  V30 7786 H 746.602 -3.56693 -1.32189 0
M  V30 7787 H 747.914 -4.59638 -1.93738 0
M  V30 7788 H 747.068 -4.30498 -4.275 0
M  V30 7789 H 745.807 -3.17859 -3.69887 0
M  V30 7790 H 744.812 -5 -2.28648 0
M  V30 7791 H 746.037 -6.14445 -2.89197 0
M  V30 7792 H 743.983 -4.68245 -4.59437 0
M  V30 7793 H 743.9 -6.34469 -4.11078 0
M  V30 7794 H 745.168 -5.8247 -5.18024 0
M  V30 7795 N 749.397 0.351382 -1.53633 0
M  V30 7796 C 750.345 1.45142 -1.8176 0
M  V30 7797 C 751.339 1.54819 -0.687571 0
M  V30 7798 O 752.545 1.57536 -0.870772 0
M  V30 7799 H 748.92 0.483789 -0.575719 0
M  V30 7800 H 750.891 1.1863 -2.73806 0
M  V30 7801 C 749.64 2.81779 -2.03706 0
M  V30 7802 H 748.963 2.75097 -2.90107 0
M  V30 7803 H 750.403 3.5789 -2.27356 0
M  V30 7804 C 748.862 3.26762 -0.820271 0
M  V30 7805 O 749.392 4.01697 -0.0158603 0
M  V30 7806 N 747.598 2.83472 -0.639699 0
M  V30 7807 H 747.145 2.22655 -1.29547 0
M  V30 7808 H 747.103 3.13924 0.172995 0
M  V30 7809 N 750.875 1.45233 0.611969 0
M  V30 7810 C 751.805 1.5641 1.73373 0
M  V30 7811 C 752.786 0.415896 1.64937 0
M  V30 7812 O 753.971 0.638478 1.83404 0
M  V30 7813 C 751.101 1.52627 3.11965 0
M  V30 7814 C 750.055 2.66119 3.35208 0
M  V30 7815 C 749.381 2.4739 4.74028 0
M  V30 7816 C 750.681 4.08157 3.25891 0
M  V30 7817 H 752.375 2.50307 1.64277 0
M  V30 7818 H 749.921 1.20467 0.788904 0
M  V30 7819 H 751.874 1.59043 3.90235 0
M  V30 7820 H 750.598 0.552564 3.21892 0
M  V30 7821 H 749.257 2.59123 2.59327 0
M  V30 7822 H 748.905 1.48168 4.80682 0
M  V30 7823 H 748.605 3.23494 4.90536 0
M  V30 7824 H 750.129 2.55653 5.54503 0
M  V30 7825 H 751.543 4.1642 3.9404 0
M  V30 7826 H 749.94 4.84617 3.5393 0
M  V30 7827 H 751.01 4.30374 2.23397 0
M  V30 7828 N 752.353 -0.854086 1.3245 0
M  V30 7829 C 753.63 -1.59188 1.1366 0
M  V30 7830 C 754.01 -2.08917 -0.302807 0
M  V30 7831 O 753.358 -1.8795 -1.29951 0
M  V30 7832 C 753.568 -2.73757 2.16467 0
M  V30 7833 C 754.916 -3.43323 2.49829 0
M  V30 7834 O 755.94 -2.83983 2.15017 0
M  V30 7835 O 754.799 -4.50409 3.09506 0
M  V30 7836 H 751.893 -0.701092 0.438633 0
M  V30 7837 H 754.439 -0.898165 1.43983 0
M  V30 7838 H 753.211 -2.3454 3.1322 0
M  V30 7839 H 752.834 -3.50804 1.87142 0
M  V30 7840 N 753.831 -1.1567 -1.07043 0
M  V30 7841 C 755.078 -0.933517 -1.79699 0
M  V30 7842 C 755.406 0.539162 -1.86878 0
M  V30 7843 O 754.661 1.41592 -1.35093 0
M  V30 7844 C 754.96 -1.49677 -3.24548 0
M  V30 7845 C 754.626 -2.99047 -3.37463 0
M  V30 7846 C 753.288 -3.39824 -3.40695 0
M  V30 7847 C 755.64 -3.95027 -3.40004 0
M  V30 7848 C 752.968 -4.75215 -3.44075 0
M  V30 7849 C 755.32 -5.30295 -3.44921 0
M  V30 7850 C 753.984 -5.70562 -3.46432 0
M  V30 7851 H 753.254 -0.341598 -0.657565 0
M  V30 7852 H 755.901 -1.44263 -1.25938 0
M  V30 7853 H 754.206 -0.908915 -3.81111 0
M  V30 7854 H 755.903 -1.29986 -3.79348 0
M  V30 7855 H 752.493 -2.6653 -3.35648 0
M  V30 7856 H 756.677 -3.64596 -3.36725 0
M  V30 7857 H 751.933 -5.05754 -3.43545 0
M  V30 7858 H 756.107 -6.0446 -3.45833 0
M  V30 7859 H 753.734 -6.75456 -3.48803 0
M  V30 7860 N 755.309 1.25446 -0.953992 0
M  V30 7861 C 756.558 1.92441 -0.604101 0
M  V30 7862 C 756.871 1.75543 0.862796 0
M  V30 7863 O 758.077 2.37106 1.32262 0
M  V30 7864 C 756.533 3.44854 -1.02974 0
M  V30 7865 C 756.141 3.70464 -2.51914 0
M  V30 7866 C 757.885 4.1778 -0.752352 0
M  V30 7867 C 755.792 5.1638 -2.88281 0
M  V30 7868 H 754.722 0.720508 -0.222227 0
M  V30 7869 H 757.373 1.42318 -1.15836 0
M  V30 7870 H 755.755 3.93935 -0.403904 0
M  V30 7871 H 756.929 3.32038 -3.19511 0
M  V30 7872 H 755.244 3.10797 -2.77117 0
M  V30 7873 H 757.841 5.25261 -1.00024 0
M  V30 7874 H 758.184 4.15135 0.311212 0
M  V30 7875 H 758.717 3.74605 -1.33851 0
M  V30 7876 H 755.456 5.24135 -3.93653 0
M  V30 7877 H 754.976 5.55855 -2.25357 0
M  V30 7878 H 756.655 5.84497 -2.77439 0
M  V30 7879 N 756.787 0.722489 1.40064 0
M  V30 7880 C 758.033 0.265371 2.01056 0
M  V30 7881 C 758.366 -1.14062 1.57174 0
M  V30 7882 O 757.641 -1.77514 0.794916 0
M  V30 7883 C 757.924 0.353157 3.58364 0
M  V30 7884 C 757.777 1.79802 4.123 0
M  V30 7885 C 759.096 -0.271677 4.39261 0
M  V30 7886 H 756.215 0.0979002 0.730469 0
M  V30 7887 H 758.857 0.916289 1.66446 0
M  V30 7888 H 757.007 -0.201037 3.87979 0
M  V30 7889 H 758.679 2.40813 3.93455 0
M  V30 7890 H 756.922 2.32348 3.66329 0
M  V30 7891 H 757.593 1.81079 5.21454 0
M  V30 7892 H 760.069 0.200607 4.15616 0
M  V30 7893 H 758.945 -0.179843 5.48605 0
M  V30 7894 H 759.206 -1.35611 4.20787 0
M  V30 7895 N 758.265 -1.50454 0.469181 0
M  V30 7896 C 759.495 -2.06429 -0.0840913 0
M  V30 7897 C 759.903 -1.3334 -1.34227 0
M  V30 7898 O 759.246 -0.395656 -1.79389 0
M  V30 7899 C 759.308 -3.56797 -0.440049 0
M  V30 7900 C 758.972 -4.51359 0.715838 0
M  V30 7901 C 759.969 -4.94754 1.59732 0
M  V30 7902 C 757.654 -4.94069 0.905621 0
M  V30 7903 C 759.648 -5.79564 2.653 0
M  V30 7904 C 757.335 -5.78662 1.96453 0
M  V30 7905 C 758.333 -6.21311 2.83658 0
M  V30 7906 O 758.021 -7.04218 3.87727 0
M  V30 7907 H 757.753 -0.675994 0.00289751 0
M  V30 7908 H 760.307 -1.94629 0.656417 0
M  V30 7909 H 758.537 -3.66492 -1.23372 0
M  V30 7910 H 760.226 -3.95145 -0.928181 0
M  V30 7911 H 760.992 -4.62428 1.46237 0
M  V30 7912 H 756.871 -4.60394 0.236326 0
M  V30 7913 H 760.415 -6.12774 3.33398 0
M  V30 7914 H 756.312 -6.10401 2.09955 0
M  V30 7915 H 757.08 -7.22464 3.84692 0
M  V30 7916 N 759.743 -0.201713 -1.56304 0
M  V30 7917 C 760.69 0.716499 -2.19397 0
M  V30 7918 C 761.66 1.20494 -1.14326 0
M  V30 7919 O 762.845 1.26763 -1.42604 0
M  V30 7920 C 759.985 1.92762 -2.86246 0
M  V30 7921 C 759.098 1.47993 -4.0586 0
M  V30 7922 C 758.233 2.64706 -4.60547 0
M  V30 7923 C 757.272 2.16576 -5.72504 0
M  V30 7924 N 756.409 3.26491 -6.21569 0
M  V30 7925 H 761.249 0.171724 -2.97505 0
M  V30 7926 H 758.786 0.073016 -1.46919 0
M  V30 7927 H 760.744 2.6384 -3.23178 0
M  V30 7928 H 759.374 2.44559 -2.10691 0
M  V30 7929 H 758.426 0.66477 -3.74546 0
M  V30 7930 H 759.738 1.08686 -4.86815 0
M  V30 7931 H 758.892 3.43898 -4.99819 0
M  V30 7932 H 757.631 3.0729 -3.78713 0
M  V30 7933 H 756.636 1.3584 -5.32755 0
M  V30 7934 H 757.861 1.75015 -6.56161 0
M  V30 7935 H 755.807 3.68594 -5.42655 0
M  V30 7936 H 755.724 2.91374 -6.97594 0
M  V30 7937 H 756.992 4.05877 -6.65495 0
M  V30 7938 N 761.222 1.57436 0.0718424 0
M  V30 7939 C 762.469 1.87248 0.771007 0
M  V30 7940 C 762.797 0.793441 1.7758 0
M  V30 7941 O 762.052 -0.210565 1.94564 0
M  V30 7942 C 762.351 3.23723 1.51455 0
M  V30 7943 C 762.017 4.46194 0.649736 0
M  V30 7944 C 760.679 4.79438 0.411409 0
M  V30 7945 C 763.031 5.21176 0.05004 0
M  V30 7946 C 760.359 5.85077 -0.436096 0
M  V30 7947 C 762.711 6.27712 -0.784919 0
M  V30 7948 C 761.375 6.59457 -1.03312 0
M  V30 7949 H 760.645 0.685188 0.282132 0
M  V30 7950 H 763.292 1.91474 0.0317896 0
M  V30 7951 H 761.597 3.15287 2.32597 0
M  V30 7952 H 763.294 3.44023 2.06031 0
M  V30 7953 H 759.884 4.20175 0.84562 0
M  V30 7954 H 764.068 4.95806 0.221282 0
M  V30 7955 H 759.324 6.08071 -0.637136 0
M  V30 7956 H 763.498 6.84974 -1.25635 0
M  V30 7957 H 761.125 7.4114 -1.6916 0
M  V30 7958 N 762.7 -0.34323 1.53817 0
M  V30 7959 C 763.977 -1.10047 1.61706 0
M  V30 7960 C 764.357 -2.06495 0.438514 0
M  V30 7961 O 763.705 -2.21297 -0.569188 0
M  V30 7962 C 763.915 -1.81985 2.97796 0
M  V30 7963 C 765.263 -2.35717 3.53161 0
M  V30 7964 O 766.287 -1.9208 2.99973 0
M  V30 7965 O 765.146 -3.15551 4.46195 0
M  V30 7966 H 762.24 -0.506096 0.654061 0
M  V30 7967 H 764.786 -0.344697 1.66162 0
M  V30 7968 H 763.558 -1.11722 3.75012 0
M  V30 7969 H 763.181 -2.64419 2.96931 0
M  V30 7970 N 764.178 -1.45556 -0.604258 0
M  V30 7971 C 765.126 -1.5482 -1.7359 0
M  V30 7972 C 766.12 -0.417966 -1.64163 0
M  V30 7973 O 767.326 -0.594007 -1.69916 0
M  V30 7974 H 763.701 -0.486352 -0.573556 0
M  V30 7975 H 765.672 -2.5001 -1.62903 0
M  V30 7976 C 764.421 -1.53521 -3.11972 0
M  V30 7977 H 763.744 -2.39818 -3.19886 0
M  V30 7978 H 765.184 -1.64061 -3.90973 0
M  V30 7979 C 763.643 -0.260191 -3.35894 0
M  V30 7980 O 764.173 0.658582 -3.96265 0
M  V30 7981 N 762.379 -0.154839 -2.90187 0
M  V30 7982 H 761.926 -0.903378 -2.4124 0
M  V30 7983 H 761.884 0.697437 -3.06567 0
M  V30 7984 N 765.656 0.84705 -1.32902 0
M  V30 7985 C 766.886 1.63166 -1.26729 0
M  V30 7986 C 767.294 1.88474 0.165595 0
M  V30 7987 O 766.637 1.45947 1.11558 0
M  V30 7988 C 766.699 3.0103 -1.96522 0
M  V30 7989 C 766.363 2.9873 -3.45846 0
M  V30 7990 C 767.36 2.75032 -4.41196 0
M  V30 7991 C 765.045 3.19125 -3.87898 0
M  V30 7992 C 767.039 2.71743 -5.76571 0
M  V30 7993 C 764.726 3.15462 -5.2338 0
M  V30 7994 C 765.724 2.91801 -6.17528 0
M  V30 7995 O 765.412 2.88027 -7.5053 0
M  V30 7996 H 765.144 0.51469 -0.438258 0
M  V30 7997 H 767.698 1.06383 -1.75704 0
M  V30 7998 H 765.928 3.59634 -1.42128 0
M  V30 7999 H 767.617 3.61821 -1.83958 0
M  V30 8000 H 768.383 2.59034 -4.10032 0
M  V30 8001 H 764.262 3.36565 -3.15032 0
M  V30 8002 H 767.806 2.53194 -6.5003 0
M  V30 8003 H 763.703 3.31006 -5.54171 0
M  V30 8004 H 764.471 3.03927 -7.59981 0
M  V30 8005 N 767.134 1.16236 1.06428 0
M  V30 8006 C 768.382 0.941171 1.78847 0
M  V30 8007 C 768.703 -0.53248 1.87589 0
M  V30 8008 O 767.973 -1.38686 1.38358 0
M  V30 8009 H 766.553 0.345228 0.66244 0
M  V30 8010 H 769.215 1.46479 1.28569 0
M  V30 8011 H 768.311 1.35871 2.80972 0
M  V30 8012 N 768.612 -1.24939 0.960631 0
M  V30 8013 C 769.559 -2.25658 0.484459 0
M  V30 8014 C 770.529 -1.59422 -0.466242 0
M  V30 8015 O 771.714 -1.87015 -0.378169 0
M  V30 8016 C 768.854 -3.44359 -0.225958 0
M  V30 8017 C 767.967 -4.25214 0.762682 0
M  V30 8018 C 767.102 -5.31192 0.0290931 0
M  V30 8019 C 766.141 -6.03739 1.00827 0
M  V30 8020 N 765.278 -7.01437 0.305155 0
M  V30 8021 H 770.118 -2.65758 1.34821 0
M  V30 8022 H 767.655 -1.30648 0.675983 0
M  V30 8023 H 769.613 -4.12035 -0.654472 0
M  V30 8024 H 768.243 -3.05118 -1.05371 0
M  V30 8025 H 767.295 -3.57144 1.30966 0
M  V30 8026 H 768.607 -4.75406 1.50964 0
M  V30 8027 H 767.761 -6.04971 -0.457763 0
M  V30 8028 H 766.5 -4.81889 -0.750614 0
M  V30 8029 H 765.505 -5.2877 1.50607 0
M  V30 8030 H 766.73 -6.55131 1.7883 0
M  V30 8031 H 764.676 -6.54415 -0.455704 0
M  V30 8032 H 764.593 -7.49475 0.991104 0
M  V30 8033 H 765.861 -7.79336 -0.159966 0
M  V30 8034 N 770.09 -0.729906 -1.39679 0
M  V30 8035 C 771.318 -0.285709 -2.04918 0
M  V30 8036 C 771.733 1.07765 -1.55023 0
M  V30 8037 O 771.09 1.67999 -0.712923 0
M  V30 8038 C 771.141 -0.272793 -3.60469 0
M  V30 8039 O 770.862 -1.58233 -4.08527 0
M  V30 8040 C 772.363 0.188199 -4.429 0
M  V30 8041 H 769.583 -0.125758 -0.65911 0
M  V30 8042 H 772.127 -0.992129 -1.78821 0
M  V30 8043 H 770.282 0.384699 -3.85485 0
M  V30 8044 H 770.696 -1.49245 -5.02818 0
M  V30 8045 H 772.17 0.14608 -5.51807 0
M  V30 8046 H 772.647 1.2326 -4.21549 0
M  V30 8047 H 773.253 -0.439541 -4.23023 0
M  V30 8048 N 771.568 1.50203 -0.477153 0
M  V30 8049 C 772.815 2.02358 0.0757385 0
M  V30 8050 C 773.143 1.3587 1.39174 0
M  V30 8051 O 772.398 0.475415 1.89838 0
M  V30 8052 C 772.697 3.56127 0.301325 0
M  V30 8053 C 772.363 4.41126 -0.933725 0
M  V30 8054 C 771.025 4.64075 -1.27233 0
M  V30 8055 C 773.377 4.90737 -1.75576 0
M  V30 8056 C 770.705 5.33878 -2.43292 0
M  V30 8057 C 773.057 5.61816 -2.90768 0
M  V30 8058 C 771.721 5.83016 -3.25036 0
M  V30 8059 H 770.991 0.740482 0.0277147 0
M  V30 8060 H 773.638 1.80754 -0.632467 0
M  V30 8061 H 771.943 3.76279 1.09183 0
M  V30 8062 H 773.64 3.94053 0.743184 0
M  V30 8063 H 770.23 4.23489 -0.659935 0
M  V30 8064 H 774.414 4.72856 -1.50734 0
M  V30 8065 H 769.67 5.48499 -2.70109 0
M  V30 8066 H 773.844 5.99237 -3.54807 0
M  V30 8067 H 771.471 6.36881 -4.15074 0
M  V30 8068 N 773.046 0.209999 1.56195 0
M  V30 8069 C 774.295 -0.425106 1.97169 0
M  V30 8070 C 774.608 -1.61718 1.10031 0
M  V30 8071 O 775.814 -2.32105 1.40853 0
M  V30 8072 C 774.27 -0.80771 3.50719 0
M  V30 8073 C 773.878 0.360902 4.46544 0
M  V30 8074 C 775.622 -1.40906 4.00432 0
M  V30 8075 C 773.529 -0.0434919 5.91384 0
M  V30 8076 H 772.459 -0.162598 0.736259 0
M  V30 8077 H 775.11 0.304382 1.80958 0
M  V30 8078 H 773.492 -1.59429 3.62489 0
M  V30 8079 H 774.666 1.13846 4.46515 0
M  V30 8080 H 772.981 0.874729 4.07109 0
M  V30 8081 H 775.578 -1.72433 5.06133 0
M  V30 8082 H 775.921 -2.32081 3.45607 0
M  V30 8083 H 776.454 -0.686154 3.91838 0
M  V30 8084 H 773.193 0.834448 6.50167 0
M  V30 8085 H 772.713 -0.785598 5.94633 0
M  V30 8086 H 774.392 -0.474176 6.4526 0
M  V30 8087 N 774.524 -1.57472 -0.0634922 0
M  V30 8088 C 775.471 -2.04258 -1.07457 0
M  V30 8089 C 776.441 -0.924804 -1.37973 0
M  V30 8090 O 777.626 -1.19305 -1.48899 0
M  V30 8091 C 774.766 -2.49832 -2.38071 0
M  V30 8092 C 773.879 -3.75263 -2.14014 0
M  V30 8093 C 773.014 -4.09585 -3.38251 0
M  V30 8094 C 772.053 -5.28032 -3.09594 0
M  V30 8095 N 771.19 -5.57953 -4.26185 0
M  V30 8096 H 776.03 -2.90402 -0.668626 0
M  V30 8097 H 773.567 -1.43609 -0.318572 0
M  V30 8098 H 775.525 -2.7431 -3.14341 0
M  V30 8099 H 774.155 -1.66654 -2.76453 0
M  V30 8100 H 773.207 -3.58075 -1.28399 0
M  V30 8101 H 774.519 -4.61667 -1.88852 0
M  V30 8102 H 773.673 -4.35008 -4.2291 0
M  V30 8103 H 772.412 -3.21765 -3.66495 0
M  V30 8104 H 771.417 -5.02397 -2.23332 0
M  V30 8105 H 772.642 -6.17477 -2.82663 0
M  V30 8106 H 770.588 -4.73092 -4.54445 0
M  V30 8107 H 770.505 -6.38793 -4.04326 0
M  V30 8108 H 771.773 -5.87931 -5.11817 0
M  V30 8109 N 776.003 0.335068 -1.53997 0
M  V30 8110 C 776.95 1.41187 -1.82579 0
M  V30 8111 C 777.92 1.51897 -0.672061 0
M  V30 8112 O 779.105 1.673 -0.917346 0
M  V30 8113 C 776.245 2.77717 -2.0486 0
M  V30 8114 C 775.358 2.7573 -3.32561 0
M  V30 8115 C 774.493 4.04032 -3.44864 0
M  V30 8116 C 773.532 3.96308 -4.66483 0
M  V30 8117 N 772.669 5.16317 -4.75774 0
M  V30 8118 H 777.509 1.16113 -2.74448 0
M  V30 8119 H 775.046 0.562305 -1.35928 0
M  V30 8120 H 777.004 3.57071 -2.15768 0
M  V30 8121 H 775.634 3.01124 -1.16294 0
M  V30 8122 H 774.686 1.88432 -3.3045 0
M  V30 8123 H 775.998 2.65902 -4.22016 0
M  V30 8124 H 775.152 4.91814 -3.55251 0
M  V30 8125 H 773.891 4.16652 -2.53481 0
M  V30 8126 H 772.896 3.06911 -4.56164 0
M  V30 8127 H 774.121 3.85263 -5.5924 0
M  V30 8128 H 772.067 5.29464 -3.87303 0
M  V30 8129 H 771.984 5.08779 -5.59178 0
M  V30 8130 H 773.252 6.05846 -4.9048 0
M  V30 8131 N 777.481 1.45874 0.596531 0
M  V30 8132 C 778.413 1.51408 1.7207 0
M  V30 8133 C 779.426 0.403738 1.57714 0
M  V30 8134 O 780.615 0.671384 1.65393 0
M  V30 8135 C 777.715 1.3652 3.10186 0
M  V30 8136 C 776.888 2.61428 3.50677 0
M  V30 8137 C 775.947 2.40937 4.67799 0
M  V30 8138 O 774.973 3.14602 4.74357 0
M  V30 8139 N 776.175 1.4621 5.61785 0
M  V30 8140 H 778.94 2.48333 1.67782 0
M  V30 8141 H 776.501 1.41755 0.782129 0
M  V30 8142 H 778.493 1.20606 3.86311 0
M  V30 8143 H 777.063 0.478302 3.08919 0
M  V30 8144 H 776.283 2.92381 2.644 0
M  V30 8145 H 777.571 3.44432 3.74491 0
M  V30 8146 H 776.969 0.854382 5.59211 0
M  V30 8147 H 775.526 1.36264 6.37397 0
M  V30 8148 N 778.959 -0.83999 1.33349 0
M  V30 8149 C 779.906 -1.94972 1.23509 0
M  V30 8150 C 780.876 -1.65709 0.113967 0
M  V30 8151 O 782.061 -1.88552 0.292045 0
M  V30 8152 C 779.201 -3.30919 0.979105 0
M  V30 8153 C 778.314 -3.72587 2.18639 0
M  V30 8154 C 777.449 -4.97397 1.86465 0
M  V30 8155 C 776.488 -5.31597 3.03432 0
M  V30 8156 N 775.625 -6.47584 2.71254 0
M  V30 8157 H 780.465 -2.0272 2.18423 0
M  V30 8158 H 778.002 -0.992017 1.08616 0
M  V30 8159 H 779.96 -4.09239 0.811126 0
M  V30 8160 H 778.59 -3.22731 0.0667099 0
M  V30 8161 H 777.642 -2.89799 2.46416 0
M  V30 8162 H 778.954 -3.93844 3.06086 0
M  V30 8163 H 778.108 -5.83462 1.66305 0
M  V30 8164 H 776.847 -4.78107 0.96254 0
M  V30 8165 H 775.852 -4.44037 3.24208 0
M  V30 8166 H 777.077 -5.52836 3.94397 0
M  V30 8167 H 775.023 -6.29783 1.836 0
M  V30 8168 H 774.94 -6.68931 3.52231 0
M  V30 8169 H 776.208 -7.36764 2.54558 0
M  V30 8170 N 780.437 -1.16799 -1.0581 0
M  V30 8171 C 781.677 -0.963264 -1.80279 0
M  V30 8172 C 782.041 0.499671 -1.85384 0
M  V30 8173 O 783.242 0.823264 -2.55882 0
M  V30 8174 C 781.513 -1.57938 -3.20609 0
M  V30 8175 S 783.072 -1.51997 -4.11634 0
M  V30 8176 H 779.89 -0.346302 -0.620964 0
M  V30 8177 H 782.492 -1.48632 -1.26999 0
M  V30 8178 H 781.196 -2.63672 -3.14492 0
M  V30 8179 H 780.727 -1.05586 -3.78966 0
M  V30 8180 H 782.742 -0.523625 -4.93429 0
M  V30 8181 N 781.915 1.24427 -0.967243 0
M  V30 8182 C 783.14 1.9708 -0.646069 0
M  V30 8183 C 783.565 1.71272 0.777665 0
M  V30 8184 O 782.923 0.976179 1.52776 0
M  V30 8185 C 782.971 3.48501 -0.926266 0
M  V30 8186 O 782.075 4.12398 -0.0114653 0
M  V30 8187 H 781.416 0.617423 -0.244304 0
M  V30 8188 H 783.946 1.58215 -1.29727 0
M  V30 8189 H 783.956 3.98885 -0.857619 0
M  V30 8190 H 782.631 3.66613 -1.96386 0
M  V30 8191 H 781.208 3.72661 -0.133396 0
M  V30 8192 N 783.393 0.737304 1.3929 0
M  V30 8193 C 784.804 0.355966 1.83275 0
M  V30 8194 C 785.155 -1.11295 1.6158 0
M  V30 8195 O 784.28 -1.85871 1.10819 0
M  V30 8196 C 784.875 0.63931 3.32713 0
M  V30 8197 C 783.434 0.31144 3.75109 0
M  V30 8198 C 782.581 0.900765 2.62262 0
M  V30 8199 H 785.532 0.934763 1.28249 0
M  V30 8200 H 785.553 -0.0881293 3.80398 0
M  V30 8201 H 785.065 1.70847 3.48472 0
M  V30 8202 H 783.166 -0.751791 3.64937 0
M  V30 8203 H 783.279 0.795611 4.72448 0
M  V30 8204 H 781.643 0.327239 2.52589 0
M  V30 8205 H 782.426 1.97463 2.80826 0
M  V30 8206 N 784.871 -1.49948 0.485112 0
M  V30 8207 C 786.148 -1.95186 -0.12726 0
M  V30 8208 C 786.528 -1.42605 -1.5565 0
M  V30 8209 O 785.876 -0.632986 -2.19558 0
M  V30 8210 C 786.086 -3.48955 -0.0562117 0
M  V30 8211 C 787.434 -4.23932 -0.238106 0
M  V30 8212 O 788.458 -3.55955 -0.132145 0
M  V30 8213 O 787.317 -5.44614 -0.453658 0
M  V30 8214 H 784.411 -0.820433 -0.104014 0
M  V30 8215 H 786.957 -1.60659 0.546517 0
M  V30 8216 H 785.729 -3.79814 0.941122 0
M  V30 8217 H 785.352 -3.90056 -0.770834 0
M  V30 8218 N 786.349 -0.21828 -1.56081 0
M  V30 8219 C 787.312 0.679633 -2.18892 0
M  V30 8220 C 788.312 1.12405 -1.14986 0
M  V30 8221 O 789.502 1.03339 -1.40238 0
M  V30 8222 C 786.634 1.93063 -2.80962 0
M  V30 8223 H 787.827 0.132066 -2.99609 0
M  V30 8224 H 785.38 0.0313374 -1.56269 0
M  V30 8225 H 786.115 2.52015 -2.04106 0
M  V30 8226 H 785.9 1.62046 -3.57048 0
M  V30 8227 H 787.39 2.57043 -3.29118 0
M  V30 8228 N 787.827 1.57504 0.0551401 0
M  V30 8229 C 789.074 1.88055 0.751104 0
M  V30 8230 C 789.402 0.812231 1.76729 0
M  V30 8231 O 788.657 -0.189918 1.94776 0
M  V30 8232 C 788.956 3.25311 1.48013 0
M  V30 8233 C 788.622 4.46858 0.602375 0
M  V30 8234 C 787.284 4.79847 0.360536 0
M  V30 8235 C 789.636 5.212 -0.00524047 0
M  V30 8236 C 786.964 5.84582 -0.498127 0
M  V30 8237 C 789.316 6.26844 -0.851453 0
M  V30 8238 C 787.98 6.58324 -1.103 0
M  V30 8239 H 787.25 0.688142 0.274848 0
M  V30 8240 H 789.897 1.91497 0.0114795 0
M  V30 8241 H 788.202 3.17737 2.29239 0
M  V30 8242 H 789.899 3.46189 2.02371 0
M  V30 8243 H 786.489 4.21049 0.801007 0
M  V30 8244 H 790.673 4.96013 0.168682 0
M  V30 8245 H 785.929 6.07361 -0.701594 0
M  V30 8246 H 790.103 6.83603 -1.32893 0
M  V30 8247 H 787.73 7.39304 -1.77011 0
M  V30 8248 N 789.305 -0.326896 1.54172 0
M  V30 8249 C 790.554 -1.06274 1.71431 0
M  V30 8250 C 790.867 -1.89282 0.493123 0
M  V30 8251 O 792.073 -2.65933 0.54699 0
M  V30 8252 C 790.529 -1.93892 3.03206 0
M  V30 8253 C 790.137 -1.16011 4.32719 0
M  V30 8254 C 791.881 -2.67232 3.29829 0
M  V30 8255 C 789.788 -2.02755 5.55558 0
M  V30 8256 H 788.718 -0.400475 0.638855 0
M  V30 8257 H 791.369 -0.321184 1.80667 0
M  V30 8258 H 789.751 -2.71933 2.87869 0
M  V30 8259 H 790.925 -0.427643 4.58811 0
M  V30 8260 H 789.24 -0.54367 4.12836 0
M  V30 8261 H 791.837 -3.32434 4.18798 0
M  V30 8262 H 792.18 -3.34692 2.47562 0
M  V30 8263 H 792.713 -1.96255 3.46018 0
M  V30 8264 H 789.452 -1.3981 6.40417 0
M  V30 8265 H 788.972 -2.73745 5.33689 0
M  V30 8266 H 790.651 -2.61419 5.91835 0
M  V30 8267 N 790.784 -1.46188 -0.588786 0
M  V30 8268 C 791.716 -1.52319 -1.71265 0
M  V30 8269 C 792.729 -0.412096 -1.57498 0
M  V30 8270 O 793.918 -0.680146 -1.65034 0
M  V30 8271 C 791.018 -1.38164 -3.09458 0
M  V30 8272 C 790.191 -2.63284 -3.49286 0
M  V30 8273 C 789.25 -2.43415 -4.66514 0
M  V30 8274 O 788.276 -3.17113 -4.72682 0
M  V30 8275 N 789.478 -1.49187 -5.61002 0
M  V30 8276 H 792.243 -2.49219 -1.66463 0
M  V30 8277 H 789.804 -1.42167 -0.774601 0
M  V30 8278 H 791.796 -1.22653 -3.85666 0
M  V30 8279 H 790.366 -0.494678 -3.08661 0
M  V30 8280 H 789.586 -2.93779 -2.62845 0
M  V30 8281 H 790.874 -3.46413 -3.7266 0
M  V30 8282 H 790.272 -0.884027 -5.5875 0
M  V30 8283 H 788.829 -1.39642 -6.36666 0
M  V30 8284 N 792.262 0.832906 -1.33792 0
M  V30 8285 C 793.508 1.59089 -1.25772 0
M  V30 8286 C 793.841 1.93414 0.174601 0
M  V30 8287 O 793.116 1.59195 1.11746 0
M  V30 8288 C 793.399 2.89699 -2.13885 0
M  V30 8289 C 793.252 2.62017 -3.65605 0
M  V30 8290 C 794.571 3.91182 -2.01654 0
M  V30 8291 H 791.69 0.577232 -0.458227 0
M  V30 8292 H 794.332 0.960227 -1.6395 0
M  V30 8293 H 792.482 3.4352 -1.81456 0
M  V30 8294 H 794.154 2.14582 -4.08353 0
M  V30 8295 H 792.397 1.95621 -3.87189 0
M  V30 8296 H 793.068 3.55112 -4.2261 0
M  V30 8297 H 795.544 3.46684 -2.30107 0
M  V30 8298 H 794.42 4.80391 -2.65548 0
M  V30 8299 H 794.681 4.30861 -0.990536 0
M  V30 8300 N 793.74 1.17359 1.05189 0
M  V30 8301 C 794.703 0.892604 2.11105 0
M  V30 8302 C 795.703 -0.117236 1.60372 0
M  V30 8303 O 796.893 0.114936 1.7382 0
M  V30 8304 C 794.025 0.337032 3.3923 0
M  V30 8305 H 795.218 1.83169 2.37464 0
M  V30 8306 H 792.771 0.984051 1.21434 0
M  V30 8307 H 793.506 -0.609198 3.18527 0
M  V30 8308 H 793.291 1.06484 3.77364 0
M  V30 8309 H 794.781 0.158763 4.17298 0
M  V30 8310 N 795.218 -1.23913 0.973828 0
M  V30 8311 C 796.148 -2.27453 0.527969 0
M  V30 8312 C 797.129 -1.6443 -0.435513 0
M  V30 8313 O 798.314 -1.9137 -0.330306 0
M  V30 8314 C 795.444 -3.4685 -0.176757 0
M  V30 8315 C 794.398 -4.22181 0.703352 0
M  V30 8316 C 793.724 -5.34534 -0.133215 0
M  V30 8317 C 795.024 -4.82865 1.99096 0
M  V30 8318 H 796.718 -2.65 1.3934 0
M  V30 8319 H 794.264 -1.27388 0.671446 0
M  V30 8320 H 796.217 -4.18424 -0.499934 0
M  V30 8321 H 794.941 -3.08346 -1.07659 0
M  V30 8322 H 793.6 -3.52416 1.00989 0
M  V30 8323 H 793.248 -4.92271 -1.03338 0
M  V30 8324 H 792.948 -5.85855 0.452494 0
M  V30 8325 H 794.472 -6.08933 -0.450924 0
M  V30 8326 H 795.886 -5.46481 1.73297 0
M  V30 8327 H 794.283 -5.44444 2.52389 0
M  V30 8328 H 795.353 -4.03977 2.68199 0
M  V30 8329 N 796.696 -0.74468 -1.38897 0
M  V30 8330 C 797.628 -0.0713608 -2.29089 0
M  V30 8331 C 798.641 0.693224 -1.47303 0
M  V30 8332 O 799.83 0.535785 -1.70269 0
M  V30 8333 C 796.93 0.923078 -3.26087 0
M  V30 8334 C 796.103 0.217998 -4.36856 0
M  V30 8335 C 795.162 1.12192 -5.14101 0
M  V30 8336 O 794.188 0.595771 -5.66073 0
M  V30 8337 N 795.39 2.45082 -5.26227 0
M  V30 8338 H 798.155 -0.845906 -2.87514 0
M  V30 8339 H 795.716 -0.594712 -1.50581 0
M  V30 8340 H 797.708 1.53061 -3.74639 0
M  V30 8341 H 796.278 1.59876 -2.68623 0
M  V30 8342 H 795.498 -0.570134 -3.90055 0
M  V30 8343 H 796.786 -0.270248 -5.08082 0
M  V30 8344 H 796.184 2.90294 -4.85537 0
M  V30 8345 H 794.741 3.00907 -5.78185 0
M  V30 8346 N 798.174 1.49689 -0.493057 0
M  V30 8347 C 799.104 2.31826 0.279073 0
M  V30 8348 C 800.085 1.39733 0.969987 0
M  V30 8349 O 801.27 1.68646 0.962925 0
M  V30 8350 C 798.4 3.20046 1.34862 0
M  V30 8351 C 797.354 4.20869 0.77805 0
M  V30 8352 C 796.68 4.97971 1.94753 0
M  V30 8353 C 797.98 5.21813 -0.225543 0
M  V30 8354 H 799.674 2.96627 -0.406512 0
M  V30 8355 H 797.22 1.42647 -0.196943 0
M  V30 8356 H 799.173 3.76315 1.89645 0
M  V30 8357 H 797.897 2.53172 2.06328 0
M  V30 8358 H 796.556 3.65733 0.252036 0
M  V30 8359 H 796.204 4.27552 2.64969 0
M  V30 8360 H 795.904 5.66186 1.57187 0
M  V30 8361 H 797.428 5.57082 2.49984 0
M  V30 8362 H 798.842 5.72823 0.233864 0
M  V30 8363 H 797.239 5.97872 -0.516622 0
M  V30 8364 H 798.309 4.71209 -1.14412 0
M  V30 8365 N 799.652 0.226554 1.55963 0
M  V30 8366 C 800.615 -0.668015 2.19249 0
M  V30 8367 C 801.615 -1.11794 1.1558 0
M  V30 8368 O 802.805 -1.02593 1.40784 0
M  V30 8369 C 799.937 -1.91571 2.81981 0
M  V30 8370 H 801.13 -0.116175 2.99675 0
M  V30 8371 H 798.683 -0.0230497 1.56283 0
M  V30 8372 H 799.418 -2.50929 2.05439 0
M  V30 8373 H 799.203 -1.6015 3.57903 0
M  V30 8374 H 800.693 -2.55294 3.30477 0
M  V30 8375 N 801.13 -1.57531 -0.0467866 0
M  V30 8376 C 802.377 -1.88451 -0.74112 0
M  V30 8377 C 802.705 -0.821592 -1.76296 0
M  V30 8378 O 801.96 0.179585 -1.94874 0
M  V30 8379 C 802.259 -3.26091 -1.46285 0
M  V30 8380 C 801.925 -4.47171 -0.578669 0
M  V30 8381 C 800.587 -4.80032 -0.335083 0
M  V30 8382 C 802.939 -5.2119 0.0328809 0
M  V30 8383 C 800.267 -5.84309 0.529121 0
M  V30 8384 C 802.619 -6.26383 0.884684 0
M  V30 8385 C 801.283 -6.57729 1.1379 0
M  V30 8386 H 800.553 -0.68959 -0.271195 0
M  V30 8387 H 803.2 -1.915 -0.00132378 0
M  V30 8388 H 801.505 -3.18948 -2.27551 0
M  V30 8389 H 803.202 -3.47258 -2.00532 0
M  V30 8390 H 799.792 -4.21467 -0.778666 0
M  V30 8391 H 803.976 -4.96096 -0.142375 0
M  V30 8392 H 799.232 -6.06981 0.733794 0
M  V30 8393 H 803.406 -6.82888 1.36516 0
M  V30 8394 H 801.033 -7.38355 1.80929 0
M  V30 8395 N 802.608 0.318715 -1.54344 0
M  V30 8396 C 803.838 1.07394 -1.76494 0
M  V30 8397 C 804.246 1.82031 -0.515881 0
M  V30 8398 O 803.589 1.7609 0.52325 0
M  V30 8399 C 803.651 2.11401 -2.90775 0
M  V30 8400 C 803.315 1.56118 -4.29507 0
M  V30 8401 C 804.312 1.00043 -5.10184 0
M  V30 8402 C 801.997 1.60215 -4.76063 0
M  V30 8403 C 803.991 0.487993 -6.35529 0
M  V30 8404 C 801.678 1.08584 -6.01376 0
M  V30 8405 C 802.676 0.529714 -6.80943 0
M  V30 8406 O 802.364 0.0211823 -8.03897 0
M  V30 8407 H 802.096 0.325061 -0.592715 0
M  V30 8408 H 804.65 0.36901 -2.02058 0
M  V30 8409 H 802.88 2.85524 -2.60793 0
M  V30 8410 H 804.569 2.72683 -3.00664 0
M  V30 8411 H 805.335 0.961811 -4.75367 0
M  V30 8412 H 801.214 2.02441 -4.14172 0
M  V30 8413 H 804.758 0.0532608 -6.9758 0
M  V30 8414 H 800.655 1.12155 -6.35682 0
M  V30 8415 H 801.423 0.136151 -8.18387 0
M  V30 8416 N 804.086 1.46499 0.581025 0
M  V30 8417 C 805.502 1.31491 0.904563 0
M  V30 8418 C 805.702 0.287598 1.99437 0
M  V30 8419 O 804.758 -0.309247 2.50599 0
M  V30 8420 C 806.071 2.70163 1.32032 0
M  V30 8421 C 807.619 2.78266 1.43308 0
M  V30 8422 C 808.094 4.17524 1.8825 0
M  V30 8423 N 809.585 4.19949 1.9544 0
M  V30 8424 C 810.32 5.24594 2.31493 0
M  V30 8425 N 809.816 6.39564 2.66326 0
M  V30 8426 N 811.609 5.11961 2.32062 0
M  V30 8427 H 803.76 2.11946 -0.138856 0
M  V30 8428 H 806.023 0.948 0.000548528 0
M  V30 8429 H 805.729 3.46655 0.593554 0
M  V30 8430 H 805.603 3.00379 2.2815 0
M  V30 8431 H 807.99 2.02061 2.15071 0
M  V30 8432 H 808.071 2.51732 0.45438 0
M  V30 8433 H 807.715 4.94225 1.17065 0
M  V30 8434 H 807.645 4.41466 2.87081 0
M  V30 8435 H 810.136 3.36996 1.71004 0
M  V30 8436 H 810.449 7.15187 2.92793 0
M  V30 8437 H 808.794 6.42923 2.6396 0
M  V30 8438 H 811.985 4.21177 2.04272 0
M  V30 8439 H 812.158 5.93626 2.5983 0
M  V30 8440 N 805.565 -0.825799 1.34232 0
M  V30 8441 C 806.495 -1.95151 1.28212 0
M  V30 8442 C 807.476 -1.69345 0.160123 0
M  V30 8443 O 808.661 -1.90983 0.352019 0
M  V30 8444 C 805.791 -3.31554 1.03388 0
M  V30 8445 C 804.745 -3.71793 2.12023 0
M  V30 8446 C 804.071 -5.06147 1.72392 0
M  V30 8447 C 805.371 -3.84193 3.53826 0
M  V30 8448 H 807.065 -2.00445 2.22401 0
M  V30 8449 H 804.611 -0.962996 1.07063 0
M  V30 8450 H 806.564 -4.09889 0.978225 0
M  V30 8451 H 805.288 -3.26551 0.0564142 0
M  V30 8452 H 803.947 -2.95731 2.16654 0
M  V30 8453 H 803.595 -4.97628 0.733137 0
M  V30 8454 H 803.295 -5.34041 2.451 0
M  V30 8455 H 804.819 -5.86943 1.68317 0
M  V30 8456 H 806.233 -4.52806 3.51624 0
M  V30 8457 H 804.63 -4.23538 4.2513 0
M  V30 8458 H 805.7 -2.86272 3.91377 0
M  V30 8459 N 807.043 -1.17915 -1.04565 0
M  V30 8460 C 807.993 -0.869634 -2.10764 0
M  V30 8461 C 808.977 0.158502 -1.60117 0
M  V30 8462 O 810.169 -0.04483 -1.76943 0
M  V30 8463 C 807.298 -0.391642 -3.41059 0
M  V30 8464 C 806.384 -1.45156 -3.98485 0
M  V30 8465 N 806.775 -2.6667 -4.29792 0
M  V30 8466 C 805.073 -1.3109 -4.263 0
M  V30 8467 C 805.774 -3.34823 -4.75677 0
M  V30 8468 N 804.75 -2.62203 -4.76183 0
M  V30 8469 H 808.552 -1.79342 -2.32838 0
M  V30 8470 H 806.066 -1.0688 -1.22272 0
M  V30 8471 H 808.063 -0.151428 -4.16625 0
M  V30 8472 H 806.723 0.525862 -3.20413 0
M  V30 8473 H 807.734 -3.0358 -4.19594 0
M  V30 8474 H 804.411 -0.455545 -4.15007 0
M  V30 8475 H 805.801 -4.38645 -5.0896 0
M  V30 8476 N 808.521 1.23394 -0.980386 0
M  V30 8477 C 809.937 1.43961 -0.689008 0
M  V30 8478 C 810.137 1.87229 0.744809 0
M  V30 8479 O 809.193 2.01831 1.51725 0
M  V30 8480 C 810.506 2.49128 -1.68392 0
M  V30 8481 C 812.054 2.62941 -1.69796 0
M  V30 8482 C 812.529 3.71317 -2.68118 0
M  V30 8483 N 814.02 3.7876 -2.66636 0
M  V30 8484 C 814.755 4.62176 -3.39383 0
M  V30 8485 N 814.251 5.49682 -4.21688 0
M  V30 8486 N 816.044 4.56372 -3.28147 0
M  V30 8487 H 808.195 0.936106 -1.90659 0
M  V30 8488 H 810.458 0.473023 -0.821555 0
M  V30 8489 H 810.164 2.24252 -2.70931 0
M  V30 8490 H 810.038 3.47514 -1.46675 0
M  V30 8491 H 812.425 2.87168 -0.679617 0
M  V30 8492 H 812.506 1.64871 -1.95579 0
M  V30 8493 H 812.15 3.4784 -3.70095 0
M  V30 8494 H 812.08 4.68929 -2.3961 0
M  V30 8495 H 814.571 3.16226 -2.06904 0
M  V30 8496 H 814.884 6.10323 -4.74053 0
M  V30 8497 H 813.229 5.49306 -4.25779 0
M  V30 8498 H 816.42 3.87029 -2.63299 0
M  V30 8499 H 816.593 5.21153 -3.85102 0
M  V30 8500 N 809.999 0.752036 1.385 0
M  V30 8501 C 811.415 0.42946 1.53713 0
M  V30 8502 C 811.615 -1.0576 1.71514 0
M  V30 8503 O 810.671 -1.84366 1.72527 0
M  V30 8504 C 811.984 1.22735 2.74511 0
M  V30 8505 C 813.532 1.21727 2.8836 0
M  V30 8506 C 814.007 1.99809 4.12117 0
M  V30 8507 N 815.498 1.97062 4.19191 0
M  V30 8508 C 816.233 2.54274 5.13938 0
M  V30 8509 N 815.729 3.20193 6.14368 0
M  V30 8510 N 817.522 2.44212 5.06277 0
M  V30 8511 H 809.673 1.71581 1.25195 0
M  V30 8512 H 811.936 0.727293 0.60807 0
M  V30 8513 H 811.642 2.28032 2.67758 0
M  V30 8514 H 811.516 0.843186 3.67655 0
M  V30 8515 H 813.903 0.172367 2.94596 0
M  V30 8516 H 813.984 1.64094 1.96232 0
M  V30 8517 H 813.628 3.0431 4.06642 0
M  V30 8518 H 813.558 1.54837 5.03322 0
M  V30 8519 H 816.049 1.49054 3.47263 0
M  V30 8520 H 816.362 3.61272 6.83156 0
M  V30 8521 H 814.707 3.24287 6.14705 0
M  V30 8522 H 817.898 1.92343 4.26757 0
M  V30 8523 H 818.071 2.89096 5.79937 0
M  V30 8524 N 811.477 -1.49425 0.500989 0
M  V30 8525 C 812.407 -2.31971 -0.266775 0
M  V30 8526 C 813.388 -1.40245 -0.962563 0
M  V30 8527 O 814.573 -1.69154 -0.953968 0
M  V30 8528 C 811.703 -3.20757 -1.33163 0
M  V30 8529 C 810.657 -4.21275 -0.75572 0
M  V30 8530 C 809.983 -4.98997 -1.92109 0
M  V30 8531 C 811.283 -5.21686 0.253213 0
M  V30 8532 H 812.977 -2.96408 0.422237 0
M  V30 8533 H 810.523 -1.4254 0.204505 0
M  V30 8534 H 812.476 -3.77315 -1.87646 0
M  V30 8535 H 811.2 -2.54263 -2.04983 0
M  V30 8536 H 809.859 -3.65861 -0.232637 0
M  V30 8537 H 809.507 -4.28951 -2.62698 0
M  V30 8538 H 809.207 -5.67011 -1.54182 0
M  V30 8539 H 810.731 -5.584 -2.47026 0
M  V30 8540 H 812.145 -5.72939 -0.203483 0
M  V30 8541 H 810.542 -5.9759 0.548322 0
M  V30 8542 H 811.612 -4.70596 1.16909 0
M  V30 8543 N 812.955 -0.234822 -1.55841 0
M  V30 8544 C 814.201 0.393843 -1.98939 0
M  V30 8545 C 814.534 1.58466 -1.1226 0
M  V30 8546 O 813.809 1.93635 -0.183242 0
M  V30 8547 C 814.092 0.815492 -3.50745 0
M  V30 8548 C 813.945 -0.379878 -4.48193 0
M  V30 8549 C 815.264 1.66687 -4.07312 0
M  V30 8550 H 812.383 0.141681 -0.723253 0
M  V30 8551 H 815.025 -0.333716 -1.87046 0
M  V30 8552 H 813.175 1.43541 -3.6101 0
M  V30 8553 H 814.847 -1.0182 -4.49923 0
M  V30 8554 H 813.09 -1.02507 -4.21515 0
M  V30 8555 H 813.761 -0.0417069 -5.51984 0
M  V30 8556 H 816.237 1.14369 -4.00074 0
M  V30 8557 H 815.113 1.93078 -5.13821 0
M  V30 8558 H 815.374 2.63468 -3.55017 0
M  V30 8559 N 814.433 1.57553 0.0384317 0
M  V30 8560 C 815.844 1.77258 0.586211 0
M  V30 8561 C 816.195 0.864706 1.76117 0
M  V30 8562 O 815.32 0.057141 2.16325 0
M  V30 8563 C 815.915 3.21453 1.07021 0
M  V30 8564 C 814.474 3.42387 1.56358 0
M  V30 8565 C 813.621 2.72801 0.497508 0
M  V30 8566 H 816.572 1.57585 -0.187796 0
M  V30 8567 H 816.593 3.27451 1.93794 0
M  V30 8568 H 816.105 3.87505 0.214851 0
M  V30 8569 H 814.206 2.81497 2.44111 0
M  V30 8570 H 814.319 4.50968 1.61754 0
M  V30 8571 H 812.683 2.36305 0.95038 0
M  V30 8572 H 813.466 3.41529 -0.348234 0
M  V30 8573 N 815.911 -0.310526 1.54511 0
M  V30 8574 C 817.139 -1.06611 1.77318 0
M  V30 8575 C 817.554 -1.81265 0.528043 0
M  V30 8576 O 816.911 -1.75466 -0.50178 0
M  V30 8577 C 816.962 -2.05409 2.97472 0
M  V30 8578 O 816.683 -1.33785 4.17173 0
M  V30 8579 C 818.184 -2.93082 3.32593 0
M  V30 8580 H 815.404 -0.316578 0.591624 0
M  V30 8581 H 817.948 -0.352691 2.01436 0
M  V30 8582 H 816.103 -2.72266 2.7559 0
M  V30 8583 H 816.517 -2.00055 4.84849 0
M  V30 8584 H 817.991 -3.58274 4.19933 0
M  V30 8585 H 818.468 -3.60877 2.50329 0
M  V30 8586 H 819.074 -2.31768 3.566 0
M  V30 8587 N 817.389 -1.46805 -0.573248 0
M  V30 8588 C 818.619 -1.55965 -1.35494 0
M  V30 8589 C 819.027 -0.203038 -1.88107 0
M  V30 8590 O 818.37 0.81138 -1.6481 0
M  V30 8591 C 818.432 -2.51168 -2.57206 0
M  V30 8592 C 818.096 -3.97211 -2.25993 0
M  V30 8593 C 819.093 -4.86155 -1.84254 0
M  V30 8594 C 816.778 -4.42419 -2.37846 0
M  V30 8595 C 818.772 -6.18323 -1.54776 0
M  V30 8596 C 816.459 -5.74619 -2.0798 0
M  V30 8597 C 817.457 -6.62392 -1.66511 0
M  V30 8598 O 817.145 -7.92137 -1.37016 0
M  V30 8599 H 816.877 -0.529748 -0.419932 0
M  V30 8600 H 819.431 -1.92998 -0.702914 0
M  V30 8601 H 817.661 -2.09171 -3.25245 0
M  V30 8602 H 819.35 -2.50631 -3.19279 0
M  V30 8603 H 820.116 -4.52481 -1.74603 0
M  V30 8604 H 815.995 -3.74319 -2.69085 0
M  V30 8605 H 819.539 -6.8679 -1.22334 0
M  V30 8606 H 815.436 -6.0784 -2.17258 0
M  V30 8607 H 816.204 -8.04492 -1.50782 0
M  V30 8608 N 818.867 0.818669 -1.34668 0
M  V30 8609 C 819.777 1.9616 -1.2868 0
M  V30 8610 C 820.793 1.72918 -0.193742 0
M  V30 8611 O 821.969 1.96951 -0.420975 0
M  V30 8612 C 819.034 3.30534 -1.04633 0
M  V30 8613 C 818.095 3.66755 -2.23136 0
M  V30 8614 C 817.328 4.94717 -2.00227 0
M  V30 8615 O 817.551 5.62218 -0.96264 0
M  V30 8616 O 816.485 5.28915 -2.87286 0
M  V30 8617 H 820.311 2.04157 -2.24842 0
M  V30 8618 H 817.896 0.954691 -1.14917 0
M  V30 8619 H 819.778 4.11005 -0.930216 0
M  V30 8620 H 818.453 3.23495 -0.115139 0
M  V30 8621 H 817.36 2.8671 -2.40308 0
M  V30 8622 H 818.693 3.78484 -3.1466 0
M  V30 8623 N 820.346 1.18468 1.03938 0
M  V30 8624 C 821.571 1.00638 1.81347 0
M  V30 8625 C 821.996 -0.440477 1.8287 0
M  V30 8626 O 821.354 -1.31609 1.24695 0
M  V30 8627 C 821.402 1.5673 3.24759 0
M  V30 8628 O 820.506 0.789517 4.04772 0
M  V30 8629 H 819.847 0.356432 0.560225 0
M  V30 8630 H 822.377 1.57253 1.30891 0
M  V30 8631 H 822.387 1.59496 3.75533 0
M  V30 8632 H 821.062 2.62043 3.22965 0
M  V30 8633 H 819.639 0.834267 3.63448 0
M  V30 8634 N 821.824 -1.22873 0.986916 0
M  V30 8635 C 822.787 -2.2281 0.537442 0
M  V30 8636 C 823.787 -1.56331 -0.37646 0
M  V30 8637 O 824.977 -1.73376 -0.169247 0
M  V30 8638 C 822.109 -3.40195 -0.219082 0
M  V30 8639 H 823.302 -2.64089 1.42116 0
M  V30 8640 H 820.855 -1.35819 0.773488 0
M  V30 8641 H 821.59 -3.04381 -1.11905 0
M  V30 8642 H 821.375 -3.89657 0.437026 0
M  V30 8643 H 822.865 -4.14326 -0.521926 0
M  V30 8644 N 823.302 -0.75937 -1.38099 0
M  V30 8645 C 824.527 -0.327859 -2.04792 0
M  V30 8646 C 824.952 1.03752 -1.56899 0
M  V30 8647 O 824.31 1.66235 -0.723581 0
M  V30 8648 C 824.358 -0.366264 -3.58735 0
M  V30 8649 O 823.462 0.637697 -4.0744 0
M  V30 8650 H 822.803 -0.144092 -0.648177 0
M  V30 8651 H 825.333 -1.03211 -1.7666 0
M  V30 8652 H 825.343 -0.219179 -4.07411 0
M  V30 8653 H 824.018 -1.36243 -3.92951 0
M  V30 8654 H 822.595 0.454749 -3.70117 0
M  V30 8655 N 824.78 1.49157 -0.508906 0
M  V30 8656 C 826.029 2.0167 0.0346854 0
M  V30 8657 C 826.342 1.39302 1.37311 0
M  V30 8658 O 827.548 1.83189 2.00385 0
M  V30 8659 C 826.004 3.59725 0.112261 0
M  V30 8660 C 825.612 4.31069 -1.21999 0
M  V30 8661 C 827.356 4.20155 0.605798 0
M  V30 8662 C 825.263 5.81001 -1.10415 0
M  V30 8663 H 824.193 0.753814 0.0167355 0
M  V30 8664 H 826.844 1.7162 -0.649518 0
M  V30 8665 H 825.226 3.86525 0.861087 0
M  V30 8666 H 826.4 4.15962 -1.98273 0
M  V30 8667 H 824.715 3.82418 -1.64759 0
M  V30 8668 H 827.312 5.29964 0.710102 0
M  V30 8669 H 827.655 3.84051 1.60656 0
M  V30 8670 H 828.188 3.97705 -0.0867239 0
M  V30 8671 H 824.927 6.21643 -2.07941 0
M  V30 8672 H 824.447 5.9858 -0.382428 0
M  V30 8673 H 826.126 6.42207 -0.786116 0
M  V30 8674 N 826.258 0.243083 1.55714 0
M  V30 8675 C 827.674 -0.111853 1.59208 0
M  V30 8676 C 827.874 -1.5723 1.2602 0
M  V30 8677 O 826.93 -2.31608 1.00569 0
M  V30 8678 C 828.243 0.233885 2.99789 0
M  V30 8679 C 829.791 0.177873 3.12494 0
M  V30 8680 C 830.266 0.49759 4.55289 0
M  V30 8681 N 831.757 0.447949 4.61029 0
M  V30 8682 C 832.492 0.668545 5.69489 0
M  V30 8683 N 831.988 0.952064 6.86227 0
M  V30 8684 N 833.781 0.599512 5.58894 0
M  V30 8685 H 825.932 1.19554 1.75558 0
M  V30 8686 H 828.195 0.480765 0.817049 0
M  V30 8687 H 827.901 1.24835 3.28799 0
M  V30 8688 H 827.775 -0.440846 3.74615 0
M  V30 8689 H 830.162 -0.827263 2.83267 0
M  V30 8690 H 830.243 0.886399 2.39951 0
M  V30 8691 H 829.887 1.50026 4.85237 0
M  V30 8692 H 829.817 -0.232371 5.26087 0
M  V30 8693 H 832.308 0.237388 3.77154 0
M  V30 8694 H 832.621 1.10791 7.64817 0
M  V30 8695 H 830.966 0.989496 6.8792 0
M  V30 8696 H 834.157 0.378088 4.66571 0
M  V30 8697 H 834.33 0.774828 6.43351 0
M  V30 8698 N 827.736 -1.57571 -0.0300757 0
M  V30 8699 C 829.152 -1.54869 -0.385703 0
M  V30 8700 C 829.352 -0.969068 -1.76667 0
M  V30 8701 O 828.408 -0.589676 -2.45518 0
M  V30 8702 C 829.721 -2.99313 -0.288482 0
M  V30 8703 C 831.269 -3.10857 -0.365638 0
M  V30 8704 C 831.744 -4.5703 -0.297878 0
M  V30 8705 N 833.235 -4.61825 -0.356703 0
M  V30 8706 C 833.97 -5.72466 -0.327146 0
M  V30 8707 N 833.466 -6.92349 -0.249941 0
M  V30 8708 N 835.259 -5.60836 -0.376801 0
M  V30 8709 H 827.41 -1.936 0.87367 0
M  V30 8710 H 829.673 -0.887924 0.332106 0
M  V30 8711 H 829.379 -3.45443 0.66047 0
M  V30 8712 H 829.253 -3.61332 -1.08253 0
M  V30 8713 H 831.64 -2.64676 -1.30502 0
M  V30 8714 H 831.721 -2.51671 0.457744 0
M  V30 8715 H 831.365 -5.03879 0.637835 0
M  V30 8716 H 831.295 -5.14127 -1.13935 0
M  V30 8717 H 833.786 -3.75571 -0.418926 0
M  V30 8718 H 834.099 -7.7245 -0.23246 0
M  V30 8719 H 832.444 -6.94664 -0.216004 0
M  V30 8720 H 835.635 -4.66073 -0.435101 0
M  V30 8721 H 835.808 -6.47052 -0.350298 0
M  V30 8722 N 829.214 0.302327 -1.54673 0
M  V30 8723 C 830.461 1.0377 -1.73891 0
M  V30 8724 C 830.789 1.87309 -0.523979 0
M  V30 8725 O 830.044 1.8936 0.494084 0
M  V30 8726 C 830.343 1.97365 -2.97963 0
M  V30 8727 C 830.009 1.29812 -4.3181 0
M  V30 8728 C 828.671 1.11121 -4.68194 0
M  V30 8729 C 831.023 0.815073 -5.14787 0
M  V30 8730 C 828.351 0.428077 -5.85136 0
M  V30 8731 C 830.703 0.145665 -6.32432 0
M  V30 8732 C 829.367 -0.0532098 -6.67479 0
M  V30 8733 H 828.637 0.379721 -0.636312 0
M  V30 8734 H 831.284 0.312708 -1.8893 0
M  V30 8735 H 829.589 2.76387 -2.777 0
M  V30 8736 H 831.286 2.54331 -3.10027 0
M  V30 8737 H 827.876 1.45366 -4.03196 0
M  V30 8738 H 832.06 0.947191 -4.87178 0
M  V30 8739 H 827.316 0.262995 -6.10834 0
M  V30 8740 H 831.49 -0.236533 -6.95998 0
M  V30 8741 H 829.117 -0.58456 -7.57949 0
M  V30 8742 N 830.692 1.47107 0.565454 0
M  V30 8743 C 831.624 1.55024 1.6882 0
M  V30 8744 C 832.637 0.4371 1.56822 0
M  V30 8745 O 833.826 0.706315 1.63931 0
M  V30 8746 C 830.926 1.43069 3.0722 0
M  V30 8747 C 830.099 2.68807 3.45053 0
M  V30 8748 C 829.158 2.50806 4.62583 0
M  V30 8749 O 828.184 3.24593 4.67577 0
M  V30 8750 N 829.386 1.58093 5.58558 0
M  V30 8751 H 832.151 2.51836 1.62477 0
M  V30 8752 H 829.712 1.43382 0.751885 0
M  V30 8753 H 831.704 1.28773 3.83666 0
M  V30 8754 H 830.274 0.543721 3.07835 0
M  V30 8755 H 829.494 2.97923 2.58138 0
M  V30 8756 H 830.782 3.52298 3.67101 0
M  V30 8757 H 830.18 0.972807 5.57273 0
M  V30 8758 H 828.737 1.49753 6.34364 0
M  V30 8759 N 832.17 -0.811516 1.35101 0
M  V30 8760 C 833.08 -1.95475 1.29718 0
M  V30 8761 C 834.096 -1.72813 0.202909 0
M  V30 8762 O 835.272 -1.96725 0.431414 0
M  V30 8763 C 832.337 -3.29975 1.06385 0
M  V30 8764 C 831.398 -3.65566 2.25077 0
M  V30 8765 C 830.631 -4.93648 2.02848 0
M  V30 8766 O 830.854 -5.617 0.992442 0
M  V30 8767 O 829.788 -5.27384 2.90087 0
M  V30 8768 H 833.614 -2.02961 2.25921 0
M  V30 8769 H 831.199 -0.948583 1.15422 0
M  V30 8770 H 833.081 -4.10506 0.951999 0
M  V30 8771 H 831.756 -3.2343 0.132294 0
M  V30 8772 H 830.663 -2.85432 2.41825 0
M  V30 8773 H 831.996 -3.7681 3.16662 0
M  V30 8774 N 833.648 -1.19017 -1.03309 0
M  V30 8775 C 834.896 -0.988258 -1.76289 0
M  V30 8776 C 835.217 0.482557 -1.88935 0
M  V30 8777 O 834.487 1.34969 -1.41987 0
M  V30 8778 H 833.067 -0.36267 -0.653054 0
M  V30 8779 H 835.729 -1.49836 -1.2464 0
M  V30 8780 H 834.825 -1.43273 -2.77271 0
M  V30 8781 N 835.127 1.22348 -0.993418 0
M  V30 8782 C 836.543 1.43222 -0.704238 0
M  V30 8783 C 836.743 1.88009 0.724909 0
M  V30 8784 O 835.799 2.03429 1.49575 0
M  V30 8785 C 837.112 2.47328 -1.71025 0
M  V30 8786 C 838.66 2.61126 -1.72576 0
M  V30 8787 C 839.135 3.68453 -2.72041 0
M  V30 8788 N 840.626 3.75911 -2.70639 0
M  V30 8789 C 841.361 4.58551 -3.44266 0
M  V30 8790 N 840.857 5.45179 -4.27495 0
M  V30 8791 N 842.65 4.52866 -3.32969 0
M  V30 8792 H 834.801 0.915832 -1.91641 0
M  V30 8793 H 837.064 0.464283 -0.826526 0
M  V30 8794 H 836.77 2.21366 -2.73295 0
M  V30 8795 H 836.644 3.45939 -1.50353 0
M  V30 8796 H 839.031 2.86431 -0.710037 0
M  V30 8797 H 839.112 1.62787 -1.97317 0
M  V30 8798 H 838.756 3.43895 -3.73763 0
M  V30 8799 H 838.686 4.66362 -2.4457 0
M  V30 8800 H 841.177 3.14014 -2.10247 0
M  V30 8801 H 841.49 6.0526 -4.80499 0
M  V30 8802 H 839.835 5.44759 -4.31582 0
M  V30 8803 H 843.026 3.84215 -2.67389 0
M  V30 8804 H 843.199 5.17039 -3.90608 0
M  V30 8805 N 836.605 0.766683 1.37694 0
M  V30 8806 C 837.851 0.329201 2.0011 0
M  V30 8807 C 838.184 -1.09004 1.60723 0
M  V30 8808 O 837.459 -1.74895 0.850989 0
M  V30 8809 C 837.742 0.466989 3.57059 0
M  V30 8810 C 837.595 1.92828 4.06371 0
M  V30 8811 C 838.914 -0.131792 4.39903 0
M  V30 8812 H 836.033 0.12109 0.726984 0
M  V30 8813 H 838.675 0.968779 1.63446 0
M  V30 8814 H 836.825 -0.0775023 3.88423 0
M  V30 8815 H 838.497 2.53208 3.85595 0
M  V30 8816 H 836.74 2.43884 3.58752 0
M  V30 8817 H 837.411 1.97577 5.15429 0
M  V30 8818 H 839.887 0.332731 4.14768 0
M  V30 8819 H 838.763 -0.005217 5.489 0
M  V30 8820 H 839.024 -1.22156 4.24889 0
M  V30 8821 N 838.083 -1.48885 0.516809 0
M  V30 8822 C 839.36 -1.95412 -0.0858293 0
M  V30 8823 C 839.74 -1.45875 -1.5259 0
M  V30 8824 O 839.088 -0.679415 -2.18166 0
M  V30 8825 C 839.298 -3.48995 0.0178194 0
M  V30 8826 C 840.646 -4.24342 -0.14813 0
M  V30 8827 O 841.67 -3.56155 -0.0566125 0
M  V30 8828 O 840.529 -5.45454 -0.338035 0
M  V30 8829 H 837.623 -0.822455 -0.0865884 0
M  V30 8830 H 840.169 -1.59464 0.580472 0
M  V30 8831 H 838.941 -3.77732 1.02147 0
M  V30 8832 H 838.564 -3.91604 -0.687924 0
M  V30 8833 N 839.561 -0.251338 -1.55583 0
M  V30 8834 C 840.509 0.662534 -2.22965 0
M  V30 8835 C 841.503 1.17662 -1.21869 0
M  V30 8836 O 842.709 1.133 -1.39868 0
M  V30 8837 H 839.084 0.232151 -0.715269 0
M  V30 8838 H 841.055 0.0711252 -2.98315 0
M  V30 8839 C 839.804 1.84646 -2.94621 0
M  V30 8840 H 839.127 1.46003 -3.72187 0
M  V30 8841 H 840.567 2.46303 -3.45124 0
M  V30 8842 C 839.026 2.72034 -1.98744 0
M  V30 8843 O 839.556 3.71695 -1.52335 0
M  V30 8844 N 837.762 2.38695 -1.6575 0
M  V30 8845 H 837.309 1.57702 -2.03685 0
M  V30 8846 H 837.267 2.9744 -1.01867 0
M  V30 8847 N 841.039 1.57585 0.0217189 0
M  V30 8848 C 842.288 1.88786 0.710125 0
M  V30 8849 C 842.601 0.850819 1.76126 0
M  V30 8850 O 843.807 1.0523 2.50277 0
M  V30 8851 C 842.263 3.3505 1.31413 0
M  V30 8852 C 841.871 4.47001 0.298959 0
M  V30 8853 C 843.615 3.7539 1.98199 0
M  V30 8854 C 841.522 5.8433 0.911727 0
M  V30 8855 H 840.452 0.704388 0.268986 0
M  V30 8856 H 843.103 1.83466 -0.0352638 0
M  V30 8857 H 841.485 3.35138 2.10947 0
M  V30 8858 H 842.659 4.58395 -0.470203 0
M  V30 8859 H 840.974 4.15542 -0.267222 0
M  V30 8860 H 843.571 4.75314 2.4491 0
M  V30 8861 H 843.914 3.07766 2.80331 0
M  V30 8862 H 844.447 3.77508 1.2543 0
M  V30 8863 H 841.186 6.55372 0.129659 0
M  V30 8864 H 840.706 5.76643 1.65056 0
M  V30 8865 H 842.385 6.31295 1.41688 0
M  V30 8866 N 842.517 -0.29412 1.54831 0
M  V30 8867 C 843.933 -0.640167 1.46199 0
M  V30 8868 C 844.133 -1.90426 0.658798 0
M  V30 8869 O 843.189 -2.51932 0.169228 0
M  V30 8870 C 844.502 -0.786763 2.90225 0
M  V30 8871 C 846.05 -0.882201 3.0031 0
M  V30 8872 C 846.525 -1.06074 4.45547 0
M  V30 8873 N 848.016 -1.12678 4.49286 0
M  V30 8874 C 848.751 -1.28334 5.58854 0
M  V30 8875 N 848.247 -1.40845 6.78332 0
M  V30 8876 N 850.04 -1.31277 5.46555 0
M  V30 8877 H 842.191 0.536334 2.05517 0
M  V30 8878 H 844.454 0.178363 0.93107 0
M  V30 8879 H 844.16 0.0713018 3.51628 0
M  V30 8880 H 844.034 -1.67364 3.38037 0
M  V30 8881 H 846.421 -1.73075 2.39017 0
M  V30 8882 H 846.502 0.0288405 2.55784 0
M  V30 8883 H 846.146 -0.216935 5.07437 0
M  V30 8884 H 846.076 -1.98611 4.8771 0
M  V30 8885 H 848.567 -1.04335 3.63212 0
M  V30 8886 H 848.88 -1.52566 7.57591 0
M  V30 8887 H 847.225 -1.37888 6.81184 0
M  V30 8888 H 850.416 -1.2112 4.52159 0
M  V30 8889 H 850.589 -1.43136 6.31994 0
M  V30 8890 N 843.995 -1.47404 -0.557645 0
M  V30 8891 C 845.22 -1.57868 -1.34508 0
M  V30 8892 C 845.645 -0.229151 -1.86699 0
M  V30 8893 O 845.003 0.794908 -1.62944 0
M  V30 8894 C 845.051 -2.60712 -2.49122 0
M  V30 8895 O 844.155 -2.15952 -3.51338 0
M  V30 8896 H 843.496 -0.530335 -0.399551 0
M  V30 8897 H 846.026 -1.93181 -0.673954 0
M  V30 8898 H 846.036 -2.81118 -2.95697 0
M  V30 8899 H 844.711 -3.58701 -2.10491 0
M  V30 8900 H 843.288 -2.05644 -3.11071 0
M  V30 8901 N 845.473 0.80434 -1.35529 0
M  V30 8902 C 846.436 1.89788 -1.28503 0
M  V30 8903 C 847.436 1.59601 -0.195983 0
M  V30 8904 O 848.626 1.68292 -0.449827 0
M  V30 8905 C 845.758 3.26255 -0.98847 0
M  V30 8906 H 846.951 1.97436 -2.25741 0
M  V30 8907 H 844.504 1.00046 -1.20086 0
M  V30 8908 H 845.239 3.24294 -0.0200541 0
M  V30 8909 H 845.024 3.49551 -1.77641 0
M  V30 8910 H 846.514 4.06298 -0.964975 0
M  V30 8911 N 846.951 1.19563 1.02676 0
M  V30 8912 C 848.179 1.02488 1.79732 0
M  V30 8913 C 848.594 -0.426302 1.83924 0
M  V30 8914 O 847.951 -1.29609 1.28483 0
M  V30 8915 C 848.002 1.58944 3.24683 0
M  V30 8916 O 847.723 2.98382 3.2078 0
M  V30 8917 C 849.224 1.46681 4.1833 0
M  V30 8918 H 846.444 0.361098 0.565552 0
M  V30 8919 H 848.988 1.58426 1.29311 0
M  V30 8920 H 847.143 1.0715 3.72287 0
M  V30 8921 H 847.557 3.24983 4.11687 0
M  V30 8922 H 849.031 1.90959 5.17918 0
M  V30 8923 H 849.508 0.417663 4.3721 0
M  V30 8924 H 850.114 1.97616 3.76601 0
M  V30 8925 N 848.429 -1.21819 0.999893 0
M  V30 8926 C 849.84 -1.72517 0.713775 0
M  V30 8927 C 850.191 -1.80505 -0.768922 0
M  V30 8928 O 849.316 -1.45611 -1.60083 0
M  V30 8929 C 849.911 -3.13321 1.28901 0
M  V30 8930 C 848.47 -3.61396 1.05212 0
M  V30 8931 C 847.617 -2.39074 1.40494 0
M  V30 8932 H 850.568 -1.07068 1.17141 0
M  V30 8933 H 850.589 -3.74535 0.671084 0
M  V30 8934 H 850.101 -3.07475 2.36814 0
M  V30 8935 H 848.202 -3.72599 -0.0100732 0
M  V30 8936 H 848.315 -4.47145 1.72042 0
M  V30 8937 H 846.679 -2.41015 0.823642 0
M  V30 8938 H 847.462 -2.35884 2.49427 0
M  V30 8939 N 849.908 -0.773975 -1.37286 0
M  V30 8940 C 850.818 -0.162571 -2.34036 0
M  V30 8941 C 851.834 0.677022 -1.60289 0
M  V30 8942 O 853.01 0.596423 -1.92366 0
M  V30 8943 C 850.075 0.70457 -3.39465 0
M  V30 8944 C 849.136 -0.151738 -4.29032 0
M  V30 8945 C 848.369 0.674111 -5.29426 0
M  V30 8946 O 848.592 1.91107 -5.37433 0
M  V30 8947 O 847.526 0.0821398 -6.01844 0
M  V30 8948 H 851.352 -0.962119 -2.88057 0
M  V30 8949 H 848.937 -0.53517 -1.39486 0
M  V30 8950 H 850.819 1.19954 -4.03967 0
M  V30 8951 H 849.494 1.48227 -2.87768 0
M  V30 8952 H 848.401 -0.693118 -3.67623 0
M  V30 8953 H 849.734 -0.892575 -4.84039 0
M  V30 8954 N 851.386 1.48609 -0.524698 0
M  V30 8955 C 852.349 2.28041 0.230166 0
M  V30 8956 C 853.349 1.35065 0.872584 0
M  V30 8957 O 854.539 1.58007 0.73345 0
M  V30 8958 C 851.671 3.13778 1.33252 0
M  V30 8959 H 852.864 2.96239 -0.467161 0
M  V30 8960 H 850.417 1.53763 -0.280452 0
M  V30 8961 H 851.152 2.502 2.06327 0
M  V30 8962 H 850.937 3.82165 0.877058 0
M  V30 8963 H 852.427 3.7371 1.86362 0
M  V30 8964 N 852.864 0.259585 1.55447 0
M  V30 8965 C 853.794 -0.62852 2.24882 0
M  V30 8966 C 854.775 -1.17128 1.23349 0
M  V30 8967 O 855.96 -1.20829 1.52033 0
M  V30 8968 C 853.09 -1.81983 2.95803 0
M  V30 8969 C 852.044 -1.40929 4.04132 0
M  V30 8970 C 851.37 -2.68246 4.62545 0
M  V30 8971 C 852.67 -0.570956 5.1917 0
M  V30 8972 H 854.364 -0.0495021 2.99359 0
M  V30 8973 H 851.91 -0.0223688 1.43983 0
M  V30 8974 H 853.863 -2.44689 3.43082 0
M  V30 8975 H 852.587 -2.42444 2.18835 0
M  V30 8976 H 851.246 -0.805519 3.57641 0
M  V30 8977 H 850.894 -3.26931 3.82263 0
M  V30 8978 H 850.594 -2.41495 5.35681 0
M  V30 8979 H 852.118 -3.31827 5.12565 0
M  V30 8980 H 853.532 -1.10262 5.62597 0
M  V30 8981 H 851.929 -0.398979 5.98772 0
M  V30 8982 H 852.999 0.413918 4.8313 0
M  V30 8983 N 854.342 -1.57594 -0.0133615 0
M  V30 8984 C 855.305 -2.06534 -0.993799 0
M  V30 8985 C 856.305 -0.972267 -1.28077 0
M  V30 8986 O 857.495 -1.23537 -1.22818 0
M  V30 8987 C 854.627 -2.49554 -2.3224 0
M  V30 8988 H 855.82 -2.94419 -0.570741 0
M  V30 8989 H 853.373 -1.54113 -0.260546 0
M  V30 8990 H 854.108 -1.64872 -2.79263 0
M  V30 8991 H 853.893 -3.29371 -2.12737 0
M  V30 8992 H 855.383 -2.8779 -3.026 0
M  V30 8993 N 855.82 0.285905 -1.54985 0
M  V30 8994 C 857.067 1.0192 -1.74982 0
M  V30 8995 C 857.395 1.86743 -0.543816 0
M  V30 8996 O 856.65 1.89874 0.473972 0
M  V30 8997 C 856.949 1.94193 -3.0004 0
M  V30 8998 C 856.615 1.25225 -4.33162 0
M  V30 8999 C 855.277 1.06149 -4.69346 0
M  V30 9000 C 857.629 0.760427 -5.15623 0
M  V30 9001 C 854.957 0.365991 -5.85557 0
M  V30 9002 C 857.309 0.0785787 -6.32551 0
M  V30 9003 C 855.973 -0.124002 -6.67385 0
M  V30 9004 H 855.243 0.372951 -0.640304 0
M  V30 9005 H 857.89 0.292652 -1.89251 0
M  V30 9006 H 856.195 2.73426 -2.80616 0
M  V30 9007 H 857.892 2.51029 -3.12707 0
M  V30 9008 H 854.482 1.41081 -4.04715 0
M  V30 9009 H 858.666 0.895466 -4.88155 0
M  V30 9010 H 853.922 0.198193 -6.11079 0
M  V30 9011 H 858.096 -0.310339 -6.95708 0
M  V30 9012 H 855.723 -0.664918 -7.57287 0
M  V30 9013 N 857.298 1.47698 0.54982 0
M  V30 9014 C 858.544 1.54931 1.30859 0
M  V30 9015 C 858.877 0.214021 1.93017 0
M  V30 9016 O 858.152 -0.778093 1.78258 0
M  V30 9017 C 858.435 2.67286 2.41309 0
M  V30 9018 C 858.288 4.10457 1.83971 0
M  V30 9019 C 859.607 2.75509 3.43195 0
M  V30 9020 H 856.726 0.56399 0.474431 0
M  V30 9021 H 859.368 1.79787 0.614541 0
M  V30 9022 H 857.518 2.46224 3.0051 0
M  V30 9023 H 859.19 4.42903 1.28974 0
M  V30 9024 H 857.433 4.18387 1.14606 0
M  V30 9025 H 858.104 4.84857 2.63851 0
M  V30 9026 H 860.58 2.94531 2.93923 0
M  V30 9027 H 859.456 3.55886 4.17895 0
M  V30 9028 H 859.717 1.82863 4.02509 0
M  V30 9029 N 858.776 -0.797141 1.35954 0
M  V30 9030 C 860.192 -1.09408 1.16198 0
M  V30 9031 C 860.392 -2.01491 -0.0191682 0
M  V30 9032 O 859.448 -2.42977 -0.686902 0
M  V30 9033 C 860.761 -1.71597 2.46931 0
M  V30 9034 C 862.309 -1.83974 2.53224 0
M  V30 9035 C 862.784 -2.49579 3.84024 0
M  V30 9036 N 864.275 -2.57055 3.85327 0
M  V30 9037 C 865.01 -3.08608 4.83268 0
M  V30 9038 N 864.506 -3.60527 5.91601 0
M  V30 9039 N 866.299 -3.07249 4.70696 0
M  V30 9040 H 858.45 -0.185209 2.11591 0
M  V30 9041 H 860.713 -0.144768 0.936881 0
M  V30 9042 H 860.419 -1.11404 3.3359 0
M  V30 9043 H 860.293 -2.71193 2.62172 0
M  V30 9044 H 862.68 -2.43308 1.66988 0
M  V30 9045 H 862.761 -0.83207 2.41889 0
M  V30 9046 H 862.405 -1.90892 4.70662 0
M  V30 9047 H 862.335 -3.50902 3.92651 0
M  V30 9048 H 864.826 -2.20283 3.07057 0
M  V30 9049 H 865.139 -3.98192 6.62317 0
M  V30 9050 H 863.484 -3.587 5.95281 0
M  V30 9051 H 866.675 -2.65972 3.85197 0
M  V30 9052 H 866.848 -3.47119 5.47186 0
M  V30 9053 N 860.254 -1.20106 -1.0204 0
M  V30 9054 C 861.217 -0.948261 -2.08664 0
M  V30 9055 C 862.217 0.0746753 -1.60627 0
M  V30 9056 O 863.407 -0.160981 -1.73455 0
M  V30 9057 C 860.539 -0.426854 -3.38217 0
M  V30 9058 H 861.732 -1.894 -2.32524 0
M  V30 9059 H 859.285 -1.0159 -1.18782 0
M  V30 9060 H 860.02 0.524532 -3.2003 0
M  V30 9061 H 859.805 -1.16451 -3.74408 0
M  V30 9062 H 861.295 -0.269346 -4.1673 0
M  V30 9063 N 861.732 1.21287 -1.00634 0
M  V30 9064 C 862.978 1.90671 -0.690822 0
M  V30 9065 C 863.311 1.77996 0.776592 0
M  V30 9066 O 862.586 1.15748 1.5631 0
M  V30 9067 C 862.869 3.42426 -1.11428 0
M  V30 9068 C 862.722 3.64086 -2.64124 0
M  V30 9069 C 864.041 4.34851 -0.677686 0
M  V30 9070 H 861.16 0.692419 -0.252439 0
M  V30 9071 H 863.802 1.42893 -1.25226 0
M  V30 9072 H 861.952 3.83249 -0.636586 0
M  V30 9073 H 863.624 3.32582 -3.19667 0
M  V30 9074 H 861.867 3.07906 -3.05576 0
M  V30 9075 H 862.538 4.7042 -2.88806 0
M  V30 9076 H 865.014 4.01619 -1.0882 0
M  V30 9077 H 863.89 5.39675 -1.00213 0
M  V30 9078 H 864.151 4.4009 0.421125 0
M  V30 9079 N 863.21 0.781244 1.36873 0
M  V30 9080 C 864.438 0.361566 2.03716 0
M  V30 9081 C 864.853 -1.01937 1.58916 0
M  V30 9082 O 864.21 -1.65237 0.774783 0
M  V30 9083 C 864.261 0.406391 3.59208 0
M  V30 9084 O 863.982 1.73286 4.02372 0
M  V30 9085 C 865.483 -0.0236894 4.43294 0
M  V30 9086 H 862.703 0.150133 0.653988 0
M  V30 9087 H 865.247 1.05781 1.75016 0
M  V30 9088 H 863.402 -0.241364 3.86647 0
M  V30 9089 H 863.816 1.67804 4.96933 0
M  V30 9090 H 865.29 0.0588205 5.51969 0
M  V30 9091 H 865.767 -1.07529 4.25833 0
M  V30 9092 H 866.373 0.59624 4.211 0
M  V30 9093 N 864.689 -1.48329 0.532571 0
M  V30 9094 C 865.966 -1.95492 -0.0650985 0
M  V30 9095 C 866.346 -1.47485 -1.51034 0
M  V30 9096 O 865.694 -0.702516 -2.17433 0
M  V30 9097 C 865.904 -3.48957 0.0548341 0
M  V30 9098 C 867.252 -4.24475 -0.103115 0
M  V30 9099 O 868.276 -3.56195 -0.0188343 0
M  V30 9100 O 867.135 -5.45781 -0.280164 0
M  V30 9101 H 864.229 -0.823327 -0.0778603 0
M  V30 9102 H 866.775 -1.58839 0.597353 0
M  V30 9103 H 865.547 -3.76628 1.06148 0
M  V30 9104 H 865.17 -3.92311 -0.64635 0
M  V30 9105 N 866.167 -0.267825 -1.55308 0
M  V30 9106 C 867.117 0.637168 -2.18916 0
M  V30 9107 C 868.101 1.12381 -1.15149 0
M  V30 9108 O 869.293 1.0701 -1.40989 0
M  V30 9109 C 866.422 1.82423 -2.90821 0
M  V30 9110 C 865.508 1.35512 -4.01867 0
M  V30 9111 N 865.899 0.601644 -5.02209 0
M  V30 9112 C 864.197 1.63868 -4.14805 0
M  V30 9113 C 864.898 0.35596 -5.8061 0
M  V30 9114 N 863.874 0.926271 -5.3565 0
M  V30 9115 H 867.676 0.0535787 -2.93851 0
M  V30 9116 H 865.19 -0.0710577 -1.62244 0
M  V30 9117 H 867.187 2.48379 -3.34834 0
M  V30 9118 H 865.847 2.41185 -2.17394 0
M  V30 9119 H 866.858 0.249693 -5.17298 0
M  V30 9120 H 863.535 2.23618 -3.52564 0
M  V30 9121 H 864.925 -0.246994 -6.71446 0
M  V30 9122 N 867.645 1.57599 0.00500368 0
M  V30 9123 C 868.592 2.08106 0.998025 0
M  V30 9124 C 869.562 0.975374 1.34446 0
M  V30 9125 O 870.747 1.24749 1.44369 0
M  V30 9126 C 867.887 2.58496 2.28635 0
M  V30 9127 C 867 3.82947 1.99939 0
M  V30 9128 C 866.135 4.21857 3.22816 0
M  V30 9129 C 865.174 5.39159 2.89783 0
M  V30 9130 N 864.311 5.73386 4.05183 0
M  V30 9131 H 869.151 2.92684 0.560385 0
M  V30 9132 H 866.688 1.44692 0.265053 0
M  V30 9133 H 868.646 2.85787 3.03943 0
M  V30 9134 H 867.276 1.768 2.70077 0
M  V30 9135 H 866.328 3.62594 1.1502 0
M  V30 9136 H 867.64 4.68358 1.71588 0
M  V30 9137 H 866.794 4.50404 4.06474 0
M  V30 9138 H 865.533 3.35145 3.54301 0
M  V30 9139 H 864.538 5.1034 2.04532 0
M  V30 9140 H 865.763 6.27543 2.59551 0
M  V30 9141 H 863.709 4.89632 4.36574 0
M  V30 9142 H 863.626 6.53359 3.80339 0
M  V30 9143 H 864.894 6.06522 4.89644 0
M  V30 9144 N 869.123 -0.277682 1.55134 0
M  V30 9145 C 870.086 -1.32635 1.86924 0
M  V30 9146 C 871.086 -1.42578 0.743507 0
M  V30 9147 O 872.276 -1.4181 1.01171 0
M  V30 9148 C 869.408 -2.70832 2.07034 0
M  V30 9149 H 870.601 -1.0568 2.80663 0
M  V30 9150 H 868.154 -0.515517 1.47554 0
M  V30 9151 H 868.889 -3.02974 1.15661 0
M  V30 9152 H 868.674 -2.65001 2.88993 0
M  V30 9153 H 870.164 -3.46611 2.32918 0
M  V30 9154 N 870.601 -1.47988 -0.541979 0
M  V30 9155 C 871.564 -1.61148 -1.62984 0
M  V30 9156 C 872.564 -0.48553 -1.53295 0
M  V30 9157 O 873.754 -0.751012 -1.5718 0
M  V30 9158 C 870.886 -1.57038 -3.02576 0
M  V30 9159 H 872.079 -2.58138 -1.52659 0
M  V30 9160 H 869.632 -1.36405 -0.763106 0
M  V30 9161 H 870.367 -0.614807 -3.18419 0
M  V30 9162 H 870.152 -2.38769 -3.11018 0
M  V30 9163 H 871.642 -1.69416 -3.81691 0
M  V30 9164 N 872.079 0.78992 -1.36375 0
M  V30 9165 C 873.325 1.55007 -1.3077 0
M  V30 9166 C 873.658 1.93871 0.112979 0
M  V30 9167 O 872.933 1.6267 1.06625 0
M  V30 9168 C 873.216 2.82748 -2.22993 0
M  V30 9169 C 873.069 2.50253 -3.73756 0
M  V30 9170 C 874.388 3.84569 -2.13998 0
M  V30 9171 H 871.507 0.562362 -0.476359 0
M  V30 9172 H 874.149 0.907582 -1.66922 0
M  V30 9173 H 872.299 3.37573 -1.92292 0
M  V30 9174 H 873.971 2.01482 -4.14973 0
M  V30 9175 H 872.214 1.83203 -3.93216 0
M  V30 9176 H 872.885 3.41487 -4.33694 0
M  V30 9177 H 875.361 3.39188 -2.4102 0
M  V30 9178 H 874.237 4.717 -2.80697 0
M  V30 9179 H 874.498 4.27491 -1.12711 0
M  V30 9180 N 873.557 1.20646 1.01402 0
M  V30 9181 C 874.968 1.01823 1.56489 0
M  V30 9182 C 875.319 -0.42463 1.9155 0
M  V30 9183 O 874.444 -1.30644 1.72514 0
M  V30 9184 C 875.039 1.84208 2.84347 0
M  V30 9185 C 873.598 1.69743 3.35953 0
M  V30 9186 C 872.745 1.8198 2.09233 0
M  V30 9187 H 875.696 1.348 0.837539 0
M  V30 9188 H 875.717 1.34698 3.55861 0
M  V30 9189 H 875.229 2.89215 2.58798 0
M  V30 9190 H 873.33 0.673833 3.66456 0
M  V30 9191 H 873.443 2.51173 4.07981 0
M  V30 9192 H 871.807 1.25193 2.21808 0
M  V30 9193 H 872.59 2.88477 1.86107 0
M  V30 9194 N 875.035 -1.20752 1.01276 0
M  V30 9195 C 875.998 -2.2162 0.584583 0
M  V30 9196 C 876.998 -1.57094 -0.343215 0
M  V30 9197 O 878.188 -1.73696 -0.132433 0
M  V30 9198 C 875.32 -3.40583 -0.146872 0
M  V30 9199 H 876.513 -2.61015 1.47686 0
M  V30 9200 H 874.066 -1.34148 0.802123 0
M  V30 9201 H 874.801 -3.06686 -1.05424 0
M  V30 9202 H 874.586 -3.88642 0.51958 0
M  V30 9203 H 876.076 -4.15339 -0.433924 0
M  V30 9204 N 876.513 -0.788492 -1.36457 0
M  V30 9205 C 877.738 -0.371224 -2.04051 0
M  V30 9206 C 878.163 1.004 -1.59064 0
M  V30 9207 O 877.521 1.64663 -0.758679 0
M  V30 9208 C 877.569 -0.442275 -3.57877 0
M  V30 9209 O 876.673 0.55113 -4.08701 0
M  V30 9210 H 876.014 -0.157808 -0.644975 0
M  V30 9211 H 878.544 -1.06935 -1.74431 0
M  V30 9212 H 878.554 -0.305548 -4.06854 0
M  V30 9213 H 877.229 -1.44547 -3.89973 0
M  V30 9214 H 875.806 0.37614 -3.70998 0
M  V30 9215 N 877.991 1.48044 -0.54043 0
M  V30 9216 C 878.901 2.33565 0.220163 0
M  V30 9217 C 879.917 1.47146 0.928659 0
M  V30 9218 O 881.093 1.80107 0.901295 0
M  V30 9219 C 878.158 3.2349 1.2472 0
M  V30 9220 C 877.219 4.25789 0.547938 0
M  V30 9221 C 876.452 5.11417 1.52605 0
M  V30 9222 O 876.675 4.99204 2.75956 0
M  V30 9223 O 875.609 5.92498 1.05972 0
M  V30 9224 H 879.435 2.99868 -0.480898 0
M  V30 9225 H 877.02 1.46332 -0.301226 0
M  V30 9226 H 878.902 3.79084 1.84047 0
M  V30 9227 H 877.577 2.59835 1.93048 0
M  V30 9228 H 876.484 3.74001 -0.0860941 0
M  V30 9229 H 877.817 4.92111 -0.0935896 0
M  V30 9230 N 879.47 0.276058 1.55163 0
M  V30 9231 C 880.417 -0.611006 2.22565 0
M  V30 9232 C 881.387 -1.14902 1.19945 0
M  V30 9233 O 882.572 -1.19815 1.48489 0
M  V30 9234 C 879.712 -1.78885 2.95117 0
M  V30 9235 C 878.825 -1.2846 4.12458 0
M  V30 9236 C 877.96 -2.42432 4.72652 0
M  V30 9237 C 876.999 -1.89015 5.82185 0
M  V30 9238 N 876.136 -2.96463 6.36439 0
M  V30 9239 H 880.976 -0.0295849 2.97985 0
M  V30 9240 H 878.513 -0.00283607 1.471 0
M  V30 9241 H 880.471 -2.48121 3.35398 0
M  V30 9242 H 879.101 -2.34229 2.22119 0
M  V30 9243 H 878.153 -0.485312 3.77292 0
M  V30 9244 H 879.465 -0.853358 4.91446 0
M  V30 9245 H 878.619 -3.19659 5.15658 0
M  V30 9246 H 877.358 -2.88872 3.92943 0
M  V30 9247 H 876.363 -1.10267 5.38629 0
M  V30 9248 H 877.588 -1.43509 6.63763 0
M  V30 9249 H 875.534 -3.42283 5.59623 0
M  V30 9250 H 875.451 -2.57759 7.10701 0
M  V30 9251 H 876.719 -3.73663 6.84103 0
M  V30 9252 N 880.948 -1.576 0.00335426 0
M  V30 9253 C 881.878 -2.11668 -0.985839 0
M  V30 9254 C 882.859 -1.02661 -1.35627 0
M  V30 9255 O 884.044 -1.30361 -1.43943 0
M  V30 9256 C 881.174 -2.62273 -2.27662 0
M  V30 9257 C 880.128 -3.75837 -2.0477 0
M  V30 9258 C 879.454 -4.12769 -3.39891 0
M  V30 9259 C 880.754 -5.02975 -1.40759 0
M  V30 9260 H 882.448 -2.9457 -0.535637 0
M  V30 9261 H 879.994 -1.41702 -0.256204 0
M  V30 9262 H 881.947 -2.98727 -2.97221 0
M  V30 9263 H 880.671 -1.76498 -2.74802 0
M  V30 9264 H 879.33 -3.39782 -1.37636 0
M  V30 9265 H 878.978 -3.24013 -3.8474 0
M  V30 9266 H 878.678 -4.89281 -3.25389 0
M  V30 9267 H 880.202 -4.51784 -4.1076 0
M  V30 9268 H 881.616 -5.37179 -2.00279 0
M  V30 9269 H 880.013 -5.84315 -1.36734 0
M  V30 9270 H 881.083 -4.83431 -0.377218 0
M  V30 9271 N 882.426 0.269451 -1.5528 0
M  V30 9272 C 883.356 1.33729 -1.91413 0
M  V30 9273 C 884.337 1.51348 -0.776391 0
M  V30 9274 O 885.522 1.64332 -1.03482 0
M  V30 9275 C 882.652 2.69618 -2.18914 0
M  V30 9276 C 881.606 2.66725 -3.34726 0
M  V30 9277 C 880.932 4.06199 -3.47716 0
M  V30 9278 C 882.232 2.25684 -4.71025 0
M  V30 9279 H 883.926 1.03736 -2.80854 0
M  V30 9280 H 881.472 0.497579 -1.3513 0
M  V30 9281 H 883.425 3.44436 -2.42779 0
M  V30 9282 H 882.149 3.01201 -1.26275 0
M  V30 9283 H 880.808 1.94365 -3.10834 0
M  V30 9284 H 880.456 4.3501 -2.52537 0
M  V30 9285 H 880.156 4.05157 -4.25583 0
M  V30 9286 H 881.68 4.8275 -3.73877 0
M  V30 9287 H 883.094 2.90225 -4.94411 0
M  V30 9288 H 881.491 2.35797 -5.51833 0
M  V30 9289 H 882.561 1.20819 -4.69607 0
M  V30 9290 N 883.904 1.48273 0.534124 0
M  V30 9291 C 884.834 1.6538 1.64839 0
M  V30 9292 C 885.815 0.502741 1.62501 0
M  V30 9293 O 887 0.734799 1.79762 0
M  V30 9294 C 884.13 1.68949 3.03436 0
M  V30 9295 C 883.084 2.83513 3.20631 0
M  V30 9296 C 882.41 2.72169 4.60248 0
M  V30 9297 C 883.71 4.24858 3.03797 0
M  V30 9298 H 885.404 2.58663 1.50777 0
M  V30 9299 H 882.95 1.24479 0.723937 0
M  V30 9300 H 884.903 1.79505 3.81256 0
M  V30 9301 H 883.627 0.722415 3.1851 0
M  V30 9302 H 882.286 2.72505 2.45227 0
M  V30 9303 H 881.934 1.7344 4.72152 0
M  V30 9304 H 881.634 3.49042 4.72698 0
M  V30 9305 H 883.158 2.84687 5.40172 0
M  V30 9306 H 884.572 4.36721 3.71413 0
M  V30 9307 H 882.969 5.02697 3.27743 0
M  V30 9308 H 884.039 4.41611 2.0027 0
M  V30 9309 N 885.382 -0.782676 1.36792 0
M  V30 9310 C 886.312 -1.90973 1.34356 0
M  V30 9311 C 887.293 -1.6875 0.213917 0
M  V30 9312 O 888.478 -1.89766 0.412601 0
M  V30 9313 C 885.608 -3.28097 1.13884 0
M  V30 9314 C 884.562 -3.6486 2.23744 0
M  V30 9315 C 883.888 -5.00406 1.88408 0
M  V30 9316 C 885.188 -3.72742 3.6587 0
M  V30 9317 H 886.882 -1.93268 2.28665 0
M  V30 9318 H 884.428 -0.928447 1.10072 0
M  V30 9319 H 886.381 -4.06569 1.10813 0
M  V30 9320 H 885.105 -3.26206 0.160275 0
M  V30 9321 H 883.764 -2.88689 2.25952 0
M  V30 9322 H 883.412 -4.95044 0.891083 0
M  V30 9323 H 883.112 -5.25973 2.61966 0
M  V30 9324 H 884.636 -5.81291 1.86905 0
M  V30 9325 H 886.05 -4.4139 3.65852 0
M  V30 9326 H 884.447 -4.09798 4.38389 0
M  V30 9327 H 885.517 -2.73676 4.00287 0
M  V30 9328 N 886.86 -1.21182 -1.00761 0
M  V30 9329 C 887.807 -0.968741 -2.09485 0
M  V30 9330 C 888.777 0.104325 -1.65772 0
M  V30 9331 O 889.962 -0.0422587 -1.90753 0
M  V30 9332 C 887.102 -0.536686 -3.40901 0
M  V30 9333 C 886.215 -1.6789 -3.98041 0
M  V30 9334 C 885.35 -1.19627 -5.17555 0
M  V30 9335 C 884.389 -2.31099 -5.66798 0
M  V30 9336 N 883.526 -1.83988 -6.77564 0
M  V30 9337 H 888.366 -1.89952 -2.29613 0
M  V30 9338 H 885.903 -0.946688 -1.12589 0
M  V30 9339 H 887.861 -0.26745 -4.16342 0
M  V30 9340 H 886.491 0.357092 -3.20819 0
M  V30 9341 H 885.543 -2.06284 -3.19611 0
M  V30 9342 H 886.855 -2.51794 -4.30582 0
M  V30 9343 H 886.009 -0.883539 -6.00232 0
M  V30 9344 H 884.748 -0.327244 -4.86601 0
M  V30 9345 H 883.753 -2.63178 -4.82719 0
M  V30 9346 H 884.978 -3.18493 -5.99782 0
M  V30 9347 H 882.924 -0.994257 -6.48422 0
M  V30 9348 H 882.841 -2.61466 -7.09346 0
M  V30 9349 H 884.109 -1.55741 -7.63783 0
M  V30 9350 N 888.338 1.20213 -1.01915 0
M  V30 9351 C 889.615 1.85348 -0.62495 0
M  V30 9352 C 889.995 1.91101 0.896854 0
M  V30 9353 O 889.343 1.42075 1.78961 0
M  V30 9354 C 889.553 3.24849 -1.27571 0
M  V30 9355 C 890.901 4.01107 -1.39277 0
M  V30 9356 O 891.925 3.34211 -1.23212 0
M  V30 9357 O 890.784 5.20914 -1.6526 0
M  V30 9358 H 887.878 0.798303 -0.215965 0
M  V30 9359 H 890.424 1.27782 -1.11669 0
M  V30 9360 H 889.196 3.1544 -2.31545 0
M  V30 9361 H 888.819 3.90049 -0.77122 0
M  V30 9362 N 889.816 0.795718 1.36037 0
M  V30 9363 C 890.779 0.204318 2.28287 0
M  V30 9364 C 891.779 -0.602017 1.49105 0
M  V30 9365 O 892.969 -0.422089 1.69009 0
M  V30 9366 C 890.101 -0.716431 3.33287 0
M  V30 9367 H 891.294 1.01781 2.821 0
M  V30 9368 H 888.847 0.565588 1.45708 0
M  V30 9369 H 889.582 -1.55403 2.84641 0
M  V30 9370 H 889.367 -0.140096 3.9185 0
M  V30 9371 H 890.857 -1.12488 4.02164 0
M  V30 9372 N 891.294 -1.47756 0.548274 0
M  V30 9373 C 892.543 -2.01691 0.0187961 0
M  V30 9374 C 892.856 -1.42894 -1.33569 0
M  V30 9375 O 894.062 -1.88438 -1.95457 0
M  V30 9376 C 892.518 -3.59896 -0.016847 0
M  V30 9377 C 892.126 -4.27683 1.33385 0
M  V30 9378 C 893.87 -4.21614 -0.494188 0
M  V30 9379 C 891.777 -5.7787 1.2578 0
M  V30 9380 H 890.707 -0.753993 0.00325648 0
M  V30 9381 H 893.358 -1.69838 0.694792 0
M  V30 9382 H 891.74 -3.88672 -0.758304 0
M  V30 9383 H 892.914 -4.10559 2.09232 0
M  V30 9384 H 891.229 -3.77915 1.7484 0
M  V30 9385 H 893.826 -5.3166 -0.569342 0
M  V30 9386 H 894.169 -3.88176 -1.50417 0
M  V30 9387 H 894.702 -3.97336 0.192138 0
M  V30 9388 H 891.441 -6.15912 2.2435 0
M  V30 9389 H 890.961 -5.97355 0.540997 0
M  V30 9390 H 892.64 -6.39897 0.956109 0
M  V30 9391 N 892.772 -0.284283 -1.55015 0
M  V30 9392 C 894.188 0.069603 -1.59448 0
M  V30 9393 C 894.388 1.53833 -1.30144 0
M  V30 9394 O 893.444 2.2886 -1.06674 0
M  V30 9395 C 894.757 -0.313287 -2.99064 0
M  V30 9396 C 896.305 -0.260662 -3.11913 0
M  V30 9397 C 896.78 -0.618127 -4.5381 0
M  V30 9398 N 898.271 -0.570026 -4.59679 0
M  V30 9399 C 899.006 -0.8193 -5.67517 0
M  V30 9400 N 898.502 -1.13367 -6.83462 0
M  V30 9401 N 900.295 -0.747482 -5.57108 0
M  V30 9402 H 892.446 -1.24167 -1.72326 0
M  V30 9403 H 894.709 -0.502259 -0.804015 0
M  V30 9404 H 894.415 -1.33509 -3.25374 0
M  V30 9405 H 894.289 0.341369 -3.75652 0
M  V30 9406 H 896.676 0.751869 -2.85361 0
M  V30 9407 H 896.757 -0.949706 -2.37517 0
M  V30 9408 H 896.401 -1.62839 -4.81088 0
M  V30 9409 H 896.331 0.092807 -5.26518 0
M  V30 9410 H 898.822 -0.3373 -3.76392 0
M  V30 9411 H 899.135 -1.3103 -7.61611 0
M  V30 9412 H 897.48 -1.17154 -6.85055 0
M  V30 9413 H 900.671 -0.501658 -4.65404 0
M  V30 9414 H 900.844 -0.945128 -6.4107 0
M  V30 9415 N 894.251 1.57596 -0.0117121 0
M  V30 9416 C 895.214 2.08089 0.960816 0
M  V30 9417 C 896.214 0.992519 1.26514 0
M  V30 9418 O 897.404 1.25475 1.20837 0
M  V30 9419 C 894.536 2.53217 2.28241 0
M  V30 9420 H 895.729 2.9529 0.523829 0
M  V30 9421 H 893.282 1.54508 0.235995 0
M  V30 9422 H 894.017 1.69294 2.76604 0
M  V30 9423 H 893.802 3.32714 2.0747 0
M  V30 9424 H 895.292 2.92568 2.97983 0
M  V30 9425 N 895.729 -0.261212 1.5542 0
M  V30 9426 C 896.661 -1.34571 1.85535 0
M  V30 9427 C 897.674 -1.44979 0.740612 0
M  V30 9428 O 898.863 -1.46584 1.01859 0
M  V30 9429 C 895.963 -2.7258 2.01378 0
M  V30 9430 C 895.136 -2.84618 3.32131 0
M  V30 9431 C 894.195 -4.03379 3.37893 0
M  V30 9432 O 893.221 -3.93581 4.11197 0
M  V30 9433 N 894.423 -5.15893 2.66148 0
M  V30 9434 H 897.188 -1.09078 2.79145 0
M  V30 9435 H 894.749 -0.451327 1.55482 0
M  V30 9436 H 896.741 -3.50342 2.0259 0
M  V30 9437 H 895.311 -2.90844 1.14579 0
M  V30 9438 H 894.531 -1.93647 3.43358 0
M  V30 9439 H 895.819 -2.896 4.18341 0
M  V30 9440 H 895.217 -5.26743 2.06297 0
M  V30 9441 H 893.774 -5.91842 2.73069 0
M  V30 9442 N 897.207 -1.48554 -0.526253 0
M  V30 9443 C 898.435 -1.60429 -1.30652 0
M  V30 9444 C 898.85 -0.265963 -1.86917 0
M  V30 9445 O 898.207 0.745262 -1.6659 0
M  V30 9446 C 898.258 -2.65377 -2.45473 0
M  V30 9447 O 897.979 -3.94017 -1.91527 0
M  V30 9448 C 899.48 -2.87726 -3.37237 0
M  V30 9449 H 896.7 -0.540817 -0.397187 0
M  V30 9450 H 899.244 -1.94409 -0.634461 0
M  V30 9451 H 897.399 -2.34246 -3.08557 0
M  V30 9452 H 897.813 -4.51623 -2.66715 0
M  V30 9453 H 899.287 -3.64951 -4.14144 0
M  V30 9454 H 899.764 -1.96688 -3.92696 0
M  V30 9455 H 900.37 -3.20176 -2.79942 0
M  V30 9456 N 898.685 0.775411 -1.37205 0
M  V30 9457 C 899.648 1.8702 -1.325 0
M  V30 9458 C 900.648 1.5915 -0.229793 0
M  V30 9459 O 901.838 1.673 -0.485423 0
M  V30 9460 C 898.97 3.24085 -1.05745 0
M  V30 9461 H 900.163 1.92604 -2.29878 0
M  V30 9462 H 897.716 0.97476 -1.22181 0
M  V30 9463 H 898.451 3.24178 -0.0888371 0
M  V30 9464 H 898.236 3.45705 -1.85016 0
M  V30 9465 H 899.726 4.0416 -1.05094 0
M  V30 9466 N 900.163 1.21714 1.00117 0
M  V30 9467 C 901.393 1.06124 1.77261 0
M  V30 9468 C 901.801 -0.391717 1.85101 0
M  V30 9469 O 901.144 -1.28347 1.31426 0
M  V30 9470 C 901.206 1.58778 3.22536 0
M  V30 9471 C 900.87 3.07289 3.38264 0
M  V30 9472 C 901.867 4.04801 3.26239 0
M  V30 9473 C 899.552 3.46574 3.63582 0
M  V30 9474 C 901.546 5.39585 3.39303 0
M  V30 9475 C 899.233 4.81509 3.76288 0
M  V30 9476 C 900.231 5.77824 3.64155 0
M  V30 9477 O 899.919 7.1031 3.7645 0
M  V30 9478 H 899.651 0.372979 0.563793 0
M  V30 9479 H 902.205 1.61589 1.26799 0
M  V30 9480 H 900.435 0.977129 3.74151 0
M  V30 9481 H 902.124 1.38974 3.81367 0
M  V30 9482 H 902.89 3.75795 3.066 0
M  V30 9483 H 898.769 2.72137 3.72106 0
M  V30 9484 H 902.313 6.14744 3.2975 0
M  V30 9485 H 898.21 5.102 3.95432 0
M  V30 9486 H 898.978 7.17774 3.93374 0
M  V30 9487 N 901.641 -1.19671 1.02551 0
M  V30 9488 C 902.869 -1.93233 0.739513 0
M  V30 9489 C 903.284 -1.75298 -0.701158 0
M  V30 9490 O 902.641 -1.07269 -1.47647 0
M  V30 9491 C 902.692 -3.45085 1.07697 0
M  V30 9492 O 902.413 -3.62441 2.46106 0
M  V30 9493 C 903.914 -4.35776 0.813298 0
M  V30 9494 H 901.134 -0.613905 0.270853 0
M  V30 9495 H 903.678 -1.51909 1.36909 0
M  V30 9496 H 901.833 -3.84255 0.492635 0
M  V30 9497 H 902.247 -4.56337 2.58567 0
M  V30 9498 H 903.721 -5.40941 1.09941 0
M  V30 9499 H 904.198 -4.38474 -0.252359 0
M  V30 9500 H 904.804 -4.02282 1.38021 0
M  V30 9501 N 903.119 -0.802921 -1.35613 0
M  V30 9502 C 904.365 -0.382141 -1.99167 0
M  V30 9503 C 904.698 1.04704 -1.63556 0
M  V30 9504 O 903.973 1.72578 -0.89706 0
M  V30 9505 C 904.256 -0.561493 -3.55695 0
M  V30 9506 C 904.109 -2.03534 -4.01116 0
M  V30 9507 C 905.428 0.0151135 -4.40097 0
M  V30 9508 H 902.547 -0.140322 -0.723518 0
M  V30 9509 H 905.189 -1.01177 -1.6082 0
M  V30 9510 H 903.339 -0.0255083 -3.88492 0
M  V30 9511 H 905.011 -2.63343 -3.78746 0
M  V30 9512 H 903.254 -2.5331 -3.52159 0
M  V30 9513 H 903.925 -2.11173 -5.1001 0
M  V30 9514 H 906.401 -0.442582 -4.1374 0
M  V30 9515 H 905.277 -0.140316 -5.48721 0
M  V30 9516 H 905.538 1.10848 -4.27978 0
M  V30 9517 N 904.597 1.47463 -0.556102 0
M  V30 9518 C 905.53 2.26934 0.240027 0
M  V30 9519 C 906.508 1.33981 0.921297 0
M  V30 9520 O 907.692 1.63361 0.940506 0
M  V30 9521 C 904.819 3.10982 1.34194 0
M  V30 9522 C 903.865 4.19504 0.769342 0
M  V30 9523 S 904.698 5.34127 -0.383209 0
M  V30 9524 C 905.854 6.21739 0.720548 0
M  V30 9525 H 906.087 2.9411 -0.434348 0
M  V30 9526 H 903.62 1.50556 -0.342402 0
M  V30 9527 H 905.578 3.59976 1.973 0
M  V30 9528 H 904.239 2.4317 1.98814 0
M  V30 9529 H 903.432 4.78036 1.59679 0
M  V30 9530 H 903.034 3.73385 0.214475 0
M  V30 9531 H 905.326 6.58021 1.61292 0
M  V30 9532 H 906.269 7.0789 0.172602 0
M  V30 9533 H 906.677 5.55342 1.01272 0
M  V30 9534 N 906.075 0.2925 1.54862 0
M  V30 9535 C 907.038 -0.574423 2.21885 0
M  V30 9536 C 908.038 -1.06791 1.20218 0
M  V30 9537 O 909.228 -0.9653 1.45009 0
M  V30 9538 C 906.36 -1.79438 2.89853 0
M  V30 9539 H 907.553 0.0110319 2.99898 0
M  V30 9540 H 905.106 0.043256 1.5624 0
M  V30 9541 H 905.841 -2.4199 2.15897 0
M  V30 9542 H 905.626 -1.44827 3.64373 0
M  V30 9543 H 907.116 -2.41048 3.41007 0
M  V30 9544 N 907.553 -1.57587 0.0200696 0
M  V30 9545 C 908.802 -1.90602 -0.659822 0
M  V30 9546 C 909.115 -0.897216 -1.73808 0
M  V30 9547 O 910.321 -1.11829 -2.47399 0
M  V30 9548 C 908.777 -3.38416 -1.22484 0
M  V30 9549 C 908.385 -4.47637 -0.180339 0
M  V30 9550 C 910.129 -3.80513 -1.88176 0
M  V30 9551 C 908.036 -5.86542 -0.756482 0
M  V30 9552 H 906.966 -0.711272 -0.250216 0
M  V30 9553 H 909.617 -1.83308 0.0838942 0
M  V30 9554 H 907.999 -3.40613 -2.01987 0
M  V30 9555 H 909.173 -4.56987 0.591573 0
M  V30 9556 H 907.488 -4.14687 0.377302 0
M  V30 9557 H 910.085 -4.8164 -2.32222 0
M  V30 9558 H 910.428 -3.15091 -2.72073 0
M  V30 9559 H 910.961 -3.80701 -1.15377 0
M  V30 9560 H 907.7 -6.55485 0.0441468 0
M  V30 9561 H 907.22 -5.80816 -1.49709 0
M  V30 9562 H 908.899 -6.3483 -1.249 0
M  V30 9563 N 909.032 0.252966 -1.55557 0
M  V30 9564 C 910.26 0.999565 -1.81153 0
M  V30 9565 C 910.675 1.79181 -0.594955 0
M  V30 9566 O 910.032 1.77208 0.436311 0
M  V30 9567 C 910.083 1.94227 -3.04891 0
M  V30 9568 O 909.804 1.18209 -4.21851 0
M  V30 9569 C 911.305 2.80536 -3.43241 0
M  V30 9570 H 908.525 0.294402 -0.602966 0
M  V30 9571 H 911.069 0.277686 -2.02606 0
M  V30 9572 H 909.224 2.6185 -2.85505 0
M  V30 9573 H 909.638 1.81922 -4.9194 0
M  V30 9574 H 911.112 3.42442 -4.32941 0
M  V30 9575 H 911.589 3.51337 -2.6355 0
M  V30 9576 H 912.195 2.18373 -3.64956 0
M  V30 9577 N 910.51 1.48831 0.518367 0
M  V30 9578 C 911.758 1.57128 1.27103 0
M  V30 9579 C 912.079 0.252098 1.93364 0
M  V30 9580 O 911.349 -0.727281 1.819 0
M  V30 9581 H 909.929 0.578891 0.472116 0
M  V30 9582 H 912.591 1.85361 0.602262 0
M  V30 9583 H 911.687 2.35838 2.04418 0
M  V30 9584 N 911.988 -0.768124 1.37614 0
M  V30 9585 C 912.921 -1.88894 1.2804 0
M  V30 9586 C 913.899 -1.61809 0.160226 0
M  V30 9587 O 915.083 -1.85498 0.33506 0
M  V30 9588 C 912.21 -3.24197 0.980523 0
M  V30 9589 C 911.256 -3.70188 2.11808 0
M  V30 9590 S 912.089 -3.83433 3.73817 0
M  V30 9591 C 913.245 -5.21578 3.45987 0
M  V30 9592 H 913.478 -1.96726 2.22904 0
M  V30 9593 H 911.011 -0.929602 1.23279 0
M  V30 9594 H 912.969 -4.02342 0.814331 0
M  V30 9595 H 911.63 -3.14061 0.0493122 0
M  V30 9596 H 910.823 -4.6829 1.86335 0
M  V30 9597 H 910.425 -2.99155 2.2446 0
M  V30 9598 H 912.717 -6.06865 3.012 0
M  V30 9599 H 913.66 -5.52065 4.43429 0
M  V30 9600 H 914.068 -4.89687 2.80832 0
M  V30 9601 N 913.466 -1.22244 -0.994698 0
M  V30 9602 C 914.429 -0.992308 -2.06606 0
M  V30 9603 C 915.429 0.0405872 -1.60749 0
M  V30 9604 O 916.619 -0.197737 -1.73074 0
M  V30 9605 C 913.751 -0.498499 -3.37236 0
M  V30 9606 H 914.944 -1.9429 -2.28455 0
M  V30 9607 H 912.497 -1.04087 -1.166 0
M  V30 9608 H 913.232 0.456531 -3.21071 0
M  V30 9609 H 913.017 -1.24367 -3.71854 0
M  V30 9610 H 914.507 -0.35768 -4.16065 0
M  V30 9611 N 914.944 1.19125 -1.03184 0
M  V30 9612 C 916.193 1.8821 -0.725264 0
M  V30 9613 C 916.506 1.80674 0.749411 0
M  V30 9614 O 917.712 2.45037 1.16915 0
M  V30 9615 C 916.168 3.37607 -1.24697 0
M  V30 9616 C 915.776 3.53693 -2.74964 0
M  V30 9617 C 917.52 4.12149 -1.01652 0
M  V30 9618 C 915.427 4.97001 -3.20538 0
M  V30 9619 H 914.357 0.704916 -0.267599 0
M  V30 9620 H 917.008 1.34663 -1.24652 0
M  V30 9621 H 915.39 3.90569 -0.653614 0
M  V30 9622 H 916.564 3.11046 -3.39981 0
M  V30 9623 H 914.879 2.92544 -2.96322 0
M  V30 9624 H 917.476 5.17837 -1.33226 0
M  V30 9625 H 917.819 4.16274 0.0465712 0
M  V30 9626 H 918.352 3.65334 -1.57403 0
M  V30 9627 H 915.091 4.9804 -4.26189 0
M  V30 9628 H 914.611 5.40398 -2.60251 0
M  V30 9629 H 916.29 5.65669 -3.14049 0
M  V30 9630 N 916.422 0.810101 1.35185 0
M  V30 9631 C 917.699 0.315235 1.93043 0
M  V30 9632 C 918.079 -1.19567 1.73974 0
M  V30 9633 O 917.427 -1.99682 1.11083 0
M  V30 9634 C 917.637 0.730492 3.41269 0
M  V30 9635 C 918.985 0.721985 4.18417 0
M  V30 9636 O 920.009 0.672258 3.49799 0
M  V30 9637 O 918.868 0.783535 5.40854 0
M  V30 9638 H 915.962 0.0832774 0.822796 0
M  V30 9639 H 918.508 0.894034 1.4424 0
M  V30 9640 H 917.28 1.77169 3.48894 0
M  V30 9641 H 916.903 0.12669 3.97398 0
M  V30 9642 N 917.9 -1.47166 0.563914 0
M  V30 9643 C 918.848 -2.31798 -0.193009 0
M  V30 9644 C 919.842 -1.43338 -0.902805 0
M  V30 9645 O 921.048 -1.60067 -0.823328 0
M  V30 9646 H 917.423 -0.747613 -0.0811139 0
M  V30 9647 H 919.394 -2.93476 0.539876 0
M  V30 9648 C 918.143 -3.26131 -1.20555 0
M  V30 9649 H 917.466 -3.94166 -0.668803 0
M  V30 9650 H 918.906 -3.88167 -1.70593 0
M  V30 9651 C 917.365 -2.50132 -2.25689 0
M  V30 9652 O 917.895 -2.25064 -3.3273 0
M  V30 9653 N 916.101 -2.11022 -1.99795 0
M  V30 9654 H 915.648 -2.3161 -1.1276 0
M  V30 9655 H 915.606 -1.60489 -2.70353 0
M  V30 9656 N 919.378 -0.300708 -1.54705 0
M  V30 9657 C 920.328 0.590589 -2.20218 0
M  V30 9658 C 921.312 1.09913 -1.17507 0
M  V30 9659 O 922.504 1.03995 -1.43227 0
M  V30 9660 C 919.633 1.76214 -2.94625 0
M  V30 9661 C 918.719 1.26957 -4.04651 0
M  V30 9662 N 919.11 0.494982 -5.03372 0
M  V30 9663 C 917.408 1.55033 -4.18188 0
M  V30 9664 C 918.109 0.232724 -5.81234 0
M  V30 9665 N 917.085 0.812443 -5.37494 0
M  V30 9666 H 920.887 -0.00876354 -2.93899 0
M  V30 9667 H 918.401 -0.105456 -1.62057 0
M  V30 9668 H 920.398 2.41221 -3.40027 0
M  V30 9669 H 919.058 2.36519 -2.22461 0
M  V30 9670 H 920.069 0.13991 -5.17711 0
M  V30 9671 H 916.746 2.16089 -3.57228 0
M  V30 9672 H 918.136 -0.389362 -6.70771 0
M  V30 9673 N 920.856 1.57574 -0.0284266 0
M  V30 9674 C 921.786 2.1321 0.952039 0
M  V30 9675 C 922.767 1.04806 1.33977 0
M  V30 9676 O 923.952 1.32635 1.41851 0
M  V30 9677 C 921.082 2.65862 2.23461 0
M  V30 9678 C 920.036 3.79047 1.98765 0
M  V30 9679 C 919.362 4.18124 3.33281 0
M  V30 9680 C 920.662 5.05151 1.32739 0
M  V30 9681 H 922.356 2.95385 0.488705 0
M  V30 9682 H 919.902 1.42092 0.233628 0
M  V30 9683 H 921.855 3.03417 2.92431 0
M  V30 9684 H 920.579 1.80848 2.71959 0
M  V30 9685 H 919.238 3.41929 1.32213 0
M  V30 9686 H 918.886 3.30092 3.79537 0
M  V30 9687 H 918.586 4.94396 3.17563 0
M  V30 9688 H 920.11 4.58262 4.0352 0
M  V30 9689 H 921.524 5.40297 1.91708 0
M  V30 9690 H 919.921 5.86416 1.27421 0
M  V30 9691 H 920.991 4.83969 0.300261 0
M  V30 9692 N 922.334 -0.244713 1.55689 0
M  V30 9693 C 923.264 -1.30667 1.93516 0
M  V30 9694 C 924.245 -1.50094 0.800371 0
M  V30 9695 O 925.43 -1.62665 1.06083 0
M  V30 9696 C 922.56 -2.66101 2.23176 0
M  V30 9697 C 921.514 -2.61366 3.38927 0
M  V30 9698 C 920.84 -4.00616 3.54134 0
M  V30 9699 C 922.14 -2.18161 4.74555 0
M  V30 9700 H 923.834 -0.992546 2.82469 0
M  V30 9701 H 921.38 -0.476018 1.35905 0
M  V30 9702 H 923.333 -3.4053 2.48228 0
M  V30 9703 H 922.057 -2.99154 1.31051 0
M  V30 9704 H 920.716 -1.89395 3.13887 0
M  V30 9705 H 920.364 -4.30938 2.59426 0
M  V30 9706 H 920.064 -3.98335 4.31975 0
M  V30 9707 H 921.588 -4.76741 3.8151 0
M  V30 9708 H 923.002 -2.82323 4.98965 0
M  V30 9709 H 921.399 -2.26988 5.55515 0
M  V30 9710 H 922.469 -1.13333 4.7147 0
M  V30 9711 N 923.813 -1.49104 -0.510467 0
M  V30 9712 C 924.776 -1.64569 -1.59529 0
M  V30 9713 C 925.776 -0.517937 -1.5223 0
M  V30 9714 O 926.966 -0.784183 -1.55551 0
M  V30 9715 C 924.098 -1.6342 -2.99177 0
M  V30 9716 H 925.291 -2.61318 -1.4715 0
M  V30 9717 H 922.844 -1.37993 -0.734001 0
M  V30 9718 H 923.579 -0.68221 -3.17043 0
M  V30 9719 H 923.364 -2.45312 -3.05883 0
M  V30 9720 H 924.854 -1.77474 -3.78011 0
M  V30 9721 N 925.291 0.760815 -1.38019 0
M  V30 9722 C 926.221 1.88811 -1.37377 0
M  V30 9723 C 927.202 1.68388 -0.240737 0
M  V30 9724 O 928.387 1.89086 -0.442739 0
M  V30 9725 C 925.517 3.26244 -1.1909 0
M  V30 9726 C 924.471 3.61254 -2.29521 0
M  V30 9727 C 923.797 4.97346 -1.96345 0
M  V30 9728 C 925.097 3.66874 -3.71753 0
M  V30 9729 H 926.791 1.89606 -2.31711 0
M  V30 9730 H 924.337 0.910818 -1.11535 0
M  V30 9731 H 926.29 4.04755 -1.17267 0
M  V30 9732 H 925.014 3.2591 -0.212152 0
M  V30 9733 H 923.673 2.85057 -2.30517 0
M  V30 9734 H 923.321 4.93564 -0.969728 0
M  V30 9735 H 923.021 5.21739 -2.703 0
M  V30 9736 H 924.545 5.78244 -1.96129 0
M  V30 9737 H 925.959 4.35514 -3.72828 0
M  V30 9738 H 924.356 4.02772 -4.44853 0
M  V30 9739 H 925.426 2.67273 -4.0459 0
M  V30 9740 N 926.769 1.22769 0.988202 0
M  V30 9741 C 928.185 0.988665 1.2529 0
M  V30 9742 C 928.385 -0.314938 1.99024 0
M  V30 9743 O 927.441 -1.03637 2.30251 0
M  V30 9744 C 928.754 2.19046 2.06009 0
M  V30 9745 C 930.302 2.23452 2.19176 0
M  V30 9746 C 930.777 3.43196 3.03283 0
M  V30 9747 N 932.268 3.43387 3.10869 0
M  V30 9748 C 933.003 4.32693 3.7625 0
M  V30 9749 N 932.499 5.32224 4.43519 0
M  V30 9750 N 934.292 4.20457 3.73058 0
M  V30 9751 H 926.443 2.06575 0.494014 0
M  V30 9752 H 928.706 0.905452 0.28082 0
M  V30 9753 H 928.412 3.13607 1.59197 0
M  V30 9754 H 928.286 2.19492 3.06763 0
M  V30 9755 H 930.673 1.29436 2.65199 0
M  V30 9756 H 930.754 2.27042 1.17836 0
M  V30 9757 H 930.398 4.37515 2.57959 0
M  V30 9758 H 930.328 3.36847 4.04774 0
M  V30 9759 H 932.819 2.71368 2.62998 0
M  V30 9760 H 933.132 5.9664 4.91163 0
M  V30 9761 H 931.477 5.36133 4.42252 0
M  V30 9762 H 934.668 3.41949 3.19669 0
M  V30 9763 H 934.841 4.90261 4.23731 0
M  V30 9764 N 928.247 -1.18576 1.03814 0
M  V30 9765 C 929.157 -2.25778 0.637311 0
M  V30 9766 C 930.173 -1.7074 -0.335248 0
M  V30 9767 O 931.349 -2.00494 -0.19081 0
M  V30 9768 C 928.414 -3.467 0.00386953 0
M  V30 9769 C 927.475 -4.16881 1.02511 0
M  V30 9770 C 926.708 -5.32031 0.421802 0
M  V30 9771 O 926.931 -5.65142 -0.772699 0
M  V30 9772 O 925.865 -5.90826 1.14925 0
M  V30 9773 H 929.691 -2.62323 1.53037 0
M  V30 9774 H 927.276 -1.25609 0.80887 0
M  V30 9775 H 929.158 -4.19953 -0.348873 0
M  V30 9776 H 927.833 -3.11983 -0.863047 0
M  V30 9777 H 926.74 -3.45707 1.4296 0
M  V30 9778 H 928.073 -4.55592 1.86271 0
M  V30 9779 N 929.725 -0.817259 -1.34754 0
M  V30 9780 C 930.655 -0.249769 -2.3216 0
M  V30 9781 C 931.636 0.630663 -1.57977 0
M  V30 9782 O 932.821 0.558719 -1.85989 0
M  V30 9783 C 929.951 0.593825 -3.42186 0
M  V30 9784 C 928.905 -0.188997 -4.27583 0
M  V30 9785 C 928.231 0.776979 -5.29025 0
M  V30 9786 C 929.531 -1.39401 -5.03354 0
M  V30 9787 H 931.225 -1.06359 -2.79872 0
M  V30 9788 H 928.771 -0.512894 -1.34556 0
M  V30 9789 H 930.724 1.00097 -4.09339 0
M  V30 9790 H 929.448 1.44064 -2.93109 0
M  V30 9791 H 928.107 -0.577445 -3.62024 0
M  V30 9792 H 927.755 1.61959 -4.76212 0
M  V30 9793 H 927.455 0.257448 -5.87036 0
M  V30 9794 H 928.979 1.18211 -5.99048 0
M  V30 9795 H 930.393 -1.06117 -5.63393 0
M  V30 9796 H 928.79 -1.84878 -5.70912 0
M  V30 9797 H 929.86 -2.17515 -4.33377 0
M  V30 9798 N 931.203 1.46865 -0.571711 0
M  V30 9799 C 932.166 2.28658 0.157499 0
M  V30 9800 C 933.166 1.37773 0.829172 0
M  V30 9801 O 934.356 1.6026 0.682811 0
M  V30 9802 C 931.488 3.17859 1.23202 0
M  V30 9803 H 932.681 2.94603 -0.561171 0
M  V30 9804 H 930.234 1.52793 -0.329229 0
M  V30 9805 H 930.969 2.56637 1.98262 0
M  V30 9806 H 930.754 3.84762 0.755031 0
M  V30 9807 H 932.244 3.7945 1.74378 0
M  V30 9808 N 932.681 0.308908 1.54543 0
M  V30 9809 C 934.097 -0.0442273 1.59539 0
M  V30 9810 C 934.297 -1.51743 1.32575 0
M  V30 9811 O 933.353 -2.27134 1.10302 0
M  V30 9812 C 934.666 0.360826 2.98527 0
M  V30 9813 C 936.214 0.310252 3.11459 0
M  V30 9814 C 936.689 0.690246 4.52769 0
M  V30 9815 N 938.18 0.643084 4.58714 0
M  V30 9816 C 938.915 0.909483 5.66141 0
M  V30 9817 N 938.411 1.24226 6.81572 0
M  V30 9818 N 940.204 0.836018 5.55848 0
M  V30 9819 H 932.355 1.26893 1.70329 0
M  V30 9820 H 934.618 0.514986 0.795923 0
M  V30 9821 H 934.324 1.38669 3.23209 0
M  V30 9822 H 934.198 -0.281563 3.76148 0
M  V30 9823 H 936.585 -0.706375 2.86521 0
M  V30 9824 H 936.666 0.987373 2.35976 0
M  V30 9825 H 936.31 1.70472 4.78437 0
M  V30 9826 H 936.24 -0.00903075 5.26599 0
M  V30 9827 H 938.731 0.397138 3.75807 0
M  V30 9828 H 939.044 1.4313 7.5943 0
M  V30 9829 H 937.389 1.28038 6.83104 0
M  V30 9830 H 940.58 0.575637 4.64547 0
M  V30 9831 H 940.753 1.047 6.39486 0
M  V30 9832 N 934.159 -1.57557 0.0367827 0
M  V30 9833 C 935.122 -2.09591 -0.927589 0
M  V30 9834 C 936.122 -1.01252 -1.24919 0
M  V30 9835 O 937.312 -1.27382 -1.18825 0
M  V30 9836 C 934.444 -2.56816 -2.24184 0
M  V30 9837 H 935.637 -2.96086 -0.476784 0
M  V30 9838 H 933.19 -1.54864 -0.211385 0
M  V30 9839 H 933.925 -1.73673 -2.73876 0
M  V30 9840 H 933.71 -3.35973 -2.0215 0
M  V30 9841 H 935.2 -2.97271 -2.93291 0
M  V30 9842 N 935.637 0.236453 -1.55816 0
M  V30 9843 C 936.57 1.3196 -1.86177 0
M  V30 9844 C 937.548 1.459 -0.717769 0
M  V30 9845 O 938.732 1.61949 -0.964606 0
M  V30 9846 C 935.859 2.69183 -2.05568 0
M  V30 9847 C 934.905 2.72338 -3.28229 0
M  V30 9848 S 935.738 2.27898 -4.84585 0
M  V30 9849 C 936.894 3.67025 -5.06994 0
M  V30 9850 H 937.127 1.06011 -2.77757 0
M  V30 9851 H 934.66 0.437961 -1.48058 0
M  V30 9852 H 936.618 3.48191 -2.17423 0
M  V30 9853 H 935.279 2.92365 -1.14811 0
M  V30 9854 H 934.472 3.7314 -3.38795 0
M  V30 9855 H 934.074 2.01382 -3.15153 0
M  V30 9856 H 936.366 4.62604 -4.94979 0
M  V30 9857 H 937.309 3.61385 -6.08939 0
M  V30 9858 H 937.717 3.60022 -4.34792 0
M  V30 9859 N 937.115 1.49373 0.502552 0
M  V30 9860 C 938.355 1.60398 1.26696 0
M  V30 9861 C 938.719 0.283599 1.89894 0
M  V30 9862 O 939.92 0.269022 2.6745 0
M  V30 9863 C 938.191 2.72998 2.30666 0
M  V30 9864 S 939.75 3.03964 3.16466 0
M  V30 9865 H 936.568 0.565781 0.430596 0
M  V30 9866 H 939.17 1.87024 0.569418 0
M  V30 9867 H 937.874 3.67458 1.82765 0
M  V30 9868 H 937.405 2.4836 3.05091 0
M  V30 9869 H 939.42 2.45367 4.31288 0
M  V30 9870 N 938.594 -0.753485 1.38421 0
M  V30 9871 C 939.541 -1.86723 1.35659 0
M  V30 9872 C 940.511 -1.64648 0.219121 0
M  V30 9873 O 941.696 -1.86313 0.411366 0
M  V30 9874 C 938.836 -3.24023 1.18758 0
M  V30 9875 C 937.949 -3.57928 2.41892 0
M  V30 9876 C 937.084 -4.84532 2.17721 0
M  V30 9877 C 936.123 -5.11224 3.36626 0
M  V30 9878 N 935.26 -6.29023 3.11889 0
M  V30 9879 H 940.1 -1.88419 2.30873 0
M  V30 9880 H 937.637 -0.920934 1.14705 0
M  V30 9881 H 939.595 -4.03252 1.06974 0
M  V30 9882 H 938.225 -3.21654 0.27182 0
M  V30 9883 H 937.277 -2.73541 2.64347 0
M  V30 9884 H 938.589 -3.73581 3.30513 0
M  V30 9885 H 937.743 -5.71704 2.03074 0
M  V30 9886 H 936.482 -4.71018 1.26465 0
M  V30 9887 H 935.487 -4.2252 3.51791 0
M  V30 9888 H 936.712 -5.26635 4.28757 0
M  V30 9889 H 934.658 -6.16832 2.2328 0
M  V30 9890 H 934.575 -6.45177 3.9406 0
M  V30 9891 H 935.843 -7.19083 3.00898 0
M  V30 9892 N 940.072 -1.23292 -0.981677 0
M  V30 9893 C 940.982 -1.02964 -2.10798 0
M  V30 9894 C 941.998 0.0254674 -1.73981 0
M  V30 9895 O 943.174 -0.169706 -2.00684 0
M  V30 9896 C 940.239 -0.621934 -3.41076 0
M  V30 9897 C 939.3 -1.75194 -3.91926 0
M  V30 9898 C 938.533 -1.36359 -5.15986 0
M  V30 9899 O 938.756 -0.247265 -5.69864 0
M  V30 9900 O 937.69 -2.18421 -5.60871 0
M  V30 9901 H 941.516 -1.97354 -2.30836 0
M  V30 9902 H 939.101 -1.01986 -1.09175 0
M  V30 9903 H 940.983 -0.405446 -4.19445 0
M  V30 9904 H 939.658 0.29299 -3.22371 0
M  V30 9905 H 938.565 -2.02305 -3.1468 0
M  V30 9906 H 939.898 -2.64513 -4.15083 0
M  V30 9907 N 941.55 1.18024 -1.04442 0
M  V30 9908 C 942.48 2.23988 -0.659683 0
M  V30 9909 C 943.461 1.6669 0.338904 0
M  V30 9910 O 944.646 1.92971 0.21817 0
M  V30 9911 C 941.776 3.4729 -0.0257672 0
M  V30 9912 C 940.73 4.17362 -0.948299 0
M  V30 9913 C 940.056 5.34401 -0.17866 0
M  V30 9914 C 941.356 4.70435 -2.26909 0
M  V30 9915 H 943.05 2.56425 -1.54553 0
M  V30 9916 H 940.596 1.23256 -0.744575 0
M  V30 9917 H 942.549 4.20627 0.255131 0
M  V30 9918 H 941.273 3.14098 0.894981 0
M  V30 9919 H 939.932 3.45928 -1.21364 0
M  V30 9920 H 939.58 4.97458 0.744614 0
M  V30 9921 H 939.28 5.8222 -0.793294 0
M  V30 9922 H 940.804 6.10526 0.0951315 0
M  V30 9923 H 942.218 5.35447 -2.04864 0
M  V30 9924 H 940.615 5.28803 -2.83703 0
M  V30 9925 H 941.685 3.87653 -2.91296 0
M  V30 9926 N 943.028 0.824394 1.34319 0
M  V30 9927 C 944.439 0.471802 1.8064 0
M  V30 9928 C 944.79 -1.00793 1.6833 0
M  V30 9929 O 943.915 -1.78447 1.22416 0
M  V30 9930 C 944.51 0.849609 3.27974 0
M  V30 9931 C 943.069 0.549365 3.72369 0
M  V30 9932 C 942.216 1.06573 2.56003 0
M  V30 9933 H 945.167 1.01443 1.22045 0
M  V30 9934 H 945.188 0.153968 3.80188 0
M  V30 9935 H 944.7 1.92663 3.36902 0
M  V30 9936 H 942.801 -0.518182 3.68979 0
M  V30 9937 H 942.914 1.09446 4.66432 0
M  V30 9938 H 941.278 0.487214 2.49997 0
M  V30 9939 H 942.061 2.14923 2.677 0
M  V30 9940 N 944.506 -1.46559 0.579492 0
M  V30 9941 C 945.416 -2.34066 -0.15816 0
M  V30 9942 C 946.432 -1.49556 -0.88932 0
M  V30 9943 O 947.608 -1.82434 -0.853226 0
M  V30 9944 C 944.673 -3.26683 -1.161 0
M  V30 9945 C 943.734 -4.27092 -0.434855 0
M  V30 9946 C 942.967 -5.15283 -1.38992 0
M  V30 9947 O 943.19 -5.06345 -2.62623 0
M  V30 9948 O 942.124 -5.95099 -0.902253 0
M  V30 9949 H 945.95 -2.98488 0.560234 0
M  V30 9950 H 943.535 -1.45482 0.339918 0
M  V30 9951 H 945.417 -3.8383 -1.73932 0
M  V30 9952 H 944.092 -2.64862 -1.86091 0
M  V30 9953 H 942.999 -3.73641 0.185224 0
M  V30 9954 H 944.332 -4.9169 0.224031 0
M  V30 9955 N 945.984 -0.3171 -1.54377 0
M  V30 9956 C 946.917 0.594178 -2.20329 0
M  V30 9957 C 947.895 1.12067 -1.17812 0
M  V30 9958 O 949.079 1.18588 -1.46524 0
M  V30 9959 C 946.206 1.81463 -2.85987 0
M  V30 9960 C 945.252 1.41996 -4.02168 0
M  V30 9961 S 946.085 0.462159 -5.33502 0
M  V30 9962 C 947.241 1.69004 -6.02651 0
M  V30 9963 H 947.474 0.0339261 -2.97281 0
M  V30 9964 H 945.007 -0.101196 -1.54068 0
M  V30 9965 H 946.965 2.51494 -3.2444 0
M  V30 9966 H 945.626 2.34606 -2.08851 0
M  V30 9967 H 944.819 2.32921 -4.4695 0
M  V30 9968 H 944.421 0.799423 -3.65356 0
M  V30 9969 H 946.713 2.62839 -6.24437 0
M  V30 9970 H 947.656 1.28451 -6.96352 0
M  V30 9971 H 948.064 1.87408 -5.32483 0
M  V30 9972 N 947.462 1.57535 -0.0451378 0
M  V30 9973 C 948.709 1.92451 0.629987 0
M  V30 9974 C 949.037 0.92298 1.71206 0
M  V30 9975 O 948.292 -0.0656626 1.9559 0
M  V30 9976 C 948.591 3.34065 1.27024 0
M  V30 9977 C 948.257 4.49785 0.316971 0
M  V30 9978 C 946.919 4.81169 0.0546406 0
M  V30 9979 C 949.271 5.20111 -0.336693 0
M  V30 9980 C 946.599 5.8023 -0.86889 0
M  V30 9981 C 948.951 6.2016 -1.24838 0
M  V30 9982 C 947.615 6.49976 -1.51944 0
M  V30 9983 H 946.885 0.704228 0.230529 0
M  V30 9984 H 949.532 1.91182 -0.110328 0
M  V30 9985 H 947.837 3.31672 2.08568 0
M  V30 9986 H 949.534 3.58359 1.79945 0
M  V30 9987 H 946.124 4.2529 0.531614 0
M  V30 9988 H 950.308 4.96082 -0.147105 0
M  V30 9989 H 945.564 6.0167 -1.08643 0
M  V30 9990 H 949.738 6.73767 -1.76098 0
M  V30 9991 H 947.365 7.26551 -2.2367 0
M  V30 9992 N 948.94 -0.228186 1.55939 0
M  V30 9993 C 949.873 -1.30971 1.86874 0
M  V30 9994 C 950.851 -1.45517 0.725496 0
M  V30 9995 O 952.035 -1.61436 0.973181 0
M  V30 9996 C 949.162 -2.68089 2.06992 0
M  V30 9997 C 948.208 -2.70594 3.29669 0
M  V30 9998 S 949.041 -2.25325 4.85787 0
M  V30 9999 C 950.197 -3.64331 5.08934 0
M  V30 10000 H 950.43 -1.04536 2.78315 0
M  V30 10001 H 947.963 -0.430103 1.48288 0
M  V30 10002 H 949.921 -3.47033 2.19267 0
M  V30 10003 H 948.582 -2.91752 1.16359 0
M  V30 10004 H 947.775 -3.71338 3.4077 0
M  V30 10005 H 947.377 -1.99708 3.16216 0
M  V30 10006 H 949.669 -4.59972 4.97425 0
M  V30 10007 H 950.612 -3.58151 6.10847 0
M  V30 10008 H 951.02 -3.57711 4.36695 0
M  V30 10009 N 950.418 -1.49637 -0.494624 0
M  V30 10010 C 951.695 -1.4995 -1.25596 0
M  V30 10011 C 952.075 -0.230805 -2.09834 0
M  V30 10012 O 951.423 0.786625 -2.14533 0
M  V30 10013 C 951.633 -2.78204 -2.10721 0
M  V30 10014 C 952.981 -3.27946 -2.69698 0
M  V30 10015 O 954.005 -2.79365 -2.20984 0
M  V30 10016 O 952.864 -4.12571 -3.58395 0
M  V30 10017 H 949.958 -0.60044 -0.568684 0
M  V30 10018 H 952.504 -1.61906 -0.508371 0
M  V30 10019 H 951.276 -3.62029 -1.48494 0
M  V30 10020 H 950.899 -2.69139 -2.92661 0
M  V30 10021 N 951.896 0.746133 -1.38819 0
M  V30 10022 C 952.806 1.89063 -1.38897 0
M  V30 10023 C 953.822 1.71648 -0.28513 0
M  V30 10024 O 954.998 1.94443 -0.524783 0
M  V30 10025 C 952.063 3.24523 -1.22007 0
M  V30 10026 C 951.124 3.54411 -2.42263 0
M  V30 10027 C 950.357 4.83408 -2.26169 0
M  V30 10028 O 950.58 5.56325 -1.25931 0
M  V30 10029 O 949.514 5.12943 -3.14918 0
M  V30 10030 H 953.34 1.91951 -2.35347 0
M  V30 10031 H 950.925 0.892433 -1.19816 0
M  V30 10032 H 952.807 4.05496 -1.14677 0
M  V30 10033 H 951.482 3.2243 -0.286455 0
M  V30 10034 H 950.389 2.73569 -2.55168 0
M  V30 10035 H 951.722 3.61273 -3.3428 0
M  V30 10036 N 953.375 1.23811 0.975125 0
M  V30 10037 C 954.603 1.10019 1.75224 0
M  V30 10038 C 955.018 -0.34791 1.85567 0
M  V30 10039 O 954.375 -1.24043 1.33864 0
M  V30 10040 C 954.426 1.72572 3.1765 0
M  V30 10041 O 954.147 3.11719 3.07836 0
M  V30 10042 C 955.648 1.64292 4.11732 0
M  V30 10043 H 952.868 0.38476 0.549728 0
M  V30 10044 H 955.412 1.63768 1.22476 0
M  V30 10045 H 953.567 1.22843 3.67408 0
M  V30 10046 H 953.981 3.42152 3.97533 0
M  V30 10047 H 955.455 2.12754 5.09352 0
M  V30 10048 H 955.932 0.602722 4.35045 0
M  V30 10049 H 956.538 2.13411 3.6788 0
M  V30 10050 N 954.853 -1.17469 1.05066 0
M  V30 10051 C 956.083 -1.91343 0.779202 0
M  V30 10052 C 956.491 -1.76986 -0.668764 0
M  V30 10053 O 955.834 -1.1037 -1.46848 0
M  V30 10054 C 955.896 -3.42938 1.0786 0
M  V30 10055 C 955.56 -3.81076 2.52249 0
M  V30 10056 C 956.557 -3.84027 3.50456 0
M  V30 10057 C 954.242 -4.12076 2.87225 0
M  V30 10058 C 956.236 -4.17445 4.81683 0
M  V30 10059 C 953.923 -4.45163 4.18656 0
M  V30 10060 C 954.921 -4.47825 5.15696 0
M  V30 10061 O 954.609 -4.80133 6.44769 0
M  V30 10062 H 954.341 -0.613974 0.282863 0
M  V30 10063 H 956.895 -1.49907 1.40417 0
M  V30 10064 H 955.125 -3.84662 0.39653 0
M  V30 10065 H 956.814 -3.98071 0.793357 0
M  V30 10066 H 957.58 -3.60203 3.24775 0
M  V30 10067 H 953.459 -4.09176 2.12358 0
M  V30 10068 H 957.003 -4.19437 5.57421 0
M  V30 10069 H 952.9 -4.68449 4.44101 0
M  V30 10070 H 953.668 -4.97995 6.49571 0
M  V30 10071 N 956.331 -0.831506 -1.3388 0
M  V30 10072 C 957.261 -0.274378 -2.31882 0
M  V30 10073 C 958.242 0.613872 -1.58637 0
M  V30 10074 O 959.427 0.538961 -1.86571 0
M  V30 10075 C 956.557 0.557498 -3.42796 0
M  V30 10076 C 955.511 -0.234337 -4.27358 0
M  V30 10077 C 954.837 0.720825 -5.29819 0
M  V30 10078 C 956.137 -1.44732 -5.01847 0
M  V30 10079 H 957.831 -1.09322 -2.78728 0
M  V30 10080 H 955.377 -0.527136 -1.34005 0
M  V30 10081 H 957.33 0.957501 -4.10378 0
M  V30 10082 H 956.054 1.40947 -2.94621 0
M  V30 10083 H 954.713 -0.61581 -3.61391 0
M  V30 10084 H 954.361 1.569 -4.77903 0
M  V30 10085 H 954.061 0.195171 -5.87276 0
M  V30 10086 H 955.585 1.1185 -6.00268 0
M  V30 10087 H 956.999 -1.12087 -5.62236 0
M  V30 10088 H 955.396 -1.90923 -5.68919 0
M  V30 10089 H 956.466 -2.22099 -4.31045 0
M  V30 10090 N 957.809 1.4625 -0.587256 0
M  V30 10091 C 958.742 2.27392 0.191837 0
M  V30 10092 C 959.72 1.35905 0.89267 0
M  V30 10093 O 960.904 1.65319 0.905643 0
M  V30 10094 C 958.031 3.13758 1.27567 0
M  V30 10095 C 957.077 4.21041 0.680186 0
M  V30 10096 S 957.91 5.33194 -0.496419 0
M  V30 10097 C 959.066 6.23127 0.588506 0
M  V30 10098 H 959.299 2.93123 -0.496635 0
M  V30 10099 H 956.832 1.49795 -0.37426 0
M  V30 10100 H 958.79 3.6408 1.8962 0
M  V30 10101 H 957.451 2.47332 1.93612 0
M  V30 10102 H 956.644 4.81316 1.49503 0
M  V30 10103 H 956.246 3.73755 0.135227 0
M  V30 10104 H 958.538 6.61294 1.47298 0
M  V30 10105 H 959.481 7.08096 0.0224093 0
M  V30 10106 H 959.889 5.57365 0.894696 0
M  V30 10107 N 959.287 0.325282 1.54207 0
M  V30 10108 C 960.512 -0.281418 2.05482 0
M  V30 10109 C 960.937 -1.44869 1.19977 0
M  V30 10110 O 960.295 -1.80088 0.209275 0
M  V30 10111 C 960.343 -0.692029 3.53897 0
M  V30 10112 O 959.447 -1.7942 3.71325 0
M  V30 10113 H 958.788 -0.0504872 0.662078 0
M  V30 10114 H 961.318 0.474191 1.99029 0
M  V30 10115 H 961.328 -0.974219 3.96198 0
M  V30 10116 H 960.003 0.161709 4.15586 0
M  V30 10117 H 958.58 -1.51069 3.40929 0
M  V30 10118 N 960.765 -1.57509 0.0534917 0
M  V30 10119 C 961.713 -2.12851 -0.937931 0
M  V30 10120 C 962.707 -1.06088 -1.32067 0
M  V30 10121 O 963.913 -1.24494 -1.30005 0
M  V30 10122 H 960.288 -0.680357 -0.320342 0
M  V30 10123 H 962.259 -2.95047 -0.446077 0
M  V30 10124 C 961.008 -2.69034 -2.20264 0
M  V30 10125 H 960.331 -3.50848 -1.91693 0
M  V30 10126 H 961.771 -3.11375 -2.87788 0
M  V30 10127 C 960.23 -1.62919 -2.94888 0
M  V30 10128 O 960.76 -1.04334 -3.87914 0
M  V30 10129 N 958.966 -1.34385 -2.57661 0
M  V30 10130 H 958.513 -1.82214 -1.82088 0
M  V30 10131 H 958.471 -0.636149 -3.07897 0
M  V30 10132 N 962.243 0.219913 -1.56058 0
M  V30 10133 C 963.659 0.569685 -1.49086 0
M  V30 10134 C 963.859 1.87066 -0.748903 0
M  V30 10135 O 962.915 2.50838 -0.289235 0
M  V30 10136 C 964.228 0.647397 -2.93648 0
M  V30 10137 C 965.776 0.737914 -3.04177 0
M  V30 10138 C 966.251 0.846957 -4.50101 0
M  V30 10139 N 967.742 0.911136 -4.5415 0
M  V30 10140 C 968.477 1.01525 -5.64341 0
M  V30 10141 N 967.973 1.0832 -6.8428 0
M  V30 10142 N 969.766 1.05051 -5.52196 0
M  V30 10143 H 961.917 -0.633778 -2.02724 0
M  V30 10144 H 964.18 -0.222583 -0.921499 0
M  V30 10145 H 963.886 -0.238987 -3.50887 0
M  V30 10146 H 963.76 1.51046 -3.45637 0
M  V30 10147 H 966.147 1.61474 -2.47002 0
M  V30 10148 H 966.228 -0.150845 -2.55355 0
M  V30 10149 H 965.872 -0.0254166 -5.07894 0
M  V30 10150 H 965.802 1.75116 -4.96631 0
M  V30 10151 H 968.293 0.868869 -3.67776 0
M  V30 10152 H 968.606 1.16247 -7.64007 0
M  V30 10153 H 966.951 1.05231 -6.86987 0
M  V30 10154 H 970.142 0.994086 -4.57423 0
M  V30 10155 H 970.315 1.12819 -6.38103 0
M  V30 10156 N 963.721 1.49897 0.486681 0
M  V30 10157 C 964.968 1.60105 1.23986 0
M  V30 10158 C 965.296 0.294228 1.92262 0
M  V30 10159 O 964.551 -0.718876 1.82018 0
M  V30 10160 C 964.85 2.71982 2.31863 0
M  V30 10161 C 964.516 4.13 1.80948 0
M  V30 10162 C 963.178 4.51373 1.66782 0
M  V30 10163 C 965.53 5.01198 1.43004 0
M  V30 10164 C 962.858 5.75701 1.13072 0
M  V30 10165 C 965.21 6.26058 0.90742 0
M  V30 10166 C 963.874 6.63247 0.752269 0
M  V30 10167 H 963.144 0.585866 0.453698 0
M  V30 10168 H 965.791 1.83778 0.538305 0
M  V30 10169 H 964.096 2.42336 3.07865 0
M  V30 10170 H 965.793 2.77087 2.89869 0
M  V30 10171 H 962.383 3.82718 1.92937 0
M  V30 10172 H 966.567 4.72196 1.52789 0
M  V30 10173 H 961.823 6.03202 0.997842 0
M  V30 10174 H 965.997 6.9377 0.604684 0
M  V30 10175 H 963.624 7.59466 0.33392 0
M  V30 10176 N 965.199 -0.738761 1.39212 0
M  V30 10177 C 966.445 -1.50046 1.36433 0
M  V30 10178 C 966.778 -1.94157 -0.0409474 0
M  V30 10179 O 966.053 -1.66515 -1.00514 0
M  V30 10180 C 966.336 -2.74277 2.33333 0
M  V30 10181 C 966.189 -2.36209 3.82786 0
M  V30 10182 C 967.508 -3.76361 2.28123 0
M  V30 10183 H 964.627 -0.544294 0.496903 0
M  V30 10184 H 967.269 -0.845005 1.70175 0
M  V30 10185 H 965.419 -3.30204 2.04689 0
M  V30 10186 H 967.091 -1.85942 4.22165 0
M  V30 10187 H 965.334 -1.68483 3.99745 0
M  V30 10188 H 966.005 -3.25156 4.46069 0
M  V30 10189 H 968.481 -3.30009 2.53443 0
M  V30 10190 H 967.357 -4.60957 2.9801 0
M  V30 10191 H 967.618 -4.23013 1.28499 0
M  V30 10192 N 966.677 -1.24326 -0.968545 0
M  V30 10193 C 967.607 -1.05951 -2.08079 0
M  V30 10194 C 968.588 0.0272666 -1.70078 0
M  V30 10195 O 969.773 -0.139644 -1.93697 0
M  V30 10196 C 966.903 -0.662623 -3.4092 0
M  V30 10197 C 965.857 -1.69807 -3.92873 0
M  V30 10198 C 965.183 -1.15628 -5.22048 0
M  V30 10199 C 966.483 -3.09383 -4.20808 0
M  V30 10200 H 968.177 -1.98984 -2.23709 0
M  V30 10201 H 965.723 -0.958112 -1.075 0
M  V30 10202 H 967.676 -0.521071 -4.18166 0
M  V30 10203 H 966.4 0.303399 -3.25188 0
M  V30 10204 H 965.059 -1.82783 -3.17783 0
M  V30 10205 H 964.707 -0.180888 -5.02675 0
M  V30 10206 H 964.407 -1.84822 -5.57776 0
M  V30 10207 H 965.931 -1.02683 -6.01904 0
M  V30 10208 H 967.345 -2.99642 -4.88761 0
M  V30 10209 H 965.742 -3.75923 -4.67763 0
M  V30 10210 H 966.812 -3.57486 -3.27616 0
M  V30 10211 N 968.156 1.1691 -1.05688 0
M  V30 10212 C 969.381 1.91745 -0.790478 0
M  V30 10213 C 969.806 1.76568 0.648478 0
M  V30 10214 O 969.164 1.08682 1.45114 0
M  V30 10215 C 969.212 3.4067 -1.18222 0
M  V30 10216 O 968.316 4.11177 -0.317341 0
M  V30 10217 H 967.657 0.5976 -0.28943 0
M  V30 10218 H 970.187 1.48157 -1.41105 0
M  V30 10219 H 970.197 3.91424 -1.15114 0
M  V30 10220 H 968.872 3.51036 -2.2304 0
M  V30 10221 H 967.449 3.70645 -0.409459 0
M  V30 10222 N 969.634 0.838594 1.33437 0
M  V30 10223 C 970.862 0.447644 2.01999 0
M  V30 10224 C 971.277 -0.951053 1.63096 0
M  V30 10225 O 970.634 -1.61802 0.844169 0
M  V30 10226 C 970.685 0.558378 3.57162 0
M  V30 10227 O 970.406 1.90196 3.94661 0
M  V30 10228 C 971.907 0.164348 4.42995 0
M  V30 10229 H 969.127 0.177736 0.647032 0
M  V30 10230 H 971.671 1.13109 1.70372 0
M  V30 10231 H 969.826 -0.0771563 3.87323 0
M  V30 10232 H 970.24 1.88729 4.89369 0
M  V30 10233 H 971.714 0.292876 5.51222 0
M  V30 10234 H 972.191 -0.893713 4.30011 0
M  V30 10235 H 972.797 0.774306 4.18192 0
M  V30 10236 N 971.112 -1.45937 0.595003 0
M  V30 10237 C 972.337 -2.07207 0.0894416 0
M  V30 10238 C 972.762 -1.43884 -1.21157 0
M  V30 10239 O 972.12 -0.526998 -1.73472 0
M  V30 10240 C 972.168 -3.60565 -0.0499828 0
M  V30 10241 O 971.272 -3.97364 -1.10342 0
M  V30 10242 H 970.613 -0.660471 0.0683627 0
M  V30 10243 H 973.143 -1.87386 0.82144 0
M  V30 10244 H 973.153 -4.0722 -0.252234 0
M  V30 10245 H 971.828 -4.06044 0.90006 0
M  V30 10246 H 970.405 -3.62401 -0.878645 0
M  V30 10247 N 972.59 -0.333456 -1.54032 0
M  V30 10248 C 973.522 0.562174 -2.22199 0
M  V30 10249 C 974.535 1.07202 -1.22522 0
M  V30 10250 O 975.724 0.983897 -1.48935 0
M  V30 10251 C 972.824 1.78525 -2.88066 0
M  V30 10252 C 971.997 1.41242 -4.13968 0
M  V30 10253 C 971.056 2.49408 -4.63338 0
M  V30 10254 O 970.082 2.13138 -5.27789 0
M  V30 10255 N 971.284 3.805 -4.38406 0
M  V30 10256 H 974.049 -0.0215629 -2.99692 0
M  V30 10257 H 971.61 -0.157111 -1.61136 0
M  V30 10258 H 973.602 2.50298 -3.18014 0
M  V30 10259 H 972.172 2.2766 -2.14219 0
M  V30 10260 H 971.392 0.525887 -3.90676 0
M  V30 10261 H 972.68 1.13916 -4.95884 0
M  V30 10262 H 972.078 4.12761 -3.86839 0
M  V30 10263 H 970.635 4.48474 -4.72984 0
M  V30 10264 N 974.068 1.57479 -0.061844 0
M  V30 10265 C 975.314 1.93395 0.610443 0
M  V30 10266 C 975.647 0.941334 1.6986 0
M  V30 10267 O 974.922 -0.0310262 1.94475 0
M  V30 10268 C 975.205 3.39636 1.19664 0
M  V30 10269 C 975.058 4.49651 0.115805 0
M  V30 10270 C 976.377 3.86488 2.10512 0
M  V30 10271 H 973.496 0.703262 0.220436 0
M  V30 10272 H 976.138 1.89583 -0.125785 0
M  V30 10273 H 974.288 3.43015 1.82409 0
M  V30 10274 H 975.96 4.58397 -0.516728 0
M  V30 10275 H 974.203 4.30237 -0.55483 0
M  V30 10276 H 974.874 5.49089 0.566176 0
M  V30 10277 H 977.35 3.85052 1.57715 0
M  V30 10278 H 976.226 4.89444 2.48466 0
M  V30 10279 H 976.487 3.23856 3.00948 0
M  V30 10280 N 975.546 -0.211634 1.56173 0
M  V30 10281 C 976.957 -0.777776 1.69728 0
M  V30 10282 C 977.308 -1.84566 0.66558 0
M  V30 10283 O 976.433 -2.15639 -0.181338 0
M  V30 10284 C 977.028 -1.41757 3.07718 0
M  V30 10285 C 975.587 -1.93098 3.23094 0
M  V30 10286 C 974.734 -0.794785 2.65666 0
M  V30 10287 H 977.685 0.0131839 1.58695 0
M  V30 10288 H 977.706 -2.28662 3.04128 0
M  V30 10289 H 977.218 -0.640114 3.82785 0
M  V30 10290 H 975.319 -2.73615 2.52914 0
M  V30 10291 H 975.432 -2.10414 4.30422 0
M  V30 10292 H 973.796 -1.20473 2.24407 0
M  V30 10293 H 974.579 -0.0298408 3.43287 0
M  V30 10294 N 977.024 -1.50153 -0.478725 0
M  V30 10295 C 978.252 -1.64505 -1.25482 0
M  V30 10296 C 978.667 -0.325295 -1.85977 0
M  V30 10297 O 978.024 0.691885 -1.68876 0
M  V30 10298 C 978.075 -2.73052 -2.36906 0
M  V30 10299 O 977.796 -3.99911 -1.78894 0
M  V30 10300 C 979.297 -2.98309 -3.27912 0
M  V30 10301 H 976.517 -0.55318 -0.379781 0
M  V30 10302 H 979.061 -1.96329 -0.57229 0
M  V30 10303 H 977.216 -2.43944 -3.00949 0
M  V30 10304 H 977.63 -4.5988 -2.52211 0
M  V30 10305 H 979.104 -3.77942 -4.02323 0
M  V30 10306 H 979.581 -2.09082 -3.8624 0
M  V30 10307 H 980.187 -3.2892 -2.69614 0
M  V30 10308 N 978.502 0.731368 -1.39602 0
M  V30 10309 C 979.73 1.52059 -1.40305 0
M  V30 10310 C 980.145 1.888 0.00147921 0
M  V30 10311 O 979.502 1.54354 0.973715 0
M  V30 10312 C 979.553 2.80588 -2.27931 0
M  V30 10313 O 979.274 2.45406 -3.62915 0
M  V30 10314 C 980.775 3.74592 -2.37056 0
M  V30 10315 H 977.995 0.469787 -0.479104 0
M  V30 10316 H 980.539 0.903436 -1.83462 0
M  V30 10317 H 978.694 3.38626 -1.88178 0
M  V30 10318 H 979.108 3.27996 -4.09291 0
M  V30 10319 H 980.582 4.61662 -3.02609 0
M  V30 10320 H 981.059 4.16597 -1.39081 0
M  V30 10321 H 981.665 3.22471 -2.77295 0
M  V30 10322 N 979.98 1.24838 0.961938 0
M  V30 10323 C 981.208 1.11871 1.74047 0
M  V30 10324 C 981.623 -0.328209 1.85925 0
M  V30 10325 O 980.98 -1.22616 1.35173 0
M  V30 10326 C 981.031 1.75931 3.15801 0
M  V30 10327 O 980.752 3.14967 3.04512 0
M  V30 10328 C 982.253 1.68649 4.09966 0
M  V30 10329 H 979.473 0.390569 0.545616 0
M  V30 10330 H 982.017 1.65058 1.20732 0
M  V30 10331 H 980.172 1.26733 3.66084 0
M  V30 10332 H 980.586 3.46349 3.93882 0
M  V30 10333 H 982.06 2.18144 5.07067 0
M  V30 10334 H 982.537 0.648831 4.34381 0
M  V30 10335 H 983.143 2.17301 3.65596 0
M  V30 10336 N 981.458 -1.16348 1.06306 0
M  V30 10337 C 982.368 -2.24375 0.685059 0
M  V30 10338 C 983.384 -1.71413 -0.298956 0
M  V30 10339 O 984.56 -2.00854 -0.148239 0
M  V30 10340 C 981.625 -3.46614 0.0774088 0
M  V30 10341 C 980.686 -4.14613 1.11331 0
M  V30 10342 C 979.919 -5.31016 0.534559 0
M  V30 10343 O 980.142 -5.66654 -0.65265 0
M  V30 10344 O 979.076 -5.88256 1.27431 0
M  V30 10345 H 982.902 -2.59018 1.58566 0
M  V30 10346 H 980.487 -1.23865 0.835332 0
M  V30 10347 H 982.369 -4.20599 -0.259716 0
M  V30 10348 H 981.044 -3.13743 -0.796677 0
M  V30 10349 H 979.951 -3.42597 1.50261 0
M  V30 10350 H 981.284 -4.51538 1.95893 0
M  V30 10351 N 982.937 -0.845659 -1.3299 0
M  V30 10352 C 983.87 -0.228695 -2.27051 0
M  V30 10353 C 984.848 0.62812 -1.49978 0
M  V30 10354 O 986.032 0.586897 -1.79131 0
M  V30 10355 C 983.159 0.678251 -3.31839 0
M  V30 10356 C 982.205 -0.103994 -4.26373 0
M  V30 10357 S 983.038 -1.46642 -5.1503 0
M  V30 10358 C 984.194 -0.564953 -6.23345 0
M  V30 10359 H 984.427 -1.02609 -2.79032 0
M  V30 10360 H 981.96 -0.642786 -1.40384 0
M  V30 10361 H 983.918 1.1959 -3.92694 0
M  V30 10362 H 982.579 1.44937 -2.78661 0
M  V30 10363 H 981.772 0.586406 -5.00577 0
M  V30 10364 H 981.374 -0.552927 -3.6989 0
M  V30 10365 H 983.666 0.234466 -6.77094 0
M  V30 10366 H 984.609 -1.27736 -6.96483 0
M  V30 10367 H 985.017 -0.143286 -5.64318 0
M  V30 10368 N 984.415 1.45619 -0.602734 0
M  V30 10369 C 985.662 2.02272 -0.0960337 0
M  V30 10370 C 985.99 1.47177 1.27159 0
M  V30 10371 O 985.245 0.634593 1.85125 0
M  V30 10372 C 985.544 3.574 -0.00157909 0
M  V30 10373 C 985.21 4.31626 -1.30422 0
M  V30 10374 C 983.872 4.51622 -1.66106 0
M  V30 10375 C 986.224 4.74091 -2.16535 0
M  V30 10376 C 983.552 5.11338 -2.87663 0
M  V30 10377 C 985.904 5.35151 -3.37336 0
M  V30 10378 C 984.568 5.53371 -3.73278 0
M  V30 10379 H 983.838 0.740166 -0.0351412 0
M  V30 10380 H 986.485 1.74744 -0.783382 0
M  V30 10381 H 984.79 3.84179 0.769008 0
M  V30 10382 H 986.487 3.98934 0.406549 0
M  V30 10383 H 983.077 4.16372 -1.01647 0
M  V30 10384 H 987.261 4.5838 -1.90266 0
M  V30 10385 H 982.517 5.23634 -3.15622 0
M  V30 10386 H 986.691 5.67011 -4.04316 0
M  V30 10387 H 984.318 5.99412 -4.67556 0
M  V30 10388 N 985.893 0.34162 1.53853 0
M  V30 10389 C 987.133 -0.255853 2.02792 0
M  V30 10390 C 987.497 -1.47921 1.22407 0
M  V30 10391 O 988.698 -2.15073 1.61236 0
M  V30 10392 C 986.969 -0.564117 3.5292 0
M  V30 10393 S 988.528 -1.13868 4.23768 0
M  V30 10394 H 985.346 -0.0762867 0.706896 0
M  V30 10395 H 987.948 0.478934 1.89543 0
M  V30 10396 H 986.652 0.334098 4.09038 0
M  V30 10397 H 986.183 -1.32862 3.70285 0
M  V30 10398 H 988.198 -2.42451 4.32934 0
M  V30 10399 N 987.371 -1.57444 0.0701946 0
M  V30 10400 C 988.611 -1.95304 -0.60296 0
M  V30 10401 C 988.975 -0.949592 -1.66873 0
M  V30 10402 O 990.176 -1.2158 -2.39733 0
M  V30 10403 C 988.447 -3.37831 -1.16639 0
M  V30 10404 S 990.006 -3.97667 -1.8549 0
M  V30 10405 H 986.824 -0.683026 -0.197476 0
M  V30 10406 H 989.426 -1.94971 0.143669 0
M  V30 10407 H 988.13 -4.08648 -0.378856 0
M  V30 10408 H 987.661 -3.41704 -1.94942 0
M  V30 10409 H 989.676 -3.84441 -3.13719 0
M  V30 10410 N 988.849 0.203349 -1.56283 0
M  V30 10411 C 990.079 0.940061 -1.83974 0
M  V30 10412 C 990.487 1.77703 -0.649486 0
M  V30 10413 O 989.83 1.79487 0.391189 0
M  V30 10414 C 989.892 1.89249 -3.05655 0
M  V30 10415 C 989.556 1.23828 -4.39904 0
M  V30 10416 C 990.553 0.619231 -5.16199 0
M  V30 10417 C 988.238 1.2446 -4.86636 0
M  V30 10418 C 990.232 0.0152287 -6.37398 0
M  V30 10419 C 987.919 0.636764 -6.07773 0
M  V30 10420 C 988.917 0.0231481 -6.82996 0
M  V30 10421 O 988.605 -0.575187 -8.0184 0
M  V30 10422 H 988.337 0.280199 -0.615194 0
M  V30 10423 H 990.891 0.218111 -2.04239 0
M  V30 10424 H 989.121 2.65392 -2.81254 0
M  V30 10425 H 990.81 2.4963 -3.20062 0
M  V30 10426 H 991.576 0.606545 -4.81192 0
M  V30 10427 H 987.455 1.71161 -4.28048 0
M  V30 10428 H 990.999 -0.464333 -6.96053 0
M  V30 10429 H 986.896 0.646924 -6.4225 0
M  V30 10430 H 987.664 -0.471284 -8.17142 0
M  V30 10431 N 990.327 1.50405 0.470755 0
M  V30 10432 C 991.575 1.61092 1.2204 0
M  V30 10433 C 991.896 0.313487 1.92464 0
M  V30 10434 O 991.166 -0.669043 1.84121 0
M  V30 10435 H 989.746 0.593618 0.45346 0
M  V30 10436 H 992.408 1.87184 0.542985 0
M  V30 10437 H 991.504 2.42222 1.96812 0
M  V30 10438 N 991.805 -0.723954 1.39988 0
M  V30 10439 C 993.216 -1.30273 1.33738 0
M  V30 10440 C 993.567 -1.96199 0.00690581 0
M  V30 10441 O 992.692 -1.97016 -0.895179 0
M  V30 10442 C 993.287 -2.36889 2.42217 0
M  V30 10443 C 991.846 -2.90412 2.39453 0
M  V30 10444 C 990.993 -1.64103 2.2353 0
M  V30 10445 H 993.944 -0.520672 1.49916 0
M  V30 10446 H 993.965 -3.17538 2.09642 0
M  V30 10447 H 993.477 -1.88878 3.39038 0
M  V30 10448 H 991.578 -3.42674 1.46304 0
M  V30 10449 H 991.691 -3.42775 3.34727 0
M  V30 10450 H 990.055 -1.88855 1.70897 0
M  V30 10451 H 990.838 -1.18128 3.22336 0
M  V30 10452 N 993.283 -1.25346 -0.955304 0
M  V30 10453 C 994.529 -1.10218 -1.70235 0
M  V30 10454 C 994.862 0.356124 -1.90907 0
M  V30 10455 O 994.137 1.26253 -1.47954 0
M  V30 10456 C 994.42 -1.85627 -3.08569 0
M  V30 10457 C 994.273 -3.39281 -2.95311 0
M  V30 10458 C 995.592 -1.63886 -4.08448 0
M  V30 10459 H 992.711 -0.401781 -0.617852 0
M  V30 10460 H 995.353 -1.5417 -1.11048 0
M  V30 10461 H 993.503 -1.48269 -3.59094 0
M  V30 10462 H 995.175 -3.8631 -2.52116 0
M  V30 10463 H 993.418 -3.67027 -2.31244 0
M  V30 10464 H 994.089 -3.87258 -3.93364 0
M  V30 10465 H 996.565 -1.96406 -3.6683 0
M  V30 10466 H 995.441 -2.19087 -5.03281 0
M  V30 10467 H 995.702 -0.580021 -4.38279 0
M  V30 10468 N 994.761 1.15782 -1.06922 0
M  V30 10469 C 996.007 1.86741 -0.790922 0
M  V30 10470 C 996.34 1.81863 0.681149 0
M  V30 10471 O 995.615 1.23871 1.49954 0
M  V30 10472 C 995.898 3.36038 -1.29422 0
M  V30 10473 C 995.751 3.49573 -2.83052 0
M  V30 10474 C 997.07 4.30647 -0.907239 0
M  V30 10475 H 994.189 0.678064 -0.288787 0
M  V30 10476 H 996.831 1.36054 -1.32624 0
M  V30 10477 H 994.981 3.79336 -0.838843 0
M  V30 10478 H 996.653 3.1517 -3.36847 0
M  V30 10479 H 994.896 2.91275 -3.21467 0
M  V30 10480 H 995.567 4.5445 -3.13335 0
M  V30 10481 H 998.043 3.95286 -1.29956 0
M  V30 10482 H 996.919 5.33604 -1.28679 0
M  V30 10483 H 997.18 4.41703 0.187251 0
M  V30 10484 N 996.239 0.8527 1.3254 0
M  V30 10485 C 997.65 0.510012 1.79599 0
M  V30 10486 C 998.001 -0.972002 1.70431 0
M  V30 10487 O 997.126 -1.7581 1.26173 0
M  V30 10488 C 997.721 0.918986 3.26098 0
M  V30 10489 C 996.28 0.628227 3.7112 0
M  V30 10490 C 995.427 1.11979 2.53685 0
M  V30 10491 H 998.378 1.04009 1.19866 0
M  V30 10492 H 998.399 0.234577 3.79776 0
M  V30 10493 H 997.911 1.99765 3.32739 0
M  V30 10494 H 996.012 -0.4398 3.69995 0
M  V30 10495 H 996.125 1.19315 4.64005 0
M  V30 10496 H 994.489 0.540133 2.48907 0
M  V30 10497 H 995.272 2.20552 2.63081 0
M  V30 10498 N 997.718 -1.45297 0.610449 0
M  V30 10499 C 998.666 -2.32295 -0.119167 0
M  V30 10500 C 999.66 -1.46138 -0.856746 0
M  V30 10501 O 1000.87 -1.62605 -0.771988 0
M  V30 10502 H 997.241 -0.749815 -0.0572881 0
M  V30 10503 H 999.212 -2.91609 0.63297 0
M  V30 10504 C 997.961 -3.29802 -1.10119 0
M  V30 10505 H 997.284 -3.96095 -0.543063 0
M  V30 10506 H 998.724 -3.93398 -1.58158 0
M  V30 10507 C 997.183 -2.57185 -2.17617 0
M  V30 10508 O 997.713 -2.35535 -3.25401 0
M  V30 10509 N 995.919 -2.17272 -1.9298 0
M  V30 10510 H 995.466 -2.3508 -1.05334 0
M  V30 10511 H 995.424 -1.69009 -2.6511 0
M  V30 10512 N 999.196 -0.349774 -1.5367 0
M  V30 10513 C 1000.44 0.244343 -2.00617 0
M  V30 10514 C 1000.76 1.50567 -1.23914 0
M  V30 10515 O 1000.03 1.92784 -0.348016 0
M  V30 10516 H 998.615 0.0932792 -0.741153 0
M  V30 10517 H 1001.28 -0.472367 -1.89089 0
M  V30 10518 H 1000.37 0.482433 -3.08349 0
M  V30 10519 N 1000.67 1.57404 -0.0785433 0
M  V30 10520 C 1001.9 1.97787 0.596995 0
M  V30 10521 C 1002.31 0.955904 1.63276 0
M  V30 10522 O 1001.65 -0.0649169 1.83585 0
M  V30 10523 C 1001.72 3.34499 1.31723 0
M  V30 10524 C 1001.38 4.54933 0.434144 0
M  V30 10525 C 1002.38 5.18969 -0.311015 0
M  V30 10526 C 1000.06 5.01029 0.357046 0
M  V30 10527 C 1002.06 6.27457 -1.12142 0
M  V30 10528 C 999.744 6.09389 -0.457029 0
M  V30 10529 C 1000.74 6.72466 -1.19493 0
M  V30 10530 O 1000.43 7.78738 -1.99556 0
M  V30 10531 H 1000.16 0.655294 0.166028 0
M  V30 10532 H 1002.72 2.04855 -0.149517 0
M  V30 10533 H 1000.95 3.24064 2.10996 0
M  V30 10534 H 1002.63 3.5944 1.88567 0
M  V30 10535 H 1003.4 4.84297 -0.261084 0
M  V30 10536 H 999.28 4.51706 0.921026 0
M  V30 10537 H 1002.82 6.76622 -1.69788 0
M  V30 10538 H 998.721 6.43494 -0.508499 0
M  V30 10539 H 999.489 7.95648 -1.9206 0
M  V30 10540 N 1002.15 -0.195058 1.56388 0
M  V30 10541 C 1003.4 -0.913636 1.8027 0
M  V30 10542 C 1003.72 -1.83791 0.651606 0
M  V30 10543 O 1002.99 -1.931 -0.330057 0
M  V30 10544 H 1001.57 -0.34036 0.664954 0
M  V30 10545 H 1004.23 -0.200559 1.93865 0
M  V30 10546 H 1003.33 -1.50473 2.7343 0
M  V30 10547 N 1003.63 -1.50653 -0.462772 0
M  V30 10548 C 1004.59 -1.69561 -1.54213 0
M  V30 10549 C 1005.59 -0.566106 -1.50505 0
M  V30 10550 O 1006.78 -0.833273 -1.52978 0
M  V30 10551 C 1003.91 -1.72856 -2.93826 0
M  V30 10552 H 1005.11 -2.65867 -1.38761 0
M  V30 10553 H 1002.66 -1.40259 -0.689728 0
M  V30 10554 H 1003.4 -0.78273 -3.14712 0
M  V30 10555 H 1003.18 -2.54919 -2.97924 0
M  V30 10556 H 1004.67 -1.89411 -3.72174 0
M  V30 10557 N 1005.11 0.71652 -1.4037 0
M  V30 10558 C 1006.35 1.48883 -1.40047 0
M  V30 10559 C 1006.71 1.92 -0.00158027 0
M  V30 10560 O 1007.91 2.68501 0.126765 0
M  V30 10561 C 1006.18 2.68265 -2.36154 0
M  V30 10562 S 1007.74 3.57684 -2.5418 0
M  V30 10563 H 1004.56 0.509035 -0.496391 0
M  V30 10564 H 1007.16 0.837967 -1.76631 0
M  V30 10565 H 1005.87 2.34759 -3.36625 0
M  V30 10566 H 1005.4 3.38264 -2.0085 0
M  V30 10567 H 1007.41 4.62653 -1.79352 0
M  V30 10568 N 1006.59 1.25851 0.948643 0
M  V30 10569 C 1007.82 1.13546 1.726 0
M  V30 10570 C 1008.22 -0.312857 1.86595 0
M  V30 10571 O 1007.57 -1.22657 1.36751 0
M  V30 10572 C 1007.63 1.72315 3.15512 0
M  V30 10573 C 1007.29 3.2136 3.24926 0
M  V30 10574 C 1008.29 4.18274 3.08777 0
M  V30 10575 C 1005.98 3.61683 3.48555 0
M  V30 10576 C 1007.97 5.53491 3.16112 0
M  V30 10577 C 1005.66 4.97035 3.55526 0
M  V30 10578 C 1006.65 5.92749 3.3932 0
M  V30 10579 O 1006.34 7.25637 3.45985 0
M  V30 10580 H 1006.07 0.396555 0.547467 0
M  V30 10581 H 1008.63 1.66822 1.19832 0
M  V30 10582 H 1006.86 1.13494 3.6967 0
M  V30 10583 H 1008.55 1.55024 3.7513 0
M  V30 10584 H 1009.31 3.88461 2.90385 0
M  V30 10585 H 1005.19 2.87674 3.60229 0
M  V30 10586 H 1008.74 6.28177 3.0338 0
M  V30 10587 H 1004.63 5.26512 3.73437 0
M  V30 10588 H 1005.4 7.33812 3.62577 0
M  V30 10589 N 1008.06 -1.15214 1.07534 0
M  V30 10590 C 1009.01 -2.22078 0.69168 0
M  V30 10591 C 1010.01 -1.66751 -0.298382 0
M  V30 10592 O 1011.21 -1.7927 -0.161897 0
M  V30 10593 H 1007.59 -0.723347 0.205604 0
M  V30 10594 H 1009.56 -2.51716 1.60256 0
M  V30 10595 C 1008.31 -3.47534 0.107546 0
M  V30 10596 H 1007.63 -3.90429 0.860522 0
M  V30 10597 H 1009.07 -4.23821 -0.123215 0
M  V30 10598 C 1007.53 -3.16583 -1.15226 0
M  V30 10599 O 1008.06 -3.33551 -2.23845 0
M  V30 10600 N 1006.27 -2.70611 -1.05915 0
M  V30 10601 H 1005.81 -2.57004 -0.175198 0
M  V30 10602 H 1005.77 -2.50277 -1.90287 0
M  V30 10603 N 1009.54 -0.859717 -1.32086 0
M  V30 10604 C 1010.95 -0.519529 -1.79326 0
M  V30 10605 C 1011.3 0.96295 -1.70944 0
M  V30 10606 O 1010.43 1.75139 -1.27104 0
M  V30 10607 C 1011.02 -0.936267 -3.25606 0
M  V30 10608 C 1009.58 -0.647899 -3.70782 0
M  V30 10609 C 1008.73 -1.13323 -2.53087 0
M  V30 10610 H 1011.68 -1.04643 -1.19312 0
M  V30 10611 H 1011.7 -0.254714 -3.79646 0
M  V30 10612 H 1011.21 -2.01527 -3.31675 0
M  V30 10613 H 1009.32 0.420172 -3.70223 0
M  V30 10614 H 1009.43 -1.21774 -4.63366 0
M  V30 10615 H 1007.79 -0.553325 -2.48617 0
M  V30 10616 H 1008.58 -2.21945 -2.61907 0
M  V30 10617 N 1011.02 1.44971 -0.618145 0
M  V30 10618 C 1011.95 2.28815 0.132751 0
M  V30 10619 C 1012.97 1.40551 0.821535 0
M  V30 10620 O 1014.15 1.64827 0.685155 0
M  V30 10621 C 1011.25 3.1658 1.20955 0
M  V30 10622 C 1010.43 4.33184 0.605821 0
M  V30 10623 C 1009.49 5.0208 1.57488 0
M  V30 10624 O 1008.51 5.58528 1.09706 0
M  V30 10625 N 1009.71 5.02335 2.9093 0
M  V30 10626 H 1012.48 2.939 -0.58674 0
M  V30 10627 H 1010.04 1.55276 -0.458375 0
M  V30 10628 H 1012.03 3.59535 1.85787 0
M  V30 10629 H 1010.6 2.53333 1.83143 0
M  V30 10630 H 1009.82 3.93581 -0.220827 0
M  V30 10631 H 1011.11 5.08471 0.182883 0
M  V30 10632 H 1010.51 4.57783 3.32342 0
M  V30 10633 H 1009.07 5.49119 3.51157 0
M  V30 10634 N 1012.5 0.357919 1.53482 0
M  V30 10635 C 1013.91 -0.122938 1.86295 0
M  V30 10636 C 1014.26 -1.48803 1.27875 0
M  V30 10637 O 1013.39 -2.07978 0.597828 0
M  V30 10638 C 1013.98 -0.229853 3.38019 0
M  V30 10639 C 1012.54 -0.654955 3.70658 0
M  V30 10640 C 1011.69 0.202539 2.76559 0
M  V30 10641 H 1014.64 0.576997 1.47839 0
M  V30 10642 H 1014.66 -1.05481 3.65587 0
M  V30 10643 H 1014.17 0.763825 3.80509 0
M  V30 10644 H 1012.27 -1.65714 3.33721 0
M  V30 10645 H 1012.38 -0.43488 4.77122 0
M  V30 10646 H 1010.75 -0.327388 2.52587 0
M  V30 10647 H 1011.53 1.19361 3.21882 0
M  V30 10648 N 1013.98 -1.5736 0.0868897 0
M  V30 10649 C 1014.89 -2.17087 -0.889402 0
M  V30 10650 C 1015.9 -1.13809 -1.31619 0
M  V30 10651 O 1017.08 -1.46143 -1.38579 0
M  V30 10652 C 1014.14 -2.73286 -2.13344 0
M  V30 10653 C 1013.2 -3.91491 -1.76164 0
M  V30 10654 C 1012.44 -4.45 -2.94637 0
M  V30 10655 O 1012.66 -3.97467 -4.09116 0
M  V30 10656 O 1011.59 -5.36133 -2.73579 0
M  V30 10657 H 1015.42 -3.00902 -0.411275 0
M  V30 10658 H 1013.01 -1.4877 -0.137015 0
M  V30 10659 H 1014.89 -3.0924 -2.86266 0
M  V30 10660 H 1013.56 -1.92521 -2.60225 0
M  V30 10661 H 1012.47 -3.60363 -1.00447 0
M  V30 10662 H 1013.8 -4.73593 -1.34053 0
M  V30 10663 N 1015.45 0.186762 -1.56489 0
M  V30 10664 C 1016.68 0.921832 -1.85229 0
M  V30 10665 C 1017.1 1.76496 -0.670416 0
M  V30 10666 O 1016.45 1.78899 0.360758 0
M  V30 10667 C 1016.51 1.81121 -3.12854 0
M  V30 10668 O 1016.23 1.00211 -4.26485 0
M  V30 10669 C 1017.73 2.65725 -3.54831 0
M  V30 10670 H 1014.95 0.268563 -0.61491 0
M  V30 10671 H 1017.49 0.191505 -2.03601 0
M  V30 10672 H 1015.65 2.49506 -2.96354 0
M  V30 10673 H 1016.06 1.60893 -4.99213 0
M  V30 10674 H 1017.53 3.23771 -4.47075 0
M  V30 10675 H 1018.01 3.39843 -2.78215 0
M  V30 10676 H 1018.62 2.02698 -3.7389 0
M  V30 10677 N 1016.93 1.50896 0.454776 0
M  V30 10678 C 1018.18 1.61936 1.20248 0
M  V30 10679 C 1018.49 0.332983 1.92745 0
M  V30 10680 O 1019.7 0.322512 2.69578 0
M  V30 10681 C 1018.16 2.85916 2.18587 0
M  V30 10682 C 1017.76 4.21492 1.51818 0
M  V30 10683 C 1019.51 3.06307 2.93898 0
M  V30 10684 C 1017.42 5.3664 2.48539 0
M  V30 10685 H 1016.35 0.603098 0.452536 0
M  V30 10686 H 1019 1.77345 0.471257 0
M  V30 10687 H 1017.38 2.64101 2.95071 0
M  V30 10688 H 1018.55 4.53623 0.810123 0
M  V30 10689 H 1016.87 4.06837 0.887265 0
M  V30 10690 H 1019.46 3.89507 3.66317 0
M  V30 10691 H 1019.81 2.18683 3.54236 0
M  V30 10692 H 1020.34 3.2838 2.24525 0
M  V30 10693 H 1017.08 6.26469 1.92916 0
M  V30 10694 H 1016.6 5.08907 3.17449 0
M  V30 10695 H 1018.28 5.67881 3.10033 0
M  V30 10696 N 1018.41 -0.709066 1.40748 0
M  V30 10697 C 1019.34 -1.83583 1.4429 0
M  V30 10698 C 1020.32 -1.67378 0.303067 0
M  V30 10699 O 1021.51 -1.87312 0.512612 0
M  V30 10700 C 1018.64 -3.21599 1.31116 0
M  V30 10701 C 1017.59 -3.52486 2.4277 0
M  V30 10702 C 1016.92 -4.89716 2.14668 0
M  V30 10703 C 1018.22 -3.52824 3.85113 0
M  V30 10704 H 1019.91 -1.80876 2.38588 0
M  V30 10705 H 1017.46 -0.868795 1.14839 0
M  V30 10706 H 1019.41 -4.00123 1.32209 0
M  V30 10707 H 1018.13 -3.24898 0.332965 0
M  V30 10708 H 1016.79 -2.76305 2.40937 0
M  V30 10709 H 1016.44 -4.89625 1.15224 0
M  V30 10710 H 1016.14 -5.11347 2.89478 0
M  V30 10711 H 1017.66 -5.70566 2.17455 0
M  V30 10712 H 1019.08 -4.21377 3.88734 0
M  V30 10713 H 1017.48 -3.85984 4.59496 0
M  V30 10714 H 1018.55 -2.52073 4.14231 0
M  V30 10715 N 1019.89 -1.26353 -0.941956 0
M  V30 10716 C 1021.14 -1.11851 -1.68806 0
M  V30 10717 C 1021.46 0.33829 -1.91535 0
M  V30 10718 O 1020.72 1.26495 -1.49324 0
M  V30 10719 C 1021.02 -1.83195 -3.06879 0
M  V30 10720 C 1020.68 -3.33093 -3.03908 0
M  V30 10721 C 1019.35 -3.73982 -3.02805 0
M  V30 10722 C 1021.7 -4.28803 -2.96273 0
M  V30 10723 C 1019.03 -5.08971 -2.91832 0
M  V30 10724 C 1021.38 -5.6383 -2.86842 0
M  V30 10725 C 1020.04 -6.04032 -2.84081 0
M  V30 10726 H 1019.31 -0.409293 -0.617706 0
M  V30 10727 H 1021.96 -1.56785 -1.09957 0
M  V30 10728 H 1020.26 -1.30728 -3.69347 0
M  V30 10729 H 1021.96 -1.69416 -3.63455 0
M  V30 10730 H 1018.55 -3.00566 -3.05546 0
M  V30 10731 H 1022.74 -3.98195 -2.96234 0
M  V30 10732 H 1017.99 -5.39282 -2.88072 0
M  V30 10733 H 1022.17 -6.37676 -2.79898 0
M  V30 10734 H 1019.79 -7.08586 -2.75335 0
M  V30 10735 N 1021.37 1.14642 -1.08144 0
M  V30 10736 C 1022.61 1.87277 -0.818953 0
M  V30 10737 C 1022.97 1.80896 0.643482 0
M  V30 10738 O 1024.17 2.4864 1.02135 0
M  V30 10739 C 1022.44 3.32006 -1.32314 0
M  V30 10740 S 1024 4.22284 -1.19256 0
M  V30 10741 H 1020.82 0.646204 -0.29655 0
M  V30 10742 H 1023.42 1.38261 -1.38217 0
M  V30 10743 H 1022.13 3.34197 -2.38203 0
M  V30 10744 H 1021.66 3.86078 -0.75548 0
M  V30 10745 H 1023.67 4.96016 -0.135143 0
M  V30 10746 N 1022.85 0.866709 1.31628 0
M  V30 10747 C 1024.09 0.472185 1.96095 0
M  V30 10748 C 1024.41 -0.979873 1.69286 0
M  V30 10749 O 1025.61 -1.48039 2.27589 0
M  V30 10750 C 1024.07 0.793468 3.51044 0
M  V30 10751 C 1023.68 2.26206 3.86697 0
M  V30 10752 C 1025.42 0.467255 4.21921 0
M  V30 10753 C 1023.33 2.52593 5.34743 0
M  V30 10754 H 1022.26 0.172846 0.733921 0
M  V30 10755 H 1024.91 1.05916 1.49847 0
M  V30 10756 H 1023.29 0.135783 3.95767 0
M  V30 10757 H 1024.47 2.96254 3.52945 0
M  V30 10758 H 1022.78 2.55399 3.28877 0
M  V30 10759 H 1025.38 0.641669 5.30836 0
M  V30 10760 H 1025.72 -0.592065 4.12068 0
M  V30 10761 H 1026.25 1.08134 3.82821 0
M  V30 10762 H 1022.99 3.57196 5.49628 0
M  V30 10763 H 1022.51 1.87136 5.6986 0
M  V30 10764 H 1024.19 2.37156 6.01968 0
M  V30 10765 N 1024.32 -1.44642 0.625825 0
M  V30 10766 C 1025.55 -2.06971 0.133373 0
M  V30 10767 C 1025.97 -1.46421 -1.18078 0
M  V30 10768 O 1025.33 -0.563676 -1.72315 0
M  V30 10769 C 1025.38 -3.6059 0.0265097 0
M  V30 10770 O 1024.48 -3.99615 -1.01889 0
M  V30 10771 H 1023.82 -0.658873 0.0823568 0
M  V30 10772 H 1026.35 -1.85601 0.861002 0
M  V30 10773 H 1026.36 -4.07663 -0.1658 0
M  V30 10774 H 1025.04 -4.04043 0.985986 0
M  V30 10775 H 1023.62 -3.64183 -0.801577 0
M  V30 10776 N 1025.8 -0.366053 -1.5329 0
M  V30 10777 C 1027.03 0.226839 -2.06156 0
M  V30 10778 C 1027.45 1.41637 -1.23776 0
M  V30 10779 O 1026.81 1.7947 -0.256948 0
M  V30 10780 C 1026.86 0.597956 -3.55608 0
M  V30 10781 O 1025.96 1.69512 -3.75951 0
M  V30 10782 H 1025.3 0.0329156 -0.663184 0
M  V30 10783 H 1027.83 -0.526793 -1.97702 0
M  V30 10784 H 1027.84 0.868831 -3.98642 0
M  V30 10785 H 1026.52 -0.271838 -4.15011 0
M  V30 10786 H 1025.09 1.41976 -3.44815 0
M  V30 10787 N 1027.28 1.57312 -0.0952337 0
M  V30 10788 C 1028.53 1.94358 0.568442 0
M  V30 10789 C 1028.85 0.97698 1.68182 0
M  V30 10790 O 1028.11 -0.00340398 1.957 0
M  V30 10791 C 1028.41 3.37937 1.16332 0
M  V30 10792 C 1028.07 4.50565 0.173715 0
M  V30 10793 C 1026.74 4.81099 -0.0984673 0
M  V30 10794 C 1029.09 5.18777 -0.501992 0
M  V30 10795 C 1026.42 5.77172 -1.05305 0
M  V30 10796 C 1028.77 6.15874 -1.44505 0
M  V30 10797 C 1027.43 6.44813 -1.72546 0
M  V30 10798 H 1026.7 0.711206 0.208007 0
M  V30 10799 H 1029.35 1.90734 -0.171096 0
M  V30 10800 H 1027.65 3.3814 1.97911 0
M  V30 10801 H 1029.35 3.63902 1.68453 0
M  V30 10802 H 1025.94 4.26766 0.396042 0
M  V30 10803 H 1030.13 4.95363 -0.304855 0
M  V30 10804 H 1025.38 5.97909 -1.2773 0
M  V30 10805 H 1029.56 6.67824 -1.97444 0
M  V30 10806 H 1027.18 7.19067 -2.46671 0
M  V30 10807 N 1028.76 -0.17846 1.56586 0
M  V30 10808 C 1029.71 -1.22552 1.92263 0
M  V30 10809 C 1030.69 -1.40163 0.790131 0
M  V30 10810 O 1031.88 -1.42254 1.05322 0
M  V30 10811 C 1029.01 -2.5666 2.27993 0
M  V30 10812 C 1028.1 -2.42772 3.47739 0
M  V30 10813 N 1028.49 -1.98588 4.65185 0
M  V30 10814 C 1026.79 -2.73619 3.52205 0
M  V30 10815 C 1027.49 -1.96991 5.47329 0
M  V30 10816 N 1026.46 -2.39126 4.8818 0
M  V30 10817 H 1030.27 -0.875493 2.80557 0
M  V30 10818 H 1027.78 -0.386785 1.57727 0
M  V30 10819 H 1029.78 -3.32312 2.51743 0
M  V30 10820 H 1028.44 -2.92472 1.41034 0
M  V30 10821 H 1029.45 -1.69036 4.89538 0
M  V30 10822 H 1026.13 -3.13516 2.75706 0
M  V30 10823 H 1027.52 -1.64589 6.51429 0
M  V30 10824 N 1030.24 -1.51135 -0.446768 0
M  V30 10825 C 1031.46 -1.67411 -1.22427 0
M  V30 10826 C 1031.89 -0.367009 -1.84485 0
M  V30 10827 O 1031.24 0.67185 -1.68392 0
M  V30 10828 C 1031.29 -2.78473 -2.29096 0
M  V30 10829 O 1030.4 -2.41419 -3.34351 0
M  V30 10830 H 1029.74 -0.558512 -0.359111 0
M  V30 10831 H 1032.27 -1.97648 -0.5288 0
M  V30 10832 H 1032.28 -3.02277 -2.7403 0
M  V30 10833 H 1030.95 -3.73326 -1.83304 0
M  V30 10834 H 1029.53 -2.28152 -2.9496 0
M  V30 10835 N 1031.71 0.701592 -1.41122 0
M  V30 10836 C 1032.95 1.4739 -1.41618 0
M  V30 10837 C 1033.32 1.91987 -0.0219443 0
M  V30 10838 O 1034.52 2.6862 0.0982793 0
M  V30 10839 C 1032.79 2.65745 -2.38986 0
M  V30 10840 S 1034.35 3.54968 -2.5796 0
M  V30 10841 H 1031.17 0.503742 -0.501762 0
M  V30 10842 H 1033.77 0.819186 -1.77509 0
M  V30 10843 H 1032.47 2.31176 -3.39096 0
M  V30 10844 H 1032 3.36115 -2.04426 0
M  V30 10845 H 1034.02 4.60724 -1.84249 0
M  V30 10846 N 1033.19 1.2685 0.935242 0
M  V30 10847 C 1034.14 1.08923 2.03481 0
M  V30 10848 C 1035.11 -0.00749786 1.66098 0
M  V30 10849 O 1036.29 0.153401 1.90182 0
M  V30 10850 C 1033.43 0.734529 3.37192 0
M  V30 10851 C 1032.55 1.90812 3.87576 0
M  V30 10852 C 1031.68 1.49599 5.097 0
M  V30 10853 C 1030.72 2.63752 5.5236 0
M  V30 10854 N 1029.86 2.23179 6.65684 0
M  V30 10855 H 1034.7 2.03016 2.18148 0
M  V30 10856 H 1032.23 1.01072 1.06878 0
M  V30 10857 H 1034.19 0.509734 4.14074 0
M  V30 10858 H 1032.82 -0.169438 3.22355 0
M  V30 10859 H 1031.87 2.24567 3.0704 0
M  V30 10860 H 1033.19 2.7647 4.1517 0
M  V30 10861 H 1032.34 1.23199 5.9406 0
M  V30 10862 H 1031.08 0.61039 4.83865 0
M  V30 10863 H 1030.08 2.90874 4.66554 0
M  V30 10864 H 1031.31 3.5292 5.80193 0
M  V30 10865 H 1029.26 1.37061 6.41522 0
M  V30 10866 H 1029.17 3.02379 6.92895 0
M  V30 10867 H 1030.44 2.00007 7.53404 0
M  V30 10868 N 1034.67 -1.14067 1.0875 0
M  V30 10869 C 1035.58 -2.22871 0.732498 0
M  V30 10870 C 1036.6 -1.72008 -0.26253 0
M  V30 10871 O 1037.77 -2.01123 -0.105601 0
M  V30 10872 C 1034.84 -3.46371 0.150913 0
M  V30 10873 C 1033.9 -4.12158 1.201 0
M  V30 10874 C 1033.13 -5.29763 0.647075 0
M  V30 10875 O 1033.35 -5.67911 -0.532307 0
M  V30 10876 O 1032.29 -5.8542 1.3988 0
M  V30 10877 H 1036.11 -2.55596 1.64025 0
M  V30 10878 H 1033.7 -1.22065 0.861417 0
M  V30 10879 H 1035.58 -4.21055 -0.170442 0
M  V30 10880 H 1034.26 -3.15362 -0.729948 0
M  V30 10881 H 1033.16 -3.39332 1.57494 0
M  V30 10882 H 1034.5 -4.47282 2.05426 0
M  V30 10883 N 1036.15 -0.873678 -1.31166 0
M  V30 10884 C 1037.38 -0.501043 -2.00742 0
M  V30 10885 C 1037.79 0.907477 -1.65561 0
M  V30 10886 O 1037.15 1.59507 -0.886771 0
M  V30 10887 C 1037.2 -0.652877 -3.55556 0
M  V30 10888 O 1036.92 -2.00593 -3.89479 0
M  V30 10889 C 1038.42 -0.281742 -4.42404 0
M  V30 10890 H 1035.64 -0.194829 -0.642092 0
M  V30 10891 H 1038.19 -1.17587 -1.67313 0
M  V30 10892 H 1036.34 -0.0255627 -3.87392 0
M  V30 10893 H 1036.75 -2.01638 -4.84193 0
M  V30 10894 H 1038.23 -0.43892 -5.50252 0
M  V30 10895 H 1038.71 0.779389 -4.32229 0
M  V30 10896 H 1039.31 -0.88491 -4.15992 0
M  V30 10897 N 1037.63 1.44308 -0.633487 0
M  V30 10898 C 1038.85 2.06897 -0.144347 0
M  V30 10899 C 1039.28 1.47045 1.173 0
M  V30 10900 O 1038.63 0.572806 1.72013 0
M  V30 10901 C 1038.68 3.60571 -0.0456324 0
M  V30 10902 O 1037.79 4.0015 0.997682 0
M  V30 10903 H 1037.13 0.658427 -0.0858499 0
M  V30 10904 H 1039.66 1.85142 -0.870833 0
M  V30 10905 H 1039.67 4.07745 0.144178 0
M  V30 10906 H 1038.34 4.03515 -1.0074 0
M  V30 10907 H 1036.92 3.64603 0.782252 0
M  V30 10908 N 1039.1 0.374177 1.53094 0
M  V30 10909 C 1040.33 -0.215903 2.06273 0
M  V30 10910 C 1040.75 -1.40979 1.24526 0
M  V30 10911 O 1040.11 -1.79331 0.266462 0
M  V30 10912 C 1040.16 -0.579089 3.5592 0
M  V30 10913 O 1039.26 -1.67516 3.76845 0
M  V30 10914 H 1038.61 -0.0293981 0.663349 0
M  V30 10915 H 1041.14 0.537271 1.9742 0
M  V30 10916 H 1041.15 -0.847678 3.99097 0
M  V30 10917 H 1039.82 0.293843 4.14861 0
M  V30 10918 H 1038.4 -1.40146 3.45563 0
M  V30 10919 N 1040.58 -1.57259 0.103575 0
M  V30 10920 C 1041.81 -1.99424 -0.569638 0
M  V30 10921 C 1042.23 -0.982475 -1.60403 0
M  V30 10922 O 1041.59 0.0479231 -1.81237 0
M  V30 10923 C 1041.64 -3.40527 -1.18633 0
M  V30 10924 O 1040.74 -3.42167 -2.30208 0
M  V30 10925 H 1040.08 -0.648251 -0.143759 0
M  V30 10926 H 1042.61 -2.03739 0.187493 0
M  V30 10927 H 1042.62 -3.78404 -1.5256 0
M  V30 10928 H 1041.3 -4.13686 -0.428582 0
M  V30 10929 H 1039.88 -3.16093 -1.97837 0
M  V30 10930 N 1042.06 0.170153 -1.56679 0
M  V30 10931 C 1043.01 1.21064 -1.965 0
M  V30 10932 C 1043.98 1.43928 -0.829092 0
M  V30 10933 O 1045.16 1.56649 -1.08931 0
M  V30 10934 C 1042.3 2.54468 -2.33109 0
M  V30 10935 C 1041.42 2.38974 -3.59883 0
M  V30 10936 C 1040.55 3.65252 -3.857 0
M  V30 10937 C 1039.59 3.44696 -5.05817 0
M  V30 10938 N 1038.73 4.63047 -5.27761 0
M  V30 10939 H 1043.57 0.864055 -2.85198 0
M  V30 10940 H 1041.1 0.415243 -1.41117 0
M  V30 10941 H 1043.06 3.32222 -2.52358 0
M  V30 10942 H 1041.69 2.8712 -1.4752 0
M  V30 10943 H 1040.74 1.5239 -3.48542 0
M  V30 10944 H 1042.06 2.19731 -4.47794 0
M  V30 10945 H 1041.21 4.51441 -4.05322 0
M  V30 10946 H 1039.95 3.87475 -2.96166 0
M  V30 10947 H 1038.95 2.56893 -4.86092 0
M  V30 10948 H 1040.18 3.23894 -5.96883 0
M  V30 10949 H 1038.12 4.85487 -4.41179 0
M  V30 10950 H 1038.04 4.46722 -6.09898 0
M  V30 10951 H 1039.31 5.50516 -5.51863 0
M  V30 10952 N 1043.54 1.5137 0.438746 0
M  V30 10953 C 1044.79 1.63969 1.1883 0
M  V30 10954 C 1045.11 0.355245 1.91228 0
M  V30 10955 O 1044.37 -0.660605 1.84213 0
M  V30 10956 C 1044.67 2.79221 2.23093 0
M  V30 10957 C 1044.33 4.18547 1.67717 0
M  V30 10958 C 1043 4.5645 1.52337 0
M  V30 10959 C 1045.35 5.05494 1.26986 0
M  V30 10960 C 1042.68 5.79007 0.946996 0
M  V30 10961 C 1045.03 6.28628 0.707785 0
M  V30 10962 C 1043.69 6.65305 0.540881 0
M  V30 10963 H 1042.96 0.600003 0.43483 0
M  V30 10964 H 1045.61 1.85398 0.479565 0
M  V30 10965 H 1043.91 2.52008 2.99999 0
M  V30 10966 H 1045.61 2.86168 2.80907 0
M  V30 10967 H 1042.2 3.88663 1.80663 0
M  V30 10968 H 1046.38 4.76818 1.37689 0
M  V30 10969 H 1041.64 6.06072 0.805432 0
M  V30 10970 H 1045.81 6.95342 0.38366 0
M  V30 10971 H 1043.44 7.60144 0.0921324 0
M  V30 10972 N 1045.02 -0.694098 1.41492 0
M  V30 10973 C 1045.98 -1.78976 1.43179 0
M  V30 10974 C 1046.98 -1.57539 0.322191 0
M  V30 10975 O 1048.17 -1.64185 0.582138 0
M  V30 10976 C 1045.3 -3.17368 1.2446 0
M  V30 10977 H 1046.49 -1.78874 2.40716 0
M  V30 10978 H 1044.05 -0.901867 1.27656 0
M  V30 10979 H 1044.78 -3.23109 0.277691 0
M  V30 10980 H 1044.57 -3.3433 2.04856 0
M  V30 10981 H 1046.06 -3.97345 1.28479 0
M  V30 10982 N 1046.49 -1.27344 -0.928501 0
M  V30 10983 C 1047.44 -1.10001 -2.029 0
M  V30 10984 C 1048.41 -0.00131084 -1.661 0
M  V30 10985 O 1049.6 -0.163485 -1.90098 0
M  V30 10986 C 1046.74 -0.7524 -3.36798 0
M  V30 10987 C 1045.85 -1.92865 -3.86558 0
M  V30 10988 C 1044.98 -1.52299 -5.08899 0
M  V30 10989 C 1044.02 -2.66677 -5.50953 0
M  V30 10990 N 1043.16 -2.26706 -6.64491 0
M  V30 10991 H 1048 -2.0417 -2.17068 0
M  V30 10992 H 1045.54 -1.01637 -1.0634 0
M  V30 10993 H 1047.5 -0.531687 -4.13798 0
M  V30 10994 H 1046.13 0.15234 -3.2244 0
M  V30 10995 H 1045.18 -2.26192 -3.05845 0
M  V30 10996 H 1046.49 -2.78668 -4.13698 0
M  V30 10997 H 1045.64 -1.26348 -5.93398 0
M  V30 10998 H 1044.38 -0.636042 -4.83535 0
M  V30 10999 H 1043.39 -2.93344 -4.65004 0
M  V30 11000 H 1044.61 -3.55992 -5.78313 0
M  V30 11001 H 1042.56 -1.40462 -6.40786 0
M  V30 11002 H 1042.48 -3.06049 -6.91281 0
M  V30 11003 H 1043.74 -2.04 -7.52333 0
M  V30 11004 N 1047.97 1.13488 -1.09353 0
M  V30 11005 C 1048.94 2.17066 -0.735863 0
M  V30 11006 C 1049.94 1.59086 0.234181 0
M  V30 11007 O 1051.13 1.74196 0.012463 0
M  V30 11008 C 1048.26 3.40786 -0.0880975 0
M  V30 11009 H 1049.45 2.50221 -1.65316 0
M  V30 11010 H 1047 1.28304 -0.89263 0
M  V30 11011 H 1047.74 3.1322 0.840462 0
M  V30 11012 H 1047.52 3.8414 -0.786073 0
M  V30 11013 H 1049.01 4.17342 0.146775 0
M  V30 11014 N 1049.45 0.880621 1.30701 0
M  V30 11015 C 1050.7 0.497611 1.966 0
M  V30 11016 C 1051.03 -0.949901 1.69383 0
M  V30 11017 O 1050.31 -1.67054 0.996152 0
M  V30 11018 C 1050.59 0.767919 3.51817 0
M  V30 11019 C 1050.44 2.26574 3.88567 0
M  V30 11020 C 1051.76 0.241502 4.39437 0
M  V30 11021 H 1048.88 0.182267 0.714106 0
M  V30 11022 H 1051.52 1.10382 1.54648 0
M  V30 11023 H 1049.67 0.251967 3.87682 0
M  V30 11024 H 1051.34 2.84977 3.62748 0
M  V30 11025 H 1049.59 2.73411 3.36792 0
M  V30 11026 H 1050.26 2.40549 4.9683 0
M  V30 11027 H 1052.73 0.683051 4.10455 0
M  V30 11028 H 1051.61 0.459997 5.46969 0
M  V30 11029 H 1051.87 -0.857068 4.33713 0
M  V30 11030 N 1050.93 -1.4397 0.641131 0
M  V30 11031 C 1051.84 -2.34526 -0.058742 0
M  V30 11032 C 1052.86 -1.53194 -0.825088 0
M  V30 11033 O 1054.03 -1.85888 -0.775081 0
M  V30 11034 C 1051.1 -3.31313 -1.02139 0
M  V30 11035 C 1050.16 -4.28552 -0.253319 0
M  V30 11036 C 1049.39 -5.20715 -1.17012 0
M  V30 11037 O 1049.61 -5.17028 -2.40911 0
M  V30 11038 O 1048.55 -5.9839 -0.649039 0
M  V30 11039 H 1052.37 -2.95843 0.686329 0
M  V30 11040 H 1049.96 -1.43909 0.401316 0
M  V30 11041 H 1051.84 -3.90862 -1.57496 0
M  V30 11042 H 1050.52 -2.72516 -1.7469 0
M  V30 11043 H 1049.42 -3.72519 0.343531 0
M  V30 11044 H 1050.76 -4.90297 0.432372 0
M  V30 11045 N 1052.41 -0.382291 -1.52893 0
M  V30 11046 C 1053.32 0.463745 -2.29971 0
M  V30 11047 C 1054.33 1.07777 -1.36602 0
M  V30 11048 O 1055.51 1.0851 -1.69669 0
M  V30 11049 C 1052.57 1.57938 -3.08637 0
M  V30 11050 C 1051.64 0.991182 -4.17701 0
M  V30 11051 C 1050.87 2.05365 -4.92606 0
M  V30 11052 O 1051.09 3.26757 -4.67532 0
M  V30 11053 O 1050.03 1.67487 -5.78128 0
M  V30 11054 H 1053.85 -0.163962 -3.03257 0
M  V30 11055 H 1051.44 -0.146199 -1.48683 0
M  V30 11056 H 1053.32 2.22765 -3.57706 0
M  V30 11057 H 1051.99 2.19218 -2.3817 0
M  V30 11058 H 1050.9 0.306364 -3.72843 0
M  V30 11059 H 1052.23 0.422699 -4.90382 0
M  V30 11060 N 1053.89 1.57202 -0.111913 0
M  V30 11061 C 1055.11 1.99723 0.559054 0
M  V30 11062 C 1055.54 0.990968 1.59879 0
M  V30 11063 O 1054.89 -0.038311 1.8126 0
M  V30 11064 C 1054.94 3.41151 1.16826 0
M  V30 11065 O 1054.05 3.43383 2.2839 0
M  V30 11066 H 1053.39 0.649004 0.140319 0
M  V30 11067 H 1055.92 2.03637 -0.198295 0
M  V30 11068 H 1055.93 3.79208 1.50551 0
M  V30 11069 H 1054.6 4.13907 0.406637 0
M  V30 11070 H 1053.18 3.17138 1.96158 0
M  V30 11071 N 1055.36 -0.161842 1.56767 0
M  V30 11072 C 1056.29 -1.20226 2.0017 0
M  V30 11073 C 1057.27 -1.4564 0.878807 0
M  V30 11074 O 1058.46 -1.56813 1.14557 0
M  V30 11075 C 1055.59 -2.53897 2.36968 0
M  V30 11076 C 1054.54 -2.43033 3.52305 0
M  V30 11077 C 1053.87 -3.81281 3.74872 0
M  V30 11078 C 1055.17 -1.927 4.85453 0
M  V30 11079 H 1056.86 -0.84142 2.87333 0
M  V30 11080 H 1054.41 -0.403309 1.38237 0
M  V30 11081 H 1056.36 -3.26893 2.6593 0
M  V30 11082 H 1055.09 -2.91787 1.46724 0
M  V30 11083 H 1053.75 -1.7249 3.23485 0
M  V30 11084 H 1053.39 -4.1658 2.81904 0
M  V30 11085 H 1053.09 -3.74877 4.52483 0
M  V30 11086 H 1054.62 -4.55848 4.06245 0
M  V30 11087 H 1056.03 -2.55477 5.13229 0
M  V30 11088 H 1054.43 -1.97222 5.66766 0
M  V30 11089 H 1055.5 -0.881816 4.76814 0
M  V30 11090 N 1056.84 -1.516 -0.430713 0
M  V30 11091 C 1058.09 -1.63829 -1.17657 0
M  V30 11092 C 1058.4 -0.363605 -1.92191 0
M  V30 11093 O 1059.61 -0.365358 -2.6903 0
M  V30 11094 C 1058.07 -2.89357 -2.14011 0
M  V30 11095 C 1057.67 -4.23854 -1.45094 0
M  V30 11096 C 1059.42 -3.10944 -2.88988 0
M  V30 11097 C 1057.32 -5.40526 -2.3997 0
M  V30 11098 H 1056.25 -0.610221 -0.442884 0
M  V30 11099 H 1058.91 -1.78073 -0.442984 0
M  V30 11100 H 1057.29 -2.68762 -2.90832 0
M  V30 11101 H 1058.46 -4.54854 -0.737853 0
M  V30 11102 H 1056.78 -4.08197 -0.822429 0
M  V30 11103 H 1059.37 -3.95286 -3.60074 0
M  V30 11104 H 1059.72 -2.24291 -3.50712 0
M  V30 11105 H 1060.25 -3.3191 -2.19272 0
M  V30 11106 H 1056.99 -6.29459 -1.82925 0
M  V30 11107 H 1056.51 -5.13893 -3.09313 0
M  V30 11108 H 1058.19 -5.72741 -3.00959 0
M  V30 11109 N 1058.32 0.686584 -1.41858 0
M  V30 11110 C 1059.6 1.44176 -1.32185 0
M  V30 11111 C 1059.98 2.11049 0.046362 0
M  V30 11112 O 1059.32 2.02365 1.06117 0
M  V30 11113 C 1059.53 2.45385 -2.48168 0
M  V30 11114 C 1060.88 3.10375 -2.89746 0
M  V30 11115 O 1061.91 2.55711 -2.47973 0
M  V30 11116 O 1060.77 4.09404 -3.62009 0
M  V30 11117 H 1057.86 0.642513 -0.520678 0
M  V30 11118 H 1060.41 0.716303 -1.53841 0
M  V30 11119 H 1059.18 1.94687 -3.3943 0
M  V30 11120 H 1058.8 3.25428 -2.28435 0
M  V30 11121 N 1059.8 1.27835 0.921735 0
M  V30 11122 C 1060.73 1.05397 2.02402 0
M  V30 11123 C 1061.71 -0.0274904 1.62577 0
M  V30 11124 O 1062.89 0.11885 1.88125 0
M  V30 11125 C 1060.02 0.600016 3.33343 0
M  V30 11126 C 1059.07 1.67693 3.9215 0
M  V30 11127 S 1059.9 3.27093 4.23994 0
M  V30 11128 C 1061.05 2.83513 5.58006 0
M  V30 11129 H 1061.29 1.98723 2.21125 0
M  V30 11130 H 1058.82 1.11733 1.0656 0
M  V30 11131 H 1060.78 0.344793 4.09049 0
M  V30 11132 H 1059.44 -0.313288 3.12534 0
M  V30 11133 H 1058.63 1.31074 4.86658 0
M  V30 11134 H 1058.23 1.88454 3.2305 0
M  V30 11135 H 1060.53 2.29187 6.37557 0
M  V30 11136 H 1061.47 3.76788 5.9953 0
M  V30 11137 H 1061.88 2.22472 5.18813 0
M  V30 11138 N 1061.28 -1.12907 1.09954 0
M  V30 11139 C 1062.69 -1.363 0.830326 0
M  V30 11140 C 1062.89 -1.93772 -0.552694 0
M  V30 11141 O 1061.95 -2.1607 -1.30652 0
M  V30 11142 C 1063.26 -2.30925 1.92598 0
M  V30 11143 C 1064.81 -2.44528 1.95385 0
M  V30 11144 C 1065.28 -3.42464 3.0411 0
M  V30 11145 N 1066.77 -3.50018 3.03384 0
M  V30 11146 C 1067.51 -4.25693 3.84152 0
M  V30 11147 N 1067.01 -5.04476 4.74843 0
M  V30 11148 N 1068.8 -4.21049 3.7239 0
M  V30 11149 H 1060.95 -0.739571 1.99108 0
M  V30 11150 H 1063.21 -0.387983 0.86497 0
M  V30 11151 H 1062.92 -1.95861 2.92115 0
M  V30 11152 H 1062.79 -3.30997 1.80889 0
M  V30 11153 H 1065.18 -2.78875 0.965037 0
M  V30 11154 H 1065.26 -1.44361 2.11172 0
M  V30 11155 H 1064.9 -3.08847 4.03207 0
M  V30 11156 H 1064.83 -4.42448 2.85565 0
M  V30 11157 H 1067.33 -2.93809 2.37665 0
M  V30 11158 H 1067.64 -5.59541 5.33042 0
M  V30 11159 H 1065.98 -5.0369 4.78875 0
M  V30 11160 H 1069.17 -3.5858 3.00895 0
M  V30 11161 H 1069.35 -4.79771 4.35572 0
M  V30 11162 N 1062.75 -0.88754 -1.30232 0
M  V30 11163 C 1064.03 -0.427249 -1.90877 0
M  V30 11164 C 1064.41 1.0922 -1.80649 0
M  V30 11165 O 1063.76 1.92866 -1.22536 0
M  V30 11166 C 1063.97 -0.928219 -3.3643 0
M  V30 11167 C 1065.32 -0.964706 -4.13496 0
M  V30 11168 O 1066.34 -0.875057 -3.45284 0
M  V30 11169 O 1065.2 -1.09754 -5.35366 0
M  V30 11170 H 1062.29 -0.131107 -0.816541 0
M  V30 11171 H 1064.84 -0.976609 -1.38782 0
M  V30 11172 H 1063.61 -1.97209 -3.37971 0
M  V30 11173 H 1063.23 -0.358169 -3.95983 0
M  V30 11174 N 1064.23 1.43628 -0.648757 0
M  V30 11175 C 1065.16 2.33478 0.0320785 0
M  V30 11176 C 1066.14 1.49217 0.816605 0
M  V30 11177 O 1067.33 1.77892 0.778974 0
M  V30 11178 C 1064.46 3.32525 1.00222 0
M  V30 11179 C 1063.41 4.2674 0.328119 0
M  V30 11180 C 1062.74 5.15791 1.4094 0
M  V30 11181 C 1064.04 5.16493 -0.776701 0
M  V30 11182 H 1065.73 2.90657 -0.718257 0
M  V30 11183 H 1063.28 1.3976 -0.346852 0
M  V30 11184 H 1065.23 3.94277 1.4874 0
M  V30 11185 H 1063.96 2.73593 1.78366 0
M  V30 11186 H 1062.61 3.66346 -0.136569 0
M  V30 11187 H 1062.26 4.53201 2.18216 0
M  V30 11188 H 1061.96 5.79645 0.963631 0
M  V30 11189 H 1063.49 5.80416 1.89603 0
M  V30 11190 H 1064.9 5.7208 -0.373878 0
M  V30 11191 H 1063.3 5.89043 -1.14667 0
M  V30 11192 H 1064.37 4.56448 -1.63654 0
M  V30 11193 N 1065.71 0.390394 1.52688 0
M  V30 11194 C 1066.95 -0.191207 2.03504 0
M  V30 11195 C 1067.31 -1.43952 1.27051 0
M  V30 11196 O 1068.52 -2.09835 1.67996 0
M  V30 11197 C 1066.79 -0.451552 3.54536 0
M  V30 11198 S 1068.35 -1.00328 4.27176 0
M  V30 11199 H 1065.16 -0.0537587 0.708965 0
M  V30 11200 H 1067.77 0.538993 1.87923 0
M  V30 11201 H 1066.47 0.464061 4.07768 0
M  V30 11202 H 1066 -1.21015 3.74325 0
M  V30 11203 H 1068.02 -2.28555 4.40428 0
M  V30 11204 N 1067.19 -1.57141 0.120249 0
M  V30 11205 C 1068.41 -2.00017 -0.548454 0
M  V30 11206 C 1068.84 -0.999433 -1.59352 0
M  V30 11207 O 1068.2 0.0286978 -1.81277 0
M  V30 11208 C 1068.24 -3.41766 -1.15015 0
M  V30 11209 O 1067.35 -3.44589 -2.26566 0
M  V30 11210 H 1066.69 -0.649739 -0.136875 0
M  V30 11211 H 1069.22 -2.03529 0.209092 0
M  V30 11212 H 1069.23 -3.80001 -1.48537 0
M  V30 11213 H 1067.9 -4.14117 -0.384681 0
M  V30 11214 H 1066.48 -3.18174 -1.94473 0
M  V30 11215 N 1068.67 0.153526 -1.5685 0
M  V30 11216 C 1069.6 1.19162 -2.00805 0
M  V30 11217 C 1070.58 1.45172 -0.886518 0
M  V30 11218 O 1071.76 1.56203 -1.15387 0
M  V30 11219 C 1068.89 2.52637 -2.38311 0
M  V30 11220 C 1067.85 2.41161 -3.53589 0
M  V30 11221 C 1067.17 3.79287 -3.76889 0
M  V30 11222 C 1068.47 1.90122 -4.86468 0
M  V30 11223 H 1070.17 0.82617 -2.87776 0
M  V30 11224 H 1067.71 0.395972 -1.38449 0
M  V30 11225 H 1069.67 3.25478 -2.6766 0
M  V30 11226 H 1068.39 2.91005 -1.4827 0
M  V30 11227 H 1067.05 1.70772 -3.24395 0
M  V30 11228 H 1066.7 4.15079 -2.84109 0
M  V30 11229 H 1066.4 3.72472 -4.54465 0
M  V30 11230 H 1067.92 4.53687 -4.08657 0
M  V30 11231 H 1069.33 2.52752 -5.14577 0
M  V30 11232 H 1067.73 1.94214 -5.67804 0
M  V30 11233 H 1068.8 0.856517 -4.77275 0
M  V30 11234 N 1070.14 1.51827 0.422667 0
M  V30 11235 C 1071.07 1.77152 1.52117 0
M  V30 11236 C 1072.06 0.621895 1.58324 0
M  V30 11237 O 1073.24 0.866118 1.73816 0
M  V30 11238 C 1070.37 1.90991 2.90068 0
M  V30 11239 C 1069.32 3.06516 2.98717 0
M  V30 11240 C 1068.65 3.05559 4.38791 0
M  V30 11241 C 1069.95 4.46223 2.71445 0
M  V30 11242 H 1071.64 2.69135 1.31175 0
M  V30 11243 H 1069.19 1.29507 0.629607 0
M  V30 11244 H 1071.14 2.07291 3.6689 0
M  V30 11245 H 1069.87 0.956688 3.12274 0
M  V30 11246 H 1068.53 2.89945 2.24338 0
M  V30 11247 H 1068.17 2.07985 4.57986 0
M  V30 11248 H 1067.87 3.83144 4.45505 0
M  V30 11249 H 1069.4 3.23971 5.17566 0
M  V30 11250 H 1070.81 4.63069 3.37994 0
M  V30 11251 H 1069.21 5.25623 2.89552 0
M  V30 11252 H 1070.28 4.5525 1.6696 0
M  V30 11253 N 1071.62 -0.679052 1.4222 0
M  V30 11254 C 1073.03 -1.25953 1.37815 0
M  V30 11255 C 1073.38 -1.96077 0.0693215 0
M  V30 11256 O 1072.51 -1.99765 -0.832047 0
M  V30 11257 C 1073.1 -2.29063 2.49631 0
M  V30 11258 C 1071.66 -2.82647 2.48571 0
M  V30 11259 C 1070.81 -1.56909 2.28637 0
M  V30 11260 H 1073.76 -0.472714 1.51496 0
M  V30 11261 H 1073.78 -3.10708 2.19638 0
M  V30 11262 H 1073.29 -1.77996 3.44876 0
M  V30 11263 H 1071.4 -3.37846 1.57132 0
M  V30 11264 H 1071.51 -3.31952 3.45463 0
M  V30 11265 H 1069.87 -1.83323 1.76819 0
M  V30 11266 H 1070.66 -1.07814 3.25931 0
M  V30 11267 N 1073.1 -1.28322 -0.914942 0
M  V30 11268 C 1074.51 -1.13937 -1.47903 0
M  V30 11269 C 1074.86 0.271072 -1.94318 0
M  V30 11270 O 1073.99 1.16522 -1.8235 0
M  V30 11271 C 1074.58 -2.06221 -2.68809 0
M  V30 11272 C 1073.14 -1.95903 -3.21402 0
M  V30 11273 C 1072.29 -1.98031 -1.94111 0
M  V30 11274 H 1075.24 -1.41029 -0.727772 0
M  V30 11275 H 1075.26 -1.6255 -3.44031 0
M  V30 11276 H 1074.77 -3.08866 -2.34997 0
M  V30 11277 H 1072.87 -0.962907 -3.59943 0
M  V30 11278 H 1072.99 -2.82799 -3.86732 0
M  V30 11279 H 1071.35 -1.42423 -2.11158 0
M  V30 11280 H 1072.13 -3.02354 -1.62595 0
M  V30 11281 N 1074.58 1.12322 -1.10551 0
M  V30 11282 C 1075.81 1.87679 -0.87087 0
M  V30 11283 C 1076.22 1.79711 0.578733 0
M  V30 11284 O 1075.58 1.17185 1.39907 0
M  V30 11285 C 1075.63 3.36846 -1.31213 0
M  V30 11286 O 1075.35 3.44626 -2.70489 0
M  V30 11287 C 1076.85 4.29138 -1.11156 0
M  V30 11288 H 1074.07 0.593788 -0.3125 0
M  V30 11289 H 1076.62 1.42116 -1.47048 0
M  V30 11290 H 1074.77 3.79948 -0.756169 0
M  V30 11291 H 1075.18 4.37441 -2.89389 0
M  V30 11292 H 1076.66 5.32082 -1.46944 0
M  V30 11293 H 1077.14 4.39171 -0.0502963 0
M  V30 11294 H 1077.74 3.91818 -1.65405 0
M  V30 11295 N 1076.06 0.894434 1.2976 0
M  V30 11296 C 1076.97 0.372622 2.31622 0
M  V30 11297 C 1077.98 -0.52996 1.65733 0
M  V30 11298 O 1079.16 -0.420807 1.96955 0
M  V30 11299 C 1076.22 -0.396076 3.4443 0
M  V30 11300 C 1075.28 0.537394 4.25923 0
M  V30 11301 C 1074.52 -0.194713 5.33345 0
M  V30 11302 O 1074.74 -1.41943 5.52457 0
M  V30 11303 O 1073.67 0.460055 6.00139 0
M  V30 11304 H 1077.5 1.21756 2.78225 0
M  V30 11305 H 1075.09 0.65858 1.34101 0
M  V30 11306 H 1076.97 -0.830962 4.13126 0
M  V30 11307 H 1075.64 -1.21716 2.99945 0
M  V30 11308 H 1074.55 1.02129 3.5989 0
M  V30 11309 H 1075.88 1.32475 4.74037 0
M  V30 11310 N 1077.53 -1.43282 0.656365 0
M  V30 11311 C 1078.76 -2.06641 0.177245 0
M  V30 11312 C 1079.18 -1.48893 -1.14946 0
M  V30 11313 O 1078.54 -0.600099 -1.7108 0
M  V30 11314 C 1078.59 -3.60453 0.10299 0
M  V30 11315 O 1077.69 -4.01687 -0.933895 0
M  V30 11316 H 1077.04 -0.656978 0.096314 0
M  V30 11317 H 1079.57 -1.83733 0.900178 0
M  V30 11318 H 1079.58 -4.07923 -0.079291 0
M  V30 11319 H 1078.25 -4.01861 1.07147 0
M  V30 11320 H 1076.83 -3.65801 -0.724148 0
M  V30 11321 N 1079.01 -0.398486 -1.52479 0
M  V30 11322 C 1079.96 0.432212 -2.26717 0
M  V30 11323 C 1080.93 1.05007 -1.28696 0
M  V30 11324 O 1082.12 1.07636 -1.57541 0
M  V30 11325 C 1079.26 1.54868 -3.08399 0
M  V30 11326 C 1078.37 0.952779 -4.21362 0
M  V30 11327 C 1077.5 2.04106 -4.90423 0
M  V30 11328 C 1076.54 1.42153 -5.95364 0
M  V30 11329 N 1075.68 2.44951 -6.57984 0
M  V30 11330 H 1080.52 -0.207303 -2.97278 0
M  V30 11331 H 1078.06 -0.114066 -1.46657 0
M  V30 11332 H 1080.01 2.20684 -3.54054 0
M  V30 11333 H 1078.64 2.15837 -2.4003 0
M  V30 11334 H 1077.7 0.183962 -3.79955 0
M  V30 11335 H 1079.01 0.460131 -4.96673 0
M  V30 11336 H 1078.16 2.77672 -5.39429 0
M  V30 11337 H 1076.9 2.56733 -4.14656 0
M  V30 11338 H 1075.91 0.671161 -5.45688 0
M  V30 11339 H 1077.13 0.903093 -6.73068 0
M  V30 11340 H 1075.08 2.9673 -5.85053 0
M  V30 11341 H 1074.99 2.00468 -7.28937 0
M  V30 11342 H 1076.26 3.18119 -7.11632 0
M  V30 11343 N 1080.49 1.57075 -0.12858 0
M  V30 11344 C 1081.9 1.82468 0.39526 0
M  V30 11345 C 1082.25 1.0463 1.65973 0
M  V30 11346 O 1081.38 0.285835 2.14504 0
M  V30 11347 C 1081.97 3.30976 0.723889 0
M  V30 11348 C 1080.53 3.57016 1.19232 0
M  V30 11349 C 1079.68 2.76534 0.205907 0
M  V30 11350 H 1082.63 1.54711 -0.353571 0
M  V30 11351 H 1082.65 3.46127 1.58039 0
M  V30 11352 H 1082.16 3.87602 -0.196595 0
M  V30 11353 H 1080.26 3.05758 2.12938 0
M  V30 11354 H 1080.38 4.65558 1.13103 0
M  V30 11355 H 1078.74 2.45038 0.694872 0
M  V30 11356 H 1079.52 3.35923 -0.707842 0
M  V30 11357 N 1081.97 -0.145205 1.5693 0
M  V30 11358 C 1082.9 -1.18096 2.01434 0
M  V30 11359 C 1083.88 -1.447 0.894204 0
M  V30 11360 O 1085.07 -1.55589 1.16214 0
M  V30 11361 C 1082.2 -2.51369 2.39647 0
M  V30 11362 C 1081.15 -2.39283 3.54863 0
M  V30 11363 C 1080.48 -3.77283 3.78895 0
M  V30 11364 C 1081.78 -1.8754 4.87469 0
M  V30 11365 H 1083.47 -0.810897 2.8821 0
M  V30 11366 H 1081.02 -0.388624 1.38657 0
M  V30 11367 H 1082.97 -3.24054 2.69382 0
M  V30 11368 H 1081.69 -2.90214 1.49811 0
M  V30 11369 H 1080.35 -1.6905 3.25296 0
M  V30 11370 H 1080 -4.13567 2.86307 0
M  V30 11371 H 1079.7 -3.70057 4.56433 0
M  V30 11372 H 1081.22 -4.51514 4.11057 0
M  V30 11373 H 1082.64 -2.50019 5.1591 0
M  V30 11374 H 1081.03 -1.912 5.68826 0
M  V30 11375 H 1082.1 -0.831194 4.77723 0
M  V30 11376 N 1083.45 -1.52049 -0.414609 0
M  V30 11377 C 1084.41 -1.74382 -1.4874 0
M  V30 11378 C 1085.41 -0.613701 -1.48628 0
M  V30 11379 O 1086.6 -0.88152 -1.50249 0
M  V30 11380 C 1083.73 -1.82116 -2.88178 0
M  V30 11381 H 1084.93 -2.70147 -1.30233 0
M  V30 11382 H 1082.48 -1.42382 -0.644756 0
M  V30 11383 H 1083.21 -0.882457 -3.12063 0
M  V30 11384 H 1083 -2.64268 -2.89663 0
M  V30 11385 H 1084.49 -2.01155 -3.65959 0
M  V30 11386 N 1084.93 0.6715 -1.42579 0
M  V30 11387 C 1086.15 1.45972 -1.46628 0
M  V30 11388 C 1086.57 1.88636 -0.0785986 0
M  V30 11389 O 1085.93 1.58345 0.907372 0
M  V30 11390 C 1085.98 2.70668 -2.39627 0
M  V30 11391 O 1085.7 2.29793 -3.72997 0
M  V30 11392 C 1087.2 3.64201 -2.52731 0
M  V30 11393 H 1084.42 0.449044 -0.498598 0
M  V30 11394 H 1086.96 0.824811 -1.87129 0
M  V30 11395 H 1085.12 3.3034 -2.02371 0
M  V30 11396 H 1085.53 3.10341 -4.22834 0
M  V30 11397 H 1087.01 4.48412 -3.21918 0
M  V30 11398 H 1087.48 4.10323 -1.56626 0
M  V30 11399 H 1088.09 3.1042 -2.90722 0
M  V30 11400 N 1086.4 1.28806 0.908124 0
M  V30 11401 C 1087.35 1.13215 2.01125 0
M  V30 11402 C 1088.32 0.0277357 1.66077 0
M  V30 11403 O 1089.51 0.193707 1.89814 0
M  V30 11404 C 1086.65 0.805887 3.35558 0
M  V30 11405 C 1085.76 1.9899 3.83441 0
M  V30 11406 C 1084.89 1.60376 5.06412 0
M  V30 11407 C 1083.93 2.75409 5.46641 0
M  V30 11408 N 1083.07 2.37249 6.60801 0
M  V30 11409 H 1087.91 2.07598 2.13792 0
M  V30 11410 H 1085.45 1.03316 1.0471 0
M  V30 11411 H 1087.4 0.597451 4.129 0
M  V30 11412 H 1086.03 -0.101023 3.22642 0
M  V30 11413 H 1085.09 2.31029 3.02208 0
M  V30 11414 H 1086.4 2.85214 4.09212 0
M  V30 11415 H 1085.55 1.35772 5.91313 0
M  V30 11416 H 1084.29 0.712888 4.82462 0
M  V30 11417 H 1083.3 3.00705 4.60279 0
M  V30 11418 H 1084.52 3.65148 5.72577 0
M  V30 11419 H 1082.47 1.50638 6.3847 0
M  V30 11420 H 1082.38 3.17008 6.86325 0
M  V30 11421 H 1083.65 2.15943 7.48992 0
M  V30 11422 N 1087.88 -1.11734 1.11145 0
M  V30 11423 C 1088.79 -2.21267 0.779607 0
M  V30 11424 C 1089.81 -1.72526 -0.225986 0
M  V30 11425 O 1090.98 -2.01302 -0.0629166 0
M  V30 11426 C 1088.05 -3.45973 0.22435 0
M  V30 11427 C 1087.11 -4.09518 1.28816 0
M  V30 11428 C 1086.34 -5.28271 0.7593 0
M  V30 11429 O 1086.57 -5.68912 -0.411725 0
M  V30 11430 O 1085.5 -5.82322 1.52266 0
M  V30 11431 H 1089.33 -2.5206 1.6941 0
M  V30 11432 H 1086.91 -1.20211 0.887115 0
M  V30 11433 H 1088.79 -4.21322 -0.0810921 0
M  V30 11434 H 1087.47 -3.1684 -0.662891 0
M  V30 11435 H 1086.37 -3.35915 1.64657 0
M  V30 11436 H 1087.71 -4.42824 2.14868 0
M  V30 11437 N 1089.36 -0.901303 -1.29284 0
M  V30 11438 C 1090.31 -0.378666 -2.27672 0
M  V30 11439 C 1091.28 0.540102 -1.57074 0
M  V30 11440 O 1092.46 0.464997 -1.85047 0
M  V30 11441 C 1089.6 0.38635 -3.42931 0
M  V30 11442 C 1088.71 -0.563496 -4.28309 0
M  V30 11443 C 1087.85 0.218731 -5.30749 0
M  V30 11444 C 1086.89 -0.725536 -6.07785 0
M  V30 11445 N 1086.03 0.0223854 -7.02096 0
M  V30 11446 H 1090.87 -1.22277 -2.71758 0
M  V30 11447 H 1088.4 -0.614302 -1.33659 0
M  V30 11448 H 1090.36 0.845967 -4.08533 0
M  V30 11449 H 1088.99 1.1949 -2.9987 0
M  V30 11450 H 1088.04 -1.14163 -3.62865 0
M  V30 11451 H 1089.35 -1.28623 -4.81931 0
M  V30 11452 H 1088.51 0.739473 -6.02177 0
M  V30 11453 H 1087.25 0.97459 -4.77863 0
M  V30 11454 H 1086.25 -1.25776 -5.3522 0
M  V30 11455 H 1087.48 -1.48075 -6.6276 0
M  V30 11456 H 1085.42 0.760482 -6.51577 0
M  V30 11457 H 1085.34 -0.640408 -7.53283 0
M  V30 11458 H 1086.61 0.523339 -7.77741 0
M  V30 11459 N 1090.84 1.42931 -0.663954 0
M  V30 11460 C 1091.8 2.29197 0.0117626 0
M  V30 11461 C 1092.8 1.42767 0.739875 0
M  V30 11462 O 1093.99 1.64278 0.579509 0
M  V30 11463 C 1091.12 3.2505 1.02738 0
M  V30 11464 H 1092.32 2.90438 -0.747391 0
M  V30 11465 H 1089.87 1.5039 -0.425733 0
M  V30 11466 H 1090.6 2.68726 1.8154 0
M  V30 11467 H 1090.39 3.88785 0.508809 0
M  V30 11468 H 1091.88 3.89771 1.49893 0
M  V30 11469 N 1092.32 0.406567 1.52266 0
M  V30 11470 C 1093.54 -0.169624 2.06204 0
M  V30 11471 C 1093.96 -1.39076 1.27684 0
M  V30 11472 O 1093.32 -1.79528 0.328023 0
M  V30 11473 C 1093.37 -0.522611 3.57702 0
M  V30 11474 O 1093.09 0.650028 4.33251 0
M  V30 11475 C 1094.59 -1.15281 4.28048 0
M  V30 11476 H 1091.81 -0.0215191 0.670655 0
M  V30 11477 H 1094.35 0.576781 1.96198 0
M  V30 11478 H 1092.51 -1.21891 3.67725 0
M  V30 11479 H 1092.92 0.355989 5.23291 0
M  V30 11480 H 1094.4 -1.35002 5.35237 0
M  V30 11481 H 1094.87 -2.12517 3.84361 0
M  V30 11482 H 1095.48 -0.496786 4.22389 0
M  V30 11483 N 1093.79 -1.57004 0.136909 0
M  V30 11484 C 1095.21 -1.58082 -0.21958 0
M  V30 11485 C 1095.41 -1.15065 -1.65415 0
M  V30 11486 O 1094.47 -0.846284 -2.37896 0
M  V30 11487 C 1095.78 -3.00685 0.0300112 0
M  V30 11488 C 1097.33 -3.12981 -0.0344899 0
M  V30 11489 C 1097.8 -4.57615 0.187639 0
M  V30 11490 N 1099.29 -4.63005 0.134219 0
M  V30 11491 C 1100.03 -5.72712 0.280743 0
M  V30 11492 N 1099.52 -6.91104 0.48443 0
M  V30 11493 N 1101.32 -5.61673 0.219055 0
M  V30 11494 H 1093.47 -1.83262 1.07372 0
M  V30 11495 H 1095.73 -0.847776 0.424241 0
M  V30 11496 H 1095.44 -3.36509 1.02247 0
M  V30 11497 H 1095.31 -3.70762 -0.693918 0
M  V30 11498 H 1097.7 -2.77004 -1.01749 0
M  V30 11499 H 1097.78 -2.45411 0.721608 0
M  V30 11500 H 1097.42 -4.94295 1.16769 0
M  V30 11501 H 1097.35 -5.23299 -0.588661 0
M  V30 11502 H 1099.84 -3.77895 -0.0189681 0
M  V30 11503 H 1100.16 -7.7057 0.586613 0
M  V30 11504 H 1098.5 -6.93047 0.520627 0
M  V30 11505 H 1101.69 -4.68061 0.0607606 0
M  V30 11506 H 1101.87 -6.47125 0.336683 0
M  V30 11507 N 1095.27 0.136881 -1.57004 0
M  V30 11508 C 1096.68 0.695911 -1.73245 0
M  V30 11509 C 1097.03 1.8118 -0.75288 0
M  V30 11510 O 1096.16 2.16258 0.0782477 0
M  V30 11511 C 1096.75 1.26914 -3.14131 0
M  V30 11512 C 1095.31 1.77463 -3.31939 0
M  V30 11513 C 1094.46 0.667128 -2.69156 0
M  V30 11514 H 1097.41 -0.0888841 -1.58451 0
M  V30 11515 H 1097.43 2.13892 -3.14691 0
M  V30 11516 H 1096.94 0.456754 -3.85403 0
M  V30 11517 H 1095.05 2.61236 -2.65681 0
M  V30 11518 H 1095.16 1.89638 -4.39971 0
M  V30 11519 H 1093.52 1.09629 -2.29899 0
M  V30 11520 H 1094.31 -0.13398 -3.43038 0
M  V30 11521 N 1096.75 1.52266 0.40654 0
M  V30 11522 C 1097.98 1.70598 1.17945 0
M  V30 11523 C 1098.4 0.415793 1.83447 0
M  V30 11524 O 1097.76 -0.626968 1.70114 0
M  V30 11525 C 1097.81 2.84449 2.21633 0
M  V30 11526 O 1096.91 2.50199 3.27833 0
M  V30 11527 H 1096.25 0.567837 0.344177 0
M  V30 11528 H 1098.78 1.98981 0.476211 0
M  V30 11529 H 1098.79 3.09436 2.65919 0
M  V30 11530 H 1097.47 3.78055 1.73341 0
M  V30 11531 H 1096.04 2.35892 2.88807 0
M  V30 11532 N 1098.23 -0.663929 1.42933 0
M  V30 11533 C 1099.16 -1.78946 1.43217 0
M  V30 11534 C 1100.17 -1.59426 0.329727 0
M  V30 11535 O 1101.36 -1.68344 0.5935 0
M  V30 11536 C 1098.46 -3.16217 1.21902 0
M  V30 11537 C 1097.64 -3.6249 2.44785 0
M  V30 11538 C 1096.69 -4.78529 2.18853 0
M  V30 11539 O 1095.72 -4.88516 2.92131 0
M  V30 11540 N 1096.92 -5.67994 1.19845 0
M  V30 11541 H 1099.69 -1.79184 2.40236 0
M  V30 11542 H 1097.25 -0.847404 1.37952 0
M  V30 11543 H 1099.24 -3.91517 1.02454 0
M  V30 11544 H 1097.81 -3.10814 0.333676 0
M  V30 11545 H 1097.03 -2.77751 2.79729 0
M  V30 11546 H 1098.32 -3.90151 3.26588 0
M  V30 11547 H 1097.72 -5.62588 0.59259 0
M  V30 11548 H 1096.27 -6.4306 1.06382 0
M  V30 11549 N 1099.71 -1.29285 -0.901281 0
M  V30 11550 C 1100.95 -1.16934 -1.64836 0
M  V30 11551 C 1101.28 0.279826 -1.92982 0
M  V30 11552 O 1100.55 1.19179 -1.55478 0
M  V30 11553 H 1099.13 -0.429768 -0.61099 0
M  V30 11554 H 1101.79 -1.62189 -1.08077 0
M  V30 11555 H 1100.88 -1.71821 -2.60545 0
M  V30 11556 N 1101.18 1.11143 -1.11736 0
M  V30 11557 C 1102.13 2.15396 -0.747566 0
M  V30 11558 C 1103.12 1.58948 0.249894 0
M  V30 11559 O 1104.31 1.7691 0.0565267 0
M  V30 11560 C 1101.44 3.42741 -0.195776 0
M  V30 11561 C 1100.53 4.06141 -1.22109 0
M  V30 11562 N 1100.92 4.44351 -2.41631 0
M  V30 11563 C 1099.21 4.33104 -1.06474 0
M  V30 11564 C 1099.92 4.94062 -3.07046 0
M  V30 11565 N 1098.89 4.90411 -2.34516 0
M  V30 11566 H 1102.69 2.42722 -1.6572 0
M  V30 11567 H 1100.21 1.28189 -0.997059 0
M  V30 11568 H 1102.2 4.16809 0.0872984 0
M  V30 11569 H 1100.86 3.16878 0.708406 0
M  V30 11570 H 1101.88 4.36283 -2.79065 0
M  V30 11571 H 1098.55 4.16934 -0.217246 0
M  V30 11572 H 1099.94 5.33234 -4.08792 0
M  V30 11573 N 1102.66 0.908147 1.28804 0
M  V30 11574 C 1103.59 0.34957 2.26519 0
M  V30 11575 C 1104.61 -0.508845 1.54643 0
M  V30 11576 O 1105.8 -0.324633 1.75523 0
M  V30 11577 C 1102.9 -0.519461 3.34895 0
M  V30 11578 C 1102.07 0.315157 4.36263 0
M  V30 11579 C 1101.13 -0.488059 5.23932 0
M  V30 11580 O 1100.15 0.0974133 5.69117 0
M  V30 11581 N 1101.36 -1.79233 5.52137 0
M  V30 11582 H 1104.12 1.18945 2.75086 0
M  V30 11583 H 1101.68 0.77351 1.42227 0
M  V30 11584 H 1103.67 -1.0634 3.90479 0
M  V30 11585 H 1102.24 -1.26004 2.8608 0
M  V30 11586 H 1101.46 1.04049 3.8022 0
M  V30 11587 H 1102.75 0.886438 5.01019 0
M  V30 11588 H 1102.15 -2.2906 5.1725 0
M  V30 11589 H 1100.71 -2.28322 6.10502 0
M  V30 11590 N 1104.14 -1.42577 0.671525 0
M  V30 11591 C 1105.55 -1.84736 0.270084 0
M  V30 11592 C 1105.9 -1.56212 -1.18711 0
M  V30 11593 O 1105.03 -1.02028 -1.90838 0
M  V30 11594 C 1105.62 -3.35334 0.483409 0
M  V30 11595 C 1104.18 -3.76154 0.136119 0
M  V30 11596 C 1103.33 -2.66179 0.777444 0
M  V30 11597 H 1106.28 -1.3247 0.873919 0
M  V30 11598 H 1106.3 -3.79573 -0.265483 0
M  V30 11599 H 1105.81 -3.56063 1.54405 0
M  V30 11600 H 1103.91 -3.61033 -0.921209 0
M  V30 11601 H 1104.03 -4.75645 0.574356 0
M  V30 11602 H 1102.39 -2.53841 0.209055 0
M  V30 11603 H 1103.17 -2.89732 1.84148 0
M  V30 11604 O 1105.66 -0.556764 -1.51599 0
M  V30 11605 H 1106.35 -0.0541661 -1.93624 0
M  V30 END ATOM
M  V30 BEGIN BOND
M  V30 END BOND
M  V30 END CTAB
M  END
$$$$
