drugbank_target|P0AFU8 Riboflavin synthase (DB00140)
 OpenBabel12092120303D

  0  0  0     0  0            999 V3000
M  V30 BEGIN CTAB
M  V30 COUNTS 3303 3328 0 0 0
M  V30 BEGIN ATOM
M  V30 1 H -0.908 1.98254 -0.117106 0
M  V30 2 N 0 1.576 0 0
M  V30 3 C 0.933 2.03868 1.02534 0
M  V30 4 C 1.911 0.928543 1.3348 0
M  V30 5 O 3.095 1.19667 1.45644 0
M  V30 6 C 0.222 2.43627 2.35294 0
M  V30 7 C -0.732 3.65373 2.2001 0
M  V30 8 S 0.101 5.13292 1.52614 0
M  V30 9 C 1.257 5.56322 2.86805 0
M  V30 10 H 1.49 2.90518 0.631377 0
M  V30 11 H -0.977 1.52953 0.210867 0
M  V30 12 H 0.981 2.67203 3.11629 0
M  V30 13 H -0.358 1.57376 2.7183 0
M  V30 14 H -1.165 3.90944 3.18086 0
M  V30 15 H -1.563 3.418 1.51819 0
M  V30 16 H 0.729 5.58782 3.83104 0
M  V30 17 H 1.672 6.56266 2.65933 0
M  V30 18 H 2.08 4.83886 2.90714 0
M  V30 19 N 1.4781 -0.272755 1.55222 0
M  V30 20 C 2.7251 -1.00433 1.7584 0
M  V30 21 C 3.0531 -1.86275 0.559629 0
M  V30 22 O 2.3081 -1.90269 -0.457857 0
M  V30 23 C 2.6071 -1.91642 3.01675 0
M  V30 24 C 2.2731 -1.21548 4.34208 0
M  V30 25 C 0.9351 -1.02166 4.70229 0
M  V30 26 C 3.2871 -0.716684 5.16249 0
M  V30 27 C 0.6151 -0.316334 5.85847 0
M  V30 28 C 2.9671 -0.0249476 6.32595 0
M  V30 29 C 1.6311 0.180579 6.67256 0
M  V30 30 H 0.9011 -0.367509 0.643443 0
M  V30 31 H 3.5481 -0.276596 1.89492 0
M  V30 32 H 1.8531 -2.71037 2.82924 0
M  V30 33 H 3.5501 -2.48369 3.14824 0
M  V30 34 H 0.1401 -1.37645 4.05896 0
M  V30 35 H 4.3241 -0.854047 4.88896 0
M  V30 36 H -0.4199 -0.146378 6.11225 0
M  V30 37 H 3.7541 0.369311 6.9542 0
M  V30 38 H 1.3811 0.729098 7.56696 0
M  V30 39 N 2.9562 -1.48159 -0.537278 0
M  V30 40 C 4.1842 -1.59454 -1.31841 0
M  V30 41 C 4.5992 -0.252065 -1.8711 0
M  V30 42 O 3.9562 0.757621 -1.66031 0
M  V30 43 C 4.0072 -2.63546 -2.47439 0
M  V30 44 O 3.7282 -3.92583 -1.94449 0
M  V30 45 C 5.2292 -2.85212 -3.39366 0
M  V30 46 H 2.4492 -0.53785 -0.401196 0
M  V30 47 H 4.9932 -1.93932 -0.648891 0
M  V30 48 H 3.1482 -2.31946 -3.1029 0
M  V30 49 H 3.5622 -4.49629 -2.70063 0
M  V30 50 H 5.0362 -3.61863 -4.16844 0
M  V30 51 H 5.5132 -1.93765 -3.94147 0
M  V30 52 H 6.1192 -3.18086 -2.82314 0
M  V30 53 N 4.4343 0.785586 -1.36625 0
M  V30 54 C 5.6823 1.54057 -1.30808 0
M  V30 55 C 6.0033 1.94683 0.111157 0
M  V30 56 O 5.2733 1.65241 1.05224 0
M  V30 57 H 3.8533 0.571354 -0.481211 0
M  V30 58 H 6.5153 0.935821 -1.70963 0
M  V30 59 H 5.6113 2.44637 -1.93801 0
M  V30 60 N 5.9124 1.20967 1.01018 0
M  V30 61 C 7.1614 1.01796 1.74128 0
M  V30 62 C 7.4744 -0.449691 1.90361 0
M  V30 63 O 8.6804 -0.76068 2.60626 0
M  V30 64 C 7.1364 1.7727 3.13215 0
M  V30 65 C 6.7444 3.28171 3.04972 0
M  V30 66 C 8.4884 1.66489 3.90489 0
M  V30 67 C 6.3954 3.96156 4.39107 0
M  V30 68 H 5.3254 0.377276 0.652824 0
M  V30 69 H 7.9764 1.44651 1.12909 0
M  V30 70 H 6.3584 1.27205 3.75013 0
M  V30 71 H 7.5324 3.85499 2.52443 0
M  V30 72 H 5.8474 3.39437 2.41188 0
M  V30 73 H 8.4444 2.14617 4.89738 0
M  V30 74 H 8.7874 0.6222 4.11624 0
M  V30 75 H 9.3204 2.14003 3.35332 0
M  V30 76 H 6.0594 5.00604 4.23174 0
M  V30 77 H 5.5794 3.43617 4.91617 0
M  V30 78 H 7.2584 4.00774 5.07926 0
M  V30 79 N 7.3905 -1.2043 1.01659 0
M  V30 80 C 8.6365 -1.90079 0.706963 0
M  V30 81 C 8.9695 -1.78648 -0.761474 0
M  V30 82 O 8.2445 -1.17069 -1.55323 0
M  V30 83 C 8.5275 -3.41469 1.14327 0
M  V30 84 C 8.3805 -3.61833 2.67201 0
M  V30 85 C 9.6995 -4.34261 0.714529 0
M  V30 86 H 6.8185 -0.690254 0.2583 0
M  V30 87 H 9.4605 -1.41826 1.26433 0
M  V30 88 H 7.6105 -3.82696 0.669056 0
M  V30 89 H 9.2825 -3.2986 3.22475 0
M  V30 90 H 7.5255 -3.05304 3.08175 0
M  V30 91 H 8.1965 -4.67955 2.92783 0
M  V30 92 H 10.6725 -4.00682 1.12221 0
M  V30 93 H 9.5485 -5.38806 1.04784 0
M  V30 94 H 9.8095 -4.40431 -0.383799 0
M  V30 95 N 8.8686 -0.792821 -1.36206 0
M  V30 96 C 9.8006 -0.151469 -2.28699 0
M  V30 97 C 10.8136 0.641262 -1.49638 0
M  V30 98 O 12.0026 0.475885 -1.72039 0
M  V30 99 C 9.1026 0.808424 -3.29117 0
M  V30 100 C 8.2756 0.0650202 -4.37352 0
M  V30 101 C 7.3346 0.941358 -5.17711 0
M  V30 102 O 6.3606 0.397352 -5.67811 0
M  V30 103 N 7.5626 2.2652 -5.3448 0
M  V30 104 H 10.3276 -0.945982 -2.84379 0
M  V30 105 H 7.8886 -0.647032 -1.48409 0
M  V30 106 H 9.8806 1.3986 -3.79765 0
M  V30 107 H 8.4506 1.5038 -2.74052 0
M  V30 108 H 7.6706 -0.706255 -3.87822 0
M  V30 109 H 8.9586 -0.447847 -5.06825 0
M  V30 110 H 8.3566 2.73128 -4.95396 0
M  V30 111 H 6.9136 2.80493 -5.88359 0
M  V30 112 N 10.3467 1.47872 -0.545128 0
M  V30 113 C 11.5947 2.02093 -0.016553 0
M  V30 114 C 11.9157 1.42305 1.3332 0
M  V30 115 O 11.1857 0.593853 1.86682 0
M  V30 116 H 9.7657 0.746993 -0.00313038 0
M  V30 117 H 12.4277 1.81414 -0.712397 0
M  V30 118 H 11.5237 3.11996 0.0805422 0
M  V30 119 N 11.8248 0.280983 1.55075 0
M  V30 120 C 13.0528 -0.337293 2.04132 0
M  V30 121 C 13.4678 -1.4903 1.15912 0
M  V30 122 O 12.8248 -1.81606 0.180459 0
M  V30 123 C 12.8758 -0.812706 3.52246 0
M  V30 124 O 12.5968 0.294387 4.3711 0
M  V30 125 C 14.0978 -1.4982 4.17216 0
M  V30 126 H 11.3178 -0.0761638 0.666663 0
M  V30 127 H 13.8618 0.414787 2.00249 0
M  V30 128 H 12.0168 -1.51486 3.56554 0
M  V30 129 H 12.4308 -0.0721325 5.2445 0
M  V30 130 H 13.9048 -1.7822 5.22438 0
M  V30 131 H 14.3818 -2.43168 3.65741 0
M  V30 132 H 14.9878 -0.839742 4.16927 0
M  V30 133 N 13.3029 -1.57598 0.00835791 0
M  V30 134 C 14.2659 -2.07884 -0.965242 0
M  V30 135 C 15.2659 -0.989825 -1.26725 0
M  V30 136 O 16.4559 -1.25218 -1.21104 0
M  V30 137 C 13.5879 -2.52731 -2.28779 0
M  V30 138 H 14.7809 -2.95178 -0.530112 0
M  V30 139 H 12.3339 -1.54458 -0.239283 0
M  V30 140 H 13.0689 -1.68705 -2.76964 0
M  V30 141 H 12.8539 -3.32272 -2.08177 0
M  V30 142 H 14.3439 -2.91933 -2.98605 0
M  V30 143 N 14.781 0.264519 -1.55364 0
M  V30 144 C 15.728 1.32717 -1.88825 0
M  V30 145 C 16.698 1.48675 -0.740605 0
M  V30 146 O 17.883 1.62945 -0.992657 0
M  V30 147 C 15.023 2.68089 -2.17307 0
M  V30 148 C 14.136 2.60284 -3.44785 0
M  V30 149 C 13.271 3.87892 -3.62924 0
M  V30 150 C 12.31 3.74631 -4.84064 0
M  V30 151 N 11.447 4.94092 -4.98816 0
M  V30 152 H 16.287 1.03481 -2.79456 0
M  V30 153 H 13.824 0.499757 -1.3835 0
M  V30 154 H 15.782 3.46864 -2.31821 0
M  V30 155 H 14.412 2.95509 -1.299 0
M  V30 156 H 13.464 1.73173 -3.38697 0
M  V30 157 H 14.776 2.46388 -4.33698 0
M  V30 158 H 13.93 4.75109 -3.77302 0
M  V30 159 H 12.669 4.04664 -2.7221 0
M  V30 160 H 11.674 2.85797 -4.69681 0
M  V30 161 H 12.899 3.5937 -5.76221 0
M  V30 162 H 10.845 5.11259 -4.11036 0
M  V30 163 H 10.762 4.8276 -5.81789 0
M  V30 164 H 12.03 5.82857 -5.17588 0
M  V30 165 N 16.2591 1.48442 0.529413 0
M  V30 166 C 17.1891 1.65902 1.64313 0
M  V30 167 C 18.1701 0.507897 1.6234 0
M  V30 168 O 19.3551 0.740503 1.79528 0
M  V30 169 C 16.4851 1.69911 3.02898 0
M  V30 170 C 15.4391 2.8453 3.19729 0
M  V30 171 C 14.7651 2.73629 4.59381 0
M  V30 172 C 16.0651 4.25821 3.02447 0
M  V30 173 H 17.7591 2.5914 1.49955 0
M  V30 174 H 15.3051 1.24709 0.719982 0
M  V30 175 H 17.2581 1.80715 3.80684 0
M  V30 176 H 15.9821 0.732524 3.18279 0
M  V30 177 H 14.6411 2.73283 2.44361 0
M  V30 178 H 14.2891 1.74938 4.71599 0
M  V30 179 H 13.9891 3.50541 4.71588 0
M  V30 180 H 15.5131 2.86401 5.39265 0
M  V30 181 H 16.9271 4.37898 3.70024 0
M  V30 182 H 15.3241 5.03735 3.26146 0
M  V30 183 H 16.3941 4.42244 1.98867 0
M  V30 184 N 17.7372 -0.778329 1.37039 0
M  V30 185 C 18.9832 -1.53892 1.32079 0
M  V30 186 C 19.3162 -1.9396 -0.0965386 0
M  V30 187 O 18.5912 -1.63568 -1.05242 0
M  V30 188 C 18.8742 -2.80847 2.25382 0
M  V30 189 C 18.7272 -2.47076 3.75864 0
M  V30 190 C 20.0462 -3.82741 2.1725 0
M  V30 191 H 17.1652 -0.558303 0.48111 0
M  V30 192 H 19.8072 -0.893397 1.67685 0
M  V30 193 H 17.9572 -3.35931 1.95148 0
M  V30 194 H 19.6292 -1.97957 4.16666 0
M  V30 195 H 17.8722 -1.79863 3.94755 0
M  V30 196 H 18.5432 -3.37798 4.36574 0
M  V30 197 H 21.0192 -3.37133 2.43887 0
M  V30 198 H 19.8952 -4.69303 2.84686 0
M  V30 199 H 20.1562 -4.2652 1.16331 0
M  V30 200 N 19.2153 -1.21501 -1.00376 0
M  V30 201 C 20.4403 -1.05977 -1.78279 0
M  V30 202 C 20.8653 0.385994 -1.84097 0
M  V30 203 O 20.2233 1.27849 -1.28547 0
M  V30 204 C 20.2713 -1.66302 -3.19963 0
M  V30 205 O 19.3753 -0.909333 -4.0225 0
M  V30 206 H 18.7163 -0.372906 -0.549397 0
M  V30 207 H 21.2463 -1.6107 -1.26165 0
M  V30 208 H 21.2563 -1.70574 -3.70632 0
M  V30 209 H 19.9313 -2.71515 -3.15043 0
M  V30 210 H 18.5083 -0.941795 -3.60811 0
M  V30 211 N 20.6934 1.19889 -1.02296 0
M  V30 212 C 21.9424 1.88743 -0.711257 0
M  V30 213 C 22.2554 1.80112 0.762817 0
M  V30 214 O 23.4614 2.44161 1.18733 0
M  V30 215 C 21.9174 3.38525 -1.22185 0
M  V30 216 C 21.5254 3.55727 -2.72328 0
M  V30 217 C 23.2694 4.12893 -0.985864 0
M  V30 218 C 21.1764 4.99369 -3.16835 0
M  V30 219 H 20.1064 0.706885 -0.262353 0
M  V30 220 H 22.7574 1.35586 -1.23648 0
M  V30 221 H 21.1394 3.91044 -0.624571 0
M  V30 222 H 22.3134 3.13564 -3.3766 0
M  V30 223 H 20.6284 2.94739 -2.9414 0
M  V30 224 H 23.2254 5.18813 -1.29374 0
M  V30 225 H 23.5684 4.16228 0.0775055 0
M  V30 226 H 24.1014 3.66494 -1.54684 0
M  V30 227 H 20.8404 5.01193 -4.22476 0
M  V30 228 H 20.3604 5.42317 -2.56228 0
M  V30 229 H 22.0394 5.67988 -3.09837 0
M  V30 230 N 22.1715 0.800033 1.35784 0
M  V30 231 C 23.4485 0.30088 1.93272 0
M  V30 232 C 23.8285 -1.20857 1.73081 0
M  V30 233 O 23.1765 -2.00502 1.09596 0
M  V30 234 C 23.3865 0.70511 3.41803 0
M  V30 235 C 24.7345 0.690871 4.18942 0
M  V30 236 O 25.7585 0.646244 3.50289 0
M  V30 237 O 24.6175 0.74332 5.41421 0
M  V30 238 H 21.7115 0.0771605 0.823393 0
M  V30 239 H 24.2575 0.88329 1.449 0
M  V30 240 H 23.0295 1.74571 3.50201 0
M  V30 241 H 22.6525 0.0971541 3.97481 0
M  V30 242 N 23.6496 -1.47581 0.552962 0
M  V30 243 C 24.5596 -2.33743 -0.200353 0
M  V30 244 C 25.5756 -1.47928 -0.916151 0
M  V30 245 O 26.7516 -1.80865 -0.885993 0
M  V30 246 C 23.8166 -3.24536 -1.21973 0
M  V30 247 C 22.8776 -4.26238 -0.511819 0
M  V30 248 C 22.1106 -5.12693 -1.48263 0
M  V30 249 O 22.3336 -5.01525 -2.71714 0
M  V30 250 O 21.2676 -5.93375 -1.00945 0
M  V30 251 H 25.0936 -2.9945 0.506304 0
M  V30 252 H 22.6786 -1.46071 0.313622 0
M  V30 253 H 24.5606 -3.80631 -1.80827 0
M  V30 254 H 23.2356 -2.61462 -1.90839 0
M  V30 255 H 22.1426 -3.73914 0.117799 0
M  V30 256 H 23.4756 -4.92014 0.135308 0
M  V30 257 N 25.1277 -0.289203 -1.54924 0
M  V30 258 C 26.0747 0.592115 -2.23075 0
M  V30 259 C 27.0447 1.13881 -1.20915 0
M  V30 260 O 28.2297 1.18551 -1.495 0
M  V30 261 C 25.3697 1.76376 -2.96623 0
M  V30 262 C 24.4827 1.24959 -4.13533 0
M  V30 263 C 23.6177 2.38416 -4.74691 0
M  V30 264 C 22.6567 1.84072 -5.83767 0
M  V30 265 N 21.7937 2.91057 -6.38929 0
M  V30 266 H 26.6337 0.00432038 -2.98 0
M  V30 267 H 24.1707 -0.00963529 -1.47097 0
M  V30 268 H 26.1287 2.45268 -3.3749 0
M  V30 269 H 24.7587 2.32337 -2.24097 0
M  V30 270 H 23.8107 0.453307 -3.77689 0
M  V30 271 H 25.1227 0.811662 -4.92152 0
M  V30 272 H 24.2767 3.15276 -5.18349 0
M  V30 273 H 23.0157 2.8553 -3.95378 0
M  V30 274 H 22.0207 1.05697 -5.39545 0
M  V30 275 H 23.2457 1.37877 -6.64956 0
M  V30 276 H 21.1917 3.37526 -5.62505 0
M  V30 277 H 21.1087 2.51724 -7.12861 0
M  V30 278 H 22.3767 3.6785 -6.87246 0
M  V30 279 N 26.6058 1.57591 -0.0167156 0
M  V30 280 C 28.0168 1.79201 0.523834 0
M  V30 281 C 28.3678 0.925796 1.72984 0
M  V30 282 O 27.4928 0.132792 2.15992 0
M  V30 283 C 28.0878 3.25 0.957091 0
M  V30 284 C 26.6468 3.47648 1.44283 0
M  V30 285 C 25.7938 2.74374 0.401757 0
M  V30 286 H 28.7448 1.56831 -0.242816 0
M  V30 287 H 28.7658 3.34031 1.82219 0
M  V30 288 H 28.2778 3.88019 0.0791415 0
M  V30 289 H 26.3788 2.89866 2.34113 0
M  V30 290 H 26.4918 4.56352 1.45877 0
M  V30 291 H 24.8558 2.39485 0.867121 0
M  V30 292 H 25.6388 3.40102 -0.467513 0
M  V30 293 N 28.0839 -0.256276 1.55502 0
M  V30 294 C 29.0319 -1.33694 1.90338 0
M  V30 295 C 30.0259 -1.50299 0.781441 0
M  V30 296 O 31.2319 -1.51885 0.965966 0
M  V30 297 H 27.6069 -0.447483 0.60437 0
M  V30 298 H 29.5779 -1.01574 2.8058 0
M  V30 299 C 28.3269 -2.68724 2.20642 0
M  V30 300 H 27.6499 -2.56743 3.06469 0
M  V30 301 H 29.0899 -3.43237 2.48926 0
M  V30 302 C 27.5489 -3.21101 1.01959 0
M  V30 303 O 28.0789 -4.0084 0.262762 0
M  V30 304 N 26.2849 -2.79003 0.812746 0
M  V30 305 H 25.8319 -2.14271 1.42989 0
M  V30 306 H 25.7899 -3.14393 0.0203076 0
M  V30 307 N 29.562 -1.4872 -0.521534 0
M  V30 308 C 30.809 -1.57168 -1.27689 0
M  V30 309 C 31.137 -0.249275 -1.92896 0
M  V30 310 O 30.392 0.761162 -1.80291 0
M  V30 311 C 30.691 -2.66497 -2.38148 0
M  V30 312 C 30.357 -4.08664 -1.90538 0
M  V30 313 C 29.019 -4.47357 -1.77271 0
M  V30 314 C 31.371 -4.97724 -1.54663 0
M  V30 315 C 28.699 -5.72905 -1.26478 0
M  V30 316 C 31.051 -6.2377 -1.05329 0
M  V30 317 C 29.715 -6.61311 -0.906861 0
M  V30 318 H 28.985 -0.575117 -0.467249 0
M  V30 319 H 31.632 -1.82472 -0.581051 0
M  V30 320 H 29.937 -2.35085 -3.13437 0
M  V30 321 H 31.634 -2.70246 -2.96257 0
M  V30 322 H 28.224 -3.78111 -2.01816 0
M  V30 323 H 32.408 -4.68501 -1.63768 0
M  V30 324 H 27.664 -6.00709 -1.13835 0
M  V30 325 H 31.838 -6.9217 -0.76644 0
M  V30 326 H 29.465 -7.5848 -0.511083 0
M  V30 327 N 31.0401 0.771051 -1.3745 0
M  V30 328 C 32.4561 1.07171 -1.18265 0
M  V30 329 C 32.6561 2.01491 -0.019287 0
M  V30 330 O 31.7121 2.44244 0.640408 0
M  V30 331 C 33.0251 1.66854 -2.50161 0
M  V30 332 C 34.5731 1.79109 -2.56689 0
M  V30 333 C 35.0481 2.42205 -3.88717 0
M  V30 334 N 36.5391 2.49655 -3.90162 0
M  V30 335 C 37.2741 2.9933 -4.8907 0
M  V30 336 N 36.7701 3.49172 -5.98374 0
M  V30 337 N 38.5631 2.9821 -4.76474 0
M  V30 338 H 30.7141 0.144796 -2.11906 0
M  V30 339 H 32.9771 0.126863 -0.939473 0
M  V30 340 H 32.6831 1.05017 -3.35655 0
M  V30 341 H 32.5571 2.6614 -2.673 0
M  V30 342 H 34.9441 2.40077 -1.71601 0
M  V30 343 H 35.0251 0.785757 -2.43433 0
M  V30 344 H 34.6691 1.81875 -4.74219 0
M  V30 345 H 34.5991 3.43345 -3.99276 0
M  V30 346 H 37.0901 2.14383 -3.11205 0
M  V30 347 H 37.4031 3.8548 -6.69795 0
M  V30 348 H 35.7481 3.47275 -6.02018 0
M  V30 349 H 38.9391 2.58572 -3.90203 0
M  V30 350 H 39.1121 3.36613 -5.53711 0
M  V30 351 N 32.5182 1.22032 0.997298 0
M  V30 352 C 33.7462 1.06841 1.7718 0
M  V30 353 C 34.1612 -0.381325 1.84909 0
M  V30 354 O 33.5182 -1.26437 1.31605 0
M  V30 355 C 33.5692 1.66814 3.20711 0
M  V30 356 O 33.2902 3.06116 3.13408 0
M  V30 357 C 34.7912 1.56838 4.14628 0
M  V30 358 H 32.0112 0.374782 0.556578 0
M  V30 359 H 34.5552 1.61532 1.2541 0
M  V30 360 H 32.7102 1.16196 3.69564 0
M  V30 361 H 33.1242 3.34926 4.0364 0
M  V30 362 H 34.5982 2.03532 5.13107 0
M  V30 363 H 35.0752 0.524155 4.36061 0
M  V30 364 H 35.6812 2.06741 3.7167 0
M  V30 365 N 33.9963 -1.19345 1.0293 0
M  V30 366 C 34.9463 -2.20472 0.58104 0
M  V30 367 C 35.9303 -1.56578 -0.370442 0
M  V30 368 O 37.1223 -1.75963 -0.191344 0
M  V30 369 C 34.2513 -3.43236 -0.066306 0
M  V30 370 C 33.3373 -4.14274 0.907642 0
M  V30 371 N 33.7283 -4.61492 2.07023 0
M  V30 372 C 32.0263 -4.39966 0.731177 0
M  V30 373 C 32.7273 -5.1605 2.68454 0
M  V30 374 N 31.7033 -5.06875 1.96414 0
M  V30 375 H 35.5053 -2.54659 1.46717 0
M  V30 376 H 33.0193 -1.35423 0.896345 0
M  V30 377 H 35.0163 -4.14927 -0.405068 0
M  V30 378 H 33.6763 -3.10549 -0.948118 0
M  V30 379 H 34.6873 -4.56304 2.44963 0
M  V30 380 H 31.3643 -4.17377 -0.101507 0
M  V30 381 H 32.7543 -5.6287 3.66915 0
M  V30 382 N 35.4744 -0.807222 -1.35358 0
M  V30 383 C 36.7204 -0.388463 -1.99045 0
M  V30 384 C 37.0534 1.04184 -1.63888 0
M  V30 385 O 36.3284 1.72292 -0.902535 0
M  V30 386 C 36.6114 -0.572783 -3.55515 0
M  V30 387 C 36.4644 -2.04807 -4.00468 0
M  V30 388 C 37.7834 0.00114064 -4.401 0
M  V30 389 H 34.9024 -0.142619 -0.723069 0
M  V30 390 H 37.5444 -1.01687 -1.60498 0
M  V30 391 H 35.6944 -0.0378425 -3.88482 0
M  V30 392 H 37.3664 -2.64544 -3.77908 0
M  V30 393 H 35.6094 -2.54427 -3.51353 0
M  V30 394 H 36.2804 -2.12792 -5.09337 0
M  V30 395 H 38.7564 -0.455716 -4.13597 0
M  V30 396 H 37.6324 -0.157737 -5.48673 0
M  V30 397 H 37.8934 1.09488 -4.28328 0
M  V30 398 N 36.9525 1.47285 -0.560781 0
M  V30 399 C 38.1985 2.02764 -0.0381184 0
M  V30 400 C 38.5315 1.43384 1.30976 0
M  V30 401 O 37.8065 0.590733 1.85312 0
M  V30 402 C 38.0895 3.60064 0.0511427 0
M  V30 403 C 37.9425 4.2987 -1.32408 0
M  V30 404 C 39.2615 4.33439 0.762795 0
M  V30 405 H 36.3805 0.736841 -0.0153264 0
M  V30 406 H 39.0225 1.75675 -0.723759 0
M  V30 407 H 37.1725 3.83274 0.635065 0
M  V30 408 H 38.8445 4.17989 -1.95148 0
M  V30 409 H 37.0875 3.90085 -1.8978 0
M  V30 410 H 37.7585 5.38478 -1.21431 0
M  V30 411 H 40.2345 4.15243 0.266965 0
M  V30 412 H 39.1105 5.43124 0.794221 0
M  V30 413 H 39.3715 4.02915 1.81966 0
M  V30 414 N 38.4306 0.297415 1.54768 0
M  V30 415 C 39.3406 -0.58983 2.27064 0
M  V30 416 C 40.3566 -1.15144 1.30453 0
M  V30 417 O 41.5326 -1.17699 1.63428 0
M  V30 418 C 38.5976 -1.74714 2.9946 0
M  V30 419 C 37.6586 -1.21997 4.11601 0
M  V30 420 C 36.8916 -2.32212 4.80535 0
M  V30 421 O 37.1146 -3.52036 4.48806 0
M  V30 422 O 36.0486 -1.99106 5.68014 0
M  V30 423 H 39.8746 -0.00348199 3.037 0
M  V30 424 H 37.4596 0.0640035 1.49263 0
M  V30 425 H 39.3416 -2.42147 3.44881 0
M  V30 426 H 38.0166 -2.32016 2.25722 0
M  V30 427 H 36.9236 -0.511458 3.70587 0
M  V30 428 H 38.2566 -0.692419 4.87305 0
M  V30 429 N 39.9087 -1.5758 0.0250728 0
M  V30 430 C 40.8387 -2.13007 -0.956575 0
M  V30 431 C 41.8197 -1.0452 -1.342 0
M  V30 432 O 43.0047 -1.32332 -1.42133 0
M  V30 433 C 40.1347 -2.65386 -2.24026 0
M  V30 434 C 39.0887 -3.78623 -1.99571 0
M  V30 435 C 38.4147 -4.17414 -3.3417 0
M  V30 436 C 39.7147 -5.04867 -1.33814 0
M  V30 437 H 41.4087 -2.9528 -0.494991 0
M  V30 438 H 38.9547 -1.42042 -0.236651 0
M  V30 439 H 40.9077 -3.02794 -2.93076 0
M  V30 440 H 39.6317 -1.80268 -2.72343 0
M  V30 441 H 38.2907 -3.41646 -1.32941 0
M  V30 442 H 37.9387 -3.29284 -3.80238 0
M  V30 443 H 37.6387 -4.93719 -3.18615 0
M  V30 444 H 39.1627 -4.57402 -4.04495 0
M  V30 445 H 40.5767 -5.39888 -1.92857 0
M  V30 446 H 38.9737 -5.86144 -1.28669 0
M  V30 447 H 40.0437 -4.83904 -0.310561 0
M  V30 448 N 41.3868 0.248026 -1.55636 0
M  V30 449 C 42.7978 0.817177 -1.67866 0
M  V30 450 C 43.1488 1.86069 -0.622322 0
M  V30 451 O 42.2738 2.15157 0.231618 0
M  V30 452 C 42.8688 1.489 -3.04326 0
M  V30 453 C 41.4278 2.00587 -3.185 0
M  V30 454 C 40.5748 0.856573 -2.63739 0
M  V30 455 H 43.5258 0.0238579 -1.58682 0
M  V30 456 H 43.5468 2.35698 -2.98708 0
M  V30 457 H 43.0588 0.729279 -3.81186 0
M  V30 458 H 41.1598 2.79443 -2.4646 0
M  V30 459 H 41.2728 2.20402 -4.25393 0
M  V30 460 H 39.6368 1.25678 -2.21534 0
M  V30 461 H 40.4198 0.109953 -3.43124 0
M  V30 462 N 42.8649 1.48995 0.513639 0
M  V30 463 C 44.1419 1.48338 1.27495 0
M  V30 464 C 44.5219 0.204065 2.10111 0
M  V30 465 O 43.8699 -0.813881 2.13514 0
M  V30 466 C 44.0799 2.75498 2.14247 0
M  V30 467 C 45.4279 3.24484 2.73852 0
M  V30 468 O 46.4519 2.76528 2.24523 0
M  V30 469 O 45.3109 4.07974 3.6362 0
M  V30 470 H 42.4049 0.593149 0.576284 0
M  V30 471 H 44.9509 1.61246 0.528948 0
M  V30 472 H 43.7229 3.60109 1.53092 0
M  V30 473 H 43.3459 2.6539 2.96064 0
M  V30 474 N 44.343 -0.763751 1.37857 0
M  V30 475 C 45.293 -1.86765 1.30777 0
M  V30 476 C 46.277 -1.59726 0.194015 0
M  V30 477 O 47.469 -1.7172 0.42911 0
M  V30 478 C 44.598 -3.24343 1.12502 0
M  V30 479 C 43.684 -3.57307 2.28456 0
M  V30 480 N 44.075 -3.61398 3.53871 0
M  V30 481 C 42.373 -3.87517 2.20786 0
M  V30 482 C 43.074 -3.91339 4.30382 0
M  V30 483 N 42.05 -4.07649 3.59615 0
M  V30 484 H 45.852 -1.88191 2.25746 0
M  V30 485 H 43.366 -0.9606 1.30944 0
M  V30 486 H 45.363 -4.03327 1.05514 0
M  V30 487 H 44.023 -3.24175 0.184574 0
M  V30 488 H 45.034 -3.43407 3.87675 0
M  V30 489 H 41.711 -3.95125 1.34844 0
M  V30 490 H 43.101 -4.01213 5.3896 0
M  V30 491 N 45.8211 -1.22559 -0.990812 0
M  V30 492 C 46.7541 -0.940773 -2.07905 0
M  V30 493 C 47.7321 0.117082 -1.62178 0
M  V30 494 O 48.9161 -0.0149506 -1.88494 0
M  V30 495 C 46.0431 -0.415321 -3.36144 0
M  V30 496 C 45.0891 -1.45818 -4.00799 0
M  V30 497 S 45.9221 -3.03219 -4.41382 0
M  V30 498 C 47.0781 -2.52317 -5.72789 0
M  V30 499 H 47.3111 -1.8623 -2.31745 0
M  V30 500 H 44.8441 -1.05688 -1.12558 0
M  V30 501 H 46.8021 -0.118747 -4.10328 0
M  V30 502 H 45.4631 0.485121 -3.10331 0
M  V30 503 H 44.6561 -1.04044 -4.93144 0
M  V30 504 H 44.2581 -1.70356 -3.32949 0
M  V30 505 H 46.5501 -1.93688 -6.49224 0
M  V30 506 H 47.4931 -3.43161 -6.19392 0
M  V30 507 H 47.9011 -1.93529 -5.30289 0
M  V30 508 N 47.2992 1.18797 -1.03562 0
M  V30 509 C 48.2292 2.24472 -0.643019 0
M  V30 510 C 49.2102 1.66433 0.351283 0
M  V30 511 O 50.3952 1.92803 0.232505 0
M  V30 512 C 47.5252 3.473 4.24935e-05 0
M  V30 513 C 46.4792 4.18055 -0.917257 0
M  V30 514 C 45.8052 5.34519 -0.138941 0
M  V30 515 C 47.1052 4.72109 -2.23407 0
M  V30 516 H 48.7992 2.57566 -1.52643 0
M  V30 517 H 46.3452 1.23806 -0.735394 0
M  V30 518 H 48.2982 4.20426 0.286383 0
M  V30 519 H 47.0222 3.13424 0.918299 0
M  V30 520 H 45.6812 3.46821 -1.1879 0
M  V30 521 H 45.3292 4.96891 0.781562 0
M  V30 522 H 45.0292 5.82794 -0.750005 0
M  V30 523 H 46.5532 6.10438 0.1405 0
M  V30 524 H 47.9672 5.36955 -2.00879 0
M  V30 525 H 46.3642 5.30897 -2.79765 0
M  V30 526 H 47.4342 3.89807 -2.88407 0
M  V30 527 N 48.7773 0.814389 1.34928 0
M  V30 528 C 50.0543 0.321363 1.92942 0
M  V30 529 C 50.4343 -1.19014 1.74353 0
M  V30 530 O 49.7823 -1.99328 1.11716 0
M  V30 531 C 49.9923 0.741323 3.41036 0
M  V30 532 C 51.3403 0.735266 4.18185 0
M  V30 533 O 52.3643 0.68336 3.49584 0
M  V30 534 O 51.2233 0.800703 5.40602 0
M  V30 535 H 48.3173 0.0858893 0.822528 0
M  V30 536 H 50.8633 0.898609 1.43955 0
M  V30 537 H 49.6353 1.78276 3.4833 0
M  V30 538 H 49.2583 0.139307 3.97356 0
M  V30 539 N 50.2554 -1.46986 0.568584 0
M  V30 540 C 51.5034 -2.02041 0.0487022 0
M  V30 541 C 51.8244 -1.44408 -1.31039 0
M  V30 542 O 51.0944 -0.623477 -1.85714 0
M  V30 543 H 49.6744 -0.746849 0.015014 0
M  V30 544 H 52.3364 -1.80257 0.741168 0
M  V30 545 H 51.4324 -3.12085 -0.0308961 0
M  V30 546 N 51.7335 -0.305618 -1.54608 0
M  V30 547 C 52.6635 0.561482 -2.26649 0
M  V30 548 C 53.6445 1.13415 -1.26772 0
M  V30 549 O 54.8295 1.16262 -1.55553 0
M  V30 550 C 51.9595 1.73122 -3.01075 0
M  V30 551 C 50.9135 1.2887 -4.08138 0
M  V30 552 C 50.2395 2.54396 -4.70305 0
M  V30 553 C 51.5395 0.416578 -5.20636 0
M  V30 554 H 53.2335 -0.0393902 -2.99374 0
M  V30 555 H 50.7795 -0.020385 -1.43986 0
M  V30 556 H 52.7325 2.34396 -3.50195 0
M  V30 557 H 51.4565 2.3584 -2.25936 0
M  V30 558 H 50.1155 0.698991 -3.59875 0
M  V30 559 H 49.7635 3.15439 -3.918 0
M  V30 560 H 49.4635 2.25486 -5.42614 0
M  V30 561 H 50.9875 3.16464 -5.2219 0
M  V30 562 H 52.4015 0.935116 -5.65622 0
M  V30 563 H 50.7985 0.221046 -5.99693 0
M  V30 564 H 51.8685 -0.557162 -4.81688 0
M  V30 565 N 53.2116 1.57565 -0.0334293 0
M  V30 566 C 54.1216 2.13943 0.962572 0
M  V30 567 C 55.1376 1.09276 1.35406 0
M  V30 568 O 56.3136 1.41355 1.4346 0
M  V30 569 C 53.3786 2.65887 2.22497 0
M  V30 570 C 52.4396 3.85286 1.8935 0
M  V30 571 C 51.6726 4.34743 3.09571 0
M  V30 572 O 51.8956 3.83352 4.22371 0
M  V30 573 O 50.8296 5.26538 2.91618 0
M  V30 574 H 54.6556 2.99333 0.513169 0
M  V30 575 H 52.2406 1.4822 0.18743 0
M  V30 576 H 54.1226 2.99346 2.96598 0
M  V30 577 H 52.7976 1.83578 2.6661 0
M  V30 578 H 51.7046 3.56746 1.1262 0
M  V30 579 H 53.0376 4.68771 1.5005 0
M  V30 580 N 54.6897 -0.239769 1.55765 0
M  V30 581 C 55.9177 -0.98417 1.81994 0
M  V30 582 C 56.3327 -1.7867 0.610124 0
M  V30 583 O 55.6897 -1.77571 -0.421271 0
M  V30 584 C 55.7407 -1.91635 3.06526 0
M  V30 585 O 55.4617 -1.14629 4.22838 0
M  V30 586 C 56.9627 -2.77616 3.45607 0
M  V30 587 H 54.1827 -0.28928 0.605441 0
M  V30 588 H 56.7267 -0.260499 2.02834 0
M  V30 589 H 54.8817 -2.5942 2.87715 0
M  V30 590 H 55.2957 -1.77745 4.93464 0
M  V30 591 H 56.7697 -3.38759 4.35828 0
M  V30 592 H 57.2467 -3.4909 2.6652 0
M  V30 593 H 57.8527 -2.15271 3.66795 0
M  V30 594 N 56.1678 -1.49265 -0.50573 0
M  V30 595 C 57.4158 -1.582 -1.25766 0
M  V30 596 C 57.7368 -0.268482 -1.93143 0
M  V30 597 O 57.0068 0.711833 -1.8251 0
M  V30 598 H 55.5868 -0.582873 -0.467191 0
M  V30 599 H 58.2488 -1.85865 -0.586525 0
M  V30 600 H 57.3448 -2.37563 -2.02412 0
M  V30 601 N 57.6459 0.756429 -1.3826 0
M  V30 602 C 58.6089 1.85176 -1.35065 0
M  V30 603 C 59.6089 1.58818 -0.251703 0
M  V30 604 O 60.7989 1.66615 -0.508433 0
M  V30 605 C 57.9309 3.22596 -1.10201 0
M  V30 606 H 59.1239 1.89417 -2.3251 0
M  V30 607 H 56.6769 0.95783 -1.23512 0
M  V30 608 H 57.4119 3.24025 -0.133504 0
M  V30 609 H 57.1969 3.43122 -1.89762 0
M  V30 610 H 58.6869 4.02673 -1.10654 0
M  V30 611 N 59.124 1.23083 0.984299 0
M  V30 612 C 60.349 1.088 1.76571 0
M  V30 613 C 60.774 -0.356657 1.84688 0
M  V30 614 O 60.132 -1.25788 1.30565 0
M  V30 615 C 60.18 1.71371 3.17277 0
M  V30 616 O 59.284 0.973213 4.00752 0
M  V30 617 H 58.625 0.381599 0.543395 0
M  V30 618 H 61.155 1.63057 1.23587 0
M  V30 619 H 61.165 1.76449 3.67872 0
M  V30 620 H 59.84 2.76493 3.10684 0
M  V30 621 H 58.417 0.999078 3.59267 0
M  V30 622 N 60.6021 -1.18246 1.0419 0
M  V30 623 C 61.8481 -1.88536 0.747122 0
M  V30 624 C 62.1811 -1.80223 -0.723409 0
M  V30 625 O 61.4561 -1.20337 -1.52804 0
M  V30 626 C 61.7391 -3.38968 1.21544 0
M  V30 627 C 61.5921 -3.56084 2.74816 0
M  V30 628 C 62.9111 -4.32648 0.806482 0
M  V30 629 H 60.0301 -0.684619 0.272883 0
M  V30 630 H 62.6721 -1.39113 1.29413 0
M  V30 631 H 60.8221 -3.8119 0.750081 0
M  V30 632 H 62.4941 -3.22946 3.29399 0
M  V30 633 H 60.7371 -2.98699 3.14582 0
M  V30 634 H 61.4081 -4.61639 3.02644 0
M  V30 635 H 63.8841 -3.98211 1.20695 0
M  V30 636 H 62.7601 -5.36462 1.1619 0
M  V30 637 H 63.0211 -4.41146 -0.29029 0
M  V30 638 N 62.0802 -0.821533 -1.34494 0
M  V30 639 C 63.0432 -0.247847 -2.27856 0
M  V30 640 C 64.0432 0.573453 -1.50227 0
M  V30 641 O 65.2332 0.389759 -1.69784 0
M  V30 642 C 62.3652 0.652698 -3.34593 0
M  V30 643 H 63.5582 -1.07146 -2.80107 0
M  V30 644 H 61.1112 -0.593291 -1.44602 0
M  V30 645 H 61.8462 1.49943 -2.87555 0
M  V30 646 H 61.6312 0.065292 -3.92046 0
M  V30 647 H 63.1212 1.04793 -4.04238 0
M  V30 648 N 63.5583 1.46682 -0.576371 0
M  V30 649 C 64.5083 2.27278 0.181288 0
M  V30 650 C 65.4923 1.35497 0.867721 0
M  V30 651 O 66.6843 1.59717 0.762863 0
M  V30 652 C 63.8133 3.21703 1.19841 0
M  V30 653 C 62.8993 4.20969 0.51442 0
M  V30 654 N 63.2903 5.03999 -0.426407 0
M  V30 655 C 61.5883 4.39373 0.765963 0
M  V30 656 C 62.2893 5.75812 -0.825565 0
M  V30 657 N 61.2653 5.43315 -0.176116 0
M  V30 658 H 65.0673 2.88863 -0.541785 0
M  V30 659 H 62.5813 1.57455 -0.397697 0
M  V30 660 H 64.5783 3.78145 1.75533 0
M  V30 661 H 63.2383 2.61677 1.92238 0
M  V30 662 H 64.2493 5.11659 -0.8016 0
M  V30 663 H 60.9263 3.90502 1.47698 0
M  V30 664 H 62.3163 6.52577 -1.59976 0
M  V30 665 N 65.0364 0.313813 1.54444 0
M  V30 666 C 65.9844 -0.572171 2.25453 0
M  V30 667 C 66.9784 -1.12657 1.2651 0
M  V30 668 O 68.1844 -1.07573 1.44319 0
M  V30 669 H 64.5594 -0.203146 0.724041 0
M  V30 670 H 66.5304 0.0491145 2.9836 0
M  V30 671 C 65.2794 -1.72626 3.0182 0
M  V30 672 H 64.6024 -1.30891 3.77767 0
M  V30 673 H 66.0424 -2.32199 3.54767 0
M  V30 674 C 64.5014 -2.63806 2.09542 0
M  V30 675 O 65.0314 -3.65256 1.67185 0
M  V30 676 N 63.2374 -2.31824 1.75232 0
M  V30 677 H 62.7844 -1.49368 2.09873 0
M  V30 678 H 62.7424 -2.93095 1.13767 0
M  V30 679 N 66.5145 -1.57545 0.0417849 0
M  V30 680 C 67.7625 -1.91937 -0.632829 0
M  V30 681 C 68.0835 -0.919978 -1.71934 0
M  V30 682 O 67.3535 0.0366064 -1.95866 0
M  V30 683 H 65.9335 -0.708493 -0.236742 0
M  V30 684 H 68.5955 -1.9468 0.0925745 0
M  V30 685 H 67.6915 -2.92912 -1.07746 0
M  V30 686 N 67.9926 0.231505 -1.5589 0
M  V30 687 C 69.2326 0.964533 -1.80211 0
M  V30 688 C 69.5966 1.81926 -0.613744 0
M  V30 689 O 70.7976 2.58526 -0.736045 0
M  V30 690 C 69.0686 1.78956 -3.09369 0
M  V30 691 S 70.6276 2.57959 -3.54969 0
M  V30 692 H 67.4456 0.324173 -0.632798 0
M  V30 693 H 70.0476 0.230985 -1.94131 0
M  V30 694 H 68.7516 1.15161 -3.93911 0
M  V30 695 H 68.2826 2.56559 -2.9823 0
M  V30 696 H 70.2976 3.81309 -3.17519 0
M  V30 697 N 69.4707 1.49531 0.497807 0
M  V30 698 C 70.7107 1.60799 1.26187 0
M  V30 699 C 71.0747 0.289627 1.89803 0
M  V30 700 O 72.2757 0.277512 2.67364 0
M  V30 701 C 70.5467 2.73729 2.29798 0
M  V30 702 S 72.1057 3.04968 3.155 0
M  V30 703 H 68.9237 0.567145 0.428798 0
M  V30 704 H 71.5257 1.87204 0.563477 0
M  V30 705 H 70.2297 3.68036 1.81597 0
M  V30 706 H 69.7607 2.49328 3.04301 0
M  V30 707 H 71.7757 2.46735 4.30507 0
M  V30 708 N 70.9488 -0.749086 1.3866 0
M  V30 709 C 71.8788 -1.8764 1.38973 0
M  V30 710 C 72.8598 -1.68178 0.255004 0
M  V30 711 O 74.0448 -1.88704 0.458754 0
M  V30 712 C 71.1748 -3.25222 1.21851 0
M  V30 713 C 70.1288 -3.59295 2.32575 0
M  V30 714 C 69.4548 -4.95663 2.00555 0
M  V30 715 C 70.7548 -3.63709 3.7485 0
M  V30 716 H 72.4488 -1.87635 2.3331 0
M  V30 717 H 69.9948 -0.901329 1.12303 0
M  V30 718 H 71.9478 -4.03746 1.20695 0
M  V30 719 H 70.6718 -3.25719 0.239775 0
M  V30 720 H 69.3308 -2.83093 2.32925 0
M  V30 721 H 68.9788 -4.92724 1.01154 0
M  V30 722 H 68.6788 -5.19429 2.74714 0
M  V30 723 H 70.2028 -5.7656 2.01024 0
M  V30 724 H 71.6168 -4.32338 3.76506 0
M  V30 725 H 70.0138 -3.98986 4.48252 0
M  V30 726 H 71.0838 -2.63834 4.06841 0
M  V30 727 N 72.4269 -1.23603 -0.977757 0
M  V30 728 C 73.6549 -1.09646 -1.75458 0
M  V30 729 C 74.0699 0.351859 -1.85492 0
M  V30 730 O 73.4269 1.24327 -1.336 0
M  V30 731 C 73.4779 -1.71895 -3.18016 0
M  V30 732 O 73.1989 -3.11063 -3.08498 0
M  V30 733 C 74.6999 -1.63415 -4.12081 0
M  V30 734 H 71.9199 -0.38359 -0.550545 0
M  V30 735 H 74.4639 -1.63507 -1.22824 0
M  V30 736 H 72.6189 -1.22061 -3.67668 0
M  V30 737 H 73.0329 -3.41305 -3.9826 0
M  V30 738 H 74.5069 -2.11669 -5.09804 0
M  V30 739 H 74.9839 -0.593462 -4.35172 0
M  V30 740 H 75.5899 -2.12628 -3.68334 0
M  V30 741 N 73.905 1.17692 -1.04816 0
M  V30 742 C 75.151 1.88137 -0.75711 0
M  V30 743 C 75.484 1.80604 0.713841 0
M  V30 744 O 74.759 1.21146 1.52164 0
M  V30 745 C 75.042 3.38318 -1.2334 0
M  V30 746 C 74.895 3.54622 -2.76701 0
M  V30 747 C 76.214 4.32214 -0.829415 0
M  V30 748 H 73.333 0.683163 -0.27651 0
M  V30 749 H 75.975 1.38424 -1.30149 0
M  V30 750 H 74.125 3.80787 -0.770286 0
M  V30 751 H 75.797 3.21194 -3.31107 0
M  V30 752 H 74.04 2.97026 -3.16161 0
M  V30 753 H 74.711 4.60028 -3.05088 0
M  V30 754 H 77.187 3.97565 -1.22805 0
M  V30 755 H 76.063 5.35838 -1.19033 0
M  V30 756 H 76.324 4.41294 0.266891 0
M  V30 757 N 75.3831 0.828654 1.34056 0
M  V30 758 C 76.6111 0.43262 2.02326 0
M  V30 759 C 77.0261 -0.963147 1.62385 0
M  V30 760 O 76.3831 -1.62425 0.832121 0
M  V30 761 C 76.4341 0.53182 3.57567 0
M  V30 762 O 76.1551 1.87258 3.96063 0
M  V30 763 C 77.6561 0.131422 4.43105 0
M  V30 764 H 74.8761 0.172923 0.648335 0
M  V30 765 H 77.4201 1.1184 1.71208 0
M  V30 766 H 75.5751 -0.105938 3.87255 0
M  V30 767 H 75.9891 1.85087 4.90758 0
M  V30 768 H 77.4631 0.251904 5.51425 0
M  V30 769 H 77.9401 -0.925645 4.29335 0
M  V30 770 H 78.5461 0.743207 4.18756 0
M  V30 771 N 76.8612 -1.46375 0.584142 0
M  V30 772 C 77.7712 -2.34115 -0.150728 0
M  V30 773 C 78.7872 -1.49838 -0.884567 0
M  V30 774 O 79.9632 -1.82704 -0.847429 0
M  V30 775 C 77.0282 -3.2705 -1.15062 0
M  V30 776 C 76.0892 -4.27228 -0.421293 0
M  V30 777 C 75.3222 -5.15722 -1.37355 0
M  V30 778 O 75.5452 -5.07176 -2.61014 0
M  V30 779 O 74.4792 -5.95383 -0.883355 0
M  V30 780 H 78.3052 -2.98309 0.569708 0
M  V30 781 H 75.8902 -1.45373 0.344535 0
M  V30 782 H 77.7722 -3.84381 -1.72712 0
M  V30 783 H 76.4472 -2.65451 -1.8525 0
M  V30 784 H 75.3542 -3.7358 0.197085 0
M  V30 785 H 76.6872 -4.91616 0.239641 0
M  V30 786 N 78.3393 -0.321999 -1.54275 0
M  V30 787 C 79.5883 0.281931 -1.9972 0
M  V30 788 C 79.9013 1.53369 -1.21397 0
M  V30 789 O 81.1073 2.21352 -1.57211 0
M  V30 790 C 79.5633 0.5529 -3.55628 0
M  V30 791 C 79.1713 -0.681721 -4.42783 0
M  V30 792 C 80.9153 1.11687 -4.09544 0
M  V30 793 C 78.8223 -0.382742 -5.9016 0
M  V30 794 H 77.7523 0.109124 -0.746062 0
M  V30 795 H 80.4033 -0.43398 -1.78294 0
M  V30 796 H 78.7853 1.32896 -3.73035 0
M  V30 797 H 79.9593 -1.45723 -4.37151 0
M  V30 798 H 78.2743 -1.1658 -3.99748 0
M  V30 799 H 80.8713 1.35515 -5.17242 0
M  V30 800 H 81.2143 2.06575 -3.61431 0
M  V30 801 H 81.7473 0.402032 -3.95763 0
M  V30 802 H 78.4863 -1.30076 -6.42464 0
M  V30 803 H 78.0063 0.355094 -5.98748 0
M  V30 804 H 79.6853 0.00800157 -6.47 0
M  V30 805 N 79.8174 1.5752 -0.0501392 0
M  V30 806 C 80.7654 2.12651 0.942459 0
M  V30 807 C 81.7594 1.05807 1.32292 0
M  V30 808 O 82.9654 1.24217 1.3027 0
M  V30 809 H 79.3404 0.679673 0.321789 0
M  V30 810 H 81.3114 2.94951 0.452356 0
M  V30 811 C 80.0604 2.68565 2.20836 0
M  V30 812 H 79.3834 3.50439 1.92439 0
M  V30 813 H 80.8234 3.10761 2.8845 0
M  V30 814 C 79.2824 1.62291 2.95234 0
M  V30 815 O 79.8124 1.03508 3.88135 0
M  V30 816 N 78.0184 1.33836 2.57946 0
M  V30 817 H 77.5654 1.81826 1.82475 0
M  V30 818 H 77.5234 0.629595 3.08032 0
M  V30 819 N 81.2955 -0.223234 1.56011 0
M  V30 820 C 82.5435 -0.946003 1.78592 0
M  V30 821 C 82.8645 -1.84936 0.618349 0
M  V30 822 O 82.1345 -1.92473 -0.364833 0
M  V30 823 H 80.7145 -0.352298 0.658707 0
M  V30 824 H 83.3765 -0.235494 1.93472 0
M  V30 825 H 82.4725 -1.55381 2.70672 0
M  V30 826 N 82.7736 -1.49793 -0.48987 0
M  V30 827 C 83.7216 -1.67783 -1.61095 0
M  V30 828 C 84.7156 -0.543683 -1.60438 0
M  V30 829 O 85.9216 -0.723647 -1.64813 0
M  V30 830 H 82.2966 -0.529255 -0.534222 0
M  V30 831 H 84.2676 -2.61861 -1.43078 0
M  V30 832 C 83.0166 -1.77191 -2.99164 0
M  V30 833 H 82.3396 -2.63841 -3.0038 0
M  V30 834 H 83.7796 -1.93809 -3.77113 0
M  V30 835 C 82.2386 -0.519203 -3.32875 0
M  V30 836 O 82.7686 0.350124 -4.00171 0
M  V30 837 N 80.9746 -0.378816 -2.8812 0
M  V30 838 H 80.5216 -1.08725 -2.33531 0
M  V30 839 H 80.4796 0.458239 -3.11043 0
M  V30 840 N 84.2517 0.741722 -1.39055 0
M  V30 841 C 85.2017 1.84661 -1.33732 0
M  V30 842 C 86.1857 1.59397 -0.219401 0
M  V30 843 O 87.3777 1.71015 -0.456375 0
M  V30 844 C 84.5067 3.22512 -1.17647 0
M  V30 845 C 83.5927 3.53628 -2.34112 0
M  V30 846 N 83.9837 3.55723 -3.59576 0
M  V30 847 C 82.2817 3.83956 -2.26923 0
M  V30 848 C 82.9827 3.84443 -4.36553 0
M  V30 849 N 81.9587 4.01877 -3.66055 0
M  V30 850 H 85.7607 1.84576 -2.28711 0
M  V30 851 H 83.2747 0.939647 -1.32455 0
M  V30 852 H 85.2717 4.01597 -1.11917 0
M  V30 853 H 83.9317 3.2384 -0.236124 0
M  V30 854 H 84.9427 3.37196 -3.93089 0
M  V30 855 H 81.6197 3.92929 -1.41113 0
M  V30 856 H 83.0097 3.92588 -5.45274 0
M  V30 857 N 85.7298 1.2412 0.971189 0
M  V30 858 C 86.9758 1.08041 1.71625 0
M  V30 859 C 87.3088 -0.380407 1.90438 0
M  V30 860 O 86.5838 -1.28127 1.46334 0
M  V30 861 C 86.8668 1.81682 3.10908 0
M  V30 862 C 86.7198 3.35493 2.99608 0
M  V30 863 C 88.0388 1.58671 4.10501 0
M  V30 864 H 85.1578 0.39388 0.622919 0
M  V30 865 H 87.7998 1.52743 1.13003 0
M  V30 866 H 85.9498 1.43684 3.60953 0
M  V30 867 H 87.6218 3.83068 2.57015 0
M  V30 868 H 85.8648 3.64052 2.35899 0
M  V30 869 H 86.5358 3.82217 3.98264 0
M  V30 870 H 89.0118 1.91719 3.69301 0
M  V30 871 H 87.8878 2.1266 5.06031 0
M  V30 872 H 88.1488 0.524161 4.38982 0
M  V30 873 N 87.2079 -1.17134 1.05439 0
M  V30 874 C 88.4329 -1.91913 0.786396 0
M  V30 875 C 88.8579 -1.7643 -0.652234 0
M  V30 876 O 88.2159 -1.08372 -1.45345 0
M  V30 877 C 88.2639 -3.40921 1.17497 0
M  V30 878 O 87.3679 -4.11244 0.308589 0
M  V30 879 H 86.7089 -0.598215 0.288158 0
M  V30 880 H 89.2389 -1.48457 1.4079 0
M  V30 881 H 89.2489 -3.91668 1.14281 0
M  V30 882 H 87.9239 -3.5151 2.22292 0
M  V30 883 H 86.5009 -3.70731 0.40157 0
M  V30 884 N 88.686 -0.835752 -1.33615 0
M  V30 885 C 89.933 -0.429959 -1.97883 0
M  V30 886 C 90.261 1.01006 -1.66217 0
M  V30 887 O 89.516 1.72047 -0.93265 0
M  V30 888 C 89.815 -0.593925 -3.52431 0
M  V30 889 C 89.481 -2.00158 -4.04039 0
M  V30 890 C 88.143 -2.38662 -4.17844 0
M  V30 891 C 90.495 -2.92117 -4.31644 0
M  V30 892 C 87.823 -3.68435 -4.56588 0
M  V30 893 C 90.175 -4.21368 -4.71838 0
M  V30 894 C 88.839 -4.59833 -4.83849 0
M  V30 895 H 88.109 -0.157333 -0.724104 0
M  V30 896 H 90.756 -1.06217 -1.59343 0
M  V30 897 H 89.061 0.121619 -3.91611 0
M  V30 898 H 90.758 -0.260282 -4.00154 0
M  V30 899 H 87.348 -1.69252 -3.93766 0
M  V30 900 H 91.532 -2.63608 -4.20505 0
M  V30 901 H 86.788 -3.98046 -4.64079 0
M  V30 902 H 90.962 -4.92703 -4.92155 0
M  V30 903 H 88.589 -5.60438 -5.13627 0
M  V30 904 N 90.1641 1.46063 -0.591896 0
M  V30 905 C 91.4411 1.95595 -0.0137119 0
M  V30 906 C 91.8211 1.5345 1.4497 0
M  V30 907 O 91.1691 0.789543 2.14426 0
M  V30 908 C 91.3791 3.48453 -0.195373 0
M  V30 909 C 92.7271 4.24546 -0.0679765 0
M  V30 910 O 93.7511 3.55982 -0.124681 0
M  V30 911 O 92.6101 5.46467 0.0600579 0
M  V30 912 H 89.7041 0.825795 0.0446279 0
M  V30 913 H 92.2501 1.56303 -0.660859 0
M  V30 914 H 91.0221 3.72045 -1.21235 0
M  V30 915 H 90.6451 3.94597 0.487775 0
M  V30 916 N 91.6422 0.330177 1.54103 0
M  V30 917 C 92.5722 -0.525353 2.27513 0
M  V30 918 C 93.5532 -1.11383 1.2856 0
M  V30 919 O 94.7382 -1.13773 1.57383 0
M  V30 920 C 91.8682 -1.6831 3.03791 0
M  V30 921 C 90.8222 -1.2236 4.10137 0
M  V30 922 C 90.1482 -2.46882 4.74293 0
M  V30 923 C 91.4482 -0.333697 5.21233 0
M  V30 924 H 93.1422 0.087013 2.99274 0
M  V30 925 H 90.6882 0.0432893 1.43935 0
M  V30 926 H 92.6412 -2.28795 3.5388 0
M  V30 927 H 91.3652 -2.32216 2.29659 0
M  V30 928 H 90.0242 -0.64165 3.60941 0
M  V30 929 H 89.6722 -3.09165 3.96769 0
M  V30 930 H 89.3722 -2.16825 5.46133 0
M  V30 931 H 90.8962 -3.08117 5.27159 0
M  V30 932 H 92.3102 -0.845013 5.67038 0
M  V30 933 H 90.7072 -0.125612 5.99969 0
M  V30 934 H 91.7772 0.633724 4.80741 0
M  V30 935 N 93.1203 -1.57491 0.0584922 0
M  V30 936 C 94.0533 -2.07533 -0.948969 0
M  V30 937 C 95.0313 -0.977444 -1.29942 0
M  V30 938 O 96.2153 -1.2499 -1.41102 0
M  V30 939 C 93.3423 -2.52192 -2.2609 0
M  V30 940 C 92.3883 -3.73287 -2.06298 0
M  V30 941 S 93.2213 -5.18603 -1.33459 0
M  V30 942 C 94.3773 -5.66583 -2.65959 0
M  V30 943 H 94.6103 -2.92662 -0.523118 0
M  V30 944 H 92.1433 -1.53631 -0.153954 0
M  V30 945 H 94.1013 -2.78585 -3.01498 0
M  V30 946 H 92.7623 -1.67356 -2.65802 0
M  V30 947 H 91.9553 -4.0248 -3.03357 0
M  V30 948 H 91.5573 -3.47199 -1.39029 0
M  V30 949 H 93.8493 -5.72616 -3.62101 0
M  V30 950 H 94.7923 -6.65684 -2.41393 0
M  V30 951 H 95.2003 -4.94342 -2.72554 0
M  V30 952 N 94.5984 0.214957 -1.56127 0
M  V30 953 C 95.5454 1.26642 -1.92952 0
M  V30 954 C 96.5154 1.46244 -0.78753 0
M  V30 955 O 97.7004 1.59704 -1.04399 0
M  V30 956 C 94.8404 2.6104 -2.25726 0
M  V30 957 C 93.9534 2.49183 -3.52891 0
M  V30 958 C 93.0884 3.76149 -3.7508 0
M  V30 959 C 92.1274 3.59041 -4.95738 0
M  V30 960 N 91.2644 4.77972 -5.14283 0
M  V30 961 H 96.1044 0.945384 -2.82607 0
M  V30 962 H 93.6414 0.455489 -1.3987 0
M  V30 963 H 95.5994 3.39313 -2.42739 0
M  V30 964 H 94.2294 2.91227 -1.39236 0
M  V30 965 H 93.2814 1.6231 -3.44034 0
M  V30 966 H 94.5934 2.32466 -4.41318 0
M  V30 967 H 93.7474 4.62865 -3.92226 0
M  V30 968 H 92.4864 3.95799 -2.84947 0
M  V30 969 H 91.4914 2.7071 -4.78535 0
M  V30 970 H 92.7164 3.40856 -5.87362 0
M  V30 971 H 90.6624 4.97923 -4.27093 0
M  V30 972 H 90.5794 4.64006 -5.96853 0
M  V30 973 H 91.8474 5.66096 -5.35869 0
M  V30 974 N 96.0765 1.50051 0.48192 0
M  V30 975 C 96.9865 1.7089 1.60728 0
M  V30 976 C 98.0025 0.591788 1.63627 0
M  V30 977 O 99.1785 0.868817 1.81696 0
M  V30 978 C 96.2435 1.78855 2.97005 0
M  V30 979 C 95.3045 3.02537 3.04581 0
M  V30 980 C 94.5375 3.10112 4.34357 0
M  V30 981 O 94.7605 2.24765 5.24249 0
M  V30 982 O 93.6945 4.02747 4.47301 0
M  V30 983 H 97.5205 2.66264 1.46072 0
M  V30 984 H 95.1055 1.34018 0.660264 0
M  V30 985 H 96.9875 1.86336 3.77964 0
M  V30 986 H 95.6625 0.866628 3.11883 0
M  V30 987 H 94.5695 3.00563 2.22739 0
M  V30 988 H 95.9025 3.94272 2.94636 0
M  V30 989 N 97.5546 -0.734337 1.39446 0
M  V30 990 C 98.7826 -1.52358 1.39981 0
M  V30 991 C 99.1976 -1.88799 -0.0054975 0
M  V30 992 O 98.5546 -1.54146 -0.976998 0
M  V30 993 C 98.6056 -2.81072 2.27333 0
M  V30 994 O 98.3266 -2.46178 3.62392 0
M  V30 995 C 99.8276 -3.75096 2.36259 0
M  V30 996 H 97.0476 -0.470806 0.478103 0
M  V30 997 H 99.5916 -0.907339 1.83269 0
M  V30 998 H 97.7466 -3.39026 1.87457 0
M  V30 999 H 98.1606 -3.28866 4.08592 0
M  V30 1000 H 99.6346 -4.62305 3.01626 0
M  V30 1001 H 100.112 -4.16892 1.38194 0
M  V30 1002 H 100.718 -3.23061 2.76608 0
M  V30 1003 N 99.0327 -1.24633 -0.964593 0
M  V30 1004 C 99.9627 -1.06611 -2.07741 0
M  V30 1005 C 100.944 0.0218666 -1.70086 0
M  V30 1006 O 102.129 -0.145793 -1.93652 0
M  V30 1007 C 99.2587 -0.673444 -3.40708 0
M  V30 1008 C 98.2127 -1.71054 -3.92332 0
M  V30 1009 C 97.5387 -1.17285 -5.21678 0
M  V30 1010 C 98.8387 -3.10718 -4.19824 0
M  V30 1011 H 100.533 -1.99693 -2.23076 0
M  V30 1012 H 98.0787 -0.96152 -1.07195 0
M  V30 1013 H 100.032 -0.534345 -4.17998 0
M  V30 1014 H 98.7557 0.293073 -3.25282 0
M  V30 1015 H 97.4147 -1.83791 -3.17201 0
M  V30 1016 H 97.0627 -0.196847 -5.02615 0
M  V30 1017 H 96.7627 -1.86592 -5.57187 0
M  V30 1018 H 98.2867 -1.04593 -6.01575 0
M  V30 1019 H 99.7007 -3.01192 -4.87808 0
M  V30 1020 H 98.0977 -3.77406 -4.66567 0
M  V30 1021 H 99.1677 -3.58524 -3.26479 0
M  V30 1022 N 100.511 1.16574 -1.06058 0
M  V30 1023 C 101.927 1.3904 -0.783585 0
M  V30 1024 C 102.127 1.91784 0.618145 0
M  V30 1025 O 101.183 2.11511 1.37911 0
M  V30 1026 C 102.496 2.37329 -1.84649 0
M  V30 1027 C 104.044 2.51018 -1.86973 0
M  V30 1028 C 104.519 3.52588 -2.92311 0
M  V30 1029 N 106.01 3.60113 -2.91329 0
M  V30 1030 C 106.745 4.38486 -3.69482 0
M  V30 1031 N 106.241 5.20302 -4.57447 0
M  V30 1032 N 108.034 4.33446 -3.57885 0
M  V30 1033 H 100.185 0.806725 -1.96483 0
M  V30 1034 H 102.448 0.417117 -0.851303 0
M  V30 1035 H 102.154 2.05663 -2.85299 0
M  V30 1036 H 102.028 3.36946 -1.6955 0
M  V30 1037 H 104.415 2.81989 -0.869827 0
M  V30 1038 H 104.496 1.51445 -2.0615 0
M  V30 1039 H 104.14 3.22354 -3.92492 0
M  V30 1040 H 104.07 4.51886 -2.70383 0
M  V30 1041 H 106.561 3.01707 -2.27555 0
M  V30 1042 H 106.874 5.77311 -5.13743 0
M  V30 1043 H 105.219 5.19653 -4.61503 0
M  V30 1044 H 108.41 3.68586 -2.88551 0
M  V30 1045 H 108.583 4.94279 -4.19037 0
M  V30 1046 N 101.989 0.842826 1.3317 0
M  V30 1047 C 103.238 0.436738 1.96915 0
M  V30 1048 C 103.551 -1.01025 1.67491 0
M  V30 1049 O 104.757 -1.5212 2.24881 0
M  V30 1050 C 103.213 0.730021 3.52418 0
M  V30 1051 C 102.821 2.19195 3.90714 0
M  V30 1052 C 104.565 0.391076 4.22695 0
M  V30 1053 C 102.472 2.42907 5.39212 0
M  V30 1054 H 101.402 0.15958 0.736919 0
M  V30 1055 H 104.053 1.03196 1.51733 0
M  V30 1056 H 102.435 0.0643755 3.95948 0
M  V30 1057 H 103.609 2.8984 3.58231 0
M  V30 1058 H 101.924 2.49425 3.33431 0
M  V30 1059 H 104.521 0.545817 5.31907 0
M  V30 1060 H 104.864 -0.666294 4.10933 0
M  V30 1061 H 105.397 1.01212 3.84709 0
M  V30 1062 H 102.136 3.47224 5.55982 0
M  V30 1063 H 101.656 1.76827 5.73142 0
M  V30 1064 H 103.335 2.2626 6.06148 0
M  V30 1065 N 103.467 -1.45747 0.599634 0
M  V30 1066 C 104.695 -2.06668 0.0978551 0
M  V30 1067 C 105.11 -1.44562 -1.21439 0
M  V30 1068 O 104.467 -0.556923 -1.73795 0
M  V30 1069 C 104.518 -3.61456 -0.0567044 0
M  V30 1070 O 104.239 -4.21242 1.20361 0
M  V30 1071 C 105.74 -4.39345 -0.590869 0
M  V30 1072 H 102.96 -0.667825 0.0651943 0
M  V30 1073 H 105.504 -1.87115 0.82511 0
M  V30 1074 H 103.659 -3.80378 -0.734251 0
M  V30 1075 H 104.073 -5.14323 1.02821 0
M  V30 1076 H 105.547 -5.48182 -0.648131 0
M  V30 1077 H 106.024 -4.08568 -1.61147 0
M  V30 1078 H 106.63 -4.25268 0.0523679 0
M  V30 1079 N 104.945 -0.338344 -1.53925 0
M  V30 1080 C 105.893 0.536231 -2.26335 0
M  V30 1081 C 106.887 1.1063 -1.28286 0
M  V30 1082 O 108.093 1.05264 -1.46012 0
M  V30 1083 H 104.468 0.191602 -0.727181 0
M  V30 1084 H 106.439 -0.0965747 -2.98244 0
M  V30 1085 C 105.188 1.67803 -3.04528 0
M  V30 1086 H 104.511 1.24864 -3.79801 0
M  V30 1087 H 105.951 2.26526 -3.58416 0
M  V30 1088 C 104.41 2.60439 -2.13712 0
M  V30 1089 O 104.94 3.6255 -1.72975 0
M  V30 1090 N 103.146 2.29006 -1.78898 0
M  V30 1091 H 102.693 1.46011 -2.12223 0
M  V30 1092 H 102.651 2.91248 -1.18416 0
M  V30 1093 N 106.423 1.57458 -0.0668435 0
M  V30 1094 C 107.353 2.15468 0.899764 0
M  V30 1095 C 108.334 1.08042 1.31381 0
M  V30 1096 O 109.519 1.36054 1.38574 0
M  V30 1097 C 106.649 2.71232 2.16911 0
M  V30 1098 C 105.603 3.83781 1.89463 0
M  V30 1099 C 104.929 4.26127 3.22986 0
M  V30 1100 C 106.229 5.08238 1.20381 0
M  V30 1101 H 107.923 2.96488 0.416529 0
M  V30 1102 H 105.469 1.4262 0.198908 0
M  V30 1103 H 107.422 3.10458 2.84945 0
M  V30 1104 H 106.146 1.87426 2.67468 0
M  V30 1105 H 104.805 3.45051 1.23836 0
M  V30 1106 H 104.453 3.39249 3.71374 0
M  V30 1107 H 104.153 5.01993 3.05413 0
M  V30 1108 H 105.677 4.67966 3.92225 0
M  V30 1109 H 107.091 5.44811 1.78475 0
M  V30 1110 H 105.488 5.89349 1.13083 0
M  V30 1111 H 106.558 4.84558 0.182153 0
M  V30 1112 N 107.901 -0.206675 1.56239 0
M  V30 1113 C 109.149 -0.927007 1.79586 0
M  V30 1114 C 109.47 -1.8427 0.637929 0
M  V30 1115 O 108.74 -1.92849 -0.344398 0
M  V30 1116 H 107.32 -0.345292 0.662407 0
M  V30 1117 H 109.982 -0.21496 1.93711 0
M  V30 1118 H 109.078 -1.52501 2.72305 0
M  V30 1119 N 109.379 -1.50304 -0.473955 0
M  V30 1120 C 110.656 -1.51667 -1.23518 0
M  V30 1121 C 111.036 -0.259701 -2.09496 0
M  V30 1122 O 110.384 0.756986 -2.15597 0
M  V30 1123 C 110.594 -2.81082 -2.06868 0
M  V30 1124 C 111.942 -3.31631 -2.65153 0
M  V30 1125 O 112.966 -2.82384 -2.17113 0
M  V30 1126 O 111.825 -4.17471 -3.52675 0
M  V30 1127 H 108.919 -0.60822 -0.560355 0
M  V30 1128 H 111.465 -1.62592 -0.486011 0
M  V30 1129 H 110.237 -3.64041 -1.4349 0
M  V30 1130 H 109.86 -2.73146 -2.88924 0
M  V30 1131 N 110.857 0.726932 -1.39834 0
M  V30 1132 C 111.787 1.85405 -1.41941 0
M  V30 1133 C 112.768 1.67751 -0.281728 0
M  V30 1134 O 113.953 1.8795 -0.488717 0
M  V30 1135 C 111.083 3.23243 -1.2701 0
M  V30 1136 C 110.037 3.55549 -2.38262 0
M  V30 1137 C 109.363 4.9241 -2.08415 0
M  V30 1138 C 110.663 3.577 -3.80589 0
M  V30 1139 H 112.357 1.83899 -2.36266 0
M  V30 1140 H 109.903 0.883349 -1.13723 0
M  V30 1141 H 111.856 4.01775 -1.27103 0
M  V30 1142 H 110.58 3.25296 -0.291564 0
M  V30 1143 H 109.239 2.79351 -2.37399 0
M  V30 1144 H 108.887 4.91052 -1.0898 0
M  V30 1145 H 108.587 5.14992 -2.82943 0
M  V30 1146 H 110.111 5.73289 -2.10171 0
M  V30 1147 H 111.525 4.26293 -3.83337 0
M  V30 1148 H 109.922 3.91804 -4.54543 0
M  V30 1149 H 110.992 2.57328 -4.10987 0
M  V30 1150 N 112.336 1.25143 0.95797 0
M  V30 1151 C 113.283 1.05235 2.05412 0
M  V30 1152 C 114.253 -0.0374561 1.66058 0
M  V30 1153 O 115.438 0.119073 1.90428 0
M  V30 1154 C 112.578 0.673589 3.38462 0
M  V30 1155 C 111.691 1.8379 3.90954 0
M  V30 1156 C 110.826 1.40381 5.12315 0
M  V30 1157 C 109.865 2.53746 5.57027 0
M  V30 1158 N 109.002 2.11136 6.69601 0
M  V30 1159 H 113.842 1.99048 2.21774 0
M  V30 1160 H 111.379 0.991277 1.08683 0
M  V30 1161 H 113.337 0.434964 4.14926 0
M  V30 1162 H 111.967 -0.227554 3.21997 0
M  V30 1163 H 111.019 2.18992 3.11041 0
M  V30 1164 H 112.331 2.68937 4.20089 0
M  V30 1165 H 111.485 1.12464 5.96185 0
M  V30 1166 H 110.224 0.523015 4.84887 0
M  V30 1167 H 109.229 2.82412 4.71724 0
M  V30 1168 H 110.454 3.42398 5.86464 0
M  V30 1169 H 108.4 1.25468 6.4389 0
M  V30 1170 H 108.317 2.89832 6.98236 0
M  V30 1171 H 109.585 1.86385 7.56889 0
M  V30 1172 N 113.814 -1.1601 1.06675 0
M  V30 1173 C 115.06 -1.86909 0.786945 0
M  V30 1174 C 115.393 -1.81717 -0.685018 0
M  V30 1175 O 114.668 -1.23551 -1.50218 0
M  V30 1176 C 114.951 -3.36313 1.28707 0
M  V30 1177 C 114.804 -3.50175 2.82308 0
M  V30 1178 C 116.123 -4.3084 0.898071 0
M  V30 1179 H 113.242 -0.678677 0.287343 0
M  V30 1180 H 115.884 -1.36336 1.32334 0
M  V30 1181 H 114.034 -3.79513 0.830768 0
M  V30 1182 H 115.706 -3.15886 3.36175 0
M  V30 1183 H 113.949 -2.91959 3.20847 0
M  V30 1184 H 114.62 -4.55116 3.12368 0
M  V30 1185 H 117.096 -3.95561 1.29114 0
M  V30 1186 H 115.972 -5.33876 1.27543 0
M  V30 1187 H 116.233 -4.41662 -0.196651 0
M  V30 1188 N 115.292 -0.849877 -1.32721 0
M  V30 1189 C 116.54 -0.450032 -1.97026 0
M  V30 1190 C 116.861 0.996604 -1.67609 0
M  V30 1191 O 116.131 1.6958 -0.980786 0
M  V30 1192 H 114.711 -0.163426 -0.728904 0
M  V30 1193 H 117.373 -1.08526 -1.6189 0
M  V30 1194 H 116.469 -0.591146 -3.0645 0
M  V30 1195 N 116.77 1.45427 -0.607355 0
M  V30 1196 C 118.047 1.9557 -0.0344566 0
M  V30 1197 C 118.427 1.54979 1.43334 0
M  V30 1198 O 117.775 0.812241 2.13576 0
M  V30 1199 C 117.985 3.48226 -0.232321 0
M  V30 1200 C 119.333 4.2445 -0.113001 0
M  V30 1201 O 120.357 3.55829 -0.162431 0
M  V30 1202 O 119.216 5.465 0.00209442 0
M  V30 1203 H 116.31 0.826222 0.0358667 0
M  V30 1204 H 118.856 1.55594 -0.6774 0
M  V30 1205 H 117.628 3.70739 -1.25174 0
M  V30 1206 H 117.251 3.95092 0.445896 0
M  V30 1207 N 118.248 0.346503 1.53744 0
M  V30 1208 C 119.494 -0.242135 2.01954 0
M  V30 1209 C 119.849 -1.47962 1.22984 0
M  V30 1210 O 119.142 -1.89077 0.309924 0
M  V30 1211 C 119.336 -0.605809 3.52228 0
M  V30 1212 C 119.165 0.594882 4.45748 0
M  V30 1213 C 117.935 1.1011 4.93157 0
M  V30 1214 C 120.133 1.45425 4.93311 0
M  V30 1215 N 118.115 2.26381 5.70636 0
M  V30 1216 C 119.486 2.46383 5.68942 0
M  V30 1217 C 121.541 1.47935 4.75415 0
M  V30 1218 C 120.244 3.49684 6.28581 0
M  V30 1219 C 122.27 2.50119 5.35905 0
M  V30 1220 C 121.632 3.49803 6.11406 0
M  V30 1221 H 117.731 -0.0518296 0.780281 0
M  V30 1222 H 120.315 0.486736 1.88518 0
M  V30 1223 H 118.486 -1.30378 3.65864 0
M  V30 1224 H 120.218 -1.17789 3.87179 0
M  V30 1225 H 116.973 0.668721 4.68855 0
M  V30 1226 H 117.397 2.85094 6.14044 0
M  V30 1227 H 122.039 0.722274 4.16585 0
M  V30 1228 H 119.757 4.26285 6.86518 0
M  V30 1229 H 123.343 2.52892 5.23963 0
M  V30 1230 H 122.223 4.27576 6.5738 0
M  V30 1231 N 119.726 -1.57421 0.075193 0
M  V30 1232 C 120.972 -1.93905 -0.594025 0
M  V30 1233 C 121.305 -0.955701 -1.69056 0
M  V30 1234 O 120.58 0.0145373 -1.94495 0
M  V30 1235 C 120.863 -3.40638 -1.1678 0
M  V30 1236 C 120.716 -4.49733 -0.0776792 0
M  V30 1237 C 122.035 -3.88259 -2.07228 0
M  V30 1238 H 119.154 -0.705105 -0.214466 0
M  V30 1239 H 121.796 -1.8947 0.141854 0
M  V30 1240 H 119.946 -3.44549 -1.79494 0
M  V30 1241 H 121.618 -4.57942 0.555573 0
M  V30 1242 H 119.861 -4.29751 0.591286 0
M  V30 1243 H 120.532 -5.49549 -0.519603 0
M  V30 1244 H 123.008 -3.86376 -1.54445 0
M  V30 1245 H 121.884 -4.91533 -2.44308 0
M  V30 1246 H 122.145 -3.26396 -2.98191 0
M  V30 1247 N 121.204 0.198386 -1.56346 0
M  V30 1248 C 122.152 1.26538 -1.95169 0
M  V30 1249 C 123.146 1.47295 -0.836685 0
M  V30 1250 O 124.352 1.48195 -1.02167 0
M  V30 1251 H 120.727 0.424744 -0.620561 0
M  V30 1252 H 122.698 0.910904 -2.84157 0
M  V30 1253 C 121.447 2.6035 -2.30463 0
M  V30 1254 H 120.77 2.45192 -3.15786 0
M  V30 1255 H 122.21 3.33762 -2.61494 0
M  V30 1256 C 120.669 3.17096 -1.13806 0
M  V30 1257 O 121.199 3.99588 -0.41135 0
M  V30 1258 N 119.405 2.75795 -0.915736 0
M  V30 1259 H 118.952 2.08816 -1.50843 0
M  V30 1260 H 118.91 3.14101 -0.136979 0
M  V30 1261 N 122.682 1.50554 0.465978 0
M  V30 1262 C 123.928 1.62038 1.21949 0
M  V30 1263 C 124.261 0.322116 1.9151 0
M  V30 1264 O 123.536 -0.676723 1.82348 0
M  V30 1265 C 123.819 2.80421 2.25912 0
M  V30 1266 C 123.672 4.20144 1.60622 0
M  V30 1267 C 124.991 2.94354 3.27176 0
M  V30 1268 H 122.11 0.589752 0.441998 0
M  V30 1269 H 124.752 1.82956 0.51257 0
M  V30 1270 H 122.902 2.62717 2.86203 0
M  V30 1271 H 124.574 4.49449 1.03889 0
M  V30 1272 H 122.817 4.24165 0.909211 0
M  V30 1273 H 123.488 4.98914 2.36196 0
M  V30 1274 H 125.964 3.10578 2.76913 0
M  V30 1275 H 124.84 3.788 3.97242 0
M  V30 1276 H 125.101 2.05186 3.916 0
M  V30 1277 N 124.16 -0.719506 1.40217 0
M  V30 1278 C 125.07 -1.86378 1.42479 0
M  V30 1279 C 126.086 -1.71073 0.317834 0
M  V30 1280 O 127.262 -1.93406 0.561794 0
M  V30 1281 C 124.327 -3.22136 1.28178 0
M  V30 1282 C 123.388 -3.49723 2.48982 0
M  V30 1283 C 122.621 -4.79004 2.35353 0
M  V30 1284 O 122.844 -5.53821 1.36524 0
M  V30 1285 O 121.778 -5.06839 3.2465 0
M  V30 1286 H 125.604 -1.87425 2.38968 0
M  V30 1287 H 123.189 -0.869405 1.21498 0
M  V30 1288 H 125.071 -4.03234 1.22395 0
M  V30 1289 H 123.746 -3.21825 0.347934 0
M  V30 1290 H 122.653 -2.6865 2.60342 0
M  V30 1291 H 123.986 -3.54828 3.41113 0
M  V30 1292 N 125.638 -1.25649 -0.95132 0
M  V30 1293 C 127.054 -1.02542 -1.223 0
M  V30 1294 C 127.254 0.255715 -1.99871 0
M  V30 1295 O 126.31 0.967558 -2.33226 0
M  V30 1296 C 127.623 -2.25065 -1.99415 0
M  V30 1297 C 129.171 -2.29861 -2.12446 0
M  V30 1298 C 129.646 -3.52048 -2.92961 0
M  V30 1299 N 131.137 -3.52465 -3.00538 0
M  V30 1300 C 131.872 -4.43672 -3.63239 0
M  V30 1301 N 131.368 -5.45157 -4.27523 0
M  V30 1302 N 133.161 -4.31346 -3.60412 0
M  V30 1303 H 125.312 -2.07951 -0.432471 0
M  V30 1304 H 127.575 -0.91339 -0.253816 0
M  V30 1305 H 127.281 -3.18194 -1.49817 0
M  V30 1306 H 127.155 -2.28502 -3.00111 0
M  V30 1307 H 129.542 -1.37252 -2.61239 0
M  V30 1308 H 129.623 -2.3044 -1.11044 0
M  V30 1309 H 129.267 -4.44981 -2.44856 0
M  V30 1310 H 129.197 -3.48715 -3.94596 0
M  V30 1311 H 131.688 -2.79056 -2.54826 0
M  V30 1312 H 132.001 -6.10958 -4.73234 0
M  V30 1313 H 130.346 -5.49025 -4.26141 0
M  V30 1314 H 133.537 -3.51288 -3.09377 0
M  V30 1315 H 133.71 -5.02624 -4.0899 0
M  V30 1316 N 127.117 1.15442 -1.07289 0
M  V30 1317 C 128.08 2.18358 -0.696591 0
M  V30 1318 C 129.08 1.58637 0.262837 0
M  V30 1319 O 130.27 1.74145 0.0438809 0
M  V30 1320 C 127.402 3.4089 -0.0266151 0
M  V30 1321 H 128.595 2.53162 -1.60776 0
M  V30 1322 H 126.148 1.29893 -0.869342 0
M  V30 1323 H 126.883 3.11653 0.896822 0
M  V30 1324 H 126.668 3.85495 -0.716657 0
M  V30 1325 H 128.158 4.17009 0.222028 0
M  V30 1326 N 128.595 0.856903 1.32268 0
M  V30 1327 C 129.558 0.308171 2.27119 0
M  V30 1328 C 130.558 -0.533421 1.51695 0
M  V30 1329 O 131.748 -0.344607 1.70757 0
M  V30 1330 C 128.88 -0.563757 3.36206 0
M  V30 1331 H 130.073 1.14535 2.77167 0
M  V30 1332 H 127.626 0.631421 1.42978 0
M  V30 1333 H 128.361 -1.42266 2.91429 0
M  V30 1334 H 128.146 0.0386749 3.92081 0
M  V30 1335 H 129.636 -0.940386 4.06874 0
M  V30 1336 N 130.073 -1.45103 0.615059 0
M  V30 1337 C 131.02 -2.30586 -0.0993978 0
M  V30 1338 C 131.99 -1.42544 -0.852669 0
M  V30 1339 O 133.175 -1.71465 -0.836917 0
M  V30 1340 C 130.315 -3.27572 -1.08583 0
M  V30 1341 C 129.428 -4.30717 -0.332656 0
M  V30 1342 C 128.563 -5.14807 -1.30947 0
M  V30 1343 C 127.602 -6.09673 -0.544538 0
M  V30 1344 N 126.739 -6.86517 -1.47101 0
M  V30 1345 H 131.579 -2.91144 0.635542 0
M  V30 1346 H 129.116 -1.4346 0.325206 0
M  V30 1347 H 131.074 -3.82276 -1.67095 0
M  V30 1348 H 129.704 -2.68751 -1.78809 0
M  V30 1349 H 128.756 -3.78615 0.368107 0
M  V30 1350 H 130.068 -4.98102 0.263842 0
M  V30 1351 H 129.222 -5.73948 -1.96643 0
M  V30 1352 H 127.961 -4.47458 -1.9399 0
M  V30 1353 H 126.966 -5.49656 0.126003 0
M  V30 1354 H 128.191 -6.79052 0.080947 0
M  V30 1355 H 126.137 -6.21851 -2.08895 0
M  V30 1356 H 126.054 -7.50281 -0.928137 0
M  V30 1357 H 127.322 -7.50194 -2.11731 0
M  V30 1358 N 131.551 -0.354651 -1.53558 0
M  V30 1359 C 132.798 0.238443 -2.01091 0
M  V30 1360 C 133.126 1.49663 -1.24222 0
M  V30 1361 O 132.381 1.93049 -0.321003 0
M  V30 1362 C 132.68 0.587121 -3.52545 0
M  V30 1363 C 132.346 -0.575472 -4.47213 0
M  V30 1364 C 131.008 -0.894497 -4.72813 0
M  V30 1365 C 133.36 -1.35489 -5.03281 0
M  V30 1366 C 130.688 -1.99511 -5.51736 0
M  V30 1367 C 133.04 -2.44583 -5.83405 0
M  V30 1368 C 131.704 -2.77033 -6.07296 0
M  V30 1369 H 130.974 0.0872526 -0.735845 0
M  V30 1370 H 133.621 -0.484859 -1.8526 0
M  V30 1371 H 131.926 1.39129 -3.66265 0
M  V30 1372 H 133.623 1.05809 -3.86789 0
M  V30 1373 H 130.213 -0.316774 -4.27428 0
M  V30 1374 H 134.397 -1.12167 -4.83459 0
M  V30 1375 H 129.653 -2.25063 -5.68469 0
M  V30 1376 H 133.827 -3.05401 -6.25862 0
M  V30 1377 H 131.454 -3.6244 -6.68237 0
M  V30 1378 N 133.029 1.57378 -0.0835403 0
M  V30 1379 C 134.254 1.98682 0.594987 0
M  V30 1380 C 134.679 0.961969 1.61641 0
M  V30 1381 O 134.037 -0.0709989 1.81161 0
M  V30 1382 C 134.085 3.38988 1.2296 0
M  V30 1383 O 133.189 3.39208 2.34546 0
M  V30 1384 H 132.53 0.646368 0.152002 0
M  V30 1385 H 135.06 2.03961 -0.161533 0
M  V30 1386 H 135.07 3.76431 1.57366 0
M  V30 1387 H 133.745 4.13107 0.481228 0
M  V30 1388 H 132.322 3.13548 2.01846 0
M  V30 1389 N 134.507 -0.190092 1.56449 0
M  V30 1390 C 135.784 -0.935886 1.71757 0
M  V30 1391 C 136.164 -2.01173 0.639726 0
M  V30 1392 O 135.512 -2.25827 -0.348502 0
M  V30 1393 C 135.722 -1.51775 3.1427 0
M  V30 1394 C 137.07 -1.99794 3.74656 0
M  V30 1395 O 138.094 -1.61607 3.1743 0
M  V30 1396 O 136.953 -2.70079 4.751 0
M  V30 1397 H 134.047 -0.439229 0.700719 0
M  V30 1398 H 136.593 -0.179395 1.68749 0
M  V30 1399 H 135.365 -0.742505 3.84191 0
M  V30 1400 H 134.988 -2.33894 3.21527 0
M  V30 1401 N 135.985 -1.50799 -0.457987 0
M  V30 1402 C 136.895 -1.73426 -1.57989 0
M  V30 1403 C 137.911 -0.617745 -1.62665 0
M  V30 1404 O 139.087 -0.897614 -1.80291 0
M  V30 1405 C 136.152 -1.83557 -2.94122 0
M  V30 1406 C 135.213 -3.07345 -2.99729 0
M  V30 1407 C 134.446 -3.16983 -4.29368 0
M  V30 1408 O 134.669 -2.33077 -5.20607 0
M  V30 1409 O 133.603 -4.09812 -4.40837 0
M  V30 1410 H 137.429 -2.68555 -1.41817 0
M  V30 1411 H 135.014 -1.35052 -0.638859 0
M  V30 1412 H 136.896 -1.92326 -3.74952 0
M  V30 1413 H 135.571 -0.916137 -3.10465 0
M  V30 1414 H 134.478 -3.04068 -2.1793 0
M  V30 1415 H 135.811 -3.9891 -2.88326 0
M  V30 1416 N 137.463 0.71206 -1.40597 0
M  V30 1417 C 138.712 1.46754 -1.38369 0
M  V30 1418 C 139.025 1.95598 0.0097839 0
M  V30 1419 O 140.231 2.71059 0.154677 0
M  V30 1420 C 138.687 2.65289 -2.43207 0
M  V30 1421 C 138.295 2.23301 -3.88382 0
M  V30 1422 C 140.039 3.43008 -2.50091 0
M  V30 1423 C 137.946 3.38696 -4.84808 0
M  V30 1424 H 136.876 0.55118 -0.514506 0
M  V30 1425 H 139.527 0.774616 -1.66349 0
M  V30 1426 H 137.909 3.36769 -2.08332 0
M  V30 1427 H 139.083 1.59218 -4.32419 0
M  V30 1428 H 137.398 1.58618 -3.85006 0
M  V30 1429 H 139.995 4.28881 -3.1932 0
M  V30 1430 H 140.338 3.87065 -1.53253 0
M  V30 1431 H 140.871 2.78574 -2.83974 0
M  V30 1432 H 137.61 2.99668 -5.82992 0
M  V30 1433 H 137.13 4.01683 -4.45433 0
M  V30 1434 H 138.809 4.04712 -5.04794 0
M  V30 1435 N 138.941 1.26152 0.944643 0
M  V30 1436 C 140.189 1.11271 1.6871 0
M  V30 1437 C 140.51 -0.345166 1.91921 0
M  V30 1438 O 139.78 -1.24387 1.51343 0
M  V30 1439 H 138.36 0.408783 0.625224 0
M  V30 1440 H 141.022 1.58427 1.1352 0
M  V30 1441 H 140.118 1.62879 2.66227 0
M  V30 1442 N 140.419 -1.14872 1.07899 0
M  V30 1443 C 141.667 -1.85422 0.803941 0
M  V30 1444 C 141.988 -1.83051 -0.67211 0
M  V30 1445 O 141.258 -1.27532 -1.48703 0
M  V30 1446 H 139.838 -0.686537 0.294408 0
M  V30 1447 H 142.5 -1.39226 1.3639 0
M  V30 1448 H 141.596 -2.90399 1.14346 0
M  V30 1449 N 141.898 -0.863906 -1.31812 0
M  V30 1450 C 142.848 -0.286898 -2.26188 0
M  V30 1451 C 143.832 0.572577 -1.50367 0
M  V30 1452 O 145.024 0.420447 -1.71934 0
M  V30 1453 C 142.153 0.515849 -3.39402 0
M  V30 1454 C 141.239 -0.356531 -4.22599 0
M  V30 1455 N 141.63 -1.44716 -4.84656 0
M  V30 1456 C 139.928 -0.147898 -4.45755 0
M  V30 1457 C 140.629 -1.98462 -5.46798 0
M  V30 1458 N 139.605 -1.28247 -5.28255 0
M  V30 1459 H 143.407 -1.12055 -2.717 0
M  V30 1460 H 140.921 -0.711012 -1.46008 0
M  V30 1461 H 142.918 0.945701 -4.06032 0
M  V30 1462 H 141.578 1.34718 -2.95434 0
M  V30 1463 H 142.589 -1.83008 -4.84488 0
M  V30 1464 H 139.266 0.647973 -4.12441 0
M  V30 1465 H 140.656 -2.89932 -6.06126 0
M  V30 1466 N 143.376 1.44774 -0.622745 0
M  V30 1467 C 144.306 2.33382 0.0741861 0
M  V30 1468 C 145.287 1.47719 0.843387 0
M  V30 1469 O 146.472 1.76458 0.810934 0
M  V30 1470 C 143.602 3.30663 1.06204 0
M  V30 1471 C 142.556 4.26079 0.405037 0
M  V30 1472 C 141.882 5.13165 1.5022 0
M  V30 1473 C 143.182 5.1781 -0.683414 0
M  V30 1474 H 144.876 2.91905 -0.665713 0
M  V30 1475 H 142.422 1.40363 -0.321587 0
M  V30 1476 H 144.375 3.9153 1.55827 0
M  V30 1477 H 143.099 2.70331 1.83272 0
M  V30 1478 H 141.758 3.66532 -0.0704683 0
M  V30 1479 H 141.406 4.49191 2.26355 0
M  V30 1480 H 141.106 5.77812 1.06803 0
M  V30 1481 H 142.63 5.76902 2.00041 0
M  V30 1482 H 144.044 5.72661 -0.270631 0
M  V30 1483 H 142.441 5.91015 -1.04023 0
M  V30 1484 H 143.511 4.59326 -1.55395 0
M  V30 1485 N 144.854 0.36279 1.53368 0
M  V30 1486 C 145.787 -0.528507 2.21996 0
M  V30 1487 C 146.765 -1.0852 1.21087 0
M  V30 1488 O 147.949 -1.14186 1.4998 0
M  V30 1489 C 145.076 -1.72893 2.91249 0
M  V30 1490 C 144.122 -1.29994 4.06207 0
M  V30 1491 S 144.955 -0.303575 5.34639 0
M  V30 1492 C 146.111 -1.51039 6.07403 0
M  V30 1493 H 146.344 0.0543423 2.9725 0
M  V30 1494 H 143.877 0.146889 1.537 0
M  V30 1495 H 145.835 -2.41751 3.31763 0
M  V30 1496 H 144.496 -2.28303 2.15724 0
M  V30 1497 H 143.689 -2.19549 4.53667 0
M  V30 1498 H 143.291 -0.690608 3.67569 0
M  V30 1499 H 145.583 -2.44186 6.31965 0
M  V30 1500 H 146.526 -1.07721 6.99858 0
M  V30 1501 H 146.934 -1.71518 5.37812 0
M  V30 1502 N 146.332 -1.57332 0.0918853 0
M  V30 1503 C 147.557 -1.98995 -0.584442 0
M  V30 1504 C 147.982 -0.970528 -1.61128 0
M  V30 1505 O 147.34 0.0613904 -1.81196 0
M  V30 1506 C 147.388 -3.39636 -1.21161 0
M  V30 1507 O 146.492 -3.40447 -2.32744 0
M  V30 1508 H 145.833 -0.647165 -0.148572 0
M  V30 1509 H 148.363 -2.03873 0.172347 0
M  V30 1510 H 148.373 -3.7726 -1.55367 0
M  V30 1511 H 147.048 -4.13356 -0.459313 0
M  V30 1512 H 145.625 -3.14614 -2.0018 0
M  V30 1513 N 147.81 0.181792 -1.56548 0
M  V30 1514 C 149.058 0.89832 -1.81038 0
M  V30 1515 C 149.379 1.83232 -0.667164 0
M  V30 1516 O 148.649 1.93372 0.313673 0
M  V30 1517 H 147.229 0.33471 -0.667816 0
M  V30 1518 H 149.891 0.184116 -1.94028 0
M  V30 1519 H 148.987 1.4815 -2.74696 0
M  V30 1520 N 149.288 1.51039 0.449983 0
M  V30 1521 C 150.238 1.67824 1.54335 0
M  V30 1522 C 151.222 0.5324 1.51836 0
M  V30 1523 O 152.414 0.787762 1.58503 0
M  V30 1524 C 149.543 1.7951 2.92628 0
M  V30 1525 C 148.629 2.99838 2.9993 0
M  V30 1526 N 149.02 4.23207 2.77001 0
M  V30 1527 C 147.318 2.98832 3.31082 0
M  V30 1528 C 148.019 5.04361 2.89818 0
M  V30 1529 N 146.995 4.38746 3.2094 0
M  V30 1530 H 150.797 2.60884 1.35339 0
M  V30 1531 H 148.311 1.48513 0.657085 0
M  V30 1532 H 150.308 1.89642 3.7127 0
M  V30 1533 H 148.968 0.876227 3.12654 0
M  V30 1534 H 149.979 4.5236 2.52172 0
M  V30 1535 H 146.656 2.16527 3.56963 0
M  V30 1536 H 148.046 6.12528 2.76151 0
M  V30 1537 N 150.766 -0.704594 1.40972 0
M  V30 1538 C 152.015 -1.46018 1.39146 0
M  V30 1539 C 152.328 -1.956 0.000589254 0
M  V30 1540 O 153.534 -2.71137 -0.1403 0
M  V30 1541 C 151.99 -2.63996 2.4461 0
M  V30 1542 C 151.598 -2.21238 3.89561 0
M  V30 1543 C 153.342 -3.41677 2.51907 0
M  V30 1544 C 151.249 -3.3612 4.86598 0
M  V30 1545 H 150.179 -0.548444 0.517422 0
M  V30 1546 H 152.83 -0.765784 1.66757 0
M  V30 1547 H 151.212 -3.3566 2.10115 0
M  V30 1548 H 152.386 -1.56923 4.33257 0
M  V30 1549 H 150.701 -1.56574 3.85841 0
M  V30 1550 H 153.298 -4.27182 3.2159 0
M  V30 1551 H 153.641 -3.86247 1.55303 0
M  V30 1552 H 154.174 -2.77064 2.85448 0
M  V30 1553 H 150.913 -2.96572 5.84573 0
M  V30 1554 H 150.433 -3.99315 4.47557 0
M  V30 1555 H 152.112 -4.02029 5.06934 0
M  V30 1556 N 152.244 -1.26651 -0.937939 0
M  V30 1557 C 153.177 -1.02811 -2.03728 0
M  V30 1558 C 154.155 0.0481915 -1.62529 0
M  V30 1559 O 155.339 -0.0948839 -1.88261 0
M  V30 1560 C 152.466 -0.557517 -3.3408 0
M  V30 1561 C 151.512 -1.62686 -3.94253 0
M  V30 1562 S 152.345 -3.21667 -4.28125 0
M  V30 1563 C 153.501 -2.76384 -5.61572 0
M  V30 1564 H 153.734 -1.95891 -2.23638 0
M  V30 1565 H 151.267 -1.10367 -1.07974 0
M  V30 1566 H 153.225 -0.292674 -4.09455 0
M  V30 1567 H 151.886 0.353062 -3.12109 0
M  V30 1568 H 151.079 -1.24866 -4.88287 0
M  V30 1569 H 150.681 -1.84324 -3.25424 0
M  V30 1570 H 152.973 -2.2105 -6.40424 0
M  V30 1571 H 153.916 -3.69123 -6.0428 0
M  V30 1572 H 154.324 -2.15847 -5.21604 0
M  V30 1573 N 153.722 1.14298 -1.08507 0
M  V30 1574 C 154.95 1.89219 -0.836876 0
M  V30 1575 C 155.365 1.78638 0.611054 0
M  V30 1576 O 154.722 1.14643 1.41998 0
M  V30 1577 C 154.773 3.39158 -1.25116 0
M  V30 1578 O 154.494 3.49449 -2.64229 0
M  V30 1579 C 155.995 4.31073 -1.03398 0
M  V30 1580 H 153.215 0.599328 -0.301739 0
M  V30 1581 H 155.759 1.44746 -1.44461 0
M  V30 1582 H 153.914 3.81251 -0.687514 0
M  V30 1583 H 154.328 4.42589 -2.81452 0
M  V30 1584 H 155.802 5.34646 -1.37323 0
M  V30 1585 H 156.279 4.3919 0.0289259 0
M  V30 1586 H 156.885 3.94738 -1.58311 0
M  V30 1587 N 155.201 0.870884 1.31352 0
M  V30 1588 C 156.429 0.49677 2.00848 0
M  V30 1589 C 156.844 -0.910998 1.65367 0
M  V30 1590 O 156.201 -1.59696 0.883374 0
M  V30 1591 C 156.252 0.645308 3.55694 0
M  V30 1592 O 155.973 1.99764 3.89905 0
M  V30 1593 C 157.474 0.272326 4.42463 0
M  V30 1594 H 154.694 0.193462 0.642506 0
M  V30 1595 H 157.238 1.1723 1.67563 0
M  V30 1596 H 155.393 0.0173176 3.87396 0
M  V30 1597 H 155.807 2.00607 4.84621 0
M  V30 1598 H 157.281 0.427208 5.50344 0
M  V30 1599 H 157.758 -0.788587 4.32062 0
M  V30 1600 H 158.364 0.876054 4.1618 0
M  V30 1601 N 156.679 -1.44442 0.630414 0
M  V30 1602 C 157.642 -2.29107 -0.0652523 0
M  V30 1603 C 158.642 -1.41002 -0.772995 0
M  V30 1604 O 159.832 -1.62881 -0.617692 0
M  V30 1605 C 156.964 -3.22564 -1.10296 0
M  V30 1606 H 158.157 -2.92103 0.679401 0
M  V30 1607 H 155.71 -1.51343 0.390517 0
M  V30 1608 H 156.445 -2.64416 -1.87762 0
M  V30 1609 H 156.23 -3.87491 -0.59941 0
M  V30 1610 H 157.72 -3.86167 -1.5895 0
M  V30 1611 N 158.157 -0.370918 -1.53173 0
M  V30 1612 C 159.067 0.480823 -2.2962 0
M  V30 1613 C 160.083 1.08789 -1.35798 0
M  V30 1614 O 161.259 1.09768 -1.68858 0
M  V30 1615 C 158.324 1.60227 -3.07454 0
M  V30 1616 C 157.385 1.0222 -4.16953 0
M  V30 1617 C 156.618 2.0902 -4.91066 0
M  V30 1618 O 156.841 3.30222 -4.65091 0
M  V30 1619 O 155.775 1.71778 -5.76867 0
M  V30 1620 H 159.601 -0.141421 -3.03371 0
M  V30 1621 H 157.186 -0.135146 -1.48787 0
M  V30 1622 H 159.068 2.25417 -3.56041 0
M  V30 1623 H 157.743 2.20982 -2.36535 0
M  V30 1624 H 156.65 0.334064 -3.72605 0
M  V30 1625 H 157.983 0.459131 -4.90054 0
M  V30 1626 N 159.635 1.57281 -0.100228 0
M  V30 1627 C 160.881 1.94826 0.563101 0
M  V30 1628 C 161.214 0.982475 1.67514 0
M  V30 1629 O 160.489 0.0164069 1.94493 0
M  V30 1630 C 160.772 3.42453 1.11346 0
M  V30 1631 C 160.625 4.498 0.00612081 0
M  V30 1632 C 161.944 3.91506 2.01024 0
M  V30 1633 H 159.063 0.708428 0.203221 0
M  V30 1634 H 161.705 1.8922 -0.171979 0
M  V30 1635 H 159.855 3.47361 1.7399 0
M  V30 1636 H 161.527 4.57 -0.628357 0
M  V30 1637 H 159.77 4.28756 -0.659581 0
M  V30 1638 H 160.441 5.50306 0.432109 0
M  V30 1639 H 162.917 3.88784 1.48278 0
M  V30 1640 H 161.793 4.95358 2.36457 0
M  V30 1641 H 162.054 3.31099 2.92961 0
M  V30 1642 N 161.113 -0.173488 1.56642 0
M  V30 1643 C 162.076 -1.19859 1.95362 0
M  V30 1644 C 163.076 -1.37296 0.83704 0
M  V30 1645 O 164.266 -1.34739 1.10413 0
M  V30 1646 C 161.398 -2.56405 2.24654 0
M  V30 1647 H 162.591 -0.867062 2.87092 0
M  V30 1648 H 160.144 -0.415853 1.50666 0
M  V30 1649 H 160.879 -2.94576 1.35631 0
M  V30 1650 H 160.664 -2.45115 3.06041 0
M  V30 1651 H 162.154 -3.30287 2.5554 0
M  V30 1652 N 162.591 -1.51276 -0.441967 0
M  V30 1653 C 163.538 -1.72256 -1.53612 0
M  V30 1654 C 164.508 -0.564164 -1.56225 0
M  V30 1655 O 165.693 -0.798074 -1.73307 0
M  V30 1656 C 162.833 -1.84932 -2.91366 0
M  V30 1657 C 161.946 -3.12459 -2.98317 0
M  V30 1658 C 161.081 -3.15758 -4.27166 0
M  V30 1659 C 160.12 -4.37619 -4.27967 0
M  V30 1660 N 159.257 -4.38493 -5.48333 0
M  V30 1661 H 164.097 -2.65654 -1.35026 0
M  V30 1662 H 161.634 -1.31662 -0.656009 0
M  V30 1663 H 163.592 -1.90263 -3.7129 0
M  V30 1664 H 162.222 -0.949461 -3.08521 0
M  V30 1665 H 161.274 -3.1646 -2.11086 0
M  V30 1666 H 162.586 -4.02382 -2.94771 0
M  V30 1667 H 161.74 -3.19979 -5.15459 0
M  V30 1668 H 160.479 -2.23715 -4.33362 0
M  V30 1669 H 159.484 -4.33579 -3.38067 0
M  V30 1670 H 160.709 -5.30921 -4.23438 0
M  V30 1671 H 158.655 -3.49318 -5.55259 0
M  V30 1672 H 158.572 -5.22219 -5.46647 0
M  V30 1673 H 159.84 -4.469 -6.38671 0
M  V30 1674 N 164.069 0.697108 -1.41344 0
M  V30 1675 C 165.318 1.45279 -1.39918 0
M  V30 1676 C 165.631 1.95597 -0.0109624 0
M  V30 1677 O 166.837 2.71208 0.125919 0
M  V30 1678 C 165.293 2.62695 -2.46007 0
M  V30 1679 C 164.901 2.19169 -3.90729 0
M  V30 1680 C 166.645 3.40336 -2.53715 0
M  V30 1681 C 164.552 3.33535 -4.88373 0
M  V30 1682 H 163.482 0.545692 -0.520323 0
M  V30 1683 H 166.133 0.756929 -1.67161 0
M  V30 1684 H 164.515 3.34541 -2.11892 0
M  V30 1685 H 165.689 1.54623 -4.34083 0
M  V30 1686 H 164.004 1.54525 -3.86666 0
M  V30 1687 H 166.601 4.2547 -3.2385 0
M  V30 1688 H 166.944 3.85418 -1.5735 0
M  V30 1689 H 167.477 2.75546 -2.86913 0
M  V30 1690 H 164.216 2.93468 -5.86137 0
M  V30 1691 H 163.736 3.96936 -4.49668 0
M  V30 1692 H 165.415 3.99335 -5.09059 0
M  V30 1693 N 165.547 1.27147 0.931209 0
M  V30 1694 C 166.477 1.12081 2.04842 0
M  V30 1695 C 167.458 0.0232364 1.70084 0
M  V30 1696 O 168.643 0.197085 1.93197 0
M  V30 1697 C 165.773 0.76354 3.38803 0
M  V30 1698 C 164.727 1.81396 3.87659 0
M  V30 1699 C 164.053 1.31075 5.18385 0
M  V30 1700 C 165.353 3.21739 4.11438 0
M  V30 1701 H 167.047 2.05537 2.17703 0
M  V30 1702 H 164.593 0.989603 1.04608 0
M  V30 1703 H 166.546 0.644982 4.16435 0
M  V30 1704 H 165.27 -0.206727 3.25945 0
M  V30 1705 H 163.929 1.92136 3.12217 0
M  V30 1706 H 163.577 0.330037 5.01916 0
M  V30 1707 H 163.277 2.013 5.52044 0
M  V30 1708 H 164.801 1.20506 5.98591 0
M  V30 1709 H 166.215 3.14019 4.79651 0
M  V30 1710 H 164.612 3.89644 4.56397 0
M  V30 1711 H 165.682 3.67054 3.16859 0
M  V30 1712 N 167.025 -1.13721 1.09112 0
M  V30 1713 C 168.253 -1.88773 0.846899 0
M  V30 1714 C 168.668 -1.7896 -0.601572 0
M  V30 1715 O 168.025 -1.15394 -1.41388 0
M  V30 1716 C 168.076 -3.3849 1.26913 0
M  V30 1717 O 167.797 -3.48043 2.66079 0
M  V30 1718 C 169.298 -4.30518 1.05682 0
M  V30 1719 H 166.518 -0.59772 0.304914 0
M  V30 1720 H 169.062 -1.43977 1.45227 0
M  V30 1721 H 167.217 -3.80881 0.707723 0
M  V30 1722 H 167.631 -4.4109 2.83795 0
M  V30 1723 H 169.105 -5.3391 1.40156 0
M  V30 1724 H 169.582 -4.392 -0.00563416 0
M  V30 1725 H 170.188 -3.93893 1.60402 0
M  V30 1726 N 168.503 -0.877838 -1.30888 0
M  V30 1727 C 169.728 -0.506629 -2.01117 0
M  V30 1728 C 170.153 0.895564 -1.65412 0
M  V30 1729 O 169.511 1.5923 -0.866922 0
M  V30 1730 C 169.559 -0.680223 -3.54126 0
M  V30 1731 O 168.663 0.277033 -4.11468 0
M  V30 1732 H 168.004 -0.200518 -0.633 0
M  V30 1733 H 170.534 -1.18342 -1.66902 0
M  V30 1734 H 170.544 -0.5765 -4.03907 0
M  V30 1735 H 169.219 -1.70261 -3.79452 0
M  V30 1736 H 167.796 0.127606 -3.72682 0
M  V30 1737 N 169.982 1.44106 -0.638065 0
M  V30 1738 C 170.892 2.34513 0.0637334 0
M  V30 1739 C 171.908 1.53018 0.828346 0
M  V30 1740 O 173.084 1.85723 0.779036 0
M  V30 1741 C 170.149 3.31095 1.02844 0
M  V30 1742 C 169.21 4.28497 0.26244 0
M  V30 1743 C 168.443 5.20465 1.1812 0
M  V30 1744 O 168.666 5.16514 2.42011 0
M  V30 1745 O 167.6 5.98251 0.661774 0
M  V30 1746 H 171.426 2.95989 -0.68003 0
M  V30 1747 H 169.011 1.43994 -0.398252 0
M  V30 1748 H 170.893 3.90526 1.58327 0
M  V30 1749 H 169.568 2.72144 1.7527 0
M  V30 1750 H 168.475 3.72592 -0.335602 0
M  V30 1751 H 169.808 4.90388 -0.421936 0
M  V30 1752 N 171.46 0.379036 1.52974 0
M  V30 1753 C 172.408 -0.476033 2.27677 0
M  V30 1754 C 173.402 -1.0719 1.31174 0
M  V30 1755 O 174.608 -1.01355 1.48752 0
M  V30 1756 H 170.983 -0.172255 0.732006 0
M  V30 1757 H 172.954 0.175615 2.97883 0
M  V30 1758 C 171.703 -1.5967 3.0887 0
M  V30 1759 H 171.026 -1.1475 3.82978 0
M  V30 1760 H 172.466 -2.16943 3.64296 0
M  V30 1761 C 170.925 -2.54682 2.20542 0
M  V30 1762 O 171.455 -3.57836 1.82527 0
M  V30 1763 N 169.661 -2.24183 1.84907 0
M  V30 1764 H 169.208 -1.40333 2.1602 0
M  V30 1765 H 169.166 -2.88006 1.26096 0
M  V30 1766 N 172.938 -1.57226 0.108567 0
M  V30 1767 C 173.886 -2.16002 -0.862885 0
M  V30 1768 C 174.88 -1.10644 -1.28274 0
M  V30 1769 O 176.086 -1.28966 -1.2557 0
M  V30 1770 H 172.461 -0.691148 -0.296342 0
M  V30 1771 H 174.432 -2.96427 -0.342575 0
M  V30 1772 C 173.181 -2.76576 -2.10716 0
M  V30 1773 H 172.504 -3.5734 -1.793 0
M  V30 1774 H 173.944 -3.21253 -2.76717 0
M  V30 1775 C 172.403 -1.73137 -2.89007 0
M  V30 1776 O 172.933 -1.17842 -3.84026 0
M  V30 1777 N 171.139 -1.43317 -2.52801 0
M  V30 1778 H 170.686 -1.88473 -1.75601 0
M  V30 1779 H 170.644 -0.743485 -3.05483 0
M  V30 1780 N 174.416 0.165178 -1.56732 0
M  V30 1781 C 175.832 0.517174 -1.50988 0
M  V30 1782 C 176.032 1.84331 -0.813894 0
M  V30 1783 O 175.088 2.49672 -0.37682 0
M  V30 1784 C 176.401 0.544261 -2.95733 0
M  V30 1785 C 177.949 0.631039 -3.06573 0
M  V30 1786 C 178.424 0.68896 -4.52788 0
M  V30 1787 N 179.915 0.751683 -4.5706 0
M  V30 1788 C 180.65 0.817177 -5.67547 0
M  V30 1789 N 180.146 0.843129 -6.8765 0
M  V30 1790 N 181.939 0.856668 -5.55534 0
M  V30 1791 H 174.09 -0.704318 -2.00382 0
M  V30 1792 H 176.353 -0.254687 -0.913148 0
M  V30 1793 H 176.059 -0.361607 -3.49836 0
M  V30 1794 H 175.933 1.3886 -3.5071 0
M  V30 1795 H 178.32 1.52733 -2.52501 0
M  V30 1796 H 178.401 -0.240095 -2.54671 0
M  V30 1797 H 178.045 -0.2031 -5.07494 0
M  V30 1798 H 177.975 1.57633 -5.02454 0
M  V30 1799 H 180.466 0.739661 -3.70591 0
M  V30 1800 H 180.779 0.894448 -7.67606 0
M  V30 1801 H 179.124 0.811304 -6.90248 0
M  V30 1802 H 182.315 0.833437 -4.60621 0
M  V30 1803 H 182.488 0.904247 -6.4166 0
M  V30 1804 N 175.894 1.51508 0.433938 0
M  V30 1805 C 176.826 1.69266 1.54537 0
M  V30 1806 C 177.839 0.573276 1.52373 0
M  V30 1807 O 179.028 0.847698 1.57087 0
M  V30 1808 C 176.128 1.69524 2.93453 0
M  V30 1809 C 175.301 2.98101 3.20085 0
M  V30 1810 C 174.36 2.90502 4.38742 0
M  V30 1811 O 173.386 3.64442 4.3723 0
M  V30 1812 N 174.588 2.06586 5.42496 0
M  V30 1813 H 177.353 2.65145 1.39708 0
M  V30 1814 H 174.914 1.49437 0.622922 0
M  V30 1815 H 176.906 1.62004 3.70859 0
M  V30 1816 H 175.476 0.812245 3.01863 0
M  V30 1817 H 174.696 3.19464 2.30947 0
M  V30 1818 H 175.984 3.83207 3.34708 0
M  V30 1819 H 175.382 1.45896 5.46563 0
M  V30 1820 H 173.939 2.04943 6.18742 0
M  V30 1821 N 177.372 -0.689602 1.41712 0
M  V30 1822 C 178.621 -1.44534 1.40686 0
M  V30 1823 C 178.934 -1.95588 0.0213352 0
M  V30 1824 O 180.14 -2.71271 -0.111534 0
M  V30 1825 C 178.596 -2.61387 2.47396 0
M  V30 1826 C 178.204 -2.17094 3.91885 0
M  V30 1827 C 179.948 -3.38986 2.55517 0
M  V30 1828 C 177.855 -3.3094 4.90135 0
M  V30 1829 H 176.785 -0.542925 0.52321 0
M  V30 1830 H 179.436 -0.748054 1.6756 0
M  V30 1831 H 177.818 -3.33412 2.13664 0
M  V30 1832 H 178.992 -1.52318 4.34897 0
M  V30 1833 H 177.307 -1.52473 3.8748 0
M  V30 1834 H 179.904 -4.23747 3.26102 0
M  V30 1835 H 180.247 -3.84578 1.59391 0
M  V30 1836 H 180.78 -2.74021 2.8837 0
M  V30 1837 H 177.519 -2.90355 5.87685 0
M  V30 1838 H 177.039 -3.94546 4.51767 0
M  V30 1839 H 178.718 -3.9663 5.11169 0
M  V30 1840 N 178.85 -1.27639 -0.924453 0
M  V30 1841 C 180.096 -1.15345 -1.67532 0
M  V30 1842 C 180.451 0.297096 -1.90092 0
M  V30 1843 O 179.744 1.21374 -1.48253 0
M  V30 1844 C 179.938 -1.87407 -3.04325 0
M  V30 1845 C 179.767 -3.3932 -2.95114 0
M  V30 1846 C 178.537 -4.08644 -2.97218 0
M  V30 1847 C 180.735 -4.35242 -2.73987 0
M  V30 1848 N 178.717 -5.47102 -2.78482 0
M  V30 1849 C 180.088 -5.6099 -2.63988 0
M  V30 1850 C 182.143 -4.25294 -2.589 0
M  V30 1851 C 180.846 -6.77924 -2.40442 0
M  V30 1852 C 182.872 -5.41952 -2.36731 0
M  V30 1853 C 182.234 -6.66658 -2.27478 0
M  V30 1854 H 178.333 -0.47696 -0.619704 0
M  V30 1855 H 180.917 -1.6115 -1.09265 0
M  V30 1856 H 179.088 -1.44053 -3.60699 0
M  V30 1857 H 180.82 -1.6759 -3.68369 0
M  V30 1858 H 177.575 -3.60136 -3.07569 0
M  V30 1859 H 177.999 -6.19852 -2.72236 0
M  V30 1860 H 182.641 -3.29598 -2.64811 0
M  V30 1861 H 180.359 -7.73699 -2.3327 0
M  V30 1862 H 183.945 -5.36137 -2.25938 0
M  V30 1863 H 182.825 -7.55405 -2.10555 0
M  V30 1864 N 180.328 1.1314 -1.09713 0
M  V30 1865 C 181.575 1.84484 -0.834987 0
M  V30 1866 C 181.903 1.83689 0.639418 0
M  V30 1867 O 181.158 1.2724 1.4869 0
M  V30 1868 C 181.457 3.32167 -1.3191 0
M  V30 1869 C 181.123 3.53139 -2.80363 0
M  V30 1870 C 179.785 3.58571 -3.20905 0
M  V30 1871 C 182.137 3.60866 -3.76065 0
M  V30 1872 C 179.465 3.69267 -4.55916 0
M  V30 1873 C 181.817 3.73089 -5.10869 0
M  V30 1874 C 180.481 3.76775 -5.50996 0
M  V30 1875 H 179.751 0.675073 -0.305544 0
M  V30 1876 H 182.398 1.33554 -1.37243 0
M  V30 1877 H 180.703 3.85469 -0.701517 0
M  V30 1878 H 182.4 3.85821 -1.09284 0
M  V30 1879 H 178.99 3.49569 -2.47991 0
M  V30 1880 H 183.174 3.55946 -3.45855 0
M  V30 1881 H 178.43 3.70388 -4.86438 0
M  V30 1882 H 182.604 3.78011 -5.84877 0
M  V30 1883 H 180.231 3.84815 -6.55608 0
M  V30 1884 N 181.806 0.884767 1.30421 0
M  V30 1885 C 182.753 0.349642 2.28136 0
M  V30 1886 C 183.723 -0.560061 1.56373 0
M  V30 1887 O 184.908 -0.488524 1.8444 0
M  V30 1888 C 182.048 -0.42999 3.42411 0
M  V30 1889 C 181.161 0.508907 4.28992 0
M  V30 1890 C 180.296 -0.286301 5.30428 0
M  V30 1891 C 179.335 0.648079 6.08659 0
M  V30 1892 N 178.472 -0.111792 7.02011 0
M  V30 1893 H 183.312 1.18807 2.73293 0
M  V30 1894 H 180.849 0.597231 1.3443 0
M  V30 1895 H 182.807 -0.897923 4.07423 0
M  V30 1896 H 181.437 -1.23299 2.98324 0
M  V30 1897 H 180.489 1.09533 3.64289 0
M  V30 1898 H 181.801 1.22475 4.8353 0
M  V30 1899 H 180.955 -0.816098 6.01186 0
M  V30 1900 H 179.694 -1.03536 4.76583 0
M  V30 1901 H 178.699 1.18951 5.36778 0
M  V30 1902 H 179.924 1.39623 6.64592 0
M  V30 1903 H 177.87 -0.843395 6.50556 0
M  V30 1904 H 177.787 0.544429 7.54037 0
M  V30 1905 H 179.055 -0.622339 7.77012 0
M  V30 1906 N 183.284 -1.43765 0.645699 0
M  V30 1907 C 184.53 -2.02197 0.156271 0
M  V30 1908 C 184.863 -1.50776 -1.22393 0
M  V30 1909 O 184.138 -0.697771 -1.81553 0
M  V30 1910 C 184.421 -3.59749 0.158872 0
M  V30 1911 C 184.274 -4.21419 1.57245 0
M  V30 1912 C 185.593 -4.37149 -0.50879 0
M  V30 1913 H 182.712 -0.734694 0.0582602 0
M  V30 1914 H 185.354 -1.71157 0.824951 0
M  V30 1915 H 183.504 -3.86325 -0.410525 0
M  V30 1916 H 185.176 -4.059 2.19186 0
M  V30 1917 H 183.419 -3.78356 2.122 0
M  V30 1918 H 184.09 -5.30482 1.52619 0
M  V30 1919 H 186.566 -4.16093 -0.024412 0
M  V30 1920 H 185.442 -5.4683 -0.476213 0
M  V30 1921 H 185.703 -4.12839 -1.58165 0
M  V30 1922 N 184.763 -0.387143 -1.52771 0
M  V30 1923 C 185.695 0.484089 -2.2403 0
M  V30 1924 C 186.708 1.02849 -1.26198 0
M  V30 1925 O 187.897 0.931186 -1.52286 0
M  V30 1926 C 184.997 1.68337 -2.94136 0
M  V30 1927 C 184.17 1.26672 -4.18656 0
M  V30 1928 C 183.229 2.33045 -4.7178 0
M  V30 1929 O 182.255 1.94541 -5.34923 0
M  V30 1930 N 183.457 3.64929 -4.5145 0
M  V30 1931 H 186.222 -0.126404 -2.99433 0
M  V30 1932 H 183.783 -0.213392 -1.60488 0
M  V30 1933 H 185.775 2.39019 -3.26577 0
M  V30 1934 H 184.345 2.20025 -2.22053 0
M  V30 1935 H 183.565 0.388878 -3.92277 0
M  V30 1936 H 184.853 0.964964 -4.99566 0
M  V30 1937 H 184.251 3.98974 -4.01044 0
M  V30 1938 H 182.808 4.31651 -4.88386 0
M  V30 1939 N 186.241 1.57166 -0.116904 0
M  V30 1940 C 187.518 1.86645 0.585049 0
M  V30 1941 C 187.898 1.0177 1.84949 0
M  V30 1942 O 187.246 0.0960379 2.28298 0
M  V30 1943 C 187.456 3.37736 0.879507 0
M  V30 1944 C 188.804 4.06289 1.23348 0
M  V30 1945 O 189.828 3.42743 0.969836 0
M  V30 1946 O 188.687 5.18455 1.7282 0
M  V30 1947 H 185.781 0.772593 0.295007 0
M  V30 1948 H 188.327 1.69025 -0.151249 0
M  V30 1949 H 187.099 3.91296 -0.0166136 0
M  V30 1950 H 186.722 3.6078 1.67103 0
M  V30 1951 N 187.719 -0.156864 1.56817 0
M  V30 1952 C 188.944 -0.890331 1.87318 0
M  V30 1953 C 189.369 -1.74394 0.704855 0
M  V30 1954 O 188.727 -1.77972 -0.345786 0
M  V30 1955 C 188.775 -1.73102 3.16336 0
M  V30 1956 O 187.879 -2.83422 2.99576 0
M  V30 1957 H 187.22 -0.24857 0.615718 0
M  V30 1958 H 189.75 -0.150649 2.04045 0
M  V30 1959 H 189.76 -2.12803 3.48107 0
M  V30 1960 H 188.435 -1.10412 4.00976 0
M  V30 1961 H 187.012 -2.47199 2.7919 0
M  V30 1962 N 189.197 -1.51736 -0.425897 0
M  V30 1963 C 190.129 -1.70083 -1.53638 0
M  V30 1964 C 191.142 -0.581349 -1.52066 0
M  V30 1965 O 192.331 -0.856017 -1.56635 0
M  V30 1966 C 189.431 -1.71078 -2.9255 0
M  V30 1967 C 188.604 -2.99795 -3.185 0
M  V30 1968 C 187.663 -2.92825 -4.37196 0
M  V30 1969 O 186.689 -3.66756 -4.35291 0
M  V30 1970 N 187.891 -2.0946 -5.41393 0
M  V30 1971 H 190.656 -2.65882 -1.383 0
M  V30 1972 H 188.217 -1.49765 -0.614988 0
M  V30 1973 H 190.209 -1.63969 -3.69995 0
M  V30 1974 H 188.779 -0.828242 -3.01428 0
M  V30 1975 H 187.999 -3.20684 -2.2925 0
M  V30 1976 H 189.287 -3.84977 -3.32671 0
M  V30 1977 H 188.685 -1.48792 -5.45781 0
M  V30 1978 H 187.242 -2.08221 -6.17647 0
M  V30 1979 N 190.675 0.682077 -1.42076 0
M  V30 1980 C 191.605 1.80796 -1.47767 0
M  V30 1981 C 192.586 1.6677 -0.334954 0
M  V30 1982 O 193.771 1.863 -0.548264 0
M  V30 1983 C 190.901 3.19038 -1.37229 0
M  V30 1984 C 189.855 3.47789 -2.49453 0
M  V30 1985 C 189.181 4.8553 -2.23975 0
M  V30 1986 C 190.481 3.45411 -3.91776 0
M  V30 1987 H 192.175 1.7629 -2.41997 0
M  V30 1988 H 189.721 0.846721 -1.16476 0
M  V30 1989 H 191.674 3.97528 -1.39821 0
M  V30 1990 H 190.398 3.24204 -0.394907 0
M  V30 1991 H 189.057 2.71657 -2.46166 0
M  V30 1992 H 188.705 4.87337 -1.24547 0
M  V30 1993 H 188.405 5.0573 -2.99184 0
M  V30 1994 H 189.929 5.66312 -2.28304 0
M  V30 1995 H 191.343 4.13882 -3.96705 0
M  V30 1996 H 189.74 3.77145 -4.66778 0
M  V30 1997 H 190.81 2.44122 -4.18966 0
M  V30 1998 N 192.153 1.28127 0.917671 0
M  V30 1999 C 193.086 1.06039 2.02067 0
M  V30 2000 C 194.064 -0.0223285 1.62585 0
M  V30 2001 O 195.248 0.124823 1.88086 0
M  V30 2002 C 192.375 0.610596 3.33151 0
M  V30 2003 C 191.421 1.68937 3.91615 0
M  V30 2004 S 192.254 3.28437 4.22953 0
M  V30 2005 C 193.41 2.85283 5.57103 0
M  V30 2006 H 193.643 1.99425 2.20493 0
M  V30 2007 H 191.176 1.12071 1.06205 0
M  V30 2008 H 193.134 0.357778 4.08938 0
M  V30 2009 H 191.795 -0.303364 3.12632 0
M  V30 2010 H 190.988 1.32619 4.86239 0
M  V30 2011 H 190.59 1.89478 3.2245 0
M  V30 2012 H 192.882 2.3121 6.36827 0
M  V30 2013 H 193.825 3.7869 5.98331 0
M  V30 2014 H 194.233 2.24118 5.18104 0
M  V30 2015 N 193.631 -1.12557 1.10312 0
M  V30 2016 C 194.578 -2.18247 0.750781 0
M  V30 2017 C 195.548 -1.63853 -0.272293 0
M  V30 2018 O 196.733 -1.90195 -0.151862 0
M  V30 2019 C 193.873 -3.44591 0.187379 0
M  V30 2020 C 192.986 -4.13046 1.2656 0
M  V30 2021 C 192.121 -5.27034 0.663978 0
M  V30 2022 C 191.16 -5.87353 1.72287 0
M  V30 2023 N 190.297 -6.92757 1.1416 0
M  V30 2024 H 195.137 -2.47732 1.65628 0
M  V30 2025 H 192.674 -1.21629 0.827337 0
M  V30 2026 H 194.632 -4.16904 -0.157148 0
M  V30 2027 H 193.262 -3.15527 -0.681355 0
M  V30 2028 H 192.314 -3.38924 1.72727 0
M  V30 2029 H 193.626 -4.53947 2.06721 0
M  V30 2030 H 192.78 -6.06104 0.268824 0
M  V30 2031 H 191.519 -4.87407 -0.169082 0
M  V30 2032 H 190.524 -5.06971 2.12746 0
M  V30 2033 H 191.749 -6.29051 2.55875 0
M  V30 2034 H 189.695 -6.5517 0.329984 0
M  V30 2035 H 189.612 -7.3225 1.88007 0
M  V30 2036 H 190.88 -7.75658 0.772956 0
M  V30 2037 N 195.109 -0.891671 -1.2995 0
M  V30 2038 C 196.339 -0.527893 -1.99742 0
M  V30 2039 C 196.747 0.88979 -1.66971 0
M  V30 2040 O 196.09 1.59766 -0.906667 0
M  V30 2041 C 196.152 -0.630804 -3.53922 0
M  V30 2042 C 195.816 -2.01401 -4.10228 0
M  V30 2043 C 196.813 -2.98422 -4.25724 0
M  V30 2044 C 194.498 -2.32121 -4.45449 0
M  V30 2045 C 196.492 -4.24293 -4.75662 0
M  V30 2046 C 194.179 -3.58237 -4.95086 0
M  V30 2047 C 195.177 -4.54137 -5.10146 0
M  V30 2048 O 194.865 -5.78014 -5.58708 0
M  V30 2049 H 194.597 -0.201953 -0.645129 0
M  V30 2050 H 197.151 -1.20076 -1.66646 0
M  V30 2051 H 195.381 0.0990616 -3.86573 0
M  V30 2052 H 197.07 -0.277338 -4.04951 0
M  V30 2053 H 197.836 -2.76001 -3.98809 0
M  V30 2054 H 193.715 -1.5824 -4.32991 0
M  V30 2055 H 197.259 -4.99153 -4.87332 0
M  V30 2056 H 193.156 -3.80491 -5.21437 0
M  V30 2057 H 193.924 -5.8049 -5.77039 0
M  V30 2058 N 196.587 1.43421 -0.653314 0
M  V30 2059 C 197.836 2.01032 -0.164076 0
M  V30 2060 C 198.149 1.52147 1.22926 0
M  V30 2061 O 199.355 2.02031 1.81371 0
M  V30 2062 C 197.811 3.59082 -0.24252 0
M  V30 2063 C 197.419 4.1696 -1.63855 0
M  V30 2064 C 199.163 4.24079 0.18911 0
M  V30 2065 C 197.07 5.67304 -1.67092 0
M  V30 2066 H 196 0.751798 -0.0575769 0
M  V30 2067 H 198.651 1.6439 -0.815362 0
M  V30 2068 H 197.033 3.93125 0.476276 0
M  V30 2069 H 198.207 3.94416 -2.38271 0
M  V30 2070 H 196.522 3.64335 -2.01616 0
M  V30 2071 H 199.119 5.34381 0.184775 0
M  V30 2072 H 199.462 3.98005 1.22056 0
M  V30 2073 H 199.995 3.94918 -0.477938 0
M  V30 2074 H 196.734 5.98145 -2.68146 0
M  V30 2075 H 196.254 5.91904 -0.970014 0
M  V30 2076 H 197.933 6.31344 -1.4147 0
M  V30 2077 N 198.065 0.39524 1.52563 0
M  V30 2078 C 198.995 -0.428384 2.29537 0
M  V30 2079 C 199.976 -1.05831 1.33169 0
M  V30 2080 O 201.161 -1.06995 1.62067 0
M  V30 2081 C 198.291 -1.55274 3.10656 0
M  V30 2082 C 197.245 -1.04855 4.14957 0
M  V30 2083 C 196.571 -2.26543 4.84337 0
M  V30 2084 C 197.871 -0.112324 5.22179 0
M  V30 2085 H 199.565 0.213867 2.98635 0
M  V30 2086 H 197.111 0.104298 1.43622 0
M  V30 2087 H 199.064 -2.1358 3.63265 0
M  V30 2088 H 197.788 -2.22266 2.39302 0
M  V30 2089 H 196.447 -0.487985 3.63338 0
M  V30 2090 H 196.095 -2.92059 4.09525 0
M  V30 2091 H 195.795 -1.93466 5.54837 0
M  V30 2092 H 197.319 -2.85481 5.39753 0
M  V30 2093 H 198.733 -0.603752 5.70112 0
M  V30 2094 H 197.13 0.128968 5.99961 0
M  V30 2095 H 198.2 0.837052 4.77621 0
M  V30 2096 N 199.544 -1.57102 0.125237 0
M  V30 2097 C 200.774 -1.99472 -0.538015 0
M  V30 2098 C 201.182 -1.00395 -1.60366 0
M  V30 2099 O 200.525 0.0103875 -1.83697 0
M  V30 2100 C 200.587 -3.38262 -1.21734 0
M  V30 2101 C 200.251 -4.56021 -0.298897 0
M  V30 2102 C 201.248 -5.17817 0.464943 0
M  V30 2103 C 198.933 -5.01869 -0.208149 0
M  V30 2104 C 200.927 -6.23852 1.3072 0
M  V30 2105 C 198.614 -6.07763 0.637736 0
M  V30 2106 C 199.612 -6.68622 1.39403 0
M  V30 2107 O 199.3 -7.7247 2.22586 0
M  V30 2108 H 199.032 -0.659934 -0.146501 0
M  V30 2109 H 201.586 -2.04321 0.210267 0
M  V30 2110 H 199.816 -3.30185 -2.01282 0
M  V30 2111 H 201.505 -3.6488 -1.77813 0
M  V30 2112 H 202.271 -4.83308 0.404741 0
M  V30 2113 H 198.15 -4.54241 -0.786522 0
M  V30 2114 H 201.694 -6.71284 1.898 0
M  V30 2115 H 197.591 -6.41701 0.699309 0
M  V30 2116 H 198.359 -7.89595 2.15596 0
M  V30 2117 N 201.022 0.148545 -1.56898 0
M  V30 2118 C 201.969 1.18345 -1.98149 0
M  V30 2119 C 202.939 1.42772 -0.848848 0
M  V30 2120 O 204.124 1.55132 -1.11079 0
M  V30 2121 C 201.264 2.51231 -2.36594 0
M  V30 2122 C 200.377 2.33991 -3.63142 0
M  V30 2123 C 199.512 3.59902 -3.90697 0
M  V30 2124 C 198.551 3.37692 -5.1052 0
M  V30 2125 N 197.688 4.5573 -5.34092 0
M  V30 2126 H 202.528 0.82467 -2.86362 0
M  V30 2127 H 200.065 0.395756 -1.41676 0
M  V30 2128 H 202.023 3.28713 -2.56912 0
M  V30 2129 H 200.653 2.85059 -1.51463 0
M  V30 2130 H 199.705 1.47572 -3.50609 0
M  V30 2131 H 201.017 2.13539 -4.5078 0
M  V30 2132 H 200.171 4.45813 -4.11505 0
M  V30 2133 H 198.91 3.83357 -3.01477 0
M  V30 2134 H 197.915 2.5017 -4.89587 0
M  V30 2135 H 199.14 3.15637 -6.0129 0
M  V30 2136 H 197.086 4.79361 -4.47827 0
M  V30 2137 H 197.003 4.38274 -6.15996 0
M  V30 2138 H 198.271 5.42858 -5.59397 0
M  V30 2139 N 202.5 1.5196 0.417844 0
M  V30 2140 C 203.748 1.65263 1.16329 0
M  V30 2141 C 204.069 0.380634 1.91249 0
M  V30 2142 O 203.339 -0.604214 1.86349 0
M  V30 2143 H 201.919 0.60912 0.432414 0
M  V30 2144 H 204.581 1.88969 0.477162 0
M  V30 2145 H 203.677 2.4896 1.88217 0
M  V30 2146 N 203.978 -0.674533 1.42435 0
M  V30 2147 C 205.225 -1.43459 1.42919 0
M  V30 2148 C 205.553 -1.94446 0.0457312 0
M  V30 2149 O 204.808 -1.7132 -0.94593 0
M  V30 2150 C 205.107 -2.64767 2.40069 0
M  V30 2151 C 204.773 -2.3232 3.86443 0
M  V30 2152 C 203.435 -2.23182 4.26314 0
M  V30 2153 C 205.787 -2.05977 4.78773 0
M  V30 2154 C 203.115 -1.85827 5.56494 0
M  V30 2155 C 205.467 -1.70125 6.09295 0
M  V30 2156 C 204.131 -1.59498 6.48164 0
M  V30 2157 H 203.401 -0.524952 0.522978 0
M  V30 2158 H 206.048 -0.769097 1.75377 0
M  V30 2159 H 204.353 -3.36349 2.00939 0
M  V30 2160 H 206.05 -3.22949 2.37707 0
M  V30 2161 H 202.64 -2.40334 3.54877 0
M  V30 2162 H 206.824 -2.11969 4.48757 0
M  V30 2163 H 202.08 -1.76168 5.8547 0
M  V30 2164 H 206.254 -1.48767 6.80324 0
M  V30 2165 H 203.881 -1.30322 7.48946 0
M  V30 2166 N 205.456 -1.28612 -0.910864 0
M  V30 2167 C 206.705 -1.15311 -1.65488 0
M  V30 2168 C 207.018 0.296999 -1.93332 0
M  V30 2169 O 208.224 0.551168 -2.65847 0
M  V30 2170 C 206.68 -2.01599 -2.98137 0
M  V30 2171 C 206.288 -3.51367 -2.7793 0
M  V30 2172 C 208.032 -1.96993 -3.76024 0
M  V30 2173 C 205.939 -4.29797 -4.06237 0
M  V30 2174 H 204.869 -0.42796 -0.620779 0
M  V30 2175 H 207.52 -1.53166 -1.01057 0
M  V30 2176 H 205.902 -1.56603 -3.63719 0
M  V30 2177 H 207.076 -4.0434 -2.21011 0
M  V30 2178 H 205.391 -3.57529 -2.13452 0
M  V30 2179 H 207.988 -2.52856 -4.71135 0
M  V30 2180 H 208.331 -0.94733 -4.05378 0
M  V30 2181 H 208.864 -2.39973 -3.17266 0
M  V30 2182 H 205.603 -5.32648 -3.82055 0
M  V30 2183 H 205.123 -3.81596 -4.62757 0
M  V30 2184 H 206.802 -4.39869 -4.74473 0
M  V30 2185 N 206.934 1.1197 -1.10907 0
M  V30 2186 C 208.182 1.83225 -0.852819 0
M  V30 2187 C 208.503 1.84769 0.623341 0
M  V30 2188 O 207.773 1.3143 1.45269 0
M  V30 2189 H 206.353 0.67849 -0.312507 0
M  V30 2190 H 209.015 1.3556 -1.40033 0
M  V30 2191 H 208.111 2.87265 -1.22005 0
M  V30 2192 N 208.412 0.89855 1.29475 0
M  V30 2193 C 209.661 0.519863 1.94885 0
M  V30 2194 C 209.974 -0.9383 1.71625 0
M  V30 2195 O 211.18 -1.42445 2.31131 0
M  V30 2196 C 209.636 0.878836 3.49005 0
M  V30 2197 C 209.244 2.35569 3.81066 0
M  V30 2198 C 210.988 0.570004 4.20656 0
M  V30 2199 C 208.895 2.65558 5.28425 0
M  V30 2200 H 207.825 0.190692 0.729488 0
M  V30 2201 H 210.476 1.09539 1.47219 0
M  V30 2202 H 208.858 0.232253 3.95318 0
M  V30 2203 H 210.032 3.04773 3.45616 0
M  V30 2204 H 208.347 2.63343 3.22552 0
M  V30 2205 H 210.944 0.770925 5.29113 0
M  V30 2206 H 211.287 -0.491404 4.1339 0
M  V30 2207 H 211.82 1.17438 3.8007 0
M  V30 2208 H 208.559 3.70493 5.40754 0
M  V30 2209 H 208.079 2.00977 5.65127 0
M  V30 2210 H 209.758 2.51765 5.96006 0
M  V30 2211 N 209.89 -1.43072 0.660911 0
M  V30 2212 C 211.167 -1.95307 0.107017 0
M  V30 2213 C 211.547 -1.60192 -1.37484 0
M  V30 2214 O 210.895 -0.890949 -2.10415 0
M  V30 2215 C 211.105 -3.47124 0.361402 0
M  V30 2216 C 212.453 -4.23738 0.270455 0
M  V30 2217 O 213.477 -3.54981 0.294382 0
M  V30 2218 O 212.336 -5.46131 0.200737 0
M  V30 2219 H 209.43 -0.826984 -0.00517729 0
M  V30 2220 H 211.976 -1.52972 0.734681 0
M  V30 2221 H 210.748 -3.65837 1.38848 0
M  V30 2222 H 210.371 -3.96475 -0.298953 0
M  V30 2223 N 211.368 -0.403325 -1.52352 0
M  V30 2224 C 212.616 0.174003 -2.0135 0
M  V30 2225 C 212.937 1.46139 -1.29106 0
M  V30 2226 O 212.207 1.91448 -0.415253 0
M  V30 2227 H 210.787 0.0672911 -0.743963 0
M  V30 2228 H 213.449 -0.538235 -1.87321 0
M  V30 2229 H 212.545 0.374254 -3.09848 0
M  V30 2230 N 212.846 1.57033 -0.133567 0
M  V30 2231 C 214.095 1.94861 0.520768 0
M  V30 2232 C 214.408 1.02012 1.66892 0
M  V30 2233 O 215.614 1.29365 2.38699 0
M  V30 2234 C 214.07 3.46362 0.977809 0
M  V30 2235 C 213.678 4.47773 -0.142674 0
M  V30 2236 C 215.422 3.93083 1.60269 0
M  V30 2237 C 213.329 5.90468 0.331883 0
M  V30 2238 H 212.259 0.727453 0.198315 0
M  V30 2239 H 214.91 1.82227 -0.215759 0
M  V30 2240 H 213.292 3.54282 1.7692 0
M  V30 2241 H 214.466 4.51536 -0.919317 0
M  V30 2242 H 212.781 4.10891 -0.675124 0
M  V30 2243 H 215.378 4.97121 1.96914 0
M  V30 2244 H 215.721 3.33876 2.48662 0
M  V30 2245 H 216.254 3.88025 0.876453 0
M  V30 2246 H 212.993 6.53463 -0.516341 0
M  V30 2247 H 212.513 5.90094 1.07469 0
M  V30 2248 H 214.192 6.42179 0.788332 0
M  V30 2249 N 214.325 -0.140222 1.56975 0
M  V30 2250 C 215.55 -0.870414 1.88251 0
M  V30 2251 C 215.975 -1.73637 0.723312 0
M  V30 2252 O 215.333 -1.78329 -0.32689 0
M  V30 2253 C 215.381 -1.69737 3.18154 0
M  V30 2254 O 214.485 -2.80229 3.02565 0
M  V30 2255 H 213.826 -0.242025 0.61832 0
M  V30 2256 H 216.356 -0.128999 2.04193 0
M  V30 2257 H 216.366 -2.09099 3.50345 0
M  V30 2258 H 215.041 -1.06152 4.02125 0
M  V30 2259 H 213.618 -2.44224 2.81796 0
M  V30 2260 N 215.803 -1.52179 -0.40978 0
M  V30 2261 C 216.733 -1.78435 -1.5061 0
M  V30 2262 C 217.714 -0.635295 -1.57791 0
M  V30 2263 O 218.899 -0.880823 -1.73076 0
M  V30 2264 C 216.029 -1.93444 -2.88439 0
M  V30 2265 C 214.983 -3.09038 -2.96108 0
M  V30 2266 C 214.309 -3.09268 -4.36185 0
M  V30 2267 C 215.609 -4.48508 -2.67652 0
M  V30 2268 H 217.303 -2.70237 -1.28889 0
M  V30 2269 H 214.849 -1.30036 -0.618605 0
M  V30 2270 H 216.802 -2.10394 -3.65119 0
M  V30 2271 H 215.526 -0.983129 -3.11452 0
M  V30 2272 H 214.185 -2.91837 -2.21872 0
M  V30 2273 H 213.833 -2.11861 -4.56206 0
M  V30 2274 H 213.533 -3.86907 -4.42241 0
M  V30 2275 H 215.057 -3.28348 -5.14801 0
M  V30 2276 H 216.471 -4.65918 -3.34056 0
M  V30 2277 H 214.868 -5.28059 -2.85085 0
M  V30 2278 H 215.938 -4.56649 -1.63095 0
M  V30 2279 N 217.281 0.66697 -1.42791 0
M  V30 2280 C 218.509 1.45505 -1.47091 0
M  V30 2281 C 218.924 1.8861 -0.0845873 0
M  V30 2282 O 218.281 1.58632 0.90234 0
M  V30 2283 C 218.332 2.69906 -2.40485 0
M  V30 2284 O 218.053 2.28608 -3.73725 0
M  V30 2285 C 219.554 3.63396 -2.53886 0
M  V30 2286 H 216.774 0.447459 -0.500022 0
M  V30 2287 H 219.318 0.818866 -1.8739 0
M  V30 2288 H 217.473 3.29696 -2.03419 0
M  V30 2289 H 217.887 3.08997 -4.23817 0
M  V30 2290 H 219.361 4.47387 -3.2334 0
M  V30 2291 H 219.838 4.09824 -1.57927 0
M  V30 2292 H 220.444 3.09495 -2.91706 0
M  V30 2293 N 218.759 1.29093 0.90403 0
M  V30 2294 C 220.005 1.16986 1.65656 0
M  V30 2295 C 220.338 -0.278925 1.92186 0
M  V30 2296 O 219.613 -1.2019 1.5292 0
M  V30 2297 C 219.896 1.97908 3.0084 0
M  V30 2298 C 219.749 3.50903 2.81403 0
M  V30 2299 C 221.068 1.80208 4.01513 0
M  V30 2300 H 218.187 0.426346 0.601164 0
M  V30 2301 H 220.829 1.58518 1.04747 0
M  V30 2302 H 218.979 1.62616 3.52829 0
M  V30 2303 H 220.651 3.96153 2.36348 0
M  V30 2304 H 218.894 3.76045 2.1627 0
M  V30 2305 H 219.565 4.02791 3.77443 0
M  V30 2306 H 222.041 2.11025 3.58619 0
M  V30 2307 H 220.917 2.39184 4.94047 0
M  V30 2308 H 221.178 0.756119 4.35586 0
M  V30 2309 N 220.237 -1.11381 1.11499 0
M  V30 2310 C 221.485 -1.8277 0.862524 0
M  V30 2311 C 221.806 -1.85097 -0.613534 0
M  V30 2312 O 221.076 -1.32198 -1.4457 0
M  V30 2313 H 219.656 -0.676823 0.316101 0
M  V30 2314 H 222.318 -1.34816 1.4075 0
M  V30 2315 H 221.414 -2.86614 1.23527 0
M  V30 2316 N 221.715 -0.905404 -1.28997 0
M  V30 2317 C 222.625 -0.392246 -2.31298 0
M  V30 2318 C 223.641 0.515889 -1.66176 0
M  V30 2319 O 224.817 0.404093 -1.97304 0
M  V30 2320 C 221.882 0.36686 -3.44754 0
M  V30 2321 C 220.943 -0.573485 -4.25452 0
M  V30 2322 C 220.176 0.149488 -5.33491 0
M  V30 2323 O 220.399 1.37255 -5.5364 0
M  V30 2324 O 219.333 -0.510919 -5.99728 0
M  V30 2325 H 223.159 -1.2411 -2.77183 0
M  V30 2326 H 220.744 -0.669926 -1.33538 0
M  V30 2327 H 222.626 0.795907 -4.13816 0
M  V30 2328 H 221.301 1.19169 -3.00966 0
M  V30 2329 H 220.208 -1.05176 -3.59011 0
M  V30 2330 H 221.541 -1.36489 -4.72897 0
M  V30 2331 N 223.193 1.4272 -0.668489 0
M  V30 2332 C 224.439 2.01923 -0.188419 0
M  V30 2333 C 224.772 1.52704 1.19979 0
M  V30 2334 O 224.047 0.726566 1.8042 0
M  V30 2335 C 224.33 3.59451 -0.216085 0
M  V30 2336 C 224.183 4.18864 -1.6393 0
M  V30 2337 C 225.502 4.37903 0.439179 0
M  V30 2338 H 222.621 0.733674 -0.0699412 0
M  V30 2339 H 225.263 1.69822 -0.852076 0
M  V30 2340 H 223.413 3.86929 0.349012 0
M  V30 2341 H 225.085 4.02362 -2.25616 0
M  V30 2342 H 223.328 3.74933 -2.18193 0
M  V30 2343 H 223.999 5.27987 -1.61039 0
M  V30 2344 H 226.475 4.16079 -0.0417878 0
M  V30 2345 H 225.351 5.47519 0.389157 0
M  V30 2346 H 225.612 4.15303 1.51577 0
M  V30 2347 N 224.671 0.411399 1.52136 0
M  V30 2348 C 225.899 -0.163076 2.06256 0
M  V30 2349 C 226.314 -1.3867 1.28125 0
M  V30 2350 O 225.671 -1.79423 0.333721 0
M  V30 2351 C 225.722 -0.511252 3.57867 0
M  V30 2352 O 225.443 0.66378 4.33042 0
M  V30 2353 C 226.944 -1.13921 4.28412 0
M  V30 2354 H 224.164 -0.0193897 0.67072 0
M  V30 2355 H 226.708 0.583007 1.96013 0
M  V30 2356 H 224.863 -1.20723 3.6811 0
M  V30 2357 H 225.277 0.372601 5.23175 0
M  V30 2358 H 226.751 -1.33302 5.35663 0
M  V30 2359 H 227.228 -2.11296 3.85033 0
M  V30 2360 H 227.834 -0.483373 4.22544 0
M  V30 2361 N 226.149 -1.5696 0.141893 0
M  V30 2362 C 227.56 -1.82797 -0.379776 0
M  V30 2363 C 227.911 -1.06033 -1.6508 0
M  V30 2364 O 227.036 -0.304011 -2.14254 0
M  V30 2365 C 227.631 -3.31578 -0.695802 0
M  V30 2366 C 226.19 -3.58014 -1.16201 0
M  V30 2367 C 225.337 -2.76699 -0.182455 0
M  V30 2368 H 228.288 -1.54406 0.366675 0
M  V30 2369 H 228.309 -3.47454 -1.55099 0
M  V30 2370 H 227.821 -3.87421 0.229449 0
M  V30 2371 H 225.922 -3.07553 -2.10338 0
M  V30 2372 H 226.035 -4.66501 -1.09151 0
M  V30 2373 H 224.399 -2.45618 -0.674072 0
M  V30 2374 H 225.182 -3.35311 0.736297 0
M  V30 2375 N 227.627 0.131896 -1.57047 0
M  V30 2376 C 228.855 0.856461 -1.88341 0
M  V30 2377 C 229.27 1.74042 -0.731757 0
M  V30 2378 O 228.627 1.80051 0.297945 0
M  V30 2379 C 228.678 1.70064 -3.18999 0
M  V30 2380 O 228.399 0.852278 -4.2973 0
M  V30 2381 C 229.9 2.53148 -3.63911 0
M  V30 2382 H 227.12 0.246885 -0.62393 0
M  V30 2383 H 229.664 0.120152 -2.04147 0
M  V30 2384 H 227.819 2.38984 -3.04902 0
M  V30 2385 H 228.233 1.43329 -5.04537 0
M  V30 2386 H 229.707 3.07931 -4.58129 0
M  V30 2387 H 230.184 3.29901 -2.89935 0
M  V30 2388 H 230.79 1.89492 -3.80753 0
M  V30 2389 N 229.106 1.52395 0.401703 0
M  V30 2390 C 230.522 1.41363 0.740864 0
M  V30 2391 C 230.722 0.523982 1.94568 0
M  V30 2392 O 229.778 -0.00741204 2.52499 0
M  V30 2393 C 231.091 2.84011 0.987847 0
M  V30 2394 C 232.639 2.93404 1.09011 0
M  V30 2395 C 233.114 4.37036 1.3698 0
M  V30 2396 N 234.605 4.40304 1.43829 0
M  V30 2397 C 235.34 5.48508 1.67112 0
M  V30 2398 N 234.836 6.66819 1.87949 0
M  V30 2399 N 236.629 5.36034 1.69187 0
M  V30 2400 H 228.78 2.08765 -0.391262 0
M  V30 2401 H 231.043 0.941265 -0.112798 0
M  V30 2402 H 230.749 3.51265 0.174835 0
M  V30 2403 H 230.623 3.25502 1.906 0
M  V30 2404 H 233.01 2.26325 1.8937 0
M  V30 2405 H 233.091 2.55359 0.15015 0
M  V30 2406 H 232.735 5.04676 0.571353 0
M  V30 2407 H 232.665 4.72623 2.3224 0
M  V30 2408 H 235.156 3.55024 1.29486 0
M  V30 2409 H 235.469 7.45063 2.05185 0
M  V30 2410 H 233.814 6.6987 1.85199 0
M  V30 2411 H 237.005 4.42579 1.52451 0
M  V30 2412 H 237.178 6.20434 1.86993 0
M  V30 2413 N 230.584 -0.659388 1.43143 0
M  V30 2414 C 231.831 -1.41935 1.44433 0
M  V30 2415 C 232.159 -1.94387 0.0663522 0
M  V30 2416 O 231.414 -1.72314 -0.927706 0
M  V30 2417 C 231.713 -2.62206 2.42864 0
M  V30 2418 C 231.379 -2.28208 3.88886 0
M  V30 2419 C 230.041 -2.18647 4.28657 0
M  V30 2420 C 232.393 -2.00887 4.8093 0
M  V30 2421 C 229.721 -1.79914 5.58433 0
M  V30 2422 C 232.073 -1.63653 6.11065 0
M  V30 2423 C 230.737 -1.52614 6.49819 0
M  V30 2424 H 230.007 -0.519376 0.528517 0
M  V30 2425 H 232.654 -0.750453 1.76183 0
M  V30 2426 H 230.959 -3.34199 2.04495 0
M  V30 2427 H 232.656 -3.2041 2.41119 0
M  V30 2428 H 229.246 -2.36557 3.57406 0
M  V30 2429 H 233.43 -2.07198 4.5098 0
M  V30 2430 H 228.686 -1.69948 5.87305 0
M  V30 2431 H 232.86 -1.41543 6.81864 0
M  V30 2432 H 230.487 -1.22371 7.50286 0
M  V30 2433 N 232.062 -1.29571 -0.897171 0
M  V30 2434 C 233.302 -1.18959 -1.66217 0
M  V30 2435 C 233.666 0.254271 -1.90309 0
M  V30 2436 O 234.867 0.483407 -2.64417 0
M  V30 2437 C 233.138 -1.98302 -2.9734 0
M  V30 2438 S 234.697 -2.04253 -3.88364 0
M  V30 2439 H 231.515 -0.424137 -0.570639 0
M  V30 2440 H 234.117 -1.6389 -1.06585 0
M  V30 2441 H 232.821 -3.02342 -2.77521 0
M  V30 2442 H 232.352 -1.53986 -3.62011 0
M  V30 2443 H 234.367 -1.16105 -4.82425 0
M  V30 2444 N 233.54 1.10788 -1.12088 0
M  V30 2445 C 234.786 1.82942 -0.875226 0
M  V30 2446 C 235.119 1.84779 0.597538 0
M  V30 2447 O 234.394 1.30578 1.44152 0
M  V30 2448 C 234.677 3.29789 -1.44606 0
M  V30 2449 C 234.53 3.36307 -2.98693 0
M  V30 2450 C 235.849 4.26064 -1.10261 0
M  V30 2451 H 232.968 0.664195 -0.319397 0
M  V30 2452 H 235.61 1.29867 -1.38689 0
M  V30 2453 H 233.76 3.75118 -1.01089 0
M  V30 2454 H 235.432 2.99487 -3.50864 0
M  V30 2455 H 233.675 2.76318 -3.34411 0
M  V30 2456 H 234.346 4.39694 -3.33726 0
M  V30 2457 H 236.822 3.88951 -1.4784 0
M  V30 2458 H 235.698 5.27183 -1.52869 0
M  V30 2459 H 235.959 4.42098 -0.0142953 0
M  V30 2460 N 235.018 0.912232 1.28515 0
M  V30 2461 C 235.968 0.370649 2.24967 0
M  V30 2462 C 236.952 -0.516375 1.52389 0
M  V30 2463 O 238.144 -0.356345 1.73376 0
M  V30 2464 C 235.273 -0.389526 3.41083 0
M  V30 2465 C 234.359 0.51313 4.20984 0
M  V30 2466 N 234.75 1.62604 4.78951 0
M  V30 2467 C 233.048 0.313235 4.44899 0
M  V30 2468 C 233.749 2.18619 5.39055 0
M  V30 2469 N 232.725 1.47765 5.23132 0
M  V30 2470 H 236.527 1.22061 2.67354 0
M  V30 2471 H 234.041 0.764712 1.43269 0
M  V30 2472 H 236.038 -0.794353 4.09262 0
M  V30 2473 H 234.698 -1.2366 3.0023 0
M  V30 2474 H 235.709 2.00864 4.77362 0
M  V30 2475 H 232.386 -0.494452 4.14562 0
M  V30 2476 H 233.776 3.12228 5.94948 0
M  V30 2477 N 236.496 -1.42363 0.676048 0
M  V30 2478 C 237.426 -2.33497 0.0124832 0
M  V30 2479 C 238.407 -1.50748 -0.787981 0
M  V30 2480 O 239.592 -1.79346 -0.744884 0
M  V30 2481 C 236.722 -3.34377 -0.938582 0
M  V30 2482 C 235.676 -4.27289 -0.246622 0
M  V30 2483 C 235.002 -5.18386 -1.31071 0
M  V30 2484 C 236.302 -5.14916 0.875125 0
M  V30 2485 H 237.996 -2.89233 0.773593 0
M  V30 2486 H 235.542 -1.39073 0.37346 0
M  V30 2487 H 237.495 -3.97044 -1.41188 0
M  V30 2488 H 236.219 -2.76947 -1.73113 0
M  V30 2489 H 234.878 -3.66018 0.206456 0
M  V30 2490 H 234.526 -4.57282 -2.09528 0
M  V30 2491 H 234.226 -5.81378 -0.852839 0
M  V30 2492 H 235.75 -5.83929 -1.78492 0
M  V30 2493 H 237.164 -5.71262 0.482983 0
M  V30 2494 H 235.561 -5.86747 1.25887 0
M  V30 2495 H 236.631 -4.53242 1.72335 0
M  V30 2496 N 237.974 -0.419461 -1.51915 0
M  V30 2497 C 239.223 0.154346 -2.01109 0
M  V30 2498 C 239.536 1.45338 -1.30905 0
M  V30 2499 O 240.742 2.10906 -1.7097 0
M  V30 2500 C 239.198 0.325615 -3.58424 0
M  V30 2501 C 238.806 -0.961934 -4.37551 0
M  V30 2502 C 240.55 0.854155 -4.15818 0
M  V30 2503 C 238.457 -0.757287 -5.86531 0
M  V30 2504 H 237.387 0.0614563 -0.751491 0
M  V30 2505 H 240.038 -0.54649 -1.75173 0
M  V30 2506 H 238.42 1.08903 -3.80731 0
M  V30 2507 H 239.594 -1.7323 -4.26999 0
M  V30 2508 H 237.909 -1.41766 -3.91524 0
M  V30 2509 H 240.506 1.02346 -5.24814 0
M  V30 2510 H 240.849 1.83172 -3.73837 0
M  V30 2511 H 241.382 0.149528 -3.97519 0
M  V30 2512 H 238.121 -1.70671 -6.32892 0
M  V30 2513 H 237.641 -0.0264061 -5.99794 0
M  V30 2514 H 239.32 -0.403482 -6.45741 0
M  V30 2515 N 239.452 1.56882 -0.150215 0
M  V30 2516 C 240.863 1.82995 0.370076 0
M  V30 2517 C 241.214 1.06907 1.64515 0
M  V30 2518 O 240.339 0.315369 2.1409 0
M  V30 2519 C 240.934 3.31942 0.678208 0
M  V30 2520 C 239.493 3.58625 1.14301 0
M  V30 2521 C 238.64 2.76792 0.167778 0
M  V30 2522 H 241.591 1.54209 -0.374858 0
M  V30 2523 H 241.612 3.48272 1.53254 0
M  V30 2524 H 241.124 3.87294 -0.249991 0
M  V30 2525 H 239.225 3.08664 2.08704 0
M  V30 2526 H 239.338 4.67073 1.06676 0
M  V30 2527 H 237.702 2.45972 0.661037 0
M  V30 2528 H 238.485 3.34916 -0.754069 0
M  V30 2529 N 240.93 -0.123565 1.57115 0
M  V30 2530 C 241.84 -1.17074 2.033 0
M  V30 2531 C 242.856 -1.4561 0.952559 0
M  V30 2532 O 244.032 -1.56817 1.26374 0
M  V30 2533 C 241.097 -2.47857 2.42421 0
M  V30 2534 C 240.158 -2.26758 3.64526 0
M  V30 2535 C 239.391 -3.51305 4.01771 0
M  V30 2536 O 239.614 -4.5843 3.39409 0
M  V30 2537 O 238.548 -3.42578 4.94898 0
M  V30 2538 H 242.374 -0.808555 2.92739 0
M  V30 2539 H 239.959 -0.334027 1.45618 0
M  V30 2540 H 241.841 -3.2492 2.68338 0
M  V30 2541 H 240.516 -2.83558 1.5613 0
M  V30 2542 H 239.423 -1.47569 3.43765 0
M  V30 2543 H 240.756 -1.95963 4.51508 0
M  V30 2544 N 242.408 -1.52605 -0.393616 0
M  V30 2545 C 243.636 -1.71294 -1.16043 0
M  V30 2546 C 244.051 -0.429259 -1.83855 0
M  V30 2547 O 243.408 0.595921 -1.72496 0
M  V30 2548 C 243.459 -2.8593 -2.21193 0
M  V30 2549 O 243.18 -4.09329 -1.56146 0
M  V30 2550 C 244.681 -3.16259 -3.10636 0
M  V30 2551 H 241.901 -0.573641 -0.348104 0
M  V30 2552 H 244.445 -1.99234 -0.461092 0
M  V30 2553 H 242.6 -2.60465 -2.86769 0
M  V30 2554 H 243.014 -4.73323 -2.25978 0
M  V30 2555 H 244.488 -3.99946 -3.80456 0
M  V30 2556 H 244.965 -2.3045 -3.73884 0
M  V30 2557 H 245.571 -3.43547 -2.50711 0
M  V30 2558 N 243.887 0.651787 -1.4349 0
M  V30 2559 C 244.817 1.77621 -1.51569 0
M  V30 2560 C 245.798 1.66022 -0.370253 0
M  V30 2561 O 246.983 1.85095 -0.587658 0
M  V30 2562 C 244.113 3.16056 -1.43966 0
M  V30 2563 C 243.067 3.4242 -2.56774 0
M  V30 2564 C 242.393 4.8067 -2.34223 0
M  V30 2565 C 243.693 3.37023 -3.99015 0
M  V30 2566 H 245.387 1.71117 -2.45681 0
M  V30 2567 H 242.933 0.821825 -1.18246 0
M  V30 2568 H 244.886 3.94472 -1.48221 0
M  V30 2569 H 243.61 3.23293 -0.463586 0
M  V30 2570 H 242.269 2.66375 -2.51873 0
M  V30 2571 H 241.917 4.84585 -1.34856 0
M  V30 2572 H 241.617 4.9927 -3.09844 0
M  V30 2573 H 243.141 5.61342 -2.40265 0
M  V30 2574 H 244.555 4.05374 -4.05395 0
M  V30 2575 H 242.952 3.67159 -4.74673 0
M  V30 2576 H 244.022 2.3518 -4.2405 0
M  V30 2577 N 245.365 1.30045 0.890287 0
M  V30 2578 C 246.275 1.17885 2.02831 0
M  V30 2579 C 247.291 0.0999609 1.73713 0
M  V30 2580 O 248.467 0.313867 1.98939 0
M  V30 2581 C 245.532 0.866079 3.35708 0
M  V30 2582 C 244.593 2.02979 3.78283 0
M  V30 2583 C 243.826 1.73184 5.0482 0
M  V30 2584 O 244.049 0.657237 5.66601 0
M  V30 2585 O 242.983 2.58267 5.43674 0
M  V30 2586 H 246.809 2.13474 2.16015 0
M  V30 2587 H 244.394 1.09587 1.01543 0
M  V30 2588 H 246.276 0.706623 4.15433 0
M  V30 2589 H 244.951 -0.0599443 3.23644 0
M  V30 2590 H 243.858 2.24454 2.99285 0
M  V30 2591 H 245.191 2.93734 3.94944 0
M  V30 2592 N 246.843 -1.10192 1.12674 0
M  V30 2593 C 248.259 -1.34235 0.863317 0
M  V30 2594 C 248.459 -1.95062 -0.505277 0
M  V30 2595 O 247.515 -2.19192 -1.25345 0
M  V30 2596 C 248.828 -2.2616 1.98172 0
M  V30 2597 C 250.376 -2.3969 2.0129 0
M  V30 2598 C 250.851 -3.34946 3.1237 0
M  V30 2599 N 252.342 -3.42515 3.11829 0
M  V30 2600 C 253.077 -4.16199 3.94419 0
M  V30 2601 N 252.573 -4.92747 4.87004 0
M  V30 2602 N 254.366 -4.11843 3.82547 0
M  V30 2603 H 246.517 -0.690798 2.00853 0
M  V30 2604 H 248.78 -0.366774 0.874174 0
M  V30 2605 H 248.486 -1.8868 2.96804 0
M  V30 2606 H 248.36 -3.26488 1.88906 0
M  V30 2607 H 250.747 -2.76438 1.03276 0
M  V30 2608 H 250.828 -1.39169 2.14629 0
M  V30 2609 H 250.472 -2.98923 4.10619 0
M  V30 2610 H 250.402 -4.35353 2.96269 0
M  V30 2611 H 252.893 -2.87926 2.44759 0
M  V30 2612 H 253.206 -5.46376 5.46528 0
M  V30 2613 H 251.551 -4.91862 4.91016 0
M  V30 2614 H 254.742 -3.51136 3.0955 0
M  V30 2615 H 254.915 -4.69007 4.47142 0
M  V30 2616 N 248.321 -0.919034 -1.28029 0
M  V30 2617 C 249.549 -0.570971 -1.98866 0
M  V30 2618 C 249.964 0.848996 -1.68634 0
M  V30 2619 O 249.321 1.56307 -0.942036 0
M  V30 2620 C 249.372 -0.776876 -3.53054 0
M  V30 2621 O 249.093 -2.14097 -3.82222 0
M  V30 2622 C 250.594 -0.436356 -4.41147 0
M  V30 2623 H 247.814 -0.217175 -0.634883 0
M  V30 2624 H 250.358 -1.23368 -1.63097 0
M  V30 2625 H 248.513 -0.161085 -3.87065 0
M  V30 2626 H 248.927 -2.18455 -4.76841 0
M  V30 2627 H 250.401 -0.63117 -5.4838 0
M  V30 2628 H 250.878 0.627686 -4.34692 0
M  V30 2629 H 251.484 -1.02991 -4.12641 0
M  V30 2630 N 249.799 1.42003 -0.683588 0
M  V30 2631 C 251.027 2.05746 -0.218182 0
M  V30 2632 C 251.442 1.51396 1.12804 0
M  V30 2633 O 250.799 0.657303 1.70252 0
M  V30 2634 C 250.85 3.61171 -0.154131 0
M  V30 2635 O 250.571 4.13508 -1.44716 0
M  V30 2636 C 252.072 4.42042 0.333713 0
M  V30 2637 H 249.292 0.662888 -0.10402 0
M  V30 2638 H 251.836 1.81987 -0.9328 0
M  V30 2639 H 249.991 3.84012 0.511231 0
M  V30 2640 H 250.405 5.07453 -1.32632 0
M  V30 2641 H 251.879 5.51028 0.327423 0
M  V30 2642 H 252.356 4.17269 1.37053 0
M  V30 2643 H 252.962 4.24239 -0.300222 0
M  V30 2644 N 251.277 0.427512 1.51691 0
M  V30 2645 C 252.207 -0.3796 2.30394 0
M  V30 2646 C 253.188 -1.02982 1.35384 0
M  V30 2647 O 254.373 -1.03534 1.643 0
M  V30 2648 C 251.503 -1.48649 3.1388 0
M  V30 2649 C 250.457 -0.960294 4.17088 0
M  V30 2650 C 249.783 -2.16219 4.89033 0
M  V30 2651 C 251.083 -0.00153679 5.223 0
M  V30 2652 H 252.777 0.277164 2.98114 0
M  V30 2653 H 250.323 0.134739 1.43368 0
M  V30 2654 H 252.276 -2.05826 3.67714 0
M  V30 2655 H 251 -2.1714 2.43962 0
M  V30 2656 H 249.659 -0.410806 3.64291 0
M  V30 2657 H 249.307 -2.83307 4.15628 0
M  V30 2658 H 249.007 -1.81654 5.58816 0
M  V30 2659 H 250.531 -2.73968 5.45687 0
M  V30 2660 H 251.945 -0.482687 5.71264 0
M  V30 2661 H 250.342 0.256199 5.99553 0
M  V30 2662 H 251.412 0.938174 4.75738 0
M  V30 2663 N 252.755 -1.56801 0.158532 0
M  V30 2664 C 254.003 -1.96102 -0.488712 0
M  V30 2665 C 254.324 -1.04498 -1.64636 0
M  V30 2666 O 253.594 -0.108783 -1.95598 0
M  V30 2667 H 252.174 -0.724102 -0.183535 0
M  V30 2668 H 254.836 -1.93457 0.236728 0
M  V30 2669 H 253.932 -3.00097 -0.857219 0
M  V30 2670 N 254.233 0.115231 -1.57178 0
M  V30 2671 C 255.18 1.14115 -2.00615 0
M  V30 2672 C 256.15 1.40939 -0.878941 0
M  V30 2673 O 257.335 1.52741 -1.14345 0
M  V30 2674 C 254.475 2.46156 -2.4187 0
M  V30 2675 C 253.588 2.26236 -3.68024 0
M  V30 2676 C 252.723 3.51534 -3.98243 0
M  V30 2677 C 251.762 3.26787 -5.17568 0
M  V30 2678 N 250.899 4.44298 -5.43639 0
M  V30 2679 H 255.739 0.763743 -2.88047 0
M  V30 2680 H 253.276 0.365615 -1.42484 0
M  V30 2681 H 255.234 3.23189 -2.63827 0
M  V30 2682 H 253.864 2.81783 -1.57475 0
M  V30 2683 H 252.916 1.40102 -3.5366 0
M  V30 2684 H 254.228 2.03929 -4.55208 0
M  V30 2685 H 253.382 4.36984 -4.20868 0
M  V30 2686 H 252.121 3.76876 -3.09541 0
M  V30 2687 H 251.126 2.39729 -4.94783 0
M  V30 2688 H 252.351 3.02812 -6.0785 0
M  V30 2689 H 250.297 4.69754 -4.57895 0
M  V30 2690 H 250.214 4.25109 -6.25154 0
M  V30 2691 H 251.482 5.3087 -5.70786 0
M  V30 2692 N 255.711 1.52812 0.385517 0
M  V30 2693 C 256.658 1.77838 1.47113 0
M  V30 2694 C 257.628 0.621757 1.54024 0
M  V30 2695 O 258.813 0.861846 1.70226 0
M  V30 2696 C 255.953 1.95618 2.84302 0
M  V30 2697 C 255.066 3.23316 2.86515 0
M  V30 2698 C 254.201 3.31394 4.15152 0
M  V30 2699 C 253.24 4.53201 4.1143 0
M  V30 2700 N 252.377 4.58542 5.3168 0
M  V30 2701 H 257.217 2.70482 1.25073 0
M  V30 2702 H 254.754 1.34006 0.606692 0
M  V30 2703 H 256.712 2.03912 3.63972 0
M  V30 2704 H 255.342 1.06331 3.04784 0
M  V30 2705 H 254.394 3.24076 1.99195 0
M  V30 2706 H 255.706 4.13045 2.79634 0
M  V30 2707 H 254.86 3.3889 5.03228 0
M  V30 2708 H 253.599 2.39645 4.24761 0
M  V30 2709 H 252.604 4.45827 3.21742 0
M  V30 2710 H 253.829 5.46271 4.03442 0
M  V30 2711 H 251.775 3.69686 5.41912 0
M  V30 2712 H 251.692 5.42148 5.26889 0
M  V30 2713 H 252.96 4.70296 6.21644 0
M  V30 2714 N 257.189 -0.644168 1.43834 0
M  V30 2715 C 258.136 -1.75671 1.49694 0
M  V30 2716 C 259.106 -1.6246 0.345809 0
M  V30 2717 O 260.291 -1.82573 0.554234 0
M  V30 2718 C 257.431 -3.13867 1.43463 0
M  V30 2719 C 256.544 -3.38147 2.6885 0
M  V30 2720 C 255.679 -4.66241 2.54544 0
M  V30 2721 C 254.718 -4.83657 3.75157 0
M  V30 2722 N 253.855 -6.03016 3.59605 0
M  V30 2723 H 258.695 -1.69998 2.44754 0
M  V30 2724 H 256.232 -0.829458 1.21484 0
M  V30 2725 H 258.19 -3.9377 1.37843 0
M  V30 2726 H 256.82 -3.18588 0.519783 0
M  V30 2727 H 255.872 -2.52276 2.84712 0
M  V30 2728 H 257.184 -3.46899 3.58417 0
M  V30 2729 H 256.338 -5.54285 2.46683 0
M  V30 2730 H 255.077 -4.59826 1.62516 0
M  V30 2731 H 254.082 -3.94046 3.83416 0
M  V30 2732 H 255.307 -4.91896 4.68204 0
M  V30 2733 H 253.253 -5.97715 2.7032 0
M  V30 2734 H 253.17 -6.12766 4.42779 0
M  V30 2735 H 254.438 -6.93657 3.55613 0
M  V30 2736 N 258.668 -1.30515 -0.883378 0
M  V30 2737 C 259.598 -1.19607 -2.00541 0
M  V30 2738 C 260.579 -0.086346 -1.69881 0
M  V30 2739 O 261.764 -0.268654 -1.92333 0
M  V30 2740 C 258.894 -0.888758 -3.35736 0
M  V30 2741 C 257.848 -1.95659 -3.8066 0
M  V30 2742 C 257.174 -1.50224 -5.13164 0
M  V30 2743 C 258.474 -3.36788 -3.99213 0
M  V30 2744 H 260.168 -2.13476 -2.09925 0
M  V30 2745 H 257.714 -1.02775 -1.00863 0
M  V30 2746 H 259.667 -0.799094 -4.13754 0
M  V30 2747 H 258.391 0.0856125 -3.26488 0
M  V30 2748 H 257.05 -2.03591 -3.04871 0
M  V30 2749 H 256.698 -0.516092 -5.00345 0
M  V30 2750 H 256.398 -2.2165 -5.44192 0
M  V30 2751 H 257.922 -1.42639 -5.93706 0
M  V30 2752 H 259.336 -3.31605 -4.67665 0
M  V30 2753 H 257.733 -4.06314 -4.41621 0
M  V30 2754 H 258.803 -3.78561 -3.03017 0
M  V30 2755 N 260.146 1.09593 -1.13257 0
M  V30 2756 C 261.394 1.81375 -0.891492 0
M  V30 2757 C 261.715 1.86049 0.584009 0
M  V30 2758 O 260.985 1.34481 1.42449 0
M  V30 2759 H 259.565 0.671708 -0.326828 0
M  V30 2760 H 262.227 1.3256 -1.42877 0
M  V30 2761 H 261.323 2.84612 -1.28071 0
M  V30 2762 N 261.624 0.925811 1.2754 0
M  V30 2763 C 262.587 0.428129 2.25166 0
M  V30 2764 C 263.587 -0.452261 1.54309 0
M  V30 2765 O 264.777 -0.253608 1.72344 0
M  V30 2766 C 261.909 -0.384749 3.38722 0
M  V30 2767 H 263.102 1.29066 2.70706 0
M  V30 2768 H 260.655 0.706323 1.3943 0
M  V30 2769 H 261.39 -1.26618 2.98561 0
M  V30 2770 H 261.175 0.246454 3.91325 0
M  V30 2771 H 262.665 -0.723389 4.11287 0
M  V30 2772 N 263.102 -1.41638 0.69111 0
M  V30 2773 C 264.518 -1.55435 0.362224 0
M  V30 2774 C 264.718 -1.66754 -1.13117 0
M  V30 2775 O 263.774 -1.64348 -1.91692 0
M  V30 2776 C 265.087 -2.79588 1.10684 0
M  V30 2777 C 266.635 -2.9338 1.09075 0
M  V30 2778 C 267.11 -4.20414 1.81703 0
M  V30 2779 N 268.601 -4.27362 1.7865 0
M  V30 2780 C 269.336 -5.24507 2.31689 0
M  V30 2781 N 268.832 -6.27708 2.93179 0
M  V30 2782 N 270.625 -5.16416 2.2197 0
M  V30 2783 H 262.776 -1.32536 1.65976 0
M  V30 2784 H 265.039 -0.639115 0.700168 0
M  V30 2785 H 264.745 -2.77419 2.16175 0
M  V30 2786 H 264.619 -3.70973 0.682545 0
M  V30 2787 H 267.006 -2.95067 0.0441238 0
M  V30 2788 H 267.087 -2.0318 1.55407 0
M  V30 2789 H 266.731 -4.19488 2.86343 0
M  V30 2790 H 266.661 -5.09578 1.32808 0
M  V30 2791 H 269.152 -3.53415 1.33815 0
M  V30 2792 H 269.465 -6.98217 3.31229 0
M  V30 2793 H 267.81 -6.28223 2.97255 0
M  V30 2794 H 271.001 -4.34716 1.73607 0
M  V30 2795 H 271.174 -5.91958 2.63609 0
M  V30 2796 N 264.58 -0.43555 -1.51462 0
M  V30 2797 C 265.826 0.131709 -2.02372 0
M  V30 2798 C 266.159 1.42516 -1.3192 0
M  V30 2799 O 265.434 1.89606 -0.433573 0
M  V30 2800 C 265.717 0.352301 -3.58373 0
M  V30 2801 C 265.57 -0.959676 -4.39443 0
M  V30 2802 C 266.889 1.12286 -4.25535 0
M  V30 2803 H 264.008 0.0463936 -0.735538 0
M  V30 2804 H 266.65 -0.574197 -1.81116 0
M  V30 2805 H 264.8 0.9536 -3.76615 0
M  V30 2806 H 266.472 -1.59482 -4.32855 0
M  V30 2807 H 264.715 -1.56468 -4.04599 0
M  V30 2808 H 265.386 -0.759394 -5.46752 0
M  V30 2809 H 267.862 0.613545 -4.11552 0
M  V30 2810 H 266.738 1.24598 -5.34571 0
M  V30 2811 H 266.999 2.15048 -3.86273 0
M  V30 2812 N 266.058 1.56714 -0.166846 0
M  V30 2813 C 267.006 2.19056 0.782123 0
M  V30 2814 C 268 1.15328 1.24079 0
M  V30 2815 O 269.206 1.33537 1.20697 0
M  V30 2816 H 265.581 0.70167 0.270486 0
M  V30 2817 H 267.552 2.97494 0.232322 0
M  V30 2818 C 266.301 2.84206 2.00306 0
M  V30 2819 H 265.624 3.63748 1.65914 0
M  V30 2820 H 267.064 3.31302 2.64604 0
M  V30 2821 C 265.523 1.83744 2.82382 0
M  V30 2822 O 266.053 1.32014 3.79388 0
M  V30 2823 N 264.259 1.52601 2.47308 0
M  V30 2824 H 263.806 1.9486 1.68485 0
M  V30 2825 H 263.764 0.856351 3.02513 0
M  V30 2826 N 267.536 -0.106894 1.57237 0
M  V30 2827 C 268.785 -0.811163 1.8467 0
M  V30 2828 C 269.098 -1.80469 0.754342 0
M  V30 2829 O 270.304 -2.55601 0.915439 0
M  V30 2830 C 268.76 -1.49337 3.27454 0
M  V30 2831 C 268.368 -0.540217 4.44731 0
M  V30 2832 C 270.112 -2.18206 3.64124 0
M  V30 2833 C 268.019 -1.22634 5.78545 0
M  V30 2834 H 266.949 -0.306679 0.688813 0
M  V30 2835 H 269.6 -0.0639887 1.83388 0
M  V30 2836 H 267.982 -2.2876 3.23241 0
M  V30 2837 H 269.156 0.221659 4.60267 0
M  V30 2838 H 267.471 0.042146 4.16379 0
M  V30 2839 H 270.068 -2.70253 4.61376 0
M  V30 2840 H 270.411 -2.96562 2.92158 0
M  V30 2841 H 270.944 -1.45658 3.70174 0
M  V30 2842 H 267.683 -0.483832 6.53712 0
M  V30 2843 H 267.203 -1.95993 5.66874 0
M  V30 2844 H 268.882 -1.75615 6.2271 0
M  V30 2845 N 269.014 -1.53014 -0.377408 0
M  V30 2846 C 269.924 -1.81557 -1.48574 0
M  V30 2847 C 270.94 -0.703102 -1.59162 0
M  V30 2848 O 272.116 -0.99192 -1.75279 0
M  V30 2849 C 269.181 -1.9889 -2.83978 0
M  V30 2850 C 268.242 -3.22801 -2.83016 0
M  V30 2851 C 267.475 -3.39298 -4.11962 0
M  V30 2852 O 267.698 -2.60345 -5.0752 0
M  V30 2853 O 266.632 -4.32604 -4.18494 0
M  V30 2854 H 270.458 -2.75695 -1.27382 0
M  V30 2855 H 268.043 -1.38248 -0.566373 0
M  V30 2856 H 269.925 -2.11931 -3.6423 0
M  V30 2857 H 268.6 -1.07942 -3.05172 0
M  V30 2858 H 267.507 -3.15193 -2.01505 0
M  V30 2859 H 268.84 -4.13632 -2.66775 0
M  V30 2860 N 270.492 0.636531 -1.44174 0
M  V30 2861 C 271.741 1.39213 -1.45954 0
M  V30 2862 C 272.054 1.95374 -0.0939119 0
M  V30 2863 O 273.26 2.71498 0.0107767 0
M  V30 2864 C 271.716 2.52025 -2.56927 0
M  V30 2865 C 271.324 2.024 -3.99673 0
M  V30 2866 C 273.068 3.29269 -2.67922 0
M  V30 2867 C 270.975 3.12521 -5.0208 0
M  V30 2868 H 269.905 0.523132 -0.542999 0
M  V30 2869 H 272.556 0.685349 -1.70221 0
M  V30 2870 H 270.938 3.25253 -2.25891 0
M  V30 2871 H 272.112 1.36073 -4.40251 0
M  V30 2872 H 270.427 1.37987 -3.92872 0
M  V30 2873 H 273.024 4.11352 -3.41605 0
M  V30 2874 H 273.367 3.78397 -1.73555 0
M  V30 2875 H 273.9 2.63129 -2.98342 0
M  V30 2876 H 270.639 2.68343 -5.98057 0
M  V30 2877 H 270.159 3.77507 -4.66099 0
M  V30 2878 H 271.838 3.77385 -5.25538 0
M  V30 2879 N 271.97 1.30982 0.876444 0
M  V30 2880 C 273.247 1.10942 1.61094 0
M  V30 2881 C 273.627 -0.338223 2.08373 0
M  V30 2882 O 272.975 -1.33122 1.85717 0
M  V30 2883 C 273.185 2.11789 2.77392 0
M  V30 2884 C 274.533 2.43965 3.47514 0
M  V30 2885 O 275.557 2.10166 2.87591 0
M  V30 2886 O 274.416 3.01817 4.55597 0
M  V30 2887 H 271.51 0.42667 0.708436 0
M  V30 2888 H 274.056 1.42438 0.922474 0
M  V30 2889 H 272.828 3.09194 2.39823 0
M  V30 2890 H 272.451 1.81161 3.5393 0
M  V30 2891 N 273.449 -1.08991 1.13837 0
M  V30 2892 C 274.86 -1.62746 0.914917 0
M  V30 2893 C 275.211 -1.88403 -0.547594 0
M  V30 2894 O 274.336 -1.63706 -1.41525 0
M  V30 2895 C 274.931 -2.95662 1.65437 0
M  V30 2896 C 273.49 -3.46225 1.47666 0
M  V30 2897 C 272.637 -2.20562 1.6807 0
M  V30 2898 H 275.588 -0.922946 1.29102 0
M  V30 2899 H 275.609 -3.63825 1.11407 0
M  V30 2900 H 275.121 -2.76956 2.71877 0
M  V30 2901 H 273.222 -3.70046 0.435478 0
M  V30 2902 H 273.335 -4.23368 2.24268 0
M  V30 2903 H 271.699 -2.29439 1.10589 0
M  V30 2904 H 272.482 -2.0437 2.7584 0
M  V30 2905 N 274.927 -0.932562 -1.27047 0
M  V30 2906 C 275.859 -0.392734 -2.2581 0
M  V30 2907 C 276.872 0.479241 -1.55586 0
M  V30 2908 O 278.061 0.291078 -1.76111 0
M  V30 2909 C 275.161 0.455456 -3.35826 0
M  V30 2910 C 274.334 -0.398355 -4.35582 0
M  V30 2911 C 273.393 0.387985 -5.24768 0
M  V30 2912 O 272.419 -0.206003 -5.68827 0
M  V30 2913 N 273.621 1.68664 -5.55457 0
M  V30 2914 H 276.386 -1.24173 -2.72766 0
M  V30 2915 H 273.947 -0.800511 -1.40725 0
M  V30 2916 H 275.939 0.988692 -3.92437 0
M  V30 2917 H 274.509 1.20522 -2.88432 0
M  V30 2918 H 273.729 -1.11286 -3.78165 0
M  V30 2919 H 275.017 -0.981889 -4.99236 0
M  V30 2920 H 274.415 2.19147 -5.21528 0
M  V30 2921 H 272.972 2.1663 -6.14748 0
M  V30 2922 N 276.405 1.4127 -0.698611 0
M  V30 2923 C 277.633 2.05503 -0.239992 0
M  V30 2924 C 278.048 1.52584 1.11191 0
M  V30 2925 O 277.405 0.675323 1.69545 0
M  V30 2926 C 277.456 3.60987 -0.192429 0
M  V30 2927 O 277.177 4.1195 -1.49094 0
M  V30 2928 C 278.678 4.42371 0.28681 0
M  V30 2929 H 275.898 0.661748 -0.111045 0
M  V30 2930 H 278.442 1.80987 -0.95205 0
M  V30 2931 H 276.597 3.84533 0.470472 0
M  V30 2932 H 277.011 5.06018 -1.38007 0
M  V30 2933 H 278.485 5.51344 0.26896 0
M  V30 2934 H 278.962 4.18699 1.32619 0
M  V30 2935 H 279.568 4.23897 -0.345201 0
M  V30 2936 N 277.883 0.443576 1.51229 0
M  V30 2937 C 278.815 -0.400608 2.25672 0
M  V30 2938 C 279.828 -0.980945 1.29928 0
M  V30 2939 O 281.017 -0.874024 1.55638 0
M  V30 2940 C 278.117 -1.57304 3.00181 0
M  V30 2941 C 277.29 -1.11046 4.23069 0
M  V30 2942 C 276.349 -2.15374 4.80105 0
M  V30 2943 O 275.375 -1.74554 5.41774 0
M  V30 2944 N 276.577 -3.47922 4.64683 0
M  V30 2945 H 279.342 0.23745 2.98758 0
M  V30 2946 H 276.903 0.272809 1.59585 0
M  V30 2947 H 278.895 -2.26733 3.35223 0
M  V30 2948 H 277.465 -2.11632 2.30066 0
M  V30 2949 H 276.685 -0.243019 3.9345 0
M  V30 2950 H 277.973 -0.778888 5.02803 0
M  V30 2951 H 277.371 -3.83815 4.15575 0
M  V30 2952 H 275.928 -4.13228 5.0407 0
M  V30 2953 N 279.361 -1.56624 0.175154 0
M  V30 2954 C 280.324 -2.16934 -0.739738 0
M  V30 2955 C 281.324 -1.11842 -1.15533 0
M  V30 2956 O 282.514 -1.37335 -1.07167 0
M  V30 2957 C 279.646 -2.75531 -2.00738 0
M  V30 2958 H 280.839 -2.99131 -0.214639 0
M  V30 2959 H 278.392 -1.56123 -0.0744197 0
M  V30 2960 H 279.127 -1.97078 -2.57548 0
M  V30 2961 H 278.912 -3.52444 -1.71831 0
M  V30 2962 H 280.402 -3.21904 -2.66021 0
M  V30 2963 N 280.839 0.0985539 -1.57292 0
M  V30 2964 C 282.085 0.803867 -1.86188 0
M  V30 2965 C 282.418 1.78549 -0.763794 0
M  V30 2966 O 281.693 1.93153 0.22855 0
M  V30 2967 C 281.976 1.53568 -3.25713 0
M  V30 2968 C 281.829 0.572277 -4.46145 0
M  V30 2969 C 283.148 2.48708 -3.63087 0
M  V30 2970 H 280.267 0.290781 -0.677211 0
M  V30 2971 H 282.909 0.0675783 -1.8988 0
M  V30 2972 H 281.059 2.16332 -3.22696 0
M  V30 2973 H 282.731 -0.0480894 -4.61275 0
M  V30 2974 H 280.974 -0.114618 -4.33649 0
M  V30 2975 H 281.645 1.12139 -5.40489 0
M  V30 2976 H 284.121 1.96039 -3.67026 0
M  V30 2977 H 282.997 2.96932 -4.61652 0
M  V30 2978 H 283.258 3.32309 -2.91588 0
M  V30 2979 N 282.317 1.53212 0.369288 0
M  V30 2980 C 283.563 1.69466 1.11397 0
M  V30 2981 C 283.896 0.443257 1.89074 0
M  V30 2982 O 283.171 -0.559386 1.86282 0
M  V30 2983 C 283.454 2.9422 2.07621 0
M  V30 2984 C 283.307 4.29508 1.33577 0
M  V30 2985 C 284.626 3.14565 3.07794 0
M  V30 2986 H 281.745 0.616667 0.403597 0
M  V30 2987 H 284.387 1.85845 0.395179 0
M  V30 2988 H 282.537 2.80387 2.68916 0
M  V30 2989 H 284.209 4.55147 0.750955 0
M  V30 2990 H 282.452 4.29088 0.637618 0
M  V30 2991 H 283.123 5.12926 2.03989 0
M  V30 2992 H 285.599 3.2756 2.56601 0
M  V30 2993 H 284.475 4.03297 3.72348 0
M  V30 2994 H 284.736 2.29675 3.77759 0
M  V30 2995 N 283.795 -0.628877 1.44509 0
M  V30 2996 C 285.072 -1.38733 1.37886 0
M  V30 2997 C 285.452 -2.11065 0.0387008 0
M  V30 2998 O 284.8 -2.06476 -0.97878 0
M  V30 2999 C 285.01 -2.35188 2.57852 0
M  V30 3000 C 286.358 -2.9845 3.02014 0
M  V30 3001 O 287.382 -2.45513 2.58073 0
M  V30 3002 O 286.241 -3.94487 3.78209 0
M  V30 3003 H 283.335 -0.621015 0.54614 0
M  V30 3004 H 285.881 -0.653744 1.56602 0
M  V30 3005 H 284.653 -1.80855 3.46998 0
M  V30 3006 H 284.276 -3.1596 2.4136 0
M  V30 3007 N 285.273 -1.31445 -0.869486 0
M  V30 3008 C 286.501 -1.24122 -1.65534 0
M  V30 3009 C 286.916 0.193387 -1.87807 0
M  V30 3010 O 286.273 1.12557 -1.43656 0
M  V30 3011 C 286.324 -1.98229 -3.02304 0
M  V30 3012 O 286.045 -3.3609 -2.81026 0
M  V30 3013 C 287.546 -1.97751 -3.96749 0
M  V30 3014 H 284.766 -0.428868 -0.516055 0
M  V30 3015 H 287.31 -1.73328 -1.08525 0
M  V30 3016 H 285.465 -1.52782 -3.56001 0
M  V30 3017 H 285.879 -3.7383 -3.67902 0
M  V30 3018 H 287.353 -2.54114 -4.90031 0
M  V30 3019 H 287.83 -0.960137 -4.28577 0
M  V30 3020 H 288.436 -2.43079 -3.48988 0
M  V30 3021 N 286.751 1.08385 -1.14413 0
M  V30 3022 C 287.997 1.81044 -0.913834 0
M  V30 3023 C 288.33 1.86004 0.558209 0
M  V30 3024 O 287.605 1.33606 1.4135 0
M  V30 3025 C 287.888 3.26648 -1.51569 0
M  V30 3026 C 287.741 3.29895 -3.0576 0
M  V30 3027 C 289.06 4.23629 -1.19273 0
M  V30 3028 H 286.179 0.65727 -0.333414 0
M  V30 3029 H 288.821 1.26896 -1.41412 0
M  V30 3030 H 286.971 3.72889 -1.09023 0
M  V30 3031 H 288.643 2.91977 -3.57137 0
M  V30 3032 H 286.886 2.69163 -3.40197 0
M  V30 3033 H 287.557 4.32516 -3.42977 0
M  V30 3034 H 290.033 3.85727 -1.56057 0
M  V30 3035 H 288.909 5.23822 -1.64017 0
M  V30 3036 H 289.17 4.41968 -0.108068 0
M  V30 3037 N 288.23 0.939286 1.26551 0
M  V30 3038 C 289.14 0.453432 2.30176 0
M  V30 3039 C 290.156 -0.471649 1.67486 0
M  V30 3040 O 291.332 -0.35164 1.98306 0
M  V30 3041 C 288.397 -0.275326 3.45605 0
M  V30 3042 C 287.458 0.686084 4.23782 0
M  V30 3043 C 286.691 -0.00798994 5.33699 0
M  V30 3044 O 286.914 -1.22528 5.57085 0
M  V30 3045 O 285.848 0.669746 5.98162 0
M  V30 3046 H 289.674 1.31416 2.73795 0
M  V30 3047 H 287.259 0.705095 1.31715 0
M  V30 3048 H 289.141 -0.685911 4.1578 0
M  V30 3049 H 287.816 -1.11147 3.0402 0
M  V30 3050 H 286.723 1.14658 3.56096 0
M  V30 3051 H 288.056 1.48979 4.69112 0
M  V30 3052 N 289.708 -1.40897 0.706093 0
M  V30 3053 C 291.124 -1.55042 0.37869 0
M  V30 3054 C 291.324 -1.67944 -1.11342 0
M  V30 3055 O 290.38 -1.66372 -1.89938 0
M  V30 3056 C 291.693 -2.78398 1.13643 0
M  V30 3057 C 293.241 -2.92206 1.12181 0
M  V30 3058 C 293.716 -4.18463 1.86152 0
M  V30 3059 N 295.207 -4.25443 1.83173 0
M  V30 3060 C 295.942 -5.2202 2.37239 0
M  V30 3061 N 295.438 -6.24563 2.99821 0
M  V30 3062 N 297.231 -5.14033 2.27435 0
M  V30 3063 H 289.382 -1.30769 1.67372 0
M  V30 3064 H 291.645 -0.631653 0.706907 0
M  V30 3065 H 291.351 -2.7511 2.19106 0
M  V30 3066 H 291.225 -3.70228 0.721853 0
M  V30 3067 H 293.612 -2.95004 0.0754171 0
M  V30 3068 H 293.693 -2.01521 1.57554 0
M  V30 3069 H 293.337 -4.16427 2.90776 0
M  V30 3070 H 293.267 -5.08141 1.38206 0
M  V30 3071 H 295.758 -3.51976 1.37556 0
M  V30 3072 H 296.071 -6.94665 3.38616 0
M  V30 3073 H 294.416 -6.25035 3.03902 0
M  V30 3074 H 297.607 -4.3285 1.78208 0
M  V30 3075 H 297.78 -5.89129 2.69873 0
M  V30 3076 N 291.186 -0.45159 -1.50991 0
M  V30 3077 C 292.432 0.110237 -2.025 0
M  V30 3078 C 292.765 1.41109 -1.33424 0
M  V30 3079 O 292.04 1.89135 -0.453659 0
M  V30 3080 C 292.323 0.314271 -3.58726 0
M  V30 3081 C 292.176 -1.00623 -4.38401 0
M  V30 3082 C 293.495 1.07767 -4.26702 0
M  V30 3083 H 290.614 0.0385897 -0.735989 0
M  V30 3084 H 293.256 -0.593374 -1.80497 0
M  V30 3085 H 291.406 0.913601 -3.77605 0
M  V30 3086 H 293.078 -1.64064 -4.31139 0
M  V30 3087 H 291.321 -1.6075 -4.02917 0
M  V30 3088 H 291.992 -0.817341 -5.45915 0
M  V30 3089 H 294.468 0.56986 -4.12179 0
M  V30 3090 H 293.344 1.18921 -5.35863 0
M  V30 3091 H 293.605 2.10939 -3.88532 0
M  V30 3092 N 292.664 1.56529 -0.183458 0
M  V30 3093 C 293.594 2.21549 0.737456 0
M  V30 3094 C 294.575 1.17489 1.23005 0
M  V30 3095 O 295.76 1.45959 1.281 0
M  V30 3096 C 292.89 2.86575 1.96194 0
M  V30 3097 C 291.844 3.96778 1.60473 0
M  V30 3098 C 291.17 4.48911 2.90487 0
M  V30 3099 C 292.47 5.15767 0.823497 0
M  V30 3100 H 294.164 2.98761 0.195453 0
M  V30 3101 H 291.71 1.43702 0.0925686 0
M  V30 3102 H 293.663 3.30739 2.61131 0
M  V30 3103 H 292.387 2.06749 2.52828 0
M  V30 3104 H 291.046 3.53286 0.978997 0
M  V30 3105 H 290.694 3.65862 3.45186 0
M  V30 3106 H 290.394 5.23265 2.67335 0
M  V30 3107 H 291.918 4.95771 3.56432 0
M  V30 3108 H 293.332 5.56549 1.37571 0
M  V30 3109 H 291.729 5.96114 0.690551 0
M  V30 3110 H 292.799 4.84574 -0.177782 0
M  V30 3111 N 294.142 -0.090211 1.57342 0
M  V30 3112 C 295.105 -1.09335 2.01441 0
M  V30 3113 C 296.105 -1.32666 0.908641 0
M  V30 3114 O 297.295 -1.28697 1.174 0
M  V30 3115 C 294.427 -2.44136 2.3793 0
M  V30 3116 H 295.62 -0.713662 2.91285 0
M  V30 3117 H 293.173 -0.335404 1.52659 0
M  V30 3118 H 293.908 -2.86972 1.51055 0
M  V30 3119 H 293.693 -2.28548 3.18603 0
M  V30 3120 H 295.183 -3.16277 2.72688 0
M  V30 3121 N 295.62 -1.53406 -0.361157 0
M  V30 3122 C 296.583 -1.79479 -1.42548 0
M  V30 3123 C 297.583 -0.665327 -1.4639 0
M  V30 3124 O 298.773 -0.933549 -1.47073 0
M  V30 3125 C 295.905 -1.92087 -2.8163 0
M  V30 3126 H 297.098 -2.74538 -1.20701 0
M  V30 3127 H 294.651 -1.4455 -0.594546 0
M  V30 3128 H 295.386 -0.991099 -3.08784 0
M  V30 3129 H 295.171 -2.74241 -2.80239 0
M  V30 3130 H 296.661 -2.13836 -3.58697 0
M  V30 3131 N 297.098 0.621204 -1.44841 0
M  V30 3132 C 298.514 0.94048 -1.28946 0
M  V30 3133 C 298.714 2.00154 -0.23249 0
M  V30 3134 O 297.77 2.49651 0.378237 0
M  V30 3135 C 299.083 1.39433 -2.66419 0
M  V30 3136 C 300.631 1.50927 -2.74208 0
M  V30 3137 C 301.106 1.99692 -4.12174 0
M  V30 3138 N 302.597 2.06947 -4.144 0
M  V30 3139 C 303.332 2.45871 -5.1801 0
M  V30 3140 N 302.828 2.83862 -6.31977 0
M  V30 3141 N 304.621 2.46092 -5.05366 0
M  V30 3142 H 296.772 -0.0803548 -2.12248 0
M  V30 3143 H 299.035 0.0266913 -0.947624 0
M  V30 3144 H 298.741 0.688925 -3.44887 0
M  V30 3145 H 298.615 2.36347 -2.93973 0
M  V30 3146 H 301.002 2.20561 -1.96053 0
M  V30 3147 H 301.083 0.523627 -2.50383 0
M  V30 3148 H 300.727 1.30649 -4.90809 0
M  V30 3149 H 300.657 2.99146 -4.33381 0
M  V30 3150 H 303.148 1.80232 -3.32152 0
M  V30 3151 H 303.461 3.12405 -7.0684 0
M  V30 3152 H 301.806 2.8159 -6.35399 0
M  V30 3153 H 304.997 2.1581 -4.15384 0
M  V30 3154 H 305.17 2.76102 -5.86235 0
M  V30 3155 N 298.576 1.31904 0.862503 0
M  V30 3156 C 299.486 1.22161 2.00285 0
M  V30 3157 C 300.502 0.136785 1.73462 0
M  V30 3158 O 301.678 0.355994 1.98229 0
M  V30 3159 C 298.743 0.937093 3.33796 0
M  V30 3160 C 297.804 2.10957 3.73893 0
M  V30 3161 C 297.037 1.83853 5.01033 0
M  V30 3162 O 297.26 0.777274 5.65079 0
M  V30 3163 O 296.194 2.69741 5.38074 0
M  V30 3164 H 300.02 2.18008 2.11439 0
M  V30 3165 H 297.605 1.11716 0.991957 0
M  V30 3166 H 299.487 0.794583 4.13841 0
M  V30 3167 H 298.162 0.00871894 3.23699 0
M  V30 3168 H 297.069 2.30752 2.94456 0
M  V30 3169 H 298.402 3.02046 3.88625 0
M  V30 3170 N 300.054 -1.07777 1.14986 0
M  V30 3171 C 301.002 -2.16964 0.838406 0
M  V30 3172 C 301.996 -1.68372 -0.186386 0
M  V30 3173 O 303.202 -1.79951 -0.0418465 0
M  V30 3174 H 299.577 -0.708006 0.253439 0
M  V30 3175 H 301.548 -2.40454 1.76704 0
M  V30 3176 C 300.297 -3.4604 0.339335 0
M  V30 3177 H 299.62 -3.83813 1.11927 0
M  V30 3178 H 301.06 -4.23698 0.160021 0
M  V30 3179 C 299.519 -3.23569 -0.938325 0
M  V30 3180 O 300.049 -3.47752 -2.01077 0
M  V30 3181 N 298.255 -2.77079 -0.876117 0
M  V30 3182 H 297.802 -2.576 -0.00322037 0
M  V30 3183 H 297.76 -2.62422 -1.73153 0
M  V30 3184 N 301.532 -0.945985 -1.26051 0
M  V30 3185 C 302.495 -0.463897 -2.24456 0
M  V30 3186 C 303.495 0.427655 -1.55009 0
M  V30 3187 O 304.685 0.226157 -1.72726 0
M  V30 3188 C 301.817 0.330812 -3.39291 0
M  V30 3189 H 303.01 -1.33357 -2.68619 0
M  V30 3190 H 300.563 -0.728416 -1.38289 0
M  V30 3191 H 301.298 1.21852 -3.00537 0
M  V30 3192 H 301.083 -0.308679 -3.90883 0
M  V30 3193 H 302.573 0.657865 -4.12386 0
M  V30 3194 N 303.011 1.40521 -0.713556 0
M  V30 3195 C 303.944 2.28198 -0.00881422 0
M  V30 3196 C 304.922 1.43227 0.769735 0
M  V30 3197 O 306.106 1.72641 0.756799 0
M  V30 3198 C 303.233 3.23758 0.994899 0
M  V30 3199 C 302.279 4.25391 0.3074 0
M  V30 3200 S 303.112 5.26765 -0.963247 0
M  V30 3201 C 304.268 6.25888 0.0384143 0
M  V30 3202 H 304.501 2.87622 -0.752407 0
M  V30 3203 H 302.034 1.45925 -0.504502 0
M  V30 3204 H 303.992 3.79341 1.56879 0
M  V30 3205 H 302.653 2.63396 1.71118 0
M  V30 3206 H 301.846 4.92596 1.0661 0
M  V30 3207 H 301.448 3.73497 -0.193879 0
M  V30 3208 H 303.74 6.71683 0.885912 0
M  V30 3209 H 304.683 7.05552 -0.60019 0
M  V30 3210 H 305.091 5.63072 0.401233 0
M  V30 3211 N 304.489 0.459591 1.5075 0
M  V30 3212 C 305.437 -0.354678 2.2988 0
M  V30 3213 C 306.431 -1.00086 1.36672 0
M  V30 3214 O 307.637 -0.933277 1.53915 0
M  V30 3215 H 304.012 -0.13321 0.740107 0
M  V30 3216 H 305.983 0.333269 2.96533 0
M  V30 3217 C 304.732 -1.43073 3.169 0
M  V30 3218 H 304.055 -0.942882 3.88523 0
M  V30 3219 H 305.495 -1.97328 3.75284 0
M  V30 3220 C 303.954 -2.42633 2.33732 0
M  V30 3221 O 304.484 -3.47658 2.01238 0
M  V30 3222 N 302.69 -2.14066 1.9653 0
M  V30 3223 H 302.237 -1.28685 2.23155 0
M  V30 3224 H 302.195 -2.80917 1.41185 0
M  V30 3225 N 305.967 -1.56429 0.191757 0
M  V30 3226 C 306.899 -2.16154 -0.762245 0
M  V30 3227 C 307.912 -1.12247 -1.17917 0
M  V30 3228 O 309.101 -1.39353 -1.11548 0
M  V30 3229 C 306.201 -2.70606 -2.04024 0
M  V30 3230 C 305.374 -3.99381 -1.78364 0
M  V30 3231 C 304.433 -4.38692 -2.90578 0
M  V30 3232 O 303.459 -5.06179 -2.6033 0
M  V30 3233 N 304.661 -4.01922 -4.18854 0
M  V30 3234 H 307.426 -2.98643 -0.251526 0
M  V30 3235 H 304.987 -1.61897 0.00967373 0
M  V30 3236 H 306.979 -2.93891 -2.78227 0
M  V30 3237 H 305.549 -1.9259 -2.46227 0
M  V30 3238 H 304.769 -3.84262 -0.879581 0
M  V30 3239 H 306.057 -4.83445 -1.58614 0
M  V30 3240 H 305.455 -3.47631 -4.46283 0
M  V30 3241 H 304.012 -4.30165 -4.89695 0
M  V30 3242 N 307.445 0.0818655 -1.57387 0
M  V30 3243 C 308.856 0.634871 -1.75574 0
M  V30 3244 C 309.207 1.78435 -0.815809 0
M  V30 3245 O 308.332 2.164 0.0025366 0
M  V30 3246 C 308.927 1.15845 -3.18379 0
M  V30 3247 C 307.486 1.65741 -3.37945 0
M  V30 3248 C 306.633 0.572549 -2.71325 0
M  V30 3249 H 309.584 -0.144268 -1.58043 0
M  V30 3250 H 309.605 2.02751 -3.21982 0
M  V30 3251 H 309.117 0.321631 -3.86765 0
M  V30 3252 H 307.218 2.51781 -2.74658 0
M  V30 3253 H 307.331 1.74129 -4.46336 0
M  V30 3254 H 305.695 1.01518 -2.33594 0
M  V30 3255 H 306.478 -0.253918 -3.4236 0
M  V30 3256 N 308.923 1.53595 0.353017 0
M  V30 3257 C 310.171 1.70049 1.09215 0
M  V30 3258 C 310.492 0.461406 1.89463 0
M  V30 3259 O 309.762 -0.524633 1.88744 0
M  V30 3260 H 308.342 0.626912 0.40619 0
M  V30 3261 H 311.004 1.90822 0.396585 0
M  V30 3262 H 310.1 2.56718 1.77488 0
M  V30 3263 N 310.401 -0.613514 1.45168 0
M  V30 3264 C 311.629 -1.39946 1.5239 0
M  V30 3265 C 312.044 -1.88167 0.154531 0
M  V30 3266 O 311.401 -1.61872 -0.842843 0
M  V30 3267 C 311.452 -2.60795 2.50337 0
M  V30 3268 O 311.173 -2.1458 3.81952 0
M  V30 3269 C 312.674 -3.53723 2.67198 0
M  V30 3270 H 309.894 -0.428593 0.516284 0
M  V30 3271 H 312.438 -0.748753 1.903 0
M  V30 3272 H 310.593 -3.21919 2.15515 0
M  V30 3273 H 311.007 -2.93055 4.34993 0
M  V30 3274 H 312.481 -4.35079 3.39721 0
M  V30 3275 H 312.958 -4.0368 1.73029 0
M  V30 3276 H 313.564 -2.98456 3.02992 0
M  V30 3277 N 311.879 -1.3236 -0.855495 0
M  V30 3278 C 312.789 -1.23221 -1.99634 0
M  V30 3279 C 313.805 -0.145983 -1.73387 0
M  V30 3280 O 314.981 -0.366502 -1.98037 0
M  V30 3281 C 312.046 -0.954782 -3.33294 0
M  V30 3282 C 311.107 -2.12937 -3.72769 0
M  V30 3283 C 310.34 -1.86508 -5.00051 0
M  V30 3284 O 310.563 -0.807231 -5.64659 0
M  V30 3285 O 309.497 -2.72591 -5.36636 0
M  V30 3286 H 313.323 -2.19126 -2.1028 0
M  V30 3287 H 310.908 -1.12241 -0.986018 0
M  V30 3288 H 312.79 -0.816519 -4.13414 0
M  V30 3289 H 311.465 -0.0258854 -3.2369 0
M  V30 3290 H 310.372 -2.3231 -2.93228 0
M  V30 3291 H 311.705 -3.04102 -3.87018 0
M  V30 3292 N 313.357 1.07166 -1.15556 0
M  V30 3293 C 314.32 2.12589 -0.856644 0
M  V30 3294 C 315.32 1.6015 0.14444 0
M  V30 3295 O 316.51 1.7399 -0.0854163 0
M  V30 3296 C 313.642 3.39753 -0.279405 0
M  V30 3297 H 314.835 2.40539 -1.79112 0
M  V30 3298 H 312.388 1.23086 -0.963298 0
M  V30 3299 H 313.123 3.17447 0.663174 0
M  V30 3300 H 312.908 3.79117 -1.00063 0
M  V30 3301 H 314.398 4.17507 -0.0879113 0
M  V30 3302 O 314.874 1.08282 1.19822 0
M  V30 3303 H 315.565 0.773615 1.77581 0
M  V30 END ATOM
M  V30 BEGIN BOND
M  V30 END BOND
M  V30 END CTAB
M  END
$$$$
