drugbank_target|P15289 Arylsulfatase A (DB01800; DB03821)
 OpenBabel12092120283D

  0  0  0     0  0            999 V3000
M  V30 BEGIN CTAB
M  V30 COUNTS 7453 7564 0 0 0
M  V30 BEGIN ATOM
M  V30 1 H -0.908 1.98254 -0.117106 0
M  V30 2 N 0 1.576 0 0
M  V30 3 C 0.933 2.03868 1.02534 0
M  V30 4 C 1.911 0.928543 1.3348 0
M  V30 5 O 3.095 1.19667 1.45644 0
M  V30 6 C 0.222 2.43627 2.35294 0
M  V30 7 C -0.732 3.65373 2.2001 0
M  V30 8 S 0.101 5.13292 1.52614 0
M  V30 9 C 1.257 5.56322 2.86805 0
M  V30 10 H 1.49 2.90518 0.631377 0
M  V30 11 H -0.977 1.52953 0.210867 0
M  V30 12 H 0.981 2.67203 3.11629 0
M  V30 13 H -0.358 1.57376 2.7183 0
M  V30 14 H -1.165 3.90944 3.18086 0
M  V30 15 H -1.563 3.418 1.51819 0
M  V30 16 H 0.729 5.58782 3.83104 0
M  V30 17 H 1.672 6.56266 2.65933 0
M  V30 18 H 2.08 4.83886 2.90714 0
M  V30 19 N 1.4781 -0.272755 1.55222 0
M  V30 20 C 2.7261 -1.00234 1.75492 0
M  V30 21 C 3.0471 -1.8681 0.5592 0
M  V30 22 O 2.3171 -1.91215 -0.425882 0
M  V30 23 H 0.8971 -0.373076 0.647166 0
M  V30 24 H 3.5591 -0.296926 1.92625 0
M  V30 25 H 2.6551 -1.63913 2.65592 0
M  V30 26 N 2.9562 -1.48159 -0.537278 0
M  V30 27 C 3.9192 -1.61665 -1.62472 0
M  V30 28 C 4.9192 -0.490395 -1.5314 0
M  V30 29 O 6.1092 -0.755998 -1.5694 0
M  V30 30 C 3.2412 -1.57997 -3.02076 0
M  V30 31 H 4.4342 -2.58621 -1.51839 0
M  V30 32 H 1.9872 -1.36647 -0.758771 0
M  V30 33 H 2.7222 -0.624913 -3.18222 0
M  V30 34 H 2.5072 -2.39755 -3.10258 0
M  V30 35 H 3.9972 -1.70627 -3.81151 0
M  V30 36 N 4.4343 0.785586 -1.36625 0
M  V30 37 C 5.8453 1.36101 -1.27803 0
M  V30 38 C 6.1963 1.96035 0.0804875 0
M  V30 39 O 5.3213 1.92834 0.982042 0
M  V30 40 C 5.9163 2.47442 -2.31426 0
M  V30 41 C 4.4753 3.00789 -2.26281 0
M  V30 42 C 3.6223 1.73896 -2.15999 0
M  V30 43 H 6.5733 0.586928 -1.47448 0
M  V30 44 H 6.5943 3.2656 -1.95291 0
M  V30 45 H 6.1063 2.03791 -3.30289 0
M  V30 46 H 4.2073 3.48851 -1.30896 0
M  V30 47 H 4.3203 3.57343 -3.19128 0
M  V30 48 H 2.6843 1.9628 -1.62316 0
M  V30 49 H 3.4673 1.32368 -3.16755 0
M  V30 50 N 5.9124 1.20967 1.01018 0
M  V30 51 C 7.3284 0.965905 1.27053 0
M  V30 52 C 7.5284 -0.350785 1.98423 0
M  V30 53 O 6.5844 -1.07773 2.28344 0
M  V30 54 C 7.8974 2.15294 2.09926 0
M  V30 55 C 9.4454 2.19463 2.23171 0
M  V30 56 C 9.9204 3.3767 3.09424 0
M  V30 57 N 11.4114 3.37724 3.17012 0
M  V30 58 C 12.1464 4.25837 3.83993 0
M  V30 59 N 11.6424 5.24138 4.53047 0
M  V30 60 N 13.4354 4.1366 3.80581 0
M  V30 61 H 5.5864 2.0565 0.531194 0
M  V30 62 H 7.8494 0.90024 0.297106 0
M  V30 63 H 7.5554 3.10684 1.64828 0
M  V30 64 H 7.4294 2.13923 3.10672 0
M  V30 65 H 9.8164 1.24632 2.6749 0
M  V30 66 H 9.8974 2.2488 1.21912 0
M  V30 67 H 9.5414 4.32791 2.65808 0
M  V30 68 H 9.4714 3.29491 4.10784 0
M  V30 69 H 11.9624 2.6658 2.6785 0
M  V30 70 H 12.2754 5.87684 5.01844 0
M  V30 71 H 10.6204 5.28068 4.5185 0
M  V30 72 H 13.8114 3.36127 3.25785 0
M  V30 73 H 13.9844 4.82538 4.32505 0
M  V30 74 N 7.3905 -1.2043 1.01659 0
M  V30 75 C 8.6155 -1.94318 0.724942 0
M  V30 76 C 9.0405 -1.74266 -0.708034 0
M  V30 77 O 8.3985 -1.03694 -1.48719 0
M  V30 78 C 8.4465 -3.44486 1.06591 0
M  V30 79 O 7.5505 -4.12017 0.177599 0
M  V30 80 H 6.8915 -0.60708 0.26898 0
M  V30 81 H 9.4215 -1.52861 1.35995 0
M  V30 82 H 9.4315 -3.95106 1.01762 0
M  V30 83 H 8.1065 -3.58404 2.10997 0
M  V30 84 H 6.6835 -3.71821 0.283421 0
M  V30 85 N 8.8686 -0.792821 -1.36206 0
M  V30 86 C 9.7986 -0.207853 -2.32573 0
M  V30 87 C 10.7796 0.659055 -1.56813 0
M  V30 88 O 11.9646 0.592176 -1.84951 0
M  V30 89 C 9.0946 0.655449 -3.41059 0
M  V30 90 C 8.0486 -0.111842 -4.27854 0
M  V30 91 C 7.3746 0.872274 -5.27537 0
M  V30 92 C 8.6746 -1.30299 -5.05786 0
M  V30 93 H 10.3686 -1.01294 -2.81744 0
M  V30 94 H 7.9146 -0.48854 -1.3546 0
M  V30 95 H 9.8676 1.07464 -4.07467 0
M  V30 96 H 8.5916 1.49328 -2.90463 0
M  V30 97 H 7.2506 -0.512053 -3.63006 0
M  V30 98 H 6.8986 1.70523 -4.73214 0
M  V30 99 H 6.5986 0.363291 -5.86476 0
M  V30 100 H 8.1226 1.28996 -5.96818 0
M  V30 101 H 9.5366 -0.959379 -5.65216 0
M  V30 102 H 7.9336 -1.7455 -5.74154 0
M  V30 103 H 9.0036 -2.09663 -4.37229 0
M  V30 104 N 10.3467 1.47872 -0.545128 0
M  V30 105 C 11.2767 2.32661 0.197793 0
M  V30 106 C 12.2577 1.43041 0.920504 0
M  V30 107 O 13.4427 1.71912 0.90333 0
M  V30 108 C 10.5727 3.24569 1.23582 0
M  V30 109 C 9.5267 4.23333 0.630323 0
M  V30 110 C 8.8527 5.0448 1.77211 0
M  V30 111 C 10.1527 5.20704 -0.407974 0
M  V30 112 H 11.8467 2.95024 -0.510045 0
M  V30 113 H 9.3927 1.4187 -0.246731 0
M  V30 114 H 11.3457 3.8272 1.76362 0
M  V30 115 H 10.0697 2.60236 1.97344 0
M  V30 116 H 8.7287 3.6639 0.123922 0
M  V30 117 H 8.3767 4.36561 2.49847 0
M  V30 118 H 8.0767 5.71339 1.37281 0
M  V30 119 H 9.6007 5.65487 2.3034 0
M  V30 120 H 11.0147 5.7329 0.033305 0
M  V30 121 H 9.4117 5.95699 -0.725486 0
M  V30 122 H 10.4817 4.66917 -1.30828 0
M  V30 123 N 11.8248 0.280983 1.55075 0
M  V30 124 C 12.7548 -0.597469 2.25727 0
M  V30 125 C 13.7358 -1.15417 1.24952 0
M  V30 126 O 14.9208 -1.18722 1.53684 0
M  V30 127 C 12.0508 -1.7789 2.98283 0
M  V30 128 C 11.0048 -1.35347 4.06036 0
M  V30 129 C 10.3308 -2.61846 4.66198 0
M  V30 130 C 11.6308 -0.499354 5.19907 0
M  V30 131 H 13.3248 -0.00824265 2.99399 0
M  V30 132 H 10.8708 -0.0025244 1.44 0
M  V30 133 H 12.8238 -2.39937 3.46422 0
M  V30 134 H 11.5478 -2.39405 2.22155 0
M  V30 135 H 10.2068 -0.756156 3.58717 0
M  V30 136 H 9.8548 -3.21632 3.86732 0
M  V30 137 H 9.5548 -2.3409 5.38958 0
M  V30 138 H 11.0788 -3.24732 5.1709 0
M  V30 139 H 12.4928 -1.02498 5.64063 0
M  V30 140 H 10.8898 -0.316424 5.99265 0
M  V30 141 H 11.9598 0.480459 4.82514 0
M  V30 142 N 13.3029 -1.57598 0.00835791 0
M  V30 143 C 14.2659 -2.07884 -0.965242 0
M  V30 144 C 15.2659 -0.989825 -1.26725 0
M  V30 145 O 16.4559 -1.25218 -1.21104 0
M  V30 146 C 13.5879 -2.52731 -2.28779 0
M  V30 147 H 14.7809 -2.95178 -0.530112 0
M  V30 148 H 12.3339 -1.54458 -0.239283 0
M  V30 149 H 13.0689 -1.68705 -2.76964 0
M  V30 150 H 12.8539 -3.32272 -2.08177 0
M  V30 151 H 14.3439 -2.91933 -2.98605 0
M  V30 152 N 14.781 0.264519 -1.55364 0
M  V30 153 C 15.711 1.33121 -1.91836 0
M  V30 154 C 16.692 1.51101 -0.781192 0
M  V30 155 O 17.877 1.64003 -1.04003 0
M  V30 156 C 15.007 2.68921 -2.19769 0
M  V30 157 C 13.961 2.65661 -3.35571 0
M  V30 158 C 13.287 4.05093 -3.49004 0
M  V30 159 C 14.587 2.24187 -4.71739 0
M  V30 160 H 16.281 1.02844 -2.81182 0
M  V30 161 H 13.827 0.493286 -1.35287 0
M  V30 162 H 15.78 3.43663 -2.43872 0
M  V30 163 H 14.504 3.00799 -1.27231 0
M  V30 164 H 13.163 1.93377 -3.1145 0
M  V30 165 H 12.811 4.34206 -2.53917 0
M  V30 166 H 12.511 4.03804 -4.26868 0
M  V30 167 H 14.035 4.81561 -3.75408 0
M  V30 168 H 15.449 2.88654 -4.9533 0
M  V30 169 H 13.846 2.34044 -5.52579 0
M  V30 170 H 14.916 1.19327 -4.69988 0
M  V30 171 N 16.2591 1.48442 0.529413 0
M  V30 172 C 17.2221 1.62524 1.61612 0
M  V30 173 C 18.2221 0.498509 1.52877 0
M  V30 174 O 19.4121 0.76431 1.56537 0
M  V30 175 C 16.5441 1.59597 3.01233 0
M  V30 176 H 17.7371 2.59423 1.50465 0
M  V30 177 H 15.2901 1.37047 0.751514 0
M  V30 178 H 16.0251 0.641781 3.17886 0
M  V30 179 H 15.8101 2.41397 3.08982 0
M  V30 180 H 17.3001 1.72646 3.80241 0
M  V30 181 N 17.7372 -0.778329 1.37039 0
M  V30 182 C 18.7002 -1.87301 1.32102 0
M  V30 183 C 19.7002 -1.59198 0.226405 0
M  V30 184 O 20.8902 -1.67403 0.481861 0
M  V30 185 C 18.0222 -3.24309 1.05055 0
M  V30 186 H 19.2152 -1.93093 2.29467 0
M  V30 187 H 16.7682 -0.977358 1.21973 0
M  V30 188 H 17.5032 -3.24196 0.0819373 0
M  V30 189 H 17.2882 -3.46098 1.84279 0
M  V30 190 H 18.7782 -4.04382 1.04234 0
M  V30 191 N 19.2153 -1.21501 -1.00376 0
M  V30 192 C 20.4633 -1.03095 -1.73827 0
M  V30 193 C 20.7843 0.436341 -1.90055 0
M  V30 194 O 20.0543 1.31466 -1.45236 0
M  V30 195 H 18.6343 -0.378487 -0.644016 0
M  V30 196 H 21.2963 -1.52831 -1.20949 0
M  V30 197 H 20.3923 -1.49991 -2.73695 0
M  V30 198 N 20.6934 1.19889 -1.02296 0
M  V30 199 C 21.6234 2.25141 -0.619174 0
M  V30 200 C 22.6044 1.66051 0.368915 0
M  V30 201 O 23.7894 1.92546 0.252941 0
M  V30 202 C 20.9194 3.4728 0.0368783 0
M  V30 203 C 19.8734 4.19005 -0.872865 0
M  V30 204 C 19.1994 5.34637 -0.0822402 0
M  V30 205 C 20.4994 4.74452 -2.18387 0
M  V30 206 H 22.1934 2.59171 -1.49903 0
M  V30 207 H 19.7394 1.24579 -0.722222 0
M  V30 208 H 21.6924 4.20098 0.330958 0
M  V30 209 H 20.4164 3.12433 0.95149 0
M  V30 210 H 19.0754 3.48061 -1.15105 0
M  V30 211 H 18.7234 4.96034 0.83422 0
M  V30 212 H 18.4234 5.83557 -0.688149 0
M  V30 213 H 19.9474 6.10255 0.205238 0
M  V30 214 H 21.3614 5.39055 -1.95172 0
M  V30 215 H 19.7584 5.33834 -2.74119 0
M  V30 216 H 20.8284 3.92844 -2.84257 0
M  V30 217 N 22.1715 0.800033 1.35784 0
M  V30 218 C 23.1345 0.211565 2.28221 0
M  V30 219 C 24.1345 -0.59728 1.49296 0
M  V30 220 O 25.3245 -0.416721 1.69142 0
M  V30 221 C 22.4565 -0.705846 3.33513 0
M  V30 222 H 23.6495 1.02677 2.81776 0
M  V30 223 H 21.2025 0.570211 1.45528 0
M  V30 224 H 21.9375 -1.54498 2.85133 0
M  V30 225 H 21.7225 -0.127655 3.91892 0
M  V30 226 H 23.2125 -1.11211 4.02519 0
M  V30 227 N 23.6496 -1.47581 0.552962 0
M  V30 228 C 24.8956 -2.02782 0.0273648 0
M  V30 229 C 25.2286 -1.42687 -1.31734 0
M  V30 230 O 24.5036 -0.580897 -1.85623 0
M  V30 231 C 24.7866 -3.60031 -0.0702371 0
M  V30 232 C 24.6396 -4.30566 1.30126 0
M  V30 233 C 25.9586 -4.33028 -0.785771 0
M  V30 234 H 23.0776 -0.736912 0.0114185 0
M  V30 235 H 25.7196 -1.76056 0.714432 0
M  V30 236 H 23.8696 -3.82932 -0.655382 0
M  V30 237 H 25.5416 -4.19018 1.92929 0
M  V30 238 H 23.7846 -3.91086 1.87709 0
M  V30 239 H 24.4556 -5.39114 1.18573 0
M  V30 240 H 26.9316 -4.15095 -0.288982 0
M  V30 241 H 25.8076 -5.42695 -0.823013 0
M  V30 242 H 26.0686 -4.01945 -1.841 0
M  V30 243 N 25.1277 -0.289203 -1.54924 0
M  V30 244 C 26.0907 0.579144 -2.21762 0
M  V30 245 C 27.0907 1.07047 -1.1999 0
M  V30 246 O 28.2807 0.968384 -1.44803 0
M  V30 247 C 25.4127 1.80055 -2.8947 0
M  V30 248 H 26.6057 -0.00464908 -2.999 0
M  V30 249 H 24.1587 -0.0399306 -1.56249 0
M  V30 250 H 24.8937 2.42449 -2.15381 0
M  V30 251 H 24.6787 1.45602 -3.64064 0
M  V30 252 H 26.1687 2.41773 -3.40493 0
M  V30 253 N 26.6058 1.57591 -0.0167156 0
M  V30 254 C 28.0218 1.55946 0.339557 0
M  V30 255 C 28.2218 1.02109 1.73713 0
M  V30 256 O 27.2778 0.662303 2.43659 0
M  V30 257 C 28.5908 3.00037 0.199499 0
M  V30 258 C 30.1388 3.11805 0.273193 0
M  V30 259 C 30.6138 4.57713 0.162068 0
M  V30 260 N 32.1048 4.6268 0.219444 0
M  V30 261 C 32.8398 5.73185 0.157054 0
M  V30 262 N 32.3358 6.92786 0.0442936 0
M  V30 263 N 34.1288 5.61707 0.21014 0
M  V30 264 H 26.2798 1.90921 -0.930758 0
M  V30 265 H 28.5428 0.877674 -0.358319 0
M  V30 266 H 28.2488 3.4333 -0.76273 0
M  V30 267 H 28.1228 3.64387 0.974786 0
M  V30 268 H 30.5098 2.68433 1.22587 0
M  V30 269 H 30.5908 2.50201 -0.532256 0
M  V30 270 H 30.2348 5.01763 -0.78714 0
M  V30 271 H 30.1648 5.17283 0.986222 0
M  V30 272 H 32.6558 3.76649 0.307246 0
M  V30 273 H 32.9688 7.728 0.00304069 0
M  V30 274 H 31.3138 6.94999 0.00968457 0
M  V30 275 H 34.5048 4.6716 0.296546 0
M  V30 276 H 34.6778 6.47807 0.158054 0
M  V30 277 N 28.0839 -0.256276 1.55502 0
M  V30 278 C 29.4949 -0.826068 1.67431 0
M  V30 279 C 29.8459 -1.86396 0.612446 0
M  V30 280 O 28.9709 -2.15031 -0.243025 0
M  V30 281 C 29.5659 -1.50512 3.03532 0
M  V30 282 C 28.1249 -2.02273 3.17431 0
M  V30 283 C 27.2719 -0.870548 2.63281 0
M  V30 284 H 30.2229 -0.0322728 1.58667 0
M  V30 285 H 30.2439 -2.37279 2.97454 0
M  V30 286 H 29.7559 -0.749484 3.80794 0
M  V30 287 H 27.8569 -2.80746 2.44974 0
M  V30 288 H 27.9699 -2.22655 4.24219 0
M  V30 289 H 26.3339 -1.26851 2.20864 0
M  V30 290 H 27.1169 -0.128149 3.43061 0
M  V30 291 N 29.562 -1.4872 -0.521534 0
M  V30 292 C 30.973 -1.50607 -1.10337 0
M  V30 293 C 31.324 -0.280612 -1.94183 0
M  V30 294 O 30.449 0.611507 -2.0758 0
M  V30 295 C 31.044 -2.72903 -2.00772 0
M  V30 296 C 29.603 -2.77634 -2.54158 0
M  V30 297 C 28.75 -2.44241 -1.31307 0
M  V30 298 H 31.701 -1.55714 -0.306388 0
M  V30 299 H 31.722 -2.519 -2.85178 0
M  V30 300 H 31.234 -3.62077 -1.39721 0
M  V30 301 H 29.335 -1.92689 -3.18907 0
M  V30 302 H 29.448 -3.79283 -2.92714 0
M  V30 303 H 27.812 -1.95577 -1.63161 0
M  V30 304 H 28.595 -3.35666 -0.719943 0
M  V30 305 N 31.0401 0.771051 -1.3745 0
M  V30 306 C 31.9881 1.90574 -1.33358 0
M  V30 307 C 32.9821 1.67936 -0.22224 0
M  V30 308 O 34.1881 1.75717 -0.390304 0
M  V30 309 H 30.5631 0.626714 -0.415612 0
M  V30 310 H 32.5341 1.91142 -2.29144 0
M  V30 311 C 31.2831 3.27845 -1.15813 0
M  V30 312 H 30.6061 3.45842 -2.00583 0
M  V30 313 H 32.0461 4.07538 -1.17 0
M  V30 314 C 30.5051 3.36625 0.136165 0
M  V30 315 O 31.0351 3.85785 1.11949 0
M  V30 316 N 29.2411 2.89997 0.187099 0
M  V30 317 H 28.7881 2.50182 -0.613753 0
M  V30 318 H 28.7461 2.96252 1.05272 0
M  V30 319 N 32.5182 1.22032 0.997298 0
M  V30 320 C 33.7672 1.03637 1.73038 0
M  V30 321 C 34.0802 -0.429475 1.90827 0
M  V30 322 O 35.2862 -0.732995 2.61418 0
M  V30 323 C 33.7422 1.80582 3.11317 0
M  V30 324 C 33.3502 3.31387 3.01474 0
M  V30 325 C 35.0942 1.70621 3.88701 0
M  V30 326 C 33.0012 4.00791 4.3488 0
M  V30 327 H 31.9312 0.384179 0.648785 0
M  V30 328 H 34.5822 1.4584 1.11368 0
M  V30 329 H 32.9642 1.31175 3.73643 0
M  V30 330 H 34.1382 3.88155 2.4834 0
M  V30 331 H 32.4532 3.41976 2.37575 0
M  V30 332 H 35.0502 2.19799 4.87434 0
M  V30 333 H 35.3932 0.665823 4.10941 0
M  V30 334 H 35.9262 2.17547 3.33044 0
M  V30 335 H 32.6652 5.05064 4.1784 0
M  V30 336 H 32.1852 3.48811 4.87945 0
M  V30 337 H 33.8642 4.06139 5.03647 0
M  V30 338 N 33.9963 -1.19345 1.0293 0
M  V30 339 C 35.2423 -1.89318 0.727083 0
M  V30 340 C 35.5753 -1.79446 -0.742483 0
M  V30 341 O 34.8503 -1.1871 -1.54072 0
M  V30 342 C 35.1333 -3.40238 1.17942 0
M  V30 343 C 34.9863 -3.58979 2.71024 0
M  V30 344 C 36.3053 -4.33479 0.760548 0
M  V30 345 H 33.4243 -0.687475 0.265606 0
M  V30 346 H 36.0663 -1.40477 1.2793 0
M  V30 347 H 34.2163 -3.81964 0.709608 0
M  V30 348 H 35.8883 -3.26421 3.25955 0
M  V30 349 H 34.1313 -3.02018 3.11396 0
M  V30 350 H 34.8023 -4.64823 2.9773 0
M  V30 351 H 37.2783 -3.99469 1.16464 0
M  V30 352 H 36.1543 -5.37664 1.10493 0
M  V30 353 H 36.4153 -4.40813 -0.337063 0
M  V30 354 N 35.4744 -0.807222 -1.35358 0
M  V30 355 C 36.4044 -0.232509 -2.3234 0
M  V30 356 C 37.3854 0.642386 -1.57504 0
M  V30 357 O 38.5704 0.572526 -1.85569 0
M  V30 358 C 35.7004 0.619238 -3.41735 0
M  V30 359 C 34.6544 -0.157215 -4.27711 0
M  V30 360 C 33.9804 0.816273 -5.28433 0
M  V30 361 C 35.2804 -1.35656 -5.04376 0
M  V30 362 H 36.9744 -1.04276 -2.80654 0
M  V30 363 H 34.5204 -0.50288 -1.34934 0
M  V30 364 H 36.4734 1.03137 -4.08584 0
M  V30 365 H 35.1974 1.46239 -2.92031 0
M  V30 366 H 33.8564 -0.550525 -3.62443 0
M  V30 367 H 33.5044 1.65494 -4.74996 0
M  V30 368 H 33.2044 0.301067 -5.86828 0
M  V30 369 H 34.7284 1.22659 -5.98153 0
M  V30 370 H 36.1424 -1.01927 -5.64166 0
M  V30 371 H 34.5394 -1.8063 -5.7227 0
M  V30 372 H 35.6094 -2.14288 -4.34981 0
M  V30 373 N 36.9525 1.47285 -0.560781 0
M  V30 374 C 38.2015 2.01668 -0.035895 0
M  V30 375 C 38.5145 1.44021 1.32353 0
M  V30 376 O 39.7205 1.90088 1.93853 0
M  V30 377 C 38.1765 3.59897 -0.0136659 0
M  V30 378 C 37.7845 4.26536 -1.37006 0
M  V30 379 C 39.5285 4.22017 0.458425 0
M  V30 380 C 37.4355 5.76782 -1.30675 0
M  V30 381 H 36.3655 0.753938 -0.00964879 0
M  V30 382 H 39.0165 1.69243 -0.709166 0
M  V30 383 H 37.3985 3.89301 0.725325 0
M  V30 384 H 38.5725 4.0877 -2.12705 0
M  V30 385 H 36.8875 3.76419 -1.78038 0
M  V30 386 H 39.4845 5.32124 0.524247 0
M  V30 387 H 39.8275 3.89437 1.4712 0
M  V30 388 H 40.3605 3.97159 -0.225818 0
M  V30 389 H 37.0995 6.13988 -2.29564 0
M  V30 390 H 36.6195 5.96875 -0.591622 0
M  V30 391 H 38.2985 6.39063 -1.01033 0
M  V30 392 N 38.4306 0.297415 1.54768 0
M  V30 393 C 39.6776 -0.312913 2.00068 0
M  V30 394 C 40.0056 -1.54171 1.18582 0
M  V30 395 O 39.2606 -1.94108 0.249133 0
M  V30 396 C 39.5596 -0.717561 3.50123 0
M  V30 397 C 39.2256 0.409095 4.4904 0
M  V30 398 C 37.8876 0.718399 4.75807 0
M  V30 399 C 40.2396 1.16717 5.07963 0
M  V30 400 C 37.5676 1.78896 5.5876 0
M  V30 401 C 39.9196 2.22762 5.92081 0
M  V30 402 C 38.5836 2.54303 6.1716 0
M  V30 403 H 37.8536 -0.114503 0.7321 0
M  V30 404 H 40.5006 0.415767 1.86932 0
M  V30 405 H 38.8056 -1.52627 3.60849 0
M  V30 406 H 40.5026 -1.20091 3.82595 0
M  V30 407 H 37.0926 0.157918 4.28309 0
M  V30 408 H 41.2766 0.941466 4.87289 0
M  V30 409 H 36.5326 2.0381 5.7643 0
M  V30 410 H 40.7066 2.81962 6.36765 0
M  V30 411 H 38.3336 3.3739 6.81229 0
M  V30 412 N 39.9087 -1.5758 0.0250728 0
M  V30 413 C 40.8717 -2.08896 -0.943139 0
M  V30 414 C 41.8717 -1.00321 -1.25668 0
M  V30 415 O 43.0617 -1.26495 -1.19769 0
M  V30 416 C 40.1937 -2.55143 -2.26086 0
M  V30 417 H 41.3867 -2.95723 -0.498775 0
M  V30 418 H 38.9397 -1.54703 -0.222888 0
M  V30 419 H 39.6747 -1.71633 -2.75159 0
M  V30 420 H 39.4597 -3.34461 -2.04641 0
M  V30 421 H 40.9497 -2.95083 -2.95492 0
M  V30 422 N 41.3868 0.248026 -1.55636 0
M  V30 423 C 42.6638 0.998988 -1.68165 0
M  V30 424 C 43.0438 2.03409 -0.564621 0
M  V30 425 O 42.3918 2.24378 0.432076 0
M  V30 426 C 42.6018 1.63334 -3.0842 0
M  V30 427 C 43.9498 2.13562 -3.66983 0
M  V30 428 O 44.9738 1.73277 -3.11213 0
M  V30 429 O 43.8328 2.87526 -4.64749 0
M  V30 430 H 40.9268 0.464933 -0.683935 0
M  V30 431 H 43.4728 0.241902 -1.67967 0
M  V30 432 H 42.2448 0.884583 -3.8117 0
M  V30 433 H 41.8678 2.45666 -3.12624 0
M  V30 434 N 42.8649 1.48995 0.513639 0
M  V30 435 C 44.1419 1.48338 1.27495 0
M  V30 436 C 44.5219 0.204065 2.10111 0
M  V30 437 O 43.8699 -0.813881 2.13514 0
M  V30 438 C 44.0799 2.75498 2.14247 0
M  V30 439 C 45.4279 3.24484 2.73852 0
M  V30 440 O 46.4519 2.76528 2.24523 0
M  V30 441 O 45.3109 4.07974 3.6362 0
M  V30 442 H 42.4049 0.593149 0.576284 0
M  V30 443 H 44.9509 1.61246 0.528948 0
M  V30 444 H 43.7229 3.60109 1.53092 0
M  V30 445 H 43.3459 2.6539 2.96064 0
M  V30 446 N 44.343 -0.763751 1.37857 0
M  V30 447 C 45.273 -1.89103 1.36975 0
M  V30 448 C 46.254 -1.68439 0.237152 0
M  V30 449 O 47.439 -1.8918 0.438713 0
M  V30 450 C 44.569 -3.26496 1.18395 0
M  V30 451 C 43.523 -3.61741 2.28751 0
M  V30 452 C 42.849 -4.97762 1.95286 0
M  V30 453 C 44.149 -3.67665 3.70972 0
M  V30 454 H 45.843 -1.90099 2.31307 0
M  V30 455 H 43.389 -0.91319 1.11341 0
M  V30 456 H 45.342 -4.05003 1.16406 0
M  V30 457 H 44.066 -3.25955 0.205215 0
M  V30 458 H 42.725 -2.85547 2.29909 0
M  V30 459 H 42.373 -4.93769 0.959221 0
M  V30 460 H 42.073 -5.22313 2.69189 0
M  V30 461 H 43.597 -5.7866 1.94898 0
M  V30 462 H 45.011 -4.36307 3.719 0
M  V30 463 H 43.408 -4.03718 4.43995 0
M  V30 464 H 44.478 -2.68134 4.0402 0
M  V30 465 N 45.8211 -1.22559 -0.990812 0
M  V30 466 C 47.0691 -1.04933 -1.72724 0
M  V30 467 C 47.3901 0.416158 -1.90508 0
M  V30 468 O 46.6601 1.29918 -1.46622 0
M  V30 469 H 45.2401 -0.385296 -0.639965 0
M  V30 470 H 47.9021 -1.54105 -1.19322 0
M  V30 471 H 46.9981 -1.52886 -2.72089 0
M  V30 472 N 47.2992 1.18797 -1.03562 0
M  V30 473 C 48.5292 1.92319 -0.754773 0
M  V30 474 C 48.9372 1.7612 0.691248 0
M  V30 475 O 48.2802 1.08491 1.48241 0
M  V30 476 C 48.3422 3.44284 -1.03484 0
M  V30 477 C 48.0062 3.84258 -2.47376 0
M  V30 478 C 49.0032 3.88459 -3.45537 0
M  V30 479 C 46.6882 4.15701 -2.81954 0
M  V30 480 C 48.6822 4.23545 -4.76328 0
M  V30 481 C 46.3692 4.50458 -4.12954 0
M  V30 482 C 47.3672 4.54356 -5.09951 0
M  V30 483 O 47.0552 4.88305 -6.38603 0
M  V30 484 H 46.7872 0.617527 -0.275021 0
M  V30 485 H 49.3412 1.51683 -1.38497 0
M  V30 486 H 47.5712 3.85135 -0.347513 0
M  V30 487 H 49.2602 3.99049 -0.7426 0
M  V30 488 H 50.0262 3.6431 -3.20162 0
M  V30 489 H 45.9052 4.11847 -2.0713 0
M  V30 490 H 49.4492 4.26502 -5.52035 0
M  V30 491 H 45.3462 4.74067 -4.38099 0
M  V30 492 H 46.1142 5.06227 -6.43177 0
M  V30 493 N 48.7773 0.814389 1.34928 0
M  V30 494 C 50.0253 0.397636 1.9815 0
M  V30 495 C 50.3463 -1.04069 1.64908 0
M  V30 496 O 49.6163 -1.72121 0.93548 0
M  V30 497 H 48.1963 0.144043 0.732981 0
M  V30 498 H 50.8583 1.04195 1.6471 0
M  V30 499 H 49.9543 0.509688 3.0791 0
M  V30 500 N 50.2554 -1.46986 0.568584 0
M  V30 501 C 51.5324 -1.95592 -0.0174074 0
M  V30 502 C 51.9124 -1.51124 -1.47393 0
M  V30 503 O 51.2604 -0.755329 -2.15655 0
M  V30 504 C 51.4704 -3.48719 0.139913 0
M  V30 505 C 52.8184 -4.246 0.000426376 0
M  V30 506 O 53.8424 -3.56135 0.0680316 0
M  V30 507 O 52.7014 -5.46302 -0.146988 0
M  V30 508 H 49.7954 -0.82498 -0.0577599 0
M  V30 509 H 52.3414 -1.57335 0.635909 0
M  V30 510 H 51.1134 -3.73927 1.15301 0
M  V30 511 H 50.7364 -3.93771 -0.550491 0
M  V30 512 N 51.7335 -0.305618 -1.54608 0
M  V30 513 C 52.6635 0.561482 -2.26649 0
M  V30 514 C 53.6445 1.13415 -1.26772 0
M  V30 515 O 54.8295 1.16262 -1.55553 0
M  V30 516 C 51.9595 1.73122 -3.01075 0
M  V30 517 C 50.9135 1.2887 -4.08138 0
M  V30 518 C 50.2395 2.54396 -4.70305 0
M  V30 519 C 51.5395 0.416578 -5.20636 0
M  V30 520 H 53.2335 -0.0393902 -2.99374 0
M  V30 521 H 50.7795 -0.020385 -1.43986 0
M  V30 522 H 52.7325 2.34396 -3.50195 0
M  V30 523 H 51.4565 2.3584 -2.25936 0
M  V30 524 H 50.1155 0.698991 -3.59875 0
M  V30 525 H 49.7635 3.15439 -3.918 0
M  V30 526 H 49.4635 2.25486 -5.42614 0
M  V30 527 H 50.9875 3.16464 -5.2219 0
M  V30 528 H 52.4015 0.935116 -5.65622 0
M  V30 529 H 50.7985 0.221046 -5.99693 0
M  V30 530 H 51.8685 -0.557162 -4.81688 0
M  V30 531 N 53.2116 1.57565 -0.0334293 0
M  V30 532 C 54.4596 1.91598 0.642999 0
M  V30 533 C 54.7806 0.910847 1.7242 0
M  V30 534 O 54.0506 -0.0469931 1.95844 0
M  V30 535 H 52.6306 0.707228 0.240496 0
M  V30 536 H 55.2926 1.94726 -0.0822488 0
M  V30 537 H 54.3886 2.92336 1.09298 0
M  V30 538 N 54.6897 -0.239769 1.55765 0
M  V30 539 C 55.9297 -0.974076 1.79697 0
M  V30 540 C 56.2937 -1.82249 0.604088 0
M  V30 541 O 57.4947 -2.58913 0.722324 0
M  V30 542 C 55.7657 -1.80595 3.08416 0
M  V30 543 S 57.3247 -2.59838 3.53596 0
M  V30 544 H 54.1427 -0.327524 0.63107 0
M  V30 545 H 56.7447 -0.241277 1.94005 0
M  V30 546 H 55.4487 -1.17249 3.93295 0
M  V30 547 H 54.9797 -2.58137 2.96865 0
M  V30 548 H 56.9947 -3.82987 3.15492 0
M  V30 549 N 56.1678 -1.49265 -0.50573 0
M  V30 550 C 57.3978 -1.61979 -1.28243 0
M  V30 551 C 57.8058 -0.288576 -1.86986 0
M  V30 552 O 57.1488 0.735408 -1.68337 0
M  V30 553 C 57.2108 -2.62632 -2.45489 0
M  V30 554 C 56.8748 -4.071 -2.07651 0
M  V30 555 C 57.8718 -4.94049 -1.61901 0
M  V30 556 C 55.5568 -4.52801 -2.17431 0
M  V30 557 C 57.5508 -6.24736 -1.26428 0
M  V30 558 C 55.2378 -5.83503 -1.8157 0
M  V30 559 C 56.2358 -6.69294 -1.36142 0
M  V30 560 O 55.9238 -7.9756 -1.00764 0
M  V30 561 H 55.6558 -0.54834 -0.395347 0
M  V30 562 H 58.2098 -1.96002 -0.614204 0
M  V30 563 H 56.4398 -2.2378 -3.15372 0
M  V30 564 H 58.1288 -2.64925 -3.07522 0
M  V30 565 H 58.8948 -4.5997 -1.53795 0
M  V30 566 H 54.7738 -3.86196 -2.51742 0
M  V30 567 H 58.3178 -6.91652 -0.908992 0
M  V30 568 H 54.2148 -6.17112 -1.89324 0
M  V30 569 H 54.9828 -8.10529 -1.13952 0
M  V30 570 N 57.6459 0.756429 -1.3826 0
M  V30 571 C 58.8939 1.51248 -1.34047 0
M  V30 572 C 59.2149 1.94875 0.0698372 0
M  V30 573 O 58.4849 1.67436 1.01696 0
M  V30 574 H 57.0649 0.561018 -0.493222 0
M  V30 575 H 59.7269 0.899347 -1.7291 0
M  V30 576 H 58.8229 2.40472 -1.98947 0
M  V30 577 N 59.124 1.23083 0.984299 0
M  V30 578 C 60.074 0.975749 2.06066 0
M  V30 579 C 61.058 -0.0768251 1.60716 0
M  V30 580 O 62.25 0.134805 1.76486 0
M  V30 581 C 59.379 0.564673 3.38624 0
M  V30 582 C 58.465 1.65244 3.90583 0
M  V30 583 N 58.856 2.88193 4.15666 0
M  V30 584 C 57.154 1.52612 4.19077 0
M  V30 585 C 57.855 3.58593 4.58024 0
M  V30 586 N 56.831 2.86093 4.62225 0
M  V30 587 H 60.633 1.90957 2.23411 0
M  V30 588 H 58.147 1.12963 1.16675 0
M  V30 589 H 60.144 0.36322 4.15315 0
M  V30 590 H 58.804 -0.362147 3.22674 0
M  V30 591 H 59.815 3.24537 4.03604 0
M  V30 592 H 56.492 0.666121 4.12152 0
M  V30 593 H 57.882 4.63974 4.85982 0
M  V30 594 N 60.6021 -1.18246 1.0419 0
M  V30 595 C 62.0131 -1.69914 0.773698 0
M  V30 596 C 62.3641 -1.83085 -0.705297 0
M  V30 597 O 61.4891 -1.51123 -1.5489 0
M  V30 598 C 62.0841 -3.08619 1.39784 0
M  V30 599 C 60.6431 -3.57494 1.17792 0
M  V30 600 C 59.7901 -2.34013 1.48773 0
M  V30 601 H 62.7411 -1.02904 1.20816 0
M  V30 602 H 62.7621 -3.71958 0.801714 0
M  V30 603 H 62.2741 -2.99001 2.47426 0
M  V30 604 H 60.3751 -3.72406 0.120295 0
M  V30 605 H 60.4881 -4.40852 1.87581 0
M  V30 606 H 58.8521 -2.37986 0.907463 0
M  V30 607 H 59.6351 -2.27013 2.57527 0
M  V30 608 N 62.0802 -0.821533 -1.34494 0
M  V30 609 C 63.3052 -0.420873 -2.03085 0
M  V30 610 C 63.7302 0.964915 -1.61465 0
M  V30 611 O 63.0882 1.62763 -0.798607 0
M  V30 612 C 63.1362 -0.529414 -3.56693 0
M  V30 613 O 62.2402 0.451302 -4.09923 0
M  V30 614 H 61.5812 -0.173489 -0.640935 0
M  V30 615 H 64.1112 -1.11157 -1.71771 0
M  V30 616 H 64.1212 -0.404671 -4.05988 0
M  V30 617 H 62.7962 -1.54014 -3.86332 0
M  V30 618 H 61.3732 0.285558 -3.71805 0
M  V30 619 N 63.5583 1.46682 -0.576371 0
M  V30 620 C 64.7833 2.07304 -0.0630475 0
M  V30 621 C 65.2083 1.42329 1.2298 0
M  V30 622 O 64.5663 0.504865 1.74129 0
M  V30 623 C 64.6143 3.60472 0.095895 0
M  V30 624 O 63.7183 3.95927 1.15394 0
M  V30 625 H 63.0593 0.661288 -0.0599463 0
M  V30 626 H 65.5893 1.88417 -0.797511 0
M  V30 627 H 65.5993 4.06865 0.304071 0
M  V30 628 H 64.2743 4.07157 -0.84828 0
M  V30 629 H 62.8513 3.61252 0.924724 0
M  V30 630 N 65.0364 0.313813 1.54444 0
M  V30 631 C 66.2644 -0.293918 2.04802 0
M  V30 632 C 66.6794 -1.46537 1.19047 0
M  V30 633 O 66.0364 -1.81182 0.218939 0
M  V30 634 C 66.0874 -0.737806 3.53891 0
M  V30 635 O 65.8084 0.387038 4.36387 0
M  V30 636 C 67.3094 -1.40936 4.203 0
M  V30 637 H 64.5294 -0.0620057 0.668129 0
M  V30 638 H 67.0734 0.457169 1.99324 0
M  V30 639 H 65.2284 -1.43889 3.59687 0
M  V30 640 H 65.6424 0.0391274 5.24485 0
M  V30 641 H 67.1164 -1.67099 5.26101 0
M  V30 642 H 67.5934 -2.35355 3.70816 0
M  V30 643 H 68.1994 -0.751117 4.18615 0
M  V30 644 N 66.5145 -1.57545 0.0417849 0
M  V30 645 C 67.7425 -1.96624 -0.643928 0
M  V30 646 C 68.1575 -0.918897 -1.64929 0
M  V30 647 O 67.5145 0.0979323 -1.82237 0
M  V30 648 C 67.5655 -3.35781 -1.33914 0
M  V30 649 O 67.2865 -4.365 -0.374048 0
M  V30 650 C 68.7875 -3.89566 -2.1155 0
M  V30 651 H 66.0075 -0.647316 -0.176702 0
M  V30 652 H 68.5515 -2.04229 0.105304 0
M  V30 653 H 66.7065 -3.29357 -2.03968 0
M  V30 654 H 67.1205 -5.17248 -0.869179 0
M  V30 655 H 68.5945 -4.89242 -2.55628 0
M  V30 656 H 69.0715 -3.24488 -2.9598 0
M  V30 657 H 69.6775 -3.99298 -1.46427 0
M  V30 658 N 67.9926 0.231505 -1.5589 0
M  V30 659 C 69.4036 0.799327 -1.68724 0
M  V30 660 C 69.7546 1.85398 -0.642022 0
M  V30 661 O 68.8796 2.1539 0.208784 0
M  V30 662 C 69.4746 1.45664 -3.05888 0
M  V30 663 C 68.0336 1.97197 -3.20609 0
M  V30 664 C 67.1806 0.828552 -2.64632 0
M  V30 665 H 70.1316 0.00702616 -1.58698 0
M  V30 666 H 70.1526 2.32517 -3.01191 0
M  V30 667 H 69.6646 0.688808 -3.81939 0
M  V30 668 H 67.7656 2.76813 -2.4941 0
M  V30 669 H 67.8786 2.15878 -4.27707 0
M  V30 670 H 66.2426 1.23321 -2.22854 0
M  V30 671 H 67.0256 0.0735544 -3.43221 0
M  V30 672 N 69.4707 1.49531 0.497807 0
M  V30 673 C 70.4187 1.66926 1.61983 0
M  V30 674 C 71.4127 0.535167 1.60724 0
M  V30 675 O 72.6187 0.714896 1.65195 0
M  V30 676 H 68.9937 0.526415 0.537021 0
M  V30 677 H 70.9647 2.61098 1.44465 0
M  V30 678 C 69.7137 1.75602 3.00099 0
M  V30 679 H 69.0367 2.62244 3.01775 0
M  V30 680 H 70.4767 1.91807 3.78135 0
M  V30 681 C 68.9357 0.501543 3.33146 0
M  V30 682 O 69.4657 -0.371342 3.9998 0
M  V30 683 N 67.6717 0.363531 2.88317 0
M  V30 684 H 67.2187 1.07485 2.34104 0
M  V30 685 H 67.1767 -0.474728 3.10795 0
M  V30 686 N 70.9488 -0.749086 1.3866 0
M  V30 687 C 71.8788 -1.8764 1.38973 0
M  V30 688 C 72.8598 -1.68178 0.255004 0
M  V30 689 O 74.0448 -1.88704 0.458754 0
M  V30 690 C 71.1748 -3.25222 1.21851 0
M  V30 691 C 70.1288 -3.59295 2.32575 0
M  V30 692 C 69.4548 -4.95663 2.00555 0
M  V30 693 C 70.7548 -3.63709 3.7485 0
M  V30 694 H 72.4488 -1.87635 2.3331 0
M  V30 695 H 69.9948 -0.901329 1.12303 0
M  V30 696 H 71.9478 -4.03746 1.20695 0
M  V30 697 H 70.6718 -3.25719 0.239775 0
M  V30 698 H 69.3308 -2.83093 2.32925 0
M  V30 699 H 68.9788 -4.92724 1.01154 0
M  V30 700 H 68.6788 -5.19429 2.74714 0
M  V30 701 H 70.2028 -5.7656 2.01024 0
M  V30 702 H 71.6168 -4.32338 3.76506 0
M  V30 703 H 70.0138 -3.98986 4.48252 0
M  V30 704 H 71.0838 -2.63834 4.06841 0
M  V30 705 N 72.4269 -1.23603 -0.977757 0
M  V30 706 C 73.7039 -0.977897 -1.69401 0
M  V30 707 C 74.0839 0.502738 -2.05026 0
M  V30 708 O 73.4319 1.47459 -1.74551 0
M  V30 709 C 73.6419 -1.89077 -2.93345 0
M  V30 710 C 74.9899 -2.15579 -3.65802 0
M  V30 711 O 76.0139 -1.86648 -3.03383 0
M  V30 712 O 74.8729 -2.64658 -4.78141 0
M  V30 713 H 71.9669 -0.369025 -0.740101 0
M  V30 714 H 74.5129 -1.34657 -1.03274 0
M  V30 715 H 73.2849 -2.89158 -2.63634 0
M  V30 716 H 72.9079 -1.52463 -3.67207 0
M  V30 717 N 73.905 1.17692 -1.04816 0
M  V30 718 C 74.837 2.21103 -0.603822 0
M  V30 719 C 75.85 1.59411 0.33046 0
M  V30 720 O 77.039 1.7807 0.12379 0
M  V30 721 C 74.139 3.38623 0.136898 0
M  V30 722 C 73.312 4.29888 -0.807137 0
M  V30 723 C 72.371 5.26088 -0.10836 0
M  V30 724 O 71.397 5.64353 -0.741232 0
M  V30 725 N 72.599 5.68882 1.15558 0
M  V30 726 H 75.364 2.59848 -1.49329 0
M  V30 727 H 72.925 1.32553 -0.929587 0
M  V30 728 H 74.917 4.00009 0.614401 0
M  V30 729 H 73.487 2.98508 0.927993 0
M  V30 730 H 72.707 3.65993 -1.46434 0
M  V30 731 H 73.995 4.87759 -1.44807 0
M  V30 732 H 73.393 5.39861 1.69015 0
M  V30 733 H 71.95 6.32429 1.57722 0
M  V30 734 N 75.3831 0.828654 1.34056 0
M  V30 735 C 76.3131 0.269443 2.3194 0
M  V30 736 C 77.2941 -0.617247 1.58506 0
M  V30 737 O 78.4791 -0.542931 1.86456 0
M  V30 738 C 75.6091 -0.564793 3.42677 0
M  V30 739 C 74.5631 0.225241 4.27407 0
M  V30 740 C 73.8891 -0.7321 5.29664 0
M  V30 741 C 75.1891 1.43663 5.02154 0
M  V30 742 H 76.8831 1.08728 2.7896 0
M  V30 743 H 74.4291 0.524283 1.34117 0
M  V30 744 H 76.3821 -0.966233 4.10173 0
M  V30 745 H 75.1061 -1.41574 2.9432 0
M  V30 746 H 73.7651 0.608117 3.61521 0
M  V30 747 H 73.4131 -1.57916 4.77568 0
M  V30 748 H 73.1131 -0.20767 5.87233 0
M  V30 749 H 74.6371 -1.13128 6.00029 0
M  V30 750 H 76.0511 1.1089 5.62473 0
M  V30 751 H 74.4481 1.89711 5.69324 0
M  V30 752 H 75.5181 2.21181 4.31517 0
M  V30 753 N 76.8612 -1.46375 0.584142 0
M  V30 754 C 77.8242 -2.28784 -0.138108 0
M  V30 755 C 78.8242 -1.38471 -0.817462 0
M  V30 756 O 80.0142 -1.60833 -0.669199 0
M  V30 757 C 77.1462 -3.18892 -1.20503 0
M  V30 758 H 78.3392 -2.94117 0.586127 0
M  V30 759 H 75.8922 -1.52509 0.342171 0
M  V30 760 H 76.6272 -2.58309 -1.96079 0
M  V30 761 H 76.4122 -3.85388 -0.722384 0
M  V30 762 H 77.9022 -3.80914 -1.71155 0
M  V30 763 N 78.3393 -0.321999 -1.54275 0
M  V30 764 C 79.3023 0.531975 -2.22941 0
M  V30 765 C 80.3023 1.04478 -1.22234 0
M  V30 766 O 81.4923 0.937452 -1.46825 0
M  V30 767 C 78.6243 1.73874 -2.93224 0
M  V30 768 H 79.8173 -0.0682612 -2.99822 0
M  V30 769 H 77.3703 -0.0730644 -1.56129 0
M  V30 770 H 78.1053 2.37825 -2.20476 0
M  V30 771 H 77.8903 1.37847 -3.6707 0
M  V30 772 H 79.3803 2.34496 -3.45545 0
M  V30 773 N 79.8174 1.5752 -0.0501392 0
M  V30 774 C 81.0654 1.9227 0.622642 0
M  V30 775 C 81.3864 0.929083 1.71444 0
M  V30 776 O 80.6564 -0.0262186 1.95882 0
M  V30 777 H 79.2364 0.709739 0.232981 0
M  V30 778 H 81.8984 1.94628 -0.102898 0
M  V30 779 H 80.9944 2.93479 1.06191 0
M  V30 780 N 81.2955 -0.223234 1.56011 0
M  V30 781 C 82.5435 -0.946003 1.78592 0
M  V30 782 C 82.8645 -1.84936 0.618349 0
M  V30 783 O 82.1345 -1.92473 -0.364833 0
M  V30 784 H 80.7145 -0.352298 0.658707 0
M  V30 785 H 83.3765 -0.235494 1.93472 0
M  V30 786 H 82.4725 -1.55381 2.70672 0
M  V30 787 N 82.7736 -1.49793 -0.48987 0
M  V30 788 C 83.7036 -1.70201 -1.59856 0
M  V30 789 C 84.6846 -0.55076 -1.60937 0
M  V30 790 O 85.8696 -0.787841 -1.77501 0
M  V30 791 C 82.9996 -1.77882 -2.98287 0
M  V30 792 C 81.9536 -2.92907 -3.12073 0
M  V30 793 C 81.2796 -2.85712 -4.51965 0
M  V30 794 C 82.5796 -4.3369 -2.91051 0
M  V30 795 H 84.2736 -2.63025 -1.43032 0
M  V30 796 H 81.8196 -1.26574 -0.686664 0
M  V30 797 H 83.7726 -1.90744 -3.75759 0
M  V30 798 H 82.4966 -0.816653 -3.16225 0
M  V30 799 H 81.1556 -2.79665 -2.37029 0
M  V30 800 H 80.8036 -1.8738 -4.66795 0
M  V30 801 H 80.5036 -3.62921 -4.62128 0
M  V30 802 H 82.0276 -3.00598 -5.31482 0
M  V30 803 H 83.4416 -4.47555 -3.58284 0
M  V30 804 H 81.8386 -5.12205 -3.12675 0
M  V30 805 H 82.9086 -4.47362 -1.87071 0
M  V30 806 N 84.2517 0.741722 -1.39055 0
M  V30 807 C 85.6677 1.04638 -1.20512 0
M  V30 808 C 85.8677 2.01405 -0.0620218 0
M  V30 809 O 84.9237 2.45547 0.588457 0
M  V30 810 C 86.2367 1.6151 -2.53643 0
M  V30 811 C 87.7847 1.73623 -2.6043 0
M  V30 812 C 88.2597 2.33906 -3.93767 0
M  V30 813 N 89.7507 2.41323 -3.9537 0
M  V30 814 C 90.4857 2.88888 -4.95309 0
M  V30 815 N 89.9817 3.36401 -6.05645 0
M  V30 816 N 91.7747 2.88037 -4.82692 0
M  V30 817 H 83.9257 0.0998155 -2.12165 0
M  V30 818 H 86.1887 0.106907 -0.941953 0
M  V30 819 H 85.8947 0.978739 -3.37807 0
M  V30 820 H 85.7687 2.60411 -2.72885 0
M  V30 821 H 88.1557 2.36384 -1.76655 0
M  V30 822 H 88.2367 0.733945 -2.45045 0
M  V30 823 H 87.8807 1.71776 -4.7797 0
M  V30 824 H 87.8107 3.34799 -4.06469 0
M  V30 825 H 90.3017 2.07734 -3.15682 0
M  V30 826 H 90.6147 3.71186 -6.77821 0
M  V30 827 H 88.9597 3.34427 -6.09248 0
M  V30 828 H 92.1507 2.50237 -3.95599 0
M  V30 829 H 92.3237 3.24792 -5.60726 0
M  V30 830 N 85.7298 1.2412 0.971189 0
M  V30 831 C 86.9768 1.07881 1.71371 0
M  V30 832 C 87.3048 -0.382901 1.90694 0
M  V30 833 O 86.5598 -1.29945 1.46331 0
M  V30 834 C 86.8588 1.75983 3.11071 0
M  V30 835 C 86.5248 3.25909 3.11599 0
M  V30 836 C 85.1868 3.66813 3.11451 0
M  V30 837 C 87.5388 4.21771 3.062 0
M  V30 838 C 84.8668 5.02021 3.03631 0
M  V30 839 C 87.2188 5.56982 2.99923 0
M  V30 840 C 85.8828 5.97237 2.98102 0
M  V30 841 H 85.1528 0.394764 0.62709 0
M  V30 842 H 87.7998 1.54176 1.13587 0
M  V30 843 H 86.1048 1.22072 3.72298 0
M  V30 844 H 87.8018 1.60887 3.6731 0
M  V30 845 H 84.3918 2.93353 3.12477 0
M  V30 846 H 88.5758 3.91172 3.05447 0
M  V30 847 H 83.8318 5.32411 3.0058 0
M  V30 848 H 88.0058 6.30969 2.94704 0
M  V30 849 H 85.6328 7.01967 2.91798 0
M  V30 850 N 87.2079 -1.17134 1.05439 0
M  V30 851 C 88.4359 -1.91372 0.786414 0
M  V30 852 C 88.8509 -1.76955 -0.658202 0
M  V30 853 O 88.2079 -1.10838 -1.44987 0
M  V30 854 C 88.2589 -3.42356 1.1608 0
M  V30 855 O 87.9799 -3.56332 2.54871 0
M  V30 856 C 89.4809 -4.33663 0.919322 0
M  V30 857 H 86.7009 -0.607118 0.285743 0
M  V30 858 H 89.2449 -1.48525 1.40572 0
M  V30 859 H 87.3999 -3.82939 0.586191 0
M  V30 860 H 87.8139 -4.49896 2.69618 0
M  V30 861 H 89.2879 -5.38099 1.231 0
M  V30 862 H 89.7649 -4.38959 -0.145359 0
M  V30 863 H 90.3709 -3.98796 1.47789 0
M  V30 864 N 88.686 -0.835752 -1.33615 0
M  V30 865 C 89.963 -0.352017 -1.92406 0
M  V30 866 C 90.343 1.16225 -1.76224 0
M  V30 867 O 89.691 1.97526 -1.14873 0
M  V30 868 C 89.901 -0.795485 -3.39813 0
M  V30 869 C 91.249 -0.801703 -4.16963 0
M  V30 870 O 92.273 -0.738889 -3.48452 0
M  V30 871 O 91.132 -0.886607 -5.3926 0
M  V30 872 H 88.226 -0.0989641 -0.821057 0
M  V30 873 H 90.772 -0.921397 -1.42507 0
M  V30 874 H 89.544 -1.83795 -3.45449 0
M  V30 875 H 89.167 -0.202505 -3.97084 0
M  V30 876 N 90.1641 1.46063 -0.591896 0
M  V30 877 C 91.4111 2.02338 -0.0809991 0
M  V30 878 C 91.7391 1.46228 1.28249 0
M  V30 879 O 90.9941 0.620818 1.85592 0
M  V30 880 C 91.2931 3.57391 0.0249813 0
M  V30 881 C 90.9591 4.32583 -1.27211 0
M  V30 882 C 89.6211 4.52844 -1.62745 0
M  V30 883 C 91.9731 4.75687 -2.13005 0
M  V30 884 C 89.3011 5.13462 -2.83855 0
M  V30 885 C 91.6531 5.37644 -3.3335 0
M  V30 886 C 90.3171 5.5613 -3.69155 0
M  V30 887 H 89.5871 0.740407 -0.0296397 0
M  V30 888 H 92.2341 1.75321 -0.770374 0
M  V30 889 H 90.5391 3.83597 0.797537 0
M  V30 890 H 92.2361 3.98621 0.436184 0
M  V30 891 H 88.8261 4.17116 -0.985499 0
M  V30 892 H 93.0101 4.59782 -1.86855 0
M  V30 893 H 88.2661 5.25965 -3.11722 0
M  V30 894 H 92.4401 5.7 -4.00092 0
M  V30 895 H 90.0671 6.0287 -4.63089 0
M  V30 896 N 91.6422 0.330177 1.54103 0
M  V30 897 C 92.8722 -0.271784 2.04805 0
M  V30 898 C 93.2802 -1.45816 1.20559 0
M  V30 899 O 92.6232 -1.82247 0.2306 0
M  V30 900 C 92.6852 -0.763238 3.51305 0
M  V30 901 C 92.3492 0.301705 4.56003 0
M  V30 902 C 93.3462 1.13999 5.07248 0
M  V30 903 C 91.0312 0.451793 5.00264 0
M  V30 904 C 93.0252 2.11402 6.01322 0
M  V30 905 C 90.7122 1.42924 5.94151 0
M  V30 906 C 91.7102 2.25882 6.44567 0
M  V30 907 O 91.3982 3.21965 7.3661 0
M  V30 908 H 91.1302 -0.058693 0.673447 0
M  V30 909 H 93.6842 0.476395 1.99799 0
M  V30 910 H 91.9142 -1.56244 3.5373 0
M  V30 911 H 93.6032 -1.28427 3.85047 0
M  V30 912 H 94.3692 1.03505 4.73827 0
M  V30 913 H 90.2482 -0.184044 4.60632 0
M  V30 914 H 93.7922 2.76192 6.40596 0
M  V30 915 H 89.6892 1.53479 6.26988 0
M  V30 916 H 90.4572 3.17281 7.54503 0
M  V30 917 N 93.1203 -1.57491 0.0584922 0
M  V30 918 C 94.3663 -1.93264 -0.614558 0
M  V30 919 C 94.6993 -0.937717 -1.7006 0
M  V30 920 O 93.9743 0.0351652 -1.94468 0
M  V30 921 C 94.2573 -3.3938 -1.20386 0
M  V30 922 C 94.1103 -4.49625 -0.125375 0
M  V30 923 C 95.4293 -3.86039 -2.11334 0
M  V30 924 H 92.5483 -0.702791 -0.221933 0
M  V30 925 H 95.1903 -1.8961 0.12175 0
M  V30 926 H 93.3403 -3.42626 -1.83139 0
M  V30 927 H 95.0123 -4.58506 0.506971 0
M  V30 928 H 93.2553 -4.30354 0.545672 0
M  V30 929 H 93.9263 -5.48967 -0.577861 0
M  V30 930 H 96.4023 -3.84716 -1.58534 0
M  V30 931 H 95.2783 -4.88914 -2.49507 0
M  V30 932 H 95.5393 -3.23215 -3.01636 0
M  V30 933 N 94.5984 0.214957 -1.56127 0
M  V30 934 C 96.0094 0.781386 -1.69562 0
M  V30 935 C 96.3604 1.84707 -0.66165 0
M  V30 936 O 95.4854 2.156 0.185927 0
M  V30 937 C 96.0804 1.42411 -3.07416 0
M  V30 938 C 94.6394 1.93786 -3.22683 0
M  V30 939 C 93.7864 0.800438 -2.65496 0
M  V30 940 H 96.7374 -0.00980633 -1.58697 0
M  V30 941 H 96.7584 2.29309 -3.0364 0
M  V30 942 H 96.2704 0.64826 -3.82648 0
M  V30 943 H 94.3714 2.74152 -2.52332 0
M  V30 944 H 94.4844 2.1133 -4.29973 0
M  V30 945 H 92.8484 1.2095 -2.2415 0
M  V30 946 H 93.6314 0.0371471 -3.4328 0
M  V30 947 N 96.0765 1.50051 0.48192 0
M  V30 948 C 97.3225 1.60736 1.2366 0
M  V30 949 C 97.6555 0.301786 1.91841 0
M  V30 950 O 96.9305 -0.696025 1.8162 0
M  V30 951 C 97.2135 2.78009 2.28874 0
M  V30 952 C 97.0665 4.18416 1.65069 0
M  V30 953 C 98.3855 2.90867 3.30279 0
M  V30 954 H 95.5045 0.585031 0.448228 0
M  V30 955 H 98.1465 1.82402 0.531946 0
M  V30 956 H 96.2965 2.59667 2.88973 0
M  V30 957 H 97.9685 4.48322 1.0865 0
M  V30 958 H 96.2115 4.23177 0.954148 0
M  V30 959 H 96.8825 4.96381 2.41474 0
M  V30 960 H 99.3585 3.07623 2.80191 0
M  V30 961 H 98.2345 3.74566 4.01238 0
M  V30 962 H 98.4955 2.01021 3.93755 0
M  V30 963 N 97.5546 -0.734337 1.39446 0
M  V30 964 C 98.7796 -1.52866 1.40167 0
M  V30 965 C 99.2046 -1.881 -0.00171513 0
M  V30 966 O 98.5626 -1.51957 -0.988879 0
M  V30 967 C 98.6106 -2.79235 2.28167 0
M  V30 968 O 97.7146 -3.75185 1.71201 0
M  V30 969 H 97.0556 -0.461618 0.477289 0
M  V30 970 H 99.5856 -0.905949 1.8345 0
M  V30 971 H 99.5956 -3.27963 2.42702 0
M  V30 972 H 98.2706 -2.52923 3.30156 0
M  V30 973 H 96.8476 -3.33958 1.65912 0
M  V30 974 N 99.0327 -1.24633 -0.964593 0
M  V30 975 C 99.9627 -1.06611 -2.07741 0
M  V30 976 C 100.944 0.0218666 -1.70086 0
M  V30 977 O 102.129 -0.145793 -1.93652 0
M  V30 978 C 99.2587 -0.673444 -3.40708 0
M  V30 979 C 98.2127 -1.71054 -3.92332 0
M  V30 980 C 97.5387 -1.17285 -5.21678 0
M  V30 981 C 98.8387 -3.10718 -4.19824 0
M  V30 982 H 100.533 -1.99693 -2.23076 0
M  V30 983 H 98.0787 -0.96152 -1.07195 0
M  V30 984 H 100.032 -0.534345 -4.17998 0
M  V30 985 H 98.7557 0.293073 -3.25282 0
M  V30 986 H 97.4147 -1.83791 -3.17201 0
M  V30 987 H 97.0627 -0.196847 -5.02615 0
M  V30 988 H 96.7627 -1.86592 -5.57187 0
M  V30 989 H 98.2867 -1.04593 -6.01575 0
M  V30 990 H 99.7007 -3.01192 -4.87808 0
M  V30 991 H 98.0977 -3.77406 -4.66567 0
M  V30 992 H 99.1677 -3.58524 -3.26479 0
M  V30 993 N 100.511 1.16574 -1.06058 0
M  V30 994 C 101.751 1.88723 -0.78504 0
M  V30 995 C 102.115 1.79706 0.676006 0
M  V30 996 O 103.316 2.46757 1.06603 0
M  V30 997 C 101.587 3.34338 -1.26304 0
M  V30 998 S 103.146 4.24366 -1.1162 0
M  V30 999 H 99.9638 0.651448 -0.284846 0
M  V30 1000 H 102.566 1.40732 -1.35701 0
M  V30 1001 H 101.27 3.38439 -2.32136 0
M  V30 1002 H 100.801 3.87378 -0.685719 0
M  V30 1003 H 102.816 4.96179 -0.0456539 0
M  V30 1004 N 101.989 0.842826 1.3317 0
M  V30 1005 C 103.217 0.454055 2.01856 0
M  V30 1006 C 103.632 -0.94587 1.63397 0
M  V30 1007 O 102.989 -1.61534 0.849302 0
M  V30 1008 C 103.04 0.569715 3.56982 0
M  V30 1009 O 102.761 1.91448 3.94055 0
M  V30 1010 C 104.262 0.178412 4.42941 0
M  V30 1011 H 101.482 0.17979 0.646465 0
M  V30 1012 H 104.026 1.1365 1.70012 0
M  V30 1013 H 102.181 -0.0648587 3.87346 0
M  V30 1014 H 102.595 1.90282 4.88767 0
M  V30 1015 H 104.069 0.310376 5.51127 0
M  V30 1016 H 104.546 -0.880056 4.30293 0
M  V30 1017 H 105.152 0.787579 4.17944 0
M  V30 1018 N 103.467 -1.45747 0.599634 0
M  V30 1019 C 104.878 -1.85853 0.177681 0
M  V30 1020 C 105.229 -1.50102 -1.26348 0
M  V30 1021 O 104.354 -0.923905 -1.95686 0
M  V30 1022 C 104.949 -3.37326 0.315688 0
M  V30 1023 C 103.508 -3.76365 -0.0515144 0
M  V30 1024 C 102.655 -2.69722 0.643822 0
M  V30 1025 H 105.606 -1.36661 0.806814 0
M  V30 1026 H 105.627 -3.77778 -0.454321 0
M  V30 1027 H 105.139 -3.63315 1.36468 0
M  V30 1028 H 103.24 -3.55993 -1.09999 0
M  V30 1029 H 103.353 -4.77916 0.336594 0
M  V30 1030 H 101.717 -2.54567 0.0822881 0
M  V30 1031 H 102.5 -2.98549 1.6948 0
M  V30 1032 N 104.945 -0.338344 -1.53925 0
M  V30 1033 C 106.17 0.263987 -2.05713 0
M  V30 1034 C 106.595 1.43847 -1.21201 0
M  V30 1035 O 105.953 1.79904 -0.224535 0
M  V30 1036 C 106.001 0.662 -3.54471 0
M  V30 1037 O 105.105 1.76265 -3.72833 0
M  V30 1038 H 104.446 0.0448722 -0.662482 0
M  V30 1039 H 106.976 -0.491048 -1.9862 0
M  V30 1040 H 106.986 0.940594 -3.9701 0
M  V30 1041 H 105.661 -0.196937 -4.15433 0
M  V30 1042 H 104.238 1.48173 -3.42198 0
M  V30 1043 N 106.423 1.57458 -0.0668435 0
M  V30 1044 C 107.839 1.56947 0.289772 0
M  V30 1045 C 108.039 1.07584 1.70376 0
M  V30 1046 O 107.095 0.739486 2.41429 0
M  V30 1047 C 108.408 3.0052 0.103943 0
M  V30 1048 C 109.956 3.12517 0.173857 0
M  V30 1049 C 110.431 4.57997 0.0163682 0
M  V30 1050 N 111.922 4.63144 0.0721352 0
M  V30 1051 C 112.657 5.73394 -0.0253794 0
M  V30 1052 N 112.153 6.92576 -0.176133 0
M  V30 1053 N 113.946 5.62091 0.0313305 0
M  V30 1054 H 106.097 1.87863 -0.991027 0
M  V30 1055 H 108.36 0.86583 -0.38606 0
M  V30 1056 H 108.066 3.40729 -0.871572 0
M  V30 1057 H 107.94 3.67304 0.858366 0
M  V30 1058 H 110.327 2.72197 1.13985 0
M  V30 1059 H 110.408 2.48381 -0.611586 0
M  V30 1060 H 110.052 4.99005 -0.946374 0
M  V30 1061 H 109.982 5.20158 0.821153 0
M  V30 1062 H 112.473 3.77436 0.187263 0
M  V30 1063 H 112.786 7.72418 -0.242821 0
M  V30 1064 H 111.131 6.94678 -0.211429 0
M  V30 1065 H 114.322 4.67867 0.147773 0
M  V30 1066 H 114.495 6.47982 -0.048121 0
M  V30 1067 N 107.901 -0.206675 1.56239 0
M  V30 1068 C 108.864 -1.23976 1.92776 0
M  V30 1069 C 109.864 -1.39041 0.807729 0
M  V30 1070 O 111.054 -1.37051 1.0753 0
M  V30 1071 C 108.186 -2.61112 2.19165 0
M  V30 1072 H 109.379 -0.927764 2.85189 0
M  V30 1073 H 106.932 -0.447718 1.4975 0
M  V30 1074 H 107.667 -2.97386 1.29352 0
M  V30 1075 H 107.452 -2.51552 3.00772 0
M  V30 1076 H 108.942 -3.35633 2.48476 0
M  V30 1077 N 109.379 -1.50304 -0.473955 0
M  V30 1078 C 110.342 -1.6841 -1.55469 0
M  V30 1079 C 111.342 -0.554905 -1.50922 0
M  V30 1080 O 112.532 -0.821882 -1.53593 0
M  V30 1081 C 109.664 -1.70667 -2.95102 0
M  V30 1082 H 110.857 -2.64828 -1.40733 0
M  V30 1083 H 108.41 -1.39742 -0.700132 0
M  V30 1084 H 109.145 -0.75932 -3.15285 0
M  V30 1085 H 108.93 -2.52698 -2.9981 0
M  V30 1086 H 110.42 -1.8664 -3.73571 0
M  V30 1087 N 110.857 0.726932 -1.39834 0
M  V30 1088 C 111.787 1.85405 -1.41941 0
M  V30 1089 C 112.768 1.67751 -0.281728 0
M  V30 1090 O 113.953 1.8795 -0.488717 0
M  V30 1091 C 111.083 3.23243 -1.2701 0
M  V30 1092 C 110.037 3.55549 -2.38262 0
M  V30 1093 C 109.363 4.9241 -2.08415 0
M  V30 1094 C 110.663 3.577 -3.80589 0
M  V30 1095 H 112.357 1.83899 -2.36266 0
M  V30 1096 H 109.903 0.883349 -1.13723 0
M  V30 1097 H 111.856 4.01775 -1.27103 0
M  V30 1098 H 110.58 3.25296 -0.291564 0
M  V30 1099 H 109.239 2.79351 -2.37399 0
M  V30 1100 H 108.887 4.91052 -1.0898 0
M  V30 1101 H 108.587 5.14992 -2.82943 0
M  V30 1102 H 110.111 5.73289 -2.10171 0
M  V30 1103 H 111.525 4.26293 -3.83337 0
M  V30 1104 H 109.922 3.91804 -4.54543 0
M  V30 1105 H 110.992 2.57328 -4.10987 0
M  V30 1106 N 112.336 1.25143 0.95797 0
M  V30 1107 C 113.266 1.07711 2.07173 0
M  V30 1108 C 114.247 -0.0128462 1.70095 0
M  V30 1109 O 115.432 0.156061 1.93572 0
M  V30 1110 C 112.562 0.691503 3.40346 0
M  V30 1111 C 111.516 1.73132 3.9142 0
M  V30 1112 C 110.842 1.20049 5.21049 0
M  V30 1113 C 112.142 3.1294 4.1817 0
M  V30 1114 H 113.836 2.00873 2.22014 0
M  V30 1115 H 111.382 0.967191 1.06684 0
M  V30 1116 H 113.335 0.556505 4.17709 0
M  V30 1117 H 112.059 -0.275819 3.25433 0
M  V30 1118 H 110.718 1.8547 3.16222 0
M  V30 1119 H 110.366 0.223499 5.02503 0
M  V30 1120 H 110.066 1.89545 5.56189 0
M  V30 1121 H 111.59 1.07782 6.01012 0
M  V30 1122 H 113.004 3.03775 4.86203 0
M  V30 1123 H 111.401 3.79875 4.64559 0
M  V30 1124 H 112.471 3.6025 3.24573 0
M  V30 1125 N 113.814 -1.1601 1.06675 0
M  V30 1126 C 115.042 -1.90527 0.806667 0
M  V30 1127 C 115.457 -1.77643 -0.639396 0
M  V30 1128 O 114.814 -1.12369 -1.43803 0
M  V30 1129 C 114.865 -3.41106 1.19705 0
M  V30 1130 O 114.586 -3.53608 2.58636 0
M  V30 1131 C 116.087 -4.32663 0.965266 0
M  V30 1132 H 113.307 -0.604053 0.292166 0
M  V30 1133 H 115.851 -1.47026 1.4214 0
M  V30 1134 H 114.006 -3.82296 0.626774 0
M  V30 1135 H 114.42 -4.47011 2.74375 0
M  V30 1136 H 115.894 -5.36763 1.288 0
M  V30 1137 H 116.371 -4.39089 -0.0987936 0
M  V30 1138 H 116.977 -3.97206 1.52011 0
M  V30 1139 N 115.292 -0.849877 -1.32721 0
M  V30 1140 C 116.54 -0.450032 -1.97026 0
M  V30 1141 C 116.861 0.996604 -1.67609 0
M  V30 1142 O 116.131 1.6958 -0.980786 0
M  V30 1143 H 114.711 -0.163426 -0.728904 0
M  V30 1144 H 117.373 -1.08526 -1.6189 0
M  V30 1145 H 116.469 -0.591146 -3.0645 0
M  V30 1146 N 116.77 1.45427 -0.607355 0
M  V30 1147 C 118.186 1.57283 -0.270985 0
M  V30 1148 C 118.386 1.59875 1.22647 0
M  V30 1149 O 117.442 1.52893 2.00948 0
M  V30 1150 C 118.755 2.85566 -0.941952 0
M  V30 1151 C 120.303 2.9924 -0.917849 0
M  V30 1152 C 120.778 4.30293 -1.56882 0
M  V30 1153 N 122.269 4.37051 -1.5343 0
M  V30 1154 C 123.004 5.37123 -2.00715 0
M  V30 1155 N 122.5 6.43734 -2.56084 0
M  V30 1156 N 124.293 5.28479 -1.91484 0
M  V30 1157 H 116.444 1.41988 -1.57966 0
M  V30 1158 H 118.707 0.67885 -0.661715 0
M  V30 1159 H 118.413 2.8955 -1.99633 0
M  V30 1160 H 118.287 3.74322 -0.465096 0
M  V30 1161 H 120.674 2.94822 0.127984 0
M  V30 1162 H 120.755 2.11895 -1.43297 0
M  V30 1163 H 120.399 4.35469 -2.61398 0
M  V30 1164 H 120.329 5.16454 -1.02873 0
M  V30 1165 H 122.82 3.60615 -1.12982 0
M  V30 1166 H 123.133 7.16341 -2.89958 0
M  V30 1167 H 121.478 6.44485 -2.60122 0
M  V30 1168 H 124.669 4.44098 -1.47967 0
M  V30 1169 H 124.842 6.0632 -2.28648 0
M  V30 1170 N 118.248 0.346503 1.53744 0
M  V30 1171 C 119.178 -0.501193 2.28058 0
M  V30 1172 C 120.159 -1.10014 1.29734 0
M  V30 1173 O 121.344 -1.12097 1.58581 0
M  V30 1174 C 118.474 -1.65078 3.05559 0
M  V30 1175 C 117.428 -1.18003 4.11411 0
M  V30 1176 C 116.754 -2.41837 4.76884 0
M  V30 1177 C 118.054 -0.278394 5.21558 0
M  V30 1178 H 119.748 0.11875 2.99164 0
M  V30 1179 H 117.294 0.0585531 1.43881 0
M  V30 1180 H 119.247 -2.25028 3.56287 0
M  V30 1181 H 117.971 -2.29767 2.32109 0
M  V30 1182 H 116.63 -0.603331 3.61601 0
M  V30 1183 H 116.278 -3.0494 4.00026 0
M  V30 1184 H 115.978 -2.1102 5.48402 0
M  V30 1185 H 117.502 -3.02508 5.30397 0
M  V30 1186 H 118.916 -0.784823 5.67903 0
M  V30 1187 H 117.313 -0.0619707 6.00068 0
M  V30 1188 H 118.383 0.684677 4.80042 0
M  V30 1189 N 119.726 -1.57421 0.075193 0
M  V30 1190 C 121.137 -1.81021 -0.456964 0
M  V30 1191 C 121.488 -0.98936 -1.69429 0
M  V30 1192 O 120.613 -0.212865 -2.15351 0
M  V30 1193 C 121.208 -3.28329 -0.83581 0
M  V30 1194 C 119.767 -3.52764 -1.31281 0
M  V30 1195 C 118.914 -2.75676 -0.299648 0
M  V30 1196 H 121.865 -1.55822 0.300856 0
M  V30 1197 H 121.886 -3.40564 -1.69696 0
M  V30 1198 H 121.398 -3.88046 0.0649238 0
M  V30 1199 H 119.499 -2.98355 -2.23193 0
M  V30 1200 H 119.612 -4.61451 -1.28839 0
M  V30 1201 H 117.976 -2.42538 -0.777641 0
M  V30 1202 H 118.759 -3.38132 0.593417 0
M  V30 1203 N 121.204 0.198386 -1.56346 0
M  V30 1204 C 122.45 0.920648 -1.80698 0
M  V30 1205 C 122.783 1.83045 -0.648697 0
M  V30 1206 O 122.058 1.91308 0.350925 0
M  V30 1207 C 122.341 1.73971 -3.15287 0
M  V30 1208 C 122.194 0.85485 -4.41602 0
M  V30 1209 C 123.513 2.71296 -3.46535 0
M  V30 1210 H 120.632 0.333261 -0.657348 0
M  V30 1211 H 123.274 0.188198 -1.89066 0
M  V30 1212 H 121.424 2.36416 -3.08285 0
M  V30 1213 H 123.096 0.245362 -4.60647 0
M  V30 1214 H 121.339 0.161398 -4.335 0
M  V30 1215 H 122.01 1.46286 -5.32264 0
M  V30 1216 H 124.486 2.18983 -3.53816 0
M  V30 1217 H 123.362 3.2569 -4.41834 0
M  V30 1218 H 123.623 3.5018 -2.69864 0
M  V30 1219 N 122.682 1.50554 0.465978 0
M  V30 1220 C 124.098 1.38093 0.800154 0
M  V30 1221 C 124.298 0.440988 1.96615 0
M  V30 1222 O 123.354 -0.114499 2.5224 0
M  V30 1223 C 124.667 2.79565 1.10742 0
M  V30 1224 C 126.215 2.88516 1.21357 0
M  V30 1225 C 126.69 4.30833 1.55393 0
M  V30 1226 N 128.181 4.33807 1.62375 0
M  V30 1227 C 128.916 5.40927 1.90225 0
M  V30 1228 N 128.412 6.58247 2.16062 0
M  V30 1229 N 130.205 5.28376 1.9177 0
M  V30 1230 H 122.356 2.10237 -0.302366 0
M  V30 1231 H 124.619 0.945203 -0.0727746 0
M  V30 1232 H 124.325 3.50208 0.323661 0
M  V30 1233 H 124.199 3.17125 2.04234 0
M  V30 1234 H 126.586 2.1809 1.98799 0
M  V30 1235 H 126.667 2.54492 0.258321 0
M  V30 1236 H 126.311 5.01799 0.784889 0
M  V30 1237 H 126.241 4.62347 2.52076 0
M  V30 1238 H 128.732 3.49212 1.44427 0
M  V30 1239 H 129.045 7.3569 2.36601 0
M  V30 1240 H 127.39 6.61413 2.13444 0
M  V30 1241 H 130.581 4.35715 1.71085 0
M  V30 1242 H 130.754 6.11944 2.13139 0
M  V30 1243 N 124.16 -0.719506 1.40217 0
M  V30 1244 C 125.093 -1.84298 1.34571 0
M  V30 1245 C 126.071 -1.61149 0.216741 0
M  V30 1246 O 127.255 -1.84212 0.399756 0
M  V30 1247 C 124.382 -3.20568 1.09335 0
M  V30 1248 C 123.428 -3.62551 2.24631 0
M  V30 1249 S 124.261 -3.7012 3.87004 0
M  V30 1250 C 125.417 -5.09154 3.64024 0
M  V30 1251 H 125.65 -1.88807 2.2965 0
M  V30 1252 H 123.183 -0.885901 1.26456 0
M  V30 1253 H 125.141 -3.99246 0.954602 0
M  V30 1254 H 123.802 -3.13696 0.159164 0
M  V30 1255 H 122.995 -4.61483 2.02606 0
M  V30 1256 H 122.597 -2.91119 2.34789 0
M  V30 1257 H 124.889 -5.95955 3.22248 0
M  V30 1258 H 125.832 -5.36213 4.62473 0
M  V30 1259 H 126.24 -4.79562 2.97793 0
M  V30 1260 N 125.638 -1.25649 -0.95132 0
M  V30 1261 C 126.886 -1.10375 -1.69298 0
M  V30 1262 C 127.207 0.355339 -1.91735 0
M  V30 1263 O 126.477 1.25188 -1.50681 0
M  V30 1264 H 125.057 -0.405461 -0.627384 0
M  V30 1265 H 127.719 -1.57823 -1.14358 0
M  V30 1266 H 126.815 -1.61465 -2.67087 0
M  V30 1267 N 127.117 1.15442 -1.07289 0
M  V30 1268 C 128.05 2.19135 -0.636798 0
M  V30 1269 C 129.028 1.58884 0.34562 0
M  V30 1270 O 130.212 1.86805 0.252195 0
M  V30 1271 C 127.339 3.38638 0.0650014 0
M  V30 1272 C 126.385 4.17412 -0.87576 0
M  V30 1273 S 127.218 4.79882 -2.37642 0
M  V30 1274 C 128.374 6.02753 -1.6864 0
M  V30 1275 H 128.607 2.55787 -1.51526 0
M  V30 1276 H 126.14 1.26394 -0.886793 0
M  V30 1277 H 128.098 4.07873 0.463664 0
M  V30 1278 H 126.759 3.00331 0.919801 0
M  V30 1279 H 125.952 5.02909 -0.33143 0
M  V30 1280 H 125.554 3.53722 -1.21478 0
M  V30 1281 H 127.846 6.70113 -0.997753 0
M  V30 1282 H 128.789 6.61754 -2.51967 0
M  V30 1283 H 129.197 5.52355 -1.16465 0
M  V30 1284 N 128.595 0.856903 1.32268 0
M  V30 1285 C 129.825 0.47475 2.01071 0
M  V30 1286 C 130.233 -0.933746 1.64553 0
M  V30 1287 O 129.576 -1.62114 0.863989 0
M  V30 1288 C 129.638 0.536746 3.55471 0
M  V30 1289 C 129.302 1.90453 4.15423 0
M  V30 1290 C 130.299 2.87029 4.33486 0
M  V30 1291 C 127.984 2.20229 4.51447 0
M  V30 1292 C 129.978 4.11532 4.86744 0
M  V30 1293 C 127.665 3.44984 5.0441 0
M  V30 1294 C 128.663 4.40452 5.22007 0
M  V30 1295 O 128.351 5.62998 5.73837 0
M  V30 1296 H 128.083 0.184778 0.650256 0
M  V30 1297 H 130.637 1.15615 1.69771 0
M  V30 1298 H 128.867 -0.20152 3.86175 0
M  V30 1299 H 130.556 0.169875 4.05544 0
M  V30 1300 H 131.322 2.6533 4.05986 0
M  V30 1301 H 127.201 1.46705 4.37034 0
M  V30 1302 H 130.745 4.86056 5.00395 0
M  V30 1303 H 126.642 3.66532 5.31342 0
M  V30 1304 H 127.41 5.64987 5.92226 0
M  V30 1305 N 130.073 -1.45103 0.615059 0
M  V30 1306 C 131.484 -1.85654 0.197383 0
M  V30 1307 C 131.835 -1.51433 -1.24749 0
M  V30 1308 O 130.96 -0.944608 -1.94695 0
M  V30 1309 C 131.555 -3.36972 0.351448 0
M  V30 1310 C 130.114 -3.76398 -0.011593 0
M  V30 1311 C 129.261 -2.69024 0.672394 0
M  V30 1312 H 132.212 -1.35797 0.821263 0
M  V30 1313 H 132.233 -3.78239 -0.414227 0
M  V30 1314 H 131.745 -3.61847 1.40314 0
M  V30 1315 H 129.846 -3.5714 -1.06217 0
M  V30 1316 H 129.959 -4.77532 0.387265 0
M  V30 1317 H 128.323 -2.54465 0.109284 0
M  V30 1318 H 129.106 -2.96735 1.72636 0
M  V30 1319 N 131.551 -0.354651 -1.53558 0
M  V30 1320 C 132.799 0.237972 -2.00694 0
M  V30 1321 C 133.12 1.50173 -1.24391 0
M  V30 1322 O 132.39 1.92673 -0.354135 0
M  V30 1323 H 130.97 0.0909256 -0.741446 0
M  V30 1324 H 133.632 -0.478368 -1.88938 0
M  V30 1325 H 132.728 0.47264 -3.085 0
M  V30 1326 N 133.029 1.57378 -0.0835403 0
M  V30 1327 C 134.275 1.94217 0.583733 0
M  V30 1328 C 134.608 0.964653 1.68547 0
M  V30 1329 O 133.883 -0.00422258 1.945 0
M  V30 1330 C 134.166 3.41253 1.14972 0
M  V30 1331 C 134.019 4.49768 0.0538277 0
M  V30 1332 C 135.338 3.89352 2.05166 0
M  V30 1333 H 132.457 0.706233 0.210724 0
M  V30 1334 H 135.099 1.89392 -0.1519 0
M  V30 1335 H 133.249 3.45496 1.77665 0
M  V30 1336 H 134.921 4.57641 -0.579851 0
M  V30 1337 H 133.164 4.29432 -0.614068 0
M  V30 1338 H 133.835 5.49817 0.490452 0
M  V30 1339 H 136.311 3.87189 1.52393 0
M  V30 1340 H 135.187 4.92822 2.41698 0
M  V30 1341 H 135.448 3.27973 2.96456 0
M  V30 1342 N 134.507 -0.190092 1.56449 0
M  V30 1343 C 135.437 -1.23816 1.97969 0
M  V30 1344 C 136.418 -1.47201 0.852395 0
M  V30 1345 O 137.603 -1.58854 1.1171 0
M  V30 1346 C 134.733 -2.5813 2.3235 0
M  V30 1347 C 133.687 -2.49348 3.47864 0
M  V30 1348 C 133.013 -3.8798 3.67934 0
M  V30 1349 C 134.313 -2.01424 4.81898 0
M  V30 1350 H 136.007 -0.89311 2.85769 0
M  V30 1351 H 133.553 -0.428177 1.37487 0
M  V30 1352 H 135.506 -3.31637 2.59991 0
M  V30 1353 H 134.23 -2.94386 1.41438 0
M  V30 1354 H 132.889 -1.78297 3.20321 0
M  V30 1355 H 132.537 -4.21597 2.74344 0
M  V30 1356 H 132.237 -3.82978 4.45648 0
M  V30 1357 H 133.761 -4.63101 3.97957 0
M  V30 1358 H 135.175 -2.64693 5.08538 0
M  V30 1359 H 133.572 -2.07413 5.63116 0
M  V30 1360 H 134.642 -0.967677 4.75146 0
M  V30 1361 N 135.985 -1.50799 -0.457987 0
M  V30 1362 C 137.231 -1.62683 -1.21088 0
M  V30 1363 C 137.564 -0.332268 -1.91336 0
M  V30 1364 O 136.839 0.667043 -1.82704 0
M  V30 1365 C 137.122 -2.81615 -2.24422 0
M  V30 1366 C 136.975 -4.20989 -1.58392 0
M  V30 1367 C 138.294 -2.96085 -3.2561 0
M  V30 1368 H 135.413 -0.592087 -0.438864 0
M  V30 1369 H 138.055 -1.83225 -0.50286 0
M  V30 1370 H 136.205 -2.64231 -2.84806 0
M  V30 1371 H 137.877 -4.49994 -1.01504 0
M  V30 1372 H 136.12 -4.24641 -0.886704 0
M  V30 1373 H 136.791 -5.0016 -2.33547 0
M  V30 1374 H 139.267 -3.12042 -2.75262 0
M  V30 1375 H 138.143 -3.80902 -3.95228 0
M  V30 1376 H 138.404 -2.0726 -3.90507 0
M  V30 1377 N 137.463 0.71206 -1.40597 0
M  V30 1378 C 138.874 1.29135 -1.34837 0
M  V30 1379 C 139.225 1.96186 -0.0235395 0
M  V30 1380 O 138.35 1.97768 0.878444 0
M  V30 1381 C 138.945 2.34827 -2.44217 0
M  V30 1382 C 137.504 2.88371 -2.41907 0
M  V30 1383 C 136.651 1.62202 -2.24913 0
M  V30 1384 H 139.602 0.507944 -1.50352 0
M  V30 1385 H 139.623 3.15749 -2.12327 0
M  V30 1386 H 139.135 1.85996 -3.40627 0
M  V30 1387 H 137.236 3.41422 -1.49204 0
M  V30 1388 H 137.349 3.39925 -3.37621 0
M  V30 1389 H 135.713 1.874 -1.72492 0
M  V30 1390 H 136.496 1.15391 -3.23326 0
M  V30 1391 N 138.941 1.26152 0.944643 0
M  V30 1392 C 140.166 1.14363 1.7302 0
M  V30 1393 C 140.591 -0.29772 1.85729 0
M  V30 1394 O 139.949 -1.2157 1.34501 0
M  V30 1395 C 139.997 1.81378 3.11664 0
M  V30 1396 O 139.101 1.10022 3.97453 0
M  V30 1397 H 138.442 0.398694 0.53098 0
M  V30 1398 H 140.972 1.66906 1.18337 0
M  V30 1399 H 140.982 1.88064 3.62072 0
M  V30 1400 H 139.657 2.86237 3.0173 0
M  V30 1401 H 138.234 1.11287 3.55907 0
M  V30 1402 N 140.419 -1.14872 1.07899 0
M  V30 1403 C 141.644 -1.90202 0.826926 0
M  V30 1404 C 142.069 -1.77774 -0.614664 0
M  V30 1405 O 141.427 -1.11431 -1.43013 0
M  V30 1406 C 141.475 -3.38352 1.24702 0
M  V30 1407 O 140.579 -4.10497 0.39575 0
M  V30 1408 H 139.92 -0.591968 0.300782 0
M  V30 1409 H 142.45 -1.45437 1.43907 0
M  V30 1410 H 142.46 -3.89156 1.22563 0
M  V30 1411 H 141.135 -3.46715 2.29698 0
M  V30 1412 H 139.712 -3.69796 0.480117 0
M  V30 1413 N 141.898 -0.863906 -1.31812 0
M  V30 1414 C 143.314 -0.555004 -1.49639 0
M  V30 1415 C 143.514 0.912266 -1.79666 0
M  V30 1416 O 142.57 1.69479 -1.87171 0
M  V30 1417 C 143.883 -1.44998 -2.63431 0
M  V30 1418 C 145.431 -1.45138 -2.77316 0
M  V30 1419 C 145.906 -2.33179 -3.94197 0
M  V30 1420 N 147.397 -2.31025 -4.01474 0
M  V30 1421 C 148.132 -2.95871 -4.9117 0
M  V30 1422 N 147.628 -3.69863 -5.8581 0
M  V30 1423 N 149.421 -2.85211 -4.84367 0
M  V30 1424 H 141.572 -1.81339 -1.10589 0
M  V30 1425 H 143.835 -0.77505 -0.545895 0
M  V30 1426 H 143.541 -2.49377 -2.48 0
M  V30 1427 H 143.415 -1.14409 -3.59431 0
M  V30 1428 H 145.802 -0.415201 -2.92164 0
M  V30 1429 H 145.883 -1.79747 -1.82001 0
M  V30 1430 H 145.527 -3.3687 -3.80107 0
M  V30 1431 H 145.457 -1.95897 -4.88807 0
M  V30 1432 H 147.948 -1.77238 -3.33759 0
M  V30 1433 H 148.261 -4.16486 -6.50968 0
M  V30 1434 H 146.606 -3.73971 -5.85808 0
M  V30 1435 H 149.797 -2.26948 -4.09405 0
M  V30 1436 H 149.97 -3.36027 -5.54066 0
M  V30 1437 N 143.376 1.44774 -0.622745 0
M  V30 1438 C 144.624 2.01721 -0.123655 0
M  V30 1439 C 144.945 1.49172 1.25589 0
M  V30 1440 O 144.215 0.691974 1.83272 0
M  V30 1441 H 142.795 0.745777 -0.0427225 0
M  V30 1442 H 145.457 1.77382 -0.807559 0
M  V30 1443 H 144.553 3.11984 -0.0849534 0
M  V30 1444 N 144.854 0.36279 1.53368 0
M  V30 1445 C 146.102 -0.227326 2.00817 0
M  V30 1446 C 146.423 -1.49511 1.25186 0
M  V30 1447 O 145.693 -1.92482 0.364348 0
M  V30 1448 H 144.273 -0.0869923 0.741917 0
M  V30 1449 H 146.935 0.488381 1.88682 0
M  V30 1450 H 146.031 -0.456273 3.08747 0
M  V30 1451 N 146.332 -1.57332 0.0918853 0
M  V30 1452 C 147.262 -2.16872 -0.865371 0
M  V30 1453 C 148.243 -1.10118 -1.29646 0
M  V30 1454 O 149.428 -1.38242 -1.36392 0
M  V30 1455 C 146.558 -2.74649 -2.12569 0
M  V30 1456 C 145.512 -3.86747 -1.83333 0
M  V30 1457 C 144.838 -4.31212 -3.16166 0
M  V30 1458 C 146.138 -5.10089 -1.1228 0
M  V30 1459 H 147.832 -2.97114 -0.369307 0
M  V30 1460 H 145.378 -1.42918 -0.176194 0
M  V30 1461 H 147.331 -3.14952 -2.7997 0
M  V30 1462 H 146.055 -1.91657 -2.64452 0
M  V30 1463 H 144.714 -3.46978 -1.18331 0
M  V30 1464 H 144.362 -3.45115 -3.6593 0
M  V30 1465 H 144.062 -5.06788 -2.97388 0
M  V30 1466 H 145.586 -4.74146 -3.84731 0
M  V30 1467 H 147 -5.47582 -1.69785 0
M  V30 1468 H 145.397 -5.91073 -1.03693 0
M  V30 1469 H 146.467 -4.84786 -0.105041 0
M  V30 1470 N 147.81 0.181792 -1.56548 0
M  V30 1471 C 149.221 0.745244 -1.71181 0
M  V30 1472 C 149.572 1.83262 -0.70068 0
M  V30 1473 O 148.697 2.15946 0.140154 0
M  V30 1474 C 149.292 1.35859 -3.10367 0
M  V30 1475 C 147.851 1.86898 -3.2672 0
M  V30 1476 C 146.998 0.743942 -2.67134 0
M  V30 1477 H 149.949 -0.0434661 -1.5864 0
M  V30 1478 H 149.97 2.22817 -3.08436 0
M  V30 1479 H 149.482 0.566948 -3.83937 0
M  V30 1480 H 147.583 2.68738 -2.5809 0
M  V30 1481 H 147.696 2.02162 -4.34359 0
M  V30 1482 H 146.06 1.16169 -2.26665 0
M  V30 1483 H 146.843 -0.035676 -3.43281 0
M  V30 1484 N 149.288 1.51039 0.449983 0
M  V30 1485 C 150.218 1.74379 1.55288 0
M  V30 1486 C 151.199 0.593236 1.5942 0
M  V30 1487 O 152.384 0.834625 1.7535 0
M  V30 1488 C 149.514 1.85728 2.93466 0
M  V30 1489 C 148.468 3.01078 3.04197 0
M  V30 1490 C 147.794 2.97595 4.44231 0
M  V30 1491 C 149.094 4.41254 2.7945 0
M  V30 1492 H 150.788 2.66725 1.36008 0
M  V30 1493 H 148.334 1.2835 0.652864 0
M  V30 1494 H 150.287 2.0064 3.70569 0
M  V30 1495 H 149.011 0.900207 3.13949 0
M  V30 1496 H 147.67 2.85851 2.29531 0
M  V30 1497 H 147.318 1.99691 4.61663 0
M  V30 1498 H 147.018 3.75046 4.52343 0
M  V30 1499 H 148.542 3.14583 5.23326 0
M  V30 1500 H 149.956 4.56897 3.46292 0
M  V30 1501 H 148.353 5.20315 2.98985 0
M  V30 1502 H 149.423 4.52164 1.75144 0
M  V30 1503 N 150.766 -0.704594 1.40972 0
M  V30 1504 C 151.676 -1.84856 1.44448 0
M  V30 1505 C 152.692 -1.70726 0.335961 0
M  V30 1506 O 153.868 -1.92799 0.582276 0
M  V30 1507 C 150.933 -3.20758 1.31587 0
M  V30 1508 C 149.994 -3.47063 2.52677 0
M  V30 1509 C 149.227 -4.76481 2.4042 0
M  V30 1510 O 149.45 -5.52341 1.42391 0
M  V30 1511 O 148.384 -5.03367 3.30007 0
M  V30 1512 H 152.21 -1.8488 2.40942 0
M  V30 1513 H 149.795 -0.85647 1.22413 0
M  V30 1514 H 151.677 -4.01913 1.26665 0
M  V30 1515 H 150.352 -3.21438 0.382049 0
M  V30 1516 H 149.259 -2.65873 2.63177 0
M  V30 1517 H 150.592 -3.5119 3.44858 0
M  V30 1518 N 152.244 -1.26651 -0.937939 0
M  V30 1519 C 153.154 -1.10276 -2.07066 0
M  V30 1520 C 154.17 -0.0354197 -1.73964 0
M  V30 1521 O 155.346 -0.239816 -1.99967 0
M  V30 1522 C 152.411 -0.740887 -3.38691 0
M  V30 1523 C 151.472 -1.88799 -3.85556 0
M  V30 1524 C 150.705 -1.54329 -5.10899 0
M  V30 1525 O 150.928 -0.446494 -5.6865 0
M  V30 1526 O 149.862 -2.37911 -5.52885 0
M  V30 1527 H 153.688 -2.05309 -2.23789 0
M  V30 1528 H 151.273 -1.05743 -1.0554 0
M  V30 1529 H 153.155 -0.55195 -4.1777 0
M  V30 1530 H 151.83 0.180022 -3.23199 0
M  V30 1531 H 150.737 -2.13191 -3.07409 0
M  V30 1532 H 152.07 -2.78874 -4.05574 0
M  V30 1533 N 153.722 1.14298 -1.08507 0
M  V30 1534 C 154.968 1.85633 -0.816581 0
M  V30 1535 C 155.301 1.82784 0.656021 0
M  V30 1536 O 154.576 1.25926 1.48233 0
M  V30 1537 C 154.859 3.34223 -1.34041 0
M  V30 1538 C 154.712 3.45639 -2.87843 0
M  V30 1539 C 156.031 4.29356 -0.9665 0
M  V30 1540 H 153.15 0.67402 -0.298104 0
M  V30 1541 H 155.792 1.34214 -1.34487 0
M  V30 1542 H 153.942 3.78144 -0.89104 0
M  V30 1543 H 155.614 3.10498 -3.41158 0
M  V30 1544 H 153.857 2.86817 -3.25451 0
M  V30 1545 H 154.528 4.50089 -3.19569 0
M  V30 1546 H 157.004 3.93457 -1.35391 0
M  V30 1547 H 155.88 5.3178 -1.3602 0
M  V30 1548 H 156.141 4.41919 0.126362 0
M  V30 1549 N 155.201 0.870884 1.31352 0
M  V30 1550 C 156.429 0.49677 2.00848 0
M  V30 1551 C 156.844 -0.910998 1.65367 0
M  V30 1552 O 156.201 -1.59696 0.883374 0
M  V30 1553 C 156.252 0.645308 3.55694 0
M  V30 1554 O 155.973 1.99764 3.89905 0
M  V30 1555 C 157.474 0.272326 4.42463 0
M  V30 1556 H 154.694 0.193462 0.642506 0
M  V30 1557 H 157.238 1.1723 1.67563 0
M  V30 1558 H 155.393 0.0173176 3.87396 0
M  V30 1559 H 155.807 2.00607 4.84621 0
M  V30 1560 H 157.281 0.427208 5.50344 0
M  V30 1561 H 157.758 -0.788587 4.32062 0
M  V30 1562 H 158.364 0.876054 4.1618 0
M  V30 1563 N 156.679 -1.44442 0.630414 0
M  V30 1564 C 157.925 -2.02351 0.134816 0
M  V30 1565 C 158.258 -1.4947 -1.23986 0
M  V30 1566 O 157.533 -0.678475 -1.82283 0
M  V30 1567 C 157.816 -3.59898 0.120707 0
M  V30 1568 C 157.669 -4.23063 1.52767 0
M  V30 1569 C 158.988 -4.36585 -0.555127 0
M  V30 1570 H 156.107 -0.73527 0.0504646 0
M  V30 1571 H 158.749 -1.72022 0.806751 0
M  V30 1572 H 156.899 -3.85868 -0.451477 0
M  V30 1573 H 158.571 -4.08202 2.14869 0
M  V30 1574 H 156.814 -3.80586 2.08175 0
M  V30 1575 H 157.485 -5.32071 1.46984 0
M  V30 1576 H 159.961 -4.16044 -0.0685429 0
M  V30 1577 H 158.837 -5.46294 -0.534185 0
M  V30 1578 H 159.098 -4.11138 -1.62535 0
M  V30 1579 N 158.157 -0.370918 -1.53173 0
M  V30 1580 C 159.12 0.460778 -2.24521 0
M  V30 1581 C 160.12 1.00536 -1.25496 0
M  V30 1582 O 161.31 0.890266 -1.49733 0
M  V30 1583 C 158.442 1.64457 -2.98608 0
M  V30 1584 H 159.635 -0.163613 -2.99453 0
M  V30 1585 H 157.188 -0.122699 -1.55818 0
M  V30 1586 H 157.923 2.30691 -2.2793 0
M  V30 1587 H 157.708 1.26099 -3.7127 0
M  V30 1588 H 159.198 2.23384 -3.5283 0
M  V30 1589 N 159.635 1.57281 -0.100228 0
M  V30 1590 C 160.545 2.17833 0.870965 0
M  V30 1591 C 161.561 1.14921 1.30649 0
M  V30 1592 O 162.737 1.47313 1.37335 0
M  V30 1593 C 159.802 2.75085 2.1102 0
M  V30 1594 C 158.863 3.9297 1.72838 0
M  V30 1595 C 158.096 4.47482 2.90854 0
M  V30 1596 O 158.319 4.00922 4.05731 0
M  V30 1597 O 157.253 5.38433 2.69023 0
M  V30 1598 H 161.079 3.0124 0.38575 0
M  V30 1599 H 158.664 1.48881 0.124397 0
M  V30 1600 H 160.546 3.11656 2.83634 0
M  V30 1601 H 159.221 1.94721 2.58584 0
M  V30 1602 H 158.128 3.61201 0.973883 0
M  V30 1603 H 159.461 4.74713 1.30033 0
M  V30 1604 N 161.113 -0.173488 1.56642 0
M  V30 1605 C 162.359 -0.891784 1.8214 0
M  V30 1606 C 162.692 -1.8199 0.677736 0
M  V30 1607 O 161.967 -1.91842 -0.320446 0
M  V30 1608 C 162.25 -1.68933 3.18015 0
M  V30 1609 C 162.103 -0.784487 4.42906 0
M  V30 1610 C 163.422 -2.65748 3.50808 0
M  V30 1611 H 160.541 -0.322761 0.662567 0
M  V30 1612 H 163.183 -0.158095 1.89341 0
M  V30 1613 H 161.333 -2.31482 3.12007 0
M  V30 1614 H 163.005 -0.172046 4.60979 0
M  V30 1615 H 161.248 -0.0924117 4.33702 0
M  V30 1616 H 161.919 -1.37799 5.34524 0
M  V30 1617 H 164.395 -2.13327 3.57255 0
M  V30 1618 H 163.271 -3.18619 4.4696 0
M  V30 1619 H 163.532 -3.45842 2.75401 0
M  V30 1620 N 162.591 -1.51276 -0.441967 0
M  V30 1621 C 163.521 -1.752 -1.54361 0
M  V30 1622 C 164.502 -0.601682 -1.59103 0
M  V30 1623 O 165.687 -0.843913 -1.74905 0
M  V30 1624 C 162.817 -1.87282 -2.92477 0
M  V30 1625 C 161.771 -3.02687 -3.02596 0
M  V30 1626 C 161.097 -2.99947 -4.42647 0
M  V30 1627 C 162.397 -4.4273 -2.77106 0
M  V30 1628 H 164.091 -2.67442 -1.34592 0
M  V30 1629 H 161.637 -1.28694 -0.646048 0
M  V30 1630 H 163.59 -2.02602 -3.695 0
M  V30 1631 H 162.314 -0.916844 -3.13467 0
M  V30 1632 H 160.973 -2.87065 -2.28012 0
M  V30 1633 H 160.621 -2.02136 -4.60597 0
M  V30 1634 H 160.321 -3.77439 -4.50348 0
M  V30 1635 H 161.845 -3.17354 -5.2165 0
M  V30 1636 H 163.259 -4.58727 -3.43864 0
M  V30 1637 H 161.656 -5.21893 -2.96222 0
M  V30 1638 H 162.726 -4.53087 -1.72744 0
M  V30 1639 N 164.069 0.697108 -1.41344 0
M  V30 1640 C 165.032 1.79281 -1.42797 0
M  V30 1641 C 166.032 1.57607 -0.318837 0
M  V30 1642 O 167.222 1.64309 -0.578642 0
M  V30 1643 C 164.354 3.17632 -1.23785 0
M  V30 1644 H 165.547 1.79385 -2.40335 0
M  V30 1645 H 163.1 0.904582 -1.27464 0
M  V30 1646 H 163.835 3.23167 -0.270814 0
M  V30 1647 H 163.62 3.34765 -2.04144 0
M  V30 1648 H 165.11 3.97617 -1.27633 0
M  V30 1649 N 165.547 1.27147 0.931209 0
M  V30 1650 C 166.51 1.09615 2.01289 0
M  V30 1651 C 167.51 0.0412581 1.60747 0
M  V30 1652 O 168.7 0.285545 1.71844 0
M  V30 1653 C 165.832 0.669447 3.34262 0
M  V30 1654 H 167.025 2.05662 2.18273 0
M  V30 1655 H 164.578 1.09885 1.11153 0
M  V30 1656 H 165.313 -0.292572 3.22978 0
M  V30 1657 H 165.098 1.43127 3.65044 0
M  V30 1658 H 166.588 0.568921 4.13706 0
M  V30 1659 N 167.025 -1.13721 1.09112 0
M  V30 1660 C 168.441 -1.36914 0.820174 0
M  V30 1661 C 168.641 -1.93356 -0.567079 0
M  V30 1662 O 167.697 -2.15093 -1.32255 0
M  V30 1663 C 169.01 -2.3235 1.90877 0
M  V30 1664 C 170.558 -2.45973 1.93562 0
M  V30 1665 C 171.033 -3.44714 3.01556 0
M  V30 1666 N 172.524 -3.52263 3.00775 0
M  V30 1667 C 173.259 -4.28536 3.80978 0
M  V30 1668 N 172.755 -5.07991 4.71081 0
M  V30 1669 N 174.548 -4.23804 3.69251 0
M  V30 1670 H 166.699 -0.754348 1.98553 0
M  V30 1671 H 168.962 -0.3944 0.862063 0
M  V30 1672 H 168.668 -1.98027 2.90651 0
M  V30 1673 H 168.542 -3.32332 1.78424 0
M  V30 1674 H 170.929 -2.79584 0.944286 0
M  V30 1675 H 171.01 -1.45926 2.10093 0
M  V30 1676 H 170.654 -3.11835 4.00901 0
M  V30 1677 H 170.584 -4.44558 2.82269 0
M  V30 1678 H 173.075 -2.95567 2.35475 0
M  V30 1679 H 173.388 -5.63487 5.28869 0
M  V30 1680 H 171.733 -5.07235 4.75119 0
M  V30 1681 H 174.924 -3.60806 2.98222 0
M  V30 1682 H 175.097 -4.82995 4.31995 0
M  V30 1683 N 168.503 -0.877838 -1.30888 0
M  V30 1684 C 169.751 -0.491723 -1.96027 0
M  V30 1685 C 170.072 0.960827 -1.69685 0
M  V30 1686 O 169.342 1.67462 -1.01654 0
M  V30 1687 H 167.922 -0.17885 -0.725273 0
M  V30 1688 H 170.584 -1.11935 -1.59551 0
M  V30 1689 H 169.68 -0.656016 -3.05128 0
M  V30 1690 N 169.982 1.44106 -0.638065 0
M  V30 1691 C 171.212 2.06037 -0.152394 0
M  V30 1692 C 171.62 1.47808 1.18108 0
M  V30 1693 O 170.963 0.598092 1.73691 0
M  V30 1694 C 171.025 3.59488 0.0293714 0
M  V30 1695 C 170.689 4.4022 -1.22702 0
M  V30 1696 C 171.686 4.73256 -2.15232 0
M  V30 1697 C 169.371 4.8048 -1.46437 0
M  V30 1698 C 171.365 5.45444 -3.29802 0
M  V30 1699 C 169.052 5.52417 -2.61303 0
M  V30 1700 C 170.05 5.84819 -3.52811 0
M  V30 1701 O 169.738 6.55289 -4.65673 0
M  V30 1702 H 169.47 0.671233 -0.0801401 0
M  V30 1703 H 172.024 1.85851 -0.874563 0
M  V30 1704 H 170.254 3.78191 0.806758 0
M  V30 1705 H 171.943 4.03164 0.470475 0
M  V30 1706 H 172.709 4.42684 -1.98131 0
M  V30 1707 H 168.588 4.54676 -0.760977 0
M  V30 1708 H 172.132 5.70653 -4.01249 0
M  V30 1709 H 168.029 5.82404 -2.78344 0
M  V30 1710 H 168.797 6.73762 -4.64744 0
M  V30 1711 N 171.46 0.379036 1.52974 0
M  V30 1712 C 172.39 -0.452706 2.29069 0
M  V30 1713 C 173.371 -1.07237 1.32039 0
M  V30 1714 O 174.556 -1.08708 1.60923 0
M  V30 1715 C 171.686 -1.5856 3.08992 0
M  V30 1716 C 170.64 -1.0925 4.13822 0
M  V30 1717 C 169.966 -2.31668 4.81907 0
M  V30 1718 C 171.266 -0.167702 5.22031 0
M  V30 1719 H 172.96 0.182181 2.98845 0
M  V30 1720 H 170.506 0.0890592 1.43724 0
M  V30 1721 H 172.459 -2.1742 3.6098 0
M  V30 1722 H 171.183 -2.24792 2.36931 0
M  V30 1723 H 169.842 -0.526494 3.628 0
M  V30 1724 H 169.49 -2.96386 4.06404 0
M  V30 1725 H 169.19 -1.9934 5.52754 0
M  V30 1726 H 170.714 -2.91189 5.36695 0
M  V30 1727 H 172.128 -0.664186 5.6944 0
M  V30 1728 H 170.525 0.0653265 6.00064 0
M  V30 1729 H 171.595 0.786347 4.78482 0
M  V30 1730 N 172.938 -1.57226 0.108567 0
M  V30 1731 C 174.166 -1.99179 -0.559954 0
M  V30 1732 C 174.581 -0.988022 -1.60884 0
M  V30 1733 O 173.938 0.0205512 -1.82488 0
M  V30 1734 C 173.989 -3.41159 -1.19552 0
M  V30 1735 O 173.71 -4.37694 -0.188577 0
M  V30 1736 C 175.211 -3.98188 -1.94837 0
M  V30 1737 H 172.431 -0.654228 -0.149088 0
M  V30 1738 H 174.975 -2.03598 0.19183 0
M  V30 1739 H 173.13 -3.37711 -1.89815 0
M  V30 1740 H 173.544 -5.20469 -0.649014 0
M  V30 1741 H 175.018 -4.99644 -2.34648 0
M  V30 1742 H 175.495 -3.3675 -2.81951 0
M  V30 1743 H 176.101 -4.0515 -1.2936 0
M  V30 1744 N 174.416 0.165178 -1.56732 0
M  V30 1745 C 175.664 0.879068 -1.8198 0
M  V30 1746 C 175.985 1.82514 -0.686561 0
M  V30 1747 O 175.255 1.93694 0.293146 0
M  V30 1748 H 173.835 0.327608 -0.671329 0
M  V30 1749 H 176.497 0.163526 -1.94213 0
M  V30 1750 H 175.593 1.45228 -2.76252 0
M  V30 1751 N 175.894 1.51508 0.433938 0
M  V30 1752 C 176.827 1.67756 1.54704 0
M  V30 1753 C 177.805 0.525127 1.53887 0
M  V30 1754 O 178.989 0.749393 1.72963 0
M  V30 1755 C 176.116 1.69424 2.9328 0
M  V30 1756 C 175.162 2.90673 3.12108 0
M  V30 1757 S 175.995 4.51431 2.88046 0
M  V30 1758 C 177.151 4.55849 4.28897 0
M  V30 1759 H 177.384 2.61904 1.40689 0
M  V30 1760 H 174.917 1.41235 0.62386 0
M  V30 1761 H 176.875 1.7107 3.73156 0
M  V30 1762 H 175.536 0.764464 3.04655 0
M  V30 1763 H 174.729 2.88251 4.13434 0
M  V30 1764 H 174.331 2.86786 2.40062 0
M  V30 1765 H 176.623 4.31699 5.22152 0
M  V30 1766 H 177.566 5.57676 4.36351 0
M  V30 1767 H 177.974 3.85137 4.12711 0
M  V30 1768 N 177.372 -0.689602 1.41712 0
M  V30 1769 C 178.335 -1.78521 1.43746 0
M  V30 1770 C 179.335 -1.57436 0.327191 0
M  V30 1771 O 180.525 -1.64 0.587348 0
M  V30 1772 C 177.657 -3.16971 1.25467 0
M  V30 1773 H 178.85 -1.78108 2.41283 0
M  V30 1774 H 176.403 -0.89781 1.27942 0
M  V30 1775 H 177.138 -3.23019 0.287948 0
M  V30 1776 H 176.923 -3.33678 2.05917 0
M  V30 1777 H 178.413 -3.96935 1.2974 0
M  V30 1778 N 178.85 -1.27639 -0.924453 0
M  V30 1779 C 180.098 -1.13941 -1.66918 0
M  V30 1780 C 180.419 0.314589 -1.92446 0
M  V30 1781 O 179.689 1.21964 -1.53303 0
M  V30 1782 H 178.269 -0.418678 -0.618642 0
M  V30 1783 H 180.931 -1.60213 -1.10985 0
M  V30 1784 H 180.027 -1.67094 -2.63602 0
M  V30 1785 N 180.328 1.1314 -1.09713 0
M  V30 1786 C 181.275 2.18642 -0.739196 0
M  V30 1787 C 182.245 1.63706 0.280978 0
M  V30 1788 O 183.43 1.90111 0.161946 0
M  V30 1789 C 180.57 3.44685 -0.169102 0
M  V30 1790 C 179.683 4.13711 -1.24367 0
M  V30 1791 C 178.818 5.27379 -0.636019 0
M  V30 1792 C 177.857 5.88259 -1.69169 0
M  V30 1793 N 176.994 6.93352 -1.10485 0
M  V30 1794 H 181.834 2.48607 -1.64312 0
M  V30 1795 H 179.371 1.22066 -0.820875 0
M  V30 1796 H 181.329 4.16815 0.179256 0
M  V30 1797 H 179.959 3.15161 0.698079 0
M  V30 1798 H 179.011 3.39835 -1.70927 0
M  V30 1799 H 180.323 4.55037 -2.04311 0
M  V30 1800 H 179.477 6.06238 -0.236677 0
M  V30 1801 H 178.216 4.8731 0.194928 0
M  V30 1802 H 177.221 5.08092 -2.10055 0
M  V30 1803 H 178.446 6.30399 -2.52536 0
M  V30 1804 H 176.392 6.55335 -0.295234 0
M  V30 1805 H 176.309 7.33236 -1.84121 0
M  V30 1806 H 177.577 7.76057 -0.73181 0
M  V30 1807 N 181.806 0.884767 1.30421 0
M  V30 1808 C 183.052 0.513218 1.96819 0
M  V30 1809 C 183.407 -0.927347 1.68577 0
M  V30 1810 O 182.7 -1.64644 0.979941 0
M  V30 1811 C 182.894 0.724318 3.49983 0
M  V30 1812 C 182.723 2.18385 3.93113 0
M  V30 1813 C 181.493 2.82839 4.18725 0
M  V30 1814 C 183.691 3.15763 4.05953 0
M  V30 1815 N 181.673 4.1939 4.48314 0
M  V30 1816 C 183.044 4.37387 4.39423 0
M  V30 1817 C 185.099 3.11555 3.88379 0
M  V30 1818 C 183.802 5.55343 4.5715 0
M  V30 1819 C 185.828 4.28782 4.07308 0
M  V30 1820 C 185.19 5.49172 4.41123 0
M  V30 1821 H 181.289 0.237123 0.745182 0
M  V30 1822 H 183.873 1.14246 1.57658 0
M  V30 1823 H 182.044 0.124565 3.882 0
M  V30 1824 H 183.776 0.31969 4.03435 0
M  V30 1825 H 180.531 2.33708 4.11919 0
M  V30 1826 H 180.955 4.89911 4.67243 0
M  V30 1827 H 185.597 2.19576 3.61312 0
M  V30 1828 H 183.315 6.47826 4.8306 0
M  V30 1829 H 186.901 4.26995 3.95179 0
M  V30 1830 H 185.781 6.38371 4.55469 0
M  V30 1831 N 183.284 -1.43765 0.645699 0
M  V30 1832 C 184.234 -2.27884 -0.0726442 0
M  V30 1833 C 185.218 -1.39483 -0.802086 0
M  V30 1834 O 186.41 -1.63174 -0.685791 0
M  V30 1835 C 183.539 -3.27055 -1.04356 0
M  V30 1836 C 182.625 -4.22944 -0.312985 0
M  V30 1837 N 183.016 -5.01391 0.666386 0
M  V30 1838 C 181.314 -4.42528 -0.55546 0
M  V30 1839 C 182.015 -5.71217 1.09935 0
M  V30 1840 N 180.991 -5.41856 0.435137 0
M  V30 1841 H 184.793 -2.85949 0.678988 0
M  V30 1842 H 182.307 -1.55378 0.472368 0
M  V30 1843 H 184.304 -3.86089 -1.57292 0
M  V30 1844 H 182.964 -2.70551 -1.79534 0
M  V30 1845 H 183.975 -5.07252 1.04481 0
M  V30 1846 H 180.652 -3.97104 -1.28899 0
M  V30 1847 H 182.042 -6.44202 1.90929 0
M  V30 1848 N 184.763 -0.387143 -1.52771 0
M  V30 1849 C 185.693 0.440551 -2.29306 0
M  V30 1850 C 186.674 1.06535 -1.32606 0
M  V30 1851 O 187.859 1.07853 -1.61497 0
M  V30 1852 C 184.989 1.56919 -3.09829 0
M  V30 1853 C 183.943 1.07054 -4.14395 0
M  V30 1854 C 183.269 2.29109 -4.83129 0
M  V30 1855 C 184.569 0.140015 -5.22112 0
M  V30 1856 H 186.263 -0.198026 -2.98744 0
M  V30 1857 H 183.809 -0.09668 -1.43675 0
M  V30 1858 H 185.762 2.15503 -3.62128 0
M  V30 1859 H 184.486 2.23532 -2.3812 0
M  V30 1860 H 183.145 0.507247 -3.63074 0
M  V30 1861 H 182.793 2.94227 -4.0797 0
M  V30 1862 H 182.493 1.96406 -5.53804 0
M  V30 1863 H 184.017 2.88339 -5.38231 0
M  V30 1864 H 185.431 0.633978 -5.69784 0
M  V30 1865 H 183.828 -0.0971485 -6.00021 0
M  V30 1866 H 184.898 -0.811711 -4.78058 0
M  V30 1867 N 186.241 1.57166 -0.116904 0
M  V30 1868 C 187.489 1.94737 0.540533 0
M  V30 1869 C 187.81 1.00096 1.67349 0
M  V30 1870 O 187.08 0.0568854 1.95817 0
M  V30 1871 H 185.66 0.718981 0.202669 0
M  V30 1872 H 188.322 1.94017 -0.185353 0
M  V30 1873 H 187.418 2.97719 0.936483 0
M  V30 1874 N 187.719 -0.156864 1.56817 0
M  V30 1875 C 188.965 -0.872416 1.83076 0
M  V30 1876 C 189.298 -1.81261 0.697001 0
M  V30 1877 O 188.573 -1.92171 -0.30008 0
M  V30 1878 C 188.856 -1.65551 3.19789 0
M  V30 1879 C 188.709 -0.737467 4.43713 0
M  V30 1880 C 190.028 -2.62012 3.53606 0
M  V30 1881 H 187.147 -0.315715 0.665953 0
M  V30 1882 H 189.789 -0.138004 1.89498 0
M  V30 1883 H 187.939 -2.28159 3.14445 0
M  V30 1884 H 189.611 -0.123143 4.61136 0
M  V30 1885 H 187.854 -0.0464067 4.33775 0
M  V30 1886 H 188.525 -1.32122 5.35955 0
M  V30 1887 H 191.001 -2.09525 3.59497 0
M  V30 1888 H 189.877 -3.13861 4.50314 0
M  V30 1889 H 190.138 -3.42902 2.79053 0
M  V30 1890 N 189.197 -1.51736 -0.425897 0
M  V30 1891 C 190.445 -1.64644 -1.17204 0
M  V30 1892 C 190.766 -0.370486 -1.91448 0
M  V30 1893 O 190.036 0.614088 -1.86026 0
M  V30 1894 H 188.616 -0.606819 -0.435638 0
M  V30 1895 H 191.278 -1.88713 -0.487177 0
M  V30 1896 H 190.374 -2.47958 -1.89534 0
M  V30 1897 N 190.675 0.682077 -1.42076 0
M  V30 1898 C 192.086 1.26246 -1.37546 0
M  V30 1899 C 192.437 1.96092 -0.0651481 0
M  V30 1900 O 191.562 1.99587 0.836297 0
M  V30 1901 C 192.157 2.29594 -2.49143 0
M  V30 1902 C 190.716 2.83175 -2.47969 0
M  V30 1903 C 189.863 1.57395 -2.28303 0
M  V30 1904 H 192.814 0.475937 -1.51395 0
M  V30 1905 H 192.835 3.11175 -2.18976 0
M  V30 1906 H 192.347 1.78729 -3.44496 0
M  V30 1907 H 190.448 3.3818 -1.56413 0
M  V30 1908 H 190.561 3.32687 -3.44755 0
M  V30 1909 H 188.925 1.83699 -1.76428 0
M  V30 1910 H 189.708 1.08507 -3.25701 0
M  V30 1911 N 192.153 1.28127 0.917671 0
M  V30 1912 C 193.063 1.13556 2.05286 0
M  V30 1913 C 194.079 0.0630914 1.73886 0
M  V30 1914 O 195.255 0.271598 1.9956 0
M  V30 1915 C 192.32 0.794676 3.3747 0
M  V30 1916 C 191.381 1.94909 3.82504 0
M  V30 1917 C 190.614 1.62437 5.0838 0
M  V30 1918 O 190.837 0.536905 5.67867 0
M  V30 1919 O 189.771 2.46677 5.4903 0
M  V30 1920 H 193.597 2.08844 2.20495 0
M  V30 1921 H 191.182 1.07409 1.03845 0
M  V30 1922 H 193.064 0.618344 4.16839 0
M  V30 1923 H 191.739 -0.128581 3.23445 0
M  V30 1924 H 190.646 2.18055 3.03978 0
M  V30 1925 H 191.979 2.85291 4.01086 0
M  V30 1926 N 193.631 -1.12557 1.10312 0
M  V30 1927 C 194.879 -1.83675 0.843091 0
M  V30 1928 C 195.2 -1.84435 -0.633131 0
M  V30 1929 O 194.47 -1.30657 -1.45964 0
M  V30 1930 H 193.05 -0.680138 0.308904 0
M  V30 1931 H 195.712 -1.36301 1.39313 0
M  V30 1932 H 194.808 -2.87908 1.2048 0
M  V30 1933 N 195.109 -0.891671 -1.2995 0
M  V30 1934 C 196.072 -0.36828 -2.26222 0
M  V30 1935 C 197.072 0.493014 -1.53056 0
M  V30 1936 O 198.262 0.299213 -1.71611 0
M  V30 1937 C 195.394 0.47442 -3.37583 0
M  V30 1938 H 196.587 -1.21844 -2.74033 0
M  V30 1939 H 194.14 -0.669107 -1.41254 0
M  V30 1940 H 194.875 1.34489 -2.95099 0
M  V30 1941 H 194.66 -0.142615 -3.91841 0
M  V30 1942 H 196.15 0.83218 -4.09224 0
M  V30 1943 N 196.587 1.43421 -0.653314 0
M  V30 1944 C 197.834 2.01812 -0.166745 0
M  V30 1945 C 198.162 1.51535 1.21931 0
M  V30 1946 O 197.417 0.698975 1.82792 0
M  V30 1947 C 197.716 3.57176 -0.126623 0
M  V30 1948 C 197.382 4.26798 -1.45444 0
M  V30 1949 C 196.044 4.45534 -1.81805 0
M  V30 1950 C 198.396 4.66225 -2.32989 0
M  V30 1951 C 195.724 5.00961 -3.05377 0
M  V30 1952 C 198.076 5.23021 -3.55853 0
M  V30 1953 C 196.74 5.39973 -3.9241 0
M  V30 1954 H 196.01 0.738484 -0.0610162 0
M  V30 1955 H 198.657 1.71896 -0.84404 0
M  V30 1956 H 196.962 3.86634 0.634123 0
M  V30 1957 H 198.659 4.00112 0.266723 0
M  V30 1958 H 195.249 4.12561 -1.16153 0
M  V30 1959 H 199.433 4.51443 -2.06187 0
M  V30 1960 H 194.689 5.12271 -3.3375 0
M  V30 1961 H 198.863 5.52518 -4.23907 0
M  V30 1962 H 196.49 5.82687 -4.88242 0
M  V30 1963 N 198.065 0.39524 1.52563 0
M  V30 1964 C 198.995 -0.428384 2.29537 0
M  V30 1965 C 199.976 -1.05831 1.33169 0
M  V30 1966 O 201.161 -1.06995 1.62067 0
M  V30 1967 C 198.291 -1.55274 3.10656 0
M  V30 1968 C 197.245 -1.04855 4.14957 0
M  V30 1969 C 196.571 -2.26543 4.84337 0
M  V30 1970 C 197.871 -0.112324 5.22179 0
M  V30 1971 H 199.565 0.213867 2.98635 0
M  V30 1972 H 197.111 0.104298 1.43622 0
M  V30 1973 H 199.064 -2.1358 3.63265 0
M  V30 1974 H 197.788 -2.22266 2.39302 0
M  V30 1975 H 196.447 -0.487985 3.63338 0
M  V30 1976 H 196.095 -2.92059 4.09525 0
M  V30 1977 H 195.795 -1.93466 5.54837 0
M  V30 1978 H 197.319 -2.85481 5.39753 0
M  V30 1979 H 198.733 -0.603752 5.70112 0
M  V30 1980 H 197.13 0.128968 5.99961 0
M  V30 1981 H 198.2 0.837052 4.77621 0
M  V30 1982 N 199.544 -1.57102 0.125237 0
M  V30 1983 C 200.955 -1.82384 -0.399142 0
M  V30 1984 C 201.306 -1.04276 -1.66195 0
M  V30 1985 O 200.431 -0.281269 -2.14564 0
M  V30 1986 C 201.026 -3.30821 -0.730932 0
M  V30 1987 C 199.585 -3.56762 -1.19992 0
M  V30 1988 C 198.732 -2.7649 -0.211792 0
M  V30 1989 H 201.683 -1.54786 0.350277 0
M  V30 1990 H 201.704 -3.4579 -1.58775 0
M  V30 1991 H 201.216 -3.87643 0.188345 0
M  V30 1992 H 199.317 -3.05305 -2.13588 0
M  V30 1993 H 199.43 -4.65317 -1.14093 0
M  V30 1994 H 197.794 -2.4489 -0.700085 0
M  V30 1995 H 198.577 -3.36073 0.700691 0
M  V30 1996 N 201.022 0.148545 -1.56898 0
M  V30 1997 C 202.433 0.708766 -1.72723 0
M  V30 1998 C 202.784 1.81734 -0.739395 0
M  V30 1999 O 201.909 2.16194 0.0943169 0
M  V30 2000 C 202.504 1.29245 -3.13179 0
M  V30 2001 C 201.063 1.79925 -3.30611 0
M  V30 2002 C 200.21 0.687111 -2.68652 0
M  V30 2003 H 203.161 -0.0771063 -1.58513 0
M  V30 2004 H 203.182 2.16224 -3.13093 0
M  V30 2005 H 202.694 0.485382 -3.85053 0
M  V30 2006 H 200.795 2.63203 -2.63732 0
M  V30 2007 H 200.908 1.92903 -4.38549 0
M  V30 2008 H 199.272 1.11335 -2.29078 0
M  V30 2009 H 200.055 -0.108483 -3.43129 0
M  V30 2010 N 202.5 1.5196 0.417844 0
M  V30 2011 C 203.45 1.7106 1.5074 0
M  V30 2012 C 204.434 0.564487 1.50673 0
M  V30 2013 O 205.626 0.821206 1.56797 0
M  V30 2014 C 202.755 1.85677 2.88754 0
M  V30 2015 C 201.841 3.06133 2.93502 0
M  V30 2016 N 202.232 4.28987 2.67962 0
M  V30 2017 C 200.53 3.05787 3.24669 0
M  V30 2018 C 201.231 5.10395 2.79055 0
M  V30 2019 N 200.207 4.45455 3.11561 0
M  V30 2020 H 204.009 2.63696 1.29775 0
M  V30 2021 H 201.523 1.49873 0.625436 0
M  V30 2022 H 203.52 1.97475 3.67164 0
M  V30 2023 H 202.18 0.942348 3.10725 0
M  V30 2024 H 203.191 4.57607 2.4252 0
M  V30 2025 H 199.868 2.2405 3.52289 0
M  V30 2026 H 201.258 6.18247 2.63097 0
M  V30 2027 N 203.978 -0.674533 1.42435 0
M  V30 2028 C 204.91 -1.80005 1.41883 0
M  V30 2029 C 205.923 -1.59667 0.31787 0
M  V30 2030 O 207.112 -1.68781 0.580973 0
M  V30 2031 C 204.212 -3.17114 1.19549 0
M  V30 2032 C 203.385 -3.64299 2.42084 0
M  V30 2033 C 202.444 -4.80142 2.15291 0
M  V30 2034 O 201.47 -4.90673 2.88493 0
M  V30 2035 N 202.672 -5.68869 1.1562 0
M  V30 2036 H 205.437 -1.80964 2.38898 0
M  V30 2037 H 202.998 -0.857633 1.37318 0
M  V30 2038 H 204.99 -3.92267 0.995417 0
M  V30 2039 H 203.56 -3.11053 0.310569 0
M  V30 2040 H 202.78 -2.79822 2.77657 0
M  V30 2041 H 204.068 -3.92567 3.23679 0
M  V30 2042 H 203.466 -5.63012 0.550765 0
M  V30 2043 H 202.023 -6.43833 1.016 0
M  V30 2044 N 205.456 -1.28612 -0.910864 0
M  V30 2045 C 206.704 -1.15705 -1.65701 0
M  V30 2046 C 207.025 0.29416 -1.92769 0
M  V30 2047 O 206.295 1.20331 -1.54588 0
M  V30 2048 H 204.875 -0.425216 -0.614167 0
M  V30 2049 H 207.537 -1.61381 -1.0928 0
M  V30 2050 H 206.633 -1.6988 -2.61815 0
M  V30 2051 N 206.934 1.1197 -1.10907 0
M  V30 2052 C 208.181 1.83588 -0.854507 0
M  V30 2053 C 208.509 1.84357 0.6199 0
M  V30 2054 O 207.764 1.28809 1.47332 0
M  V30 2055 C 208.063 3.30749 -1.35425 0
M  V30 2056 C 207.729 3.50146 -2.84093 0
M  V30 2057 C 206.391 3.55148 -3.2469 0
M  V30 2058 C 208.743 3.56857 -3.79872 0
M  V30 2059 C 206.071 3.6441 -4.59806 0
M  V30 2060 C 208.423 3.6765 -5.14797 0
M  V30 2061 C 207.087 3.7091 -5.54961 0
M  V30 2062 H 206.357 0.671795 -0.312686 0
M  V30 2063 H 209.004 1.32091 -1.38652 0
M  V30 2064 H 207.309 3.84703 -0.742361 0
M  V30 2065 H 209.006 3.8464 -1.1337 0
M  V30 2066 H 205.596 3.46919 -2.51685 0
M  V30 2067 H 209.78 3.52258 -3.49611 0
M  V30 2068 H 205.036 3.65208 -4.9034 0
M  V30 2069 H 209.21 3.71786 -5.88853 0
M  V30 2070 H 206.837 3.7784 -6.59652 0
M  V30 2071 N 208.412 0.89855 1.29475 0
M  V30 2072 C 209.362 0.346767 2.25348 0
M  V30 2073 C 210.346 -0.532509 1.51833 0
M  V30 2074 O 211.538 -0.374714 1.72988 0
M  V30 2075 C 208.667 -0.425681 3.40651 0
M  V30 2076 C 207.753 0.46845 4.21505 0
M  V30 2077 N 208.144 1.57514 4.80648 0
M  V30 2078 C 206.442 0.26603 4.45206 0
M  V30 2079 C 207.143 2.12889 5.41344 0
M  V30 2080 N 206.119 1.42208 5.24669 0
M  V30 2081 H 209.921 1.19219 2.68634 0
M  V30 2082 H 207.435 0.749473 1.44072 0
M  V30 2083 H 209.432 -0.837716 4.08397 0
M  V30 2084 H 208.092 -1.26838 2.98902 0
M  V30 2085 H 209.103 1.95789 4.79465 0
M  V30 2086 H 205.78 -0.538394 4.14014 0
M  V30 2087 H 207.17 3.05901 5.98226 0
M  V30 2088 N 209.89 -1.43072 0.660911 0
M  V30 2089 C 211.306 -1.56169 0.329173 0
M  V30 2090 C 211.506 -1.64317 -1.16629 0
M  V30 2091 O 210.562 -1.60245 -1.95135 0
M  V30 2092 C 211.875 -2.81873 1.04729 0
M  V30 2093 C 213.423 -2.95627 1.02828 0
M  V30 2094 C 213.898 -4.24174 1.72744 0
M  V30 2095 N 215.389 -4.31055 1.69545 0
M  V30 2096 C 216.124 -5.29304 2.20511 0
M  V30 2097 N 215.62 -6.33786 2.79799 0
M  V30 2098 N 217.413 -5.21008 2.10966 0
M  V30 2099 H 209.564 -1.36027 1.63127 0
M  V30 2100 H 211.827 -0.653823 0.686454 0
M  V30 2101 H 211.533 -2.81942 2.10242 0
M  V30 2102 H 211.407 -3.72338 0.603702 0
M  V30 2103 H 213.794 -2.95094 -0.0184742 0
M  V30 2104 H 213.875 -2.06431 1.51063 0
M  V30 2105 H 213.519 -4.25467 2.7738 0
M  V30 2106 H 213.449 -5.1228 1.2197 0
M  V30 2107 H 215.94 -3.56174 1.26288 0
M  V30 2108 H 216.253 -7.05086 3.16344 0
M  V30 2109 H 214.598 -6.34387 2.83863 0
M  V30 2110 H 217.789 -4.38301 1.64347 0
M  V30 2111 H 217.962 -5.97416 2.50993 0
M  V30 2112 N 211.368 -0.403325 -1.52352 0
M  V30 2113 C 212.615 0.174347 -2.01748 0
M  V30 2114 C 212.943 1.45636 -1.2892 0
M  V30 2115 O 212.198 1.9193 -0.382258 0
M  V30 2116 C 212.497 0.474665 -3.54234 0
M  V30 2117 C 212.163 -0.717458 -4.45155 0
M  V30 2118 C 210.825 -1.04447 -4.69728 0
M  V30 2119 C 213.177 -1.51432 -4.98716 0
M  V30 2120 C 210.505 -2.16963 -5.45109 0
M  V30 2121 C 212.857 -2.6302 -5.75329 0
M  V30 2122 C 211.521 -2.96213 -5.98175 0
M  V30 2123 H 210.791 0.0637981 -0.738248 0
M  V30 2124 H 213.438 -0.543553 -1.83624 0
M  V30 2125 H 211.743 1.27406 -3.70506 0
M  V30 2126 H 213.44 0.934496 -3.89959 0
M  V30 2127 H 210.03 -0.452596 -4.26204 0
M  V30 2128 H 214.214 -1.27491 -4.79645 0
M  V30 2129 H 209.47 -2.43034 -5.61021 0
M  V30 2130 H 213.644 -3.25158 -6.15829 0
M  V30 2131 H 211.271 -3.83516 -6.56368 0
M  V30 2132 N 212.846 1.57033 -0.133567 0
M  V30 2133 C 213.776 2.1909 0.807567 0
M  V30 2134 C 214.757 1.13517 1.26681 0
M  V30 2135 O 215.942 1.41809 1.32679 0
M  V30 2136 C 213.072 2.80188 2.05212 0
M  V30 2137 C 212.026 3.91471 1.73015 0
M  V30 2138 C 211.352 4.39443 3.04622 0
M  V30 2139 C 212.652 5.12886 0.987168 0
M  V30 2140 H 214.346 2.97988 0.290403 0
M  V30 2141 H 211.892 1.43335 0.138239 0
M  V30 2142 H 213.845 3.22264 2.71521 0
M  V30 2143 H 212.569 1.98601 2.59278 0
M  V30 2144 H 211.228 3.49993 1.0909 0
M  V30 2145 H 210.876 3.54695 3.56651 0
M  V30 2146 H 210.576 5.14495 2.83847 0
M  V30 2147 H 212.1 4.8418 3.72024 0
M  V30 2148 H 213.514 5.51891 1.55208 0
M  V30 2149 H 211.911 5.93615 0.87985 0
M  V30 2150 H 212.981 4.84894 -0.0235286 0
M  V30 2151 N 214.325 -0.140222 1.56975 0
M  V30 2152 C 215.573 -0.850005 1.83356 0
M  V30 2153 C 215.894 -1.81399 0.71551 0
M  V30 2154 O 215.164 -1.94136 -0.262294 0
M  V30 2155 H 213.744 -0.316886 0.676456 0
M  V30 2156 H 216.406 -0.132608 1.94448 0
M  V30 2157 H 215.502 -1.40814 2.78528 0
M  V30 2158 N 215.803 -1.52179 -0.40978 0
M  V30 2159 C 217.052 -1.65434 -1.15388 0
M  V30 2160 C 217.365 -0.390056 -1.91671 0
M  V30 2161 O 218.571 -0.402399 -2.68501 0
M  V30 2162 C 217.027 -2.92279 -2.10003 0
M  V30 2163 C 216.635 -4.25813 -1.39239 0
M  V30 2164 C 218.379 -3.14897 -2.84675 0
M  V30 2165 C 216.286 -5.43782 -2.32498 0
M  V30 2166 H 215.216 -0.616267 -0.434432 0
M  V30 2167 H 217.867 -1.78666 -0.418401 0
M  V30 2168 H 216.249 -2.72744 -2.871 0
M  V30 2169 H 217.423 -4.55828 -0.675099 0
M  V30 2170 H 215.738 -4.09292 -0.766097 0
M  V30 2171 H 218.335 -4.0021 -3.54593 0
M  V30 2172 H 218.678 -2.29103 -3.47588 0
M  V30 2173 H 219.211 -3.34901 -2.14677 0
M  V30 2174 H 215.95 -6.3192 -1.74233 0
M  V30 2175 H 215.47 -5.18106 -3.02201 0
M  V30 2176 H 217.149 -5.76834 -2.93038 0
M  V30 2177 N 217.281 0.66697 -1.42791 0
M  V30 2178 C 218.692 1.2478 -1.38877 0
M  V30 2179 C 219.043 1.96012 -0.0859426 0
M  V30 2180 O 218.168 2.00463 0.815081 0
M  V30 2181 C 218.763 2.26938 -2.51564 0
M  V30 2182 C 217.322 2.80529 -2.50959 0
M  V30 2183 C 216.469 1.54965 -2.29959 0
M  V30 2184 H 219.42 0.459853 -1.51892 0
M  V30 2185 H 219.441 3.08834 -2.22265 0
M  V30 2186 H 218.953 1.75065 -3.46372 0
M  V30 2187 H 217.054 3.36502 -1.59991 0
M  V30 2188 H 217.167 3.29012 -3.48265 0
M  V30 2189 H 215.531 1.81817 -1.78366 0
M  V30 2190 H 216.314 1.05047 -3.26833 0
M  V30 2191 N 218.759 1.29093 0.90403 0
M  V30 2192 C 219.989 1.19516 1.68522 0
M  V30 2193 C 220.397 -0.24738 1.87576 0
M  V30 2194 O 219.74 -1.17798 1.40959 0
M  V30 2195 C 219.802 1.83249 3.0929 0
M  V30 2196 C 219.466 3.32531 3.13484 0
M  V30 2197 C 220.463 4.28821 2.93953 0
M  V30 2198 C 218.148 3.73656 3.35688 0
M  V30 2199 C 220.142 5.64212 2.96553 0
M  V30 2200 C 217.829 5.0917 3.37919 0
M  V30 2201 C 218.827 6.04258 3.18373 0
M  V30 2202 O 218.515 7.37298 3.20385 0
M  V30 2203 H 218.247 0.415467 0.533257 0
M  V30 2204 H 220.801 1.70912 1.13922 0
M  V30 2205 H 219.031 1.26358 3.65473 0
M  V30 2206 H 220.72 1.68054 3.69476 0
M  V30 2207 H 221.486 3.98382 2.76616 0
M  V30 2208 H 217.365 3.00101 3.49943 0
M  V30 2209 H 220.909 6.38407 2.81216 0
M  V30 2210 H 216.806 5.39256 3.54787 0
M  V30 2211 H 217.574 7.46048 3.36681 0
M  V30 2212 N 220.237 -1.11381 1.11499 0
M  V30 2213 C 221.462 -1.87475 0.887019 0
M  V30 2214 C 221.887 -1.79639 -0.557796 0
M  V30 2215 O 221.245 -1.15924 -1.39396 0
M  V30 2216 C 221.293 -3.34213 1.35403 0
M  V30 2217 O 220.397 -4.0903 0.526146 0
M  V30 2218 H 219.738 -0.582099 0.319463 0
M  V30 2219 H 222.268 -1.40785 1.48461 0
M  V30 2220 H 222.278 -3.8506 1.34881 0
M  V30 2221 H 220.953 -3.39232 2.40612 0
M  V30 2222 H 219.53 -3.68082 0.597522 0
M  V30 2223 N 221.715 -0.905404 -1.28997 0
M  V30 2224 C 222.665 -0.358713 -2.25161 0
M  V30 2225 C 223.649 0.524449 -1.52113 0
M  V30 2226 O 224.841 0.365534 -1.73184 0
M  V30 2227 C 221.97 0.407609 -3.40872 0
M  V30 2228 C 221.056 -0.490797 -4.21251 0
M  V30 2229 N 221.447 -1.60061 -4.79806 0
M  V30 2230 C 219.745 -0.289636 -4.45059 0
M  V30 2231 C 220.446 -2.15757 -5.40207 0
M  V30 2232 N 219.422 -1.44988 -5.23908 0
M  V30 2233 H 223.224 -1.20642 -2.67998 0
M  V30 2234 H 220.738 -0.757103 -1.43672 0
M  V30 2235 H 222.735 0.816046 -4.08835 0
M  V30 2236 H 221.395 1.25251 -2.9957 0
M  V30 2237 H 222.406 -1.98329 -4.7842 0
M  V30 2238 H 219.083 0.51643 -4.14294 0
M  V30 2239 H 220.473 -3.09069 -5.96595 0
M  V30 2240 N 223.193 1.4272 -0.668489 0
M  V30 2241 C 224.47 1.95248 -0.117373 0
M  V30 2242 C 224.85 1.60919 1.36632 0
M  V30 2243 O 224.198 0.902095 2.09939 0
M  V30 2244 C 224.408 3.46927 -0.379806 0
M  V30 2245 C 225.756 4.23588 -0.292923 0
M  V30 2246 O 226.78 3.5482 -0.313204 0
M  V30 2247 O 225.639 5.46017 -0.229697 0
M  V30 2248 H 222.733 0.827 0.00079152 0
M  V30 2249 H 225.279 1.52581 -0.742783 0
M  V30 2250 H 224.051 3.65096 -1.40786 0
M  V30 2251 H 223.674 3.96627 0.277923 0
M  V30 2252 N 224.671 0.411399 1.52136 0
M  V30 2253 C 225.603 -0.448386 2.24771 0
M  V30 2254 C 226.616 -1.00828 1.27818 0
M  V30 2255 O 227.805 -0.906841 1.53749 0
M  V30 2256 C 224.905 -1.63636 2.96777 0
M  V30 2257 C 224.078 -1.19995 4.20618 0
M  V30 2258 C 223.137 -2.25509 4.75428 0
M  V30 2259 O 222.163 -1.86007 5.3795 0
M  V30 2260 N 223.365 -3.577 4.57199 0
M  V30 2261 H 226.13 0.174025 2.99194 0
M  V30 2262 H 223.691 0.238897 1.60128 0
M  V30 2263 H 225.683 -2.33793 3.30338 0
M  V30 2264 H 224.253 -2.16465 2.25526 0
M  V30 2265 H 223.473 -0.326421 3.92846 0
M  V30 2266 H 224.761 -0.885365 5.01038 0
M  V30 2267 H 224.159 -3.92543 4.07341 0
M  V30 2268 H 222.716 -4.23827 4.95191 0
M  V30 2269 N 226.149 -1.5696 0.141893 0
M  V30 2270 C 227.397 -1.95573 -0.509484 0
M  V30 2271 C 227.718 -1.02746 -1.65736 0
M  V30 2272 O 226.988 -0.0880311 -1.95702 0
M  V30 2273 H 225.568 -0.722115 -0.191205 0
M  V30 2274 H 228.23 -1.93697 0.216196 0
M  V30 2275 H 227.326 -2.99171 -0.889 0
M  V30 2276 N 227.627 0.131896 -1.57047 0
M  V30 2277 C 229.038 0.690407 -1.73465 0
M  V30 2278 C 229.389 1.8094 -0.758629 0
M  V30 2279 O 228.514 2.16282 0.0713813 0
M  V30 2280 C 229.109 1.25916 -3.14532 0
M  V30 2281 C 227.668 1.76409 -3.32501 0
M  V30 2282 C 226.815 0.658579 -2.69366 0
M  V30 2283 H 229.766 -0.0939144 -1.58422 0
M  V30 2284 H 229.787 2.12892 -3.15369 0
M  V30 2285 H 229.299 0.444515 -3.85546 0
M  V30 2286 H 227.4 2.60391 -2.66509 0
M  V30 2287 H 227.513 1.88241 -4.4057 0
M  V30 2288 H 225.877 1.08899 -2.30246 0
M  V30 2289 H 226.66 -0.14487 -3.42994 0
M  V30 2290 N 229.106 1.52395 0.401703 0
M  V30 2291 C 230.346 1.68498 1.15705 0
M  V30 2292 C 230.71 0.409748 1.87577 0
M  V30 2293 O 231.911 0.446983 2.65058 0
M  V30 2294 C 230.182 2.87789 2.11924 0
M  V30 2295 S 231.741 3.24415 2.95466 0
M  V30 2296 H 228.559 0.593267 0.391862 0
M  V30 2297 H 231.161 1.90408 0.443282 0
M  V30 2298 H 229.865 3.7884 1.57824 0
M  V30 2299 H 229.396 2.68175 2.87829 0
M  V30 2300 H 231.411 2.73614 4.13944 0
M  V30 2301 N 230.584 -0.659388 1.43143 0
M  V30 2302 C 231.516 -1.7849 1.43784 0
M  V30 2303 C 232.529 -1.5932 0.334787 0
M  V30 2304 O 233.718 -1.68155 0.598842 0
M  V30 2305 C 230.818 -3.15828 1.22906 0
M  V30 2306 C 229.991 -3.61711 2.45934 0
M  V30 2307 C 229.05 -4.77831 2.20371 0
M  V30 2308 O 228.076 -4.87586 2.93681 0
M  V30 2309 N 229.278 -5.67611 1.21647 0
M  V30 2310 H 232.043 -1.7842 2.40803 0
M  V30 2311 H 229.604 -0.84302 1.3822 0
M  V30 2312 H 231.596 -3.91189 1.03697 0
M  V30 2313 H 230.166 -3.10707 0.343542 0
M  V30 2314 H 229.386 -2.76861 2.80609 0
M  V30 2315 H 230.674 -3.89112 3.27825 0
M  V30 2316 H 230.072 -5.62397 0.610449 0
M  V30 2317 H 228.629 -6.42719 1.08423 0
M  V30 2318 N 232.062 -1.29571 -0.897171 0
M  V30 2319 C 233.01 -1.14802 -2.02295 0
M  V30 2320 C 234.004 -0.0629637 -1.69283 0
M  V30 2321 O 235.21 -0.222945 -1.78614 0
M  V30 2322 H 231.585 -0.354692 -0.663097 0
M  V30 2323 H 233.556 -2.10108 -2.11889 0
M  V30 2324 C 232.305 -0.843966 -3.37302 0
M  V30 2325 H 231.628 -1.67093 -3.63208 0
M  V30 2326 H 233.068 -0.780672 -4.16751 0
M  V30 2327 C 231.527 0.452843 -3.33843 0
M  V30 2328 O 232.057 1.47813 -3.73516 0
M  V30 2329 N 230.263 0.459601 -2.86943 0
M  V30 2330 H 229.81 -0.375213 -2.54853 0
M  V30 2331 H 229.768 1.32726 -2.85011 0
M  V30 2332 N 233.54 1.10788 -1.12088 0
M  V30 2333 C 234.47 2.19083 -0.807755 0
M  V30 2334 C 235.451 1.6858 0.226859 0
M  V30 2335 O 236.636 1.93997 0.0888475 0
M  V30 2336 C 233.766 3.46344 -0.257576 0
M  V30 2337 C 232.72 4.101 -1.22483 0
M  V30 2338 C 232.046 5.32016 -0.535052 0
M  V30 2339 C 233.346 4.54236 -2.57811 0
M  V30 2340 H 235.04 2.45534 -1.71328 0
M  V30 2341 H 232.586 1.1801 -0.825205 0
M  V30 2342 H 234.539 4.21392 -0.0262679 0
M  V30 2343 H 233.263 3.19373 0.683278 0
M  V30 2344 H 231.922 3.37054 -1.44189 0
M  V30 2345 H 231.57 5.01319 0.410827 0
M  V30 2346 H 231.27 5.75625 -1.18024 0
M  V30 2347 H 232.794 6.09799 -0.312695 0
M  V30 2348 H 234.208 5.20575 -2.40155 0
M  V30 2349 H 232.605 5.08682 -3.18375 0
M  V30 2350 H 233.675 3.6734 -3.16528 0
M  V30 2351 N 235.018 0.912232 1.28515 0
M  V30 2352 C 236.246 0.560416 1.99166 0
M  V30 2353 C 236.661 -0.857927 1.68182 0
M  V30 2354 O 236.018 -1.56805 0.933733 0
M  V30 2355 C 236.069 0.758142 3.53461 0
M  V30 2356 O 235.79 2.12067 3.83352 0
M  V30 2357 C 237.291 0.412954 4.41372 0
M  V30 2358 H 234.511 0.213805 0.636026 0
M  V30 2359 H 237.055 1.22502 1.63749 0
M  V30 2360 H 235.21 0.140556 3.87145 0
M  V30 2361 H 235.624 2.15923 4.77993 0
M  V30 2362 H 237.098 0.60208 5.48707 0
M  V30 2363 H 237.575 -0.65073 4.34353 0
M  V30 2364 H 238.181 1.00802 4.13182 0
M  V30 2365 N 236.496 -1.42363 0.676048 0
M  V30 2366 C 237.736 -2.03392 0.20273 0
M  V30 2367 C 238.1 -1.52306 -1.16906 0
M  V30 2368 O 239.301 -2.05129 -1.73711 0
M  V30 2369 C 237.572 -3.56614 0.236947 0
M  V30 2370 S 239.131 -4.38489 -0.165186 0
M  V30 2371 H 235.949 -0.70611 0.0832418 0
M  V30 2372 H 238.551 -1.74093 0.88948 0
M  V30 2373 H 237.255 -3.91293 1.23767 0
M  V30 2374 H 236.786 -3.90587 -0.469596 0
M  V30 2375 H 238.801 -4.76093 -1.39822 0
M  V30 2376 N 237.974 -0.419461 -1.51915 0
M  V30 2377 C 239.221 0.152939 -2.01922 0
M  V30 2378 C 239.549 1.4426 -1.30458 0
M  V30 2379 O 238.804 1.91514 -0.402593 0
M  V30 2380 C 239.103 0.437067 -3.54717 0
M  V30 2381 C 238.769 -0.764632 -4.44369 0
M  V30 2382 C 237.431 -1.09423 -4.68594 0
M  V30 2383 C 239.783 -1.56713 -4.97082 0
M  V30 2384 C 237.111 -2.22732 -5.42777 0
M  V30 2385 C 239.463 -2.69107 -5.72507 0
M  V30 2386 C 238.127 -3.02541 -5.95 0
M  V30 2387 H 237.397 0.0559644 -0.738884 0
M  V30 2388 H 240.044 -0.562998 -1.83037 0
M  V30 2389 H 238.349 1.23469 -3.71837 0
M  V30 2390 H 240.046 0.893083 -3.90928 0
M  V30 2391 H 236.636 -0.497775 -4.257 0
M  V30 2392 H 240.82 -1.32571 -4.78266 0
M  V30 2393 H 236.076 -2.48971 -5.58411 0
M  V30 2394 H 240.25 -3.31671 -6.12346 0
M  V30 2395 H 237.877 -3.90457 -6.52264 0
M  V30 2396 N 239.452 1.56882 -0.150215 0
M  V30 2397 C 240.863 1.82995 0.370076 0
M  V30 2398 C 241.214 1.06907 1.64515 0
M  V30 2399 O 240.339 0.315369 2.1409 0
M  V30 2400 C 240.934 3.31942 0.678208 0
M  V30 2401 C 239.493 3.58625 1.14301 0
M  V30 2402 C 238.64 2.76792 0.167778 0
M  V30 2403 H 241.591 1.54209 -0.374858 0
M  V30 2404 H 241.612 3.48272 1.53254 0
M  V30 2405 H 241.124 3.87294 -0.249991 0
M  V30 2406 H 239.225 3.08664 2.08704 0
M  V30 2407 H 239.338 4.67073 1.06676 0
M  V30 2408 H 237.702 2.45972 0.661037 0
M  V30 2409 H 238.485 3.34916 -0.754069 0
M  V30 2410 N 240.93 -0.123565 1.57115 0
M  V30 2411 C 242.341 -0.681198 1.73829 0
M  V30 2412 C 242.692 -1.80535 0.768214 0
M  V30 2413 O 241.817 -2.16317 -0.0599103 0
M  V30 2414 C 242.412 -1.24246 3.15196 0
M  V30 2415 C 240.971 -1.74643 3.33432 0
M  V30 2416 C 240.118 -0.644284 2.69711 0
M  V30 2417 H 243.069 0.102315 1.5837 0
M  V30 2418 H 243.09 -2.11216 3.16493 0
M  V30 2419 H 242.602 -0.424062 3.85776 0
M  V30 2420 H 240.703 -2.58974 2.67886 0
M  V30 2421 H 240.816 -1.85902 4.41562 0
M  V30 2422 H 239.18 -1.07676 2.3082 0
M  V30 2423 H 239.963 0.163058 3.42913 0
M  V30 2424 N 242.408 -1.52605 -0.393616 0
M  V30 2425 C 243.371 -1.76415 -1.46323 0
M  V30 2426 C 244.371 -0.634126 -1.47768 0
M  V30 2427 O 245.561 -0.902142 -1.4902 0
M  V30 2428 C 242.693 -1.8607 -2.85641 0
M  V30 2429 H 243.886 -2.71916 -1.26498 0
M  V30 2430 H 241.439 -1.43257 -0.625073 0
M  V30 2431 H 242.174 -0.925378 -3.10817 0
M  V30 2432 H 241.959 -2.68235 -2.85993 0
M  V30 2433 H 243.449 -2.06179 -3.63153 0
M  V30 2434 N 243.887 0.651787 -1.4349 0
M  V30 2435 C 245.115 1.43937 -1.48626 0
M  V30 2436 C 245.53 1.8851 -0.104587 0
M  V30 2437 O 244.887 1.5958 0.885464 0
M  V30 2438 C 244.938 2.6734 -2.43334 0
M  V30 2439 O 244.659 2.24631 -3.76128 0
M  V30 2440 C 246.16 3.60683 -2.57726 0
M  V30 2441 H 243.38 0.44213 -0.504739 0
M  V30 2442 H 245.924 0.798944 -1.88248 0
M  V30 2443 H 244.079 3.2752 -2.06904 0
M  V30 2444 H 244.493 3.04485 -4.2707 0
M  V30 2445 H 245.967 4.43933 -3.28067 0
M  V30 2446 H 246.444 4.08126 -1.62265 0
M  V30 2447 H 247.05 3.06384 -2.94973 0
M  V30 2448 N 245.365 1.30045 0.890287 0
M  V30 2449 C 246.776 1.16738 1.45702 0
M  V30 2450 C 247.127 -0.233939 1.948 0
M  V30 2451 O 246.252 -1.13021 1.84541 0
M  V30 2452 C 246.847 2.11313 2.64825 0
M  V30 2453 C 245.406 2.02001 3.17604 0
M  V30 2454 C 244.553 2.01699 1.90296 0
M  V30 2455 H 247.504 1.42392 0.700726 0
M  V30 2456 H 247.525 1.69086 3.40867 0
M  V30 2457 H 247.037 3.13294 2.2906 0
M  V30 2458 H 245.138 1.03142 3.5804 0
M  V30 2459 H 245.251 2.90128 3.81264 0
M  V30 2460 H 243.615 1.46427 2.08402 0
M  V30 2461 H 244.398 3.05402 1.56795 0
M  V30 2462 N 246.843 -1.10192 1.12674 0
M  V30 2463 C 248.083 -1.83825 0.893736 0
M  V30 2464 C 248.447 -1.83341 -0.570082 0
M  V30 2465 O 249.648 -2.52553 -0.920354 0
M  V30 2466 C 247.919 -3.26405 1.45582 0
M  V30 2467 S 249.478 -4.17136 1.36171 0
M  V30 2468 H 246.296 -0.633732 0.322342 0
M  V30 2469 H 248.898 -1.32581 1.43675 0
M  V30 2470 H 247.602 -3.24329 2.51473 0
M  V30 2471 H 247.133 -3.82721 0.910405 0
M  V30 2472 H 249.148 -4.95069 0.334863 0
M  V30 2473 N 248.321 -0.919034 -1.28029 0
M  V30 2474 C 249.598 -0.473668 -1.89778 0
M  V30 2475 C 249.978 1.04783 -1.83259 0
M  V30 2476 O 249.326 1.8982 -1.27202 0
M  V30 2477 C 249.536 -1.00998 -3.34066 0
M  V30 2478 C 250.884 -1.06525 -4.1102 0
M  V30 2479 O 251.908 -0.958996 -3.43048 0
M  V30 2480 O 250.767 -1.22776 -5.3253 0
M  V30 2481 H 247.861 -0.15098 -0.813101 0
M  V30 2482 H 250.407 -1.01016 -1.36359 0
M  V30 2483 H 249.179 -2.05392 -3.33061 0
M  V30 2484 H 248.802 -0.454626 -3.94992 0
M  V30 2485 N 249.799 1.42003 -0.683588 0
M  V30 2486 C 251.047 2.01015 -0.209101 0
M  V30 2487 C 251.368 1.54365 1.19149 0
M  V30 2488 O 250.638 0.769083 1.80172 0
M  V30 2489 H 249.218 0.743294 -0.074315 0
M  V30 2490 H 251.88 1.73798 -0.882066 0
M  V30 2491 H 250.976 3.11343 -0.2172 0
M  V30 2492 N 251.277 0.427512 1.51691 0
M  V30 2493 C 252.525 -0.141948 2.01601 0
M  V30 2494 C 252.846 -1.44067 1.31414 0
M  V30 2495 O 252.116 -1.90763 0.445658 0
M  V30 2496 H 250.696 -0.0554468 0.744939 0
M  V30 2497 H 253.358 0.567968 1.86441 0
M  V30 2498 H 252.454 -0.324913 3.10404 0
M  V30 2499 N 252.755 -1.56801 0.158532 0
M  V30 2500 C 253.995 -1.98383 -0.49229 0
M  V30 2501 C 254.359 -1.04184 -1.61275 0
M  V30 2502 O 255.56 -1.34856 -2.32524 0
M  V30 2503 C 253.831 -3.4385 -0.974766 0
M  V30 2504 S 255.39 -4.07459 -1.62857 0
M  V30 2505 H 252.208 -0.693041 -0.158794 0
M  V30 2506 H 254.81 -1.93856 0.252974 0
M  V30 2507 H 253.514 -4.10131 -0.148688 0
M  V30 2508 H 253.045 -3.52115 -1.75438 0
M  V30 2509 H 255.06 -4.01458 -2.91627 0
M  V30 2510 N 254.233 0.115231 -1.57178 0
M  V30 2511 C 255.51 0.852873 -1.76027 0
M  V30 2512 C 255.89 1.97892 -0.73498 0
M  V30 2513 O 255.238 2.27232 0.24036 0
M  V30 2514 C 255.448 1.36608 -3.21153 0
M  V30 2515 C 256.796 1.81692 -3.83762 0
M  V30 2516 O 257.82 1.46278 -3.24779 0
M  V30 2517 O 256.679 2.47104 -4.87444 0
M  V30 2518 H 253.773 0.405296 -0.720877 0
M  V30 2519 H 256.319 0.0986785 -1.69413 0
M  V30 2520 H 255.091 0.558357 -3.87296 0
M  V30 2521 H 254.714 2.18287 -3.3232 0
M  V30 2522 N 255.711 1.52812 0.385517 0
M  V30 2523 C 256.643 1.74096 1.49074 0
M  V30 2524 C 257.656 0.621462 1.50472 0
M  V30 2525 O 258.845 0.897245 1.54311 0
M  V30 2526 C 255.945 1.78774 2.87911 0
M  V30 2527 C 255.118 3.08134 3.10439 0
M  V30 2528 C 254.177 3.04313 4.29278 0
M  V30 2529 O 253.203 3.78168 4.25415 0
M  V30 2530 N 254.405 2.23741 5.35649 0
M  V30 2531 H 257.17 2.69455 1.31202 0
M  V30 2532 H 254.731 1.51343 0.575065 0
M  V30 2533 H 256.723 1.73721 3.65518 0
M  V30 2534 H 255.293 0.907869 2.99126 0
M  V30 2535 H 254.513 3.26649 2.20667 0
M  V30 2536 H 255.801 3.93662 3.22347 0
M  V30 2537 H 255.199 1.63211 5.41645 0
M  V30 2538 H 253.756 2.24524 6.11909 0
M  V30 2539 N 257.189 -0.644168 1.43834 0
M  V30 2540 C 258.437 -1.40117 1.45642 0
M  V30 2541 C 258.758 -1.94814 0.0852413 0
M  V30 2542 O 258.028 -1.74988 -0.880688 0
M  V30 2543 H 256.608 -0.52005 0.536243 0
M  V30 2544 H 259.27 -0.7591 1.7951 0
M  V30 2545 H 258.366 -2.23902 2.17427 0
M  V30 2546 N 258.668 -1.30515 -0.883378 0
M  V30 2547 C 259.598 -1.19607 -2.00541 0
M  V30 2548 C 260.579 -0.086346 -1.69881 0
M  V30 2549 O 261.764 -0.268654 -1.92333 0
M  V30 2550 C 258.894 -0.888758 -3.35736 0
M  V30 2551 C 257.848 -1.95659 -3.8066 0
M  V30 2552 C 257.174 -1.50224 -5.13164 0
M  V30 2553 C 258.474 -3.36788 -3.99213 0
M  V30 2554 H 260.168 -2.13476 -2.09925 0
M  V30 2555 H 257.714 -1.02775 -1.00863 0
M  V30 2556 H 259.667 -0.799094 -4.13754 0
M  V30 2557 H 258.391 0.0856125 -3.26488 0
M  V30 2558 H 257.05 -2.03591 -3.04871 0
M  V30 2559 H 256.698 -0.516092 -5.00345 0
M  V30 2560 H 256.398 -2.2165 -5.44192 0
M  V30 2561 H 257.922 -1.42639 -5.93706 0
M  V30 2562 H 259.336 -3.31605 -4.67665 0
M  V30 2563 H 257.733 -4.06314 -4.41621 0
M  V30 2564 H 258.803 -3.78561 -3.03017 0
M  V30 2565 N 260.146 1.09593 -1.13257 0
M  V30 2566 C 261.392 1.82003 -0.89458 0
M  V30 2567 C 261.725 1.85402 0.577906 0
M  V30 2568 O 261 1.32099 1.42759 0
M  V30 2569 C 261.283 3.28237 -1.48096 0
M  V30 2570 C 261.136 3.3312 -3.02244 0
M  V30 2571 C 262.455 4.24871 -1.14774 0
M  V30 2572 H 259.574 0.66077 -0.326424 0
M  V30 2573 H 262.216 1.28389 -1.40058 0
M  V30 2574 H 260.366 3.74024 -1.05062 0
M  V30 2575 H 262.038 2.95748 -3.54021 0
M  V30 2576 H 260.281 2.72756 -3.37323 0
M  V30 2577 H 260.952 4.3613 -3.38371 0
M  V30 2578 H 263.428 3.87361 -1.51957 0
M  V30 2579 H 262.304 5.25532 -1.58452 0
M  V30 2580 H 262.565 4.42058 -0.0611849 0
M  V30 2581 N 261.624 0.925811 1.2754 0
M  V30 2582 C 263.035 0.610102 1.7645 0
M  V30 2583 C 263.386 -0.874723 1.75622 0
M  V30 2584 O 262.511 -1.68444 1.35851 0
M  V30 2585 C 263.106 1.10073 3.20421 0
M  V30 2586 C 261.665 0.835723 3.67005 0
M  V30 2587 C 260.812 1.26054 2.46993 0
M  V30 2588 H 263.763 1.10579 1.13833 0
M  V30 2589 H 263.784 0.447557 3.77859 0
M  V30 2590 H 263.296 2.18143 3.20991 0
M  V30 2591 H 261.397 -0.231249 3.71882 0
M  V30 2592 H 261.51 1.45193 4.56569 0
M  V30 2593 H 259.874 0.679111 2.45479 0
M  V30 2594 H 260.657 2.34984 2.50275 0
M  V30 2595 N 263.102 -1.41638 0.69111 0
M  V30 2596 C 264.351 -2.00526 0.217318 0
M  V30 2597 C 264.664 -1.55353 -1.18848 0
M  V30 2598 O 265.87 -2.06769 -1.75951 0
M  V30 2599 C 264.326 -3.58313 0.337639 0
M  V30 2600 C 263.934 -4.12469 1.74852 0
M  V30 2601 C 265.678 -4.24431 -0.0766066 0
M  V30 2602 C 263.585 -5.62675 1.82074 0
M  V30 2603 H 262.515 -0.750008 0.0774893 0
M  V30 2604 H 265.166 -1.6217 0.858661 0
M  V30 2605 H 263.548 -3.9425 -0.371879 0
M  V30 2606 H 264.722 -3.8796 2.48644 0
M  V30 2607 H 263.037 -3.58861 2.11205 0
M  V30 2608 H 265.634 -5.34683 -0.0430284 0
M  V30 2609 H 265.977 -4.01101 -1.1146 0
M  V30 2610 H 266.51 -3.93512 0.582476 0
M  V30 2611 H 263.249 -5.90826 2.83911 0
M  V30 2612 H 262.769 -5.89124 1.12661 0
M  V30 2613 H 264.448 -6.27371 1.58159 0
M  V30 2614 N 264.58 -0.43555 -1.51462 0
M  V30 2615 C 265.991 0.0279871 -1.86679 0
M  V30 2616 C 266.342 1.42104 -1.35281 0
M  V30 2617 O 265.467 2.04667 -0.702878 0
M  V30 2618 C 266.062 0.0575626 -3.38751 0
M  V30 2619 C 264.621 0.465507 -3.7351 0
M  V30 2620 C 263.768 -0.342996 -2.75171 0
M  V30 2621 H 266.719 -0.651473 -1.44712 0
M  V30 2622 H 266.74 0.867421 -3.70481 0
M  V30 2623 H 266.252 -0.956448 -3.7613 0
M  V30 2624 H 264.353 1.48519 -3.41721 0
M  V30 2625 H 264.466 0.191546 -4.78717 0
M  V30 2626 H 262.83 0.198442 -2.53926 0
M  V30 2627 H 263.613 -1.35585 -3.15391 0
M  V30 2628 N 266.058 1.56714 -0.166846 0
M  V30 2629 C 266.988 2.20754 0.760913 0
M  V30 2630 C 267.969 1.16178 1.24244 0
M  V30 2631 O 269.154 1.44592 1.29641 0
M  V30 2632 C 266.284 2.84478 1.99223 0
M  V30 2633 C 265.238 3.95053 1.64672 0
M  V30 2634 C 264.564 4.45805 2.95232 0
M  V30 2635 C 265.864 5.14865 0.878155 0
M  V30 2636 H 267.558 2.98537 0.22713 0
M  V30 2637 H 265.104 1.43596 0.107805 0
M  V30 2638 H 267.057 3.27951 2.64624 0
M  V30 2639 H 265.781 2.04056 2.55007 0
M  V30 2640 H 264.44 3.52228 1.01641 0
M  V30 2641 H 264.088 3.62181 3.49047 0
M  V30 2642 H 263.788 5.204 2.7287 0
M  V30 2643 H 265.312 4.91962 3.6167 0
M  V30 2644 H 266.726 5.55059 1.43466 0
M  V30 2645 H 265.123 5.95348 0.753738 0
M  V30 2646 H 266.193 4.84735 -0.126377 0
M  V30 2647 N 267.536 -0.106894 1.57237 0
M  V30 2648 C 268.466 -1.13148 2.04254 0
M  V30 2649 C 269.447 -1.42476 0.929224 0
M  V30 2650 O 270.632 -1.52709 1.19973 0
M  V30 2651 C 267.762 -2.4545 2.45706 0
M  V30 2652 C 266.716 -2.30558 3.60592 0
M  V30 2653 C 266.042 -3.67931 3.87983 0
M  V30 2654 C 267.342 -1.75597 4.91897 0
M  V30 2655 H 269.036 -0.740374 2.90101 0
M  V30 2656 H 266.582 -0.354696 1.39563 0
M  V30 2657 H 268.535 -3.17389 2.77205 0
M  V30 2658 H 267.259 -2.86475 1.56843 0
M  V30 2659 H 265.918 -1.61067 3.29322 0
M  V30 2660 H 265.566 -4.06462 2.96306 0
M  V30 2661 H 265.266 -3.58817 4.65322 0
M  V30 2662 H 266.79 -4.41356 4.21945 0
M  V30 2663 H 268.204 -2.37364 5.21854 0
M  V30 2664 H 266.601 -1.77272 5.73319 0
M  V30 2665 H 267.671 -0.714451 4.79608 0
M  V30 2666 N 269.014 -1.53014 -0.377408 0
M  V30 2667 C 269.977 -1.77957 -1.44444 0
M  V30 2668 C 270.977 -0.649763 -1.47087 0
M  V30 2669 O 272.167 -0.917897 -1.48055 0
M  V30 2670 C 269.299 -1.89089 -2.83651 0
M  V30 2671 H 270.492 -2.73243 -1.23606 0
M  V30 2672 H 268.045 -1.43912 -0.609844 0
M  V30 2673 H 268.78 -0.958293 -3.09818 0
M  V30 2674 H 268.565 -2.71254 -2.83132 0
M  V30 2675 H 270.055 -2.1002 -3.60945 0
M  V30 2676 N 270.492 0.636531 -1.44174 0
M  V30 2677 C 271.44 1.76995 -1.50915 0
M  V30 2678 C 272.434 1.65053 -0.381295 0
M  V30 2679 O 273.64 1.71197 -0.55601 0
M  V30 2680 H 270.015 0.584247 -0.473455 0
M  V30 2681 H 271.986 1.68432 -2.4632 0
M  V30 2682 C 270.735 3.15314 -1.46534 0
M  V30 2683 H 270.058 3.25149 -2.32633 0
M  V30 2684 H 271.498 3.9453 -1.55312 0
M  V30 2685 C 269.957 3.3639 -0.185305 0
M  V30 2686 O 270.487 3.94699 0.746688 0
M  V30 2687 N 268.693 2.9046 -0.0901606 0
M  V30 2688 H 268.24 2.43193 -0.849416 0
M  V30 2689 H 268.198 3.04937 0.765553 0
M  V30 2690 N 271.97 1.30982 0.876444 0
M  V30 2691 C 272.9 1.20668 1.99903 0
M  V30 2692 C 273.881 0.095354 1.69833 0
M  V30 2693 O 275.066 0.27885 1.92188 0
M  V30 2694 C 272.196 0.90655 3.3526 0
M  V30 2695 C 271.15 1.97675 3.79617 0
M  V30 2696 C 270.476 1.52943 5.1236 0
M  V30 2697 C 271.776 3.389 3.97422 0
M  V30 2698 H 273.47 2.14586 2.0879 0
M  V30 2699 H 271.016 1.03308 1.00317 0
M  V30 2700 H 272.969 0.821025 4.13324 0
M  V30 2701 H 271.693 -0.0682969 3.26529 0
M  V30 2702 H 270.352 2.05205 3.03787 0
M  V30 2703 H 270 0.54262 5.00065 0
M  V30 2704 H 269.7 2.24532 5.43009 0
M  V30 2705 H 271.224 1.45786 5.92941 0
M  V30 2706 H 272.638 3.34081 4.659 0
M  V30 2707 H 271.035 4.0865 4.3946 0
M  V30 2708 H 272.105 3.80163 3.01006 0
M  V30 2709 N 273.449 -1.08991 1.13837 0
M  V30 2710 C 274.674 -1.85551 0.926585 0
M  V30 2711 C 275.099 -1.80782 -0.519566 0
M  V30 2712 O 274.457 -1.18855 -1.36906 0
M  V30 2713 C 274.505 -3.31266 1.42462 0
M  V30 2714 O 273.609 -4.07822 0.612789 0
M  V30 2715 H 272.95 -0.575192 0.331738 0
M  V30 2716 H 275.48 -1.37604 1.51414 0
M  V30 2717 H 275.49 -3.82112 1.43019 0
M  V30 2718 H 274.165 -3.34052 2.47754 0
M  V30 2719 H 272.742 -3.66731 0.675463 0
M  V30 2720 N 274.927 -0.932562 -1.27047 0
M  V30 2721 C 276.173 -0.576412 -1.94436 0
M  V30 2722 C 276.506 0.880891 -1.73072 0
M  V30 2723 O 275.781 1.62905 -1.06264 0
M  V30 2724 C 276.064 -0.909031 -3.48437 0
M  V30 2725 C 275.917 -2.42044 -3.79123 0
M  V30 2726 C 277.236 -0.418341 -4.38107 0
M  V30 2727 H 274.355 -0.210888 -0.706184 0
M  V30 2728 H 276.997 -1.16522 -1.50075 0
M  V30 2729 H 275.147 -0.407947 -3.86352 0
M  V30 2730 H 276.819 -2.99359 -3.50973 0
M  V30 2731 H 275.062 -2.86758 -3.25503 0
M  V30 2732 H 275.733 -2.6037 -4.86736 0
M  V30 2733 H 278.209 -0.847856 -4.0737 0
M  V30 2734 H 277.085 -0.679981 -5.44672 0
M  V30 2735 H 277.346 0.681642 -4.36814 0
M  V30 2736 N 276.405 1.4127 -0.698611 0
M  V30 2737 C 277.315 2.34573 -0.0357891 0
M  V30 2738 C 278.331 1.56393 0.762701 0
M  V30 2739 O 279.507 1.8886 0.699564 0
M  V30 2740 C 276.572 3.35159 0.887089 0
M  V30 2741 C 275.633 4.29225 0.0804634 0
M  V30 2742 C 274.866 5.25006 0.959387 0
M  V30 2743 O 275.089 5.26314 2.19886 0
M  V30 2744 O 274.023 6.00519 0.407439 0
M  V30 2745 H 277.849 2.92838 -0.804957 0
M  V30 2746 H 275.434 1.42175 -0.458966 0
M  V30 2747 H 277.316 3.9689 1.41621 0
M  V30 2748 H 275.991 2.79333 1.6357 0
M  V30 2749 H 274.898 3.70833 -0.493328 0
M  V30 2750 H 276.231 4.88157 -0.629547 0
M  V30 2751 N 277.883 0.443576 1.51229 0
M  V30 2752 C 278.846 -0.353132 2.26463 0
M  V30 2753 C 279.846 -0.944338 1.3015 0
M  V30 2754 O 281.036 -0.817813 1.5381 0
M  V30 2755 C 278.168 -1.50023 3.06114 0
M  V30 2756 H 279.361 0.3063 2.98332 0
M  V30 2757 H 276.914 0.196902 1.55055 0
M  V30 2758 H 277.649 -2.19553 2.38677 0
M  V30 2759 H 277.434 -1.08241 3.76864 0
M  V30 2760 H 278.924 -2.06296 3.63087 0
M  V30 2761 N 279.361 -1.56624 0.175154 0
M  V30 2762 C 280.293 -2.15333 -0.785128 0
M  V30 2763 C 281.306 -1.1099 -1.19101 0
M  V30 2764 O 282.495 -1.38162 -1.13019 0
M  V30 2765 C 279.595 -2.68427 -2.06882 0
M  V30 2766 C 278.768 -3.97466 -1.8259 0
M  V30 2767 C 277.827 -4.35585 -2.95215 0
M  V30 2768 O 276.853 -5.03389 -2.65684 0
M  V30 2769 N 278.055 -3.97457 -4.23094 0
M  V30 2770 H 280.82 -2.98359 -0.283187 0
M  V30 2771 H 278.381 -1.61898 -0.00749817 0
M  V30 2772 H 280.373 -2.90924 -2.81328 0
M  V30 2773 H 278.943 -1.89968 -2.48256 0
M  V30 2774 H 278.163 -3.83307 -0.920287 0
M  V30 2775 H 279.451 -4.81736 -1.63733 0
M  V30 2776 H 278.849 -3.42878 -4.49945 0
M  V30 2777 H 277.406 -4.24947 -4.9423 0
M  V30 2778 N 280.839 0.0985539 -1.57292 0
M  V30 2779 C 282.25 0.653457 -1.74891 0
M  V30 2780 C 282.601 1.7929 -0.796838 0
M  V30 2781 O 281.726 2.16385 0.0254886 0
M  V30 2782 C 282.321 1.19216 -3.17133 0
M  V30 2783 C 280.88 1.69316 -3.36168 0
M  V30 2784 C 280.027 0.601294 -2.70702 0
M  V30 2785 H 282.978 -0.127497 -1.58187 0
M  V30 2786 H 282.999 2.06154 -3.19814 0
M  V30 2787 H 282.511 0.362635 -3.86402 0
M  V30 2788 H 280.612 2.5468 -2.71972 0
M  V30 2789 H 280.725 1.78853 -4.44464 0
M  V30 2790 H 279.089 1.0399 -2.32504 0
M  V30 2791 H 279.872 -0.217592 -3.4261 0
M  V30 2792 N 282.317 1.53212 0.369288 0
M  V30 2793 C 283.728 1.60943 0.946276 0
M  V30 2794 C 284.079 0.47452 1.90375 0
M  V30 2795 O 283.204 -0.399597 2.12679 0
M  V30 2796 C 283.799 2.91715 1.72302 0
M  V30 2797 C 282.358 3.01792 2.24941 0
M  V30 2798 C 281.505 2.56211 1.06072 0
M  V30 2799 H 284.456 1.58007 0.148198 0
M  V30 2800 H 284.477 2.79309 2.58393 0
M  V30 2801 H 283.989 3.74295 1.0259 0
M  V30 2802 H 282.09 2.23791 2.97906 0
M  V30 2803 H 282.203 4.06803 2.53077 0
M  V30 2804 H 280.567 2.10998 1.4266 0
M  V30 2805 H 281.35 3.41206 0.378639 0
M  V30 2806 N 283.795 -0.628877 1.44509 0
M  V30 2807 C 285.041 -1.38863 1.48623 0
M  V30 2808 C 285.396 -1.92038 0.117933 0
M  V30 2809 O 284.689 -1.70853 -0.86716 0
M  V30 2810 C 284.883 -2.56995 2.48371 0
M  V30 2811 C 284.712 -2.15385 3.94765 0
M  V30 2812 C 283.482 -2.02558 4.62924 0
M  V30 2813 C 285.68 -1.74158 4.83915 0
M  V30 2814 N 283.662 -1.54534 5.94132 0
M  V30 2815 C 285.033 -1.37396 6.04584 0
M  V30 2816 C 287.088 -1.61559 4.7096 0
M  V30 2817 C 285.791 -0.892948 7.13736 0
M  V30 2818 C 287.817 -1.14862 5.80139 0
M  V30 2819 C 287.179 -0.790516 6.9995 0
M  V30 2820 H 283.278 -0.502858 0.59888 0
M  V30 2821 H 285.862 -0.72121 1.8085 0
M  V30 2822 H 284.033 -3.21362 2.1813 0
M  V30 2823 H 285.765 -3.23801 2.42766 0
M  V30 2824 H 282.52 -2.23082 4.1777 0
M  V30 2825 H 282.944 -1.32815 6.63844 0
M  V30 2826 H 287.586 -1.87876 3.78764 0
M  V30 2827 H 285.304 -0.617291 8.05739 0
M  V30 2828 H 288.89 -1.05569 5.72142 0
M  V30 2829 H 287.77 -0.434713 7.82994 0
M  V30 2830 N 285.273 -1.31445 -0.869486 0
M  V30 2831 C 286.203 -1.21727 -1.99261 0
M  V30 2832 C 287.184 -0.104359 -1.6978 0
M  V30 2833 O 288.369 -0.289038 -1.92037 0
M  V30 2834 C 285.499 -0.924317 -3.34774 0
M  V30 2835 C 284.453 -1.99685 -3.78563 0
M  V30 2836 C 283.779 -1.55658 -5.11541 0
M  V30 2837 C 285.079 -3.41003 -3.95619 0
M  V30 2838 H 286.773 -2.1569 -2.07649 0
M  V30 2839 H 284.319 -1.03839 -0.997675 0
M  V30 2840 H 286.272 -0.842934 -4.12883 0
M  V30 2841 H 284.996 0.0509793 -3.2656 0
M  V30 2842 H 283.655 -2.06813 -3.02694 0
M  V30 2843 H 283.303 -0.569132 -4.9977 0
M  V30 2844 H 283.003 -2.27409 -5.41811 0
M  V30 2845 H 284.527 -1.48928 -5.92159 0
M  V30 2846 H 285.941 -3.36547 -4.64122 0
M  V30 2847 H 284.338 -4.10975 -4.37286 0
M  V30 2848 H 285.408 -3.81754 -2.98985 0
M  V30 2849 N 286.751 1.08385 -1.14413 0
M  V30 2850 C 288.162 1.62258 -0.923535 0
M  V30 2851 C 288.513 1.88691 0.537595 0
M  V30 2852 O 287.638 1.64454 1.40655 0
M  V30 2853 C 288.233 2.94781 -1.67002 0
M  V30 2854 C 286.792 3.45437 -1.495 0
M  V30 2855 C 285.939 2.19668 -1.69238 0
M  V30 2856 H 288.89 0.916086 -1.2959 0
M  V30 2857 H 288.911 3.63229 -1.13334 0
M  V30 2858 H 288.423 2.7551 -2.73342 0
M  V30 2859 H 286.524 3.6981 -0.455097 0
M  V30 2860 H 286.637 4.22173 -2.2651 0
M  V30 2861 H 285.001 2.28849 -1.11804 0
M  V30 2862 H 285.784 2.02905 -2.7692 0
M  V30 2863 N 288.23 0.939286 1.26551 0
M  V30 2864 C 289.478 0.58469 1.93457 0
M  V30 2865 C 289.799 -0.878774 1.74076 0
M  V30 2866 O 289.069 -1.62421 1.09528 0
M  V30 2867 H 287.649 0.21325 0.715914 0
M  V30 2868 H 290.311 1.1942 1.54029 0
M  V30 2869 H 289.407 0.800849 3.0165 0
M  V30 2870 N 289.708 -1.40897 0.706093 0
M  V30 2871 C 290.638 -2.33418 0.0620085 0
M  V30 2872 C 291.619 -1.52385 -0.755827 0
M  V30 2873 O 292.804 -1.80886 -0.706674 0
M  V30 2874 C 289.934 -3.36293 -0.867445 0
M  V30 2875 C 288.888 -4.27716 -0.155932 0
M  V30 2876 C 288.214 -5.2105 -1.20046 0
M  V30 2877 C 289.514 -5.12944 0.984149 0
M  V30 2878 H 291.208 -2.87527 0.83477 0
M  V30 2879 H 288.754 -1.38249 0.402875 0
M  V30 2880 H 290.707 -3.99949 -1.32735 0
M  V30 2881 H 289.431 -2.80556 -1.67199 0
M  V30 2882 H 288.09 -3.65498 0.284047 0
M  V30 2883 H 287.738 -4.61624 -1.99781 0
M  V30 2884 H 287.438 -5.83056 -0.729328 0
M  V30 2885 H 288.962 -5.87584 -1.66066 0
M  V30 2886 H 290.376 -5.70109 0.604048 0
M  V30 2887 H 288.773 -5.83945 1.38304 0
M  V30 2888 H 289.843 -4.49485 1.81911 0
M  V30 2889 N 291.186 -0.45159 -1.50991 0
M  V30 2890 C 292.096 0.358431 -2.31846 0
M  V30 2891 C 293.112 1.01438 -1.41373 0
M  V30 2892 O 294.288 1.00663 -1.74439 0
M  V30 2893 C 291.353 1.43704 -3.15515 0
M  V30 2894 C 290.414 0.799742 -4.21785 0
M  V30 2895 C 289.647 1.82696 -5.01456 0
M  V30 2896 O 289.87 3.05105 -4.81941 0
M  V30 2897 O 288.804 1.40958 -5.85162 0
M  V30 2898 H 292.63 -0.302032 -3.02194 0
M  V30 2899 H 290.215 -0.213825 -1.47862 0
M  V30 2900 H 292.097 2.06227 -3.67489 0
M  V30 2901 H 290.772 2.08133 -2.47916 0
M  V30 2902 H 289.679 0.136084 -3.73852 0
M  V30 2903 H 291.012 0.198718 -4.91799 0
M  V30 2904 N 292.664 1.56529 -0.183458 0
M  V30 2905 C 293.627 2.17324 0.728223 0
M  V30 2906 C 294.627 1.12453 1.14939 0
M  V30 2907 O 295.817 1.37902 1.06437 0
M  V30 2908 C 292.949 2.76591 1.99274 0
M  V30 2909 H 294.142 2.99241 0.198772 0
M  V30 2910 H 291.695 1.5616 0.0661391 0
M  V30 2911 H 292.43 1.98441 2.56499 0
M  V30 2912 H 292.215 3.5335 1.69959 0
M  V30 2913 H 293.705 3.23311 2.6431 0
M  V30 2914 N 294.142 -0.090211 1.57342 0
M  V30 2915 C 295.558 -0.444547 1.53284 0
M  V30 2916 C 295.758 -1.80238 0.900914 0
M  V30 2917 O 294.814 -2.4759 0.495513 0
M  V30 2918 C 296.127 -0.402543 2.97993 0
M  V30 2919 C 297.675 -0.48405 3.09234 0
M  V30 2920 C 298.15 -0.472144 4.5556 0
M  V30 2921 N 299.641 -0.532757 4.60126 0
M  V30 2922 C 300.376 -0.545462 5.708 0
M  V30 2923 N 299.872 -0.514082 6.9089 0
M  V30 2924 N 301.665 -0.59064 5.58988 0
M  V30 2925 H 293.816 0.799121 1.96794 0
M  V30 2926 H 296.079 0.297965 0.899956 0
M  V30 2927 H 295.785 0.528106 3.47712 0
M  V30 2928 H 295.659 -1.21969 3.56936 0
M  V30 2929 H 298.046 -1.40512 2.595 0
M  V30 2930 H 298.127 0.361328 2.53235 0
M  V30 2931 H 297.771 0.445 5.05947 0
M  V30 2932 H 297.701 -1.3348 5.09402 0
M  V30 2933 H 300.192 -0.562006 3.73698 0
M  V30 2934 H 300.505 -0.527195 7.71 0
M  V30 2935 H 298.85 -0.481054 6.93333 0
M  V30 2936 H 302.041 -0.61272 4.64073 0
M  V30 2937 H 302.214 -0.597073 6.45243 0
M  V30 2938 N 295.62 -1.53406 -0.361157 0
M  V30 2939 C 296.85 -1.73465 -1.1222 0
M  V30 2940 C 297.258 -0.465486 -1.83384 0
M  V30 2941 O 296.601 0.571611 -1.7458 0
M  V30 2942 C 296.663 -2.84834 -2.19339 0
M  V30 2943 C 296.327 -4.25038 -1.67903 0
M  V30 2944 C 297.324 -5.07231 -1.14074 0
M  V30 2945 C 295.009 -4.71464 -1.73282 0
M  V30 2946 C 297.003 -6.33942 -0.663068 0
M  V30 2947 C 294.69 -5.98153 -1.25127 0
M  V30 2948 C 295.688 -6.79223 -0.717296 0
M  V30 2949 O 295.376 -8.03533 -0.242865 0
M  V30 2950 H 295.108 -0.583526 -0.341283 0
M  V30 2951 H 297.662 -2.00964 -0.424591 0
M  V30 2952 H 295.892 -2.5282 -2.92607 0
M  V30 2953 H 297.581 -2.9303 -2.80871 0
M  V30 2954 H 298.347 -4.72534 -1.09254 0
M  V30 2955 H 294.226 -4.08432 -2.13786 0
M  V30 2956 H 297.77 -6.97167 -0.245612 0
M  V30 2957 H 293.667 -6.32347 -1.29642 0
M  V30 2958 H 294.435 -8.177 -0.361786 0
M  V30 2959 N 297.098 0.621204 -1.44841 0
M  V30 2960 C 298.031 1.7459 -1.46947 0
M  V30 2961 C 299.009 1.59273 -0.327238 0
M  V30 2962 O 300.193 1.81021 -0.525706 0
M  V30 2963 C 297.32 3.12274 -1.31159 0
M  V30 2964 C 296.366 3.46216 -2.49072 0
M  V30 2965 S 297.199 3.4258 -4.11581 0
M  V30 2966 C 298.355 4.82867 -3.98233 0
M  V30 2967 H 298.588 1.72538 -2.42111 0
M  V30 2968 H 296.121 0.796683 -1.32259 0
M  V30 2969 H 298.079 3.91722 -1.22737 0
M  V30 2970 H 296.74 3.11855 -0.374885 0
M  V30 2971 H 295.933 4.4643 -2.33915 0
M  V30 2972 H 295.535 2.74253 -2.54286 0
M  V30 2973 H 297.827 5.7234 -3.62537 0
M  V30 2974 H 298.77 5.0308 -4.98313 0
M  V30 2975 H 299.178 4.57908 -3.30121 0
M  V30 2976 N 298.576 1.31904 0.862503 0
M  V30 2977 C 299.539 1.20131 1.95195 0
M  V30 2978 C 300.539 0.126409 1.60302 0
M  V30 2979 O 301.729 0.376234 1.70089 0
M  V30 2980 C 298.861 0.845691 3.30244 0
M  V30 2981 H 300.054 2.16943 2.07064 0
M  V30 2982 H 297.607 1.15622 1.05172 0
M  V30 2983 H 298.342 -0.120957 3.24074 0
M  V30 2984 H 298.127 1.62276 3.56944 0
M  V30 2985 H 299.617 0.787418 4.10109 0
M  V30 2986 N 300.054 -1.07777 1.14986 0
M  V30 2987 C 301.301 -1.8029 0.922056 0
M  V30 2988 C 301.629 -1.86531 -0.55105 0
M  V30 2989 O 300.884 -1.34189 -1.42449 0
M  V30 2990 C 301.183 -3.25495 1.47608 0
M  V30 2991 C 300.849 -3.39361 2.96893 0
M  V30 2992 C 299.511 -3.42852 3.37647 0
M  V30 2993 C 301.863 -3.42512 3.92854 0
M  V30 2994 C 299.191 -3.47094 4.73015 0
M  V30 2995 C 301.543 -3.4829 5.28088 0
M  V30 2996 C 300.207 -3.50058 5.68345 0
M  V30 2997 H 299.477 -0.659727 0.337404 0
M  V30 2998 H 302.124 -1.26854 1.43459 0
M  V30 2999 H 300.429 -3.81683 0.88463 0
M  V30 3000 H 302.126 -3.80168 1.27568 0
M  V30 3001 H 298.716 -3.37339 2.64387 0
M  V30 3002 H 302.9 -3.3904 3.62444 0
M  V30 3003 H 298.156 -3.46758 5.03556 0
M  V30 3004 H 302.33 -3.49675 6.02246 0
M  V30 3005 H 299.957 -3.53097 6.73221 0
M  V30 3006 N 301.532 -0.945985 -1.26051 0
M  V30 3007 C 302.495 -0.463897 -2.24456 0
M  V30 3008 C 303.495 0.427655 -1.55009 0
M  V30 3009 O 304.685 0.226157 -1.72726 0
M  V30 3010 C 301.817 0.330812 -3.39291 0
M  V30 3011 H 303.01 -1.33357 -2.68619 0
M  V30 3012 H 300.563 -0.728416 -1.38289 0
M  V30 3013 H 301.298 1.21852 -3.00537 0
M  V30 3014 H 301.083 -0.308679 -3.90883 0
M  V30 3015 H 302.573 0.657865 -4.12386 0
M  V30 3016 N 303.011 1.40521 -0.713556 0
M  V30 3017 C 303.961 2.27971 -0.036165 0
M  V30 3018 C 304.945 1.43151 0.734623 0
M  V30 3019 O 306.137 1.66261 0.607158 0
M  V30 3020 C 303.266 3.31661 0.886331 0
M  V30 3021 C 302.352 4.23955 0.110836 0
M  V30 3022 N 302.743 4.97641 -0.904847 0
M  V30 3023 C 301.041 4.44674 0.343692 0
M  V30 3024 C 301.742 5.65322 -1.37064 0
M  V30 3025 N 300.718 5.39162 -0.693168 0
M  V30 3026 H 304.52 2.82384 -0.814645 0
M  V30 3027 H 302.034 1.52948 -0.545963 0
M  V30 3028 H 304.031 3.93154 1.38692 0
M  V30 3029 H 302.691 2.78808 1.66421 0
M  V30 3030 H 303.702 5.01689 -1.28563 0
M  V30 3031 H 300.379 4.02801 1.09805 0
M  V30 3032 H 301.769 6.34359 -2.21447 0
M  V30 3033 N 304.489 0.459591 1.5075 0
M  V30 3034 C 305.766 -0.160371 1.94941 0
M  V30 3035 C 306.146 -1.58048 1.39943 0
M  V30 3036 O 305.494 -2.206 0.595629 0
M  V30 3037 C 305.704 -0.115432 3.48809 0
M  V30 3038 C 307.052 -0.310026 4.23467 0
M  V30 3039 O 308.076 -0.192543 3.55679 0
M  V30 3040 O 306.935 -0.546031 5.43765 0
M  V30 3041 H 304.029 -0.117925 0.818549 0
M  V30 3042 H 306.575 0.519169 1.61563 0
M  V30 3043 H 305.347 0.87652 3.81357 0
M  V30 3044 H 304.97 -0.836928 3.88692 0
M  V30 3045 N 305.967 -1.56429 0.191757 0
M  V30 3046 C 306.897 -2.21937 -0.725696 0
M  V30 3047 C 307.878 -1.1814 -1.2238 0
M  V30 3048 O 309.063 -1.46636 -1.27325 0
M  V30 3049 C 306.193 -2.87611 -1.94672 0
M  V30 3050 C 305.147 -3.97623 -1.58366 0
M  V30 3051 C 304.473 -4.50446 -2.88102 0
M  V30 3052 C 305.773 -5.16197 -0.796133 0
M  V30 3053 H 307.467 -2.98861 -0.179606 0
M  V30 3054 H 305.013 -1.43749 -0.0849464 0
M  V30 3055 H 306.966 -3.3212 -2.59373 0
M  V30 3056 H 305.69 -2.08087 -2.51728 0
M  V30 3057 H 304.349 -3.53801 -0.960247 0
M  V30 3058 H 303.997 -3.67688 -3.43241 0
M  V30 3059 H 303.697 -5.24675 -2.64556 0
M  V30 3060 H 305.221 -4.97654 -3.53798 0
M  V30 3061 H 306.635 -5.57271 -1.34618 0
M  V30 3062 H 305.032 -5.96471 -0.658928 0
M  V30 3063 H 306.102 -4.84473 0.203478 0
M  V30 3064 N 307.445 0.0818655 -1.57387 0
M  V30 3065 C 308.378 1.12986 -1.98266 0
M  V30 3066 C 309.356 1.38123 -0.857954 0
M  V30 3067 O 310.54 1.51663 -1.1194 0
M  V30 3068 C 307.667 2.47632 -2.31076 0
M  V30 3069 C 306.713 2.38693 -3.53452 0
M  V30 3070 S 307.546 1.79071 -5.04672 0
M  V30 3071 C 308.702 3.15316 -5.40673 0
M  V30 3072 H 308.935 0.781435 -2.86846 0
M  V30 3073 H 306.468 0.290034 -1.51651 0
M  V30 3074 H 308.426 3.25089 -2.50654 0
M  V30 3075 H 307.087 2.79638 -1.43043 0
M  V30 3076 H 306.28 3.37964 -3.73893 0
M  V30 3077 H 305.882 1.69369 -3.33452 0
M  V30 3078 H 308.174 4.11613 -5.38127 0
M  V30 3079 H 309.117 2.99664 -6.41566 0
M  V30 3080 H 309.525 3.15457 -4.68132 0
M  V30 3081 N 308.923 1.53595 0.353017 0
M  V30 3082 C 309.886 1.80232 1.41594 0
M  V30 3083 C 310.886 0.673081 1.46035 0
M  V30 3084 O 312.076 0.941335 1.46576 0
M  V30 3085 C 309.208 1.93578 2.80607 0
M  V30 3086 H 310.401 2.75174 1.19244 0
M  V30 3087 H 307.954 1.44864 0.586872 0
M  V30 3088 H 308.689 1.00746 3.08254 0
M  V30 3089 H 308.474 2.75724 2.78781 0
M  V30 3090 H 309.964 2.15735 3.57558 0
M  V30 3091 N 310.401 -0.613514 1.45168 0
M  V30 3092 C 311.678 -1.37263 1.39349 0
M  V30 3093 C 312.058 -2.11012 0.0610848 0
M  V30 3094 O 311.406 -2.07502 -0.956825 0
M  V30 3095 C 311.616 -2.3244 2.60332 0
M  V30 3096 C 312.964 -2.9523 3.05163 0
M  V30 3097 O 313.988 -2.42762 2.60663 0
M  V30 3098 O 312.847 -3.90454 3.82372 0
M  V30 3099 H 309.941 -0.615188 0.552696 0
M  V30 3100 H 312.487 -0.637097 1.57287 0
M  V30 3101 H 311.259 -1.77164 3.48896 0
M  V30 3102 H 310.882 -3.13383 2.44698 0
M  V30 3103 N 311.879 -1.3236 -0.855495 0
M  V30 3104 C 312.842 -1.21164 -1.94556 0
M  V30 3105 C 313.842 -0.134908 -1.60233 0
M  V30 3106 O 315.032 -0.385249 -1.69887 0
M  V30 3107 C 312.164 -0.863192 -3.29791 0
M  V30 3108 H 313.357 -2.18038 -2.05911 0
M  V30 3109 H 310.91 -1.16179 -1.04557 0
M  V30 3110 H 311.645 0.103769 -3.24134 0
M  V30 3111 H 311.43 -1.64166 -3.56078 0
M  V30 3112 H 312.92 -0.809156 -4.09686 0
M  V30 3113 N 313.357 1.07166 -1.15556 0
M  V30 3114 C 314.289 2.14341 -0.811815 0
M  V30 3115 C 315.302 1.61835 0.177015 0
M  V30 3116 O 316.491 1.78439 -0.0464996 0
M  V30 3117 C 313.591 3.38387 -0.186481 0
M  V30 3118 C 312.764 4.20238 -1.21321 0
M  V30 3119 C 311.823 5.2266 -0.609302 0
M  V30 3120 O 310.849 5.54719 -1.27576 0
M  V30 3121 N 312.051 5.77306 0.608099 0
M  V30 3122 H 314.816 2.44431 -1.73417 0
M  V30 3123 H 312.377 1.23089 -1.0517 0
M  V30 3124 H 314.369 4.04044 0.230339 0
M  V30 3125 H 312.939 3.05994 0.639249 0
M  V30 3126 H 312.159 3.50369 -1.80652 0
M  V30 3127 H 313.447 4.71736 -1.90638 0
M  V30 3128 H 312.845 5.53513 1.1679 0
M  V30 3129 H 311.402 6.44583 0.96725 0
M  V30 3130 N 314.835 0.952656 1.25548 0
M  V30 3131 C 316.251 0.656769 1.4546 0
M  V30 3132 C 316.451 -0.78633 1.85524 0
M  V30 3133 O 315.507 -1.56183 1.98402 0
M  V30 3134 C 316.82 1.62801 2.52817 0
M  V30 3135 C 318.368 1.63897 2.66659 0
M  V30 3136 C 318.843 2.5978 3.77198 0
M  V30 3137 N 320.334 2.58133 3.84606 0
M  V30 3138 C 321.069 3.29003 4.69621 0
M  V30 3139 N 320.565 4.09339 5.58939 0
M  V30 3140 N 322.358 3.179 4.63569 0
M  V30 3141 H 314.509 1.88526 0.978344 0
M  V30 3142 H 316.772 0.810815 0.491206 0
M  V30 3143 H 316.478 2.65869 2.30232 0
M  V30 3144 H 316.352 1.38898 3.50695 0
M  V30 3145 H 318.739 0.615481 2.8861 0
M  V30 3146 H 318.82 1.91858 1.69187 0
M  V30 3147 H 318.464 3.62254 3.55997 0
M  V30 3148 H 318.394 2.29105 4.7415 0
M  V30 3149 H 320.885 1.99809 3.20757 0
M  V30 3150 H 321.198 4.6034 6.20731 0
M  V30 3151 H 319.543 4.13438 5.58654 0
M  V30 3152 H 322.734 2.54612 3.92798 0
M  V30 3153 H 322.907 3.73398 5.29602 0
M  V30 3154 N 316.313 -1.40141 0.720998 0
M  V30 3155 C 317.245 -2.29177 0.0324669 0
M  V30 3156 C 318.258 -1.46105 -0.718126 0
M  V30 3157 O 319.447 -1.69335 -0.564608 0
M  V30 3158 C 316.547 -3.24473 -0.978292 0
M  V30 3159 C 315.72 -4.36423 -0.292115 0
M  V30 3160 C 314.779 -5.12122 -1.20901 0
M  V30 3161 O 313.805 -5.64981 -0.691766 0
M  V30 3162 N 315.007 -5.21992 -2.53978 0
M  V30 3163 H 317.772 -2.88909 0.796984 0
M  V30 3164 H 315.333 -1.51569 0.569068 0
M  V30 3165 H 317.325 -3.71987 -1.59398 0
M  V30 3166 H 315.895 -2.65871 -1.64413 0
M  V30 3167 H 315.115 -3.90967 0.503847 0
M  V30 3168 H 316.403 -5.08467 0.183971 0
M  V30 3169 H 315.801 -4.8054 -2.98493 0
M  V30 3170 H 314.358 -5.72995 -3.10677 0
M  V30 3171 N 317.792 -0.46758 -1.50504 0
M  V30 3172 C 319.069 0.15003 -1.95024 0
M  V30 3173 C 319.449 1.57304 -1.40779 0
M  V30 3174 O 318.797 2.20281 -0.607319 0
M  V30 3175 C 319.007 0.0969324 -3.48865 0
M  V30 3176 C 320.355 0.287565 -4.23625 0
M  V30 3177 O 321.379 0.173678 -3.55776 0
M  V30 3178 O 320.238 0.517186 -5.44047 0
M  V30 3179 H 317.332 0.113582 -0.819163 0
M  V30 3180 H 319.878 -0.52773 -1.61286 0
M  V30 3181 H 318.65 -0.896732 -3.80886 0
M  V30 3182 H 318.273 0.816303 -3.8913 0
M  V30 3183 N 319.27 1.56325 -0.20005 0
M  V30 3184 C 320.686 1.58839 0.155716 0
M  V30 3185 C 320.886 1.21636 1.60645 0
M  V30 3186 O 319.942 0.941437 2.34293 0
M  V30 3187 C 321.255 3.0032 -0.151124 0
M  V30 3188 C 322.803 3.12866 -0.0916284 0
M  V30 3189 C 323.278 4.56488 -0.371845 0
M  V30 3190 N 324.769 4.62089 -0.320641 0
M  V30 3191 C 325.504 5.71116 -0.511243 0
M  V30 3192 N 325 6.88592 -0.762461 0
M  V30 3193 N 326.793 5.60335 -0.445157 0
M  V30 3194 H 318.944 1.78788 -1.14668 0
M  V30 3195 H 321.207 0.829996 -0.458051 0
M  V30 3196 H 320.913 3.32117 -1.15721 0
M  V30 3197 H 320.787 3.73257 0.543986 0
M  V30 3198 H 323.174 2.80878 0.905065 0
M  V30 3199 H 323.255 2.42304 -0.81989 0
M  V30 3200 H 322.899 4.89189 -1.36588 0
M  V30 3201 H 322.829 5.25246 0.377362 0
M  V30 3202 H 325.32 3.77665 -0.13329 0
M  V30 3203 H 325.633 7.67581 -0.896576 0
M  V30 3204 H 323.978 6.90387 -0.799412 0
M  V30 3205 H 327.169 4.67436 -0.249278 0
M  V30 3206 H 327.342 6.45243 -0.597116 0
M  V30 3207 N 320.748 -0.0735177 1.57428 0
M  V30 3208 C 322.159 -0.625551 1.75908 0
M  V30 3209 C 322.51 -1.78 0.825261 0
M  V30 3210 O 321.635 -2.16398 0.00893964 0
M  V30 3211 C 322.23 -1.14155 3.18989 0
M  V30 3212 C 320.789 -1.63946 3.38819 0
M  V30 3213 C 319.936 -0.558151 2.71625 0
M  V30 3214 H 322.887 0.152647 1.57964 0
M  V30 3215 H 322.908 -2.0104 3.23053 0
M  V30 3216 H 322.42 -0.301116 3.8693 0
M  V30 3217 H 320.521 -2.50321 2.7599 0
M  V30 3218 H 320.634 -1.71759 4.47253 0
M  V30 3219 H 318.998 -1.00278 2.34129 0
M  V30 3220 H 319.781 0.272071 3.4222 0
M  V30 3221 N 322.226 -1.5378 -0.344866 0
M  V30 3222 C 323.473 -1.70963 -1.08526 0
M  V30 3223 C 323.801 -0.472126 -1.88683 0
M  V30 3224 O 323.056 0.546116 -1.87926 0
M  V30 3225 C 323.355 -2.92407 -2.05506 0
M  V30 3226 C 323.021 -4.28066 -1.41671 0
M  V30 3227 C 321.683 -4.64951 -1.2399 0
M  V30 3228 C 324.035 -5.12344 -0.956726 0
M  V30 3229 C 321.363 -5.83733 -0.589277 0
M  V30 3230 C 323.715 -6.3179 -0.320015 0
M  V30 3231 C 322.379 -6.67372 -0.130881 0
M  V30 3232 H 321.649 -0.625598 -0.397124 0
M  V30 3233 H 324.296 -1.87995 -0.36469 0
M  V30 3234 H 322.601 -2.69973 -2.8394 0
M  V30 3235 H 324.298 -3.02895 -2.62784 0
M  V30 3236 H 320.888 -3.99034 -1.56429 0
M  V30 3237 H 325.072 -4.8438 -1.08118 0
M  V30 3238 H 320.328 -6.09877 -0.431344 0
M  V30 3239 H 324.502 -6.96386 0.0445072 0
M  V30 3240 H 322.129 -7.59273 0.375318 0
M  V30 3241 N 323.704 0.605807 -1.45491 0
M  V30 3242 C 324.951 1.36476 -1.49601 0
M  V30 3243 C 325.279 1.94007 -0.138452 0
M  V30 3244 O 324.534 1.75638 0.863114 0
M  V30 3245 C 324.833 2.53012 -2.52428 0
M  V30 3246 C 324.499 2.13617 -3.97087 0
M  V30 3247 C 323.161 2.02587 -4.36477 0
M  V30 3248 C 325.513 1.82899 -4.88055 0
M  V30 3249 C 322.841 1.59064 -5.64726 0
M  V30 3250 C 325.193 1.40861 -6.16718 0
M  V30 3251 C 323.857 1.28391 -6.55036 0
M  V30 3252 H 323.127 0.499402 -0.547429 0
M  V30 3253 H 325.774 0.684546 -1.78847 0
M  V30 3254 H 324.079 3.26379 -2.16758 0
M  V30 3255 H 325.776 3.1124 -2.52845 0
M  V30 3256 H 322.366 2.23129 -3.65939 0
M  V30 3257 H 326.55 1.90317 -4.58359 0
M  V30 3258 H 321.806 1.48034 -5.93208 0
M  V30 3259 H 325.98 1.16138 -6.86648 0
M  V30 3260 H 323.607 0.944403 -7.54311 0
M  V30 3261 N 325.182 1.32811 0.848464 0
M  V30 3262 C 326.112 1.24882 1.97299 0
M  V30 3263 C 327.093 0.131357 1.69592 0
M  V30 3264 O 328.278 0.319553 1.91553 0
M  V30 3265 C 325.408 0.97746 3.33261 0
M  V30 3266 C 324.362 2.05682 3.75338 0
M  V30 3267 C 323.688 1.63777 5.09 0
M  V30 3268 C 324.988 3.47254 3.90144 0
M  V30 3269 H 326.682 2.18966 2.04191 0
M  V30 3270 H 324.228 1.05413 0.981029 0
M  V30 3271 H 326.181 0.908513 4.1149 0
M  V30 3272 H 324.905 0.000980011 3.266 0
M  V30 3273 H 323.564 2.11603 2.99366 0
M  V30 3274 H 323.212 0.648569 4.98801 0
M  V30 3275 H 322.912 2.36 5.38124 0
M  V30 3276 H 324.436 1.5833 5.89715 0
M  V30 3277 H 325.85 3.43888 4.58709 0
M  V30 3278 H 324.247 4.1788 4.30693 0
M  V30 3279 H 325.317 3.86462 2.92874 0
M  V30 3280 N 326.66 -1.06551 1.16123 0
M  V30 3281 C 327.89 -1.8274 0.963838 0
M  V30 3282 C 328.298 -1.82712 -0.491228 0
M  V30 3283 O 327.641 -1.24294 -1.35265 0
M  V30 3284 C 327.703 -3.3065 1.41106 0
M  V30 3285 C 327.367 -3.54384 2.88549 0
M  V30 3286 C 328.364 -3.4765 3.86569 0
M  V30 3287 C 326.049 -3.81789 3.26408 0
M  V30 3288 C 328.043 -3.67982 5.2045 0
M  V30 3289 C 325.73 -4.01772 4.60459 0
M  V30 3290 C 326.728 -3.94866 5.57288 0
M  V30 3291 O 326.416 -4.14306 6.88916 0
M  V30 3292 H 326.148 -0.583136 0.341948 0
M  V30 3293 H 328.702 -1.35351 1.54497 0
M  V30 3294 H 326.932 -3.78887 0.773394 0
M  V30 3295 H 328.621 -3.88324 1.1815 0
M  V30 3296 H 329.387 -3.2647 3.58667 0
M  V30 3297 H 325.266 -3.86276 2.51619 0
M  V30 3298 H 328.81 -3.62507 5.96015 0
M  V30 3299 H 324.707 -4.2244 4.88072 0
M  V30 3300 H 325.475 -4.31609 6.95454 0
M  V30 3301 N 328.138 -0.959301 -1.25041 0
M  V30 3302 C 329.368 -0.63303 -1.96663 0
M  V30 3303 C 329.776 0.800031 -1.71453 0
M  V30 3304 O 329.119 1.54736 -0.99008 0
M  V30 3305 C 329.181 -0.817523 -3.50081 0
M  V30 3306 C 328.845 -2.22863 -3.98975 0
M  V30 3307 C 329.842 -3.20569 -4.09306 0
M  V30 3308 C 327.527 -2.55407 -4.32519 0
M  V30 3309 C 329.521 -4.4891 -4.52503 0
M  V30 3310 C 327.208 -3.83976 -4.754 0
M  V30 3311 C 328.206 -4.8054 -4.85356 0
M  V30 3312 O 327.894 -6.06817 -5.27284 0
M  V30 3313 H 327.626 -0.235866 -0.633516 0
M  V30 3314 H 330.18 -1.2874 -1.60047 0
M  V30 3315 H 328.41 -0.105992 -3.86555 0
M  V30 3316 H 330.099 -0.491604 -4.02912 0
M  V30 3317 H 330.865 -2.96753 -3.83618 0
M  V30 3318 H 326.744 -1.8097 -4.23994 0
M  V30 3319 H 330.288 -5.24283 -4.60188 0
M  V30 3320 H 326.185 -4.07596 -5.00535 0
M  V30 3321 H 326.953 -6.10262 -5.45457 0
M  V30 3322 N 329.616 1.39756 -0.72842 0
M  V30 3323 C 330.579 2.29012 -0.0927297 0
M  V30 3324 C 331.579 1.45992 0.674025 0
M  V30 3325 O 332.769 1.66749 0.50402 0
M  V30 3326 C 329.901 3.29396 0.878137 0
M  V30 3327 H 331.094 2.86729 -0.879011 0
M  V30 3328 H 328.647 1.48293 -0.493847 0
M  V30 3329 H 329.382 2.76722 1.69101 0
M  V30 3330 H 329.167 3.907 0.331051 0
M  V30 3331 H 330.657 3.96199 1.3197 0
M  V30 3332 N 331.094 0.475555 1.50254 0
M  V30 3333 C 332.319 -0.0777042 2.07254 0
M  V30 3334 C 332.744 -1.3235 1.3366 0
M  V30 3335 O 332.102 -1.77152 0.385597 0
M  V30 3336 C 332.15 -0.340169 3.58992 0
M  V30 3337 O 331.254 -1.41982 3.87188 0
M  V30 3338 H 330.595 0.0149556 0.663832 0
M  V30 3339 H 333.125 0.667878 1.93392 0
M  V30 3340 H 333.135 -0.579332 4.03866 0
M  V30 3341 H 331.81 0.570167 4.11973 0
M  V30 3342 H 330.387 -1.16762 3.54148 0
M  V30 3343 N 332.573 -1.56217 0.208337 0
M  V30 3344 C 333.523 -2.16324 -0.720281 0
M  V30 3345 C 334.507 -1.10775 -1.16695 0
M  V30 3346 O 335.699 -1.36801 -1.12314 0
M  V30 3347 C 332.828 -2.83644 -1.93393 0
M  V30 3348 C 331.914 -3.96401 -1.50755 0
M  V30 3349 N 332.305 -4.99546 -0.792937 0
M  V30 3350 C 330.603 -4.08246 -1.79585 0
M  V30 3351 C 331.304 -5.78828 -0.577364 0
M  V30 3352 N 330.28 -5.31723 -1.1301 0
M  V30 3353 H 334.082 -2.93432 -0.165725 0
M  V30 3354 H 331.596 -1.62397 0.00906463 0
M  V30 3355 H 333.593 -3.25107 -2.60981 0
M  V30 3356 H 332.253 -2.08027 -2.49308 0
M  V30 3357 H 333.264 -5.15967 -0.447004 0
M  V30 3358 H 329.941 -3.4377 -2.36915 0
M  V30 3359 H 331.331 -6.71899 -0.00952956 0
M  V30 3360 N 334.051 0.0651679 -1.57465 0
M  V30 3361 C 335.001 1.0838 -2.00594 0
M  V30 3362 C 335.985 1.34106 -0.889071 0
M  V30 3363 O 337.177 1.34295 -1.15299 0
M  V30 3364 C 334.306 2.39565 -2.45894 0
M  V30 3365 C 333.392 2.17085 -3.64328 0
M  V30 3366 N 333.783 1.64553 -4.78285 0
M  V30 3367 C 332.081 2.4753 -3.71006 0
M  V30 3368 C 332.782 1.57042 -5.60101 0
M  V30 3369 N 331.758 2.03328 -5.04141 0
M  V30 3370 H 335.56 0.671062 -2.86136 0
M  V30 3371 H 333.074 0.27213 -1.60104 0
M  V30 3372 H 335.071 3.13308 -2.75034 0
M  V30 3373 H 333.731 2.81549 -1.61741 0
M  V30 3374 H 334.742 1.33323 -5.00445 0
M  V30 3375 H 331.419 2.92835 -2.9758 0
M  V30 3376 H 332.809 1.17223 -6.61595 0
M  V30 3377 N 335.529 1.53961 0.336706 0
M  V30 3378 C 336.757 1.75483 1.09605 0
M  V30 3379 C 337.172 0.4972 1.82136 0
M  V30 3380 O 336.529 -0.53149 1.74589 0
M  V30 3381 C 336.58 2.93943 2.10428 0
M  V30 3382 O 336.301 4.14842 1.40846 0
M  V30 3383 C 337.802 3.27571 2.98684 0
M  V30 3384 H 335.022 0.586166 0.326574 0
M  V30 3385 H 337.566 2.00808 0.38683 0
M  V30 3386 H 335.721 2.70929 2.76905 0
M  V30 3387 H 336.135 4.81383 2.08255 0
M  V30 3388 H 337.609 4.13791 3.6535 0
M  V30 3389 H 338.086 2.44168 3.65074 0
M  V30 3390 H 338.692 3.52615 2.37787 0
M  V30 3391 N 337.007 -0.598083 1.45811 0
M  V30 3392 C 337.957 -1.70272 1.51629 0
M  V30 3393 C 338.941 -1.56382 0.378629 0
M  V30 3394 O 340.133 -1.65557 0.626087 0
M  V30 3395 C 337.262 -3.09042 1.49493 0
M  V30 3396 C 336.348 -3.28284 2.68496 0
M  V30 3397 N 336.739 -3.17748 3.93535 0
M  V30 3398 C 335.037 -3.59182 2.64394 0
M  V30 3399 C 335.738 -3.38579 4.7301 0
M  V30 3400 N 334.714 -3.63016 4.04624 0
M  V30 3401 H 338.516 -1.60634 2.46118 0
M  V30 3402 H 336.03 -0.801642 1.41235 0
M  V30 3403 H 338.027 -3.88302 1.51747 0
M  V30 3404 H 336.687 -3.19823 0.560683 0
M  V30 3405 H 337.698 -2.95944 4.25014 0
M  V30 3406 H 334.375 -3.76742 1.79922 0
M  V30 3407 H 335.765 -3.35747 5.82 0
M  V30 3408 N 338.485 -1.33259 -0.841409 0
M  V30 3409 C 339.715 -1.2742 -1.62628 0
M  V30 3410 C 340.123 0.157604 -1.88542 0
M  V30 3411 O 339.466 1.10938 -1.46419 0
M  V30 3412 C 339.528 -1.97797 -3.00194 0
M  V30 3413 C 339.192 -3.47109 -2.97261 0
M  V30 3414 C 340.189 -4.42358 -2.73159 0
M  V30 3415 C 337.874 -3.89247 -3.17478 0
M  V30 3416 C 339.868 -5.77718 -2.69296 0
M  V30 3417 C 337.555 -5.24713 -3.13241 0
M  V30 3418 C 338.553 -6.1876 -2.89181 0
M  V30 3419 O 338.241 -7.51745 -2.84843 0
M  V30 3420 H 337.973 -0.440436 -0.512827 0
M  V30 3421 H 340.527 -1.76153 -1.05638 0
M  V30 3422 H 338.757 -1.43652 -3.59028 0
M  V30 3423 H 340.446 -1.8549 -3.61038 0
M  V30 3424 H 341.212 -4.11127 -2.57294 0
M  V30 3425 H 337.091 -3.16456 -3.35226 0
M  V30 3426 H 340.635 -6.51097 -2.50436 0
M  V30 3427 H 336.532 -5.55569 -3.28654 0
M  V30 3428 H 337.3 -7.61262 -3.00702 0
M  V30 3429 N 339.963 1.05934 -1.16686 0
M  V30 3430 C 341.374 1.60263 -0.957745 0
M  V30 3431 C 341.725 1.89789 0.49745 0
M  V30 3432 O 340.85 1.67401 1.37135 0
M  V30 3433 C 341.445 2.91172 -1.73218 0
M  V30 3434 C 340.004 3.42188 -1.56794 0
M  V30 3435 C 339.151 2.16028 -1.73859 0
M  V30 3436 H 342.102 0.888392 -1.31504 0
M  V30 3437 H 342.123 3.60744 -1.21014 0
M  V30 3438 H 341.635 2.6965 -2.79124 0
M  V30 3439 H 339.736 3.68762 -0.533437 0
M  V30 3440 H 339.849 4.17273 -2.35414 0
M  V30 3441 H 338.213 2.26426 -1.16633 0
M  V30 3442 H 338.996 1.96985 -2.81161 0
M  V30 3443 N 341.441 0.965919 1.2453 0
M  V30 3444 C 342.373 0.452465 2.2469 0
M  V30 3445 C 343.386 -0.437821 1.56802 0
M  V30 3446 O 344.575 -0.244283 1.76821 0
M  V30 3447 C 341.675 -0.366258 3.36915 0
M  V30 3448 C 340.848 0.513701 4.34373 0
M  V30 3449 C 339.907 -0.248716 5.25612 0
M  V30 3450 O 338.933 0.356745 5.68081 0
M  V30 3451 N 340.135 -1.53877 5.59734 0
M  V30 3452 H 342.9 1.31361 2.69378 0
M  V30 3453 H 340.461 0.837541 1.38553 0
M  V30 3454 H 342.453 -0.884297 3.94921 0
M  V30 3455 H 341.023 -1.12832 2.91526 0
M  V30 3456 H 340.243 1.21273 3.75082 0
M  V30 3457 H 341.531 1.11391 4.96457 0
M  V30 3458 H 340.929 -2.05243 5.27154 0
M  V30 3459 H 339.486 -2.00254 6.20275 0
M  V30 3460 N 342.919 -1.39368 0.735821 0
M  V30 3461 C 344.166 -2.00497 0.284123 0
M  V30 3462 C 344.494 -1.58387 -1.12889 0
M  V30 3463 O 343.749 -0.804359 -1.78406 0
M  V30 3464 C 344.048 -3.5583 0.334651 0
M  V30 3465 C 343.714 -4.17593 1.7008 0
M  V30 3466 C 342.376 -4.34176 2.07472 0
M  V30 3467 C 344.728 -4.51848 2.59775 0
M  V30 3468 C 342.056 -4.82304 3.34065 0
M  V30 3469 C 344.408 -5.01384 3.85741 0
M  V30 3470 C 343.072 -5.16175 4.23225 0
M  V30 3471 H 342.342 -0.73367 0.103968 0
M  V30 3472 H 344.989 -1.66683 0.942825 0
M  V30 3473 H 343.294 -3.89674 -0.407625 0
M  V30 3474 H 344.991 -4.00986 -0.0329927 0
M  V30 3475 H 341.581 -4.05087 1.40008 0
M  V30 3476 H 345.765 -4.38653 2.32157 0
M  V30 3477 H 341.021 -4.91941 3.63049 0
M  V30 3478 H 345.195 -5.26863 4.55399 0
M  V30 3479 H 342.822 -5.5323 5.21384 0
M  V30 3480 N 344.397 -0.483516 -1.5 0
M  V30 3481 C 345.622 0.0667119 -2.07293 0
M  V30 3482 C 346.047 1.3164 -1.3436 0
M  V30 3483 O 345.405 1.76945 -0.394987 0
M  V30 3484 C 345.453 0.321126 -3.59167 0
M  V30 3485 O 344.557 1.39927 -3.87936 0
M  V30 3486 H 343.898 -0.0184758 -0.663743 0
M  V30 3487 H 346.428 -0.678125 -1.93035 0
M  V30 3488 H 346.438 0.557906 -4.04168 0
M  V30 3489 H 345.113 -0.592007 -4.11665 0
M  V30 3490 H 343.69 1.14882 -3.54763 0
M  V30 3491 N 345.875 1.56104 -0.216619 0
M  V30 3492 C 347.123 1.97781 0.415593 0
M  V30 3493 C 347.444 1.10536 1.60645 0
M  V30 3494 O 346.714 0.181303 1.95059 0
M  V30 3495 H 345.294 0.730415 0.156534 0
M  V30 3496 H 347.956 1.92445 -0.308366 0
M  V30 3497 H 347.052 3.03072 0.74525 0
M  V30 3498 N 347.353 -0.0568162 1.57498 0
M  V30 3499 C 348.285 -1.09292 2.01464 0
M  V30 3500 C 349.298 -1.34112 0.922913 0
M  V30 3501 O 350.487 -1.32089 1.20062 0
M  V30 3502 C 347.587 -2.44068 2.35125 0
M  V30 3503 C 346.76 -2.38995 3.66333 0
M  V30 3504 C 345.819 -3.55997 3.87495 0
M  V30 3505 O 344.845 -3.36746 4.58901 0
M  V30 3506 N 346.047 -4.76888 3.30996 0
M  V30 3507 H 348.812 -0.718386 2.90963 0
M  V30 3508 H 346.373 -0.245235 1.60032 0
M  V30 3509 H 348.365 -3.21011 2.46443 0
M  V30 3510 H 346.935 -2.73468 1.5144 0
M  V30 3511 H 346.155 -1.47336 3.65631 0
M  V30 3512 H 347.443 -2.3272 4.52458 0
M  V30 3513 H 346.841 -4.95431 2.73065 0
M  V30 3514 H 345.398 -5.51291 3.47738 0
M  V30 3515 N 348.832 -1.54138 -0.328536 0
M  V30 3516 C 350.057 -1.76378 -1.09112 0
M  V30 3517 C 350.482 -0.508596 -1.81094 0
M  V30 3518 O 349.84 0.539598 -1.73084 0
M  V30 3519 C 349.888 -2.95358 -2.06872 0
M  V30 3520 O 348.992 -2.66556 -3.14677 0
M  V30 3521 H 348.333 -0.584614 -0.314838 0
M  V30 3522 H 350.863 -2.01146 -0.374348 0
M  V30 3523 H 350.873 -3.22566 -2.4983 0
M  V30 3524 H 349.548 -3.86385 -1.5388 0
M  V30 3525 H 348.125 -2.50282 -2.7643 0
M  V30 3526 N 350.31 0.590341 -1.46126 0
M  V30 3527 C 351.557 1.34882 -1.5104 0
M  V30 3528 C 351.885 1.93849 -0.159021 0
M  V30 3529 O 351.14 1.76544 0.844436 0
M  V30 3530 C 351.439 2.5032 -2.55097 0
M  V30 3531 C 351.105 2.09394 -3.99331 0
M  V30 3532 C 349.767 1.97947 -4.38601 0
M  V30 3533 C 352.119 1.77712 -4.89967 0
M  V30 3534 C 349.447 1.53065 -5.66381 0
M  V30 3535 C 351.799 1.34312 -6.18177 0
M  V30 3536 C 350.463 1.21436 -6.56361 0
M  V30 3537 H 349.733 0.493568 -0.552695 0
M  V30 3538 H 352.38 0.665539 -1.79563 0
M  V30 3539 H 350.685 3.24062 -2.20207 0
M  V30 3540 H 352.382 3.08541 -2.56132 0
M  V30 3541 H 348.972 2.19235 -3.68285 0
M  V30 3542 H 353.156 1.85445 -4.60352 0
M  V30 3543 H 348.412 1.41733 -5.94745 0
M  V30 3544 H 352.586 1.08849 -6.87841 0
M  V30 3545 H 350.213 0.864345 -7.5527 0
M  V30 3546 N 351.788 1.33704 0.83433 0
M  V30 3547 C 352.751 1.24244 1.92603 0
M  V30 3548 C 353.751 0.160383 1.59998 0
M  V30 3549 O 354.941 0.412228 1.69252 0
M  V30 3550 C 352.073 0.91555 3.28376 0
M  V30 3551 H 353.266 2.21287 2.02416 0
M  V30 3552 H 350.819 1.17827 1.02696 0
M  V30 3553 H 351.554 -0.0521886 3.24258 0
M  V30 3554 H 351.339 1.69811 3.53422 0
M  V30 3555 H 352.829 0.874231 4.08347 0
M  V30 3556 N 353.266 -1.05314 1.17247 0
M  V30 3557 C 354.176 -2.16538 0.90268 0
M  V30 3558 C 355.192 -1.73523 -0.128707 0
M  V30 3559 O 356.368 -2.01337 0.0502701 0
M  V30 3560 C 353.433 -3.44167 0.418356 0
M  V30 3561 C 352.494 -4.01635 1.51618 0
M  V30 3562 C 351.727 -5.23171 1.05487 0
M  V30 3563 O 351.95 -5.70327 -0.0914715 0
M  V30 3564 O 350.884 -5.72848 1.8474 0
M  V30 3565 H 354.71 -2.42145 1.83302 0
M  V30 3566 H 352.295 -1.15037 0.953246 0
M  V30 3567 H 354.177 -4.21112 0.155726 0
M  V30 3568 H 352.852 -3.20063 -0.48385 0
M  V30 3569 H 351.759 -3.26135 1.83268 0
M  V30 3570 H 353.092 -4.30053 2.39405 0
M  V30 3571 N 354.744 -0.972509 -1.24016 0
M  V30 3572 C 356.16 -0.679827 -1.44397 0
M  V30 3573 C 356.36 0.756716 -1.86751 0
M  V30 3574 O 355.416 1.53007 -2.00861 0
M  V30 3575 C 356.729 -1.66803 -2.50195 0
M  V30 3576 C 358.277 -1.68119 -2.64017 0
M  V30 3577 C 358.752 -2.65748 -3.73017 0
M  V30 3578 N 360.243 -2.64219 -3.8045 0
M  V30 3579 C 360.978 -3.36433 -4.64328 0
M  V30 3580 N 360.474 -4.1818 -5.52356 0
M  V30 3581 N 362.267 -3.25235 -4.58453 0
M  V30 3582 H 354.418 -1.90059 -0.948228 0
M  V30 3583 H 356.681 -0.818527 -0.478245 0
M  V30 3584 H 356.387 -2.69498 -2.25973 0
M  V30 3585 H 356.261 -1.4446 -3.48441 0
M  V30 3586 H 358.648 -0.661319 -2.87594 0
M  V30 3587 H 358.729 -1.94525 -1.66113 0
M  V30 3588 H 358.373 -3.67872 -3.50189 0
M  V30 3589 H 358.303 -2.36619 -4.70446 0
M  V30 3590 H 360.794 -2.04887 -3.17537 0
M  V30 3591 H 361.107 -4.70157 -6.13329 0
M  V30 3592 H 359.452 -4.22273 -5.52006 0
M  V30 3593 H 362.643 -2.60829 -3.88698 0
M  V30 3594 H 362.816 -3.81776 -5.23594 0
M  V30 3595 N 356.222 1.38976 -0.743202 0
M  V30 3596 C 357.447 2.05161 -0.303936 0
M  V30 3597 C 357.872 1.55677 1.05576 0
M  V30 3598 O 357.23 0.704131 1.67068 0
M  V30 3599 C 357.278 3.59138 -0.324373 0
M  V30 3600 O 356.382 4.06668 0.685204 0
M  V30 3601 H 355.723 0.649815 -0.136518 0
M  V30 3602 H 358.253 1.77852 -1.01142 0
M  V30 3603 H 358.263 4.07639 -0.171618 0
M  V30 3604 H 356.938 3.94515 -1.31647 0
M  V30 3605 H 355.515 3.69561 0.497913 0
M  V30 3606 N 357.7 0.491464 1.49741 0
M  V30 3607 C 358.948 -0.0563141 2.02022 0
M  V30 3608 C 359.269 -1.38363 1.37407 0
M  V30 3609 O 358.539 -1.88702 0.526166 0
M  V30 3610 H 357.119 -0.0238014 0.746621 0
M  V30 3611 H 359.781 0.646533 1.83864 0
M  V30 3612 H 358.877 -0.192967 3.11503 0
M  V30 3613 N 359.178 -1.55987 0.224894 0
M  V30 3614 C 360.594 -1.59066 -0.130426 0
M  V30 3615 C 360.794 -1.24176 -1.5869 0
M  V30 3616 O 359.85 -0.978592 -2.32766 0
M  V30 3617 C 361.163 -3.00042 0.198883 0
M  V30 3618 C 362.711 -3.1268 0.141391 0
M  V30 3619 C 363.186 -4.55839 0.444422 0
M  V30 3620 N 364.677 -4.6152 0.394115 0
M  V30 3621 C 365.412 -5.70231 0.602038 0
M  V30 3622 N 364.908 -6.87291 0.871914 0
M  V30 3623 N 366.701 -5.59555 0.534245 0
M  V30 3624 H 358.852 -1.76941 1.17497 0
M  V30 3625 H 361.115 -0.822604 0.471197 0
M  V30 3626 H 360.821 -3.30234 1.2099 0
M  V30 3627 H 360.695 -3.74075 -0.484535 0
M  V30 3628 H 363.082 -2.82283 -0.860265 0
M  V30 3629 H 363.163 -2.40969 0.858335 0
M  V30 3630 H 362.807 -4.86954 1.44353 0
M  V30 3631 H 362.737 -5.2578 -0.293752 0
M  V30 3632 H 365.228 -3.77405 0.193356 0
M  V30 3633 H 365.541 -7.66058 1.01858 0
M  V30 3634 H 363.886 -6.89028 0.909145 0
M  V30 3635 H 367.077 -4.6698 0.323612 0
M  V30 3636 H 367.25 -6.44211 0.699693 0
M  V30 3637 N 360.656 0.0484629 -1.57525 0
M  V30 3638 C 361.904 0.741657 -1.88 0
M  V30 3639 C 362.225 1.76918 -0.820054 0
M  V30 3640 O 361.495 1.95335 0.148661 0
M  V30 3641 H 360.075 0.276908 -0.69378 0
M  V30 3642 H 362.737 0.019013 -1.94891 0
M  V30 3643 H 361.833 1.24336 -2.86264 0
M  V30 3644 N 362.134 1.5431 0.320358 0
M  V30 3645 C 363.545 1.63872 0.894594 0
M  V30 3646 C 363.896 0.534847 1.88769 0
M  V30 3647 O 363.021 -0.331732 2.13842 0
M  V30 3648 C 363.616 2.97049 1.62934 0
M  V30 3649 C 362.175 3.08796 2.15226 0
M  V30 3650 C 361.322 2.59456 0.978671 0
M  V30 3651 H 364.273 1.58398 0.0978544 0
M  V30 3652 H 364.294 2.87388 2.49376 0
M  V30 3653 H 363.806 3.7737 0.906302 0
M  V30 3654 H 361.907 2.33156 2.90636 0
M  V30 3655 H 362.02 4.14649 2.40006 0
M  V30 3656 H 360.384 2.1543 1.35875 0
M  V30 3657 H 361.167 3.42237 0.269895 0
M  V30 3658 N 363.613 -0.582584 1.46437 0
M  V30 3659 C 364.86 -1.34079 1.51753 0
M  V30 3660 C 365.188 -1.93762 0.169299 0
M  V30 3661 O 364.443 -1.76989 -0.835062 0
M  V30 3662 C 364.742 -2.48964 2.56421 0
M  V30 3663 C 364.408 -2.07273 4.00436 0
M  V30 3664 C 363.07 -1.95618 4.39644 0
M  V30 3665 C 365.422 -1.75111 4.90903 0
M  V30 3666 C 362.75 -1.5006 5.67185 0
M  V30 3667 C 365.102 -1.31032 6.18881 0
M  V30 3668 C 363.766 -1.17954 6.56996 0
M  V30 3669 H 363.036 -0.49063 0.555304 0
M  V30 3670 H 365.683 -0.656007 1.79913 0
M  V30 3671 H 363.988 -3.22889 2.21923 0
M  V30 3672 H 365.685 -3.07178 2.57765 0
M  V30 3673 H 362.275 -2.17279 3.69443 0
M  V30 3674 H 366.459 -1.83001 4.61329 0
M  V30 3675 H 361.715 -1.38577 5.95488 0
M  V30 3676 H 365.889 -1.052 6.88408 0
M  V30 3677 H 363.516 -0.824279 7.55718 0
M  V30 3678 N 365.091 -1.34144 -0.827227 0
M  V30 3679 C 366.339 -1.26009 -1.58007 0
M  V30 3680 C 366.66 0.170971 -1.94249 0
M  V30 3681 O 365.93 1.10256 -1.61927 0
M  V30 3682 H 364.51 -0.463414 -0.585881 0
M  V30 3683 H 367.172 -1.68005 -0.987951 0
M  V30 3684 H 366.268 -1.86187 -2.50481 0
M  V30 3685 N 366.569 1.04691 -1.17803 0
M  V30 3686 C 367.846 1.7472 -0.879328 0
M  V30 3687 C 368.226 2.01812 0.619271 0
M  V30 3688 O 367.574 1.65824 1.57209 0
M  V30 3689 C 367.784 3.03686 -1.71976 0
M  V30 3690 C 369.132 3.77542 -1.94286 0
M  V30 3691 O 370.156 3.13569 -1.68976 0
M  V30 3692 O 369.015 4.92506 -2.36855 0
M  V30 3693 H 366.109 0.760011 -0.326056 0
M  V30 3694 H 368.655 1.10813 -1.28525 0
M  V30 3695 H 367.427 2.79754 -2.73594 0
M  V30 3696 H 367.05 3.75332 -1.31194 0
M  V30 3697 N 368.047 0.979072 1.23499 0
M  V30 3698 C 369.272 0.664845 1.96455 0
M  V30 3699 C 369.697 -0.761287 1.72006 0
M  V30 3700 O 369.055 -1.51837 0.990713 0
M  V30 3701 C 369.103 0.959479 3.47601 0
M  V30 3702 O 368.207 0.0508168 4.12369 0
M  V30 3703 H 367.548 0.250185 0.615064 0
M  V30 3704 H 370.078 1.31231 1.5697 0
M  V30 3705 H 370.088 0.895642 3.98048 0
M  V30 3706 H 368.763 1.99876 3.64723 0
M  V30 3707 H 367.34 0.16895 3.72517 0
M  V30 3708 N 369.525 -1.3858 0.750561 0
M  V30 3709 C 370.455 -2.33102 0.136237 0
M  V30 3710 C 371.436 -1.54713 -0.706965 0
M  V30 3711 O 372.621 -1.83043 -0.648769 0
M  V30 3712 C 369.751 -3.38882 -0.760017 0
M  V30 3713 C 368.705 -4.27995 -0.0197785 0
M  V30 3714 C 368.031 -5.24605 -1.03408 0
M  V30 3715 C 369.331 -5.09554 1.14684 0
M  V30 3716 H 371.025 -2.84726 0.925822 0
M  V30 3717 H 368.571 -1.36898 0.446654 0
M  V30 3718 H 370.524 -4.0397 -1.19943 0
M  V30 3719 H 369.248 -2.85734 -1.58189 0
M  V30 3720 H 367.907 -3.64409 0.400184 0
M  V30 3721 H 367.555 -4.67746 -1.84994 0
M  V30 3722 H 367.255 -5.85081 -0.543464 0
M  V30 3723 H 368.779 -5.9257 -1.47288 0
M  V30 3724 H 370.193 -5.67899 0.785118 0
M  V30 3725 H 368.59 -5.7925 1.56812 0
M  V30 3726 H 369.66 -4.4347 1.96118 0
M  V30 3727 N 371.003 -0.499398 -1.49478 0
M  V30 3728 C 371.936 0.326491 -2.25852 0
M  V30 3729 C 372.914 0.971776 -1.30366 0
M  V30 3730 O 374.098 1.00219 -1.59651 0
M  V30 3731 C 371.225 1.45969 -3.05632 0
M  V30 3732 C 370.271 0.928938 -4.16261 0
M  V30 3733 S 371.104 -0.179012 -5.35201 0
M  V30 3734 C 372.26 0.957389 -6.18534 0
M  V30 3735 H 372.493 -0.321746 -2.95554 0
M  V30 3736 H 370.026 -0.284674 -1.51753 0
M  V30 3737 H 371.984 2.109 -3.52181 0
M  V30 3738 H 370.645 2.07953 -2.35402 0
M  V30 3739 H 369.838 1.77813 -4.71592 0
M  V30 3740 H 369.44 0.356869 -3.72293 0
M  V30 3741 H 371.732 1.86296 -6.51383 0
M  V30 3742 H 372.675 0.442733 -7.06715 0
M  V30 3743 H 373.083 1.224 -5.5107 0
M  V30 3744 N 372.481 1.55866 -0.233164 0
M  V30 3745 C 373.391 2.24431 0.683217 0
M  V30 3746 C 374.407 1.2558 1.2044 0
M  V30 3747 O 375.583 1.58422 1.24356 0
M  V30 3748 C 372.648 2.91979 1.86947 0
M  V30 3749 C 371.709 4.06204 1.38912 0
M  V30 3750 C 370.942 4.70522 2.51883 0
M  V30 3751 O 371.165 4.33865 3.70293 0
M  V30 3752 O 370.099 5.59296 2.22423 0
M  V30 3753 H 373.925 3.03426 0.129059 0
M  V30 3754 H 371.51 1.494 -0.0022283 0
M  V30 3755 H 373.392 3.34573 2.56201 0
M  V30 3756 H 372.067 2.15935 2.41151 0
M  V30 3757 H 370.974 3.68155 0.664259 0
M  V30 3758 H 372.307 4.84025 0.893328 0
M  V30 3759 N 373.959 -0.0401083 1.57549 0
M  V30 3760 C 374.889 -1.04384 2.08869 0
M  V30 3761 C 375.87 -1.38407 0.988817 0
M  V30 3762 O 377.055 -1.47483 1.26342 0
M  V30 3763 C 374.185 -2.34808 2.55895 0
M  V30 3764 C 373.139 -2.15057 3.70047 0
M  V30 3765 C 372.465 -3.51145 4.03239 0
M  V30 3766 C 373.765 -1.54576 4.98902 0
M  V30 3767 H 375.459 -0.616666 2.92981 0
M  V30 3768 H 373.005 -0.295184 1.40942 0
M  V30 3769 H 374.958 -3.05346 2.90417 0
M  V30 3770 H 373.682 -2.79565 1.68853 0
M  V30 3771 H 372.341 -1.46954 3.35857 0
M  V30 3772 H 371.989 -3.93529 3.13279 0
M  V30 3773 H 371.689 -3.38758 4.80122 0
M  V30 3774 H 373.213 -4.23062 4.40285 0
M  V30 3775 H 374.627 -2.15017 5.31451 0
M  V30 3776 H 373.024 -1.52796 5.80322 0
M  V30 3777 H 374.094 -0.51039 4.82206 0
M  V30 3778 N 375.437 -1.54477 -0.31217 0
M  V30 3779 C 376.714 -1.63891 -1.06767 0
M  V30 3780 C 377.094 -0.480028 -2.0557 0
M  V30 3781 O 376.442 0.524487 -2.22399 0
M  V30 3782 C 376.652 -3.01402 -1.75948 0
M  V30 3783 C 378 -3.57838 -2.28554 0
M  V30 3784 O 379.024 -3.03782 -1.85998 0
M  V30 3785 O 377.883 -4.52462 -3.06497 0
M  V30 3786 H 374.977 -0.664125 -0.492816 0
M  V30 3787 H 377.523 -1.66823 -0.311149 0
M  V30 3788 H 376.295 -3.77187 -1.04144 0
M  V30 3789 H 375.918 -3.02199 -2.58383 0
M  V30 3790 N 376.915 0.57481 -1.46744 0
M  V30 3791 C 377.878 1.66533 -1.57478 0
M  V30 3792 C 378.878 1.54338 -0.451263 0
M  V30 3793 O 380.068 1.58814 -0.715813 0
M  V30 3794 C 377.2 3.05999 -1.50259 0
M  V30 3795 H 378.393 1.58372 -2.54673 0
M  V30 3796 H 375.946 0.793301 -1.34672 0
M  V30 3797 H 376.681 3.19709 -0.543725 0
M  V30 3798 H 376.466 3.16259 -2.31781 0
M  V30 3799 H 377.956 3.8537 -1.60872 0
M  V30 3800 N 378.394 1.34581 0.820102 0
M  V30 3801 C 379.357 1.2628 1.91275 0
M  V30 3802 C 380.357 0.177344 1.59819 0
M  V30 3803 O 381.547 0.430156 1.68806 0
M  V30 3804 C 378.679 0.950327 3.27386 0
M  V30 3805 H 379.872 2.23421 2.00057 0
M  V30 3806 H 377.425 1.1891 1.0144 0
M  V30 3807 H 378.16 -0.0177938 3.24295 0
M  V30 3808 H 377.945 1.73549 3.51601 0
M  V30 3809 H 379.435 0.917492 4.07396 0
M  V30 3810 N 379.872 -1.04064 1.18357 0
M  V30 3811 C 381.118 -1.77528 0.980397 0
M  V30 3812 C 381.451 -1.87948 -0.48879 0
M  V30 3813 O 380.726 -1.3876 -1.36293 0
M  V30 3814 C 381.009 -3.20797 1.63588 0
M  V30 3815 C 380.862 -3.1832 3.17793 0
M  V30 3816 C 382.181 -4.18911 1.34914 0
M  V30 3817 H 379.3 -0.644443 0.357578 0
M  V30 3818 H 381.942 -1.2156 1.46024 0
M  V30 3819 H 380.092 -3.68586 1.22788 0
M  V30 3820 H 381.764 -2.78521 3.67728 0
M  V30 3821 H 380.007 -2.56351 3.49952 0
M  V30 3822 H 380.678 -4.19489 3.58794 0
M  V30 3823 H 383.154 -3.7967 1.70265 0
M  V30 3824 H 382.03 -5.17374 1.83346 0
M  V30 3825 H 382.291 -4.41262 0.272027 0
M  V30 3826 N 381.35 -0.985608 -1.22978 0
M  V30 3827 C 382.598 -0.656087 -1.91154 0
M  V30 3828 C 382.919 0.813561 -1.77218 0
M  V30 3829 O 382.189 1.58244 -1.1548 0
M  V30 3830 H 380.769 -0.239674 -0.707506 0
M  V30 3831 H 383.431 -1.25054 -1.49491 0
M  V30 3832 H 382.527 -0.912253 -2.9847 0
M  V30 3833 N 382.828 1.3818 -0.7579 0
M  V30 3834 C 384.056 2.04301 -0.326937 0
M  V30 3835 C 384.471 1.57163 1.0462 0
M  V30 3836 O 383.828 0.746626 1.66529 0
M  V30 3837 C 383.879 3.59846 -0.345363 0
M  V30 3838 O 383.6 4.05256 -1.66432 0
M  V30 3839 C 385.101 4.4319 0.098927 0
M  V30 3840 H 382.321 0.656443 -0.139012 0
M  V30 3841 H 384.865 1.76786 -1.02796 0
M  V30 3842 H 383.02 3.86182 0.306955 0
M  V30 3843 H 383.434 4.99709 -1.59345 0
M  V30 3844 H 384.908 5.51989 0.0348745 0
M  V30 3845 H 385.385 4.23947 1.14741 0
M  V30 3846 H 385.991 4.22051 -0.52468 0
M  V30 3847 N 384.306 0.507319 1.49211 0
M  V30 3848 C 385.236 -0.256939 2.32082 0
M  V30 3849 C 386.217 -0.956609 1.40652 0
M  V30 3850 O 387.402 -0.946788 1.69557 0
M  V30 3851 C 384.532 -1.31802 3.21318 0
M  V30 3852 C 383.486 -0.737855 4.21592 0
M  V30 3853 C 382.812 -1.89992 4.99807 0
M  V30 3854 C 384.112 0.275325 5.21574 0
M  V30 3855 H 385.806 0.434798 2.96226 0
M  V30 3856 H 383.352 0.210546 1.42452 0
M  V30 3857 H 385.305 -1.86045 3.78107 0
M  V30 3858 H 384.029 -2.03903 2.5513 0
M  V30 3859 H 382.688 -0.217126 3.65956 0
M  V30 3860 H 382.336 -2.60877 4.30061 0
M  V30 3861 H 382.036 -1.51777 5.6766 0
M  V30 3862 H 383.56 -2.44657 5.59442 0
M  V30 3863 H 384.974 -0.179193 5.7302 0
M  V30 3864 H 383.371 0.573649 5.97352 0
M  V30 3865 H 384.441 1.18903 4.70096 0
M  V30 3866 N 385.784 -1.5574 0.241426 0
M  V30 3867 C 386.717 -2.17168 -0.700935 0
M  V30 3868 C 387.695 -1.12206 -1.1768 0
M  V30 3869 O 388.879 -1.40565 -1.25593 0
M  V30 3870 C 386.006 -2.76796 -1.95196 0
M  V30 3871 C 385.052 -3.94764 -1.61442 0
M  V30 3872 S 385.885 -5.30613 -0.72182 0
M  V30 3873 C 387.041 -5.93691 -1.98197 0
M  V30 3874 H 387.274 -2.96761 -0.178882 0
M  V30 3875 H 384.807 -1.54378 0.0259299 0
M  V30 3876 H 386.765 -3.11787 -2.67019 0
M  V30 3877 H 385.426 -1.9716 -2.44514 0
M  V30 3878 H 384.619 -4.35057 -2.54443 0
M  V30 3879 H 384.221 -3.61022 -0.976672 0
M  V30 3880 H 386.513 -6.10874 -2.92983 0
M  V30 3881 H 387.456 -6.89258 -1.62262 0
M  V30 3882 H 387.864 -5.22709 -2.13156 0
M  V30 3883 N 387.262 0.0317525 -1.57568 0
M  V30 3884 C 388.49 0.734949 -1.93407 0
M  V30 3885 C 388.905 1.69036 -0.84096 0
M  V30 3886 O 388.262 1.81582 0.182836 0
M  V30 3887 C 388.313 1.49432 -3.29169 0
M  V30 3888 O 388.034 0.577261 -4.3428 0
M  V30 3889 C 389.535 2.29492 -3.79273 0
M  V30 3890 H 386.755 0.206706 -0.638368 0
M  V30 3891 H 389.299 -0.00992046 -2.04498 0
M  V30 3892 H 387.454 2.1911 -3.19483 0
M  V30 3893 H 387.868 1.10952 -5.1263 0
M  V30 3894 H 389.342 2.78172 -4.76785 0
M  V30 3895 H 389.819 3.10794 -3.10328 0
M  V30 3896 H 390.425 1.64894 -3.92033 0
M  V30 3897 N 388.74 1.54641 0.303973 0
M  V30 3898 C 389.703 1.84646 1.35789 0
M  V30 3899 C 390.703 0.7192 1.4382 0
M  V30 3900 O 391.893 0.987491 1.43507 0
M  V30 3901 C 389.025 2.02407 2.74307 0
M  V30 3902 H 390.218 2.78829 1.10429 0
M  V30 3903 H 387.771 1.46658 0.540487 0
M  V30 3904 H 388.506 1.10502 3.04893 0
M  V30 3905 H 388.291 2.84453 2.69868 0
M  V30 3906 H 389.781 2.27002 3.50514 0
M  V30 3907 N 390.218 -0.567019 1.47046 0
M  V30 3908 C 391.467 -1.32091 1.5243 0
M  V30 3909 C 391.78 -1.94704 0.187021 0
M  V30 3910 O 392.986 -2.7124 0.118771 0
M  V30 3911 C 391.442 -2.39479 2.68659 0
M  V30 3912 C 391.05 -1.831 4.08874 0
M  V30 3913 C 392.794 -3.16111 2.83327 0
M  V30 3914 C 390.701 -2.8821 5.16419 0
M  V30 3915 H 389.631 -0.496629 0.56734 0
M  V30 3916 H 392.282 -0.603354 1.73297 0
M  V30 3917 H 390.664 -3.14105 2.41152 0
M  V30 3918 H 391.838 -1.14913 4.46242 0
M  V30 3919 H 390.153 -1.19085 3.99008 0
M  V30 3920 H 392.75 -3.94585 3.60842 0
M  V30 3921 H 393.093 -3.69686 1.91411 0
M  V30 3922 H 393.626 -2.48595 3.10556 0
M  V30 3923 H 390.365 -2.39504 6.10179 0
M  V30 3924 H 389.885 -3.54839 4.8358 0
M  V30 3925 H 391.564 -3.51881 5.42945 0
M  V30 3926 N 391.696 -1.35014 -0.812953 0
M  V30 3927 C 392.944 -1.27678 -1.56661 0
M  V30 3928 C 393.265 0.150359 -1.94419 0
M  V30 3929 O 392.535 1.08532 -1.63088 0
M  V30 3930 H 391.115 -0.469602 -0.580933 0
M  V30 3931 H 393.777 -1.69043 -0.970076 0
M  V30 3932 H 392.873 -1.88833 -2.48492 0
M  V30 3933 N 393.175 1.03435 -1.18907 0
M  V30 3934 C 394.452 1.73778 -0.89781 0
M  V30 3935 C 394.832 2.02458 0.597832 0
M  V30 3936 O 394.18 1.67482 1.55441 0
M  V30 3937 C 394.39 3.01845 -1.75187 0
M  V30 3938 C 395.738 3.7546 -1.9828 0
M  V30 3939 O 396.762 3.11759 -1.72293 0
M  V30 3940 O 395.621 4.89966 -2.42065 0
M  V30 3941 H 392.715 0.75651 -0.334098 0
M  V30 3942 H 395.261 1.09444 -1.29693 0
M  V30 3943 H 394.033 2.76836 -2.76545 0
M  V30 3944 H 393.656 3.73919 -1.35167 0
M  V30 3945 N 394.653 0.992116 1.22453 0
M  V30 3946 C 395.583 0.561677 2.26644 0
M  V30 3947 C 396.564 -0.411055 1.65059 0
M  V30 3948 O 397.749 -0.301861 1.9184 0
M  V30 3949 C 394.879 -0.125247 3.47074 0
M  V30 3950 C 393.833 0.765948 4.21091 0
M  V30 3951 C 393.159 -0.0538484 5.34673 0
M  V30 3952 C 394.459 2.06242 4.79856 0
M  V30 3953 H 396.153 1.43259 2.62902 0
M  V30 3954 H 393.699 0.690283 1.26377 0
M  V30 3955 H 395.652 -0.437764 4.1912 0
M  V30 3956 H 394.376 -1.03069 3.0991 0
M  V30 3957 H 393.035 1.0621 3.50878 0
M  V30 3958 H 392.683 -0.960188 4.9375 0
M  V30 3959 H 392.383 0.539415 5.85119 0
M  V30 3960 H 393.907 -0.360477 6.09535 0
M  V30 3961 H 395.321 1.8139 5.43848 0
M  V30 3962 H 393.718 2.60444 5.40638 0
M  V30 3963 H 394.788 2.74167 3.99951 0
M  V30 3964 N 396.131 -1.37776 0.765217 0
M  V30 3965 C 397.379 -1.99454 0.325943 0
M  V30 3966 C 397.7 -1.61049 -1.09947 0
M  V30 3967 O 396.97 -0.872821 -1.75381 0
M  V30 3968 H 395.55 -0.737697 0.117525 0
M  V30 3969 H 398.212 -1.68359 0.981895 0
M  V30 3970 H 397.308 -3.09547 0.398353 0
M  V30 3971 N 397.609 -0.515225 -1.4894 0
M  V30 3972 C 398.539 0.244628 -2.32215 0
M  V30 3973 C 399.52 0.949136 -1.41157 0
M  V30 3974 O 400.705 0.937783 -1.70057 0
M  V30 3975 C 397.835 1.30096 -3.22013 0
M  V30 3976 C 396.789 0.715486 -4.21977 0
M  V30 3977 C 396.115 1.87339 -5.00808 0
M  V30 3978 C 397.415 -0.302982 -5.2142 0
M  V30 3979 H 399.109 -0.450501 -2.95991 0
M  V30 3980 H 396.655 -0.218098 -1.42339 0
M  V30 3981 H 398.608 1.84037 -3.79089 0
M  V30 3982 H 397.332 2.02547 -2.56207 0
M  V30 3983 H 395.991 0.197715 -3.66066 0
M  V30 3984 H 395.639 2.58592 -4.31438 0
M  V30 3985 H 395.339 1.48764 -5.68457 0
M  V30 3986 H 396.863 2.41686 -5.60732 0
M  V30 3987 H 398.277 0.148802 -5.73107 0
M  V30 3988 H 396.674 -0.60532 -5.97039 0
M  V30 3989 H 397.744 -1.21395 -4.69459 0
M  V30 3990 N 399.087 1.5561 -0.249682 0
M  V30 3991 C 400.017 2.24477 0.642826 0
M  V30 3992 C 400.998 1.22601 1.17911 0
M  V30 3993 O 402.183 1.5126 1.21795 0
M  V30 3994 C 399.313 2.94638 1.83863 0
M  V30 3995 C 398.267 4.03227 1.435 0
M  V30 3996 C 397.593 4.60828 2.71186 0
M  V30 3997 C 398.893 5.18796 0.604002 0
M  V30 3998 H 400.587 2.99321 0.0685625 0
M  V30 3999 H 398.133 1.43965 0.0315363 0
M  V30 4000 H 400.086 3.41517 2.46868 0
M  V30 4001 H 398.81 2.17287 2.43832 0
M  V30 4002 H 397.469 3.57121 0.828275 0
M  V30 4003 H 397.117 3.80174 3.29358 0
M  V30 4004 H 396.817 5.34132 2.44901 0
M  V30 4005 H 398.341 5.10442 3.35084 0
M  V30 4006 H 399.755 5.61883 1.13842 0
M  V30 4007 H 398.152 5.98506 0.437097 0
M  V30 4008 H 399.222 4.83384 -0.383147 0
M  V30 4009 N 400.565 -0.0233959 1.57583 0
M  V30 4010 C 401.475 -1.03907 2.10334 0
M  V30 4011 C 402.491 -1.39257 1.04323 0
M  V30 4012 O 403.667 -1.48462 1.36091 0
M  V30 4013 C 400.732 -2.31938 2.57693 0
M  V30 4014 C 399.793 -2.03117 3.78209 0
M  V30 4015 C 399.026 -3.25043 4.233 0
M  V30 4016 O 399.249 -4.35916 3.67876 0
M  V30 4017 O 398.183 -3.10411 5.15683 0
M  V30 4018 H 402.009 -0.620748 2.97288 0
M  V30 4019 H 399.594 -0.240743 1.47448 0
M  V30 4020 H 401.476 -3.07196 2.88458 0
M  V30 4021 H 400.151 -2.73055 1.73847 0
M  V30 4022 H 399.058 -1.25408 3.52454 0
M  V30 4023 H 400.391 -1.66852 4.63056 0
M  V30 4024 N 402.043 -1.548 -0.295768 0
M  V30 4025 C 402.953 -1.89177 -1.38742 0
M  V30 4026 C 403.969 -0.786481 -1.55211 0
M  V30 4027 O 405.145 -1.08344 -1.69775 0
M  V30 4028 C 402.21 -2.13663 -2.73036 0
M  V30 4029 C 401.271 -3.37349 -2.65508 0
M  V30 4030 C 400.504 -3.60658 -3.93398 0
M  V30 4031 O 400.727 -2.86882 -4.93006 0
M  V30 4032 O 399.661 -4.54179 -3.94975 0
M  V30 4033 H 403.487 -2.82059 -1.12589 0
M  V30 4034 H 401.072 -1.41056 -0.492295 0
M  V30 4035 H 402.954 -2.3094 -3.52484 0
M  V30 4036 H 401.629 -1.23967 -2.99022 0
M  V30 4037 H 400.536 -3.25431 -1.84514 0
M  V30 4038 H 401.869 -4.27192 -2.44474 0
M  V30 4039 N 403.521 0.559213 -1.47345 0
M  V30 4040 C 404.749 1.34194 -1.57479 0
M  V30 4041 C 405.164 1.87463 -0.224261 0
M  V30 4042 O 404.521 1.64888 0.782185 0
M  V30 4043 C 404.572 2.51324 -2.59843 0
M  V30 4044 O 404.293 2.00256 -3.89653 0
M  V30 4045 C 405.794 3.43563 -2.80142 0
M  V30 4046 H 403.014 0.409136 -0.531835 0
M  V30 4047 H 405.558 0.677609 -1.92947 0
M  V30 4048 H 403.713 3.13699 -2.27314 0
M  V30 4049 H 404.127 2.76708 -4.4557 0
M  V30 4050 H 405.601 4.2217 -3.55635 0
M  V30 4051 H 406.078 3.9698 -1.87892 0
M  V30 4052 H 406.684 2.87005 -3.1386 0
M  V30 4053 N 404.999 1.35443 0.805782 0
M  V30 4054 C 405.929 1.31095 1.93226 0
M  V30 4055 C 406.91 0.185244 1.69088 0
M  V30 4056 O 408.095 0.380332 1.90439 0
M  V30 4057 C 405.225 1.08299 3.29983 0
M  V30 4058 C 404.179 2.17519 3.68605 0
M  V30 4059 C 403.505 1.79887 5.03532 0
M  V30 4060 C 404.805 3.5949 3.78898 0
M  V30 4061 H 406.499 2.25352 1.97122 0
M  V30 4062 H 404.045 1.0848 0.946996 0
M  V30 4063 H 405.998 1.03897 4.08391 0
M  V30 4064 H 404.722 0.104885 3.26432 0
M  V30 4065 H 403.381 2.2102 2.92482 0
M  V30 4066 H 403.029 0.80693 4.96485 0
M  V30 4067 H 402.729 2.53001 5.30344 0
M  V30 4068 H 404.253 1.77011 5.84379 0
M  V30 4069 H 405.667 3.58307 4.47536 0
M  V30 4070 H 404.064 4.31371 4.1718 0
M  V30 4071 H 405.134 3.95584 2.80431 0
M  V30 4072 N 406.477 -1.02803 1.19454 0
M  V30 4073 C 407.723 -1.76478 0.999171 0
M  V30 4074 C 408.056 -1.88456 -0.468828 0
M  V30 4075 O 407.331 -1.40198 -1.34814 0
M  V30 4076 C 407.614 -3.19044 1.66981 0
M  V30 4077 C 407.467 -3.14932 3.21151 0
M  V30 4078 C 408.786 -4.17456 1.39349 0
M  V30 4079 H 405.905 -0.640614 0.364393 0
M  V30 4080 H 408.547 -1.20005 1.47305 0
M  V30 4081 H 406.697 -3.67263 1.2669 0
M  V30 4082 H 408.369 -2.74605 3.70661 0
M  V30 4083 H 406.612 -2.52625 3.52652 0
M  V30 4084 H 407.283 -4.1566 3.63223 0
M  V30 4085 H 409.759 -3.77842 1.74283 0
M  V30 4086 H 408.635 -5.154 1.88823 0
M  V30 4087 H 408.896 -4.40949 0.318813 0
M  V30 4088 N 407.956 -0.998596 -1.21925 0
M  V30 4089 C 409.205 -0.673085 -1.90138 0
M  V30 4090 C 409.518 0.79895 -1.78539 0
M  V30 4091 O 410.724 1.23628 -2.4172 0
M  V30 4092 C 409.18 -1.15339 -3.40918 0
M  V30 4093 C 408.788 -2.65106 -3.61141 0
M  V30 4094 C 410.532 -0.902476 -4.14796 0
M  V30 4095 C 408.439 -3.0671 -5.05651 0
M  V30 4096 H 407.369 -0.248057 -0.712028 0
M  V30 4097 H 410.02 -1.20891 -1.38049 0
M  V30 4098 H 408.402 -0.545658 -3.92223 0
M  V30 4099 H 409.576 -3.31274 -3.20304 0
M  V30 4100 H 407.891 -2.88142 -3.00605 0
M  V30 4101 H 410.488 -1.18895 -5.21314 0
M  V30 4102 H 410.831 0.161349 -4.15987 0
M  V30 4103 H 411.364 -1.47269 -3.69536 0
M  V30 4104 H 408.103 -4.12292 -5.09603 0
M  V30 4105 H 407.623 -2.45249 -5.47369 0
M  V30 4106 H 409.302 -2.9833 -5.74115 0
M  V30 4107 N 409.434 1.37368 -0.772513 0
M  V30 4108 C 410.681 1.99673 -0.337182 0
M  V30 4109 C 411.009 1.61324 1.0865 0
M  V30 4110 O 410.264 0.851377 1.7621 0
M  V30 4111 C 410.563 3.54817 -0.428876 0
M  V30 4112 C 410.229 4.12936 -1.81092 0
M  V30 4113 C 408.891 4.28523 -2.1891 0
M  V30 4114 C 411.243 4.44801 -2.71664 0
M  V30 4115 C 408.571 4.73277 -3.46735 0
M  V30 4116 C 410.923 4.90981 -3.98899 0
M  V30 4117 C 409.587 5.04773 -4.36761 0
M  V30 4118 H 408.857 0.730656 -0.123384 0
M  V30 4119 H 411.504 1.64124 -0.986686 0
M  V30 4120 H 409.809 3.90618 0.304167 0
M  V30 4121 H 411.506 4.00933 -0.0733334 0
M  V30 4122 H 408.096 4.01233 -1.50699 0
M  V30 4123 H 412.28 4.32344 -2.43706 0
M  V30 4124 H 407.536 4.82142 -3.75964 0
M  V30 4125 H 411.71 5.14603 -4.69208 0
M  V30 4126 H 409.337 5.39211 -5.35868 0
M  V30 4127 N 410.912 0.523116 1.48665 0
M  V30 4128 C 412.14 -0.0096312 2.06898 0
M  V30 4129 C 412.555 -1.28784 1.38059 0
M  V30 4130 O 411.912 -1.76453 0.465893 0
M  V30 4131 C 411.963 -0.244386 3.60673 0
M  V30 4132 O 411.684 0.983172 4.26925 0
M  V30 4133 C 413.185 -0.818289 4.35682 0
M  V30 4134 H 410.405 0.0304161 0.67031 0
M  V30 4135 H 412.949 0.726799 1.91149 0
M  V30 4136 H 411.104 -0.930847 3.76051 0
M  V30 4137 H 411.518 0.759653 5.1897 0
M  V30 4138 H 412.992 -0.93201 5.44075 0
M  V30 4139 H 413.469 -1.82153 3.99646 0
M  V30 4140 H 414.075 -0.168609 4.24966 0
M  V30 4141 N 412.39 -1.55475 0.257931 0
M  V30 4142 C 413.353 -2.20551 -0.623706 0
M  V30 4143 C 414.353 -1.17809 -1.09443 0
M  V30 4144 O 415.543 -1.42823 -0.997362 0
M  V30 4145 C 412.675 -2.85784 -1.8585 0
M  V30 4146 H 413.868 -2.99848 -0.0557743 0
M  V30 4147 H 411.421 -1.56298 0.0084422 0
M  V30 4148 H 412.156 -2.10453 -2.46739 0
M  V30 4149 H 411.941 -3.61057 -1.52907 0
M  V30 4150 H 413.431 -3.35553 -2.48584 0
M  V30 4151 N 413.868 0.0150385 -1.57593 0
M  V30 4152 C 415.145 0.7392 -1.81094 0
M  V30 4153 C 415.525 1.92817 -0.859344 0
M  V30 4154 O 414.873 2.28301 0.095362 0
M  V30 4155 C 415.083 1.15907 -3.29191 0
M  V30 4156 C 416.431 1.56918 -3.9454 0
M  V30 4157 O 417.455 1.25328 -3.33424 0
M  V30 4158 O 416.314 2.15604 -5.02173 0
M  V30 4159 H 413.408 0.358631 -0.745193 0
M  V30 4160 H 415.954 -0.00926156 -1.69697 0
M  V30 4161 H 414.726 0.310921 -3.90063 0
M  V30 4162 H 414.349 1.96711 -3.45529 0
M  V30 4163 N 415.346 1.54954 0.287554 0
M  V30 4164 C 416.294 1.87606 1.37502 0
M  V30 4165 C 417.288 0.751001 1.51843 0
M  V30 4166 O 418.494 0.935169 1.53801 0
M  V30 4167 H 414.869 0.595231 0.459569 0
M  V30 4168 H 416.84 2.78477 1.07206 0
M  V30 4169 C 415.589 2.15183 2.73115 0
M  V30 4170 H 414.912 3.01234 2.62866 0
M  V30 4171 H 416.352 2.4196 3.48183 0
M  V30 4172 C 414.811 0.954686 3.2309 0
M  V30 4173 O 415.341 0.181949 4.01288 0
M  V30 4174 N 413.547 0.756368 2.80584 0
M  V30 4175 H 413.094 1.38643 2.17108 0
M  V30 4176 H 413.052 -0.0430391 3.14371 0
M  V30 4177 N 416.824 -0.551391 1.4764 0
M  V30 4178 C 418.072 -1.30572 1.54258 0
M  V30 4179 C 418.393 -1.93877 0.208963 0
M  V30 4180 O 417.663 -1.80234 -0.767619 0
M  V30 4181 H 416.243 -0.484894 0.568231 0
M  V30 4182 H 418.905 -0.643402 1.83974 0
M  V30 4183 H 418.001 -2.09621 2.31226 0
M  V30 4184 N 418.302 -1.35869 -0.798587 0
M  V30 4185 C 419.713 -1.26498 -1.37314 0
M  V30 4186 C 420.064 0.0991899 -1.95949 0
M  V30 4187 O 419.189 1.0004 -1.91888 0
M  V30 4188 C 419.784 -2.29054 -2.49639 0
M  V30 4189 C 418.343 -2.234 -3.02935 0
M  V30 4190 C 417.49 -2.14329 -1.75949 0
M  V30 4191 H 420.441 -1.46881 -0.600971 0
M  V30 4192 H 420.462 -1.92166 -3.28409 0
M  V30 4193 H 419.974 -3.2833 -2.06933 0
M  V30 4194 H 418.075 -1.27562 -3.50084 0
M  V30 4195 H 418.188 -3.15703 -3.60372 0
M  V30 4196 H 416.552 -1.60435 -1.9782 0
M  V30 4197 H 417.335 -3.15477 -1.35384 0
M  V30 4198 N 419.78 1.02168 -1.19998 0
M  V30 4199 C 420.69 2.14069 -0.959774 0
M  V30 4200 C 421.706 1.73804 0.082655 0
M  V30 4201 O 422.882 2.01133 -0.103633 0
M  V30 4202 C 419.947 3.42936 -0.509459 0
M  V30 4203 C 419.008 3.97474 -1.62213 0
M  V30 4204 C 418.241 5.2019 -1.19321 0
M  V30 4205 O 418.464 5.70369 -0.0597726 0
M  V30 4206 O 417.398 5.67749 -1.99863 0
M  V30 4207 H 421.224 2.37199 -1.89658 0
M  V30 4208 H 418.809 1.12469 -0.983411 0
M  V30 4209 H 420.691 4.20551 -0.267322 0
M  V30 4210 H 419.366 3.21234 0.398821 0
M  V30 4211 H 418.273 3.21161 -1.9185 0
M  V30 4212 H 419.606 4.23555 -2.50723 0
M  V30 4213 N 421.258 1.00505 1.21394 0
M  V30 4214 C 422.486 0.706609 1.9446 0
M  V30 4215 C 422.901 -0.73081 1.74082 0
M  V30 4216 O 422.258 -1.49446 1.04747 0
M  V30 4217 C 422.309 1.01824 3.46863 0
M  V30 4218 O 422.03 2.39919 3.66566 0
M  V30 4219 C 423.531 0.739216 4.37093 0
M  V30 4220 H 420.751 0.260394 0.618414 0
M  V30 4221 H 423.295 1.34311 1.54211 0
M  V30 4222 H 421.45 0.427343 3.85036 0
M  V30 4223 H 421.864 2.50784 4.6066 0
M  V30 4224 H 423.338 1.00744 5.42729 0
M  V30 4225 H 423.815 -0.326746 4.37983 0
M  V30 4226 H 424.421 1.31173 4.04566 0
M  V30 4227 N 422.737 -1.36956 0.779787 0
M  V30 4228 C 423.67 -2.27896 0.117681 0
M  V30 4229 C 424.648 -1.46736 -0.700523 0
M  V30 4230 O 425.832 -1.76055 -0.673568 0
M  V30 4231 C 422.959 -3.28136 -0.839296 0
M  V30 4232 C 422.005 -4.26373 -0.10409 0
M  V30 4233 S 422.838 -5.2157 1.21348 0
M  V30 4234 C 423.994 -6.25359 0.260249 0
M  V30 4235 H 424.227 -2.83704 0.888778 0
M  V30 4236 H 421.76 -1.43352 0.57355 0
M  V30 4237 H 423.718 -3.86394 -1.38601 0
M  V30 4238 H 422.379 -2.7126 -1.58356 0
M  V30 4239 H 421.572 -4.97121 -0.82986 0
M  V30 4240 H 421.174 -3.72147 0.371858 0
M  V30 4241 H 423.466 -6.75145 -0.564435 0
M  V30 4242 H 424.409 -7.01885 0.936135 0
M  V30 4243 H 424.817 -5.64345 -0.132127 0
M  V30 4244 N 424.215 -0.530993 -1.48385 0
M  V30 4245 C 425.631 -0.188919 -1.58478 0
M  V30 4246 C 425.831 1.30786 -1.53288 0
M  V30 4247 O 424.887 2.08619 -1.42248 0
M  V30 4248 C 426.2 -0.792343 -2.90073 0
M  V30 4249 C 427.748 -0.76117 -3.03604 0
M  V30 4250 C 428.223 -1.34319 -4.37861 0
M  V30 4251 N 429.714 -1.3052 -4.44431 0
M  V30 4252 C 430.449 -1.72543 -5.46824 0
M  V30 4253 N 429.945 -2.22299 -6.56167 0
M  V30 4254 N 431.738 -1.63773 -5.37712 0
M  V30 4255 H 423.889 -1.50377 -1.50002 0
M  V30 4256 H 426.152 -0.625559 -0.712306 0
M  V30 4257 H 425.858 -1.84323 -2.99529 0
M  V30 4258 H 425.732 -0.270026 -3.76232 0
M  V30 4259 H 428.119 0.280957 -2.93759 0
M  V30 4260 H 428.2 -1.32097 -2.19053 0
M  V30 4261 H 427.844 -2.38425 -4.4846 0
M  V30 4262 H 427.774 -0.759064 -5.21101 0
M  V30 4263 H 430.265 -0.940973 -3.65997 0
M  V30 4264 H 430.578 -2.52356 -7.30436 0
M  V30 4265 H 428.923 -2.26293 -6.57127 0
M  V30 4266 H 432.114 -1.24698 -4.51185 0
M  V30 4267 H 432.287 -1.96844 -6.17379 0
M  V30 4268 N 425.693 1.55336 -0.266172 0
M  V30 4269 C 426.626 2.18256 0.666296 0
M  V30 4270 C 427.604 1.14064 1.1588 0
M  V30 4271 O 428.788 1.42546 1.23341 0
M  V30 4272 C 425.915 2.79867 1.90768 0
M  V30 4273 C 424.961 3.97283 1.55141 0
M  V30 4274 S 425.794 5.31694 0.637313 0
M  V30 4275 C 426.95 5.96769 1.88727 0
M  V30 4276 H 427.183 2.97008 0.131647 0
M  V30 4277 H 424.716 1.54317 -0.0504869 0
M  V30 4278 H 426.674 3.15996 2.62025 0
M  V30 4279 H 425.335 2.01025 2.41346 0
M  V30 4280 H 424.528 4.3905 2.4749 0
M  V30 4281 H 424.13 3.6253 0.919113 0
M  V30 4282 H 426.422 6.15458 2.83227 0
M  V30 4283 H 427.365 6.91752 1.51276 0
M  V30 4284 H 427.773 5.26034 2.04814 0
M  V30 4285 N 427.171 -0.0066808 1.57599 0
M  V30 4286 C 428.396 -0.707738 1.94951 0
M  V30 4287 C 428.821 -1.66882 0.867868 0
M  V30 4288 O 428.179 -1.80457 -0.17458 0
M  V30 4289 C 428.227 -1.42162 3.31394 0
M  V30 4290 O 427.331 -2.53578 3.25226 0
M  V30 4291 H 426.672 -0.188752 0.636607 0
M  V30 4292 H 429.202 0.0445193 2.04552 0
M  V30 4293 H 429.212 -1.78655 3.66806 0
M  V30 4294 H 427.887 -0.716903 4.09675 0
M  V30 4295 H 426.464 -2.19463 3.01481 0
M  V30 4296 N 428.649 -1.55105 -0.279332 0
M  V30 4297 C 430.065 -1.46803 -0.626187 0
M  V30 4298 C 430.265 -0.676939 -1.89789 0
M  V30 4299 O 429.321 -0.19326 -2.51759 0
M  V30 4300 C 430.634 -2.90962 -0.759034 0
M  V30 4301 C 432.182 -3.01138 -0.853504 0
M  V30 4302 C 432.657 -4.46539 -1.01818 0
M  V30 4303 N 434.148 -4.50341 -1.08386 0
M  V30 4304 C 434.883 -5.60053 -1.22996 0
M  V30 4305 N 434.379 -6.79645 -1.34366 0
M  V30 4306 N 436.172 -5.47783 -1.26056 0
M  V30 4307 H 428.323 -2.04996 0.555921 0
M  V30 4308 H 430.586 -0.929325 0.187239 0
M  V30 4309 H 430.292 -3.51544 0.104852 0
M  V30 4310 H 430.166 -3.39619 -1.64131 0
M  V30 4311 H 432.553 -2.40658 -1.70786 0
M  V30 4312 H 432.634 -2.55745 0.0532466 0
M  V30 4313 H 432.278 -5.0762 -0.168504 0
M  V30 4314 H 432.208 -4.89583 -1.93948 0
M  V30 4315 H 434.699 -3.64191 -1.00864 0
M  V30 4316 H 435.012 -7.59012 -1.4533 0
M  V30 4317 H 433.357 -6.82469 -1.31382 0
M  V30 4318 H 436.548 -4.53294 -1.168 0
M  V30 4319 H 436.721 -6.33331 -1.37098 0
M  V30 4320 N 430.127 0.543554 -1.4793 0
M  V30 4321 C 431.375 1.29752 -1.54948 0
M  V30 4322 C 431.696 1.93764 -0.219242 0
M  V30 4323 O 430.966 1.80639 0.75805 0
M  V30 4324 H 429.546 0.481874 -0.570795 0
M  V30 4325 H 432.208 0.633636 -1.84312 0
M  V30 4326 H 431.304 2.08392 -2.32334 0
M  V30 4327 N 431.605 1.3629 0.791371 0
M  V30 4328 C 432.853 1.30154 1.5461 0
M  V30 4329 C 433.174 -0.119409 1.94634 0
M  V30 4330 O 432.444 -1.05924 1.64794 0
M  V30 4331 H 431.024 0.478784 0.573389 0
M  V30 4332 H 433.686 1.70565 0.94306 0
M  V30 4333 H 432.782 1.92762 2.45457 0
M  V30 4334 N 433.083 -1.0153 1.20538 0
M  V30 4335 C 434.323 -1.76689 1.02763 0
M  V30 4336 C 434.687 -1.87065 -0.432513 0
M  V30 4337 O 435.888 -2.58684 -0.730481 0
M  V30 4338 C 434.159 -3.14707 1.69393 0
M  V30 4339 S 435.718 -4.05886 1.66738 0
M  V30 4340 H 432.536 -0.608076 0.368463 0
M  V30 4341 H 435.138 -1.21558 1.53114 0
M  V30 4342 H 433.842 -3.04782 2.74838 0
M  V30 4343 H 433.373 -3.74913 1.19179 0
M  V30 4344 H 435.388 -4.91221 0.70117 0
M  V30 4345 N 434.561 -1.01147 -1.20859 0
M  V30 4346 C 435.786 -0.716698 -1.94623 0
M  V30 4347 C 436.211 0.715415 -1.73964 0
M  V30 4348 O 435.569 1.49157 -1.03062 0
M  V30 4349 C 435.617 -1.0513 -3.44935 0
M  V30 4350 O 434.721 -0.160131 -4.12089 0
M  V30 4351 H 434.062 -0.266404 -0.608214 0
M  V30 4352 H 436.592 -1.35346 -1.53436 0
M  V30 4353 H 436.602 -1.00086 -3.95533 0
M  V30 4354 H 435.277 -2.09475 -3.59295 0
M  V30 4355 H 433.854 -0.267657 -3.71938 0
M  V30 4356 N 436.039 1.36541 -0.78704 0
M  V30 4357 C 437.287 1.98911 -0.357633 0
M  V30 4358 C 437.608 1.62778 1.07371 0
M  V30 4359 O 436.878 0.900612 1.73971 0
M  V30 4360 H 435.458 0.735734 -0.129246 0
M  V30 4361 H 438.12 1.66776 -1.00855 0
M  V30 4362 H 437.216 3.08874 -0.447549 0
M  V30 4363 N 437.518 0.538854 1.48102 0
M  V30 4364 C 438.448 -0.207654 2.32575 0
M  V30 4365 C 439.429 -0.926559 1.4265 0
M  V30 4366 O 440.614 -0.91061 1.71527 0
M  V30 4367 C 437.744 -1.24957 3.24042 0
M  V30 4368 C 436.698 -0.648263 4.23062 0
M  V30 4369 C 436.024 -1.79348 5.03725 0
M  V30 4370 C 437.324 0.385897 5.20872 0
M  V30 4371 H 439.018 0.497534 2.95237 0
M  V30 4372 H 436.564 0.240715 1.41974 0
M  V30 4373 H 438.517 -1.77983 3.81969 0
M  V30 4374 H 437.241 -1.98446 2.59397 0
M  V30 4375 H 435.9 -0.139452 3.66335 0
M  V30 4376 H 435.548 -2.51696 4.35498 0
M  V30 4377 H 435.248 -1.39702 5.70751 0
M  V30 4378 H 436.772 -2.32735 5.64506 0
M  V30 4379 H 438.186 -0.057607 5.73271 0
M  V30 4380 H 436.583 0.700227 5.96001 0
M  V30 4381 H 437.653 1.28848 4.67468 0
M  V30 4382 N 438.996 -1.55193 0.274407 0
M  V30 4383 C 439.926 -2.25471 -0.607032 0
M  V30 4384 C 440.907 -1.24461 -1.15946 0
M  V30 4385 O 442.092 -1.53179 -1.19373 0
M  V30 4386 C 439.222 -2.97526 -1.79153 0
M  V30 4387 C 438.176 -4.05459 -1.37067 0
M  V30 4388 C 437.502 -4.65084 -2.6382 0
M  V30 4389 C 438.802 -5.19691 -0.521389 0
M  V30 4390 H 440.496 -2.99393 -0.0209343 0
M  V30 4391 H 438.042 -1.43997 -0.00862866 0
M  V30 4392 H 439.995 -3.45402 -2.41404 0
M  V30 4393 H 438.719 -2.21138 -2.40344 0
M  V30 4394 H 437.378 -3.58393 -0.771355 0
M  V30 4395 H 437.026 -3.85365 -3.23268 0
M  V30 4396 H 436.726 -5.37961 -2.36372 0
M  V30 4397 H 438.25 -5.15708 -3.26921 0
M  V30 4398 H 439.664 -5.63623 -1.04889 0
M  V30 4399 H 438.061 -5.99126 -0.341825 0
M  V30 4400 H 439.131 -4.82713 0.46 0
M  V30 4401 N 440.474 -0.00167713 -1.576 0
M  V30 4402 C 441.89 0.354422 -1.55615 0
M  V30 4403 C 442.09 1.74679 -1.00447 0
M  V30 4404 O 441.146 2.4428 -0.639022 0
M  V30 4405 C 442.459 0.22812 -2.99833 0
M  V30 4406 C 444.007 0.302934 -3.11531 0
M  V30 4407 C 444.482 0.205737 -4.57538 0
M  V30 4408 N 445.973 0.263584 -4.62449 0
M  V30 4409 C 446.708 0.211742 -5.73009 0
M  V30 4410 N 446.204 0.110399 -6.92712 0
M  V30 4411 N 447.997 0.263729 -5.61481 0
M  V30 4412 H 440.148 -0.912498 -1.918 0
M  V30 4413 H 442.411 -0.349928 -0.881053 0
M  V30 4414 H 442.117 -0.729934 -3.44042 0
M  V30 4415 H 441.991 1.00951 -3.6344 0
M  V30 4416 H 444.378 1.25143 -2.67251 0
M  V30 4417 H 444.459 -0.508357 -2.50698 0
M  V30 4418 H 444.103 -0.739225 -5.02492 0
M  V30 4419 H 444.033 1.03554 -5.16318 0
M  V30 4420 H 446.524 0.343173 -3.76339 0
M  V30 4421 H 446.837 0.0767828 -7.72762 0
M  V30 4422 H 445.182 0.0760025 -6.94958 0
M  V30 4423 H 448.373 0.34111 -4.66855 0
M  V30 4424 H 448.546 0.219862 -6.47627 0
M  V30 4425 N 441.952 1.55251 0.271103 0
M  V30 4426 C 443.192 1.77698 1.01008 0
M  V30 4427 C 443.556 0.567246 1.83429 0
M  V30 4428 O 444.757 0.670013 2.60316 0
M  V30 4429 C 443.028 3.04715 1.86772 0
M  V30 4430 S 444.587 3.48289 2.66909 0
M  V30 4431 H 441.405 0.624343 0.340172 0
M  V30 4432 H 444.007 1.9348 0.280315 0
M  V30 4433 H 442.711 3.90853 1.25149 0
M  V30 4434 H 442.242 2.91604 2.64066 0
M  V30 4435 H 444.257 3.07712 3.89266 0
M  V30 4436 N 443.43 -0.535701 1.48216 0
M  V30 4437 C 444.678 -1.28928 1.55634 0
M  V30 4438 C 444.999 -1.93645 0.229514 0
M  V30 4439 O 444.269 -1.81038 -0.74846 0
M  V30 4440 H 442.849 -0.47884 0.573342 0
M  V30 4441 H 445.511 -0.623853 1.84646 0
M  V30 4442 H 444.607 -2.07157 2.33436 0
M  V30 4443 N 444.908 -1.36708 -0.784132 0
M  V30 4444 C 445.855 -1.31466 -1.89698 0
M  V30 4445 C 446.825 -0.18239 -1.65096 0
M  V30 4446 O 448.01 -0.369762 -1.87183 0
M  V30 4447 C 445.15 -1.1151 -3.26588 0
M  V30 4448 C 444.263 -2.33859 -3.63227 0
M  V30 4449 C 443.398 -2.06873 -4.89262 0
M  V30 4450 C 442.437 -3.25154 -5.18595 0
M  V30 4451 N 441.574 -2.978 -6.35814 0
M  V30 4452 H 446.414 -2.26619 -1.93515 0
M  V30 4453 H 443.951 -1.12625 -0.946256 0
M  V30 4454 H 445.909 -0.979653 -4.05535 0
M  V30 4455 H 444.539 -0.200103 -3.22179 0
M  V30 4456 H 443.591 -2.58188 -2.79362 0
M  V30 4457 H 444.903 -3.22109 -3.8085 0
M  V30 4458 H 444.057 -1.90289 -5.76086 0
M  V30 4459 H 442.796 -1.15942 -4.73718 0
M  V30 4460 H 441.801 -3.42292 -4.30251 0
M  V30 4461 H 443.026 -4.1692 -5.36055 0
M  V30 4462 H 440.972 -2.09485 -6.21653 0
M  V30 4463 H 440.889 -3.7959 -6.53794 0
M  V30 4464 H 442.157 -2.84805 -7.25607 0
M  V30 4465 N 446.386 1.0089 -1.21074 0
M  V30 4466 C 447.634 1.74262 -1.02358 0
M  V30 4467 C 447.955 1.89869 0.444393 0
M  V30 4468 O 447.225 1.44677 1.32081 0
M  V30 4469 H 445.805 0.645615 -0.375754 0
M  V30 4470 H 448.467 1.21596 -1.52317 0
M  V30 4471 H 447.563 2.74328 -1.4883 0
M  V30 4472 N 447.864 1.01787 1.20321 0
M  V30 4473 C 449.092 0.727194 1.937 0
M  V30 4474 C 449.507 -0.712305 1.74848 0
M  V30 4475 O 448.864 -1.48327 1.06327 0
M  V30 4476 C 448.915 1.05497 3.45764 0
M  V30 4477 O 448.636 2.43794 3.64 0
M  V30 4478 C 450.137 0.785534 4.36285 0
M  V30 4479 H 447.357 0.266939 0.615617 0
M  V30 4480 H 449.901 1.35939 1.52777 0
M  V30 4481 H 448.056 0.468158 3.84561 0
M  V30 4482 H 448.47 2.55656 4.57974 0
M  V30 4483 H 449.944 1.06495 5.4163 0
M  V30 4484 H 450.421 -0.280273 4.38305 0
M  V30 4485 H 451.027 1.35456 4.03152 0
M  V30 4486 N 449.342 -1.36122 0.79427 0
M  V30 4487 C 450.57 -2.03362 0.380989 0
M  V30 4488 C 450.985 -1.59881 -1.00416 0
M  V30 4489 O 450.342 -0.790515 -1.6449 0
M  V30 4490 C 450.393 -3.58804 0.440649 0
M  V30 4491 O 450.114 -4.007 1.77118 0
M  V30 4492 C 451.615 -4.43296 0.0186117 0
M  V30 4493 H 448.835 -0.652526 0.156367 0
M  V30 4494 H 451.379 -1.73998 1.07447 0
M  V30 4495 H 449.534 -3.8686 -0.204458 0
M  V30 4496 H 449.948 -4.95309 1.72538 0
M  V30 4497 H 451.422 -5.51887 0.111488 0
M  V30 4498 H 451.899 -4.2684 -1.03461 0
M  V30 4499 H 452.505 -4.20512 0.636395 0
M  V30 4500 N 450.82 -0.546701 -1.47814 0
M  V30 4501 C 452.05 -0.0232519 -2.06587 0
M  V30 4502 C 452.458 1.2712 -1.40133 0
M  V30 4503 O 451.801 1.77091 -0.488305 0
M  V30 4504 C 451.863 0.254117 -3.58601 0
M  V30 4505 C 451.527 -0.949331 -4.47031 0
M  V30 4506 C 452.524 -1.85216 -4.85789 0
M  V30 4507 C 450.209 -1.16104 -4.88697 0
M  V30 4508 C 452.203 -2.95047 -5.65001 0
M  V30 4509 C 449.89 -2.26247 -5.67676 0
M  V30 4510 C 450.888 -3.1555 -6.05737 0
M  V30 4511 O 450.576 -4.23784 -6.83127 0
M  V30 4512 H 450.308 -0.0380082 -0.674931 0
M  V30 4513 H 452.862 -0.756631 -1.90956 0
M  V30 4514 H 451.092 1.04168 -3.72406 0
M  V30 4515 H 452.781 0.72167 -3.99433 0
M  V30 4516 H 453.547 -1.70061 -4.54207 0
M  V30 4517 H 449.426 -0.475159 -4.58545 0
M  V30 4518 H 452.97 -3.64778 -5.94628 0
M  V30 4519 H 448.867 -2.41379 -5.98671 0
M  V30 4520 H 449.635 -4.21701 -7.01506 0
M  V30 4521 N 452.299 1.55045 -0.282633 0
M  V30 4522 C 453.209 2.26491 0.61147 0
M  V30 4523 C 454.225 1.29348 1.16384 0
M  V30 4524 O 455.401 1.62298 1.19253 0
M  V30 4525 C 452.466 2.97779 1.77563 0
M  V30 4526 C 451.527 4.10418 1.25919 0
M  V30 4527 C 450.76 4.78297 2.36786 0
M  V30 4528 O 450.983 4.45426 3.56303 0
M  V30 4529 O 449.917 5.66089 2.04517 0
M  V30 4530 H 453.743 3.03683 0.0324615 0
M  V30 4531 H 451.328 1.49317 -0.0497576 0
M  V30 4532 H 453.21 3.42554 2.45427 0
M  V30 4533 H 451.885 2.23498 2.34159 0
M  V30 4534 H 450.792 3.70082 0.546797 0
M  V30 4535 H 452.125 4.86622 0.738887 0
M  V30 4536 N 453.777 0.010035 1.57597 0
M  V30 4537 C 455.025 -0.671371 1.90623 0
M  V30 4538 C 455.346 -1.73753 0.885151 0
M  V30 4539 O 454.616 -1.95752 -0.0760611 0
M  V30 4540 H 453.196 -0.250968 0.703579 0
M  V30 4541 H 455.858 0.0533325 1.94827 0
M  V30 4542 H 454.954 -1.13626 2.90681 0
M  V30 4543 N 455.255 -1.55392 -0.262866 0
M  V30 4544 C 456.503 -1.76127 -0.991147 0
M  V30 4545 C 456.824 -0.571083 -1.8645 0
M  V30 4546 O 456.094 0.413698 -1.91482 0
M  V30 4547 H 454.674 -0.649528 -0.368948 0
M  V30 4548 H 457.336 -1.9281 -0.284655 0
M  V30 4549 H 456.432 -2.6663 -1.62219 0
M  V30 4550 N 456.733 0.527833 -1.48498 0
M  V30 4551 C 457.979 1.28545 -1.56857 0
M  V30 4552 C 458.312 1.92678 -0.242651 0
M  V30 4553 O 457.587 1.79394 0.751545 0
M  V30 4554 C 457.87 2.37314 -2.70839 0
M  V30 4555 C 457.723 1.77858 -4.13142 0
M  V30 4556 C 459.042 3.39068 -2.80573 0
M  V30 4557 H 456.161 0.466006 -0.570971 0
M  V30 4558 H 458.803 0.587784 -1.8068 0
M  V30 4559 H 456.953 2.96821 -2.50658 0
M  V30 4560 H 458.625 1.22385 -4.44769 0
M  V30 4561 H 456.868 1.08383 -4.20042 0
M  V30 4562 H 457.539 2.56624 -4.88721 0
M  V30 4563 H 460.015 2.89518 -2.98862 0
M  V30 4564 H 458.891 4.12566 -3.6205 0
M  V30 4565 H 459.152 3.9975 -1.88818 0
M  V30 4566 N 458.211 1.37122 0.776871 0
M  V30 4567 C 459.627 1.1781 1.07671 0
M  V30 4568 C 459.827 0.0107454 2.01497 0
M  V30 4569 O 458.883 -0.650756 2.4397 0
M  V30 4570 C 460.196 2.49451 1.67913 0
M  V30 4571 C 461.744 2.55927 1.80195 0
M  V30 4572 C 462.219 3.87686 2.43851 0
M  V30 4573 N 463.71 3.891 2.51307 0
M  V30 4574 C 464.445 4.87797 3.014 0
M  V30 4575 N 463.941 5.96888 3.51705 0
M  V30 4576 N 465.734 4.75205 3.00227 0
M  V30 4577 H 457.885 2.11843 0.153778 0
M  V30 4578 H 460.148 0.938927 0.130844 0
M  V30 4579 H 459.854 3.35207 1.06439 0
M  V30 4580 H 459.728 2.66169 2.67271 0
M  V30 4581 H 462.115 1.70582 2.40803 0
M  V30 4582 H 462.196 2.43097 0.796069 0
M  V30 4583 H 461.84 4.73444 1.83884 0
M  V30 4584 H 461.77 3.97817 3.45035 0
M  V30 4585 H 464.261 3.10293 2.157 0
M  V30 4586 H 464.574 6.68155 3.88316 0
M  V30 4587 H 462.919 6.0054 3.49824 0
M  V30 4588 H 466.11 3.89103 2.60224 0
M  V30 4589 H 466.283 5.52279 3.38957 0
M  V30 4590 N 459.689 -1.00246 1.21608 0
M  V30 4591 C 460.599 -2.12515 0.993709 0
M  V30 4592 C 461.615 -1.73913 -0.0549939 0
M  V30 4593 O 462.791 -2.00943 0.135619 0
M  V30 4594 C 459.856 -3.42083 0.563953 0
M  V30 4595 C 458.917 -3.94843 1.68516 0
M  V30 4596 C 458.15 -5.18226 1.27582 0
M  V30 4597 O 458.373 -5.70201 0.150506 0
M  V30 4598 O 457.307 -5.64497 2.0887 0
M  V30 4599 H 461.133 -2.34152 1.93407 0
M  V30 4600 H 458.718 -1.10891 1.00118 0
M  V30 4601 H 460.6 -4.20073 0.334194 0
M  V30 4602 H 459.275 -3.21828 -0.347665 0
M  V30 4603 H 458.182 -3.18068 1.96935 0
M  V30 4604 H 459.515 -4.19512 2.5743 0
M  V30 4605 N 461.167 -1.02423 -1.1978 0
M  V30 4606 C 462.578 -0.748389 -1.71044 0
M  V30 4607 C 462.929 0.732398 -1.82017 0
M  V30 4608 O 462.054 1.57116 -1.48807 0
M  V30 4609 C 462.649 -1.35187 -3.1066 0
M  V30 4610 C 461.208 -1.12472 -3.59203 0
M  V30 4611 C 460.355 -1.45283 -2.36195 0
M  V30 4612 H 463.306 -1.19275 -1.04686 0
M  V30 4613 H 463.327 -0.746408 -3.73107 0
M  V30 4614 H 462.839 -2.4296 -3.02642 0
M  V30 4615 H 460.94 -0.0649983 -3.72543 0
M  V30 4616 H 461.053 -1.81016 -4.43588 0
M  V30 4617 H 459.417 -0.872034 -2.39307 0
M  V30 4618 H 460.2 -2.54129 -2.30811 0
M  V30 4619 N 462.645 1.35699 -0.801477 0
M  V30 4620 C 463.608 2.28199 -0.213994 0
M  V30 4621 C 464.608 1.49359 0.595691 0
M  V30 4622 O 465.798 1.69186 0.414921 0
M  V30 4623 C 462.93 3.33587 0.702297 0
M  V30 4624 H 464.123 2.81666 -1.02976 0
M  V30 4625 H 461.676 1.45467 -0.571759 0
M  V30 4626 H 462.411 2.85297 1.54195 0
M  V30 4627 H 462.196 3.91906 0.123484 0
M  V30 4628 H 463.686 4.02638 1.10783 0
M  V30 4629 N 464.123 0.554532 1.47522 0
M  V30 4630 C 465.053 -0.182974 2.32782 0
M  V30 4631 C 466.034 -0.911377 1.43624 0
M  V30 4632 O 467.219 -0.892366 1.72483 0
M  V30 4633 C 464.349 -1.21513 3.25349 0
M  V30 4634 C 463.303 -0.603355 4.23726 0
M  V30 4635 C 462.629 -1.73995 5.05598 0
M  V30 4636 C 463.929 0.441121 5.20434 0
M  V30 4637 H 465.623 0.52882 2.94693 0
M  V30 4638 H 463.169 0.255759 1.41711 0
M  V30 4639 H 465.122 -1.73922 3.83835 0
M  V30 4640 H 463.846 -1.95683 2.61487 0
M  V30 4641 H 462.505 -0.10059 3.66462 0
M  V30 4642 H 462.153 -2.47063 4.38143 0
M  V30 4643 H 461.853 -1.3364 5.72201 0
M  V30 4644 H 463.377 -2.26735 5.66942 0
M  V30 4645 H 464.791 0.00319931 5.733 0
M  V30 4646 H 463.188 0.763402 5.95224 0
M  V30 4647 H 464.258 1.33799 4.66075 0
M  V30 4648 N 465.601 -1.54893 0.290851 0
M  V30 4649 C 466.564 -2.21824 -0.576784 0
M  V30 4650 C 467.564 -1.20104 -1.06919 0
M  V30 4651 O 468.754 -1.44906 -0.966843 0
M  V30 4652 C 465.886 -2.89662 -1.79747 0
M  V30 4653 H 467.079 -2.99899 0.00784051 0
M  V30 4654 H 464.632 -1.56245 0.0415934 0
M  V30 4655 H 465.367 -2.15639 -2.42219 0
M  V30 4656 H 465.152 -3.64219 -1.45214 0
M  V30 4657 H 466.642 -3.4075 -2.4141 0
M  V30 4658 N 467.08 -0.0183926 -1.57589 0
M  V30 4659 C 468.327 0.662562 -1.91354 0
M  V30 4660 C 468.655 1.72747 -0.893788 0
M  V30 4661 O 467.91 1.9545 0.0988509 0
M  V30 4662 C 468.209 1.32676 -3.31861 0
M  V30 4663 C 467.875 0.393267 -4.49182 0
M  V30 4664 C 466.537 0.136302 -4.81007 0
M  V30 4665 C 468.889 -0.248366 -5.20608 0
M  V30 4666 C 466.217 -0.770282 -5.81621 0
M  V30 4667 C 468.569 -1.14294 -6.22189 0
M  V30 4668 C 467.233 -1.4089 -6.52462 0
M  V30 4669 H 466.503 0.242448 -0.700214 0
M  V30 4670 H 469.15 -0.0778629 -1.91342 0
M  V30 4671 H 467.455 2.14168 -3.28084 0
M  V30 4672 H 469.152 1.86001 -3.55253 0
M  V30 4673 H 465.742 0.603723 -4.24327 0
M  V30 4674 H 469.926 -0.062883 -4.9626 0
M  V30 4675 H 465.182 -0.984154 -6.03427 0
M  V30 4676 H 469.356 -1.64637 -6.76659 0
M  V30 4677 H 466.983 -2.11306 -7.30242 0
M  V30 4678 N 468.558 1.5553 0.254621 0
M  V30 4679 C 469.804 1.7818 0.980989 0
M  V30 4680 C 470.159 0.586059 1.83257 0
M  V30 4681 O 469.452 -0.420889 1.8692 0
M  V30 4682 C 469.646 3.03891 1.88109 0
M  V30 4683 C 469.475 4.35578 1.11812 0
M  V30 4684 C 468.245 4.98497 0.826343 0
M  V30 4685 C 470.443 5.11869 0.499486 0
M  V30 4686 N 468.425 6.13888 0.0385095 0
M  V30 4687 C 469.796 6.1981 -0.153292 0
M  V30 4688 C 471.851 4.96216 0.409175 0
M  V30 4689 C 470.554 7.13801 -0.8877 0
M  V30 4690 C 472.58 5.90578 -0.311683 0
M  V30 4691 C 471.942 6.97922 -0.953129 0
M  V30 4692 H 468.041 0.704057 0.340335 0
M  V30 4693 H 470.625 1.93025 0.254855 0
M  V30 4694 H 468.796 2.90389 2.57932 0
M  V30 4695 H 470.528 3.14869 2.54244 0
M  V30 4696 H 467.283 4.59769 1.13621 0
M  V30 4697 H 467.707 6.76129 -0.343275 0
M  V30 4698 H 472.349 4.1331 0.890765 0
M  V30 4699 H 470.067 7.96214 -1.38092 0
M  V30 4700 H 473.653 5.80544 -0.382125 0
M  V30 4701 H 472.533 7.69681 -1.50203 0
M  V30 4702 N 470.036 -0.519951 1.48776 0
M  V30 4703 C 471.447 -1.10177 1.50725 0
M  V30 4704 C 471.798 -1.94153 0.282678 0
M  V30 4705 O 470.923 -2.07645 -0.609298 0
M  V30 4706 C 471.518 -2.00482 2.73116 0
M  V30 4707 C 470.077 -2.53862 2.77905 0
M  V30 4708 C 469.224 -1.31047 2.44381 0
M  V30 4709 H 472.175 -0.30473 1.55747 0
M  V30 4710 H 472.196 -2.8491 2.52203 0
M  V30 4711 H 471.708 -1.39335 3.62225 0
M  V30 4712 H 469.809 -3.18702 1.93029 0
M  V30 4713 H 469.922 -2.9231 3.79594 0
M  V30 4714 H 468.286 -1.62953 1.95751 0
M  V30 4715 H 469.069 -0.71637 3.35743 0
M  V30 4716 N 471.514 -1.37532 -0.769588 0
M  V30 4717 C 472.762 -1.32597 -1.5252 0
M  V30 4718 C 473.083 0.0884294 -1.94799 0
M  V30 4719 O 472.353 1.03289 -1.66458 0
M  V30 4720 H 470.933 -0.487846 -0.565699 0
M  V30 4721 H 473.595 -1.72044 -0.915806 0
M  V30 4722 H 472.691 -1.96643 -2.42359 0
M  V30 4723 N 472.992 0.995999 -1.22138 0
M  V30 4724 C 473.942 2.06988 -0.956042 0
M  V30 4725 C 474.926 1.60636 0.0921576 0
M  V30 4726 O 476.118 1.76607 -0.117958 0
M  V30 4727 C 473.247 3.39148 -0.532335 0
M  V30 4728 C 472.333 3.92142 -1.61509 0
M  V30 4729 N 472.724 4.18397 -2.84214 0
M  V30 4730 C 471.022 4.20514 -1.48606 0
M  V30 4731 C 471.723 4.61425 -3.54206 0
M  V30 4732 N 470.699 4.64934 -2.81669 0
M  V30 4733 H 474.501 2.25223 -1.88816 0
M  V30 4734 H 472.015 1.17748 -1.11845 0
M  V30 4735 H 474.012 4.15642 -0.323574 0
M  V30 4736 H 472.672 3.22314 0.392921 0
M  V30 4737 H 473.683 4.06682 -3.20671 0
M  V30 4738 H 470.36 4.12769 -0.626762 0
M  V30 4739 H 471.75 4.90387 -4.59315 0
M  V30 4740 N 474.47 1.03057 1.19235 0
M  V30 4741 C 475.719 0.72326 1.88287 0
M  V30 4742 C 476.032 -0.751333 1.80594 0
M  V30 4743 O 477.238 -1.17176 2.44912 0
M  V30 4744 C 475.694 1.24338 3.3774 0
M  V30 4745 C 475.302 2.74587 3.53986 0
M  V30 4746 C 477.046 1.01213 4.12257 0
M  V30 4747 C 474.953 3.20009 4.97341 0
M  V30 4748 H 473.883 0.266848 0.705201 0
M  V30 4749 H 476.534 1.24509 1.34795 0
M  V30 4750 H 474.916 0.649457 3.90638 0
M  V30 4751 H 476.09 3.39649 3.11408 0
M  V30 4752 H 474.405 2.9601 2.9286 0
M  V30 4753 H 477.002 1.32675 5.17978 0
M  V30 4754 H 477.345 -0.051001 4.16269 0
M  V30 4755 H 477.878 1.57014 3.65501 0
M  V30 4756 H 474.617 4.25659 4.98493 0
M  V30 4757 H 474.137 2.59676 5.40674 0
M  V30 4758 H 475.816 3.13447 5.66003 0
M  V30 4759 N 475.948 -1.35272 0.808662 0
M  V30 4760 C 476.911 -2.28082 0.226093 0
M  V30 4761 C 477.911 -1.49673 -0.587762 0
M  V30 4762 O 479.101 -1.69404 -0.405943 0
M  V30 4763 C 476.233 -3.33955 -0.684596 0
M  V30 4764 H 477.426 -2.81116 1.04469 0
M  V30 4765 H 474.979 -1.45162 0.579466 0
M  V30 4766 H 475.714 -2.86111 -1.5268 0
M  V30 4767 H 475.499 -3.91965 -0.102699 0
M  V30 4768 H 476.989 -4.03219 -1.08646 0
M  V30 4769 N 477.426 -0.562348 -1.47226 0
M  V30 4770 C 478.837 -0.130325 -1.86245 0
M  V30 4771 C 479.188 1.30128 -1.46838 0
M  V30 4772 O 478.313 1.97974 -0.873805 0
M  V30 4773 C 478.908 -0.229738 -3.3802 0
M  V30 4774 C 477.467 0.14728 -3.76112 0
M  V30 4775 C 476.614 -0.574971 -2.71274 0
M  V30 4776 H 479.565 -0.771773 -1.3867 0
M  V30 4777 H 479.586 0.550316 -3.76499 0
M  V30 4778 H 479.098 -1.27178 -3.66671 0
M  V30 4779 H 477.199 1.19023 -3.53078 0
M  V30 4780 H 477.312 -0.214858 -4.78618 0
M  V30 4781 H 475.676 -0.0174756 -2.54694 0
M  V30 4782 H 476.459 -1.61827 -3.02766 0
M  V30 4783 N 478.904 1.54736 -0.299062 0
M  V30 4784 C 480.152 1.99706 0.31017 0
M  V30 4785 C 480.473 1.18896 1.54559 0
M  V30 4786 O 479.743 0.284445 1.93824 0
M  V30 4787 H 478.323 0.737686 0.117596 0
M  V30 4788 H 480.985 1.9054 -0.409943 0
M  V30 4789 H 480.081 3.06596 0.58355 0
M  V30 4790 N 480.382 0.0267497 1.57577 0
M  V30 4791 C 481.628 -0.653371 1.91987 0
M  V30 4792 C 481.961 -1.71915 0.903263 0
M  V30 4793 O 481.236 -1.94358 -0.0743387 0
M  V30 4794 C 481.519 -1.272 3.36886 0
M  V30 4795 C 481.372 -0.215938 4.49281 0
M  V30 4796 C 482.691 -2.19069 3.81703 0
M  V30 4797 H 479.81 -0.236047 0.698177 0
M  V30 4798 H 482.452 0.0835236 1.89816 0
M  V30 4799 H 480.602 -1.90005 3.38866 0
M  V30 4800 H 482.274 0.41449 4.59434 0
M  V30 4801 H 480.517 0.458855 4.31366 0
M  V30 4802 H 481.188 -0.688347 5.47691 0
M  V30 4803 H 483.664 -1.66253 3.81444 0
M  V30 4804 H 482.54 -2.59307 4.83788 0
M  V30 4805 H 482.801 -3.08087 3.17072 0
M  V30 4806 N 481.861 -1.55662 -0.24637 0
M  V30 4807 C 483.089 -1.81575 -0.991876 0
M  V30 4808 C 483.504 -0.602545 -1.78927 0
M  V30 4809 O 482.861 0.428795 -1.77391 0
M  V30 4810 C 482.912 -3.05711 -1.92933 0
M  V30 4811 O 482.633 -4.22348 -1.1642 0
M  V30 4812 C 484.134 -3.44428 -2.79078 0
M  V30 4813 H 481.354 -0.604209 -0.291844 0
M  V30 4814 H 483.898 -2.02722 -0.269095 0
M  V30 4815 H 482.053 -2.86612 -2.60638 0
M  V30 4816 H 482.467 -4.92706 -1.79835 0
M  V30 4817 H 483.941 -4.34388 -3.40603 0
M  V30 4818 H 484.418 -2.65037 -3.50217 0
M  V30 4819 H 485.024 -3.65879 -2.16824 0
M  V30 4820 N 483.339 0.512053 -1.4905 0
M  V30 4821 C 484.289 1.61142 -1.61298 0
M  V30 4822 C 485.273 1.53908 -0.46916 0
M  V30 4823 O 486.465 1.61625 -0.721547 0
M  V30 4824 C 483.594 2.998 -1.67256 0
M  V30 4825 C 482.68 3.12072 -2.87179 0
M  V30 4826 N 483.071 2.94263 -4.11391 0
M  V30 4827 C 481.369 3.43156 -2.84886 0
M  V30 4828 C 482.07 3.10426 -4.91946 0
M  V30 4829 N 481.046 3.38808 -4.251 0
M  V30 4830 H 484.848 1.46011 -2.55065 0
M  V30 4831 H 482.362 0.717934 -1.45669 0
M  V30 4832 H 484.359 3.78794 -1.74128 0
M  V30 4833 H 483.019 3.1601 -0.746195 0
M  V30 4834 H 484.03 2.70661 -4.41546 0
M  V30 4835 H 480.707 3.65611 -2.01581 0
M  V30 4836 H 482.097 3.01243 -6.00585 0
M  V30 4837 N 484.817 1.37938 0.762283 0
M  V30 4838 C 485.727 1.36681 1.90671 0
M  V30 4839 C 486.743 0.265078 1.71969 0
M  V30 4840 O 487.919 0.502055 1.95042 0
M  V30 4841 C 484.984 1.18211 3.25925 0
M  V30 4842 C 484.045 2.3811 3.57214 0
M  V30 4843 C 483.278 2.20512 4.86014 0
M  V30 4844 O 483.501 1.19429 5.57757 0
M  V30 4845 O 482.435 3.08911 5.16583 0
M  V30 4846 H 486.261 2.33091 1.94685 0
M  V30 4847 H 483.846 1.18767 0.906356 0
M  V30 4848 H 485.728 1.09937 4.06807 0
M  V30 4849 H 484.403 0.248807 3.22742 0
M  V30 4850 H 483.31 2.51958 2.76529 0
M  V30 4851 H 484.643 3.30041 3.65149 0
M  V30 4852 N 486.295 -0.989507 1.22664 0
M  V30 4853 C 487.225 -2.09847 1.02404 0
M  V30 4854 C 488.206 -1.70007 -0.0561303 0
M  V30 4855 O 489.391 -1.93906 0.106748 0
M  V30 4856 C 486.521 -3.41996 0.604663 0
M  V30 4857 C 485.475 -3.95699 1.63115 0
M  V30 4858 C 484.801 -5.23936 1.0675 0
M  V30 4859 C 486.101 -4.25999 3.02196 0
M  V30 4860 H 487.795 -2.27054 1.95158 0
M  V30 4861 H 485.341 -1.09111 0.939727 0
M  V30 4862 H 487.294 -4.1899 0.45002 0
M  V30 4863 H 486.018 -3.24626 -0.35855 0
M  V30 4864 H 484.677 -3.2084 1.77362 0
M  V30 4865 H 484.325 -5.02909 0.0955422 0
M  V30 4866 H 484.025 -5.60833 1.75328 0
M  V30 4867 H 485.549 -6.0356 0.924516 0
M  V30 4868 H 486.963 -4.93777 2.91303 0
M  V30 4869 H 485.36 -4.74076 3.67929 0
M  V30 4870 H 486.43 -3.33636 3.51873 0
M  V30 4871 N 487.773 -1.03688 -1.18687 0
M  V30 4872 C 488.736 -0.629115 -2.20397 0
M  V30 4873 C 489.736 0.311495 -1.57754 0
M  V30 4874 O 490.926 0.0974107 -1.73927 0
M  V30 4875 C 488.058 0.0782231 -3.4081 0
M  V30 4876 H 489.251 -1.52915 -2.57987 0
M  V30 4877 H 486.804 -0.828988 -1.32505 0
M  V30 4878 H 487.539 0.992233 -3.08748 0
M  V30 4879 H 487.324 -0.597776 -3.87517 0
M  V30 4880 H 488.814 0.350156 -4.16129 0
M  V30 4881 N 489.251 1.34841 -0.815825 0
M  V30 4882 C 490.476 2.03261 -0.41226 0
M  V30 4883 C 490.901 1.61055 0.971751 0
M  V30 4884 O 490.259 0.7917 1.63101 0
M  V30 4885 C 490.307 3.56914 -0.514289 0
M  V30 4886 O 489.411 4.09728 0.468675 0
M  V30 4887 H 488.752 0.641664 -0.170771 0
M  V30 4888 H 491.282 1.72241 -1.10427 0
M  V30 4889 H 491.292 4.06156 -0.387457 0
M  V30 4890 H 489.967 3.86982 -1.52375 0
M  V30 4891 H 488.544 3.71681 0.301316 0
M  V30 4892 N 490.729 0.570148 1.46925 0
M  V30 4893 C 491.954 0.0542592 2.07329 0
M  V30 4894 C 492.379 -1.23582 1.41806 0
M  V30 4895 O 491.737 -1.74341 0.497479 0
M  V30 4896 C 491.785 -0.111175 3.60429 0
M  V30 4897 O 490.889 -1.17071 3.95434 0
M  V30 4898 H 490.23 0.0571425 0.661537 0
M  V30 4899 H 492.76 0.789516 1.88753 0
M  V30 4900 H 492.77 -0.321315 4.06733 0
M  V30 4901 H 491.445 0.831012 4.07513 0
M  V30 4902 H 490.022 -0.940029 3.60857 0
M  V30 4903 N 492.207 -1.54576 0.307264 0
M  V30 4904 C 493.137 -2.26708 -0.55907 0
M  V30 4905 C 494.118 -1.26893 -1.1328 0
M  V30 4906 O 495.303 -1.55677 -1.16097 0
M  V30 4907 C 492.433 -3.01259 -1.72801 0
M  V30 4908 C 491.387 -4.08275 -1.28435 0
M  V30 4909 C 490.713 -4.70575 -2.53895 0
M  V30 4910 C 492.013 -5.2068 -0.411038 0
M  V30 4911 H 493.707 -2.9937 0.042576 0
M  V30 4912 H 491.253 -1.43983 0.0219173 0
M  V30 4913 H 493.206 -3.50444 -2.34023 0
M  V30 4914 H 491.93 -2.26187 -2.356 0
M  V30 4915 H 490.589 -3.59949 -0.695161 0
M  V30 4916 H 490.237 -3.92136 -3.15021 0
M  V30 4917 H 489.937 -5.42854 -2.24908 0
M  V30 4918 H 491.461 -5.22527 -3.15908 0
M  V30 4919 H 492.875 -5.65721 -0.929097 0
M  V30 4920 H 491.272 -5.99716 -0.214664 0
M  V30 4921 H 492.342 -4.81629 0.562287 0
M  V30 4922 N 493.685 -0.035106 -1.57561 0
M  V30 4923 C 494.962 0.681212 -1.83354 0
M  V30 4924 C 495.342 1.89986 -0.920252 0
M  V30 4925 O 494.69 2.28489 0.0226815 0
M  V30 4926 C 494.9 1.05376 -3.32712 0
M  V30 4927 C 496.248 1.44286 -3.99333 0
M  V30 4928 O 497.272 1.14656 -3.37242 0
M  V30 4929 O 496.131 1.99518 -5.08778 0
M  V30 4930 H 493.225 0.334741 -0.756226 0
M  V30 4931 H 495.771 -0.0632448 -1.69582 0
M  V30 4932 H 494.543 0.186668 -3.90854 0
M  V30 4933 H 494.166 1.85619 -3.51613 0
M  V30 4934 N 495.163 1.55791 0.238111 0
M  V30 4935 C 496.093 1.94068 1.29846 0
M  V30 4936 C 497.074 0.806726 1.49753 0
M  V30 4937 O 498.259 1.06772 1.62214 0
M  V30 4938 C 495.389 2.24302 2.65153 0
M  V30 4939 C 494.343 3.40032 2.59927 0
M  V30 4940 C 493.669 3.55829 3.99111 0
M  V30 4941 C 494.969 4.75476 2.16148 0
M  V30 4942 H 496.663 2.82887 0.980563 0
M  V30 4943 H 494.209 1.36105 0.470253 0
M  V30 4944 H 496.162 2.4967 3.39475 0
M  V30 4945 H 494.886 1.32318 2.98596 0
M  V30 4946 H 493.545 3.14687 1.88063 0
M  V30 4947 H 493.193 2.6125 4.29834 0
M  V30 4948 H 492.893 4.3366 3.96501 0
M  V30 4949 H 494.417 3.83528 4.7512 0
M  V30 4950 H 495.831 5.00158 2.80205 0
M  V30 4951 H 494.228 5.56472 2.24631 0
M  V30 4952 H 495.298 4.71946 1.11333 0
M  V30 4953 N 496.642 -0.504142 1.49319 0
M  V30 4954 C 497.572 -1.61473 1.68667 0
M  V30 4955 C 498.553 -1.61455 0.535378 0
M  V30 4956 O 499.738 -1.78245 0.770868 0
M  V30 4957 C 496.868 -2.99971 1.75028 0
M  V30 4958 C 495.822 -3.14854 2.89916 0
M  V30 4959 C 495.148 -4.54671 2.81387 0
M  V30 4960 C 496.448 -2.95176 4.30893 0
M  V30 4961 H 498.142 -1.45535 2.61648 0
M  V30 4962 H 495.688 -0.698711 1.25913 0
M  V30 4963 H 497.641 -3.77562 1.8715 0
M  V30 4964 H 496.365 -3.1699 0.786441 0
M  V30 4965 H 495.024 -2.39687 2.77391 0
M  V30 4966 H 494.672 -4.68562 1.82917 0
M  V30 4967 H 494.372 -4.6557 3.58494 0
M  V30 4968 H 495.896 -5.34327 2.95512 0
M  V30 4969 H 497.31 -3.62538 4.44116 0
M  V30 4970 H 495.707 -3.17549 5.09198 0
M  V30 4971 H 496.777 -1.91332 4.45556 0
M  V30 4972 N 498.12 -1.38341 -0.754957 0
M  V30 4973 C 499.531 -1.30803 -1.3322 0
M  V30 4974 C 499.882 0.0368 -1.96165 0
M  V30 4975 O 499.007 0.938844 -1.94974 0
M  V30 4976 C 499.602 -2.3688 -2.42225 0
M  V30 4977 C 498.161 -2.32925 -2.95674 0
M  V30 4978 C 497.308 -2.19819 -1.69042 0
M  V30 4979 H 500.259 -1.48719 -0.553937 0
M  V30 4980 H 500.28 -2.02517 -3.22129 0
M  V30 4981 H 499.792 -3.34747 -1.96383 0
M  V30 4982 H 497.893 -1.38635 -3.45848 0
M  V30 4983 H 498.006 -3.27008 -3.50146 0
M  V30 4984 H 496.37 -1.66648 -1.92615 0
M  V30 4985 H 497.153 -3.19625 -1.25279 0
M  V30 4986 N 499.598 0.982988 -1.23187 0
M  V30 4987 C 500.826 1.75921 -1.08901 0
M  V30 4988 C 501.241 1.85341 0.359719 0
M  V30 4989 O 500.598 1.33072 1.24892 0
M  V30 4990 C 500.649 3.18742 -1.70545 0
M  V30 4991 O 500.37 3.09814 -3.09753 0
M  V30 4992 C 501.871 4.1277 -1.61667 0
M  V30 4993 H 499.091 0.552166 -0.381252 0
M  V30 4994 H 501.635 1.23516 -1.62985 0
M  V30 4995 H 499.79 3.68182 -1.20501 0
M  V30 4996 H 500.204 3.99703 -3.39614 0
M  V30 4997 H 501.678 5.10697 -2.09506 0
M  V30 4998 H 502.155 4.3542 -0.575009 0
M  V30 4999 H 502.761 3.69232 -2.11064 0
M  V30 5000 N 501.076 1.04316 1.18135 0
M  V30 5001 C 502.006 0.657299 2.24058 0
M  V30 5002 C 502.987 -0.340678 1.66654 0
M  V30 5003 O 504.172 -0.220223 1.92947 0
M  V30 5004 C 501.302 0.0220715 3.47293 0
M  V30 5005 C 500.256 0.943857 4.17463 0
M  V30 5006 C 499.582 0.172973 5.3442 0
M  V30 5007 C 500.882 2.26409 4.70677 0
M  V30 5008 H 502.576 1.5428 2.56589 0
M  V30 5009 H 500.122 0.743263 1.23335 0
M  V30 5010 H 502.075 -0.259607 4.206 0
M  V30 5011 H 500.799 -0.898323 3.14003 0
M  V30 5012 H 499.458 1.20996 3.46057 0
M  V30 5013 H 499.106 -0.749907 4.97379 0
M  V30 5014 H 498.806 0.787098 5.82304 0
M  V30 5015 H 500.33 -0.101628 6.10515 0
M  V30 5016 H 501.744 2.04294 5.35665 0
M  V30 5017 H 500.141 2.8314 5.29105 0
M  V30 5018 H 501.211 2.90883 3.87962 0
M  V30 5019 N 502.554 -1.34406 0.822964 0
M  V30 5020 C 503.517 -2.2783 0.250271 0
M  V30 5021 C 504.517 -1.50288 -0.571854 0
M  V30 5022 O 505.707 -1.69825 -0.387952 0
M  V30 5023 C 502.839 -3.34663 -0.649137 0
M  V30 5024 H 504.032 -2.79992 1.07444 0
M  V30 5025 H 501.585 -1.44539 0.594829 0
M  V30 5026 H 502.32 -2.87714 -1.49637 0
M  V30 5027 H 502.105 -3.92052 -0.0611199 0
M  V30 5028 H 503.595 -4.04349 -1.04363 0
M  V30 5029 N 504.032 -0.577932 -1.46621 0
M  V30 5030 C 504.995 0.147805 -2.28723 0
M  V30 5031 C 505.995 0.823325 -1.38123 0
M  V30 5032 O 507.185 0.676011 -1.60548 0
M  V30 5033 C 504.317 1.21853 -3.18378 0
M  V30 5034 H 505.51 -0.573654 -2.94362 0
M  V30 5035 H 503.063 -0.335703 -1.52652 0
M  V30 5036 H 503.798 1.97173 -2.57475 0
M  V30 5037 H 503.583 0.738714 -3.85078 0
M  V30 5038 H 505.073 1.72768 -3.80186 0
M  V30 5039 N 505.51 1.54411 -0.315457 0
M  V30 5040 C 506.44 2.27002 0.547039 0
M  V30 5041 C 507.421 1.27492 1.12605 0
M  V30 5042 O 508.606 1.5629 1.15269 0
M  V30 5043 C 505.736 3.02171 1.71201 0
M  V30 5044 C 504.69 4.0895 1.26268 0
M  V30 5045 C 504.016 4.71915 2.51396 0
M  V30 5046 C 505.316 5.20891 0.383419 0
M  V30 5047 H 507.01 2.99343 -0.0584517 0
M  V30 5048 H 504.556 1.4397 -0.0295527 0
M  V30 5049 H 506.509 3.51681 2.32161 0
M  V30 5050 H 505.233 2.27433 2.34397 0
M  V30 5051 H 503.892 3.60312 0.676062 0
M  V30 5052 H 503.54 3.93801 3.12937 0
M  V30 5053 H 503.24 5.44039 2.22026 0
M  V30 5054 H 504.764 5.24195 3.13133 0
M  V30 5055 H 506.178 5.66206 0.899082 0
M  V30 5056 H 504.575 5.99821 0.182857 0
M  V30 5057 H 505.645 4.81324 -0.587821 0
M  V30 5058 N 506.988 0.0434614 1.5754 0
M  V30 5059 C 507.951 -0.918696 2.09982 0
M  V30 5060 C 508.951 -1.24488 1.01781 0
M  V30 5061 O 510.141 -1.18284 1.27885 0
M  V30 5062 C 507.273 -2.23093 2.57764 0
M  V30 5063 H 508.466 -0.464229 2.96285 0
M  V30 5064 H 506.019 -0.204818 1.54952 0
M  V30 5065 H 506.754 -2.73137 1.74832 0
M  V30 5066 H 506.539 -2.00724 3.36827 0
M  V30 5067 H 508.029 -2.92028 2.98512 0
M  V30 5068 N 508.466 -1.55915 -0.229846 0
M  V30 5069 C 509.714 -1.7819 -0.953565 0
M  V30 5070 C 510.035 -0.610504 -1.85197 0
M  V30 5071 O 509.305 0.372988 -1.92316 0
M  V30 5072 H 507.885 -0.657208 -0.355087 0
M  V30 5073 H 510.547 -1.9337 -0.243693 0
M  V30 5074 H 509.643 -2.70011 -1.56527 0
M  V30 5075 N 509.944 0.496216 -1.49584 0
M  V30 5076 C 510.907 1.57952 -1.66084 0
M  V30 5077 C 511.907 1.51729 -0.53244 0
M  V30 5078 O 513.097 1.54796 -0.79899 0
M  V30 5079 C 510.229 2.97604 -1.66268 0
M  V30 5080 H 511.422 1.44649 -2.6271 0
M  V30 5081 H 508.975 0.7208 -1.38687 0
M  V30 5082 H 509.71 3.16378 -0.712432 0
M  V30 5083 H 509.495 3.03528 -2.4822 0
M  V30 5084 H 510.985 3.76301 -1.81073 0
M  V30 5085 N 511.423 1.38739 0.74761 0
M  V30 5086 C 512.834 1.31507 1.32524 0
M  V30 5087 C 513.185 -0.0263963 1.96182 0
M  V30 5088 O 512.31 -0.92849 1.95469 0
M  V30 5089 C 512.905 2.38162 2.40966 0
M  V30 5090 C 511.464 2.34489 2.94434 0
M  V30 5091 C 510.611 2.20712 1.67873 0
M  V30 5092 H 513.562 1.4901 0.546043 0
M  V30 5093 H 513.583 2.04222 3.21051 0
M  V30 5094 H 513.095 3.35783 1.94605 0
M  V30 5095 H 511.196 1.40467 3.45108 0
M  V30 5096 H 511.309 3.28861 3.48407 0
M  V30 5097 H 509.673 1.67667 1.91729 0
M  V30 5098 H 510.456 3.20285 1.23582 0
M  V30 5099 N 512.901 -0.976442 1.23707 0
M  V30 5100 C 513.831 -2.08749 1.04624 0
M  V30 5101 C 514.812 -1.70057 -0.0380956 0
M  V30 5102 O 515.997 -1.93782 0.127308 0
M  V30 5103 C 513.127 -3.41335 0.640902 0
M  V30 5104 C 512.081 -3.93947 1.67302 0
M  V30 5105 C 511.407 -5.22774 1.12301 0
M  V30 5106 C 512.707 -4.22769 3.06697 0
M  V30 5107 H 514.401 -2.24972 1.97555 0
M  V30 5108 H 511.947 -1.08108 0.951247 0
M  V30 5109 H 513.9 -4.18489 0.494434 0
M  V30 5110 H 512.624 -3.24988 -0.324099 0
M  V30 5111 H 511.283 -3.18941 1.80755 0
M  V30 5112 H 510.931 -5.0278 0.148877 0
M  V30 5113 H 510.631 -5.58942 1.81267 0
M  V30 5114 H 512.155 -6.02546 0.988479 0
M  V30 5115 H 513.569 -4.90659 2.96524 0
M  V30 5116 H 511.966 -4.70147 3.72937 0
M  V30 5117 H 513.036 -3.29885 3.55392 0
M  V30 5118 N 514.379 -1.04941 -1.1758 0
M  V30 5119 C 515.79 -0.784501 -1.69418 0
M  V30 5120 C 516.141 0.693625 -1.8353 0
M  V30 5121 O 515.266 1.53925 -1.52106 0
M  V30 5122 C 515.861 -1.41746 -3.07723 0
M  V30 5123 C 514.42 -1.20066 -3.56737 0
M  V30 5124 C 513.567 -1.5026 -2.33061 0
M  V30 5125 H 516.518 -1.21469 -1.02133 0
M  V30 5126 H 516.539 -0.825381 -3.7144 0
M  V30 5127 H 516.051 -2.49325 -2.9742 0
M  V30 5128 H 514.152 -0.144006 -3.72322 0
M  V30 5129 H 514.265 -1.90384 -4.39648 0
M  V30 5130 H 512.629 -0.922598 -2.37403 0
M  V30 5131 H 513.412 -2.58967 -2.25368 0
M  V30 5132 N 515.857 1.33968 -0.830081 0
M  V30 5133 C 516.805 2.31301 -0.245435 0
M  V30 5134 C 517.799 1.57734 0.617762 0
M  V30 5135 O 519.005 1.72674 0.508303 0
M  V30 5136 H 515.38 0.749552 -0.0606316 0
M  V30 5137 H 517.351 2.78129 -1.08105 0
M  V30 5138 C 516.1 3.42961 0.572084 0
M  V30 5139 H 515.423 3.99714 -0.0828118 0
M  V30 5140 H 516.863 4.13286 0.94715 0
M  V30 5141 C 515.322 2.88043 1.74737 0
M  V30 5142 O 515.852 2.83508 2.8458 0
M  V30 5143 N 514.058 2.44768 1.56642 0
M  V30 5144 H 513.605 2.48656 0.672901 0
M  V30 5145 H 513.563 2.08375 2.3543 0
M  V30 5146 N 517.335 0.585699 1.46312 0
M  V30 5147 C 518.581 0.0725284 2.0267 0
M  V30 5148 C 518.914 -1.28523 1.45586 0
M  V30 5149 O 518.189 -1.84283 0.622101 0
M  V30 5150 C 518.472 0.0099788 3.60099 0
M  V30 5151 C 518.325 1.39685 4.27561 0
M  V30 5152 C 519.644 -0.689117 4.34671 0
M  V30 5153 H 516.763 0.0278307 0.736474 0
M  V30 5154 H 519.405 0.753472 1.74421 0
M  V30 5155 H 517.555 -0.56992 3.84297 0
M  V30 5156 H 519.227 2.02215 4.14617 0
M  V30 5157 H 517.47 1.96374 3.86807 0
M  V30 5158 H 518.141 1.30553 5.36339 0
M  V30 5159 H 520.617 -0.196446 4.15636 0
M  V30 5160 H 519.493 -0.701921 5.44393 0
M  V30 5161 H 519.754 -1.75101 4.05946 0
M  V30 5162 N 518.813 -1.54241 0.323641 0
M  V30 5163 C 520.041 -2.04985 -0.280871 0
M  V30 5164 C 520.456 -1.19978 -1.45777 0
M  V30 5165 O 519.813 -0.230471 -1.81039 0
M  V30 5166 C 519.864 -3.54353 -0.715258 0
M  V30 5167 O 519.585 -4.36132 0.414817 0
M  V30 5168 C 521.086 -4.21189 -1.38257 0
M  V30 5169 H 518.306 -0.66851 -0.0577502 0
M  V30 5170 H 520.85 -1.99029 0.469852 0
M  V30 5171 H 519.005 -3.60596 -1.41596 0
M  V30 5172 H 519.419 -5.2445 0.0725227 0
M  V30 5173 H 520.893 -5.27154 -1.63745 0
M  V30 5174 H 521.37 -3.72307 -2.32989 0
M  V30 5175 H 521.976 -4.19085 -0.724447 0
M  V30 5176 N 520.291 -0.0518155 -1.57515 0
M  V30 5177 C 521.221 0.920283 -2.146 0
M  V30 5178 C 522.202 1.32406 -1.06783 0
M  V30 5179 O 523.387 1.39866 -1.34726 0
M  V30 5180 C 520.517 2.1949 -2.6915 0
M  V30 5181 C 519.471 1.93116 -3.81956 0
M  V30 5182 C 518.797 3.27037 -4.23026 0
M  V30 5183 C 520.097 1.25225 -5.07066 0
M  V30 5184 H 521.791 0.444801 -2.96077 0
M  V30 5185 H 519.337 0.212508 -1.42423 0
M  V30 5186 H 521.29 2.87894 -3.07725 0
M  V30 5187 H 520.014 2.69244 -1.84865 0
M  V30 5188 H 518.673 1.27123 -3.43854 0
M  V30 5189 H 518.321 3.74595 -3.3569 0
M  V30 5190 H 518.021 3.10189 -4.99056 0
M  V30 5191 H 519.545 3.96673 -4.64202 0
M  V30 5192 H 520.959 1.83666 -5.43083 0
M  V30 5193 H 519.356 1.18702 -5.88243 0
M  V30 5194 H 520.426 0.228382 -4.84362 0
M  V30 5195 N 521.769 1.56035 0.221574 0
M  V30 5196 C 523.046 1.69837 0.970301 0
M  V30 5197 C 523.426 0.599065 2.02421 0
M  V30 5198 O 522.774 -0.393929 2.25079 0
M  V30 5199 C 522.984 3.11148 1.58076 0
M  V30 5200 C 524.332 3.70555 2.07302 0
M  V30 5201 O 525.356 3.14109 1.6797 0
M  V30 5202 O 524.215 4.69562 2.79596 0
M  V30 5203 H 521.309 0.691727 0.453257 0
M  V30 5204 H 523.855 1.68353 0.213358 0
M  V30 5205 H 522.627 3.82617 0.819759 0
M  V30 5206 H 522.25 3.16749 2.40324 0
M  V30 5207 N 523.247 -0.488276 1.49845 0
M  V30 5208 C 524.495 -1.23911 1.59657 0
M  V30 5209 C 524.816 -1.92816 0.291005 0
M  V30 5210 O 524.086 -1.83328 -0.690485 0
M  V30 5211 H 522.666 -0.460357 0.588286 0
M  V30 5212 H 525.328 -0.564794 1.86537 0
M  V30 5213 H 524.424 -1.99625 2.39909 0
M  V30 5214 N 524.725 -1.39134 -0.740242 0
M  V30 5215 C 525.972 -1.36071 -1.49969 0
M  V30 5216 C 526.3 0.0450245 -1.94448 0
M  V30 5217 O 525.555 1.02482 -1.66721 0
M  V30 5218 C 525.854 -2.27457 -2.75678 0
M  V30 5219 C 525.52 -3.75185 -2.50094 0
M  V30 5220 C 524.182 -4.15439 -2.42825 0
M  V30 5221 C 526.534 -4.68643 -2.28086 0
M  V30 5222 C 523.862 -5.4722 -2.11584 0
M  V30 5223 C 526.214 -6.00695 -1.98363 0
M  V30 5224 C 524.878 -6.40018 -1.8956 0
M  V30 5225 H 524.148 -0.497921 -0.548777 0
M  V30 5226 H 526.795 -1.71599 -0.85007 0
M  V30 5227 H 525.1 -1.8503 -3.45356 0
M  V30 5228 H 526.797 -2.22384 -3.33686 0
M  V30 5229 H 523.387 -3.43279 -2.56627 0
M  V30 5230 H 527.571 -4.3838 -2.32672 0
M  V30 5231 H 522.827 -5.76615 -2.03287 0
M  V30 5232 H 527.001 -6.72644 -1.80341 0
M  V30 5233 H 524.628 -7.42051 -1.65117 0
M  V30 5234 N 526.204 0.969867 -1.24223 0
M  V30 5235 C 527.481 1.68774 -0.988664 0
M  V30 5236 C 527.861 2.05342 0.489673 0
M  V30 5237 O 527.209 1.75486 1.46345 0
M  V30 5238 C 527.419 2.92135 -1.90941 0
M  V30 5239 C 528.767 3.64422 -2.17903 0
M  V30 5240 O 529.791 3.02188 -1.88576 0
M  V30 5241 O 528.65 4.76446 -2.67697 0
M  V30 5242 H 525.744 0.737736 -0.37373 0
M  V30 5243 H 528.29 1.02415 -1.35312 0
M  V30 5244 H 527.062 2.61788 -2.90831 0
M  V30 5245 H 526.685 3.66228 -1.54798 0
M  V30 5246 N 527.682 1.05563 1.17022 0
M  V30 5247 C 528.612 0.681026 2.23348 0
M  V30 5248 C 529.593 -0.322983 1.67005 0
M  V30 5249 O 530.778 -0.199746 1.9317 0
M  V30 5250 C 527.908 0.0589053 3.4725 0
M  V30 5251 C 526.862 0.988082 4.16438 0
M  V30 5252 C 526.188 0.229646 5.34207 0
M  V30 5253 C 527.488 2.31388 4.68249 0
M  V30 5254 H 529.182 1.56993 2.54938 0
M  V30 5255 H 526.728 0.756302 1.2254 0
M  V30 5256 H 528.681 -0.214982 4.20851 0
M  V30 5257 H 527.405 -0.864968 3.14938 0
M  V30 5258 H 526.064 1.24659 3.44754 0
M  V30 5259 H 525.712 -0.697111 4.98146 0
M  V30 5260 H 525.412 0.848815 5.81437 0
M  V30 5261 H 526.936 -0.0368694 6.10589 0
M  V30 5262 H 528.35 2.09964 5.33468 0
M  V30 5263 H 526.747 2.88736 5.26072 0
M  V30 5264 H 527.817 2.94982 3.84855 0
M  V30 5265 N 529.16 -1.33526 0.837174 0
M  V30 5266 C 530.385 -2.0258 0.444545 0
M  V30 5267 C 530.81 -1.6258 -0.946006 0
M  V30 5268 O 530.168 -0.817548 -1.6182 0
M  V30 5269 C 530.216 -3.5605 0.571006 0
M  V30 5270 O 529.32 -4.10422 -0.403431 0
M  V30 5271 H 528.661 -0.638866 0.180958 0
M  V30 5272 H 531.191 -1.70462 1.13154 0
M  V30 5273 H 531.201 -4.05488 0.452024 0
M  V30 5274 H 529.876 -3.84509 1.58512 0
M  V30 5275 H 528.453 -3.72113 -0.242147 0
M  V30 5276 N 530.638 -0.59345 -1.46 0
M  V30 5277 C 532.049 -0.169801 -1.85926 0
M  V30 5278 C 532.4 1.26984 -1.49565 0
M  V30 5279 O 531.525 1.96076 -0.915602 0
M  V30 5280 C 532.12 -0.301385 -3.37457 0
M  V30 5281 C 530.679 0.0674684 -3.7634 0
M  V30 5282 C 529.826 -0.632383 -2.69993 0
M  V30 5283 H 532.777 -0.801014 -1.37002 0
M  V30 5284 H 532.798 0.470331 -3.77582 0
M  V30 5285 H 532.31 -1.34927 -3.63891 0
M  V30 5286 H 530.411 1.11507 -3.55523 0
M  V30 5287 H 530.524 -0.316332 -4.78055 0
M  V30 5288 H 528.888 -0.0714961 -2.546 0
M  V30 5289 H 529.671 -1.68212 -2.99265 0
M  V30 5290 N 532.116 1.54067 -0.331816 0
M  V30 5291 C 533.046 2.27569 0.522932 0
M  V30 5292 C 534.027 1.28679 1.11247 0
M  V30 5293 O 535.212 1.57504 1.13605 0
M  V30 5294 C 532.342 3.0397 1.67987 0
M  V30 5295 C 531.296 4.10267 1.21924 0
M  V30 5296 C 530.622 4.74555 2.46377 0
M  V30 5297 C 531.922 5.21268 0.32815 0
M  V30 5298 H 533.616 2.99264 -0.0901977 0
M  V30 5299 H 531.162 1.4393 -0.044821 0
M  V30 5300 H 533.115 3.54123 2.28418 0
M  V30 5301 H 531.839 2.29906 2.31971 0
M  V30 5302 H 530.498 3.61009 0.637809 0
M  V30 5303 H 530.146 3.97098 3.08743 0
M  V30 5304 H 529.846 5.46363 2.16243 0
M  V30 5305 H 531.37 5.27487 3.07555 0
M  V30 5306 H 532.784 5.67128 0.838978 0
M  V30 5307 H 531.181 5.99982 0.119228 0
M  V30 5308 H 532.251 4.80673 -0.638839 0
M  V30 5309 N 533.594 0.0601682 1.57485 0
M  V30 5310 C 534.524 -0.90889 2.15085 0
M  V30 5311 C 535.505 -1.31838 1.07484 0
M  V30 5312 O 536.69 -1.3915 1.35466 0
M  V30 5313 C 533.82 -2.18059 2.7031 0
M  V30 5314 C 532.774 -1.91088 3.82974 0
M  V30 5315 C 532.1 -3.24789 4.24754 0
M  V30 5316 C 533.4 -1.22535 5.07723 0
M  V30 5317 H 535.094 -0.429093 2.96309 0
M  V30 5318 H 532.64 -0.204952 1.42534 0
M  V30 5319 H 534.593 -2.86258 3.09248 0
M  V30 5320 H 533.317 -2.6826 1.8629 0
M  V30 5321 H 531.976 -1.25297 3.44523 0
M  V30 5322 H 531.624 -3.72809 3.37672 0
M  V30 5323 H 531.324 -3.07538 5.00694 0
M  V30 5324 H 532.848 -3.94205 4.66299 0
M  V30 5325 H 534.262 -1.80783 5.4405 0
M  V30 5326 H 532.659 -1.1558 5.88864 0
M  V30 5327 H 533.729 -0.202692 4.84476 0
M  V30 5328 N 535.072 -1.5615 -0.213296 0
M  V30 5329 C 536.002 -1.96109 -1.26742 0
M  V30 5330 C 536.983 -0.830448 -1.48451 0
M  V30 5331 O 538.168 -1.09339 -1.60495 0
M  V30 5332 C 535.298 -2.28492 -2.61551 0
M  V30 5333 C 534.252 -3.44124 -2.54485 0
M  V30 5334 C 533.578 -3.62134 -3.93399 0
M  V30 5335 C 534.878 -4.78855 -2.08556 0
M  V30 5336 H 536.572 -2.84412 -0.935434 0
M  V30 5337 H 534.118 -1.36836 -0.44854 0
M  V30 5338 H 536.071 -2.55039 -3.3546 0
M  V30 5339 H 534.795 -1.37052 -2.96453 0
M  V30 5340 H 533.454 -3.17639 -1.83033 0
M  V30 5341 H 533.102 -2.68055 -4.25623 0
M  V30 5342 H 532.802 -4.39913 -3.89551 0
M  V30 5343 H 534.326 -3.91038 -4.68958 0
M  V30 5344 H 535.74 -5.04552 -2.72213 0
M  V30 5345 H 534.137 -5.59975 -2.1575 0
M  V30 5346 H 535.207 -4.73657 -1.03811 0
M  V30 5347 N 536.55 0.480323 -1.50102 0
M  V30 5348 C 537.798 1.23063 -1.60312 0
M  V30 5349 C 538.119 1.92659 -0.301226 0
M  V30 5350 O 537.389 1.83691 0.680753 0
M  V30 5351 H 535.969 0.457231 -0.590719 0
M  V30 5352 H 538.631 0.554893 -1.86834 0
M  V30 5353 H 537.727 1.9835 -2.40964 0
M  V30 5354 N 538.028 1.39524 0.732853 0
M  V30 5355 C 539.256 1.40143 1.52209 0
M  V30 5356 C 539.671 -0.00348836 1.888 0
M  V30 5357 O 539.028 -0.975357 1.5425 0
M  V30 5358 C 539.079 2.27632 2.8083 0
M  V30 5359 O 538.8 3.62654 2.45792 0
M  V30 5360 C 540.301 2.36658 3.74844 0
M  V30 5361 H 537.521 0.478604 0.470297 0
M  V30 5362 H 540.065 1.83366 0.905388 0
M  V30 5363 H 538.22 1.87818 3.38826 0
M  V30 5364 H 538.634 4.08941 3.28431 0
M  V30 5365 H 540.108 3.02118 4.61984 0
M  V30 5366 H 540.585 1.38638 4.16745 0
M  V30 5367 H 541.191 2.76951 3.22766 0
M  V30 5368 N 539.506 -0.963266 1.24736 0
M  V30 5369 C 540.754 -1.70343 1.08755 0
M  V30 5370 C 541.075 -1.91387 -0.373619 0
M  V30 5371 O 540.345 -1.4948 -1.2662 0
M  V30 5372 H 538.925 -0.631224 0.399456 0
M  V30 5373 H 541.587 -1.15859 1.56725 0
M  V30 5374 H 540.683 -2.68616 1.58909 0
M  V30 5375 N 540.985 -1.06182 -1.16461 0
M  V30 5376 C 541.932 -0.671613 -2.20812 0
M  V30 5377 C 542.902 0.331186 -1.62765 0
M  V30 5378 O 544.087 0.22033 -1.89524 0
M  V30 5379 C 541.227 -0.063029 -3.45042 0
M  V30 5380 C 540.34 -1.11587 -4.1734 0
M  V30 5381 C 539.475 -0.473546 -5.29085 0
M  V30 5382 C 538.514 -1.51 -5.93182 0
M  V30 5383 N 537.651 -0.891118 -6.96422 0
M  V30 5384 H 542.491 -1.56589 -2.53542 0
M  V30 5385 H 540.028 -0.782951 -1.24532 0
M  V30 5386 H 541.986 0.307344 -4.16066 0
M  V30 5387 H 540.616 0.794663 -3.12866 0
M  V30 5388 H 539.668 -1.60396 -3.44931 0
M  V30 5389 H 540.98 -1.90221 -4.61104 0
M  V30 5390 H 540.134 -0.0501432 -6.06679 0
M  V30 5391 H 538.873 0.344687 -4.8648 0
M  V30 5392 H 537.878 -1.94331 -5.14311 0
M  V30 5393 H 539.103 -2.33031 -6.37866 0
M  V30 5394 H 537.049 -0.0935753 -6.55933 0
M  V30 5395 H 536.966 -1.61486 -7.38551 0
M  V30 5396 H 538.234 -0.492822 -7.77941 0
M  V30 5397 N 542.463 1.3308 -0.844243 0
M  V30 5398 C 543.688 2.02341 -0.455282 0
M  V30 5399 C 544.113 1.6308 0.93737 0
M  V30 5400 O 543.471 0.826118 1.61385 0
M  V30 5401 C 543.519 3.55743 -0.58988 0
M  V30 5402 O 542.623 4.1063 0.38166 0
M  V30 5403 H 541.964 0.637898 -0.184343 0
M  V30 5404 H 544.494 1.6986 -1.14056 0
M  V30 5405 H 544.504 4.05243 -0.473522 0
M  V30 5406 H 543.179 3.83662 -1.60549 0
M  V30 5407 H 541.756 3.72236 0.22241 0
M  V30 5408 N 543.941 0.601185 1.45683 0
M  V30 5409 C 545.352 0.179659 1.85834 0
M  V30 5410 C 545.703 -1.26189 1.50236 0
M  V30 5411 O 544.828 -1.95587 0.925987 0
M  V30 5412 C 545.423 0.319277 3.37292 0
M  V30 5413 C 543.982 -0.0475092 3.7637 0
M  V30 5414 C 543.129 0.646692 2.69654 0
M  V30 5415 H 546.08 0.808268 1.36575 0
M  V30 5416 H 546.101 -0.4503 3.77826 0
M  V30 5417 H 545.613 1.36855 3.6317 0
M  V30 5418 H 543.714 -1.0962 3.5611 0
M  V30 5419 H 543.827 0.34168 4.7788 0
M  V30 5420 H 542.191 0.0849971 2.54558 0
M  V30 5421 H 542.974 1.69797 2.98369 0
M  V30 5422 N 545.419 -1.53889 0.339982 0
M  V30 5423 C 546.835 -1.59595 -0.0120752 0
M  V30 5424 C 547.035 -1.35605 -1.49042 0
M  V30 5425 O 546.091 -1.14856 -2.24865 0
M  V30 5426 C 547.404 -2.9774 0.420898 0
M  V30 5427 C 548.952 -3.1077 0.37294 0
M  V30 5428 C 549.427 -4.51286 0.781327 0
M  V30 5429 N 550.918 -4.57325 0.735374 0
M  V30 5430 C 551.653 -5.64194 1.02336 0
M  V30 5431 N 551.149 -6.7893 1.37933 0
M  V30 5432 N 552.942 -5.54051 0.947838 0
M  V30 5433 H 545.093 -1.67738 1.30299 0
M  V30 5434 H 547.356 -0.785385 0.530918 0
M  V30 5435 H 547.062 -3.20349 1.45152 0
M  V30 5436 H 546.936 -3.76639 -0.205721 0
M  V30 5437 H 549.323 -2.87886 -0.648505 0
M  V30 5438 H 549.404 -2.33939 1.03472 0
M  V30 5439 H 549.048 -4.74905 1.80077 0
M  V30 5440 H 548.978 -5.26511 0.0970679 0
M  V30 5441 H 551.469 -3.74931 0.472773 0
M  V30 5442 H 551.782 -7.56392 1.58402 0
M  V30 5443 H 550.127 -6.80386 1.41774 0
M  V30 5444 H 553.318 -4.63293 0.669115 0
M  V30 5445 H 553.491 -6.37246 1.17563 0
M  V30 5446 N 546.897 -0.0685191 -1.57451 0
M  V30 5447 C 547.829 0.929372 -2.09512 0
M  V30 5448 C 548.842 1.26354 -1.02657 0
M  V30 5449 O 550.031 1.2213 -1.30179 0
M  V30 5450 C 547.131 2.24612 -2.53777 0
M  V30 5451 C 546.304 2.09128 -3.84167 0
M  V30 5452 C 545.363 3.24079 -4.14559 0
M  V30 5453 O 544.389 2.99215 -4.8421 0
M  V30 5454 N 545.591 4.49077 -3.67845 0
M  V30 5455 H 548.356 0.484901 -2.95751 0
M  V30 5456 H 545.917 0.11729 -1.61475 0
M  V30 5457 H 547.909 3.00412 -2.71172 0
M  V30 5458 H 546.479 2.60569 -1.72692 0
M  V30 5459 H 545.699 1.17815 -3.76182 0
M  V30 5460 H 546.987 1.9603 -4.69521 0
M  V30 5461 H 546.385 4.72165 -3.11571 0
M  V30 5462 H 544.942 5.21915 -3.90446 0
M  V30 5463 N 548.375 1.56261 0.205012 0
M  V30 5464 C 549.6 1.84491 0.947512 0
M  V30 5465 C 550.025 0.650894 1.76479 0
M  V30 5466 O 549.383 -0.40035 1.76824 0
M  V30 5467 C 549.431 3.10863 1.82747 0
M  V30 5468 O 548.535 2.90719 2.925 0
M  V30 5469 H 547.876 0.607783 0.267386 0
M  V30 5470 H 550.406 2.03485 0.213323 0
M  V30 5471 H 550.416 3.41399 2.23407 0
M  V30 5472 H 549.091 3.97392 1.2269 0
M  V30 5473 H 547.668 2.71457 2.55667 0
M  V30 5474 N 549.853 -0.472356 1.50355 0
M  V30 5475 C 550.783 -1.57859 1.72055 0
M  V30 5476 C 551.764 -1.60283 0.569505 0
M  V30 5477 O 552.949 -1.7657 0.808503 0
M  V30 5478 C 550.079 -2.96191 1.81351 0
M  V30 5479 C 549.033 -3.08633 2.96529 0
M  V30 5480 C 548.359 -4.486 2.90968 0
M  V30 5481 C 549.659 -2.85969 4.37057 0
M  V30 5482 H 551.353 -1.39953 2.64676 0
M  V30 5483 H 548.899 -0.671846 1.27367 0
M  V30 5484 H 550.852 -3.73507 1.95117 0
M  V30 5485 H 549.576 -3.15251 0.853502 0
M  V30 5486 H 548.235 -2.33749 2.82413 0
M  V30 5487 H 547.883 -4.64577 1.92815 0
M  V30 5488 H 547.583 -4.57861 3.68289 0
M  V30 5489 H 549.107 -5.27938 3.0678 0
M  V30 5490 H 550.521 -3.53036 4.51706 0
M  V30 5491 H 548.918 -3.06677 5.15819 0
M  V30 5492 H 549.988 -1.81838 4.49514 0
M  V30 5493 N 551.331 -1.39911 -0.725443 0
M  V30 5494 C 552.578 -1.37654 -1.48518 0
M  V30 5495 C 552.906 0.0243982 -1.94485 0
M  V30 5496 O 552.161 1.00708 -1.67799 0
M  V30 5497 C 552.46 -2.30368 -2.7325 0
M  V30 5498 C 552.126 -3.77817 -2.461 0
M  V30 5499 C 550.788 -4.17991 -2.38405 0
M  V30 5500 C 553.14 -4.71036 -2.23103 0
M  V30 5501 C 550.468 -5.49433 -2.05768 0
M  V30 5502 C 552.82 -6.02766 -1.9198 0
M  V30 5503 C 551.484 -6.41993 -1.82761 0
M  V30 5504 H 550.754 -0.503713 -0.543465 0
M  V30 5505 H 553.401 -1.7249 -0.831822 0
M  V30 5506 H 551.706 -1.88683 -3.43375 0
M  V30 5507 H 553.403 -2.2591 -3.31309 0
M  V30 5508 H 549.993 -3.45982 -2.52972 0
M  V30 5509 H 554.177 -4.40823 -2.2801 0
M  V30 5510 H 549.433 -5.78738 -1.9716 0
M  V30 5511 H 553.607 -6.74519 -1.73197 0
M  V30 5512 H 551.234 -7.43761 -1.57237 0
M  V30 5513 N 552.809 0.956637 -1.25245 0
M  V30 5514 C 554.056 1.701 -1.09874 0
M  V30 5515 C 554.384 1.91128 0.36062 0
M  V30 5516 O 553.639 1.47837 1.28229 0
M  V30 5517 C 553.938 3.08996 -1.79601 0
M  V30 5518 C 553.604 3.07774 -3.29523 0
M  V30 5519 C 552.266 3.07149 -3.70423 0
M  V30 5520 C 554.618 3.01257 -4.25316 0
M  V30 5521 C 551.946 2.97752 -5.0553 0
M  V30 5522 C 554.298 2.93403 -5.60444 0
M  V30 5523 C 552.962 2.91111 -6.00675 0
M  V30 5524 H 552.232 0.62244 -0.402056 0
M  V30 5525 H 554.879 1.1178 -1.55491 0
M  V30 5526 H 553.184 3.70848 -1.26408 0
M  V30 5527 H 554.881 3.65407 -1.65162 0
M  V30 5528 H 551.471 3.09032 -2.9698 0
M  V30 5529 H 555.655 3.00861 -3.9471 0
M  V30 5530 H 550.911 2.94346 -5.35883 0
M  V30 5531 H 555.085 2.87321 -6.34366 0
M  V30 5532 H 552.712 2.83586 -7.05325 0
M  V30 5533 N 554.287 1.06798 1.15896 0
M  V30 5534 C 555.517 0.807522 1.90165 0
M  V30 5535 C 555.925 -0.642417 1.7796 0
M  V30 5536 O 555.268 -1.45193 1.12537 0
M  V30 5537 C 555.33 1.12939 3.41299 0
M  V30 5538 C 554.994 2.57879 3.7729 0
M  V30 5539 C 555.991 3.56118 3.78782 0
M  V30 5540 C 553.676 2.93311 4.07767 0
M  V30 5541 C 555.67 4.87827 4.10248 0
M  V30 5542 C 553.357 4.25219 4.38899 0
M  V30 5543 C 554.355 5.22287 4.4012 0
M  V30 5544 O 554.043 6.51826 4.70508 0
M  V30 5545 H 553.775 0.291946 0.609708 0
M  V30 5546 H 556.329 1.42627 1.47806 0
M  V30 5547 H 554.559 0.45359 3.84031 0
M  V30 5548 H 556.248 0.852363 3.9685 0
M  V30 5549 H 557.014 3.30086 3.55342 0
M  V30 5550 H 552.893 2.18409 4.05979 0
M  V30 5551 H 556.437 5.63586 4.11116 0
M  V30 5552 H 552.334 4.51006 4.61805 0
M  V30 5553 H 553.102 6.56893 4.88298 0
M  V30 5554 N 555.766 -1.3263 0.851289 0
M  V30 5555 C 557.177 -1.79653 0.5081 0
M  V30 5556 C 557.528 -1.70327 -0.973815 0
M  V30 5557 O 556.653 -1.25986 -1.75944 0
M  V30 5558 C 557.248 -3.26196 0.915515 0
M  V30 5559 C 555.807 -3.71187 0.624277 0
M  V30 5560 C 554.954 -2.53804 1.11709 0
M  V30 5561 H 557.905 -1.19976 1.03882 0
M  V30 5562 H 557.926 -3.79801 0.230535 0
M  V30 5563 H 557.438 -3.32952 1.99411 0
M  V30 5564 H 555.539 -3.69948 -0.443737 0
M  V30 5565 H 555.652 -4.64132 1.18821 0
M  V30 5566 H 554.016 -2.48964 0.537484 0
M  V30 5567 H 554.799 -2.63315 2.20272 0
M  V30 5568 N 557.244 -0.608902 -1.45362 0
M  V30 5569 C 558.469 -0.10921 -2.07112 0
M  V30 5570 C 558.894 1.19779 -1.45033 0
M  V30 5571 O 558.252 1.72961 -0.543527 0
M  V30 5572 C 558.3 0.0155745 -3.60597 0
M  V30 5573 O 557.404 1.06546 -3.98399 0
M  V30 5574 H 556.745 -0.0746619 -0.659789 0
M  V30 5575 H 559.275 -0.839283 -1.86594 0
M  V30 5576 H 559.285 0.213364 -4.07442 0
M  V30 5577 H 557.96 -0.938765 -4.05167 0
M  V30 5578 H 556.537 0.844024 -3.63223 0
M  V30 5579 N 558.722 1.53707 -0.348139 0
M  V30 5580 C 559.952 2.05108 0.247864 0
M  V30 5581 C 560.36 1.22252 1.44399 0
M  V30 5582 O 559.703 0.251853 1.81965 0
M  V30 5583 C 559.765 3.52171 0.722187 0
M  V30 5584 C 559.429 4.5562 -0.354902 0
M  V30 5585 C 560.426 5.05883 -1.19911 0
M  V30 5586 C 558.111 4.99703 -0.510145 0
M  V30 5587 C 560.105 5.98814 -2.18406 0
M  V30 5588 C 557.792 5.92443 -1.49848 0
M  V30 5589 C 558.79 6.41887 -2.33389 0
M  V30 5590 O 558.478 7.32802 -3.3054 0
M  V30 5591 H 558.21 0.674086 0.0508296 0
M  V30 5592 H 560.764 1.99229 -0.49968 0
M  V30 5593 H 558.994 3.55529 1.52105 0
M  V30 5594 H 560.683 3.8652 1.23925 0
M  V30 5595 H 561.449 4.72586 -1.09028 0
M  V30 5596 H 557.328 4.60816 0.130274 0
M  V30 5597 H 560.872 6.3733 -2.83649 0
M  V30 5598 H 556.769 6.25155 -1.60786 0
M  V30 5599 H 557.537 7.50749 -3.26064 0
M  V30 5600 N 560.2 0.0768682 1.57412 0
M  V30 5601 C 561.611 -0.455037 1.8107 0
M  V30 5602 C 561.962 -1.69323 0.991162 0
M  V30 5603 O 561.087 -2.15328 0.215156 0
M  V30 5604 C 561.682 -0.832316 3.28417 0
M  V30 5605 C 560.241 -1.30906 3.52903 0
M  V30 5606 C 559.388 -0.296714 2.75708 0
M  V30 5607 H 562.339 0.302514 1.5579 0
M  V30 5608 H 562.36 -1.69333 3.40744 0
M  V30 5609 H 561.872 0.0690532 3.88039 0
M  V30 5610 H 559.973 -2.22875 2.98592 0
M  V30 5611 H 560.086 -1.28348 4.61588 0
M  V30 5612 H 558.45 -0.775059 2.42621 0
M  V30 5613 H 559.233 0.597015 3.38069 0
M  V30 5614 N 561.678 -1.56367 -0.196722 0
M  V30 5615 C 562.955 -1.71359 -0.943159 0
M  V30 5616 C 563.335 -0.631192 -2.01443 0
M  V30 5617 O 562.683 0.358071 -2.25677 0
M  V30 5618 C 562.893 -3.13623 -1.53106 0
M  V30 5619 C 564.241 -3.73806 -2.01381 0
M  V30 5620 O 565.265 -3.16742 -1.62951 0
M  V30 5621 O 564.124 -4.73951 -2.7209 0
M  V30 5622 H 561.218 -0.698851 -0.442195 0
M  V30 5623 H 563.764 -1.68672 -0.186547 0
M  V30 5624 H 562.536 -3.83873 -0.758785 0
M  V30 5625 H 562.159 -3.20532 -2.35255 0
M  V30 5626 N 563.156 0.464375 -1.50603 0
M  V30 5627 C 564.066 1.58723 -1.72754 0
M  V30 5628 C 565.082 1.62925 -0.610844 0
M  V30 5629 O 566.258 1.8067 -0.889963 0
M  V30 5630 C 563.323 2.94897 -1.82309 0
M  V30 5631 C 562.384 3.0103 -3.06071 0
M  V30 5632 C 561.617 4.30708 -3.1516 0
M  V30 5633 O 561.84 5.2159 -2.30868 0
M  V30 5634 O 560.774 4.42571 -4.0794 0
M  V30 5635 H 564.6 1.42954 -2.67951 0
M  V30 5636 H 562.185 0.644579 -1.3478 0
M  V30 5637 H 564.067 3.75764 -1.90735 0
M  V30 5638 H 562.742 3.10851 -0.902967 0
M  V30 5639 H 561.649 2.19217 -3.03142 0
M  V30 5640 H 562.982 2.90014 -3.97684 0
M  V30 5641 N 564.634 1.40294 0.718013 0
M  V30 5642 C 565.88 1.38645 1.48005 0
M  V30 5643 C 566.213 -0.0121202 1.94196 0
M  V30 5644 O 565.488 -0.980309 1.67989 0
M  V30 5645 C 565.771 2.37379 2.70782 0
M  V30 5646 C 565.624 3.8625 2.30501 0
M  V30 5647 C 566.943 2.33685 3.72933 0
M  V30 5648 H 564.062 0.504928 0.536858 0
M  V30 5649 H 566.704 1.71411 0.819649 0
M  V30 5650 H 564.854 2.09568 3.27129 0
M  V30 5651 H 566.526 4.24879 1.79655 0
M  V30 5652 H 564.769 4.02202 1.6253 0
M  V30 5653 H 565.44 4.50847 3.18498 0
M  V30 5654 H 567.916 2.58314 3.2621 0
M  V30 5655 H 566.792 3.0482 4.56482 0
M  V30 5656 H 567.053 1.34765 4.21059 0
M  V30 5657 N 566.112 -0.949982 1.2575 0
M  V30 5658 C 567.528 -1.22191 1.02672 0
M  V30 5659 C 567.728 -1.99898 -0.253588 0
M  V30 5660 O 566.784 -2.33329 -0.965076 0
M  V30 5661 C 568.097 -1.99175 2.25277 0
M  V30 5662 C 569.645 -2.12201 2.30087 0
M  V30 5663 C 570.12 -2.92586 3.5236 0
M  V30 5664 N 571.611 -3.00163 3.52784 0
M  V30 5665 C 572.346 -3.62766 4.44059 0
M  V30 5666 N 571.842 -4.26943 5.45611 0
M  V30 5667 N 573.635 -3.59953 4.3173 0
M  V30 5668 H 565.786 -0.430258 2.07996 0
M  V30 5669 H 568.049 -0.252844 0.91366 0
M  V30 5670 H 567.755 -1.49479 3.18354 0
M  V30 5671 H 567.629 -2.99868 2.28821 0
M  V30 5672 H 570.016 -2.61093 1.3753 0
M  V30 5673 H 570.097 -1.10799 2.30559 0
M  V30 5674 H 569.741 -2.44383 4.45241 0
M  V30 5675 H 569.671 -3.94224 3.49134 0
M  V30 5676 H 572.162 -2.54529 2.79327 0
M  V30 5677 H 572.475 -4.72583 6.11461 0
M  V30 5678 H 570.82 -4.25557 5.49478 0
M  V30 5679 H 574.011 -3.09003 3.51617 0
M  V30 5680 H 574.184 -4.08455 5.03059 0
M  V30 5681 N 567.59 -1.07411 -1.15328 0
M  V30 5682 C 568.838 -0.796073 -1.85761 0
M  V30 5683 C 569.159 0.679864 -1.82764 0
M  V30 5684 O 568.429 1.49242 -1.269 0
M  V30 5685 H 567.009 -0.291495 -0.687779 0
M  V30 5686 H 569.671 -1.35799 -1.39802 0
M  V30 5687 H 568.767 -1.13114 -2.90881 0
M  V30 5688 N 569.068 1.32177 -0.85831 0
M  V30 5689 C 570.314 1.97417 -0.46417 0
M  V30 5690 C 570.647 1.67746 0.978514 0
M  V30 5691 O 569.922 0.967654 1.68721 0
M  V30 5692 C 570.205 3.53069 -0.708094 0
M  V30 5693 C 570.058 3.92357 -2.19946 0
M  V30 5694 C 571.377 4.39783 -0.166881 0
M  V30 5695 H 568.496 0.717097 -0.17012 0
M  V30 5696 H 571.138 1.56499 -1.07741 0
M  V30 5697 H 569.288 3.88054 -0.186128 0
M  V30 5698 H 570.96 3.67533 -2.78779 0
M  V30 5699 H 569.203 3.41384 -2.67656 0
M  V30 5700 H 569.874 5.00841 -2.32082 0
M  V30 5701 H 572.35 4.11556 -0.613285 0
M  V30 5702 H 571.226 5.47671 -0.367093 0
M  V30 5703 H 571.487 4.32196 0.930559 0
M  V30 5704 N 570.547 0.616602 1.45037 0
M  V30 5705 C 571.794 0.115331 2.02171 0
M  V30 5706 C 572.122 -1.25748 1.48383 0
M  V30 5707 O 571.377 -1.84511 0.652229 0
M  V30 5708 C 571.676 0.0356829 3.57382 0
M  V30 5709 C 571.342 1.34535 4.30362 0
M  V30 5710 C 570.004 1.70408 4.50016 0
M  V30 5711 C 572.356 2.21049 4.72003 0
M  V30 5712 C 569.684 2.92529 5.0857 0
M  V30 5713 C 572.036 3.42427 5.31908 0
M  V30 5714 C 570.7 3.78541 5.49784 0
M  V30 5715 H 569.97 0.0422024 0.739797 0
M  V30 5716 H 572.617 0.80002 1.73988 0
M  V30 5717 H 570.922 -0.732314 3.84895 0
M  V30 5718 H 572.619 -0.368463 3.99304 0
M  V30 5719 H 569.209 1.05615 4.15383 0
M  V30 5720 H 573.393 1.94632 4.56544 0
M  V30 5721 H 568.649 3.20605 5.20598 0
M  V30 5722 H 572.823 4.09709 5.63127 0
M  V30 5723 H 570.45 4.73255 5.94923 0
M  V30 5724 N 572.025 -1.5352 0.356285 0
M  V30 5725 C 572.988 -2.24071 -0.482182 0
M  V30 5726 C 573.988 -1.24531 -1.01729 0
M  V30 5727 O 575.178 -1.48876 -0.904513 0
M  V30 5728 C 572.31 -2.97025 -1.67299 0
M  V30 5729 H 573.503 -2.99596 0.135031 0
M  V30 5730 H 571.056 -1.55928 0.107825 0
M  V30 5731 H 571.791 -2.25719 -2.32855 0
M  V30 5732 H 571.576 -3.7005 -1.29636 0
M  V30 5733 H 573.066 -3.50683 -2.26741 0
M  V30 5734 N 573.503 -0.0852151 -1.57369 0
M  V30 5735 C 574.749 0.581666 -1.94279 0
M  V30 5736 C 575.082 1.68444 -0.966446 0
M  V30 5737 O 574.357 1.945 0.00215277 0
M  V30 5738 C 574.64 1.14609 -3.41375 0
M  V30 5739 C 574.493 0.0490414 -4.49773 0
M  V30 5740 C 575.812 2.04751 -3.8957 0
M  V30 5741 H 572.931 0.209972 -0.706456 0
M  V30 5742 H 575.573 -0.153915 -1.89376 0
M  V30 5743 H 573.723 1.77297 -3.45685 0
M  V30 5744 H 575.395 -0.584721 -4.57579 0
M  V30 5745 H 573.638 -0.618638 -4.29366 0
M  V30 5746 H 574.309 0.484601 -5.49869 0
M  V30 5747 H 576.785 1.51981 -3.87351 0
M  V30 5748 H 575.661 2.41173 -4.93079 0
M  V30 5749 H 575.922 2.96107 -3.28288 0
M  V30 5750 N 574.981 1.5647 0.188427 0
M  V30 5751 C 576.397 1.50204 0.539532 0
M  V30 5752 C 576.597 0.78644 1.85519 0
M  V30 5753 O 575.653 0.339714 2.50204 0
M  V30 5754 C 576.966 2.94893 0.588103 0
M  V30 5755 C 578.514 3.05602 0.67648 0
M  V30 5756 C 578.989 4.51716 0.756101 0
M  V30 5757 N 580.48 4.55894 0.819451 0
M  V30 5758 C 581.215 5.66272 0.90134 0
M  V30 5759 N 580.711 6.86323 0.945118 0
M  V30 5760 N 582.504 5.54201 0.939043 0
M  V30 5761 H 574.655 2.01406 -0.674493 0
M  V30 5762 H 576.918 0.916828 -0.241103 0
M  V30 5763 H 576.624 3.50334 -0.309633 0
M  V30 5764 H 576.498 3.4861 1.44051 0
M  V30 5765 H 578.885 2.50206 1.56465 0
M  V30 5766 H 578.966 2.54999 -0.202262 0
M  V30 5767 H 578.61 5.07739 -0.12774 0
M  V30 5768 H 578.54 5.00058 1.65074 0
M  V30 5769 H 581.031 3.69452 0.794594 0
M  V30 5770 H 581.344 7.66194 1.0083 0
M  V30 5771 H 579.689 6.88968 0.913683 0
M  V30 5772 H 582.88 4.59333 0.901725 0
M  V30 5773 H 583.053 6.40247 0.999402 0
M  V30 5774 N 576.459 -0.456382 1.50847 0
M  V30 5775 C 577.687 -1.23026 1.66349 0
M  V30 5776 C 578.102 -1.85473 0.352868 0
M  V30 5777 O 577.459 -1.69885 -0.666739 0
M  V30 5778 C 577.51 -2.32827 2.76539 0
M  V30 5779 O 577.231 -1.72938 4.02522 0
M  V30 5780 C 578.732 -3.23448 3.03144 0
M  V30 5781 H 575.952 -0.371527 0.558756 0
M  V30 5782 H 578.496 -0.543082 1.97157 0
M  V30 5783 H 576.651 -2.97294 2.48384 0
M  V30 5784 H 577.065 -2.45357 4.63573 0
M  V30 5785 H 578.539 -3.96669 3.83872 0
M  V30 5786 H 579.016 -3.83094 2.14793 0
M  V30 5787 H 579.622 -2.64702 3.32886 0
M  V30 5788 N 577.937 -1.40673 -0.710563 0
M  V30 5789 C 579.185 -1.38947 -1.46759 0
M  V30 5790 C 579.506 0.00572879 -1.94999 0
M  V30 5791 O 578.776 0.961358 -1.70689 0
M  V30 5792 H 577.356 -0.5114 -0.544499 0
M  V30 5793 H 580.018 -1.75773 -0.842012 0
M  V30 5794 H 579.114 -2.06745 -2.33801 0
M  V30 5795 N 579.415 0.9433 -1.26252 0
M  V30 5796 C 580.362 2.0417 -1.07625 0
M  V30 5797 C 581.332 1.6609 0.0180738 0
M  V30 5798 O 582.517 1.90276 -0.141289 0
M  V30 5799 C 579.657 3.37653 -0.713043 0
M  V30 5800 C 578.77 3.88783 -1.8834 0
M  V30 5801 C 577.905 5.10642 -1.4635 0
M  V30 5802 C 576.944 5.54028 -2.60229 0
M  V30 5803 N 576.081 6.67092 -2.18936 0
M  V30 5804 H 580.921 2.19436 -2.01623 0
M  V30 5805 H 578.458 1.07519 -1.00389 0
M  V30 5806 H 580.416 4.14391 -0.483358 0
M  V30 5807 H 579.046 3.22241 0.18996 0
M  V30 5808 H 578.098 3.08464 -2.22608 0
M  V30 5809 H 579.41 4.16922 -2.73821 0
M  V30 5810 H 578.564 5.94832 -1.19414 0
M  V30 5811 H 577.303 4.84244 -0.579568 0
M  V30 5812 H 576.308 4.68396 -2.87898 0
M  V30 5813 H 577.533 5.82429 -3.49219 0
M  V30 5814 H 575.479 6.42381 -1.32974 0
M  V30 5815 H 575.396 6.94806 -2.97961 0
M  V30 5816 H 576.664 7.54662 -1.95206 0
M  V30 5817 N 580.893 1.08022 1.14757 0
M  V30 5818 C 582.123 0.827646 1.89298 0
M  V30 5819 C 582.531 -0.623506 1.78631 0
M  V30 5820 O 581.874 -1.43991 1.14071 0
M  V30 5821 C 581.936 1.16553 3.40082 0
M  V30 5822 C 581.6 2.61866 3.74533 0
M  V30 5823 C 582.597 3.60116 3.74984 0
M  V30 5824 C 580.282 2.97619 4.04633 0
M  V30 5825 C 582.276 4.92151 4.05051 0
M  V30 5826 C 579.963 4.2985 4.34364 0
M  V30 5827 C 580.961 5.26926 4.34555 0
M  V30 5828 O 580.649 6.5678 4.63568 0
M  V30 5829 H 580.381 0.298396 0.606577 0
M  V30 5830 H 582.935 1.44187 1.46285 0
M  V30 5831 H 581.165 0.494296 3.83528 0
M  V30 5832 H 582.854 0.894407 3.95923 0
M  V30 5833 H 583.62 3.33837 3.51821 0
M  V30 5834 H 579.499 2.22702 4.03639 0
M  V30 5835 H 583.043 5.67915 4.05115 0
M  V30 5836 H 578.94 4.55879 4.56995 0
M  V30 5837 H 579.708 6.62035 4.81303 0
M  V30 5838 N 582.371 -1.3172 0.865308 0
M  V30 5839 C 583.318 -2.2863 0.315736 0
M  V30 5840 C 584.288 -1.55524 -0.583213 0
M  V30 5841 O 585.473 -1.83694 -0.51585 0
M  V30 5842 C 582.613 -3.41735 -0.480773 0
M  V30 5843 C 581.726 -4.297 0.445167 0
M  V30 5844 C 580.861 -5.29944 -0.365012 0
M  V30 5845 C 579.9 -6.09554 0.557651 0
M  V30 5846 N 579.037 -7.01768 -0.215994 0
M  V30 5847 H 583.877 -2.75026 1.14736 0
M  V30 5848 H 581.414 -1.35302 0.577209 0
M  V30 5849 H 583.372 -4.06045 -0.958306 0
M  V30 5850 H 582.002 -2.96461 -1.27714 0
M  V30 5851 H 581.054 -3.65875 1.04113 0
M  V30 5852 H 582.366 -4.85295 1.15284 0
M  V30 5853 H 581.52 -5.99908 -0.905255 0
M  V30 5854 H 580.259 -4.74994 -1.106 0
M  V30 5855 H 579.264 -5.38485 1.10969 0
M  V30 5856 H 580.489 -6.66591 1.29742 0
M  V30 5857 H 578.435 -6.49232 -0.939878 0
M  V30 5858 H 578.352 -7.54762 0.432431 0
M  V30 5859 H 579.62 -7.76002 -0.737618 0
M  V30 5860 N 583.85 -0.624285 -1.44708 0
M  V30 5861 C 584.812 0.0749638 -2.29077 0
M  V30 5862 C 585.812 0.778965 -1.40673 0
M  V30 5863 O 587.003 0.624591 -1.62618 0
M  V30 5864 C 584.135 1.11663 -3.22094 0
M  V30 5865 H 585.327 -0.667013 -2.92388 0
M  V30 5866 H 582.88 -0.384098 -1.51507 0
M  V30 5867 H 583.615 1.88881 -2.63618 0
M  V30 5868 H 583.401 0.61583 -3.87234 0
M  V30 5869 H 584.891 1.60585 -3.8549 0
M  V30 5870 N 585.328 1.53329 -0.364422 0
M  V30 5871 C 586.278 2.22472 0.499024 0
M  V30 5872 C 587.262 1.21952 1.0496 0
M  V30 5873 O 588.454 1.47405 0.979836 0
M  V30 5874 C 585.583 3.01659 1.6388 0
M  V30 5875 C 584.669 4.09555 1.10116 0
M  V30 5876 N 585.06 5.04988 0.286414 0
M  V30 5877 C 583.358 4.2424 1.37608 0
M  V30 5878 C 584.059 5.81699 -0.00781682 0
M  V30 5879 N 583.035 5.40394 0.589494 0
M  V30 5880 H 586.837 2.93611 -0.130284 0
M  V30 5881 H 584.351 1.61483 -0.172377 0
M  V30 5882 H 586.348 3.4971 2.26954 0
M  V30 5883 H 585.008 2.32051 2.27118 0
M  V30 5884 H 586.019 5.17847 -0.0742839 0
M  V30 5885 H 582.696 3.65858 2.01133 0
M  V30 5886 H 584.086 6.68587 -0.666394 0
M  V30 5887 N 586.806 0.0935595 1.57322 0
M  V30 5888 C 588.053 -0.570509 1.94297 0
M  V30 5889 C 588.381 -1.68286 0.97519 0
M  V30 5890 O 587.636 -1.95699 -0.00548655 0
M  V30 5891 C 587.935 -1.16692 3.37813 0
M  V30 5892 C 587.601 -0.178509 4.50547 0
M  V30 5893 C 586.263 0.0933475 4.81109 0
M  V30 5894 C 588.615 0.496472 5.1883 0
M  V30 5895 C 585.943 1.0469 5.77284 0
M  V30 5896 C 588.295 1.43849 6.16028 0
M  V30 5897 C 586.959 1.71859 6.44997 0
M  V30 5898 H 586.229 -0.208764 0.710984 0
M  V30 5899 H 588.876 0.169066 1.90752 0
M  V30 5900 H 587.181 -1.98271 3.37929 0
M  V30 5901 H 588.878 -1.6884 3.63722 0
M  V30 5902 H 585.468 -0.400584 4.26724 0
M  V30 5903 H 589.652 0.299584 4.95395 0
M  V30 5904 H 584.908 1.27094 5.98044 0
M  V30 5905 H 589.082 1.96734 6.68034 0
M  V30 5906 H 586.709 2.45906 7.19329 0
M  V30 5907 N 588.284 -1.56567 -0.180126 0
M  V30 5908 C 589.531 -1.81492 -0.898167 0
M  V30 5909 C 589.859 -0.669225 -1.82624 0
M  V30 5910 O 589.114 0.344096 -1.92651 0
M  V30 5911 C 589.413 -3.1252 -1.73395 0
M  V30 5912 C 589.079 -4.40658 -0.955567 0
M  V30 5913 C 587.741 -4.75465 -0.740707 0
M  V30 5914 C 590.093 -5.19593 -0.408948 0
M  V30 5915 C 587.421 -5.86691 0.0320128 0
M  V30 5916 C 589.773 -6.31627 0.350638 0
M  V30 5917 C 588.437 -6.65007 0.576378 0
M  V30 5918 H 587.707 -0.664125 -0.328662 0
M  V30 5919 H 590.354 -1.908 -0.163616 0
M  V30 5920 H 588.659 -2.98515 -2.53763 0
M  V30 5921 H 590.356 -3.29013 -2.29241 0
M  V30 5922 H 586.946 -4.13352 -1.13306 0
M  V30 5923 H 591.13 -4.93104 -0.562307 0
M  V30 5924 H 586.386 -6.11016 0.216735 0
M  V30 5925 H 590.56 -6.92001 0.781497 0
M  V30 5926 H 588.187 -7.51033 1.17703 0
M  V30 5927 N 589.762 0.448376 -1.51087 0
M  V30 5928 C 590.99 1.22143 -1.66999 0
M  V30 5929 C 591.405 1.85283 -0.362699 0
M  V30 5930 O 590.762 1.70236 0.65772 0
M  V30 5931 C 590.813 2.31357 -2.7777 0
M  V30 5932 O 590.534 1.70801 -4.03434 0
M  V30 5933 C 592.035 3.21836 -3.04855 0
M  V30 5934 H 589.255 0.368558 -0.560719 0
M  V30 5935 H 591.799 0.532618 -1.97442 0
M  V30 5936 H 589.954 2.95973 -2.49958 0
M  V30 5937 H 590.368 2.42895 -4.64868 0
M  V30 5938 H 591.842 3.94627 -3.85971 0
M  V30 5939 H 592.319 3.81949 -2.16821 0
M  V30 5940 H 592.925 2.62933 -3.34285 0
M  V30 5941 N 591.24 1.41047 0.703093 0
M  V30 5942 C 592.172 1.38228 1.82827 0
M  V30 5943 C 593.185 0.285637 1.60275 0
M  V30 5944 O 594.374 0.54685 1.69917 0
M  V30 5945 C 591.474 1.13136 3.19458 0
M  V30 5946 C 590.647 2.34695 3.69103 0
M  V30 5947 C 589.706 2.05574 4.84382 0
M  V30 5948 O 588.732 2.78549 4.96386 0
M  V30 5949 N 589.934 1.04135 5.71083 0
M  V30 5950 H 592.699 2.35203 1.85741 0
M  V30 5951 H 590.26 1.35562 0.885125 0
M  V30 5952 H 592.252 0.916183 3.94193 0
M  V30 5953 H 590.822 0.247836 3.11616 0
M  V30 5954 H 590.042 2.71963 2.85359 0
M  V30 5955 H 591.33 3.15705 3.99009 0
M  V30 5956 H 590.728 0.43722 5.64008 0
M  V30 5957 H 589.285 0.886078 6.45749 0
M  V30 5958 N 592.718 -0.936591 1.26751 0
M  V30 5959 C 593.966 -1.67998 1.12343 0
M  V30 5960 C 594.287 -1.92137 -0.332938 0
M  V30 5961 O 593.557 -1.52132 -1.23421 0
M  V30 5962 H 592.137 -0.622609 0.412756 0
M  V30 5963 H 594.799 -1.12509 1.59147 0
M  V30 5964 H 593.895 -2.65185 1.64571 0
M  V30 5965 N 594.196 -1.08629 -1.14182 0
M  V30 5966 C 595.421 -0.83902 -1.89671 0
M  V30 5967 C 595.846 0.603332 -1.78161 0
M  V30 5968 O 595.204 1.42301 -1.12339 0
M  V30 5969 C 595.252 -1.26854 -3.37551 0
M  V30 5970 O 594.356 -0.42188 -4.10236 0
M  V30 5971 H 593.697 -0.304545 -0.590041 0
M  V30 5972 H 596.227 -1.4483 -1.44518 0
M  V30 5973 H 596.237 -1.25038 -3.88368 0
M  V30 5974 H 594.912 -2.31901 -3.45246 0
M  V30 5975 H 593.489 -0.503654 -3.69483 0
M  V30 5976 N 595.674 1.31259 -0.872281 0
M  V30 5977 C 596.637 2.26744 -0.334656 0
M  V30 5978 C 597.637 1.52307 0.515681 0
M  V30 5979 O 598.827 1.71148 0.324656 0
M  V30 5980 C 595.959 3.36841 0.524482 0
M  V30 5981 H 597.152 2.75812 -1.17762 0
M  V30 5982 H 594.705 1.42232 -0.648064 0
M  V30 5983 H 595.44 2.93069 1.38855 0
M  V30 5984 H 595.225 3.92009 -0.0844299 0
M  V30 5985 H 596.715 4.07944 0.892838 0
M  V30 5986 N 597.152 0.631951 1.44375 0
M  V30 5987 C 598.102 -0.0943862 2.27805 0
M  V30 5988 C 599.086 -0.815359 1.38711 0
M  V30 5989 O 600.278 -0.701331 1.62513 0
M  V30 5990 C 597.407 -1.07472 3.26044 0
M  V30 5991 C 596.493 -0.353329 4.22626 0
M  V30 5992 N 596.884 0.618512 5.02004 0
M  V30 5993 C 595.182 -0.597662 4.41977 0
M  V30 5994 C 595.883 1.0448 5.7224 0
M  V30 5995 N 594.859 0.383413 5.42246 0
M  V30 5996 H 598.661 0.651672 2.86584 0
M  V30 5997 H 596.175 0.45752 1.55822 0
M  V30 5998 H 598.172 -1.60969 3.84571 0
M  V30 5999 H 596.832 -1.82107 2.68825 0
M  V30 6000 H 597.843 0.996356 5.08226 0
M  V30 6001 H 594.52 -1.32682 3.95856 0
M  V30 6002 H 595.91 1.84773 6.45994 0
M  V30 6003 N 598.631 -1.53133 0.372548 0
M  V30 6004 C 599.856 -2.0625 -0.218098 0
M  V30 6005 C 600.281 -1.24375 -1.41111 0
M  V30 6006 O 599.639 -0.264554 -1.79359 0
M  V30 6007 C 599.687 -3.55858 -0.582876 0
M  V30 6008 O 598.791 -3.76667 -1.67917 0
M  V30 6009 H 598.132 -0.663317 -0.030104 0
M  V30 6010 H 600.662 -1.97477 0.535169 0
M  V30 6011 H 600.672 -3.99007 -0.851925 0
M  V30 6012 H 599.347 -4.14892 0.289428 0
M  V30 6013 H 597.924 -3.45413 -1.40513 0
M  V30 6014 N 600.109 -0.101901 -1.5727 0
M  V30 6015 C 601.386 0.602832 -1.86079 0
M  V30 6016 C 601.766 1.85912 -1 0
M  V30 6017 O 601.114 2.28379 -0.0742488 0
M  V30 6018 C 601.324 0.911694 -3.36881 0
M  V30 6019 C 602.672 1.2722 -4.05093 0
M  V30 6020 O 603.696 1.0025 -3.41802 0
M  V30 6021 O 602.555 1.7776 -5.16782 0
M  V30 6022 H 599.649 0.302366 -0.769743 0
M  V30 6023 H 602.195 -0.135113 -1.69161 0
M  V30 6024 H 600.967 0.0207256 -3.91295 0
M  V30 6025 H 600.59 1.70538 -3.59169 0
M  V30 6026 N 601.587 1.56661 0.17182 0
M  V30 6027 C 602.815 1.861 0.904115 0
M  V30 6028 C 603.23 0.687227 1.75848 0
M  V30 6029 O 602.587 -0.343671 1.79235 0
M  V30 6030 C 602.638 3.14568 1.78127 0
M  V30 6031 O 602.359 4.27422 0.961366 0
M  V30 6032 C 603.86 3.5735 2.62327 0
M  V30 6033 H 601.08 0.617445 0.262684 0
M  V30 6034 H 603.624 2.03775 0.172068 0
M  V30 6035 H 601.779 2.98721 2.46666 0
M  V30 6036 H 602.193 5.00725 1.56123 0
M  V30 6037 H 603.667 4.50144 3.1949 0
M  V30 6038 H 604.144 2.81445 3.37173 0
M  V30 6039 H 604.75 3.75807 1.99121 0
M  V30 6040 N 603.065 -0.440357 1.51323 0
M  V30 6041 C 604.293 -1.21255 1.67645 0
M  V30 6042 C 604.708 -1.85088 0.37252 0
M  V30 6043 O 604.065 -1.70582 -0.648683 0
M  V30 6044 C 604.116 -2.29881 2.78993 0
M  V30 6045 O 603.837 -1.68659 4.04334 0
M  V30 6046 C 605.338 -3.20214 3.06558 0
M  V30 6047 H 602.558 -0.36558 0.562666 0
M  V30 6048 H 605.102 -0.52214 1.97722 0
M  V30 6049 H 603.257 -2.94643 2.51524 0
M  V30 6050 H 603.671 -2.40426 4.6615 0
M  V30 6051 H 605.145 -3.92575 3.88058 0
M  V30 6052 H 605.622 -3.80794 2.18844 0
M  V30 6053 H 606.228 -2.61156 3.35675 0
M  V30 6054 N 604.543 -1.41418 -0.695603 0
M  V30 6055 C 605.506 -1.42988 -1.79129 0
M  V30 6056 C 606.506 -0.320514 -1.57573 0
M  V30 6057 O 607.696 -0.58039 -1.64247 0
M  V30 6058 C 604.828 -1.24122 -3.175 0
M  V30 6059 H 606.021 -2.40526 -1.7913 0
M  V30 6060 H 603.574 -1.2756 -0.903225 0
M  V30 6061 H 604.309 -0.274253 -3.23138 0
M  V30 6062 H 604.094 -2.045 -3.34547 0
M  V30 6063 H 605.584 -1.28056 -3.97481 0
M  V30 6064 N 606.021 0.929856 -1.27246 0
M  V30 6065 C 607.298 1.65544 -1.04186 0
M  V30 6066 C 607.678 2.06796 0.424097 0
M  V30 6067 O 607.026 1.80053 1.40688 0
M  V30 6068 C 607.236 2.85912 -2.00138 0
M  V30 6069 C 608.584 3.57305 -2.29387 0
M  V30 6070 O 609.608 2.96036 -1.98094 0
M  V30 6071 O 608.467 4.67688 -2.82719 0
M  V30 6072 H 605.561 0.725473 -0.397011 0
M  V30 6073 H 608.107 0.980583 -1.38501 0
M  V30 6074 H 606.879 2.52403 -2.99013 0
M  V30 6075 H 606.502 3.61118 -1.66371 0
M  V30 6076 N 607.499 1.09233 1.13605 0
M  V30 6077 C 608.91 0.846839 1.6639 0
M  V30 6078 C 609.261 -0.625031 1.85978 0
M  V30 6079 O 608.386 -1.48173 1.57714 0
M  V30 6080 C 608.981 1.5307 3.0225 0
M  V30 6081 C 607.54 1.33223 3.52035 0
M  V30 6082 C 606.687 1.58806 2.27323 0
M  V30 6083 H 609.638 1.25175 0.975541 0
M  V30 6084 H 609.659 0.96267 3.68121 0
M  V30 6085 H 609.171 2.60192 2.87961 0
M  V30 6086 H 607.272 0.282091 3.71531 0
M  V30 6087 H 607.385 2.0657 4.32279 0
M  V30 6088 H 605.749 1.01007 2.33815 0
M  V30 6089 H 606.532 2.67153 2.15602 0
M  V30 6090 N 608.977 -1.30795 0.87923 0
M  V30 6091 C 609.94 -2.26563 0.346676 0
M  V30 6092 C 610.94 -1.52578 -0.507597 0
M  V30 6093 O 612.13 -1.71318 -0.315575 0
M  V30 6094 C 609.262 -3.37115 -0.506611 0
M  V30 6095 H 610.455 -2.75183 1.19223 0
M  V30 6096 H 608.008 -1.41886 0.655598 0
M  V30 6097 H 608.743 -2.93802 -1.37299 0
M  V30 6098 H 608.528 -3.91959 0.105218 0
M  V30 6099 H 610.018 -4.08412 -0.871192 0
M  V30 6100 N 610.455 -0.639598 -1.44038 0
M  V30 6101 C 611.695 -0.150902 -2.03842 0
M  V30 6102 C 612.059 1.20744 -1.49281 0
M  V30 6103 O 613.26 1.78875 -2.00642 0
M  V30 6104 C 611.531 -0.146114 -3.57101 0
M  V30 6105 S 613.09 0.276725 -4.37927 0
M  V30 6106 H 609.908 -0.0652447 -0.708 0
M  V30 6107 H 612.51 -0.844886 -1.76301 0
M  V30 6108 H 611.214 -1.13769 -3.94316 0
M  V30 6109 H 610.745 0.568846 -3.89266 0
M  V30 6110 H 612.76 1.51893 -4.7238 0
M  V30 6111 N 611.933 1.52934 -0.380664 0
M  V30 6112 C 612.883 2.22989 0.475399 0
M  V30 6113 C 613.867 1.23058 1.03661 0
M  V30 6114 O 615.059 1.48436 0.964146 0
M  V30 6115 C 612.188 3.0338 1.60671 0
M  V30 6116 C 611.274 4.107 1.05766 0
M  V30 6117 N 611.665 5.05264 0.232837 0
M  V30 6118 C 609.963 4.25676 1.33101 0
M  V30 6119 C 610.664 5.81658 -0.0695134 0
M  V30 6120 N 609.64 5.40989 0.532144 0
M  V30 6121 H 613.442 2.93456 -0.161418 0
M  V30 6122 H 610.956 1.61291 -0.189495 0
M  V30 6123 H 612.953 3.52098 2.23232 0
M  V30 6124 H 611.613 2.34446 2.24644 0
M  V30 6125 H 612.624 5.17739 -0.129204 0
M  V30 6126 H 609.301 3.6797 1.97241 0
M  V30 6127 H 610.691 6.67843 -0.737269 0
M  V30 6128 N 613.412 0.11024 1.57214 0
M  V30 6129 C 614.375 -0.828808 2.1369 0
M  V30 6130 C 615.375 -1.20059 1.06969 0
M  V30 6131 O 616.565 -1.12754 1.32786 0
M  V30 6132 C 613.697 -2.11959 2.66994 0
M  V30 6133 H 614.89 -0.338146 2.97988 0
M  V30 6134 H 612.443 -0.138913 1.55681 0
M  V30 6135 H 613.178 -2.65476 1.8626 0
M  V30 6136 H 612.963 -1.86258 3.45037 0
M  V30 6137 H 614.453 -2.79105 3.10629 0
M  V30 6138 N 614.89 -1.56749 -0.16351 0
M  V30 6139 C 616.115 -1.86938 -0.898264 0
M  V30 6140 C 616.54 -0.697456 -1.74692 0
M  V30 6141 O 615.898 0.353327 -1.77824 0
M  V30 6142 C 615.946 -3.15599 -1.74441 0
M  V30 6143 O 615.05 -2.98371 -2.8469 0
M  V30 6144 H 614.391 -0.614659 -0.251178 0
M  V30 6145 H 616.921 -2.03979 -0.159298 0
M  V30 6146 H 616.931 -3.47202 -2.14277 0
M  V30 6147 H 615.606 -4.00505 -1.1211 0
M  V30 6148 H 614.183 -2.7814 -2.4838 0
M  V30 6149 N 616.368 0.432326 -1.51554 0
M  V30 6150 C 617.593 1.20824 -1.68571 0
M  V30 6151 C 618.018 1.84126 -0.384596 0
M  V30 6152 O 617.376 1.69025 0.655751 0
M  V30 6153 C 617.424 2.26429 -2.80646 0
M  V30 6154 O 616.528 3.32032 -2.44598 0
M  V30 6155 H 615.869 0.353765 -0.561913 0
M  V30 6156 H 618.399 0.509916 -1.98144 0
M  V30 6157 H 618.409 2.71133 -3.04878 0
M  V30 6158 H 617.084 1.79733 -3.75058 0
M  V30 6159 H 615.661 2.92769 -2.30956 0
M  V30 6160 N 617.846 1.41785 0.688094 0
M  V30 6161 C 619.071 1.45117 1.48175 0
M  V30 6162 C 619.496 0.060129 1.88004 0
M  V30 6163 O 618.854 -0.938385 1.55126 0
M  V30 6164 C 618.902 2.37224 2.71583 0
M  V30 6165 O 618.006 1.83443 3.69354 0
M  V30 6166 H 617.347 0.492208 0.445676 0
M  V30 6167 H 619.877 1.86329 0.845145 0
M  V30 6168 H 619.887 2.53353 3.19806 0
M  V30 6169 H 618.562 3.38293 2.41931 0
M  V30 6170 H 617.139 1.76802 3.28322 0
M  V30 6171 N 619.324 -0.923095 1.27737 0
M  V30 6172 C 620.254 -2.04124 1.13383 0
M  V30 6173 C 621.235 -1.70066 0.0340658 0
M  V30 6174 O 622.42 -1.93068 0.209383 0
M  V30 6175 C 619.55 -3.3831 0.785097 0
M  V30 6176 C 618.504 -3.86496 1.8386 0
M  V30 6177 C 617.83 -5.1754 1.34373 0
M  V30 6178 C 619.13 -4.09381 3.24353 0
M  V30 6179 H 620.824 -2.1639 2.06919 0
M  V30 6180 H 618.37 -1.03976 0.996243 0
M  V30 6181 H 620.323 -4.16016 0.671485 0
M  V30 6182 H 619.047 -3.2607 -0.185969 0
M  V30 6183 H 617.706 -3.10987 1.9412 0
M  V30 6184 H 617.354 -5.01696 0.361989 0
M  V30 6185 H 617.054 -5.50751 2.04811 0
M  V30 6186 H 618.578 -5.97811 1.24315 0
M  V30 6187 H 619.992 -4.77641 3.17067 0
M  V30 6188 H 618.389 -4.53906 3.92542 0
M  V30 6189 H 619.459 -3.14515 3.69064 0
M  V30 6190 N 620.802 -1.09834 -1.13024 0
M  V30 6191 C 622.03 -0.858902 -1.8823 0
M  V30 6192 C 622.445 0.590164 -1.79339 0
M  V30 6193 O 621.802 1.4065 -1.16292 0
M  V30 6194 C 621.853 -1.29066 -3.37675 0
M  V30 6195 O 621.574 -2.6829 -3.46341 0
M  V30 6196 C 623.075 -1.08421 -4.29837 0
M  V30 6197 H 620.295 -0.308713 -0.595766 0
M  V30 6198 H 622.839 -1.4614 -1.4305 0
M  V30 6199 H 620.994 -0.731961 -3.80422 0
M  V30 6200 H 621.408 -2.86598 -4.39274 0
M  V30 6201 H 622.882 -1.43553 -5.33007 0
M  V30 6202 H 623.359 -0.0223315 -4.39194 0
M  V30 6203 H 623.965 -1.62907 -3.92863 0
M  V30 6204 N 622.28 1.30327 -0.886154 0
M  V30 6205 C 623.243 2.26376 -0.358687 0
M  V30 6206 C 624.243 1.52845 0.499498 0
M  V30 6207 O 625.433 1.71483 0.306485 0
M  V30 6208 C 622.565 3.37379 0.488726 0
M  V30 6209 H 623.758 2.74547 -1.20681 0
M  V30 6210 H 621.311 1.41536 -0.663113 0
M  V30 6211 H 622.046 2.94526 1.35739 0
M  V30 6212 H 621.831 3.91897 -0.126003 0
M  V30 6213 H 623.321 4.08868 0.84952 0
M  V30 6214 N 623.758 0.647228 1.43697 0
M  V30 6215 C 624.708 -0.0702191 2.27892 0
M  V30 6216 C 625.692 -0.800601 1.39568 0
M  V30 6217 O 626.884 -0.684055 1.63247 0
M  V30 6218 C 624.013 -1.04008 3.27165 0
M  V30 6219 C 623.099 -0.308484 4.22977 0
M  V30 6220 N 623.49 0.671721 5.0132 0
M  V30 6221 C 621.788 -0.550751 4.42586 0
M  V30 6222 C 622.489 1.10543 5.711 0
M  V30 6223 N 621.465 0.440903 5.41809 0
M  V30 6224 H 625.267 0.682031 2.85877 0
M  V30 6225 H 622.781 0.474022 1.55328 0
M  V30 6226 H 624.778 -1.56881 3.86256 0
M  V30 6227 H 623.438 -1.79246 2.70742 0
M  V30 6228 H 624.449 1.0502 5.0714 0
M  V30 6229 H 621.126 -1.28476 3.97241 0
M  V30 6230 H 622.516 1.91614 6.43998 0
M  V30 6231 N 625.236 -1.5273 0.388769 0
M  V30 6232 C 626.146 -2.30165 -0.453993 0
M  V30 6233 C 627.162 -1.37058 -1.07197 0
M  V30 6234 O 628.338 -1.70127 -1.0779 0
M  V30 6235 C 625.403 -3.09303 -1.56628 0
M  V30 6236 C 624.464 -4.18117 -0.973467 0
M  V30 6237 C 623.697 -4.93472 -2.03275 0
M  V30 6238 O 623.92 -4.68913 -3.24772 0
M  V30 6239 O 622.854 -5.78833 -1.65034 0
M  V30 6240 H 626.68 -3.03185 0.176816 0
M  V30 6241 H 624.265 -1.4862 0.152501 0
M  V30 6242 H 626.147 -3.58648 -2.21246 0
M  V30 6243 H 624.822 -2.39098 -2.18206 0
M  V30 6244 H 623.729 -3.7297 -0.290556 0
M  V30 6245 H 625.062 -4.90556 -0.401908 0
M  V30 6246 N 626.714 -0.118576 -1.57153 0
M  V30 6247 C 628.125 0.40687 -1.82213 0
M  V30 6248 C 628.476 1.66636 -1.03571 0
M  V30 6249 O 627.601 2.14682 -0.272171 0
M  V30 6250 C 628.196 0.744949 -3.30509 0
M  V30 6251 C 626.755 1.21503 -3.5625 0
M  V30 6252 C 625.902 0.223511 -2.76398 0
M  V30 6253 H 628.853 -0.343712 -1.54933 0
M  V30 6254 H 628.874 1.6024 -3.45114 0
M  V30 6255 H 628.386 -0.171911 -3.87719 0
M  V30 6256 H 626.487 2.1488 -3.04396 0
M  V30 6257 H 626.6 1.16065 -4.64829 0
M  V30 6258 H 624.964 0.71046 -2.44591 0
M  V30 6259 H 625.747 -0.686439 -3.36367 0
M  V30 6260 N 628.193 1.56834 0.155195 0
M  V30 6261 C 629.604 1.72421 0.716082 0
M  V30 6262 C 629.955 0.731685 1.82046 0
M  V30 6263 O 629.08 -0.103481 2.16152 0
M  V30 6264 C 629.675 3.12629 1.30571 0
M  V30 6265 C 628.234 3.29846 1.81325 0
M  V30 6266 C 627.381 2.68359 0.698494 0
M  V30 6267 H 630.332 1.58544 -0.0703861 0
M  V30 6268 H 630.353 3.12174 2.1755 0
M  V30 6269 H 629.865 3.84844 0.501701 0
M  V30 6270 H 627.966 2.62614 2.64319 0
M  V30 6271 H 628.079 4.37727 1.9476 0
M  V30 6272 H 626.443 2.28604 1.12305 0
M  V30 6273 H 627.226 3.43171 -0.0939366 0
M  V30 6274 N 629.671 -0.424282 1.51781 0
M  V30 6275 C 630.601 -1.52305 1.7699 0
M  V30 6276 C 631.582 -1.5839 0.620209 0
M  V30 6277 O 632.767 -1.73908 0.864268 0
M  V30 6278 C 629.897 -2.90271 1.90683 0
M  V30 6279 C 628.851 -2.99043 3.06198 0
M  V30 6280 C 628.177 -4.39116 3.05092 0
M  V30 6281 C 629.477 -2.7192 4.45934 0
M  V30 6282 H 631.171 -1.31461 2.68995 0
M  V30 6283 H 628.717 -0.630985 1.29439 0
M  V30 6284 H 630.67 -3.6711 2.06901 0
M  V30 6285 H 629.394 -3.12376 0.953365 0
M  V30 6286 H 628.053 -2.24646 2.89706 0
M  V30 6287 H 627.701 -4.58207 2.07498 0
M  V30 6288 H 627.401 -4.45912 3.82669 0
M  V30 6289 H 628.925 -5.17911 3.2342 0
M  V30 6290 H 630.339 -3.38487 4.62709 0
M  V30 6291 H 628.736 -2.90111 5.25315 0
M  V30 6292 H 629.806 -1.67445 4.55072 0
M  V30 6293 N 631.149 -1.42148 -0.680565 0
M  V30 6294 C 632.079 -1.4796 -1.80638 0
M  V30 6295 C 633.06 -0.336728 -1.66734 0
M  V30 6296 O 634.245 -0.550247 -1.86242 0
M  V30 6297 C 631.375 -1.37569 -3.18892 0
M  V30 6298 C 630.329 -2.49823 -3.47524 0
M  V30 6299 C 629.655 -2.24491 -4.85291 0
M  V30 6300 C 630.955 -3.92144 -3.44994 0
M  V30 6301 H 632.649 -2.42184 -1.76032 0
M  V30 6302 H 630.195 -1.16566 -0.845481 0
M  V30 6303 H 632.148 -1.40243 -3.97379 0
M  V30 6304 H 630.872 -0.398357 -3.24162 0
M  V30 6305 H 629.531 -2.46455 -2.71395 0
M  V30 6306 H 629.179 -1.25066 -4.87204 0
M  V30 6307 H 628.879 -2.99722 -5.05411 0
M  V30 6308 H 630.403 -2.28906 -5.66069 0
M  V30 6309 H 631.817 -3.97145 -4.13459 0
M  V30 6310 H 630.214 -4.67179 -3.76648 0
M  V30 6311 H 631.284 -4.19225 -2.43676 0
M  V30 6312 N 632.627 0.916307 -1.28225 0
M  V30 6313 C 633.857 1.69654 -1.17902 0
M  V30 6314 C 634.265 1.87331 0.265268 0
M  V30 6315 O 633.608 1.39828 1.19137 0
M  V30 6316 C 633.67 3.11024 -1.80289 0
M  V30 6317 C 633.334 3.16643 -3.29525 0
M  V30 6318 C 634.331 2.98032 -4.25997 0
M  V30 6319 C 632.016 3.39238 -3.70436 0
M  V30 6320 C 634.01 3.01924 -5.61356 0
M  V30 6321 C 631.697 3.42762 -5.05922 0
M  V30 6322 C 632.695 3.24125 -6.01192 0
M  V30 6323 O 632.383 3.27406 -7.34208 0
M  V30 6324 H 632.115 0.537197 -0.41036 0
M  V30 6325 H 634.669 1.15547 -1.69817 0
M  V30 6326 H 632.899 3.66662 -1.22865 0
M  V30 6327 H 634.588 3.71063 -1.6452 0
M  V30 6328 H 635.354 2.80405 -3.95725 0
M  V30 6329 H 631.233 3.52791 -2.96749 0
M  V30 6330 H 634.777 2.87295 -6.35694 0
M  V30 6331 H 630.674 3.59916 -5.35846 0
M  V30 6332 H 631.442 3.43784 -7.42802 0
M  V30 6333 N 634.105 1.10431 1.1244 0
M  V30 6334 C 635.382 0.758797 1.80282 0
M  V30 6335 C 635.762 -0.754727 1.97147 0
M  V30 6336 O 635.11 -1.68094 1.54779 0
M  V30 6337 C 635.32 1.50982 3.14651 0
M  V30 6338 C 636.668 1.68232 3.8985 0
M  V30 6339 O 637.692 1.47319 3.24308 0
M  V30 6340 O 636.551 2.02905 5.07437 0
M  V30 6341 H 633.645 0.273756 0.780376 0
M  V30 6342 H 636.191 1.20713 1.19275 0
M  V30 6343 H 634.963 2.53989 2.97666 0
M  V30 6344 H 634.586 1.05435 3.83366 0
M  V30 6345 N 635.583 -1.29855 0.893053 0
M  V30 6346 C 636.513 -2.3035 0.382249 0
M  V30 6347 C 637.494 -1.61328 -0.539203 0
M  V30 6348 O 638.679 -1.88882 -0.451342 0
M  V30 6349 C 635.809 -3.45024 -0.396983 0
M  V30 6350 C 634.763 -4.258 0.433437 0
M  V30 6351 C 634.089 -5.32605 -0.472889 0
M  V30 6352 C 635.389 -4.94549 1.67984 0
M  V30 6353 H 637.083 -2.73325 1.22205 0
M  V30 6354 H 634.629 -1.314 0.589073 0
M  V30 6355 H 636.582 -4.14398 -0.765024 0
M  V30 6356 H 635.306 -3.00875 -1.2705 0
M  V30 6357 H 633.965 -3.58125 0.783723 0
M  V30 6358 H 633.613 -4.84702 -1.34435 0
M  V30 6359 H 633.313 -5.87547 0.0789958 0
M  V30 6360 H 634.837 -6.04832 -0.837269 0
M  V30 6361 H 636.251 -5.56395 1.38192 0
M  V30 6362 H 634.648 -5.59393 2.17254 0
M  V30 6363 H 635.718 -4.20215 2.41965 0
M  V30 6364 N 637.061 -0.65484 -1.43351 0
M  V30 6365 C 638.286 -0.175046 -2.0666 0
M  V30 6366 C 638.711 1.15104 -1.4877 0
M  V30 6367 O 638.069 1.71144 -0.598279 0
M  V30 6368 C 638.117 -0.0991544 -3.60464 0
M  V30 6369 O 637.221 0.938169 -4.01587 0
M  V30 6370 H 636.562 -0.0956148 -0.65708 0
M  V30 6371 H 639.092 -0.898222 -1.83829 0
M  V30 6372 H 639.102 0.083632 -4.07914 0
M  V30 6373 H 637.777 -1.06719 -4.01975 0
M  V30 6374 H 636.354 0.72804 -3.65724 0
M  V30 6375 N 638.539 1.52521 -0.396863 0
M  V30 6376 C 639.486 2.26671 0.434624 0
M  V30 6377 C 640.456 1.28584 1.05144 0
M  V30 6378 O 641.641 1.57426 1.07804 0
M  V30 6379 C 638.781 3.08234 1.55196 0
M  V30 6380 C 637.894 4.21261 0.957262 0
M  V30 6381 C 637.029 4.90205 2.04627 0
M  V30 6382 C 636.068 5.95213 1.42787 0
M  V30 6383 N 635.205 6.57723 2.45651 0
M  V30 6384 H 640.045 2.973 -0.204139 0
M  V30 6385 H 637.582 1.46669 -0.112505 0
M  V30 6386 H 639.54 3.53819 2.2106 0
M  V30 6387 H 638.17 2.398 2.16092 0
M  V30 6388 H 637.222 3.79935 0.188005 0
M  V30 6389 H 638.534 4.96624 0.465416 0
M  V30 6390 H 637.688 5.39133 2.78246 0
M  V30 6391 H 636.427 4.14383 2.57174 0
M  V30 6392 H 635.432 5.45616 0.676968 0
M  V30 6393 H 636.657 6.72972 0.910255 0
M  V30 6394 H 634.603 5.84737 2.97353 0
M  V30 6395 H 634.52 7.28723 2.01243 0
M  V30 6396 H 635.788 7.11293 3.18876 0
M  V30 6397 N 640.017 0.126909 1.57088 0
M  V30 6398 C 641.294 -0.573152 1.87014 0
M  V30 6399 C 641.674 -1.84297 1.02945 0
M  V30 6400 O 641.022 -2.28232 0.110573 0
M  V30 6401 C 641.232 -0.857984 3.38289 0
M  V30 6402 C 642.58 -1.20759 4.07066 0
M  V30 6403 O 643.604 -0.947992 3.43353 0
M  V30 6404 O 642.463 -1.69516 5.19545 0
M  V30 6405 H 639.557 -0.290082 0.774456 0
M  V30 6406 H 642.103 0.162008 1.68925 0
M  V30 6407 H 640.875 0.0415286 3.91278 0
M  V30 6408 H 640.498 -1.64803 3.61837 0
M  V30 6409 N 641.495 -1.56914 -0.146875 0
M  V30 6410 C 642.906 -1.72799 -0.706928 0
M  V30 6411 C 643.257 -0.741329 -1.81656 0
M  V30 6412 O 642.382 0.0920162 -2.16204 0
M  V30 6413 C 642.977 -3.13317 -1.28911 0
M  V30 6414 C 641.536 -3.30803 -1.79573 0
M  V30 6415 C 640.683 -2.68725 -0.684252 0
M  V30 6416 H 643.634 -1.58504 0.0787931 0
M  V30 6417 H 643.655 -3.13323 -2.15891 0
M  V30 6418 H 643.167 -3.85104 -0.481284 0
M  V30 6419 H 641.268 -2.64012 -2.62923 0
M  V30 6420 H 641.381 -4.38754 -1.92436 0
M  V30 6421 H 639.745 -2.29196 -1.11091 0
M  V30 6422 H 640.528 -3.43117 0.112134 0
M  V30 6423 N 642.974 0.416227 -1.52004 0
M  V30 6424 C 644.222 1.16153 -1.65387 0
M  V30 6425 C 644.543 1.91208 -0.382669 0
M  V30 6426 O 643.813 1.86413 0.602231 0
M  V30 6427 H 642.393 0.431765 -0.60958 0
M  V30 6428 H 645.055 0.475151 -1.89019 0
M  V30 6429 H 644.151 1.87952 -2.4916 0
M  V30 6430 N 644.452 1.42507 0.673017 0
M  V30 6431 C 645.362 1.4853 1.81593 0
M  V30 6432 C 646.378 0.373907 1.69935 0
M  V30 6433 O 647.554 0.625078 1.91454 0
M  V30 6434 C 644.619 1.387 3.17747 0
M  V30 6435 C 643.68 2.60346 3.41348 0
M  V30 6436 C 642.913 2.50975 4.71007 0
M  V30 6437 O 643.136 1.54659 5.49033 0
M  V30 6438 O 642.07 3.41138 4.95892 0
M  V30 6439 H 645.896 2.45001 1.79467 0
M  V30 6440 H 643.481 1.2429 0.82899 0
M  V30 6441 H 645.363 1.35586 3.98992 0
M  V30 6442 H 644.038 0.453555 3.20507 0
M  V30 6443 H 642.945 2.69034 2.59945 0
M  V30 6444 H 644.278 3.52595 3.43421 0
M  V30 6445 N 645.93 -0.909495 1.28709 0
M  V30 6446 C 646.878 -2.03381 1.12866 0
M  V30 6447 C 647.872 -1.69335 0.0468074 0
M  V30 6448 O 649.078 -1.78819 0.205891 0
M  V30 6449 H 645.453 -0.666452 0.348348 0
M  V30 6450 H 647.424 -2.13885 2.08077 0
M  V30 6451 C 646.173 -3.38092 0.811742 0
M  V30 6452 H 645.496 -3.64786 1.63619 0
M  V30 6453 H 646.936 -4.17477 0.740869 0
M  V30 6454 C 645.395 -3.33395 -0.484679 0
M  V30 6455 O 645.925 -3.72089 -1.5137 0
M  V30 6456 N 644.131 -2.86491 -0.486961 0
M  V30 6457 H 643.678 -2.55199 0.350877 0
M  V30 6458 H 643.636 -2.83731 -1.3544 0
M  V30 6459 N 647.408 -1.11026 -1.11852 0
M  V30 6460 C 648.638 -0.877544 -1.87037 0
M  V30 6461 C 649.046 0.575925 -1.80221 0
M  V30 6462 O 648.389 1.40916 -1.17849 0
M  V30 6463 C 648.451 -1.25529 -3.36872 0
M  V30 6464 C 648.115 -2.71704 -3.67459 0
M  V30 6465 C 649.112 -3.69931 -3.65304 0
M  V30 6466 C 646.797 -3.08243 -3.966 0
M  V30 6467 C 648.791 -5.02717 -3.9186 0
M  V30 6468 C 646.478 -4.41215 -4.22815 0
M  V30 6469 C 647.476 -5.38262 -4.20432 0
M  V30 6470 O 647.164 -6.68839 -4.45992 0
M  V30 6471 H 646.896 -0.314374 -0.598452 0
M  V30 6472 H 649.45 -1.48015 -1.42411 0
M  V30 6473 H 647.68 -0.595808 -3.82082 0
M  V30 6474 H 649.369 -0.999064 -3.93413 0
M  V30 6475 H 650.135 -3.43047 -3.42846 0
M  V30 6476 H 646.014 -2.33326 -3.97593 0
M  V30 6477 H 649.558 -5.78456 -3.89916 0
M  V30 6478 H 645.455 -4.67835 -4.44748 0
M  V30 6479 H 646.223 -6.74563 -4.63581 0
M  V30 6480 N 648.886 1.2938 -0.899927 0
M  V30 6481 C 649.834 2.29675 -0.367698 0
M  V30 6482 C 650.828 1.60787 0.533282 0
M  V30 6483 O 652.034 1.75126 0.416058 0
M  V30 6484 H 648.409 0.745284 -0.100279 0
M  V30 6485 H 650.38 2.72008 -1.22696 0
M  V30 6486 C 649.129 3.45512 0.389483 0
M  V30 6487 H 648.452 3.98713 -0.294575 0
M  V30 6488 H 649.892 4.17725 0.726744 0
M  V30 6489 C 648.351 2.969 1.59223 0
M  V30 6490 O 648.881 2.98195 2.69152 0
M  V30 6491 N 647.087 2.52728 1.43447 0
M  V30 6492 H 646.634 2.51873 0.540148 0
M  V30 6493 H 646.592 2.20561 2.24054 0
M  V30 6494 N 650.364 0.662433 1.43002 0
M  V30 6495 C 651.294 -0.00979809 2.33498 0
M  V30 6496 C 652.275 -0.802329 1.49989 0
M  V30 6497 O 653.46 -0.761964 1.78627 0
M  V30 6498 C 650.59 -0.970446 3.33466 0
M  V30 6499 C 649.544 -0.287383 4.27034 0
M  V30 6500 C 648.87 -1.36012 5.17112 0
M  V30 6501 C 650.17 0.82595 5.15728 0
M  V30 6502 H 651.864 0.745959 2.89958 0
M  V30 6503 H 649.41 0.360172 1.39423 0
M  V30 6504 H 651.363 -1.44971 3.95679 0
M  V30 6505 H 650.087 -1.75748 2.75282 0
M  V30 6506 H 648.746 0.17152 3.66199 0
M  V30 6507 H 648.394 -2.13882 4.55262 0
M  V30 6508 H 648.094 -0.908276 5.80538 0
M  V30 6509 H 649.618 -1.84056 5.82199 0
M  V30 6510 H 651.032 0.42845 5.71697 0
M  V30 6511 H 649.429 1.20282 5.87922 0
M  V30 6512 H 650.499 1.68003 4.54866 0
M  V30 6513 N 651.842 -1.52309 0.404946 0
M  V30 6514 C 652.772 -2.29805 -0.41376 0
M  V30 6515 C 653.753 -1.3384 -1.0498 0
M  V30 6516 O 654.938 -1.62745 -1.05961 0
M  V30 6517 C 652.068 -3.11639 -1.53292 0
M  V30 6518 C 651.022 -4.15616 -1.02211 0
M  V30 6519 C 650.348 -4.8577 -2.23455 0
M  V30 6520 C 651.648 -5.2224 -0.0790725 0
M  V30 6521 H 653.342 -2.98493 0.232878 0
M  V30 6522 H 650.888 -1.43552 0.113441 0
M  V30 6523 H 652.841 -3.64618 -2.11262 0
M  V30 6524 H 651.565 -2.40712 -2.20738 0
M  V30 6525 H 650.224 -3.63641 -0.46484 0
M  V30 6526 H 649.872 -4.11376 -2.89445 0
M  V30 6527 H 649.572 -5.56058 -1.89929 0
M  V30 6528 H 651.096 -5.4156 -2.82038 0
M  V30 6529 H 652.51 -5.70485 -0.567438 0
M  V30 6530 H 650.907 -5.99867 0.167167 0
M  V30 6531 H 651.977 -4.77078 0.867447 0
M  V30 6532 N 653.32 -0.135238 -1.57019 0
M  V30 6533 C 654.568 0.51777 -1.95355 0
M  V30 6534 C 654.889 1.6617 -1.02042 0
M  V30 6535 O 654.159 1.95738 -0.0797343 0
M  V30 6536 H 652.739 0.194264 -0.721298 0
M  V30 6537 H 655.401 -0.207983 -1.93787 0
M  V30 6538 H 654.497 0.901675 -2.98791 0
M  V30 6539 N 654.798 1.5699 0.138552 0
M  V30 6540 C 656.046 1.83446 0.848053 0
M  V30 6541 C 656.367 0.71744 1.81322 0
M  V30 6542 O 655.637 -0.260228 1.94164 0
M  V30 6543 H 654.217 0.676792 0.316166 0
M  V30 6544 H 656.879 1.94462 0.130538 0
M  V30 6545 H 655.975 2.78677 1.40518 0
M  V30 6546 N 656.276 -0.40816 1.52223 0
M  V30 6547 C 657.522 -1.15673 1.66576 0
M  V30 6548 C 657.855 -1.90141 0.394996 0
M  V30 6549 O 657.13 -1.84798 -0.606613 0
M  V30 6550 C 657.413 -2.15042 2.88841 0
M  V30 6551 C 657.266 -1.44465 4.25969 0
M  V30 6552 C 658.585 -3.15699 3.0663 0
M  V30 6553 H 655.704 -0.41916 0.606196 0
M  V30 6554 H 658.346 -0.442348 1.84779 0
M  V30 6555 H 656.496 -2.75964 2.73452 0
M  V30 6556 H 658.168 -0.866544 4.53088 0
M  V30 6557 H 656.411 -0.746612 4.27327 0
M  V30 6558 H 657.082 -2.16976 5.07568 0
M  V30 6559 H 659.558 -2.64854 3.20923 0
M  V30 6560 H 658.434 -3.82491 3.9369 0
M  V30 6561 H 658.695 -3.83481 2.19987 0
M  V30 6562 N 657.755 -1.42862 -0.66545 0
M  V30 6563 C 658.718 -1.46756 -1.76055 0
M  V30 6564 C 659.718 -0.353866 -1.56858 0
M  V30 6565 O 660.908 -0.615099 -1.62979 0
M  V30 6566 C 658.04 -1.30829 -3.14796 0
M  V30 6567 H 659.233 -2.44271 -1.73987 0
M  V30 6568 H 656.786 -1.29447 -0.875965 0
M  V30 6569 H 657.521 -0.342733 -3.22484 0
M  V30 6570 H 657.306 -2.11551 -3.30134 0
M  V30 6571 H 658.796 -1.36458 -3.94676 0
M  V30 6572 N 659.233 0.902656 -1.29189 0
M  V30 6573 C 660.481 1.6496 -1.16758 0
M  V30 6574 C 660.802 1.92952 0.28188 0
M  V30 6575 O 660.072 1.55351 1.19344 0
M  V30 6576 H 658.652 0.611447 -0.429118 0
M  V30 6577 H 661.314 1.0825 -1.62074 0
M  V30 6578 H 660.41 2.60728 -1.71544 0
M  V30 6579 N 660.711 1.11618 1.11262 0
M  V30 6580 C 661.674 0.779447 2.15539 0
M  V30 6581 C 662.674 -0.202081 1.59525 0
M  V30 6582 O 663.864 0.0226356 1.74185 0
M  V30 6583 C 660.996 0.15674 3.40539 0
M  V30 6584 H 662.189 1.70324 2.4684 0
M  V30 6585 H 659.742 0.918298 1.26479 0
M  V30 6586 H 660.477 -0.777186 3.1485 0
M  V30 6587 H 660.262 0.863308 3.82478 0
M  V30 6588 H 661.752 -0.062661 4.17553 0
M  V30 6589 N 662.189 -1.289 0.906776 0
M  V30 6590 C 663.417 -1.99401 0.551969 0
M  V30 6591 C 663.832 -1.67816 -0.865048 0
M  V30 6592 O 663.189 -0.927078 -1.57199 0
M  V30 6593 C 663.24 -3.53779 0.743152 0
M  V30 6594 O 662.961 -3.84248 2.1044 0
M  V30 6595 C 664.462 -4.41543 0.39424 0
M  V30 6596 H 661.682 -0.636926 0.211106 0
M  V30 6597 H 664.226 -1.64266 1.21807 0
M  V30 6598 H 662.381 -3.87201 0.124143 0
M  V30 6599 H 662.795 -4.78904 2.13895 0
M  V30 6600 H 664.269 -5.48957 0.578814 0
M  V30 6601 H 664.746 -4.34073 -0.669137 0
M  V30 6602 H 665.352 -4.13605 0.990491 0
M  V30 6603 N 663.667 -0.670007 -1.42649 0
M  V30 6604 C 665.078 -0.268118 -1.84765 0
M  V30 6605 C 665.429 1.18877 -1.56086 0
M  V30 6606 O 664.554 1.90947 -1.01825 0
M  V30 6607 C 665.149 -0.47984 -3.35385 0
M  V30 6608 C 663.708 -0.132116 -3.76168 0
M  V30 6609 C 662.855 -0.774611 -2.66261 0
M  V30 6610 H 665.806 -0.872509 -1.32563 0
M  V30 6611 H 665.827 0.269522 -3.79544 0
M  V30 6612 H 665.339 -1.54026 -3.56227 0
M  V30 6613 H 663.44 0.92505 -3.60934 0
M  V30 6614 H 663.553 -0.569294 -4.75706 0
M  V30 6615 H 661.917 -0.206353 -2.53863 0
M  V30 6616 H 662.7 -1.83839 -2.89928 0
M  V30 6617 N 665.145 1.52092 -0.413018 0
M  V30 6618 C 666.055 2.30858 0.417318 0
M  V30 6619 C 667.071 1.38746 1.05003 0
M  V30 6620 O 668.247 1.71821 1.05069 0
M  V30 6621 C 665.312 3.11756 1.51687 0
M  V30 6622 C 664.373 4.19613 0.906825 0
M  V30 6623 C 663.606 4.96644 1.95399 0
M  V30 6624 O 663.829 4.7402 3.17271 0
M  V30 6625 O 662.763 5.81385 1.55805 0
M  V30 6626 H 666.589 3.02865 -0.225028 0
M  V30 6627 H 664.174 1.48358 -0.176126 0
M  V30 6628 H 666.056 3.62122 2.15512 0
M  V30 6629 H 664.731 2.42539 2.14375 0
M  V30 6630 H 663.638 3.73385 0.231183 0
M  V30 6631 H 664.971 4.91134 0.323814 0
M  V30 6632 N 666.623 0.143563 1.56945 0
M  V30 6633 C 667.869 -0.50916 1.96304 0
M  V30 6634 C 668.202 -1.64741 1.0283 0
M  V30 6635 O 667.477 -1.94374 0.0700361 0
M  V30 6636 C 667.76 -1.0186 3.45393 0
M  V30 6637 C 667.613 0.117923 4.49645 0
M  V30 6638 C 668.932 -1.90151 3.96901 0
M  V30 6639 H 666.051 -0.183608 0.713763 0
M  V30 6640 H 668.693 0.224095 1.88674 0
M  V30 6641 H 666.843 -1.64345 3.52027 0
M  V30 6642 H 668.515 0.754145 4.55094 0
M  V30 6643 H 666.758 0.777568 4.26774 0
M  V30 6644 H 667.429 -0.280187 5.51288 0
M  V30 6645 H 669.905 -1.375 3.92725 0
M  V30 6646 H 668.781 -2.22707 5.0169 0
M  V30 6647 H 669.042 -2.83718 3.39052 0
M  V30 6648 N 668.101 -1.57061 -0.130224 0
M  V30 6649 C 669.031 -2.02552 -1.16168 0
M  V30 6650 C 670.012 -0.907971 -1.4384 0
M  V30 6651 O 671.197 -1.17693 -1.54473 0
M  V30 6652 C 668.327 -2.42035 -2.49071 0
M  V30 6653 C 667.281 -3.5713 -2.35886 0
M  V30 6654 C 666.607 -3.82478 -3.7365 0
M  V30 6655 C 667.907 -4.89236 -1.8288 0
M  V30 6656 H 669.601 -2.8897 -0.783359 0
M  V30 6657 H 667.147 -1.39021 -0.375376 0
M  V30 6658 H 669.1 -2.72462 -3.21469 0
M  V30 6659 H 667.824 -1.52573 -2.88771 0
M  V30 6660 H 666.483 -3.26895 -1.65938 0
M  V30 6661 H 666.131 -2.9024 -4.10816 0
M  V30 6662 H 665.831 -4.59944 -3.65685 0
M  V30 6663 H 667.355 -4.15347 -4.47571 0
M  V30 6664 H 668.769 -5.18272 -2.45085 0
M  V30 6665 H 667.166 -5.70624 -1.85763 0
M  V30 6666 H 668.236 -4.78494 -0.785571 0
M  V30 6667 N 669.579 0.400081 -1.52437 0
M  V30 6668 C 670.511 1.50729 -1.72666 0
M  V30 6669 C 671.524 1.51058 -0.607075 0
M  V30 6670 O 672.713 1.5516 -0.88248 0
M  V30 6671 C 669.813 2.89604 -1.76019 0
M  V30 6672 C 668.986 3.13365 -3.05157 0
M  V30 6673 C 668.045 4.32163 -3.00203 0
M  V30 6674 O 667.071 4.29004 -3.74092 0
M  V30 6675 N 668.273 5.3776 -2.18619 0
M  V30 6676 H 671.038 1.33767 -2.68191 0
M  V30 6677 H 668.599 0.58948 -1.50787 0
M  V30 6678 H 670.591 3.67159 -1.70225 0
M  V30 6679 H 669.161 2.99979 -0.879284 0
M  V30 6680 H 668.381 2.23774 -3.24529 0
M  V30 6681 H 669.669 3.26089 -3.90568 0
M  V30 6682 H 669.067 5.43177 -1.58035 0
M  V30 6683 H 667.624 6.14023 -2.18674 0
M  V30 6684 N 671.057 1.43213 0.657864 0
M  V30 6685 C 672.02 1.47687 1.75275 0
M  V30 6686 C 673.02 0.362179 1.56668 0
M  V30 6687 O 674.21 0.623734 1.62651 0
M  V30 6688 C 671.342 1.32497 3.14098 0
M  V30 6689 H 672.535 2.4519 1.7269 0
M  V30 6690 H 670.088 1.2991 0.869087 0
M  V30 6691 H 670.823 0.359831 3.22298 0
M  V30 6692 H 670.608 2.13299 3.29008 0
M  V30 6693 H 672.098 1.38549 3.93946 0
M  V30 6694 N 672.536 -0.895792 1.29666 0
M  V30 6695 C 673.466 -2.01673 1.17688 0
M  V30 6696 C 674.447 -1.69955 0.0701317 0
M  V30 6697 O 675.632 -1.9258 0.250289 0
M  V30 6698 C 672.762 -3.36568 0.856681 0
M  V30 6699 C 671.716 -3.82509 1.92017 0
M  V30 6700 C 671.042 -5.14574 1.4532 0
M  V30 6701 C 672.342 -4.02409 3.32963 0
M  V30 6702 H 674.036 -2.11953 2.11463 0
M  V30 6703 H 671.582 -1.01839 1.01807 0
M  V30 6704 H 673.535 -4.14498 0.759577 0
M  V30 6705 H 672.259 -3.26391 -0.116763 0
M  V30 6706 H 670.918 -3.068 2.00673 0
M  V30 6707 H 670.566 -5.00815 0.468325 0
M  V30 6708 H 670.266 -5.46283 2.16447 0
M  V30 6709 H 671.79 -5.9504 1.36968 0
M  V30 6710 H 673.204 -4.70808 3.27127 0
M  V30 6711 H 671.601 -4.45478 4.02082 0
M  V30 6712 H 672.671 -3.06616 3.75652 0
M  V30 6713 N 674.014 -1.12206 -1.10668 0
M  V30 6714 C 674.961 -0.787716 -2.16942 0
M  V30 6715 C 675.931 0.244442 -1.64291 0
M  V30 6716 O 677.116 0.119558 -1.90425 0
M  V30 6717 C 674.256 -0.24584 -3.44223 0
M  V30 6718 C 673.369 -1.33552 -4.10838 0
M  V30 6719 C 672.504 -0.753337 -5.25831 0
M  V30 6720 C 671.543 -1.82231 -5.84344 0
M  V30 6721 N 670.68 -1.25902 -6.90719 0
M  V30 6722 H 675.52 -1.69809 -2.44885 0
M  V30 6723 H 673.057 -0.847862 -1.20207 0
M  V30 6724 H 675.015 0.0863639 -4.17111 0
M  V30 6725 H 673.645 0.627702 -3.16638 0
M  V30 6726 H 672.697 -1.78454 -3.35944 0
M  V30 6727 H 674.009 -2.14396 -4.50373 0
M  V30 6728 H 673.163 -0.37166 -6.05561 0
M  V30 6729 H 671.902 0.0863297 -4.87624 0
M  V30 6730 H 670.907 -2.2132 -5.03287 0
M  V30 6731 H 672.132 -2.66515 -6.24617 0
M  V30 6732 H 670.078 -0.44114 -6.54515 0
M  V30 6733 H 669.995 -2.00408 -7.28953 0
M  V30 6734 H 671.263 -0.904498 -7.74235 0
M  V30 6735 N 675.492 1.28418 -0.913599 0
M  V30 6736 C 676.424 2.26368 -0.359169 0
M  V30 6737 C 677.437 1.54858 0.502285 0
M  V30 6738 O 678.626 1.75659 0.31719 0
M  V30 6739 C 675.726 3.35112 0.50526 0
M  V30 6740 C 674.899 4.36126 -0.333648 0
M  V30 6741 C 673.958 5.24134 0.465845 0
M  V30 6742 O 672.984 5.6907 -0.121538 0
M  V30 6743 N 674.186 5.52892 1.76891 0
M  V30 6744 H 676.951 2.74579 -1.2011 0
M  V30 6745 H 674.512 1.41898 -0.779532 0
M  V30 6746 H 676.504 3.90926 1.04684 0
M  V30 6747 H 675.074 2.86611 1.2479 0
M  V30 6748 H 674.294 3.79776 -1.0566 0
M  V30 6749 H 675.582 5.00638 -0.907669 0
M  V30 6750 H 674.98 5.18217 2.26865 0
M  V30 6751 H 673.537 6.11464 2.25732 0
M  V30 6752 N 676.97 0.677563 1.42291 0
M  V30 6753 C 677.9 0.014968 2.33495 0
M  V30 6754 C 678.881 -0.786376 1.50831 0
M  V30 6755 O 680.066 -0.742975 1.79426 0
M  V30 6756 C 677.196 -0.935023 3.34477 0
M  V30 6757 C 676.15 -0.242074 4.27315 0
M  V30 6758 C 675.476 -1.30519 5.18526 0
M  V30 6759 C 676.776 0.880604 5.14823 0
M  V30 6760 H 678.47 0.776671 2.89151 0
M  V30 6761 H 676.016 0.37494 1.39033 0
M  V30 6762 H 677.969 -1.40766 3.97194 0
M  V30 6763 H 676.693 -1.72818 2.77131 0
M  V30 6764 H 675.352 0.210351 3.65996 0
M  V30 6765 H 675 -2.09041 4.57505 0
M  V30 6766 H 674.7 -0.846652 5.81468 0
M  V30 6767 H 676.224 -1.7787 5.84119 0
M  V30 6768 H 677.638 0.489062 5.7121 0
M  V30 6769 H 676.035 1.26511 5.86613 0
M  V30 6770 H 677.105 1.72818 4.53059 0
M  V30 6771 N 678.448 -1.51871 0.421078 0
M  V30 6772 C 679.38 -2.25052 -0.434065 0
M  V30 6773 C 680.393 -1.28458 -1.00013 0
M  V30 6774 O 681.582 -1.54323 -0.897033 0
M  V30 6775 C 678.682 -2.97813 -1.61743 0
M  V30 6776 C 677.855 -4.21374 -1.17315 0
M  V30 6777 C 676.914 -4.76854 -2.22478 0
M  V30 6778 O 675.94 -5.39123 -1.82577 0
M  V30 6779 N 677.142 -4.59467 -3.54782 0
M  V30 6780 H 679.907 -2.99077 0.193073 0
M  V30 6781 H 677.468 -1.59972 0.249088 0
M  V30 6782 H 679.46 -3.3182 -2.31685 0
M  V30 6783 H 678.03 -2.26899 -2.15024 0
M  V30 6784 H 677.25 -3.93046 -0.3014 0
M  V30 6785 H 678.538 -5.01591 -0.853444 0
M  V30 6786 H 677.936 -4.09832 -3.89941 0
M  V30 6787 H 676.493 -4.9788 -4.20665 0
M  V30 6788 N 679.926 -0.151884 -1.56866 0
M  V30 6789 C 680.856 0.781943 -2.20018 0
M  V30 6790 C 681.837 1.25347 -1.14987 0
M  V30 6791 O 683.022 1.31015 -1.43348 0
M  V30 6792 C 680.152 2.01928 -2.82564 0
M  V30 6793 C 679.106 1.68434 -3.93464 0
M  V30 6794 C 678.432 2.99472 -4.42968 0
M  V30 6795 C 679.732 0.927244 -5.14003 0
M  V30 6796 H 681.426 0.255607 -2.98307 0
M  V30 6797 H 678.972 0.121502 -1.43486 0
M  V30 6798 H 680.925 2.67741 -3.25411 0
M  V30 6799 H 679.649 2.56943 -2.01614 0
M  V30 6800 H 678.308 1.04998 -3.51242 0
M  V30 6801 H 677.956 3.52488 -3.58834 0
M  V30 6802 H 677.656 2.77823 -5.17772 0
M  V30 6803 H 679.18 3.66348 -4.88489 0
M  V30 6804 H 680.594 1.48756 -5.53665 0
M  V30 6805 H 678.991 0.810513 -5.94601 0
M  V30 6806 H 680.061 -0.0801163 -4.84834 0
M  V30 6807 N 681.404 1.57128 0.121893 0
M  V30 6808 C 682.334 2.03165 1.15092 0
M  V30 6809 C 683.315 0.915587 1.43356 0
M  V30 6810 O 684.5 1.1851 1.53847 0
M  V30 6811 C 681.63 2.43352 2.47784 0
M  V30 6812 C 680.584 3.58376 2.33989 0
M  V30 6813 C 679.91 3.84454 3.71617 0
M  V30 6814 C 681.21 4.90199 1.80283 0
M  V30 6815 H 682.904 2.89382 0.768023 0
M  V30 6816 H 680.45 1.39218 0.367998 0
M  V30 6817 H 682.403 2.74163 3.20019 0
M  V30 6818 H 681.127 1.54103 2.87958 0
M  V30 6819 H 679.786 3.2777 1.64202 0
M  V30 6820 H 679.434 2.92414 4.09271 0
M  V30 6821 H 679.134 4.61877 3.6324 0
M  V30 6822 H 680.658 4.17714 4.45362 0
M  V30 6823 H 682.072 5.19565 2.42333 0
M  V30 6824 H 680.469 5.71601 1.82735 0
M  V30 6825 H 681.539 4.78904 0.760184 0
M  V30 6826 N 682.882 -0.391992 1.52647 0
M  V30 6827 C 683.829 -1.47866 1.77213 0
M  V30 6828 C 684.799 -1.54286 0.615223 0
M  V30 6829 O 685.984 -1.7059 0.854622 0
M  V30 6830 C 683.124 -2.85129 1.94411 0
M  V30 6831 C 682.237 -2.87883 3.22098 0
M  V30 6832 C 681.372 -4.16553 3.29631 0
M  V30 6833 C 680.411 -4.13348 4.51453 0
M  V30 6834 N 679.548 -5.33619 4.56284 0
M  V30 6835 H 684.388 -1.26219 2.6995 0
M  V30 6836 H 681.925 -0.612367 1.33748 0
M  V30 6837 H 683.883 -3.64833 2.02367 0
M  V30 6838 H 682.513 -3.05232 1.05038 0
M  V30 6839 H 681.565 -2.00567 3.23229 0
M  V30 6840 H 682.877 -2.81382 4.11856 0
M  V30 6841 H 682.031 -5.0466 3.36753 0
M  V30 6842 H 680.77 -4.25773 2.37842 0
M  V30 6843 H 679.775 -3.23629 4.44459 0
M  V30 6844 H 681 -4.05754 5.44555 0
M  V30 6845 H 678.946 -5.43474 3.67385 0
M  V30 6846 H 678.863 -5.29182 5.3991 0
M  V30 6847 H 680.131 -6.23632 4.67657 0
M  V30 6848 N 684.36 -1.4356 -0.65026 0
M  V30 6849 C 685.323 -1.48615 -1.74489 0
M  V30 6850 C 686.323 -0.370483 -1.56474 0
M  V30 6851 O 687.513 -0.632351 -1.62317 0
M  V30 6852 C 684.645 -1.34161 -3.13391 0
M  V30 6853 H 685.838 -2.46103 -1.71387 0
M  V30 6854 H 683.391 -1.30369 -0.862186 0
M  V30 6855 H 684.126 -0.376918 -3.22102 0
M  V30 6856 H 683.911 -2.1504 -3.27872 0
M  V30 6857 H 685.401 -1.40637 -3.93206 0
M  V30 6858 N 685.838 0.888903 -1.30139 0
M  V30 6859 C 686.77 1.99972 -1.11999 0
M  V30 6860 C 687.783 1.62673 -0.0643619 0
M  V30 6861 O 688.972 1.75788 -0.309983 0
M  V30 6862 C 686.072 3.31904 -0.685059 0
M  V30 6863 C 685.245 3.97665 -1.82158 0
M  V30 6864 C 684.304 5.07894 -1.37585 0
M  V30 6865 O 683.33 5.2974 -2.08241 0
M  V30 6866 N 684.532 5.7995 -0.252697 0
M  V30 6867 H 687.297 2.16085 -2.07671 0
M  V30 6868 H 684.858 1.06175 -1.22223 0
M  V30 6869 H 686.85 4.03005 -0.369964 0
M  V30 6870 H 685.42 3.12084 0.179507 0
M  V30 6871 H 684.64 3.19787 -2.305 0
M  V30 6872 H 685.928 4.3834 -2.58332 0
M  V30 6873 H 685.326 5.647 0.336141 0
M  V30 6874 H 683.883 6.518 0.00296813 0
M  V30 6875 N 687.317 1.12792 1.10072 0
M  V30 6876 C 688.247 0.821688 2.18565 0
M  V30 6877 C 689.228 -0.21612 1.68721 0
M  V30 6878 O 690.413 -0.0764932 1.94049 0
M  V30 6879 C 687.543 0.279624 3.46172 0
M  V30 6880 C 686.497 1.25092 4.09312 0
M  V30 6881 C 685.823 0.568916 5.31665 0
M  V30 6882 C 687.123 2.60699 4.52585 0
M  V30 6883 H 688.817 1.72888 2.44438 0
M  V30 6884 H 686.363 0.832702 1.17482 0
M  V30 6885 H 688.316 0.053099 4.21367 0
M  V30 6886 H 687.04 -0.662929 3.19801 0
M  V30 6887 H 685.699 1.46332 3.36129 0
M  V30 6888 H 685.347 -0.378898 5.01571 0
M  V30 6889 H 685.047 1.21687 5.74862 0
M  V30 6890 H 686.571 0.351517 6.09587 0
M  V30 6891 H 687.985 2.43465 5.19035 0
M  V30 6892 H 686.382 3.21608 5.06644 0
M  V30 6893 H 687.452 3.1886 3.65317 0
M  V30 6894 N 688.795 -1.27931 0.920396 0
M  V30 6895 C 690.072 -1.89728 0.475687 0
M  V30 6896 C 690.452 -1.8337 -1.04588 0
M  V30 6897 O 689.8 -1.27404 -1.89685 0
M  V30 6898 C 690.01 -3.33959 1.01354 0
M  V30 6899 C 691.358 -4.10907 1.06963 0
M  V30 6900 O 692.382 -3.42945 0.962646 0
M  V30 6901 O 691.241 -5.32399 1.23343 0
M  V30 6902 H 688.335 -0.81294 0.151845 0
M  V30 6903 H 690.881 -1.36252 1.01161 0
M  V30 6904 H 689.653 -3.32843 2.05746 0
M  V30 6905 H 689.276 -3.94944 0.458829 0
M  V30 6906 N 690.273 -0.685099 -1.4193 0
M  V30 6907 C 691.236 -0.0222632 -2.29189 0
M  V30 6908 C 692.236 0.7186 -1.4385 0
M  V30 6909 O 693.426 0.555058 -1.6512 0
M  V30 6910 C 690.558 0.979013 -3.2654 0
M  V30 6911 H 691.751 -0.790424 -2.89296 0
M  V30 6912 H 689.304 -0.448012 -1.49742 0
M  V30 6913 H 690.039 1.77531 -2.71392 0
M  V30 6914 H 689.824 0.451037 -3.89497 0
M  V30 6915 H 691.314 1.44091 -3.91954 0
M  V30 6916 N 691.751 1.51645 -0.429126 0
M  V30 6917 C 692.714 2.26116 0.374726 0
M  V30 6918 C 693.714 1.29242 0.956714 0
M  V30 6919 O 694.904 1.53022 0.832452 0
M  V30 6920 C 692.036 3.04669 1.52937 0
M  V30 6921 H 693.229 2.9861 -0.277818 0
M  V30 6922 H 690.782 1.55236 -0.182097 0
M  V30 6923 H 691.517 2.36571 2.21821 0
M  V30 6924 H 691.302 3.75814 1.11833 0
M  V30 6925 H 692.792 3.61102 2.09751 0
M  V30 6926 N 693.229 0.160201 1.56784 0
M  V30 6927 C 694.475 -0.48831 1.96833 0
M  V30 6928 C 694.808 -1.63641 1.04571 0
M  V30 6929 O 694.083 -1.94289 0.0906481 0
M  V30 6930 C 694.366 -0.981908 3.46454 0
M  V30 6931 C 694.219 0.165607 4.49495 0
M  V30 6932 C 695.538 -1.85931 3.98896 0
M  V30 6933 H 692.657 -0.176027 0.71567 0
M  V30 6934 H 695.299 0.244093 1.88426 0
M  V30 6935 H 693.449 -1.60602 3.5375 0
M  V30 6936 H 695.121 0.802372 4.54268 0
M  V30 6937 H 693.364 0.822789 4.25926 0
M  V30 6938 H 694.035 -0.221699 5.51555 0
M  V30 6939 H 696.511 -1.33327 3.94161 0
M  V30 6940 H 695.387 -2.17373 5.04024 0
M  V30 6941 H 695.648 -2.80106 3.42042 0
M  V30 6942 N 694.707 -1.5719 -0.113559 0
M  V30 6943 C 695.935 -1.89328 -0.834422 0
M  V30 6944 C 696.35 -0.752018 -1.73177 0
M  V30 6945 O 695.707 0.276912 -1.80387 0
M  V30 6946 C 695.758 -3.20962 -1.66329 0
M  V30 6947 O 695.479 -4.30695 -0.802069 0
M  V30 6948 C 696.98 -3.6684 -2.48884 0
M  V30 6949 H 694.2 -0.626769 -0.239587 0
M  V30 6950 H 696.744 -2.04273 -0.0963195 0
M  V30 6951 H 694.899 -3.0767 -2.35409 0
M  V30 6952 H 695.313 -5.06175 -1.37431 0
M  V30 6953 H 696.787 -4.61692 -3.02563 0
M  V30 6954 H 697.264 -2.93765 -3.26495 0
M  V30 6955 H 697.87 -3.82938 -1.85036 0
M  V30 6956 N 696.185 0.383891 -1.52853 0
M  V30 6957 C 697.432 1.12842 -1.68146 0
M  V30 6958 C 697.76 1.89823 -0.423954 0
M  V30 6959 O 697.015 1.86475 0.593765 0
M  V30 6960 C 697.314 2.12881 -2.87082 0
M  V30 6961 C 696.98 1.52519 -4.24322 0
M  V30 6962 C 695.642 1.35783 -4.61645 0
M  V30 6963 C 697.994 1.0868 -5.09743 0
M  V30 6964 C 695.322 0.737643 -5.82044 0
M  V30 6965 C 697.674 0.480699 -6.30771 0
M  V30 6966 C 696.338 0.300681 -6.66822 0
M  V30 6967 H 695.608 0.412917 -0.615289 0
M  V30 6968 H 698.255 0.412416 -1.87006 0
M  V30 6969 H 696.56 2.90719 -2.62659 0
M  V30 6970 H 698.257 2.70408 -2.96109 0
M  V30 6971 H 694.847 1.66534 -3.94923 0
M  V30 6972 H 699.031 1.2041 -4.81472 0
M  V30 6973 H 694.287 0.586415 -6.08581 0
M  V30 6974 H 698.461 0.132733 -6.96273 0
M  V30 6975 H 696.088 -0.181966 -7.59982 0
M  V30 6976 N 697.663 1.43903 0.642637 0
M  V30 6977 C 698.911 1.45791 1.39962 0
M  V30 6978 C 699.232 0.0873144 1.94804 0
M  V30 6979 O 698.502 -0.878825 1.75081 0
M  V30 6980 H 697.082 0.536797 0.519479 0
M  V30 6981 H 699.744 1.7959 0.757189 0
M  V30 6982 H 698.84 2.17665 2.2367 0
M  V30 6983 N 699.141 -0.881989 1.30609 0
M  V30 6984 C 700.552 -1.44956 1.17664 0
M  V30 6985 C 700.903 -1.94945 -0.221531 0
M  V30 6986 O 700.028 -1.85257 -1.11844 0
M  V30 6987 C 700.623 -2.63474 2.12995 0
M  V30 6988 C 699.182 -3.16312 2.04019 0
M  V30 6989 C 698.329 -1.89008 2.02907 0
M  V30 6990 H 701.28 -0.691645 1.42835 0
M  V30 6991 H 701.301 -3.39783 1.71253 0
M  V30 6992 H 700.813 -2.2706 3.14746 0
M  V30 6993 H 698.914 -3.57376 1.0542 0
M  V30 6994 H 699.027 -3.79409 2.9255 0
M  V30 6995 H 697.391 -2.07465 1.47751 0
M  V30 6996 H 698.174 -1.54848 3.06394 0
M  V30 6997 N 700.619 -1.13374 -1.09472 0
M  V30 6998 C 701.844 -0.918711 -1.85942 0
M  V30 6999 C 702.269 0.527225 -1.8056 0
M  V30 7000 O 701.627 1.37408 -1.18274 0
M  V30 7001 C 701.675 -1.41056 -3.31867 0
M  V30 7002 O 700.779 -0.595496 -4.08078 0
M  V30 7003 H 700.12 -0.329297 -0.576593 0
M  V30 7004 H 702.65 -1.50829 -1.38245 0
M  V30 7005 H 702.66 -1.41398 -3.82715 0
M  V30 7006 H 701.335 -2.46335 -3.35099 0
M  V30 7007 H 699.912 -0.659911 -3.67014 0
M  V30 7008 N 702.098 1.27442 -0.927168 0
M  V30 7009 C 703.03 2.25975 -0.383158 0
M  V30 7010 C 704.043 1.55382 0.485832 0
M  V30 7011 O 705.232 1.75986 0.298541 0
M  V30 7012 C 702.332 3.35629 0.469688 0
M  V30 7013 C 701.505 4.35747 -0.379886 0
M  V30 7014 C 700.564 5.24598 0.410227 0
M  V30 7015 O 699.59 5.68909 -0.181888 0
M  V30 7016 N 700.792 5.54737 1.71017 0
M  V30 7017 H 703.557 2.7329 -1.23015 0
M  V30 7018 H 701.118 1.41063 -0.794539 0
M  V30 7019 H 703.11 3.92015 1.00532 0
M  V30 7020 H 701.68 2.87919 1.21744 0
M  V30 7021 H 700.9 3.78634 -1.09682 0
M  V30 7022 H 702.188 4.99648 -0.960717 0
M  V30 7023 H 701.586 5.20594 2.21356 0
M  V30 7024 H 700.143 6.13824 2.19234 0
M  V30 7025 N 703.576 0.692616 1.41565 0
M  V30 7026 C 704.822 0.222664 2.01574 0
M  V30 7027 C 705.155 -1.1737 1.54719 0
M  V30 7028 O 704.43 -1.79161 0.757084 0
M  V30 7029 C 704.713 0.277064 3.59033 0
M  V30 7030 C 704.566 1.71016 4.16021 0
M  V30 7031 C 705.885 -0.36479 4.38586 0
M  V30 7032 H 703.004 0.0823839 0.732381 0
M  V30 7033 H 705.646 0.880778 1.68352 0
M  V30 7034 H 703.796 -0.283288 3.87466 0
M  V30 7035 H 705.468 2.32413 3.98475 0
M  V30 7036 H 703.711 2.24525 3.71175 0
M  V30 7037 H 704.382 1.69978 5.25178 0
M  V30 7038 H 706.858 0.112404 4.15948 0
M  V30 7039 H 705.734 -0.296169 5.481 0
M  V30 7040 H 705.995 -1.44506 4.17816 0
M  V30 7041 N 705.054 -1.51416 0.437162 0
M  V30 7042 C 706.017 -2.26312 -0.362729 0
M  V30 7043 C 707.017 -1.29748 -0.949847 0
M  V30 7044 O 708.207 -1.53462 -0.824325 0
M  V30 7045 C 705.339 -3.05475 -1.5132 0
M  V30 7046 H 706.532 -2.98459 0.29365 0
M  V30 7047 H 704.085 -1.55137 0.190327 0
M  V30 7048 H 704.82 -2.37744 -2.20563 0
M  V30 7049 H 704.605 -3.76401 -1.09838 0
M  V30 7050 H 706.095 -3.62209 -2.07833 0
M  V30 7051 N 706.532 -0.168513 -1.56696 0
M  V30 7052 C 707.948 0.187686 -1.58493 0
M  V30 7053 C 708.148 1.63063 -1.18375 0
M  V30 7054 O 707.204 2.36142 -0.894042 0
M  V30 7055 C 708.517 -0.0905858 -3.00564 0
M  V30 7056 C 710.065 -0.028575 -3.12987 0
M  V30 7057 C 710.54 -0.279799 -4.57145 0
M  V30 7058 N 712.031 -0.227476 -4.62641 0
M  V30 7059 C 712.766 -0.396073 -5.7203 0
M  V30 7060 N 712.262 -0.623572 -6.89988 0
M  V30 7061 N 714.055 -0.332173 -5.61118 0
M  V30 7062 H 706.206 -1.11042 -1.81062 0
M  V30 7063 H 708.469 -0.441235 -0.839056 0
M  V30 7064 H 708.175 -1.09006 -3.34381 0
M  V30 7065 H 708.049 0.619078 -3.72085 0
M  V30 7066 H 710.436 0.961471 -2.78998 0
M  V30 7067 H 710.517 -0.770905 -2.43907 0
M  V30 7068 H 710.161 -1.26704 -4.91842 0
M  V30 7069 H 710.091 0.48311 -5.24379 0
M  V30 7070 H 712.582 -0.0571723 -3.77857 0
M  V30 7071 H 712.895 -0.741745 -7.69232 0
M  V30 7072 H 711.24 -0.660153 -6.91858 0
M  V30 7073 H 714.431 -0.155051 -4.67843 0
M  V30 7074 H 714.604 -0.466994 -6.46315 0
M  V30 7075 N 708.01 1.57248 0.105221 0
M  V30 7076 C 709.258 1.85204 0.808951 0
M  V30 7077 C 709.579 0.75574 1.7976 0
M  V30 7078 O 708.849 -0.218984 1.94672 0
M  V30 7079 H 707.429 0.683346 0.301739 0
M  V30 7080 H 710.091 1.94695 0.0892605 0
M  V30 7081 H 709.187 2.81595 1.34575 0
M  V30 7082 N 709.488 -0.375779 1.53054 0
M  V30 7083 C 710.398 -1.48381 1.81715 0
M  V30 7084 C 711.414 -1.59087 0.704795 0
M  V30 7085 O 712.59 -1.75174 0.993785 0
M  V30 7086 C 709.655 -2.83767 1.99192 0
M  V30 7087 C 708.716 -2.82673 3.23102 0
M  V30 7088 C 707.949 -4.11601 3.39736 0
M  V30 7089 O 708.172 -5.07243 2.60885 0
M  V30 7090 O 707.106 -4.18034 4.33049 0
M  V30 7091 H 710.932 -1.27089 2.7583 0
M  V30 7092 H 708.517 -0.564902 1.38308 0
M  V30 7093 H 710.399 -3.64004 2.12318 0
M  V30 7094 H 709.074 -3.05057 1.08267 0
M  V30 7095 H 707.981 -2.0117 3.15407 0
M  V30 7096 H 709.314 -2.66335 4.13916 0
M  V30 7097 N 710.966 -1.44241 -0.634997 0
M  V30 7098 C 712.243 -1.37296 -1.39317 0
M  V30 7099 C 712.623 -0.0297532 -2.11079 0
M  V30 7100 O 711.971 0.987524 -2.06059 0
M  V30 7101 C 712.181 -2.56853 -2.36279 0
M  V30 7102 C 713.529 -3.00747 -2.99728 0
M  V30 7103 O 714.553 -2.5703 -2.46605 0
M  V30 7104 O 713.412 -3.76533 -3.96087 0
M  V30 7105 H 710.506 -0.543503 -0.623325 0
M  V30 7106 H 713.052 -1.56324 -0.660376 0
M  V30 7107 H 711.824 -3.46228 -1.82324 0
M  V30 7108 H 711.447 -2.40019 -3.16981 0
M  V30 7109 N 712.444 0.87505 -1.31075 0
M  V30 7110 C 713.855 1.4433 -1.18431 0
M  V30 7111 C 714.206 1.9506 0.211189 0
M  V30 7112 O 713.331 1.85847 1.10859 0
M  V30 7113 C 713.926 2.62341 -2.14389 0
M  V30 7114 C 712.485 3.15225 -2.05694 0
M  V30 7115 C 711.632 1.87929 -2.03907 0
M  V30 7116 H 714.583 0.684061 -1.432 0
M  V30 7117 H 714.604 3.3887 -1.73053 0
M  V30 7118 H 714.116 2.25388 -3.15946 0
M  V30 7119 H 712.217 3.56812 -1.07314 0
M  V30 7120 H 712.33 3.77853 -2.94558 0
M  V30 7121 H 710.694 2.06679 -1.48849 0
M  V30 7122 H 711.477 1.53221 -3.07211 0
M  V30 7123 N 713.922 1.13953 1.08869 0
M  V30 7124 C 714.885 0.824991 2.13838 0
M  V30 7125 C 715.885 -0.168198 1.59918 0
M  V30 7126 O 717.075 0.0595778 1.74098 0
M  V30 7127 C 714.207 0.228938 3.4013 0
M  V30 7128 H 715.4 1.75521 2.43171 0
M  V30 7129 H 712.953 0.94492 1.24503 0
M  V30 7130 H 713.688 -0.710227 3.16427 0
M  V30 7131 H 713.473 0.944243 3.80561 0
M  V30 7132 H 714.963 0.0259223 4.17592 0
M  V30 7133 N 715.4 -1.26948 0.933913 0
M  V30 7134 C 716.33 -2.29017 0.45534 0
M  V30 7135 C 717.311 -1.62961 -0.487605 0
M  V30 7136 O 718.496 -1.90223 -0.391022 0
M  V30 7137 C 715.626 -3.46112 -0.287015 0
M  V30 7138 C 714.58 -4.24205 0.568682 0
M  V30 7139 C 713.906 -5.3384 -0.303206 0
M  V30 7140 C 715.206 -4.88954 1.83633 0
M  V30 7141 H 716.9 -2.69298 1.30839 0
M  V30 7142 H 714.446 -1.29459 0.630579 0
M  V30 7143 H 716.399 -4.16622 -0.6328 0
M  V30 7144 H 715.123 -3.04765 -1.17414 0
M  V30 7145 H 713.782 -3.5545 0.897261 0
M  V30 7146 H 713.43 -4.88734 -1.18947 0
M  V30 7147 H 713.13 -5.86998 0.265879 0
M  V30 7148 H 714.654 -6.0719 -0.644423 0
M  V30 7149 H 716.068 -5.51717 1.55823 0
M  V30 7150 H 714.465 -5.52198 2.34941 0
M  V30 7151 H 715.535 -4.12305 2.55211 0
M  V30 7152 N 716.879 -0.700114 -1.41195 0
M  V30 7153 C 717.811 0.00155823 -2.292 0
M  V30 7154 C 718.824 0.739736 -1.45023 0
M  V30 7155 O 720.013 0.589684 -1.68478 0
M  V30 7156 C 717.113 1.02635 -3.22985 0
M  V30 7157 C 716.286 0.356871 -4.35942 0
M  V30 7158 C 715.345 1.28491 -5.10271 0
M  V30 7159 O 714.371 0.775562 -5.63892 0
M  V30 7160 N 715.573 2.61699 -5.18164 0
M  V30 7161 H 718.338 -0.754008 -2.9006 0
M  V30 7162 H 715.899 -0.546504 -1.52397 0
M  V30 7163 H 717.891 1.64902 -3.6958 0
M  V30 7164 H 716.461 1.68341 -2.63401 0
M  V30 7165 H 715.681 -0.445753 -3.91672 0
M  V30 7166 H 716.969 -0.108469 -5.08684 0
M  V30 7167 H 716.367 3.05594 -4.76056 0
M  V30 7168 H 714.924 3.19149 -5.6832 0
M  V30 7169 N 718.357 1.51182 -0.445186 0
M  V30 7170 C 719.606 2.01342 0.120189 0
M  V30 7171 C 719.919 1.33353 1.43095 0
M  V30 7172 O 721.125 1.74525 2.07974 0
M  V30 7173 C 719.581 3.58925 0.264732 0
M  V30 7174 C 719.189 4.35855 -1.03606 0
M  V30 7175 C 720.933 4.17208 0.783455 0
M  V30 7176 C 718.84 5.85162 -0.856731 0
M  V30 7177 H 717.77 0.752426 0.0486922 0
M  V30 7178 H 720.421 1.74221 -0.576143 0
M  V30 7179 H 718.803 3.82525 1.02425 0
M  V30 7180 H 719.977 4.23997 -1.80452 0
M  V30 7181 H 718.292 3.89062 -1.48391 0
M  V30 7182 H 720.889 5.26475 0.934239 0
M  V30 7183 H 721.232 3.76892 1.768 0
M  V30 7184 H 721.765 3.97715 0.0820346 0
M  V30 7185 H 718.504 6.29904 -1.81388 0
M  V30 7186 H 718.024 5.99663 -0.128206 0
M  V30 7187 H 719.703 6.44963 -0.513027 0
M  V30 7188 N 719.835 0.176821 1.56605 0
M  V30 7189 C 721.075 -0.469104 1.98944 0
M  V30 7190 C 721.439 -1.60048 1.06059 0
M  V30 7191 O 722.64 -2.30934 1.3756 0
M  V30 7192 C 720.911 -0.934571 3.44965 0
M  V30 7193 S 722.47 -1.58091 4.09332 0
M  V30 7194 H 719.288 -0.150695 0.694847 0
M  V30 7195 H 721.89 0.27558 1.93548 0
M  V30 7196 H 720.594 -0.100814 4.10276 0
M  V30 7197 H 720.125 -1.71316 3.54139 0
M  V30 7198 H 722.14 -2.86922 4.04834 0
M  V30 7199 N 721.313 -1.57302 -0.09688 0
M  V30 7200 C 722.553 -1.87823 -0.806334 0
M  V30 7201 C 722.917 -0.767593 -1.75989 0
M  V30 7202 O 724.118 -0.955173 -2.51257 0
M  V30 7203 C 722.389 -3.23585 -1.51749 0
M  V30 7204 S 723.948 -3.75795 -2.26547 0
M  V30 7205 H 720.766 -0.658281 -0.268676 0
M  V30 7206 H 723.368 -1.95397 -0.0635476 0
M  V30 7207 H 722.072 -4.0234 -0.809348 0
M  V30 7208 H 721.603 -3.19145 -2.30021 0
M  V30 7209 H 723.618 -3.49068 -3.52656 0
M  V30 7210 N 722.791 0.367657 -1.53252 0
M  V30 7211 C 723.741 1.45035 -1.75923 0
M  V30 7212 C 724.725 1.48736 -0.613719 0
M  V30 7213 O 725.917 1.54012 -0.872313 0
M  V30 7214 C 723.046 2.82493 -1.9507 0
M  V30 7215 C 722.132 2.83279 -3.15617 0
M  V30 7216 N 722.523 2.53712 -4.37566 0
M  V30 7217 C 720.821 3.1444 -3.16297 0
M  V30 7218 C 721.522 2.62123 -5.19294 0
M  V30 7219 N 720.498 2.96747 -4.55458 0
M  V30 7220 H 724.3 1.21035 -2.6782 0
M  V30 7221 H 721.814 0.575822 -1.51849 0
M  V30 7222 H 723.811 3.60473 -2.0944 0
M  V30 7223 H 722.471 3.07459 -1.044 0
M  V30 7224 H 723.482 2.27344 -4.65333 0
M  V30 7225 H 720.159 3.44733 -2.35511 0
M  V30 7226 H 721.549 2.42628 -6.26563 0
M  V30 7227 N 724.269 1.44576 0.627338 0
M  V30 7228 C 725.68 1.42266 1.20902 0
M  V30 7229 C 726.031 0.139964 1.957 0
M  V30 7230 O 725.156 -0.759489 2.02634 0
M  V30 7231 C 725.751 2.57727 2.19914 0
M  V30 7232 C 724.31 2.58599 2.73502 0
M  V30 7233 C 723.457 2.34145 1.48564 0
M  V30 7234 H 726.408 1.53102 0.417791 0
M  V30 7235 H 726.429 2.30697 3.02588 0
M  V30 7236 H 725.941 3.51068 1.65447 0
M  V30 7237 H 724.042 1.6921 3.31962 0
M  V30 7238 H 724.155 3.57205 3.19282 0
M  V30 7239 H 722.519 1.83313 1.76829 0
M  V30 7240 H 723.302 3.29606 0.959935 0
M  V30 7241 N 725.747 -0.868086 1.31537 0
M  V30 7242 C 726.995 -1.61807 1.21091 0
M  V30 7243 C 727.316 -1.93631 -0.230623 0
M  V30 7244 O 726.586 -1.5846 -1.15183 0
M  V30 7245 H 725.166 -0.599854 0.445178 0
M  V30 7246 H 727.828 -1.03915 1.64887 0
M  V30 7247 H 726.924 -2.56088 1.78396 0
M  V30 7248 N 727.225 -1.14528 -1.08264 0
M  V30 7249 C 728.465 -0.924808 -1.82282 0
M  V30 7250 C 728.829 0.538881 -1.84283 0
M  V30 7251 O 730.03 0.877355 -2.54079 0
M  V30 7252 C 728.301 -1.51102 -3.23887 0
M  V30 7253 S 729.86 -1.43232 -4.14765 0
M  V30 7254 H 726.678 -0.333052 -0.62817 0
M  V30 7255 H 729.28 -1.45905 -1.30123 0
M  V30 7256 H 727.984 -2.56942 -3.20014 0
M  V30 7257 H 727.515 -0.975234 -3.8112 0
M  V30 7258 H 729.53 -0.418843 -4.94429 0
M  V30 7259 N 728.703 1.26451 -0.940633 0
M  V30 7260 C 729.931 1.97868 -0.604642 0
M  V30 7261 C 730.346 1.70051 0.820251 0
M  V30 7262 O 729.703 0.96843 1.54686 0
M  V30 7263 C 729.754 3.51684 -0.836689 0
M  V30 7264 O 729.475 3.78533 -2.20554 0
M  V30 7265 C 730.976 4.40343 -0.511169 0
M  V30 7266 H 728.196 0.631105 -0.227919 0
M  V30 7267 H 730.74 1.60979 -1.26119 0
M  V30 7268 H 728.895 3.86736 -0.226759 0
M  V30 7269 H 729.309 4.73065 -2.26517 0
M  V30 7270 H 730.783 5.47229 -0.724157 0
M  V30 7271 H 731.26 4.35694 0.553815 0
M  V30 7272 H 731.866 4.10834 -1.0998 0
M  V30 7273 N 730.181 0.707592 1.40822 0
M  V30 7274 C 731.592 0.317011 1.83989 0
M  V30 7275 C 731.943 -1.14697 1.59182 0
M  V30 7276 O 731.068 -1.8818 1.06852 0
M  V30 7277 C 731.663 0.568593 3.33995 0
M  V30 7278 C 730.222 0.231804 3.75686 0
M  V30 7279 C 729.369 0.844933 2.64114 0
M  V30 7280 H 732.32 0.907349 1.30203 0
M  V30 7281 H 732.341 -0.168798 3.80125 0
M  V30 7282 H 731.853 1.63417 3.52018 0
M  V30 7283 H 729.954 -0.82903 3.6326 0
M  V30 7284 H 730.067 0.695219 4.74029 0
M  V30 7285 H 728.431 0.273588 2.53226 0
M  V30 7286 H 729.214 1.91462 2.84951 0
M  V30 7287 N 731.66 -1.50943 0.453197 0
M  V30 7288 C 733.076 -1.59245 0.106342 0
M  V30 7289 C 733.276 -1.46287 -1.38572 0
M  V30 7290 O 732.332 -1.31219 -2.15726 0
M  V30 7291 C 733.645 -2.93797 0.640595 0
M  V30 7292 C 735.193 -3.07148 0.602435 0
M  V30 7293 C 735.668 -4.44247 1.11393 0
M  V30 7294 N 737.159 -4.50611 1.07258 0
M  V30 7295 C 737.894 -5.55049 1.43905 0
M  V30 7296 N 737.39 -6.66828 1.87914 0
M  V30 7297 N 739.183 -5.45494 1.35621 0
M  V30 7298 H 731.334 -1.5761 1.42382 0
M  V30 7299 H 733.597 -0.74384 0.587713 0
M  V30 7300 H 733.303 -3.087 1.68515 0
M  V30 7301 H 733.177 -3.77127 0.0742272 0
M  V30 7302 H 735.564 -2.91903 -0.433171 0
M  V30 7303 H 735.645 -2.25619 1.20539 0
M  V30 7304 H 735.289 -4.60239 2.14808 0
M  V30 7305 H 735.219 -5.2434 0.487353 0
M  V30 7306 H 737.71 -3.70391 0.749585 0
M  V30 7307 H 738.023 -7.42558 2.14072 0
M  V30 7308 H 736.368 -6.67995 1.91853 0
M  V30 7309 H 739.559 -4.57053 1.01093 0
M  V30 7310 H 739.732 -6.2677 1.64508 0
M  V30 7311 N 733.138 -0.185124 -1.56509 0
M  V30 7312 C 734.549 0.329221 -1.83774 0
M  V30 7313 C 734.9 1.62093 -1.10545 0
M  V30 7314 O 734.025 2.13334 -0.36298 0
M  V30 7315 C 734.62 0.604099 -3.33371 0
M  V30 7316 C 733.179 1.06284 -3.61083 0
M  V30 7317 C 732.326 0.10608 -2.77097 0
M  V30 7318 H 735.277 -0.409116 -1.53336 0
M  V30 7319 H 735.298 1.45458 -3.51599 0
M  V30 7320 H 734.81 -0.336201 -3.86641 0
M  V30 7321 H 732.911 2.01777 -3.13236 0
M  V30 7322 H 733.024 0.962453 -4.69333 0
M  V30 7323 H 731.388 0.606082 -2.47384 0
M  V30 7324 H 732.171 -0.828486 -3.33153 0
M  V30 7325 N 734.616 1.57351 0.0885366 0
M  V30 7326 C 735.579 2.01557 1.09121 0
M  V30 7327 C 736.579 0.910052 1.3257 0
M  V30 7328 O 737.769 1.17537 1.28572 0
M  V30 7329 C 734.901 2.38189 2.43883 0
M  V30 7330 H 736.094 2.91361 0.710562 0
M  V30 7331 H 733.647 1.52694 0.333779 0
M  V30 7332 H 734.382 1.5136 2.86811 0
M  V30 7333 H 734.167 3.18846 2.28209 0
M  V30 7334 H 735.657 2.73025 3.15986 0
M  V30 7335 N 736.094 -0.359525 1.53444 0
M  V30 7336 C 737.334 -1.11014 1.71625 0
M  V30 7337 C 737.698 -1.86376 0.46132 0
M  V30 7338 O 738.899 -2.63724 0.519908 0
M  V30 7339 C 737.17 -2.03907 2.93524 0
M  V30 7340 S 738.729 -2.86408 3.3244 0
M  V30 7341 H 735.547 -0.375352 0.603847 0
M  V30 7342 H 738.149 -0.390604 1.91558 0
M  V30 7343 H 736.853 -1.47316 3.83048 0
M  V30 7344 H 736.384 -2.80324 2.76011 0
M  V30 7345 H 738.399 -4.06241 2.84926 0
M  V30 7346 N 737.572 -1.44907 -0.619662 0
M  V30 7347 C 738.812 -1.49822 -1.39042 0
M  V30 7348 C 739.176 -0.131803 -1.91547 0
M  V30 7349 O 740.377 -0.0556413 -2.68742 0
M  V30 7350 C 738.648 -2.53805 -2.5163 0
M  V30 7351 S 740.207 -2.77855 -3.3962 0
M  V30 7352 H 737.025 -0.529774 -0.474195 0
M  V30 7353 H 739.627 -1.81907 -0.716236 0
M  V30 7354 H 738.331 -3.51772 -2.11387 0
M  V30 7355 H 737.862 -2.23331 -3.23863 0
M  V30 7356 H 739.877 -2.10319 -4.49422 0
M  V30 7357 N 739.05 0.861098 -1.31996 0
M  V30 7358 C 740 1.95703 -1.1698 0
M  V30 7359 C 740.984 1.60709 -0.0784201 0
M  V30 7360 O 742.176 1.74365 -0.304262 0
M  V30 7361 C 739.305 3.31606 -0.888388 0
M  V30 7362 C 738.391 3.7284 -2.02117 0
M  V30 7363 N 738.782 3.85957 -3.26911 0
M  V30 7364 C 737.08 4.02419 -1.92289 0
M  V30 7365 C 737.781 4.21333 -4.01065 0
M  V30 7366 N 736.757 4.32502 -3.29307 0
M  V30 7367 H 740.559 2.03968 -2.11599 0
M  V30 7368 H 738.073 1.05245 -1.23682 0
M  V30 7369 H 740.07 4.09881 -0.761782 0
M  V30 7370 H 738.73 3.24662 0.0494898 0
M  V30 7371 H 739.741 3.70449 -3.61923 0
M  V30 7372 H 736.418 4.03814 -1.06022 0
M  V30 7373 H 737.808 4.39005 -5.08649 0
M  V30 7374 N 740.528 1.15101 1.07655 0
M  V30 7375 C 741.768 0.934462 1.81789 0
M  V30 7376 C 742.132 -0.529101 1.84566 0
M  V30 7377 O 743.333 -0.863868 2.5454 0
M  V30 7378 C 741.604 1.52817 3.23082 0
M  V30 7379 S 743.163 1.45429 4.14 0
M  V30 7380 H 739.981 0.336379 0.626395 0
M  V30 7381 H 742.583 1.46593 1.29347 0
M  V30 7382 H 741.287 2.58635 3.18647 0
M  V30 7383 H 740.818 0.995432 3.80598 0
M  V30 7384 H 742.833 0.445058 4.942 0
M  V30 7385 N 742.006 -1.2595 0.947325 0
M  V30 7386 C 743.417 -1.75389 0.639963 0
M  V30 7387 C 743.768 -1.77081 -0.844788 0
M  V30 7388 O 742.893 -1.3869 -1.66114 0
M  V30 7389 C 743.488 -3.18506 1.15496 0
M  V30 7390 C 742.047 -3.65534 0.897894 0
M  V30 7391 C 741.194 -2.44818 1.30228 0
M  V30 7392 H 744.145 -1.1194 1.12495 0
M  V30 7393 H 744.166 -3.77045 0.511627 0
M  V30 7394 H 743.678 -3.17243 2.23559 0
M  V30 7395 H 741.779 -3.72221 -0.168096 0
M  V30 7396 H 741.892 -4.54039 1.52922 0
M  V30 7397 H 740.256 -2.44291 0.720678 0
M  V30 7398 H 741.039 -2.46251 2.39198 0
M  V30 7399 N 743.484 -0.715051 -1.40445 0
M  V30 7400 C 744.761 -0.181503 -1.94756 0
M  V30 7401 C 745.141 1.31268 -1.65324 0
M  V30 7402 O 744.489 2.0686 -0.970631 0
M  V30 7403 C 744.699 -0.493663 -3.45491 0
M  V30 7404 C 746.047 -0.432032 -4.22396 0
M  V30 7405 O 747.071 -0.429692 -3.53599 0
M  V30 7406 O 745.93 -0.409091 -5.44967 0
M  V30 7407 H 743.024 -0.0263989 -0.826579 0
M  V30 7408 H 745.57 -0.792546 -1.50056 0
M  V30 7409 H 744.342 -1.52713 -3.6027 0
M  V30 7410 H 743.965 0.14737 -3.97327 0
M  V30 7411 N 744.962 1.50701 -0.461195 0
M  V30 7412 C 746.373 1.867 -0.00370227 0
M  V30 7413 C 746.724 1.37673 1.39787 0
M  V30 7414 O 745.849 0.737515 2.03445 0
M  V30 7415 C 746.444 3.388 5.75786e-05 0
M  V30 7416 C 745.003 3.74247 0.402044 0
M  V30 7417 C 744.15 2.74549 -0.389652 0
M  V30 7418 H 747.101 1.43585 -0.675942 0
M  V30 7419 H 747.122 3.719 0.804414 0
M  V30 7420 H 746.634 3.74452 -1.02015 0
M  V30 7421 H 744.735 3.44192 1.42697 0
M  V30 7422 H 744.848 4.78973 0.110265 0
M  V30 7423 H 743.212 2.54226 0.155314 0
M  V30 7424 H 743.995 3.13044 -1.40919 0
M  V30 7425 N 746.441 0.193421 1.56409 0
M  V30 7426 C 747.391 -0.74089 2.15627 0
M  V30 7427 C 748.375 -1.17747 1.09656 0
M  V30 7428 O 749.567 -1.13615 1.35723 0
M  V30 7429 C 746.696 -1.96091 2.81786 0
M  V30 7430 C 745.782 -1.54531 3.94944 0
M  V30 7431 N 746.173 -0.840569 4.98767 0
M  V30 7432 C 744.471 -1.83473 4.06514 0
M  V30 7433 C 745.172 -0.632571 5.7825 0
M  V30 7434 N 744.148 -1.18078 5.30621 0
M  V30 7435 H 747.95 -0.193718 2.93261 0
M  V30 7436 H 745.464 -0.00643211 1.62399 0
M  V30 7437 H 747.461 -2.64071 3.22602 0
M  V30 7438 H 746.121 -2.51282 2.05639 0
M  V30 7439 H 747.132 -0.496218 5.15517 0
M  V30 7440 H 743.809 -2.40184 3.41493 0
M  V30 7441 H 745.199 -0.0736433 6.7186 0
M  V30 7442 N 747.919 -1.57396 -0.0801906 0
M  V30 7443 C 748.882 -2.02133 -1.0805 0
M  V30 7444 C 749.882 -0.91707 -1.32085 0
M  V30 7445 O 751.072 -1.18217 -1.27947 0
M  V30 7446 C 748.204 -2.39479 -2.42616 0
M  V30 7447 H 749.397 -2.91733 -0.6951 0
M  V30 7448 H 746.95 -1.52869 -0.325677 0
M  V30 7449 H 747.685 -1.52879 -2.86004 0
M  V30 7450 H 747.47 -3.20052 -2.26515 0
M  V30 7451 H 748.96 -2.74697 -3.14534 0
M  V30 7452 O 749.436 0.223936 -1.5994 0
M  V30 7453 H 750.127 0.865318 -1.73297 0
M  V30 END ATOM
M  V30 BEGIN BOND
M  V30 END BOND
M  V30 END CTAB
M  END
$$$$
