drugbank_target|Q9UBQ6 Exostosin-like 2 (DB02196; DB03397; DB03435)
 OpenBabel12092120563D

  0  0  0     0  0            999 V3000
M  V30 BEGIN CTAB
M  V30 COUNTS 5300 5359 0 0 0
M  V30 BEGIN ATOM
M  V30 1 H -0.908 1.98254 -0.117106 0
M  V30 2 N 0 1.576 0 0
M  V30 3 C 0.933 2.03868 1.02534 0
M  V30 4 C 1.911 0.928543 1.3348 0
M  V30 5 O 3.095 1.19667 1.45644 0
M  V30 6 C 0.222 2.43627 2.35294 0
M  V30 7 C -0.732 3.65373 2.2001 0
M  V30 8 S 0.101 5.13292 1.52614 0
M  V30 9 C 1.257 5.56322 2.86805 0
M  V30 10 H 1.49 2.90518 0.631377 0
M  V30 11 H -0.977 1.52953 0.210867 0
M  V30 12 H 0.981 2.67203 3.11629 0
M  V30 13 H -0.358 1.57376 2.7183 0
M  V30 14 H -1.165 3.90944 3.18086 0
M  V30 15 H -1.563 3.418 1.51819 0
M  V30 16 H 0.729 5.58782 3.83104 0
M  V30 17 H 1.672 6.56266 2.65933 0
M  V30 18 H 2.08 4.83886 2.90714 0
M  V30 19 N 1.4781 -0.272755 1.55222 0
M  V30 20 C 2.8941 -0.619959 1.47067 0
M  V30 21 C 3.0941 -1.895 0.684978 0
M  V30 22 O 2.1501 -2.51675 0.203931 0
M  V30 23 C 3.4631 -0.746693 2.91282 0
M  V30 24 C 5.0111 -0.840731 3.01497 0
M  V30 25 C 5.4861 -0.99924 4.46967 0
M  V30 26 N 6.9771 -1.06476 4.50796 0
M  V30 27 C 7.7121 -1.20621 5.6057 0
M  V30 28 N 7.2081 -1.31483 6.80209 0
M  V30 29 N 9.0011 -1.23733 5.48312 0
M  V30 30 H 1.1521 0.564606 2.04758 0
M  V30 31 H 3.4151 0.191177 0.928523 0
M  V30 32 H 3.1211 0.119753 3.51496 0
M  V30 33 H 2.9951 -1.6269 3.40311 0
M  V30 34 H 5.3821 -1.69764 2.41379 0
M  V30 35 H 5.4631 0.0640874 2.5572 0
M  V30 36 H 5.1071 -0.146984 5.07687 0
M  V30 37 H 5.0371 -1.91871 4.90401 0
M  V30 38 H 7.5281 -0.993196 3.64615 0
M  V30 39 H 7.8411 -1.42111 7.59621 0
M  V30 40 H 6.1861 -1.28487 6.8302 0
M  V30 41 H 9.3771 -1.14877 4.53785 0
M  V30 42 H 9.5501 -1.34412 6.33906 0
M  V30 43 N 2.9562 -1.48159 -0.537278 0
M  V30 44 C 4.1962 -1.57397 -1.30405 0
M  V30 45 C 4.5602 -0.239202 -1.90504 0
M  V30 46 O 5.7612 -0.206528 -2.68005 0
M  V30 47 C 4.0322 -2.6754 -2.36974 0
M  V30 48 S 5.5912 -2.96496 -3.23475 0
M  V30 49 H 2.4092 -0.555577 -0.443684 0
M  V30 50 H 5.0112 -1.85644 -0.612912 0
M  V30 51 H 3.7152 -3.63092 -1.91291 0
M  V30 52 H 3.2462 -2.41172 -3.10805 0
M  V30 53 H 5.2612 -2.35234 -4.36897 0
M  V30 54 N 4.4343 0.785586 -1.36625 0
M  V30 55 C 5.6743 1.55678 -1.32453 0
M  V30 56 C 6.0383 1.91769 0.0941089 0
M  V30 57 O 7.2393 2.67536 0.26042 0
M  V30 58 C 5.5103 2.79701 -2.22491 0
M  V30 59 S 7.0693 3.69907 -2.36038 0
M  V30 60 H 3.8873 0.533141 -0.470405 0
M  V30 61 H 6.4893 0.924953 -1.72235 0
M  V30 62 H 5.1933 2.51244 -3.24507 0
M  V30 63 H 4.7243 3.47854 -1.83742 0
M  V30 64 H 6.7393 4.71016 -1.56072 0
M  V30 65 N 5.9124 1.20967 1.01018 0
M  V30 66 C 6.8624 0.93182 2.08089 0
M  V30 67 C 7.8464 -0.110898 1.60517 0
M  V30 68 O 9.0384 0.0973392 1.76732 0
M  V30 69 C 6.1674 0.492719 3.39746 0
M  V30 70 C 5.2534 1.56922 3.94 0
M  V30 71 N 5.6444 2.79312 4.21686 0
M  V30 72 C 3.9424 1.43688 4.2222 0
M  V30 73 C 4.6434 3.48797 4.65527 0
M  V30 74 N 3.6194 2.76224 4.68189 0
M  V30 75 H 7.4214 1.86175 2.27412 0
M  V30 76 H 4.9354 1.10463 1.19045 0
M  V30 77 H 6.9324 0.275044 4.15992 0
M  V30 78 H 5.5924 -0.430509 3.21833 0
M  V30 79 H 6.6034 3.15903 4.10397 0
M  V30 80 H 3.2804 0.578548 4.13472 0
M  V30 81 H 4.6704 4.53561 4.95714 0
M  V30 82 N 7.3905 -1.2043 1.01659 0
M  V30 83 C 8.6395 -1.89118 0.701237 0
M  V30 84 C 8.9525 -1.79705 -0.772358 0
M  V30 85 O 10.1585 -2.43528 -1.20026 0
M  V30 86 C 8.6145 -3.39168 1.20388 0
M  V30 87 C 8.2225 -3.57166 2.70438 0
M  V30 88 C 9.9665 -4.1341 0.963953 0
M  V30 89 C 7.8735 -5.01042 3.14183 0
M  V30 90 H 6.8035 -0.708267 0.2586 0
M  V30 91 H 9.4545 -1.36239 1.22927 0
M  V30 92 H 7.8365 -3.91369 0.603824 0
M  V30 93 H 9.0105 -3.15351 3.35992 0
M  V30 94 H 7.3255 -2.96294 2.92572 0
M  V30 95 H 9.9225 -5.19491 1.26621 0
M  V30 96 H 10.2655 -4.16181 -0.099578 0
M  V30 97 H 10.7985 -3.67309 1.52738 0
M  V30 98 H 7.5375 -5.03426 4.19812 0
M  V30 99 H 7.0575 -5.43668 2.53348 0
M  V30 100 H 8.7365 -5.69623 3.0682 0
M  V30 101 N 8.8686 -0.792821 -1.36206 0
M  V30 102 C 10.1086 -0.372238 -2.00982 0
M  V30 103 C 10.4726 1.03749 -1.61555 0
M  V30 104 O 11.6736 1.55934 -2.18948 0
M  V30 105 C 9.9446 -0.534566 -3.5338 0
M  V30 106 S 11.5036 -0.202365 -4.38333 0
M  V30 107 H 8.3216 -0.142044 -0.696667 0
M  V30 108 H 10.9236 -1.03206 -1.66039 0
M  V30 109 H 9.6276 -1.5608 -3.79562 0
M  V30 110 H 9.1586 0.141065 -3.93147 0
M  V30 111 H 11.1736 0.994869 -4.86124 0
M  V30 112 N 10.3467 1.47872 -0.545128 0
M  V30 113 C 11.2937 2.29849 0.2093 0
M  V30 114 C 12.2637 1.38313 0.919707 0
M  V30 115 O 13.4487 1.67277 0.917772 0
M  V30 116 C 10.5887 3.22019 1.24088 0
M  V30 117 C 9.7017 4.2864 0.537778 0
M  V30 118 C 8.8367 5.07973 1.5536 0
M  V30 119 C 7.8757 6.06381 0.8348 0
M  V30 120 N 7.0127 6.78717 1.79688 0
M  V30 121 H 11.8527 2.93845 -0.49591 0
M  V30 122 H 9.3897 1.44848 -0.256389 0
M  V30 123 H 11.3477 3.73868 1.85144 0
M  V30 124 H 9.9777 2.59914 1.91428 0
M  V30 125 H 9.0297 3.7994 -0.187046 0
M  V30 126 H 10.3417 4.98793 -0.0258907 0
M  V30 127 H 9.4957 5.63912 2.23803 0
M  V30 128 H 8.2347 4.37693 2.15118 0
M  V30 129 H 7.2397 5.49631 0.136388 0
M  V30 130 H 8.4647 6.78665 0.24313 0
M  V30 131 H 6.4107 6.11177 2.38326 0
M  V30 132 H 6.3277 7.44998 1.28505 0
M  V30 133 H 7.5957 7.39237 2.47282 0
M  V30 134 N 11.8248 0.280983 1.55075 0
M  V30 135 C 12.7548 -0.597469 2.25727 0
M  V30 136 C 13.7358 -1.15417 1.24952 0
M  V30 137 O 14.9208 -1.18722 1.53684 0
M  V30 138 C 12.0508 -1.7789 2.98283 0
M  V30 139 C 11.0048 -1.35347 4.06036 0
M  V30 140 C 10.3308 -2.61846 4.66198 0
M  V30 141 C 11.6308 -0.499354 5.19907 0
M  V30 142 H 13.3248 -0.00824265 2.99399 0
M  V30 143 H 10.8708 -0.0025244 1.44 0
M  V30 144 H 12.8238 -2.39937 3.46422 0
M  V30 145 H 11.5478 -2.39405 2.22155 0
M  V30 146 H 10.2068 -0.756156 3.58717 0
M  V30 147 H 9.8548 -3.21632 3.86732 0
M  V30 148 H 9.5548 -2.3409 5.38958 0
M  V30 149 H 11.0788 -3.24732 5.1709 0
M  V30 150 H 12.4928 -1.02498 5.64063 0
M  V30 151 H 10.8898 -0.316424 5.99265 0
M  V30 152 H 11.9598 0.480459 4.82514 0
M  V30 153 N 13.3029 -1.57598 0.00835791 0
M  V30 154 C 14.7139 -1.7892 -0.53333 0
M  V30 155 C 15.0649 -0.916609 -1.73473 0
M  V30 156 O 14.1899 -0.121336 -2.1606 0
M  V30 157 C 14.7849 -3.24488 -0.974313 0
M  V30 158 C 13.3439 -3.46878 -1.46125 0
M  V30 159 C 12.4909 -2.74157 -0.416302 0
M  V30 160 H 15.4419 -1.56958 0.234495 0
M  V30 161 H 15.4629 -3.3306 -1.83988 0
M  V30 162 H 14.9749 -3.87972 -0.099718 0
M  V30 163 H 13.0759 -2.8862 -2.35646 0
M  V30 164 H 13.1889 -4.55572 -1.48295 0
M  V30 165 H 11.5529 -2.39022 -0.87981 0
M  V30 166 H 12.3359 -3.40345 0.44947 0
M  V30 167 N 14.781 0.264519 -1.55364 0
M  V30 168 C 16.029 0.993021 -1.76021 0
M  V30 169 C 16.35 1.86511 -0.569099 0
M  V30 170 O 15.62 1.91438 0.415735 0
M  V30 171 H 14.2 0.369639 -0.649135 0
M  V30 172 H 16.862 0.286707 -1.9278 0
M  V30 173 H 15.958 1.62502 -2.66457 0
M  V30 174 N 16.2591 1.48442 0.529413 0
M  V30 175 C 17.6751 1.34575 0.858004 0
M  V30 176 C 17.8751 0.3572 1.98309 0
M  V30 177 O 16.9311 -0.221379 2.51528 0
M  V30 178 C 18.2441 2.74617 1.22499 0
M  V30 179 C 19.7921 2.83109 1.33484 0
M  V30 180 C 20.2671 4.23854 1.73526 0
M  V30 181 N 21.7581 4.2653 1.80628 0
M  V30 182 C 22.4931 5.32372 2.12997 0
M  V30 183 N 21.9891 6.48491 2.43786 0
M  V30 184 N 23.7821 5.19766 2.14008 0
M  V30 185 H 15.9331 2.1133 -0.212925 0
M  V30 186 H 18.1961 0.947439 -0.0326199 0
M  V30 187 H 17.9021 3.4852 0.471905 0
M  V30 188 H 17.7761 3.08177 2.17501 0
M  V30 189 H 20.1631 2.09462 2.0787 0
M  V30 190 H 20.2441 2.53168 0.366027 0
M  V30 191 H 19.8881 4.98018 0.997013 0
M  V30 192 H 19.8181 4.5124 2.71459 0
M  V30 193 H 22.3091 3.42772 1.59108 0
M  V30 194 H 22.6221 7.24993 2.67592 0
M  V30 195 H 20.9671 6.51765 2.41304 0
M  V30 196 H 24.1581 4.28066 1.89412 0
M  V30 197 H 24.3311 6.02354 2.38902 0
M  V30 198 N 17.7372 -0.778329 1.37039 0
M  V30 199 C 18.9832 -1.53892 1.32079 0
M  V30 200 C 19.3162 -1.9396 -0.0965386 0
M  V30 201 O 18.5912 -1.63568 -1.05242 0
M  V30 202 C 18.8742 -2.80847 2.25382 0
M  V30 203 C 18.7272 -2.47076 3.75864 0
M  V30 204 C 20.0462 -3.82741 2.1725 0
M  V30 205 H 17.1652 -0.558303 0.48111 0
M  V30 206 H 19.8072 -0.893397 1.67685 0
M  V30 207 H 17.9572 -3.35931 1.95148 0
M  V30 208 H 19.6292 -1.97957 4.16666 0
M  V30 209 H 17.8722 -1.79863 3.94755 0
M  V30 210 H 18.5432 -3.37798 4.36574 0
M  V30 211 H 21.0192 -3.37133 2.43887 0
M  V30 212 H 19.8952 -4.69303 2.84686 0
M  V30 213 H 20.1562 -4.2652 1.16331 0
M  V30 214 N 19.2153 -1.21501 -1.00376 0
M  V30 215 C 20.1483 -0.918669 -2.08892 0
M  V30 216 C 21.1263 0.134277 -1.62045 0
M  V30 217 O 22.3103 0.00504255 -1.88499 0
M  V30 218 C 19.4373 -0.379645 -3.36566 0
M  V30 219 C 18.4833 -1.41559 -4.02323 0
M  V30 220 S 19.3163 -2.98521 -4.44574 0
M  V30 221 C 20.4723 -2.46228 -5.75433 0
M  V30 222 H 20.7053 -1.83761 -2.33707 0
M  V30 223 H 18.2383 -1.04489 -1.13673 0
M  V30 224 H 20.1963 -0.0752195 -4.10431 0
M  V30 225 H 18.8573 0.518008 -3.09799 0
M  V30 226 H 18.0503 -0.988076 -4.9422 0
M  V30 227 H 17.6523 -1.66815 -3.34737 0
M  V30 228 H 19.9443 -1.86791 -6.51241 0
M  V30 229 H 20.8873 -3.36572 -6.22997 0
M  V30 230 H 21.2953 -1.87894 -5.32312 0
M  V30 231 N 20.6934 1.19889 -1.02296 0
M  V30 232 C 21.9414 1.89046 -0.714558 0
M  V30 233 C 22.2624 1.79636 0.758681 0
M  V30 234 O 21.5324 1.20292 1.54618 0
M  V30 235 H 20.1124 0.699802 -0.261317 0
M  V30 236 H 22.7744 1.45574 -1.29592 0
M  V30 237 H 21.8704 2.95524 -1.0036 0
M  V30 238 N 22.1715 0.800033 1.35784 0
M  V30 239 C 23.4205 0.37387 1.98205 0
M  V30 240 C 23.7335 -1.06302 1.64193 0
M  V30 241 O 24.9395 -1.59198 2.19928 0
M  V30 242 C 23.3955 0.617532 3.54562 0
M  V30 243 C 23.0035 2.06654 3.9749 0
M  V30 244 C 24.7475 0.256401 4.23725 0
M  V30 245 C 22.6545 2.2563 5.46667 0
M  V30 246 H 21.5845 0.136055 0.741623 0
M  V30 247 H 24.2355 0.983166 1.54939 0
M  V30 248 H 22.6175 -0.0616248 3.95952 0
M  V30 249 H 23.7915 2.78296 3.67271 0
M  V30 250 H 22.1065 2.38691 3.41197 0
M  V30 251 H 24.7035 0.376318 5.33374 0
M  V30 252 H 25.0465 -0.796692 4.08606 0
M  V30 253 H 25.5795 0.889214 3.87734 0
M  V30 254 H 22.3185 3.2936 5.66747 0
M  V30 255 H 21.8385 1.58504 5.78478 0
M  V30 256 H 23.5175 2.06861 6.1304 0
M  V30 257 N 23.6496 -1.47581 0.552962 0
M  V30 258 C 25.0656 -1.5818 0.212424 0
M  V30 259 C 25.2656 -1.55213 -1.28496 0
M  V30 260 O 24.3216 -1.45329 -2.06484 0
M  V30 261 C 25.6346 -2.88865 0.835318 0
M  V30 262 C 27.1826 -3.0244 0.806156 0
M  V30 263 C 27.6576 -4.35819 1.40804 0
M  V30 264 N 29.1486 -4.42444 1.37103 0
M  V30 265 C 29.8836 -5.44202 1.80641 0
M  V30 266 N 29.3796 -6.52795 2.32015 0
M  V30 267 N 31.1726 -5.35222 1.71738 0
M  V30 268 H 23.3236 -1.47753 1.52587 0
M  V30 269 H 25.5866 -0.702941 0.636064 0
M  V30 270 H 25.2926 -2.9676 1.88749 0
M  V30 271 H 25.1666 -3.7579 0.325848 0
M  V30 272 H 27.5536 -2.94144 -0.237317 0
M  V30 273 H 27.6346 -2.17068 1.35334 0
M  V30 274 H 27.2786 -4.44871 2.45056 0
M  V30 275 H 27.2086 -5.19916 0.836338 0
M  V30 276 H 29.6996 -3.6456 0.995202 0
M  V30 277 H 30.0126 -7.26609 2.63171 0
M  V30 278 H 28.3576 -6.53696 2.36023 0
M  V30 279 H 31.5486 -4.49284 1.31382 0
M  V30 280 H 31.7216 -6.14389 2.05987 0
M  V30 281 N 25.1277 -0.289203 -1.54924 0
M  V30 282 C 26.3737 0.323998 -2.00195 0
M  V30 283 C 26.7067 1.54441 -1.17735 0
M  V30 284 O 25.9817 1.92875 -0.250878 0
M  V30 285 C 26.2647 0.692276 -3.53383 0
M  V30 286 C 26.1177 -0.536457 -4.46589 0
M  V30 287 C 27.4367 1.52335 -4.12895 0
M  V30 288 H 24.5557 0.116289 -0.727768 0
M  V30 289 H 27.1977 -0.398954 -1.85764 0
M  V30 290 H 25.3477 1.30822 -3.65811 0
M  V30 291 H 27.0197 -1.17499 -4.46085 0
M  V30 292 H 25.2627 -1.17192 -4.1767 0
M  V30 293 H 25.9337 -0.234806 -5.515 0
M  V30 294 H 28.4097 1.00302 -4.0383 0
M  V30 295 H 27.2857 1.74982 -5.20262 0
M  V30 296 H 27.5467 2.50886 -3.64018 0
M  V30 297 N 26.6058 1.57591 -0.0167156 0
M  V30 298 C 27.5358 2.12496 0.967858 0
M  V30 299 C 28.5168 1.03807 1.34752 0
M  V30 300 O 29.7018 1.31577 1.42833 0
M  V30 301 C 26.8318 2.64194 2.25431 0
M  V30 302 C 25.7858 3.77559 2.01576 0
M  V30 303 C 25.1118 4.15636 3.36379 0
M  V30 304 C 26.4118 5.04151 1.36489 0
M  V30 305 H 28.1058 2.95013 0.510643 0
M  V30 306 H 25.6518 1.41915 0.244181 0
M  V30 307 H 27.6048 3.01236 2.94678 0
M  V30 308 H 26.3288 1.78821 2.73296 0
M  V30 309 H 24.9878 3.40937 1.34751 0
M  V30 310 H 24.6358 3.27263 3.81979 0
M  V30 311 H 24.3358 4.92022 3.21229 0
M  V30 312 H 25.8598 4.5525 4.06915 0
M  V30 313 H 27.2738 5.38857 1.95718 0
M  V30 314 H 25.6708 5.85453 1.31776 0
M  V30 315 H 26.7408 4.83733 0.336219 0
M  V30 316 N 28.0839 -0.256276 1.55502 0
M  V30 317 C 29.4999 -0.604325 1.47716 0
M  V30 318 C 29.6999 -1.88763 0.705039 0
M  V30 319 O 28.7559 -2.51445 0.230613 0
M  V30 320 C 30.0689 -0.715756 2.92057 0
M  V30 321 C 31.6169 -0.808706 3.02372 0
M  V30 322 C 32.0919 -0.951777 4.48001 0
M  V30 323 N 33.5829 -1.01688 4.519 0
M  V30 324 C 34.3179 -1.14668 5.61817 0
M  V30 325 N 33.8139 -1.24261 6.81565 0
M  V30 326 N 35.6069 -1.1791 5.49594 0
M  V30 327 H 27.7579 0.586291 2.04148 0
M  V30 328 H 30.0209 0.201015 0.926443 0
M  V30 329 H 29.7269 0.157027 3.51349 0
M  V30 330 H 29.6009 -1.59071 3.42018 0
M  V30 331 H 31.9879 -1.67195 2.43166 0
M  V30 332 H 32.0689 0.0912063 2.55637 0
M  V30 333 H 31.7129 -0.0931291 5.07815 0
M  V30 334 H 31.6429 -1.86659 4.92408 0
M  V30 335 H 34.1339 -0.954468 3.65648 0
M  V30 336 H 34.4469 -1.34046 7.61086 0
M  V30 337 H 32.7919 -1.21236 6.84344 0
M  V30 338 H 35.9829 -1.10057 4.54978 0
M  V30 339 H 36.1559 -1.27681 6.35296 0
M  V30 340 N 29.562 -1.4872 -0.521534 0
M  V30 341 C 30.492 -1.66771 -1.63431 0
M  V30 342 C 31.473 -0.516499 -1.62069 0
M  V30 343 O 32.658 -0.750013 -1.79132 0
M  V30 344 C 29.788 -1.71515 -3.01993 0
M  V30 345 C 28.742 -2.86222 -3.18216 0
M  V30 346 C 28.068 -2.76061 -4.57924 0
M  V30 347 C 29.368 -4.27419 -3.00184 0
M  V30 348 H 31.062 -2.59932 -1.48579 0
M  V30 349 H 28.608 -1.25089 -0.713358 0
M  V30 350 H 30.561 -1.82731 -3.7972 0
M  V30 351 H 29.285 -0.749393 -3.17886 0
M  V30 352 H 27.944 -2.74575 -2.42908 0
M  V30 353 H 27.592 -1.77437 -4.70665 0
M  V30 354 H 27.292 -3.53037 -4.69722 0
M  V30 355 H 28.816 -2.89256 -5.37739 0
M  V30 356 H 30.23 -4.39855 -3.67697 0
M  V30 357 H 28.627 -5.05458 -3.2347 0
M  V30 358 H 29.697 -4.43293 -1.96518 0
M  V30 359 N 31.0401 0.771051 -1.3745 0
M  V30 360 C 32.2651 1.56529 -1.36065 0
M  V30 361 C 32.6901 1.88029 0.0515859 0
M  V30 362 O 32.0481 1.49282 1.02882 0
M  V30 363 C 32.0961 2.85187 -2.20683 0
M  V30 364 O 31.2001 3.79593 -1.61193 0
M  V30 365 H 30.5411 0.47411 -0.464883 0
M  V30 366 H 33.0711 0.954269 -1.80983 0
M  V30 367 H 33.0811 3.34283 -2.33921 0
M  V30 368 H 31.7561 2.61588 -3.23334 0
M  V30 369 H 30.3331 3.38239 -1.56999 0
M  V30 370 N 32.5182 1.22032 0.997298 0
M  V30 371 C 33.4482 1.01065 2.10495 0
M  V30 372 C 34.4292 -0.0669542 1.69968 0
M  V30 373 O 35.6142 0.0943987 1.9397 0
M  V30 374 C 32.7442 0.582874 3.42374 0
M  V30 375 C 31.6982 1.60592 3.96729 0
M  V30 376 C 31.0242 1.03412 5.24605 0
M  V30 377 C 32.3242 2.99478 4.27914 0
M  V30 378 H 34.0182 1.93708 2.28292 0
M  V30 379 H 31.5642 0.932761 1.09707 0
M  V30 380 H 33.5172 0.423332 4.19268 0
M  V30 381 H 32.2412 -0.379213 3.24391 0
M  V30 382 H 30.9002 1.75316 3.21963 0
M  V30 383 H 30.5482 0.063518 5.0296 0
M  V30 384 H 30.2482 1.71754 5.61938 0
M  V30 385 H 31.7722 0.886066 6.04137 0
M  V30 386 H 33.1862 2.88153 4.95622 0
M  V30 387 H 31.5832 3.64903 4.76409 0
M  V30 388 H 32.6532 3.49742 3.3587 0
M  V30 389 N 33.9963 -1.19345 1.0293 0
M  V30 390 C 35.2423 -1.89318 0.727083 0
M  V30 391 C 35.5753 -1.79446 -0.742483 0
M  V30 392 O 34.8503 -1.1871 -1.54072 0
M  V30 393 C 35.1333 -3.40238 1.17942 0
M  V30 394 C 34.9863 -3.58979 2.71024 0
M  V30 395 C 36.3053 -4.33479 0.760548 0
M  V30 396 H 33.4243 -0.687475 0.265606 0
M  V30 397 H 36.0663 -1.40477 1.2793 0
M  V30 398 H 34.2163 -3.81964 0.709608 0
M  V30 399 H 35.8883 -3.26421 3.25955 0
M  V30 400 H 34.1313 -3.02018 3.11396 0
M  V30 401 H 34.8023 -4.64823 2.9773 0
M  V30 402 H 37.2783 -3.99469 1.16464 0
M  V30 403 H 36.1543 -5.37664 1.10493 0
M  V30 404 H 36.4153 -4.40813 -0.337063 0
M  V30 405 N 35.4744 -0.807222 -1.35358 0
M  V30 406 C 36.7204 -0.388463 -1.99045 0
M  V30 407 C 37.0534 1.04184 -1.63888 0
M  V30 408 O 36.3284 1.72292 -0.902535 0
M  V30 409 C 36.6114 -0.572783 -3.55515 0
M  V30 410 C 36.4644 -2.04807 -4.00468 0
M  V30 411 C 37.7834 0.00114064 -4.401 0
M  V30 412 H 34.9024 -0.142619 -0.723069 0
M  V30 413 H 37.5444 -1.01687 -1.60498 0
M  V30 414 H 35.6944 -0.0378425 -3.88482 0
M  V30 415 H 37.3664 -2.64544 -3.77908 0
M  V30 416 H 35.6094 -2.54427 -3.51353 0
M  V30 417 H 36.2804 -2.12792 -5.09337 0
M  V30 418 H 38.7564 -0.455716 -4.13597 0
M  V30 419 H 37.6324 -0.157737 -5.48673 0
M  V30 420 H 37.8934 1.09488 -4.28328 0
M  V30 421 N 36.9525 1.47285 -0.560781 0
M  V30 422 C 38.2015 2.01668 -0.035895 0
M  V30 423 C 38.5145 1.44021 1.32353 0
M  V30 424 O 39.7205 1.90088 1.93853 0
M  V30 425 C 38.1765 3.59897 -0.0136659 0
M  V30 426 C 37.7845 4.26536 -1.37006 0
M  V30 427 C 39.5285 4.22017 0.458425 0
M  V30 428 C 37.4355 5.76782 -1.30675 0
M  V30 429 H 36.3655 0.753938 -0.00964879 0
M  V30 430 H 39.0165 1.69243 -0.709166 0
M  V30 431 H 37.3985 3.89301 0.725325 0
M  V30 432 H 38.5725 4.0877 -2.12705 0
M  V30 433 H 36.8875 3.76419 -1.78038 0
M  V30 434 H 39.4845 5.32124 0.524247 0
M  V30 435 H 39.8275 3.89437 1.4712 0
M  V30 436 H 40.3605 3.97159 -0.225818 0
M  V30 437 H 37.0995 6.13988 -2.29564 0
M  V30 438 H 36.6195 5.96875 -0.591622 0
M  V30 439 H 38.2985 6.39063 -1.01033 0
M  V30 440 N 38.4306 0.297415 1.54768 0
M  V30 441 C 39.3606 -0.573494 2.26348 0
M  V30 442 C 40.3416 -1.14085 1.26169 0
M  V30 443 O 41.5266 -1.17086 1.54934 0
M  V30 444 C 38.6566 -1.74716 3.00153 0
M  V30 445 C 37.6106 -1.31032 4.07449 0
M  V30 446 C 36.9366 -2.56887 4.68949 0
M  V30 447 C 38.2366 -0.444183 5.20408 0
M  V30 448 H 39.9306 0.0235131 2.99391 0
M  V30 449 H 37.4766 0.0127488 1.43994 0
M  V30 450 H 39.4296 -2.3625 3.48947 0
M  V30 451 H 38.1536 -2.37035 2.24682 0
M  V30 452 H 36.8126 -0.718066 3.59499 0
M  V30 453 H 36.4606 -3.17512 3.90122 0
M  V30 454 H 36.1606 -2.2836 5.41411 0
M  V30 455 H 37.6846 -3.19229 5.20505 0
M  V30 456 H 39.0986 -0.9651 5.65118 0
M  V30 457 H 37.4956 -0.252846 5.99567 0
M  V30 458 H 38.5656 0.531609 4.81977 0
M  V30 459 N 39.9087 -1.5758 0.0250728 0
M  V30 460 C 41.1547 -1.91917 -0.655413 0
M  V30 461 C 41.4877 -0.901433 -1.72011 0
M  V30 462 O 40.7627 0.0764069 -1.9435 0
M  V30 463 C 41.0457 -3.36751 -1.27558 0
M  V30 464 C 40.8987 -4.49258 -0.220719 0
M  V30 465 C 42.2177 -3.81469 -2.19475 0
M  V30 466 H 39.3367 -0.697925 -0.23679 0
M  V30 467 H 41.9787 -1.89825 0.0815036 0
M  V30 468 H 40.1287 -3.38664 -1.90365 0
M  V30 469 H 41.8007 -4.59478 0.409601 0
M  V30 470 H 40.0437 -4.31415 0.454264 0
M  V30 471 H 40.7147 -5.47618 -0.694175 0
M  V30 472 H 43.1907 -3.81266 -1.66659 0
M  V30 473 H 42.0667 -4.83512 -2.59822 0
M  V30 474 H 42.3277 -3.16744 -3.08424 0
M  V30 475 N 41.3868 0.248026 -1.55636 0
M  V30 476 C 42.3168 1.31079 -1.93237 0
M  V30 477 C 43.2978 1.50264 -0.797174 0
M  V30 478 O 44.4828 1.62891 -1.05737 0
M  V30 479 C 41.6128 2.66575 -2.22609 0
M  V30 480 C 40.5668 2.62087 -3.3837 0
M  V30 481 C 39.8928 4.01369 -3.53281 0
M  V30 482 C 41.1928 2.19171 -4.7409 0
M  V30 483 H 42.8868 0.998556 -2.82257 0
M  V30 484 H 40.4328 0.47891 -1.35803 0
M  V30 485 H 42.3858 3.41057 -2.47503 0
M  V30 486 H 41.1098 2.99432 -1.30414 0
M  V30 487 H 39.7688 1.90063 -3.13483 0
M  V30 488 H 39.4168 4.31489 -2.58508 0
M  V30 489 H 39.1168 3.99254 -4.31127 0
M  V30 490 H 40.6408 4.77552 -3.80495 0
M  V30 491 H 42.0548 2.83384 -4.98363 0
M  V30 492 H 40.4518 2.2817 -5.5503 0
M  V30 493 H 41.5218 1.14336 -4.71227 0
M  V30 494 N 42.8649 1.48995 0.513639 0
M  V30 495 C 43.7949 1.67636 1.62544 0
M  V30 496 C 44.7759 0.525087 1.61793 0
M  V30 497 O 45.9609 0.759502 1.78732 0
M  V30 498 C 43.0909 1.73114 3.01079 0
M  V30 499 C 42.0449 2.87905 3.16693 0
M  V30 500 C 41.3709 2.78486 4.56453 0
M  V30 501 C 42.6709 4.29005 2.97913 0
M  V30 502 H 44.3649 2.60716 1.47198 0
M  V30 503 H 41.9109 1.25465 0.706714 0
M  V30 504 H 43.8639 1.84742 3.78746 0
M  V30 505 H 42.5879 0.766241 3.17484 0
M  V30 506 H 41.2469 2.75859 2.41448 0
M  V30 507 H 40.8949 1.7993 4.69717 0
M  V30 508 H 40.5949 3.55523 4.67843 0
M  V30 509 H 42.1189 2.92104 5.36197 0
M  V30 510 H 43.5329 4.41798 3.65359 0
M  V30 511 H 41.9299 5.07166 3.20785 0
M  V30 512 H 42.9999 4.44329 1.94165 0
M  V30 513 N 44.343 -0.763751 1.37857 0
M  V30 514 C 45.273 -1.89103 1.36975 0
M  V30 515 C 46.254 -1.68439 0.237152 0
M  V30 516 O 47.439 -1.8918 0.438713 0
M  V30 517 C 44.569 -3.26496 1.18395 0
M  V30 518 C 43.523 -3.61741 2.28751 0
M  V30 519 C 42.849 -4.97762 1.95286 0
M  V30 520 C 44.149 -3.67665 3.70972 0
M  V30 521 H 45.843 -1.90099 2.31307 0
M  V30 522 H 43.389 -0.91319 1.11341 0
M  V30 523 H 45.342 -4.05003 1.16406 0
M  V30 524 H 44.066 -3.25955 0.205215 0
M  V30 525 H 42.725 -2.85547 2.29909 0
M  V30 526 H 42.373 -4.93769 0.959221 0
M  V30 527 H 42.073 -5.22313 2.69189 0
M  V30 528 H 43.597 -5.7866 1.94898 0
M  V30 529 H 45.011 -4.36307 3.719 0
M  V30 530 H 43.408 -4.03718 4.43995 0
M  V30 531 H 44.478 -2.68134 4.0402 0
M  V30 532 N 45.8211 -1.22559 -0.990812 0
M  V30 533 C 47.0671 -1.05297 -1.73322 0
M  V30 534 C 47.4001 0.410655 -1.89808 0
M  V30 535 O 46.6751 1.30439 -1.44277 0
M  V30 536 C 46.9581 -1.76713 -3.13759 0
M  V30 537 C 46.8111 -3.30684 -3.04907 0
M  V30 538 C 48.1301 -1.52121 -4.12974 0
M  V30 539 H 45.2491 -0.38392 -0.629106 0
M  V30 540 H 47.8911 -1.50926 -1.15418 0
M  V30 541 H 46.0411 -1.37924 -3.63193 0
M  V30 542 H 47.7131 -3.7893 -2.63077 0
M  V30 543 H 45.9561 -3.60253 -2.41661 0
M  V30 544 H 46.6271 -3.75833 -4.04294 0
M  V30 545 H 49.1031 -1.85819 -3.72304 0
M  V30 546 H 47.9791 -2.04582 -5.0935 0
M  V30 547 H 48.2401 -0.454257 -4.3976 0
M  V30 548 N 47.2992 1.18797 -1.03562 0
M  V30 549 C 48.2622 2.20464 -0.626769 0
M  V30 550 C 49.2622 1.57721 0.313173 0
M  V30 551 O 50.4522 1.73917 0.0992615 0
M  V30 552 C 47.5842 3.40802 0.0818498 0
M  V30 553 H 48.7772 2.58149 -1.5264 0
M  V30 554 H 46.3302 1.32593 -0.827578 0
M  V30 555 H 47.0652 3.08642 0.995518 0
M  V30 556 H 46.8502 3.8758 -0.593652 0
M  V30 557 H 48.3402 4.16092 0.354584 0
M  V30 558 N 48.7773 0.814389 1.34928 0
M  V30 559 C 50.0253 0.397636 1.9815 0
M  V30 560 C 50.3463 -1.04069 1.64908 0
M  V30 561 O 49.6163 -1.72121 0.93548 0
M  V30 562 H 48.1963 0.144043 0.732981 0
M  V30 563 H 50.8583 1.04195 1.6471 0
M  V30 564 H 49.9543 0.509688 3.0791 0
M  V30 565 N 50.2554 -1.46986 0.568584 0
M  V30 566 C 51.2184 -2.28624 -0.162366 0
M  V30 567 C 52.2184 -1.37596 -0.832103 0
M  V30 568 O 53.4084 -1.60115 -0.68622 0
M  V30 569 C 50.5404 -3.17596 -1.23878 0
M  V30 570 H 51.7334 -2.94722 0.554899 0
M  V30 571 H 49.2864 -1.52863 0.325976 0
M  V30 572 H 50.0214 -2.56214 -1.98808 0
M  V30 573 H 49.8064 -3.846 -0.763219 0
M  V30 574 H 51.2964 -3.79078 -1.75185 0
M  V30 575 N 51.7335 -0.305618 -1.54608 0
M  V30 576 C 52.6635 0.561482 -2.26649 0
M  V30 577 C 53.6445 1.13415 -1.26772 0
M  V30 578 O 54.8295 1.16262 -1.55553 0
M  V30 579 C 51.9595 1.73122 -3.01075 0
M  V30 580 C 50.9135 1.2887 -4.08138 0
M  V30 581 C 50.2395 2.54396 -4.70305 0
M  V30 582 C 51.5395 0.416578 -5.20636 0
M  V30 583 H 53.2335 -0.0393902 -2.99374 0
M  V30 584 H 50.7795 -0.020385 -1.43986 0
M  V30 585 H 52.7325 2.34396 -3.50195 0
M  V30 586 H 51.4565 2.3584 -2.25936 0
M  V30 587 H 50.1155 0.698991 -3.59875 0
M  V30 588 H 49.7635 3.15439 -3.918 0
M  V30 589 H 49.4635 2.25486 -5.42614 0
M  V30 590 H 50.9875 3.16464 -5.2219 0
M  V30 591 H 52.4015 0.935116 -5.65622 0
M  V30 592 H 50.7985 0.221046 -5.99693 0
M  V30 593 H 51.8685 -0.557162 -4.81688 0
M  V30 594 N 53.2116 1.57565 -0.0334293 0
M  V30 595 C 54.4396 1.9628 0.654347 0
M  V30 596 C 54.8546 0.910138 1.65414 0
M  V30 597 O 54.2116 -0.107595 1.82183 0
M  V30 598 C 54.2626 3.35067 1.35693 0
M  V30 599 O 53.9836 4.36296 0.397191 0
M  V30 600 C 55.4846 3.88439 2.13613 0
M  V30 601 H 52.7046 0.646369 0.180132 0
M  V30 602 H 55.2486 2.04282 -0.0944721 0
M  V30 603 H 53.4036 3.2827 2.05712 0
M  V30 604 H 53.8176 5.1678 0.896597 0
M  V30 605 H 55.2916 4.8788 2.58219 0
M  V30 606 H 55.7686 3.22914 2.97696 0
M  V30 607 H 56.3746 3.98516 1.48543 0
M  V30 608 N 54.6897 -0.239769 1.55765 0
M  V30 609 C 55.6527 -1.28038 1.90103 0
M  V30 610 C 56.6527 -1.40723 0.778055 0
M  V30 611 O 57.8427 -1.39301 1.04599 0
M  V30 612 C 54.9747 -2.65702 2.13577 0
M  V30 613 H 56.1677 -0.988048 2.83157 0
M  V30 614 H 53.7207 -0.479382 1.48767 0
M  V30 615 H 54.4557 -3.00063 1.23015 0
M  V30 616 H 54.2407 -2.57875 2.95369 0
M  V30 617 H 55.7307 -3.40828 2.41301 0
M  V30 618 N 56.1678 -1.49265 -0.50573 0
M  V30 619 C 57.0978 -1.68495 -1.61653 0
M  V30 620 C 58.0788 -0.53366 -1.61512 0
M  V30 621 O 59.2638 -0.76897 -1.78327 0
M  V30 622 C 56.3938 -1.74709 -3.00157 0
M  V30 623 C 55.3478 -2.89581 -3.15162 0
M  V30 624 C 54.6738 -2.80903 -4.5497 0
M  V30 625 C 55.9738 -4.30578 -2.95634 0
M  V30 626 H 57.6678 -2.61493 -1.45814 0
M  V30 627 H 55.2138 -1.25838 -0.70005 0
M  V30 628 H 57.1668 -1.86748 -3.77761 0
M  V30 629 H 55.8908 -0.783067 -3.17074 0
M  V30 630 H 54.5498 -2.77136 -2.39982 0
M  V30 631 H 54.1978 -1.82419 -4.68756 0
M  V30 632 H 53.8978 -3.57999 -4.65951 0
M  V30 633 H 55.4218 -2.94944 -5.34641 0
M  V30 634 H 56.8358 -4.4373 -3.63011 0
M  V30 635 H 55.2328 -5.0886 -3.18091 0
M  V30 636 H 56.3028 -4.45352 -1.91806 0
M  V30 637 N 57.6459 0.756429 -1.3826 0
M  V30 638 C 58.5759 1.88374 -1.37976 0
M  V30 639 C 59.5569 1.68311 -0.246082 0
M  V30 640 O 60.7419 1.88944 -0.44874 0
M  V30 641 C 57.8719 3.25864 -1.20125 0
M  V30 642 C 56.8259 3.60523 -2.30666 0
M  V30 643 C 56.1519 4.9672 -1.97923 0
M  V30 644 C 57.4519 3.65692 -3.72916 0
M  V30 645 H 59.1459 1.88869 -2.32312 0
M  V30 646 H 56.6919 0.907272 -1.11824 0
M  V30 647 H 58.6449 4.0438 -1.18552 0
M  V30 648 H 57.3689 3.25841 -0.222498 0
M  V30 649 H 56.0279 2.84324 -2.3142 0
M  V30 650 H 55.6759 4.93253 -0.985393 0
M  V30 651 H 55.3759 5.20878 -2.71955 0
M  V30 652 H 56.8999 5.77618 -1.97964 0
M  V30 653 H 58.3139 4.34328 -3.74208 0
M  V30 654 H 56.7109 4.01358 -4.4613 0
M  V30 655 H 57.7809 2.65987 -4.05436 0
M  V30 656 N 59.124 1.23083 0.984299 0
M  V30 657 C 60.535 1.05609 1.5396 0
M  V30 658 C 60.886 -0.377793 1.92528 0
M  V30 659 O 60.011 -1.26398 1.75649 0
M  V30 660 C 60.606 1.91087 2.7977 0
M  V30 661 C 59.165 1.77885 3.31713 0
M  V30 662 C 58.312 1.87028 2.04733 0
M  V30 663 H 61.263 1.36802 0.804419 0
M  V30 664 H 61.284 1.43336 3.5247 0
M  V30 665 H 60.796 2.9544 2.51668 0
M  V30 666 H 58.897 0.762995 3.64704 0
M  V30 667 H 59.01 2.61047 4.01735 0
M  V30 668 H 57.374 1.30565 2.18689 0
M  V30 669 H 58.157 2.92929 1.79017 0
M  V30 670 N 60.6021 -1.18246 1.0419 0
M  V30 671 C 61.8271 -1.92736 0.765996 0
M  V30 672 C 62.2521 -1.75728 -0.67091 0
M  V30 673 O 61.6101 -1.06825 -1.46486 0
M  V30 674 C 61.6581 -3.42148 1.13875 0
M  V30 675 O 60.7621 -4.11548 0.264954 0
M  V30 676 H 60.1031 -0.601238 0.281797 0
M  V30 677 H 62.6331 -1.49942 1.39207 0
M  V30 678 H 62.6431 -3.92858 1.1012 0
M  V30 679 H 61.3181 -3.53848 2.18551 0
M  V30 680 H 59.8951 -3.71137 0.362226 0
M  V30 681 N 62.0802 -0.821533 -1.34494 0
M  V30 682 C 63.3262 -0.409552 -1.98622 0
M  V30 683 C 63.6592 1.0244 -1.64984 0
M  V30 684 O 62.9342 1.71325 -0.920758 0
M  V30 685 C 63.2172 -0.610458 -3.54888 0
M  V30 686 C 63.0702 -2.09043 -3.98273 0
M  V30 687 C 64.3892 -0.0455379 -4.40076 0
M  V30 688 H 61.5082 -0.15028 -0.721516 0
M  V30 689 H 64.1502 -1.03384 -1.59411 0
M  V30 690 H 62.3002 -0.079044 -3.8842 0
M  V30 691 H 63.9722 -2.68537 -3.75081 0
M  V30 692 H 62.2152 -2.58139 -3.48635 0
M  V30 693 H 62.8862 -2.18182 -5.07051 0
M  V30 694 H 65.3622 -0.499557 -4.1309 0
M  V30 695 H 64.2382 -0.215922 -5.48475 0
M  V30 696 H 64.4992 1.04939 -4.29465 0
M  V30 697 N 63.5583 1.46682 -0.576371 0
M  V30 698 C 64.5053 2.30241 0.160499 0
M  V30 699 C 65.4753 1.40233 0.890162 0
M  V30 700 O 66.6603 1.69186 0.882084 0
M  V30 701 C 63.8003 3.24578 1.1723 0
M  V30 702 C 62.9133 4.29684 0.446736 0
M  V30 703 C 62.0483 5.11154 1.44551 0
M  V30 704 C 61.0873 6.08015 0.70599 0
M  V30 705 N 60.2243 6.82376 1.65251 0
M  V30 706 H 65.0643 2.92727 -0.558127 0
M  V30 707 H 62.6013 1.44272 -0.287056 0
M  V30 708 H 64.5593 3.77711 1.77172 0
M  V30 709 H 63.1893 2.63916 1.85872 0
M  V30 710 H 62.2413 3.79458 -0.267594 0
M  V30 711 H 63.5533 4.98626 -0.131686 0
M  V30 712 H 62.7073 5.68533 2.11791 0
M  V30 713 H 61.4463 4.42158 2.05786 0
M  V30 714 H 60.4513 5.49796 0.0197725 0
M  V30 715 H 61.6763 6.79028 0.09912 0
M  V30 716 H 59.6223 6.16094 2.25308 0
M  V30 717 H 59.5393 7.47556 1.12673 0
M  V30 718 H 60.8073 7.44316 2.31546 0
M  V30 719 N 65.0364 0.313813 1.54444 0
M  V30 720 C 65.9464 -0.565714 2.27677 0
M  V30 721 C 66.9624 -1.13754 1.31666 0
M  V30 722 O 68.1384 -1.15959 1.64668 0
M  V30 723 C 65.2034 -1.71528 3.01296 0
M  V30 724 C 64.2644 -1.17624 4.12872 0
M  V30 725 C 63.4974 -2.27102 4.8297 0
M  V30 726 O 63.7204 -3.47256 4.52514 0
M  V30 727 O 62.6544 -1.9307 5.70094 0
M  V30 728 H 66.4804 0.0287296 3.03686 0
M  V30 729 H 64.0654 0.0798312 1.49187 0
M  V30 730 H 65.9474 -2.38476 3.4743 0
M  V30 731 H 64.6224 -2.29608 2.2817 0
M  V30 732 H 63.5294 -0.472124 3.71109 0
M  V30 733 H 64.8624 -0.640695 4.88012 0
M  V30 734 N 66.5145 -1.57545 0.0417849 0
M  V30 735 C 67.7915 -1.83642 -0.673433 0
M  V30 736 C 68.1715 -0.928298 -1.89594 0
M  V30 737 O 67.5195 0.0129955 -2.28496 0
M  V30 738 C 67.7295 -3.33155 -1.03964 0
M  V30 739 C 69.0775 -3.99941 -1.42592 0
M  V30 740 O 70.1015 -3.37725 -1.13226 0
M  V30 741 O 68.9605 -5.09619 -1.9736 0
M  V30 742 H 66.0545 -0.757638 -0.331533 0
M  V30 743 H 68.6005 -1.69554 0.070433 0
M  V30 744 H 67.3725 -3.9093 -0.170098 0
M  V30 745 H 66.9955 -3.52396 -1.84126 0
M  V30 746 N 67.9926 0.231505 -1.5589 0
M  V30 747 C 68.9396 1.28682 -1.91598 0
M  V30 748 C 69.9096 1.47071 -0.771974 0
M  V30 749 O 71.0946 1.60802 -1.027 0
M  V30 750 C 68.2346 2.6342 -2.22944 0
M  V30 751 C 67.3476 2.52912 -3.50228 0
M  V30 752 C 66.4826 3.80106 -3.7107 0
M  V30 753 C 65.5216 3.64279 -4.91902 0
M  V30 754 N 64.6586 4.834 -5.09184 0
M  V30 755 H 69.4986 0.975305 -2.81588 0
M  V30 756 H 67.0356 0.470299 -1.39379 0
M  V30 757 H 68.9936 3.41869 -2.39126 0
M  V30 758 H 67.6236 2.92687 -1.36139 0
M  V30 759 H 66.6756 1.6595 -3.42294 0
M  V30 760 H 67.9876 2.37133 -4.38827 0
M  V30 761 H 67.1416 4.66999 -3.87295 0
M  V30 762 H 65.8806 3.98799 -2.80733 0
M  V30 763 H 64.8856 2.7577 -4.75637 0
M  V30 764 H 66.1106 3.47067 -5.83714 0
M  V30 765 H 64.0566 5.02425 -4.21788 0
M  V30 766 H 63.9736 4.70311 -5.91898 0
M  V30 767 H 65.2416 5.71747 -5.29835 0
M  V30 768 N 69.4707 1.49531 0.497807 0
M  V30 769 C 70.4037 1.61043 1.6168 0
M  V30 770 C 71.3817 0.459386 1.55976 0
M  V30 771 O 72.5657 0.675358 1.75986 0
M  V30 772 C 69.6927 1.56833 3.00202 0
M  V30 773 C 68.7387 2.77173 3.24156 0
M  V30 774 S 69.5717 4.38808 3.06933 0
M  V30 775 C 70.7277 4.37248 4.47845 0
M  V30 776 H 70.9607 2.55702 1.51671 0
M  V30 777 H 68.4937 1.38462 0.683201 0
M  V30 778 H 70.4517 1.55089 3.80076 0
M  V30 779 H 69.1127 0.634561 3.07623 0
M  V30 780 H 68.3057 2.70456 4.25288 0
M  V30 781 H 67.9077 2.76346 2.5201 0
M  V30 782 H 70.1997 4.09164 5.39992 0
M  V30 783 H 71.1427 5.38668 4.59612 0
M  V30 784 H 71.5507 3.67286 4.28674 0
M  V30 785 N 70.9488 -0.749086 1.3866 0
M  V30 786 C 71.8788 -1.8764 1.38973 0
M  V30 787 C 72.8598 -1.68178 0.255004 0
M  V30 788 O 74.0448 -1.88704 0.458754 0
M  V30 789 C 71.1748 -3.25222 1.21851 0
M  V30 790 C 70.1288 -3.59295 2.32575 0
M  V30 791 C 69.4548 -4.95663 2.00555 0
M  V30 792 C 70.7548 -3.63709 3.7485 0
M  V30 793 H 72.4488 -1.87635 2.3331 0
M  V30 794 H 69.9948 -0.901329 1.12303 0
M  V30 795 H 71.9478 -4.03746 1.20695 0
M  V30 796 H 70.6718 -3.25719 0.239775 0
M  V30 797 H 69.3308 -2.83093 2.32925 0
M  V30 798 H 68.9788 -4.92724 1.01154 0
M  V30 799 H 68.6788 -5.19429 2.74714 0
M  V30 800 H 70.2028 -5.7656 2.01024 0
M  V30 801 H 71.6168 -4.32338 3.76506 0
M  V30 802 H 70.0138 -3.98986 4.48252 0
M  V30 803 H 71.0838 -2.63834 4.06841 0
M  V30 804 N 72.4269 -1.23603 -0.977757 0
M  V30 805 C 73.3599 -0.962772 -2.06896 0
M  V30 806 C 74.3379 0.0998743 -1.62293 0
M  V30 807 O 75.5219 -0.0349421 -1.88468 0
M  V30 808 C 72.6489 -0.45095 -3.35685 0
M  V30 809 C 71.6949 -1.50061 -3.99229 0
M  V30 810 S 72.5279 -3.07884 -4.38142 0
M  V30 811 C 73.6839 -2.58378 -5.7008 0
M  V30 812 H 73.9169 -1.88677 -2.29757 0
M  V30 813 H 71.4499 -1.06876 -1.11431 0
M  V30 814 H 73.4079 -0.162261 -4.10179 0
M  V30 815 H 72.0689 0.452179 -3.10828 0
M  V30 816 H 71.2619 -1.09269 -4.92013 0
M  V30 817 H 70.8639 -1.73878 -3.31123 0
M  V30 818 H 73.1559 -2.00563 -6.47133 0
M  V30 819 H 74.0989 -3.49711 -6.15717 0
M  V30 820 H 74.5069 -1.99143 -5.28207 0
M  V30 821 N 73.905 1.17692 -1.04816 0
M  V30 822 C 74.835 2.23777 -0.666791 0
M  V30 823 C 75.816 1.66796 0.33361 0
M  V30 824 O 77.001 1.93039 0.212042 0
M  V30 825 C 74.131 3.47281 -0.0367933 0
M  V30 826 C 73.085 4.17059 -0.961546 0
M  V30 827 C 72.411 5.34342 -0.195626 0
M  V30 828 C 73.711 4.69713 -2.28402 0
M  V30 829 H 75.405 2.55933 -1.55367 0
M  V30 830 H 72.951 1.23019 -0.748484 0
M  V30 831 H 74.904 4.20706 0.241775 0
M  V30 832 H 73.628 3.14381 0.885004 0
M  V30 833 H 72.287 3.45541 -1.22462 0
M  V30 834 H 71.935 4.97692 0.728816 0
M  V30 835 H 71.635 5.81966 -0.811775 0
M  V30 836 H 73.159 6.10553 0.0757473 0
M  V30 837 H 74.573 5.34794 -2.06563 0
M  V30 838 H 72.97 5.279 -2.8538 0
M  V30 839 H 74.04 3.86726 -2.92525 0
M  V30 840 N 75.3831 0.828654 1.34056 0
M  V30 841 C 76.7991 0.515135 1.51058 0
M  V30 842 C 76.9991 -0.959581 1.77184 0
M  V30 843 O 76.0551 -1.74382 1.82612 0
M  V30 844 C 77.3681 1.37963 2.67183 0
M  V30 845 C 78.9161 1.37735 2.81066 0
M  V30 846 C 79.3911 2.22645 4.00241 0
M  V30 847 N 80.8821 2.203 4.07458 0
M  V30 848 C 81.6171 2.82744 4.98842 0
M  V30 849 N 81.1131 3.54201 5.9541 0
M  V30 850 N 82.9061 2.72268 4.91759 0
M  V30 851 H 75.0571 1.78343 1.15358 0
M  V30 852 H 77.3201 0.760304 0.566252 0
M  V30 853 H 77.0261 2.42714 2.54525 0
M  V30 854 H 76.9001 1.0484 3.62338 0
M  V30 855 H 79.2871 0.337593 2.93163 0
M  V30 856 H 79.3681 1.74859 1.86703 0
M  V30 857 H 79.0121 3.26674 3.88905 0
M  V30 858 H 78.9421 1.82869 4.93829 0
M  V30 859 H 81.4331 1.68327 3.38341 0
M  V30 860 H 81.7461 3.9908 6.61782 0
M  V30 861 H 80.0911 3.58308 5.95517 0
M  V30 862 H 83.2821 2.16014 4.15278 0
M  V30 863 H 83.4551 3.21219 5.62781 0
M  V30 864 N 76.8612 -1.46375 0.584142 0
M  V30 865 C 78.2772 -1.57694 0.245929 0
M  V30 866 C 78.4772 -1.57903 -1.25175 0
M  V30 867 O 77.5332 -1.49676 -2.03355 0
M  V30 868 C 78.8462 -2.87028 0.896402 0
M  V30 869 C 80.3942 -3.00662 0.870127 0
M  V30 870 C 80.8692 -4.32734 1.50017 0
M  V30 871 N 82.3602 -4.39436 1.46458 0
M  V30 872 C 83.0952 -5.40248 1.92144 0
M  V30 873 N 82.5912 -6.47726 2.4581 0
M  V30 874 N 84.3842 -5.31459 1.83052 0
M  V30 875 H 76.5352 -1.44483 1.55687 0
M  V30 876 H 78.7982 -0.689291 0.650831 0
M  V30 877 H 78.5042 -2.9269 1.95002 0
M  V30 878 H 78.3782 -3.75014 0.405486 0
M  V30 879 H 80.7652 -2.94581 -0.174871 0
M  V30 880 H 80.8462 -2.14148 1.39908 0
M  V30 881 H 80.4902 -4.39573 2.54437 0
M  V30 882 H 80.4202 -5.18025 0.946432 0
M  V30 883 H 82.9112 -3.62367 1.07231 0
M  V30 884 H 83.2242 -7.20863 2.78525 0
M  V30 885 H 81.5692 -6.48542 2.49836 0
M  V30 886 H 84.7602 -4.46396 1.40883 0
M  V30 887 H 84.9332 -6.09881 2.18973 0
M  V30 888 N 78.3393 -0.321999 -1.54275 0
M  V30 889 C 79.2493 0.553631 -2.27974 0
M  V30 890 C 80.2653 1.13054 -1.32268 0
M  V30 891 O 81.4413 1.15084 -1.6528 0
M  V30 892 C 78.5063 1.69927 -3.02201 0
M  V30 893 C 77.5673 1.15433 -4.1349 0
M  V30 894 C 76.8003 2.24537 -4.84168 0
M  V30 895 O 77.0233 3.44852 -4.5435 0
M  V30 896 O 75.9573 1.90044 -5.7111 0
M  V30 897 H 79.7833 -0.0448345 -3.03667 0
M  V30 898 H 77.3683 -0.0877418 -1.49142 0
M  V30 899 H 79.2503 2.3663 -3.48689 0
M  V30 900 H 77.9253 2.28395 -2.29385 0
M  V30 901 H 76.8323 0.452436 -3.71354 0
M  V30 902 H 78.1653 0.614805 -4.88345 0
M  V30 903 N 79.8174 1.5752 -0.0501392 0
M  V30 904 C 81.0664 1.91827 0.623328 0
M  V30 905 C 81.3794 0.930222 1.72065 0
M  V30 906 O 82.5854 1.1653 2.4522 0
M  V30 907 C 81.0414 3.40692 1.16003 0
M  V30 908 C 80.6494 4.479 0.0948811 0
M  V30 909 C 82.3934 3.84034 1.80881 0
M  V30 910 C 80.3004 5.87879 0.644411 0
M  V30 911 H 79.2304 0.715918 0.236596 0
M  V30 912 H 81.8814 1.83115 -0.118861 0
M  V30 913 H 80.2634 3.44405 1.9545 0
M  V30 914 H 81.4374 4.55775 -0.678675 0
M  V30 915 H 79.7524 4.13892 -0.45637 0
M  V30 916 H 82.3494 4.85984 2.22988 0
M  V30 917 H 82.6924 3.20225 2.6601 0
M  V30 918 H 83.2254 3.82833 1.0809 0
M  V30 919 H 79.9644 6.55282 -0.169229 0
M  V30 920 H 79.4844 5.83567 1.38598 0
M  V30 921 H 81.1634 6.37098 1.12763 0
M  V30 922 N 81.2955 -0.223234 1.56011 0
M  V30 923 C 82.2425 -1.27664 1.92277 0
M  V30 924 C 83.2125 -1.46659 0.779763 0
M  V30 925 O 84.3975 -1.60256 1.03551 0
M  V30 926 C 81.5375 -2.62234 2.24338 0
M  V30 927 C 80.6505 -2.51051 3.51564 0
M  V30 928 C 79.7855 -3.78133 3.7308 0
M  V30 929 C 78.8245 -3.61665 4.93827 0
M  V30 930 N 77.9615 -4.80693 5.11741 0
M  V30 931 H 82.8015 -0.960358 2.82101 0
M  V30 932 H 80.3385 -0.462901 1.39627 0
M  V30 933 H 82.2965 -3.40596 2.40936 0
M  V30 934 H 80.9265 -2.91961 1.3769 0
M  V30 935 H 79.9785 -1.64132 3.43169 0
M  V30 936 H 81.2905 -2.34803 4.40079 0
M  V30 937 H 80.4445 -4.64938 3.89766 0
M  V30 938 H 79.1835 -3.97304 2.82844 0
M  V30 939 H 78.1885 -2.73244 4.77093 0
M  V30 940 H 79.4135 -3.43966 5.85546 0
M  V30 941 H 77.3595 -5.00181 4.24446 0
M  V30 942 H 77.2765 -4.67165 5.94384 0
M  V30 943 H 78.5445 -5.6893 5.3286 0
M  V30 944 N 82.7736 -1.49793 -0.48987 0
M  V30 945 C 83.9986 -1.63836 -1.27172 0
M  V30 946 C 84.4236 -0.31402 -1.8546 0
M  V30 947 O 83.7816 0.719803 -1.66399 0
M  V30 948 C 83.8296 -2.71797 -2.36978 0
M  V30 949 O 82.9336 -2.31744 -3.41128 0
M  V30 950 H 82.2746 -0.547997 -0.37496 0
M  V30 951 H 84.8046 -1.96053 -0.585191 0
M  V30 952 H 84.8146 -2.94305 -2.82575 0
M  V30 953 H 83.4896 -3.67923 -1.93921 0
M  V30 954 H 82.0666 -2.1961 -3.01373 0
M  V30 955 N 84.2517 0.741722 -1.39055 0
M  V30 956 C 85.1837 1.8657 -1.33133 0
M  V30 957 C 86.1967 1.61001 -0.241329 0
M  V30 958 O 87.3857 1.7136 -0.499784 0
M  V30 959 C 84.4857 3.22457 -1.04283 0
M  V30 960 C 83.6587 3.75435 -2.24427 0
M  V30 961 C 82.7177 4.89867 -1.92138 0
M  V30 962 O 81.7437 5.03879 -2.64754 0
M  V30 963 N 82.9457 5.73738 -0.88347 0
M  V30 964 H 85.7107 1.92156 -2.29991 0
M  V30 965 H 83.2717 0.922172 -1.3307 0
M  V30 966 H 85.2637 3.9657 -0.807128 0
M  V30 967 H 83.8337 3.12181 -0.161807 0
M  V30 968 H 83.0537 2.92751 -2.6399 0
M  V30 969 H 84.3417 4.07563 -3.04581 0
M  V30 970 H 83.7397 5.64999 -0.281517 0
M  V30 971 H 82.2967 6.47947 -0.707662 0
M  V30 972 N 85.7298 1.2412 0.971189 0
M  V30 973 C 86.9778 1.07668 1.71032 0
M  V30 974 C 87.2988 -0.385797 1.91146 0
M  V30 975 O 86.5688 -1.27569 1.4867 0
M  V30 976 H 85.1488 0.395429 0.633755 0
M  V30 977 H 87.8108 1.55984 1.16855 0
M  V30 978 H 86.9068 1.57195 2.69622 0
M  V30 979 N 87.2079 -1.17134 1.05439 0
M  V30 980 C 88.1549 -2.21235 0.657539 0
M  V30 981 C 89.1249 -1.62551 -0.341543 0
M  V30 982 O 90.3099 -1.89379 -0.232393 0
M  V30 983 C 87.4499 -3.45076 0.0410575 0
M  V30 984 C 86.5629 -4.18042 1.08927 0
M  V30 985 C 85.6979 -5.29376 0.439848 0
M  V30 986 C 84.7369 -5.94132 1.4722 0
M  V30 987 N 83.8739 -6.96975 0.846756 0
M  V30 988 H 88.7139 -2.54534 1.54972 0
M  V30 989 H 86.2509 -1.25028 0.775006 0
M  V30 990 H 88.2089 -4.15862 -0.33383 0
M  V30 991 H 86.8389 -3.12353 -0.814568 0
M  V30 992 H 85.8909 -3.45945 1.58196 0
M  V30 993 H 87.2029 -4.62306 1.87282 0
M  V30 994 H 86.3569 -6.06699 0.0115125 0
M  V30 995 H 85.0959 -4.86251 -0.375656 0
M  V30 996 H 84.1009 -5.15538 1.91052 0
M  V30 997 H 85.3259 -6.39337 2.28965 0
M  V30 998 H 83.2719 -6.5598 0.0518075 0
M  V30 999 H 83.1889 -7.39565 1.5678 0
M  V30 1000 H 84.4569 -7.78239 0.443277 0
M  V30 1001 N 88.686 -0.835752 -1.33615 0
M  V30 1002 C 89.911 -0.442389 -2.02627 0
M  V30 1003 C 90.336 0.947735 -1.62479 0
M  V30 1004 O 89.694 1.61907 -0.815826 0
M  V30 1005 C 89.742 -0.567216 -3.56111 0
M  V30 1006 O 88.846 0.407799 -4.10379 0
M  V30 1007 H 88.187 -0.180278 -0.639059 0
M  V30 1008 H 90.717 -1.12972 -1.70583 0
M  V30 1009 H 90.727 -0.447708 -4.05536 0
M  V30 1010 H 89.402 -1.58103 -3.84677 0
M  V30 1011 H 87.979 0.246107 -3.72087 0
M  V30 1012 N 90.1641 1.46063 -0.591896 0
M  V30 1013 C 91.3921 2.06717 -0.0868936 0
M  V30 1014 C 91.8071 1.43916 1.22203 0
M  V30 1015 O 91.1641 0.547698 1.74088 0
M  V30 1016 C 91.2151 3.6142 0.0758725 0
M  V30 1017 O 90.9361 4.21874 -1.18126 0
M  V30 1018 C 92.4371 4.39025 0.61416 0
M  V30 1019 H 89.6571 0.668162 -0.0616518 0
M  V30 1020 H 92.2011 1.8755 -0.815175 0
M  V30 1021 H 90.3561 3.79983 0.754413 0
M  V30 1022 H 90.7701 5.14861 -1.00092 0
M  V30 1023 H 92.2441 5.4783 0.677193 0
M  V30 1024 H 92.7211 4.07708 1.63312 0
M  V30 1025 H 93.3271 4.2529 -0.0298142 0
M  V30 1026 N 91.6422 0.330177 1.54103 0
M  V30 1027 C 92.5752 -0.575477 2.20825 0
M  V30 1028 C 93.5532 -1.11064 1.18758 0
M  V30 1029 O 94.7372 -1.17341 1.47524 0
M  V30 1030 C 91.8642 -1.79032 2.87516 0
M  V30 1031 C 90.9102 -1.38581 4.03358 0
M  V30 1032 S 91.7432 -0.416911 5.33875 0
M  V30 1033 C 92.8992 -1.63889 6.04062 0
M  V30 1034 H 93.1322 -0.00872114 2.97299 0
M  V30 1035 H 90.6652 0.114254 1.53977 0
M  V30 1036 H 92.6232 -2.48734 3.2656 0
M  V30 1037 H 91.2842 -2.32827 2.10832 0
M  V30 1038 H 90.4772 -2.29123 4.48908 0
M  V30 1039 H 90.0792 -0.768419 3.66021 0
M  V30 1040 H 92.3712 -2.57536 6.26643 0
M  V30 1041 H 93.3142 -1.22542 6.97416 0
M  V30 1042 H 93.7222 -1.82887 5.34053 0
M  V30 1043 N 93.1203 -1.57491 0.0584922 0
M  V30 1044 C 94.3973 -1.84346 -0.653918 0
M  V30 1045 C 94.7773 -0.948355 -1.88599 0
M  V30 1046 O 94.1253 -0.0112403 -2.28497 0
M  V30 1047 C 94.3353 -3.34239 -1.00425 0
M  V30 1048 C 95.6833 -4.01431 -1.38342 0
M  V30 1049 O 96.7073 -3.38907 -1.09637 0
M  V30 1050 O 95.5663 -5.11683 -1.91943 0
M  V30 1051 H 92.6603 -0.761112 -0.323478 0
M  V30 1052 H 95.2063 -1.6947 0.0884125 0
M  V30 1053 H 93.9783 -3.91089 -0.128625 0
M  V30 1054 H 93.6013 -3.54329 -1.80378 0
M  V30 1055 N 94.5984 0.214957 -1.56127 0
M  V30 1056 C 95.8234 0.95924 -1.83884 0
M  V30 1057 C 96.2484 1.7689 -0.639644 0
M  V30 1058 O 95.6064 1.76566 0.411601 0
M  V30 1059 C 95.6544 1.84723 -3.09693 0
M  V30 1060 O 94.7584 2.94346 -2.8885 0
M  V30 1061 H 94.0994 0.27125 -0.606069 0
M  V30 1062 H 96.6294 0.226276 -2.03345 0
M  V30 1063 H 96.6394 2.25576 -3.39969 0
M  V30 1064 H 95.3144 1.25218 -3.96602 0
M  V30 1065 H 93.8914 2.57391 -2.69823 0
M  V30 1066 N 96.0765 1.50051 0.48192 0
M  V30 1067 C 97.3235 1.60498 1.23477 0
M  V30 1068 C 97.6515 0.300331 1.92167 0
M  V30 1069 O 96.9065 -0.713094 1.82246 0
M  V30 1070 C 97.2055 2.72717 2.30998 0
M  V30 1071 C 96.8715 4.13572 1.79636 0
M  V30 1072 C 95.5335 4.519 1.65348 0
M  V30 1073 C 97.8855 5.01649 1.41412 0
M  V30 1074 C 95.2135 5.76057 1.11244 0
M  V30 1075 C 97.5655 6.26343 0.887538 0
M  V30 1076 C 96.2295 6.63483 0.731207 0
M  V30 1077 H 95.4995 0.587303 0.451836 0
M  V30 1078 H 98.1465 1.83948 0.532468 0
M  V30 1079 H 96.4515 2.43312 3.07094 0
M  V30 1080 H 98.1485 2.78006 2.88988 0
M  V30 1081 H 94.7385 3.83329 1.91721 0
M  V30 1082 H 98.9225 4.72679 1.51289 0
M  V30 1083 H 94.1785 6.03516 0.978686 0
M  V30 1084 H 98.3525 6.93958 0.582654 0
M  V30 1085 H 95.9795 7.59568 0.309806 0
M  V30 1086 N 97.5546 -0.734337 1.39446 0
M  V30 1087 C 98.7826 -1.52358 1.39981 0
M  V30 1088 C 99.1976 -1.88799 -0.0054975 0
M  V30 1089 O 98.5546 -1.54146 -0.976998 0
M  V30 1090 C 98.6056 -2.81072 2.27333 0
M  V30 1091 O 98.3266 -2.46178 3.62392 0
M  V30 1092 C 99.8276 -3.75096 2.36259 0
M  V30 1093 H 97.0476 -0.470806 0.478103 0
M  V30 1094 H 99.5916 -0.907339 1.83269 0
M  V30 1095 H 97.7466 -3.39026 1.87457 0
M  V30 1096 H 98.1606 -3.28866 4.08592 0
M  V30 1097 H 99.6346 -4.62305 3.01626 0
M  V30 1098 H 100.112 -4.16892 1.38194 0
M  V30 1099 H 100.718 -3.23061 2.76608 0
M  V30 1100 N 99.0327 -1.24633 -0.964593 0
M  V30 1101 C 99.9627 -1.06611 -2.07741 0
M  V30 1102 C 100.944 0.0218666 -1.70086 0
M  V30 1103 O 102.129 -0.145793 -1.93652 0
M  V30 1104 C 99.2587 -0.673444 -3.40708 0
M  V30 1105 C 98.2127 -1.71054 -3.92332 0
M  V30 1106 C 97.5387 -1.17285 -5.21678 0
M  V30 1107 C 98.8387 -3.10718 -4.19824 0
M  V30 1108 H 100.533 -1.99693 -2.23076 0
M  V30 1109 H 98.0787 -0.96152 -1.07195 0
M  V30 1110 H 100.032 -0.534345 -4.17998 0
M  V30 1111 H 98.7557 0.293073 -3.25282 0
M  V30 1112 H 97.4147 -1.83791 -3.17201 0
M  V30 1113 H 97.0627 -0.196847 -5.02615 0
M  V30 1114 H 96.7627 -1.86592 -5.57187 0
M  V30 1115 H 98.2867 -1.04593 -6.01575 0
M  V30 1116 H 99.7007 -3.01192 -4.87808 0
M  V30 1117 H 98.0977 -3.77406 -4.66567 0
M  V30 1118 H 99.1677 -3.58524 -3.26479 0
M  V30 1119 N 100.511 1.16574 -1.06058 0
M  V30 1120 C 101.76 1.86385 -0.770944 0
M  V30 1121 C 102.073 1.82448 0.705129 0
M  V30 1122 O 103.279 2.47815 1.10905 0
M  V30 1123 C 101.735 3.34466 -1.32893 0
M  V30 1124 C 101.343 3.46883 -2.83507 0
M  V30 1125 C 103.087 4.09548 -1.11672 0
M  V30 1126 C 100.994 4.89036 -3.32562 0
M  V30 1127 H 99.9238 0.698181 -0.284709 0
M  V30 1128 H 102.575 1.31583 -1.27899 0
M  V30 1129 H 100.957 3.88859 -0.748662 0
M  V30 1130 H 102.131 3.02663 -3.47465 0
M  V30 1131 H 100.446 2.85232 -3.03368 0
M  V30 1132 H 103.043 5.14434 -1.45814 0
M  V30 1133 H 103.386 4.16264 -0.0549535 0
M  V30 1134 H 103.919 3.61387 -1.66265 0
M  V30 1135 H 100.658 4.87499 -4.38207 0
M  V30 1136 H 100.178 5.3389 -2.73351 0
M  V30 1137 H 101.857 5.57843 -3.2775 0
M  V30 1138 N 101.989 0.842826 1.3317 0
M  V30 1139 C 102.922 0.223862 2.27099 0
M  V30 1140 C 103.9 -0.631311 1.49844 0
M  V30 1141 O 105.084 -0.590708 1.79005 0
M  V30 1142 C 102.211 -0.685313 3.31694 0
M  V30 1143 C 101.257 0.094919 4.26394 0
M  V30 1144 S 102.09 1.45546 5.15341 0
M  V30 1145 C 103.246 0.551685 6.23464 0
M  V30 1146 H 103.479 1.02015 2.79249 0
M  V30 1147 H 101.012 0.639797 1.4052 0
M  V30 1148 H 102.97 -1.20426 3.92438 0
M  V30 1149 H 101.631 -1.4553 2.78352 0
M  V30 1150 H 100.824 -0.597059 5.00451 0
M  V30 1151 H 100.426 0.545054 3.70007 0
M  V30 1152 H 102.718 -0.248877 6.77043 0
M  V30 1153 H 103.661 1.26253 6.96754 0
M  V30 1154 H 104.069 0.131275 5.64347 0
M  V30 1155 N 103.467 -1.45747 0.599634 0
M  V30 1156 C 104.399 -2.28628 -0.161879 0
M  V30 1157 C 105.412 -1.39494 -0.839367 0
M  V30 1158 O 106.601 -1.63941 -0.706089 0
M  V30 1159 C 103.701 -3.15014 -1.24976 0
M  V30 1160 C 102.874 -4.32378 -0.660935 0
M  V30 1161 C 101.933 -5.00033 -1.63869 0
M  V30 1162 O 100.959 -5.57085 -1.1681 0
M  V30 1163 N 102.161 -4.98589 -2.97303 0
M  V30 1164 H 104.926 -2.94624 0.549265 0
M  V30 1165 H 102.487 -1.55847 0.438565 0
M  V30 1166 H 104.479 -3.5714 -1.9035 0
M  V30 1167 H 103.049 -2.5098 -1.86354 0
M  V30 1168 H 102.269 -3.9383 0.170688 0
M  V30 1169 H 103.557 -5.08197 -0.247619 0
M  V30 1170 H 102.955 -4.53514 -3.38145 0
M  V30 1171 H 101.512 -5.44603 -3.58121 0
M  V30 1172 N 104.945 -0.338344 -1.53925 0
M  V30 1173 C 106.173 0.261298 -2.05243 0
M  V30 1174 C 106.588 1.44625 -1.21363 0
M  V30 1175 O 105.945 1.80811 -0.247736 0
M  V30 1176 C 105.996 0.681412 -3.5502 0
M  V30 1177 O 105.717 -0.456414 -4.35716 0
M  V30 1178 C 107.218 1.34232 -4.22489 0
M  V30 1179 H 104.438 0.0513685 -0.669031 0
M  V30 1180 H 106.982 -0.488822 -1.98572 0
M  V30 1181 H 105.137 1.38148 -3.61931 0
M  V30 1182 H 105.551 -0.122564 -5.24357 0
M  V30 1183 H 107.025 1.58708 -5.28693 0
M  V30 1184 H 107.502 2.29426 -3.74514 0
M  V30 1185 H 108.108 0.684424 -4.19757 0
M  V30 1186 N 106.423 1.57458 -0.0668435 0
M  V30 1187 C 107.653 1.97337 0.611677 0
M  V30 1188 C 108.061 0.943744 1.63982 0
M  V30 1189 O 107.404 -0.0785584 1.83532 0
M  V30 1190 C 107.466 3.33511 1.34205 0
M  V30 1191 C 107.13 4.54598 0.467941 0
M  V30 1192 C 108.127 5.19186 -0.272439 0
M  V30 1193 C 105.812 5.0075 0.39427 0
M  V30 1194 C 107.806 6.28274 -1.07476 0
M  V30 1195 C 105.493 6.09711 -0.411729 0
M  V30 1196 C 106.491 6.73335 -1.14492 0
M  V30 1197 O 106.179 7.80199 -1.93763 0
M  V30 1198 H 105.911 0.654042 0.170893 0
M  V30 1199 H 108.465 2.04961 -0.134289 0
M  V30 1200 H 106.695 3.22487 2.13398 0
M  V30 1201 H 108.384 3.58029 1.91233 0
M  V30 1202 H 109.15 4.84477 -0.225086 0
M  V30 1203 H 105.029 4.51009 0.954569 0
M  V30 1204 H 108.573 6.77866 -1.64755 0
M  V30 1205 H 104.47 6.43854 -0.460664 0
M  V30 1206 H 105.238 7.97053 -1.86142 0
M  V30 1207 N 107.901 -0.206675 1.56239 0
M  V30 1208 C 108.849 -1.27571 1.94495 0
M  V30 1209 C 109.843 -1.47737 0.828862 0
M  V30 1210 O 111.049 -1.48735 1.0138 0
M  V30 1211 H 107.424 -0.428029 0.6183 0
M  V30 1212 H 109.395 -0.925961 2.8367 0
M  V30 1213 C 108.144 -2.61568 2.29079 0
M  V30 1214 H 107.467 -2.46863 3.14482 0
M  V30 1215 H 108.907 -3.35144 2.5972 0
M  V30 1216 C 107.366 -3.17695 1.12123 0
M  V30 1217 O 107.896 -3.99801 0.390153 0
M  V30 1218 N 106.102 -2.76276 0.901097 0
M  V30 1219 H 105.649 -2.09613 1.49733 0
M  V30 1220 H 105.607 -3.1417 0.120319 0
M  V30 1221 N 109.379 -1.50304 -0.473955 0
M  V30 1222 C 110.795 -1.37667 -0.807466 0
M  V30 1223 C 110.995 -0.430555 -1.96846 0
M  V30 1224 O 110.051 0.127874 -2.52176 0
M  V30 1225 C 111.364 -2.78974 -1.12223 0
M  V30 1226 C 112.912 -2.87868 -1.22885 0
M  V30 1227 C 113.387 -4.30003 -1.57676 0
M  V30 1228 N 114.878 -4.3294 -1.64673 0
M  V30 1229 C 115.613 -5.3991 -1.93091 0
M  V30 1230 N 115.109 -6.57092 -2.1955 0
M  V30 1231 N 116.902 -5.27351 -1.94569 0
M  V30 1232 H 109.053 -2.10394 0.291212 0
M  V30 1233 H 111.316 -0.945575 0.0677609 0
M  V30 1234 H 111.022 -3.50031 -0.342229 0
M  V30 1235 H 110.896 -3.16038 -2.05913 0
M  V30 1236 H 113.283 -2.17032 -1.99953 0
M  V30 1237 H 113.364 -2.54352 -0.271814 0
M  V30 1238 H 113.008 -5.01375 -0.81149 0
M  V30 1239 H 112.938 -4.61004 -2.54525 0
M  V30 1240 H 115.429 -3.48441 -1.46277 0
M  V30 1241 H 115.742 -7.34425 -2.405 0
M  V30 1242 H 114.087 -6.60272 -2.16948 0
M  V30 1243 H 117.278 -4.34801 -1.73394 0
M  V30 1244 H 117.451 -6.10805 -2.16381 0
M  V30 1245 N 110.857 0.726932 -1.39834 0
M  V30 1246 C 112.085 1.51613 -1.40787 0
M  V30 1247 C 112.5 1.88799 -0.00451505 0
M  V30 1248 O 111.857 1.54662 0.968809 0
M  V30 1249 C 111.908 2.79863 -2.28821 0
M  V30 1250 O 111.629 2.44253 -3.63692 0
M  V30 1251 C 113.13 3.73837 -2.38245 0
M  V30 1252 H 110.35 0.468264 -0.480593 0
M  V30 1253 H 112.894 0.897607 -1.83748 0
M  V30 1254 H 111.049 3.38027 -1.89252 0
M  V30 1255 H 111.463 3.26695 -4.1033 0
M  V30 1256 H 112.937 4.60699 -3.04073 0
M  V30 1257 H 113.414 4.16153 -1.40403 0
M  V30 1258 H 114.02 3.21589 -2.78317 0
M  V30 1259 N 112.336 1.25143 0.95797 0
M  V30 1260 C 113.613 1.00472 1.67823 0
M  V30 1261 C 113.993 -0.470056 2.058 0
M  V30 1262 O 113.341 -1.44663 1.76875 0
M  V30 1263 C 113.551 1.9372 2.90299 0
M  V30 1264 C 114.899 2.21371 3.62326 0
M  V30 1265 O 115.923 1.91451 3.00375 0
M  V30 1266 O 114.782 2.72231 4.7387 0
M  V30 1267 H 111.876 0.380752 0.734137 0
M  V30 1268 H 114.422 1.36283 1.01119 0
M  V30 1269 H 113.194 2.93316 2.59001 0
M  V30 1270 H 112.817 1.58286 3.64735 0
M  V30 1271 N 113.814 -1.1601 1.06675 0
M  V30 1272 C 114.744 -2.22688 0.702307 0
M  V30 1273 C 115.725 -1.67306 -0.307032 0
M  V30 1274 O 116.91 -1.93352 -0.181305 0
M  V30 1275 C 114.04 -3.47178 0.092038 0
M  V30 1276 C 112.994 -4.15477 1.02777 0
M  V30 1277 C 112.32 -5.33963 0.28061 0
M  V30 1278 C 113.62 -4.66019 2.35846 0
M  V30 1279 H 115.314 -2.53429 1.59419 0
M  V30 1280 H 112.86 -1.21813 0.767961 0
M  V30 1281 H 114.813 -4.21037 -0.174814 0
M  V30 1282 H 113.537 -3.15749 -0.834877 0
M  V30 1283 H 112.196 -3.43549 1.27944 0
M  V30 1284 H 111.844 -4.98788 -0.649545 0
M  V30 1285 H 111.544 -5.806 0.904258 0
M  V30 1286 H 113.068 -6.10596 0.021396 0
M  V30 1287 H 114.482 -5.3144 2.15045 0
M  V30 1288 H 112.879 -5.23293 2.93743 0
M  V30 1289 H 113.949 -3.82023 2.98641 0
M  V30 1290 N 115.292 -0.849877 -1.32721 0
M  V30 1291 C 116.222 -0.306308 -2.31482 0
M  V30 1292 C 117.203 0.591952 -1.59468 0
M  V30 1293 O 118.388 0.513199 -1.87296 0
M  V30 1294 C 115.518 0.510204 -3.43532 0
M  V30 1295 C 114.472 -0.293209 -4.26994 0
M  V30 1296 C 113.798 0.647743 -5.30762 0
M  V30 1297 C 115.098 -1.51634 -4.99804 0
M  V30 1298 H 116.792 -1.13153 -2.77195 0
M  V30 1299 H 114.338 -0.545553 -1.33266 0
M  V30 1300 H 116.291 0.900856 -4.11658 0
M  V30 1301 H 115.015 1.36874 -2.96535 0
M  V30 1302 H 113.674 -0.665555 -3.60508 0
M  V30 1303 H 113.322 1.50299 -4.8002 0
M  V30 1304 H 113.022 0.11422 -5.87489 0
M  V30 1305 H 114.546 1.03567 -6.01753 0
M  V30 1306 H 115.96 -1.19824 -5.60638 0
M  V30 1307 H 114.357 -1.98745 -5.66234 0
M  V30 1308 H 115.427 -2.28018 -4.27943 0
M  V30 1309 N 116.77 1.45427 -0.607355 0
M  V30 1310 C 117.7 2.3329 0.0989352 0
M  V30 1311 C 118.681 1.46816 0.859007 0
M  V30 1312 O 119.866 1.75588 0.829604 0
M  V30 1313 C 116.996 3.29518 1.09705 0
M  V30 1314 C 115.95 4.25626 0.450206 0
M  V30 1315 C 115.276 5.11542 1.55655 0
M  V30 1316 C 116.576 5.18505 -0.628455 0
M  V30 1317 H 118.27 2.92595 -0.634716 0
M  V30 1318 H 115.816 1.40696 -0.306681 0
M  V30 1319 H 117.769 3.89855 1.59971 0
M  V30 1320 H 116.493 2.68372 1.86129 0
M  V30 1321 H 115.152 3.66586 -0.0315886 0
M  V30 1322 H 114.8 4.46765 2.31107 0
M  V30 1323 H 114.5 5.76647 1.12925 0
M  V30 1324 H 116.024 5.74748 2.06148 0
M  V30 1325 H 117.438 5.72916 -0.209877 0
M  V30 1326 H 115.835 5.92085 -0.977489 0
M  V30 1327 H 116.905 4.60948 -1.50514 0
M  V30 1328 N 118.248 0.346503 1.53744 0
M  V30 1329 C 119.195 -0.508914 2.25119 0
M  V30 1330 C 120.165 -1.09315 1.25058 0
M  V30 1331 O 121.35 -1.12921 1.53797 0
M  V30 1332 C 118.49 -1.65246 3.02965 0
M  V30 1333 C 117.603 -1.09525 4.17886 0
M  V30 1334 C 116.738 -2.20634 4.83212 0
M  V30 1335 C 115.777 -1.62279 5.90196 0
M  V30 1336 N 114.914 -2.67143 6.49291 0
M  V30 1337 H 119.754 0.106283 2.9781 0
M  V30 1338 H 117.291 0.0642227 1.4696 0
M  V30 1339 H 119.249 -2.32574 3.4636 0
M  V30 1340 H 117.879 -2.2386 2.32565 0
M  V30 1341 H 116.931 -0.312818 3.79112 0
M  V30 1342 H 118.243 -0.628444 4.94825 0
M  V30 1343 H 117.397 -2.95821 5.29693 0
M  V30 1344 H 116.136 -2.70659 4.05703 0
M  V30 1345 H 115.141 -0.855989 5.43096 0
M  V30 1346 H 116.366 -1.13102 6.69615 0
M  V30 1347 H 114.312 -3.16417 5.74645 0
M  V30 1348 H 114.229 -2.25093 7.21713 0
M  V30 1349 H 115.497 -3.4209 7.00425 0
M  V30 1350 N 119.726 -1.57421 0.075193 0
M  V30 1351 C 120.656 -2.15942 -0.888324 0
M  V30 1352 C 121.637 -1.08737 -1.30806 0
M  V30 1353 O 122.822 -1.36787 -1.37851 0
M  V30 1354 C 119.952 -2.72379 -2.1547 0
M  V30 1355 C 118.906 -3.8478 -1.87425 0
M  V30 1356 C 118.232 -4.27834 -3.20721 0
M  V30 1357 C 119.532 -5.08869 -1.17684 0
M  V30 1358 H 121.226 -2.96705 -0.400799 0
M  V30 1359 H 118.772 -1.42723 -0.191342 0
M  V30 1360 H 120.725 -3.11965 -2.83295 0
M  V30 1361 H 119.449 -1.88841 -2.6647 0
M  V30 1362 H 118.108 -3.45703 -1.22004 0
M  V30 1363 H 117.756 -3.41214 -3.6957 0
M  V30 1364 H 117.456 -5.03605 -3.02746 0
M  V30 1365 H 118.98 -4.70039 -3.89738 0
M  V30 1366 H 120.394 -5.4575 -1.75584 0
M  V30 1367 H 118.791 -5.8994 -1.09956 0
M  V30 1368 H 119.861 -4.84648 -0.156453 0
M  V30 1369 N 121.204 0.198386 -1.56346 0
M  V30 1370 C 122.134 1.24865 -1.9731 0
M  V30 1371 C 123.115 1.47651 -0.844576 0
M  V30 1372 O 124.3 1.59444 -1.10866 0
M  V30 1373 C 121.43 2.59358 -2.30977 0
M  V30 1374 C 120.384 2.5119 -3.46537 0
M  V30 1375 C 119.71 3.89926 -3.65871 0
M  V30 1376 C 121.01 2.03977 -4.80823 0
M  V30 1377 H 122.704 0.908252 -2.85291 0
M  V30 1378 H 120.25 0.435462 -1.37258 0
M  V30 1379 H 122.203 3.33011 -2.58228 0
M  V30 1380 H 120.927 2.95132 -1.39874 0
M  V30 1381 H 119.586 1.79993 -3.19371 0
M  V30 1382 H 119.234 4.23046 -2.72105 0
M  V30 1383 H 118.934 3.85336 -4.4361 0
M  V30 1384 H 120.458 4.65205 -3.95495 0
M  V30 1385 H 121.872 2.67386 -5.07127 0
M  V30 1386 H 120.269 2.10397 -5.62008 0
M  V30 1387 H 121.339 0.992861 -4.74626 0
M  V30 1388 N 122.682 1.50554 0.465978 0
M  V30 1389 C 123.63 1.70324 1.58406 0
M  V30 1390 C 124.624 0.569139 1.59553 0
M  V30 1391 O 125.83 0.749776 1.63641 0
M  V30 1392 H 122.205 0.537688 0.525734 0
M  V30 1393 H 124.176 2.64104 1.38894 0
M  V30 1394 C 122.925 1.81928 2.96307 0
M  V30 1395 H 122.248 2.68586 2.96144 0
M  V30 1396 H 123.688 1.99784 3.73982 0
M  V30 1397 C 122.147 0.572095 3.32007 0
M  V30 1398 O 122.677 -0.286416 4.00678 0
M  V30 1399 N 120.883 0.424606 2.87481 0
M  V30 1400 H 120.43 1.12427 2.31771 0
M  V30 1401 H 120.388 -0.408697 3.11732 0
M  V30 1402 N 124.16 -0.719506 1.40217 0
M  V30 1403 C 125.11 -1.8251 1.36653 0
M  V30 1404 C 126.094 -1.59028 0.244732 0
M  V30 1405 O 127.286 -1.70268 0.483524 0
M  V30 1406 C 124.415 -3.20599 1.22763 0
M  V30 1407 C 123.501 -3.49858 2.39708 0
M  V30 1408 N 123.892 -3.49957 3.6519 0
M  V30 1409 C 122.19 -3.80297 2.33002 0
M  V30 1410 C 122.891 -3.77449 4.42614 0
M  V30 1411 N 121.867 -3.96002 3.72402 0
M  V30 1412 H 125.669 -1.80914 2.31619 0
M  V30 1413 H 123.183 -0.918455 1.33933 0
M  V30 1414 H 125.18 -3.99766 1.18292 0
M  V30 1415 H 123.84 -3.23424 0.287614 0
M  V30 1416 H 124.851 -3.309 3.98404 0
M  V30 1417 H 121.528 -3.90635 1.47346 0
M  V30 1418 H 122.918 -3.83863 5.51451 0
M  V30 1419 N 125.638 -1.25649 -0.95132 0
M  V30 1420 C 126.868 -1.13179 -1.72841 0
M  V30 1421 C 127.276 0.316827 -1.86528 0
M  V30 1422 O 126.619 1.22948 -1.3649 0
M  V30 1423 C 126.681 -1.71644 -3.15878 0
M  V30 1424 C 126.345 -3.20667 -3.25609 0
M  V30 1425 C 127.342 -4.17616 -3.09666 0
M  V30 1426 C 125.027 -3.6094 -3.49324 0
M  V30 1427 C 127.021 -5.52817 -3.17289 0
M  V30 1428 C 124.708 -4.96278 -3.56584 0
M  V30 1429 C 125.706 -5.92025 -3.40581 0
M  V30 1430 O 125.394 -7.24899 -3.47528 0
M  V30 1431 H 125.126 -0.395389 -0.54831 0
M  V30 1432 H 127.68 -1.66566 -1.20187 0
M  V30 1433 H 125.91 -1.12707 -3.69911 0
M  V30 1434 H 127.599 -1.54225 -3.75459 0
M  V30 1435 H 128.365 -3.87842 -2.91211 0
M  V30 1436 H 124.244 -2.86907 -3.6084 0
M  V30 1437 H 127.788 -6.2753 -3.04716 0
M  V30 1438 H 123.685 -5.25716 -3.74556 0
M  V30 1439 H 124.453 -7.33039 -3.64138 0
M  V30 1440 N 127.117 1.15442 -1.07289 0
M  V30 1441 C 128.049 2.19773 -0.650585 0
M  V30 1442 C 129.062 1.60076 0.296572 0
M  V30 1443 O 130.251 1.78293 0.0859905 0
M  V30 1444 C 127.351 3.38838 0.0650398 0
M  V30 1445 C 126.524 4.2808 -0.898141 0
M  V30 1446 C 125.583 5.2574 -0.219926 0
M  V30 1447 O 124.609 5.62654 -0.860773 0
M  V30 1448 N 125.811 5.71205 1.03466 0
M  V30 1449 H 128.576 2.56622 -1.54808 0
M  V30 1450 H 126.137 1.30551 -0.957494 0
M  V30 1451 H 128.129 4.01222 0.529415 0
M  V30 1452 H 126.699 3.00409 0.864466 0
M  V30 1453 H 125.919 3.62804 -1.54165 0
M  V30 1454 H 127.207 4.84577 -1.5512 0
M  V30 1455 H 126.605 5.43325 1.57526 0
M  V30 1456 H 125.162 6.35633 1.44272 0
M  V30 1457 N 128.595 0.856903 1.32268 0
M  V30 1458 C 129.558 0.308171 2.27119 0
M  V30 1459 C 130.558 -0.533421 1.51695 0
M  V30 1460 O 131.748 -0.344607 1.70757 0
M  V30 1461 C 128.88 -0.563757 3.36206 0
M  V30 1462 H 130.073 1.14535 2.77167 0
M  V30 1463 H 127.626 0.631421 1.42978 0
M  V30 1464 H 128.361 -1.42266 2.91429 0
M  V30 1465 H 128.146 0.0386749 3.92081 0
M  V30 1466 H 129.636 -0.940386 4.06874 0
M  V30 1467 N 130.073 -1.45103 0.615059 0
M  V30 1468 C 131.319 -2.02483 0.113347 0
M  V30 1469 C 131.652 -1.48146 -1.25564 0
M  V30 1470 O 130.927 -0.659104 -1.82992 0
M  V30 1471 C 131.21 -3.60005 0.0825278 0
M  V30 1472 C 131.063 -4.2466 1.48271 0
M  V30 1473 C 132.382 -4.35972 -0.601401 0
M  V30 1474 H 129.501 -0.735764 0.0426632 0
M  V30 1475 H 132.143 -1.72868 0.788461 0
M  V30 1476 H 130.293 -3.85367 -0.492378 0
M  V30 1477 H 131.965 -4.10458 2.10527 0
M  V30 1478 H 130.208 -3.82772 2.04127 0
M  V30 1479 H 130.879 -5.336 1.41332 0
M  V30 1480 H 133.355 -4.15947 -0.112666 0
M  V30 1481 H 132.231 -5.45697 -0.592097 0
M  V30 1482 H 132.492 -4.09391 -1.66887 0
M  V30 1483 N 131.551 -0.354651 -1.53558 0
M  V30 1484 C 132.962 0.126902 -1.86268 0
M  V30 1485 C 133.313 1.49075 -1.27558 0
M  V30 1486 O 132.438 2.08105 -0.5934 0
M  V30 1487 C 133.033 0.237046 -3.3797 0
M  V30 1488 C 131.592 0.662842 -3.70518 0
M  V30 1489 C 130.739 -0.196652 -2.76602 0
M  V30 1490 H 133.69 -0.573849 -1.47962 0
M  V30 1491 H 133.711 1.06259 -3.65362 0
M  V30 1492 H 133.223 -0.755725 -3.80671 0
M  V30 1493 H 131.324 1.66424 -3.33367 0
M  V30 1494 H 131.437 0.445034 -4.77029 0
M  V30 1495 H 129.801 0.332763 -2.52517 0
M  V30 1496 H 130.584 -1.18676 -3.22135 0
M  V30 1497 N 133.029 1.57378 -0.0835403 0
M  V30 1498 C 133.977 2.14602 0.89714 0
M  V30 1499 C 134.971 1.08589 1.30018 0
M  V30 1500 O 136.177 1.26952 1.27606 0
M  V30 1501 H 132.552 0.686346 0.3073 0
M  V30 1502 H 134.523 2.95845 0.38969 0
M  V30 1503 C 133.272 2.73188 2.15089 0
M  V30 1504 H 132.595 3.54442 1.84962 0
M  V30 1505 H 134.035 3.1681 2.81793 0
M  V30 1506 C 132.494 1.68517 2.91725 0
M  V30 1507 O 133.024 1.11718 3.85852 0
M  V30 1508 N 131.23 1.39277 2.55049 0
M  V30 1509 H 130.777 1.85655 1.78577 0
M  V30 1510 H 130.735 0.694791 3.06627 0
M  V30 1511 N 134.507 -0.190092 1.56449 0
M  V30 1512 C 135.437 -1.23816 1.97969 0
M  V30 1513 C 136.418 -1.47201 0.852395 0
M  V30 1514 O 137.603 -1.58854 1.1171 0
M  V30 1515 C 134.733 -2.5813 2.3235 0
M  V30 1516 C 133.687 -2.49348 3.47864 0
M  V30 1517 C 133.013 -3.8798 3.67934 0
M  V30 1518 C 134.313 -2.01424 4.81898 0
M  V30 1519 H 136.007 -0.89311 2.85769 0
M  V30 1520 H 133.553 -0.428177 1.37487 0
M  V30 1521 H 135.506 -3.31637 2.59991 0
M  V30 1522 H 134.23 -2.94386 1.41438 0
M  V30 1523 H 132.889 -1.78297 3.20321 0
M  V30 1524 H 132.537 -4.21597 2.74344 0
M  V30 1525 H 132.237 -3.82978 4.45648 0
M  V30 1526 H 133.761 -4.63101 3.97957 0
M  V30 1527 H 135.175 -2.64693 5.08538 0
M  V30 1528 H 133.572 -2.07413 5.63116 0
M  V30 1529 H 134.642 -0.967677 4.75146 0
M  V30 1530 N 135.985 -1.50799 -0.457987 0
M  V30 1531 C 136.935 -1.67003 -1.55222 0
M  V30 1532 C 137.919 -0.52434 -1.52117 0
M  V30 1533 O 139.111 -0.779345 -1.58919 0
M  V30 1534 C 136.24 -1.77956 -2.93576 0
M  V30 1535 C 135.326 -2.98243 -3.01516 0
M  V30 1536 N 135.717 -4.21732 -2.79241 0
M  V30 1537 C 134.015 -2.97072 -3.32662 0
M  V30 1538 C 134.716 -5.02817 -2.92489 0
M  V30 1539 N 133.692 -4.37038 -3.23262 0
M  V30 1540 H 137.494 -2.60163 -1.36721 0
M  V30 1541 H 135.008 -1.48163 -0.664952 0
M  V30 1542 H 137.005 -1.87671 -3.72271 0
M  V30 1543 H 135.665 -0.859634 -3.13114 0
M  V30 1544 H 136.676 -4.51016 -2.54567 0
M  V30 1545 H 133.353 -2.14631 -3.58106 0
M  V30 1546 H 134.743 -6.11054 -2.79396 0
M  V30 1547 N 137.463 0.71206 -1.40597 0
M  V30 1548 C 138.41 1.82613 -1.41142 0
M  V30 1549 C 139.38 1.63925 -0.267903 0
M  V30 1550 O 140.565 1.85009 -0.466495 0
M  V30 1551 C 137.705 3.20354 -1.28324 0
M  V30 1552 C 136.818 3.50589 -2.52411 0
M  V30 1553 C 135.953 4.77855 -2.32009 0
M  V30 1554 C 134.992 5.01005 -3.51654 0
M  V30 1555 N 134.129 6.19487 -3.30425 0
M  V30 1556 H 138.969 1.81482 -2.36365 0
M  V30 1557 H 136.506 0.886475 -1.17388 0
M  V30 1558 H 138.464 3.99899 -1.18899 0
M  V30 1559 H 137.094 3.20705 -0.367189 0
M  V30 1560 H 136.146 2.65573 -2.72351 0
M  V30 1561 H 137.458 3.63604 -3.41458 0
M  V30 1562 H 136.612 5.65424 -2.19956 0
M  V30 1563 H 135.351 4.67056 -1.40392 0
M  V30 1564 H 134.356 4.1189 -3.64179 0
M  V30 1565 H 135.581 5.13674 -4.44202 0
M  V30 1566 H 133.527 6.09932 -2.41494 0
M  V30 1567 H 133.444 6.33194 -4.13039 0
M  V30 1568 H 134.712 7.09834 -3.22113 0
M  V30 1569 N 138.941 1.26152 0.944643 0
M  V30 1570 C 140.187 1.11657 1.69294 0
M  V30 1571 C 140.52 -0.339926 1.91202 0
M  V30 1572 O 139.795 -1.24994 1.49019 0
M  V30 1573 C 140.078 1.88236 3.06984 0
M  V30 1574 C 139.931 3.41772 2.92424 0
M  V30 1575 C 141.25 1.67343 4.07043 0
M  V30 1576 H 138.369 0.407004 0.614424 0
M  V30 1577 H 141.011 1.55106 1.09737 0
M  V30 1578 H 139.161 1.51308 3.57824 0
M  V30 1579 H 140.833 3.88433 2.48832 0
M  V30 1580 H 139.076 3.68974 2.28124 0
M  V30 1581 H 139.747 3.90579 3.90067 0
M  V30 1582 H 142.223 1.99509 3.65151 0
M  V30 1583 H 141.099 2.23346 5.01406 0
M  V30 1584 H 141.36 0.617158 4.37771 0
M  V30 1585 N 140.419 -1.14872 1.07899 0
M  V30 1586 C 141.668 -1.85135 0.800499 0
M  V30 1587 C 141.981 -1.83547 -0.676014 0
M  V30 1588 O 143.187 -2.49548 -1.06948 0
M  V30 1589 C 141.643 -3.3231 1.38197 0
M  V30 1590 C 141.251 -3.42329 2.8899 0
M  V30 1591 C 142.995 -4.0772 1.18174 0
M  V30 1592 C 140.902 -4.83684 3.403 0
M  V30 1593 H 139.832 -0.693563 0.29578 0
M  V30 1594 H 142.483 -1.29532 1.29976 0
M  V30 1595 H 140.865 -3.87618 0.810431 0
M  V30 1596 H 142.039 -2.97097 3.52236 0
M  V30 1597 H 140.354 -2.80369 3.07867 0
M  V30 1598 H 142.951 -5.12049 1.5398 0
M  V30 1599 H 143.294 -4.16124 0.12117 0
M  V30 1600 H 143.827 -3.58696 1.71994 0
M  V30 1601 H 140.566 -4.80465 4.45907 0
M  V30 1602 H 140.086 -5.29474 2.81811 0
M  V30 1603 H 141.765 -5.52558 3.36584 0
M  V30 1604 N 141.898 -0.863906 -1.31812 0
M  V30 1605 C 143.144 -0.472535 -1.97218 0
M  V30 1606 C 143.477 0.971394 -1.68159 0
M  V30 1607 O 142.752 1.68309 -0.974798 0
M  V30 1608 C 143.035 -0.723054 -3.52766 0
M  V30 1609 C 142.888 -2.21608 -3.91421 0
M  V30 1610 C 144.207 -0.185522 -4.39709 0
M  V30 1611 H 141.326 -0.173158 -0.71637 0
M  V30 1612 H 143.968 -1.08403 -1.56041 0
M  V30 1613 H 142.118 -0.202577 -3.87971 0
M  V30 1614 H 143.79 -2.80334 -3.66347 0
M  V30 1615 H 142.033 -2.691 -3.40246 0
M  V30 1616 H 142.704 -2.34203 -4.99853 0
M  V30 1617 H 145.18 -0.630726 -4.11292 0
M  V30 1618 H 144.056 -0.390306 -5.47511 0
M  V30 1619 H 144.317 0.912229 -4.32586 0
M  V30 1620 N 143.376 1.44774 -0.622745 0
M  V30 1621 C 144.622 2.0242 -0.124083 0
M  V30 1622 C 144.955 1.4881 1.24777 0
M  V30 1623 O 144.23 0.668799 1.8264 0
M  V30 1624 C 144.513 3.59957 -0.101619 0
M  V30 1625 C 144.366 4.23867 -1.50521 0
M  V30 1626 C 145.685 4.36284 0.578272 0
M  V30 1627 H 142.804 0.735528 -0.0465645 0
M  V30 1628 H 145.446 1.72447 -0.797617 0
M  V30 1629 H 143.596 3.85623 0.471934 0
M  V30 1630 H 145.268 4.09336 -2.12701 0
M  V30 1631 H 143.511 3.81684 -2.06154 0
M  V30 1632 H 144.182 5.32843 -1.4416 0
M  V30 1633 H 146.658 4.16001 0.0906057 0
M  V30 1634 H 145.534 5.46004 0.563149 0
M  V30 1635 H 145.795 4.10271 1.64713 0
M  V30 1636 N 144.854 0.36279 1.53368 0
M  V30 1637 C 146.1 -0.220702 2.02199 0
M  V30 1638 C 146.455 -1.46649 1.24546 0
M  V30 1639 O 145.748 -1.88737 0.32996 0
M  V30 1640 C 145.942 -0.568417 3.52851 0
M  V30 1641 C 145.771 0.642126 4.45092 0
M  V30 1642 C 144.541 1.15335 4.91961 0
M  V30 1643 C 146.739 1.50649 4.91741 0
M  V30 1644 N 144.721 2.3242 5.68202 0
M  V30 1645 C 146.092 2.52404 5.66297 0
M  V30 1646 C 148.147 1.52969 4.73819 0
M  V30 1647 C 146.85 3.56331 6.24836 0
M  V30 1648 C 148.876 2.55789 5.33222 0
M  V30 1649 C 148.238 3.56268 6.07662 0
M  V30 1650 H 144.337 -0.0435508 0.780786 0
M  V30 1651 H 146.921 0.506704 1.87991 0
M  V30 1652 H 145.092 -1.2649 3.67226 0
M  V30 1653 H 146.824 -1.13676 3.88407 0
M  V30 1654 H 143.579 0.718412 4.68119 0
M  V30 1655 H 144.003 2.91591 6.10986 0
M  V30 1656 H 148.645 0.766418 4.15795 0
M  V30 1657 H 146.363 4.33543 6.81958 0
M  V30 1658 H 149.949 2.58435 5.21251 0
M  V30 1659 H 148.829 4.34524 6.52808 0
M  V30 1660 N 146.332 -1.57332 0.0918853 0
M  V30 1661 C 147.28 -2.15075 -0.885747 0
M  V30 1662 C 148.274 -1.09277 -1.29441 0
M  V30 1663 O 149.48 -1.27627 -1.26931 0
M  V30 1664 H 145.855 -0.687966 -0.303656 0
M  V30 1665 H 147.826 -2.96047 -0.373995 0
M  V30 1666 C 146.575 -2.74325 -2.13638 0
M  V30 1667 H 145.898 -3.55418 -1.8308 0
M  V30 1668 H 147.338 -3.183 -2.80109 0
M  V30 1669 C 145.797 -1.70062 -2.90827 0
M  V30 1670 O 146.327 -1.13763 -3.85254 0
M  V30 1671 N 144.533 -1.40628 -2.54307 0
M  V30 1672 H 144.08 -1.866 -1.7759 0
M  V30 1673 H 144.038 -0.711043 -3.06254 0
M  V30 1674 N 147.81 0.181792 -1.56548 0
M  V30 1675 C 148.758 1.24461 -1.965 0
M  V30 1676 C 149.752 1.464 -0.852261 0
M  V30 1677 O 150.958 1.47103 -1.03733 0
M  V30 1678 H 147.333 0.418138 -0.625031 0
M  V30 1679 H 149.304 0.880714 -2.85107 0
M  V30 1680 C 148.053 2.57891 -2.33212 0
M  V30 1681 H 147.376 2.41829 -3.18369 0
M  V30 1682 H 148.816 3.3097 -2.65019 0
M  V30 1683 C 147.275 3.15871 -1.17163 0
M  V30 1684 O 147.805 3.9913 -0.453708 0
M  V30 1685 N 146.011 2.74808 -0.944936 0
M  V30 1686 H 145.558 2.07205 -1.53049 0
M  V30 1687 H 145.516 3.13939 -0.170286 0
M  V30 1688 N 149.288 1.51039 0.449983 0
M  V30 1689 C 150.537 1.62317 1.19733 0
M  V30 1690 C 150.85 0.339101 1.92638 0
M  V30 1691 O 152.056 0.331069 2.69474 0
M  V30 1692 C 150.512 2.86608 2.17678 0
M  V30 1693 C 150.12 4.21972 1.50479 0
M  V30 1694 C 151.864 3.07239 2.92924 0
M  V30 1695 C 149.771 5.37426 2.46834 0
M  V30 1696 H 148.701 0.604532 0.450619 0
M  V30 1697 H 151.352 1.77494 0.465625 0
M  V30 1698 H 149.734 2.65037 2.94231 0
M  V30 1699 H 150.908 4.53878 0.795716 0
M  V30 1700 H 149.223 4.07117 0.874344 0
M  V30 1701 H 151.82 3.90668 3.65079 0
M  V30 1702 H 152.163 2.19807 3.5354 0
M  V30 1703 H 152.696 3.29091 2.23481 0
M  V30 1704 H 149.435 6.27079 1.90926 0
M  V30 1705 H 148.955 5.09912 3.15832 0
M  V30 1706 H 150.634 5.68862 3.08228 0
M  V30 1707 N 150.766 -0.704594 1.40972 0
M  V30 1708 C 152.014 -1.46169 1.39568 0
M  V30 1709 C 152.335 -1.95 0.00253745 0
M  V30 1710 O 151.605 -1.71095 -0.954114 0
M  V30 1711 H 150.185 -0.542326 0.513704 0
M  V30 1712 H 152.847 -0.834553 1.76128 0
M  V30 1713 H 151.943 -2.32922 2.07735 0
M  V30 1714 N 152.244 -1.26651 -0.937939 0
M  V30 1715 C 153.154 -1.10276 -2.07066 0
M  V30 1716 C 154.17 -0.0354197 -1.73964 0
M  V30 1717 O 155.346 -0.239816 -1.99967 0
M  V30 1718 C 152.411 -0.740887 -3.38691 0
M  V30 1719 C 151.472 -1.88799 -3.85556 0
M  V30 1720 C 150.705 -1.54329 -5.10899 0
M  V30 1721 O 150.928 -0.446494 -5.6865 0
M  V30 1722 O 149.862 -2.37911 -5.52885 0
M  V30 1723 H 153.688 -2.05309 -2.23789 0
M  V30 1724 H 151.273 -1.05743 -1.0554 0
M  V30 1725 H 153.155 -0.55195 -4.1777 0
M  V30 1726 H 151.83 0.180022 -3.23199 0
M  V30 1727 H 150.737 -2.13191 -3.07409 0
M  V30 1728 H 152.07 -2.78874 -4.05574 0
M  V30 1729 N 153.722 1.14298 -1.08507 0
M  V30 1730 C 154.669 2.19414 -0.715965 0
M  V30 1731 C 155.639 1.63399 0.298326 0
M  V30 1732 O 156.824 1.89929 0.182101 0
M  V30 1733 C 153.964 3.44845 -0.132534 0
M  V30 1734 C 153.077 4.15007 -1.19973 0
M  V30 1735 C 152.212 5.28024 -0.580048 0
M  V30 1736 C 151.251 5.9002 -1.62921 0
M  V30 1737 N 150.388 6.94485 -1.03125 0
M  V30 1738 H 155.228 2.50336 -1.61666 0
M  V30 1739 H 152.765 1.2293 -0.807882 0
M  V30 1740 H 154.723 4.16601 0.223454 0
M  V30 1741 H 153.353 3.14403 0.731467 0
M  V30 1742 H 152.405 3.41629 -1.67313 0
M  V30 1743 H 153.717 4.57178 -1.99473 0
M  V30 1744 H 152.871 6.06455 -0.172364 0
M  V30 1745 H 151.61 4.87076 0.246603 0
M  V30 1746 H 150.615 5.10291 -2.04654 0
M  V30 1747 H 151.84 6.33042 -2.45835 0
M  V30 1748 H 149.786 6.55612 -0.225711 0
M  V30 1749 H 149.703 7.35148 -1.76334 0
M  V30 1750 H 150.971 7.7679 -0.649458 0
M  V30 1751 N 155.201 0.870884 1.31352 0
M  V30 1752 C 156.164 0.332243 2.26779 0
M  V30 1753 C 157.164 -0.517302 1.52252 0
M  V30 1754 O 158.354 -0.326477 1.71113 0
M  V30 1755 C 155.486 -0.528066 3.36785 0
M  V30 1756 H 156.679 1.17469 2.75937 0
M  V30 1757 H 154.232 0.64655 1.423 0
M  V30 1758 H 154.967 -1.39167 2.92922 0
M  V30 1759 H 154.752 0.0802582 3.92018 0
M  V30 1760 H 156.242 -0.897179 4.07849 0
M  V30 1761 N 156.679 -1.44442 0.630414 0
M  V30 1762 C 158.09 -1.85434 0.217063 0
M  V30 1763 C 158.441 -1.52748 -1.23136 0
M  V30 1764 O 157.566 -0.965205 -1.93682 0
M  V30 1765 C 158.161 -3.36581 0.387168 0
M  V30 1766 C 156.72 -3.76389 0.0283297 0
M  V30 1767 C 155.867 -2.68296 0.700889 0
M  V30 1768 H 158.818 -1.34919 0.83562 0
M  V30 1769 H 158.839 -3.78657 -0.374086 0
M  V30 1770 H 158.351 -3.60339 1.44144 0
M  V30 1771 H 156.452 -3.58246 -1.02423 0
M  V30 1772 H 156.565 -4.77095 0.437892 0
M  V30 1773 H 154.929 -2.54335 0.136267 0
M  V30 1774 H 155.712 -2.94887 1.75774 0
M  V30 1775 N 158.157 -0.370918 -1.53173 0
M  V30 1776 C 159.434 0.273754 -1.93675 0
M  V30 1777 C 159.814 1.65938 -1.3049 0
M  V30 1778 O 159.162 2.23698 -0.465999 0
M  V30 1779 C 159.372 0.318602 -3.47543 0
M  V30 1780 C 160.72 0.556392 -4.20939 0
M  V30 1781 O 161.744 0.399587 -3.53952 0
M  V30 1782 O 160.603 0.862133 -5.39657 0
M  V30 1783 H 157.697 0.165448 -0.810281 0
M  V30 1784 H 160.243 -0.42409 -1.64315 0
M  V30 1785 H 159.015 -0.652687 -3.85818 0
M  V30 1786 H 158.638 1.06212 -3.83151 0
M  V30 1787 N 159.635 1.57281 -0.100228 0
M  V30 1788 C 160.545 2.17833 0.870965 0
M  V30 1789 C 161.561 1.14921 1.30649 0
M  V30 1790 O 162.737 1.47313 1.37335 0
M  V30 1791 C 159.802 2.75085 2.1102 0
M  V30 1792 C 158.863 3.9297 1.72838 0
M  V30 1793 C 158.096 4.47482 2.90854 0
M  V30 1794 O 158.319 4.00922 4.05731 0
M  V30 1795 O 157.253 5.38433 2.69023 0
M  V30 1796 H 161.079 3.0124 0.38575 0
M  V30 1797 H 158.664 1.48881 0.124397 0
M  V30 1798 H 160.546 3.11656 2.83634 0
M  V30 1799 H 159.221 1.94721 2.58584 0
M  V30 1800 H 158.128 3.61201 0.973883 0
M  V30 1801 H 159.461 4.74713 1.30033 0
M  V30 1802 N 161.113 -0.173488 1.56642 0
M  V30 1803 C 162.043 -1.2171 1.99271 0
M  V30 1804 C 163.024 -1.46289 0.867959 0
M  V30 1805 O 164.209 -1.5766 1.13388 0
M  V30 1806 C 161.339 -2.55651 2.35074 0
M  V30 1807 C 160.293 -2.45645 3.50489 0
M  V30 1808 C 159.619 -3.84056 3.72028 0
M  V30 1809 C 160.919 -1.96302 4.84007 0
M  V30 1810 H 162.613 -0.86275 2.867 0
M  V30 1811 H 160.159 -0.413571 1.37933 0
M  V30 1812 H 162.112 -3.2886 2.63494 0
M  V30 1813 H 160.836 -2.92869 1.44552 0
M  V30 1814 H 159.495 -1.7489 3.22194 0
M  V30 1815 H 159.143 -4.18664 2.788 0
M  V30 1816 H 158.843 -3.7823 4.49684 0
M  V30 1817 H 160.367 -4.58854 4.02846 0
M  V30 1818 H 161.781 -2.59284 5.11317 0
M  V30 1819 H 160.178 -2.01429 5.65284 0
M  V30 1820 H 161.248 -0.917226 4.76146 0
M  V30 1821 N 162.591 -1.51276 -0.441967 0
M  V30 1822 C 163.837 -1.6492 -1.1905 0
M  V30 1823 C 164.192 -0.358731 -1.89026 0
M  V30 1824 O 163.485 0.645193 -1.8041 0
M  V30 1825 C 163.679 -2.78746 -2.23686 0
M  V30 1826 C 163.508 -4.18737 -1.63979 0
M  V30 1827 C 162.278 -4.84739 -1.42674 0
M  V30 1828 C 164.476 -5.01988 -1.11858 0
M  V30 1829 N 162.458 -6.08858 -0.785159 0
M  V30 1830 C 163.829 -6.17071 -0.601989 0
M  V30 1831 C 165.884 -4.87551 -1.0099 0
M  V30 1832 C 164.587 -7.19299 0.0126012 0
M  V30 1833 C 166.613 -5.89983 -0.409206 0
M  V30 1834 C 165.975 -7.04333 0.0968651 0
M  V30 1835 H 162.074 -0.657416 -0.423471 0
M  V30 1836 H 164.658 -1.8849 -0.48782 0
M  V30 1837 H 162.829 -2.56848 -2.91348 0
M  V30 1838 H 164.561 -2.81595 -2.90666 0
M  V30 1839 H 161.316 -4.42528 -1.68719 0
M  V30 1840 H 161.74 -6.75282 -0.481942 0
M  V30 1841 H 166.382 -3.99401 -1.38703 0
M  V30 1842 H 164.1 -8.071 0.401879 0
M  V30 1843 H 167.686 -5.8088 -0.327079 0
M  V30 1844 H 166.566 -7.82238 0.554373 0
M  V30 1845 N 164.069 0.697108 -1.41344 0
M  V30 1846 C 165.017 1.83237 -1.43272 0
M  V30 1847 C 166.011 1.66522 -0.310947 0
M  V30 1848 O 167.217 1.73402 -0.482899 0
M  V30 1849 H 163.592 0.603802 -0.448249 0
M  V30 1850 H 165.563 1.78727 -2.38954 0
M  V30 1851 C 164.312 3.21245 -1.33029 0
M  V30 1852 H 163.635 3.34723 -2.18633 0
M  V30 1853 H 165.075 4.00763 -1.38439 0
M  V30 1854 C 163.534 3.36873 -0.0424635 0
M  V30 1855 O 164.064 3.91177 0.913421 0
M  V30 1856 N 162.27 2.90581 0.0331145 0
M  V30 1857 H 161.817 2.46577 -0.745506 0
M  V30 1858 H 161.775 3.01416 0.894199 0
M  V30 1859 N 165.547 1.27147 0.931209 0
M  V30 1860 C 166.772 1.16191 1.71797 0
M  V30 1861 C 167.197 -0.278004 1.86034 0
M  V30 1862 O 166.555 -1.20137 1.35782 0
M  V30 1863 C 166.603 1.84673 3.09723 0
M  V30 1864 O 165.707 1.14231 3.96264 0
M  V30 1865 H 165.048 0.404303 0.526721 0
M  V30 1866 H 167.578 1.68152 1.1656 0
M  V30 1867 H 167.588 1.91893 3.60057 0
M  V30 1868 H 166.263 2.89421 2.98677 0
M  V30 1869 H 164.84 1.15056 3.54706 0
M  V30 1870 N 167.025 -1.13721 1.09112 0
M  V30 1871 C 167.955 -2.21148 0.749385 0
M  V30 1872 C 168.936 -1.6792 -0.271475 0
M  V30 1873 O 170.121 -1.93693 -0.140251 0
M  V30 1874 C 167.251 -3.46905 0.165659 0
M  V30 1875 C 166.205 -4.13203 1.11567 0
M  V30 1876 C 165.531 -5.33248 0.393809 0
M  V30 1877 C 166.831 -4.60912 2.45678 0
M  V30 1878 H 168.525 -2.4999 1.64758 0
M  V30 1879 H 166.071 -1.20156 0.793626 0
M  V30 1880 H 168.024 -4.21313 -0.085466 0
M  V30 1881 H 166.748 -3.17449 -0.767714 0
M  V30 1882 H 165.407 -3.40758 1.35202 0
M  V30 1883 H 165.055 -5.00054 -0.543599 0
M  V30 1884 H 164.755 -5.78552 1.02721 0
M  V30 1885 H 166.279 -6.10413 0.150908 0
M  V30 1886 H 167.693 -5.26759 2.26269 0
M  V30 1887 H 166.09 -5.16944 3.04776 0
M  V30 1888 H 167.16 -3.75603 3.06677 0
M  V30 1889 N 168.503 -0.877838 -1.30888 0
M  V30 1890 C 169.751 -0.491723 -1.96027 0
M  V30 1891 C 170.072 0.960827 -1.69685 0
M  V30 1892 O 169.342 1.67462 -1.01654 0
M  V30 1893 H 167.922 -0.17885 -0.725273 0
M  V30 1894 H 170.584 -1.11935 -1.59551 0
M  V30 1895 H 169.68 -0.656016 -3.05128 0
M  V30 1896 N 169.982 1.44106 -0.638065 0
M  V30 1897 C 171.393 1.85316 -0.226894 0
M  V30 1898 C 171.744 1.53399 1.22324 0
M  V30 1899 O 170.869 0.975463 1.93167 0
M  V30 1900 C 171.464 3.3637 -0.405013 0
M  V30 1901 C 170.023 3.76369 -0.0482902 0
M  V30 1902 C 169.17 2.67921 -0.715108 0
M  V30 1903 H 172.121 1.34474 -0.842764 0
M  V30 1904 H 172.142 3.7885 0.354 0
M  V30 1905 H 171.654 3.59569 -1.46053 0
M  V30 1906 H 169.755 3.58784 1.00522 0
M  V30 1907 H 169.868 4.76856 -0.463187 0
M  V30 1908 H 168.232 2.54259 -0.149753 0
M  V30 1909 H 169.015 2.93951 -1.77335 0
M  V30 1910 N 171.46 0.379036 1.52974 0
M  V30 1911 C 172.41 -0.477772 2.22938 0
M  V30 1912 C 173.394 -1.03792 1.22948 0
M  V30 1913 O 174.586 -0.965725 1.48333 0
M  V30 1914 C 171.715 -1.60994 3.03209 0
M  V30 1915 C 170.801 -1.06203 4.10587 0
M  V30 1916 N 171.192 -0.238214 5.05239 0
M  V30 1917 C 169.49 -1.33554 4.25534 0
M  V30 1918 C 170.191 0.0633235 5.81666 0
M  V30 1919 N 169.167 -0.537901 5.40932 0
M  V30 1920 H 172.969 0.158295 2.93473 0
M  V30 1921 H 170.483 0.187778 1.61311 0
M  V30 1922 H 172.48 -2.23607 3.5186 0
M  V30 1923 H 171.14 -2.24893 2.34207 0
M  V30 1924 H 172.151 0.123695 5.17752 0
M  V30 1925 H 168.828 -1.97632 3.6776 0
M  V30 1926 H 170.218 0.730161 6.67921 0
M  V30 1927 N 172.938 -1.57226 0.108567 0
M  V30 1928 C 174.349 -1.8195 -0.418464 0
M  V30 1929 C 174.7 -1.02508 -1.67292 0
M  V30 1930 O 173.825 -0.258496 -2.14851 0
M  V30 1931 C 174.42 -3.30028 -0.765979 0
M  V30 1932 C 172.979 -3.55469 -1.23769 0
M  V30 1933 C 172.126 -2.7625 -0.241106 0
M  V30 1934 H 175.077 -1.55149 0.33384 0
M  V30 1935 H 175.098 -3.44086 -1.62434 0
M  V30 1936 H 174.61 -3.87821 0.147219 0
M  V30 1937 H 172.711 -3.03022 -2.16814 0
M  V30 1938 H 172.824 -4.6408 -1.19022 0
M  V30 1939 H 171.188 -2.44133 -0.72602 0
M  V30 1940 H 171.971 -3.36797 0.665007 0
M  V30 1941 N 174.416 0.165178 -1.56732 0
M  V30 1942 C 175.665 0.879143 -1.81532 0
M  V30 1943 C 175.978 1.83144 -0.686842 0
M  V30 1944 O 177.184 2.58823 -0.819944 0
M  V30 1945 C 175.64 1.61388 -3.21686 0
M  V30 1946 C 175.248 0.704904 -4.4242 0
M  V30 1947 C 176.992 2.3157 -3.55774 0
M  V30 1948 C 174.899 1.44022 -5.73595 0
M  V30 1949 H 173.829 0.332033 -0.676957 0
M  V30 1950 H 176.48 0.132008 -1.83025 0
M  V30 1951 H 174.862 2.40599 -3.14529 0
M  V30 1952 H 176.036 -0.0506815 -4.60772 0
M  V30 1953 H 174.351 0.112419 -4.16248 0
M  V30 1954 H 176.948 2.8719 -4.51028 0
M  V30 1955 H 177.291 3.07201 -2.8095 0
M  V30 1956 H 177.824 1.59297 -3.64513 0
M  V30 1957 H 174.563 0.72612 -6.51466 0
M  V30 1958 H 174.083 2.16898 -5.5921 0
M  V30 1959 H 175.762 1.98606 -6.15764 0
M  V30 1960 N 175.894 1.51508 0.433938 0
M  V30 1961 C 177.305 1.56784 1.01369 0
M  V30 1962 C 177.656 0.393349 1.92217 0
M  V30 1963 O 176.781 -0.489441 2.10792 0
M  V30 1964 C 177.376 2.84144 1.8452 0
M  V30 1965 C 175.935 2.9198 2.37539 0
M  V30 1966 C 175.082 2.51482 1.16843 0
M  V30 1967 H 178.033 1.57236 0.215081 0
M  V30 1968 H 178.054 2.68098 2.70007 0
M  V30 1969 H 177.566 3.69607 1.18373 0
M  V30 1970 H 175.667 2.10955 3.0713 0
M  V30 1971 H 175.78 3.95704 2.70103 0
M  V30 1972 H 174.144 2.04758 1.51481 0
M  V30 1973 H 174.927 3.39293 0.523015 0
M  V30 1974 N 177.372 -0.689602 1.41712 0
M  V30 1975 C 178.618 -1.45181 1.41599 0
M  V30 1976 C 178.951 -1.94181 0.0270081 0
M  V30 1977 O 178.226 -1.6993 -0.946265 0
M  V30 1978 C 178.509 -2.65945 2.42787 0
M  V30 1979 C 178.362 -2.22672 3.90816 0
M  V30 1980 C 179.681 -3.68149 2.41151 0
M  V30 1981 H 176.8 -0.526576 0.515642 0
M  V30 1982 H 179.442 -0.784947 1.73028 0
M  V30 1983 H 177.592 -3.2284 2.16116 0
M  V30 1984 H 179.264 -1.71058 4.28412 0
M  V30 1985 H 177.507 -1.54394 4.05395 0
M  V30 1986 H 178.178 -3.0935 4.57172 0
M  V30 1987 H 180.654 -3.2094 2.64834 0
M  V30 1988 H 179.53 -4.50248 3.13955 0
M  V30 1989 H 179.791 -4.18259 1.43221 0
M  V30 1990 N 178.85 -1.27639 -0.924453 0
M  V30 1991 C 180.099 -1.13549 -1.66702 0
M  V30 1992 C 180.412 0.317487 -1.93006 0
M  V30 1993 O 181.618 0.579333 -2.65247 0
M  V30 1994 C 180.074 -1.98426 -3.00259 0
M  V30 1995 C 179.682 -3.484 -2.81641 0
M  V30 1996 C 181.426 -1.92993 -3.78092 0
M  V30 1997 C 179.333 -4.25464 -4.10773 0
M  V30 1998 H 178.263 -0.421351 -0.625283 0
M  V30 1999 H 180.914 -1.52085 -1.02676 0
M  V30 2000 H 179.296 -1.52736 -3.6536 0
M  V30 2001 H 180.47 -4.01973 -2.25287 0
M  V30 2002 H 178.785 -3.55245 -2.17232 0
M  V30 2003 H 181.382 -2.47844 -4.7379 0
M  V30 2004 H 181.725 -0.904281 -4.0636 0
M  V30 2005 H 182.258 -2.36595 -3.19793 0
M  V30 2006 H 178.997 -5.28566 -3.87683 0
M  V30 2007 H 178.517 -3.76667 -4.66779 0
M  V30 2008 H 180.196 -4.34812 -4.79111 0
M  V30 2009 N 180.328 1.1314 -1.09713 0
M  V30 2010 C 181.575 1.84484 -0.834987 0
M  V30 2011 C 181.903 1.83689 0.639418 0
M  V30 2012 O 181.158 1.2724 1.4869 0
M  V30 2013 C 181.457 3.32167 -1.3191 0
M  V30 2014 C 181.123 3.53139 -2.80363 0
M  V30 2015 C 179.785 3.58571 -3.20905 0
M  V30 2016 C 182.137 3.60866 -3.76065 0
M  V30 2017 C 179.465 3.69267 -4.55916 0
M  V30 2018 C 181.817 3.73089 -5.10869 0
M  V30 2019 C 180.481 3.76775 -5.50996 0
M  V30 2020 H 179.751 0.675073 -0.305544 0
M  V30 2021 H 182.398 1.33554 -1.37243 0
M  V30 2022 H 180.703 3.85469 -0.701517 0
M  V30 2023 H 182.4 3.85821 -1.09284 0
M  V30 2024 H 178.99 3.49569 -2.47991 0
M  V30 2025 H 183.174 3.55946 -3.45855 0
M  V30 2026 H 178.43 3.70388 -4.86438 0
M  V30 2027 H 182.604 3.78011 -5.84877 0
M  V30 2028 H 180.231 3.84815 -6.55608 0
M  V30 2029 N 181.806 0.884767 1.30421 0
M  V30 2030 C 182.753 0.349642 2.28136 0
M  V30 2031 C 183.723 -0.560061 1.56373 0
M  V30 2032 O 184.908 -0.488524 1.8444 0
M  V30 2033 C 182.048 -0.42999 3.42411 0
M  V30 2034 C 181.161 0.508907 4.28992 0
M  V30 2035 C 180.296 -0.286301 5.30428 0
M  V30 2036 C 179.335 0.648079 6.08659 0
M  V30 2037 N 178.472 -0.111792 7.02011 0
M  V30 2038 H 183.312 1.18807 2.73293 0
M  V30 2039 H 180.849 0.597231 1.3443 0
M  V30 2040 H 182.807 -0.897923 4.07423 0
M  V30 2041 H 181.437 -1.23299 2.98324 0
M  V30 2042 H 180.489 1.09533 3.64289 0
M  V30 2043 H 181.801 1.22475 4.8353 0
M  V30 2044 H 180.955 -0.816098 6.01186 0
M  V30 2045 H 179.694 -1.03536 4.76583 0
M  V30 2046 H 178.699 1.18951 5.36778 0
M  V30 2047 H 179.924 1.39623 6.64592 0
M  V30 2048 H 177.87 -0.843395 6.50556 0
M  V30 2049 H 177.787 0.544429 7.54037 0
M  V30 2050 H 179.055 -0.622339 7.77012 0
M  V30 2051 N 183.284 -1.43765 0.645699 0
M  V30 2052 C 184.216 -2.29027 -0.0890605 0
M  V30 2053 C 185.229 -1.42093 -0.794563 0
M  V30 2054 O 186.418 -1.66104 -0.653575 0
M  V30 2055 C 183.518 -3.18831 -1.14891 0
M  V30 2056 C 182.691 -4.34261 -0.523043 0
M  V30 2057 C 181.75 -5.04994 -1.47878 0
M  V30 2058 O 180.776 -5.6052 -0.990277 0
M  V30 2059 N 181.978 -5.07795 -2.81291 0
M  V30 2060 H 184.743 -2.92727 0.64272 0
M  V30 2061 H 182.304 -1.54373 0.487924 0
M  V30 2062 H 184.296 -3.63015 -1.78892 0
M  V30 2063 H 182.866 -2.56782 -1.78275 0
M  V30 2064 H 182.086 -3.93088 0.295896 0
M  V30 2065 H 183.374 -5.08728 -0.0858147 0
M  V30 2066 H 182.772 -4.64042 -3.23546 0
M  V30 2067 H 181.329 -5.55721 -3.40614 0
M  V30 2068 N 184.763 -0.387143 -1.52771 0
M  V30 2069 C 185.695 0.484089 -2.2403 0
M  V30 2070 C 186.708 1.02849 -1.26198 0
M  V30 2071 O 187.897 0.931186 -1.52286 0
M  V30 2072 C 184.997 1.68337 -2.94136 0
M  V30 2073 C 184.17 1.26672 -4.18656 0
M  V30 2074 C 183.229 2.33045 -4.7178 0
M  V30 2075 O 182.255 1.94541 -5.34923 0
M  V30 2076 N 183.457 3.64929 -4.5145 0
M  V30 2077 H 186.222 -0.126404 -2.99433 0
M  V30 2078 H 183.783 -0.213392 -1.60488 0
M  V30 2079 H 185.775 2.39019 -3.26577 0
M  V30 2080 H 184.345 2.20025 -2.22053 0
M  V30 2081 H 183.565 0.388878 -3.92277 0
M  V30 2082 H 184.853 0.964964 -4.99566 0
M  V30 2083 H 184.251 3.98974 -4.01044 0
M  V30 2084 H 182.808 4.31651 -4.88386 0
M  V30 2085 N 186.241 1.57166 -0.116904 0
M  V30 2086 C 187.469 1.99473 0.549383 0
M  V30 2087 C 187.884 0.996541 1.60357 0
M  V30 2088 O 187.241 -0.0108731 1.82497 0
M  V30 2089 C 187.292 3.41788 1.17741 0
M  V30 2090 O 187.013 4.37788 0.165362 0
M  V30 2091 C 188.514 3.99216 1.92722 0
M  V30 2092 H 185.734 0.655009 0.145616 0
M  V30 2093 H 188.278 2.03494 -0.202625 0
M  V30 2094 H 186.433 3.38713 1.88021 0
M  V30 2095 H 186.847 5.20806 0.621403 0
M  V30 2096 H 188.321 5.00882 2.31995 0
M  V30 2097 H 188.798 3.3824 2.80161 0
M  V30 2098 H 189.404 4.0583 1.27209 0
M  V30 2099 N 187.719 -0.156864 1.56817 0
M  V30 2100 C 188.682 -1.17781 1.96622 0
M  V30 2101 C 189.682 -1.36401 0.851555 0
M  V30 2102 O 190.872 -1.33561 1.11836 0
M  V30 2103 C 188.004 -2.54008 2.27361 0
M  V30 2104 H 189.197 -0.836564 2.87996 0
M  V30 2105 H 186.75 -0.39985 1.51099 0
M  V30 2106 H 187.485 -2.9312 1.38748 0
M  V30 2107 H 187.27 -2.41856 3.08623 0
M  V30 2108 H 188.76 -3.27558 2.59029 0
M  V30 2109 N 189.197 -1.51736 -0.425897 0
M  V30 2110 C 190.145 -1.74464 -1.53834 0
M  V30 2111 C 191.139 -0.611241 -1.57988 0
M  V30 2112 O 192.345 -0.792899 -1.61596 0
M  V30 2113 H 188.72 -0.551437 -0.511293 0
M  V30 2114 H 190.691 -2.67694 -1.31843 0
M  V30 2115 C 189.44 -1.8972 -2.91379 0
M  V30 2116 H 188.763 -2.76344 -2.88919 0
M  V30 2117 H 190.203 -2.09629 -3.68553 0
M  V30 2118 C 188.662 -0.65992 -3.30374 0
M  V30 2119 O 189.192 0.180083 -4.01296 0
M  V30 2120 N 187.398 -0.500677 -2.86254 0
M  V30 2121 H 186.945 -1.18532 -2.28709 0
M  V30 2122 H 186.903 0.325903 -3.12706 0
M  V30 2123 N 190.675 0.682077 -1.42076 0
M  V30 2124 C 192.091 0.994324 -1.24841 0
M  V30 2125 C 192.291 2.0096 -0.147389 0
M  V30 2126 O 191.347 2.47822 0.483782 0
M  V30 2127 C 192.66 1.50607 -2.60265 0
M  V30 2128 C 194.208 1.62421 -2.6756 0
M  V30 2129 C 194.683 2.16994 -4.03333 0
M  V30 2130 N 196.174 2.24337 -4.0525 0
M  V30 2131 C 196.909 2.67621 -5.07116 0
M  V30 2132 N 196.405 3.1041 -6.19368 0
M  V30 2133 N 198.198 2.67305 -4.94474 0
M  V30 2134 H 190.349 0.00973908 -2.12398 0
M  V30 2135 H 192.612 0.0668593 -0.945639 0
M  V30 2136 H 192.318 0.834583 -3.41654 0
M  V30 2137 H 192.192 2.48602 -2.83684 0
M  V30 2138 H 194.579 2.28678 -1.86521 0
M  V30 2139 H 194.66 0.629352 -2.47937 0
M  V30 2140 H 194.304 1.51349 -4.84826 0
M  V30 2141 H 194.234 3.17258 -4.20304 0
M  V30 2142 H 196.725 1.94158 -3.24209 0
M  V30 2143 H 197.038 3.42103 -6.92954 0
M  V30 2144 H 195.383 3.08286 -6.22884 0
M  V30 2145 H 198.574 2.33233 -4.05857 0
M  V30 2146 H 198.747 3.00718 -5.73997 0
M  V30 2147 N 192.153 1.28127 0.917671 0
M  V30 2148 C 193.086 1.06039 2.02067 0
M  V30 2149 C 194.064 -0.0223285 1.62585 0
M  V30 2150 O 195.248 0.124823 1.88086 0
M  V30 2151 C 192.375 0.610596 3.33151 0
M  V30 2152 C 191.421 1.68937 3.91615 0
M  V30 2153 S 192.254 3.28437 4.22953 0
M  V30 2154 C 193.41 2.85283 5.57103 0
M  V30 2155 H 193.643 1.99425 2.20493 0
M  V30 2156 H 191.176 1.12071 1.06205 0
M  V30 2157 H 193.134 0.357778 4.08938 0
M  V30 2158 H 191.795 -0.303364 3.12632 0
M  V30 2159 H 190.988 1.32619 4.86239 0
M  V30 2160 H 190.59 1.89478 3.2245 0
M  V30 2161 H 192.882 2.3121 6.36827 0
M  V30 2162 H 193.825 3.7869 5.98331 0
M  V30 2163 H 194.233 2.24118 5.18104 0
M  V30 2164 N 193.631 -1.12557 1.10312 0
M  V30 2165 C 195.047 -1.36036 0.834649 0
M  V30 2166 C 195.247 -1.93946 -0.546539 0
M  V30 2167 O 194.303 -2.16484 -1.29966 0
M  V30 2168 C 195.616 -2.30312 1.9333 0
M  V30 2169 C 197.164 -2.43906 1.9616 0
M  V30 2170 C 197.639 -3.41496 3.05195 0
M  V30 2171 N 199.13 -3.49053 3.04494 0
M  V30 2172 C 199.865 -4.24471 3.85502 0
M  V30 2173 N 199.361 -5.02966 4.76442 0
M  V30 2174 N 201.154 -4.19864 3.73725 0
M  V30 2175 H 193.305 -0.733246 1.99342 0
M  V30 2176 H 195.568 -0.385234 0.866198 0
M  V30 2177 H 195.274 -1.94933 2.92735 0
M  V30 2178 H 195.148 -3.30421 1.81939 0
M  V30 2179 H 197.535 -2.78567 0.973886 0
M  V30 2180 H 197.616 -1.4369 2.11629 0
M  V30 2181 H 197.26 -3.07565 4.04186 0
M  V30 2182 H 197.19 -4.41539 2.86968 0
M  V30 2183 H 199.681 -2.93053 2.38596 0
M  V30 2184 H 199.994 -5.57846 5.34815 0
M  V30 2185 H 198.339 -5.02167 4.80472 0
M  V30 2186 H 201.53 -3.57623 3.02032 0
M  V30 2187 H 201.703 -4.78386 4.37093 0
M  V30 2188 N 195.109 -0.891671 -1.2995 0
M  V30 2189 C 196.057 -0.353066 -2.29905 0
M  V30 2190 C 197.051 0.543509 -1.60444 0
M  V30 2191 O 198.257 0.4272 -1.74857 0
M  V30 2192 H 194.632 -0.095531 -0.745907 0
M  V30 2193 H 196.603 -1.20961 -2.72784 0
M  V30 2194 C 195.352 0.411475 -3.45257 0
M  V30 2195 H 194.675 -0.269182 -3.98893 0
M  V30 2196 H 196.115 0.753328 -4.17254 0
M  V30 2197 C 194.574 1.6111 -2.9588 0
M  V30 2198 O 195.104 2.71045 -2.96475 0
M  V30 2199 N 193.31 1.45054 -2.51809 0
M  V30 2200 H 192.857 0.556175 -2.51524 0
M  V30 2201 H 192.815 2.25453 -2.1913 0
M  V30 2202 N 196.587 1.43421 -0.653314 0
M  V30 2203 C 198.003 1.56341 -0.320886 0
M  V30 2204 C 198.203 1.63696 1.17499 0
M  V30 2205 O 197.259 1.59208 1.95982 0
M  V30 2206 C 198.572 2.82424 -1.03233 0
M  V30 2207 C 200.12 2.96168 -1.01259 0
M  V30 2208 C 200.595 4.25084 -1.70492 0
M  V30 2209 N 202.086 4.31948 -1.67257 0
M  V30 2210 C 202.821 5.30466 -2.17701 0
M  V30 2211 N 202.317 6.35261 -2.76434 0
M  V30 2212 N 204.11 5.2212 -2.082 0
M  V30 2213 H 196.261 1.3689 -1.62403 0
M  V30 2214 H 198.524 0.657455 -0.682977 0
M  V30 2215 H 198.23 2.83053 -2.08744 0
M  V30 2216 H 198.104 3.72653 -0.583948 0
M  V30 2217 H 200.491 2.9508 0.0341235 0
M  V30 2218 H 200.572 2.07229 -1.49966 0
M  V30 2219 H 200.216 4.26932 -2.7512 0
M  V30 2220 H 200.146 5.1292 -1.19251 0
M  V30 2221 H 202.637 3.56838 -1.24398 0
M  V30 2222 H 202.95 7.06754 -3.12601 0
M  V30 2223 H 201.295 6.35884 -2.80495 0
M  V30 2224 H 204.486 4.39166 -1.62021 0
M  V30 2225 H 204.659 5.98739 -2.47822 0
M  V30 2226 N 198.065 0.39524 1.52563 0
M  V30 2227 C 198.995 -0.428384 2.29537 0
M  V30 2228 C 199.976 -1.05831 1.33169 0
M  V30 2229 O 201.161 -1.06995 1.62067 0
M  V30 2230 C 198.291 -1.55274 3.10656 0
M  V30 2231 C 197.245 -1.04855 4.14957 0
M  V30 2232 C 196.571 -2.26543 4.84337 0
M  V30 2233 C 197.871 -0.112324 5.22179 0
M  V30 2234 H 199.565 0.213867 2.98635 0
M  V30 2235 H 197.111 0.104298 1.43622 0
M  V30 2236 H 199.064 -2.1358 3.63265 0
M  V30 2237 H 197.788 -2.22266 2.39302 0
M  V30 2238 H 196.447 -0.487985 3.63338 0
M  V30 2239 H 196.095 -2.92059 4.09525 0
M  V30 2240 H 195.795 -1.93466 5.54837 0
M  V30 2241 H 197.319 -2.85481 5.39753 0
M  V30 2242 H 198.733 -0.603752 5.70112 0
M  V30 2243 H 197.13 0.128968 5.99961 0
M  V30 2244 H 198.2 0.837052 4.77621 0
M  V30 2245 N 199.544 -1.57102 0.125237 0
M  V30 2246 C 200.476 -2.12726 -0.853237 0
M  V30 2247 C 201.489 -1.07145 -1.22571 0
M  V30 2248 O 202.678 -1.34497 -1.17358 0
M  V30 2249 C 199.778 -2.61709 -2.15317 0
M  V30 2250 C 198.951 -3.91456 -1.95143 0
M  V30 2251 C 198.01 -4.25973 -3.08923 0
M  V30 2252 O 197.036 -4.94682 -2.81564 0
M  V30 2253 N 198.238 -3.83795 -4.35524 0
M  V30 2254 H 201.003 -2.97307 -0.377964 0
M  V30 2255 H 198.564 -1.61792 -0.0590011 0
M  V30 2256 H 200.556 -2.81826 -2.90441 0
M  V30 2257 H 199.126 -1.81974 -2.54174 0
M  V30 2258 H 198.346 -3.80185 -1.04177 0
M  V30 2259 H 199.634 -4.76283 -1.78976 0
M  V30 2260 H 199.032 -3.2839 -4.60626 0
M  V30 2261 H 197.589 -4.09008 -5.07499 0
M  V30 2262 N 201.022 0.148545 -1.56898 0
M  V30 2263 C 202.268 0.862694 -1.83536 0
M  V30 2264 C 202.601 1.80889 -0.706604 0
M  V30 2265 O 201.876 1.92328 0.289885 0
M  V30 2266 C 202.159 1.63853 -3.20662 0
M  V30 2267 C 202.012 0.713925 -4.44098 0
M  V30 2268 C 203.331 2.60133 -3.54991 0
M  V30 2269 H 200.45 0.312179 -0.667618 0
M  V30 2270 H 203.092 0.127953 -1.89569 0
M  V30 2271 H 201.242 2.26489 -3.1565 0
M  V30 2272 H 202.914 0.098686 -4.61194 0
M  V30 2273 H 201.157 0.0234019 -4.33794 0
M  V30 2274 H 201.828 1.29278 -5.36648 0
M  V30 2275 H 204.304 2.07616 -3.60603 0
M  V30 2276 H 203.18 3.11468 -4.51972 0
M  V30 2277 H 203.441 3.41417 -2.80868 0
M  V30 2278 N 202.5 1.5196 0.417844 0
M  V30 2279 C 203.747 1.65591 1.16559 0
M  V30 2280 C 204.075 0.381565 1.90721 0
M  V30 2281 O 203.33 -0.635156 1.85106 0
M  V30 2282 C 203.629 2.82269 2.19223 0
M  V30 2283 C 203.295 4.20819 1.61933 0
M  V30 2284 C 201.957 4.58506 1.46033 0
M  V30 2285 C 204.309 5.07196 1.20008 0
M  V30 2286 C 201.637 5.80257 0.867113 0
M  V30 2287 C 203.989 6.29544 0.621086 0
M  V30 2288 C 202.653 6.65987 0.449144 0
M  V30 2289 H 201.923 0.605939 0.42652 0
M  V30 2290 H 204.57 1.86041 0.45397 0
M  V30 2291 H 202.875 2.56118 2.96498 0
M  V30 2292 H 204.572 2.90012 2.76936 0
M  V30 2293 H 201.162 3.91116 1.7529 0
M  V30 2294 H 205.346 4.7867 1.31105 0
M  V30 2295 H 200.602 6.07124 0.721833 0
M  V30 2296 H 204.776 6.95805 0.287798 0
M  V30 2297 H 202.403 7.60199 -0.012632 0
M  V30 2298 N 203.978 -0.674533 1.42435 0
M  V30 2299 C 205.389 -1.25514 1.38214 0
M  V30 2300 C 205.74 -1.96055 0.0755464 0
M  V30 2301 O 204.865 -2.00028 -0.8257 0
M  V30 2302 C 205.46 -2.28269 2.50357 0
M  V30 2303 C 204.019 -2.81856 2.49467 0
M  V30 2304 C 203.166 -1.56182 2.29134 0
M  V30 2305 H 206.117 -0.467902 1.51646 0
M  V30 2306 H 206.138 -3.10009 2.20624 0
M  V30 2307 H 205.65 -1.769 3.45439 0
M  V30 2308 H 203.751 -3.37346 1.58204 0
M  V30 2309 H 203.864 -3.30854 3.46515 0
M  V30 2310 H 202.228 -1.82761 1.774 0
M  V30 2311 H 203.011 -1.06778 3.26272 0
M  V30 2312 N 205.456 -1.28612 -0.910864 0
M  V30 2313 C 206.366 -1.14643 -2.0468 0
M  V30 2314 C 207.382 -0.0723121 -1.7385 0
M  V30 2315 O 208.558 -0.282178 -1.99413 0
M  V30 2316 C 205.623 -0.812561 -3.37044 0
M  V30 2317 C 204.684 -1.96935 -3.81465 0
M  V30 2318 C 203.917 -1.65131 -5.07511 0
M  V30 2319 O 204.14 -0.567013 -5.67575 0
M  V30 2320 O 203.074 -2.49585 -5.47714 0
M  V30 2321 H 206.9 -2.1001 -2.19384 0
M  V30 2322 H 204.485 -1.07958 -1.03274 0
M  V30 2323 H 206.367 -0.640441 -4.16505 0
M  V30 2324 H 205.042 0.111426 -3.23508 0
M  V30 2325 H 203.949 -2.19664 -3.02818 0
M  V30 2326 H 205.282 -2.87414 -3.99567 0
M  V30 2327 N 206.934 1.1197 -1.10907 0
M  V30 2328 C 207.864 2.19928 -0.784473 0
M  V30 2329 C 208.845 1.6833 0.244726 0
M  V30 2330 O 210.03 1.93892 0.109418 0
M  V30 2331 C 207.16 3.46597 -0.220827 0
M  V30 2332 C 206.114 4.11376 -1.18127 0
M  V30 2333 C 205.44 5.32554 -0.478594 0
M  V30 2334 C 206.74 4.56945 -2.52979 0
M  V30 2335 H 208.434 2.47337 -1.68715 0
M  V30 2336 H 205.98 1.18879 -0.812642 0
M  V30 2337 H 207.933 4.21396 0.0184278 0
M  V30 2338 H 206.657 3.1863 0.717113 0
M  V30 2339 H 205.316 3.38564 -1.40606 0
M  V30 2340 H 204.964 5.00856 0.463976 0
M  V30 2341 H 204.664 5.76844 -1.11912 0
M  V30 2342 H 206.188 6.10096 -0.248 0
M  V30 2343 H 207.602 5.23093 -2.3462 0
M  V30 2344 H 205.999 5.1203 -3.12962 0
M  V30 2345 H 207.069 3.70676 -3.12614 0
M  V30 2346 N 208.412 0.89855 1.29475 0
M  V30 2347 C 209.322 0.379974 2.31502 0
M  V30 2348 C 210.338 -0.524695 1.659 0
M  V30 2349 O 211.514 -0.414551 1.97087 0
M  V30 2350 C 208.579 -0.385138 3.44554 0
M  V30 2351 C 207.64 0.550914 4.2575 0
M  V30 2352 C 206.873 -0.177778 5.33404 0
M  V30 2353 O 207.096 -1.40189 5.52904 0
M  V30 2354 O 206.03 0.479106 5.9999 0
M  V30 2355 H 209.856 1.22639 2.77837 0
M  V30 2356 H 207.441 0.662834 1.33891 0
M  V30 2357 H 209.323 -0.817841 4.13388 0
M  V30 2358 H 207.998 -1.20763 3.0033 0
M  V30 2359 H 206.905 1.03271 3.59564 0
M  V30 2360 H 208.238 1.33979 4.73614 0
M  V30 2361 N 209.89 -1.43072 0.660911 0
M  V30 2362 C 211.118 -2.06067 0.185422 0
M  V30 2363 C 211.533 -1.49582 -1.15198 0
M  V30 2364 O 210.89 -0.630134 -1.71276 0
M  V30 2365 C 210.941 -3.61371 0.0966523 0
M  V30 2366 O 210.662 -4.15758 1.38119 0
M  V30 2367 C 212.163 -4.41455 -0.403996 0
M  V30 2368 H 209.383 -0.664459 0.0934604 0
M  V30 2369 H 211.927 -1.83447 0.90373 0
M  V30 2370 H 210.082 -3.8315 -0.572259 0
M  V30 2371 H 210.496 -5.09499 1.24542 0
M  V30 2372 H 211.97 -5.50437 -0.415045 0
M  V30 2373 H 212.447 -4.15036 -1.43674 0
M  V30 2374 H 213.053 -4.24663 0.232691 0
M  V30 2375 N 211.368 -0.403325 -1.52352 0
M  V30 2376 C 212.316 0.439752 -2.28405 0
M  V30 2377 C 213.31 1.05089 -1.32863 0
M  V30 2378 O 214.516 0.989759 -1.50345 0
M  V30 2379 H 210.891 0.160587 -0.734653 0
M  V30 2380 H 212.862 -0.222983 -2.97566 0
M  V30 2381 C 211.611 1.54736 -3.11371 0
M  V30 2382 H 210.934 1.08643 -3.84755 0
M  V30 2383 H 212.374 2.1112 -3.67701 0
M  V30 2384 C 210.833 2.51141 -2.24566 0
M  V30 2385 O 211.363 3.54887 -1.88196 0
M  V30 2386 N 209.569 2.21213 -1.8845 0
M  V30 2387 H 209.116 1.36878 -2.18225 0
M  V30 2388 H 209.074 2.85963 -1.30662 0
M  V30 2389 N 212.846 1.57033 -0.133567 0
M  V30 2390 C 213.809 2.14897 0.796995 0
M  V30 2391 C 214.809 1.0874 1.18458 0
M  V30 2392 O 215.999 1.34446 1.1077 0
M  V30 2393 C 213.131 2.70112 2.07973 0
M  V30 2394 H 214.324 2.98457 0.293873 0
M  V30 2395 H 211.877 1.55871 0.115787 0
M  V30 2396 H 212.612 1.9018 2.62682 0
M  V30 2397 H 212.397 3.47764 1.81115 0
M  V30 2398 H 213.887 3.14738 2.74462 0
M  V30 2399 N 214.325 -0.140222 1.56975 0
M  V30 2400 C 215.571 -0.852949 1.83991 0
M  V30 2401 C 215.904 -1.80512 0.716187 0
M  V30 2402 O 215.179 -1.92479 -0.279681 0
M  V30 2403 C 215.462 -1.6215 3.21527 0
M  V30 2404 C 215.315 -0.690363 4.4447 0
M  V30 2405 C 216.634 -2.58247 3.56366 0
M  V30 2406 H 213.753 -0.308634 0.669264 0
M  V30 2407 H 216.395 -0.117898 1.89634 0
M  V30 2408 H 214.545 -2.24812 3.16847 0
M  V30 2409 H 216.217 -0.0742264 4.6124 0
M  V30 2410 H 214.46 -0.000396433 4.338 0
M  V30 2411 H 215.131 -1.2643 5.37326 0
M  V30 2412 H 217.607 -2.05701 3.61699 0
M  V30 2413 H 216.483 -3.09067 4.53617 0
M  V30 2414 H 216.744 -3.39923 2.82674 0
M  V30 2415 N 215.803 -1.52179 -0.40978 0
M  V30 2416 C 216.733 -1.78435 -1.5061 0
M  V30 2417 C 217.714 -0.635295 -1.57791 0
M  V30 2418 O 218.899 -0.880823 -1.73076 0
M  V30 2419 C 216.029 -1.93444 -2.88439 0
M  V30 2420 C 214.983 -3.09038 -2.96108 0
M  V30 2421 C 214.309 -3.09268 -4.36185 0
M  V30 2422 C 215.609 -4.48508 -2.67652 0
M  V30 2423 H 217.303 -2.70237 -1.28889 0
M  V30 2424 H 214.849 -1.30036 -0.618605 0
M  V30 2425 H 216.802 -2.10394 -3.65119 0
M  V30 2426 H 215.526 -0.983129 -3.11452 0
M  V30 2427 H 214.185 -2.91837 -2.21872 0
M  V30 2428 H 213.833 -2.11861 -4.56206 0
M  V30 2429 H 213.533 -3.86907 -4.42241 0
M  V30 2430 H 215.057 -3.28348 -5.14801 0
M  V30 2431 H 216.471 -4.65918 -3.34056 0
M  V30 2432 H 214.868 -5.28059 -2.85085 0
M  V30 2433 H 215.938 -4.56649 -1.63095 0
M  V30 2434 N 217.281 0.66697 -1.42791 0
M  V30 2435 C 218.214 1.79177 -1.41318 0
M  V30 2436 C 219.192 1.60234 -0.276401 0
M  V30 2437 O 220.376 1.82602 -0.46785 0
M  V30 2438 C 217.503 3.16289 -1.21157 0
M  V30 2439 C 216.549 3.53964 -2.37932 0
M  V30 2440 S 217.382 3.55501 -4.00474 0
M  V30 2441 C 218.538 4.95292 -3.8267 0
M  V30 2442 H 218.771 1.80153 -2.365 0
M  V30 2443 H 216.304 0.838357 -1.29657 0
M  V30 2444 H 218.262 3.95428 -1.10212 0
M  V30 2445 H 216.923 3.1289 -0.275481 0
M  V30 2446 H 216.116 4.53646 -2.19594 0
M  V30 2447 H 215.718 2.82204 -2.45432 0
M  V30 2448 H 218.01 5.83584 -3.44145 0
M  V30 2449 H 218.953 5.18679 -4.82055 0
M  V30 2450 H 219.361 4.68179 -3.15386 0
M  V30 2451 N 218.759 1.29093 0.90403 0
M  V30 2452 C 220.005 1.16986 1.65656 0
M  V30 2453 C 220.338 -0.278925 1.92186 0
M  V30 2454 O 219.613 -1.2019 1.5292 0
M  V30 2455 C 219.896 1.97908 3.0084 0
M  V30 2456 C 219.749 3.50903 2.81403 0
M  V30 2457 C 221.068 1.80208 4.01513 0
M  V30 2458 H 218.187 0.426346 0.601164 0
M  V30 2459 H 220.829 1.58518 1.04747 0
M  V30 2460 H 218.979 1.62616 3.52829 0
M  V30 2461 H 220.651 3.96153 2.36348 0
M  V30 2462 H 218.894 3.76045 2.1627 0
M  V30 2463 H 219.565 4.02791 3.77443 0
M  V30 2464 H 222.041 2.11025 3.58619 0
M  V30 2465 H 220.917 2.39184 4.94047 0
M  V30 2466 H 221.178 0.756119 4.35586 0
M  V30 2467 N 220.237 -1.11381 1.11499 0
M  V30 2468 C 221.514 -1.7955 0.775965 0
M  V30 2469 C 221.894 -1.97859 -0.73588 0
M  V30 2470 O 221.242 -1.56376 -1.66609 0
M  V30 2471 C 221.452 -3.13196 1.53977 0
M  V30 2472 C 222.8 -3.88227 1.71944 0
M  V30 2473 O 223.824 -3.22887 1.50407 0
M  V30 2474 O 222.683 -5.05477 2.07738 0
M  V30 2475 H 219.777 -0.777728 0.28119 0
M  V30 2476 H 222.323 -1.18118 1.21845 0
M  V30 2477 H 221.095 -2.95229 2.56818 0
M  V30 2478 H 220.718 -3.82342 1.09088 0
M  V30 2479 N 221.715 -0.905404 -1.28997 0
M  V30 2480 C 222.992 -0.453513 -1.9027 0
M  V30 2481 C 223.372 1.06721 -1.82137 0
M  V30 2482 O 222.72 1.91159 -1.25182 0
M  V30 2483 C 222.93 -0.974494 -3.35119 0
M  V30 2484 C 224.278 -1.0216 -4.12127 0
M  V30 2485 O 225.302 -0.922557 -3.44046 0
M  V30 2486 O 224.161 -1.17121 -5.33802 0
M  V30 2487 H 221.255 -0.142347 -0.814657 0
M  V30 2488 H 223.801 -0.995642 -1.37423 0
M  V30 2489 H 222.573 -2.01848 -3.35221 0
M  V30 2490 H 222.196 -0.412706 -3.95452 0
M  V30 2491 N 223.193 1.4272 -0.668489 0
M  V30 2492 C 224.47 1.95248 -0.117373 0
M  V30 2493 C 224.85 1.60919 1.36632 0
M  V30 2494 O 224.198 0.902095 2.09939 0
M  V30 2495 C 224.408 3.46927 -0.379806 0
M  V30 2496 C 225.756 4.23588 -0.292923 0
M  V30 2497 O 226.78 3.5482 -0.313204 0
M  V30 2498 O 225.639 5.46017 -0.229697 0
M  V30 2499 H 222.733 0.827 0.00079152 0
M  V30 2500 H 225.279 1.52581 -0.742783 0
M  V30 2501 H 224.051 3.65096 -1.40786 0
M  V30 2502 H 223.674 3.96627 0.277923 0
M  V30 2503 N 224.671 0.411399 1.52136 0
M  V30 2504 C 225.899 -0.163076 2.06256 0
M  V30 2505 C 226.314 -1.3867 1.28125 0
M  V30 2506 O 225.671 -1.79423 0.333721 0
M  V30 2507 C 225.722 -0.511252 3.57867 0
M  V30 2508 O 225.443 0.66378 4.33042 0
M  V30 2509 C 226.944 -1.13921 4.28412 0
M  V30 2510 H 224.164 -0.0193897 0.67072 0
M  V30 2511 H 226.708 0.583007 1.96013 0
M  V30 2512 H 224.863 -1.20723 3.6811 0
M  V30 2513 H 225.277 0.372601 5.23175 0
M  V30 2514 H 226.751 -1.33302 5.35663 0
M  V30 2515 H 227.228 -2.11296 3.85033 0
M  V30 2516 H 227.834 -0.483373 4.22544 0
M  V30 2517 N 226.149 -1.5696 0.141893 0
M  V30 2518 C 227.079 -2.19516 -0.795936 0
M  V30 2519 C 228.06 -1.14187 -1.26077 0
M  V30 2520 O 229.245 -1.42511 -1.31925 0
M  V30 2521 C 226.375 -2.81272 -2.03723 0
M  V30 2522 C 225.329 -3.92384 -1.70936 0
M  V30 2523 C 224.655 -4.41052 -3.02287 0
M  V30 2524 C 225.955 -5.13403 -0.959954 0
M  V30 2525 H 227.649 -2.98138 -0.274596 0
M  V30 2526 H 225.195 -1.43406 -0.130636 0
M  V30 2527 H 227.148 -3.237 -2.69808 0
M  V30 2528 H 225.872 -1.99973 -2.58221 0
M  V30 2529 H 224.531 -3.50566 -1.07232 0
M  V30 2530 H 224.179 -3.56582 -3.54765 0
M  V30 2531 H 223.879 -5.15993 -2.81114 0
M  V30 2532 H 225.403 -4.86146 -3.69451 0
M  V30 2533 H 226.817 -5.52706 -1.52279 0
M  V30 2534 H 225.214 -5.94073 -0.848357 0
M  V30 2535 H 226.284 -4.84875 0.0492434 0
M  V30 2536 N 227.627 0.131896 -1.57047 0
M  V30 2537 C 228.876 0.84044 -1.83356 0
M  V30 2538 C 229.189 1.81646 -0.725535 0
M  V30 2539 O 230.395 2.57025 -0.874659 0
M  V30 2540 C 228.851 1.54528 -3.25037 0
M  V30 2541 C 228.459 0.610902 -4.43815 0
M  V30 2542 C 230.203 2.23972 -3.60606 0
M  V30 2543 C 228.11 1.31823 -5.76521 0
M  V30 2544 H 227.04 0.317599 -0.683847 0
M  V30 2545 H 229.691 0.0931561 -1.83263 0
M  V30 2546 H 228.073 2.33873 -3.19561 0
M  V30 2547 H 229.247 -0.148407 -4.60561 0
M  V30 2548 H 227.562 0.0241016 -4.16393 0
M  V30 2549 H 230.159 2.77558 -4.57018 0
M  V30 2550 H 230.502 3.01173 -2.87403 0
M  V30 2551 H 231.035 1.51529 -3.6781 0
M  V30 2552 H 227.774 0.587771 -6.52859 0
M  V30 2553 H 227.294 2.04987 -5.63685 0
M  V30 2554 H 228.973 1.855 -6.19838 0
M  V30 2555 N 229.106 1.52395 0.401703 0
M  V30 2556 C 230.331 1.70972 1.17403 0
M  V30 2557 C 230.756 0.421615 1.83314 0
M  V30 2558 O 230.114 -0.621564 1.70312 0
M  V30 2559 C 230.162 2.85151 2.20728 0
M  V30 2560 O 229.266 2.51238 3.27037 0
M  V30 2561 H 228.607 0.568927 0.342372 0
M  V30 2562 H 231.137 1.99131 0.469891 0
M  V30 2563 H 231.147 3.10279 2.64936 0
M  V30 2564 H 229.822 3.78603 1.7214 0
M  V30 2565 H 228.399 2.36808 2.88057 0
M  V30 2566 N 230.584 -0.659388 1.43143 0
M  V30 2567 C 231.812 -1.44723 1.47861 0
M  V30 2568 C 232.227 -1.88563 0.0945886 0
M  V30 2569 O 231.584 -1.59108 -0.893915 0
M  V30 2570 C 231.635 -2.68627 2.41913 0
M  V30 2571 O 231.356 -2.26623 3.74932 0
M  V30 2572 C 232.857 -3.62045 2.55809 0
M  V30 2573 H 230.077 -0.444801 0.502387 0
M  V30 2574 H 232.621 -0.808916 1.87821 0
M  V30 2575 H 230.776 -3.28613 2.05164 0
M  V30 2576 H 231.19 -3.06745 4.2545 0
M  V30 2577 H 232.664 -4.45666 3.25708 0
M  V30 2578 H 233.141 -4.08981 1.60099 0
M  V30 2579 H 233.747 -3.07944 2.93344 0
M  V30 2580 N 232.062 -1.29571 -0.897171 0
M  V30 2581 C 233.473 -1.15964 -1.46319 0
M  V30 2582 C 233.824 0.244267 -1.94674 0
M  V30 2583 O 232.949 1.13998 -1.83939 0
M  V30 2584 C 233.544 -2.09906 -2.65942 0
M  V30 2585 C 232.103 -2.00314 -3.18671 0
M  V30 2586 C 231.25 -2.00687 -1.91363 0
M  V30 2587 H 234.201 -1.42019 -0.708268 0
M  V30 2588 H 234.222 -1.67276 -3.41759 0
M  V30 2589 H 233.734 -3.12075 -2.30718 0
M  V30 2590 H 231.835 -1.01242 -3.58582 0
M  V30 2591 H 231.948 -2.88102 -3.82798 0
M  V30 2592 H 230.312 -1.45319 -2.09175 0
M  V30 2593 H 231.095 -3.04566 -1.58413 0
M  V30 2594 N 233.54 1.10788 -1.12088 0
M  V30 2595 C 234.817 1.79136 -0.785476 0
M  V30 2596 C 235.197 1.98246 0.725377 0
M  V30 2597 O 234.545 1.57258 1.65778 0
M  V30 2598 C 234.755 3.12375 -1.55636 0
M  V30 2599 C 236.103 3.8731 -1.74001 0
M  V30 2600 O 237.127 3.22085 -1.52117 0
M  V30 2601 O 235.986 5.04369 -2.10415 0
M  V30 2602 H 233.08 0.776226 -0.285311 0
M  V30 2603 H 235.626 1.1747 -1.2247 0
M  V30 2604 H 234.398 2.93863 -2.5838 0
M  V30 2605 H 234.021 3.81758 -1.11114 0
M  V30 2606 N 235.018 0.912232 1.28515 0
M  V30 2607 C 235.948 0.416403 2.29757 0
M  V30 2608 C 236.929 -0.515194 1.6211 0
M  V30 2609 O 238.114 -0.423253 1.89532 0
M  V30 2610 C 235.244 -0.34572 3.45575 0
M  V30 2611 C 234.198 0.496599 4.25109 0
M  V30 2612 C 233.524 -0.393771 5.33248 0
M  V30 2613 C 234.824 1.75307 4.92001 0
M  V30 2614 H 236.518 1.26249 2.7148 0
M  V30 2615 H 234.064 0.608515 1.30511 0
M  V30 2616 H 236.017 -0.703422 4.15488 0
M  V30 2617 H 234.741 -1.2257 3.02728 0
M  V30 2618 H 233.4 0.8368 3.56922 0
M  V30 2619 H 233.048 -1.27225 4.86644 0
M  V30 2620 H 232.748 0.166209 5.87365 0
M  V30 2621 H 234.272 -0.747389 6.06009 0
M  V30 2622 H 235.686 1.46437 5.54283 0
M  V30 2623 H 234.083 2.25534 5.56106 0
M  V30 2624 H 235.153 2.48176 4.16577 0
M  V30 2625 N 236.496 -1.42363 0.676048 0
M  V30 2626 C 237.742 -2.0182 0.199125 0
M  V30 2627 C 238.075 -1.53339 -1.19168 0
M  V30 2628 O 237.35 -0.736124 -1.80032 0
M  V30 2629 C 237.633 -3.59331 0.235144 0
M  V30 2630 C 237.486 -4.17989 1.66149 0
M  V30 2631 C 238.805 -4.3813 -0.41595 0
M  V30 2632 H 235.924 -0.733293 0.0738311 0
M  V30 2633 H 238.566 -1.69368 0.86107 0
M  V30 2634 H 236.716 -3.87109 -0.328487 0
M  V30 2635 H 238.388 -4.0116 2.27747 0
M  V30 2636 H 236.631 -3.7377 2.20178 0
M  V30 2637 H 237.302 -5.27126 1.63837 0
M  V30 2638 H 239.778 -4.16051 0.0638529 0
M  V30 2639 H 238.654 -5.47717 -0.360115 0
M  V30 2640 H 238.915 -4.16101 -1.49373 0
M  V30 2641 N 237.974 -0.419461 -1.51915 0
M  V30 2642 C 239.221 0.152939 -2.01922 0
M  V30 2643 C 239.549 1.4426 -1.30458 0
M  V30 2644 O 238.804 1.91514 -0.402593 0
M  V30 2645 C 239.103 0.437067 -3.54717 0
M  V30 2646 C 238.769 -0.764632 -4.44369 0
M  V30 2647 C 237.431 -1.09423 -4.68594 0
M  V30 2648 C 239.783 -1.56713 -4.97082 0
M  V30 2649 C 237.111 -2.22732 -5.42777 0
M  V30 2650 C 239.463 -2.69107 -5.72507 0
M  V30 2651 C 238.127 -3.02541 -5.95 0
M  V30 2652 H 237.397 0.0559644 -0.738884 0
M  V30 2653 H 240.044 -0.562998 -1.83037 0
M  V30 2654 H 238.349 1.23469 -3.71837 0
M  V30 2655 H 240.046 0.893083 -3.90928 0
M  V30 2656 H 236.636 -0.497775 -4.257 0
M  V30 2657 H 240.82 -1.32571 -4.78266 0
M  V30 2658 H 236.076 -2.48971 -5.58411 0
M  V30 2659 H 240.25 -3.31671 -6.12346 0
M  V30 2660 H 237.877 -3.90457 -6.52264 0
M  V30 2661 N 239.452 1.56882 -0.150215 0
M  V30 2662 C 240.415 2.1573 0.774157 0
M  V30 2663 C 241.415 1.0999 1.17298 0
M  V30 2664 O 242.605 1.35613 1.09338 0
M  V30 2665 C 239.737 2.72302 2.05096 0
M  V30 2666 H 240.93 2.98752 0.262201 0
M  V30 2667 H 238.483 1.55985 0.099248 0
M  V30 2668 H 239.218 1.92956 2.6065 0
M  V30 2669 H 239.003 3.49665 1.77416 0
M  V30 2670 H 240.493 3.17632 2.71109 0
M  V30 2671 N 240.93 -0.123565 1.57115 0
M  V30 2672 C 242.177 -0.832153 1.84612 0
M  V30 2673 C 242.505 -1.80093 0.734627 0
M  V30 2674 O 241.76 -1.93766 -0.27442 0
M  V30 2675 C 242.059 -1.62016 3.18568 0
M  V30 2676 C 241.725 -0.796084 4.43817 0
M  V30 2677 C 240.387 -0.568816 4.77826 0
M  V30 2678 C 242.739 -0.221364 5.2073 0
M  V30 2679 C 240.067 0.243499 5.86194 0
M  V30 2680 C 242.419 0.578117 6.29953 0
M  V30 2681 C 241.083 0.815744 6.62497 0
M  V30 2682 H 240.353 -0.304507 0.675542 0
M  V30 2683 H 243 -0.0947248 1.91266 0
M  V30 2684 H 241.305 -2.42837 3.0747 0
M  V30 2685 H 243.002 -2.17231 3.37064 0
M  V30 2686 H 239.592 -0.983307 4.17168 0
M  V30 2687 H 243.776 -0.384173 4.94811 0
M  V30 2688 H 239.032 0.436871 6.09837 0
M  V30 2689 H 243.206 1.03046 6.88734 0
M  V30 2690 H 240.833 1.44701 7.46301 0
M  V30 2691 N 242.408 -1.52605 -0.393616 0
M  V30 2692 C 243.633 -1.71592 -1.16495 0
M  V30 2693 C 244.058 -0.43133 -1.83088 0
M  V30 2694 O 243.416 0.612523 -1.7064 0
M  V30 2695 C 243.464 -2.86318 -2.19213 0
M  V30 2696 O 242.568 -2.52969 -3.257 0
M  V30 2697 H 241.909 -0.570734 -0.33935 0
M  V30 2698 H 244.439 -1.99377 -0.459324 0
M  V30 2699 H 244.449 -3.1168 -2.63286 0
M  V30 2700 H 243.124 -3.79511 -1.7013 0
M  V30 2701 H 241.701 -2.38332 -2.86797 0
M  V30 2702 N 243.887 0.651787 -1.4349 0
M  V30 2703 C 245.133 1.41376 -1.45398 0
M  V30 2704 C 245.466 1.94041 -0.0784823 0
M  V30 2705 O 244.741 1.72379 0.900878 0
M  V30 2706 C 245.024 2.59414 -2.49752 0
M  V30 2707 C 244.877 2.12232 -3.96582 0
M  V30 2708 C 246.196 3.61626 -2.50827 0
M  V30 2709 H 243.315 0.512719 -0.529422 0
M  V30 2710 H 245.957 0.738796 -1.75048 0
M  V30 2711 H 244.107 3.16997 -2.246 0
M  V30 2712 H 245.779 1.59639 -4.32797 0
M  V30 2713 H 244.022 1.43592 -4.09346 0
M  V30 2714 H 244.693 2.9712 -4.65214 0
M  V30 2715 H 247.169 3.13805 -2.7325 0
M  V30 2716 H 246.045 4.41766 -3.25783 0
M  V30 2717 H 246.306 4.14314 -1.5426 0
M  V30 2718 N 245.365 1.30045 0.890287 0
M  V30 2719 C 246.611 1.19747 1.64415 0
M  V30 2720 C 246.966 -0.246591 1.90813 0
M  V30 2721 O 246.259 -1.174 1.51419 0
M  V30 2722 C 246.453 1.95409 2.99249 0
M  V30 2723 C 246.282 3.47025 2.86013 0
M  V30 2724 C 245.052 4.1638 2.86279 0
M  V30 2725 C 247.25 4.42353 2.62351 0
M  V30 2726 N 245.232 5.54293 2.63879 0
M  V30 2727 C 246.603 5.67792 2.49022 0
M  V30 2728 C 248.658 4.32009 2.47533 0
M  V30 2729 C 247.361 6.8406 2.22383 0
M  V30 2730 C 249.387 5.48038 2.22279 0
M  V30 2731 C 248.749 6.72455 2.09722 0
M  V30 2732 H 244.848 0.493223 0.60684 0
M  V30 2733 H 247.432 1.6399 1.04954 0
M  V30 2734 H 245.603 1.53565 3.56752 0
M  V30 2735 H 247.335 1.77298 3.63796 0
M  V30 2736 H 244.09 3.68164 2.97913 0
M  V30 2737 H 244.514 6.26852 2.55706 0
M  V30 2738 H 249.156 3.36503 2.55979 0
M  V30 2739 H 246.874 7.79612 2.12675 0
M  V30 2740 H 250.46 5.41939 2.11643 0
M  V30 2741 H 249.34 7.60722 1.90453 0
M  V30 2742 N 246.843 -1.10192 1.12674 0
M  V30 2743 C 247.775 -2.16418 0.754701 0
M  V30 2744 C 248.788 -1.61309 -0.21986 0
M  V30 2745 O 249.977 -1.785 -0.000826841 0
M  V30 2746 C 247.077 -3.38762 0.096698 0
M  V30 2747 C 246.25 -4.23307 1.10136 0
M  V30 2748 C 245.309 -5.24092 0.470513 0
M  V30 2749 O 244.335 -5.57906 1.12824 0
M  V30 2750 N 245.537 -5.75491 -0.760948 0
M  V30 2751 H 248.302 -2.48943 1.66875 0
M  V30 2752 H 245.863 -1.25834 1.01869 0
M  V30 2753 H 247.855 -4.03291 -0.337384 0
M  V30 2754 H 246.425 -3.04192 -0.720153 0
M  V30 2755 H 245.645 -3.55036 1.71299 0
M  V30 2756 H 246.933 -4.76624 1.78064 0
M  V30 2757 H 246.331 -5.50222 -1.31424 0
M  V30 2758 H 244.888 -6.41792 -1.13781 0
M  V30 2759 N 248.321 -0.919034 -1.28029 0
M  V30 2760 C 249.253 -0.368762 -2.26214 0
M  V30 2761 C 250.266 0.495716 -1.55069 0
M  V30 2762 O 251.455 0.30974 -1.75792 0
M  V30 2763 C 248.555 0.491049 -3.35324 0
M  V30 2764 C 247.728 -0.352133 -4.3598 0
M  V30 2765 C 246.787 0.443622 -5.24327 0
M  V30 2766 O 245.813 -0.14566 -5.69014 0
M  V30 2767 N 247.015 1.74545 -5.53637 0
M  V30 2768 H 249.78 -1.21273 -2.74068 0
M  V30 2769 H 247.341 -0.785541 -1.41566 0
M  V30 2770 H 249.333 1.03026 -3.91366 0
M  V30 2771 H 247.903 1.23574 -2.87138 0
M  V30 2772 H 247.123 -1.07269 -3.79324 0
M  V30 2773 H 248.411 -0.928883 -5.00249 0
M  V30 2774 H 247.809 2.24666 -5.19174 0
M  V30 2775 H 246.366 2.23138 -6.12416 0
M  V30 2776 N 249.799 1.42003 -0.683588 0
M  V30 2777 C 251.046 2.01413 -0.209514 0
M  V30 2778 C 251.374 1.54088 1.1869 0
M  V30 2779 O 250.629 0.737591 1.81268 0
M  V30 2780 C 250.928 3.56827 -0.202357 0
M  V30 2781 C 250.594 4.23617 -1.54464 0
M  V30 2782 C 249.256 4.41577 -1.91215 0
M  V30 2783 C 251.608 4.61178 -2.42826 0
M  V30 2784 C 248.936 4.9437 -3.15935 0
M  V30 2785 C 251.288 5.15355 -3.66867 0
M  V30 2786 C 249.952 5.31528 -4.03776 0
M  V30 2787 H 249.222 0.737023 -0.0766668 0
M  V30 2788 H 251.869 1.70067 -0.880312 0
M  V30 2789 H 250.174 3.87892 0.551969 0
M  V30 2790 H 251.871 4.00588 0.181793 0
M  V30 2791 H 248.461 4.10004 -1.24877 0
M  V30 2792 H 252.645 4.46968 -2.15717 0
M  V30 2793 H 247.901 5.05076 -3.44541 0
M  V30 2794 H 252.075 5.43402 -4.35531 0
M  V30 2795 H 249.702 5.72199 -5.00492 0
M  V30 2796 N 251.277 0.427512 1.51691 0
M  V30 2797 C 252.688 -0.0378867 1.86662 0
M  V30 2798 C 253.039 -1.42819 1.34525 0
M  V30 2799 O 252.164 -2.05037 0.692014 0
M  V30 2800 C 252.759 -0.0755266 3.38716 0
M  V30 2801 C 251.318 -0.485309 3.73258 0
M  V30 2802 C 250.465 0.328399 2.75349 0
M  V30 2803 H 253.416 0.64379 1.45055 0
M  V30 2804 H 253.437 -0.887056 3.70016 0
M  V30 2805 H 252.949 0.936487 3.76632 0
M  V30 2806 H 251.05 -1.50329 3.40928 0
M  V30 2807 H 251.163 -0.21693 4.78609 0
M  V30 2808 H 249.527 -0.211905 2.53817 0
M  V30 2809 H 250.31 1.3391 3.16106 0
M  V30 2810 N 252.755 -1.56801 0.158532 0
M  V30 2811 C 254.032 -1.88131 -0.535357 0
M  V30 2812 C 254.412 -1.06638 -1.82186 0
M  V30 2813 O 253.76 -0.156533 -2.27963 0
M  V30 2814 C 253.97 -3.39949 -0.789653 0
M  V30 2815 C 255.318 -4.09416 -1.12533 0
M  V30 2816 O 256.342 -3.45194 -0.878622 0
M  V30 2817 O 255.201 -5.22855 -1.59014 0
M  V30 2818 H 252.295 -0.780143 -0.27442 0
M  V30 2819 H 254.841 -1.68564 0.19601 0
M  V30 2820 H 253.613 -3.91115 0.120353 0
M  V30 2821 H 253.236 -3.65084 -1.57479 0
M  V30 2822 N 254.233 0.115231 -1.57178 0
M  V30 2823 C 255.165 1.16694 -1.97269 0
M  V30 2824 C 256.178 1.37445 -0.872502 0
M  V30 2825 O 257.367 1.36454 -1.15077 0
M  V30 2826 C 254.467 2.52627 -2.25905 0
M  V30 2827 C 253.64 2.52427 -3.57211 0
M  V30 2828 C 252.699 3.70134 -3.74016 0
M  V30 2829 O 251.725 3.53546 -4.46087 0
M  V30 2830 N 252.927 4.88844 -3.13068 0
M  V30 2831 H 255.692 0.82588 -2.88096 0
M  V30 2832 H 253.253 0.304461 -1.59011 0
M  V30 2833 H 255.245 3.29937 -2.34359 0
M  V30 2834 H 253.815 2.789 -1.41186 0
M  V30 2835 H 253.035 1.60805 -3.5991 0
M  V30 2836 H 254.323 2.49353 -4.43509 0
M  V30 2837 H 253.721 5.05225 -2.54489 0
M  V30 2838 H 252.278 5.63817 -3.27037 0
M  V30 2839 N 255.711 1.52812 0.385517 0
M  V30 2840 C 256.96 1.67249 1.12741 0
M  V30 2841 C 257.273 0.4205 1.91027 0
M  V30 2842 O 258.479 0.445064 2.67827 0
M  V30 2843 C 256.935 2.95583 2.05326 0
M  V30 2844 C 256.543 4.27974 1.32447 0
M  V30 2845 C 258.287 3.19386 2.7963 0
M  V30 2846 C 256.194 5.47412 2.23818 0
M  V30 2847 H 255.124 0.6231 0.424573 0
M  V30 2848 H 257.775 1.79309 0.389924 0
M  V30 2849 H 256.157 2.77277 2.82725 0
M  V30 2850 H 257.331 4.56844 0.602495 0
M  V30 2851 H 255.646 4.10459 0.700885 0
M  V30 2852 H 258.243 4.05801 3.48181 0
M  V30 2853 H 258.586 2.34604 3.43899 0
M  V30 2854 H 259.119 3.38274 2.09322 0
M  V30 2855 H 255.858 6.34612 1.64157 0
M  V30 2856 H 255.378 5.22849 2.93921 0
M  V30 2857 H 257.057 5.81423 2.83824 0
M  V30 2858 N 257.189 -0.644168 1.43834 0
M  V30 2859 C 258.435 -1.40603 1.46146 0
M  V30 2860 C 258.768 -1.93997 0.0887717 0
M  V30 2861 O 258.043 -1.72854 -0.891724 0
M  V30 2862 C 258.326 -2.58086 2.51124 0
M  V30 2863 C 258.179 -2.10126 3.97702 0
M  V30 2864 C 259.498 -3.60291 2.52742 0
M  V30 2865 H 256.617 -0.509905 0.532134 0
M  V30 2866 H 259.259 -0.729502 1.75437 0
M  V30 2867 H 257.409 -3.15801 2.26278 0
M  V30 2868 H 259.081 -1.57342 4.33637 0
M  V30 2869 H 257.324 -1.41419 4.10101 0
M  V30 2870 H 257.995 -2.94649 4.66783 0
M  V30 2871 H 260.471 -3.12352 2.7491 0
M  V30 2872 H 259.347 -4.40032 3.28121 0
M  V30 2873 H 259.608 -4.1349 1.56455 0
M  V30 2874 N 258.668 -1.30515 -0.883378 0
M  V30 2875 C 259.916 -1.19194 -1.63209 0
M  V30 2876 C 260.237 0.253205 -1.93349 0
M  V30 2877 O 259.507 1.17025 -1.57105 0
M  V30 2878 H 258.087 -0.438148 -0.605009 0
M  V30 2879 H 260.749 -1.63663 -1.05832 0
M  V30 2880 H 259.845 -1.75396 -2.58153 0
M  V30 2881 N 260.146 1.09593 -1.13257 0
M  V30 2882 C 261.393 1.81734 -0.893257 0
M  V30 2883 C 261.721 1.8563 0.580656 0
M  V30 2884 O 260.976 1.31906 1.44566 0
M  V30 2885 C 261.275 3.27802 -1.42411 0
M  V30 2886 C 260.941 3.44041 -2.91456 0
M  V30 2887 C 259.603 3.48181 -3.3215 0
M  V30 2888 C 261.955 3.48719 -3.87356 0
M  V30 2889 C 259.283 3.54575 -4.67433 0
M  V30 2890 C 261.635 3.56648 -5.2248 0
M  V30 2891 C 260.299 3.59055 -5.62704 0
M  V30 2892 H 259.569 0.665011 -0.326866 0
M  V30 2893 H 262.216 1.2912 -1.41422 0
M  V30 2894 H 260.521 3.83042 -0.823795 0
M  V30 2895 H 262.218 3.82149 -1.21503 0
M  V30 2896 H 258.808 3.41502 -2.58987 0
M  V30 2897 H 262.992 3.44763 -3.57004 0
M  V30 2898 H 258.248 3.54725 -4.97976 0
M  V30 2899 H 262.422 3.59212 -5.96607 0
M  V30 2900 H 260.049 3.63763 -6.67518 0
M  V30 2901 N 261.624 0.925811 1.2754 0
M  V30 2902 C 262.87 0.566092 1.94739 0
M  V30 2903 C 263.203 -0.890057 1.72603 0
M  V30 2904 O 262.478 -1.63467 1.05399 0
M  V30 2905 C 262.761 0.89054 3.48915 0
M  V30 2906 C 262.614 2.4003 3.80402 0
M  V30 2907 C 263.933 0.395101 4.38323 0
M  V30 2908 H 261.052 0.20714 0.707292 0
M  V30 2909 H 263.694 1.15725 1.50691 0
M  V30 2910 H 261.844 0.387452 3.86563 0
M  V30 2911 H 263.516 2.97494 3.52555 0
M  V30 2912 H 261.759 2.85028 3.2702 0
M  V30 2913 H 262.43 2.57785 4.8811 0
M  V30 2914 H 264.906 0.826241 4.07814 0
M  V30 2915 H 263.782 0.651086 5.45025 0
M  V30 2916 H 264.043 -0.704798 4.36446 0
M  V30 2917 N 263.102 -1.41638 0.69111 0
M  V30 2918 C 264.513 -1.84346 0.295517 0
M  V30 2919 C 264.864 -1.57833 -1.16547 0
M  V30 2920 O 263.989 -1.04648 -1.89414 0
M  V30 2921 C 264.584 -3.34636 0.529575 0
M  V30 2922 C 263.143 -3.7593 0.187944 0
M  V30 2923 C 262.29 -2.65082 0.814052 0
M  V30 2924 H 265.241 -1.31253 0.892092 0
M  V30 2925 H 265.262 -3.79903 -0.213148 0
M  V30 2926 H 264.774 -3.53901 1.59297 0
M  V30 2927 H 262.875 -3.62268 -0.871367 0
M  V30 2928 H 262.988 -4.74808 0.63985 0
M  V30 2929 H 261.352 -2.53528 0.244017 0
M  V30 2930 H 262.135 -2.87167 1.88123 0
M  V30 2931 N 264.58 -0.43555 -1.51462 0
M  V30 2932 C 265.996 -0.0877501 -1.59359 0
M  V30 2933 C 266.196 1.4027 -1.4466 0
M  V30 2934 O 265.252 2.17243 -1.28693 0
M  V30 2935 C 266.565 -0.606264 -2.94525 0
M  V30 2936 C 268.113 -0.566548 -3.0783 0
M  V30 2937 C 268.588 -1.06201 -4.45517 0
M  V30 2938 N 270.079 -1.01992 -4.51832 0
M  V30 2939 C 270.814 -1.37417 -5.5669 0
M  V30 2940 N 270.31 -1.80119 -6.68976 0
M  V30 2941 N 272.103 -1.29245 -5.47039 0
M  V30 2942 H 264.254 -1.40533 -1.59261 0
M  V30 2943 H 266.517 -0.578992 -0.750648 0
M  V30 2944 H 266.223 -1.64901 -3.10645 0
M  V30 2945 H 266.097 -0.0302097 -3.77188 0
M  V30 2946 H 268.484 0.467208 -2.91378 0
M  V30 2947 H 268.565 -1.17898 -2.2701 0
M  V30 2948 H 268.209 -2.09422 -4.62715 0
M  V30 2949 H 268.139 -0.426127 -5.24873 0
M  V30 2950 H 270.63 -0.706308 -3.71241 0
M  V30 2951 H 270.943 -2.05392 -7.45006 0
M  V30 2952 H 269.288 -1.84044 -6.70189 0
M  V30 2953 H 272.479 -0.957522 -4.58202 0
M  V30 2954 H 272.652 -1.57182 -6.28648 0
M  V30 2955 N 266.058 1.56714 -0.166846 0
M  V30 2956 C 267.005 2.17746 0.765193 0
M  V30 2957 C 267.975 1.11614 1.23011 0
M  V30 2958 O 269.16 1.39745 1.29908 0
M  V30 2959 C 266.3 2.81882 1.9909 0
M  V30 2960 C 265.413 4.02462 1.56997 0
M  V30 2961 C 264.548 4.54537 2.749 0
M  V30 2962 C 263.587 5.67538 2.29275 0
M  V30 2963 N 262.724 6.14142 3.40255 0
M  V30 2964 H 267.564 2.97048 0.237952 0
M  V30 2965 H 265.101 1.4672 0.105725 0
M  V30 2966 H 267.059 3.17221 2.70974 0
M  V30 2967 H 265.689 2.05191 2.49192 0
M  V30 2968 H 264.741 3.72973 0.748037 0
M  V30 2969 H 266.053 4.84273 1.19503 0
M  V30 2970 H 265.207 4.92035 3.54946 0
M  V30 2971 H 263.946 3.71774 3.1565 0
M  V30 2972 H 262.951 5.29597 1.47674 0
M  V30 2973 H 264.176 6.52099 1.89588 0
M  V30 2974 H 262.122 5.3431 3.8059 0
M  V30 2975 H 262.039 6.9093 3.06841 0
M  V30 2976 H 263.307 6.56289 4.206 0
M  V30 2977 N 267.536 -0.106894 1.57237 0
M  V30 2978 C 268.486 -1.1366 1.9765 0
M  V30 2979 C 269.47 -1.36416 0.853203 0
M  V30 2980 O 270.662 -1.37305 1.11697 0
M  V30 2981 C 267.791 -2.46 2.39455 0
M  V30 2982 C 266.877 -2.26668 3.58445 0
M  V30 2983 N 267.268 -1.77176 4.73754 0
M  V30 2984 C 265.566 -2.57279 3.64312 0
M  V30 2985 C 266.267 -1.71836 5.5574 0
M  V30 2986 N 265.243 -2.16623 4.98573 0
M  V30 2987 H 269.045 -0.74669 2.84256 0
M  V30 2988 H 266.559 -0.314483 1.59326 0
M  V30 2989 H 268.556 -3.2049 2.6663 0
M  V30 2990 H 267.216 -2.85738 1.54219 0
M  V30 2991 H 268.227 -1.46545 4.96734 0
M  V30 2992 H 264.904 -3.00622 2.89711 0
M  V30 2993 H 266.294 -1.34723 6.58255 0
M  V30 2994 N 269.014 -1.53014 -0.377408 0
M  V30 2995 C 270.26 -1.68872 -1.12294 0
M  V30 2996 C 270.593 -0.433224 -1.89306 0
M  V30 2997 O 269.868 0.569258 -1.85983 0
M  V30 2998 C 270.151 -2.93115 -2.09179 0
M  V30 2999 C 270.004 -4.28794 -1.35853 0
M  V30 3000 C 271.323 -3.12928 -3.09458 0
M  V30 3001 H 268.442 -0.614518 -0.406862 0
M  V30 3002 H 271.084 -1.85633 -0.40503 0
M  V30 3003 H 269.234 -2.78956 -2.70399 0
M  V30 3004 H 270.906 -4.54742 -0.775082 0
M  V30 3005 H 269.149 -4.28744 -0.660364 0
M  V30 3006 H 269.82 -5.11837 -2.06706 0
M  V30 3007 H 272.296 -3.26194 -2.58334 0
M  V30 3008 H 271.172 -4.01316 -3.74482 0
M  V30 3009 H 271.433 -2.27669 -3.78971 0
M  V30 3010 N 270.492 0.636531 -1.44174 0
M  V30 3011 C 271.717 1.42847 -1.50364 0
M  V30 3012 C 272.142 1.87665 -0.127867 0
M  V30 3013 O 271.5 1.58408 0.88185 0
M  V30 3014 C 271.548 2.62854 -2.4686 0
M  V30 3015 O 270.652 3.62501 -1.9664 0
M  V30 3016 H 269.993 0.427642 -0.507955 0
M  V30 3017 H 272.523 0.777422 -1.89255 0
M  V30 3018 H 272.533 3.10465 -2.64718 0
M  V30 3019 H 271.208 2.29578 -3.46795 0
M  V30 3020 H 269.785 3.21735 -1.88523 0
M  V30 3021 N 271.97 1.30982 0.876444 0
M  V30 3022 C 273.198 1.23242 1.6619 0
M  V30 3023 C 273.613 -0.203345 1.87702 0
M  V30 3024 O 272.97 -1.13317 1.43057 0
M  V30 3025 C 273.021 1.96623 3.03351 0
M  V30 3026 O 272.742 3.34594 2.82804 0
M  V30 3027 C 274.243 1.95644 3.97792 0
M  V30 3028 H 271.463 0.426126 0.518322 0
M  V30 3029 H 274.007 1.7275 1.09442 0
M  V30 3030 H 272.162 1.50892 3.56806 0
M  V30 3031 H 272.576 3.71873 3.69879 0
M  V30 3032 H 274.05 2.51511 4.91372 0
M  V30 3033 H 274.527 0.937395 4.2908 0
M  V30 3034 H 275.133 2.41225 3.50272 0
M  V30 3035 N 273.449 -1.08991 1.13837 0
M  V30 3036 C 274.674 -1.85551 0.926585 0
M  V30 3037 C 275.099 -1.80782 -0.519566 0
M  V30 3038 O 274.457 -1.18855 -1.36906 0
M  V30 3039 C 274.505 -3.31266 1.42462 0
M  V30 3040 O 273.609 -4.07822 0.612789 0
M  V30 3041 H 272.95 -0.575192 0.331738 0
M  V30 3042 H 275.48 -1.37604 1.51414 0
M  V30 3043 H 275.49 -3.82112 1.43019 0
M  V30 3044 H 274.165 -3.34052 2.47754 0
M  V30 3045 H 272.742 -3.66731 0.675463 0
M  V30 3046 N 274.927 -0.932562 -1.27047 0
M  V30 3047 C 276.152 -0.591474 -1.98787 0
M  V30 3048 C 276.577 0.824601 -1.69062 0
M  V30 3049 O 275.935 1.5541 -0.933677 0
M  V30 3050 C 275.983 -0.829808 -3.50922 0
M  V30 3051 O 275.087 0.102266 -4.12273 0
M  V30 3052 H 274.428 -0.227185 -0.623926 0
M  V30 3053 H 276.958 -1.25314 -1.61733 0
M  V30 3054 H 276.968 -0.747292 -4.01098 0
M  V30 3055 H 275.643 -1.86201 -3.7189 0
M  V30 3056 H 274.22 -0.0305761 -3.72887 0
M  V30 3057 N 276.405 1.4127 -0.698611 0
M  V30 3058 C 277.653 2.00782 -0.230409 0
M  V30 3059 C 277.974 1.5562 1.17505 0
M  V30 3060 O 277.244 0.78815 1.79346 0
M  V30 3061 H 275.824 0.742464 -0.0821944 0
M  V30 3062 H 278.486 1.72852 -0.90045 0
M  V30 3063 H 277.582 3.11095 -0.25021 0
M  V30 3064 N 277.883 0.443576 1.51229 0
M  V30 3065 C 279.132 -0.122332 2.01329 0
M  V30 3066 C 279.445 -1.43237 1.33201 0
M  V30 3067 O 280.651 -2.0816 1.74304 0
M  V30 3068 C 279.107 -0.268551 3.58897 0
M  V30 3069 C 278.715 1.03142 4.35965 0
M  V30 3070 C 280.459 -0.787894 4.17124 0
M  V30 3071 C 278.366 0.850504 5.85252 0
M  V30 3072 H 277.296 -0.0494929 0.752374 0
M  V30 3073 H 279.947 0.574289 1.74282 0
M  V30 3074 H 278.329 -1.02832 3.82415 0
M  V30 3075 H 279.503 1.80001 4.24189 0
M  V30 3076 H 277.818 1.47977 3.89219 0
M  V30 3077 H 280.415 -0.939841 5.26375 0
M  V30 3078 H 280.758 -1.77201 3.76703 0
M  V30 3079 H 281.291 -0.0862669 3.97706 0
M  V30 3080 H 278.03 1.80718 6.30096 0
M  V30 3081 H 277.55 0.121825 5.99676 0
M  V30 3082 H 279.229 0.506163 6.45017 0
M  V30 3083 N 279.361 -1.56624 0.175154 0
M  V30 3084 C 280.591 -2.01082 -0.474283 0
M  V30 3085 C 280.999 -1.05447 -1.57091 0
M  V30 3086 O 280.342 -0.0480595 -1.83637 0
M  V30 3087 C 280.404 -3.41963 -1.10911 0
M  V30 3088 C 280.068 -4.56742 -0.153666 0
M  V30 3089 C 281.065 -5.16076 0.629448 0
M  V30 3090 C 278.75 -5.02277 -0.0483776 0
M  V30 3091 C 280.744 -6.19377 1.50501 0
M  V30 3092 C 278.431 -6.05427 0.830768 0
M  V30 3093 C 279.429 -6.63849 1.60605 0
M  V30 3094 O 279.117 -7.64998 2.47049 0
M  V30 3095 H 278.849 -0.664261 -0.125432 0
M  V30 3096 H 281.403 -2.03549 0.275163 0
M  V30 3097 H 279.633 -3.36422 -1.90676 0
M  V30 3098 H 281.322 -3.70352 -1.66114 0
M  V30 3099 H 282.088 -4.81776 0.558297 0
M  V30 3100 H 277.967 -4.56513 -0.641611 0
M  V30 3101 H 281.511 -6.64906 2.1106 0
M  V30 3102 H 277.408 -6.39151 0.903107 0
M  V30 3103 H 278.176 -7.82336 2.40607 0
M  V30 3104 N 280.839 0.0985539 -1.57292 0
M  V30 3105 C 282.064 0.820196 -1.90493 0
M  V30 3106 C 282.489 1.71658 -0.769094 0
M  V30 3107 O 281.847 1.79133 0.279495 0
M  V30 3108 C 281.895 1.61242 -3.22542 0
M  V30 3109 O 280.999 2.72108 -3.09888 0
M  V30 3110 H 280.34 0.225547 -0.62452 0
M  V30 3111 H 282.87 0.0748159 -2.04463 0
M  V30 3112 H 282.88 1.99737 -3.55766 0
M  V30 3113 H 281.555 0.954535 -4.04798 0
M  V30 3114 H 280.132 2.36667 -2.88172 0
M  V30 3115 N 282.317 1.53212 0.369288 0
M  V30 3116 C 283.547 1.72868 1.13139 0
M  V30 3117 C 283.955 0.455754 1.83629 0
M  V30 3118 O 283.298 -0.580861 1.74275 0
M  V30 3119 C 283.36 2.83667 2.20847 0
M  V30 3120 C 283.024 4.24142 1.70155 0
M  V30 3121 C 284.021 5.06619 1.16763 0
M  V30 3122 C 281.706 4.70539 1.7578 0
M  V30 3123 C 283.7 6.33581 0.696678 0
M  V30 3124 C 281.387 5.97481 1.28297 0
M  V30 3125 C 282.385 6.78833 0.753307 0
M  V30 3126 O 282.073 8.03393 0.285475 0
M  V30 3127 H 281.805 0.581707 0.344373 0
M  V30 3128 H 284.359 2.00736 0.435243 0
M  V30 3129 H 282.589 2.51265 2.93944 0
M  V30 3130 H 284.278 2.91536 2.82421 0
M  V30 3131 H 285.044 4.71948 1.11758 0
M  V30 3132 H 280.923 4.07293 2.15949 0
M  V30 3133 H 284.467 6.97027 0.282581 0
M  V30 3134 H 280.364 6.31651 1.32994 0
M  V30 3135 H 281.132 8.17497 0.405145 0
M  V30 3136 N 283.795 -0.628877 1.44509 0
M  V30 3137 C 285.043 -1.38565 1.4712 0
M  V30 3138 C 285.364 -1.94712 0.105899 0
M  V30 3139 O 284.634 -1.75912 -0.862079 0
M  V30 3140 H 283.214 -0.514333 0.541729 0
M  V30 3141 H 285.876 -0.740018 1.80305 0
M  V30 3142 H 284.972 -2.21583 2.19789 0
M  V30 3143 N 285.273 -1.31445 -0.869486 0
M  V30 3144 C 286.498 -1.24256 -1.66058 0
M  V30 3145 C 286.923 0.188928 -1.87149 0
M  V30 3146 O 286.281 1.13522 -1.4136 0
M  V30 3147 C 286.329 -1.9924 -3.00559 0
M  V30 3148 O 285.433 -1.33007 -3.90362 0
M  V30 3149 H 284.774 -0.428973 -0.506831 0
M  V30 3150 H 287.304 -1.73521 -1.08404 0
M  V30 3151 H 287.314 -2.08854 -3.50491 0
M  V30 3152 H 285.989 -3.03342 -2.84528 0
M  V30 3153 H 284.566 -1.31848 -3.48813 0
M  V30 3154 N 286.751 1.08385 -1.14413 0
M  V30 3155 C 287.998 1.80776 -0.912482 0
M  V30 3156 C 288.326 1.86236 0.560934 0
M  V30 3157 O 287.581 1.33431 1.43159 0
M  V30 3158 C 287.88 3.26273 -1.45879 0
M  V30 3159 C 287.546 3.4093 -2.95089 0
M  V30 3160 C 286.208 3.44638 -3.35824 0
M  V30 3161 C 288.56 3.44591 -3.91033 0
M  V30 3162 C 285.888 3.49597 -4.71167 0
M  V30 3163 C 288.24 3.51086 -5.26233 0
M  V30 3164 C 286.904 3.53067 -5.6648 0
M  V30 3165 H 286.174 0.661507 -0.333901 0
M  V30 3166 H 288.821 1.27613 -1.42784 0
M  V30 3167 H 287.126 3.82146 -0.864376 0
M  V30 3168 H 288.823 3.80839 -1.2555 0
M  V30 3169 H 285.413 3.38736 -2.62594 0
M  V30 3170 H 289.597 3.40957 -3.60641 0
M  V30 3171 H 284.853 3.49424 -5.0171 0
M  V30 3172 H 289.027 3.52864 -6.00383 0
M  V30 3173 H 286.654 3.56662 -6.71339 0
M  V30 3174 N 288.23 0.939286 1.26551 0
M  V30 3175 C 289.14 0.453432 2.30176 0
M  V30 3176 C 290.156 -0.471649 1.67486 0
M  V30 3177 O 291.332 -0.35164 1.98306 0
M  V30 3178 C 288.397 -0.275326 3.45605 0
M  V30 3179 C 287.458 0.686084 4.23782 0
M  V30 3180 C 286.691 -0.00798994 5.33699 0
M  V30 3181 O 286.914 -1.22528 5.57085 0
M  V30 3182 O 285.848 0.669746 5.98162 0
M  V30 3183 H 289.674 1.31416 2.73795 0
M  V30 3184 H 287.259 0.705095 1.31715 0
M  V30 3185 H 289.141 -0.685911 4.1578 0
M  V30 3186 H 287.816 -1.11147 3.0402 0
M  V30 3187 H 286.723 1.14658 3.56096 0
M  V30 3188 H 288.056 1.48979 4.69112 0
M  V30 3189 N 289.708 -1.40897 0.706093 0
M  V30 3190 C 290.641 -2.282 -0.00328781 0
M  V30 3191 C 291.619 -1.42816 -0.77732 0
M  V30 3192 O 292.803 -1.72237 -0.765944 0
M  V30 3193 C 289.93 -3.23226 -1.01205 0
M  V30 3194 C 288.976 -4.25222 -0.329955 0
M  V30 3195 S 289.809 -5.27269 0.935298 0
M  V30 3196 C 290.965 -6.25859 -0.0716061 0
M  V30 3197 H 291.198 -2.88016 0.737143 0
M  V30 3198 H 288.731 -1.46191 0.496756 0
M  V30 3199 H 290.689 -3.78503 -1.58888 0
M  V30 3200 H 289.35 -2.62485 -1.72513 0
M  V30 3201 H 288.543 -4.92023 -1.09221 0
M  V30 3202 H 288.145 -3.73595 0.174069 0
M  V30 3203 H 290.437 -6.71204 -0.921521 0
M  V30 3204 H 291.38 -7.0586 0.562765 0
M  V30 3205 H 291.788 -5.62852 -0.431088 0
M  V30 3206 N 291.186 -0.45159 -1.50991 0
M  V30 3207 C 292.118 0.388634 -2.25881 0
M  V30 3208 C 293.131 0.974041 -1.30446 0
M  V30 3209 O 294.32 0.865758 -1.56099 0
M  V30 3210 C 291.42 1.5571 -3.01011 0
M  V30 3211 C 290.593 1.08801 -4.23652 0
M  V30 3212 C 289.652 2.12825 -4.8124 0
M  V30 3213 O 288.678 1.71678 -5.42693 0
M  V30 3214 N 289.88 3.45453 -4.66522 0
M  V30 3215 H 292.645 -0.25329 -2.98628 0
M  V30 3216 H 290.206 -0.281268 -1.59438 0
M  V30 3217 H 292.198 2.24952 -3.3642 0
M  V30 3218 H 290.768 2.10409 -2.31186 0
M  V30 3219 H 289.988 0.22215 -3.93574 0
M  V30 3220 H 291.276 0.752213 -5.03209 0
M  V30 3221 H 290.674 3.81605 -4.17605 0
M  V30 3222 H 289.231 4.10549 -5.06254 0
M  V30 3223 N 292.664 1.56529 -0.183458 0
M  V30 3224 C 293.627 2.17324 0.728223 0
M  V30 3225 C 294.627 1.12453 1.14939 0
M  V30 3226 O 295.817 1.37902 1.06437 0
M  V30 3227 C 292.949 2.76591 1.99274 0
M  V30 3228 H 294.142 2.99241 0.198772 0
M  V30 3229 H 291.695 1.5616 0.0661391 0
M  V30 3230 H 292.43 1.98441 2.56499 0
M  V30 3231 H 292.215 3.5335 1.69959 0
M  V30 3232 H 293.705 3.23311 2.6431 0
M  V30 3233 N 294.142 -0.090211 1.57342 0
M  V30 3234 C 295.553 -0.644173 1.75235 0
M  V30 3235 C 295.904 -1.78865 0.806335 0
M  V30 3236 O 295.029 -2.16395 -0.0140128 0
M  V30 3237 C 295.624 -1.17532 3.1776 0
M  V30 3238 C 294.183 -1.67531 3.37061 0
M  V30 3239 C 293.33 -0.58693 2.71017 0
M  V30 3240 H 296.281 0.135884 1.58117 0
M  V30 3241 H 296.302 -2.04455 3.20902 0
M  V30 3242 H 295.814 -0.342138 3.86589 0
M  V30 3243 H 293.915 -2.53234 2.73319 0
M  V30 3244 H 294.028 -1.76493 4.45406 0
M  V30 3245 H 292.392 -1.02756 2.33052 0
M  V30 3246 H 293.175 0.235758 3.4249 0
M  V30 3247 N 295.62 -1.53406 -0.361157 0
M  V30 3248 C 296.868 -1.69467 -1.10115 0
M  V30 3249 C 297.189 -0.451352 -1.89705 0
M  V30 3250 O 296.459 0.534636 -1.88463 0
M  V30 3251 H 295.039 -0.624749 -0.409508 0
M  V30 3252 H 297.701 -1.90609 -0.406699 0
M  V30 3253 H 296.797 -2.55774 -1.78847 0
M  V30 3254 N 297.098 0.621204 -1.44841 0
M  V30 3255 C 298.323 1.41244 -1.51871 0
M  V30 3256 C 298.748 1.87519 -0.147764 0
M  V30 3257 O 298.106 1.59334 0.865 0
M  V30 3258 C 298.154 2.60221 -2.49634 0
M  V30 3259 O 297.258 3.60395 -2.00473 0
M  V30 3260 H 296.599 0.42223 -0.512463 0
M  V30 3261 H 299.129 0.757305 -1.90069 0
M  V30 3262 H 299.139 3.0764 -2.67996 0
M  V30 3263 H 297.814 2.25887 -3.4921 0
M  V30 3264 H 296.391 3.19717 -1.91925 0
M  V30 3265 N 298.576 1.31904 0.862503 0
M  V30 3266 C 299.824 1.21776 1.61292 0
M  V30 3267 C 300.145 -0.222413 1.93727 0
M  V30 3268 O 299.415 -1.1451 1.58947 0
M  V30 3269 H 297.995 0.447717 0.597962 0
M  V30 3270 H 300.657 1.65326 1.03215 0
M  V30 3271 H 299.753 1.7948 2.5533 0
M  V30 3272 N 300.054 -1.07777 1.14986 0
M  V30 3273 C 301.002 -2.16964 0.838406 0
M  V30 3274 C 301.996 -1.68372 -0.186386 0
M  V30 3275 O 303.202 -1.79951 -0.0418465 0
M  V30 3276 H 299.577 -0.708006 0.253439 0
M  V30 3277 H 301.548 -2.40454 1.76704 0
M  V30 3278 C 300.297 -3.4604 0.339335 0
M  V30 3279 H 299.62 -3.83813 1.11927 0
M  V30 3280 H 301.06 -4.23698 0.160021 0
M  V30 3281 C 299.519 -3.23569 -0.938325 0
M  V30 3282 O 300.049 -3.47752 -2.01077 0
M  V30 3283 N 298.255 -2.77079 -0.876117 0
M  V30 3284 H 297.802 -2.576 -0.00322037 0
M  V30 3285 H 297.76 -2.62422 -1.73153 0
M  V30 3286 N 301.532 -0.945985 -1.26051 0
M  V30 3287 C 302.78 -0.594941 -1.93145 0
M  V30 3288 C 303.101 0.86953 -1.7454 0
M  V30 3289 O 302.371 1.61838 -1.10387 0
M  V30 3290 H 300.951 -0.217044 -0.714773 0
M  V30 3291 H 303.613 -1.20235 -1.53393 0
M  V30 3292 H 302.709 -0.816835 -3.01221 0
M  V30 3293 N 303.011 1.40521 -0.713556 0
M  V30 3294 C 304.288 1.94775 -0.17943 0
M  V30 3295 C 304.668 1.65184 1.31444 0
M  V30 3296 O 304.016 0.968429 2.06963 0
M  V30 3297 C 304.226 3.45543 -0.489986 0
M  V30 3298 C 305.574 4.22442 -0.427536 0
M  V30 3299 O 306.598 3.53644 -0.425929 0
M  V30 3300 O 305.457 5.4501 -0.403292 0
M  V30 3301 H 302.551 0.826606 -0.0255192 0
M  V30 3302 H 305.097 1.5014 -0.790949 0
M  V30 3303 H 303.869 3.60432 -1.5233 0
M  V30 3304 H 303.492 3.97311 0.151598 0
M  V30 3305 N 304.489 0.459591 1.5075 0
M  V30 3306 C 305.421 -0.37665 2.26084 0
M  V30 3307 C 306.434 -0.967109 1.30961 0
M  V30 3308 O 307.623 -0.857468 1.56556 0
M  V30 3309 C 304.723 -1.54112 3.01832 0
M  V30 3310 C 303.896 -1.06553 4.24223 0
M  V30 3311 C 302.955 -2.1027 4.82362 0
M  V30 3312 O 301.981 -1.68798 5.43595 0
M  V30 3313 N 303.183 -3.42974 4.68347 0
M  V30 3314 H 305.948 0.269124 2.98489 0
M  V30 3315 H 303.509 0.28972 1.59287 0
M  V30 3316 H 305.501 -2.23165 3.37608 0
M  V30 3317 H 304.071 -2.0918 2.32298 0
M  V30 3318 H 303.291 -0.201274 3.93686 0
M  V30 3319 H 304.579 -0.725516 5.03601 0
M  V30 3320 H 303.977 -3.79385 4.19623 0
M  V30 3321 H 302.534 -4.07858 5.08424 0
M  V30 3322 N 305.967 -1.56429 0.191757 0
M  V30 3323 C 307.197 -2.01574 -0.452928 0
M  V30 3324 C 307.605 -1.07107 -1.55964 0
M  V30 3325 O 306.948 -0.067534 -1.83576 0
M  V30 3326 C 307.01 -3.43121 -1.07278 0
M  V30 3327 C 306.674 -4.56879 -0.105214 0
M  V30 3328 C 307.671 -5.15379 0.684149 0
M  V30 3329 C 305.356 -5.023 0.00489824 0
M  V30 3330 C 307.35 -6.17746 1.57062 0
M  V30 3331 C 305.037 -6.04511 0.894935 0
M  V30 3332 C 306.035 -6.62108 1.67637 0
M  V30 3333 O 305.723 -7.62335 2.55149 0
M  V30 3334 H 305.455 -0.665554 -0.118379 0
M  V30 3335 H 308.009 -2.03245 0.296737 0
M  V30 3336 H 306.239 -3.38425 -1.87097 0
M  V30 3337 H 307.928 -3.72093 -1.62177 0
M  V30 3338 H 308.694 -4.81157 0.609365 0
M  V30 3339 H 304.573 -4.57168 -0.593156 0
M  V30 3340 H 308.117 -6.6263 2.181 0
M  V30 3341 H 304.014 -6.38157 0.970847 0
M  V30 3342 H 304.782 -7.79741 2.48892 0
M  V30 3343 N 307.445 0.0818655 -1.57387 0
M  V30 3344 C 308.67 0.799946 -1.91352 0
M  V30 3345 C 309.095 1.70833 -0.787258 0
M  V30 3346 O 308.453 1.79419 0.26048 0
M  V30 3347 C 308.501 1.57812 -3.24234 0
M  V30 3348 O 307.605 2.68806 -3.12757 0
M  V30 3349 H 306.946 0.21891 -0.626877 0
M  V30 3350 H 309.476 0.0531256 -2.04531 0
M  V30 3351 H 309.486 1.95952 -3.57864 0
M  V30 3352 H 308.161 0.911548 -4.05788 0
M  V30 3353 H 306.738 2.33597 -2.90666 0
M  V30 3354 N 308.923 1.53595 0.353017 0
M  V30 3355 C 309.856 1.7572 1.45594 0
M  V30 3356 C 310.834 0.605961 1.50887 0
M  V30 3357 O 312.018 0.840023 1.68748 0
M  V30 3358 C 309.145 1.84732 2.83887 0
M  V30 3359 C 308.191 3.06808 2.96262 0
M  V30 3360 S 309.024 4.66065 2.63711 0
M  V30 3361 C 310.18 4.77943 4.04131 0
M  V30 3362 H 310.413 2.68994 1.26608 0
M  V30 3363 H 307.946 1.44343 0.548117 0
M  V30 3364 H 309.904 1.9061 3.63563 0
M  V30 3365 H 308.565 0.92488 3.00175 0
M  V30 3366 H 307.758 3.09761 3.97573 0
M  V30 3367 H 307.36 2.99108 2.24523 0
M  V30 3368 H 309.652 4.5877 4.98534 0
M  V30 3369 H 310.595 5.80022 4.06177 0
M  V30 3370 H 311.003 4.06472 3.91715 0
M  V30 3371 N 310.401 -0.613514 1.45168 0
M  V30 3372 C 311.647 -1.37471 1.49096 0
M  V30 3373 C 311.98 -1.93765 0.129901 0
M  V30 3374 O 311.255 -1.74707 -0.854858 0
M  V30 3375 C 311.538 -2.52701 2.56542 0
M  V30 3376 C 311.391 -2.01643 4.0207 0
M  V30 3377 C 312.71 -3.54849 2.60327 0
M  V30 3378 H 309.829 -0.498502 0.54283 0
M  V30 3379 H 312.471 -0.692125 1.76945 0
M  V30 3380 H 310.621 -3.10931 2.32926 0
M  V30 3381 H 312.293 -1.48108 4.36877 0
M  V30 3382 H 310.536 -1.32688 4.13009 0
M  V30 3383 H 311.207 -2.84681 4.72928 0
M  V30 3384 H 313.683 -3.0645 2.81474 0
M  V30 3385 H 312.559 -4.32973 3.37381 0
M  V30 3386 H 312.82 -4.10079 1.6519 0
M  V30 3387 N 311.879 -1.3236 -0.855495 0
M  V30 3388 C 312.809 -1.23833 -1.97958 0
M  V30 3389 C 313.79 -0.122361 -1.69659 0
M  V30 3390 O 314.975 -0.30939 -1.9172 0
M  V30 3391 C 312.105 -0.959772 -3.33775 0
M  V30 3392 C 311.059 -2.03689 -3.76424 0
M  V30 3393 C 310.385 -1.61075 -5.09862 0
M  V30 3394 C 311.685 -3.4518 -3.9198 0
M  V30 3395 H 313.379 -2.1788 -2.0535 0
M  V30 3396 H 310.925 -1.04891 -0.986605 0
M  V30 3397 H 312.878 -0.886678 -4.11966 0
M  V30 3398 H 311.602 0.0163404 -3.26596 0
M  V30 3399 H 310.261 -2.10012 -3.00484 0
M  V30 3400 H 309.909 -0.622107 -4.99138 0
M  V30 3401 H 309.609 -2.33143 -5.39368 0
M  V30 3402 H 311.133 -1.55201 -5.90546 0
M  V30 3403 H 312.547 -3.4145 -4.60526 0
M  V30 3404 H 310.944 -4.1559 -4.32903 0
M  V30 3405 H 312.014 -3.84903 -2.94919 0
M  V30 3406 N 313.357 1.07166 -1.15556 0
M  V30 3407 C 314.606 1.79181 -0.926132 0
M  V30 3408 C 314.919 1.87768 0.547967 0
M  V30 3409 O 316.125 2.56323 0.895036 0
M  V30 3410 C 314.581 3.22 -1.60761 0
M  V30 3411 C 314.189 3.21607 -3.11886 0
M  V30 3412 C 315.933 3.9861 -1.4598 0
M  V30 3413 C 313.84 4.59092 -3.72812 0
M  V30 3414 H 312.77 0.67154 -0.342856 0
M  V30 3415 H 315.421 1.2027 -1.3859 0
M  V30 3416 H 313.803 3.81115 -1.07553 0
M  V30 3417 H 314.977 2.72127 -3.71865 0
M  V30 3418 H 313.292 2.58495 -3.2645 0
M  V30 3419 H 315.889 5.00225 -1.88888 0
M  V30 3420 H 316.232 4.143 -0.407541 0
M  V30 3421 H 316.765 3.45996 -1.96295 0
M  V30 3422 H 313.504 4.48606 -4.77946 0
M  V30 3423 H 313.024 5.08803 -3.17616 0
M  V30 3424 H 314.703 5.28059 -3.73848 0
M  V30 3425 N 314.835 0.952656 1.25548 0
M  V30 3426 C 316.083 0.605176 1.92826 0
M  V30 3427 C 316.404 -0.860261 1.74999 0
M  V30 3428 O 315.674 -1.6125 1.11244 0
M  V30 3429 H 314.254 0.220832 0.713612 0
M  V30 3430 H 316.916 1.21047 1.52754 0
M  V30 3431 H 316.012 0.832798 3.00784 0
M  V30 3432 N 316.313 -1.40141 0.720998 0
M  V30 3433 C 317.276 -2.29058 0.0805834 0
M  V30 3434 C 318.276 -1.45632 -0.681758 0
M  V30 3435 O 319.466 -1.6648 -0.512856 0
M  V30 3436 C 316.598 -3.28925 -0.895593 0
M  V30 3437 H 317.791 -2.87191 0.863793 0
M  V30 3438 H 315.344 -1.48553 0.485975 0
M  V30 3439 H 316.079 -2.75822 -1.70566 0
M  V30 3440 H 315.864 -3.90519 -0.351766 0
M  V30 3441 H 317.354 -3.95494 -1.34069 0
M  V30 3442 N 317.792 -0.46758 -1.50504 0
M  V30 3443 C 319.017 0.0886943 -2.0721 0
M  V30 3444 C 319.442 1.33057 -1.32956 0
M  V30 3445 O 318.8 1.77354 -0.376197 0
M  V30 3446 C 318.848 0.359202 -3.58806 0
M  V30 3447 O 317.952 1.44034 -3.8643 0
M  V30 3448 H 317.293 -0.0114349 -0.663902 0
M  V30 3449 H 319.823 -0.657613 -1.93744 0
M  V30 3450 H 319.833 0.600742 -4.03553 0
M  V30 3451 H 318.508 -0.548311 -4.1227 0
M  V30 3452 H 317.085 1.18638 -3.53524 0
M  V30 3453 N 319.27 1.56325 -0.20005 0
M  V30 3454 C 320.517 1.97719 0.437411 0
M  V30 3455 C 320.845 1.08709 1.61284 0
M  V30 3456 O 320.1 0.127261 1.95286 0
M  V30 3457 C 320.399 3.4495 0.935103 0
M  V30 3458 C 320.065 4.5072 -0.12749 0
M  V30 3459 C 318.727 4.79368 -0.419451 0
M  V30 3460 C 321.079 5.14268 -0.847231 0
M  V30 3461 C 318.407 5.68854 -1.43604 0
M  V30 3462 C 320.759 6.04852 -1.85301 0
M  V30 3463 C 319.423 6.31855 -2.15211 0
M  V30 3464 H 318.693 0.723507 0.16006 0
M  V30 3465 H 321.34 1.89166 -0.298056 0
M  V30 3466 H 319.645 3.50599 1.74894 0
M  V30 3467 H 321.342 3.74337 1.43781 0
M  V30 3468 H 317.932 4.28458 0.11023 0
M  V30 3469 H 322.116 4.92222 -0.634901 0
M  V30 3470 H 317.372 5.88047 -1.67364 0
M  V30 3471 H 321.546 6.53152 -2.41591 0
M  V30 3472 H 319.173 7.00994 -2.94129 0
M  V30 3473 N 320.748 -0.0735177 1.57428 0
M  V30 3474 C 321.995 -0.772999 1.87166 0
M  V30 3475 C 322.323 -1.77665 0.791551 0
M  V30 3476 O 321.578 -1.94541 -0.212636 0
M  V30 3477 C 321.877 -1.51799 3.23561 0
M  V30 3478 C 321.543 -0.654484 4.46125 0
M  V30 3479 C 320.205 -0.416511 4.79394 0
M  V30 3480 C 322.557 -0.0555862 5.2117 0
M  V30 3481 C 319.885 0.429869 5.85123 0
M  V30 3482 C 322.237 0.778239 6.27795 0
M  V30 3483 C 320.901 1.0261 6.59566 0
M  V30 3484 H 320.171 -0.282861 0.684888 0
M  V30 3485 H 322.818 -0.0338272 1.9147 0
M  V30 3486 H 321.123 -2.32932 3.1504 0
M  V30 3487 H 322.82 -2.06397 3.43804 0
M  V30 3488 H 319.41 -0.850091 4.20085 0
M  V30 3489 H 323.594 -0.226558 4.95783 0
M  V30 3490 H 318.85 0.630665 6.08139 0
M  V30 3491 H 323.024 1.24906 6.85107 0
M  V30 3492 H 320.651 1.68371 7.4132 0
M  V30 3493 N 322.226 -1.5378 -0.344866 0
M  V30 3494 C 323.174 -1.82373 -1.4437 0
M  V30 3495 C 324.168 -0.694128 -1.54526 0
M  V30 3496 O 325.374 -0.877442 -1.57165 0
M  V30 3497 H 321.749 -0.577765 -0.481344 0
M  V30 3498 H 323.72 -2.74306 -1.17468 0
M  V30 3499 C 322.469 -2.04898 -2.80913 0
M  V30 3500 H 321.792 -2.9127 -2.73865 0
M  V30 3501 H 323.232 -2.28871 -3.56923 0
M  V30 3502 C 321.691 -0.834116 -3.26411 0
M  V30 3503 O 322.221 -0.0328885 -4.01687 0
M  V30 3504 N 320.427 -0.65171 -2.83198 0
M  V30 3505 H 319.974 -1.30489 -2.22104 0
M  V30 3506 H 319.932 0.159686 -3.13994 0
M  V30 3507 N 323.704 0.605807 -1.45491 0
M  V30 3508 C 324.929 1.39625 -1.53361 0
M  V30 3509 C 325.354 1.87351 -0.167645 0
M  V30 3510 O 324.712 1.60243 0.848051 0
M  V30 3511 C 324.76 2.57559 -2.5238 0
M  V30 3512 O 323.864 3.58248 -2.04285 0
M  V30 3513 H 323.205 0.416771 -0.516912 0
M  V30 3514 H 325.735 0.737103 -1.90861 0
M  V30 3515 H 325.745 3.0478 -2.71244 0
M  V30 3516 H 324.42 2.22171 -3.51586 0
M  V30 3517 H 322.997 3.17664 -1.95305 0
M  V30 3518 N 325.182 1.32811 0.848464 0
M  V30 3519 C 326.129 1.22265 1.95755 0
M  V30 3520 C 327.099 0.103413 1.65778 0
M  V30 3521 O 328.284 0.280033 1.88734 0
M  V30 3522 C 325.424 0.958014 3.31536 0
M  V30 3523 C 324.537 2.16262 3.73971 0
M  V30 3524 C 323.672 1.83295 4.98575 0
M  V30 3525 C 322.711 3.00041 5.33518 0
M  V30 3526 N 321.848 2.67125 6.49299 0
M  V30 3527 H 326.688 2.17128 2.04107 0
M  V30 3528 H 324.225 1.07982 0.998913 0
M  V30 3529 H 326.183 0.785052 4.09747 0
M  V30 3530 H 324.813 0.046159 3.22767 0
M  V30 3531 H 323.865 2.44565 2.91362 0
M  V30 3532 H 325.177 3.03572 3.95785 0
M  V30 3533 H 324.331 1.62586 5.84509 0
M  V30 3534 H 323.07 0.932078 4.7871 0
M  V30 3535 H 322.075 3.21374 4.46093 0
M  V30 3536 H 323.3 3.90869 5.55336 0
M  V30 3537 H 321.246 1.79586 6.3094 0
M  V30 3538 H 321.163 3.47965 6.71161 0
M  V30 3539 H 322.431 2.49861 7.3837 0
M  V30 3540 N 326.66 -1.06551 1.16123 0
M  V30 3541 C 327.89 -1.8274 0.963838 0
M  V30 3542 C 328.298 -1.82712 -0.491228 0
M  V30 3543 O 327.641 -1.24294 -1.35265 0
M  V30 3544 C 327.703 -3.3065 1.41106 0
M  V30 3545 C 327.367 -3.54384 2.88549 0
M  V30 3546 C 328.364 -3.4765 3.86569 0
M  V30 3547 C 326.049 -3.81789 3.26408 0
M  V30 3548 C 328.043 -3.67982 5.2045 0
M  V30 3549 C 325.73 -4.01772 4.60459 0
M  V30 3550 C 326.728 -3.94866 5.57288 0
M  V30 3551 O 326.416 -4.14306 6.88916 0
M  V30 3552 H 326.148 -0.583136 0.341948 0
M  V30 3553 H 328.702 -1.35351 1.54497 0
M  V30 3554 H 326.932 -3.78887 0.773394 0
M  V30 3555 H 328.621 -3.88324 1.1815 0
M  V30 3556 H 329.387 -3.2647 3.58667 0
M  V30 3557 H 325.266 -3.86276 2.51619 0
M  V30 3558 H 328.81 -3.62507 5.96015 0
M  V30 3559 H 324.707 -4.2244 4.88072 0
M  V30 3560 H 325.475 -4.31609 6.95454 0
M  V30 3561 N 328.138 -0.959301 -1.25041 0
M  V30 3562 C 329.068 -0.501388 -2.28053 0
M  V30 3563 C 330.049 0.454673 -1.63911 0
M  V30 3564 O 331.234 0.352618 -1.90972 0
M  V30 3565 C 328.364 0.217224 -3.4662 0
M  V30 3566 C 327.318 -0.654034 -4.22973 0
M  V30 3567 C 326.644 0.195589 -5.34342 0
M  V30 3568 C 327.944 -1.93447 -4.85155 0
M  V30 3569 H 329.638 -1.36238 -2.66608 0
M  V30 3570 H 327.184 -0.656534 -1.28163 0
M  V30 3571 H 329.137 0.548732 -4.17812 0
M  V30 3572 H 327.861 1.1125 -3.07068 0
M  V30 3573 H 326.52 -0.968693 -3.5357 0
M  V30 3574 H 326.168 1.09076 -4.91031 0
M  V30 3575 H 325.868 -0.384091 -5.86343 0
M  V30 3576 H 327.392 0.521958 -6.08365 0
M  V30 3577 H 328.806 -1.66908 -5.48466 0
M  V30 3578 H 327.203 -2.46018 -5.47353 0
M  V30 3579 H 328.273 -2.63466 -4.07079 0
M  V30 3580 N 329.616 1.39756 -0.72842 0
M  V30 3581 C 330.526 2.34444 -0.0855374 0
M  V30 3582 C 331.542 1.57976 0.729356 0
M  V30 3583 O 332.718 1.90301 0.659346 0
M  V30 3584 C 329.783 3.36965 0.815798 0
M  V30 3585 C 328.844 4.29299 -0.0105996 0
M  V30 3586 C 328.077 5.26923 0.84781 0
M  V30 3587 O 328.3 5.30859 2.08673 0
M  V30 3588 O 327.234 6.01249 0.279969 0
M  V30 3589 H 331.06 2.91065 -0.866892 0
M  V30 3590 H 328.645 1.4117 -0.48902 0
M  V30 3591 H 330.527 3.99804 1.33171 0
M  V30 3592 H 329.202 2.82739 1.57608 0
M  V30 3593 H 328.109 3.69703 -0.571877 0
M  V30 3594 H 329.442 4.86712 -0.73295 0
M  V30 3595 N 331.094 0.475555 1.50254 0
M  V30 3596 C 332.024 -0.30611 2.31485 0
M  V30 3597 C 333.005 -0.986228 1.38591 0
M  V30 3598 O 334.19 -0.982541 1.67511 0
M  V30 3599 C 331.32 -1.38588 3.1845 0
M  V30 3600 C 330.274 -0.827115 4.19932 0
M  V30 3601 C 329.6 -2.00551 4.95665 0
M  V30 3602 C 330.9 0.16463 5.2204 0
M  V30 3603 H 332.594 0.371866 2.97082 0
M  V30 3604 H 330.14 0.180282 1.42867 0
M  V30 3605 H 332.093 -1.94023 3.74076 0
M  V30 3606 H 330.817 -2.09269 2.50747 0
M  V30 3607 H 329.476 -0.294702 3.65414 0
M  V30 3608 H 329.124 -2.6994 4.2443 0
M  V30 3609 H 328.824 -1.63784 5.64313 0
M  V30 3610 H 330.348 -2.56468 5.54127 0
M  V30 3611 H 331.762 -0.300699 5.72511 0
M  V30 3612 H 330.159 0.446813 5.98434 0
M  V30 3613 H 331.229 1.08905 4.72512 0
M  V30 3614 N 332.573 -1.56217 0.208337 0
M  V30 3615 C 333.82 -1.97949 -0.42692 0
M  V30 3616 C 334.148 -1.09562 -1.60706 0
M  V30 3617 O 333.403 -0.137616 -1.95216 0
M  V30 3618 C 333.702 -3.45441 -0.916797 0
M  V30 3619 C 333.368 -4.50646 0.151391 0
M  V30 3620 C 332.03 -4.79139 0.444867 0
M  V30 3621 C 334.382 -5.13811 0.874492 0
M  V30 3622 C 331.71 -5.68084 1.46619 0
M  V30 3623 C 334.062 -6.03861 1.88506 0
M  V30 3624 C 332.726 -6.30704 2.18559 0
M  V30 3625 H 331.996 -0.724345 -0.156221 0
M  V30 3626 H 334.643 -1.89006 0.308084 0
M  V30 3627 H 332.948 -3.51521 -1.73032 0
M  V30 3628 H 334.645 -3.75094 -1.41794 0
M  V30 3629 H 331.235 -4.28511 -0.0875068 0
M  V30 3630 H 335.419 -4.91879 0.660996 0
M  V30 3631 H 330.675 -5.87151 1.7048 0
M  V30 3632 H 334.849 -6.51861 2.45051 0
M  V30 3633 H 332.476 -6.99424 2.97843 0
M  V30 3634 N 334.051 0.0651679 -1.57465 0
M  V30 3635 C 334.983 1.10359 -2.00882 0
M  V30 3636 C 335.996 1.346 -0.915788 0
M  V30 3637 O 337.185 1.32723 -1.1936 0
M  V30 3638 C 334.285 2.45312 -2.33828 0
M  V30 3639 C 333.458 2.40934 -3.65061 0
M  V30 3640 C 332.517 3.58047 -3.85602 0
M  V30 3641 O 331.543 3.39175 -4.57109 0
M  V30 3642 N 332.745 4.78637 -3.28462 0
M  V30 3643 H 335.51 0.733807 -2.90578 0
M  V30 3644 H 333.071 0.253719 -1.599 0
M  V30 3645 H 335.063 3.22314 -2.44737 0
M  V30 3646 H 333.633 2.74267 -1.49988 0
M  V30 3647 H 332.853 1.49273 -3.64844 0
M  V30 3648 H 334.141 2.35117 -4.51218 0
M  V30 3649 H 333.539 4.96872 -2.70433 0
M  V30 3650 H 332.096 5.53127 -3.44809 0
M  V30 3651 N 335.529 1.53961 0.336706 0
M  V30 3652 C 336.945 1.44378 0.680241 0
M  V30 3653 C 337.145 0.606034 1.9217 0
M  V30 3654 O 336.201 0.099688 2.52303 0
M  V30 3655 C 337.514 2.87945 0.8665 0
M  V30 3656 C 339.062 2.97763 0.964682 0
M  V30 3657 C 339.537 4.42453 1.18321 0
M  V30 3658 N 341.028 4.46008 1.25025 0
M  V30 3659 C 341.763 5.55102 1.43697 0
M  V30 3660 N 341.259 6.7419 1.59498 0
M  V30 3661 N 343.052 5.42727 1.463 0
M  V30 3662 H 335.203 2.06918 -0.479455 0
M  V30 3663 H 337.466 0.935634 -0.152619 0
M  V30 3664 H 337.172 3.51691 0.0256937 0
M  V30 3665 H 337.046 3.33293 1.76623 0
M  V30 3666 H 339.433 2.34153 1.796 0
M  V30 3667 H 339.514 2.55766 0.041708 0
M  V30 3668 H 339.158 5.06645 0.356788 0
M  V30 3669 H 339.088 4.82048 2.11985 0
M  V30 3670 H 341.579 3.60196 1.14312 0
M  V30 3671 H 341.892 7.53095 1.734 0
M  V30 3672 H 340.237 6.77123 1.56621 0
M  V30 3673 H 343.428 4.48647 1.33543 0
M  V30 3674 H 343.601 6.27806 1.6051 0
M  V30 3675 N 337.007 -0.598083 1.45811 0
M  V30 3676 C 337.939 -1.72231 1.51225 0
M  V30 3677 C 338.952 -1.57757 0.402059 0
M  V30 3678 O 340.141 -1.65464 0.669624 0
M  V30 3679 C 337.241 -3.10331 1.3619 0
M  V30 3680 C 336.414 -3.50955 2.61054 0
M  V30 3681 C 335.473 -4.68055 2.40439 0
M  V30 3682 O 334.499 -4.74691 3.14097 0
M  V30 3683 N 335.701 -5.61941 1.45612 0
M  V30 3684 H 338.466 -1.68046 2.48154 0
M  V30 3685 H 336.027 -0.783637 1.41671 0
M  V30 3686 H 338.019 -3.86439 1.20195 0
M  V30 3687 H 336.589 -3.0897 0.475015 0
M  V30 3688 H 335.809 -2.64711 2.92099 0
M  V30 3689 H 337.097 -3.74858 3.44034 0
M  V30 3690 H 336.495 -5.59301 0.848431 0
M  V30 3691 H 335.052 -6.37542 1.35585 0
M  V30 3692 N 338.485 -1.33259 -0.841409 0
M  V30 3693 C 339.896 -1.22066 -1.41269 0
M  V30 3694 C 340.247 0.161479 -1.95534 0
M  V30 3695 O 339.372 1.06094 -1.88608 0
M  V30 3696 C 339.967 -2.20996 -2.568 0
M  V30 3697 C 338.526 -2.13649 -3.09888 0
M  V30 3698 C 337.673 -2.08623 -1.82679 0
M  V30 3699 H 340.624 -1.44895 -0.647395 0
M  V30 3700 H 340.645 -1.81621 -3.34356 0
M  V30 3701 H 340.157 -3.2158 -2.17274 0
M  V30 3702 H 338.258 -1.16359 -3.53965 0
M  V30 3703 H 338.371 -3.04079 -3.70234 0
M  V30 3704 H 336.735 -1.54061 -2.02824 0
M  V30 3705 H 337.518 -3.1101 -1.45353 0
M  V30 3706 N 339.963 1.05934 -1.16686 0
M  V30 3707 C 340.926 2.11669 -0.879144 0
M  V30 3708 C 341.926 1.60294 0.127445 0
M  V30 3709 O 343.116 1.7389 -0.103865 0
M  V30 3710 C 340.248 3.39438 -0.315425 0
M  V30 3711 H 341.441 2.38626 -1.81653 0
M  V30 3712 H 338.994 1.22058 -0.976299 0
M  V30 3713 H 339.729 3.18132 0.629468 0
M  V30 3714 H 339.514 3.78034 -1.04079 0
M  V30 3715 H 341.004 4.17391 -0.132189 0
M  V30 3716 N 341.441 0.965919 1.2453 0
M  V30 3717 C 342.404 0.499547 2.2369 0
M  V30 3718 C 343.404 -0.40294 1.5567 0
M  V30 3719 O 344.594 -0.19865 1.73064 0
M  V30 3720 C 341.726 -0.276792 3.39774 0
M  V30 3721 H 342.919 1.37613 2.66463 0
M  V30 3722 H 340.472 0.750324 1.37112 0
M  V30 3723 H 341.207 -1.17055 3.02438 0
M  V30 3724 H 340.992 0.370826 3.90343 0
M  V30 3725 H 342.482 -0.592175 4.1338 0
M  V30 3726 N 342.919 -1.39368 0.735821 0
M  V30 3727 C 344.165 -2.00794 0.284544 0
M  V30 3728 C 344.498 -1.58255 -1.12557 0
M  V30 3729 O 343.773 -0.811819 -1.76748 0
M  V30 3730 C 344.056 -3.58011 0.387337 0
M  V30 3731 C 343.909 -4.10566 1.83728 0
M  V30 3732 C 345.228 -4.395 -0.22975 0
M  V30 3733 H 342.347 -0.729501 0.104866 0
M  V30 3734 H 344.989 -1.65564 0.93213 0
M  V30 3735 H 343.139 -3.88154 -0.164006 0
M  V30 3736 H 344.811 -3.91139 2.44556 0
M  V30 3737 H 343.054 -3.64095 2.35833 0
M  V30 3738 H 343.725 -5.19702 1.86047 0
M  V30 3739 H 346.201 -4.15406 0.240257 0
M  V30 3740 H 345.077 -5.48752 -0.127485 0
M  V30 3741 H 345.338 -4.22062 -1.3159 0
M  V30 3742 N 344.397 -0.483516 -1.5 0
M  V30 3743 C 345.347 0.32306 -2.257 0
M  V30 3744 C 346.331 0.950755 -1.29805 0
M  V30 3745 O 347.523 0.861247 -1.54634 0
M  V30 3746 C 344.652 1.39724 -3.13579 0
M  V30 3747 C 343.738 0.776663 -4.16928 0
M  V30 3748 N 344.129 -0.1104 -5.0568 0
M  V30 3749 C 342.427 1.03922 -4.33724 0
M  V30 3750 C 343.128 -0.46387 -5.79848 0
M  V30 3751 N 342.104 0.163987 -5.43353 0
M  V30 3752 H 345.906 -0.360086 -2.91686 0
M  V30 3753 H 343.42 -0.298456 -1.59634 0
M  V30 3754 H 345.417 1.98837 -3.66428 0
M  V30 3755 H 344.077 2.08225 -2.49143 0
M  V30 3756 H 345.088 -0.480069 -5.1567 0
M  V30 3757 H 341.765 1.71829 -3.80501 0
M  V30 3758 H 343.155 -1.18854 -6.61304 0
M  V30 3759 N 345.875 1.56104 -0.216619 0
M  V30 3760 C 346.838 2.18819 0.681962 0
M  V30 3761 C 347.838 1.14866 1.12528 0
M  V30 3762 O 349.028 1.40128 1.03488 0
M  V30 3763 C 346.16 2.80756 1.93362 0
M  V30 3764 H 347.353 2.99595 0.135254 0
M  V30 3765 H 344.906 1.56265 0.0330003 0
M  V30 3766 H 345.641 2.03837 2.52232 0
M  V30 3767 H 345.426 3.56876 1.62426 0
M  V30 3768 H 346.916 3.28844 2.57393 0
M  V30 3769 N 347.353 -0.0568162 1.57498 0
M  V30 3770 C 348.283 -1.06593 2.0775 0
M  V30 3771 C 349.264 -1.39448 0.974082 0
M  V30 3772 O 350.449 -1.48815 1.24771 0
M  V30 3773 C 347.579 -2.37509 2.5339 0
M  V30 3774 C 346.533 -2.1897 3.67745 0
M  V30 3775 C 345.859 -3.55402 3.99492 0
M  V30 3776 C 347.159 -1.59859 4.97235 0
M  V30 3777 H 348.853 -0.647706 2.9231 0
M  V30 3778 H 346.399 -0.310116 1.40621 0
M  V30 3779 H 348.352 -3.08409 2.87162 0
M  V30 3780 H 347.076 -2.8134 1.65878 0
M  V30 3781 H 345.735 -1.50508 3.3428 0
M  V30 3782 H 345.383 -3.9683 3.09088 0
M  V30 3783 H 345.083 -3.43831 4.76502 0
M  V30 3784 H 346.607 -4.27708 4.35773 0
M  V30 3785 H 348.021 -2.20642 5.29141 0
M  V30 3786 H 346.418 -1.58942 5.78669 0
M  V30 3787 H 347.488 -0.561506 4.81638 0
M  V30 3788 N 348.832 -1.54138 -0.328536 0
M  V30 3789 C 350.081 -1.71318 -1.06456 0
M  V30 3790 C 350.394 -0.491109 -1.89334 0
M  V30 3791 O 351.6 -0.54416 -2.65991 0
M  V30 3792 C 350.056 -3.03 -1.94214 0
M  V30 3793 C 349.664 -4.32595 -1.16471 0
M  V30 3794 C 351.408 -3.29544 -2.67583 0
M  V30 3795 C 349.315 -5.55341 -2.03347 0
M  V30 3796 H 348.245 -0.638429 -0.401155 0
M  V30 3797 H 350.896 -1.80633 -0.323106 0
M  V30 3798 H 349.278 -2.87579 -2.72239 0
M  V30 3799 H 350.452 -4.58766 -0.432525 0
M  V30 3800 H 348.767 -4.12777 -0.548063 0
M  V30 3801 H 351.364 -4.18444 -3.3288 0
M  V30 3802 H 351.707 -2.47206 -3.34955 0
M  V30 3803 H 352.24 -3.45809 -1.96623 0
M  V30 3804 H 348.979 -6.40268 -1.40491 0
M  V30 3805 H 348.499 -5.33397 -2.74313 0
M  V30 3806 H 350.178 -5.91557 -2.62049 0
M  V30 3807 N 350.31 0.590341 -1.46126 0
M  V30 3808 C 351.587 1.35029 -1.41515 0
M  V30 3809 C 351.967 2.10888 -0.0946472 0
M  V30 3810 O 351.315 2.08998 0.923693 0
M  V30 3811 C 351.525 2.28269 -2.63997 0
M  V30 3812 C 352.873 2.90338 -3.09821 0
M  V30 3813 O 353.897 2.38585 -2.64492 0
M  V30 3814 O 352.756 3.84321 -3.88535 0
M  V30 3815 H 349.85 0.606317 -0.562413 0
M  V30 3816 H 352.396 0.611994 -1.58281 0
M  V30 3817 H 351.168 1.71591 -3.51671 0
M  V30 3818 H 350.791 3.0945 -2.49652 0
M  V30 3819 N 351.788 1.33704 0.83433 0
M  V30 3820 C 353.065 1.16011 1.57483 0
M  V30 3821 C 353.445 -0.27176 2.09343 0
M  V30 3822 O 352.793 -1.27146 1.89858 0
M  V30 3823 C 353.003 2.20507 2.70514 0
M  V30 3824 C 354.351 2.54898 3.39577 0
M  V30 3825 O 355.375 2.19209 2.80759 0
M  V30 3826 O 354.234 3.16158 4.45765 0
M  V30 3827 H 351.328 0.448992 0.694503 0
M  V30 3828 H 353.874 1.453 0.876691 0
M  V30 3829 H 352.646 3.16667 2.29865 0
M  V30 3830 H 352.269 1.92329 3.47987 0
M  V30 3831 N 353.266 -1.05314 1.17247 0
M  V30 3832 C 354.494 -1.81971 0.984593 0
M  V30 3833 C 354.909 -1.82929 -0.467166 0
M  V30 3834 O 354.266 -1.25564 -1.32438 0
M  V30 3835 C 354.317 -3.28143 1.51672 0
M  V30 3836 O 354.038 -3.27347 2.91163 0
M  V30 3837 C 355.539 -4.21493 1.37326 0
M  V30 3838 H 352.759 -0.573455 0.348411 0
M  V30 3839 H 355.303 -1.32808 1.55506 0
M  V30 3840 H 353.458 -3.74582 0.988302 0
M  V30 3841 H 353.872 -4.18824 3.15732 0
M  V30 3842 H 355.346 -5.22043 1.79375 0
M  V30 3843 H 355.823 -4.38031 0.320169 0
M  V30 3844 H 356.429 -3.80909 1.89178 0
M  V30 3845 N 354.744 -0.972509 -1.24016 0
M  V30 3846 C 355.676 -0.464375 -2.24446 0
M  V30 3847 C 356.689 0.4295 -1.57032 0
M  V30 3848 O 357.878 0.234902 -1.76948 0
M  V30 3849 C 354.978 0.348385 -3.37105 0
M  V30 3850 C 354.151 -0.53673 -4.34094 0
M  V30 3851 C 353.21 0.220838 -5.25736 0
M  V30 3852 O 352.236 -0.386867 -5.67884 0
M  V30 3853 N 353.438 1.50907 -5.60542 0
M  V30 3854 H 356.203 -1.32788 -2.68677 0
M  V30 3855 H 353.764 -0.844877 -1.38107 0
M  V30 3856 H 355.756 0.863341 -3.95384 0
M  V30 3857 H 354.326 1.11285 -2.92121 0
M  V30 3858 H 353.546 -1.23261 -3.74433 0
M  V30 3859 H 354.834 -1.14022 -4.95859 0
M  V30 3860 H 354.232 2.02444 -5.28236 0
M  V30 3861 H 352.789 1.96962 -6.21329 0
M  V30 3862 N 356.222 1.38976 -0.743202 0
M  V30 3863 C 357.17 2.32394 -0.0978389 0
M  V30 3864 C 358.164 1.53486 0.716824 0
M  V30 3865 O 359.37 1.69092 0.617088 0
M  V30 3866 H 355.745 0.75189 -0.0128402 0
M  V30 3867 H 357.716 2.84441 -0.901981 0
M  V30 3868 C 356.465 3.38629 0.789036 0
M  V30 3869 H 355.788 3.99432 0.171559 0
M  V30 3870 H 357.228 4.06426 1.20807 0
M  V30 3871 C 355.687 2.76347 1.92702 0
M  V30 3872 O 356.217 2.64836 3.02034 0
M  V30 3873 N 354.423 2.34311 1.71891 0
M  V30 3874 H 353.97 2.43873 0.829675 0
M  V30 3875 H 353.928 1.9298 2.48205 0
M  V30 3876 N 357.7 0.491464 1.49741 0
M  V30 3877 C 358.94 -0.0549118 2.04326 0
M  V30 3878 C 359.304 -1.35148 1.36378 0
M  V30 3879 O 360.505 -1.9815 1.81631 0
M  V30 3880 C 358.776 -0.213841 3.5676 0
M  V30 3881 S 360.335 -0.715839 4.32922 0
M  V30 3882 H 357.153 -0.00630513 0.710972 0
M  V30 3883 H 359.755 0.663257 1.83905 0
M  V30 3884 H 358.459 0.73527 4.0376 0
M  V30 3885 H 357.99 -0.957529 3.81569 0
M  V30 3886 H 360.005 -1.9864 4.54705 0
M  V30 3887 N 359.178 -1.55987 0.224894 0
M  V30 3888 C 360.455 -1.90232 -0.455083 0
M  V30 3889 C 360.835 -1.14269 -1.77499 0
M  V30 3890 O 360.183 -0.253079 -2.27094 0
M  V30 3891 C 360.393 -3.42993 -0.644758 0
M  V30 3892 C 361.741 -4.13821 -0.950669 0
M  V30 3893 O 362.765 -3.4861 -0.731423 0
M  V30 3894 O 361.624 -5.29128 -1.36695 0
M  V30 3895 H 358.718 -0.79108 -0.241084 0
M  V30 3896 H 361.264 -1.67581 0.267327 0
M  V30 3897 H 360.036 -3.90252 0.28613 0
M  V30 3898 H 359.659 -3.71434 -1.41853 0
M  V30 3899 N 360.656 0.0484629 -1.57525 0
M  V30 3900 C 361.933 0.777447 -1.79486 0
M  V30 3901 C 362.313 1.94597 -0.818251 0
M  V30 3902 O 361.661 2.28047 0.143767 0
M  V30 3903 C 361.871 1.22864 -3.26658 0
M  V30 3904 C 363.219 1.65251 -3.91123 0
M  V30 3905 O 364.243 1.32372 -3.3069 0
M  V30 3906 O 363.102 2.26207 -4.97486 0
M  V30 3907 H 360.196 0.374357 -0.737419 0
M  V30 3908 H 362.742 0.0267359 -1.69679 0
M  V30 3909 H 361.514 0.393589 -3.89316 0
M  V30 3910 H 361.137 2.03996 -3.41279 0
M  V30 3911 N 362.134 1.5431 0.320358 0
M  V30 3912 C 363.383 1.7188 1.05546 0
M  V30 3913 C 363.696 0.501143 1.89071 0
M  V30 3914 O 364.902 0.558258 2.65699 0
M  V30 3915 C 363.358 3.04025 1.92605 0
M  V30 3916 C 362.966 4.33207 1.14176 0
M  V30 3917 C 364.71 3.30959 2.65832 0
M  V30 3918 C 362.617 5.56412 2.00399 0
M  V30 3919 H 361.547 0.640547 0.397763 0
M  V30 3920 H 364.198 1.80802 0.313522 0
M  V30 3921 H 362.58 2.89019 2.7071 0
M  V30 3922 H 363.754 4.58989 0.40819 0
M  V30 3923 H 362.069 4.13062 0.526165 0
M  V30 3924 H 364.666 4.20203 3.30656 0
M  V30 3925 H 365.009 2.48979 3.33639 0
M  V30 3926 H 365.542 3.46847 1.94787 0
M  V30 3927 H 362.281 6.41004 1.37094 0
M  V30 3928 H 361.801 5.34844 2.7148 0
M  V30 3929 H 363.48 5.92938 2.58908 0
M  V30 3930 N 363.613 -0.582584 1.46437 0
M  V30 3931 C 364.576 -1.67366 1.56592 0
M  V30 3932 C 365.576 -1.54575 0.443072 0
M  V30 3933 O 366.766 -1.59191 0.707381 0
M  V30 3934 C 363.898 -3.06791 1.48634 0
M  V30 3935 H 365.091 -1.5972 2.5383 0
M  V30 3936 H 362.644 -0.800432 1.34249 0
M  V30 3937 H 363.379 -3.19993 0.526763 0
M  V30 3938 H 363.164 -3.17484 2.30101 0
M  V30 3939 H 364.654 -3.86218 1.58826 0
M  V30 3940 N 365.091 -1.34144 -0.827227 0
M  V30 3941 C 366.024 -1.19707 -1.94282 0
M  V30 3942 C 367.002 -0.0897256 -1.62352 0
M  V30 3943 O 368.186 -0.254095 -1.8678 0
M  V30 3944 C 365.313 -0.838646 -3.28153 0
M  V30 3945 C 364.359 -1.95514 -3.79047 0
M  V30 3946 S 365.192 -3.56793 -3.99323 0
M  V30 3947 C 366.348 -3.22983 -5.36127 0
M  V30 3948 H 366.581 -2.1414 -2.06231 0
M  V30 3949 H 364.114 -1.19121 -0.982321 0
M  V30 3950 H 366.072 -0.638637 -4.05502 0
M  V30 3951 H 364.733 0.0872776 -3.13979 0
M  V30 3952 H 363.926 -1.658 -4.75948 0
M  V30 3953 H 363.528 -2.11241 -3.08631 0
M  V30 3954 H 365.82 -2.74531 -6.19386 0
M  V30 3955 H 366.763 -4.19008 -5.70822 0
M  V30 3956 H 367.171 -2.59276 -5.01434 0
M  V30 3957 N 366.569 1.04691 -1.17803 0
M  V30 3958 C 367.517 2.14665 -0.895635 0
M  V30 3959 C 368.511 1.68806 0.141679 0
M  V30 3960 O 369.717 1.79999 -0.00587914 0
M  V30 3961 H 366.092 0.701038 -0.272121 0
M  V30 3962 H 368.063 2.35685 -1.83017 0
M  V30 3963 C 366.812 3.45019 -0.430962 0
M  V30 3964 H 366.135 3.8071 -1.22064 0
M  V30 3965 H 367.575 4.23125 -0.272301 0
M  V30 3966 C 366.034 3.25943 0.852207 0
M  V30 3967 O 366.564 3.5296 1.91786 0
M  V30 3968 N 364.77 2.79304 0.802346 0
M  V30 3969 H 364.317 2.57518 -0.0650788 0
M  V30 3970 H 364.275 2.66921 1.66134 0
M  V30 3971 N 368.047 0.979072 1.23499 0
M  V30 3972 C 369.294 0.647219 1.91878 0
M  V30 3973 C 369.622 -0.819074 1.76413 0
M  V30 3974 O 368.877 -1.60616 1.11808 0
M  V30 3975 C 369.176 0.981932 3.43646 0
M  V30 3976 C 368.842 2.43822 3.79291 0
M  V30 3977 C 367.504 2.83622 3.88731 0
M  V30 3978 C 369.856 3.3828 3.96505 0
M  V30 3979 C 367.184 4.16897 4.12812 0
M  V30 3980 C 369.536 4.71197 4.22085 0
M  V30 3981 C 368.2 5.10758 4.29747 0
M  V30 3982 H 367.47 0.236834 0.702133 0
M  V30 3983 H 370.117 1.23268 1.46551 0
M  V30 3984 H 368.422 0.314365 3.90537 0
M  V30 3985 H 370.119 0.703395 3.94783 0
M  V30 3986 H 366.709 2.11966 3.72516 0
M  V30 3987 H 370.893 3.0871 3.88603 0
M  V30 3988 H 366.149 4.47157 4.16966 0
M  V30 3989 H 370.323 5.44348 4.34348 0
M  V30 3990 H 367.95 6.1405 4.48159 0
M  V30 3991 N 369.525 -1.3858 0.750561 0
M  V30 3992 C 370.774 -1.99424 0.302172 0
M  V30 3993 C 371.087 -1.60254 -1.12152 0
M  V30 3994 O 372.293 -2.14046 -1.67023 0
M  V30 3995 C 370.749 -3.56558 0.489307 0
M  V30 3996 C 370.357 -4.04682 1.92189 0
M  V30 3997 C 372.101 -4.24374 0.103478 0
M  V30 3998 C 370.008 -5.54446 2.05775 0
M  V30 3999 H 368.938 -0.746046 0.10923 0
M  V30 4000 H 371.589 -1.58383 0.92667 0
M  V30 4001 H 369.971 -3.95472 -0.204329 0
M  V30 4002 H 371.145 -3.77065 2.64875 0
M  V30 4003 H 369.46 -3.4958 2.26236 0
M  V30 4004 H 372.057 -5.34384 0.183787 0
M  V30 4005 H 372.4 -4.05468 -0.943481 0
M  V30 4006 H 372.933 -3.90688 0.748854 0
M  V30 4007 H 369.672 -5.78252 3.08714 0
M  V30 4008 H 369.192 -5.83816 1.37546 0
M  V30 4009 H 370.871 -6.20099 1.84626 0
M  V30 4010 N 371.003 -0.499398 -1.49478 0
M  V30 4011 C 372.252 0.0475259 -2.01644 0
M  V30 4012 C 372.565 1.38195 -1.38425 0
M  V30 4013 O 373.771 2.01547 -1.8191 0
M  V30 4014 C 372.227 0.135164 -3.59646 0
M  V30 4015 C 371.835 -1.19252 -4.31837 0
M  V30 4016 C 373.579 0.632538 -4.19761 0
M  V30 4017 C 371.486 -1.06713 -5.81693 0
M  V30 4018 H 370.416 0.0215349 -0.753692 0
M  V30 4019 H 373.067 -0.638577 -1.7203 0
M  V30 4020 H 371.449 0.885681 -3.85969 0
M  V30 4021 H 372.623 -1.9562 -4.17216 0
M  V30 4022 H 370.938 -1.62321 -3.83459 0
M  V30 4023 H 373.535 0.743833 -5.29501 0
M  V30 4024 H 373.878 1.63098 -3.83021 0
M  V30 4025 H 374.411 -0.0613987 -3.97753 0
M  V30 4026 H 371.15 -2.03979 -6.22955 0
M  V30 4027 H 370.67 -0.344307 -5.98811 0
M  V30 4028 H 372.349 -0.745208 -6.42694 0
M  V30 4029 N 372.481 1.55866 -0.233164 0
M  V30 4030 C 373.444 2.1953 0.658715 0
M  V30 4031 C 374.444 1.16053 1.11303 0
M  V30 4032 O 375.634 1.41218 1.01996 0
M  V30 4033 C 372.766 2.82791 1.90373 0
M  V30 4034 H 373.959 2.99721 0.10347 0
M  V30 4035 H 371.512 1.56291 0.0164245 0
M  V30 4036 H 372.247 2.06501 2.50056 0
M  V30 4037 H 372.032 3.58578 1.58632 0
M  V30 4038 H 373.522 3.31556 2.53891 0
M  V30 4039 N 373.959 -0.0401083 1.57549 0
M  V30 4040 C 374.906 -1.04413 2.05831 0
M  V30 4041 C 375.876 -1.36585 0.945184 0
M  V30 4042 O 377.061 -1.47112 1.21502 0
M  V30 4043 C 374.201 -2.34336 2.53339 0
M  V30 4044 C 373.314 -2.08419 3.78398 0
M  V30 4045 C 372.449 -3.32133 4.14561 0
M  V30 4046 C 371.488 -3.01721 5.3257 0
M  V30 4047 N 370.625 -4.17855 5.64218 0
M  V30 4048 H 375.465 -0.625442 2.91363 0
M  V30 4049 H 373.002 -0.297218 1.44066 0
M  V30 4050 H 374.96 -3.10234 2.78946 0
M  V30 4051 H 373.59 -2.73948 1.7074 0
M  V30 4052 H 372.642 -1.23069 3.59942 0
M  V30 4053 H 373.954 -1.81978 4.64419 0
M  V30 4054 H 373.108 -4.16406 4.41238 0
M  V30 4055 H 371.847 -3.61678 3.2717 0
M  V30 4056 H 370.852 -2.15849 5.05657 0
M  V30 4057 H 372.077 -2.73466 6.21605 0
M  V30 4058 H 370.023 -4.47372 4.79786 0
M  V30 4059 H 369.94 -3.94798 6.44725 0
M  V30 4060 H 371.208 -5.03033 5.95465 0
M  V30 4061 N 375.437 -1.54477 -0.31217 0
M  V30 4062 C 376.387 -1.81037 -1.38598 0
M  V30 4063 C 377.371 -0.666941 -1.46426 0
M  V30 4064 O 378.563 -0.927269 -1.50767 0
M  V30 4065 C 375.692 -2.05127 -2.75277 0
M  V30 4066 C 374.778 -3.25624 -2.71716 0
M  V30 4067 N 375.169 -4.46428 -2.37773 0
M  V30 4068 C 373.467 -3.27427 -3.02833 0
M  V30 4069 C 374.168 -5.28406 -2.43232 0
M  V30 4070 N 373.144 -4.6586 -2.80135 0
M  V30 4071 H 376.946 -2.7201 -1.11301 0
M  V30 4072 H 374.46 -1.53826 -0.520705 0
M  V30 4073 H 376.457 -2.22299 -3.52688 0
M  V30 4074 H 375.117 -1.15416 -3.03495 0
M  V30 4075 H 376.128 -4.73227 -2.1042 0
M  V30 4076 H 372.805 -2.47786 -3.36018 0
M  V30 4077 H 374.195 -6.34903 -2.19882 0
M  V30 4078 N 376.915 0.57481 -1.46744 0
M  V30 4079 C 378.164 1.32898 -1.51727 0
M  V30 4080 C 378.477 1.948 -0.176692 0
M  V30 4081 O 379.683 2.71299 -0.104385 0
M  V30 4082 C 378.139 2.40901 -2.67385 0
M  V30 4083 C 377.747 1.85266 -4.07898 0
M  V30 4084 C 379.491 3.17609 -2.81646 0
M  V30 4085 C 377.398 2.90945 -5.14883 0
M  V30 4086 H 376.328 0.499631 -0.564699 0
M  V30 4087 H 378.979 0.612536 -1.72975 0
M  V30 4088 H 377.361 3.15379 -2.39483 0
M  V30 4089 H 378.535 1.17278 -4.45626 0
M  V30 4090 H 376.85 1.21199 -3.98371 0
M  V30 4091 H 379.447 3.96493 -3.58744 0
M  V30 4092 H 379.79 3.70696 -1.89448 0
M  V30 4093 H 380.323 2.50239 -3.09233 0
M  V30 4094 H 377.062 2.42736 -6.089 0
M  V30 4095 H 376.582 3.57398 -4.81691 0
M  V30 4096 H 378.261 3.54755 -5.41071 0
M  V30 4097 N 378.394 1.34581 0.820102 0
M  V30 4098 C 379.642 1.26845 1.57336 0
M  V30 4099 C 379.963 -0.160667 1.94337 0
M  V30 4100 O 379.233 -1.09396 1.6251 0
M  V30 4101 H 377.813 0.466514 0.583415 0
M  V30 4102 H 380.475 1.68526 0.979027 0
M  V30 4103 H 379.571 1.87513 2.4949 0
M  V30 4104 N 379.872 -1.04064 1.18357 0
M  V30 4105 C 380.819 -2.12077 0.910603 0
M  V30 4106 C 381.789 -1.65421 -0.15 0
M  V30 4107 O 382.974 -1.90797 -0.0103614 0
M  V30 4108 C 380.114 -3.42252 0.442472 0
M  V30 4109 C 379.227 -4.0252 1.5685 0
M  V30 4110 C 378.362 -5.20657 1.05309 0
M  V30 4111 C 377.401 -5.72955 2.1538 0
M  V30 4112 N 376.538 -6.8238 1.65233 0
M  V30 4113 H 381.378 -2.34764 1.83548 0
M  V30 4114 H 378.915 -1.15157 0.915279 0
M  V30 4115 H 380.873 -4.16921 0.152534 0
M  V30 4116 H 379.503 -3.19712 -0.445428 0
M  V30 4117 H 378.555 -3.25178 1.97391 0
M  V30 4118 H 379.867 -4.37362 2.39824 0
M  V30 4119 H 379.021 -6.0244 0.717677 0
M  V30 4120 H 377.76 -4.87318 0.19293 0
M  V30 4121 H 376.765 -4.89793 2.49766 0
M  V30 4122 H 377.99 -6.08337 3.01832 0
M  V30 4123 H 375.936 -6.50917 0.815064 0
M  V30 4124 H 375.853 -7.16286 2.41805 0
M  V30 4125 H 377.121 -7.67788 1.34619 0
M  V30 4126 N 381.35 -0.985608 -1.22978 0
M  V30 4127 C 382.578 -0.675582 -1.95559 0
M  V30 4128 C 382.993 0.758413 -1.72897 0
M  V30 4129 O 382.35 1.51094 -1.02357 0
M  V30 4130 C 382.401 -0.96293 -3.48439 0
M  V30 4131 O 382.122 -2.34057 -3.70336 0
M  V30 4132 C 383.623 -0.669585 -4.38214 0
M  V30 4133 H 380.843 -0.250523 -0.622478 0
M  V30 4134 H 383.387 -1.3184 -1.56328 0
M  V30 4135 H 381.542 -0.366033 -3.85667 0
M  V30 4136 H 381.956 -2.43424 -4.64591 0
M  V30 4137 H 383.43 -0.920967 -5.44263 0
M  V30 4138 H 383.907 0.396383 -4.37408 0
M  V30 4139 H 384.513 -1.2472 -4.06602 0
M  V30 4140 N 382.828 1.3818 -0.7579 0
M  V30 4141 C 384.053 2.04827 -0.325679 0
M  V30 4142 C 384.478 1.56788 1.03919 0
M  V30 4143 O 383.836 0.721811 1.66312 0
M  V30 4144 C 383.884 3.58774 -0.362447 0
M  V30 4145 O 382.988 4.07372 0.642033 0
M  V30 4146 H 382.329 0.64833 -0.143402 0
M  V30 4147 H 384.859 1.7677 -1.03023 0
M  V30 4148 H 384.869 4.07434 -0.214844 0
M  V30 4149 H 383.544 3.93096 -1.35824 0
M  V30 4150 H 382.121 3.70068 0.458688 0
M  V30 4151 N 384.306 0.507319 1.49211 0
M  V30 4152 C 385.554 -0.0348839 2.0207 0
M  V30 4153 C 385.875 -1.36898 1.38866 0
M  V30 4154 O 385.145 -1.88133 0.546151 0
M  V30 4155 H 383.725 -0.0158812 0.746831 0
M  V30 4156 H 386.387 0.665998 1.83168 0
M  V30 4157 H 385.483 -0.159917 3.1169 0
M  V30 4158 N 385.784 -1.5574 0.241426 0
M  V30 4159 C 387.033 -1.97986 -0.385295 0
M  V30 4160 C 387.346 -1.13267 -1.59468 0
M  V30 4161 O 388.552 -1.45501 -2.2922 0
M  V30 4162 C 387.008 -3.52275 -0.736884 0
M  V30 4163 C 386.616 -4.45726 0.450796 0
M  V30 4164 C 388.36 -4.03189 -1.3281 0
M  V30 4165 C 386.267 -5.91352 0.0756662 0
M  V30 4166 H 385.197 -0.739386 -0.147731 0
M  V30 4167 H 387.848 -1.80308 0.340779 0
M  V30 4168 H 386.23 -3.65628 -1.52094 0
M  V30 4169 H 387.404 -4.44131 1.22819 0
M  V30 4170 H 385.719 -4.05264 0.956573 0
M  V30 4171 H 388.316 -5.09505 -1.62201 0
M  V30 4172 H 388.659 -3.50212 -2.25071 0
M  V30 4173 H 389.192 -3.93141 -0.607069 0
M  V30 4174 H 385.931 -6.48354 0.965272 0
M  V30 4175 H 385.451 -5.96095 -0.665635 0
M  V30 4176 H 387.13 -6.46084 -0.344075 0
M  V30 4177 N 387.262 0.0317525 -1.57568 0
M  V30 4178 C 388.509 0.723104 -1.89149 0
M  V30 4179 C 388.837 1.75504 -0.838377 0
M  V30 4180 O 388.092 1.95037 0.160982 0
M  V30 4181 C 388.391 1.43167 -3.27472 0
M  V30 4182 C 388.057 0.535972 -4.47703 0
M  V30 4183 C 386.719 0.289262 -4.8033 0
M  V30 4184 C 389.071 -0.0826125 -5.21135 0
M  V30 4185 C 386.399 -0.584853 -5.83778 0
M  V30 4186 C 388.751 -0.944414 -6.25511 0
M  V30 4187 C 387.415 -1.20061 -6.56614 0
M  V30 4188 H 386.685 0.264602 -0.692146 0
M  V30 4189 H 389.332 -0.0169496 -1.91492 0
M  V30 4190 H 387.637 2.24497 -3.21105 0
M  V30 4191 H 389.334 1.97209 -3.49155 0
M  V30 4192 H 385.924 0.738414 -4.22191 0
M  V30 4193 H 390.108 0.0950302 -4.96209 0
M  V30 4194 H 385.364 -0.79168 -6.06253 0
M  V30 4195 H 389.538 -1.43026 -6.81554 0
M  V30 4196 H 387.165 -1.87967 -7.36595 0
M  V30 4197 N 388.74 1.54641 0.303973 0
M  V30 4198 C 389.986 1.74038 1.04109 0
M  V30 4199 C 390.319 0.523051 1.87024 0
M  V30 4200 O 389.594 -0.479874 1.88487 0
M  V30 4201 C 389.877 3.02761 1.94955 0
M  V30 4202 C 389.73 4.34787 1.1524 0
M  V30 4203 C 391.049 3.27336 2.94175 0
M  V30 4204 H 388.168 0.63323 0.377079 0
M  V30 4205 H 390.81 1.87354 0.316001 0
M  V30 4206 H 388.96 2.9154 2.56782 0
M  V30 4207 H 390.632 4.57922 0.557236 0
M  V30 4208 H 388.875 4.31407 0.455053 0
M  V30 4209 H 389.546 5.21116 1.8205 0
M  V30 4210 H 392.022 3.38148 2.42477 0
M  V30 4211 H 390.898 4.18726 3.54908 0
M  V30 4212 H 391.159 2.45491 3.67677 0
M  V30 4213 N 390.218 -0.567019 1.47046 0
M  V30 4214 C 391.165 -1.67489 1.58796 0
M  V30 4215 C 392.135 -1.60399 0.43144 0
M  V30 4216 O 393.32 -1.79378 0.650233 0
M  V30 4217 C 390.46 -3.05821 1.59899 0
M  V30 4218 C 389.573 -3.2342 2.86397 0
M  V30 4219 C 388.708 -4.52093 2.789 0
M  V30 4220 C 387.747 -4.6309 4.00267 0
M  V30 4221 N 386.884 -5.83106 3.91064 0
M  V30 4222 H 391.724 -1.56785 2.53422 0
M  V30 4223 H 389.261 -0.763896 1.2571 0
M  V30 4224 H 391.219 -3.8591 1.58522 0
M  V30 4225 H 389.849 -3.15384 0.687929 0
M  V30 4226 H 388.901 -2.3683 2.97684 0
M  V30 4227 H 390.213 -3.27412 3.76301 0
M  V30 4228 H 389.367 -5.4043 2.75718 0
M  V30 4229 H 388.106 -4.50565 1.86662 0
M  V30 4230 H 387.111 -3.73168 4.03765 0
M  V30 4231 H 388.336 -4.66386 4.93621 0
M  V30 4232 H 386.282 -5.82546 3.01623 0
M  V30 4233 H 386.199 -5.88434 4.74638 0
M  V30 4234 H 387.467 -6.73831 3.91882 0
M  V30 4235 N 391.696 -1.35014 -0.812953 0
M  V30 4236 C 393.107 -1.25035 -1.38648 0
M  V30 4237 C 393.458 0.119967 -1.95833 0
M  V30 4238 O 392.583 1.02069 -1.90816 0
M  V30 4239 C 393.178 -2.26394 -2.52054 0
M  V30 4240 C 391.737 -2.20175 -3.05287 0
M  V30 4241 C 390.884 -2.12451 -1.78213 0
M  V30 4242 H 393.835 -1.46235 -0.616516 0
M  V30 4243 H 393.856 -1.88672 -3.30429 0
M  V30 4244 H 393.368 -3.26116 -2.10404 0
M  V30 4245 H 391.469 -1.23841 -3.51417 0
M  V30 4246 H 391.582 -3.11863 -3.63701 0
M  V30 4247 H 389.946 -1.58328 -1.9951 0
M  V30 4248 H 390.729 -3.14024 -1.38723 0
M  V30 4249 N 393.175 1.03435 -1.18907 0
M  V30 4250 C 394.421 1.77005 -0.989798 0
M  V30 4251 C 394.754 1.88205 0.478816 0
M  V30 4252 O 394.029 1.39481 1.35556 0
M  V30 4253 C 394.312 3.19925 -1.65287 0
M  V30 4254 C 394.165 3.1663 -3.19477 0
M  V30 4255 C 395.484 4.18189 -1.37134 0
M  V30 4256 H 392.603 0.642538 -0.360991 0
M  V30 4257 H 395.245 1.20784 -1.46667 0
M  V30 4258 H 393.395 3.67929 -1.24741 0
M  V30 4259 H 395.067 2.76567 -3.692 0
M  V30 4260 H 393.31 2.54491 -3.51307 0
M  V30 4261 H 393.981 4.1758 -3.61013 0
M  V30 4262 H 396.457 3.78761 -1.72276 0
M  V30 4263 H 395.333 5.16394 -1.86087 0
M  V30 4264 H 395.594 4.41112 -0.295424 0
M  V30 4265 N 394.653 0.992116 1.22453 0
M  V30 4266 C 395.601 0.534644 2.26372 0
M  V30 4267 C 396.595 -0.414293 1.64256 0
M  V30 4268 O 397.801 -0.286899 1.77699 0
M  V30 4269 H 394.176 0.154502 0.735957 0
M  V30 4270 H 396.147 1.42256 2.62309 0
M  V30 4271 C 394.896 -0.135815 3.47435 0
M  V30 4272 H 394.219 0.585311 3.95492 0
M  V30 4273 H 395.659 -0.419374 4.21921 0
M  V30 4274 C 394.118 -1.37089 3.07747 0
M  V30 4275 O 394.648 -2.46629 3.17076 0
M  V30 4276 N 392.854 -1.24585 2.62539 0
M  V30 4277 H 392.401 -0.354542 2.55149 0
M  V30 4278 H 392.359 -2.07327 2.36353 0
M  V30 4279 N 396.131 -1.37776 0.765217 0
M  V30 4280 C 397.064 -2.28008 0.0935025 0
M  V30 4281 C 398.042 -1.45985 -0.716047 0
M  V30 4282 O 399.226 -1.75331 -0.692203 0
M  V30 4283 C 396.353 -3.27228 -0.874052 0
M  V30 4284 C 395.399 -4.26239 -0.149307 0
M  V30 4285 S 396.232 -5.22827 1.15809 0
M  V30 4286 C 397.388 -6.256 0.193906 0
M  V30 4287 H 397.621 -2.84631 0.858637 0
M  V30 4288 H 395.154 -1.43952 0.558313 0
M  V30 4289 H 397.112 -3.84902 -1.42691 0
M  V30 4290 H 395.773 -2.69565 -1.61225 0
M  V30 4291 H 394.966 -4.96213 -0.88254 0
M  V30 4292 H 394.568 -3.7252 0.332366 0
M  V30 4293 H 396.86 -6.74508 -0.636011 0
M  V30 4294 H 397.803 -7.02838 0.861638 0
M  V30 4295 H 398.211 -5.64173 -0.191975 0
M  V30 4296 N 397.609 -0.515225 -1.4894 0
M  V30 4297 C 398.886 0.0879088 -1.95402 0
M  V30 4298 C 399.266 1.52745 -1.45712 0
M  V30 4299 O 398.614 2.18238 -0.677093 0
M  V30 4300 C 398.824 -0.0141055 -3.48997 0
M  V30 4301 C 400.172 0.152646 -4.24326 0
M  V30 4302 O 401.196 0.0604025 -3.56149 0
M  V30 4303 O 400.055 0.34384 -5.45417 0
M  V30 4304 H 397.149 0.0874636 -0.822362 0
M  V30 4305 H 399.695 -0.578775 -1.59525 0
M  V30 4306 H 398.467 -1.01745 -3.77841 0
M  V30 4307 H 398.09 0.692091 -3.9153 0
M  V30 4308 N 399.087 1.5561 -0.249682 0
M  V30 4309 C 400.035 2.22894 0.664906 0
M  V30 4310 C 401.029 1.21743 1.17792 0
M  V30 4311 O 402.235 1.39748 1.13449 0
M  V30 4312 H 398.61 0.715022 0.232912 0
M  V30 4313 H 400.581 2.98307 0.0742998 0
M  V30 4314 C 399.33 2.94424 1.84959 0
M  V30 4315 H 398.653 3.72031 1.46399 0
M  V30 4316 H 400.093 3.44862 2.4667 0
M  V30 4317 C 398.552 1.98454 2.72245 0
M  V30 4318 O 399.082 1.51939 3.71857 0
M  V30 4319 N 397.288 1.65496 2.38871 0
M  V30 4320 H 396.835 2.03517 1.57919 0
M  V30 4321 H 396.793 1.0155 2.97548 0
M  V30 4322 N 400.565 -0.0233959 1.57583 0
M  V30 4323 C 401.495 -1.02162 2.09965 0
M  V30 4324 C 402.476 -1.3735 1.00344 0
M  V30 4325 O 403.661 -1.46135 1.27899 0
M  V30 4326 C 400.791 -2.32081 2.58371 0
M  V30 4327 C 399.745 -2.1112 3.72307 0
M  V30 4328 C 399.071 -3.46848 4.06941 0
M  V30 4329 C 400.371 -1.49276 5.00514 0
M  V30 4330 H 402.065 -0.585557 2.93618 0
M  V30 4331 H 399.611 -0.280218 1.41247 0
M  V30 4332 H 401.564 -3.02249 2.93639 0
M  V30 4333 H 400.288 -2.77758 1.71808 0
M  V30 4334 H 398.947 -1.43384 3.37397 0
M  V30 4335 H 398.595 -3.90184 3.17436 0
M  V30 4336 H 398.295 -3.33646 4.83688 0
M  V30 4337 H 399.819 -4.18369 4.44747 0
M  V30 4338 H 401.233 -2.09368 5.33702 0
M  V30 4339 H 399.63 -1.46632 5.8191 0
M  V30 4340 H 400.7 -0.459217 4.82721 0
M  V30 4341 N 402.043 -1.548 -0.295768 0
M  V30 4342 C 402.953 -1.89177 -1.38742 0
M  V30 4343 C 403.969 -0.786481 -1.55211 0
M  V30 4344 O 405.145 -1.08344 -1.69775 0
M  V30 4345 C 402.21 -2.13663 -2.73036 0
M  V30 4346 C 401.271 -3.37349 -2.65508 0
M  V30 4347 C 400.504 -3.60658 -3.93398 0
M  V30 4348 O 400.727 -2.86882 -4.93006 0
M  V30 4349 O 399.661 -4.54179 -3.94975 0
M  V30 4350 H 403.487 -2.82059 -1.12589 0
M  V30 4351 H 401.072 -1.41056 -0.492295 0
M  V30 4352 H 402.954 -2.3094 -3.52484 0
M  V30 4353 H 401.629 -1.23967 -2.99022 0
M  V30 4354 H 400.536 -3.25431 -1.84514 0
M  V30 4355 H 401.869 -4.27192 -2.44474 0
M  V30 4356 N 403.521 0.559213 -1.47345 0
M  V30 4357 C 404.468 1.66645 -1.59682 0
M  V30 4358 C 405.438 1.60168 -0.43994 0
M  V30 4359 O 406.623 1.79031 -0.659736 0
M  V30 4360 C 403.763 3.04969 -1.61518 0
M  V30 4361 C 402.876 3.21897 -2.88108 0
M  V30 4362 C 402.011 4.50608 -2.81294 0
M  V30 4363 C 401.05 4.60961 -4.02717 0
M  V30 4364 N 400.187 5.81024 -3.94151 0
M  V30 4365 H 405.027 1.55439 -2.54249 0
M  V30 4366 H 402.564 0.757219 -1.26113 0
M  V30 4367 H 404.522 3.85064 -1.60566 0
M  V30 4368 H 403.152 3.15015 -0.704645 0
M  V30 4369 H 402.204 2.35248 -2.98936 0
M  V30 4370 H 403.516 3.25412 -3.78032 0
M  V30 4371 H 402.67 5.3896 -2.7858 0
M  V30 4372 H 401.409 4.49568 -1.89049 0
M  V30 4373 H 400.414 3.71021 -4.05738 0
M  V30 4374 H 401.639 4.63761 -4.96087 0
M  V30 4375 H 399.585 5.80938 -3.04708 0
M  V30 4376 H 399.502 5.85909 -4.77752 0
M  V30 4377 H 400.77 6.71744 -3.9545 0
M  V30 4378 N 404.999 1.35443 0.805782 0
M  V30 4379 C 405.909 1.30546 1.94923 0
M  V30 4380 C 406.925 0.210233 1.72725 0
M  V30 4381 O 408.101 0.43975 1.9654 0
M  V30 4382 C 405.166 1.07782 3.29521 0
M  V30 4383 C 404.227 2.26625 3.64609 0
M  V30 4384 C 403.46 2.04938 4.92784 0
M  V30 4385 O 403.683 1.01624 5.61274 0
M  V30 4386 O 402.617 2.9232 5.26149 0
M  V30 4387 H 406.443 2.26779 2.02002 0
M  V30 4388 H 404.028 1.15823 0.943682 0
M  V30 4389 H 405.91 0.969392 4.10098 0
M  V30 4390 H 404.585 0.146003 3.23371 0
M  V30 4391 H 403.492 2.43033 2.84404 0
M  V30 4392 H 404.825 3.18257 3.75464 0
M  V30 4393 N 406.477 -1.02803 1.19454 0
M  V30 4394 C 407.705 -1.79841 1.02297 0
M  V30 4395 C 408.12 -1.83879 -0.428259 0
M  V30 4396 O 407.477 -1.28345 -1.29745 0
M  V30 4397 C 407.528 -3.24852 1.58598 0
M  V30 4398 O 407.249 -3.21097 2.98041 0
M  V30 4399 C 408.75 -4.18485 1.46236 0
M  V30 4400 H 405.97 -0.565936 0.360496 0
M  V30 4401 H 408.514 -1.2948 1.58288 0
M  V30 4402 H 406.669 -3.72401 1.06753 0
M  V30 4403 H 407.083 -4.12033 3.24545 0
M  V30 4404 H 408.557 -5.18121 1.90407 0
M  V30 4405 H 409.034 -4.37254 0.41301 0
M  V30 4406 H 409.64 -3.76811 1.97215 0
M  V30 4407 N 407.956 -0.998596 -1.21925 0
M  V30 4408 C 408.904 -0.546641 -2.26085 0
M  V30 4409 C 409.898 0.405576 -1.64473 0
M  V30 4410 O 411.104 0.277471 -1.77849 0
M  V30 4411 H 407.479 -0.158403 -0.735127 0
M  V30 4412 H 409.45 -1.43645 -2.61551 0
M  V30 4413 C 408.199 0.117388 -3.47502 0
M  V30 4414 H 407.522 -0.606277 -3.95176 0
M  V30 4415 H 408.962 0.396993 -4.22137 0
M  V30 4416 C 407.421 1.35455 -3.0847 0
M  V30 4417 O 407.951 2.44944 -3.18379 0
M  V30 4418 N 406.157 1.23191 -2.63196 0
M  V30 4419 H 405.704 0.341006 -2.55333 0
M  V30 4420 H 405.662 2.06071 -2.37449 0
M  V30 4421 N 409.434 1.37368 -0.772513 0
M  V30 4422 C 410.659 2.0447 -0.347386 0
M  V30 4423 C 411.084 1.57882 1.0225 0
M  V30 4424 O 410.442 0.73941 1.65537 0
M  V30 4425 C 410.49 3.58369 -0.400479 0
M  V30 4426 O 409.594 4.0803 0.598789 0
M  V30 4427 H 408.935 0.646773 -0.15027 0
M  V30 4428 H 411.465 1.75667 -1.04892 0
M  V30 4429 H 411.475 4.07183 -0.258045 0
M  V30 4430 H 410.15 3.91633 -1.39986 0
M  V30 4431 H 408.727 3.70534 0.419411 0
M  V30 4432 N 410.912 0.523116 1.48665 0
M  V30 4433 C 412.16 -0.0134497 2.02096 0
M  V30 4434 C 412.481 -1.35418 1.40311 0
M  V30 4435 O 411.751 -1.87543 0.566074 0
M  V30 4436 H 410.331 -0.00795915 0.746958 0
M  V30 4437 H 412.993 0.685388 1.82451 0
M  V30 4438 H 412.089 -0.126849 3.11842 0
M  V30 4439 N 412.39 -1.55475 0.257931 0
M  V30 4440 C 413.62 -2.03314 -0.367026 0
M  V30 4441 C 414.028 -1.13625 -1.51281 0
M  V30 4442 O 413.371 -0.145334 -1.83124 0
M  V30 4443 C 413.433 -3.47362 -0.926284 0
M  V30 4444 C 413.097 -4.56914 0.0886584 0
M  V30 4445 C 414.094 -5.12013 0.902123 0
M  V30 4446 C 411.779 -5.01827 0.217936 0
M  V30 4447 C 413.773 -6.10529 1.83122 0
M  V30 4448 C 411.46 -6.00172 1.15052 0
M  V30 4449 C 412.458 -6.54402 1.95568 0
M  V30 4450 O 412.146 -7.50827 2.87253 0
M  V30 4451 H 411.878 -0.669976 -0.0900443 0
M  V30 4452 H 414.432 -2.01804 0.382673 0
M  V30 4453 H 412.662 -3.46056 -1.72575 0
M  V30 4454 H 414.351 -3.78637 -1.46249 0
M  V30 4455 H 415.117 -4.78139 0.812891 0
M  V30 4456 H 410.996 -4.59272 -0.398721 0
M  V30 4457 H 414.54 -6.52783 2.46008 0
M  V30 4458 H 410.437 -6.33465 1.24064 0
M  V30 4459 H 411.205 -7.68483 2.81739 0
M  V30 4460 N 413.868 0.0150385 -1.57593 0
M  V30 4461 C 415.093 0.718067 -1.94573 0
M  V30 4462 C 415.518 1.6734 -0.859005 0
M  V30 4463 O 414.876 1.80362 0.184147 0
M  V30 4464 C 414.924 1.43918 -3.30636 0
M  V30 4465 O 414.028 2.55299 -3.23876 0
M  V30 4466 H 413.369 0.192125 -0.635597 0
M  V30 4467 H 415.899 -0.0336708 -2.04572 0
M  V30 4468 H 415.909 1.80598 -3.65853 0
M  V30 4469 H 414.584 0.738619 -4.09289 0
M  V30 4470 H 413.161 2.21058 -3.00312 0
M  V30 4471 N 415.346 1.54954 0.287554 0
M  V30 4472 C 416.594 1.74528 1.01904 0
M  V30 4473 C 416.915 0.541349 1.87335 0
M  V30 4474 O 416.185 -0.444108 1.908 0
M  V30 4475 H 414.765 0.643576 0.379235 0
M  V30 4476 H 417.427 1.92333 0.315294 0
M  V30 4477 H 416.523 2.64015 1.6644 0
M  V30 4478 N 416.824 -0.551391 1.4764 0
M  V30 4479 C 417.757 -1.6738 1.5511 0
M  V30 4480 C 418.735 -1.5753 0.402856 0
M  V30 4481 O 419.919 -1.78307 0.611475 0
M  V30 4482 C 417.046 -3.05661 1.45908 0
M  V30 4483 C 416.092 -3.33938 2.65307 0
M  V30 4484 S 416.925 -3.22553 4.27457 0
M  V30 4485 C 418.081 -4.63317 4.20818 0
M  V30 4486 H 418.314 -1.6079 2.50068 0
M  V30 4487 H 415.847 -0.732674 1.35909 0
M  V30 4488 H 417.805 -3.8542 1.41286 0
M  V30 4489 H 416.466 -3.09711 0.523248 0
M  V30 4490 H 415.659 -4.34761 2.54948 0
M  V30 4491 H 415.261 -2.61809 2.67081 0
M  V30 4492 H 417.553 -5.54391 3.89431 0
M  V30 4493 H 418.496 -4.78732 5.21748 0
M  V30 4494 H 418.904 -4.41636 3.51593 0
M  V30 4495 N 418.302 -1.35869 -0.798587 0
M  V30 4496 C 419.548 -1.30788 -1.55775 0
M  V30 4497 C 419.903 0.114558 -1.92059 0
M  V30 4498 O 419.196 1.06691 -1.59147 0
M  V30 4499 C 419.39 -2.1556 -2.85077 0
M  V30 4500 C 419.219 -3.65904 -2.61428 0
M  V30 4501 C 417.989 -4.35112 -2.56915 0
M  V30 4502 C 420.187 -4.59375 -2.31255 0
M  V30 4503 N 418.169 -5.71155 -2.25068 0
M  V30 4504 C 419.54 -5.83598 -2.09316 0
M  V30 4505 C 421.595 -4.48035 -2.17185 0
M  V30 4506 C 420.298 -6.97755 -1.74731 0
M  V30 4507 C 422.324 -5.62049 -1.83998 0
M  V30 4508 C 421.686 -6.85305 -1.629 0
M  V30 4509 H 417.785 -0.533855 -0.571422 0
M  V30 4510 H 420.369 -1.7083 -0.934079 0
M  V30 4511 H 418.54 -1.77776 -3.45326 0
M  V30 4512 H 420.272 -2.01938 -3.50718 0
M  V30 4513 H 417.027 -3.87812 -2.71843 0
M  V30 4514 H 417.451 -6.42978 -2.11916 0
M  V30 4515 H 422.093 -3.53338 -2.3219 0
M  V30 4516 H 419.811 -7.92411 -1.58464 0
M  V30 4517 H 423.397 -5.55232 -1.73808 0
M  V30 4518 H 422.277 -7.72034 -1.37596 0
M  V30 4519 N 419.78 1.02168 -1.19998 0
M  V30 4520 C 420.73 2.08969 -0.911921 0
M  V30 4521 C 421.714 1.60404 0.12621 0
M  V30 4522 O 422.906 1.76817 -0.0804706 0
M  V30 4523 C 420.035 3.402 -0.460277 0
M  V30 4524 C 419.121 3.9548 -1.53155 0
M  V30 4525 N 419.512 4.24332 -2.75275 0
M  V30 4526 C 417.81 4.23572 -1.39653 0
M  V30 4527 C 418.511 4.68834 -3.44339 0
M  V30 4528 N 417.487 4.70804 -2.71744 0
M  V30 4529 H 421.289 2.29178 -1.83997 0
M  V30 4530 H 418.803 1.20094 -1.09322 0
M  V30 4531 H 420.8 4.16235 -0.235337 0
M  V30 4532 H 419.46 3.21408 0.4612 0
M  V30 4533 H 420.471 4.13393 -3.11973 0
M  V30 4534 H 417.148 4.14005 -0.539067 0
M  V30 4535 H 418.538 5.00019 -4.4881 0
M  V30 4536 N 421.258 1.00505 1.21394 0
M  V30 4537 C 422.674 0.717873 1.42544 0
M  V30 4538 C 422.874 -0.706936 1.88692 0
M  V30 4539 O 421.93 -1.47627 2.04847 0
M  V30 4540 C 423.243 1.73377 2.45684 0
M  V30 4541 C 424.791 1.75059 2.59467 0
M  V30 4542 C 425.266 2.75545 3.6584 0
M  V30 4543 N 426.757 2.74213 3.73311 0
M  V30 4544 C 427.492 3.48626 4.55245 0
M  V30 4545 N 426.988 4.32678 5.41075 0
M  V30 4546 N 428.781 3.37276 4.49668 0
M  V30 4547 H 420.932 1.92506 0.897503 0
M  V30 4548 H 423.195 0.830919 0.456375 0
M  V30 4549 H 422.901 2.75395 2.18748 0
M  V30 4550 H 422.775 1.53647 3.44489 0
M  V30 4551 H 425.162 0.737337 2.8574 0
M  V30 4552 H 425.243 1.98861 1.60897 0
M  V30 4553 H 424.887 3.77028 3.40313 0
M  V30 4554 H 424.817 2.49009 4.64007 0
M  V30 4555 H 427.308 2.13234 3.11993 0
M  V30 4556 H 427.621 4.86253 6.00648 0
M  V30 4557 H 425.966 4.3676 5.40616 0
M  V30 4558 H 429.157 2.71043 3.81646 0
M  V30 4559 H 429.33 3.95524 5.13288 0
M  V30 4560 N 422.737 -1.36956 0.779787 0
M  V30 4561 C 423.7 -2.2851 0.177662 0
M  V30 4562 C 424.7 -1.48393 -0.619377 0
M  V30 4563 O 425.89 -1.68505 -0.441785 0
M  V30 4564 C 423.022 -3.32428 -0.755279 0
M  V30 4565 H 424.215 -2.83269 0.984823 0
M  V30 4566 H 421.768 -1.46358 0.548544 0
M  V30 4567 H 422.503 -2.82808 -1.58714 0
M  V30 4568 H 422.288 -3.91659 -0.185817 0
M  V30 4569 H 423.778 -4.00824 -1.17174 0
M  V30 4570 N 424.215 -0.530993 -1.48385 0
M  V30 4571 C 425.125 0.23503 -2.3342 0
M  V30 4572 C 426.141 0.93801 -1.46552 0
M  V30 4573 O 427.317 0.912745 -1.7953 0
M  V30 4574 C 424.382 1.26778 -3.22689 0
M  V30 4575 C 423.443 0.575038 -4.25431 0
M  V30 4576 C 422.676 1.55858 -5.10435 0
M  V30 4577 O 422.899 2.79129 -4.97437 0
M  V30 4578 O 421.833 1.09742 -5.91811 0
M  V30 4579 H 425.659 -0.461794 -3.00169 0
M  V30 4580 H 423.244 -0.291903 -1.46521 0
M  V30 4581 H 425.126 1.86457 -3.77904 0
M  V30 4582 H 423.801 1.94699 -2.586 0
M  V30 4583 H 422.708 -0.0622782 -3.74048 0
M  V30 4584 H 424.041 -0.062253 -4.92161 0
M  V30 4585 N 425.693 1.55336 -0.266172 0
M  V30 4586 C 426.643 2.18848 0.639497 0
M  V30 4587 C 427.627 1.1503 1.12503 0
M  V30 4588 O 428.819 1.40875 1.0716 0
M  V30 4589 C 425.948 2.90626 1.82733 0
M  V30 4590 C 425.034 4.01723 1.35939 0
M  V30 4591 N 425.425 5.02145 0.606988 0
M  V30 4592 C 423.723 4.1463 1.6431 0
M  V30 4593 C 424.424 5.80572 0.362138 0
M  V30 4594 N 423.4 5.35551 0.931971 0
M  V30 4595 H 427.202 2.93845 0.0567057 0
M  V30 4596 H 424.716 1.62252 -0.0693312 0
M  V30 4597 H 426.713 3.34569 2.48735 0
M  V30 4598 H 425.373 2.17137 2.41416 0
M  V30 4599 H 426.384 5.17271 0.255198 0
M  V30 4600 H 423.061 3.52326 2.23993 0
M  V30 4601 H 424.451 6.71472 -0.239848 0
M  V30 4602 N 427.171 -0.0066808 1.57599 0
M  V30 4603 C 428.134 -0.985035 2.06953 0
M  V30 4604 C 429.134 -1.27663 0.977687 0
M  V30 4605 O 430.324 -1.22293 1.24057 0
M  V30 4606 C 427.456 -2.3118 2.50536 0
M  V30 4607 H 428.649 -0.558255 2.94658 0
M  V30 4608 H 426.202 -0.254011 1.54222 0
M  V30 4609 H 426.937 -2.78561 1.66054 0
M  V30 4610 H 426.722 -2.11338 3.3027 0
M  V30 4611 H 428.212 -3.01377 2.8907 0
M  V30 4612 N 428.649 -1.55105 -0.279332 0
M  V30 4613 C 429.579 -1.90557 -1.34945 0
M  V30 4614 C 430.56 -0.766738 -1.51839 0
M  V30 4615 O 431.745 -1.02434 -1.64988 0
M  V30 4616 C 428.875 -2.17193 -2.71006 0
M  V30 4617 C 427.829 -3.33021 -2.68851 0
M  V30 4618 C 427.155 -3.45123 -4.08405 0
M  V30 4619 C 428.455 -4.69578 -2.28678 0
M  V30 4620 H 430.149 -2.80188 -1.05522 0
M  V30 4621 H 427.695 -1.34811 -0.506173 0
M  V30 4622 H 429.648 -2.40581 -3.45975 0
M  V30 4623 H 428.372 -1.24355 -3.01999 0
M  V30 4624 H 427.031 -3.0959 -1.9634 0
M  V30 4625 H 426.679 -2.49762 -4.3661 0
M  V30 4626 H 426.379 -4.22995 -4.07859 0
M  V30 4627 H 427.903 -3.70796 -4.85121 0
M  V30 4628 H 429.317 -4.92553 -2.93368 0
M  V30 4629 H 427.714 -5.5032 -2.39306 0
M  V30 4630 H 428.784 -4.68828 -1.23807 0
M  V30 4631 N 430.127 0.543554 -1.4793 0
M  V30 4632 C 431.059 1.665 -1.57513 0
M  V30 4633 C 432.072 1.56156 -0.460333 0
M  V30 4634 O 433.261 1.62865 -0.730573 0
M  V30 4635 C 430.361 3.05063 -1.47614 0
M  V30 4636 C 429.534 3.41024 -2.739 0
M  V30 4637 C 428.593 4.58809 -2.57645 0
M  V30 4638 O 427.619 4.62707 -3.31498 0
M  V30 4639 N 428.821 5.56149 -1.66368 0
M  V30 4640 H 431.586 1.5872 -2.5422 0
M  V30 4641 H 429.147 0.730517 -1.44482 0
M  V30 4642 H 431.139 3.81712 -1.34455 0
M  V30 4643 H 429.709 3.06994 -0.589359 0
M  V30 4644 H 428.929 2.53687 -3.01723 0
M  V30 4645 H 430.217 3.61831 -3.57709 0
M  V30 4646 H 429.615 5.55767 -1.05543 0
M  V30 4647 H 428.172 6.32071 -1.59154 0
M  V30 4648 N 431.605 1.3629 0.791371 0
M  V30 4649 C 433.021 1.16661 1.08914 0
M  V30 4650 C 433.221 -0.0106266 2.01497 0
M  V30 4651 O 432.277 -0.676596 2.43266 0
M  V30 4652 C 433.59 2.47656 1.70549 0
M  V30 4653 C 435.138 2.54002 1.82899 0
M  V30 4654 C 435.613 3.85078 2.47949 0
M  V30 4655 N 437.104 3.86413 2.5542 0
M  V30 4656 C 437.839 4.84572 3.06557 0
M  V30 4657 N 437.335 5.93124 3.58016 0
M  V30 4658 N 439.128 4.71994 3.05251 0
M  V30 4659 H 431.279 2.11668 0.176238 0
M  V30 4660 H 433.542 0.937486 0.140796 0
M  V30 4661 H 433.248 3.34059 1.09989 0
M  V30 4662 H 433.122 2.63319 2.70079 0
M  V30 4663 H 435.509 1.68018 2.42598 0
M  V30 4664 H 435.59 2.42239 0.821808 0
M  V30 4665 H 435.234 4.71467 1.88895 0
M  V30 4666 H 435.164 3.94135 3.49235 0
M  V30 4667 H 437.655 3.07988 2.18979 0
M  V30 4668 H 437.968 6.63999 3.95381 0
M  V30 4669 H 436.313 5.96796 3.56173 0
M  V30 4670 H 439.504 3.86321 2.64336 0
M  V30 4671 H 439.677 5.48653 3.44796 0
M  V30 4672 N 433.083 -1.0153 1.20538 0
M  V30 4673 C 434.308 -1.79283 1.04271 0
M  V30 4674 C 434.733 -1.8372 -0.403544 0
M  V30 4675 O 434.091 -1.27321 -1.2907 0
M  V30 4676 C 434.139 -3.21535 1.63241 0
M  V30 4677 O 433.243 -4.03099 0.870908 0
M  V30 4678 H 432.584 -0.55293 0.367647 0
M  V30 4679 H 435.114 -1.27696 1.59859 0
M  V30 4680 H 435.124 -3.72243 1.6703 0
M  V30 4681 H 433.799 -3.1762 2.68497 0
M  V30 4682 H 432.376 -3.61693 0.907323 0
M  V30 4683 N 434.561 -1.01147 -1.20859 0
M  V30 4684 C 435.791 -0.715872 -1.93801 0
M  V30 4685 C 436.199 0.726592 -1.74692 0
M  V30 4686 O 435.542 1.50397 -1.05482 0
M  V30 4687 C 435.604 -0.965269 -3.46299 0
M  V30 4688 C 435.268 -2.39584 -3.89164 0
M  V30 4689 C 436.265 -3.3764 -3.95342 0
M  V30 4690 C 433.95 -2.73522 -4.21297 0
M  V30 4691 C 435.944 -4.67698 -4.33056 0
M  V30 4692 C 433.631 -4.03794 -4.58687 0
M  V30 4693 C 434.629 -5.00693 -4.64538 0
M  V30 4694 O 434.317 -6.28635 -5.01072 0
M  V30 4695 H 434.049 -0.262524 -0.622942 0
M  V30 4696 H 436.603 -1.35413 -1.54443 0
M  V30 4697 H 434.833 -0.269847 -3.85757 0
M  V30 4698 H 436.522 -0.662051 -4.00464 0
M  V30 4699 H 437.288 -3.12757 -3.70686 0
M  V30 4700 H 433.167 -1.9879 -4.15937 0
M  V30 4701 H 436.711 -5.4333 -4.37537 0
M  V30 4702 H 432.608 -4.28459 -4.82797 0
M  V30 4703 H 433.376 -6.32847 -5.19083 0
M  V30 4704 N 436.039 1.36541 -0.78704 0
M  V30 4705 C 437.279 2.01138 -0.363714 0
M  V30 4706 C 437.643 1.61114 1.04433 0
M  V30 4707 O 438.844 2.18285 1.56861 0
M  V30 4708 C 437.115 3.53603 -0.519582 0
M  V30 4709 S 438.674 4.38415 -0.183782 0
M  V30 4710 H 435.492 0.697263 -0.13909 0
M  V30 4711 H 438.094 1.66475 -1.02501 0
M  V30 4712 H 436.798 3.8022 -1.5447 0
M  V30 4713 H 436.329 3.93084 0.15773 0
M  V30 4714 H 438.344 4.85698 1.01547 0
M  V30 4715 N 437.518 0.538854 1.48102 0
M  V30 4716 C 438.767 0.0059532 2.01699 0
M  V30 4717 C 439.08 -1.34476 1.42041 0
M  V30 4718 O 440.286 -1.96653 1.87189 0
M  V30 4719 C 438.742 -0.0397627 3.59878 0
M  V30 4720 C 438.35 1.30659 4.28523 0
M  V30 4721 C 440.094 -0.521024 4.2129 0
M  V30 4722 C 438.001 1.22098 5.78659 0
M  V30 4723 H 436.931 -0.00154456 0.753998 0
M  V30 4724 H 439.582 0.683963 1.70277 0
M  V30 4725 H 437.964 -0.783037 3.88181 0
M  V30 4726 H 439.138 2.06613 4.11883 0
M  V30 4727 H 437.453 1.7243 3.79021 0
M  V30 4728 H 440.05 -0.603184 5.31287 0
M  V30 4729 H 440.393 -1.52885 3.8721 0
M  V30 4730 H 440.926 0.166834 3.9745 0
M  V30 4731 H 437.665 2.20424 6.17328 0
M  V30 4732 H 437.185 0.50295 5.97688 0
M  V30 4733 H 438.864 0.915345 6.40492 0
M  V30 4734 N 438.996 -1.55193 0.274407 0
M  V30 4735 C 439.944 -2.23924 -0.629362 0
M  V30 4736 C 440.938 -1.23602 -1.1584 0
M  V30 4737 O 442.144 -1.41535 -1.11211 0
M  V30 4738 H 438.519 -0.718637 -0.221507 0
M  V30 4739 H 440.49 -2.98388 -0.0268322 0
M  V30 4740 C 439.239 -2.97329 -1.80252 0
M  V30 4741 H 438.562 -3.74313 -1.40462 0
M  V30 4742 H 440.002 -3.48743 -2.41152 0
M  V30 4743 C 438.461 -2.0276 -2.69054 0
M  V30 4744 O 438.991 -1.57836 -3.69392 0
M  V30 4745 N 437.197 -1.69275 -2.36208 0
M  V30 4746 H 436.744 -2.06004 -1.54661 0
M  V30 4747 H 436.702 -1.06271 -2.95895 0
M  V30 4748 N 440.474 -0.00167713 -1.576 0
M  V30 4749 C 441.421 0.989195 -2.08527 0
M  V30 4750 C 442.391 1.34031 -0.981065 0
M  V30 4751 O 443.576 1.43839 -1.2536 0
M  V30 4752 C 440.716 2.27537 -2.59463 0
M  V30 4753 C 439.829 1.98314 -3.83791 0
M  V30 4754 C 438.964 3.21025 -4.23222 0
M  V30 4755 C 438.003 2.87495 -5.40382 0
M  V30 4756 N 437.14 4.02749 -5.75098 0
M  V30 4757 H 441.98 0.547973 -2.92919 0
M  V30 4758 H 439.517 0.258917 -1.44803 0
M  V30 4759 H 441.475 3.02729 -2.87073 0
M  V30 4760 H 440.105 2.69325 -1.77943 0
M  V30 4761 H 439.157 1.13482 -3.63078 0
M  V30 4762 H 440.469 1.69601 -4.69081 0
M  V30 4763 H 439.623 4.04561 -4.52123 0
M  V30 4764 H 438.362 3.52877 -3.36644 0
M  V30 4765 H 437.367 2.02367 -5.11202 0
M  V30 4766 H 438.592 2.56889 -6.28637 0
M  V30 4767 H 436.538 4.34494 -4.91478 0
M  V30 4768 H 436.455 3.77566 -6.54966 0
M  V30 4769 H 437.723 4.87068 -6.08592 0
M  V30 4770 N 441.952 1.55251 0.271103 0
M  V30 4771 C 442.882 1.9127 1.33933 0
M  V30 4772 C 443.863 0.77478 1.5143 0
M  V30 4773 O 445.048 1.03307 1.64442 0
M  V30 4774 C 442.178 2.18627 2.69851 0
M  V30 4775 C 441.132 3.34442 2.67081 0
M  V30 4776 C 440.458 3.47284 4.06569 0
M  V30 4777 C 441.758 4.70784 2.26185 0
M  V30 4778 H 443.452 2.80744 1.04035 0
M  V30 4779 H 440.998 1.35077 0.499017 0
M  V30 4780 H 442.951 2.42413 3.44694 0
M  V30 4781 H 441.675 1.25955 3.01335 0
M  V30 4782 H 440.334 3.10627 1.94695 0
M  V30 4783 H 439.982 2.52074 4.35279 0
M  V30 4784 H 439.682 4.25152 4.0561 0
M  V30 4785 H 441.206 3.73363 4.83148 0
M  V30 4786 H 442.62 4.94102 2.90751 0
M  V30 4787 H 441.017 5.51582 2.36384 0
M  V30 4788 H 442.087 4.69478 1.21319 0
M  V30 4789 N 443.43 -0.535701 1.48216 0
M  V30 4790 C 444.676 -1.29375 1.56173 0
M  V30 4791 C 445.009 -1.92804 0.232429 0
M  V30 4792 O 444.284 -1.78992 -0.761048 0
M  V30 4793 C 444.567 -2.38747 2.69577 0
M  V30 4794 C 444.42 -1.80046 4.12193 0
M  V30 4795 C 445.739 -3.40551 2.78771 0
M  V30 4796 H 442.858 -0.469027 0.568491 0
M  V30 4797 H 445.5 -0.597358 1.80365 0
M  V30 4798 H 443.65 -2.98147 2.4908 0
M  V30 4799 H 445.322 -1.24742 4.44114 0
M  V30 4800 H 443.565 -1.10609 4.19462 0
M  V30 4801 H 444.236 -2.59212 4.87353 0
M  V30 4802 H 446.712 -2.91099 2.97322 0
M  V30 4803 H 445.588 -4.1448 3.59857 0
M  V30 4804 H 445.849 -4.00746 1.86696 0
M  V30 4805 N 444.908 -1.36708 -0.784132 0
M  V30 4806 C 445.856 -1.31533 -1.91838 0
M  V30 4807 C 446.85 -0.206205 -1.6814 0
M  V30 4808 O 448.056 -0.373519 -1.76082 0
M  V30 4809 H 444.431 -0.409613 -0.630651 0
M  V30 4810 H 446.402 -2.2731 -1.9332 0
M  V30 4811 C 445.151 -1.12679 -3.28936 0
M  V30 4812 H 444.474 -1.97274 -3.4774 0
M  V30 4813 H 445.914 -1.13106 -4.08636 0
M  V30 4814 C 444.373 0.168281 -3.36479 0
M  V30 4815 O 444.903 1.15625 -3.84699 0
M  V30 4816 N 443.109 0.214762 -2.89805 0
M  V30 4817 H 442.656 -0.589852 -2.50756 0
M  V30 4818 H 442.614 1.08094 -2.95234 0
M  V30 4819 N 446.386 1.0089 -1.21074 0
M  V30 4820 C 447.635 1.74019 -1.01981 0
M  V30 4821 C 447.948 1.90408 0.447665 0
M  V30 4822 O 449.154 2.60707 0.757906 0
M  V30 4823 C 447.61 3.13026 -1.77603 0
M  V30 4824 C 447.218 3.04623 -3.28495 0
M  V30 4825 C 448.962 3.90312 -1.66904 0
M  V30 4826 C 446.869 4.38685 -3.96623 0
M  V30 4827 H 445.799 0.652422 -0.377971 0
M  V30 4828 H 448.45 1.12755 -1.44771 0
M  V30 4829 H 446.832 3.74878 -1.27604 0
M  V30 4830 H 448.006 2.52032 -3.85767 0
M  V30 4831 H 446.321 2.40827 -3.39693 0
M  V30 4832 H 448.918 4.8951 -2.15138 0
M  V30 4833 H 449.261 4.11558 -0.62658 0
M  V30 4834 H 449.794 3.35104 -2.14359 0
M  V30 4835 H 446.533 4.22641 -5.01054 0
M  V30 4836 H 446.053 4.91252 -3.4414 0
M  V30 4837 H 447.732 5.075 -4.01314 0
M  V30 4838 N 447.864 1.01787 1.20321 0
M  V30 4839 C 449.094 0.72614 1.93419 0
M  V30 4840 C 449.502 -0.717317 1.75075 0
M  V30 4841 O 448.845 -1.49836 1.06278 0
M  V30 4842 C 448.907 0.983621 3.45782 0
M  V30 4843 C 448.571 2.41645 3.87888 0
M  V30 4844 C 449.568 3.39732 3.93545 0
M  V30 4845 C 447.253 2.75752 4.19841 0
M  V30 4846 C 449.247 4.69988 4.30569 0
M  V30 4847 C 446.934 4.06221 4.56539 0
M  V30 4848 C 447.932 5.0315 4.61876 0
M  V30 4849 O 447.62 6.31284 4.97731 0
M  V30 4850 H 447.352 0.265824 0.621541 0
M  V30 4851 H 449.906 1.3623 1.53722 0
M  V30 4852 H 448.136 0.290301 3.85609 0
M  V30 4853 H 449.825 0.683279 4.00108 0
M  V30 4854 H 450.591 3.14718 3.69022 0
M  V30 4855 H 446.47 2.00993 4.14877 0
M  V30 4856 H 450.014 5.45642 4.3465 0
M  V30 4857 H 445.911 4.31013 4.80518 0
M  V30 4858 H 446.679 6.35591 5.15719 0
M  V30 4859 N 449.342 -1.36122 0.79427 0
M  V30 4860 C 450.619 -1.93398 0.292685 0
M  V30 4861 C 450.999 -1.72567 -1.21589 0
M  V30 4862 O 450.347 -1.08745 -2.00965 0
M  V30 4863 C 450.557 -3.42099 0.690614 0
M  V30 4864 C 451.905 -4.19231 0.673105 0
M  V30 4865 O 452.929 -3.50559 0.631389 0
M  V30 4866 O 451.788 -5.41732 0.720362 0
M  V30 4867 H 448.882 -0.823712 0.0736693 0
M  V30 4868 H 451.428 -1.45273 0.87714 0
M  V30 4869 H 450.2 -3.50938 1.73085 0
M  V30 4870 H 449.823 -3.97519 0.0803036 0
M  V30 4871 N 450.82 -0.546701 -1.47814 0
M  V30 4872 C 452.045 -0.021268 -2.07389 0
M  V30 4873 C 452.47 1.25822 -1.39822 0
M  V30 4874 O 451.828 1.75111 -0.46968 0
M  V30 4875 C 451.876 0.168502 -3.60206 0
M  V30 4876 O 450.98 1.23347 -3.93522 0
M  V30 4877 H 450.321 -0.0466108 -0.662362 0
M  V30 4878 H 452.851 -0.759387 -1.89985 0
M  V30 4879 H 452.861 0.385982 -4.0617 0
M  V30 4880 H 451.536 -0.766075 -4.08784 0
M  V30 4881 H 450.113 0.997319 -3.59316 0
M  V30 4882 N 452.299 1.55045 -0.282633 0
M  V30 4883 C 453.232 2.18951 0.64311 0
M  V30 4884 C 454.21 1.15287 1.14664 0
M  V30 4885 O 455.394 1.43846 1.21822 0
M  V30 4886 C 452.521 2.81874 1.87789 0
M  V30 4887 C 451.567 3.98906 1.50919 0
M  V30 4888 S 452.4 5.3234 0.580884 0
M  V30 4889 C 453.556 5.98737 1.82387 0
M  V30 4890 H 453.789 2.97131 0.100138 0
M  V30 4891 H 451.322 1.54255 -0.0668514 0
M  V30 4892 H 453.28 3.18757 2.58658 0
M  V30 4893 H 451.941 2.03573 2.392 0
M  V30 4894 H 451.134 4.4165 2.42819 0
M  V30 4895 H 450.736 3.63485 0.88061 0
M  V30 4896 H 453.028 6.18427 2.76684 0
M  V30 4897 H 453.971 6.93318 1.4393 0
M  V30 4898 H 454.379 5.28177 1.99223 0
M  V30 4899 N 453.777 0.010035 1.57597 0
M  V30 4900 C 455.188 -0.531426 1.78977 0
M  V30 4901 C 455.539 -1.73375 0.918454 0
M  V30 4902 O 454.664 -2.16047 0.123635 0
M  V30 4903 C 455.259 -0.97086 3.24592 0
M  V30 4904 C 453.818 -1.45756 3.47033 0
M  V30 4905 C 452.965 -0.413384 2.74201 0
M  V30 4906 H 455.916 0.236166 1.56933 0
M  V30 4907 H 455.937 -1.83633 3.33255 0
M  V30 4908 H 455.449 -0.0955893 3.87982 0
M  V30 4909 H 453.55 -2.35339 2.88871 0
M  V30 4910 H 453.663 -1.4781 4.55729 0
M  V30 4911 H 452.027 -0.877266 2.39115 0
M  V30 4912 H 452.81 0.453092 3.40297 0
M  V30 4913 N 455.255 -1.55392 -0.262866 0
M  V30 4914 C 456.185 -1.91978 -1.32917 0
M  V30 4915 C 457.166 -0.7828 -1.51017 0
M  V30 4916 O 458.351 -1.04178 -1.63892 0
M  V30 4917 C 455.481 -2.20055 -2.68687 0
M  V30 4918 C 454.435 -3.35854 -2.65304 0
M  V30 4919 C 453.761 -3.49435 -4.04721 0
M  V30 4920 C 455.061 -4.71977 -2.23685 0
M  V30 4921 H 456.755 -2.81292 -1.02544 0
M  V30 4922 H 454.301 -1.3534 -0.491846 0
M  V30 4923 H 456.254 -2.44237 -3.43404 0
M  V30 4924 H 454.978 -1.27551 -3.00663 0
M  V30 4925 H 453.637 -3.11655 -1.93045 0
M  V30 4926 H 453.285 -2.54379 -4.33936 0
M  V30 4927 H 452.985 -4.27297 -4.0335 0
M  V30 4928 H 454.509 -3.7592 -4.81161 0
M  V30 4929 H 455.923 -4.95637 -2.88127 0
M  V30 4930 H 454.32 -5.52828 -2.33456 0
M  V30 4931 H 455.39 -4.70115 -1.18827 0
M  V30 4932 N 456.733 0.527833 -1.48498 0
M  V30 4933 C 458.149 0.856571 -1.34666 0
M  V30 4934 C 458.349 1.98271 -0.35931 0
M  V30 4935 O 457.405 2.51551 0.218703 0
M  V30 4936 C 458.718 1.22207 -2.74747 0
M  V30 4937 C 460.266 1.33183 -2.83251 0
M  V30 4938 C 460.741 1.73075 -4.24039 0
M  V30 4939 N 462.232 1.80174 -4.26722 0
M  V30 4940 C 462.967 2.1243 -5.32598 0
M  V30 4941 N 462.463 2.43096 -6.4875 0
M  V30 4942 N 464.256 2.13454 -5.19994 0
M  V30 4943 H 456.407 -0.215174 -2.11307 0
M  V30 4944 H 458.67 -0.0336281 -0.947403 0
M  V30 4945 H 458.376 0.468195 -3.4857 0
M  V30 4946 H 458.25 2.17173 -3.08409 0
M  V30 4947 H 460.637 2.07647 -2.09683 0
M  V30 4948 H 460.718 0.363333 -2.53206 0
M  V30 4949 H 460.362 0.991712 -4.98124 0
M  V30 4950 H 460.292 2.70979 -4.51529 0
M  V30 4951 H 462.783 1.58744 -3.42942 0
M  V30 4952 H 463.096 2.6682 -7.25277 0
M  V30 4953 H 461.441 2.40611 -6.52021 0
M  V30 4954 H 464.632 1.88956 -4.28268 0
M  V30 4955 H 464.805 2.38261 -6.02608 0
M  V30 4956 N 458.211 1.37122 0.776871 0
M  V30 4957 C 459.441 1.35034 1.56363 0
M  V30 4958 C 459.849 -0.0674681 1.8908 0
M  V30 4959 O 459.192 -1.03826 1.51545 0
M  V30 4960 C 459.254 2.11894 2.90415 0
M  V30 4961 C 458.918 3.60897 2.80362 0
M  V30 4962 C 459.915 4.54887 2.51742 0
M  V30 4963 C 457.6 4.03951 2.98545 0
M  V30 4964 C 459.594 5.89909 2.41426 0
M  V30 4965 C 457.281 5.3906 2.87849 0
M  V30 4966 C 458.279 6.31852 2.5933 0
M  V30 4967 O 457.967 7.64479 2.48651 0
M  V30 4968 H 457.699 0.464402 0.49123 0
M  V30 4969 H 460.253 1.80992 0.971127 0
M  V30 4970 H 458.483 1.60618 3.51765 0
M  V30 4971 H 460.172 2.02505 3.51776 0
M  V30 4972 H 460.938 4.22934 2.37385 0
M  V30 4973 H 456.817 3.3209 3.19746 0
M  V30 4974 H 460.361 6.62304 2.19086 0
M  V30 4975 H 456.258 5.70617 3.01773 0
M  V30 4976 H 457.026 7.74742 2.64039 0
M  V30 4977 N 459.689 -1.00246 1.21608 0
M  V30 4978 C 460.914 -1.78167 1.06167 0
M  V30 4979 C 461.339 -1.84138 -0.384035 0
M  V30 4980 O 460.697 -1.28683 -1.27712 0
M  V30 4981 C 460.745 -3.19786 1.66642 0
M  V30 4982 O 459.849 -4.02153 0.913613 0
M  V30 4983 H 459.19 -0.549 0.37349 0
M  V30 4984 H 461.72 -1.25994 1.61204 0
M  V30 4985 H 461.73 -3.70451 1.70969 0
M  V30 4986 H 460.405 -3.14754 2.7185 0
M  V30 4987 H 458.982 -3.60711 0.945635 0
M  V30 4988 N 461.167 -1.02423 -1.1978 0
M  V30 4989 C 462.115 -0.594474 -2.24875 0
M  V30 4990 C 463.109 0.370598 -1.65296 0
M  V30 4991 O 464.315 0.239684 -1.78397 0
M  V30 4992 H 460.69 -0.173961 -0.731602 0
M  V30 4993 H 462.661 -1.4916 -2.58445 0
M  V30 4994 C 461.41 0.0436512 -3.47673 0
M  V30 4995 H 460.733 -0.689963 -3.93801 0
M  V30 4996 H 462.173 0.307362 -4.22884 0
M  V30 4997 C 460.632 1.28881 -3.11274 0
M  V30 4998 O 461.162 2.38135 -3.23503 0
M  V30 4999 N 459.368 1.1758 -2.6575 0
M  V30 5000 H 458.915 0.286769 -2.55999 0
M  V30 5001 H 458.873 2.00988 -2.41767 0
M  V30 5002 N 462.645 1.35699 -0.801477 0
M  V30 5003 C 463.894 1.98165 -0.375979 0
M  V30 5004 C 464.207 1.64306 1.06127 0
M  V30 5005 O 465.413 2.20097 1.58964 0
M  V30 5006 C 463.869 3.54497 -0.621305 0
M  V30 5007 C 463.477 3.9727 -2.07076 0
M  V30 5008 C 465.221 4.23697 -0.26091 0
M  V30 5009 C 463.128 5.46427 -2.26211 0
M  V30 5010 H 462.058 0.741478 -0.136844 0
M  V30 5011 H 464.709 1.54834 -0.984814 0
M  V30 5012 H 463.091 3.95958 0.0574112 0
M  V30 5013 H 464.265 3.66974 -2.78687 0
M  V30 5014 H 462.58 3.40943 -2.39054 0
M  V30 5015 H 465.177 5.33334 -0.381994 0
M  V30 5016 H 465.52 4.0869 0.792344 0
M  V30 5017 H 466.053 3.87639 -0.893339 0
M  V30 5018 H 462.792 5.66396 -3.29963 0
M  V30 5019 H 462.312 5.78309 -1.59119 0
M  V30 5020 H 463.991 6.12819 -2.07513 0
M  V30 5021 N 464.123 0.554532 1.47522 0
M  V30 5022 C 465.056 -0.242442 2.26908 0
M  V30 5023 C 466.034 -0.922722 1.33883 0
M  V30 5024 O 467.218 -0.942244 1.63261 0
M  V30 5025 C 464.345 -1.34525 3.10839 0
M  V30 5026 C 463.391 -0.773805 4.19422 0
M  V30 5027 S 464.224 0.377525 5.34168 0
M  V30 5028 C 465.38 -0.727164 6.21662 0
M  V30 5029 H 465.613 0.431218 2.94156 0
M  V30 5030 H 463.146 0.3408 1.50592 0
M  V30 5031 H 465.104 -1.97683 3.59766 0
M  V30 5032 H 463.765 -1.99073 2.42958 0
M  V30 5033 H 462.958 -1.60187 4.77866 0
M  V30 5034 H 462.56 -0.218448 3.73361 0
M  V30 5035 H 464.852 -1.61992 6.57849 0
M  V30 5036 H 465.795 -0.180135 7.07871 0
M  V30 5037 H 466.203 -1.01863 5.55233 0
M  V30 5038 N 465.601 -1.54893 0.290851 0
M  V30 5039 C 466.85 -1.99111 -0.322113 0
M  V30 5040 C 467.163 -1.18283 -1.55784 0
M  V30 5041 O 468.369 -1.5272 -2.24475 0
M  V30 5042 C 466.825 -3.54442 -0.624438 0
M  V30 5043 C 466.433 -4.44066 0.592373 0
M  V30 5044 C 468.177 -4.07211 -1.19916 0
M  V30 5045 C 466.084 -5.90812 0.263762 0
M  V30 5046 H 465.014 -0.743712 -0.124133 0
M  V30 5047 H 467.665 -1.79132 0.39797 0
M  V30 5048 H 466.047 -3.70281 -1.40384 0
M  V30 5049 H 467.221 -4.39999 1.36886 0
M  V30 5050 H 465.536 -4.02015 1.08502 0
M  V30 5051 H 468.133 -5.14407 -1.45909 0
M  V30 5052 H 468.476 -3.57196 -2.13815 0
M  V30 5053 H 469.009 -3.94873 -0.481687 0
M  V30 5054 H 465.748 -6.44955 1.17105 0
M  V30 5055 H 465.268 -5.97911 -0.475655 0
M  V30 5056 H 466.947 -6.46852 -0.138354 0
M  V30 5057 N 467.08 -0.0183926 -1.57589 0
M  V30 5058 C 468.305 0.676634 -1.96052 0
M  V30 5059 C 468.73 1.6548 -0.894307 0
M  V30 5060 O 468.088 1.80712 0.145849 0
M  V30 5061 C 468.136 1.36872 -3.33614 0
M  V30 5062 O 467.24 2.48372 -3.29219 0
M  V30 5063 H 466.581 0.1786 -0.63953 0
M  V30 5064 H 469.111 -0.077056 -2.04455 0
M  V30 5065 H 469.121 1.72797 -3.69601 0
M  V30 5066 H 467.796 0.651636 -4.10763 0
M  V30 5067 H 466.373 2.14639 -3.04934 0
M  V30 5068 N 468.558 1.5553 0.254621 0
M  V30 5069 C 469.49 1.86104 1.33783 0
M  V30 5070 C 470.503 0.746752 1.44663 0
M  V30 5071 O 471.692 1.0248 1.46151 0
M  V30 5072 C 468.792 2.02532 2.71724 0
M  V30 5073 C 467.965 3.33335 2.83208 0
M  V30 5074 C 467.024 3.396 4.01943 0
M  V30 5075 O 466.05 4.12862 3.91834 0
M  V30 5076 N 467.252 2.68332 5.1476 0
M  V30 5077 H 470.017 2.79605 1.07893 0
M  V30 5078 H 467.578 1.55672 0.444732 0
M  V30 5079 H 469.57 2.04074 3.4948 0
M  V30 5080 H 468.14 1.15811 2.90356 0
M  V30 5081 H 467.36 3.44176 1.92189 0
M  V30 5082 H 468.648 4.19565 2.87824 0
M  V30 5083 H 468.046 2.08528 5.25864 0
M  V30 5084 H 466.603 2.75575 5.90679 0
M  V30 5085 N 470.036 -0.519951 1.48776 0
M  V30 5086 C 471.283 -1.27522 1.57303 0
M  V30 5087 C 471.611 -1.92869 0.251328 0
M  V30 5088 O 470.866 -1.80372 -0.759243 0
M  V30 5089 C 471.165 -2.37864 2.6675 0
M  V30 5090 C 470.831 -1.90103 4.08867 0
M  V30 5091 C 469.493 -1.76795 4.47546 0
M  V30 5092 C 471.845 -1.54133 4.97888 0
M  V30 5093 C 469.173 -1.25868 5.73039 0
M  V30 5094 C 471.525 -1.04665 6.23881 0
M  V30 5095 C 470.189 -0.899823 6.61407 0
M  V30 5096 H 469.459 -0.466636 0.575614 0
M  V30 5097 H 472.106 -0.579109 1.82534 0
M  V30 5098 H 470.411 -3.13186 2.35418 0
M  V30 5099 H 472.108 -2.95969 2.70561 0
M  V30 5100 H 468.698 -2.01414 3.78326 0
M  V30 5101 H 472.882 -1.6327 4.68675 0
M  V30 5102 H 468.138 -1.13196 6.0083 0
M  V30 5103 H 472.312 -0.759074 6.92251 0
M  V30 5104 H 469.939 -0.503011 7.58534 0
M  V30 5105 N 471.514 -1.37532 -0.769588 0
M  V30 5106 C 472.762 -1.32597 -1.5252 0
M  V30 5107 C 473.083 0.0884294 -1.94799 0
M  V30 5108 O 472.353 1.03289 -1.66458 0
M  V30 5109 H 470.933 -0.487846 -0.565699 0
M  V30 5110 H 473.595 -1.72044 -0.915806 0
M  V30 5111 H 472.691 -1.96643 -2.42359 0
M  V30 5112 N 472.992 0.995999 -1.22138 0
M  V30 5113 C 474.239 1.7351 -1.04406 0
M  V30 5114 C 474.567 1.89884 0.421244 0
M  V30 5115 O 473.822 1.43683 1.32867 0
M  V30 5116 C 474.121 3.14553 -1.6968 0
M  V30 5117 C 473.787 3.18102 -3.19565 0
M  V30 5118 C 472.449 3.18778 -3.60464 0
M  V30 5119 C 474.801 3.14636 -4.15516 0
M  V30 5120 C 472.129 3.13684 -4.95801 0
M  V30 5121 C 474.481 3.11084 -5.50826 0
M  V30 5122 C 473.145 3.10074 -5.91109 0
M  V30 5123 H 472.415 0.634916 -0.38205 0
M  V30 5124 H 475.062 1.1667 -1.51857 0
M  V30 5125 H 473.367 3.74682 -1.14546 0
M  V30 5126 H 475.064 3.70477 -1.53454 0
M  V30 5127 H 471.654 3.18324 -2.86998 0
M  V30 5128 H 475.838 3.13266 -3.84939 0
M  V30 5129 H 471.094 3.11245 -5.26247 0
M  V30 5130 H 475.268 3.07357 -6.24904 0
M  V30 5131 H 472.895 3.05882 -6.95946 0
M  V30 5132 N 474.47 1.03057 1.19235 0
M  V30 5133 C 475.881 0.757449 1.70645 0
M  V30 5134 C 476.232 -0.722735 1.82403 0
M  V30 5135 O 475.357 -1.56325 1.49638 0
M  V30 5136 C 475.952 1.36833 3.09939 0
M  V30 5137 C 474.511 1.14375 3.58602 0
M  V30 5138 C 473.658 1.46533 2.35422 0
M  V30 5139 H 476.609 1.19828 1.04052 0
M  V30 5140 H 476.63 0.766184 3.72706 0
M  V30 5141 H 476.142 2.44562 3.01349 0
M  V30 5142 H 474.243 0.0847542 3.72504 0
M  V30 5143 H 474.356 1.83366 4.42622 0
M  V30 5144 H 472.72 0.884712 2.38841 0
M  V30 5145 H 473.503 2.55349 2.2946 0
M  V30 5146 N 475.948 -1.35272 0.808662 0
M  V30 5147 C 477.178 -2.02652 0.401953 0
M  V30 5148 C 477.586 -1.6108 -0.992462 0
M  V30 5149 O 476.929 -0.804984 -1.65123 0
M  V30 5150 C 476.991 -3.57174 0.408246 0
M  V30 5151 C 476.655 -4.22019 1.75353 0
M  V30 5152 C 477.652 -4.43552 2.71215 0
M  V30 5153 C 475.337 -4.59093 2.03811 0
M  V30 5154 C 477.331 -5.01264 3.93717 0
M  V30 5155 C 475.018 -5.16519 3.26576 0
M  V30 5156 C 476.016 -5.37546 4.21347 0
M  V30 5157 O 475.704 -5.93761 5.41944 0
M  V30 5158 H 475.436 -0.656495 0.161216 0
M  V30 5159 H 477.99 -1.73829 1.0942 0
M  V30 5160 H 476.22 -3.85197 -0.340608 0
M  V30 5161 H 477.909 -4.05893 0.0235623 0
M  V30 5162 H 478.675 -4.15288 2.50522 0
M  V30 5163 H 474.554 -4.42039 1.30854 0
M  V30 5164 H 478.098 -5.17592 4.67701 0
M  V30 5165 H 473.995 -5.4421 3.47139 0
M  V30 5166 H 474.763 -6.1221 5.43269 0
M  V30 5167 N 477.426 -0.562348 -1.47226 0
M  V30 5168 C 478.389 0.172056 -2.28553 0
M  V30 5169 C 479.389 0.837928 -1.37242 0
M  V30 5170 O 480.579 0.693001 -1.59822 0
M  V30 5171 C 477.711 1.25223 -3.17068 0
M  V30 5172 H 478.904 -0.542401 -2.94954 0
M  V30 5173 H 476.457 -0.319493 -1.53 0
M  V30 5174 H 477.192 1.99892 -2.55369 0
M  V30 5175 H 476.977 0.779515 -3.84273 0
M  V30 5176 H 478.467 1.76791 -3.78332 0
M  V30 5177 N 478.904 1.54736 -0.299062 0
M  V30 5178 C 479.852 2.24897 0.593658 0
M  V30 5179 C 480.846 1.25429 1.13859 0
M  V30 5180 O 482.052 1.43286 1.08945 0
M  V30 5181 H 478.427 0.72207 0.210046 0
M  V30 5182 H 480.398 2.98393 -0.0206421 0
M  V30 5183 C 479.147 3.00159 1.75499 0
M  V30 5184 H 478.47 3.76501 1.34489 0
M  V30 5185 H 479.91 3.52535 2.35574 0
M  V30 5186 C 478.369 2.07015 2.65794 0
M  V30 5187 O 478.899 1.63692 3.66835 0
M  V30 5188 N 477.105 1.73012 2.33485 0
M  V30 5189 H 476.652 2.08439 1.51364 0
M  V30 5190 H 476.61 1.10965 2.94167 0
M  V30 5191 N 480.382 0.0267497 1.57577 0
M  V30 5192 C 481.612 -0.6617 1.95717 0
M  V30 5193 C 482.02 -1.66331 0.901706 0
M  V30 5194 O 481.363 -1.83273 -0.125241 0
M  V30 5195 C 481.425 -1.42649 3.29987 0
M  V30 5196 C 481.089 -0.583482 4.5326 0
M  V30 5197 C 482.086 0.140221 5.19711 0
M  V30 5198 C 479.771 -0.521581 4.99585 0
M  V30 5199 C 481.765 0.914523 6.30805 0
M  V30 5200 C 479.452 0.256428 6.10562 0
M  V30 5201 C 480.45 0.973189 6.76031 0
M  V30 5202 O 480.138 1.73845 7.84878 0
M  V30 5203 H 479.87 -0.187483 0.649481 0
M  V30 5204 H 482.424 0.0820847 2.05236 0
M  V30 5205 H 480.654 -2.21536 3.16952 0
M  V30 5206 H 482.343 -2.00282 3.53047 0
M  V30 5207 H 483.109 0.101716 4.84893 0
M  V30 5208 H 478.988 -1.06904 4.48433 0
M  V30 5209 H 482.532 1.4745 6.81839 0
M  V30 5210 H 478.429 0.296657 6.44818 0
M  V30 5211 H 479.197 1.65797 8.01532 0
M  V30 5212 N 481.861 -1.55662 -0.24637 0
M  V30 5213 C 482.808 -1.90361 -1.30504 0
M  V30 5214 C 483.778 -0.757905 -1.47801 0
M  V30 5215 O 484.963 -1.01161 -1.61775 0
M  V30 5216 C 482.103 -2.2042 -2.65535 0
M  V30 5217 C 481.216 -3.47799 -2.56242 0
M  V30 5218 C 480.351 -3.67426 -3.8363 0
M  V30 5219 C 479.39 -4.88403 -3.68956 0
M  V30 5220 N 478.527 -5.04548 -4.88237 0
M  V30 5221 H 483.367 -2.80645 -1.00213 0
M  V30 5222 H 480.904 -1.38924 -0.483577 0
M  V30 5223 H 482.862 -2.35853 -3.44135 0
M  V30 5224 H 481.492 -1.3334 -2.93973 0
M  V30 5225 H 480.544 -3.40694 -1.69208 0
M  V30 5226 H 481.856 -4.36544 -2.4131 0
M  V30 5227 H 481.01 -3.82821 -4.70673 0
M  V30 5228 H 479.749 -2.76914 -4.01459 0
M  V30 5229 H 478.754 -4.72984 -2.80296 0
M  V30 5230 H 479.979 -5.80375 -3.52621 0
M  V30 5231 H 477.925 -4.16974 -5.06427 0
M  V30 5232 H 477.842 -5.87384 -4.75937 0
M  V30 5233 H 479.11 -5.24355 -5.76777 0
M  V30 5234 N 483.339 0.512053 -1.4905 0
M  V30 5235 C 484.755 0.84224 -1.35567 0
M  V30 5236 C 484.955 1.97878 -0.380319 0
M  V30 5237 O 484.011 2.51769 0.19201 0
M  V30 5238 C 485.324 1.19286 -2.76028 0
M  V30 5239 C 486.872 1.30171 -2.84648 0
M  V30 5240 C 487.347 1.68568 -4.25851 0
M  V30 5241 N 488.838 1.75638 -4.28609 0
M  V30 5242 C 489.573 2.06769 -5.34821 0
M  V30 5243 N 489.069 2.36201 -6.51292 0
M  V30 5244 N 490.862 2.07927 -5.22229 0
M  V30 5245 H 483.013 -0.237574 -2.11067 0
M  V30 5246 H 485.276 -0.0436747 -0.946993 0
M  V30 5247 H 484.982 0.431199 -3.49047 0
M  V30 5248 H 484.856 2.13889 -3.10695 0
M  V30 5249 H 487.243 2.05411 -2.11873 0
M  V30 5250 H 487.324 0.336457 -2.53578 0
M  V30 5251 H 486.968 0.938824 -4.99148 0
M  V30 5252 H 486.898 2.66174 -4.54377 0
M  V30 5253 H 489.389 1.55097 -3.44606 0
M  V30 5254 H 489.702 2.59112 -7.28066 0
M  V30 5255 H 488.047 2.33681 -6.54536 0
M  V30 5256 H 491.238 1.84403 -4.30248 0
M  V30 5257 H 491.411 2.31856 -6.05101 0
M  V30 5258 N 484.817 1.37938 0.762283 0
M  V30 5259 C 485.764 1.34467 1.87583 0
M  V30 5260 C 486.734 0.208633 1.64785 0
M  V30 5261 O 487.919 0.399494 1.86571 0
M  V30 5262 C 485.059 1.16692 3.24772 0
M  V30 5263 C 484.172 2.39608 3.59461 0
M  V30 5264 C 483.307 2.14631 4.85908 0
M  V30 5265 C 482.346 3.33364 5.13357 0
M  V30 5266 N 481.483 3.07877 6.30996 0
M  V30 5267 H 486.323 2.29669 1.89885 0
M  V30 5268 H 483.86 1.14116 0.928219 0
M  V30 5269 H 485.818 1.04405 4.03925 0
M  V30 5270 H 484.448 0.251333 3.2182 0
M  V30 5271 H 483.5 2.626 2.75219 0
M  V30 5272 H 484.812 3.28128 3.75678 0
M  V30 5273 H 483.966 1.99429 5.72986 0
M  V30 5274 H 482.705 1.23463 4.71814 0
M  V30 5275 H 481.71 3.49094 4.24751 0
M  V30 5276 H 482.935 4.25395 5.29354 0
M  V30 5277 H 480.881 2.19348 6.18241 0
M  V30 5278 H 480.798 3.89944 6.47673 0
M  V30 5279 H 482.066 2.96313 7.20985 0
M  V30 5280 N 486.295 -0.989507 1.22664 0
M  V30 5281 C 487.544 -1.72375 1.04737 0
M  V30 5282 C 487.857 -1.91096 -0.417316 0
M  V30 5283 O 489.063 -2.6188 -0.716334 0
M  V30 5284 C 487.519 -3.10161 1.82561 0
M  V30 5285 C 487.127 -2.99358 3.333 0
M  V30 5286 C 488.871 -3.87607 1.73093 0
M  V30 5287 C 486.778 -4.32319 4.03552 0
M  V30 5288 H 485.708 -0.646326 0.388302 0
M  V30 5289 H 488.359 -1.10437 1.46546 0
M  V30 5290 H 486.741 -3.728 1.33552 0
M  V30 5291 H 487.915 -2.45863 3.89728 0
M  V30 5292 H 486.23 -2.35392 3.43481 0
M  V30 5293 H 488.827 -4.86025 2.22899 0
M  V30 5294 H 489.17 -4.10509 0.691976 0
M  V30 5295 H 489.703 -3.31652 2.19663 0
M  V30 5296 H 486.442 -4.14616 5.07714 0
M  V30 5297 H 485.962 -4.85714 3.51911 0
M  V30 5298 H 487.641 -5.01051 4.09337 0
M  V30 5299 O 487.812 -1.16279 -1.12078 0
M  V30 5300 H 488.503 -0.894109 -1.7183 0
M  V30 END ATOM
M  V30 BEGIN BOND
M  V30 END BOND
M  V30 END CTAB
M  END
$$$$
