drugbank_target|P06971 Ferrichrome-iron receptor (DB01814; DB02379; DB02415; DB02613; DB02626; DB02700; DB02724; DB02767; DB02865; DB02907; DB03017; DB03111; DB03548; DB03574; DB04039; DB04220; DB04526; DB08231)
 OpenBabel12092119523D

  0  0  0     0  0            999 V3000
M  V30 BEGIN CTAB
M  V30 COUNTS 11358 11498 0 0 0
M  V30 BEGIN ATOM
M  V30 1 H -0.908 1.98254 -0.117106 0
M  V30 2 N 0 1.576 0 0
M  V30 3 C 0.933 2.03868 1.02534 0
M  V30 4 C 1.911 0.928543 1.3348 0
M  V30 5 O 3.095 1.19667 1.45644 0
M  V30 6 C 0.222 2.43627 2.35294 0
M  V30 7 C -0.732 3.65373 2.2001 0
M  V30 8 S 0.101 5.13292 1.52614 0
M  V30 9 C 1.257 5.56322 2.86805 0
M  V30 10 H 1.49 2.90518 0.631377 0
M  V30 11 H -0.977 1.52953 0.210867 0
M  V30 12 H 0.981 2.67203 3.11629 0
M  V30 13 H -0.358 1.57376 2.7183 0
M  V30 14 H -1.165 3.90944 3.18086 0
M  V30 15 H -1.563 3.418 1.51819 0
M  V30 16 H 0.729 5.58782 3.83104 0
M  V30 17 H 1.672 6.56266 2.65933 0
M  V30 18 H 2.08 4.83886 2.90714 0
M  V30 19 N 1.4781 -0.272755 1.55222 0
M  V30 20 C 2.4411 -1.32041 1.87344 0
M  V30 21 C 3.4411 -1.42342 0.74803 0
M  V30 22 O 4.6311 -1.41488 1.0162 0
M  V30 23 C 1.7631 -2.70173 2.07893 0
M  V30 24 H 2.9561 -1.04789 2.80997 0
M  V30 25 H 0.5091 -0.51083 1.47717 0
M  V30 26 H 1.2441 -3.02605 1.16622 0
M  V30 27 H 1.0291 -2.64082 2.89833 0
M  V30 28 H 2.5191 -3.45869 2.34017 0
M  V30 29 N 2.9562 -1.48159 -0.537278 0
M  V30 30 C 4.3722 -1.34118 -0.865129 0
M  V30 31 C 4.5722 -0.346678 -1.98495 0
M  V30 32 O 3.6282 0.234715 -2.51407 0
M  V30 33 C 4.9412 -2.73963 -1.23954 0
M  V30 34 C 6.4892 -2.82397 -1.34984 0
M  V30 35 C 6.9642 -4.22928 -1.75772 0
M  V30 36 N 8.4552 -4.25566 -1.82887 0
M  V30 37 C 9.1902 -5.31235 -2.15817 0
M  V30 38 N 8.6862 -6.47189 -2.47222 0
M  V30 39 N 10.4792 -5.18624 -2.16761 0
M  V30 40 H 2.6302 -2.1144 0.201715 0
M  V30 41 H 4.8932 -0.947598 0.0275949 0
M  V30 42 H 4.5992 -3.48264 -0.490381 0
M  V30 43 H 4.4732 -3.0702 -2.19132 0
M  V30 44 H 6.8602 -2.08356 -2.08978 0
M  V30 45 H 6.9412 -2.5297 -0.379448 0
M  V30 46 H 6.5852 -4.97482 -1.02341 0
M  V30 47 H 6.5152 -4.49794 -2.73848 0
M  V30 48 H 9.0062 -3.41924 -1.60924 0
M  V30 49 H 9.3192 -7.23564 -2.71433 0
M  V30 50 H 7.6642 -6.50476 -2.44757 0
M  V30 51 H 10.8552 -4.27056 -1.91679 0
M  V30 52 H 11.0282 -6.01078 -2.42093 0
M  V30 53 N 4.4343 0.785586 -1.36625 0
M  V30 54 C 5.6593 1.57963 -1.34397 0
M  V30 55 C 6.0843 1.87964 0.071526 0
M  V30 56 O 5.4423 1.48182 1.0446 0
M  V30 57 C 5.4903 2.87511 -2.17646 0
M  V30 58 O 4.5943 3.81281 -1.57158 0
M  V30 59 H 3.9353 0.479014 -0.459828 0
M  V30 60 H 6.4653 0.973411 -1.79961 0
M  V30 61 H 6.4753 3.36745 -2.30362 0
M  V30 62 H 5.1503 2.65002 -3.20541 0
M  V30 63 H 3.7273 3.39885 -1.53403 0
M  V30 64 N 5.9124 1.20967 1.01018 0
M  V30 65 C 6.8594 0.964281 2.09691 0
M  V30 66 C 7.8294 -0.107853 1.65749 0
M  V30 67 O 9.0144 0.0381987 1.90762 0
M  V30 68 C 6.1544 0.52943 3.41015 0
M  V30 69 C 5.2674 1.67043 3.98398 0
M  V30 70 C 4.4024 1.18525 5.17808 0
M  V30 71 C 3.4414 2.29892 5.67288 0
M  V30 72 N 2.5784 1.82546 6.77954 0
M  V30 73 H 7.4184 1.89463 2.30017 0
M  V30 74 H 4.9554 0.944289 1.1279 0
M  V30 75 H 6.9134 0.258588 4.16398 0
M  V30 76 H 5.5434 -0.363919 3.20742 0
M  V30 77 H 4.5954 2.05603 3.20049 0
M  V30 78 H 5.9074 2.50877 4.31117 0
M  V30 79 H 5.0614 0.870762 6.00419 0
M  V30 80 H 3.8004 0.316887 4.86669 0
M  V30 81 H 2.8054 2.6215 4.83278 0
M  V30 82 H 4.0304 3.17216 6.00459 0
M  V30 83 H 1.9764 0.980454 6.48632 0
M  V30 84 H 1.8934 2.59956 7.09901 0
M  V30 85 H 3.1614 1.54115 7.64113 0
M  V30 86 N 7.3905 -1.2043 1.01659 0
M  V30 87 C 8.6185 -1.93777 0.725132 0
M  V30 88 C 9.0335 -1.74772 -0.714166 0
M  V30 89 O 8.3905 -1.06169 -1.4844 0
M  V30 90 C 8.4415 -3.45876 1.05129 0
M  V30 91 O 8.1625 -3.6426 2.43406 0
M  V30 92 C 9.6635 -4.36368 0.780891 0
M  V30 93 H 6.8835 -0.615901 0.266284 0
M  V30 94 H 9.4275 -1.52922 1.35776 0
M  V30 95 H 7.5825 -3.8461 0.464065 0
M  V30 96 H 7.9965 -4.58246 2.55169 0
M  V30 97 H 9.4705 -5.41743 1.05918 0
M  V30 98 H 9.9475 -4.38275 -0.284937 0
M  V30 99 H 10.5535 -4.03296 1.35027 0
M  V30 100 N 8.8686 -0.792821 -1.36206 0
M  V30 101 C 9.8316 -0.199459 -2.2833 0
M  V30 102 C 10.8316 0.605189 -1.48977 0
M  V30 103 O 12.0216 0.425685 -1.68919 0
M  V30 104 C 9.1536 0.723523 -3.33134 0
M  V30 105 H 10.3466 -1.01181 -2.82316 0
M  V30 106 H 7.8996 -0.562485 -1.45828 0
M  V30 107 H 8.6346 1.56008 -2.84309 0
M  V30 108 H 8.4196 0.148436 -3.91819 0
M  V30 109 H 9.9096 1.13344 -4.01924 0
M  V30 110 N 10.3467 1.47872 -0.545128 0
M  V30 111 C 11.2787 2.27869 0.246621 0
M  V30 112 C 12.2917 1.36282 0.890561 0
M  V30 113 O 13.4807 1.61207 0.766449 0
M  V30 114 C 10.5807 3.10159 1.36582 0
M  V30 115 C 9.7537 4.29627 0.820954 0
M  V30 116 C 8.8127 4.93607 1.82314 0
M  V30 117 O 7.8387 5.52366 1.37406 0
M  V30 118 N 9.0407 4.87211 3.15603 0
M  V30 119 H 11.8057 2.96459 -0.439539 0
M  V30 120 H 9.3667 1.57367 -0.380421 0
M  V30 121 H 11.3587 3.49829 2.03474 0
M  V30 122 H 9.9287 2.43891 1.9554 0
M  V30 123 H 9.1487 3.94192 -0.0244032 0
M  V30 124 H 10.4367 5.06928 0.436063 0
M  V30 125 H 9.8347 4.40651 3.54744 0
M  V30 126 H 8.3917 5.30937 3.78087 0
M  V30 127 N 11.8248 0.280983 1.55075 0
M  V30 128 C 13.2358 -0.215629 1.85451 0
M  V30 129 C 13.5868 -1.54991 1.203 0
M  V30 130 O 12.7118 -2.10699 0.493435 0
M  V30 131 C 13.3068 -0.398026 3.36454 0
M  V30 132 C 11.8658 -0.838866 3.66933 0
M  V30 133 C 11.0128 0.064458 2.77225 0
M  V30 134 H 13.9638 0.502601 1.50531 0
M  V30 135 H 13.9848 -1.23569 3.59876 0
M  V30 136 H 13.4968 0.573241 3.83843 0
M  V30 137 H 11.5978 -1.8214 3.25048 0
M  V30 138 H 11.7108 -0.672123 4.74362 0
M  V30 139 H 10.0748 -0.452863 2.50642 0
M  V30 140 H 10.8578 1.03172 3.2743 0
M  V30 141 N 13.3029 -1.57598 0.00835791 0
M  V30 142 C 14.2499 -2.08945 -0.980346 0
M  V30 143 C 15.2199 -0.986738 -1.33614 0
M  V30 144 O 16.4049 -1.25968 -1.43306 0
M  V30 145 C 13.5449 -2.60425 -2.26435 0
M  V30 146 C 12.6579 -3.84628 -1.96685 0
M  V30 147 C 11.7929 -4.24579 -3.19228 0
M  V30 148 C 10.8319 -5.41596 -2.85202 0
M  V30 149 N 9.9689 -5.768 -4.00307 0
M  V30 150 H 14.8089 -2.93148 -0.535551 0
M  V30 151 H 12.3459 -1.44912 -0.252776 0
M  V30 152 H 14.3039 -2.88354 -3.01509 0
M  V30 153 H 12.9339 -1.79083 -2.68568 0
M  V30 154 H 11.9859 -3.63556 -1.11942 0
M  V30 155 H 13.2979 -4.69796 -1.67611 0
M  V30 156 H 12.4519 -4.53834 -4.02641 0
M  V30 157 H 11.1909 -3.38137 -3.51447 0
M  V30 158 H 10.1959 -5.12056 -2.00198 0
M  V30 159 H 11.4209 -6.29721 -2.54222 0
M  V30 160 H 9.3669 -4.93316 -4.32407 0
M  V30 161 H 9.2839 -6.5656 -3.74786 0
M  V30 162 H 10.5519 -6.10652 -4.84484 0
M  V30 163 N 14.781 0.264519 -1.55364 0
M  V30 164 C 15.731 1.32966 -1.85214 0
M  V30 165 C 16.715 1.44306 -0.711653 0
M  V30 166 O 17.907 1.47844 -0.973192 0
M  V30 167 C 15.036 2.68839 -2.13495 0
M  V30 168 C 14.122 2.61575 -3.33825 0
M  V30 169 N 14.513 2.23933 -4.53528 0
M  V30 170 C 12.811 2.92621 -3.36584 0
M  V30 171 C 13.512 2.26868 -5.35636 0
M  V30 172 N 12.488 2.65677 -4.74254 0
M  V30 173 H 16.29 1.02884 -2.75304 0
M  V30 174 H 13.804 0.473157 -1.55354 0
M  V30 175 H 15.801 3.45685 -2.33039 0
M  V30 176 H 14.461 2.99802 -1.24694 0
M  V30 177 H 15.472 1.95769 -4.79474 0
M  V30 178 H 12.149 3.2824 -2.58002 0
M  V30 179 H 13.539 2.00254 -6.41364 0
M  V30 180 N 16.2591 1.48442 0.529413 0
M  V30 181 C 17.4841 1.60406 1.31471 0
M  V30 182 C 17.9091 0.264738 1.86228 0
M  V30 183 O 17.2671 -0.763668 1.64432 0
M  V30 184 C 17.3151 2.65419 2.44101 0
M  V30 185 O 16.4191 2.22618 3.47153 0
M  V30 186 H 15.7601 0.537863 0.389357 0
M  V30 187 H 18.2901 1.94432 0.636965 0
M  V30 188 H 18.3001 2.86709 2.90279 0
M  V30 189 H 16.9751 3.62652 2.03608 0
M  V30 190 H 15.5521 2.11543 3.0709 0
M  V30 191 N 17.7372 -0.778329 1.37039 0
M  V30 192 C 18.6672 -1.90546 1.34962 0
M  V30 193 C 19.6482 -1.68681 0.219274 0
M  V30 194 O 20.8332 -1.89634 0.418624 0
M  V30 195 C 17.9632 -3.27734 1.14925 0
M  V30 196 C 16.9172 -3.64147 2.24902 0
M  V30 197 C 16.2432 -4.99806 1.89996 0
M  V30 198 C 17.5432 -3.71579 3.67051 0
M  V30 199 H 19.2372 -1.92541 2.29277 0
M  V30 200 H 16.7832 -0.924948 1.10366 0
M  V30 201 H 18.7362 -4.06215 1.12104 0
M  V30 202 H 17.4602 -3.26154 0.170631 0
M  V30 203 H 16.1192 -2.8797 2.26868 0
M  V30 204 H 15.7672 -4.94759 0.906796 0
M  V30 205 H 15.4672 -5.25139 2.63634 0
M  V30 206 H 16.9912 -5.80694 1.88749 0
M  V30 207 H 18.4052 -4.40227 3.67251 0
M  V30 208 H 16.8022 -4.08405 4.39688 0
M  V30 209 H 17.8722 -2.72404 4.01154 0
M  V30 210 N 19.2153 -1.21501 -1.00376 0
M  V30 211 C 20.6313 -0.972629 -1.26539 0
M  V30 212 C 20.8313 0.340257 -1.98606 0
M  V30 213 O 19.8873 1.06561 -2.28913 0
M  V30 214 C 21.2003 -2.16404 -2.08781 0
M  V30 215 C 22.7483 -2.20643 -2.22004 0
M  V30 216 C 23.2233 -3.39306 -3.07629 0
M  V30 217 N 24.7143 -3.39401 -3.15217 0
M  V30 218 C 25.4493 -4.27867 -3.81729 0
M  V30 219 N 24.9453 -5.26533 -4.5026 0
M  V30 220 N 26.7383 -4.15672 -3.78382 0
M  V30 221 H 18.8893 -2.05929 -0.520281 0
M  V30 222 H 21.1523 -0.901803 -0.292328 0
M  V30 223 H 20.8583 -3.11554 -1.63178 0
M  V30 224 H 20.7323 -2.15567 -3.09533 0
M  V30 225 H 23.1193 -1.26048 -2.66825 0
M  V30 226 H 23.2003 -2.25523 -1.20718 0
M  V30 227 H 22.8443 -4.34195 -2.63509 0
M  V30 228 H 22.7743 -3.31665 -4.09031 0
M  V30 229 H 25.2653 -2.67997 -2.66432 0
M  V30 230 H 25.5783 -5.90337 -4.98721 0
M  V30 231 H 23.9233 -5.30457 -4.49044 0
M  V30 232 H 27.1143 -3.3785 -3.23998 0
M  V30 233 H 27.2873 -4.84825 -4.2994 0
M  V30 234 N 20.6934 1.19889 -1.02296 0
M  V30 235 C 21.6404 2.22901 -0.598651 0
M  V30 236 C 22.6104 1.61588 0.384521 0
M  V30 237 O 23.7954 1.88697 0.282522 0
M  V30 238 C 20.9354 3.45063 0.0504476 0
M  V30 239 C 20.0484 4.20783 -0.978053 0
M  V30 240 C 19.1834 5.30356 -0.299338 0
M  V30 241 C 18.2224 5.97826 -1.31416 0
M  V30 242 N 17.3594 6.98975 -0.661667 0
M  V30 243 H 22.1994 2.58554 -1.48169 0
M  V30 244 H 19.7364 1.27039 -0.741584 0
M  V30 245 H 21.6944 4.14831 0.443971 0
M  V30 246 H 20.3244 3.10084 0.897097 0
M  V30 247 H 19.3764 3.50018 -1.48969 0
M  V30 248 H 20.6884 4.67109 -1.74958 0
M  V30 249 H 19.8424 6.06516 0.149347 0
M  V30 250 H 18.5814 4.85084 0.504445 0
M  V30 251 H 17.5864 5.20422 -1.77317 0
M  V30 252 H 18.8114 6.45183 -2.11933 0
M  V30 253 H 16.7574 6.55886 0.122132 0
M  V30 254 H 16.6744 7.43461 -1.37117 0
M  V30 255 H 17.9424 7.7914 -0.236785 0
M  V30 256 N 22.1715 0.800033 1.35784 0
M  V30 257 C 23.4205 0.37387 1.98205 0
M  V30 258 C 23.7335 -1.06302 1.64193 0
M  V30 259 O 24.9395 -1.59198 2.19928 0
M  V30 260 C 23.3955 0.617532 3.54562 0
M  V30 261 C 23.0035 2.06654 3.9749 0
M  V30 262 C 24.7475 0.256401 4.23725 0
M  V30 263 C 22.6545 2.2563 5.46667 0
M  V30 264 H 21.5845 0.136055 0.741623 0
M  V30 265 H 24.2355 0.983166 1.54939 0
M  V30 266 H 22.6175 -0.0616248 3.95952 0
M  V30 267 H 23.7915 2.78296 3.67271 0
M  V30 268 H 22.1065 2.38691 3.41197 0
M  V30 269 H 24.7035 0.376318 5.33374 0
M  V30 270 H 25.0465 -0.796692 4.08606 0
M  V30 271 H 25.5795 0.889214 3.87734 0
M  V30 272 H 22.3185 3.2936 5.66747 0
M  V30 273 H 21.8385 1.58504 5.78478 0
M  V30 274 H 23.5175 2.06861 6.1304 0
M  V30 275 N 23.6496 -1.47581 0.552962 0
M  V30 276 C 24.6126 -2.28439 -0.186605 0
M  V30 277 C 25.6126 -1.36706 -0.84665 0
M  V30 278 O 26.8026 -1.59378 -0.703164 0
M  V30 279 C 23.9346 -3.16264 -1.2724 0
M  V30 280 H 25.1276 -2.95294 0.523609 0
M  V30 281 H 22.6806 -1.532 0.309745 0
M  V30 282 H 23.4156 -2.54091 -2.01514 0
M  V30 283 H 23.2006 -3.83769 -0.803968 0
M  V30 284 H 24.6906 -3.77198 -1.79196 0
M  V30 285 N 25.1277 -0.289203 -1.54924 0
M  V30 286 C 26.3737 0.323998 -2.00195 0
M  V30 287 C 26.7067 1.54441 -1.17735 0
M  V30 288 O 25.9817 1.92875 -0.250878 0
M  V30 289 C 26.2647 0.692276 -3.53383 0
M  V30 290 C 26.1177 -0.536457 -4.46589 0
M  V30 291 C 27.4367 1.52335 -4.12895 0
M  V30 292 H 24.5557 0.116289 -0.727768 0
M  V30 293 H 27.1977 -0.398954 -1.85764 0
M  V30 294 H 25.3477 1.30822 -3.65811 0
M  V30 295 H 27.0197 -1.17499 -4.46085 0
M  V30 296 H 25.2627 -1.17192 -4.1767 0
M  V30 297 H 25.9337 -0.234806 -5.515 0
M  V30 298 H 28.4097 1.00302 -4.0383 0
M  V30 299 H 27.2857 1.74982 -5.20262 0
M  V30 300 H 27.5467 2.50886 -3.64018 0
M  V30 301 N 26.6058 1.57591 -0.0167156 0
M  V30 302 C 27.8518 1.91567 0.665582 0
M  V30 303 C 28.1848 0.892298 1.72487 0
M  V30 304 O 27.4598 -0.0867127 1.94307 0
M  V30 305 C 27.7428 3.36069 1.29342 0
M  V30 306 C 27.5958 4.49135 0.244541 0
M  V30 307 C 28.9148 3.803 2.21495 0
M  V30 308 H 26.0338 0.69666 0.240488 0
M  V30 309 H 28.6758 1.89866 -0.0714356 0
M  V30 310 H 26.8258 3.3765 1.92158 0
M  V30 311 H 28.4978 4.59689 -0.385228 0
M  V30 312 H 26.7408 4.3165 -0.431379 0
M  V30 313 H 27.4118 5.47242 0.723207 0
M  V30 314 H 29.8878 3.80377 1.68678 0
M  V30 315 H 28.7638 4.82127 2.62382 0
M  V30 316 H 29.0248 3.15104 3.101 0
M  V30 317 N 28.0839 -0.256276 1.55502 0
M  V30 318 C 29.3299 -0.987079 1.77157 0
M  V30 319 C 29.6629 -1.85327 0.580315 0
M  V30 320 O 28.9379 -1.89874 -0.421686 0
M  V30 321 C 29.2209 -1.85553 3.08613 0
M  V30 322 C 29.0739 -1.01816 4.38125 0
M  V30 323 C 30.3929 -2.8397 3.36228 0
M  V30 324 H 27.5119 -0.357428 0.644526 0
M  V30 325 H 30.1539 -0.258239 1.88237 0
M  V30 326 H 28.3039 -2.47695 2.99298 0
M  V30 327 H 29.9759 -0.416159 4.59419 0
M  V30 328 H 28.2189 -0.322178 4.32602 0
M  V30 329 H 28.8899 -1.65939 5.26468 0
M  V30 330 H 31.3659 -2.31964 3.45445 0
M  V30 331 H 30.2419 -3.41864 4.29442 0
M  V30 332 H 30.5029 -3.59955 2.56681 0
M  V30 333 N 29.562 -1.4872 -0.521534 0
M  V30 334 C 30.525 -1.63379 -1.60748 0
M  V30 335 C 31.525 -0.50661 -1.52611 0
M  V30 336 O 32.715 -0.772601 -1.5613 0
M  V30 337 C 29.847 -1.61192 -3.00383 0
M  V30 338 H 31.04 -2.60217 -1.49087 0
M  V30 339 H 28.593 -1.37444 -0.744235 0
M  V30 340 H 29.328 -0.65863 -3.17541 0
M  V30 341 H 29.113 -2.43032 -3.07698 0
M  V30 342 H 30.603 -1.7466 -3.7932 0
M  V30 343 N 31.0401 0.771051 -1.3745 0
M  V30 344 C 32.2681 1.56015 -1.35893 0
M  V30 345 C 32.6831 1.88718 0.0555523 0
M  V30 346 O 32.0401 1.51502 1.01752 0
M  V30 347 C 32.0911 2.87001 -2.19801 0
M  V30 348 O 31.8121 2.557 -3.55738 0
M  V30 349 C 33.3131 3.81228 -2.26231 0
M  V30 350 H 30.5331 0.483317 -0.465453 0
M  V30 351 H 33.0771 0.955611 -1.80799 0
M  V30 352 H 31.2321 3.43877 -1.78402 0
M  V30 353 H 31.6461 3.39584 -3.99729 0
M  V30 354 H 33.1201 4.70139 -2.89263 0
M  V30 355 H 33.5971 4.20409 -1.27093 0
M  V30 356 H 34.2031 3.30281 -2.67945 0
M  V30 357 N 32.5182 1.22032 0.997298 0
M  V30 358 C 33.4812 0.987909 2.06816 0
M  V30 359 C 34.4812 -0.0440084 1.6074 0
M  V30 360 O 35.6712 0.194053 1.73116 0
M  V30 361 C 32.8032 0.49132 3.37341 0
M  V30 362 H 33.9962 1.93803 2.28868 0
M  V30 363 H 31.5492 1.03838 1.16822 0
M  V30 364 H 32.2842 -0.463364 3.20973 0
M  V30 365 H 32.0692 1.23575 3.72118 0
M  V30 366 H 33.5592 0.348824 4.16141 0
M  V30 367 N 33.9963 -1.19345 1.0293 0
M  V30 368 C 35.2423 -1.89318 0.727083 0
M  V30 369 C 35.5753 -1.79446 -0.742483 0
M  V30 370 O 34.8503 -1.1871 -1.54072 0
M  V30 371 C 35.1333 -3.40238 1.17942 0
M  V30 372 C 34.9863 -3.58979 2.71024 0
M  V30 373 C 36.3053 -4.33479 0.760548 0
M  V30 374 H 33.4243 -0.687475 0.265606 0
M  V30 375 H 36.0663 -1.40477 1.2793 0
M  V30 376 H 34.2163 -3.81964 0.709608 0
M  V30 377 H 35.8883 -3.26421 3.25955 0
M  V30 378 H 34.1313 -3.02018 3.11396 0
M  V30 379 H 34.8023 -4.64823 2.9773 0
M  V30 380 H 37.2783 -3.99469 1.16464 0
M  V30 381 H 36.1543 -5.37664 1.10493 0
M  V30 382 H 36.4153 -4.40813 -0.337063 0
M  V30 383 N 35.4744 -0.807222 -1.35358 0
M  V30 384 C 36.6994 -0.399309 -2.0352 0
M  V30 385 C 37.1244 0.981986 -1.60433 0
M  V30 386 O 36.4824 1.63601 -0.781299 0
M  V30 387 C 36.5304 -0.491552 -3.57234 0
M  V30 388 O 35.6344 0.494754 -4.09421 0
M  V30 389 H 34.9754 -0.166682 -0.642739 0
M  V30 390 H 37.5054 -1.09328 -1.72941 0
M  V30 391 H 37.5154 -0.361588 -4.06395 0
M  V30 392 H 36.1904 -1.49907 -3.87944 0
M  V30 393 H 34.7674 0.324977 -3.71481 0
M  V30 394 N 36.9525 1.47285 -0.560781 0
M  V30 395 C 38.2005 2.02064 -0.0379868 0
M  V30 396 C 38.5215 1.43711 1.31803 0
M  V30 397 O 37.7915 0.61362 1.86042 0
M  V30 398 H 36.3715 0.746918 -0.0110531 0
M  V30 399 H 39.0335 1.80648 -0.731598 0
M  V30 400 H 38.1295 3.12064 0.0474463 0
M  V30 401 N 38.4306 0.297415 1.54768 0
M  V30 402 C 39.3636 -0.622188 2.19554 0
M  V30 403 C 40.3416 -1.13558 1.16376 0
M  V30 404 O 41.5256 -1.20444 1.45002 0
M  V30 405 C 38.6526 -1.8509 2.83653 0
M  V30 406 C 37.6986 -1.47106 4.00328 0
M  V30 407 S 38.5316 -0.53006 5.3287 0
M  V30 408 C 39.6876 -1.76665 6.0045 0
M  V30 409 H 39.9206 -0.0717806 2.97213 0
M  V30 410 H 37.4536 0.0815678 1.54184 0
M  V30 411 H 39.4116 -2.55605 3.21211 0
M  V30 412 H 38.0726 -2.37247 2.05846 0
M  V30 413 H 37.2656 -2.38594 4.43947 0
M  V30 414 H 36.8676 -0.845885 3.64309 0
M  V30 415 H 39.1596 -2.7077 6.21039 0
M  V30 416 H 40.1026 -1.37308 6.9466 0
M  V30 417 H 40.5106 -1.94174 5.30054 0
M  V30 418 N 39.9087 -1.5758 0.0250728 0
M  V30 419 C 41.1337 -1.96337 -0.668317 0
M  V30 420 C 41.5587 -0.901314 -1.651 0
M  V30 421 O 40.9167 0.138187 -1.80773 0
M  V30 422 C 40.9647 -3.34191 -1.35457 0
M  V30 423 O 40.0687 -3.30269 -2.46974 0
M  V30 424 H 39.4097 -0.640281 -0.175887 0
M  V30 425 H 41.9397 -2.0442 0.0857224 0
M  V30 426 H 41.9497 -3.70331 -1.71228 0
M  V30 427 H 40.6247 -4.11036 -0.634218 0
M  V30 428 H 39.2017 -3.05841 -2.13344 0
M  V30 429 N 41.3868 0.248026 -1.55636 0
M  V30 430 C 42.6328 0.97767 -1.77678 0
M  V30 431 C 42.9658 1.85016 -0.590135 0
M  V30 432 O 42.2408 1.90095 0.411611 0
M  V30 433 C 42.5238 1.83914 -3.09593 0
M  V30 434 C 42.3768 0.99491 -4.38659 0
M  V30 435 C 43.6958 2.82183 -3.37729 0
M  V30 436 H 40.8148 0.354005 -0.646413 0
M  V30 437 H 43.4568 0.248253 -1.88371 0
M  V30 438 H 41.6068 2.46104 -3.00608 0
M  V30 439 H 43.2788 0.391789 -4.59633 0
M  V30 440 H 41.5218 0.299231 -4.32767 0
M  V30 441 H 42.1928 1.63145 -5.2734 0
M  V30 442 H 44.6688 2.30129 -3.4667 0
M  V30 443 H 43.5448 3.39582 -4.31249 0
M  V30 444 H 43.8058 3.58588 -2.58586 0
M  V30 445 N 42.8649 1.48995 0.513639 0
M  V30 446 C 44.0949 1.61297 1.291 0
M  V30 447 C 44.5029 0.278656 1.87137 0
M  V30 448 O 43.8459 -0.744325 1.67945 0
M  V30 449 C 43.9079 2.61326 2.46879 0
M  V30 450 C 43.5719 4.05993 2.09807 0
M  V30 451 C 44.5689 4.93183 1.64519 0
M  V30 452 C 42.2539 4.51642 2.19829 0
M  V30 453 C 44.2479 6.24056 1.2974 0
M  V30 454 C 41.9349 5.82532 1.84662 0
M  V30 455 C 42.9329 6.68562 1.3969 0
M  V30 456 O 42.6209 7.97014 1.04992 0
M  V30 457 H 42.3529 0.546236 0.39825 0
M  V30 458 H 44.9069 1.95673 0.62459 0
M  V30 459 H 43.1369 2.22104 3.16554 0
M  V30 460 H 44.8259 2.6329 3.08923 0
M  V30 461 H 45.5919 4.59147 1.56233 0
M  V30 462 H 41.4709 3.84855 2.53786 0
M  V30 463 H 45.0149 6.91161 0.945659 0
M  V30 464 H 40.9119 6.16099 1.92594 0
M  V30 465 H 41.6799 8.09913 1.18249 0
M  V30 466 N 44.343 -0.763751 1.37857 0
M  V30 467 C 45.306 -1.85889 1.34081 0
M  V30 468 C 46.306 -1.58949 0.243277 0
M  V30 469 O 47.496 -1.66882 0.499589 0
M  V30 470 C 44.628 -3.23176 1.08489 0
M  V30 471 H 45.821 -1.90648 2.31502 0
M  V30 472 H 43.374 -0.964367 1.23003 0
M  V30 473 H 44.109 -3.24091 0.116318 0
M  V30 474 H 43.894 -3.44124 1.8794 0
M  V30 475 H 45.384 -4.03254 1.08517 0
M  V30 476 N 45.8211 -1.22559 -0.990812 0
M  V30 477 C 46.7531 -0.955325 -2.08342 0
M  V30 478 C 47.7661 0.0668408 -1.62663 0
M  V30 479 O 48.9551 -0.167421 -1.77713 0
M  V30 480 C 46.0551 -0.415566 -3.36342 0
M  V30 481 C 45.2281 -1.49544 -4.11042 0
M  V30 482 C 44.2871 -0.962399 -5.17324 0
M  V30 483 O 43.3131 -1.64907 -5.44788 0
M  V30 484 N 44.5151 0.215134 -5.80101 0
M  V30 485 H 47.2801 -1.89596 -2.32106 0
M  V30 486 H 44.8411 -1.13276 -1.15673 0
M  V30 487 H 46.8331 -0.0442386 -4.04676 0
M  V30 488 H 45.4031 0.430232 -3.09625 0
M  V30 489 H 44.6231 -2.04 -3.37309 0
M  V30 490 H 45.9111 -2.22195 -4.57719 0
M  V30 491 H 45.3091 0.789779 -5.6016 0
M  V30 492 H 43.8661 0.527826 -6.49659 0
M  V30 493 N 47.2992 1.18797 -1.03562 0
M  V30 494 C 48.2622 2.20464 -0.626769 0
M  V30 495 C 49.2622 1.57721 0.313173 0
M  V30 496 O 50.4522 1.73917 0.0992615 0
M  V30 497 C 47.5842 3.40802 0.0818498 0
M  V30 498 H 48.7772 2.58149 -1.5264 0
M  V30 499 H 46.3302 1.32593 -0.827578 0
M  V30 500 H 47.0652 3.08642 0.995518 0
M  V30 501 H 46.8502 3.8758 -0.593652 0
M  V30 502 H 48.3402 4.16092 0.354584 0
M  V30 503 N 48.7773 0.814389 1.34928 0
M  V30 504 C 49.7403 0.235759 2.27984 0
M  V30 505 C 50.7403 -0.581412 1.49921 0
M  V30 506 O 51.9303 -0.398758 1.69575 0
M  V30 507 C 49.0623 -0.670433 3.34242 0
M  V30 508 H 50.2553 1.05659 2.80671 0
M  V30 509 H 47.8083 0.585614 1.44915 0
M  V30 510 H 48.5433 -1.51466 2.86755 0
M  V30 511 H 48.3283 -0.0860822 3.92005 0
M  V30 512 H 49.8183 -1.06935 4.03676 0
M  V30 513 N 50.2554 -1.46986 0.568584 0
M  V30 514 C 51.5014 -2.02741 0.0488709 0
M  V30 515 C 51.8344 -1.44077 -1.30214 0
M  V30 516 O 51.1094 -0.600552 -1.84996 0
M  V30 517 C 51.3924 -3.60086 -0.032047 0
M  V30 518 C 51.2454 -4.29162 1.34686 0
M  V30 519 C 52.5644 -4.33838 -0.739798 0
M  V30 520 H 49.6834 -0.736749 0.0192338 0
M  V30 521 H 52.3254 -1.75289 0.733065 0
M  V30 522 H 50.4754 -3.83606 -0.61473 0
M  V30 523 H 52.1474 -4.16948 1.97362 0
M  V30 524 H 50.3904 -3.89073 1.91846 0
M  V30 525 H 51.0614 -5.37826 1.24285 0
M  V30 526 H 53.5374 -4.15378 -0.244939 0
M  V30 527 H 52.4134 -5.43537 -0.765406 0
M  V30 528 H 52.6744 -4.03875 -1.79827 0
M  V30 529 N 51.7335 -0.305618 -1.54608 0
M  V30 530 C 52.6435 0.57778 -2.27374 0
M  V30 531 C 53.6595 1.14451 -1.31061 0
M  V30 532 O 54.8355 1.16831 -1.6405 0
M  V30 533 C 51.9005 1.73123 -3.00382 0
M  V30 534 C 50.9615 1.19812 -4.12242 0
M  V30 535 C 50.1945 2.2966 -4.81759 0
M  V30 536 O 50.4175 3.49651 -4.50666 0
M  V30 537 O 49.3515 1.96091 -5.69062 0
M  V30 538 H 53.1775 -0.012624 -3.03697 0
M  V30 539 H 50.7625 -0.0719184 -1.49227 0
M  V30 540 H 52.6445 2.40315 -3.4616 0
M  V30 541 H 51.3195 2.30815 -2.26949 0
M  V30 542 H 50.2265 0.491798 -3.70853 0
M  V30 543 H 51.5595 0.666566 -4.87666 0
M  V30 544 N 53.2116 1.57565 -0.0334293 0
M  V30 545 C 54.6226 1.79746 0.504798 0
M  V30 546 C 54.9736 0.944091 1.71992 0
M  V30 547 O 54.0986 0.155694 2.15839 0
M  V30 548 C 54.6936 3.25997 0.922567 0
M  V30 549 C 53.2526 3.49159 1.40588 0
M  V30 550 C 52.3996 2.74785 0.372633 0
M  V30 551 H 55.3506 1.56565 -0.259436 0
M  V30 552 H 55.3716 3.35945 1.78666 0
M  V30 553 H 54.8836 3.88081 0.0379825 0
M  V30 554 H 52.9846 2.92332 2.31025 0
M  V30 555 H 53.0976 4.57873 1.41028 0
M  V30 556 H 51.4616 2.40391 0.841672 0
M  V30 557 H 52.2446 3.39587 -0.503559 0
M  V30 558 N 54.6897 -0.239769 1.55765 0
M  V30 559 C 55.6367 -1.29696 1.90913 0
M  V30 560 C 56.6067 -1.47478 0.764164 0
M  V30 561 O 57.7917 -1.61345 1.01845 0
M  V30 562 C 54.9317 -2.64598 2.21544 0
M  V30 563 C 54.0447 -2.54765 3.48882 0
M  V30 564 C 53.1797 -3.82069 3.69049 0
M  V30 565 C 52.2187 -3.66883 4.89963 0
M  V30 566 N 51.3557 -4.86094 5.06614 0
M  V30 567 H 56.1957 -0.990224 2.81067 0
M  V30 568 H 53.7327 -0.477684 1.39128 0
M  V30 569 H 55.6907 -3.43132 2.3731 0
M  V30 570 H 54.3207 -2.93405 1.34585 0
M  V30 571 H 53.3727 -1.67763 3.41409 0
M  V30 572 H 54.6847 -2.39457 4.37563 0
M  V30 573 H 53.8387 -4.69046 3.84812 0
M  V30 574 H 52.5777 -4.00282 2.78614 0
M  V30 575 H 51.5827 -2.78289 4.74168 0
M  V30 576 H 52.8077 -3.50157 5.81865 0
M  V30 577 H 50.7537 -5.04655 4.19117 0
M  V30 578 H 50.6707 -4.73443 5.89396 0
M  V30 579 H 51.9387 -5.74549 5.26795 0
M  V30 580 N 56.1678 -1.49265 -0.50573 0
M  V30 581 C 57.0778 -1.68312 -1.63427 0
M  V30 582 C 58.0938 -0.565682 -1.64548 0
M  V30 583 O 59.2698 -0.839801 -1.83055 0
M  V30 584 C 56.3348 -1.74107 -2.99813 0
M  V30 585 C 55.3958 -2.97653 -3.09356 0
M  V30 586 C 54.6288 -3.03163 -4.39236 0
M  V30 587 O 54.8518 -2.16396 -5.27758 0
M  V30 588 O 53.7858 -3.9558 -4.53652 0
M  V30 589 H 57.6118 -2.63907 -1.50289 0
M  V30 590 H 55.1968 -1.32951 -0.681502 0
M  V30 591 H 57.0788 -1.803 -3.80881 0
M  V30 592 H 55.7538 -0.816901 -3.13223 0
M  V30 593 H 54.6608 -2.96981 -2.27493 0
M  V30 594 H 55.9938 -3.89535 -3.00871 0
M  V30 595 N 57.6459 0.756429 -1.3826 0
M  V30 596 C 58.9229 1.50584 -1.24835 0
M  V30 597 C 59.3029 2.10556 0.151485 0
M  V30 598 O 58.6509 1.96825 1.1607 0
M  V30 599 C 58.8609 2.57448 -2.3563 0
M  V30 600 C 60.2089 3.24429 -2.73917 0
M  V30 601 O 61.2329 2.67751 -2.34921 0
M  V30 602 O 60.0919 4.26937 -3.41156 0
M  V30 603 H 57.1859 0.667664 -0.48801 0
M  V30 604 H 59.7319 0.792083 -1.5008 0
M  V30 605 H 58.5039 2.11362 -3.29305 0
M  V30 606 H 58.1269 3.36408 -2.11933 0
M  V30 607 N 59.124 1.23083 0.984299 0
M  V30 608 C 60.352 1.08714 1.76037 0
M  V30 609 C 60.767 -0.361691 1.85303 0
M  V30 610 O 60.124 -1.25034 1.32939 0
M  V30 611 C 60.175 1.70206 3.18923 0
M  V30 612 O 59.896 3.09423 3.10144 0
M  V30 613 C 61.397 1.61227 4.12941 0
M  V30 614 H 58.617 0.380664 0.552572 0
M  V30 615 H 61.161 1.62853 1.23689 0
M  V30 616 H 59.316 1.20109 3.6831 0
M  V30 617 H 59.73 3.39188 4.00065 0
M  V30 618 H 61.204 2.08962 5.10919 0
M  V30 619 H 61.681 0.570375 4.35481 0
M  V30 620 H 62.287 2.10671 3.69456 0
M  V30 621 N 60.6021 -1.18246 1.0419 0
M  V30 622 C 61.8511 -1.87588 0.741194 0
M  V30 623 C 62.1641 -1.81303 -0.734066 0
M  V30 624 O 63.3701 -2.46019 -1.14834 0
M  V30 625 C 61.8261 -3.36538 1.27555 0
M  V30 626 C 61.4341 -3.51349 2.77953 0
M  V30 627 C 63.1781 -4.11273 1.05143 0
M  V30 628 C 61.0851 -4.94265 3.2474 0
M  V30 629 H 60.0151 -0.702622 0.273565 0
M  V30 630 H 62.6661 -1.33601 1.25789 0
M  V30 631 H 61.0481 -3.9 0.686703 0
M  V30 632 H 62.2221 -3.08153 3.42605 0
M  V30 633 H 60.5371 -2.90022 2.98791 0
M  V30 634 H 63.1341 -5.16689 1.37611 0
M  V30 635 H 63.4771 -4.16298 -0.0112774 0
M  V30 636 H 64.0101 -3.63987 1.60495 0
M  V30 637 H 60.7491 -4.94408 4.30396 0
M  V30 638 H 60.2691 -5.38172 2.64823 0
M  V30 639 H 61.9481 -5.62987 3.18834 0
M  V30 640 N 62.0802 -0.821533 -1.34494 0
M  V30 641 C 63.3082 -0.421884 -2.02553 0
M  V30 642 C 63.7232 0.971745 -1.61872 0
M  V30 643 O 63.0802 1.62864 -0.823496 0
M  V30 644 C 63.1312 -0.51285 -3.57844 0
M  V30 645 O 62.8522 -1.85155 -3.97051 0
M  V30 646 C 64.3532 -0.107921 -4.43169 0
M  V30 647 H 61.5732 -0.169482 -0.649243 0
M  V30 648 H 64.1172 -1.1093 -1.71798 0
M  V30 649 H 62.2722 0.126474 -3.87193 0
M  V30 650 H 62.6862 -1.82482 -4.91732 0
M  V30 651 H 64.1602 -0.222657 -5.51551 0
M  V30 652 H 64.6372 0.948401 -4.28838 0
M  V30 653 H 65.2432 -0.720989 -4.19144 0
M  V30 654 N 63.5583 1.46682 -0.576371 0
M  V30 655 C 64.8043 2.02712 -0.0596221 0
M  V30 656 C 65.1373 1.44765 1.29448 0
M  V30 657 O 64.4123 0.610355 1.84675 0
M  V30 658 C 64.6953 3.60098 0.0129503 0
M  V30 659 C 64.5483 4.28441 -1.3696 0
M  V30 660 C 65.8673 4.34224 0.71678 0
M  V30 661 H 62.9863 0.736637 -0.0231407 0
M  V30 662 H 65.6283 1.74898 -0.742351 0
M  V30 663 H 63.7783 3.83926 0.594378 0
M  V30 664 H 65.4503 4.15896 -1.9957 0
M  V30 665 H 63.6933 3.8805 -1.93907 0
M  V30 666 H 64.3643 5.3716 -1.27135 0
M  V30 667 H 66.8403 4.15503 0.222908 0
M  V30 668 H 65.7163 5.43936 0.73657 0
M  V30 669 H 65.9773 4.04823 1.77682 0
M  V30 670 N 65.0364 0.313813 1.54444 0
M  V30 671 C 66.2644 -0.293918 2.04802 0
M  V30 672 C 66.6794 -1.46537 1.19047 0
M  V30 673 O 66.0364 -1.81182 0.218939 0
M  V30 674 C 66.0874 -0.737806 3.53891 0
M  V30 675 O 65.8084 0.387038 4.36387 0
M  V30 676 C 67.3094 -1.40936 4.203 0
M  V30 677 H 64.5294 -0.0620057 0.668129 0
M  V30 678 H 67.0734 0.457169 1.99324 0
M  V30 679 H 65.2284 -1.43889 3.59687 0
M  V30 680 H 65.6424 0.0391274 5.24485 0
M  V30 681 H 67.1164 -1.67099 5.26101 0
M  V30 682 H 67.5934 -2.35355 3.70816 0
M  V30 683 H 68.1994 -0.751117 4.18615 0
M  V30 684 N 66.5145 -1.57545 0.0417849 0
M  V30 685 C 67.4775 -2.09885 -0.92093 0
M  V30 686 C 68.4775 -1.01648 -1.24596 0
M  V30 687 O 69.6675 -1.27759 -1.1842 0
M  V30 688 C 66.7995 -2.57527 -2.23367 0
M  V30 689 H 67.9925 -2.96236 -0.467382 0
M  V30 690 H 65.5455 -1.5493 -0.206467 0
M  V30 691 H 66.2805 -1.74542 -2.73323 0
M  V30 692 H 66.0655 -3.36613 -2.01083 0
M  V30 693 H 67.5555 -2.98201 -2.92346 0
M  V30 694 N 67.9926 0.231505 -1.5589 0
M  V30 695 C 68.9556 1.27028 -1.90779 0
M  V30 696 C 69.9556 1.40308 -0.785507 0
M  V30 697 O 71.1456 1.38744 -1.05336 0
M  V30 698 C 68.2776 2.64566 -2.14983 0
M  V30 699 H 69.4706 0.973017 -2.83677 0
M  V30 700 H 67.0236 0.471486 -1.49019 0
M  V30 701 H 67.7586 2.99406 -1.24604 0
M  V30 702 H 67.5436 2.56305 -2.96732 0
M  V30 703 H 69.0336 3.39543 -2.43105 0
M  V30 704 N 69.4707 1.49531 0.497807 0
M  V30 705 C 70.8817 1.52344 1.07927 0
M  V30 706 C 71.2327 0.311469 1.93712 0
M  V30 707 O 70.3577 -0.578405 2.08527 0
M  V30 708 C 70.9527 2.76062 1.96405 0
M  V30 709 C 69.5117 2.81643 2.49709 0
M  V30 710 C 68.6587 2.46299 1.27404 0
M  V30 711 H 71.6097 1.56182 0.281576 0
M  V30 712 H 71.6307 2.56405 2.81135 0
M  V30 713 H 71.1427 3.64254 1.33943 0
M  V30 714 H 69.2437 1.97739 3.15801 0
M  V30 715 H 69.3567 3.83891 2.86643 0
M  V30 716 H 67.7207 1.98148 1.60029 0
M  V30 717 H 68.5037 3.36769 0.66645 0
M  V30 718 N 70.9488 -0.749086 1.3866 0
M  V30 719 C 71.9118 -1.84457 1.36045 0
M  V30 720 C 72.9118 -1.58682 0.260122 0
M  V30 721 O 74.1018 -1.66343 0.517261 0
M  V30 722 C 71.2338 -3.22008 1.11911 0
M  V30 723 H 72.4268 -1.88182 2.33512 0
M  V30 724 H 69.9798 -0.951266 1.24019 0
M  V30 725 H 70.7148 -3.2395 0.150686 0
M  V30 726 H 70.4998 -3.42111 1.91579 0
M  V30 727 H 71.9898 -4.0208 1.12788 0
M  V30 728 N 72.4269 -1.23603 -0.977757 0
M  V30 729 C 73.8379 -1.06424 -1.53398 0
M  V30 730 C 74.1889 0.367578 -1.92726 0
M  V30 731 O 73.3139 1.25465 -1.76316 0
M  V30 732 C 73.9089 -1.92568 -2.78753 0
M  V30 733 C 72.4679 -1.79642 -3.30765 0
M  V30 734 C 71.6149 -1.88111 -2.03739 0
M  V30 735 H 74.5659 -1.37227 -0.797152 0
M  V30 736 H 74.5869 -1.45203 -3.51705 0
M  V30 737 H 74.0989 -2.96771 -2.50098 0
M  V30 738 H 72.1999 -0.782325 -3.64294 0
M  V30 739 H 72.3129 -2.63174 -4.00345 0
M  V30 740 H 70.6769 -1.31723 -2.17994 0
M  V30 741 H 71.4599 -2.93875 -1.77461 0
M  V30 742 N 73.905 1.17692 -1.04816 0
M  V30 743 C 74.837 2.21103 -0.603822 0
M  V30 744 C 75.85 1.59411 0.33046 0
M  V30 745 O 77.039 1.7807 0.12379 0
M  V30 746 C 74.139 3.38623 0.136898 0
M  V30 747 C 73.312 4.29888 -0.807137 0
M  V30 748 C 72.371 5.26088 -0.10836 0
M  V30 749 O 71.397 5.64353 -0.741232 0
M  V30 750 N 72.599 5.68882 1.15558 0
M  V30 751 H 75.364 2.59848 -1.49329 0
M  V30 752 H 72.925 1.32553 -0.929587 0
M  V30 753 H 74.917 4.00009 0.614401 0
M  V30 754 H 73.487 2.98508 0.927993 0
M  V30 755 H 72.707 3.65993 -1.46434 0
M  V30 756 H 73.995 4.87759 -1.44807 0
M  V30 757 H 73.393 5.39861 1.69015 0
M  V30 758 H 71.95 6.32429 1.57722 0
M  V30 759 N 75.3831 0.828654 1.34056 0
M  V30 760 C 76.2931 0.256725 2.33191 0
M  V30 761 C 77.3091 -0.611898 1.62886 0
M  V30 762 O 78.4851 -0.51844 1.94613 0
M  V30 763 C 75.5501 -0.567238 3.42028 0
M  V30 764 C 74.6111 0.324458 4.28072 0
M  V30 765 C 73.8441 -0.460274 5.31712 0
M  V30 766 O 74.0671 -1.693 5.44696 0
M  V30 767 O 73.0011 0.160391 6.01686 0
M  V30 768 H 76.8271 1.07739 2.83947 0
M  V30 769 H 74.4121 0.59093 1.37217 0
M  V30 770 H 76.2941 -1.03582 4.08471 0
M  V30 771 H 74.9691 -1.36513 2.93506 0
M  V30 772 H 73.8761 0.840659 3.64532 0
M  V30 773 H 75.2091 1.08685 4.8005 0
M  V30 774 N 76.8612 -1.46375 0.584142 0
M  V30 775 C 78.0862 -2.07268 0.0740405 0
M  V30 776 C 78.5112 -1.42979 -1.22223 0
M  V30 777 O 77.8692 -0.514092 -1.73859 0
M  V30 778 C 77.9172 -3.60518 -0.0767769 0
M  V30 779 O 77.0212 -3.96533 -1.13292 0
M  V30 780 H 76.3622 -0.660961 0.0634524 0
M  V30 781 H 78.8922 -1.87991 0.807492 0
M  V30 782 H 78.9022 -4.07021 -0.282489 0
M  V30 783 H 77.5772 -4.06702 0.86986 0
M  V30 784 H 76.1542 -3.61738 -0.905553 0
M  V30 785 N 78.3393 -0.321999 -1.54275 0
M  V30 786 C 79.3023 0.531975 -2.22941 0
M  V30 787 C 80.3023 1.04478 -1.22234 0
M  V30 788 O 81.4923 0.937452 -1.46825 0
M  V30 789 C 78.6243 1.73874 -2.93224 0
M  V30 790 H 79.8173 -0.0682612 -2.99822 0
M  V30 791 H 77.3703 -0.0730644 -1.56129 0
M  V30 792 H 78.1053 2.37825 -2.20476 0
M  V30 793 H 77.8903 1.37847 -3.6707 0
M  V30 794 H 79.3803 2.34496 -3.45545 0
M  V30 795 N 79.8174 1.5752 -0.0501392 0
M  V30 796 C 81.0634 1.93755 0.618901 0
M  V30 797 C 81.4184 0.928514 1.68512 0
M  V30 798 O 80.7114 -0.0524613 1.91528 0
M  V30 799 C 80.9054 3.34467 1.25963 0
M  V30 800 C 80.7344 4.48965 0.257 0
M  V30 801 C 79.5044 5.05075 -0.150656 0
M  V30 802 C 81.7024 5.11891 -0.497166 0
M  V30 803 N 79.6844 6.03104 -1.14626 0
M  V30 804 C 81.0554 6.05216 -1.34588 0
M  V30 805 C 83.1104 4.9479 -0.55559 0
M  V30 806 C 81.8134 6.83277 -2.24778 0
M  V30 807 C 83.8394 5.73477 -1.44492 0
M  V30 808 C 83.2014 6.66433 -2.28136 0
M  V30 809 H 79.3004 0.756479 0.198149 0
M  V30 810 H 81.8844 1.94316 -0.122229 0
M  V30 811 H 80.0554 3.34685 1.97079 0
M  V30 812 H 81.7874 3.57994 1.88739 0
M  V30 813 H 78.5424 4.7305 0.228094 0
M  V30 814 H 78.9664 6.56813 -1.64092 0
M  V30 815 H 83.6084 4.2273 0.0768625 0
M  V30 816 H 81.3264 7.54629 -2.89069 0
M  V30 817 H 84.9124 5.62273 -1.49468 0
M  V30 818 H 83.7924 7.26258 -2.95835 0
M  V30 819 N 81.2955 -0.223234 1.56011 0
M  V30 820 C 82.5435 -0.946003 1.78592 0
M  V30 821 C 82.8645 -1.84936 0.618349 0
M  V30 822 O 82.1345 -1.92473 -0.364833 0
M  V30 823 H 80.7145 -0.352298 0.658707 0
M  V30 824 H 83.3765 -0.235494 1.93472 0
M  V30 825 H 82.4725 -1.55381 2.70672 0
M  V30 826 N 82.7736 -1.49793 -0.48987 0
M  V30 827 C 84.1846 -1.52914 -1.07118 0
M  V30 828 C 84.5356 -0.321738 -1.93544 0
M  V30 829 O 83.6606 0.567338 -2.08831 0
M  V30 830 C 84.2556 -2.771 -1.94938 0
M  V30 831 C 82.8146 -2.82963 -2.48212 0
M  V30 832 C 81.9616 -2.46972 -1.26096 0
M  V30 833 H 84.9126 -1.56329 -0.273289 0
M  V30 834 H 84.9336 -2.57892 -2.79771 0
M  V30 835 H 84.4456 -3.64959 -1.32009 0
M  V30 836 H 82.5466 -1.99411 -3.14748 0
M  V30 837 H 82.6596 -3.85406 -2.84603 0
M  V30 838 H 81.0236 -1.98994 -1.58976 0
M  V30 839 H 81.8066 -3.37118 -0.648581 0
M  V30 840 N 84.2517 0.741722 -1.39055 0
M  V30 841 C 85.2147 1.83733 -1.37021 0
M  V30 842 C 86.2147 1.58542 -0.268534 0
M  V30 843 O 87.4047 1.66067 -0.526076 0
M  V30 844 C 84.5367 3.2141 -1.13617 0
M  V30 845 H 85.7297 1.86941 -2.34506 0
M  V30 846 H 83.2827 0.944676 -1.24521 0
M  V30 847 H 84.0177 3.23865 -0.167863 0
M  V30 848 H 83.8027 3.4109 -1.93391 0
M  V30 849 H 85.2927 4.01477 -1.14918 0
M  V30 850 N 85.7298 1.2412 0.971189 0
M  V30 851 C 86.6928 1.03156 2.04674 0
M  V30 852 C 87.6928 -0.00990322 1.60797 0
M  V30 853 O 88.8828 0.230729 1.72665 0
M  V30 854 C 86.0148 0.562765 3.36223 0
M  V30 855 H 87.2078 1.98614 2.24705 0
M  V30 856 H 84.7608 1.06293 1.14593 0
M  V30 857 H 85.4958 -0.395176 3.21883 0
M  V30 858 H 85.2808 1.31441 3.69413 0
M  V30 859 H 86.7708 0.437015 4.15307 0
M  V30 860 N 87.2079 -1.17134 1.05439 0
M  V30 861 C 88.4359 -1.91372 0.786414 0
M  V30 862 C 88.8509 -1.76955 -0.658202 0
M  V30 863 O 88.2079 -1.10838 -1.44987 0
M  V30 864 C 88.2589 -3.42356 1.1608 0
M  V30 865 O 87.9799 -3.56332 2.54871 0
M  V30 866 C 89.4809 -4.33663 0.919322 0
M  V30 867 H 86.7009 -0.607118 0.285743 0
M  V30 868 H 89.2449 -1.48525 1.40572 0
M  V30 869 H 87.3999 -3.82939 0.586191 0
M  V30 870 H 87.8139 -4.49896 2.69618 0
M  V30 871 H 89.2879 -5.38099 1.231 0
M  V30 872 H 89.7649 -4.38959 -0.145359 0
M  V30 873 H 90.3709 -3.98796 1.47789 0
M  V30 874 N 88.686 -0.835752 -1.33615 0
M  V30 875 C 89.935 -0.426289 -1.97144 0
M  V30 876 C 90.248 1.01912 -1.66953 0
M  V30 877 O 91.454 1.53311 -2.24072 0
M  V30 878 C 89.91 -0.711321 -3.52801 0
M  V30 879 C 89.518 -2.1712 -3.91871 0
M  V30 880 C 91.262 -0.368654 -4.22896 0
M  V30 881 C 89.169 -2.40044 -5.40493 0
M  V30 882 H 88.099 -0.15567 -0.737755 0
M  V30 883 H 90.75 -1.0239 -1.52278 0
M  V30 884 H 89.132 -0.0433766 -3.95976 0
M  V30 885 H 90.306 -2.87936 -3.59763 0
M  V30 886 H 88.621 -2.47654 -3.34749 0
M  V30 887 H 91.218 -0.517601 -5.32189 0
M  V30 888 H 91.561 0.688078 -4.10574 0
M  V30 889 H 92.094 -0.991702 -3.8524 0
M  V30 890 H 88.833 -3.44271 -5.57815 0
M  V30 891 H 88.353 -1.73785 -5.74072 0
M  V30 892 H 90.032 -2.23042 -6.0734 0
M  V30 893 N 90.1641 1.46063 -0.591896 0
M  V30 894 C 91.1271 2.28854 0.125973 0
M  V30 895 C 92.1271 1.38903 0.810107 0
M  V30 896 O 93.3171 1.61186 0.66066 0
M  V30 897 C 90.4491 3.19526 1.1881 0
M  V30 898 H 91.6421 2.93802 -0.601717 0
M  V30 899 H 89.1951 1.52325 -0.350254 0
M  V30 900 H 89.9301 2.59345 1.94707 0
M  V30 901 H 89.7151 3.85766 0.701936 0
M  V30 902 H 91.2051 3.81817 1.69132 0
M  V30 903 N 91.6422 0.330177 1.54103 0
M  V30 904 C 92.6052 -0.520144 2.2322 0
M  V30 905 C 93.6052 -1.03828 1.22786 0
M  V30 906 O 94.7952 -0.929652 1.4732 0
M  V30 907 C 91.9272 -1.72317 2.94142 0
M  V30 908 H 93.1202 0.0841605 2.99782 0
M  V30 909 H 90.6732 0.0813433 1.56088 0
M  V30 910 H 91.4082 -2.36653 2.21734 0
M  V30 911 H 91.1932 -1.35898 3.67796 0
M  V30 912 H 92.6832 -2.3266 3.46784 0
M  V30 913 N 93.1203 -1.57491 0.0584922 0
M  V30 914 C 94.5363 -1.56792 -0.298091 0
M  V30 915 C 94.7363 -1.06679 -1.70944 0
M  V30 916 O 93.7923 -0.726672 -2.41818 0
M  V30 917 C 95.1053 -3.00461 -0.119879 0
M  V30 918 C 96.6533 -3.1242 -0.190428 0
M  V30 919 C 97.1283 -4.57982 -0.0406567 0
M  V30 920 N 98.6193 -4.63099 -0.0966958 0
M  V30 921 C 99.3543 -5.734 -0.00502943 0
M  V30 922 N 98.8503 -6.9266 0.139402 0
M  V30 923 N 100.643 -5.62067 -0.0611391 0
M  V30 924 H 92.7943 -1.88386 0.98105 0
M  V30 925 H 95.0573 -0.867865 0.381463 0
M  V30 926 H 94.7633 -3.41187 0.85349 0
M  V30 927 H 94.6373 -3.66843 -0.877833 0
M  V30 928 H 97.0243 -2.71589 -1.15427 0
M  V30 929 H 97.1053 -2.48702 0.598405 0
M  V30 930 H 96.7493 -4.995 0.919897 0
M  V30 931 H 96.6793 -5.19715 -0.848727 0
M  V30 932 H 99.1703 -3.77331 -0.207277 0
M  V30 933 H 99.4833 -7.72536 0.201855 0
M  V30 934 H 97.8283 -6.94781 0.174586 0
M  V30 935 H 101.019 -4.67782 -0.172583 0
M  V30 936 H 101.192 -6.47999 0.0137562 0
M  V30 937 N 94.5984 0.214957 -1.56127 0
M  V30 938 C 95.5304 1.29004 -1.89448 0
M  V30 939 C 96.5434 1.42716 -0.783326 0
M  V30 940 O 97.7324 1.43496 -1.06166 0
M  V30 941 C 94.8324 2.66482 -2.09381 0
M  V30 942 C 94.0054 2.74633 -3.40434 0
M  V30 943 C 93.0644 3.9317 -3.49719 0
M  V30 944 O 92.0904 3.812 -4.227 0
M  V30 945 N 93.2924 5.07765 -2.81346 0
M  V30 946 H 96.0574 1.00743 -2.82261 0
M  V30 947 H 93.6184 0.40497 -1.56753 0
M  V30 948 H 95.6104 3.44173 -2.12901 0
M  V30 949 H 94.1804 2.87314 -1.23163 0
M  V30 950 H 93.4004 1.83368 -3.48955 0
M  V30 951 H 94.6884 2.77054 -4.26754 0
M  V30 952 H 94.0864 5.20386 -2.21843 0
M  V30 953 H 92.6434 5.83474 -2.90519 0
M  V30 954 N 96.0765 1.50051 0.48192 0
M  V30 955 C 97.3015 1.64508 1.26301 0
M  V30 956 C 97.7265 0.323851 1.85291 0
M  V30 957 O 97.0845 -0.710969 1.66778 0
M  V30 958 C 97.1325 2.7305 2.35533 0
M  V30 959 O 96.2365 2.3355 3.39895 0
M  V30 960 H 95.5775 0.549978 0.372048 0
M  V30 961 H 98.1075 1.9636 0.574786 0
M  V30 962 H 98.1175 2.95799 2.8101 0
M  V30 963 H 96.7925 3.68946 1.91967 0
M  V30 964 H 95.3695 2.21205 3.00204 0
M  V30 965 N 97.5546 -0.734337 1.39446 0
M  V30 966 C 98.5176 -1.83004 1.37994 0
M  V30 967 C 99.5176 -1.58397 0.276938 0
M  V30 968 O 100.708 -1.65785 0.534875 0
M  V30 969 C 97.8396 -3.20802 1.1532 0
M  V30 970 H 99.0326 -1.85694 2.35494 0
M  V30 971 H 96.5856 -0.938059 1.25021 0
M  V30 972 H 97.3206 -3.23772 0.185036 0
M  V30 973 H 97.1056 -3.4006 1.95197 0
M  V30 974 H 98.5956 -4.00862 1.17046 0
M  V30 975 N 99.0327 -1.24633 -0.964593 0
M  V30 976 C 100.261 -1.11501 -1.74285 0
M  V30 977 C 100.676 0.332165 -1.85855 0
M  V30 978 O 100.033 1.22903 -1.34911 0
M  V30 979 C 100.084 -1.75258 -3.16175 0
M  V30 980 O 99.8047 -3.14318 -3.05182 0
M  V30 981 C 101.306 -1.67776 -4.10324 0
M  V30 982 H 98.5257 -0.389407 -0.546446 0
M  V30 983 H 101.07 -1.64801 -1.21083 0
M  V30 984 H 99.2247 -1.25954 -3.66353 0
M  V30 985 H 99.6387 -3.4551 -3.94618 0
M  V30 986 H 101.113 -2.17064 -5.0753 0
M  V30 987 H 101.59 -0.639584 -4.34518 0
M  V30 988 H 102.196 -2.16522 -3.66058 0
M  V30 989 N 100.511 1.16574 -1.06058 0
M  V30 990 C 101.759 1.86677 -0.77434 0
M  V30 991 C 102.08 1.81959 0.701147 0
M  V30 992 O 101.35 1.2515 1.50713 0
M  V30 993 H 99.9298 0.691134 -0.283449 0
M  V30 994 H 102.592 1.41378 -1.34158 0
M  V30 995 H 101.688 2.92181 -1.09711 0
M  V30 996 N 101.989 0.842826 1.3317 0
M  V30 997 C 103.217 0.454055 2.01856 0
M  V30 998 C 103.632 -0.94587 1.63397 0
M  V30 999 O 102.989 -1.61534 0.849302 0
M  V30 1000 C 103.04 0.569715 3.56982 0
M  V30 1001 O 102.761 1.91448 3.94055 0
M  V30 1002 C 104.262 0.178412 4.42941 0
M  V30 1003 H 101.482 0.17979 0.646465 0
M  V30 1004 H 104.026 1.1365 1.70012 0
M  V30 1005 H 102.181 -0.0648587 3.87346 0
M  V30 1006 H 102.595 1.90282 4.88767 0
M  V30 1007 H 104.069 0.310376 5.51127 0
M  V30 1008 H 104.546 -0.880056 4.30293 0
M  V30 1009 H 105.152 0.787579 4.17944 0
M  V30 1010 N 103.467 -1.45747 0.599634 0
M  V30 1011 C 104.414 -2.30467 -0.123849 0
M  V30 1012 C 105.384 -1.41632 -0.86774 0
M  V30 1013 O 106.569 -1.70568 -0.855056 0
M  V30 1014 C 103.709 -3.26402 -1.12051 0
M  V30 1015 C 102.822 -4.3034 -0.37832 0
M  V30 1016 C 101.957 -5.13389 -1.364 0
M  V30 1017 C 100.996 -6.09061 -0.609171 0
M  V30 1018 N 100.133 -6.84918 -1.54374 0
M  V30 1019 H 104.973 -2.91802 0.604627 0
M  V30 1020 H 102.51 -1.43797 0.309972 0
M  V30 1021 H 104.468 -3.80482 -1.7114 0
M  V30 1022 H 103.098 -2.66839 -1.8165 0
M  V30 1023 H 102.15 -3.78984 0.327929 0
M  V30 1024 H 103.462 -4.98354 0.210997 0
M  V30 1025 H 102.616 -5.7183 -2.02719 0
M  V30 1026 H 101.355 -4.45376 -1.98725 0
M  V30 1027 H 100.36 -5.49758 0.0676979 0
M  V30 1028 H 101.585 -6.79099 0.00891991 0
M  V30 1029 H 99.531 -6.19601 -2.15478 0
M  V30 1030 H 99.448 -7.49254 -1.00766 0
M  V30 1031 H 100.716 -7.47906 -2.19676 0
M  V30 1032 N 104.945 -0.338344 -1.53925 0
M  V30 1033 C 106.173 0.261298 -2.05243 0
M  V30 1034 C 106.588 1.44625 -1.21363 0
M  V30 1035 O 105.945 1.80811 -0.247736 0
M  V30 1036 C 105.996 0.681412 -3.5502 0
M  V30 1037 O 105.717 -0.456414 -4.35716 0
M  V30 1038 C 107.218 1.34232 -4.22489 0
M  V30 1039 H 104.438 0.0513685 -0.669031 0
M  V30 1040 H 106.982 -0.488822 -1.98572 0
M  V30 1041 H 105.137 1.38148 -3.61931 0
M  V30 1042 H 105.551 -0.122564 -5.24357 0
M  V30 1043 H 107.025 1.58708 -5.28693 0
M  V30 1044 H 107.502 2.29426 -3.74514 0
M  V30 1045 H 108.108 0.684424 -4.19757 0
M  V30 1046 N 106.423 1.57458 -0.0668435 0
M  V30 1047 C 107.7 1.8469 0.644132 0
M  V30 1048 C 108.08 0.958343 1.88093 0
M  V30 1049 O 107.428 0.0233579 2.28488 0
M  V30 1050 C 107.638 3.34767 0.986509 0
M  V30 1051 C 108.986 4.02159 1.36212 0
M  V30 1052 O 110.01 3.39484 1.07839 0
M  V30 1053 O 108.869 5.12694 1.89227 0
M  V30 1054 H 105.963 0.762816 0.319437 0
M  V30 1055 H 108.509 1.6942 -0.0973986 0
M  V30 1056 H 107.281 3.91151 0.107883 0
M  V30 1057 H 106.904 3.55281 1.78497 0
M  V30 1058 N 107.901 -0.206675 1.56239 0
M  V30 1059 C 109.129 -0.945345 1.8404 0
M  V30 1060 C 109.544 -1.77336 0.647885 0
M  V30 1061 O 108.901 -1.78425 -0.383511 0
M  V30 1062 C 108.952 -1.8509 3.10522 0
M  V30 1063 O 108.673 -1.05634 4.25174 0
M  V30 1064 C 110.174 -2.70222 3.51418 0
M  V30 1065 H 107.394 -0.276372 0.61144 0
M  V30 1066 H 109.938 -0.217417 2.03341 0
M  V30 1067 H 108.093 -2.53259 2.93153 0
M  V30 1068 H 108.507 -1.67238 4.97124 0
M  V30 1069 H 109.981 -3.29438 4.42916 0
M  V30 1070 H 110.458 -3.43358 2.73864 0
M  V30 1071 H 111.064 -2.07443 3.71278 0
M  V30 1072 N 109.379 -1.50304 -0.473955 0
M  V30 1073 C 110.79 -1.54042 -1.0549 0
M  V30 1074 C 111.141 -0.342248 -1.93192 0
M  V30 1075 O 110.266 0.545157 -2.09421 0
M  V30 1076 C 110.861 -2.79152 -1.91989 0
M  V30 1077 C 109.42 -2.8558 -2.45196 0
M  V30 1078 C 108.567 -2.48295 -1.2347 0
M  V30 1079 H 111.518 -1.5661 -0.256693 0
M  V30 1080 H 111.539 -2.60845 -2.7702 0
M  V30 1081 H 111.051 -3.66339 -1.28131 0
M  V30 1082 H 109.152 -2.02738 -3.12615 0
M  V30 1083 H 109.265 -3.88403 -2.80499 0
M  V30 1084 H 107.629 -2.00669 -1.56856 0
M  V30 1085 H 108.412 -3.37787 -0.612789 0
M  V30 1086 N 110.857 0.726932 -1.39834 0
M  V30 1087 C 112.106 1.48214 -1.36805 0
M  V30 1088 C 112.419 1.95576 0.0305291 0
M  V30 1089 O 113.625 2.7088 0.183417 0
M  V30 1090 C 112.081 2.67854 -2.40379 0
M  V30 1091 C 111.689 2.27408 -3.85992 0
M  V30 1092 C 113.433 3.45641 -2.46439 0
M  V30 1093 C 111.34 3.43819 -4.81189 0
M  V30 1094 H 110.27 0.556606 -0.508631 0
M  V30 1095 H 112.921 0.792216 -1.65518 0
M  V30 1096 H 111.303 3.3896 -2.04749 0
M  V30 1097 H 112.477 1.63795 -4.30706 0
M  V30 1098 H 110.792 1.62692 -3.83302 0
M  V30 1099 H 113.389 4.32244 -3.14753 0
M  V30 1100 H 113.732 3.88669 -1.49139 0
M  V30 1101 H 114.265 2.8157 -2.81004 0
M  V30 1102 H 111.004 3.05834 -5.79781 0
M  V30 1103 H 110.524 4.06385 -4.41148 0
M  V30 1104 H 112.203 4.10043 -5.00474 0
M  V30 1105 N 112.336 1.25143 0.95797 0
M  V30 1106 C 113.268 1.01023 2.05735 0
M  V30 1107 C 114.281 -0.0236902 1.62783 0
M  V30 1108 O 115.47 0.21448 1.77207 0
M  V30 1109 C 112.57 0.504595 3.35122 0
M  V30 1110 C 111.743 1.6039 4.06932 0
M  V30 1111 C 110.802 1.09922 5.14591 0
M  V30 1112 O 109.828 1.79293 5.40225 0
M  V30 1113 N 111.03 -0.0612545 5.80468 0
M  V30 1114 H 113.795 1.95683 2.26998 0
M  V30 1115 H 111.356 1.16303 1.12629 0
M  V30 1116 H 113.348 0.151516 4.04416 0
M  V30 1117 H 111.918 -0.347989 3.10657 0
M  V30 1118 H 111.138 2.12872 3.31782 0
M  V30 1119 H 112.426 2.34252 4.51667 0
M  V30 1120 H 111.824 -0.640985 5.62057 0
M  V30 1121 H 110.381 -0.355395 6.5083 0
M  V30 1122 N 113.814 -1.1601 1.06675 0
M  V30 1123 C 114.761 -2.20525 0.680967 0
M  V30 1124 C 115.731 -1.62904 -0.324283 0
M  V30 1125 O 116.916 -1.89615 -0.212294 0
M  V30 1126 C 114.056 -3.45013 0.0776551 0
M  V30 1127 C 113.169 -4.16863 1.13355 0
M  V30 1128 C 112.304 -5.2888 0.49597 0
M  V30 1129 C 111.343 -5.92537 1.53513 0
M  V30 1130 N 110.48 -6.96038 0.920631 0
M  V30 1131 H 115.32 -2.52876 1.57663 0
M  V30 1132 H 112.857 -1.24199 0.788223 0
M  V30 1133 H 114.815 -4.16193 -0.289704 0
M  V30 1134 H 113.445 -3.132 -0.781393 0
M  V30 1135 H 112.497 -3.44248 1.61857 0
M  V30 1136 H 113.809 -4.60294 1.92174 0
M  V30 1137 H 112.963 -6.06653 0.0758604 0
M  V30 1138 H 111.702 -4.86622 -0.324062 0
M  V30 1139 H 110.707 -5.13482 1.9651 0
M  V30 1140 H 111.932 -6.36873 2.35733 0
M  V30 1141 H 109.878 -6.55888 0.12138 0
M  V30 1142 H 109.795 -7.3786 1.64616 0
M  V30 1143 H 111.063 -7.77725 0.525795 0
M  V30 1144 N 115.292 -0.849877 -1.32721 0
M  V30 1145 C 116.538 -0.451591 -1.97708 0
M  V30 1146 C 116.871 0.989175 -1.6712 0
M  V30 1147 O 116.146 1.69334 -0.956891 0
M  V30 1148 C 116.429 -0.685598 -3.53513 0
M  V30 1149 C 116.282 -2.17444 -3.93749 0
M  V30 1150 C 117.601 -0.138874 -4.39881 0
M  V30 1151 H 114.72 -0.16555 -0.718166 0
M  V30 1152 H 117.362 -1.06742 -1.57182 0
M  V30 1153 H 115.512 -0.161416 -3.88165 0
M  V30 1154 H 117.184 -2.76433 -3.693 0
M  V30 1155 H 115.427 -2.65476 -3.43081 0
M  V30 1156 H 116.098 -2.28888 -5.02309 0
M  V30 1157 H 118.574 -0.587068 -4.11938 0
M  V30 1158 H 117.45 -0.332213 -5.47894 0
M  V30 1159 H 117.711 0.95806 -4.31594 0
M  V30 1160 N 116.77 1.45427 -0.607355 0
M  V30 1161 C 118.181 1.85756 -0.187535 0
M  V30 1162 C 118.532 1.5077 1.25551 0
M  V30 1163 O 117.657 0.93427 1.95193 0
M  V30 1164 C 118.252 3.37154 -0.333572 0
M  V30 1165 C 116.811 3.76387 0.0315542 0
M  V30 1166 C 115.958 2.69377 -0.658117 0
M  V30 1167 H 118.909 1.36231 -0.81405 0
M  V30 1168 H 118.93 3.78014 0.43428 0
M  V30 1169 H 118.442 3.62586 -1.38393 0
M  V30 1170 H 116.543 3.56571 1.0811 0
M  V30 1171 H 116.656 4.77731 -0.361935 0
M  V30 1172 H 115.02 2.5452 -0.0957873 0
M  V30 1173 H 115.803 2.97646 -1.7106 0
M  V30 1174 N 118.248 0.346503 1.53744 0
M  V30 1175 C 119.18 -0.543316 2.22667 0
M  V30 1176 C 120.193 -1.06159 1.23427 0
M  V30 1177 O 121.382 -0.971235 1.49764 0
M  V30 1178 C 118.482 -1.76076 2.89569 0
M  V30 1179 C 117.655 -1.37727 4.15151 0
M  V30 1180 C 116.714 -2.45471 4.65436 0
M  V30 1181 O 115.74 -2.08655 5.29577 0
M  V30 1182 N 116.942 -3.7677 4.41616 0
M  V30 1183 H 119.707 0.0469703 2.99663 0
M  V30 1184 H 117.268 0.170766 1.60997 0
M  V30 1185 H 119.26 -2.47593 3.20125 0
M  V30 1186 H 117.83 -2.25835 2.16142 0
M  V30 1187 H 117.05 -0.492746 3.91108 0
M  V30 1188 H 118.338 -1.09708 4.96832 0
M  V30 1189 H 117.736 -4.09467 3.90325 0
M  V30 1190 H 116.293 -4.44448 4.7677 0
M  V30 1191 N 119.726 -1.57421 0.075193 0
M  V30 1192 C 120.951 -1.98364 -0.605515 0
M  V30 1193 C 121.376 -0.953383 -1.62149 0
M  V30 1194 O 120.734 0.0806053 -1.81121 0
M  V30 1195 C 120.782 -3.38332 -1.24756 0
M  V30 1196 O 119.886 -3.37959 -2.36342 0
M  V30 1197 H 119.227 -0.645553 -0.155428 0
M  V30 1198 H 121.757 -2.04044 0.150714 0
M  V30 1199 H 121.767 -3.75591 -1.5936 0
M  V30 1200 H 120.442 -4.12846 -0.503129 0
M  V30 1201 H 119.019 -3.12474 -2.03506 0
M  V30 1202 N 121.204 0.198386 -1.56346 0
M  V30 1203 C 122.453 0.917451 -1.79627 0
M  V30 1204 C 122.766 1.8456 -0.64784 0
M  V30 1205 O 123.972 2.60504 -0.764859 0
M  V30 1206 C 122.428 1.68175 -3.18191 0
M  V30 1207 C 122.036 0.798589 -4.40825 0
M  V30 1208 C 123.78 2.39065 -3.50782 0
M  V30 1209 C 121.687 1.56157 -5.70411 0
M  V30 1210 H 120.617 0.346317 -0.669762 0
M  V30 1211 H 123.268 0.170801 -1.82703 0
M  V30 1212 H 121.65 2.47216 -3.09354 0
M  V30 1213 H 122.824 0.0470665 -4.60776 0
M  V30 1214 H 121.139 0.200686 -4.15916 0
M  V30 1215 H 123.736 2.96692 -4.44835 0
M  V30 1216 H 124.079 3.13091 -2.74371 0
M  V30 1217 H 124.612 1.66993 -3.61052 0
M  V30 1218 H 121.351 0.864142 -6.49779 0
M  V30 1219 H 120.871 2.2871 -5.54483 0
M  V30 1220 H 122.55 2.11622 -6.11412 0
M  V30 1221 N 122.682 1.50554 0.465978 0
M  V30 1222 C 123.907 1.65838 1.24549 0
M  V30 1223 C 124.332 0.343486 1.84937 0
M  V30 1224 O 123.69 -0.69324 1.67523 0
M  V30 1225 C 123.738 2.75533 2.32624 0
M  V30 1226 O 122.842 2.37142 3.37398 0
M  V30 1227 H 122.183 0.553893 0.366194 0
M  V30 1228 H 124.713 1.96959 0.553927 0
M  V30 1229 H 124.723 2.98763 2.77857 0
M  V30 1230 H 123.398 3.70962 1.88043 0
M  V30 1231 H 121.975 2.24377 2.97841 0
M  V30 1232 N 124.16 -0.719506 1.40217 0
M  V30 1233 C 125.406 -1.48152 1.38488 0
M  V30 1234 C 125.739 -1.94195 -0.0141867 0
M  V30 1235 O 125.014 -1.67884 -0.982096 0
M  V30 1236 C 125.297 -2.71035 2.37091 0
M  V30 1237 C 125.15 -2.30912 3.86005 0
M  V30 1238 C 126.469 -3.73182 2.33288 0
M  V30 1239 H 123.588 -0.537395 0.504357 0
M  V30 1240 H 126.23 -0.821472 1.71324 0
M  V30 1241 H 124.38 -3.27352 2.0922 0
M  V30 1242 H 126.052 -1.80107 4.24687 0
M  V30 1243 H 124.295 -1.62958 4.02029 0
M  V30 1244 H 124.966 -3.18978 4.50508 0
M  V30 1245 H 127.442 -3.26485 2.57966 0
M  V30 1246 H 126.318 -4.56806 3.04334 0
M  V30 1247 H 126.579 -4.21202 1.34317 0
M  V30 1248 N 125.638 -1.25649 -0.95132 0
M  V30 1249 C 126.884 -1.10757 -1.69884 0
M  V30 1250 C 127.217 0.350061 -1.91019 0
M  V30 1251 O 126.492 1.25783 -1.48354 0
M  V30 1252 C 126.775 -1.86606 -3.07978 0
M  V30 1253 C 126.628 -3.40217 -2.94232 0
M  V30 1254 C 127.947 -1.65182 -4.07925 0
M  V30 1255 H 125.066 -0.40374 -0.616574 0
M  V30 1256 H 127.708 -1.54521 -1.10558 0
M  V30 1257 H 125.858 -1.49409 -3.58621 0
M  V30 1258 H 127.53 -3.87108 -2.50889 0
M  V30 1259 H 125.773 -3.67759 -2.30078 0
M  V30 1260 H 126.444 -3.88505 -3.92133 0
M  V30 1261 H 128.92 -1.9757 -3.66204 0
M  V30 1262 H 127.796 -2.20683 -5.02583 0
M  V30 1263 H 128.057 -0.593933 -4.38092 0
M  V30 1264 N 127.117 1.15442 -1.07289 0
M  V30 1265 C 128.345 1.90096 -0.81676 0
M  V30 1266 C 128.76 1.7798 0.629966 0
M  V30 1267 O 128.117 1.1313 1.43206 0
M  V30 1268 C 128.168 3.40466 -1.21512 0
M  V30 1269 O 127.889 3.52232 -2.60508 0
M  V30 1270 C 129.39 4.32145 -0.988198 0
M  V30 1271 H 126.61 0.602495 -0.295366 0
M  V30 1272 H 129.154 1.4627 -1.42918 0
M  V30 1273 H 127.309 3.81958 -0.647039 0
M  V30 1274 H 127.723 4.45549 -2.76742 0
M  V30 1275 H 129.197 5.36072 -1.31645 0
M  V30 1276 H 129.674 4.39135 0.0755063 0
M  V30 1277 H 130.28 3.96395 -1.54115 0
M  V30 1278 N 128.595 0.856903 1.32268 0
M  V30 1279 C 129.558 0.308171 2.27119 0
M  V30 1280 C 130.558 -0.533421 1.51695 0
M  V30 1281 O 131.748 -0.344607 1.70757 0
M  V30 1282 C 128.88 -0.563757 3.36206 0
M  V30 1283 H 130.073 1.14535 2.77167 0
M  V30 1284 H 127.626 0.631421 1.42978 0
M  V30 1285 H 128.361 -1.42266 2.91429 0
M  V30 1286 H 128.146 0.0386749 3.92081 0
M  V30 1287 H 129.636 -0.940386 4.06874 0
M  V30 1288 N 130.073 -1.45103 0.615059 0
M  V30 1289 C 130.983 -2.34382 -0.101034 0
M  V30 1290 C 131.999 -1.51681 -0.852585 0
M  V30 1291 O 133.175 -1.8446 -0.808484 0
M  V30 1292 C 130.24 -3.29417 -1.08099 0
M  V30 1293 C 129.301 -4.28025 -0.330577 0
M  V30 1294 C 128.534 -5.1852 -1.26385 0
M  V30 1295 O 128.757 -5.12598 -2.50198 0
M  V30 1296 O 127.691 -5.97122 -0.756866 0
M  V30 1297 H 131.517 -2.97033 0.632855 0
M  V30 1298 H 129.102 -1.4461 0.375293 0
M  V30 1299 H 130.984 -3.87958 -1.6452 0
M  V30 1300 H 129.659 -2.69321 -1.79577 0
M  V30 1301 H 128.566 -3.73078 0.276283 0
M  V30 1302 H 129.899 -4.90997 0.343866 0
M  V30 1303 N 131.551 -0.354651 -1.53558 0
M  V30 1304 C 132.461 0.50515 -2.29097 0
M  V30 1305 C 133.477 1.10223 -1.34636 0
M  V30 1306 O 134.653 1.11553 -1.67684 0
M  V30 1307 C 131.718 1.63479 -3.05738 0
M  V30 1308 C 130.779 1.06636 -4.15845 0
M  V30 1309 C 130.012 2.14217 -4.88822 0
M  V30 1310 O 130.235 3.35137 -4.61562 0
M  V30 1311 O 129.169 1.77887 -5.75013 0
M  V30 1312 H 132.995 -0.109237 -3.03503 0
M  V30 1313 H 130.58 -0.119357 -1.48922 0
M  V30 1314 H 132.462 2.2918 -3.5363 0
M  V30 1315 H 131.137 2.23478 -2.34178 0
M  V30 1316 H 130.044 0.373565 -3.7223 0
M  V30 1317 H 131.377 0.511081 -4.89539 0
M  V30 1318 N 133.029 1.57378 -0.0835403 0
M  V30 1319 C 133.962 2.09016 0.915833 0
M  V30 1320 C 134.94 0.997993 1.2837 0
M  V30 1321 O 136.124 1.27219 1.39096 0
M  V30 1322 C 133.251 2.55757 2.22049 0
M  V30 1323 C 132.297 3.76522 2.00333 0
M  V30 1324 S 133.13 5.20661 1.25191 0
M  V30 1325 C 134.286 5.70743 2.56912 0
M  V30 1326 H 134.519 2.93457 0.476492 0
M  V30 1327 H 132.052 1.53856 0.129493 0
M  V30 1328 H 134.01 2.83346 2.97027 0
M  V30 1329 H 132.671 1.71564 2.63106 0
M  V30 1330 H 131.864 4.07256 2.96916 0
M  V30 1331 H 131.466 3.49367 1.33488 0
M  V30 1332 H 133.758 5.78304 3.52946 0
M  V30 1333 H 134.701 6.6944 2.30772 0
M  V30 1334 H 135.109 4.98616 2.64655 0
M  V30 1335 N 134.507 -0.190092 1.56449 0
M  V30 1336 C 135.47 -1.21925 1.9408 0
M  V30 1337 C 136.47 -1.38176 0.822431 0
M  V30 1338 O 137.66 -1.35903 1.08977 0
M  V30 1339 C 134.792 -2.58773 2.21922 0
M  V30 1340 H 135.985 -0.897464 2.86157 0
M  V30 1341 H 133.538 -0.43181 1.50217 0
M  V30 1342 H 134.273 -2.95998 1.32499 0
M  V30 1343 H 134.058 -2.48348 3.03424 0
M  V30 1344 H 135.548 -3.32978 2.52022 0
M  V30 1345 N 135.985 -1.50799 -0.457987 0
M  V30 1346 C 136.915 -1.73553 -1.5621 0
M  V30 1347 C 137.896 -0.584774 -1.59732 0
M  V30 1348 O 139.081 -0.825314 -1.7579 0
M  V30 1349 C 136.211 -1.84169 -2.94447 0
M  V30 1350 C 135.165 -2.99461 -3.0579 0
M  V30 1351 C 134.491 -2.95235 -4.45803 0
M  V30 1352 C 135.791 -4.39766 -2.81786 0
M  V30 1353 H 137.485 -2.66 -1.37421 0
M  V30 1354 H 135.031 -1.28002 -0.659662 0
M  V30 1355 H 136.984 -1.98672 -3.71628 0
M  V30 1356 H 135.708 -0.883545 -3.14422 0
M  V30 1357 H 134.367 -2.8463 -2.31044 0
M  V30 1358 H 134.015 -1.97239 -4.62715 0
M  V30 1359 H 133.715 -3.72642 -4.54326 0
M  V30 1360 H 135.239 -3.11803 -5.24987 0
M  V30 1361 H 136.653 -4.55054 -3.4871 0
M  V30 1362 H 135.05 -5.18722 -3.0174 0
M  V30 1363 H 136.12 -4.51229 -1.7754 0
M  V30 1364 N 137.463 0.71206 -1.40597 0
M  V30 1365 C 138.413 1.81783 -1.37619 0
M  V30 1366 C 139.397 1.58896 -0.253162 0
M  V30 1367 O 140.589 1.70009 -0.492547 0
M  V30 1368 C 137.718 3.19944 -1.24462 0
M  V30 1369 C 136.804 3.48582 -2.4156 0
M  V30 1370 N 137.195 3.48016 -3.67041 0
M  V30 1371 C 135.493 3.79056 -2.35016 0
M  V30 1372 C 136.194 3.75096 -4.44609 0
M  V30 1373 N 135.17 3.94022 -3.74497 0
M  V30 1374 H 138.972 1.79683 -2.32575 0
M  V30 1375 H 136.486 0.91134 -1.34419 0
M  V30 1376 H 138.483 3.99133 -1.20411 0
M  V30 1377 H 137.143 3.23267 -0.304762 0
M  V30 1378 H 138.154 3.28782 -4.00153 0
M  V30 1379 H 134.831 3.89848 -1.49415 0
M  V30 1380 H 136.221 3.80934 -5.53479 0
M  V30 1381 N 138.941 1.26152 0.944643 0
M  V30 1382 C 139.873 1.03199 2.04652 0
M  V30 1383 C 140.886 -0.00642356 1.62799 0
M  V30 1384 O 142.075 0.233263 1.76969 0
M  V30 1385 C 139.175 0.540111 3.34568 0
M  V30 1386 C 138.348 1.64697 4.05208 0
M  V30 1387 C 137.407 1.15374 5.13396 0
M  V30 1388 O 136.433 1.85013 5.38293 0
M  V30 1389 N 137.635 0.00031529 5.805 0
M  V30 1390 H 140.4 1.9808 2.2491 0
M  V30 1391 H 137.961 1.17491 1.11389 0
M  V30 1392 H 139.953 0.194401 4.04233 0
M  V30 1393 H 138.523 -0.315021 3.11009 0
M  V30 1394 H 137.743 2.16379 3.29506 0
M  V30 1395 H 139.031 2.3903 4.49157 0
M  V30 1396 H 138.429 -0.581336 5.62705 0
M  V30 1397 H 136.986 -0.286346 6.51171 0
M  V30 1398 N 140.419 -1.14872 1.07899 0
M  V30 1399 C 141.83 -1.67367 0.827363 0
M  V30 1400 C 142.181 -1.85236 -0.646693 0
M  V30 1401 O 141.306 -1.55974 -1.50004 0
M  V30 1402 C 141.901 -3.04016 1.49532 0
M  V30 1403 C 140.46 -3.53566 1.29106 0
M  V30 1404 C 139.607 -2.29161 1.56143 0
M  V30 1405 H 142.558 -0.990083 1.24028 0
M  V30 1406 H 142.579 -3.69219 0.919643 0
M  V30 1407 H 142.091 -2.90978 2.56814 0
M  V30 1408 H 140.192 -3.71835 0.238713 0
M  V30 1409 H 140.305 -4.34661 2.01511 0
M  V30 1410 H 138.669 -2.34978 0.982717 0
M  V30 1411 H 139.452 -2.18705 2.64619 0
M  V30 1412 N 141.898 -0.863906 -1.31812 0
M  V30 1413 C 142.845 -0.313303 -2.28664 0
M  V30 1414 C 143.815 0.584868 -1.55462 0
M  V30 1415 O 145 0.517805 -1.83639 0
M  V30 1416 C 142.14 0.48441 -3.41683 0
M  V30 1417 C 141.253 -0.440594 -4.29747 0
M  V30 1418 C 140.388 0.370652 -5.29905 0
M  V30 1419 C 139.427 -0.551164 -6.09613 0
M  V30 1420 N 138.564 0.223462 -7.01744 0
M  V30 1421 H 143.404 -1.14444 -2.75148 0
M  V30 1422 H 140.941 -0.575769 -1.35364 0
M  V30 1423 H 142.899 0.962627 -4.05943 0
M  V30 1424 H 141.529 1.28029 -2.96325 0
M  V30 1425 H 140.581 -1.03724 -3.65986 0
M  V30 1426 H 141.893 -1.14767 -4.85417 0
M  V30 1427 H 141.047 0.911638 -5.99812 0
M  V30 1428 H 139.786 1.11105 -4.74876 0
M  V30 1429 H 138.791 -1.10396 -5.38603 0
M  V30 1430 H 140.016 -1.29032 -6.66729 0
M  V30 1431 H 137.962 0.946787 -6.49132 0
M  V30 1432 H 137.879 -0.424399 -7.54808 0
M  V30 1433 H 139.147 0.745876 -7.75923 0
M  V30 1434 N 143.376 1.44774 -0.622745 0
M  V30 1435 C 144.601 2.06999 -0.128968 0
M  V30 1436 C 145.026 1.4617 1.1839 0
M  V30 1437 O 144.384 0.560007 1.72434 0
M  V30 1438 C 144.432 3.60595 -0.0188351 0
M  V30 1439 O 143.536 3.99398 1.02739 0
M  V30 1440 H 142.877 0.659047 -0.0809544 0
M  V30 1441 H 145.407 1.85784 -0.85705 0
M  V30 1442 H 145.417 4.07627 0.174476 0
M  V30 1443 H 144.092 4.04252 -0.977384 0
M  V30 1444 H 142.669 3.64011 0.809326 0
M  V30 1445 N 144.854 0.36279 1.53368 0
M  V30 1446 C 146.1 -0.228113 2.01513 0
M  V30 1447 C 146.433 -1.48648 1.2497 0
M  V30 1448 O 145.708 -1.91459 0.342616 0
M  V30 1449 C 145.991 -0.522884 3.56284 0
M  V30 1450 C 145.844 0.74892 4.43521 0
M  V30 1451 C 147.163 -1.32461 4.19693 0
M  V30 1452 H 144.282 -0.0814343 0.732487 0
M  V30 1453 H 146.924 0.48713 1.83649 0
M  V30 1454 H 145.074 -1.1322 3.71636 0
M  V30 1455 H 146.746 1.38648 4.39971 0
M  V30 1456 H 144.989 1.36986 4.11603 0
M  V30 1457 H 145.66 0.497667 5.49752 0
M  V30 1458 H 148.136 -0.809203 4.08156 0
M  V30 1459 H 147.012 -1.49961 5.28018 0
M  V30 1460 H 147.273 -2.33232 3.75573 0
M  V30 1461 N 146.332 -1.57332 0.0918853 0
M  V30 1462 C 147.279 -2.13847 -0.868211 0
M  V30 1463 C 148.249 -1.05618 -1.28196 0
M  V30 1464 O 149.434 -1.33387 -1.36427 0
M  V30 1465 C 146.574 -2.72062 -2.12312 0
M  V30 1466 C 145.687 -3.94514 -1.7602 0
M  V30 1467 C 144.822 -4.40903 -2.96273 0
M  V30 1468 C 143.861 -5.55953 -2.56092 0
M  V30 1469 N 142.998 -5.97209 -3.69169 0
M  V30 1470 H 147.838 -2.95575 -0.379406 0
M  V30 1471 H 145.375 -1.46048 -0.175606 0
M  V30 1472 H 147.333 -3.03931 -2.858 0
M  V30 1473 H 145.963 -1.93068 -2.58698 0
M  V30 1474 H 145.015 -3.68979 -0.925135 0
M  V30 1475 H 146.327 -4.7802 -1.42472 0
M  V30 1476 H 145.481 -4.74539 -3.78018 0
M  V30 1477 H 144.22 -3.56291 -3.33029 0
M  V30 1478 H 143.225 -5.21948 -1.72773 0
M  V30 1479 H 144.45 -6.42311 -2.20484 0
M  V30 1480 H 142.396 -5.15543 -4.05649 0
M  V30 1481 H 142.313 -6.75504 -3.39456 0
M  V30 1482 H 143.581 -6.35475 -4.51434 0
M  V30 1483 N 147.81 0.181792 -1.56548 0
M  V30 1484 C 148.72 1.24538 -1.98815 0
M  V30 1485 C 149.736 1.49045 -0.897861 0
M  V30 1486 O 150.912 1.61399 -1.20467 0
M  V30 1487 C 147.977 2.56683 -2.33055 0
M  V30 1488 C 147.038 2.40131 -3.55859 0
M  V30 1489 C 146.271 3.65975 -3.88456 0
M  V30 1490 O 146.494 4.70711 -3.22161 0
M  V30 1491 O 145.428 3.6071 -4.81842 0
M  V30 1492 H 149.254 0.916647 -2.89536 0
M  V30 1493 H 146.839 0.387842 -1.44278 0
M  V30 1494 H 148.721 3.34655 -2.56094 0
M  V30 1495 H 147.396 2.89157 -1.45498 0
M  V30 1496 H 146.303 1.60226 -3.38051 0
M  V30 1497 H 147.636 2.12585 -4.43924 0
M  V30 1498 N 149.288 1.51039 0.449983 0
M  V30 1499 C 150.251 1.70863 1.5277 0
M  V30 1500 C 151.251 0.578846 1.5002 0
M  V30 1501 O 152.441 0.846213 1.52266 0
M  V30 1502 C 149.573 1.75341 2.9235 0
M  V30 1503 H 150.766 2.67034 1.36502 0
M  V30 1504 H 148.319 1.40838 0.677812 0
M  V30 1505 H 149.054 0.809383 3.14037 0
M  V30 1506 H 148.839 2.57436 2.95752 0
M  V30 1507 H 150.329 1.92559 3.70555 0
M  V30 1508 N 150.766 -0.704594 1.40972 0
M  V30 1509 C 151.696 -1.83124 1.44872 0
M  V30 1510 C 152.677 -1.67281 0.30838 0
M  V30 1511 O 153.862 -1.87149 0.518556 0
M  V30 1512 C 150.992 -3.21181 1.32136 0
M  V30 1513 C 149.946 -3.51714 2.43888 0
M  V30 1514 C 149.272 -4.89032 2.16222 0
M  V30 1515 C 150.572 -3.516 3.86232 0
M  V30 1516 H 152.266 -1.80117 2.39161 0
M  V30 1517 H 149.812 -0.865145 1.15114 0
M  V30 1518 H 151.765 -3.99702 1.33479 0
M  V30 1519 H 150.489 -3.24791 0.343279 0
M  V30 1520 H 149.148 -2.75539 2.41813 0
M  V30 1521 H 148.796 -4.89256 1.16778 0
M  V30 1522 H 148.496 -5.10426 2.911 0
M  V30 1523 H 150.02 -5.69873 2.19265 0
M  V30 1524 H 151.434 -4.2014 3.9007 0
M  V30 1525 H 149.831 -3.84523 4.60719 0
M  V30 1526 H 150.901 -2.50757 4.15029 0
M  V30 1527 N 152.244 -1.26651 -0.937939 0
M  V30 1528 C 153.469 -1.15279 -1.72411 0
M  V30 1529 C 153.894 0.287866 -1.85884 0
M  V30 1530 O 153.252 1.20855 -1.35143 0
M  V30 1531 C 153.3 -1.83028 -3.10698 0
M  V30 1532 O 152.404 -1.12128 -3.96864 0
M  V30 1533 H 151.745 -0.401504 -0.528858 0
M  V30 1534 H 154.275 -1.67531 -1.1745 0
M  V30 1535 H 154.285 -1.89981 -3.6107 0
M  V30 1536 H 152.96 -2.87833 -3.00208 0
M  V30 1537 H 151.537 -1.13173 -3.55312 0
M  V30 1538 N 153.722 1.14298 -1.08507 0
M  V30 1539 C 154.952 1.88945 -0.835663 0
M  V30 1540 C 155.36 1.78894 0.615928 0
M  V30 1541 O 154.703 1.1468 1.43506 0
M  V30 1542 C 154.765 3.39585 -1.17994 0
M  V30 1543 C 154.429 3.7342 -2.63451 0
M  V30 1544 C 155.426 3.73454 -3.61702 0
M  V30 1545 C 153.111 4.03368 -2.99332 0
M  V30 1546 C 155.105 4.02961 -4.93864 0
M  V30 1547 C 152.792 4.32538 -4.31687 0
M  V30 1548 C 153.79 4.32318 -5.28763 0
M  V30 1549 O 153.478 4.6078 -6.58739 0
M  V30 1550 H 153.21 0.605307 -0.300965 0
M  V30 1551 H 155.764 1.45673 -1.44806 0
M  V30 1552 H 153.994 3.83315 -0.51055 0
M  V30 1553 H 155.683 3.9554 -0.911182 0
M  V30 1554 H 156.449 3.50403 -3.35325 0
M  V30 1555 H 152.328 4.02692 -2.24411 0
M  V30 1556 H 155.872 4.02704 -5.69627 0
M  V30 1557 H 151.769 4.55059 -4.57812 0
M  V30 1558 H 152.537 4.78492 -6.64069 0
M  V30 1559 N 155.201 0.870884 1.31352 0
M  V30 1560 C 156.429 0.49677 2.00848 0
M  V30 1561 C 156.844 -0.910998 1.65367 0
M  V30 1562 O 156.201 -1.59696 0.883374 0
M  V30 1563 C 156.252 0.645308 3.55694 0
M  V30 1564 O 155.973 1.99764 3.89905 0
M  V30 1565 C 157.474 0.272326 4.42463 0
M  V30 1566 H 154.694 0.193462 0.642506 0
M  V30 1567 H 157.238 1.1723 1.67563 0
M  V30 1568 H 155.393 0.0173176 3.87396 0
M  V30 1569 H 155.807 2.00607 4.84621 0
M  V30 1570 H 157.281 0.427208 5.50344 0
M  V30 1571 H 157.758 -0.788587 4.32062 0
M  V30 1572 H 158.364 0.876054 4.1618 0
M  V30 1573 N 156.679 -1.44442 0.630414 0
M  V30 1574 C 158.09 -1.85434 0.217063 0
M  V30 1575 C 158.441 -1.52748 -1.23136 0
M  V30 1576 O 157.566 -0.965205 -1.93682 0
M  V30 1577 C 158.161 -3.36581 0.387168 0
M  V30 1578 C 156.72 -3.76389 0.0283297 0
M  V30 1579 C 155.867 -2.68296 0.700889 0
M  V30 1580 H 158.818 -1.34919 0.83562 0
M  V30 1581 H 158.839 -3.78657 -0.374086 0
M  V30 1582 H 158.351 -3.60339 1.44144 0
M  V30 1583 H 156.452 -3.58246 -1.02423 0
M  V30 1584 H 156.565 -4.77095 0.437892 0
M  V30 1585 H 154.929 -2.54335 0.136267 0
M  V30 1586 H 155.712 -2.94887 1.75774 0
M  V30 1587 N 158.157 -0.370918 -1.53173 0
M  V30 1588 C 159.405 0.216673 -2.00935 0
M  V30 1589 C 159.726 1.48845 -1.25977 0
M  V30 1590 O 158.996 1.92286 -0.374551 0
M  V30 1591 H 157.576 0.0830565 -0.742368 0
M  V30 1592 H 160.238 -0.49838 -1.8842 0
M  V30 1593 H 159.334 0.439893 -3.08984 0
M  V30 1594 N 159.635 1.57281 -0.100228 0
M  V30 1595 C 160.881 1.94826 0.563101 0
M  V30 1596 C 161.214 0.982475 1.67514 0
M  V30 1597 O 160.489 0.0164069 1.94493 0
M  V30 1598 C 160.772 3.42453 1.11346 0
M  V30 1599 C 160.625 4.498 0.00612081 0
M  V30 1600 C 161.944 3.91506 2.01024 0
M  V30 1601 H 159.063 0.708428 0.203221 0
M  V30 1602 H 161.705 1.8922 -0.171979 0
M  V30 1603 H 159.855 3.47361 1.7399 0
M  V30 1604 H 161.527 4.57 -0.628357 0
M  V30 1605 H 159.77 4.28756 -0.659581 0
M  V30 1606 H 160.441 5.50306 0.432109 0
M  V30 1607 H 162.917 3.88784 1.48278 0
M  V30 1608 H 161.793 4.95358 2.36457 0
M  V30 1609 H 162.054 3.31099 2.92961 0
M  V30 1610 N 161.113 -0.173488 1.56642 0
M  V30 1611 C 162.338 -0.910149 1.86363 0
M  V30 1612 C 162.763 -1.75132 0.686318 0
M  V30 1613 O 162.121 -1.77595 -0.364643 0
M  V30 1614 C 162.169 -1.76447 3.14482 0
M  V30 1615 O 161.273 -2.86584 2.96553 0
M  V30 1616 H 160.614 -0.255086 0.613047 0
M  V30 1617 H 163.144 -0.172283 2.03873 0
M  V30 1618 H 163.154 -2.16483 3.45831 0
M  V30 1619 H 161.829 -1.14658 3.99783 0
M  V30 1620 H 160.406 -2.50146 2.76553 0
M  V30 1621 N 162.591 -1.51276 -0.441967 0
M  V30 1622 C 163.837 -1.63958 -1.19355 0
M  V30 1623 C 164.17 -0.352543 -1.90973 0
M  V30 1624 O 163.445 0.647627 -1.83401 0
M  V30 1625 C 163.728 -2.83979 -2.21422 0
M  V30 1626 C 163.581 -4.22646 -1.53918 0
M  V30 1627 C 164.9 -2.99521 -3.22451 0
M  V30 1628 H 162.019 -0.596709 -0.432559 0
M  V30 1629 H 164.661 -1.83748 -0.483398 0
M  V30 1630 H 162.811 -2.67237 -2.81987 0
M  V30 1631 H 164.483 -4.51045 -0.967256 0
M  V30 1632 H 162.726 -4.25558 -0.841615 0
M  V30 1633 H 163.397 -5.02609 -2.28229 0
M  V30 1634 H 165.873 -3.14944 -2.71937 0
M  V30 1635 H 164.749 -3.85072 -3.91166 0
M  V30 1636 H 165.01 -2.11391 -3.88287 0
M  V30 1637 N 164.069 0.697108 -1.41344 0
M  V30 1638 C 165.317 1.45426 -1.40341 0
M  V30 1639 C 165.638 1.94996 -0.0128787 0
M  V30 1640 O 164.908 1.71599 0.945027 0
M  V30 1641 H 163.488 0.539594 -0.516573 0
M  V30 1642 H 166.15 0.825201 -1.76569 0
M  V30 1643 H 165.246 2.31817 -2.08967 0
M  V30 1644 N 165.547 1.27147 0.931209 0
M  V30 1645 C 166.775 1.16082 1.71267 0
M  V30 1646 C 167.19 -0.282772 1.8667 0
M  V30 1647 O 166.547 -1.19283 1.38122 0
M  V30 1648 C 166.598 1.8358 3.11417 0
M  V30 1649 O 166.319 3.22299 2.96741 0
M  V30 1650 C 167.82 1.78597 4.05732 0
M  V30 1651 H 165.04 0.403758 0.535929 0
M  V30 1652 H 167.584 1.67953 1.16671 0
M  V30 1653 H 165.739 1.35623 3.62885 0
M  V30 1654 H 166.153 3.55851 3.85319 0
M  V30 1655 H 167.627 2.30444 5.01597 0
M  V30 1656 H 168.104 0.754564 4.3267 0
M  V30 1657 H 168.71 2.26152 3.60188 0
M  V30 1658 N 167.025 -1.13721 1.09112 0
M  V30 1659 C 168.441 -1.36914 0.820174 0
M  V30 1660 C 168.641 -1.93356 -0.567079 0
M  V30 1661 O 167.697 -2.15093 -1.32255 0
M  V30 1662 C 169.01 -2.3235 1.90877 0
M  V30 1663 C 170.558 -2.45973 1.93562 0
M  V30 1664 C 171.033 -3.44714 3.01556 0
M  V30 1665 N 172.524 -3.52263 3.00775 0
M  V30 1666 C 173.259 -4.28536 3.80978 0
M  V30 1667 N 172.755 -5.07991 4.71081 0
M  V30 1668 N 174.548 -4.23804 3.69251 0
M  V30 1669 H 166.699 -0.754348 1.98553 0
M  V30 1670 H 168.962 -0.3944 0.862063 0
M  V30 1671 H 168.668 -1.98027 2.90651 0
M  V30 1672 H 168.542 -3.32332 1.78424 0
M  V30 1673 H 170.929 -2.79584 0.944286 0
M  V30 1674 H 171.01 -1.45926 2.10093 0
M  V30 1675 H 170.654 -3.11835 4.00901 0
M  V30 1676 H 170.584 -4.44558 2.82269 0
M  V30 1677 H 173.075 -2.95567 2.35475 0
M  V30 1678 H 173.388 -5.63487 5.28869 0
M  V30 1679 H 171.733 -5.07235 4.75119 0
M  V30 1680 H 174.924 -3.60806 2.98222 0
M  V30 1681 H 175.097 -4.82995 4.31995 0
M  V30 1682 N 168.503 -0.877838 -1.30888 0
M  V30 1683 C 169.751 -0.491723 -1.96027 0
M  V30 1684 C 170.072 0.960827 -1.69685 0
M  V30 1685 O 169.342 1.67462 -1.01654 0
M  V30 1686 H 167.922 -0.17885 -0.725273 0
M  V30 1687 H 170.584 -1.11935 -1.59551 0
M  V30 1688 H 169.68 -0.656016 -3.05128 0
M  V30 1689 N 169.982 1.44106 -0.638065 0
M  V30 1690 C 170.945 2.29138 0.0531013 0
M  V30 1691 C 171.945 1.41409 0.765506 0
M  V30 1692 O 173.135 1.63206 0.609046 0
M  V30 1693 C 170.267 3.23144 1.08584 0
M  V30 1694 H 171.46 2.91739 -0.694883 0
M  V30 1695 H 169.013 1.51134 -0.398538 0
M  V30 1696 H 169.748 2.65408 1.86357 0
M  V30 1697 H 169.533 3.87804 0.578852 0
M  V30 1698 H 171.023 3.87004 1.56899 0
M  V30 1699 N 171.46 0.379036 1.52974 0
M  V30 1700 C 172.685 -0.209353 2.06341 0
M  V30 1701 C 173.11 -1.40583 1.24972 0
M  V30 1702 O 172.468 -1.79246 0.272155 0
M  V30 1703 C 172.516 -0.567786 3.56102 0
M  V30 1704 O 171.62 -1.66318 3.77375 0
M  V30 1705 H 170.961 -0.0272919 0.663439 0
M  V30 1706 H 173.491 0.543536 1.97248 0
M  V30 1707 H 173.501 -0.835003 3.99364 0
M  V30 1708 H 172.176 0.307013 4.14765 0
M  V30 1709 H 170.753 -1.39048 3.46006 0
M  V30 1710 N 172.938 -1.57226 0.108567 0
M  V30 1711 C 173.886 -2.16002 -0.862885 0
M  V30 1712 C 174.88 -1.10644 -1.28274 0
M  V30 1713 O 176.086 -1.28966 -1.2557 0
M  V30 1714 H 172.461 -0.691148 -0.296342 0
M  V30 1715 H 174.432 -2.96427 -0.342575 0
M  V30 1716 C 173.181 -2.76576 -2.10716 0
M  V30 1717 H 172.504 -3.5734 -1.793 0
M  V30 1718 H 173.944 -3.21253 -2.76717 0
M  V30 1719 C 172.403 -1.73137 -2.89007 0
M  V30 1720 O 172.933 -1.17842 -3.84026 0
M  V30 1721 N 171.139 -1.43317 -2.52801 0
M  V30 1722 H 170.686 -1.88473 -1.75601 0
M  V30 1723 H 170.644 -0.743485 -3.05483 0
M  V30 1724 N 174.416 0.165178 -1.56732 0
M  V30 1725 C 175.644 0.896218 -1.86482 0
M  V30 1726 C 176.059 1.75555 -0.694675 0
M  V30 1727 O 175.416 1.79379 0.33607 0
M  V30 1728 C 175.467 1.76792 -3.1532 0
M  V30 1729 O 175.188 0.943239 -4.27825 0
M  V30 1730 C 176.689 2.6081 -3.58459 0
M  V30 1731 H 173.909 0.260064 -0.618553 0
M  V30 1732 H 176.453 0.163428 -2.03846 0
M  V30 1733 H 174.608 2.45398 -2.99764 0
M  V30 1734 H 175.022 1.53998 -5.01383 0
M  V30 1735 H 176.496 3.17579 -4.51495 0
M  V30 1736 H 176.973 3.35977 -2.82872 0
M  V30 1737 H 177.579 1.97526 -3.76648 0
M  V30 1738 N 175.894 1.51508 0.433938 0
M  V30 1739 C 177.124 1.67914 1.20369 0
M  V30 1740 C 177.532 0.377461 1.85397 0
M  V30 1741 O 176.875 -0.654255 1.71654 0
M  V30 1742 C 176.937 2.74045 2.32679 0
M  V30 1743 C 176.601 4.16543 1.87991 0
M  V30 1744 C 177.598 5.01211 1.38145 0
M  V30 1745 C 175.283 4.6266 1.95579 0
M  V30 1746 C 177.277 6.30056 0.964774 0
M  V30 1747 C 174.964 5.91501 1.53523 0
M  V30 1748 C 175.962 6.75027 1.04055 0
M  V30 1749 O 175.65 8.01459 0.625964 0
M  V30 1750 H 175.382 0.566578 0.368735 0
M  V30 1751 H 177.936 1.98709 0.51999 0
M  V30 1752 H 176.166 2.38572 3.04336 0
M  V30 1753 H 177.855 2.79295 2.94532 0
M  V30 1754 H 178.621 4.66783 1.31675 0
M  V30 1755 H 174.5 3.97767 2.33029 0
M  V30 1756 H 178.044 6.95202 0.57796 0
M  V30 1757 H 173.941 6.25442 1.59665 0
M  V30 1758 H 174.709 8.15043 0.751509 0
M  V30 1759 N 177.372 -0.689602 1.41712 0
M  V30 1760 C 178.649 -1.44457 1.31877 0
M  V30 1761 C 179.029 -2.11039 -0.0508537 0
M  V30 1762 O 178.377 -2.02138 -1.06547 0
M  V30 1763 C 178.587 -2.45913 2.47645 0
M  V30 1764 C 179.935 -3.10991 2.89084 0
M  V30 1765 O 180.959 -2.56238 2.47428 0
M  V30 1766 O 179.818 -4.10174 3.61137 0
M  V30 1767 H 176.912 -0.64362 0.519309 0
M  V30 1768 H 179.458 -0.719576 1.53689 0
M  V30 1769 H 178.23 -1.95409 3.39015 0
M  V30 1770 H 177.853 -3.25913 2.27742 0
M  V30 1771 N 178.85 -1.27639 -0.924453 0
M  V30 1772 C 179.8 -1.07295 -2.01176 0
M  V30 1773 C 180.784 5.77352e-05 -1.609 0
M  V30 1774 O 181.976 -0.218855 -1.75642 0
M  V30 1775 C 179.105 -0.725592 -3.35544 0
M  V30 1776 C 178.191 -1.83691 -3.82254 0
M  V30 1777 N 178.582 -3.07697 -4.01443 0
M  V30 1778 C 176.88 -1.72433 -4.11319 0
M  V30 1779 C 177.581 -3.80037 -4.40394 0
M  V30 1780 N 176.557 -3.0782 -4.48049 0
M  V30 1781 H 180.359 -2.01399 -2.14046 0
M  V30 1782 H 177.873 -1.18401 -1.11153 0
M  V30 1783 H 179.87 -0.560959 -4.13109 0
M  V30 1784 H 178.53 0.207782 -3.24034 0
M  V30 1785 H 179.541 -3.43424 -3.8766 0
M  V30 1786 H 176.218 -0.862005 -4.08504 0
M  V30 1787 H 177.608 -4.86632 -4.63291 0
M  V30 1788 N 180.328 1.1314 -1.09713 0
M  V30 1789 C 181.258 2.20748 -0.761102 0
M  V30 1790 C 182.239 1.68061 0.262566 0
M  V30 1791 O 183.424 1.93765 0.129977 0
M  V30 1792 C 180.554 3.46812 -0.184054 0
M  V30 1793 C 179.508 4.12606 -1.13757 0
M  V30 1794 C 178.834 5.33031 -0.422083 0
M  V30 1795 C 180.134 4.59603 -2.48118 0
M  V30 1796 H 181.828 2.49113 -1.66082 0
M  V30 1797 H 179.374 1.19734 -0.799987 0
M  V30 1798 H 181.327 4.21353 0.0631215 0
M  V30 1799 H 180.051 3.17851 0.750868 0
M  V30 1800 H 178.71 3.40036 -1.37007 0
M  V30 1801 H 178.358 5.00335 0.517072 0
M  V30 1802 H 178.058 5.77999 -1.05788 0
M  V30 1803 H 179.582 6.10325 -0.183277 0
M  V30 1804 H 180.996 5.25552 -2.29059 0
M  V30 1805 H 179.393 5.15321 -3.07514 0
M  V30 1806 H 180.463 3.73971 -3.08665 0
M  V30 1807 N 181.806 0.884767 1.30421 0
M  V30 1808 C 183.055 0.499164 1.95426 0
M  V30 1809 C 183.368 -0.95645 1.70621 0
M  V30 1810 O 184.574 -1.44889 2.29607 0
M  V30 1811 C 183.03 0.84177 3.49917 0
M  V30 1812 C 182.638 2.31514 3.83543 0
M  V30 1813 C 184.382 0.525355 4.21237 0
M  V30 1814 C 182.289 2.59939 5.31212 0
M  V30 1815 H 181.219 0.182944 0.73147 0
M  V30 1816 H 183.87 1.07971 1.48373 0
M  V30 1817 H 182.252 0.190311 3.95542 0
M  V30 1818 H 183.426 3.0109 3.48829 0
M  V30 1819 H 181.741 2.59907 3.25326 0
M  V30 1820 H 184.338 0.714762 5.29901 0
M  V30 1821 H 184.681 -0.535222 4.12845 0
M  V30 1822 H 185.214 1.134 3.81294 0
M  V30 1823 H 181.953 3.64736 5.44654 0
M  V30 1824 H 181.473 1.94972 5.67227 0
M  V30 1825 H 183.152 2.45429 5.98643 0
M  V30 1826 N 183.284 -1.43765 0.645699 0
M  V30 1827 C 184.533 -2.01116 0.153412 0
M  V30 1828 C 184.846 -1.51493 -1.23731 0
M  V30 1829 O 186.052 -2.01067 -1.8244 0
M  V30 1830 C 184.508 -3.59206 0.223473 0
M  V30 1831 C 184.116 -4.17823 1.61642 0
M  V30 1832 C 185.86 -4.23972 -0.211597 0
M  V30 1833 C 183.767 -5.68183 1.64081 0
M  V30 1834 H 182.697 -0.752093 0.0535891 0
M  V30 1835 H 185.348 -1.6482 0.806633 0
M  V30 1836 H 183.73 -3.92867 -0.497118 0
M  V30 1837 H 184.904 -3.95674 2.36176 0
M  V30 1838 H 183.219 -3.65399 1.99681 0
M  V30 1839 H 185.816 -5.34275 -0.213112 0
M  V30 1840 H 186.159 -3.97352 -1.24165 0
M  V30 1841 H 186.692 -3.95166 0.456988 0
M  V30 1842 H 183.431 -5.99559 2.64971 0
M  V30 1843 H 182.951 -5.9241 0.938611 0
M  V30 1844 H 184.63 -6.32085 1.3812 0
M  V30 1845 N 184.763 -0.387143 -1.52771 0
M  V30 1846 C 186.179 -0.037007 -1.59557 0
M  V30 1847 C 186.379 1.44801 -1.40124 0
M  V30 1848 O 185.435 2.21227 -1.21716 0
M  V30 1849 C 186.748 -0.512256 -2.96305 0
M  V30 1850 C 188.296 -0.468328 -3.09476 0
M  V30 1851 C 188.771 -0.919731 -4.4867 0
M  V30 1852 N 190.262 -0.875656 -4.54848 0
M  V30 1853 C 190.997 -1.19637 -5.6078 0
M  V30 1854 N 190.493 -1.58745 -6.74368 0
M  V30 1855 N 192.286 -1.11776 -5.50874 0
M  V30 1856 H 184.437 -1.35395 -1.63652 0
M  V30 1857 H 186.7 -0.554818 -0.768688 0
M  V30 1858 H 186.406 -1.54935 -3.15734 0
M  V30 1859 H 186.28 0.089805 -3.77093 0
M  V30 1860 H 188.667 0.559671 -2.89744 0
M  V30 1861 H 188.748 -1.10616 -2.30646 0
M  V30 1862 H 188.392 -1.94595 -4.69143 0
M  V30 1863 H 188.322 -0.258927 -5.25963 0
M  V30 1864 H 190.813 -0.587843 -3.733 0
M  V30 1865 H 191.126 -1.81586 -7.51163 0
M  V30 1866 H 189.471 -1.6263 -6.75705 0
M  V30 1867 H 192.662 -0.811264 -4.61016 0
M  V30 1868 H 192.835 -1.37103 -6.3333 0
M  V30 1869 N 186.241 1.57166 -0.116904 0
M  V30 1870 C 187.489 1.94737 0.540533 0
M  V30 1871 C 187.81 1.00096 1.67349 0
M  V30 1872 O 187.08 0.0568854 1.95817 0
M  V30 1873 H 185.66 0.718981 0.202669 0
M  V30 1874 H 188.322 1.94017 -0.185353 0
M  V30 1875 H 187.418 2.97719 0.936483 0
M  V30 1876 N 187.719 -0.156864 1.56817 0
M  V30 1877 C 188.966 -0.871125 1.82805 0
M  V30 1878 C 189.294 -1.81611 0.696262 0
M  V30 1879 O 188.549 -1.93141 -0.315459 0
M  V30 1880 C 188.848 -1.68737 3.1506 0
M  V30 1881 C 188.514 -0.890045 4.42028 0
M  V30 1882 C 187.176 -0.670042 4.76512 0
M  V30 1883 C 189.528 -0.331769 5.20143 0
M  V30 1884 C 186.856 0.119104 5.86579 0
M  V30 1885 C 189.208 0.444365 6.31037 0
M  V30 1886 C 187.872 0.675035 6.64078 0
M  V30 1887 H 187.142 -0.318767 0.668931 0
M  V30 1888 H 189.789 -0.135274 1.91022 0
M  V30 1889 H 188.094 -2.49304 3.0225 0
M  V30 1890 H 189.791 -2.24331 3.3238 0
M  V30 1891 H 186.381 -1.07157 4.14988 0
M  V30 1892 H 190.565 -0.489043 4.93885 0
M  V30 1893 H 185.821 0.307417 6.10627 0
M  V30 1894 H 189.995 0.884139 6.90765 0
M  V30 1895 H 187.622 1.28839 7.49203 0
M  V30 1896 N 189.197 -1.51736 -0.425897 0
M  V30 1897 C 190.16 -1.73271 -1.50032 0
M  V30 1898 C 191.16 -0.602639 -1.4908 0
M  V30 1899 O 192.35 -0.87033 -1.509 0
M  V30 1900 C 189.482 -1.79969 -2.89523 0
M  V30 1901 H 190.675 -2.69172 -1.32237 0
M  V30 1902 H 188.228 -1.41899 -0.65532 0
M  V30 1903 H 188.963 -0.859241 -3.1271 0
M  V30 1904 H 188.748 -2.62109 -2.91619 0
M  V30 1905 H 190.238 -1.9843 -3.67444 0
M  V30 1906 N 190.675 0.682077 -1.42076 0
M  V30 1907 C 191.638 1.77756 -1.44691 0
M  V30 1908 C 192.638 1.5726 -0.335535 0
M  V30 1909 O 193.828 1.63686 -0.596037 0
M  V30 1910 C 190.96 3.16301 -1.27146 0
M  V30 1911 H 192.153 1.76826 -2.42224 0
M  V30 1912 H 189.706 0.891012 -1.28416 0
M  V30 1913 H 190.441 3.22862 -0.305075 0
M  V30 1914 H 190.226 3.32581 -2.07683 0
M  V30 1915 H 191.716 3.96241 -1.31843 0
M  V30 1916 N 192.153 1.28127 0.917671 0
M  V30 1917 C 193.063 1.13556 2.05286 0
M  V30 1918 C 194.079 0.0630914 1.73886 0
M  V30 1919 O 195.255 0.271598 1.9956 0
M  V30 1920 C 192.32 0.794676 3.3747 0
M  V30 1921 C 191.381 1.94909 3.82504 0
M  V30 1922 C 190.614 1.62437 5.0838 0
M  V30 1923 O 190.837 0.536905 5.67867 0
M  V30 1924 O 189.771 2.46677 5.4903 0
M  V30 1925 H 193.597 2.08844 2.20495 0
M  V30 1926 H 191.182 1.07409 1.03845 0
M  V30 1927 H 193.064 0.618344 4.16839 0
M  V30 1928 H 191.739 -0.128581 3.23445 0
M  V30 1929 H 190.646 2.18055 3.03978 0
M  V30 1930 H 191.979 2.85291 4.01086 0
M  V30 1931 N 193.631 -1.12557 1.10312 0
M  V30 1932 C 194.879 -1.83675 0.843091 0
M  V30 1933 C 195.2 -1.84435 -0.633131 0
M  V30 1934 O 194.47 -1.30657 -1.45964 0
M  V30 1935 H 193.05 -0.680138 0.308904 0
M  V30 1936 H 195.712 -1.36301 1.39313 0
M  V30 1937 H 194.808 -2.87908 1.2048 0
M  V30 1938 N 195.109 -0.891671 -1.2995 0
M  V30 1939 C 196.041 -0.320695 -2.26945 0
M  V30 1940 C 197.054 0.528497 -1.53983 0
M  V30 1941 O 198.243 0.346959 -1.75096 0
M  V30 1942 C 195.343 0.562066 -3.34207 0
M  V30 1943 C 194.516 -0.259576 -4.36629 0
M  V30 1944 C 193.575 0.554739 -5.23268 0
M  V30 1945 O 192.601 -0.0249311 -5.69195 0
M  V30 1946 N 193.803 1.8625 -5.4981 0
M  V30 1947 H 196.568 -1.15432 -2.76578 0
M  V30 1948 H 194.129 -0.755336 -1.432 0
M  V30 1949 H 196.121 1.11304 -3.89093 0
M  V30 1950 H 194.691 1.29637 -2.84452 0
M  V30 1951 H 193.911 -0.991986 -3.81514 0
M  V30 1952 H 195.199 -0.822564 -5.02107 0
M  V30 1953 H 194.597 2.35628 -5.14292 0
M  V30 1954 H 193.154 2.36078 -6.07545 0
M  V30 1955 N 196.587 1.43421 -0.653314 0
M  V30 1956 C 197.812 2.06678 -0.172846 0
M  V30 1957 C 198.237 1.48648 1.15262 0
M  V30 1958 O 197.595 0.596457 1.71208 0
M  V30 1959 C 197.643 3.60474 -0.0953184 0
M  V30 1960 O 196.747 4.01487 0.942442 0
M  V30 1961 H 196.088 0.657181 -0.0949155 0
M  V30 1962 H 198.618 1.83925 -0.896265 0
M  V30 1963 H 198.628 4.07905 0.0879728 0
M  V30 1964 H 197.303 4.02088 -1.06291 0
M  V30 1965 H 195.88 3.65646 0.731932 0
M  V30 1966 N 198.065 0.39524 1.52563 0
M  V30 1967 C 198.997 -0.472201 2.24283 0
M  V30 1968 C 200.01 -1.02178 1.26742 0
M  V30 1969 O 201.199 -0.923097 1.52778 0
M  V30 1970 C 198.299 -1.66775 2.95024 0
M  V30 1971 C 197.472 -1.2445 4.19322 0
M  V30 1972 C 196.531 -2.30539 4.7301 0
M  V30 1973 O 195.557 -1.91702 5.35947 0
M  V30 1974 N 196.759 -3.6253 4.53379 0
M  V30 1975 H 199.524 0.142282 2.99362 0
M  V30 1976 H 197.085 0.2219 1.60372 0
M  V30 1977 H 199.077 -2.37283 3.27839 0
M  V30 1978 H 197.647 -2.18845 2.23217 0
M  V30 1979 H 196.867 -0.368069 3.92478 0
M  V30 1980 H 198.155 -0.938457 5.0007 0
M  V30 1981 H 197.553 -3.96841 4.03154 0
M  V30 1982 H 196.11 -4.29055 4.90668 0
M  V30 1983 N 199.544 -1.57102 0.125237 0
M  V30 1984 C 200.492 -2.16905 -0.839927 0
M  V30 1985 C 201.486 -1.11998 -1.27094 0
M  V30 1986 O 202.692 -1.3029 -1.24195 0
M  V30 1987 H 199.067 -0.694252 -0.288995 0
M  V30 1988 H 201.038 -2.96774 -0.311115 0
M  V30 1989 C 199.787 -2.78795 -2.07771 0
M  V30 1990 H 199.11 -3.59221 -1.755 0
M  V30 1991 H 200.55 -3.2417 -2.73295 0
M  V30 1992 C 199.009 -1.76193 -2.87155 0
M  V30 1993 O 199.539 -1.21909 -3.82755 0
M  V30 1994 N 197.745 -1.45991 -2.51267 0
M  V30 1995 H 197.292 -1.90325 -1.73592 0
M  V30 1996 H 197.25 -0.775844 -3.04677 0
M  V30 1997 N 201.022 0.148545 -1.56898 0
M  V30 1998 C 201.97 1.20265 -1.99096 0
M  V30 1999 C 202.964 1.44559 -0.883123 0
M  V30 2000 O 204.17 1.4487 -1.0683 0
M  V30 2001 H 200.545 0.404786 -0.63376 0
M  V30 2002 H 202.516 0.82004 -2.86911 0
M  V30 2003 C 201.265 2.52886 -2.3863 0
M  V30 2004 H 200.588 2.35021 -3.23427 0
M  V30 2005 H 202.028 3.25274 -2.7198 0
M  V30 2006 C 200.487 3.13315 -1.23837 0
M  V30 2007 O 201.017 3.98077 -0.538268 0
M  V30 2008 N 199.223 2.72742 -1.00301 0
M  V30 2009 H 198.77 2.03912 -1.5741 0
M  V30 2010 H 198.728 3.13507 -0.236838 0
M  V30 2011 N 202.5 1.5196 0.417844 0
M  V30 2012 C 203.73 1.69181 1.18581 0
M  V30 2013 C 204.138 0.397104 1.84986 0
M  V30 2014 O 203.481 -0.636011 1.72339 0
M  V30 2015 C 203.543 2.76497 2.29759 0
M  V30 2016 C 203.207 4.18514 1.83563 0
M  V30 2017 C 204.204 5.02648 1.32821 0
M  V30 2018 C 201.889 4.64708 1.90661 0
M  V30 2019 C 203.883 6.31044 0.897894 0
M  V30 2020 C 201.57 5.93096 1.47241 0
M  V30 2021 C 202.568 6.76093 0.968891 0
M  V30 2022 O 202.256 8.02078 0.540924 0
M  V30 2023 H 201.988 0.570457 0.362705 0
M  V30 2024 H 204.542 1.99249 0.498885 0
M  V30 2025 H 202.772 2.41786 3.01789 0
M  V30 2026 H 204.461 2.82403 2.91553 0
M  V30 2027 H 205.227 4.68154 1.26716 0
M  V30 2028 H 201.106 4.00216 2.28797 0
M  V30 2029 H 204.65 6.95776 0.504192 0
M  V30 2030 H 200.547 6.271 1.53022 0
M  V30 2031 H 201.315 8.15794 0.66502 0
M  V30 2032 N 203.978 -0.674533 1.42435 0
M  V30 2033 C 204.908 -1.80009 1.48724 0
M  V30 2034 C 205.889 -1.6659 0.343793 0
M  V30 2035 O 207.074 -1.86007 0.558137 0
M  V30 2036 C 204.204 -3.18306 1.38919 0
M  V30 2037 C 203.158 -3.46461 2.51294 0
M  V30 2038 C 202.484 -4.84335 2.26547 0
M  V30 2039 C 203.784 -3.43328 3.93603 0
M  V30 2040 H 205.478 -1.75004 2.42928 0
M  V30 2041 H 203.024 -0.840533 1.16923 0
M  V30 2042 H 204.977 -3.9678 1.41927 0
M  V30 2043 H 203.701 -3.2399 0.412094 0
M  V30 2044 H 202.36 -2.70348 2.47604 0
M  V30 2045 H 202.008 -4.86669 1.2713 0
M  V30 2046 H 201.708 -5.04136 3.01861 0
M  V30 2047 H 203.232 -5.65094 2.31304 0
M  V30 2048 H 204.646 -4.11772 3.98894 0
M  V30 2049 H 203.043 -3.74664 4.68771 0
M  V30 2050 H 204.113 -2.41897 4.20255 0
M  V30 2051 N 205.456 -1.28612 -0.910864 0
M  V30 2052 C 206.404 -1.1265 -2.03501 0
M  V30 2053 C 207.398 -0.0450054 -1.6934 0
M  V30 2054 O 208.604 -0.203988 -1.7884 0
M  V30 2055 H 204.979 -0.347639 -0.666822 0
M  V30 2056 H 206.95 -2.07849 -2.14106 0
M  V30 2057 C 205.699 -0.808143 -3.38178 0
M  V30 2058 H 205.022 -1.63231 -3.6496 0
M  V30 2059 H 206.462 -0.736426 -4.17556 0
M  V30 2060 C 204.921 0.488226 -3.33344 0
M  V30 2061 O 205.451 1.51766 -3.71927 0
M  V30 2062 N 203.657 0.490009 -2.86439 0
M  V30 2063 H 203.204 -0.348161 -2.55236 0
M  V30 2064 H 203.162 1.35741 -2.83587 0
M  V30 2065 N 206.934 1.1197 -1.10907 0
M  V30 2066 C 208.182 1.83225 -0.852819 0
M  V30 2067 C 208.503 1.84769 0.623341 0
M  V30 2068 O 207.773 1.3143 1.45269 0
M  V30 2069 H 206.353 0.67849 -0.312507 0
M  V30 2070 H 209.015 1.3556 -1.40033 0
M  V30 2071 H 208.111 2.87265 -1.22005 0
M  V30 2072 N 208.412 0.89855 1.29475 0
M  V30 2073 C 209.342 0.39201 2.30186 0
M  V30 2074 C 210.323 -0.532359 1.61555 0
M  V30 2075 O 211.508 -0.443331 1.89072 0
M  V30 2076 C 208.638 -0.382353 3.45189 0
M  V30 2077 C 207.592 0.451483 4.25612 0
M  V30 2078 C 206.918 -0.450307 5.328 0
M  V30 2079 C 208.218 1.70079 4.93832 0
M  V30 2080 H 209.912 1.23362 2.72804 0
M  V30 2081 H 207.458 0.594638 1.31149 0
M  V30 2082 H 209.411 -0.747451 4.14718 0
M  V30 2083 H 208.135 -1.25774 3.01411 0
M  V30 2084 H 206.794 0.798897 3.57789 0
M  V30 2085 H 206.442 -1.32379 4.85268 0
M  V30 2086 H 206.142 0.103902 5.87508 0
M  V30 2087 H 207.666 -0.811623 6.05182 0
M  V30 2088 H 209.08 1.40549 5.55805 0
M  V30 2089 H 207.477 2.19623 5.58467 0
M  V30 2090 H 208.547 2.43744 4.19186 0
M  V30 2091 N 209.89 -1.43072 0.660911 0
M  V30 2092 C 210.837 -2.30785 -0.0259884 0
M  V30 2093 C 211.807 -1.45184 -0.806888 0
M  V30 2094 O 212.992 -1.74041 -0.781943 0
M  V30 2095 C 210.132 -3.30861 -0.981067 0
M  V30 2096 C 209.245 -4.31558 -0.195458 0
M  V30 2097 C 208.38 -5.18712 -1.14503 0
M  V30 2098 C 207.419 -6.11097 -0.350299 0
M  V30 2099 N 206.556 -6.90849 -1.25186 0
M  V30 2100 H 211.396 -2.88975 0.727846 0
M  V30 2101 H 208.933 -1.42353 0.370682 0
M  V30 2102 H 210.891 -3.87399 -1.54849 0
M  V30 2103 H 209.521 -2.74304 -1.70169 0
M  V30 2104 H 208.573 -3.77252 0.488374 0
M  V30 2105 H 209.885 -4.9701 0.422176 0
M  V30 2106 H 209.039 -5.79914 -1.78284 0
M  V30 2107 H 207.778 -4.53404 -1.79656 0
M  V30 2108 H 206.783 -5.48976 0.300808 0
M  V30 2109 H 208.008 -6.7845 0.296941 0
M  V30 2110 H 205.954 -6.28182 -1.89005 0
M  V30 2111 H 205.871 -7.52854 -0.688971 0
M  V30 2112 H 207.139 -7.5655 -1.87757 0
M  V30 2113 N 211.368 -0.403325 -1.52352 0
M  V30 2114 C 212.298 0.416205 -2.29761 0
M  V30 2115 C 213.279 1.05123 -1.33728 0
M  V30 2116 O 214.464 1.06134 -1.62632 0
M  V30 2117 C 211.594 1.53624 -3.11475 0
M  V30 2118 C 210.548 1.02653 -4.15507 0
M  V30 2119 C 209.874 2.23971 -4.85532 0
M  V30 2120 C 211.174 0.08463 -5.22231 0
M  V30 2121 H 212.868 -0.229701 -2.98518 0
M  V30 2122 H 210.414 -0.111913 -1.43564 0
M  V30 2123 H 212.367 2.1165 -3.64393 0
M  V30 2124 H 211.091 2.20994 -2.40477 0
M  V30 2125 H 209.75 0.46871 -3.63591 0
M  V30 2126 H 209.398 2.89883 -4.11068 0
M  V30 2127 H 209.098 1.90521 -5.55856 0
M  V30 2128 H 210.622 2.82614 -5.41259 0
M  V30 2129 H 212.036 0.573509 -5.70424 0
M  V30 2130 H 210.433 -0.160783 -5.99885 0
M  V30 2131 H 211.503 -0.86237 -4.7717 0
M  V30 2132 N 212.846 1.57033 -0.133567 0
M  V30 2133 C 213.778 2.13176 0.841944 0
M  V30 2134 C 214.791 1.07794 1.22001 0
M  V30 2135 O 215.98 1.35117 1.16643 0
M  V30 2136 C 213.08 2.62847 2.13926 0
M  V30 2137 C 212.253 3.92486 1.93064 0
M  V30 2138 C 211.312 4.27605 3.0666 0
M  V30 2139 O 210.338 4.96168 2.78937 0
M  V30 2140 N 211.54 3.861 4.33483 0
M  V30 2141 H 214.305 2.97503 0.362192 0
M  V30 2142 H 211.866 1.61821 0.05042 0
M  V30 2143 H 213.858 2.83363 2.88942 0
M  V30 2144 H 212.428 1.83319 2.53205 0
M  V30 2145 H 211.648 3.80732 1.02159 0
M  V30 2146 H 212.936 4.77225 1.76447 0
M  V30 2147 H 212.334 3.30828 4.58878 0
M  V30 2148 H 210.891 4.11694 5.05323 0
M  V30 2149 N 214.325 -0.140222 1.56975 0
M  V30 2150 C 215.573 -0.850005 1.83356 0
M  V30 2151 C 215.894 -1.81399 0.71551 0
M  V30 2152 O 215.164 -1.94136 -0.262294 0
M  V30 2153 H 213.744 -0.316886 0.676456 0
M  V30 2154 H 216.406 -0.132608 1.94448 0
M  V30 2155 H 215.502 -1.40814 2.78528 0
M  V30 2156 N 215.803 -1.52179 -0.40978 0
M  V30 2157 C 216.751 -1.76086 -1.51975 0
M  V30 2158 C 217.745 -0.627964 -1.57331 0
M  V30 2159 O 218.951 -0.809993 -1.60745 0
M  V30 2160 H 215.326 -0.556829 -0.505416 0
M  V30 2161 H 217.297 -2.69077 -1.28996 0
M  V30 2162 C 216.046 -1.92799 -2.8935 0
M  V30 2163 H 215.369 -2.79392 -2.85972 0
M  V30 2164 H 216.809 -2.13527 -3.66309 0
M  V30 2165 C 215.268 -0.694923 -3.29655 0
M  V30 2166 O 215.798 0.13751 -4.01465 0
M  V30 2167 N 214.004 -0.53101 -2.85707 0
M  V30 2168 H 213.551 -1.20952 -2.27439 0
M  V30 2169 H 213.509 0.292718 -3.13034 0
M  V30 2170 N 217.281 0.66697 -1.42791 0
M  V30 2171 C 218.528 1.42699 -1.43678 0
M  V30 2172 C 218.856 1.94419 -0.0560425 0
M  V30 2173 O 218.111 1.7182 0.936831 0
M  V30 2174 C 218.41 2.6349 -2.4147 0
M  V30 2175 C 218.076 2.30267 -3.8767 0
M  V30 2176 C 216.738 2.20918 -4.27491 0
M  V30 2177 C 219.09 2.03435 -4.79858 0
M  V30 2178 C 216.418 1.82873 -5.57471 0
M  V30 2179 C 218.77 1.66892 -6.10188 0
M  V30 2180 C 217.434 1.56058 -6.49001 0
M  V30 2181 H 216.704 0.522171 -0.525755 0
M  V30 2182 H 219.351 0.759785 -1.75783 0
M  V30 2183 H 217.656 3.35279 -2.0272 0
M  V30 2184 H 219.353 3.21684 -2.39417 0
M  V30 2185 H 215.943 2.38449 -3.56146 0
M  V30 2186 H 220.127 2.09586 -4.49875 0
M  V30 2187 H 215.383 1.7306 -5.86396 0
M  V30 2188 H 219.557 1.45157 -6.81104 0
M  V30 2189 H 217.184 1.26348 -7.49627 0
M  V30 2190 N 218.759 1.29093 0.90403 0
M  V30 2191 C 219.989 1.19516 1.68522 0
M  V30 2192 C 220.397 -0.24738 1.87576 0
M  V30 2193 O 219.74 -1.17798 1.40959 0
M  V30 2194 C 219.802 1.83249 3.0929 0
M  V30 2195 C 219.466 3.32531 3.13484 0
M  V30 2196 C 220.463 4.28821 2.93953 0
M  V30 2197 C 218.148 3.73656 3.35688 0
M  V30 2198 C 220.142 5.64212 2.96553 0
M  V30 2199 C 217.829 5.0917 3.37919 0
M  V30 2200 C 218.827 6.04258 3.18373 0
M  V30 2201 O 218.515 7.37298 3.20385 0
M  V30 2202 H 218.247 0.415467 0.533257 0
M  V30 2203 H 220.801 1.70912 1.13922 0
M  V30 2204 H 219.031 1.26358 3.65473 0
M  V30 2205 H 220.72 1.68054 3.69476 0
M  V30 2206 H 221.486 3.98382 2.76616 0
M  V30 2207 H 217.365 3.00101 3.49943 0
M  V30 2208 H 220.909 6.38407 2.81216 0
M  V30 2209 H 216.806 5.39256 3.54787 0
M  V30 2210 H 217.574 7.46048 3.36681 0
M  V30 2211 N 220.237 -1.11381 1.11499 0
M  V30 2212 C 221.185 -2.19522 0.768956 0
M  V30 2213 C 222.179 -1.67693 -0.239857 0
M  V30 2214 O 223.385 -1.79727 -0.0990755 0
M  V30 2215 H 219.76 -0.715711 0.230786 0
M  V30 2216 H 221.731 -2.45954 1.68964 0
M  V30 2217 C 220.48 -3.46945 0.229073 0
M  V30 2218 H 219.803 -3.8718 0.996596 0
M  V30 2219 H 221.243 -4.23993 0.0251441 0
M  V30 2220 C 219.702 -3.2042 -1.04079 0
M  V30 2221 O 220.232 -3.41178 -2.12038 0
M  V30 2222 N 218.438 -2.74151 -0.963823 0
M  V30 2223 H 217.985 -2.57459 -0.0851722 0
M  V30 2224 H 217.943 -2.56781 -1.81414 0
M  V30 2225 N 221.715 -0.905404 -1.28997 0
M  V30 2226 C 222.992 -0.453513 -1.9027 0
M  V30 2227 C 223.372 1.06721 -1.82137 0
M  V30 2228 O 222.72 1.91159 -1.25182 0
M  V30 2229 C 222.93 -0.974494 -3.35119 0
M  V30 2230 C 224.278 -1.0216 -4.12127 0
M  V30 2231 O 225.302 -0.922557 -3.44046 0
M  V30 2232 O 224.161 -1.17121 -5.33802 0
M  V30 2233 H 221.255 -0.142347 -0.814657 0
M  V30 2234 H 223.801 -0.995642 -1.37423 0
M  V30 2235 H 222.573 -2.01848 -3.35221 0
M  V30 2236 H 222.196 -0.412706 -3.95452 0
M  V30 2237 N 223.193 1.4272 -0.668489 0
M  V30 2238 C 224.156 2.292 0.00448567 0
M  V30 2239 C 225.156 1.43001 0.735339 0
M  V30 2240 O 226.346 1.64461 0.57429 0
M  V30 2241 C 223.478 3.25375 1.01705 0
M  V30 2242 H 224.671 2.90199 -0.756608 0
M  V30 2243 H 222.224 1.50254 -0.430506 0
M  V30 2244 H 222.959 2.69301 1.80686 0
M  V30 2245 H 222.744 3.88944 0.496463 0
M  V30 2246 H 224.234 3.90245 1.48655 0
M  V30 2247 N 224.671 0.411399 1.52136 0
M  V30 2248 C 225.917 -0.163888 2.02137 0
M  V30 2249 C 226.25 -1.44597 1.29636 0
M  V30 2250 O 225.525 -1.90272 0.403353 0
M  V30 2251 C 225.808 -0.40927 3.57767 0
M  V30 2252 C 225.661 0.889643 4.40914 0
M  V30 2253 C 226.98 -1.19042 4.23694 0
M  V30 2254 H 224.099 -0.0580896 0.734707 0
M  V30 2255 H 226.741 0.54531 1.82007 0
M  V30 2256 H 224.891 -1.0134 3.7505 0
M  V30 2257 H 226.563 1.52575 4.35337 0
M  V30 2258 H 224.806 1.50011 4.07037 0
M  V30 2259 H 225.477 0.672314 5.4789 0
M  V30 2260 H 227.953 -0.678942 4.10524 0
M  V30 2261 H 226.829 -1.33086 5.32522 0
M  V30 2262 H 227.09 -2.21166 3.82803 0
M  V30 2263 N 226.149 -1.5696 0.141893 0
M  V30 2264 C 227.398 -1.95135 -0.510427 0
M  V30 2265 C 227.711 -1.02896 -1.66348 0
M  V30 2266 O 228.917 -1.30629 -2.38009 0
M  V30 2267 C 227.373 -3.46876 -0.959427 0
M  V30 2268 C 226.981 -4.47691 0.166419 0
M  V30 2269 C 228.725 -3.93927 -1.58183 0
M  V30 2270 C 226.632 -5.90636 -0.300565 0
M  V30 2271 H 225.562 -0.728494 -0.194454 0
M  V30 2272 H 228.213 -1.8211 0.22542 0
M  V30 2273 H 226.595 -3.55215 -1.75038 0
M  V30 2274 H 227.769 -4.51043 0.94325 0
M  V30 2275 H 226.084 -4.10527 0.696905 0
M  V30 2276 H 228.681 -4.98158 -1.94275 0
M  V30 2277 H 229.024 -3.3519 -2.46888 0
M  V30 2278 H 229.557 -3.88484 -0.855863 0
M  V30 2279 H 226.296 -6.5318 0.550989 0
M  V30 2280 H 225.816 -5.90655 -1.04338 0
M  V30 2281 H 227.495 -6.42588 -0.754265 0
M  V30 2282 N 227.627 0.131896 -1.57047 0
M  V30 2283 C 228.904 0.871495 -1.75112 0
M  V30 2284 C 229.284 1.9866 -0.713949 0
M  V30 2285 O 228.632 2.26965 0.264447 0
M  V30 2286 C 228.842 1.40007 -3.19686 0
M  V30 2287 C 230.19 1.85752 -3.81813 0
M  V30 2288 O 231.214 1.49715 -3.23209 0
M  V30 2289 O 230.073 2.5226 -4.84796 0
M  V30 2290 H 227.167 0.412919 -0.716538 0
M  V30 2291 H 229.713 0.116641 -1.69299 0
M  V30 2292 H 228.485 0.599404 -3.86682 0
M  V30 2293 H 228.108 2.218 -3.29986 0
M  V30 2294 N 229.106 1.52395 0.401703 0
M  V30 2295 C 230.517 1.58899 0.980202 0
M  V30 2296 C 230.868 0.434032 1.91339 0
M  V30 2297 O 229.993 -0.444619 2.11783 0
M  V30 2298 C 230.588 2.87994 1.78451 0
M  V30 2299 C 229.147 2.96953 2.31292 0
M  V30 2300 C 228.294 2.53903 1.11483 0
M  V30 2301 H 231.245 1.57657 0.18168 0
M  V30 2302 H 231.266 2.73765 2.64259 0
M  V30 2303 H 230.778 3.72035 1.10506 0
M  V30 2304 H 228.879 2.17422 3.02586 0
M  V30 2305 H 228.992 4.01344 2.61649 0
M  V30 2306 H 227.356 2.07925 1.47104 0
M  V30 2307 H 228.139 3.40326 0.450928 0
M  V30 2308 N 230.584 -0.659388 1.43143 0
M  V30 2309 C 231.814 -1.44513 1.47646 0
M  V30 2310 C 232.222 -1.88981 0.0910095 0
M  V30 2311 O 231.565 -1.59702 -0.907789 0
M  V30 2312 C 231.627 -2.71663 2.35456 0
M  V30 2313 C 231.291 -2.49175 3.83094 0
M  V30 2314 C 232.288 -2.1279 4.74359 0
M  V30 2315 C 229.973 -2.63691 4.27519 0
M  V30 2316 C 231.967 -1.9121 6.08044 0
M  V30 2317 C 229.654 -2.41726 5.61259 0
M  V30 2318 C 230.652 -2.0554 6.51339 0
M  V30 2319 O 230.34 -1.838 7.82606 0
M  V30 2320 H 230.072 -0.45064 0.503884 0
M  V30 2321 H 232.626 -0.816248 1.88485 0
M  V30 2322 H 230.856 -3.37089 1.89493 0
M  V30 2323 H 232.545 -3.33595 2.31235 0
M  V30 2324 H 233.311 -2.01157 4.41317 0
M  V30 2325 H 229.19 -2.90832 3.57684 0
M  V30 2326 H 232.734 -1.62889 6.78316 0
M  V30 2327 H 228.631 -2.52959 5.9387 0
M  V30 2328 H 229.399 -1.98275 7.94122 0
M  V30 2329 N 232.062 -1.29571 -0.897171 0
M  V30 2330 C 232.995 -1.0924 -2.00354 0
M  V30 2331 C 233.973 -0.00354011 -1.626 0
M  V30 2332 O 235.157 -0.15473 -1.87864 0
M  V30 2333 C 232.284 -0.66352 -3.32137 0
M  V30 2334 C 231.33 -1.75146 -3.88878 0
M  V30 2335 S 232.163 -3.35124 -4.17674 0
M  V30 2336 C 233.319 -2.9411 -5.52494 0
M  V30 2337 H 233.552 -2.02907 -2.17292 0
M  V30 2338 H 231.085 -1.13746 -1.04408 0
M  V30 2339 H 233.043 -0.422791 -4.08317 0
M  V30 2340 H 231.704 0.253588 -3.13075 0
M  V30 2341 H 230.897 -1.40337 -4.84068 0
M  V30 2342 H 230.499 -1.94584 -3.19395 0
M  V30 2343 H 232.791 -2.41312 -6.33068 0
M  V30 2344 H 233.734 -3.88161 -5.9223 0
M  V30 2345 H 234.142 -2.32332 -5.14473 0
M  V30 2346 N 233.54 1.10788 -1.12088 0
M  V30 2347 C 234.47 2.19083 -0.807755 0
M  V30 2348 C 235.451 1.6858 0.226859 0
M  V30 2349 O 236.636 1.93997 0.0888475 0
M  V30 2350 C 233.766 3.46344 -0.257576 0
M  V30 2351 C 232.72 4.101 -1.22483 0
M  V30 2352 C 232.046 5.32016 -0.535052 0
M  V30 2353 C 233.346 4.54236 -2.57811 0
M  V30 2354 H 235.04 2.45534 -1.71328 0
M  V30 2355 H 232.586 1.1801 -0.825205 0
M  V30 2356 H 234.539 4.21392 -0.0262679 0
M  V30 2357 H 233.263 3.19373 0.683278 0
M  V30 2358 H 231.922 3.37054 -1.44189 0
M  V30 2359 H 231.57 5.01319 0.410827 0
M  V30 2360 H 231.27 5.75625 -1.18024 0
M  V30 2361 H 232.794 6.09799 -0.312695 0
M  V30 2362 H 234.208 5.20575 -2.40155 0
M  V30 2363 H 232.605 5.08682 -3.18375 0
M  V30 2364 H 233.675 3.6734 -3.16528 0
M  V30 2365 N 235.018 0.912232 1.28515 0
M  V30 2366 C 235.928 0.404506 2.31086 0
M  V30 2367 C 236.944 -0.50707 1.66448 0
M  V30 2368 O 238.12 -0.393624 1.97516 0
M  V30 2369 C 235.185 -0.348572 3.44943 0
M  V30 2370 C 234.246 0.59604 4.25142 0
M  V30 2371 C 233.479 -0.121194 5.33562 0
M  V30 2372 O 233.702 -1.34317 5.5436 0
M  V30 2373 O 232.636 0.542716 5.99448 0
M  V30 2374 H 236.462 1.25579 2.76521 0
M  V30 2375 H 234.047 0.676998 1.33181 0
M  V30 2376 H 235.929 -0.77395 4.14232 0
M  V30 2377 H 234.604 -1.17571 3.01594 0
M  V30 2378 H 233.511 1.07079 3.58448 0
M  V30 2379 H 234.844 1.38995 4.72167 0
M  V30 2380 N 236.496 -1.42363 0.676048 0
M  V30 2381 C 237.912 -1.55811 0.345718 0
M  V30 2382 C 238.112 -1.65544 -1.14879 0
M  V30 2383 O 237.168 -1.62306 -1.93424 0
M  V30 2384 C 238.481 -2.80746 1.07713 0
M  V30 2385 C 240.029 -2.9452 1.05958 0
M  V30 2386 C 240.504 -4.22318 1.77233 0
M  V30 2387 N 241.995 -4.29233 1.74108 0
M  V30 2388 C 242.73 -5.26935 2.26113 0
M  V30 2389 N 242.226 -6.30783 2.86505 0
M  V30 2390 N 244.019 -5.18741 2.1648 0
M  V30 2391 H 236.17 -1.34289 1.6456 0
M  V30 2392 H 238.433 -0.646506 0.69335 0
M  V30 2393 H 238.139 -2.79696 2.13221 0
M  V30 2394 H 238.013 -3.71676 0.64316 0
M  V30 2395 H 240.4 -2.95097 0.0128255 0
M  V30 2396 H 240.481 -2.04817 1.53244 0
M  V30 2397 H 240.125 -4.22502 2.81877 0
M  V30 2398 H 240.055 -5.10958 1.27396 0
M  V30 2399 H 242.546 -3.54814 1.30059 0
M  V30 2400 H 242.859 -7.01691 3.23805 0
M  V30 2401 H 241.204 -6.31341 2.90575 0
M  V30 2402 H 244.395 -4.36533 1.68987 0
M  V30 2403 H 244.568 -5.94721 2.57316 0
M  V30 2404 N 237.974 -0.419461 -1.51915 0
M  V30 2405 C 238.937 0.389116 -2.25873 0
M  V30 2406 C 239.937 0.964924 -1.28631 0
M  V30 2407 O 241.127 0.842179 -1.52489 0
M  V30 2408 C 238.259 1.54874 -3.03689 0
M  V30 2409 H 239.452 -0.258799 -2.98781 0
M  V30 2410 H 237.005 -0.172209 -1.55348 0
M  V30 2411 H 237.74 2.23323 -2.35154 0
M  V30 2412 H 237.525 1.14223 -3.75094 0
M  V30 2413 H 239.015 2.12046 -3.59759 0
M  V30 2414 N 239.452 1.56882 -0.150215 0
M  V30 2415 C 240.362 2.20494 0.801222 0
M  V30 2416 C 241.378 1.19019 1.26927 0
M  V30 2417 O 242.554 1.51607 1.32579 0
M  V30 2418 C 239.619 2.81659 2.02161 0
M  V30 2419 C 238.68 3.9827 1.60249 0
M  V30 2420 C 237.913 4.56508 2.7647 0
M  V30 2421 O 238.136 4.13627 3.92771 0
M  V30 2422 O 237.07 5.46719 2.51757 0
M  V30 2423 H 240.896 3.02315 0.289717 0
M  V30 2424 H 238.481 1.49202 0.0769684 0
M  V30 2425 H 240.363 3.20522 2.73576 0
M  V30 2426 H 239.038 2.02849 2.52258 0
M  V30 2427 H 237.945 3.64117 0.858477 0
M  V30 2428 H 239.278 4.78609 1.14864 0
M  V30 2429 N 240.93 -0.123565 1.57115 0
M  V30 2430 C 242.179 -0.830704 1.83799 0
M  V30 2431 C 242.492 -1.81259 0.735158 0
M  V30 2432 O 243.698 -2.56558 0.888278 0
M  V30 2433 C 242.154 -1.52802 3.25852 0
M  V30 2434 C 241.762 -0.587356 4.44133 0
M  V30 2435 C 243.506 -2.22056 3.61789 0
M  V30 2436 C 241.413 -1.28764 5.77212 0
M  V30 2437 H 240.343 -0.313967 0.685522 0
M  V30 2438 H 242.994 -0.0834359 1.8331 0
M  V30 2439 H 241.376 -2.32175 3.20797 0
M  V30 2440 H 242.55 0.172829 4.60476 0
M  V30 2441 H 240.865 -0.00201892 4.164 0
M  V30 2442 H 243.462 -2.75131 4.58483 0
M  V30 2443 H 243.805 -2.99644 2.88997 0
M  V30 2444 H 244.338 -1.49576 3.68608 0
M  V30 2445 H 241.077 -0.55314 6.53162 0
M  V30 2446 H 240.597 -2.01995 5.64764 0
M  V30 2447 H 242.276 -1.8221 6.20813 0
M  V30 2448 N 242.408 -1.52605 -0.393616 0
M  V30 2449 C 243.341 -1.71798 -1.50202 0
M  V30 2450 C 244.319 -0.565743 -1.52441 0
M  V30 2451 O 245.503 -0.794987 -1.70916 0
M  V30 2452 C 242.63 -1.7714 -2.88685 0
M  V30 2453 C 241.676 -2.98845 -3.04292 0
M  V30 2454 S 242.509 -4.58909 -2.75976 0
M  V30 2455 C 243.665 -4.6706 -4.1666 0
M  V30 2456 H 243.898 -2.65542 -1.33696 0
M  V30 2457 H 241.431 -1.42839 -0.586195 0
M  V30 2458 H 243.389 -1.80903 -3.68489 0
M  V30 2459 H 242.05 -0.844969 -3.02521 0
M  V30 2460 H 241.243 -2.99111 -4.05646 0
M  V30 2461 H 240.845 -2.9305 -2.32374 0
M  V30 2462 H 243.137 -4.45391 -5.10523 0
M  V30 2463 H 244.08 -5.6905 -4.21412 0
M  V30 2464 H 244.488 -3.95944 -4.02354 0
M  V30 2465 N 243.887 0.651787 -1.4349 0
M  V30 2466 C 245.303 0.96762 -1.26922 0
M  V30 2467 C 245.503 2.00602 -0.189982 0
M  V30 2468 O 244.559 2.48793 0.431107 0
M  V30 2469 C 245.872 1.45052 -2.63401 0
M  V30 2470 C 247.42 1.5671 -2.70945 0
M  V30 2471 C 247.895 2.0839 -4.07845 0
M  V30 2472 N 249.386 2.1569 -4.09917 0
M  V30 2473 C 250.121 2.56804 -5.12679 0
M  V30 2474 N 249.617 2.97203 -6.25813 0
M  V30 2475 N 251.41 2.56756 -5.00033 0
M  V30 2476 H 243.561 -0.0353158 -2.12371 0
M  V30 2477 H 245.824 0.0467858 -0.946845 0
M  V30 2478 H 245.53 0.761926 -3.43348 0
M  V30 2479 H 245.404 2.42529 -2.88894 0
M  V30 2480 H 247.791 2.2467 -1.9133 0
M  V30 2481 H 247.872 0.57662 -2.49216 0
M  V30 2482 H 247.516 1.41031 -4.87927 0
M  V30 2483 H 247.446 3.08271 -4.26938 0
M  V30 2484 H 249.937 1.87237 -3.28254 0
M  V30 2485 H 250.25 3.27328 -7.00055 0
M  V30 2486 H 248.595 2.95004 -6.29283 0
M  V30 2487 H 251.786 2.24572 -4.10713 0
M  V30 2488 H 251.959 2.88475 -5.80247 0
M  V30 2489 N 245.365 1.30045 0.890287 0
M  V30 2490 C 246.613 1.18327 1.63839 0
M  V30 2491 C 246.934 -0.263455 1.93212 0
M  V30 2492 O 246.204 -1.17856 1.56482 0
M  V30 2493 H 244.784 0.434933 0.607324 0
M  V30 2494 H 247.446 1.631 1.06698 0
M  V30 2495 H 246.542 1.74024 2.59079 0
M  V30 2496 N 246.843 -1.10192 1.12674 0
M  V30 2497 C 248.254 -1.63707 0.897604 0
M  V30 2498 C 248.605 -1.87812 -0.567546 0
M  V30 2499 O 247.73 -1.62196 -1.43253 0
M  V30 2500 C 248.325 -2.974 1.62292 0
M  V30 2501 C 246.884 -3.47772 1.43986 0
M  V30 2502 C 246.031 -2.22332 1.65722 0
M  V30 2503 H 248.982 -0.936587 1.28116 0
M  V30 2504 H 249.003 -3.64986 1.07541 0
M  V30 2505 H 248.515 -2.79824 2.68924 0
M  V30 2506 H 246.616 -3.70487 0.396206 0
M  V30 2507 H 246.729 -4.25723 2.19765 0
M  V30 2508 H 245.093 -2.30599 1.08149 0
M  V30 2509 H 245.876 -2.07285 2.73657 0
M  V30 2510 N 248.321 -0.919034 -1.28029 0
M  V30 2511 C 249.567 -0.555757 -1.95036 0
M  V30 2512 C 249.9 0.899198 -1.72128 0
M  V30 2513 O 249.175 1.64023 -1.04531 0
M  V30 2514 C 249.458 -0.872024 -3.49382 0
M  V30 2515 C 249.311 -2.3801 -3.81669 0
M  V30 2516 C 250.63 -0.37185 -4.38526 0
M  V30 2517 H 247.749 -0.203386 -0.708381 0
M  V30 2518 H 250.391 -1.14924 -1.51303 0
M  V30 2519 H 248.541 -0.366946 -3.86763 0
M  V30 2520 H 250.213 -2.9562 -3.54128 0
M  V30 2521 H 248.456 -2.83289 -3.28526 0
M  V30 2522 H 249.127 -2.55192 -4.8947 0
M  V30 2523 H 251.603 -0.804602 -4.08247 0
M  V30 2524 H 250.479 -0.622173 -5.45362 0
M  V30 2525 H 250.74 0.727934 -4.36066 0
M  V30 2526 N 249.799 1.42003 -0.683588 0
M  V30 2527 C 251.024 2.06265 -0.216647 0
M  V30 2528 C 251.449 1.51059 1.12083 0
M  V30 2529 O 250.807 0.632638 1.69904 0
M  V30 2530 C 250.855 3.60191 -0.171759 0
M  V30 2531 O 249.959 4.03396 0.857069 0
M  V30 2532 H 249.3 0.65502 -0.108834 0
M  V30 2533 H 251.83 1.81982 -0.935077 0
M  V30 2534 H 251.84 4.08 0.0014303 0
M  V30 2535 H 250.515 3.99743 -1.14796 0
M  V30 2536 H 249.092 3.67117 0.654208 0
M  V30 2537 N 251.277 0.427512 1.51691 0
M  V30 2538 C 252.523 -0.142439 2.02299 0
M  V30 2539 C 252.856 -1.43214 1.31162 0
M  V30 2540 O 252.131 -1.89833 0.423511 0
M  V30 2541 C 252.414 -0.371301 3.58181 0
M  V30 2542 C 252.267 0.936358 4.39946 0
M  V30 2543 C 253.586 -1.14542 4.24933 0
M  V30 2544 H 250.705 -0.0502937 0.735282 0
M  V30 2545 H 253.347 0.564584 1.81418 0
M  V30 2546 H 251.497 -0.973559 3.76104 0
M  V30 2547 H 253.169 1.57184 4.33694 0
M  V30 2548 H 251.412 1.5432 4.05423 0
M  V30 2549 H 252.083 0.730388 5.47147 0
M  V30 2550 H 254.559 -0.635362 4.11221 0
M  V30 2551 H 253.435 -1.27431 5.33903 0
M  V30 2552 H 253.696 -2.17093 3.85127 0
M  V30 2553 N 252.755 -1.56801 0.158532 0
M  V30 2554 C 253.685 -2.20347 -0.772609 0
M  V30 2555 C 254.666 -1.15518 -1.24859 0
M  V30 2556 O 255.851 -1.43902 -1.30406 0
M  V30 2557 C 252.981 -2.83417 -2.00729 0
M  V30 2558 C 251.935 -3.94174 -1.66765 0
M  V30 2559 C 251.261 -4.44233 -2.97592 0
M  V30 2560 C 252.561 -5.14392 -0.905447 0
M  V30 2561 H 254.255 -2.98413 -0.242959 0
M  V30 2562 H 251.801 -1.43537 -0.115419 0
M  V30 2563 H 253.754 -3.26543 -2.6636 0
M  V30 2564 H 252.478 -2.02701 -2.56086 0
M  V30 2565 H 251.137 -3.51684 -1.03508 0
M  V30 2566 H 250.785 -3.60325 -3.50963 0
M  V30 2567 H 250.485 -5.18945 -2.75626 0
M  V30 2568 H 252.009 -4.90037 -3.64274 0
M  V30 2569 H 253.423 -5.5429 -1.46408 0
M  V30 2570 H 251.82 -5.9494 -0.7853 0
M  V30 2571 H 252.89 -4.84795 0.100668 0
M  V30 2572 N 254.233 0.115231 -1.57178 0
M  V30 2573 C 255.463 0.835224 -1.88964 0
M  V30 2574 C 255.871 1.73774 -0.74829 0
M  V30 2575 O 255.214 1.81401 0.289739 0
M  V30 2576 C 255.276 1.7178 -3.15804 0
M  V30 2577 C 254.94 0.989198 -4.46166 0
M  V30 2578 C 255.937 0.328263 -5.18863 0
M  V30 2579 C 253.622 0.969256 -4.9286 0
M  V30 2580 C 255.616 -0.342873 -6.36477 0
M  V30 2581 C 253.303 0.294324 -6.10391 0
M  V30 2582 C 254.301 -0.360582 -6.82048 0
M  V30 2583 O 253.989 -1.02474 -7.97342 0
M  V30 2584 H 253.721 0.245197 -0.629964 0
M  V30 2585 H 256.275 0.10303 -2.05141 0
M  V30 2586 H 254.505 2.49173 -2.95719 0
M  V30 2587 H 256.194 2.31255 -3.33581 0
M  V30 2588 H 256.96 0.335263 -4.8384 0
M  V30 2589 H 252.839 1.46844 -4.36987 0
M  V30 2590 H 256.383 -0.854629 -6.92345 0
M  V30 2591 H 252.28 0.285099 -6.4487 0
M  V30 2592 H 253.048 -0.929594 -8.13204 0
M  V30 2593 N 255.711 1.52812 0.385517 0
M  V30 2594 C 256.959 1.67694 1.12797 0
M  V30 2595 C 257.28 0.421115 1.90399 0
M  V30 2596 O 256.55 -0.564551 1.87589 0
M  V30 2597 H 255.13 0.618155 0.419396 0
M  V30 2598 H 257.792 1.89938 0.436972 0
M  V30 2599 H 256.888 2.52896 1.82894 0
M  V30 2600 N 257.189 -0.644168 1.43834 0
M  V30 2601 C 258.136 -1.75671 1.49694 0
M  V30 2602 C 259.106 -1.6246 0.345809 0
M  V30 2603 O 260.291 -1.82573 0.554234 0
M  V30 2604 C 257.431 -3.13867 1.43463 0
M  V30 2605 C 256.544 -3.38147 2.6885 0
M  V30 2606 C 255.679 -4.66241 2.54544 0
M  V30 2607 C 254.718 -4.83657 3.75157 0
M  V30 2608 N 253.855 -6.03016 3.59605 0
M  V30 2609 H 258.695 -1.69998 2.44754 0
M  V30 2610 H 256.232 -0.829458 1.21484 0
M  V30 2611 H 258.19 -3.9377 1.37843 0
M  V30 2612 H 256.82 -3.18588 0.519783 0
M  V30 2613 H 255.872 -2.52276 2.84712 0
M  V30 2614 H 257.184 -3.46899 3.58417 0
M  V30 2615 H 256.338 -5.54285 2.46683 0
M  V30 2616 H 255.077 -4.59826 1.62516 0
M  V30 2617 H 254.082 -3.94046 3.83416 0
M  V30 2618 H 255.307 -4.91896 4.68204 0
M  V30 2619 H 253.253 -5.97715 2.7032 0
M  V30 2620 H 253.17 -6.12766 4.42779 0
M  V30 2621 H 254.438 -6.93657 3.55613 0
M  V30 2622 N 258.668 -1.30515 -0.883378 0
M  V30 2623 C 259.893 -1.22487 -1.67367 0
M  V30 2624 C 260.318 0.208767 -1.86938 0
M  V30 2625 O 259.676 1.15015 -1.40148 0
M  V30 2626 C 259.724 -1.96041 -3.02655 0
M  V30 2627 O 258.828 -1.28859 -3.91751 0
M  V30 2628 H 258.169 -0.423573 -0.511353 0
M  V30 2629 H 260.699 -1.72362 -1.10239 0
M  V30 2630 H 260.709 -2.05124 -3.52687 0
M  V30 2631 H 259.384 -3.00307 -2.8773 0
M  V30 2632 H 257.961 -1.28141 -3.50192 0
M  V30 2633 N 260.146 1.09593 -1.13257 0
M  V30 2634 C 261.371 1.8604 -0.916732 0
M  V30 2635 C 261.796 1.80504 0.529146 0
M  V30 2636 O 261.154 1.18127 1.37534 0
M  V30 2637 C 261.202 3.32017 -1.40703 0
M  V30 2638 O 260.306 4.08141 -0.591153 0
M  V30 2639 H 259.647 0.576943 -0.328683 0
M  V30 2640 H 262.177 1.38405 -1.50682 0
M  V30 2641 H 262.187 3.82865 -1.4099 0
M  V30 2642 H 260.862 3.35361 -2.45979 0
M  V30 2643 H 259.439 3.67084 -0.656005 0
M  V30 2644 N 261.624 0.925811 1.2754 0
M  V30 2645 C 263.035 0.610102 1.7645 0
M  V30 2646 C 263.386 -0.874723 1.75622 0
M  V30 2647 O 262.511 -1.68444 1.35851 0
M  V30 2648 C 263.106 1.10073 3.20421 0
M  V30 2649 C 261.665 0.835723 3.67005 0
M  V30 2650 C 260.812 1.26054 2.46993 0
M  V30 2651 H 263.763 1.10579 1.13833 0
M  V30 2652 H 263.784 0.447557 3.77859 0
M  V30 2653 H 263.296 2.18143 3.20991 0
M  V30 2654 H 261.397 -0.231249 3.71882 0
M  V30 2655 H 261.51 1.45193 4.56569 0
M  V30 2656 H 259.874 0.679111 2.45479 0
M  V30 2657 H 260.657 2.34984 2.50275 0
M  V30 2658 N 263.102 -1.41638 0.69111 0
M  V30 2659 C 264.35 -2.00902 0.219758 0
M  V30 2660 C 264.671 -1.54994 -1.18329 0
M  V30 2661 O 263.941 -0.778628 -1.79762 0
M  V30 2662 H 262.521 -0.74289 0.0782558 0
M  V30 2663 H 265.183 -1.73327 0.891271 0
M  V30 2664 H 264.279 -3.11224 0.233708 0
M  V30 2665 N 264.58 -0.43555 -1.51462 0
M  V30 2666 C 265.828 0.131254 -2.01673 0
M  V30 2667 C 266.149 1.43368 -1.32177 0
M  V30 2668 O 265.419 1.90524 -0.455769 0
M  V30 2669 H 263.999 0.0514954 -0.745223 0
M  V30 2670 H 266.661 -0.577847 -1.86137 0
M  V30 2671 H 265.757 0.308446 -3.10572 0
M  V30 2672 N 266.058 1.56714 -0.166846 0
M  V30 2673 C 266.988 2.20754 0.760913 0
M  V30 2674 C 267.969 1.16178 1.24244 0
M  V30 2675 O 269.154 1.44592 1.29641 0
M  V30 2676 C 266.284 2.84478 1.99223 0
M  V30 2677 C 265.238 3.95053 1.64672 0
M  V30 2678 C 264.564 4.45805 2.95232 0
M  V30 2679 C 265.864 5.14865 0.878155 0
M  V30 2680 H 267.558 2.98537 0.22713 0
M  V30 2681 H 265.104 1.43596 0.107805 0
M  V30 2682 H 267.057 3.27951 2.64624 0
M  V30 2683 H 265.781 2.04056 2.55007 0
M  V30 2684 H 264.44 3.52228 1.01641 0
M  V30 2685 H 264.088 3.62181 3.49047 0
M  V30 2686 H 263.788 5.204 2.7287 0
M  V30 2687 H 265.312 4.91962 3.6167 0
M  V30 2688 H 266.726 5.55059 1.43466 0
M  V30 2689 H 265.123 5.95348 0.753738 0
M  V30 2690 H 266.193 4.84735 -0.126377 0
M  V30 2691 N 267.536 -0.106894 1.57237 0
M  V30 2692 C 268.466 -1.13148 2.04254 0
M  V30 2693 C 269.447 -1.42476 0.929224 0
M  V30 2694 O 270.632 -1.52709 1.19973 0
M  V30 2695 C 267.762 -2.4545 2.45706 0
M  V30 2696 C 266.716 -2.30558 3.60592 0
M  V30 2697 C 266.042 -3.67931 3.87983 0
M  V30 2698 C 267.342 -1.75597 4.91897 0
M  V30 2699 H 269.036 -0.740374 2.90101 0
M  V30 2700 H 266.582 -0.354696 1.39563 0
M  V30 2701 H 268.535 -3.17389 2.77205 0
M  V30 2702 H 267.259 -2.86475 1.56843 0
M  V30 2703 H 265.918 -1.61067 3.29322 0
M  V30 2704 H 265.566 -4.06462 2.96306 0
M  V30 2705 H 265.266 -3.58817 4.65322 0
M  V30 2706 H 266.79 -4.41356 4.21945 0
M  V30 2707 H 268.204 -2.37364 5.21854 0
M  V30 2708 H 266.601 -1.77272 5.73319 0
M  V30 2709 H 267.671 -0.714451 4.79608 0
M  V30 2710 N 269.014 -1.53014 -0.377408 0
M  V30 2711 C 269.962 -1.7927 -1.48206 0
M  V30 2712 C 270.956 -0.661195 -1.55963 0
M  V30 2713 O 272.162 -0.843908 -1.58991 0
M  V30 2714 H 268.537 -0.567425 -0.493491 0
M  V30 2715 H 270.508 -2.71753 -1.2326 0
M  V30 2716 C 269.257 -1.98894 -2.85196 0
M  V30 2717 H 268.58 -2.85395 -2.79981 0
M  V30 2718 H 270.02 -2.21249 -3.61698 0
M  V30 2719 C 268.479 -0.764691 -3.28107 0
M  V30 2720 O 269.009 0.0523226 -4.01666 0
M  V30 2721 N 267.215 -0.591493 -2.84517 0
M  V30 2722 H 266.762 -1.25749 -2.24822 0
M  V30 2723 H 266.72 0.226253 -3.13585 0
M  V30 2724 N 270.492 0.636531 -1.44174 0
M  V30 2725 C 271.425 1.76139 -1.45087 0
M  V30 2726 C 272.403 1.59611 -0.310326 0
M  V30 2727 O 273.587 1.81568 -0.506477 0
M  V30 2728 C 270.714 3.13648 -1.27839 0
M  V30 2729 C 269.76 3.48838 -2.45386 0
M  V30 2730 S 270.593 3.46927 -4.07924 0
M  V30 2731 C 271.749 4.87064 -3.9309 0
M  V30 2732 H 271.982 1.75096 -2.40268 0
M  V30 2733 H 269.515 0.810666 -1.31406 0
M  V30 2734 H 271.473 3.93002 -1.18575 0
M  V30 2735 H 270.134 3.12235 -0.341787 0
M  V30 2736 H 269.327 4.48886 -2.29167 0
M  V30 2737 H 268.929 2.76935 -2.51362 0
M  V30 2738 H 271.221 5.76153 -3.56446 0
M  V30 2739 H 272.164 5.08337 -4.92949 0
M  V30 2740 H 272.572 4.61384 -3.25246 0
M  V30 2741 N 271.97 1.30982 0.876444 0
M  V30 2742 C 273.216 1.20474 1.63138 0
M  V30 2743 C 273.549 -0.238096 1.92735 0
M  V30 2744 O 272.824 -1.1692 1.55435 0
M  V30 2745 C 273.107 2.04244 2.96574 0
M  V30 2746 C 272.96 3.56793 2.73896 0
M  V30 2747 C 274.279 1.88684 3.97601 0
M  V30 2748 H 271.398 0.439001 0.591985 0
M  V30 2749 H 274.04 1.60704 1.01361 0
M  V30 2750 H 272.19 1.70063 3.493 0
M  V30 2751 H 273.862 4.01077 2.27892 0
M  V30 2752 H 272.105 3.80548 2.08245 0
M  V30 2753 H 272.776 4.10706 3.68815 0
M  V30 2754 H 275.252 2.18584 3.54062 0
M  V30 2755 H 274.128 2.4961 4.88862 0
M  V30 2756 H 274.389 0.848343 4.33884 0
M  V30 2757 N 273.449 -1.08991 1.13837 0
M  V30 2758 C 274.674 -1.85551 0.926585 0
M  V30 2759 C 275.099 -1.80782 -0.519566 0
M  V30 2760 O 274.457 -1.18855 -1.36906 0
M  V30 2761 C 274.505 -3.31266 1.42462 0
M  V30 2762 O 273.609 -4.07822 0.612789 0
M  V30 2763 H 272.95 -0.575192 0.331738 0
M  V30 2764 H 275.48 -1.37604 1.51414 0
M  V30 2765 H 275.49 -3.82112 1.43019 0
M  V30 2766 H 274.165 -3.34052 2.47754 0
M  V30 2767 H 272.742 -3.66731 0.675463 0
M  V30 2768 N 274.927 -0.932562 -1.27047 0
M  V30 2769 C 275.874 -0.434072 -2.26681 0
M  V30 2770 C 276.844 0.501639 -1.58344 0
M  V30 2771 O 278.029 0.419734 -1.86126 0
M  V30 2772 C 275.169 0.30261 -3.43771 0
M  V30 2773 C 274.282 -0.667774 -4.26808 0
M  V30 2774 C 273.417 0.0892393 -5.31125 0
M  V30 2775 C 272.456 -0.873532 -6.05835 0
M  V30 2776 N 271.593 -0.148832 -7.01942 0
M  V30 2777 H 276.433 -1.28868 -2.68695 0
M  V30 2778 H 273.97 -0.646713 -1.32121 0
M  V30 2779 H 275.928 0.746092 -4.10474 0
M  V30 2780 H 274.558 1.12142 -3.02695 0
M  V30 2781 H 273.61 -1.22978 -3.59973 0
M  V30 2782 H 274.922 -1.40337 -4.78651 0
M  V30 2783 H 274.076 0.592409 -6.03801 0
M  V30 2784 H 272.815 0.85777 -4.80097 0
M  V30 2785 H 271.82 -1.38791 -5.31994 0
M  V30 2786 H 273.045 -1.64193 -6.58952 0
M  V30 2787 H 270.991 0.601365 -6.53238 0
M  V30 2788 H 270.908 -0.82391 -7.51497 0
M  V30 2789 H 272.176 0.333527 -7.78786 0
M  V30 2790 N 276.405 1.4127 -0.698611 0
M  V30 2791 C 277.821 1.55241 -0.370462 0
M  V30 2792 C 278.021 1.67351 1.12231 0
M  V30 2793 O 277.077 1.65363 1.90818 0
M  V30 2794 C 278.39 2.78997 -1.12165 0
M  V30 2795 C 279.938 2.92797 -1.1063 0
M  V30 2796 C 280.413 4.19445 -1.8393 0
M  V30 2797 N 281.904 4.26409 -1.80914 0
M  V30 2798 C 282.639 5.23271 -2.34467 0
M  V30 2799 N 282.135 6.26145 -2.96504 0
M  V30 2800 N 283.928 5.15232 -2.24706 0
M  V30 2801 H 276.079 1.31654 -1.66676 0
M  V30 2802 H 278.342 0.635393 -0.703548 0
M  V30 2803 H 278.048 2.76268 -2.17644 0
M  V30 2804 H 277.922 3.70606 -0.702209 0
M  V30 2805 H 280.309 2.95039 -0.0597713 0
M  V30 2806 H 280.39 2.02353 -1.56483 0
M  V30 2807 H 280.034 4.17964 -2.88563 0
M  V30 2808 H 279.964 5.08866 -1.35509 0
M  V30 2809 H 282.455 3.527 -1.35687 0
M  V30 2810 H 282.768 6.96451 -3.34927 0
M  V30 2811 H 281.113 6.26638 -3.00583 0
M  V30 2812 H 284.304 4.33789 -1.7591 0
M  V30 2813 H 284.477 5.90552 -2.66745 0
M  V30 2814 N 277.883 0.443576 1.51229 0
M  V30 2815 C 279.294 -0.0180867 1.86691 0
M  V30 2816 C 279.645 -1.41384 1.36033 0
M  V30 2817 O 278.77 -2.04291 0.713722 0
M  V30 2818 C 279.365 -0.039597 3.38777 0
M  V30 2819 C 277.924 -0.445692 3.73752 0
M  V30 2820 C 277.071 0.357584 2.74985 0
M  V30 2821 H 280.022 0.659138 1.44364 0
M  V30 2822 H 280.043 -0.847761 3.70936 0
M  V30 2823 H 279.555 0.976382 3.75617 0
M  V30 2824 H 277.656 -1.46704 3.42503 0
M  V30 2825 H 277.769 -0.166155 4.78812 0
M  V30 2826 H 276.133 -0.184973 2.54027 0
M  V30 2827 H 276.916 1.37256 3.14668 0
M  V30 2828 N 279.361 -1.56624 0.175154 0
M  V30 2829 C 280.589 -2.01374 -0.474971 0
M  V30 2830 C 281.004 -1.05537 -1.56548 0
M  V30 2831 O 280.361 -0.0568668 -1.82411 0
M  V30 2832 C 280.412 -3.45923 -1.04975 0
M  V30 2833 O 280.133 -4.381 -0.00276605 0
M  V30 2834 C 281.634 -4.06093 -1.77773 0
M  V30 2835 H 278.854 -0.659962 -0.121206 0
M  V30 2836 H 281.398 -2.02601 0.27801 0
M  V30 2837 H 279.553 -3.45458 -1.75321 0
M  V30 2838 H 279.967 -5.22753 -0.427681 0
M  V30 2839 H 281.441 -5.09147 -2.13245 0
M  V30 2840 H 281.918 -3.48405 -2.67414 0
M  V30 2841 H 282.524 -4.10272 -1.12059 0
M  V30 2842 N 280.839 0.0985539 -1.57292 0
M  V30 2843 C 282.067 0.816318 -1.90115 0
M  V30 2844 C 282.482 1.72451 -0.768509 0
M  V30 2845 O 281.839 1.80643 0.259687 0
M  V30 2846 C 281.89 1.63259 -3.22535 0
M  V30 2847 O 281.611 0.760934 -4.31441 0
M  V30 2848 C 283.112 2.45372 -3.69199 0
M  V30 2849 H 280.332 0.233595 -0.629027 0
M  V30 2850 H 282.876 0.0768229 -2.04356 0
M  V30 2851 H 281.031 2.32463 -3.09903 0
M  V30 2852 H 281.445 1.32595 -5.07463 0
M  V30 2853 H 282.919 2.98144 -4.64558 0
M  V30 2854 H 283.396 3.23677 -2.96867 0
M  V30 2855 H 284.002 1.81373 -3.84687 0
M  V30 2856 N 282.317 1.53212 0.369288 0
M  V30 2857 C 283.227 1.82342 1.47609 0
M  V30 2858 C 284.243 0.711532 1.58787 0
M  V30 2859 O 285.419 1.0012 1.74751 0
M  V30 2860 C 282.484 2.00393 2.8292 0
M  V30 2861 C 281.545 3.24297 2.81301 0
M  V30 2862 C 280.778 3.41478 4.10157 0
M  V30 2863 O 281.001 2.63033 5.06132 0
M  V30 2864 O 279.935 4.34817 4.16194 0
M  V30 2865 H 283.761 2.76366 1.25918 0
M  V30 2866 H 281.346 1.38547 0.559034 0
M  V30 2867 H 283.228 2.13859 3.63101 0
M  V30 2868 H 281.903 1.09559 3.04596 0
M  V30 2869 H 280.81 3.16257 1.99831 0
M  V30 2870 H 282.143 4.15041 2.64578 0
M  V30 2871 N 283.795 -0.628877 1.44509 0
M  V30 2872 C 285.206 -1.21054 1.42137 0
M  V30 2873 C 285.557 -1.95715 0.137881 0
M  V30 2874 O 284.682 -2.02554 -0.761645 0
M  V30 2875 C 285.277 -2.20189 2.57493 0
M  V30 2876 C 283.836 -2.73777 2.58308 0
M  V30 2877 C 282.983 -1.48813 2.33987 0
M  V30 2878 H 285.934 -0.41942 1.53057 0
M  V30 2879 H 285.955 -3.02833 2.30375 0
M  V30 2880 H 285.467 -1.6582 3.50892 0
M  V30 2881 H 283.568 -3.32142 1.68856 0
M  V30 2882 H 283.681 -3.19662 3.56865 0
M  V30 2883 H 282.045 -1.77024 1.83124 0
M  V30 2884 H 282.828 -0.963442 3.29504 0
M  V30 2885 N 285.273 -1.31445 -0.869486 0
M  V30 2886 C 286.203 -1.21727 -1.99261 0
M  V30 2887 C 287.184 -0.104359 -1.6978 0
M  V30 2888 O 288.369 -0.289038 -1.92037 0
M  V30 2889 C 285.499 -0.924317 -3.34774 0
M  V30 2890 C 284.453 -1.99685 -3.78563 0
M  V30 2891 C 283.779 -1.55658 -5.11541 0
M  V30 2892 C 285.079 -3.41003 -3.95619 0
M  V30 2893 H 286.773 -2.1569 -2.07649 0
M  V30 2894 H 284.319 -1.03839 -0.997675 0
M  V30 2895 H 286.272 -0.842934 -4.12883 0
M  V30 2896 H 284.996 0.0509793 -3.2656 0
M  V30 2897 H 283.655 -2.06813 -3.02694 0
M  V30 2898 H 283.303 -0.569132 -4.9977 0
M  V30 2899 H 283.003 -2.27409 -5.41811 0
M  V30 2900 H 284.527 -1.48928 -5.92159 0
M  V30 2901 H 285.941 -3.36547 -4.64122 0
M  V30 2902 H 284.338 -4.10975 -4.37286 0
M  V30 2903 H 285.408 -3.81754 -2.98985 0
M  V30 2904 N 286.751 1.08385 -1.14413 0
M  V30 2905 C 287.698 2.15311 -0.831265 0
M  V30 2906 C 288.668 1.64751 0.211292 0
M  V30 2907 O 289.853 1.90627 0.0811674 0
M  V30 2908 C 286.993 3.43658 -0.315143 0
M  V30 2909 C 286.106 4.08064 -1.41802 0
M  V30 2910 C 285.241 5.24207 -0.859126 0
M  V30 2911 C 284.28 5.80554 -1.93967 0
M  V30 2912 N 283.417 6.88042 -1.39793 0
M  V30 2913 H 288.257 2.41415 -1.74708 0
M  V30 2914 H 285.794 1.18474 -0.871909 0
M  V30 2915 H 287.752 4.172 0.00230884 0
M  V30 2916 H 286.382 3.17839 0.56378 0
M  V30 2917 H 285.434 3.3228 -1.85187 0
M  V30 2918 H 286.746 4.45962 -2.23427 0
M  V30 2919 H 285.9 6.04689 -0.49359 0
M  V30 2920 H 284.639 4.87699 -0.011932 0
M  V30 2921 H 283.644 4.98725 -2.31415 0
M  V30 2922 H 284.869 6.19121 -2.79046 0
M  V30 2923 H 282.815 6.53493 -0.572919 0
M  V30 2924 H 282.732 7.24767 -2.15054 0
M  V30 2925 H 284 7.72255 -1.0603 0
M  V30 2926 N 288.23 0.939286 1.26551 0
M  V30 2927 C 289.14 0.453432 2.30176 0
M  V30 2928 C 290.156 -0.471649 1.67486 0
M  V30 2929 O 291.332 -0.35164 1.98306 0
M  V30 2930 C 288.397 -0.275326 3.45605 0
M  V30 2931 C 287.458 0.686084 4.23782 0
M  V30 2932 C 286.691 -0.00798994 5.33699 0
M  V30 2933 O 286.914 -1.22528 5.57085 0
M  V30 2934 O 285.848 0.669746 5.98162 0
M  V30 2935 H 289.674 1.31416 2.73795 0
M  V30 2936 H 287.259 0.705095 1.31715 0
M  V30 2937 H 289.141 -0.685911 4.1578 0
M  V30 2938 H 287.816 -1.11147 3.0402 0
M  V30 2939 H 286.723 1.14658 3.56096 0
M  V30 2940 H 288.056 1.48979 4.69112 0
M  V30 2941 N 289.708 -1.40897 0.706093 0
M  V30 2942 C 290.954 -2.01352 0.241889 0
M  V30 2943 C 291.287 -1.55832 -1.15888 0
M  V30 2944 O 290.562 -0.774145 -1.7843 0
M  V30 2945 C 290.845 -3.58752 0.311311 0
M  V30 2946 C 290.698 -4.1437 1.74978 0
M  V30 2947 C 292.017 -4.38914 -0.322922 0
M  V30 2948 H 289.136 -0.731562 0.0893687 0
M  V30 2949 H 291.778 -1.67504 0.896802 0
M  V30 2950 H 289.928 -3.87718 -0.246302 0
M  V30 2951 H 291.6 -3.96239 2.36205 0
M  V30 2952 H 289.843 -3.69016 2.28057 0
M  V30 2953 H 290.514 -5.23532 1.74981 0
M  V30 2954 H 292.99 -4.15822 0.152089 0
M  V30 2955 H 291.866 -5.48358 -0.243855 0
M  V30 2956 H 292.127 -4.19176 -1.40513 0
M  V30 2957 N 291.186 -0.45159 -1.50991 0
M  V30 2958 C 292.118 0.388634 -2.25881 0
M  V30 2959 C 293.131 0.974041 -1.30446 0
M  V30 2960 O 294.32 0.865758 -1.56099 0
M  V30 2961 C 291.42 1.5571 -3.01011 0
M  V30 2962 C 290.593 1.08801 -4.23652 0
M  V30 2963 C 289.652 2.12825 -4.8124 0
M  V30 2964 O 288.678 1.71678 -5.42693 0
M  V30 2965 N 289.88 3.45453 -4.66522 0
M  V30 2966 H 292.645 -0.25329 -2.98628 0
M  V30 2967 H 290.206 -0.281268 -1.59438 0
M  V30 2968 H 292.198 2.24952 -3.3642 0
M  V30 2969 H 290.768 2.10409 -2.31186 0
M  V30 2970 H 289.988 0.22215 -3.93574 0
M  V30 2971 H 291.276 0.752213 -5.03209 0
M  V30 2972 H 290.674 3.81605 -4.17605 0
M  V30 2973 H 289.231 4.10549 -5.06254 0
M  V30 2974 N 292.664 1.56529 -0.183458 0
M  V30 2975 C 293.911 1.97244 0.458357 0
M  V30 2976 C 294.239 1.06992 1.62428 0
M  V30 2977 O 293.494 0.106542 1.9541 0
M  V30 2978 C 293.793 3.43939 0.971637 0
M  V30 2979 C 293.459 4.5083 -0.0796784 0
M  V30 2980 C 292.121 4.79786 -0.368584 0
M  V30 2981 C 294.473 5.15138 -0.792638 0
M  V30 2982 C 291.801 5.70345 -1.37563 0
M  V30 2983 C 294.153 6.06784 -1.78875 0
M  V30 2984 C 292.817 6.34102 -2.08497 0
M  V30 2985 H 292.087 0.721768 0.167725 0
M  V30 2986 H 294.734 1.89472 -0.277976 0
M  V30 2987 H 293.039 3.48724 1.78602 0
M  V30 2988 H 294.736 3.72791 1.47744 0
M  V30 2989 H 291.326 4.28317 0.155668 0
M  V30 2990 H 295.51 4.92868 -0.582659 0
M  V30 2991 H 290.766 5.89789 -1.61118 0
M  V30 2992 H 294.94 6.55677 -2.3465 0
M  V30 2993 H 292.567 7.04074 -2.86678 0
M  V30 2994 N 294.142 -0.090211 1.57342 0
M  V30 2995 C 295.089 -1.10909 2.02405 0
M  V30 2996 C 296.059 -1.39523 0.901252 0
M  V30 2997 O 297.244 -1.50903 1.1676 0
M  V30 2998 C 294.384 -2.42277 2.45755 0
M  V30 2999 C 293.497 -2.20352 3.71576 0
M  V30 3000 C 292.632 -3.45154 4.03785 0
M  V30 3001 C 291.671 -3.18512 5.22701 0
M  V30 3002 N 290.808 -4.35593 5.50639 0
M  V30 3003 H 295.648 -0.71782 2.89225 0
M  V30 3004 H 293.185 -0.342901 1.43048 0
M  V30 3005 H 295.143 -3.18951 2.68935 0
M  V30 3006 H 293.773 -2.79242 1.61938 0
M  V30 3007 H 292.825 -1.34458 3.55844 0
M  V30 3008 H 294.137 -1.96661 4.58395 0
M  V30 3009 H 293.291 -4.30233 4.27767 0
M  V30 3010 H 292.03 -3.71904 3.15498 0
M  V30 3011 H 291.035 -2.31827 4.98534 0
M  V30 3012 H 292.26 -2.93103 6.12591 0
M  V30 3013 H 290.206 -4.6241 4.6531 0
M  V30 3014 H 290.123 -4.1511 6.31838 0
M  V30 3015 H 291.391 -5.21723 5.7916 0
M  V30 3016 N 295.62 -1.53406 -0.361157 0
M  V30 3017 C 296.583 -1.79479 -1.42548 0
M  V30 3018 C 297.583 -0.665327 -1.4639 0
M  V30 3019 O 298.773 -0.933549 -1.47073 0
M  V30 3020 C 295.905 -1.92087 -2.8163 0
M  V30 3021 H 297.098 -2.74538 -1.20701 0
M  V30 3022 H 294.651 -1.4455 -0.594546 0
M  V30 3023 H 295.386 -0.991099 -3.08784 0
M  V30 3024 H 295.171 -2.74241 -2.80239 0
M  V30 3025 H 296.661 -2.13836 -3.58697 0
M  V30 3026 N 297.098 0.621204 -1.44841 0
M  V30 3027 C 298.346 1.37783 -1.47852 0
M  V30 3028 C 298.667 1.94653 -0.116224 0
M  V30 3029 O 297.937 1.76367 0.852737 0
M  V30 3030 H 296.517 0.511453 -0.544449 0
M  V30 3031 H 299.179 0.730446 -1.80694 0
M  V30 3032 H 298.275 2.20414 -2.20961 0
M  V30 3033 N 298.576 1.31904 0.862503 0
M  V30 3034 C 299.804 1.24998 1.64873 0
M  V30 3035 C 300.219 -0.183425 1.87907 0
M  V30 3036 O 299.576 -1.11794 1.44251 0
M  V30 3037 C 299.627 1.99829 3.01248 0
M  V30 3038 O 299.348 3.37575 2.79239 0
M  V30 3039 C 300.849 1.99852 3.95694 0
M  V30 3040 H 298.069 0.431599 0.513773 0
M  V30 3041 H 300.613 1.73901 1.07604 0
M  V30 3042 H 298.768 1.54668 3.55185 0
M  V30 3043 H 299.182 3.75776 3.65914 0
M  V30 3044 H 300.656 2.56709 4.88676 0
M  V30 3045 H 301.133 0.982852 4.28062 0
M  V30 3046 H 301.739 2.44926 3.47694 0
M  V30 3047 N 300.054 -1.07777 1.14986 0
M  V30 3048 C 301.331 -1.7699 0.832695 0
M  V30 3049 C 301.711 -2.001 -0.672561 0
M  V30 3050 O 301.059 -1.61598 -1.6155 0
M  V30 3051 C 301.269 -3.08139 1.63863 0
M  V30 3052 C 302.617 -3.8256 1.84208 0
M  V30 3053 O 303.641 -3.17939 1.60603 0
M  V30 3054 O 302.5 -4.98612 2.23714 0
M  V30 3055 H 299.594 -0.768389 0.305791 0
M  V30 3056 H 302.14 -1.14182 1.25541 0
M  V30 3057 H 300.912 -2.86909 2.6608 0
M  V30 3058 H 300.535 -3.78678 1.21197 0
M  V30 3059 N 301.532 -0.945985 -1.26051 0
M  V30 3060 C 302.757 -0.612525 -1.98149 0
M  V30 3061 C 303.182 0.806623 -1.69927 0
M  V30 3062 O 302.54 1.54411 -0.950108 0
M  V30 3063 C 302.588 -0.866981 -3.50023 0
M  V30 3064 O 301.692 0.0585333 -4.12358 0
M  V30 3065 H 301.033 -0.23379 -0.621481 0
M  V30 3066 H 303.563 -1.27023 -1.60395 0
M  V30 3067 H 303.573 -0.789792 -4.00283 0
M  V30 3068 H 302.248 -1.90135 -3.69894 0
M  V30 3069 H 300.825 -0.0701241 -3.72834 0
M  V30 3070 N 303.011 1.40521 -0.713556 0
M  V30 3071 C 303.941 2.33381 -0.0743864 0
M  V30 3072 C 304.922 1.52784 0.747735 0
M  V30 3073 O 306.107 1.81258 0.697071 0
M  V30 3074 C 303.237 3.36748 0.849598 0
M  V30 3075 C 302.191 4.27793 0.133247 0
M  V30 3076 C 301.517 5.21679 1.17281 0
M  V30 3077 C 302.817 5.12415 -1.01134 0
M  V30 3078 H 304.511 2.87081 -0.850007 0
M  V30 3079 H 302.057 1.38034 -0.410201 0
M  V30 3080 H 304.01 4.00648 1.30612 0
M  V30 3081 H 302.734 2.81439 1.65709 0
M  V30 3082 H 301.393 3.65342 -0.303426 0
M  V30 3083 H 301.041 4.62677 1.9733 0
M  V30 3084 H 300.741 5.83435 0.698397 0
M  V30 3085 H 302.265 5.88456 1.62947 0
M  V30 3086 H 303.679 5.69781 -0.634274 0
M  V30 3087 H 302.076 5.83203 -1.41399 0
M  V30 3088 H 303.146 4.48514 -1.84292 0
M  V30 3089 N 304.489 0.459591 1.5075 0
M  V30 3090 C 305.736 -0.0993495 2.02256 0
M  V30 3091 C 306.064 -1.40751 1.34237 0
M  V30 3092 O 305.319 -1.90379 0.453228 0
M  V30 3093 C 305.618 -0.342866 3.55752 0
M  V30 3094 C 305.284 0.88218 4.42186 0
M  V30 3095 C 303.946 1.21808 4.65528 0
M  V30 3096 C 306.298 1.69837 4.92752 0
M  V30 3097 C 303.626 2.37045 5.36681 0
M  V30 3098 C 305.978 2.84192 5.65171 0
M  V30 3099 C 304.642 3.1821 5.8677 0
M  V30 3100 H 303.912 -0.0363545 0.740108 0
M  V30 3101 H 306.559 0.611329 1.8148 0
M  V30 3102 H 304.864 -1.13567 3.7498 0
M  V30 3103 H 306.561 -0.789121 3.93159 0
M  V30 3104 H 303.151 0.610467 4.2423 0
M  V30 3105 H 307.335 1.45205 4.74583 0
M  V30 3106 H 302.591 2.63689 5.51614 0
M  V30 3107 H 306.765 3.4779 6.03337 0
M  V30 3108 H 304.392 4.07613 6.41682 0
M  V30 3109 N 305.967 -1.56429 0.191757 0
M  V30 3110 C 306.899 -2.16154 -0.762245 0
M  V30 3111 C 307.912 -1.12247 -1.17917 0
M  V30 3112 O 309.101 -1.39353 -1.11548 0
M  V30 3113 C 306.201 -2.70606 -2.04024 0
M  V30 3114 C 305.374 -3.99381 -1.78364 0
M  V30 3115 C 304.433 -4.38692 -2.90578 0
M  V30 3116 O 303.459 -5.06179 -2.6033 0
M  V30 3117 N 304.661 -4.01922 -4.18854 0
M  V30 3118 H 307.426 -2.98643 -0.251526 0
M  V30 3119 H 304.987 -1.61897 0.00967373 0
M  V30 3120 H 306.979 -2.93891 -2.78227 0
M  V30 3121 H 305.549 -1.9259 -2.46227 0
M  V30 3122 H 304.769 -3.84262 -0.879581 0
M  V30 3123 H 306.057 -4.83445 -1.58614 0
M  V30 3124 H 305.455 -3.47631 -4.46283 0
M  V30 3125 H 304.012 -4.30165 -4.89695 0
M  V30 3126 N 307.445 0.0818655 -1.57387 0
M  V30 3127 C 308.673 0.796108 -1.9097 0
M  V30 3128 C 309.088 1.71626 -0.786757 0
M  V30 3129 O 308.445 1.80908 0.240513 0
M  V30 3130 C 308.496 1.59829 -3.24248 0
M  V30 3131 O 308.217 0.715131 -4.32224 0
M  V30 3132 C 309.718 2.41442 -3.7178 0
M  V30 3133 H 306.938 0.22691 -0.631469 0
M  V30 3134 H 309.482 0.0551439 -2.04426 0
M  V30 3135 H 307.637 2.29163 -3.12351 0
M  V30 3136 H 308.051 1.27205 -5.08841 0
M  V30 3137 H 309.525 2.932 -4.67694 0
M  V30 3138 H 310.002 3.2051 -3.00283 0
M  V30 3139 H 310.608 1.77283 -3.86589 0
M  V30 3140 N 308.923 1.53595 0.353017 0
M  V30 3141 C 310.171 1.70049 1.09215 0
M  V30 3142 C 310.492 0.461406 1.89463 0
M  V30 3143 O 309.762 -0.524633 1.88744 0
M  V30 3144 H 308.342 0.626912 0.40619 0
M  V30 3145 H 311.004 1.90822 0.396585 0
M  V30 3146 H 310.1 2.56718 1.77488 0
M  V30 3147 N 310.401 -0.613514 1.45168 0
M  V30 3148 C 311.648 -1.37268 1.48875 0
M  V30 3149 C 311.976 -1.94077 0.128161 0
M  V30 3150 O 311.231 -1.75178 -0.872416 0
M  V30 3151 C 311.53 -2.54347 2.51083 0
M  V30 3152 C 311.196 -2.1572 3.95949 0
M  V30 3153 C 309.858 -2.04899 4.35396 0
M  V30 3154 C 312.21 -1.85485 4.87078 0
M  V30 3155 C 309.538 -1.62057 5.63875 0
M  V30 3156 C 311.89 -1.4413 6.15962 0
M  V30 3157 C 310.554 -1.31863 6.54346 0
M  V30 3158 H 309.824 -0.502299 0.544773 0
M  V30 3159 H 312.471 -0.694021 1.78481 0
M  V30 3160 H 310.776 -3.27524 2.15024 0
M  V30 3161 H 312.473 -3.12577 2.51191 0
M  V30 3162 H 309.063 -2.25066 3.64751 0
M  V30 3163 H 313.247 -1.92745 4.57343 0
M  V30 3164 H 308.503 -1.51177 5.92415 0
M  V30 3165 H 312.677 -1.19778 6.86022 0
M  V30 3166 H 310.304 -0.984392 7.538 0
M  V30 3167 N 311.879 -1.3236 -0.855495 0
M  V30 3168 C 313.156 -1.13491 -1.59309 0
M  V30 3169 C 313.536 0.30503 -2.08885 0
M  V30 3170 O 312.884 1.30151 -1.87811 0
M  V30 3171 C 313.094 -2.16176 -2.73987 0
M  V30 3172 C 314.442 -2.49463 -3.43589 0
M  V30 3173 O 315.466 -2.14715 -2.84211 0
M  V30 3174 O 314.325 -3.09027 -4.50738 0
M  V30 3175 H 311.419 -0.437887 -0.701559 0
M  V30 3176 H 313.965 -1.43887 -0.899696 0
M  V30 3177 H 312.737 -3.1297 -2.34873 0
M  V30 3178 H 312.36 -1.86769 -3.51003 0
M  V30 3179 N 313.357 1.07166 -1.15556 0
M  V30 3180 C 314.604 1.79798 -0.931604 0
M  V30 3181 C 314.932 1.8682 0.54115 0
M  V30 3182 O 314.187 1.34942 1.41736 0
M  V30 3183 C 314.486 3.24707 -1.49332 0
M  V30 3184 C 314.152 3.37781 -2.98688 0
M  V30 3185 C 312.814 3.41057 -3.39461 0
M  V30 3186 C 315.166 3.40424 -3.94665 0
M  V30 3187 C 312.494 3.4458 -4.74849 0
M  V30 3188 C 314.846 3.45485 -5.29927 0
M  V30 3189 C 313.51 3.47039 -5.70193 0
M  V30 3190 H 312.78 0.657928 -0.340898 0
M  V30 3191 H 315.427 1.26091 -1.44129 0
M  V30 3192 H 313.732 3.81208 -0.904859 0
M  V30 3193 H 315.429 3.79486 -1.29582 0
M  V30 3194 H 312.019 3.35932 -2.66172 0
M  V30 3195 H 316.203 3.37113 -3.64237 0
M  V30 3196 H 311.459 3.44083 -5.05388 0
M  V30 3197 H 315.633 3.46476 -6.04092 0
M  V30 3198 H 313.26 3.49522 -6.75084 0
M  V30 3199 N 314.835 0.952656 1.25548 0
M  V30 3200 C 316.06 0.623025 1.97821 0
M  V30 3201 C 316.485 -0.7976 1.70352 0
M  V30 3202 O 315.843 -1.53905 0.958283 0
M  V30 3203 C 315.891 0.885532 3.49558 0
M  V30 3204 O 314.995 -0.0366641 4.12384 0
M  V30 3205 H 314.336 0.237082 0.620232 0
M  V30 3206 H 316.866 1.27871 1.59719 0
M  V30 3207 H 316.876 0.811009 3.99858 0
M  V30 3208 H 315.551 1.92094 3.6888 0
M  V30 3209 H 314.128 0.0898954 3.72792 0
M  V30 3210 N 316.313 -1.40141 0.720998 0
M  V30 3211 C 317.59 -1.94677 0.189757 0
M  V30 3212 C 317.97 -1.65879 -1.30566 0
M  V30 3213 O 317.318 -0.979391 -2.06447 0
M  V30 3214 C 317.528 -3.45279 0.508304 0
M  V30 3215 C 318.876 -4.22209 0.449934 0
M  V30 3216 O 319.9 -3.53413 0.444677 0
M  V30 3217 O 318.759 -5.44788 0.432189 0
M  V30 3218 H 315.853 -0.826459 0.0299026 0
M  V30 3219 H 318.399 -1.49719 0.7989 0
M  V30 3220 H 317.171 -3.59619 1.54239 0
M  V30 3221 H 316.794 -3.97386 -0.130525 0
M  V30 3222 N 317.792 -0.46758 -1.50504 0
M  V30 3223 C 319.017 0.0886943 -2.0721 0
M  V30 3224 C 319.442 1.33057 -1.32956 0
M  V30 3225 O 318.8 1.77354 -0.376197 0
M  V30 3226 C 318.848 0.359202 -3.58806 0
M  V30 3227 O 317.952 1.44034 -3.8643 0
M  V30 3228 H 317.293 -0.0114349 -0.663902 0
M  V30 3229 H 319.823 -0.657613 -1.93744 0
M  V30 3230 H 319.833 0.600742 -4.03553 0
M  V30 3231 H 318.508 -0.548311 -4.1227 0
M  V30 3232 H 317.085 1.18638 -3.53524 0
M  V30 3233 N 319.27 1.56325 -0.20005 0
M  V30 3234 C 320.2 2.22318 0.713916 0
M  V30 3235 C 321.181 1.18788 1.21752 0
M  V30 3236 O 322.366 1.47309 1.26545 0
M  V30 3237 C 319.496 2.88639 1.93144 0
M  V30 3238 C 318.45 3.98457 1.56255 0
M  V30 3239 C 317.776 4.51967 2.85709 0
M  V30 3240 C 319.076 5.16612 0.768747 0
M  V30 3241 H 320.77 2.98952 0.163755 0
M  V30 3242 H 318.316 1.43792 0.0773219 0
M  V30 3243 H 320.269 3.33491 2.57608 0
M  V30 3244 H 318.993 2.09419 2.50621 0
M  V30 3245 H 317.652 3.54305 0.941471 0
M  V30 3246 H 317.3 3.69503 3.41287 0
M  V30 3247 H 317 5.26071 2.6177 0
M  V30 3248 H 318.524 4.99523 3.51154 0
M  V30 3249 H 319.938 5.57977 1.3166 0
M  V30 3250 H 318.335 5.96812 0.627286 0
M  V30 3251 H 319.405 4.84358 -0.229168 0
M  V30 3252 N 320.748 -0.0735177 1.57428 0
M  V30 3253 C 322.025 -0.805903 1.78226 0
M  V30 3254 C 322.405 -1.95874 0.787189 0
M  V30 3255 O 321.753 -2.2779 -0.180029 0
M  V30 3256 C 321.963 -1.28045 3.24662 0
M  V30 3257 C 323.311 -1.71453 3.88444 0
M  V30 3258 O 324.335 -1.37616 3.28543 0
M  V30 3259 O 323.194 -2.34093 4.93825 0
M  V30 3260 H 320.288 -0.386041 0.73137 0
M  V30 3261 H 322.834 -0.0537269 1.69615 0
M  V30 3262 H 321.606 -0.455476 3.8864 0
M  V30 3263 H 321.229 -2.094 3.37991 0
M  V30 3264 N 322.226 -1.5378 -0.344866 0
M  V30 3265 C 323.503 -1.61589 -1.10219 0
M  V30 3266 C 323.883 -0.436316 -2.06542 0
M  V30 3267 O 323.231 0.571543 -2.21237 0
M  V30 3268 C 323.441 -2.97602 -1.82301 0
M  V30 3269 C 324.789 -3.5291 -2.36093 0
M  V30 3270 O 325.813 -2.99768 -1.924 0
M  V30 3271 O 324.672 -4.45859 -3.16026 0
M  V30 3272 H 321.766 -0.653522 -0.506792 0
M  V30 3273 H 324.312 -1.66126 -0.346465 0
M  V30 3274 H 323.084 -3.74893 -1.12121 0
M  V30 3275 H 322.707 -2.9665 -2.64735 0
M  V30 3276 N 323.704 0.605807 -1.45491 0
M  V30 3277 C 324.981 1.36522 -1.40075 0
M  V30 3278 C 325.361 2.10976 -0.0722744 0
M  V30 3279 O 324.709 2.08007 0.945808 0
M  V30 3280 C 324.919 2.31056 -2.61561 0
M  V30 3281 C 326.267 2.93608 -3.06724 0
M  V30 3282 O 327.291 2.41376 -2.61946 0
M  V30 3283 O 326.15 3.88421 -3.84437 0
M  V30 3284 H 323.244 0.612248 -0.555951 0
M  V30 3285 H 325.79 0.628747 -1.57623 0
M  V30 3286 H 324.562 1.75311 -3.49831 0
M  V30 3287 H 324.185 3.12081 -2.46356 0
M  V30 3288 N 325.182 1.32811 0.848464 0
M  V30 3289 C 326.43 1.23479 1.59991 0
M  V30 3290 C 326.751 -0.201853 1.93952 0
M  V30 3291 O 326.021 -1.12818 1.60153 0
M  V30 3292 H 324.601 0.454034 0.593179 0
M  V30 3293 H 327.263 1.66412 1.01455 0
M  V30 3294 H 326.359 1.82178 2.53412 0
M  V30 3295 N 326.66 -1.06551 1.16123 0
M  V30 3296 C 327.906 -1.79567 0.94252 0
M  V30 3297 C 328.239 -1.86869 -0.528547 0
M  V30 3298 O 327.514 -1.35838 -1.39206 0
M  V30 3299 C 327.797 -3.24195 1.56747 0
M  V30 3300 C 327.65 -3.24989 3.10969 0
M  V30 3301 C 328.969 -4.21678 1.25998 0
M  V30 3302 H 326.088 -0.651883 0.343828 0
M  V30 3303 H 328.73 -1.2463 1.43413 0
M  V30 3304 H 326.88 -3.71107 1.14942 0
M  V30 3305 H 328.552 -2.86258 3.61737 0
M  V30 3306 H 326.795 -2.63716 3.44436 0
M  V30 3307 H 327.466 -4.27005 3.49815 0
M  V30 3308 H 329.942 -3.83196 1.62174 0
M  V30 3309 H 328.818 -5.21146 1.7233 0
M  V30 3310 H 329.079 -4.4174 0.178367 0
M  V30 3311 N 328.138 -0.959301 -1.25041 0
M  V30 3312 C 329.368 -0.63303 -1.96663 0
M  V30 3313 C 329.776 0.800031 -1.71453 0
M  V30 3314 O 329.119 1.54736 -0.99008 0
M  V30 3315 C 329.181 -0.817523 -3.50081 0
M  V30 3316 C 328.845 -2.22863 -3.98975 0
M  V30 3317 C 329.842 -3.20569 -4.09306 0
M  V30 3318 C 327.527 -2.55407 -4.32519 0
M  V30 3319 C 329.521 -4.4891 -4.52503 0
M  V30 3320 C 327.208 -3.83976 -4.754 0
M  V30 3321 C 328.206 -4.8054 -4.85356 0
M  V30 3322 O 327.894 -6.06817 -5.27284 0
M  V30 3323 H 327.626 -0.235866 -0.633516 0
M  V30 3324 H 330.18 -1.2874 -1.60047 0
M  V30 3325 H 328.41 -0.105992 -3.86555 0
M  V30 3326 H 330.099 -0.491604 -4.02912 0
M  V30 3327 H 330.865 -2.96753 -3.83618 0
M  V30 3328 H 326.744 -1.8097 -4.23994 0
M  V30 3329 H 330.288 -5.24283 -4.60188 0
M  V30 3330 H 326.185 -4.07596 -5.00535 0
M  V30 3331 H 326.953 -6.10262 -5.45457 0
M  V30 3332 N 329.616 1.39756 -0.72842 0
M  V30 3333 C 330.841 2.05472 -0.282159 0
M  V30 3334 C 331.266 1.54549 1.07221 0
M  V30 3335 O 330.624 0.686372 1.67805 0
M  V30 3336 C 330.672 3.59462 -0.286264 0
M  V30 3337 O 329.776 4.05918 0.728298 0
M  V30 3338 H 329.117 0.651226 -0.129618 0
M  V30 3339 H 331.647 1.78915 -0.992499 0
M  V30 3340 H 331.657 4.07798 -0.128373 0
M  V30 3341 H 330.332 3.95889 -1.27456 0
M  V30 3342 H 328.909 3.69012 0.537081 0
M  V30 3343 N 331.094 0.475555 1.50254 0
M  V30 3344 C 332.324 -0.0753399 2.06463 0
M  V30 3345 C 332.732 -1.33661 1.33908 0
M  V30 3346 O 332.075 -1.79219 0.403257 0
M  V30 3347 C 332.137 -0.424921 3.5698 0
M  V30 3348 C 331.801 0.734965 4.51051 0
M  V30 3349 C 332.798 1.61827 4.94073 0
M  V30 3350 C 330.483 0.926557 4.9368 0
M  V30 3351 C 332.477 2.67754 5.78434 0
M  V30 3352 C 330.164 1.98904 5.77824 0
M  V30 3353 C 331.162 2.8629 6.20103 0
M  V30 3354 O 330.85 3.90708 7.02568 0
M  V30 3355 H 330.582 0.00576308 0.675975 0
M  V30 3356 H 333.136 0.664662 1.94349 0
M  V30 3357 H 331.366 -1.21817 3.67012 0
M  V30 3358 H 333.055 -0.911422 3.95535 0
M  V30 3359 H 333.821 1.48196 4.61804 0
M  V30 3360 H 329.7 0.25584 4.6029 0
M  V30 3361 H 333.244 3.35992 6.11355 0
M  V30 3362 H 329.141 2.12541 6.09505 0
M  V30 3363 H 329.909 3.87751 7.20827 0
M  V30 3364 N 332.573 -1.56217 0.208337 0
M  V30 3365 C 333.989 -1.58919 -0.14729 0
M  V30 3366 C 334.189 -1.22486 -1.59998 0
M  V30 3367 O 333.245 -0.953849 -2.3379 0
M  V30 3368 C 334.558 -3.00236 0.167048 0
M  V30 3369 C 336.106 -3.12813 0.108219 0
M  V30 3370 C 336.581 -4.56284 0.396049 0
M  V30 3371 N 338.072 -4.61912 0.345142 0
M  V30 3372 C 338.807 -5.70837 0.541523 0
M  V30 3373 N 338.303 -6.88178 0.798968 0
M  V30 3374 N 340.096 -5.60091 0.474867 0
M  V30 3375 H 332.247 -1.78177 1.15614 0
M  V30 3376 H 334.51 -0.827555 0.462446 0
M  V30 3377 H 334.216 -3.31499 1.1748 0
M  V30 3378 H 334.09 -3.7354 -0.524184 0
M  V30 3379 H 336.477 -2.81354 -0.890157 0
M  V30 3380 H 336.558 -2.41866 0.832729 0
M  V30 3381 H 336.202 -4.88458 1.3918 0
M  V30 3382 H 336.132 -5.25439 -0.349502 0
M  V30 3383 H 338.623 -3.77589 0.153316 0
M  V30 3384 H 338.936 -7.67095 0.93727 0
M  V30 3385 H 337.281 -6.89953 0.836013 0
M  V30 3386 H 340.472 -4.67297 0.274064 0
M  V30 3387 H 340.645 -6.44917 0.631326 0
M  V30 3388 N 334.051 0.0651679 -1.57465 0
M  V30 3389 C 334.981 1.07693 -2.07182 0
M  V30 3390 C 335.962 1.39962 -0.966673 0
M  V30 3391 O 337.147 1.49475 -1.2398 0
M  V30 3392 C 334.277 2.3885 -2.52127 0
M  V30 3393 C 333.231 2.20917 -3.66579 0
M  V30 3394 C 332.557 3.57515 -3.97601 0
M  V30 3395 C 333.857 1.62493 -4.9638 0
M  V30 3396 H 335.551 0.663199 -2.91962 0
M  V30 3397 H 333.097 0.317569 -1.40455 0
M  V30 3398 H 335.05 3.09928 -2.85522 0
M  V30 3399 H 333.774 2.82215 -1.64384 0
M  V30 3400 H 332.433 1.52279 -3.33477 0
M  V30 3401 H 332.081 3.98463 -3.06979 0
M  V30 3402 H 331.781 3.46353 -4.74672 0
M  V30 3403 H 333.305 4.30013 -4.33499 0
M  V30 3404 H 334.719 2.23445 -5.27963 0
M  V30 3405 H 333.116 1.62009 -5.77818 0
M  V30 3406 H 334.186 0.587041 -4.81333 0
M  V30 3407 N 335.529 1.53961 0.336706 0
M  V30 3408 C 336.757 1.75483 1.09605 0
M  V30 3409 C 337.172 0.4972 1.82136 0
M  V30 3410 O 336.529 -0.53149 1.74589 0
M  V30 3411 C 336.58 2.93943 2.10428 0
M  V30 3412 O 336.301 4.14842 1.40846 0
M  V30 3413 C 337.802 3.27571 2.98684 0
M  V30 3414 H 335.022 0.586166 0.326574 0
M  V30 3415 H 337.566 2.00808 0.38683 0
M  V30 3416 H 335.721 2.70929 2.76905 0
M  V30 3417 H 336.135 4.81383 2.08255 0
M  V30 3418 H 337.609 4.13791 3.6535 0
M  V30 3419 H 338.086 2.44168 3.65074 0
M  V30 3420 H 338.692 3.52615 2.37787 0
M  V30 3421 N 337.007 -0.598083 1.45811 0
M  V30 3422 C 338.255 -1.35413 1.50026 0
M  V30 3423 C 338.576 -1.94444 0.147177 0
M  V30 3424 O 337.846 -1.77701 -0.824571 0
M  V30 3425 H 336.426 -0.502727 0.552517 0
M  V30 3426 H 339.088 -0.701606 1.81834 0
M  V30 3427 H 338.184 -2.16871 2.2444 0
M  V30 3428 N 338.485 -1.33259 -0.841409 0
M  V30 3429 C 339.415 -1.25926 -1.96634 0
M  V30 3430 C 340.396 -0.140349 -1.6952 0
M  V30 3431 O 341.581 -0.329707 -1.91381 0
M  V30 3432 C 338.711 -0.99512 -3.32738 0
M  V30 3433 C 337.665 -2.0767 -3.74242 0
M  V30 3434 C 336.991 -1.66474 -5.08125 0
M  V30 3435 C 338.291 -3.49318 -3.88297 0
M  V30 3436 H 339.985 -2.20046 -2.03027 0
M  V30 3437 H 337.531 -1.05931 -0.975425 0
M  V30 3438 H 339.484 -0.930323 -4.11002 0
M  V30 3439 H 338.208 -0.0183004 -3.26595 0
M  V30 3440 H 336.867 -2.13187 -2.98239 0
M  V30 3441 H 336.515 -0.675012 -4.9845 0
M  V30 3442 H 336.215 -2.3885 -5.36865 0
M  V30 3443 H 337.739 -1.61455 -5.88867 0
M  V30 3444 H 339.153 -3.46316 -4.56879 0
M  V30 3445 H 337.55 -4.20158 -4.28471 0
M  V30 3446 H 338.62 -3.8801 -2.9082 0
M  V30 3447 N 339.963 1.05934 -1.16686 0
M  V30 3448 C 340.926 2.11669 -0.879144 0
M  V30 3449 C 341.926 1.60294 0.127445 0
M  V30 3450 O 343.116 1.7389 -0.103865 0
M  V30 3451 C 340.248 3.39438 -0.315425 0
M  V30 3452 H 341.441 2.38626 -1.81653 0
M  V30 3453 H 338.994 1.22058 -0.976299 0
M  V30 3454 H 339.729 3.18132 0.629468 0
M  V30 3455 H 339.514 3.78034 -1.04079 0
M  V30 3456 H 341.004 4.17391 -0.132189 0
M  V30 3457 N 341.441 0.965919 1.2453 0
M  V30 3458 C 342.857 0.67216 1.44756 0
M  V30 3459 C 343.057 -0.766609 1.86347 0
M  V30 3460 O 342.113 -1.5407 2.00047 0
M  V30 3461 C 343.426 1.65473 2.51076 0
M  V30 3462 C 344.974 1.66716 2.64905 0
M  V30 3463 C 345.449 2.63766 3.74421 0
M  V30 3464 N 346.94 2.62198 3.81846 0
M  V30 3465 C 347.675 3.33966 4.66106 0
M  V30 3466 N 347.171 4.15245 5.54566 0
M  V30 3467 N 348.964 3.22799 4.60171 0
M  V30 3468 H 341.115 1.89553 0.958293 0
M  V30 3469 H 343.378 0.815979 0.482579 0
M  V30 3470 H 343.084 2.68296 2.27399 0
M  V30 3471 H 342.958 1.4261 3.49202 0
M  V30 3472 H 345.345 0.646057 2.87941 0
M  V30 3473 H 345.426 1.93642 1.67142 0
M  V30 3474 H 345.07 3.6601 3.52135 0
M  V30 3475 H 345 2.34121 4.71694 0
M  V30 3476 H 347.491 2.032 3.18619 0
M  V30 3477 H 347.804 4.66898 6.15814 0
M  V30 3478 H 346.149 4.1934 5.54237 0
M  V30 3479 H 349.34 2.58764 3.90075 0
M  V30 3480 H 349.513 3.78994 5.25612 0
M  V30 3481 N 342.919 -1.39368 0.735821 0
M  V30 3482 C 344.144 -2.05319 0.293052 0
M  V30 3483 C 344.569 -1.55115 -1.064 0
M  V30 3484 O 343.927 -0.695261 -1.67439 0
M  V30 3485 C 343.975 -3.59305 0.305323 0
M  V30 3486 O 343.079 -4.06299 -0.706761 0
M  V30 3487 H 342.42 -0.650529 0.13307 0
M  V30 3488 H 344.95 -1.78386 1.00197 0
M  V30 3489 H 344.96 -4.07724 0.149997 0
M  V30 3490 H 343.635 -3.95207 1.29553 0
M  V30 3491 H 342.212 -3.69292 -0.517504 0
M  V30 3492 N 344.397 -0.483516 -1.5 0
M  V30 3493 C 345.36 0.292965 -2.2732 0
M  V30 3494 C 346.36 0.909499 -1.32608 0
M  V30 3495 O 347.55 0.776745 -1.55924 0
M  V30 3496 C 344.682 1.41854 -3.09984 0
M  V30 3497 H 345.875 -0.385289 -2.97415 0
M  V30 3498 H 343.428 -0.237942 -1.54478 0
M  V30 3499 H 344.163 2.13148 -2.44414 0
M  V30 3500 H 343.948 0.982114 -3.79601 0
M  V30 3501 H 345.438 1.96597 -3.68429 0
M  V30 3502 N 345.875 1.56104 -0.216619 0
M  V30 3503 C 346.823 2.21434 0.712036 0
M  V30 3504 C 347.817 1.19218 1.20348 0
M  V30 3505 O 349.023 1.3731 1.16387 0
M  V30 3506 H 345.398 0.70992 0.248026 0
M  V30 3507 H 347.369 2.98083 0.137558 0
M  V30 3508 C 346.118 2.90434 1.91163 0
M  V30 3509 H 345.441 3.68842 1.54258 0
M  V30 3510 H 346.881 3.39552 2.5393 0
M  V30 3511 C 345.34 1.92635 2.76394 0
M  V30 3512 O 345.87 1.44017 3.74996 0
M  V30 3513 N 344.076 1.60392 2.42328 0
M  V30 3514 H 343.623 2.00122 1.622 0
M  V30 3515 H 343.581 0.952159 2.99635 0
M  V30 3516 N 347.353 -0.0568162 1.57498 0
M  V30 3517 C 348.316 -1.05038 2.03715 0
M  V30 3518 C 349.316 -1.30709 0.936577 0
M  V30 3519 O 350.506 -1.26178 1.20103 0
M  V30 3520 C 347.638 -2.39034 2.43055 0
M  V30 3521 H 348.831 -0.651715 2.92733 0
M  V30 3522 H 346.384 -0.302947 1.53336 0
M  V30 3523 H 347.119 -2.83703 1.57108 0
M  V30 3524 H 346.904 -2.21739 3.2338 0
M  V30 3525 H 348.394 -3.10421 2.79336 0
M  V30 3526 N 348.832 -1.54138 -0.328536 0
M  V30 3527 C 349.764 -1.79509 -1.4251 0
M  V30 3528 C 350.777 -0.67688 -1.48061 0
M  V30 3529 O 351.966 -0.953898 -1.50874 0
M  V30 3530 C 349.066 -1.89337 -2.81078 0
M  V30 3531 C 348.239 -3.19443 -2.98789 0
M  V30 3532 C 347.298 -3.20036 -4.17688 0
M  V30 3533 O 346.324 -3.93697 -4.11086 0
M  V30 3534 N 347.526 -2.43467 -5.26976 0
M  V30 3535 H 350.291 -2.74139 -1.21111 0
M  V30 3536 H 347.852 -1.53373 -0.518499 0
M  V30 3537 H 349.844 -1.87167 -3.58818 0
M  V30 3538 H 348.414 -1.01826 -2.95551 0
M  V30 3539 H 347.634 -3.34614 -2.08391 0
M  V30 3540 H 348.922 -4.05354 -3.07515 0
M  V30 3541 H 348.32 -1.83201 -5.35214 0
M  V30 3542 H 346.877 -2.4708 -6.03154 0
M  V30 3543 N 350.31 0.590341 -1.46126 0
M  V30 3544 C 351.242 1.71427 -1.52136 0
M  V30 3545 C 352.255 1.57542 -0.41042 0
M  V30 3546 O 353.444 1.65106 -0.678389 0
M  V30 3547 C 350.544 3.09605 -1.37834 0
M  V30 3548 C 349.717 3.49566 -2.62912 0
M  V30 3549 C 348.776 4.66773 -2.42918 0
M  V30 3550 O 347.802 4.73019 -3.1661 0
M  V30 3551 N 349.004 5.61161 -1.4859 0
M  V30 3552 H 351.769 1.66728 -2.49042 0
M  V30 3553 H 349.33 0.776113 -1.42085 0
M  V30 3554 H 351.322 3.85796 -1.22243 0
M  V30 3555 H 349.892 3.08714 -0.491393 0
M  V30 3556 H 349.112 2.63158 -2.93499 0
M  V30 3557 H 350.4 3.73028 -3.46017 0
M  V30 3558 H 349.798 5.58844 -0.87808 0
M  V30 3559 H 348.355 6.36814 -1.38965 0
M  V30 3560 N 351.788 1.33704 0.83433 0
M  V30 3561 C 352.735 1.24335 1.94447 0
M  V30 3562 C 353.705 0.120991 1.65659 0
M  V30 3563 O 354.89 0.300035 1.88426 0
M  V30 3564 C 352.03 0.993124 3.30501 0
M  V30 3565 C 351.143 2.20217 3.71657 0
M  V30 3566 C 350.278 1.88572 4.96602 0
M  V30 3567 C 349.317 3.05683 5.30306 0
M  V30 3568 N 348.454 2.73997 6.46429 0
M  V30 3569 H 353.294 2.1928 2.01792 0
M  V30 3570 H 350.831 1.09035 0.987404 0
M  V30 3571 H 352.789 0.828467 4.08892 0
M  V30 3572 H 351.419 0.0803902 3.227 0
M  V30 3573 H 350.471 2.47642 2.88752 0
M  V30 3574 H 351.783 3.07752 3.92543 0
M  V30 3575 H 350.937 1.68776 5.82752 0
M  V30 3576 H 349.676 0.982799 4.77695 0
M  V30 3577 H 348.681 3.26088 4.42659 0
M  V30 3578 H 349.906 3.96737 5.51159 0
M  V30 3579 H 347.852 1.86268 6.28999 0
M  V30 3580 H 347.769 3.55064 6.67432 0
M  V30 3581 H 349.037 2.57679 7.35678 0
M  V30 3582 N 353.266 -1.05314 1.17247 0
M  V30 3583 C 354.514 -1.77941 0.958194 0
M  V30 3584 C 354.835 -1.88089 -0.514556 0
M  V30 3585 O 354.105 -1.39676 -1.37359 0
M  V30 3586 H 352.685 -0.659116 0.351533 0
M  V30 3587 H 355.347 -1.27166 1.47699 0
M  V30 3588 H 354.443 -2.79663 1.38546 0
M  V30 3589 N 354.744 -0.972509 -1.24016 0
M  V30 3590 C 355.969 -0.654417 -1.96805 0
M  V30 3591 C 356.394 0.770398 -1.716 0
M  V30 3592 O 355.752 1.52361 -0.982647 0
M  V30 3593 C 355.8 -0.941031 -3.48105 0
M  V30 3594 O 354.904 -0.0289472 -4.1239 0
M  V30 3595 H 354.245 -0.24692 -0.616382 0
M  V30 3596 H 356.775 -1.30396 -1.57664 0
M  V30 3597 H 356.785 -0.87452 -3.98517 0
M  V30 3598 H 355.46 -1.97939 -3.65777 0
M  V30 3599 H 354.037 -0.149192 -3.72601 0
M  V30 3600 N 356.222 1.38976 -0.743202 0
M  V30 3601 C 357.132 2.3434 -0.110399 0
M  V30 3602 C 358.148 1.58741 0.712559 0
M  V30 3603 O 359.324 1.9099 0.639125 0
M  V30 3604 C 356.389 3.37812 0.780012 0
M  V30 3605 C 355.45 4.29263 -0.0561319 0
M  V30 3606 C 354.683 5.27793 0.791875 0
M  V30 3607 O 354.906 5.33043 2.03031 0
M  V30 3608 O 353.84 6.01512 0.216183 0
M  V30 3609 H 357.666 2.90129 -0.897714 0
M  V30 3610 H 355.251 1.40643 -0.503966 0
M  V30 3611 H 357.133 4.01194 1.28923 0
M  V30 3612 H 355.808 2.84395 1.546 0
M  V30 3613 H 354.715 3.69076 -0.611056 0
M  V30 3614 H 356.048 4.85907 -0.784531 0
M  V30 3615 N 357.7 0.491464 1.49741 0
M  V30 3616 C 358.61 -0.296835 2.32715 0
M  V30 3617 C 359.626 -0.976536 1.44013 0
M  V30 3618 O 360.802 -0.960023 1.77047 0
M  V30 3619 C 357.867 -1.35288 3.19215 0
M  V30 3620 C 356.928 -0.687632 4.23757 0
M  V30 3621 C 356.161 -1.69336 5.06123 0
M  V30 3622 O 356.384 -2.92219 4.89861 0
M  V30 3623 O 355.318 -1.25394 5.88693 0
M  V30 3624 H 359.144 0.382048 3.01287 0
M  V30 3625 H 356.729 0.252953 1.47243 0
M  V30 3626 H 358.611 -1.96411 3.72828 0
M  V30 3627 H 357.286 -2.01487 2.53347 0
M  V30 3628 H 356.193 -0.0369159 3.74082 0
M  V30 3629 H 357.526 -0.0682566 4.92153 0
M  V30 3630 N 359.178 -1.55987 0.224894 0
M  V30 3631 C 360.11 -2.17722 -0.716224 0
M  V30 3632 C 361.123 -1.14723 -1.15509 0
M  V30 3633 O 362.312 -1.41688 -1.08567 0
M  V30 3634 C 359.412 -2.74873 -1.98238 0
M  V30 3635 C 358.585 -4.03074 -1.69853 0
M  V30 3636 C 357.644 -4.44757 -2.81208 0
M  V30 3637 O 356.67 -5.11587 -2.49534 0
M  V30 3638 N 357.872 -4.10716 -4.10235 0
M  V30 3639 H 360.637 -2.99109 -0.188123 0
M  V30 3640 H 358.198 -1.6184 0.0440123 0
M  V30 3641 H 360.19 -2.99727 -2.7193 0
M  V30 3642 H 358.76 -1.9777 -2.42086 0
M  V30 3643 H 357.98 -3.86041 -0.797875 0
M  V30 3644 H 359.268 -4.86701 -1.48324 0
M  V30 3645 H 358.666 -3.57019 -4.38809 0
M  V30 3646 H 357.223 -4.40455 -4.80461 0
M  V30 3647 N 360.656 0.0484629 -1.57525 0
M  V30 3648 C 362.072 0.40375 -1.54409 0
M  V30 3649 C 362.272 1.77786 -0.948384 0
M  V30 3650 O 361.328 2.46189 -0.560983 0
M  V30 3651 C 362.641 0.323394 -2.98956 0
M  V30 3652 C 364.189 0.401892 -3.10409 0
M  V30 3653 C 364.664 0.351195 -4.56652 0
M  V30 3654 N 366.155 0.410576 -4.61377 0
M  V30 3655 C 366.89 0.393933 -5.72045 0
M  V30 3656 N 366.386 0.330724 -6.9201 0
M  V30 3657 N 368.179 0.442227 -5.60358 0
M  V30 3658 H 360.33 -0.851016 -1.94606 0
M  V30 3659 H 362.593 -0.321721 -0.89174 0
M  V30 3660 H 362.299 -0.62011 -3.4619 0
M  V30 3661 H 362.173 1.12463 -3.60044 0
M  V30 3662 H 364.56 1.33582 -2.63134 0
M  V30 3663 H 364.641 -0.428342 -2.52188 0
M  V30 3664 H 364.285 -0.578987 -5.04589 0
M  V30 3665 H 364.215 1.19928 -5.12762 0
M  V30 3666 H 366.706 0.462729 -3.75056 0
M  V30 3667 H 367.019 0.322592 -7.72126 0
M  V30 3668 H 365.364 0.29706 -6.94365 0
M  V30 3669 H 368.555 0.489464 -4.65534 0
M  V30 3670 H 368.728 0.425788 -6.466 0
M  V30 3671 N 362.134 1.5431 0.320358 0
M  V30 3672 C 363.364 1.7638 1.07582 0
M  V30 3673 C 363.772 0.513944 1.82086 0
M  V30 3674 O 363.115 -0.525123 1.76035 0
M  V30 3675 C 363.177 2.9055 2.1171 0
M  V30 3676 C 362.841 4.2934 1.56575 0
M  V30 3677 C 363.838 5.10077 1.00586 0
M  V30 3678 C 361.523 4.75893 1.60722 0
M  V30 3679 C 363.517 6.35477 0.494756 0
M  V30 3680 C 361.204 6.0126 1.09224 0
M  V30 3681 C 362.202 6.80886 0.53696 0
M  V30 3682 O 361.89 8.03894 0.0297371 0
M  V30 3683 H 361.622 0.592369 0.325692 0
M  V30 3684 H 364.176 2.02019 0.37116 0
M  V30 3685 H 362.406 2.60489 2.85801 0
M  V30 3686 H 364.095 3.00373 2.73003 0
M  V30 3687 H 364.861 4.75265 0.966869 0
M  V30 3688 H 360.74 4.13957 2.02882 0
M  V30 3689 H 364.284 6.97574 0.0606842 0
M  V30 3690 H 360.181 6.35562 1.12831 0
M  V30 3691 H 360.949 8.18372 0.14486 0
M  V30 3692 N 363.613 -0.582584 1.46437 0
M  V30 3693 C 364.576 -1.67366 1.56592 0
M  V30 3694 C 365.576 -1.54575 0.443072 0
M  V30 3695 O 366.766 -1.59191 0.707381 0
M  V30 3696 C 363.898 -3.06791 1.48634 0
M  V30 3697 H 365.091 -1.5972 2.5383 0
M  V30 3698 H 362.644 -0.800432 1.34249 0
M  V30 3699 H 363.379 -3.19993 0.526763 0
M  V30 3700 H 363.164 -3.17484 2.30101 0
M  V30 3701 H 364.654 -3.86218 1.58826 0
M  V30 3702 N 365.091 -1.34144 -0.827227 0
M  V30 3703 C 366.34 -1.25602 -1.5782 0
M  V30 3704 C 366.653 0.173445 -1.94829 0
M  V30 3705 O 367.859 0.380984 -2.68814 0
M  V30 3706 C 366.315 -2.20151 -2.84713 0
M  V30 3707 C 365.923 -3.68331 -2.55021 0
M  V30 3708 C 367.667 -2.20508 -3.62735 0
M  V30 3709 C 365.574 -4.54762 -3.78082 0
M  V30 3710 H 364.504 -0.466573 -0.592306 0
M  V30 3711 H 367.155 -1.59283 -0.911116 0
M  V30 3712 H 365.537 -1.79417 -3.53023 0
M  V30 3713 H 366.711 -4.17577 -1.94849 0
M  V30 3714 H 365.026 -3.7038 -1.90283 0
M  V30 3715 H 367.623 -2.82306 -4.54101 0
M  V30 3716 H 367.966 -1.20322 -3.98533 0
M  V30 3717 H 368.499 -2.59664 -3.01362 0
M  V30 3718 H 365.238 -5.55867 -3.47407 0
M  V30 3719 H 364.758 -4.10254 -4.37552 0
M  V30 3720 H 366.437 -4.69153 -4.45538 0
M  V30 3721 N 366.569 1.04691 -1.17803 0
M  V30 3722 C 367.532 2.10724 -0.901545 0
M  V30 3723 C 368.532 1.6042 0.110437 0
M  V30 3724 O 369.722 1.7377 -0.122303 0
M  V30 3725 C 366.854 3.39084 -0.351409 0
M  V30 3726 H 368.047 2.36686 -1.84174 0
M  V30 3727 H 365.6 1.21015 -0.98919 0
M  V30 3728 H 366.335 3.18782 0.59569 0
M  V30 3729 H 366.12 3.76909 -1.08083 0
M  V30 3730 H 367.61 4.17227 -0.176451 0
M  V30 3731 N 368.047 0.979072 1.23499 0
M  V30 3732 C 369.458 0.684391 1.73704 0
M  V30 3733 C 369.809 -0.799448 1.79174 0
M  V30 3734 O 368.934 -1.62531 1.42873 0
M  V30 3735 C 369.529 1.23564 3.15464 0
M  V30 3736 C 368.088 0.99063 3.6313 0
M  V30 3737 C 367.235 1.36416 2.41425 0
M  V30 3738 H 370.186 1.15307 1.09041 0
M  V30 3739 H 370.207 0.607417 3.7562 0
M  V30 3740 H 369.719 2.31561 3.1145 0
M  V30 3741 H 367.82 -0.0733136 3.72528 0
M  V30 3742 H 367.933 1.64427 4.5 0
M  V30 3743 H 366.297 0.782616 2.42378 0
M  V30 3744 H 367.08 2.45387 2.40083 0
M  V30 3745 N 369.525 -1.3858 0.750561 0
M  V30 3746 C 370.488 -2.28836 0.129152 0
M  V30 3747 C 371.488 -1.47045 -0.650714 0
M  V30 3748 O 372.678 -1.6753 -0.477428 0
M  V30 3749 C 369.81 -3.30751 -0.825622 0
M  V30 3750 H 371.003 -2.85294 0.924516 0
M  V30 3751 H 368.556 -1.47489 0.517376 0
M  V30 3752 H 369.291 -2.79378 -1.64677 0
M  V30 3753 H 369.076 -3.91177 -0.268852 0
M  V30 3754 H 370.566 -3.98249 -1.2565 0
M  V30 3755 N 371.003 -0.499398 -1.49478 0
M  V30 3756 C 372.25 0.0456899 -2.02448 0
M  V30 3757 C 372.578 1.37142 -1.37921 0
M  V30 3758 O 371.833 1.89111 -0.503544 0
M  V30 3759 C 372.132 0.248424 -3.56536 0
M  V30 3760 C 371.798 -0.999107 -4.39692 0
M  V30 3761 C 370.46 -1.34108 -4.62135 0
M  V30 3762 C 372.812 -1.82842 -4.88076 0
M  V30 3763 C 370.14 -2.51191 -5.30208 0
M  V30 3764 C 372.492 -2.99076 -5.57437 0
M  V30 3765 C 371.156 -3.33655 -5.78127 0
M  V30 3766 H 370.426 0.0167191 -0.740811 0
M  V30 3767 H 373.073 -0.65923 -1.79795 0
M  V30 3768 H 371.378 1.03586 -3.77859 0
M  V30 3769 H 373.075 0.684605 -3.95113 0
M  V30 3770 H 369.665 -0.722729 -4.22463 0
M  V30 3771 H 373.849 -1.57737 -4.70566 0
M  V30 3772 H 369.105 -2.78221 -5.44429 0
M  V30 3773 H 373.279 -3.63664 -5.93904 0
M  V30 3774 H 370.906 -4.24483 -6.30649 0
M  V30 3775 N 372.481 1.55866 -0.233164 0
M  V30 3776 C 373.709 2.02998 0.399905 0
M  V30 3777 C 374.124 1.11274 1.52524 0
M  V30 3778 O 373.481 0.124528 1.82075 0
M  V30 3779 C 373.532 3.4958 0.920639 0
M  V30 3780 O 373.253 4.37808 -0.159834 0
M  V30 3781 C 374.754 4.12411 1.62578 0
M  V30 3782 H 371.974 0.664006 0.0966281 0
M  V30 3783 H 374.518 2.0143 -0.353013 0
M  V30 3784 H 372.673 3.51727 1.62379 0
M  V30 3785 H 373.087 5.23981 0.23337 0
M  V30 3786 H 374.561 5.16711 1.94201 0
M  V30 3787 H 375.038 3.5809 2.54299 0
M  V30 3788 H 375.644 4.14148 0.967553 0
M  V30 3789 N 373.959 -0.0401083 1.57549 0
M  V30 3790 C 375.205 -0.728793 1.89895 0
M  V30 3791 C 375.56 -1.73551 0.830535 0
M  V30 3792 O 374.853 -1.90914 -0.162007 0
M  V30 3793 C 375.047 -1.44902 3.26708 0
M  V30 3794 C 374.876 -0.513568 4.46758 0
M  V30 3795 C 373.646 -0.138698 5.0511 0
M  V30 3796 C 375.844 0.203341 5.13898 0
M  V30 3797 N 373.826 0.799159 6.08676 0
M  V30 3798 C 375.197 0.997246 6.11927 0
M  V30 3799 C 377.252 0.271459 4.97159 0
M  V30 3800 C 375.955 1.85299 6.95023 0
M  V30 3801 C 377.981 1.11429 5.80808 0
M  V30 3802 C 377.343 1.89615 6.78399 0
M  V30 3803 H 373.442 -0.241125 0.743897 0
M  V30 3804 H 376.026 0.0108016 1.94697 0
M  V30 3805 H 374.197 -2.15914 3.22856 0
M  V30 3806 H 375.929 -2.08921 3.46603 0
M  V30 3807 H 372.684 -0.498496 4.70969 0
M  V30 3808 H 373.108 1.26227 6.65128 0
M  V30 3809 H 377.75 -0.318709 4.21597 0
M  V30 3810 H 375.468 2.454 7.69938 0
M  V30 3811 H 379.054 1.17038 5.69906 0
M  V30 3812 H 377.934 2.53779 7.42001 0
M  V30 3813 N 375.437 -1.54477 -0.31217 0
M  V30 3814 C 376.853 -1.45442 -0.657185 0
M  V30 3815 C 377.053 -0.63653 -1.91182 0
M  V30 3816 O 376.109 -0.139815 -2.52113 0
M  V30 3817 C 377.422 -2.89287 -0.82058 0
M  V30 3818 C 378.97 -2.9926 -0.917188 0
M  V30 3819 C 379.445 -4.44279 -1.11267 0
M  V30 3820 N 380.936 -4.4794 -1.17914 0
M  V30 3821 C 381.671 -5.57318 -1.34848 0
M  V30 3822 N 381.167 -6.76642 -1.48752 0
M  V30 3823 N 382.96 -5.44986 -1.37647 0
M  V30 3824 H 375.111 -2.06129 0.512313 0
M  V30 3825 H 377.374 -0.933088 0.167485 0
M  V30 3826 H 377.08 -3.51687 0.0302604 0
M  V30 3827 H 376.954 -3.36061 -1.71298 0
M  V30 3828 H 379.341 -2.36981 -1.75852 0
M  V30 3829 H 379.422 -2.558 -0.00101257 0
M  V30 3830 H 379.066 -5.07149 -0.27614 0
M  V30 3831 H 378.996 -4.85359 -2.04289 0
M  V30 3832 H 381.487 -3.61969 -1.08567 0
M  V30 3833 H 381.8 -7.55758 -1.61397 0
M  V30 3834 H 380.145 -6.79529 -1.45828 0
M  V30 3835 H 383.336 -4.50715 -1.26388 0
M  V30 3836 H 383.509 -6.3028 -1.50501 0
M  V30 3837 N 376.915 0.57481 -1.46744 0
M  V30 3838 C 378.326 1.15695 -1.46532 0
M  V30 3839 C 378.677 1.95068 -0.210425 0
M  V30 3840 O 377.802 2.05241 0.685944 0
M  V30 3841 C 378.397 2.1048 -2.65487 0
M  V30 3842 C 376.956 2.64002 -2.68291 0
M  V30 3843 C 376.103 1.40026 -2.39349 0
M  V30 3844 H 379.054 0.362325 -1.54509 0
M  V30 3845 H 379.075 2.94074 -2.41455 0
M  V30 3846 H 378.587 1.52683 -3.56805 0
M  V30 3847 H 376.688 3.25646 -1.81067 0
M  V30 3848 H 376.801 3.06197 -3.68483 0
M  V30 3849 H 375.165 1.70106 -1.89568 0
M  V30 3850 H 375.948 0.840485 -3.32852 0
M  V30 3851 N 378.394 1.34581 0.820102 0
M  V30 3852 C 379.671 1.17675 1.56244 0
M  V30 3853 C 380.051 -0.249541 2.0962 0
M  V30 3854 O 379.399 -1.25125 1.91196 0
M  V30 3855 C 379.609 2.23364 2.6816 0
M  V30 3856 C 380.957 2.58485 3.36854 0
M  V30 3857 O 381.981 2.22175 2.78418 0
M  V30 3858 O 380.84 3.20868 4.42386 0
M  V30 3859 H 377.934 0.456333 0.689702 0
M  V30 3860 H 380.48 1.46222 0.861231 0
M  V30 3861 H 379.252 3.19087 2.26493 0
M  V30 3862 H 378.875 1.96009 3.45928 0
M  V30 3863 N 379.872 -1.04064 1.18357 0
M  V30 3864 C 381.149 -1.74252 0.888581 0
M  V30 3865 C 381.529 -2.02138 -0.60856 0
M  V30 3866 O 380.877 -1.66656 -1.56327 0
M  V30 3867 C 381.087 -3.0277 1.73584 0
M  V30 3868 C 382.435 -3.76506 1.96286 0
M  V30 3869 O 383.459 -3.12668 1.70637 0
M  V30 3870 O 382.318 -4.91243 2.39464 0
M  V30 3871 H 379.412 -0.758271 0.330082 0
M  V30 3872 H 381.958 -1.1013 1.2911 0
M  V30 3873 H 380.73 -2.78299 2.75073 0
M  V30 3874 H 380.353 -3.74631 1.33183 0
M  V30 3875 N 381.35 -0.985608 -1.22978 0
M  V30 3876 C 382.297 -0.529825 -2.24636 0
M  V30 3877 C 383.267 0.434028 -1.60329 0
M  V30 3878 O 384.452 0.340414 -1.87739 0
M  V30 3879 C 381.592 0.156533 -3.44745 0
M  V30 3880 C 380.705 -0.848197 -4.23591 0
M  V30 3881 C 379.84 -0.136109 -5.31026 0
M  V30 3882 C 378.879 -1.1297 -6.01585 0
M  V30 3883 N 378.016 -0.446415 -7.00679 0
M  V30 3884 H 382.856 -1.40148 -2.62988 0
M  V30 3885 H 380.393 -0.702168 -1.29259 0
M  V30 3886 H 382.351 0.571324 -4.1327 0
M  V30 3887 H 380.981 0.992025 -3.07179 0
M  V30 3888 H 380.033 -1.38135 -3.54433 0
M  V30 3889 H 381.345 -1.60512 -4.72268 0
M  V30 3890 H 380.499 0.335784 -6.0577 0
M  V30 3891 H 379.238 0.653373 -4.83304 0
M  V30 3892 H 378.243 -1.6123 -5.25628 0
M  V30 3893 H 379.468 -1.91993 -6.51395 0
M  V30 3894 H 377.414 0.323763 -6.55201 0
M  V30 3895 H 377.331 -1.1419 -7.47326 0
M  V30 3896 H 378.599 0.00291697 -7.795 0
M  V30 3897 N 382.828 1.3818 -0.7579 0
M  V30 3898 C 384.056 2.04301 -0.326937 0
M  V30 3899 C 384.471 1.57163 1.0462 0
M  V30 3900 O 383.828 0.746626 1.66529 0
M  V30 3901 C 383.879 3.59846 -0.345363 0
M  V30 3902 O 383.6 4.05256 -1.66432 0
M  V30 3903 C 385.101 4.4319 0.098927 0
M  V30 3904 H 382.321 0.656443 -0.139012 0
M  V30 3905 H 384.865 1.76786 -1.02796 0
M  V30 3906 H 383.02 3.86182 0.306955 0
M  V30 3907 H 383.434 4.99709 -1.59345 0
M  V30 3908 H 384.908 5.51989 0.0348745 0
M  V30 3909 H 385.385 4.23947 1.14741 0
M  V30 3910 H 385.991 4.22051 -0.52468 0
M  V30 3911 N 384.306 0.507319 1.49211 0
M  V30 3912 C 385.254 -0.281364 2.30892 0
M  V30 3913 C 386.248 -0.95687 1.39787 0
M  V30 3914 O 387.454 -0.883838 1.56807 0
M  V30 3915 H 383.829 -0.109597 0.743971 0
M  V30 3916 H 385.8 0.42744 2.95323 0
M  V30 3917 C 384.549 -1.32918 3.21291 0
M  V30 3918 H 383.872 -0.818799 3.91326 0
M  V30 3919 H 385.312 -1.85288 3.81372 0
M  V30 3920 C 383.771 -2.35074 2.41333 0
M  V30 3921 O 384.301 -3.4108 2.12197 0
M  V30 3922 N 382.507 -2.07705 2.03241 0
M  V30 3923 H 382.054 -1.2152 2.27136 0
M  V30 3924 H 382.012 -2.76283 1.50051 0
M  V30 3925 N 385.784 -1.5574 0.241426 0
M  V30 3926 C 387.031 -1.9881 -0.384836 0
M  V30 3927 C 387.359 -1.12947 -1.58346 0
M  V30 3928 O 386.614 -0.178993 -1.9488 0
M  V30 3929 C 386.913 -3.47308 -0.843317 0
M  V30 3930 C 386.579 -4.50223 0.246946 0
M  V30 3931 C 385.241 -4.78088 0.546399 0
M  V30 3932 C 387.593 -5.11841 0.983282 0
M  V30 3933 C 384.921 -5.64846 1.58636 0
M  V30 3934 C 387.273 -5.99727 2.01272 0
M  V30 3935 C 385.937 -6.25927 2.31888 0
M  V30 3936 H 385.207 -0.727496 -0.140821 0
M  V30 3937 H 387.854 -1.8831 0.348106 0
M  V30 3938 H 386.159 -3.55112 -1.65537 0
M  V30 3939 H 387.856 -3.78017 -1.33806 0
M  V30 3940 H 384.446 -4.286 0.00340639 0
M  V30 3941 H 388.63 -4.90366 0.765182 0
M  V30 3942 H 383.886 -5.83403 1.82896 0
M  V30 3943 H 388.06 -6.46517 2.58823 0
M  V30 3944 H 385.687 -6.92949 3.12611 0
M  V30 3945 N 387.262 0.0317525 -1.57568 0
M  V30 3946 C 388.49 0.734949 -1.93407 0
M  V30 3947 C 388.905 1.69036 -0.84096 0
M  V30 3948 O 388.262 1.81582 0.182836 0
M  V30 3949 C 388.313 1.49432 -3.29169 0
M  V30 3950 O 388.034 0.577261 -4.3428 0
M  V30 3951 C 389.535 2.29492 -3.79273 0
M  V30 3952 H 386.755 0.206706 -0.638368 0
M  V30 3953 H 389.299 -0.00992046 -2.04498 0
M  V30 3954 H 387.454 2.1911 -3.19483 0
M  V30 3955 H 387.868 1.10952 -5.1263 0
M  V30 3956 H 389.342 2.78172 -4.76785 0
M  V30 3957 H 389.819 3.10794 -3.10328 0
M  V30 3958 H 390.425 1.64894 -3.92033 0
M  V30 3959 N 388.74 1.54641 0.303973 0
M  V30 3960 C 389.987 1.7378 1.03955 0
M  V30 3961 C 390.315 0.521986 1.87365 0
M  V30 3962 O 389.57 -0.496099 1.89308 0
M  V30 3963 C 389.869 2.97753 1.97681 0
M  V30 3964 C 389.535 4.31671 1.30271 0
M  V30 3965 C 388.197 4.68075 1.11619 0
M  V30 3966 C 390.549 5.147 0.82055 0
M  V30 3967 C 387.877 5.8509 0.434304 0
M  V30 3968 C 390.229 6.32416 0.152395 0
M  V30 3969 C 388.893 6.67484 -0.0461067 0
M  V30 3970 H 388.163 0.635908 0.380398 0
M  V30 3971 H 390.81 1.88896 0.314718 0
M  V30 3972 H 389.115 2.77406 2.76682 0
M  V30 3973 H 390.812 3.09756 2.54661 0
M  V30 3974 H 387.402 4.03041 1.45795 0
M  V30 3975 H 391.586 4.87077 0.952374 0
M  V30 3976 H 386.842 6.10806 0.269495 0
M  V30 3977 H 391.016 6.96023 -0.229126 0
M  V30 3978 H 388.643 7.58011 -0.576494 0
M  V30 3979 N 390.218 -0.567019 1.47046 0
M  V30 3980 C 391.148 -1.68482 1.61667 0
M  V30 3981 C 392.129 -1.6358 0.466418 0
M  V30 3982 O 393.314 -1.81354 0.694574 0
M  V30 3983 C 390.444 -3.07124 1.62148 0
M  V30 3984 C 389.398 -3.26867 2.76301 0
M  V30 3985 C 388.724 -4.66196 2.61849 0
M  V30 3986 C 390.024 -3.13186 4.17986 0
M  V30 3987 H 391.718 -1.56502 2.5524 0
M  V30 3988 H 389.264 -0.751486 1.22836 0
M  V30 3989 H 391.217 -3.8516 1.70968 0
M  V30 3990 H 389.941 -3.2004 0.651287 0
M  V30 3991 H 388.6 -2.51237 2.66975 0
M  V30 3992 H 388.248 -4.75898 1.62879 0
M  V30 3993 H 387.948 -4.80356 3.38425 0
M  V30 3994 H 389.472 -5.46379 2.72584 0
M  V30 3995 H 390.886 -3.81049 4.2834 0
M  V30 3996 H 389.283 -3.3886 4.95272 0
M  V30 3997 H 390.353 -2.10057 4.3704 0
M  V30 3998 N 391.696 -1.35014 -0.812953 0
M  V30 3999 C 392.921 -1.31187 -1.60639 0
M  V30 4000 C 393.346 0.109382 -1.87782 0
M  V30 4001 O 392.704 1.07424 -1.46047 0
M  V30 4002 C 392.752 -2.11809 -2.91838 0
M  V30 4003 O 391.856 -1.49444 -3.8437 0
M  V30 4004 H 391.197 -0.450084 -0.488181 0
M  V30 4005 H 393.727 -1.77963 -1.00947 0
M  V30 4006 H 393.737 -2.23531 -3.41318 0
M  V30 4007 H 392.412 -3.15137 -2.71407 0
M  V30 4008 H 390.989 -1.46524 -3.42907 0
M  V30 4009 N 393.175 1.03435 -1.18907 0
M  V30 4010 C 394.405 1.8012 -1.01195 0
M  V30 4011 C 394.813 1.8395 0.442613 0
M  V30 4012 O 394.156 1.27836 1.31923 0
M  V30 4013 C 394.218 3.26792 -1.49823 0
M  V30 4014 C 393.882 3.46609 -2.97844 0
M  V30 4015 C 394.879 3.37278 -3.95651 0
M  V30 4016 C 392.564 3.73001 -3.36416 0
M  V30 4017 C 394.558 3.54054 -5.30023 0
M  V30 4018 C 392.245 3.89423 -4.70949 0
M  V30 4019 C 393.243 3.79951 -5.67562 0
M  V30 4020 O 392.931 3.95895 -6.99659 0
M  V30 4021 H 392.663 0.573865 -0.357289 0
M  V30 4022 H 395.217 1.31207 -1.58031 0
M  V30 4023 H 393.447 3.76703 -0.873578 0
M  V30 4024 H 395.136 3.85055 -1.28404 0
M  V30 4025 H 395.902 3.16846 -3.67197 0
M  V30 4026 H 391.781 3.79469 -2.61772 0
M  V30 4027 H 395.325 3.46577 -6.05417 0
M  V30 4028 H 391.222 4.09351 -4.99101 0
M  V30 4029 H 391.99 4.13019 -7.06653 0
M  V30 4030 N 394.653 0.992116 1.22453 0
M  V30 4031 C 395.9 0.667534 1.91181 0
M  V30 4032 C 396.228 -0.800317 1.77271 0
M  V30 4033 O 395.483 -1.59421 1.13505 0
M  V30 4034 C 395.782 1.01832 3.42586 0
M  V30 4035 C 395.448 2.47831 3.76684 0
M  V30 4036 C 394.11 2.87729 3.85701 0
M  V30 4037 C 396.462 3.42466 3.92895 0
M  V30 4038 C 393.79 4.21252 4.08367 0
M  V30 4039 C 396.142 4.75648 4.17064 0
M  V30 4040 C 394.806 5.15288 4.24305 0
M  V30 4041 H 394.076 0.244268 0.699581 0
M  V30 4042 H 396.723 1.24816 1.45235 0
M  V30 4043 H 395.028 0.355769 3.90181 0
M  V30 4044 H 396.725 0.745228 3.94014 0
M  V30 4045 H 393.315 2.15905 3.70247 0
M  V30 4046 H 397.499 3.12814 3.85307 0
M  V30 4047 H 392.755 4.51554 4.122 0
M  V30 4048 H 396.929 5.48924 4.2855 0
M  V30 4049 H 394.556 6.18769 4.41621 0
M  V30 4050 N 396.131 -1.37776 0.765217 0
M  V30 4051 C 397.063 -2.28958 0.105361 0
M  V30 4052 C 398.076 -1.48316 -0.67128 0
M  V30 4053 O 399.265 -1.71046 -0.51045 0
M  V30 4054 C 396.365 -3.27421 -0.874569 0
M  V30 4055 C 395.538 -4.37132 -0.153123 0
M  V30 4056 C 394.597 -5.1571 -1.04547 0
M  V30 4057 O 393.623 -5.66896 -0.511672 0
M  V30 4058 N 394.825 -5.29808 -2.37243 0
M  V30 4059 H 397.59 -2.86227 0.888495 0
M  V30 4060 H 395.151 -1.49682 0.617 0
M  V30 4061 H 397.143 -3.7687 -1.47483 0
M  V30 4062 H 395.713 -2.70967 -1.55871 0
M  V30 4063 H 394.933 -3.89166 0.627975 0
M  V30 4064 H 396.221 -5.07625 0.345643 0
M  V30 4065 H 395.619 -4.89793 -2.83054 0
M  V30 4066 H 394.176 -5.82589 -2.9229 0
M  V30 4067 N 397.609 -0.515225 -1.4894 0
M  V30 4068 C 398.557 0.269115 -2.31038 0
M  V30 4069 C 399.551 0.949443 -1.40292 0
M  V30 4070 O 400.757 0.87551 -1.57273 0
M  V30 4071 H 397.132 0.10565 -0.744542 0
M  V30 4072 H 399.103 -0.443096 -2.95092 0
M  V30 4073 C 397.852 1.31213 -3.21991 0
M  V30 4074 H 397.175 0.798034 -3.91754 0
M  V30 4075 H 398.615 1.83263 -3.82349 0
M  V30 4076 C 397.074 2.33791 -2.42576 0
M  V30 4077 O 397.604 3.3995 -2.14003 0
M  V30 4078 N 395.81 2.06625 -2.0434 0
M  V30 4079 H 395.357 1.20314 -2.27777 0
M  V30 4080 H 395.315 2.75483 -1.51514 0
M  V30 4081 N 399.087 1.5561 -0.249682 0
M  V30 4082 C 399.997 2.25143 0.659375 0
M  V30 4083 C 401.013 1.2685 1.19101 0
M  V30 4084 O 402.189 1.59732 1.22669 0
M  V30 4085 C 399.254 2.93945 1.8384 0
M  V30 4086 C 398.315 4.07655 1.34596 0
M  V30 4087 C 397.548 4.73167 2.46878 0
M  V30 4088 O 397.771 4.37768 3.65671 0
M  V30 4089 O 396.705 5.61623 2.16478 0
M  V30 4090 H 400.531 3.03545 0.0968698 0
M  V30 4091 H 398.116 1.49389 -0.018074 0
M  V30 4092 H 399.998 3.37271 2.52638 0
M  V30 4093 H 398.673 2.18481 2.38847 0
M  V30 4094 H 397.58 3.68839 0.625174 0
M  V30 4095 H 398.913 4.84946 0.841941 0
M  V30 4096 N 400.565 -0.0233959 1.57583 0
M  V30 4097 C 401.976 -0.56927 1.77809 0
M  V30 4098 C 402.327 -1.75284 0.881472 0
M  V30 4099 O 401.452 -2.1626 0.0777805 0
M  V30 4100 C 402.047 -1.03949 3.22459 0
M  V30 4101 C 400.606 -1.53084 3.43864 0
M  V30 4102 C 399.753 -0.471454 2.73263 0
M  V30 4103 H 402.704 0.202825 1.57399 0
M  V30 4104 H 402.725 -1.90661 3.29285 0
M  V30 4105 H 402.237 -0.177865 3.87692 0
M  V30 4106 H 400.338 -2.41414 2.83814 0
M  V30 4107 H 400.451 -1.57443 4.52491 0
M  V30 4108 H 398.815 -0.927788 2.37201 0
M  V30 4109 H 399.598 0.380808 3.41181 0
M  V30 4110 N 402.043 -1.548 -0.295768 0
M  V30 4111 C 402.953 -1.89177 -1.38742 0
M  V30 4112 C 403.969 -0.786481 -1.55211 0
M  V30 4113 O 405.145 -1.08344 -1.69775 0
M  V30 4114 C 402.21 -2.13663 -2.73036 0
M  V30 4115 C 401.271 -3.37349 -2.65508 0
M  V30 4116 C 400.504 -3.60658 -3.93398 0
M  V30 4117 O 400.727 -2.86882 -4.93006 0
M  V30 4118 O 399.661 -4.54179 -3.94975 0
M  V30 4119 H 403.487 -2.82059 -1.12589 0
M  V30 4120 H 401.072 -1.41056 -0.492295 0
M  V30 4121 H 402.954 -2.3094 -3.52484 0
M  V30 4122 H 401.629 -1.23967 -2.99022 0
M  V30 4123 H 400.536 -3.25431 -1.84514 0
M  V30 4124 H 401.869 -4.27192 -2.44474 0
M  V30 4125 N 403.521 0.559213 -1.47345 0
M  V30 4126 C 404.749 1.34194 -1.57479 0
M  V30 4127 C 405.164 1.87463 -0.224261 0
M  V30 4128 O 404.521 1.64888 0.782185 0
M  V30 4129 C 404.572 2.51324 -2.59843 0
M  V30 4130 O 404.293 2.00256 -3.89653 0
M  V30 4131 C 405.794 3.43563 -2.80142 0
M  V30 4132 H 403.014 0.409136 -0.531835 0
M  V30 4133 H 405.558 0.677609 -1.92947 0
M  V30 4134 H 403.713 3.13699 -2.27314 0
M  V30 4135 H 404.127 2.76708 -4.4557 0
M  V30 4136 H 405.601 4.2217 -3.55635 0
M  V30 4137 H 406.078 3.9698 -1.87892 0
M  V30 4138 H 406.684 2.87005 -3.1386 0
M  V30 4139 N 404.999 1.35443 0.805782 0
M  V30 4140 C 406.247 1.28507 1.55982 0
M  V30 4141 C 406.568 -0.140046 1.94496 0
M  V30 4142 O 405.838 -1.07666 1.63661 0
M  V30 4143 H 404.418 0.472676 0.578434 0
M  V30 4144 H 407.08 1.69555 0.961098 0
M  V30 4145 H 406.176 1.90148 2.47488 0
M  V30 4146 N 406.477 -1.02803 1.19454 0
M  V30 4147 C 407.707 -1.79581 1.02149 0
M  V30 4148 C 408.115 -1.84182 -0.432851 0
M  V30 4149 O 407.458 -1.28534 -1.31243 0
M  V30 4150 C 407.52 -3.25993 1.51554 0
M  V30 4151 C 407.184 -3.45025 2.99678 0
M  V30 4152 C 408.181 -3.35175 3.97434 0
M  V30 4153 C 405.866 -3.71212 3.38389 0
M  V30 4154 C 407.86 -3.51238 5.31893 0
M  V30 4155 C 405.547 -3.8692 4.73008 0
M  V30 4156 C 406.545 -3.76936 5.69569 0
M  V30 4157 O 406.233 -3.92179 7.01748 0
M  V30 4158 H 405.965 -0.571962 0.360327 0
M  V30 4159 H 408.519 -1.30367 1.58725 0
M  V30 4160 H 406.749 -3.76235 0.893543 0
M  V30 4161 H 408.438 -3.84368 1.30444 0
M  V30 4162 H 409.204 -3.14895 3.68872 0
M  V30 4163 H 405.083 -3.78075 2.6378 0
M  V30 4164 H 408.627 -3.43362 6.07247 0
M  V30 4165 H 404.524 -4.06699 5.01265 0
M  V30 4166 H 405.292 -4.09265 7.08833 0
M  V30 4167 N 407.956 -0.998596 -1.21925 0
M  V30 4168 C 409.186 -0.695276 -1.94549 0
M  V30 4169 C 409.594 0.745079 -1.73911 0
M  V30 4170 O 408.937 1.51507 -1.03881 0
M  V30 4171 C 408.999 -0.928485 -3.47303 0
M  V30 4172 C 408.663 -2.35443 -3.91683 0
M  V30 4173 C 409.66 -3.33428 -3.98901 0
M  V30 4174 C 407.345 -2.69038 -4.24174 0
M  V30 4175 C 409.339 -4.63079 -4.37992 0
M  V30 4176 C 407.026 -3.98906 -4.62944 0
M  V30 4177 C 408.024 -4.95738 -4.69822 0
M  V30 4178 O 407.712 -6.23285 -5.07711 0
M  V30 4179 H 407.444 -0.255902 -0.625692 0
M  V30 4180 H 409.998 -1.33767 -1.5587 0
M  V30 4181 H 408.228 -0.228917 -3.86022 0
M  V30 4182 H 409.917 -0.619539 -4.01144 0
M  V30 4183 H 410.683 -3.08807 -3.73983 0
M  V30 4184 H 406.562 -1.94367 -4.18022 0
M  V30 4185 H 410.106 -5.38658 -4.43275 0
M  V30 4186 H 406.003 -4.23314 -4.87314 0
M  V30 4187 H 406.771 -6.27306 -5.25766 0
M  V30 4188 N 409.434 1.37368 -0.772513 0
M  V30 4189 C 410.682 1.99279 -0.336516 0
M  V30 4190 C 411.003 1.6163 1.09091 0
M  V30 4191 O 410.273 0.882109 1.74916 0
M  V30 4192 H 408.853 0.737063 -0.121435 0
M  V30 4193 H 411.515 1.67836 -0.990809 0
M  V30 4194 H 410.611 3.09332 -0.414763 0
M  V30 4195 N 410.912 0.523116 1.48665 0
M  V30 4196 C 412.158 -0.00540031 2.03399 0
M  V30 4197 C 412.513 -1.3264 1.39372 0
M  V30 4198 O 411.806 -1.84184 0.527916 0
M  V30 4199 C 412 -0.191671 3.56886 0
M  V30 4200 C 411.829 1.10972 4.35793 0
M  V30 4201 C 410.599 1.66769 4.76987 0
M  V30 4202 C 412.797 2.01861 4.73029 0
M  V30 4203 N 410.779 2.91268 5.40404 0
M  V30 4204 C 412.15 3.10937 5.36394 0
M  V30 4205 C 414.205 2.02271 4.54962 0
M  V30 4206 C 412.908 4.20478 5.83601 0
M  V30 4207 C 414.934 3.10802 5.03146 0
M  V30 4208 C 414.296 4.18597 5.6653 0
M  V30 4209 H 410.395 0.0393531 0.781009 0
M  V30 4210 H 412.979 0.702876 1.8157 0
M  V30 4211 H 411.15 -0.869025 3.78553 0
M  V30 4212 H 412.882 -0.719177 3.98259 0
M  V30 4213 H 409.637 1.20996 4.57883 0
M  V30 4214 H 410.061 3.54635 5.76683 0
M  V30 4215 H 414.703 1.2023 4.05345 0
M  V30 4216 H 412.421 5.03303 6.32228 0
M  V30 4217 H 416.007 3.12166 4.90962 0
M  V30 4218 H 414.887 5.01193 6.03138 0
M  V30 4219 N 412.39 -1.55475 0.257931 0
M  V30 4220 C 413.32 -2.24815 -0.630912 0
M  V30 4221 C 414.301 -1.23224 -1.17259 0
M  V30 4222 O 415.486 -1.51904 -1.20991 0
M  V30 4223 C 412.616 -2.95609 -1.82298 0
M  V30 4224 C 411.57 -4.03982 -1.41359 0
M  V30 4225 C 410.896 -4.6226 -2.68738 0
M  V30 4226 C 412.196 -5.19109 -0.57648 0
M  V30 4227 H 413.89 -2.99354 -0.0526878 0
M  V30 4228 H 411.436 -1.4398 -0.023901 0
M  V30 4229 H 413.389 -3.42822 -2.45054 0
M  V30 4230 H 412.113 -2.18577 -2.42676 0
M  V30 4231 H 410.772 -3.57555 -0.809324 0
M  V30 4232 H 410.42 -3.81915 -3.27338 0
M  V30 4233 H 410.12 -5.35424 -2.42065 0
M  V30 4234 H 411.644 -5.12212 -3.32372 0
M  V30 4235 H 413.058 -5.62479 -1.10861 0
M  V30 4236 H 411.455 -5.98729 -0.405351 0
M  V30 4237 H 412.525 -4.83174 0.408776 0
M  V30 4238 N 413.868 0.0150385 -1.57593 0
M  V30 4239 C 415.279 0.559832 -1.78109 0
M  V30 4240 C 415.63 1.74814 -0.890756 0
M  V30 4241 O 414.755 2.16216 -0.0892482 0
M  V30 4242 C 415.35 1.02238 -3.23006 0
M  V30 4243 C 413.909 1.51258 -3.44671 0
M  V30 4244 C 413.056 0.456955 -2.73509 0
M  V30 4245 H 416.007 -0.211169 -1.57289 0
M  V30 4246 H 416.028 1.88912 -3.30292 0
M  V30 4247 H 415.54 0.157302 -3.87781 0
M  V30 4248 H 413.641 2.39905 -2.8509 0
M  V30 4249 H 413.754 1.55042 -4.5332 0
M  V30 4250 H 412.118 0.915196 -2.37689 0
M  V30 4251 H 412.901 -0.398896 -3.40975 0
M  V30 4252 N 415.346 1.54954 0.287554 0
M  V30 4253 C 416.293 1.86834 1.35505 0
M  V30 4254 C 417.263 0.718452 1.49758 0
M  V30 4255 O 418.448 0.968358 1.644 0
M  V30 4256 C 415.588 2.13303 2.71286 0
M  V30 4257 C 414.701 3.40883 2.65373 0
M  V30 4258 C 413.836 3.57125 3.93236 0
M  V30 4259 C 412.875 4.78449 3.81776 0
M  V30 4260 N 412.012 4.91426 5.01443 0
M  V30 4261 H 416.852 2.77889 1.07619 0
M  V30 4262 H 414.389 1.37593 0.520241 0
M  V30 4263 H 416.347 2.26646 3.50267 0
M  V30 4264 H 414.977 1.25499 2.97405 0
M  V30 4265 H 414.029 3.36088 1.78182 0
M  V30 4266 H 415.341 4.29993 2.52799 0
M  V30 4267 H 414.495 3.70207 4.80658 0
M  V30 4268 H 413.234 2.66173 4.0866 0
M  V30 4269 H 412.239 4.65386 2.92738 0
M  V30 4270 H 413.464 5.70822 3.67884 0
M  V30 4271 H 411.41 4.03401 5.17304 0
M  V30 4272 H 411.327 5.74559 4.91343 0
M  V30 4273 H 412.595 5.08879 5.90477 0
M  V30 4274 N 416.824 -0.551391 1.4764 0
M  V30 4275 C 417.734 -1.68525 1.63207 0
M  V30 4276 C 418.75 -1.6621 0.514815 0
M  V30 4277 O 419.926 -1.85551 0.783113 0
M  V30 4278 C 416.991 -3.05025 1.64805 0
M  V30 4279 C 416.052 -3.18362 2.88 0
M  V30 4280 C 415.285 -4.4835 2.89513 0
M  V30 4281 O 415.508 -5.34163 2.00065 0
M  V30 4282 O 414.442 -4.65602 3.81443 0
M  V30 4283 H 418.268 -1.58333 2.59161 0
M  V30 4284 H 415.853 -0.722063 1.30792 0
M  V30 4285 H 417.735 -3.86245 1.68502 0
M  V30 4286 H 416.41 -3.15587 0.720197 0
M  V30 4287 H 415.317 -2.36518 2.89845 0
M  V30 4288 H 416.65 -3.12707 3.80099 0
M  V30 4289 N 418.302 -1.35869 -0.798587 0
M  V30 4290 C 419.55 -1.29332 -1.55298 0
M  V30 4291 C 419.871 0.129729 -1.94568 0
M  V30 4292 O 419.141 1.06796 -1.6423 0
M  V30 4293 H 417.721 -0.475737 -0.57592 0
M  V30 4294 H 420.383 -1.70062 -0.952093 0
M  V30 4295 H 419.479 -1.91458 -2.46476 0
M  V30 4296 N 419.78 1.02168 -1.19998 0
M  V30 4297 C 421.008 1.79296 -1.03249 0
M  V30 4298 C 421.423 1.84103 0.418502 0
M  V30 4299 O 420.78 1.29031 1.29063 0
M  V30 4300 C 420.831 3.24007 -1.60319 0
M  V30 4301 O 420.552 3.19512 -2.99739 0
M  V30 4302 C 422.053 4.17704 -1.48453 0
M  V30 4303 H 419.273 0.564016 -0.363493 0
M  V30 4304 H 421.817 1.28639 -1.58973 0
M  V30 4305 H 419.972 3.7183 -1.08727 0
M  V30 4306 H 420.386 4.10306 -3.26725 0
M  V30 4307 H 421.86 5.17104 -1.93153 0
M  V30 4308 H 422.337 4.37029 -0.436193 0
M  V30 4309 H 422.943 3.7576 -1.99211 0
M  V30 4310 N 421.258 1.00505 1.21394 0
M  V30 4311 C 422.504 0.688793 1.90745 0
M  V30 4312 C 422.837 -0.778486 1.77914 0
M  V30 4313 O 422.112 -1.56433 1.15581 0
M  V30 4314 C 422.395 1.11063 3.42545 0
M  V30 4315 C 422.248 2.63737 3.64367 0
M  V30 4316 C 423.567 0.673059 4.34923 0
M  V30 4317 H 420.686 0.251702 0.692687 0
M  V30 4318 H 423.328 1.25074 1.43026 0
M  V30 4319 H 421.478 0.632508 3.83317 0
M  V30 4320 H 423.15 3.19313 3.32922 0
M  V30 4321 H 421.393 3.05248 3.08231 0
M  V30 4322 H 422.064 2.88305 4.70727 0
M  V30 4323 H 424.54 1.08392 4.01734 0
M  V30 4324 H 423.416 0.996383 5.39781 0
M  V30 4325 H 423.677 -0.425808 4.40045 0
M  V30 4326 N 422.737 -1.36956 0.779787 0
M  V30 4327 C 423.647 -2.33965 0.172491 0
M  V30 4328 C 424.663 -1.60574 -0.670222 0
M  V30 4329 O 425.839 -1.92617 -0.588263 0
M  V30 4330 C 422.904 -3.39761 -0.690173 0
M  V30 4331 C 421.965 -4.28964 0.169924 0
M  V30 4332 C 421.198 -5.29707 -0.651662 0
M  V30 4333 O 421.421 -5.38238 -1.88827 0
M  V30 4334 O 420.355 -6.01873 -0.0566264 0
M  V30 4335 H 424.181 -2.87647 0.974321 0
M  V30 4336 H 421.766 -1.39258 0.541078 0
M  V30 4337 H 423.648 -4.04471 -1.1824 0
M  V30 4338 H 422.323 -2.88394 -1.47006 0
M  V30 4339 H 421.23 -3.67326 0.708696 0
M  V30 4340 H 422.563 -4.83656 0.913085 0
M  V30 4341 N 424.215 -0.530993 -1.48385 0
M  V30 4342 C 425.626 -0.0907905 -1.86479 0
M  V30 4343 C 425.977 1.33213 -1.44044 0
M  V30 4344 O 425.102 1.99783 -0.831615 0
M  V30 4345 C 425.697 -0.157987 -3.38431 0
M  V30 4346 C 424.256 0.227026 -3.75715 0
M  V30 4347 C 423.403 -0.5173 -2.72432 0
M  V30 4348 H 426.354 -0.742186 -1.40276 0
M  V30 4349 H 426.375 0.630053 -3.75247 0
M  V30 4350 H 425.887 -1.19372 -3.69286 0
M  V30 4351 H 423.988 1.26486 -3.50474 0
M  V30 4352 H 424.101 -0.113288 -4.78966 0
M  V30 4353 H 422.465 0.0365527 -2.54674 0
M  V30 4354 H 423.248 -1.55368 -3.0613 0
M  V30 4355 N 425.693 1.55336 -0.266172 0
M  V30 4356 C 426.623 2.25146 0.618981 0
M  V30 4357 C 427.604 1.23845 1.16604 0
M  V30 4358 O 428.789 1.52544 1.20183 0
M  V30 4359 C 425.919 2.96572 1.80728 0
M  V30 4360 C 424.873 4.04726 1.39215 0
M  V30 4361 C 424.199 4.63678 2.66283 0
M  V30 4362 C 425.499 5.19407 0.548942 0
M  V30 4363 H 427.193 2.99377 0.0368116 0
M  V30 4364 H 424.739 1.43991 0.0162651 0
M  V30 4365 H 426.692 3.44116 2.43232 0
M  V30 4366 H 425.416 2.19861 2.41514 0
M  V30 4367 H 424.075 3.57979 0.790351 0
M  V30 4368 H 423.723 3.83646 3.25308 0
M  V30 4369 H 423.423 5.367 2.39222 0
M  V30 4370 H 424.947 5.13967 3.29651 0
M  V30 4371 H 426.361 5.63059 1.07876 0
M  V30 4372 H 424.758 5.98936 0.373593 0
M  V30 4373 H 425.828 4.8295 -0.434394 0
M  V30 4374 N 427.171 -0.0066808 1.57599 0
M  V30 4375 C 428.582 -0.550379 1.78403 0
M  V30 4376 C 428.933 -1.74339 0.900014 0
M  V30 4377 O 428.058 -2.16166 0.100713 0
M  V30 4378 C 428.653 -1.00523 3.23544 0
M  V30 4379 C 427.212 -1.49428 3.45468 0
M  V30 4380 C 426.359 -0.442444 2.73748 0
M  V30 4381 H 429.31 0.219508 1.57175 0
M  V30 4382 H 429.331 -1.87157 3.31289 0
M  V30 4383 H 428.843 -0.136735 3.87859 0
M  V30 4384 H 426.944 -2.3839 2.86358 0
M  V30 4385 H 427.057 -1.52635 4.54136 0
M  V30 4386 H 425.421 -0.902578 2.38171 0
M  V30 4387 H 426.204 0.416973 3.40758 0
M  V30 4388 N 428.649 -1.55105 -0.279332 0
M  V30 4389 C 429.597 -1.88333 -1.36505 0
M  V30 4390 C 430.591 -0.759043 -1.51443 0
M  V30 4391 O 431.797 -0.943312 -1.53302 0
M  V30 4392 H 428.172 -0.59766 -0.456406 0
M  V30 4393 H 430.143 -2.79041 -1.05728 0
M  V30 4394 C 428.892 -2.16628 -2.7197 0
M  V30 4395 H 428.215 -3.02624 -2.61264 0
M  V30 4396 H 429.655 -2.43803 -3.46895 0
M  V30 4397 C 428.114 -0.971807 -3.22579 0
M  V30 4398 O 428.644 -0.203228 -4.01186 0
M  V30 4399 N 426.85 -0.771238 -2.80179 0
M  V30 4400 H 426.397 -1.39792 -2.1637 0
M  V30 4401 H 426.355 0.0263667 -3.14389 0
M  V30 4402 N 430.127 0.543554 -1.4793 0
M  V30 4403 C 431.375 1.29752 -1.54948 0
M  V30 4404 C 431.696 1.93764 -0.219242 0
M  V30 4405 O 430.966 1.80639 0.75805 0
M  V30 4406 H 429.546 0.481874 -0.570795 0
M  V30 4407 H 432.208 0.633636 -1.84312 0
M  V30 4408 H 431.304 2.08392 -2.32334 0
M  V30 4409 N 431.605 1.3629 0.791371 0
M  V30 4410 C 432.552 1.30458 1.90393 0
M  V30 4411 C 433.522 0.173632 1.6519 0
M  V30 4412 O 434.707 0.35983 1.87376 0
M  V30 4413 C 431.847 1.09777 3.27174 0
M  V30 4414 C 430.96 2.31929 3.64462 0
M  V30 4415 C 430.095 2.04276 4.90352 0
M  V30 4416 C 429.134 3.224 5.20312 0
M  V30 4417 N 428.271 2.94424 6.37385 0
M  V30 4418 H 433.111 2.25589 1.94714 0
M  V30 4419 H 430.648 1.12122 0.952216 0
M  V30 4420 H 432.606 0.958133 4.06049 0
M  V30 4421 H 431.236 0.183014 3.22281 0
M  V30 4422 H 430.288 2.56703 2.80727 0
M  V30 4423 H 431.6 3.20085 3.82553 0
M  V30 4424 H 430.754 1.87231 5.77087 0
M  V30 4425 H 429.493 1.13428 4.74326 0
M  V30 4426 H 428.498 3.40005 4.32061 0
M  V30 4427 H 429.723 4.14071 5.38258 0
M  V30 4428 H 427.669 2.06185 6.22755 0
M  V30 4429 H 427.586 3.76118 6.55798 0
M  V30 4430 H 428.854 2.80953 7.27108 0
M  V30 4431 N 433.083 -1.0153 1.20538 0
M  V30 4432 C 434.499 -1.27461 0.96051 0
M  V30 4433 C 434.699 -1.98273 -0.359193 0
M  V30 4434 O 433.755 -2.27886 -1.0874 0
M  V30 4435 C 435.068 -2.10837 2.14402 0
M  V30 4436 C 436.616 -2.24099 2.18515 0
M  V30 4437 C 437.091 -3.10852 3.36355 0
M  V30 4438 N 438.582 -3.18441 3.36377 0
M  V30 4439 C 439.317 -3.85795 4.24205 0
M  V30 4440 N 438.813 -4.55264 5.22213 0
M  V30 4441 N 440.606 -3.82331 4.12043 0
M  V30 4442 H 432.757 -0.539907 2.05423 0
M  V30 4443 H 435.02 -0.30092 0.898972 0
M  V30 4444 H 434.726 -1.66144 3.09983 0
M  V30 4445 H 434.6 -3.11576 2.12604 0
M  V30 4446 H 436.987 -2.68016 1.23497 0
M  V30 4447 H 437.068 -1.22865 2.24361 0
M  V30 4448 H 436.712 -2.6764 4.31661 0
M  V30 4449 H 436.642 -4.12177 3.27746 0
M  V30 4450 H 439.133 -2.68978 2.65442 0
M  V30 4451 H 439.446 -5.04331 5.85551 0
M  V30 4452 H 437.791 -4.54085 5.26148 0
M  V30 4453 H 440.982 -3.27207 3.34743 0
M  V30 4454 H 441.155 -4.34547 4.807 0
M  V30 4455 N 434.561 -1.01147 -1.20859 0
M  V30 4456 C 435.491 -0.597663 -2.25722 0
M  V30 4457 C 436.472 0.384744 -1.65692 0
M  V30 4458 O 437.657 0.271303 -1.92296 0
M  V30 4459 C 434.787 0.0700149 -3.47229 0
M  V30 4460 C 433.741 -0.832843 -4.19819 0
M  V30 4461 C 433.067 -0.0312202 -5.34691 0
M  V30 4462 C 434.367 -2.1385 -4.76514 0
M  V30 4463 H 436.061 -1.47423 -2.60589 0
M  V30 4464 H 433.607 -0.710301 -1.25263 0
M  V30 4465 H 435.56 0.37103 -4.19763 0
M  V30 4466 H 434.284 0.981259 -3.11511 0
M  V30 4467 H 432.943 -1.11778 -3.49144 0
M  V30 4468 H 432.591 0.881515 -4.95215 0
M  V30 4469 H 432.291 -0.632434 -5.84187 0
M  V30 4470 H 433.815 0.26346 -6.10031 0
M  V30 4471 H 435.229 -1.9002 -5.40893 0
M  V30 4472 H 433.626 -2.69012 -5.36426 0
M  V30 4473 H 434.696 -2.80495 -3.95538 0
M  V30 4474 N 436.039 1.36541 -0.78704 0
M  V30 4475 C 437.45 1.81873 -0.421807 0
M  V30 4476 C 437.801 1.65487 1.05397 0
M  V30 4477 O 436.926 1.17448 1.81755 0
M  V30 4478 C 437.521 3.30192 -0.758841 0
M  V30 4479 C 436.08 3.73743 -0.446468 0
M  V30 4480 C 435.227 2.58844 -0.994728 0
M  V30 4481 H 438.178 1.24796 -0.98039 0
M  V30 4482 H 438.199 3.80468 -0.0490648 0
M  V30 4483 H 437.711 3.42087 -1.83299 0
M  V30 4484 H 435.812 3.6741 0.619739 0
M  V30 4485 H 435.925 4.69272 -0.965415 0
M  V30 4486 H 434.289 2.51245 -0.418087 0
M  V30 4487 H 435.072 2.73525 -2.07458 0
M  V30 4488 N 437.518 0.538854 1.48102 0
M  V30 4489 C 438.746 0.0123136 2.06896 0
M  V30 4490 C 439.161 -1.27312 1.39417 0
M  V30 4491 O 438.518 -1.75949 0.484582 0
M  V30 4492 C 438.569 -0.206118 3.60912 0
M  V30 4493 O 438.29 1.0284 4.25859 0
M  V30 4494 C 439.791 -0.772033 4.36526 0
M  V30 4495 H 437.011 0.0375239 0.66995 0
M  V30 4496 H 439.555 0.747032 1.90367 0
M  V30 4497 H 437.71 -0.89091 3.77017 0
M  V30 4498 H 438.124 0.814654 5.18135 0
M  V30 4499 H 439.598 -0.874251 5.45033 0
M  V30 4500 H 440.075 -1.77904 4.01555 0
M  V30 4501 H 440.681 -0.123526 4.25121 0
M  V30 4502 N 438.996 -1.55193 0.274407 0
M  V30 4503 C 440.273 -1.91584 -0.394331 0
M  V30 4504 C 440.653 -1.19858 -1.73774 0
M  V30 4505 O 440.001 -0.3252 -2.26174 0
M  V30 4506 C 440.211 -3.4487 -0.535311 0
M  V30 4507 C 441.559 -4.16636 -0.818534 0
M  V30 4508 O 442.583 -3.5076 -0.620146 0
M  V30 4509 O 441.442 -5.33209 -1.19792 0
M  V30 4510 H 438.536 -0.798349 -0.215794 0
M  V30 4511 H 441.082 -1.66646 0.320507 0
M  V30 4512 H 439.854 -3.89145 0.410141 0
M  V30 4513 H 439.477 -3.75759 -1.29964 0
M  V30 4514 N 440.474 -0.00167713 -1.576 0
M  V30 4515 C 441.721 0.68282 -1.90641 0
M  V30 4516 C 442.049 1.73686 -0.875415 0
M  V30 4517 O 441.304 1.95334 0.119575 0
M  V30 4518 C 441.603 1.36189 -3.30435 0
M  V30 4519 C 441.269 0.440887 -4.48739 0
M  V30 4520 C 439.931 0.187312 -4.80835 0
M  V30 4521 C 442.283 -0.193134 -5.20842 0
M  V30 4522 C 439.611 -0.70855 -5.82406 0
M  V30 4523 C 441.963 -1.07688 -6.23367 0
M  V30 4524 C 440.627 -1.33962 -6.53919 0
M  V30 4525 H 439.897 0.249862 -0.697603 0
M  V30 4526 H 442.544 -0.0575642 -1.91413 0
M  V30 4527 H 440.849 2.17636 -3.25794 0
M  V30 4528 H 442.546 1.89759 -3.5326 0
M  V30 4529 H 439.136 0.648694 -4.23663 0
M  V30 4530 H 443.32 -0.0102445 -4.96299 0
M  V30 4531 H 438.576 -0.920097 -6.04437 0
M  V30 4532 H 442.75 -1.57451 -6.78367 0
M  V30 4533 H 440.377 -2.03549 -7.32442 0
M  V30 4534 N 441.952 1.55251 0.271103 0
M  V30 4535 C 442.9 1.89054 1.35504 0
M  V30 4536 C 443.894 0.767064 1.51038 0
M  V30 4537 O 445.1 0.951429 1.528 0
M  V30 4538 H 441.475 0.600072 0.45323 0
M  V30 4539 H 443.446 2.79598 1.04247 0
M  V30 4540 C 442.195 2.18068 2.70817 0
M  V30 4541 H 441.518 3.04005 2.59656 0
M  V30 4542 H 442.958 2.4564 3.45597 0
M  V30 4543 C 441.417 0.988901 3.2206 0
M  V30 4544 O 441.947 0.224501 4.01072 0
M  V30 4545 N 440.153 0.786085 2.79766 0
M  V30 4546 H 439.7 1.40937 2.15626 0
M  V30 4547 H 439.658 -0.00969349 3.14399 0
M  V30 4548 N 443.43 -0.535701 1.48216 0
M  V30 4549 C 444.34 -1.66785 1.64985 0
M  V30 4550 C 445.356 -1.65654 0.532414 0
M  V30 4551 O 446.532 -1.8471 0.80275 0
M  V30 4552 C 443.597 -3.0326 1.68031 0
M  V30 4553 C 442.658 -3.1529 2.9136 0
M  V30 4554 C 441.891 -4.45255 2.94252 0
M  V30 4555 O 442.114 -5.32011 2.05719 0
M  V30 4556 O 441.048 -4.6153 3.86359 0
M  V30 4557 H 444.874 -1.55576 2.60825 0
M  V30 4558 H 442.459 -0.70815 1.31551 0
M  V30 4559 H 444.341 -3.84436 1.72589 0
M  V30 4560 H 443.016 -3.14805 0.753628 0
M  V30 4561 H 441.923 -2.3343 2.92337 0
M  V30 4562 H 443.256 -3.08658 3.83394 0
M  V30 4563 N 444.908 -1.36708 -0.784132 0
M  V30 4564 C 446.156 -1.30972 -1.53918 0
M  V30 4565 C 446.477 0.109086 -1.94695 0
M  V30 4566 O 445.747 1.05048 -1.65353 0
M  V30 4567 H 444.327 -0.481819 -0.570841 0
M  V30 4568 H 446.989 -1.71063 -0.934002 0
M  V30 4569 H 446.085 -1.94061 -2.44431 0
M  V30 4570 N 446.386 1.0089 -1.21074 0
M  V30 4571 C 447.349 2.0775 -0.968129 0
M  V30 4572 C 448.349 1.6069 0.0593445 0
M  V30 4573 O 449.539 1.73293 -0.177525 0
M  V30 4574 C 446.671 3.37794 -0.459108 0
M  V30 4575 H 447.864 2.30707 -1.9161 0
M  V30 4576 H 445.417 1.17807 -1.02719 0
M  V30 4577 H 446.152 3.20516 0.49397 0
M  V30 4578 H 445.937 3.7328 -1.20019 0
M  V30 4579 H 447.427 4.16454 -0.309099 0
M  V30 4580 N 447.864 1.01787 1.20321 0
M  V30 4581 C 448.811 0.589197 2.23153 0
M  V30 4582 C 449.781 -0.391367 1.61423 0
M  V30 4583 O 450.966 -0.290518 1.88575 0
M  V30 4584 C 448.106 -0.0650747 3.45039 0
M  V30 4585 C 447.219 0.960207 4.21194 0
M  V30 4586 C 446.354 0.276854 5.30478 0
M  V30 4587 C 445.393 1.2888 5.98378 0
M  V30 4588 N 444.53 0.632031 6.99249 0
M  V30 4589 H 449.37 1.47071 2.59179 0
M  V30 4590 H 446.907 0.736192 1.27352 0
M  V30 4591 H 448.865 -0.461552 4.14639 0
M  V30 4592 H 447.495 -0.910233 3.09701 0
M  V30 4593 H 446.547 1.47484 3.50646 0
M  V30 4594 H 447.859 1.72977 4.67847 0
M  V30 4595 H 447.013 -0.175056 6.06447 0
M  V30 4596 H 445.752 -0.525004 4.84866 0
M  V30 4597 H 444.757 1.75109 5.21169 0
M  V30 4598 H 445.982 2.09196 6.46076 0
M  V30 4599 H 443.928 -0.149935 6.55829 0
M  V30 4600 H 443.845 1.33964 7.44036 0
M  V30 4601 H 445.113 0.203755 7.79234 0
M  V30 4602 N 449.342 -1.36122 0.79427 0
M  V30 4603 C 450.29 -2.31871 0.184023 0
M  V30 4604 C 451.284 -1.56041 -0.659365 0
M  V30 4605 O 452.49 -1.71266 -0.553906 0
M  V30 4606 H 448.865 -0.750896 0.0407373 0
M  V30 4607 H 450.836 -2.80898 1.00693 0
M  V30 4608 C 449.585 -3.41324 -0.662813 0
M  V30 4609 H 448.908 -3.99793 -0.0231944 0
M  V30 4610 H 450.348 -4.10629 -1.05639 0
M  V30 4611 C 448.807 -2.83308 -1.82313 0
M  V30 4612 O 449.337 -2.75863 -2.91997 0
M  V30 4613 N 447.543 -2.40529 -1.63077 0
M  V30 4614 H 447.09 -2.46785 -0.738591 0
M  V30 4615 H 447.048 -2.02059 -2.40872 0
M  V30 4616 N 450.82 -0.546701 -1.47814 0
M  V30 4617 C 451.768 0.220048 -2.31557 0
M  V30 4618 C 452.762 0.919472 -1.42275 0
M  V30 4619 O 453.968 0.841953 -1.59095 0
M  V30 4620 H 450.343 0.0898334 -0.746615 0
M  V30 4621 H 452.314 -0.505589 -2.94086 0
M  V30 4622 C 451.063 1.24353 -3.24702 0
M  V30 4623 H 450.386 0.714758 -3.93359 0
M  V30 4624 H 451.826 1.75112 -3.8615 0
M  V30 4625 C 450.285 2.28593 -2.47481 0
M  V30 4626 O 450.815 3.35334 -2.21165 0
M  V30 4627 N 449.021 2.02244 -2.08676 0
M  V30 4628 H 448.568 1.15455 -2.30278 0
M  V30 4629 H 448.526 2.72207 -1.57323 0
M  V30 4630 N 452.299 1.55045 -0.282633 0
M  V30 4631 C 453.527 2.04168 0.33512 0
M  V30 4632 C 453.942 1.16071 1.48906 0
M  V30 4633 O 453.299 0.182391 1.81586 0
M  V30 4634 C 453.35 3.52332 0.808957 0
M  V30 4635 O 453.071 4.37078 -0.299038 0
M  V30 4636 C 454.572 4.17375 1.49375 0
M  V30 4637 H 451.792 0.666744 0.0754543 0
M  V30 4638 H 454.336 2.00205 -0.416918 0
M  V30 4639 H 452.491 3.56715 1.51106 0
M  V30 4640 H 452.905 5.24458 0.0665514 0
M  V30 4641 H 454.379 5.22627 1.77664 0
M  V30 4642 H 454.856 3.65999 2.42778 0
M  V30 4643 H 455.462 4.17016 0.835305 0
M  V30 4644 N 453.777 0.010035 1.57597 0
M  V30 4645 C 455.007 -0.682422 1.95004 0
M  V30 4646 C 455.415 -1.67278 0.884014 0
M  V30 4647 O 454.758 -1.83129 -0.144672 0
M  V30 4648 C 454.82 -1.46141 3.28456 0
M  V30 4649 C 454.484 -0.631523 4.52615 0
M  V30 4650 C 455.481 0.0850905 5.1983 0
M  V30 4651 C 453.166 -0.574539 4.99003 0
M  V30 4652 C 455.16 0.847566 6.3174 0
M  V30 4653 C 452.847 0.191655 6.10799 0
M  V30 4654 C 453.845 0.901432 6.77025 0
M  V30 4655 O 453.533 1.65511 7.86677 0
M  V30 4656 H 453.265 -0.194361 0.647456 0
M  V30 4657 H 455.819 0.060312 2.05311 0
M  V30 4658 H 454.049 -2.24885 3.14585 0
M  V30 4659 H 455.738 -2.04016 3.50902 0
M  V30 4660 H 456.504 0.0502812 4.84974 0
M  V30 4661 H 452.383 -1.11654 4.47274 0
M  V30 4662 H 455.927 1.4021 6.83364 0
M  V30 4663 H 451.824 0.228249 6.45096 0
M  V30 4664 H 452.592 1.57287 8.03245 0
M  V30 4665 N 455.255 -1.55392 -0.262866 0
M  V30 4666 C 456.48 -1.80847 -1.01533 0
M  V30 4667 C 456.905 -0.584946 -1.78774 0
M  V30 4668 O 456.263 0.465701 -1.75217 0
M  V30 4669 C 456.311 -3.03866 -1.94159 0
M  V30 4670 O 455.415 -2.79662 -3.03089 0
M  V30 4671 H 454.756 -0.597441 -0.289759 0
M  V30 4672 H 457.286 -2.02553 -0.288698 0
M  V30 4673 H 457.296 -3.32872 -2.35924 0
M  V30 4674 H 455.971 -3.92564 -1.37354 0
M  V30 4675 H 454.548 -2.61781 -2.65566 0
M  V30 4676 N 456.733 0.527833 -1.48498 0
M  V30 4677 C 458.149 0.856571 -1.34666 0
M  V30 4678 C 458.349 1.98271 -0.35931 0
M  V30 4679 O 457.405 2.51551 0.218703 0
M  V30 4680 C 458.718 1.22207 -2.74747 0
M  V30 4681 C 460.266 1.33183 -2.83251 0
M  V30 4682 C 460.741 1.73075 -4.24039 0
M  V30 4683 N 462.232 1.80174 -4.26722 0
M  V30 4684 C 462.967 2.1243 -5.32598 0
M  V30 4685 N 462.463 2.43096 -6.4875 0
M  V30 4686 N 464.256 2.13454 -5.19994 0
M  V30 4687 H 456.407 -0.215174 -2.11307 0
M  V30 4688 H 458.67 -0.0336281 -0.947403 0
M  V30 4689 H 458.376 0.468195 -3.4857 0
M  V30 4690 H 458.25 2.17173 -3.08409 0
M  V30 4691 H 460.637 2.07647 -2.09683 0
M  V30 4692 H 460.718 0.363333 -2.53206 0
M  V30 4693 H 460.362 0.991712 -4.98124 0
M  V30 4694 H 460.292 2.70979 -4.51529 0
M  V30 4695 H 462.783 1.58744 -3.42942 0
M  V30 4696 H 463.096 2.6682 -7.25277 0
M  V30 4697 H 461.441 2.40611 -6.52021 0
M  V30 4698 H 464.632 1.88956 -4.28268 0
M  V30 4699 H 464.805 2.38261 -6.02608 0
M  V30 4700 N 458.211 1.37122 0.776871 0
M  V30 4701 C 459.159 1.32549 1.91138 0
M  V30 4702 C 460.153 0.215119 1.68029 0
M  V30 4703 O 461.359 0.382852 1.75881 0
M  V30 4704 H 457.734 0.412952 0.62847 0
M  V30 4705 H 459.705 2.28332 1.92112 0
M  V30 4706 C 458.454 1.14422 3.28333 0
M  V30 4707 H 457.777 1.99115 3.46689 0
M  V30 4708 H 459.217 1.15272 4.0803 0
M  V30 4709 C 457.676 -0.150434 3.36564 0
M  V30 4710 O 458.206 -1.13584 3.85307 0
M  V30 4711 N 456.412 -0.19939 2.89915 0
M  V30 4712 H 455.959 0.603142 2.5044 0
M  V30 4713 H 455.917 -1.06526 2.95803 0
M  V30 4714 N 459.689 -1.00246 1.21608 0
M  V30 4715 C 460.599 -2.12515 0.993709 0
M  V30 4716 C 461.615 -1.73913 -0.0549939 0
M  V30 4717 O 462.791 -2.00943 0.135619 0
M  V30 4718 C 459.856 -3.42083 0.563953 0
M  V30 4719 C 458.917 -3.94843 1.68516 0
M  V30 4720 C 458.15 -5.18226 1.27582 0
M  V30 4721 O 458.373 -5.70201 0.150506 0
M  V30 4722 O 457.307 -5.64497 2.0887 0
M  V30 4723 H 461.133 -2.34152 1.93407 0
M  V30 4724 H 458.718 -1.10891 1.00118 0
M  V30 4725 H 460.6 -4.20073 0.334194 0
M  V30 4726 H 459.275 -3.21828 -0.347665 0
M  V30 4727 H 458.182 -3.18068 1.96935 0
M  V30 4728 H 459.515 -4.19512 2.5743 0
M  V30 4729 N 461.167 -1.02423 -1.1978 0
M  V30 4730 C 462.114 -0.601023 -2.22837 0
M  V30 4731 C 463.084 0.382801 -1.61629 0
M  V30 4732 O 464.269 0.280514 -1.88727 0
M  V30 4733 C 461.409 0.0467755 -3.45068 0
M  V30 4734 C 460.522 -0.98253 -4.20678 0
M  V30 4735 C 459.657 -0.304982 -5.30324 0
M  V30 4736 C 458.696 -1.32052 -5.97686 0
M  V30 4737 N 457.833 -0.669105 -6.98904 0
M  V30 4738 H 462.673 -1.48444 -2.58396 0
M  V30 4739 H 460.21 -0.742936 -1.2696 0
M  V30 4740 H 462.168 0.439556 -4.14878 0
M  V30 4741 H 460.798 0.893796 -3.10179 0
M  V30 4742 H 459.85 -1.49341 -3.49859 0
M  V30 4743 H 461.162 -1.75455 -4.66923 0
M  V30 4744 H 460.316 0.142893 -6.06532 0
M  V30 4745 H 459.055 0.499283 -4.85138 0
M  V30 4746 H 458.06 -1.7787 -5.20233 0
M  V30 4747 H 459.285 -2.1262 -6.44957 0
M  V30 4748 H 457.231 0.115152 -6.55899 0
M  V30 4749 H 457.148 -1.37908 -7.43315 0
M  V30 4750 H 458.416 -0.245076 -7.79115 0
M  V30 4751 N 462.645 1.35699 -0.801477 0
M  V30 4752 C 463.578 2.2768 -0.153922 0
M  V30 4753 C 464.556 1.47832 0.67709 0
M  V30 4754 O 465.74 1.77104 0.645474 0
M  V30 4755 C 462.867 3.2943 0.786986 0
M  V30 4756 C 461.913 4.26485 0.0362447 0
M  V30 4757 S 462.746 5.19573 -1.2963 0
M  V30 4758 C 463.902 6.24866 -0.359705 0
M  V30 4759 H 464.135 2.82254 -0.9338 0
M  V30 4760 H 461.668 1.42421 -0.596283 0
M  V30 4761 H 463.626 3.8855 1.32436 0
M  V30 4762 H 462.287 2.73745 1.54021 0
M  V30 4763 H 461.48 4.98378 0.750668 0
M  V30 4764 H 461.082 3.71508 -0.431017 0
M  V30 4765 H 463.374 6.75957 0.456954 0
M  V30 4766 H 464.317 7.00307 -1.04768 0
M  V30 4767 H 464.725 5.64484 0.0423274 0
M  V30 4768 N 464.123 0.554532 1.47522 0
M  V30 4769 C 465.369 0.0295227 2.02779 0
M  V30 4770 C 465.702 -1.31582 1.42828 0
M  V30 4771 O 464.977 -1.85561 0.582872 0
M  V30 4772 C 465.26 -0.0664057 3.60039 0
M  V30 4773 C 465.113 1.30585 4.30427 0
M  V30 4774 C 466.432 -0.781162 4.33112 0
M  V30 4775 H 463.551 0.0122027 0.736899 0
M  V30 4776 H 466.193 0.716305 1.7598 0
M  V30 4777 H 464.343 -0.651307 3.83002 0
M  V30 4778 H 466.015 1.93374 4.18813 0
M  V30 4779 H 464.258 1.88125 3.90886 0
M  V30 4780 H 464.929 1.19147 5.38988 0
M  V30 4781 H 467.405 -0.284565 4.15126 0
M  V30 4782 H 466.281 -0.817237 5.42782 0
M  V30 4783 H 466.542 -1.83672 4.0214 0
M  V30 4784 N 465.601 -1.54893 0.290851 0
M  V30 4785 C 466.849 -1.99538 -0.320756 0
M  V30 4786 C 467.17 -1.18075 -1.55188 0
M  V30 4787 O 466.44 -0.274162 -1.93972 0
M  V30 4788 H 465.02 -0.737052 -0.121507 0
M  V30 4789 H 467.682 -1.90755 0.399832 0
M  V30 4790 H 466.778 -3.06282 -0.599802 0
M  V30 4791 N 467.08 -0.0183926 -1.57589 0
M  V30 4792 C 468.31 0.67207 -1.95363 0
M  V30 4793 C 468.718 1.66807 -0.892872 0
M  V30 4794 O 468.061 1.83204 0.134958 0
M  V30 4795 C 468.123 1.44397 -3.29226 0
M  V30 4796 C 467.787 0.607511 -4.52944 0
M  V30 4797 C 468.784 -0.112657 -5.19778 0
M  V30 4798 C 466.469 0.548068 -4.99301 0
M  V30 4799 C 468.463 -0.881057 -6.31281 0
M  V30 4800 C 466.15 -0.224044 -6.10689 0
M  V30 4801 C 467.148 -0.937323 -6.76538 0
M  V30 4802 O 466.836 -1.6968 -7.85789 0
M  V30 4803 H 466.568 0.190925 -0.648478 0
M  V30 4804 H 469.122 -0.0711994 -2.05277 0
M  V30 4805 H 467.352 2.23214 -3.15773 0
M  V30 4806 H 469.041 2.02152 -3.51979 0
M  V30 4807 H 469.807 -0.0759998 -4.8494 0
M  V30 4808 H 465.686 1.09281 -4.4786 0
M  V30 4809 H 469.23 -1.43832 -6.82611 0
M  V30 4810 H 465.127 -0.262457 -6.44966 0
M  V30 4811 H 465.895 -1.61544 -8.024 0
M  V30 4812 N 468.558 1.5553 0.254621 0
M  V30 4813 C 469.783 1.81383 1.00573 0
M  V30 4814 C 470.208 0.594419 1.78461 0
M  V30 4815 O 469.566 -0.456403 1.75461 0
M  V30 4816 C 469.614 3.04892 1.92545 0
M  V30 4817 O 468.718 2.81266 3.01601 0
M  V30 4818 H 468.059 0.598969 0.286587 0
M  V30 4819 H 470.589 2.02703 0.277952 0
M  V30 4820 H 470.599 3.34119 2.34155 0
M  V30 4821 H 469.274 3.93287 1.3527 0
M  V30 4822 H 467.851 2.63185 2.64174 0
M  V30 4823 N 470.036 -0.519951 1.48776 0
M  V30 4824 C 471.283 -1.27522 1.57303 0
M  V30 4825 C 471.611 -1.92869 0.251328 0
M  V30 4826 O 470.866 -1.80372 -0.759243 0
M  V30 4827 C 471.165 -2.37864 2.6675 0
M  V30 4828 C 470.831 -1.90103 4.08867 0
M  V30 4829 C 469.493 -1.76795 4.47546 0
M  V30 4830 C 471.845 -1.54133 4.97888 0
M  V30 4831 C 469.173 -1.25868 5.73039 0
M  V30 4832 C 471.525 -1.04665 6.23881 0
M  V30 4833 C 470.189 -0.899823 6.61407 0
M  V30 4834 H 469.459 -0.466636 0.575614 0
M  V30 4835 H 472.106 -0.579109 1.82534 0
M  V30 4836 H 470.411 -3.13186 2.35418 0
M  V30 4837 H 472.108 -2.95969 2.70561 0
M  V30 4838 H 468.698 -2.01414 3.78326 0
M  V30 4839 H 472.882 -1.6327 4.68675 0
M  V30 4840 H 468.138 -1.13196 6.0083 0
M  V30 4841 H 472.312 -0.759074 6.92251 0
M  V30 4842 H 469.939 -0.503011 7.58534 0
M  V30 4843 N 471.514 -1.37532 -0.769588 0
M  V30 4844 C 472.791 -1.23392 -1.51768 0
M  V30 4845 C 473.171 0.17157 -2.10402 0
M  V30 4846 O 472.519 1.17943 -1.95708 0
M  V30 4847 C 472.729 -2.33163 -2.59685 0
M  V30 4848 C 474.077 -2.70809 -3.27028 0
M  V30 4849 O 475.101 -2.32355 -2.69981 0
M  V30 4850 O 473.96 -3.37066 -4.30173 0
M  V30 4851 H 471.054 -0.481617 -0.67229 0
M  V30 4852 H 473.6 -1.49318 -0.806368 0
M  V30 4853 H 472.372 -3.27273 -2.14494 0
M  V30 4854 H 471.995 -2.08713 -3.38415 0
M  V30 4855 N 472.992 0.995999 -1.22138 0
M  V30 4856 C 473.942 2.06988 -0.956042 0
M  V30 4857 C 474.926 1.60636 0.0921576 0
M  V30 4858 O 476.118 1.76607 -0.117958 0
M  V30 4859 C 473.247 3.39148 -0.532335 0
M  V30 4860 C 472.333 3.92142 -1.61509 0
M  V30 4861 N 472.724 4.18397 -2.84214 0
M  V30 4862 C 471.022 4.20514 -1.48606 0
M  V30 4863 C 471.723 4.61425 -3.54206 0
M  V30 4864 N 470.699 4.64934 -2.81669 0
M  V30 4865 H 474.501 2.25223 -1.88816 0
M  V30 4866 H 472.015 1.17748 -1.11845 0
M  V30 4867 H 474.012 4.15642 -0.323574 0
M  V30 4868 H 472.672 3.22314 0.392921 0
M  V30 4869 H 473.683 4.06682 -3.20671 0
M  V30 4870 H 470.36 4.12769 -0.626762 0
M  V30 4871 H 471.75 4.90387 -4.59315 0
M  V30 4872 N 474.47 1.03057 1.19235 0
M  V30 4873 C 475.38 0.622922 2.26179 0
M  V30 4874 C 476.396 -0.346113 1.70523 0
M  V30 4875 O 477.572 -0.203572 2.00369 0
M  V30 4876 C 474.637 -0.0182063 3.46695 0
M  V30 4877 C 473.698 0.998546 4.17526 0
M  V30 4878 C 472.931 0.387917 5.32288 0
M  V30 4879 O 473.154 -0.808668 5.64639 0
M  V30 4880 O 472.088 1.1116 5.91546 0
M  V30 4881 H 475.914 1.51363 2.63292 0
M  V30 4882 H 473.499 0.800856 1.26122 0
M  V30 4883 H 475.381 -0.375606 4.19723 0
M  V30 4884 H 474.056 -0.882895 3.11427 0
M  V30 4885 H 472.963 1.40756 3.4661 0
M  V30 4886 H 474.296 1.83366 4.56769 0
M  V30 4887 N 475.948 -1.35272 0.808662 0
M  V30 4888 C 477.195 -1.98709 0.390003 0
M  V30 4889 C 477.523 -1.64148 -1.04335 0
M  V30 4890 O 476.778 -0.897797 -1.73891 0
M  V30 4891 C 477.077 -3.53556 0.522798 0
M  V30 4892 C 476.743 -4.0799 1.91977 0
M  V30 4893 C 475.405 -4.22568 2.30195 0
M  V30 4894 C 477.757 -4.37442 2.83361 0
M  V30 4895 C 475.085 -4.63918 3.59162 0
M  V30 4896 C 477.437 -4.80232 4.11776 0
M  V30 4897 C 476.101 -4.93016 4.49991 0
M  V30 4898 H 475.371 -0.727127 0.142712 0
M  V30 4899 H 478.018 -1.6145 1.02985 0
M  V30 4900 H 476.323 -3.91287 -0.200494 0
M  V30 4901 H 478.02 -4.00598 0.179608 0
M  V30 4902 H 474.61 -3.97096 1.61284 0
M  V30 4903 H 478.794 -4.25731 2.55083 0
M  V30 4904 H 474.05 -4.72005 3.88615 0
M  V30 4905 H 478.224 -5.01982 4.82687 0
M  V30 4906 H 475.851 -5.24814 5.49976 0
M  V30 4907 N 477.426 -0.562348 -1.47226 0
M  V30 4908 C 478.374 0.195476 -2.31777 0
M  V30 4909 C 479.368 0.90433 -1.43242 0
M  V30 4910 O 480.574 0.825031 -1.59979 0
M  V30 4911 H 476.949 0.0819095 -0.747526 0
M  V30 4912 H 478.92 -0.536753 -2.93533 0
M  V30 4913 C 477.669 1.20902 -3.26003 0
M  V30 4914 H 476.992 0.672997 -3.94095 0
M  V30 4915 H 478.432 1.71006 -3.87986 0
M  V30 4916 C 476.891 2.25955 -2.49891 0
M  V30 4917 O 477.421 3.32969 -2.2471 0
M  V30 4918 N 475.627 2.00019 -2.1081 0
M  V30 4919 H 475.174 1.13006 -2.31489 0
M  V30 4920 H 475.132 2.70523 -1.60201 0
M  V30 4921 N 478.904 1.54736 -0.299062 0
M  V30 4922 C 480.181 1.92187 0.363802 0
M  V30 4923 C 480.561 1.22607 1.71845 0
M  V30 4924 O 479.909 0.361141 2.25628 0
M  V30 4925 C 480.119 3.45678 0.480377 0
M  V30 4926 C 481.467 4.17885 0.752147 0
M  V30 4927 O 482.491 3.51702 0.564264 0
M  V30 4928 O 481.35 5.35048 1.11294 0
M  V30 4929 H 478.444 0.801681 0.203066 0
M  V30 4930 H 480.99 1.66115 -0.346978 0
M  V30 4931 H 479.762 3.88443 -0.471999 0
M  V30 4932 H 479.385 3.77779 1.2397 0
M  V30 4933 N 480.382 0.0267497 1.57577 0
M  V30 4934 C 481.61 -0.662661 1.96001 0
M  V30 4935 C 482.025 -1.65799 0.903117 0
M  V30 4936 O 481.382 -1.82135 -0.115317 0
M  V30 4937 C 481.433 -1.37112 3.34488 0
M  V30 4938 O 481.154 -0.415683 4.36123 0
M  V30 4939 C 482.655 -2.15257 3.8753 0
M  V30 4940 H 479.875 -0.18287 0.6456 0
M  V30 4941 H 482.419 0.0858116 2.0432 0
M  V30 4942 H 480.574 -2.07101 3.27395 0
M  V30 4943 H 480.988 -0.918496 5.16395 0
M  V30 4944 H 482.462 -2.60285 4.86781 0
M  V30 4945 H 482.939 -2.99063 3.21649 0
M  V30 4946 H 483.545 -1.50231 3.97883 0
M  V30 4947 N 481.861 -1.55662 -0.24637 0
M  V30 4948 C 483.108 -1.77519 -0.974335 0
M  V30 4949 C 483.436 -0.591165 -1.85298 0
M  V30 4950 O 482.691 0.425497 -1.91018 0
M  V30 4951 C 482.99 -3.04885 -1.86494 0
M  V30 4952 C 482.656 -4.36209 -1.14161 0
M  V30 4953 C 481.318 -4.71896 -0.941701 0
M  V30 4954 C 483.67 -5.17391 -0.628957 0
M  V30 4955 C 480.998 -5.86299 -0.216852 0
M  V30 4956 C 483.35 -6.32546 0.0824273 0
M  V30 4957 C 482.014 -6.66853 0.293807 0
M  V30 4958 H 481.284 -0.649588 -0.356535 0
M  V30 4959 H 483.931 -1.89934 -0.244394 0
M  V30 4960 H 482.236 -2.87484 -2.66196 0
M  V30 4961 H 483.933 -3.18994 -2.42989 0
M  V30 4962 H 480.523 -4.08174 -1.30736 0
M  V30 4963 H 484.707 -4.90276 -0.770943 0
M  V30 4964 H 479.963 -6.11385 -0.0426124 0
M  V30 4965 H 484.137 -6.94693 0.487292 0
M  V30 4966 H 481.764 -7.55349 0.857428 0
M  V30 4967 N 483.339 0.512053 -1.4905 0
M  V30 4968 C 484.567 1.29116 -1.61669 0
M  V30 4969 C 484.982 1.86655 -0.283787 0
M  V30 4970 O 484.339 1.67293 0.729331 0
M  V30 4971 C 484.39 2.4293 -2.67707 0
M  V30 4972 O 484.111 1.87758 -3.95826 0
M  V30 4973 C 485.612 3.34476 -2.90931 0
M  V30 4974 H 482.832 0.392009 -0.544583 0
M  V30 4975 H 485.376 0.615881 -1.95006 0
M  V30 4976 H 483.531 3.06308 -2.37179 0
M  V30 4977 H 483.945 2.62393 -4.54148 0
M  V30 4978 H 485.419 4.10642 -3.68886 0
M  V30 4979 H 485.896 3.90801 -2.00427 0
M  V30 4980 H 486.502 2.76874 -3.22832 0
M  V30 4981 N 484.817 1.37938 0.762283 0
M  V30 4982 C 486.063 1.33866 1.52341 0
M  V30 4983 C 486.396 -0.0738961 1.94059 0
M  V30 4984 O 485.671 -1.03326 1.64785 0
M  V30 4985 C 485.954 2.28644 2.78197 0
M  V30 4986 C 485.807 3.78722 2.42672 0
M  V30 4987 C 487.126 2.21702 3.80179 0
M  V30 4988 H 484.245 0.487593 0.55265 0
M  V30 4989 H 486.887 1.68717 0.873767 0
M  V30 4990 H 485.037 1.99055 3.33631 0
M  V30 4991 H 486.709 4.18948 1.93081 0
M  V30 4992 H 484.952 3.96827 1.75244 0
M  V30 4993 H 485.623 4.40486 3.3268 0
M  V30 4994 H 488.099 2.47805 3.34263 0
M  V30 4995 H 486.975 2.90143 4.65949 0
M  V30 4996 H 487.236 1.21301 4.25133 0
M  V30 4997 N 486.295 -0.989507 1.22664 0
M  V30 4998 C 487.711 -1.25395 0.987331 0
M  V30 4999 C 487.911 -1.9899 -0.317056 0
M  V30 5000 O 486.967 -2.30141 -1.03882 0
M  V30 5001 C 488.28 -2.06242 2.18826 0
M  V30 5002 C 489.828 -2.19413 2.23219 0
M  V30 5003 C 490.303 -3.03648 3.42873 0
M  V30 5004 N 491.794 -3.11234 3.43056 0
M  V30 5005 C 492.529 -3.7671 4.32293 0
M  V30 5006 N 492.025 -4.44085 5.31752 0
M  V30 5007 N 493.818 -3.73505 4.2006 0
M  V30 5008 H 485.969 -0.496212 2.06522 0
M  V30 5009 H 488.232 -0.281784 0.905153 0
M  V30 5010 H 487.938 -1.59531 3.13437 0
M  V30 5011 H 487.812 -3.06996 2.19165 0
M  V30 5012 H 490.199 -2.65336 1.29154 0
M  V30 5013 H 490.28 -1.18078 2.26917 0
M  V30 5014 H 489.924 -2.58424 4.37241 0
M  V30 5015 H 489.854 -4.05132 3.36416 0
M  V30 5016 H 492.345 -2.63287 2.71088 0
M  V30 5017 H 492.658 -4.91797 5.96117 0
M  V30 5018 H 491.003 -4.42822 5.35662 0
M  V30 5019 H 494.194 -3.20033 3.41609 0
M  V30 5020 H 494.367 -4.24253 4.8981 0
M  V30 5021 N 487.773 -1.03688 -1.18687 0
M  V30 5022 C 488.705 -0.582696 -2.21669 0
M  V30 5023 C 489.718 0.345656 -1.59088 0
M  V30 5024 O 490.907 0.140776 -1.77944 0
M  V30 5025 C 488.007 0.169204 -3.38477 0
M  V30 5026 C 487.18 -0.766079 -4.30639 0
M  V30 5027 C 486.239 -0.0581541 -5.26168 0
M  V30 5028 O 485.265 -0.687346 -5.65035 0
M  V30 5029 N 486.467 1.20981 -5.67753 0
M  V30 5030 H 489.232 -1.46843 -2.61261 0
M  V30 5031 H 486.793 -0.916896 -1.33434 0
M  V30 5032 H 488.785 0.652543 -3.99405 0
M  V30 5033 H 487.355 0.956435 -2.97609 0
M  V30 5034 H 486.575 -1.42935 -3.67373 0
M  V30 5035 H 487.863 -1.40146 -4.89118 0
M  V30 5036 H 487.261 1.74159 -5.38224 0
M  V30 5037 H 485.818 1.6375 -6.30896 0
M  V30 5038 N 489.251 1.34841 -0.815825 0
M  V30 5039 C 490.199 2.31549 -0.220888 0
M  V30 5040 C 491.193 1.5707 0.634457 0
M  V30 5041 O 492.399 1.72125 0.526589 0
M  V30 5042 H 488.774 0.750153 -0.0526782 0
M  V30 5043 H 490.745 2.7926 -1.05149 0
M  V30 5044 C 489.494 3.42335 0.608427 0
M  V30 5045 H 488.817 3.9978 -0.0404121 0
M  V30 5046 H 490.257 4.12258 0.990931 0
M  V30 5047 C 488.716 2.86173 1.77782 0
M  V30 5048 O 489.246 2.80474 2.87571 0
M  V30 5049 N 487.452 2.43093 1.59229 0
M  V30 5050 H 486.999 2.47928 0.699237 0
M  V30 5051 H 486.957 2.05866 2.37627 0
M  V30 5052 N 490.729 0.570148 1.46925 0
M  V30 5053 C 491.659 -0.158274 2.32963 0
M  V30 5054 C 492.64 -0.896093 1.44583 0
M  V30 5055 O 493.825 -0.874022 1.7342 0
M  V30 5056 C 490.955 -1.18055 3.26619 0
M  V30 5057 C 489.909 -0.558379 4.24342 0
M  V30 5058 C 489.235 -1.68623 5.07415 0
M  V30 5059 C 490.535 0.496295 5.19937 0
M  V30 5060 H 492.229 0.560046 2.94115 0
M  V30 5061 H 489.775 0.270775 1.41431 0
M  V30 5062 H 491.728 -1.69841 3.85658 0
M  V30 5063 H 490.452 -1.92899 2.63548 0
M  V30 5064 H 489.111 -0.0617157 3.66548 0
M  V30 5065 H 488.759 -2.42402 4.40738 0
M  V30 5066 H 488.459 -1.27564 5.73586 0
M  V30 5067 H 489.983 -2.20709 5.69315 0
M  V30 5068 H 491.397 0.0640052 5.73264 0
M  V30 5069 H 489.794 0.82649 5.94381 0
M  V30 5070 H 490.864 1.38735 4.6463 0
M  V30 5071 N 492.207 -1.54576 0.307264 0
M  V30 5072 C 493.623 -1.59534 -0.0459251 0
M  V30 5073 C 493.823 -1.32414 -1.51884 0
M  V30 5074 O 492.879 -1.1006 -2.27251 0
M  V30 5075 C 494.192 -2.98566 0.357649 0
M  V30 5076 C 495.74 -3.11491 0.306937 0
M  V30 5077 C 496.215 -4.52842 0.685427 0
M  V30 5078 N 497.706 -4.58782 0.638203 0
M  V30 5079 C 498.441 -5.66238 0.903458 0
M  V30 5080 N 497.937 -6.81703 1.23501 0
M  V30 5081 N 499.73 -5.55937 0.830102 0
M  V30 5082 H 491.881 -1.70464 1.26712 0
M  V30 5083 H 494.144 -0.79647 0.514139 0
M  V30 5084 H 493.85 -3.23356 1.38325 0
M  V30 5085 H 493.724 -3.76117 -0.285565 0
M  V30 5086 H 496.111 -2.86446 -0.709424 0
M  V30 5087 H 496.192 -2.36081 0.984861 0
M  V30 5088 H 495.836 -4.78618 1.69963 0
M  V30 5089 H 495.766 -5.26598 -0.0146346 0
M  V30 5090 H 498.257 -3.75849 0.393138 0
M  V30 5091 H 498.57 -7.59582 1.42322 0
M  V30 5092 H 496.915 -6.8324 1.27311 0
M  V30 5093 H 500.106 -4.64608 0.570693 0
M  V30 5094 H 500.279 -6.39597 1.04019 0
M  V30 5095 N 493.685 -0.035106 -1.57561 0
M  V30 5096 C 494.932 0.642229 -1.92046 0
M  V30 5097 C 495.26 1.7179 -0.91206 0
M  V30 5098 O 494.515 1.95544 0.0781153 0
M  V30 5099 C 494.814 1.29149 -3.3325 0
M  V30 5100 C 494.48 0.345604 -4.49574 0
M  V30 5101 C 493.142 0.0852775 -4.81124 0
M  V30 5102 C 495.494 -0.303569 -5.20315 0
M  V30 5103 C 492.822 -0.831927 -5.80772 0
M  V30 5104 C 495.174 -1.20886 -6.20942 0
M  V30 5105 C 493.838 -1.47802 -6.50931 0
M  V30 5106 H 493.108 0.235008 -0.702746 0
M  V30 5107 H 495.755 -0.0981529 -1.91248 0
M  V30 5108 H 494.06 2.10676 -3.30337 0
M  V30 5109 H 495.757 1.82223 -3.57205 0
M  V30 5110 H 492.347 0.558683 -4.24943 0
M  V30 5111 H 496.531 -0.115515 -4.96166 0
M  V30 5112 H 491.787 -1.0481 -6.02349 0
M  V30 5113 H 495.961 -1.71804 -6.74875 0
M  V30 5114 H 493.588 -2.19039 -7.2796 0
M  V30 5115 N 495.163 1.55791 0.238111 0
M  V30 5116 C 496.126 1.90239 1.27835 0
M  V30 5117 C 497.126 0.779552 1.4064 0
M  V30 5118 O 498.316 1.04747 1.3919 0
M  V30 5119 C 495.448 2.13859 2.65475 0
M  V30 5120 H 496.641 2.83262 0.985034 0
M  V30 5121 H 494.194 1.48818 0.477799 0
M  V30 5122 H 494.929 1.23334 2.99932 0
M  V30 5123 H 494.714 2.95643 2.57561 0
M  V30 5124 H 496.204 2.41664 3.40571 0
M  V30 5125 N 496.642 -0.504142 1.49319 0
M  V30 5126 C 497.552 -1.63248 1.68486 0
M  V30 5127 C 498.568 -1.64488 0.567432 0
M  V30 5128 O 499.744 -1.82966 0.841749 0
M  V30 5129 C 496.809 -2.99627 1.74426 0
M  V30 5130 C 495.87 -3.09039 2.97982 0
M  V30 5131 C 495.103 -4.38913 3.0363 0
M  V30 5132 O 495.326 -5.27528 2.16958 0
M  V30 5133 O 494.26 -4.53231 3.96062 0
M  V30 5134 H 498.086 -1.50008 2.64067 0
M  V30 5135 H 495.671 -0.680086 1.33023 0
M  V30 5136 H 497.553 -3.80689 1.80705 0
M  V30 5137 H 496.228 -3.13136 0.820233 0
M  V30 5138 H 495.135 -2.27177 2.97223 0
M  V30 5139 H 496.468 -3.00456 3.89855 0
M  V30 5140 N 498.12 -1.38341 -0.754957 0
M  V30 5141 C 499.068 -1.35573 -1.89005 0
M  V30 5142 C 500.062 -0.241824 -1.67665 0
M  V30 5143 O 501.268 -0.410785 -1.7525 0
M  V30 5144 H 497.643 -0.422898 -0.621821 0
M  V30 5145 H 499.614 -2.31359 -1.88455 0
M  V30 5146 C 498.363 -1.19631 -3.26471 0
M  V30 5147 H 497.686 -2.04605 -3.43477 0
M  V30 5148 H 499.126 -1.21748 -4.06144 0
M  V30 5149 C 497.585 0.0968705 -3.36761 0
M  V30 5150 O 498.115 1.07439 -3.87066 0
M  V30 5151 N 496.321 0.153242 -2.90196 0
M  V30 5152 H 495.868 -0.642908 -2.49448 0
M  V30 5153 H 495.826 1.01807 -2.9746 0
M  V30 5154 N 499.598 0.982988 -1.23187 0
M  V30 5155 C 500.545 2.07491 -1.01075 0
M  V30 5156 C 501.515 1.65949 0.070905 0
M  V30 5157 O 502.7 1.90629 -0.0806822 0
M  V30 5158 C 499.84 3.39751 -0.605261 0
M  V30 5159 C 498.953 3.94578 -1.75876 0
M  V30 5160 C 498.088 5.15039 -1.3003 0
M  V30 5161 C 497.127 5.62027 -2.42472 0
M  V30 5162 N 496.264 6.73719 -1.97602 0
M  V30 5163 H 501.104 2.25739 -1.9454 0
M  V30 5164 H 498.641 1.10659 -0.969179 0
M  V30 5165 H 500.599 4.15719 -0.351279 0
M  V30 5166 H 499.229 3.21473 0.292382 0
M  V30 5167 H 498.281 3.1539 -2.12681 0
M  V30 5168 H 499.593 4.25422 -2.60418 0
M  V30 5169 H 498.747 5.9833 -1.00429 0
M  V30 5170 H 497.486 4.85843 -0.425216 0
M  V30 5171 H 496.491 4.77318 -2.7285 0
M  V30 5172 H 497.716 5.93244 -3.30512 0
M  V30 5173 H 495.662 6.46287 -1.1247 0
M  V30 5174 H 495.579 7.03934 -2.75705 0
M  V30 5175 H 496.847 7.6049 -1.71098 0
M  V30 5176 N 501.076 1.04316 1.18135 0
M  V30 5177 C 502.304 0.768117 1.92113 0
M  V30 5178 C 502.719 -0.675057 1.76319 0
M  V30 5179 O 502.076 -1.46038 1.09449 0
M  V30 5180 C 502.127 1.12808 3.43448 0
M  V30 5181 O 501.848 2.5146 3.58747 0
M  V30 5182 C 503.349 0.8779 4.3452 0
M  V30 5183 H 500.569 0.279937 0.609817 0
M  V30 5184 H 503.113 1.39149 1.49859 0
M  V30 5185 H 501.268 0.549623 3.83481 0
M  V30 5186 H 501.682 2.65313 4.52448 0
M  V30 5187 H 503.156 1.17959 5.39249 0
M  V30 5188 H 503.633 -0.187239 4.38801 0
M  V30 5189 H 504.239 1.43977 4.00188 0
M  V30 5190 N 502.554 -1.34406 0.822964 0
M  V30 5191 C 503.779 -2.0304 0.423034 0
M  V30 5192 C 504.204 -1.61568 -0.963196 0
M  V30 5193 O 503.562 -0.800339 -1.62678 0
M  V30 5194 C 503.61 -3.56636 0.53321 0
M  V30 5195 O 502.714 -4.09971 -0.446939 0
M  V30 5196 H 502.055 -0.64075 0.174171 0
M  V30 5197 H 504.585 -1.71653 1.11339 0
M  V30 5198 H 504.595 -4.05945 0.408991 0
M  V30 5199 H 503.27 -3.86168 1.54425 0
M  V30 5200 H 501.847 -3.71835 -0.281601 0
M  V30 5201 N 504.032 -0.577932 -1.46621 0
M  V30 5202 C 504.964 0.195801 -2.28362 0
M  V30 5203 C 505.977 0.859983 -1.38232 0
M  V30 5204 O 507.166 0.730349 -1.62875 0
M  V30 5205 C 504.266 1.29639 -3.13124 0
M  V30 5206 C 503.439 0.725049 -4.31349 0
M  V30 5207 C 502.498 1.71274 -4.97546 0
M  V30 5208 O 501.524 1.25067 -5.5529 0
M  V30 5209 N 502.726 3.04672 -4.94121 0
M  V30 5210 H 505.491 -0.505468 -2.95407 0
M  V30 5211 H 503.052 -0.415381 -1.56481 0
M  V30 5212 H 505.044 1.95631 -3.54275 0
M  V30 5213 H 503.614 1.90059 -2.48186 0
M  V30 5214 H 502.834 -0.112205 -3.9404 0
M  V30 5215 H 504.122 0.323034 -5.07774 0
M  V30 5216 H 503.52 3.4484 -4.48444 0
M  V30 5217 H 502.077 3.66166 -5.39227 0
M  V30 5218 N 505.51 1.54411 -0.315457 0
M  V30 5219 C 506.458 2.25514 0.569771 0
M  V30 5220 C 507.452 1.2663 1.12522 0
M  V30 5221 O 508.658 1.44434 1.07419 0
M  V30 5222 H 505.033 0.724257 0.202376 0
M  V30 5223 H 507.004 2.98354 -0.0522895 0
M  V30 5224 C 505.753 3.02004 1.72305 0
M  V30 5225 H 505.076 3.77906 1.30488 0
M  V30 5226 H 506.516 3.55014 2.31821 0
M  V30 5227 C 504.975 2.09822 2.63583 0
M  V30 5228 O 505.505 1.67574 3.65078 0
M  V30 5229 N 503.711 1.75478 2.31637 0
M  V30 5230 H 503.258 2.10032 1.49145 0
M  V30 5231 H 503.216 1.14079 2.92973 0
M  V30 5232 N 506.988 0.0434614 1.5754 0
M  V30 5233 C 508.213 -0.645358 1.97104 0
M  V30 5234 C 508.638 -1.64037 0.920521 0
M  V30 5235 O 507.996 -1.80922 -0.11708 0
M  V30 5236 C 508.044 -1.31547 3.35749 0
M  V30 5237 O 507.148 -2.43103 3.33129 0
M  V30 5238 H 506.489 -0.168403 0.64229 0
M  V30 5239 H 509.019 0.109573 2.04306 0
M  V30 5240 H 509.029 -1.66895 3.72304 0
M  V30 5241 H 507.704 -0.586205 4.11748 0
M  V30 5242 H 506.281 -2.0976 3.0831 0
M  V30 5243 N 508.466 -1.55915 -0.229846 0
M  V30 5244 C 509.712 -1.78807 -0.956868 0
M  V30 5245 C 510.045 -0.611687 -1.84315 0
M  V30 5246 O 509.32 0.389398 -1.90562 0
M  V30 5247 C 509.603 -3.11718 -1.80288 0
M  V30 5248 C 509.456 -4.3979 -0.943649 0
M  V30 5249 C 510.775 -3.40999 -2.78222 0
M  V30 5250 H 507.894 -0.6505 -0.346437 0
M  V30 5251 H 510.536 -1.88648 -0.226252 0
M  V30 5252 H 508.686 -3.03459 -2.42579 0
M  V30 5253 H 510.358 -4.60059 -0.338121 0
M  V30 5254 H 508.601 -4.33086 -0.248705 0
M  V30 5255 H 509.272 -5.29208 -1.5698 0
M  V30 5256 H 511.748 -3.49332 -2.26067 0
M  V30 5257 H 510.624 -4.35183 -3.34526 0
M  V30 5258 H 510.885 -2.62754 -3.55546 0
M  V30 5259 N 509.944 0.496216 -1.49584 0
M  V30 5260 C 511.174 1.27209 -1.62793 0
M  V30 5261 C 511.582 1.86799 -0.300476 0
M  V30 5262 O 510.925 1.68802 0.724674 0
M  V30 5263 C 510.987 2.43812 -2.64189 0
M  V30 5264 C 510.651 2.05055 -4.08414 0
M  V30 5265 C 511.648 1.58752 -4.9507 0
M  V30 5266 C 509.333 2.14543 -4.54177 0
M  V30 5267 C 511.327 1.22448 -6.25528 0
M  V30 5268 C 509.014 1.77851 -5.84647 0
M  V30 5269 C 510.012 1.31878 -6.70147 0
M  V30 5270 O 509.7 0.956834 -7.98185 0
M  V30 5271 H 509.432 0.391848 -0.550846 0
M  V30 5272 H 511.986 0.601712 -1.96389 0
M  V30 5273 H 510.216 3.13941 -2.25783 0
M  V30 5274 H 511.905 3.05829 -2.66877 0
M  V30 5275 H 512.671 1.50863 -4.60939 0
M  V30 5276 H 508.55 2.49277 -3.87791 0
M  V30 5277 H 512.094 0.864933 -6.92217 0
M  V30 5278 H 507.991 1.8539 -6.18305 0
M  V30 5279 H 508.759 1.08789 -8.11238 0
M  V30 5280 N 511.423 1.38739 0.74761 0
M  V30 5281 C 512.671 1.35007 1.50391 0
M  V30 5282 C 512.992 -0.0574274 1.94915 0
M  V30 5283 O 512.262 -1.00628 1.6808 0
M  V30 5284 H 510.842 0.496784 0.557866 0
M  V30 5285 H 513.504 1.73479 0.888319 0
M  V30 5286 H 512.6 2.00474 2.392 0
M  V30 5287 N 512.901 -0.976442 1.23707 0
M  V30 5288 C 514.131 -1.75087 1.09673 0
M  V30 5289 C 514.539 -1.85852 -0.354344 0
M  V30 5290 O 513.882 -1.33985 -1.25673 0
M  V30 5291 C 513.944 -3.19272 1.65245 0
M  V30 5292 C 513.608 -3.32004 3.14042 0
M  V30 5293 C 514.605 -3.18017 4.11292 0
M  V30 5294 C 512.29 -3.56525 3.53829 0
M  V30 5295 C 514.284 -3.28363 5.46312 0
M  V30 5296 C 511.971 -3.6651 4.88993 0
M  V30 5297 C 512.969 -3.52439 5.85043 0
M  V30 5298 O 512.657 -3.62063 7.1775 0
M  V30 5299 H 512.389 -0.556164 0.384262 0
M  V30 5300 H 514.943 -1.23518 1.64111 0
M  V30 5301 H 513.173 -3.72107 1.05231 0
M  V30 5302 H 514.862 -3.7849 1.46629 0
M  V30 5303 H 515.628 -2.98966 3.81896 0
M  V30 5304 H 511.507 -3.66547 2.79579 0
M  V30 5305 H 515.051 -3.17297 6.21263 0
M  V30 5306 H 510.948 -3.85072 5.18063 0
M  V30 5307 H 511.716 -3.78833 7.25553 0
M  V30 5308 N 514.379 -1.04941 -1.1758 0
M  V30 5309 C 515.627 -0.756492 -1.87408 0
M  V30 5310 C 515.948 0.718478 -1.81281 0
M  V30 5311 O 515.218 1.519 -1.23706 0
M  V30 5312 H 513.798 -0.276841 -0.693807 0
M  V30 5313 H 516.46 -1.32803 -1.42652 0
M  V30 5314 H 515.556 -1.06918 -2.93215 0
M  V30 5315 N 515.857 1.33968 -0.830081 0
M  V30 5316 C 517.103 1.98357 -0.422191 0
M  V30 5317 C 517.436 1.65633 1.01387 0
M  V30 5318 O 516.711 0.931648 1.70735 0
M  V30 5319 C 516.994 3.54492 -0.633043 0
M  V30 5320 C 516.847 3.96934 -2.11574 0
M  V30 5321 C 518.166 4.40039 -0.0735584 0
M  V30 5322 H 515.285 0.720544 -0.154871 0
M  V30 5323 H 517.927 1.58749 -1.04397 0
M  V30 5324 H 516.077 3.88361 -0.103775 0
M  V30 5325 H 517.749 3.73363 -2.7092 0
M  V30 5326 H 515.992 3.46984 -2.60354 0
M  V30 5327 H 516.663 5.05651 -2.21406 0
M  V30 5328 H 519.139 4.12764 -0.52585 0
M  V30 5329 H 518.015 5.48327 -0.250841 0
M  V30 5330 H 518.276 4.30124 1.02202 0
M  V30 5331 N 517.335 0.585699 1.46312 0
M  V30 5332 C 518.575 0.0751432 2.04262 0
M  V30 5333 C 518.939 -1.26201 1.44697 0
M  V30 5334 O 520.14 -1.86198 1.93865 0
M  V30 5335 C 518.411 0.013478 3.57397 0
M  V30 5336 S 519.97 -0.439068 4.36598 0
M  V30 5337 H 516.788 0.0389228 0.709934 0
M  V30 5338 H 519.39 0.778871 1.79315 0
M  V30 5339 H 518.094 0.990558 3.98266 0
M  V30 5340 H 517.625 -0.712927 3.86886 0
M  V30 5341 H 519.64 -1.6932 4.66417 0
M  V30 5342 N 518.813 -1.54241 0.323641 0
M  V30 5343 C 520.038 -2.05452 -0.283605 0
M  V30 5344 C 520.463 -1.19823 -1.44997 0
M  V30 5345 O 519.821 -0.207358 -1.8011 0
M  V30 5346 C 519.869 -3.53823 -0.695795 0
M  V30 5347 O 518.973 -3.71134 -1.79815 0
M  V30 5348 H 518.314 -0.662024 -0.0511917 0
M  V30 5349 H 520.844 -1.99079 0.472073 0
M  V30 5350 H 520.854 -3.96094 -0.978434 0
M  V30 5351 H 519.529 -4.15602 0.157287 0
M  V30 5352 H 518.106 -3.40768 -1.51431 0
M  V30 5353 N 520.291 -0.0518155 -1.57515 0
M  V30 5354 C 521.568 0.661727 -1.84067 0
M  V30 5355 C 521.948 1.88999 -0.940351 0
M  V30 5356 O 521.296 2.285 -0.00155404 0
M  V30 5357 C 521.506 1.01841 -3.3381 0
M  V30 5358 C 522.854 1.40043 -4.00841 0
M  V30 5359 O 523.878 1.11073 -3.38439 0
M  V30 5360 O 522.737 1.94111 -5.10865 0
M  V30 5361 H 519.831 0.326702 -0.759733 0
M  V30 5362 H 522.377 -0.0812277 -1.69505 0
M  V30 5363 H 521.149 0.145202 -3.91031 0
M  V30 5364 H 520.772 1.81879 -3.53562 0
M  V30 5365 N 521.769 1.56035 0.221574 0
M  V30 5366 C 523.18 1.69229 0.788567 0
M  V30 5367 C 523.531 0.653814 1.84986 0
M  V30 5368 O 522.656 -0.195065 2.15519 0
M  V30 5369 C 523.251 3.06809 1.43713 0
M  V30 5370 C 521.81 3.21858 1.95152 0
M  V30 5371 C 520.957 2.65155 0.811685 0
M  V30 5372 H 523.908 1.587 -0.00307894 0
M  V30 5373 H 523.929 3.02666 2.30594 0
M  V30 5374 H 523.441 3.82369 0.664475 0
M  V30 5375 H 521.542 2.51167 2.7522 0
M  V30 5376 H 521.655 4.29073 2.1315 0
M  V30 5377 H 520.019 2.23635 1.21899 0
M  V30 5378 H 520.802 3.43261 0.0516987 0
M  V30 5379 N 523.247 -0.488276 1.49845 0
M  V30 5380 C 524.21 -1.57069 1.66919 0
M  V30 5381 C 525.21 -1.51445 0.540479 0
M  V30 5382 O 526.4 -1.5437 0.807188 0
M  V30 5383 C 523.532 -2.96718 1.67844 0
M  V30 5384 H 524.725 -1.43254 2.63474 0
M  V30 5385 H 522.278 -0.713435 1.39068 0
M  V30 5386 H 523.013 -3.15996 0.7292 0
M  V30 5387 H 522.798 -3.02208 2.49826 0
M  V30 5388 H 524.288 -3.75335 1.83066 0
M  V30 5389 N 524.725 -1.39134 -0.740242 0
M  V30 5390 C 525.673 -1.3757 -1.87556 0
M  V30 5391 C 526.667 -0.259593 -1.67399 0
M  V30 5392 O 527.873 -0.429349 -1.74804 0
M  V30 5393 H 524.248 -0.42947 -0.6173 0
M  V30 5394 H 526.219 -2.33345 -1.85991 0
M  V30 5395 C 524.968 -1.23087 -3.25184 0
M  V30 5396 H 524.291 -2.08237 -3.41288 0
M  V30 5397 H 525.731 -1.26049 -4.0483 0
M  V30 5398 C 524.19 0.0611471 -3.36845 0
M  V30 5399 O 524.72 1.03328 -3.88183 0
M  V30 5400 N 522.926 0.122454 -2.90342 0
M  V30 5401 H 522.473 -0.669329 -2.48752 0
M  V30 5402 H 522.431 0.986463 -2.98523 0
M  V30 5403 N 526.204 0.969867 -1.24223 0
M  V30 5404 C 527.167 2.04564 -1.03373 0
M  V30 5405 C 528.167 1.60798 0.00819206 0
M  V30 5406 O 529.357 1.72641 -0.232567 0
M  V30 5407 C 526.489 3.36163 -0.566343 0
M  V30 5408 H 527.682 2.24494 -1.98853 0
M  V30 5409 H 525.235 1.1448 -1.06415 0
M  V30 5410 H 525.97 3.21925 0.391751 0
M  V30 5411 H 525.755 3.69273 -1.31834 0
M  V30 5412 H 527.245 4.1526 -0.441435 0
M  V30 5413 N 527.682 1.05563 1.17022 0
M  V30 5414 C 528.912 0.787307 1.91011 0
M  V30 5415 C 529.32 -0.661256 1.77268 0
M  V30 5416 O 528.663 -1.46379 1.10991 0
M  V30 5417 C 528.725 1.09313 3.42478 0
M  V30 5418 C 528.389 2.53863 3.80004 0
M  V30 5419 C 529.386 3.52081 3.82538 0
M  V30 5420 C 527.071 2.88969 4.10855 0
M  V30 5421 C 529.065 4.83449 4.15399 0
M  V30 5422 C 526.752 4.2054 4.43384 0
M  V30 5423 C 527.75 5.17589 4.45635 0
M  V30 5424 O 527.438 6.46799 4.77395 0
M  V30 5425 H 527.17 0.285463 0.61277 0
M  V30 5426 H 529.724 1.41051 1.49311 0
M  V30 5427 H 527.954 0.412833 3.8449 0
M  V30 5428 H 529.643 0.810224 3.97731 0
M  V30 5429 H 530.409 3.26299 3.58823 0
M  V30 5430 H 526.288 2.1409 4.08272 0
M  V30 5431 H 529.832 5.59194 4.1707 0
M  V30 5432 H 525.729 4.46083 4.66563 0
M  V30 5433 H 526.497 6.51677 4.95237 0
M  V30 5434 N 529.16 -1.33526 0.837174 0
M  V30 5435 C 530.385 -2.0258 0.444545 0
M  V30 5436 C 530.81 -1.6258 -0.946006 0
M  V30 5437 O 530.168 -0.817548 -1.6182 0
M  V30 5438 C 530.216 -3.5605 0.571006 0
M  V30 5439 O 529.32 -4.10422 -0.403431 0
M  V30 5440 H 528.661 -0.638866 0.180958 0
M  V30 5441 H 531.191 -1.70462 1.13154 0
M  V30 5442 H 531.201 -4.05488 0.452024 0
M  V30 5443 H 529.876 -3.84509 1.58512 0
M  V30 5444 H 528.453 -3.72113 -0.242147 0
M  V30 5445 N 530.638 -0.59345 -1.46 0
M  V30 5446 C 531.585 0.133618 -2.30413 0
M  V30 5447 C 532.555 0.873736 -1.41262 0
M  V30 5448 O 533.74 0.862279 -1.70204 0
M  V30 5449 C 530.88 1.13434 -3.25924 0
M  V30 5450 C 529.993 0.39656 -4.30176 0
M  V30 5451 C 529.128 1.38575 -5.12806 0
M  V30 5452 C 528.167 0.634984 -6.08797 0
M  V30 5453 N 527.304 1.57276 -6.84258 0
M  V30 5454 H 532.144 -0.592252 -2.92055 0
M  V30 5455 H 529.681 -0.303874 -1.43927 0
M  V30 5456 H 531.639 1.72752 -3.79753 0
M  V30 5457 H 530.269 1.82779 -2.66067 0
M  V30 5458 H 529.321 -0.311861 -3.79119 0
M  V30 5459 H 530.633 -0.189869 -4.98438 0
M  V30 5460 H 529.787 2.05141 -5.70966 0
M  V30 5461 H 528.526 2.00611 -4.44529 0
M  V30 5462 H 527.531 -0.0443925 -5.49782 0
M  V30 5463 H 528.756 0.0198678 -6.79097 0
M  V30 5464 H 526.702 2.18103 -6.18682 0
M  V30 5465 H 526.619 1.03941 -7.48821 0
M  V30 5466 H 527.887 2.22844 -7.46968 0
M  V30 5467 N 532.116 1.54067 -0.331816 0
M  V30 5468 C 533.048 2.22139 0.564538 0
M  V30 5469 C 534.061 1.22408 1.07332 0
M  V30 5470 O 535.25 1.4883 0.985481 0
M  V30 5471 C 532.35 2.87876 1.78831 0
M  V30 5472 C 531.523 4.13817 1.41682 0
M  V30 5473 C 530.582 4.63072 2.49901 0
M  V30 5474 O 529.608 5.27562 2.13699 0
M  V30 5475 N 530.81 4.38001 3.80967 0
M  V30 5476 H 533.575 2.99694 -0.0183736 0
M  V30 5477 H 531.136 1.61153 -0.155396 0
M  V30 5478 H 533.128 3.17747 2.50637 0
M  V30 5479 H 531.698 2.13977 2.27887 0
M  V30 5480 H 530.918 3.9062 0.530044 0
M  V30 5481 H 532.206 4.95762 1.14443 0
M  V30 5482 H 531.604 3.864 4.13173 0
M  V30 5483 H 530.161 4.72507 4.48977 0
M  V30 5484 N 533.594 0.0601682 1.57485 0
M  V30 5485 C 534.834 -0.615384 1.94916 0
M  V30 5486 C 535.198 -1.67475 0.938948 0
M  V30 5487 O 536.399 -2.40502 1.20051 0
M  V30 5488 C 534.67 -1.18788 3.37082 0
M  V30 5489 S 536.229 -1.88018 3.96478 0
M  V30 5490 H 533.047 -0.201821 0.681754 0
M  V30 5491 H 535.649 0.131252 1.95059 0
M  V30 5492 H 534.353 -0.404869 4.08398 0
M  V30 5493 H 533.884 -1.97114 3.40455 0
M  V30 5494 H 535.899 -3.16161 3.82435 0
M  V30 5495 N 535.072 -1.5615 -0.213296 0
M  V30 5496 C 536.035 -1.92249 -1.24792 0
M  V30 5497 C 537.035 -0.801828 -1.39382 0
M  V30 5498 O 538.225 -1.06948 -1.37506 0
M  V30 5499 C 535.357 -2.18056 -2.62039 0
M  V30 5500 H 536.55 -2.84793 -0.939845 0
M  V30 5501 H 534.103 -1.49559 -0.454062 0
M  V30 5502 H 534.838 -1.2809 -2.97932 0
M  V30 5503 H 534.623 -2.99703 -2.52825 0
M  V30 5504 H 536.113 -2.47051 -3.36683 0
M  V30 5505 N 536.55 0.480323 -1.50102 0
M  V30 5506 C 537.513 1.56181 -1.6775 0
M  V30 5507 C 538.513 1.51156 -0.548503 0
M  V30 5508 O 539.703 1.5394 -0.815363 0
M  V30 5509 C 536.835 2.95823 -1.69415 0
M  V30 5510 H 538.028 1.41855 -2.6423 0
M  V30 5511 H 535.581 0.70605 -1.39444 0
M  V30 5512 H 536.316 3.15604 -0.745948 0
M  V30 5513 H 536.101 3.00878 -2.51425 0
M  V30 5514 H 537.591 3.74359 -1.85054 0
M  V30 5515 N 538.028 1.39524 0.732853 0
M  V30 5516 C 538.958 1.41153 1.86005 0
M  V30 5517 C 539.939 0.274614 1.67869 0
M  V30 5518 O 541.124 0.480745 1.88155 0
M  V30 5519 C 538.254 1.25638 3.23778 0
M  V30 5520 C 537.208 2.36752 3.56556 0
M  V30 5521 C 536.534 2.06326 4.93289 0
M  V30 5522 C 537.834 3.79069 3.5931 0
M  V30 5523 H 539.528 2.35484 1.84899 0
M  V30 5524 H 537.074 1.13348 0.888162 0
M  V30 5525 H 539.027 1.25398 4.0231 0
M  V30 5526 H 537.751 0.277772 3.25417 0
M  V30 5527 H 536.41 2.36213 2.80355 0
M  V30 5528 H 536.058 1.06897 4.9151 0
M  V30 5529 H 535.758 2.80757 5.16187 0
M  V30 5530 H 537.282 2.07739 5.74175 0
M  V30 5531 H 538.696 3.81526 4.27914 0
M  V30 5532 H 537.093 4.52878 3.93728 0
M  V30 5533 H 538.163 4.09893 2.59068 0
M  V30 5534 N 539.506 -0.963266 1.24736 0
M  V30 5535 C 540.469 -2.04013 1.04457 0
M  V30 5536 C 541.469 -1.608 0.000335555 0
M  V30 5537 O 542.659 -1.72515 0.241719 0
M  V30 5538 C 539.791 -3.35858 0.584162 0
M  V30 5539 H 540.984 -2.23436 2.00041 0
M  V30 5540 H 538.537 -1.13914 1.07021 0
M  V30 5541 H 539.272 -3.22128 -0.374673 0
M  V30 5542 H 539.057 -3.68568 1.3379 0
M  V30 5543 H 540.547 -4.1502 0.463451 0
M  V30 5544 N 540.985 -1.06182 -1.16461 0
M  V30 5545 C 542.396 -0.802426 -1.68576 0
M  V30 5546 C 542.747 0.67412 -1.84255 0
M  V30 5547 O 541.872 1.52303 -1.5373 0
M  V30 5548 C 542.467 -1.45002 -3.06202 0
M  V30 5549 C 541.026 -1.23843 -3.55443 0
M  V30 5550 C 540.173 -1.52724 -2.31454 0
M  V30 5551 H 543.124 -1.22545 -1.00839 0
M  V30 5552 H 543.145 -0.864731 -3.70544 0
M  V30 5553 H 542.657 -2.52466 -2.94759 0
M  V30 5554 H 540.758 -0.183487 -3.72148 0
M  V30 5555 H 540.871 -1.95036 -4.37604 0
M  V30 5556 H 539.235 -0.947726 -2.36411 0
M  V30 5557 H 540.018 -2.61343 -2.22609 0
M  V30 5558 N 542.463 1.3308 -0.844243 0
M  V30 5559 C 543.426 2.27403 -0.286485 0
M  V30 5560 C 544.426 1.51179 0.547872 0
M  V30 5561 O 545.616 1.70421 0.360886 0
M  V30 5562 C 542.748 3.35653 0.595813 0
M  V30 5563 H 543.941 2.78248 -1.11885 0
M  V30 5564 H 541.494 1.43574 -0.617749 0
M  V30 5565 H 542.229 2.90058 1.4504 0
M  V30 5566 H 542.014 3.921 -0.00125994 0
M  V30 5567 H 543.504 4.05958 0.979168 0
M  V30 5568 N 543.941 0.601185 1.45683 0
M  V30 5569 C 545.218 0.0261659 1.95582 0
M  V30 5570 C 545.598 -1.4399 1.5437 0
M  V30 5571 O 544.946 -2.13919 0.80318 0
M  V30 5572 C 545.156 0.217557 3.48321 0
M  V30 5573 C 546.504 0.0950076 4.24494 0
M  V30 5574 O 547.528 0.147345 3.55895 0
M  V30 5575 O 546.387 -0.025261 5.46494 0
M  V30 5576 H 543.481 -0.0393688 0.826062 0
M  V30 5577 H 546.027 0.670798 1.55879 0
M  V30 5578 H 544.799 1.23601 3.71266 0
M  V30 5579 H 544.422 -0.46264 3.94899 0
M  V30 5580 N 545.419 -1.53889 0.339982 0
M  V30 5581 C 546.366 -2.24902 -0.518452 0
M  V30 5582 C 547.336 -1.24593 -1.09844 0
M  V30 5583 O 548.521 -1.53317 -1.13572 0
M  V30 5584 C 545.661 -3.02262 -1.66529 0
M  V30 5585 C 544.774 -4.17418 -1.11295 0
M  V30 5586 C 543.909 -4.82273 -2.2268 0
M  V30 5587 C 542.948 -5.89503 -1.6478 0
M  V30 5588 N 542.085 -6.48153 -2.69893 0
M  V30 5589 H 546.925 -2.97853 0.0936579 0
M  V30 5590 H 544.462 -1.46986 0.0579924 0
M  V30 5591 H 546.42 -3.45371 -2.3404 0
M  V30 5592 H 545.05 -2.31614 -2.24844 0
M  V30 5593 H 544.102 -3.78976 -0.328886 0
M  V30 5594 H 545.414 -4.94554 -0.649414 0
M  V30 5595 H 544.568 -5.28435 -2.98063 0
M  V30 5596 H 543.307 -4.04552 -2.72376 0
M  V30 5597 H 542.312 -5.42728 -0.879004 0
M  V30 5598 H 543.537 -6.6913 -1.1594 0
M  V30 5599 H 541.483 -5.73298 -3.1885 0
M  V30 5600 H 541.4 -7.20752 -2.28151 0
M  V30 5601 H 542.668 -6.98968 -3.45056 0
M  V30 5602 N 546.897 -0.0685191 -1.57451 0
M  V30 5603 C 548.145 0.60016 -1.92983 0
M  V30 5604 C 548.466 1.70348 -0.949028 0
M  V30 5605 O 547.736 1.959 0.00335647 0
M  V30 5606 H 546.316 0.224682 -0.712409 0
M  V30 5607 H 548.978 -0.125605 -1.94495 0
M  V30 5608 H 548.074 1.02759 -2.94698 0
M  V30 5609 N 548.375 1.56261 0.205012 0
M  V30 5610 C 549.325 1.90155 1.25798 0
M  V30 5611 C 550.309 0.766227 1.41484 0
M  V30 5612 O 551.501 1.02893 1.44021 0
M  V30 5613 C 548.63 2.23603 2.60493 0
M  V30 5614 C 547.716 3.43568 2.48639 0
M  V30 5615 N 548.107 4.61747 2.06455 0
M  V30 5616 C 546.405 3.4751 2.79558 0
M  V30 5617 C 547.106 5.43907 2.06253 0
M  V30 5618 N 546.082 4.84051 2.47377 0
M  V30 5619 H 549.884 2.79031 0.922986 0
M  V30 5620 H 547.398 1.57048 0.413501 0
M  V30 5621 H 549.395 2.46067 3.36537 0
M  V30 5622 H 548.055 1.36049 2.94823 0
M  V30 5623 H 549.066 4.86598 1.77321 0
M  V30 5624 H 545.743 2.70345 3.18151 0
M  V30 5625 H 547.133 6.48542 1.75622 0
M  V30 5626 N 549.853 -0.472356 1.50355 0
M  V30 5627 C 551.083 -1.24603 1.64796 0
M  V30 5628 C 551.491 -1.86297 0.330156 0
M  V30 5629 O 550.834 -1.69934 -0.697728 0
M  V30 5630 C 550.896 -2.39578 2.68035 0
M  V30 5631 C 550.56 -1.98531 4.11624 0
M  V30 5632 C 551.557 -1.50856 4.97532 0
M  V30 5633 C 549.242 -2.0729 4.57532 0
M  V30 5634 C 551.236 -1.12481 6.27397 0
M  V30 5635 C 548.923 -1.68527 5.87403 0
M  V30 5636 C 549.921 -1.212 6.7216 0
M  V30 5637 O 549.609 -0.829728 7.99607 0
M  V30 5638 H 549.341 -0.383035 0.55701 0
M  V30 5639 H 551.895 -0.570392 1.97321 0
M  V30 5640 H 550.125 -3.10309 2.30749 0
M  V30 5641 H 551.814 -3.01544 2.71709 0
M  V30 5642 H 552.58 -1.43511 4.63281 0
M  V30 5643 H 548.459 -2.43076 3.91708 0
M  V30 5644 H 552.003 -0.754698 6.93506 0
M  V30 5645 H 547.9 -1.7553 6.21176 0
M  V30 5646 H 548.668 -0.958689 8.12866 0
M  V30 5647 N 551.331 -1.39911 -0.725443 0
M  V30 5648 C 552.261 -1.42138 -1.85254 0
M  V30 5649 C 553.242 -0.283513 -1.67721 0
M  V30 5650 O 554.427 -0.490717 -1.87898 0
M  V30 5651 C 551.557 -1.27354 -3.23107 0
M  V30 5652 C 550.511 -2.3864 -3.55296 0
M  V30 5653 C 549.837 -2.08939 -4.92188 0
M  V30 5654 C 551.137 -3.8097 -3.57295 0
M  V30 5655 H 552.831 -2.36461 -1.83648 0
M  V30 5656 H 550.377 -1.13817 -0.882138 0
M  V30 5657 H 552.33 -1.2753 -4.01639 0
M  V30 5658 H 551.054 -0.295025 -3.25265 0
M  V30 5659 H 549.713 -2.37696 -2.79099 0
M  V30 5660 H 549.361 -1.09502 -4.90936 0
M  V30 5661 H 549.061 -2.83491 -5.14691 0
M  V30 5662 H 550.585 -2.10781 -5.73065 0
M  V30 5663 H 551.999 -3.8379 -4.25885 0
M  V30 5664 H 550.396 -4.5496 -3.9132 0
M  V30 5665 H 551.466 -4.11261 -2.5689 0
M  V30 5666 N 552.809 0.956637 -1.25245 0
M  V30 5667 C 553.772 2.03457 -1.05537 0
M  V30 5668 C 554.772 1.60798 -0.00886317 0
M  V30 5669 O 555.962 1.72384 -0.250865 0
M  V30 5670 C 553.094 3.35543 -0.601965 0
M  V30 5671 H 554.287 2.22372 -2.01223 0
M  V30 5672 H 551.84 1.13344 -1.07623 0
M  V30 5673 H 552.575 3.22323 0.357584 0
M  V30 5674 H 552.36 3.67854 -1.35743 0
M  V30 5675 H 553.85 4.14769 -0.485454 0
M  V30 5676 N 554.287 1.06798 1.15896 0
M  V30 5677 C 555.703 0.792423 1.38538 0
M  V30 5678 C 555.903 -0.60592 1.92174 0
M  V30 5679 O 554.959 -1.36561 2.12385 0
M  V30 5680 C 556.272 1.86157 2.36149 0
M  V30 5681 C 557.82 1.88567 2.49823 0
M  V30 5682 C 558.295 2.9455 3.5072 0
M  V30 5683 N 559.786 2.93616 3.58251 0
M  V30 5684 C 560.521 3.72267 4.36125 0
M  V30 5685 N 560.017 4.60751 5.17379 0
M  V30 5686 N 561.81 3.60637 4.31158 0
M  V30 5687 H 553.961 1.96993 0.794198 0
M  V30 5688 H 556.224 0.853942 0.411688 0
M  V30 5689 H 555.93 2.86603 2.03843 0
M  V30 5690 H 555.804 1.71692 3.3586 0
M  V30 5691 H 558.191 0.887765 2.8143 0
M  V30 5692 H 558.272 2.0711 1.5013 0
M  V30 5693 H 557.916 3.94537 3.19849 0
M  V30 5694 H 557.846 2.73255 4.50155 0
M  V30 5695 H 560.337 2.29472 3.00252 0
M  V30 5696 H 560.65 5.17408 5.74028 0
M  V30 5697 H 558.995 4.64803 5.16704 0
M  V30 5698 H 562.186 2.90892 3.66742 0
M  V30 5699 H 562.359 4.22176 4.91601 0
M  V30 5700 N 555.766 -1.3263 0.851289 0
M  V30 5701 C 556.713 -2.28952 0.291469 0
M  V30 5702 C 557.683 -1.54897 -0.599676 0
M  V30 5703 O 558.868 -1.83137 -0.535305 0
M  V30 5704 C 556.008 -3.41206 -0.516992 0
M  V30 5705 C 555.121 -4.30148 0.399566 0
M  V30 5706 C 554.256 -5.29527 -0.4212 0
M  V30 5707 C 553.295 -6.10112 0.492969 0
M  V30 5708 N 552.432 -7.01499 -0.290414 0
M  V30 5709 H 557.272 -2.76228 1.11813 0
M  V30 5710 H 554.809 -1.35907 0.562826 0
M  V30 5711 H 556.767 -4.05005 -1.00132 0
M  V30 5712 H 555.397 -2.9509 -1.30851 0
M  V30 5713 H 554.449 -3.66959 1.00227 0
M  V30 5714 H 555.761 -4.8649 1.1013 0
M  V30 5715 H 554.915 -5.98914 -0.968832 0
M  V30 5716 H 553.654 -4.73794 -1.15632 0
M  V30 5717 H 552.659 -5.39632 1.05251 0
M  V30 5718 H 553.884 -6.6793 1.22664 0
M  V30 5719 H 551.83 -6.48199 -1.00868 0
M  V30 5720 H 551.747 -7.55178 0.352354 0
M  V30 5721 H 553.015 -7.75176 -0.819882 0
M  V30 5722 N 557.244 -0.608902 -1.45362 0
M  V30 5723 C 558.474 -0.110852 -2.06302 0
M  V30 5724 C 558.882 1.21062 -1.45398 0
M  V30 5725 O 558.225 1.74861 -0.562976 0
M  V30 5726 C 558.287 0.101793 -3.59356 0
M  V30 5727 C 557.951 -1.13808 -4.42602 0
M  V30 5728 C 558.948 -2.05653 -4.77496 0
M  V30 5729 C 556.633 -1.36727 -4.83333 0
M  V30 5730 C 558.627 -3.18745 -5.51978 0
M  V30 5731 C 556.314 -2.5012 -5.57569 0
M  V30 5732 C 557.312 -3.40957 -5.91809 0
M  V30 5733 O 557 -4.52376 -6.64538 0
M  V30 5734 H 556.732 -0.0666001 -0.672711 0
M  V30 5735 H 559.286 -0.836942 -1.87575 0
M  V30 5736 H 557.516 0.88279 -3.76489 0
M  V30 5737 H 559.205 0.551607 -4.02134 0
M  V30 5738 H 559.971 -1.89172 -4.46586 0
M  V30 5739 H 555.85 -0.669216 -4.56117 0
M  V30 5740 H 559.394 -3.8967 -5.78622 0
M  V30 5741 H 555.291 -2.66553 -5.87894 0
M  V30 5742 H 556.059 -4.51075 -6.82989 0
M  V30 5743 N 558.722 1.53707 -0.348139 0
M  V30 5744 C 559.968 2.01286 0.247332 0
M  V30 5745 C 560.301 1.23546 1.49834 0
M  V30 5746 O 559.576 0.324331 1.91777 0
M  V30 5747 C 559.859 3.55768 0.556858 0
M  V30 5748 C 559.712 4.44216 -0.706564 0
M  V30 5749 C 561.031 4.1841 1.3646 0
M  V30 5750 H 558.15 0.731677 0.0884201 0
M  V30 5751 H 560.792 1.84106 -0.469584 0
M  V30 5752 H 558.942 3.70539 1.16761 0
M  V30 5753 H 560.614 4.41274 -1.34444 0
M  V30 5754 H 558.857 4.12892 -1.33052 0
M  V30 5755 H 559.528 5.50202 -0.445186 0
M  V30 5756 H 562.004 4.07365 0.848113 0
M  V30 5757 H 560.88 5.26563 1.54992 0
M  V30 5758 H 561.141 3.7333 2.36805 0
M  V30 5759 N 560.2 0.0768682 1.57412 0
M  V30 5760 C 561.446 -0.591961 1.93968 0
M  V30 5761 C 561.779 -1.68954 0.9575 0
M  V30 5762 O 561.054 -1.94496 -0.0124675 0
M  V30 5763 C 561.337 -1.16418 3.40762 0
M  V30 5764 C 561.19 -0.0728933 4.49741 0
M  V30 5765 C 562.509 -2.06814 3.88479 0
M  V30 5766 H 559.628 -0.213716 0.705333 0
M  V30 5767 H 562.27 0.14387 1.89455 0
M  V30 5768 H 560.42 -1.79128 3.4474 0
M  V30 5769 H 562.092 0.560446 4.57883 0
M  V30 5770 H 560.335 0.595859 4.29688 0
M  V30 5771 H 561.006 -0.513755 5.49604 0
M  V30 5772 H 563.482 -1.54033 3.8654 0
M  V30 5773 H 562.358 -2.43785 4.91793 0
M  V30 5774 H 562.619 -2.97844 3.26713 0
M  V30 5775 N 561.678 -1.56367 -0.196722 0
M  V30 5776 C 562.955 -1.71359 -0.943159 0
M  V30 5777 C 563.335 -0.631192 -2.01443 0
M  V30 5778 O 562.683 0.358071 -2.25677 0
M  V30 5779 C 562.893 -3.13623 -1.53106 0
M  V30 5780 C 564.241 -3.73806 -2.01381 0
M  V30 5781 O 565.265 -3.16742 -1.62951 0
M  V30 5782 O 564.124 -4.73951 -2.7209 0
M  V30 5783 H 561.218 -0.698851 -0.442195 0
M  V30 5784 H 563.764 -1.68672 -0.186547 0
M  V30 5785 H 562.536 -3.83873 -0.758785 0
M  V30 5786 H 562.159 -3.20532 -2.35255 0
M  V30 5787 N 563.156 0.464375 -1.50603 0
M  V30 5788 C 564.433 1.22549 -1.5245 0
M  V30 5789 C 564.813 2.09327 -0.273035 0
M  V30 5790 O 564.161 2.16074 0.743242 0
M  V30 5791 C 564.371 2.05074 -2.82393 0
M  V30 5792 C 565.719 2.63036 -3.33313 0
M  V30 5793 O 566.743 2.1531 -2.8376 0
M  V30 5794 O 565.602 3.5001 -4.19709 0
M  V30 5795 H 562.696 0.556471 -0.611775 0
M  V30 5796 H 565.242 0.475648 -1.62898 0
M  V30 5797 H 564.014 1.41169 -3.64948 0
M  V30 5798 H 563.637 2.87179 -2.7498 0
M  V30 5799 N 564.634 1.40294 0.718013 0
M  V30 5800 C 565.544 1.42678 1.86226 0
M  V30 5801 C 566.56 0.319655 1.71039 0
M  V30 5802 O 567.736 0.563852 1.93346 0
M  V30 5803 C 564.801 1.2852 3.21999 0
M  V30 5804 C 563.862 2.49354 3.49458 0
M  V30 5805 C 563.095 2.35863 4.78753 0
M  V30 5806 O 563.318 1.37114 5.53675 0
M  V30 5807 O 562.252 3.25189 5.06494 0
M  V30 5808 H 566.078 2.39167 1.87171 0
M  V30 5809 H 563.663 1.2159 0.868112 0
M  V30 5810 H 565.545 1.22824 4.03103 0
M  V30 5811 H 564.22 0.351359 3.21787 0
M  V30 5812 H 563.127 2.60628 2.68373 0
M  V30 5813 H 564.46 3.41491 3.54464 0
M  V30 5814 N 566.112 -0.949982 1.2575 0
M  V30 5815 C 567.059 -2.04738 1.06541 0
M  V30 5816 C 568.029 -1.66078 -0.0268818 0
M  V30 5817 O 569.214 -1.90348 0.131196 0
M  V30 5818 C 566.354 -3.38027 0.695127 0
M  V30 5819 C 565.467 -3.89776 1.86276 0
M  V30 5820 C 564.602 -5.11411 1.4364 0
M  V30 5821 C 563.641 -5.554 2.57287 0
M  V30 5822 N 562.778 -6.68244 2.15395 0
M  V30 5823 H 567.618 -2.20502 2.00457 0
M  V30 5824 H 565.155 -1.0805 0.998178 0
M  V30 5825 H 567.113 -4.14641 0.461375 0
M  V30 5826 H 565.743 -3.22135 -0.207046 0
M  V30 5827 H 564.795 -3.0964 2.20969 0
M  V30 5828 H 566.107 -4.18368 2.71606 0
M  V30 5829 H 565.261 -5.95457 1.16257 0
M  V30 5830 H 564 -4.84545 0.553879 0
M  V30 5831 H 563.005 -4.69916 2.85409 0
M  V30 5832 H 564.23 -5.84272 3.46125 0
M  V30 5833 H 562.176 -6.43078 1.29565 0
M  V30 5834 H 562.093 -6.96377 2.94272 0
M  V30 5835 H 563.361 -7.55687 1.91201 0
M  V30 5836 N 567.59 -1.07411 -1.15328 0
M  V30 5837 C 568.52 -0.716472 -2.22236 0
M  V30 5838 C 569.501 0.296373 -1.67498 0
M  V30 5839 O 570.686 0.168989 -1.93463 0
M  V30 5840 C 567.816 -0.114142 -3.47112 0
M  V30 5841 C 566.77 -1.05421 -4.14814 0
M  V30 5842 C 566.096 -0.314604 -5.33774 0
M  V30 5843 C 567.396 -2.38808 -4.64508 0
M  V30 5844 H 569.09 -1.61029 -2.52408 0
M  V30 5845 H 566.636 -0.775702 -1.21321 0
M  V30 5846 H 568.589 0.148001 -4.2114 0
M  V30 5847 H 567.313 0.814755 -3.16274 0
M  V30 5848 H 565.972 -1.30128 -3.42728 0
M  V30 5849 H 565.62 0.617772 -4.99192 0
M  V30 5850 H 565.32 -0.941209 -5.80013 0
M  V30 5851 H 566.844 -0.0602747 -6.1057 0
M  V30 5852 H 568.258 -2.18424 -5.3006 0
M  V30 5853 H 566.655 -2.97069 -5.21412 0
M  V30 5854 H 567.725 -3.01067 -3.80114 0
M  V30 5855 N 569.068 1.32177 -0.85831 0
M  V30 5856 C 570 2.27688 -0.262835 0
M  V30 5857 C 571.013 1.52588 0.567513 0
M  V30 5858 O 572.202 1.74156 0.391407 0
M  V30 5859 C 569.302 3.32668 0.646937 0
M  V30 5860 C 568.475 4.37148 -0.148372 0
M  V30 5861 C 567.534 5.21686 0.687728 0
M  V30 5862 O 566.56 5.69074 0.119934 0
M  V30 5863 N 567.762 5.44892 2.00182 0
M  V30 5864 H 570.527 2.79426 -1.08356 0
M  V30 5865 H 568.088 1.45076 -0.718647 0
M  V30 5866 H 570.08 3.86134 1.2117 0
M  V30 5867 H 568.65 2.81061 1.36834 0
M  V30 5868 H 567.87 3.83915 -0.894572 0
M  V30 5869 H 569.158 5.04038 -0.694514 0
M  V30 5870 H 568.556 5.08128 2.4864 0
M  V30 5871 H 567.113 6.0134 2.51463 0
M  V30 5872 N 570.547 0.616602 1.45037 0
M  V30 5873 C 571.495 -0.109318 2.32343 0
M  V30 5874 C 572.489 -0.850543 1.465 0
M  V30 5875 O 573.695 -0.765088 1.62931 0
M  V30 5876 H 570.07 -0.0541091 0.750051 0
M  V30 5877 H 572.041 0.645326 2.91338 0
M  V30 5878 C 570.79 -1.0872 3.30266 0
M  V30 5879 H 570.113 -0.526267 3.96321 0
M  V30 5880 H 571.553 -1.56489 3.94065 0
M  V30 5881 C 570.012 -2.16525 2.58105 0
M  V30 5882 O 570.542 -3.244 2.36913 0
M  V30 5883 N 568.748 -1.92057 2.18088 0
M  V30 5884 H 568.295 -1.04337 2.35524 0
M  V30 5885 H 568.253 -2.64391 1.70131 0
M  V30 5886 N 572.025 -1.5352 0.356285 0
M  V30 5887 C 573.272 -2.01117 -0.236303 0
M  V30 5888 C 573.6 -1.24381 -1.49531 0
M  V30 5889 O 572.855 -0.323057 -1.93015 0
M  V30 5890 C 573.154 -3.52607 -0.583369 0
M  V30 5891 C 572.82 -4.47151 0.58023 0
M  V30 5892 C 571.482 -4.72718 0.899528 0
M  V30 5893 C 573.834 -5.03137 1.36024 0
M  V30 5894 C 571.162 -5.51523 2.00098 0
M  V30 5895 C 573.514 -5.83145 2.45204 0
M  V30 5896 C 572.178 -6.07001 2.77679 0
M  V30 5897 H 571.448 -0.735938 -0.0864695 0
M  V30 5898 H 574.095 -1.85209 0.48683 0
M  V30 5899 H 572.4 -3.66413 -1.38739 0
M  V30 5900 H 574.097 -3.86901 -1.05397 0
M  V30 5901 H 570.687 -4.27394 0.321322 0
M  V30 5902 H 574.871 -4.83339 1.12682 0
M  V30 5903 H 570.127 -5.68229 2.25668 0
M  V30 5904 H 574.301 -6.25537 3.06067 0
M  V30 5905 H 571.928 -6.67851 3.63151 0
M  V30 5906 N 573.503 -0.0852151 -1.57369 0
M  V30 5907 C 574.728 0.592872 -1.98746 0
M  V30 5908 C 575.153 1.61538 -0.963689 0
M  V30 5909 O 574.511 1.81168 0.069071 0
M  V30 5910 C 574.559 1.22599 -3.39119 0
M  V30 5911 O 573.663 2.34185 -3.39457 0
M  V30 5912 H 573.004 0.151314 -0.646529 0
M  V30 5913 H 575.534 -0.163703 -2.03944 0
M  V30 5914 H 575.544 1.56965 -3.76598 0
M  V30 5915 H 574.219 0.476831 -4.13158 0
M  V30 5916 H 572.796 2.01512 -3.13763 0
M  V30 5917 N 574.981 1.5647 0.188427 0
M  V30 5918 C 576.227 1.81281 0.909124 0
M  V30 5919 C 576.56 0.66034 1.82628 0
M  V30 5920 O 575.835 -0.338737 1.91528 0
M  V30 5921 C 576.118 3.16388 1.7196 0
M  V30 5922 C 575.971 4.42137 0.826714 0
M  V30 5923 C 577.29 3.48256 2.69083 0
M  V30 5924 H 574.409 0.659457 0.329068 0
M  V30 5925 H 577.051 1.89182 0.176156 0
M  V30 5926 H 575.201 3.09784 2.34448 0
M  V30 5927 H 576.873 4.60794 0.216025 0
M  V30 5928 H 575.116 4.33594 0.133792 0
M  V30 5929 H 575.787 5.33184 1.42893 0
M  V30 5930 H 578.263 3.55203 2.16726 0
M  V30 5931 H 577.139 4.43899 3.2287 0
M  V30 5932 H 577.4 2.72088 3.48455 0
M  V30 5933 N 576.459 -0.456382 1.50847 0
M  V30 5934 C 577.736 -1.21739 1.53098 0
M  V30 5935 C 578.116 -2.09179 0.284132 0
M  V30 5936 O 577.464 -2.16466 -0.731773 0
M  V30 5937 C 577.674 -2.03573 2.83477 0
M  V30 5938 C 579.022 -2.61264 3.34703 0
M  V30 5939 O 580.046 -2.13802 2.84898 0
M  V30 5940 O 578.905 -3.47779 4.21559 0
M  V30 5941 H 575.999 -0.553219 0.614718 0
M  V30 5942 H 578.545 -0.467003 1.63148 0
M  V30 5943 H 577.317 -1.39232 3.65691 0
M  V30 5944 H 576.94 -2.85716 2.76499 0
M  V30 5945 N 577.937 -1.40673 -0.710563 0
M  V30 5946 C 579.165 -1.42547 -1.4996 0
M  V30 5947 C 579.58 -0.0265485 -1.88781 0
M  V30 5948 O 578.937 0.950694 -1.55782 0
M  V30 5949 C 578.988 -2.32071 -2.77173 0
M  V30 5950 O 578.709 -3.66518 -2.39992 0
M  V30 5951 C 580.21 -2.42591 -3.71032 0
M  V30 5952 H 577.43 -0.486025 -0.462623 0
M  V30 5953 H 579.974 -1.84783 -0.876102 0
M  V30 5954 H 578.129 -1.93184 -3.35795 0
M  V30 5955 H 578.543 -4.14115 -3.21884 0
M  V30 5956 H 580.017 -3.09429 -4.57119 0
M  V30 5957 H 580.494 -1.4525 -4.14486 0
M  V30 5958 H 581.1 -2.82051 -3.18319 0
M  V30 5959 N 579.415 0.9433 -1.26252 0
M  V30 5960 C 580.347 2.04542 -1.03417 0
M  V30 5961 C 581.36 1.62799 0.0046911 0
M  V30 5962 O 582.549 1.76944 -0.235146 0
M  V30 5963 C 579.649 3.34511 -0.543671 0
M  V30 5964 C 578.822 4.05033 -1.65128 0
M  V30 5965 C 577.881 5.13273 -1.1592 0
M  V30 5966 O 576.907 5.38095 -1.85586 0
M  V30 5967 N 578.109 5.805 -0.00649279 0
M  V30 5968 H 580.874 2.24699 -1.98319 0
M  V30 5969 H 578.435 1.11264 -1.1761 0
M  V30 5970 H 580.427 4.04212 -0.198703 0
M  V30 5971 H 578.997 3.11042 0.311711 0
M  V30 5972 H 578.217 3.29275 -2.16729 0
M  V30 5973 H 579.505 4.48903 -2.39508 0
M  V30 5974 H 578.903 5.62767 0.575347 0
M  V30 5975 H 577.46 6.51201 0.279416 0
M  V30 5976 N 580.893 1.08022 1.14757 0
M  V30 5977 C 581.823 0.728248 2.21853 0
M  V30 5978 C 582.804 -0.287486 1.67653 0
M  V30 5979 O 583.989 -0.158727 1.9355 0
M  V30 5980 C 581.119 0.132549 3.47047 0
M  V30 5981 C 580.073 1.07619 4.14249 0
M  V30 5982 C 579.399 0.342907 5.33599 0
M  V30 5983 C 580.699 2.41268 4.63235 0
M  V30 5984 H 582.393 1.62365 2.51551 0
M  V30 5985 H 579.939 0.782125 1.20908 0
M  V30 5986 H 581.892 -0.125665 4.21213 0
M  V30 5987 H 580.616 -0.797971 3.16702 0
M  V30 5988 H 579.275 1.31944 3.42033 0
M  V30 5989 H 578.923 -0.59129 4.99513 0
M  V30 5990 H 578.623 0.971955 5.79506 0
M  V30 5991 H 580.147 0.0926538 6.1053 0
M  V30 5992 H 581.561 2.21232 5.28894 0
M  V30 5993 H 579.958 2.9983 5.19829 0
M  V30 5994 H 581.028 3.03079 3.78512 0
M  V30 5995 N 582.371 -1.3172 0.865308 0
M  V30 5996 C 583.303 -2.27545 0.274906 0
M  V30 5997 C 584.316 -1.52887 -0.559413 0
M  V30 5998 O 585.505 -1.74361 -0.382166 0
M  V30 5999 C 582.605 -3.33006 -0.629286 0
M  V30 6000 C 581.778 -4.37063 0.171553 0
M  V30 6001 C 580.837 -5.22044 -0.660052 0
M  V30 6002 O 579.863 -5.69129 -0.0897527 0
M  V30 6003 N 581.065 -5.45946 -1.97289 0
M  V30 6004 H 583.83 -2.78848 1.09836 0
M  V30 6005 H 581.391 -1.44693 0.726331 0
M  V30 6006 H 583.383 -3.86772 -1.19121 0
M  V30 6007 H 581.953 -2.81782 -1.35342 0
M  V30 6008 H 581.173 -3.83436 0.914919 0
M  V30 6009 H 582.461 -5.03662 0.721235 0
M  V30 6010 H 581.859 -5.0944 -2.45942 0
M  V30 6011 H 580.416 -6.02665 -2.4827 0
M  V30 6012 N 583.85 -0.624285 -1.44708 0
M  V30 6013 C 585.075 -0.131171 -2.06985 0
M  V30 6014 C 585.5 1.18234 -1.46295 0
M  V30 6015 O 584.858 1.72375 -0.561842 0
M  V30 6016 C 584.906 -0.0226724 -3.60593 0
M  V30 6017 O 584.01 1.02314 -3.99507 0
M  V30 6018 H 583.351 -0.0816556 -0.65896 0
M  V30 6019 H 585.88 -0.859027 -1.85693 0
M  V30 6020 H 585.891 0.170138 -4.07645 0
M  V30 6021 H 584.566 -0.981685 -4.04148 0
M  V30 6022 H 583.143 0.805452 -3.64097 0
M  V30 6023 N 585.328 1.53329 -0.364422 0
M  V30 6024 C 586.275 2.25698 0.482607 0
M  V30 6025 C 587.245 1.26325 1.07848 0
M  V30 6026 O 588.43 1.55104 1.11119 0
M  V30 6027 C 585.57 3.04873 1.61699 0
M  V30 6028 C 584.683 4.19135 1.0464 0
M  V30 6029 C 583.818 4.85754 2.14979 0
M  V30 6030 C 582.857 5.9205 1.5538 0
M  V30 6031 N 581.994 6.52365 2.59547 0
M  V30 6032 H 586.834 2.97666 -0.141032 0
M  V30 6033 H 584.371 1.46875 -0.0813692 0
M  V30 6034 H 586.329 3.49051 2.28516 0
M  V30 6035 H 584.959 2.35162 2.2113 0
M  V30 6036 H 584.011 3.79451 0.268553 0
M  V30 6037 H 585.323 4.95525 0.570653 0
M  V30 6038 H 584.477 5.3311 2.89619 0
M  V30 6039 H 583.216 4.08834 2.65906 0
M  V30 6040 H 582.221 5.44058 0.792549 0
M  V30 6041 H 583.446 6.7089 1.0528 0
M  V30 6042 H 581.392 5.78298 3.09689 0
M  V30 6043 H 581.309 7.2429 2.16655 0
M  V30 6044 H 582.577 7.0437 3.33892 0
M  V30 6045 N 586.806 0.0935595 1.57322 0
M  V30 6046 C 588.053 -0.570509 1.94297 0
M  V30 6047 C 588.381 -1.68286 0.97519 0
M  V30 6048 O 587.636 -1.95699 -0.00548655 0
M  V30 6049 C 587.935 -1.16692 3.37813 0
M  V30 6050 C 587.601 -0.178509 4.50547 0
M  V30 6051 C 586.263 0.0933475 4.81109 0
M  V30 6052 C 588.615 0.496472 5.1883 0
M  V30 6053 C 585.943 1.0469 5.77284 0
M  V30 6054 C 588.295 1.43849 6.16028 0
M  V30 6055 C 586.959 1.71859 6.44997 0
M  V30 6056 H 586.229 -0.208764 0.710984 0
M  V30 6057 H 588.876 0.169066 1.90752 0
M  V30 6058 H 587.181 -1.98271 3.37929 0
M  V30 6059 H 588.878 -1.6884 3.63722 0
M  V30 6060 H 585.468 -0.400584 4.26724 0
M  V30 6061 H 589.652 0.299584 4.95395 0
M  V30 6062 H 584.908 1.27094 5.98044 0
M  V30 6063 H 589.082 1.96734 6.68034 0
M  V30 6064 H 586.709 2.45906 7.19329 0
M  V30 6065 N 588.284 -1.56567 -0.180126 0
M  V30 6066 C 589.247 -1.94852 -1.20686 0
M  V30 6067 C 590.247 -0.831212 -1.3765 0
M  V30 6068 O 591.437 -1.09841 -1.35206 0
M  V30 6069 C 588.569 -2.23565 -2.57355 0
M  V30 6070 H 589.762 -2.86722 -0.879225 0
M  V30 6071 H 587.315 -1.50489 -0.422237 0
M  V30 6072 H 588.05 -1.34381 -2.95148 0
M  V30 6073 H 587.835 -3.04999 -2.46411 0
M  V30 6074 H 589.325 -2.54137 -3.31367 0
M  V30 6075 N 589.762 0.448376 -1.51087 0
M  V30 6076 C 590.99 1.22143 -1.66999 0
M  V30 6077 C 591.405 1.85283 -0.362699 0
M  V30 6078 O 590.762 1.70236 0.65772 0
M  V30 6079 C 590.813 2.31357 -2.7777 0
M  V30 6080 O 590.534 1.70801 -4.03434 0
M  V30 6081 C 592.035 3.21836 -3.04855 0
M  V30 6082 H 589.255 0.368558 -0.560719 0
M  V30 6083 H 591.799 0.532618 -1.97442 0
M  V30 6084 H 589.954 2.95973 -2.49958 0
M  V30 6085 H 590.368 2.42895 -4.64868 0
M  V30 6086 H 591.842 3.94627 -3.85971 0
M  V30 6087 H 592.319 3.81949 -2.16821 0
M  V30 6088 H 592.925 2.62933 -3.34285 0
M  V30 6089 N 591.24 1.41047 0.703093 0
M  V30 6090 C 592.488 1.39723 1.4602 0
M  V30 6091 C 592.809 0.00461257 1.94999 0
M  V30 6092 O 592.079 -0.952292 1.71196 0
M  V30 6093 H 590.659 0.514281 0.541779 0
M  V30 6094 H 593.321 1.76217 0.832678 0
M  V30 6095 H 592.417 2.07982 2.32701 0
M  V30 6096 N 592.718 -0.936591 1.26751 0
M  V30 6097 C 593.995 -1.66094 1.03306 0
M  V30 6098 C 594.375 -2.06568 -0.435058 0
M  V30 6099 O 593.723 -1.79305 -1.41641 0
M  V30 6100 C 593.933 -2.86969 1.98619 0
M  V30 6101 C 595.281 -3.58516 2.27489 0
M  V30 6102 O 596.305 -2.97082 1.96522 0
M  V30 6103 O 595.164 -4.69181 2.80235 0
M  V30 6104 H 592.258 -0.727568 0.393158 0
M  V30 6105 H 594.804 -0.987914 1.3798 0
M  V30 6106 H 593.576 -2.53985 2.9767 0
M  V30 6107 H 593.199 -3.61996 1.64454 0
M  V30 6108 N 594.196 -1.08629 -1.14182 0
M  V30 6109 C 595.445 -0.812271 -1.84621 0
M  V30 6110 C 595.758 0.664313 -1.83973 0
M  V30 6111 O 596.964 1.05357 -2.50224 0
M  V30 6112 C 595.42 -1.4031 -3.31423 0
M  V30 6113 C 595.028 -2.91164 -3.40481 0
M  V30 6114 C 596.772 -1.20767 -4.06959 0
M  V30 6115 C 594.679 -3.43373 -4.81507 0
M  V30 6116 H 593.609 -0.30019 -0.691666 0
M  V30 6117 H 596.26 -1.30798 -1.28701 0
M  V30 6118 H 594.642 -0.835096 -3.87094 0
M  V30 6119 H 595.816 -3.5412 -2.94848 0
M  V30 6120 H 594.131 -3.09646 -2.78403 0
M  V30 6121 H 596.728 -1.57237 -5.11058 0
M  V30 6122 H 597.071 -0.147664 -4.16038 0
M  V30 6123 H 597.604 -1.74274 -3.57594 0
M  V30 6124 H 594.343 -4.48958 -4.77616 0
M  V30 6125 H 593.863 -2.85176 -5.27669 0
M  V30 6126 H 595.542 -3.40095 -5.50404 0
M  V30 6127 N 595.674 1.31259 -0.872281 0
M  V30 6128 C 596.951 1.91362 -0.404943 0
M  V30 6129 C 597.331 1.79362 1.11321 0
M  V30 6130 O 596.679 1.20277 1.94283 0
M  V30 6131 C 596.889 3.3749 -0.888893 0
M  V30 6132 C 598.237 4.14593 -0.916384 0
M  V30 6133 O 599.261 3.46282 -0.834701 0
M  V30 6134 O 598.12 5.3661 -1.03498 0
M  V30 6135 H 595.214 0.818016 -0.121569 0
M  V30 6136 H 597.76 1.39912 -0.960346 0
M  V30 6137 H 596.532 3.40249 -1.93251 0
M  V30 6138 H 596.155 3.96375 -0.311932 0
M  V30 6139 N 597.152 0.631951 1.44375 0
M  V30 6140 C 598.102 -0.0943862 2.27805 0
M  V30 6141 C 599.086 -0.815359 1.38711 0
M  V30 6142 O 600.278 -0.701331 1.62513 0
M  V30 6143 C 597.407 -1.07472 3.26044 0
M  V30 6144 C 596.493 -0.353329 4.22626 0
M  V30 6145 N 596.884 0.618512 5.02004 0
M  V30 6146 C 595.182 -0.597662 4.41977 0
M  V30 6147 C 595.883 1.0448 5.7224 0
M  V30 6148 N 594.859 0.383413 5.42246 0
M  V30 6149 H 598.661 0.651672 2.86584 0
M  V30 6150 H 596.175 0.45752 1.55822 0
M  V30 6151 H 598.172 -1.60969 3.84571 0
M  V30 6152 H 596.832 -1.82107 2.68825 0
M  V30 6153 H 597.843 0.996356 5.08226 0
M  V30 6154 H 594.52 -1.32682 3.95856 0
M  V30 6155 H 595.91 1.84773 6.45994 0
M  V30 6156 N 598.631 -1.53133 0.372548 0
M  V30 6157 C 599.859 -2.05774 -0.215515 0
M  V30 6158 C 600.274 -1.24555 -1.41886 0
M  V30 6159 O 599.631 -0.287951 -1.80214 0
M  V30 6160 C 599.682 -3.5645 -0.602161 0
M  V30 6161 O 599.403 -4.34591 0.553359 0
M  V30 6162 C 600.904 -4.25374 -1.24787 0
M  V30 6163 H 598.124 -0.670009 -0.0364529 0
M  V30 6164 H 600.668 -1.97434 0.532934 0
M  V30 6165 H 598.823 -3.64918 -1.30052 0
M  V30 6166 H 599.237 -5.23954 0.239336 0
M  V30 6167 H 600.711 -5.32097 -1.46891 0
M  V30 6168 H 601.188 -3.79531 -2.21026 0
M  V30 6169 H 601.794 -4.21177 -0.590752 0
M  V30 6170 N 600.109 -0.101901 -1.5727 0
M  V30 6171 C 601.039 0.851544 -2.17419 0
M  V30 6172 C 602.02 1.28942 -1.10941 0
M  V30 6173 O 603.205 1.35509 -1.39107 0
M  V30 6174 C 600.335 2.10816 -2.75996 0
M  V30 6175 C 599.289 1.80867 -3.87906 0
M  V30 6176 C 598.615 3.13413 -4.33216 0
M  V30 6177 C 599.915 1.0903 -5.10793 0
M  V30 6178 H 601.609 0.350381 -2.97343 0
M  V30 6179 H 599.155 0.16709 -1.43027 0
M  V30 6180 H 601.108 2.77959 -3.16729 0
M  V30 6181 H 599.832 2.63227 -1.93337 0
M  V30 6182 H 598.491 1.16119 -3.47724 0
M  V30 6183 H 598.139 3.63725 -3.47438 0
M  V30 6184 H 597.839 2.94155 -5.08671 0
M  V30 6185 H 599.363 3.81704 -4.76586 0
M  V30 6186 H 600.777 1.66295 -5.48652 0
M  V30 6187 H 599.174 0.99927 -5.91722 0
M  V30 6188 H 600.244 0.0741704 -4.84843 0
M  V30 6189 N 601.587 1.56661 0.17182 0
M  V30 6190 C 602.517 1.99401 1.21498 0
M  V30 6191 C 603.498 0.869516 1.46197 0
M  V30 6192 O 604.683 1.13556 1.57539 0
M  V30 6193 C 601.813 2.35346 2.55401 0
M  V30 6194 C 600.767 3.5075 2.45272 0
M  V30 6195 C 600.093 3.72437 3.8366 0
M  V30 6196 C 601.393 4.84216 1.95787 0
M  V30 6197 H 603.087 2.86792 0.859699 0
M  V30 6198 H 600.633 1.37977 0.412103 0
M  V30 6199 H 602.586 2.63843 3.2858 0
M  V30 6200 H 601.31 1.44864 2.92715 0
M  V30 6201 H 599.969 3.2238 1.74547 0
M  V30 6202 H 599.617 2.79246 4.18367 0
M  V30 6203 H 599.317 4.50087 3.77751 0
M  V30 6204 H 600.841 4.03334 4.58426 0
M  V30 6205 H 602.255 5.11592 2.5874 0
M  V30 6206 H 600.652 5.65498 2.00827 0
M  V30 6207 H 601.722 4.76243 0.912159 0
M  V30 6208 N 603.065 -0.440357 1.51323 0
M  V30 6209 C 604.293 -1.21255 1.67645 0
M  V30 6210 C 604.708 -1.85088 0.37252 0
M  V30 6211 O 604.065 -1.70582 -0.648683 0
M  V30 6212 C 604.116 -2.29881 2.78993 0
M  V30 6213 O 603.837 -1.68659 4.04334 0
M  V30 6214 C 605.338 -3.20214 3.06558 0
M  V30 6215 H 602.558 -0.36558 0.562666 0
M  V30 6216 H 605.102 -0.52214 1.97722 0
M  V30 6217 H 603.257 -2.94643 2.51524 0
M  V30 6218 H 603.671 -2.40426 4.6615 0
M  V30 6219 H 605.145 -3.92575 3.88058 0
M  V30 6220 H 605.622 -3.80794 2.18844 0
M  V30 6221 H 606.228 -2.61156 3.35675 0
M  V30 6222 N 604.543 -1.41418 -0.695603 0
M  V30 6223 C 605.791 -1.40496 -1.45277 0
M  V30 6224 C 606.112 -0.0149538 -1.94994 0
M  V30 6225 O 605.382 0.9432 -1.71699 0
M  V30 6226 H 603.962 -0.517147 -0.539044 0
M  V30 6227 H 606.624 -1.76656 -0.823321 0
M  V30 6228 H 605.72 -2.09214 -2.31595 0
M  V30 6229 N 606.021 0.929856 -1.27246 0
M  V30 6230 C 607.267 1.6798 -1.13625 0
M  V30 6231 C 607.6 1.91586 0.317589 0
M  V30 6232 O 606.875 1.50467 1.23247 0
M  V30 6233 C 607.158 3.04766 -1.91806 0
M  V30 6234 C 607.011 2.88415 -3.45162 0
M  V30 6235 C 608.33 4.05063 -1.72082 0
M  V30 6236 H 605.449 0.609632 -0.414147 0
M  V30 6237 H 608.091 1.0792 -1.56376 0
M  V30 6238 H 606.241 3.56034 -1.55474 0
M  V30 6239 H 607.913 2.44282 -3.91311 0
M  V30 6240 H 606.156 2.23802 -3.71611 0
M  V30 6241 H 606.827 3.85482 -3.95105 0
M  V30 6242 H 609.303 3.62798 -2.03757 0
M  V30 6243 H 608.179 4.98765 -2.29182 0
M  V30 6244 H 608.44 4.37021 -0.668206 0
M  V30 6245 N 607.499 1.09233 1.13605 0
M  V30 6246 C 608.776 0.739633 1.81077 0
M  V30 6247 C 609.156 -0.775595 1.96336 0
M  V30 6248 O 608.504 -1.69726 1.52988 0
M  V30 6249 C 608.714 1.47636 3.16235 0
M  V30 6250 C 610.062 1.64087 3.91613 0
M  V30 6251 O 611.086 1.43871 3.25852 0
M  V30 6252 O 609.945 1.97511 5.0956 0
M  V30 6253 H 607.039 0.265464 0.783236 0
M  V30 6254 H 609.585 1.19441 1.20549 0
M  V30 6255 H 608.357 2.50818 3.00344 0
M  V30 6256 H 607.98 1.01362 3.84462 0
M  V30 6257 N 608.977 -1.30795 0.87923 0
M  V30 6258 C 610.224 -1.96362 0.494786 0
M  V30 6259 C 610.552 -1.69448 -0.954868 0
M  V30 6260 O 609.807 -0.988711 -1.68888 0
M  V30 6261 C 610.106 -3.50287 0.709476 0
M  V30 6262 C 609.772 -3.9724 2.13333 0
M  V30 6263 C 608.434 -4.09772 2.52271 0
M  V30 6264 C 610.786 -4.21807 3.06151 0
M  V30 6265 C 608.114 -4.44227 3.83248 0
M  V30 6266 C 610.466 -4.5773 4.36654 0
M  V30 6267 C 609.13 -4.68469 4.75492 0
M  V30 6268 H 608.4 -0.71854 0.181055 0
M  V30 6269 H 611.047 -1.55764 1.11399 0
M  V30 6270 H 609.352 -3.91799 0.0072 0
M  V30 6271 H 611.049 -3.99082 0.391703 0
M  V30 6272 H 607.639 -3.87988 1.82107 0
M  V30 6273 H 611.823 -4.11611 2.77291 0
M  V30 6274 H 607.079 -4.50741 4.13089 0
M  V30 6275 H 611.253 -4.7569 5.08617 0
M  V30 6276 H 608.88 -4.94923 5.77022 0
M  V30 6277 N 610.455 -0.639598 -1.44038 0
M  V30 6278 C 611.388 0.109736 -2.27936 0
M  V30 6279 C 612.366 0.843095 -1.39035 0
M  V30 6280 O 613.55 0.845456 -1.68476 0
M  V30 6281 C 610.677 1.16173 -3.18153 0
M  V30 6282 C 609.723 0.527954 -4.2322 0
M  V30 6283 S 610.556 -0.688318 -5.31058 0
M  V30 6284 C 611.712 0.363481 -6.24844 0
M  V30 6285 H 611.945 -0.601986 -2.91142 0
M  V30 6286 H 609.478 -0.42802 -1.48349 0
M  V30 6287 H 611.436 1.76372 -3.7068 0
M  V30 6288 H 610.097 1.84569 -2.54151 0
M  V30 6289 H 609.29 1.32054 -4.86393 0
M  V30 6290 H 608.892 0.000396444 -3.74 0
M  V30 6291 H 611.184 1.23362 -6.66174 0
M  V30 6292 H 612.127 -0.23288 -7.07717 0
M  V30 6293 H 612.535 0.693179 -5.60228 0
M  V30 6294 N 611.933 1.52934 -0.380664 0
M  V30 6295 C 613.349 1.59571 -0.0302429 0
M  V30 6296 C 613.549 1.39509 1.45394 0
M  V30 6297 O 612.605 1.20777 2.21741 0
M  V30 6298 C 613.918 2.96519 -0.499691 0
M  V30 6299 C 615.466 3.09672 -0.455204 0
M  V30 6300 C 615.941 4.49056 -0.900703 0
M  V30 6301 N 617.432 4.55215 -0.856367 0
M  V30 6302 C 618.167 5.61282 -1.17259 0
M  V30 6303 N 617.663 6.75035 -1.55885 0
M  V30 6304 N 619.456 5.51343 -1.0944 0
M  V30 6305 H 611.607 1.64224 -1.347 0
M  V30 6306 H 613.87 0.771033 -0.551554 0
M  V30 6307 H 613.576 3.16388 -1.53595 0
M  V30 6308 H 613.45 3.77052 0.105789 0
M  V30 6309 H 615.837 2.89504 0.571949 0
M  V30 6310 H 615.918 2.31113 -1.09638 0
M  V30 6311 H 615.562 4.69964 -1.92604 0
M  V30 6312 H 615.492 5.26068 -0.236629 0
M  V30 6313 H 617.983 3.73546 -0.572013 0
M  V30 6314 H 618.296 7.51926 -1.784 0
M  V30 6315 H 616.641 6.76388 -1.59764 0
M  V30 6316 H 619.832 4.61356 -0.791713 0
M  V30 6317 H 620.005 6.33905 -1.34417 0
M  V30 6318 N 613.412 0.11024 1.57214 0
M  V30 6319 C 614.345 -0.880224 2.1054 0
M  V30 6320 C 615.323 -1.26658 1.01964 0
M  V30 6321 O 616.507 -1.36917 1.29561 0
M  V30 6322 C 613.634 -2.17676 2.59489 0
M  V30 6323 C 612.68 -1.93914 3.79868 0
M  V30 6324 S 613.513 -1.16336 5.2271 0
M  V30 6325 C 614.669 -2.47188 5.75021 0
M  V30 6326 H 614.902 -0.426614 2.94223 0
M  V30 6327 H 612.435 -0.10336 1.54054 0
M  V30 6328 H 614.393 -2.92175 2.88347 0
M  V30 6329 H 613.054 -2.60156 1.76005 0
M  V30 6330 H 612.247 -2.8996 4.12236 0
M  V30 6331 H 611.849 -1.27539 3.51582 0
M  V30 6332 H 614.141 -3.43079 5.84211 0
M  V30 6333 H 615.084 -2.19377 6.7326 0
M  V30 6334 H 615.492 -2.56154 5.03036 0
M  V30 6335 N 614.89 -1.56749 -0.16351 0
M  V30 6336 C 616.306 -1.51043 -0.515567 0
M  V30 6337 C 616.506 -0.815855 -1.84245 0
M  V30 6338 O 615.562 -0.379477 -2.49632 0
M  V30 6339 C 616.875 -2.95791 -0.541114 0
M  V30 6340 C 618.423 -3.0664 -0.627776 0
M  V30 6341 C 618.898 -4.52861 -0.684141 0
M  V30 6342 N 620.389 -4.5714 -0.746818 0
M  V30 6343 C 621.124 -5.67634 -0.811137 0
M  V30 6344 N 620.62 -6.8774 -0.835811 0
M  V30 6345 N 622.413 -5.55624 -0.850756 0
M  V30 6346 H 614.564 -2.00307 0.70645 0
M  V30 6347 H 616.827 -0.912876 0.255659 0
M  V30 6348 H 616.533 -3.49797 0.365329 0
M  V30 6349 H 616.407 -3.50858 -1.38487 0
M  V30 6350 H 618.794 -2.52663 -1.52464 0
M  V30 6351 H 618.875 -2.54645 0.242805 0
M  V30 6352 H 618.519 -5.07472 0.2085 0
M  V30 6353 H 618.449 -5.02621 -1.57098 0
M  V30 6354 H 620.94 -3.70669 -0.735717 0
M  V30 6355 H 621.253 -7.67701 -0.886279 0
M  V30 6356 H 619.598 -6.90334 -0.803958 0
M  V30 6357 H 622.789 -4.60709 -0.828535 0
M  V30 6358 H 622.962 -6.41756 -0.897418 0
M  V30 6359 N 616.368 0.432326 -1.51554 0
M  V30 6360 C 617.316 1.54572 -1.73811 0
M  V30 6361 C 618.31 1.58246 -0.604539 0
M  V30 6362 O 619.516 1.6193 -0.786041 0
M  V30 6363 H 615.891 0.513626 -0.549265 0
M  V30 6364 H 617.862 1.32977 -2.67132 0
M  V30 6365 C 616.611 2.92181 -1.88483 0
M  V30 6366 H 615.934 2.90088 -2.75116 0
M  V30 6367 H 617.374 3.69439 -2.08065 0
M  V30 6368 C 615.833 3.3065 -0.645909 0
M  V30 6369 O 616.363 4.01216 0.197093 0
M  V30 6370 N 614.569 2.86464 -0.488538 0
M  V30 6371 H 614.116 2.29209 -1.17562 0
M  V30 6372 H 614.074 3.12565 0.339156 0
M  V30 6373 N 617.846 1.41785 0.688094 0
M  V30 6374 C 619.123 1.32031 1.44316 0
M  V30 6375 C 619.503 -0.0486079 2.11044 0
M  V30 6376 O 618.851 -1.06332 2.02252 0
M  V30 6377 C 619.061 2.47906 2.45649 0
M  V30 6378 C 620.409 2.89415 3.10683 0
M  V30 6379 O 621.433 2.477 2.55975 0
M  V30 6380 O 620.292 3.61573 4.09789 0
M  V30 6381 H 617.386 0.519994 0.643067 0
M  V30 6382 H 619.932 1.53765 0.71794 0
M  V30 6383 H 618.704 3.39222 1.95048 0
M  V30 6384 H 618.327 2.28089 3.25671 0
M  V30 6385 N 619.324 -0.923095 1.27737 0
M  V30 6386 C 620.573 -1.66581 1.13727 0
M  V30 6387 C 620.886 -1.9304 -0.315433 0
M  V30 6388 O 622.092 -2.65309 -0.57651 0
M  V30 6389 C 620.548 -3.00047 1.98745 0
M  V30 6390 C 620.156 -2.8127 3.48699 0
M  V30 6391 C 621.9 -3.77887 1.93395 0
M  V30 6392 C 619.807 -4.1032 4.25901 0
M  V30 6393 H 618.737 -0.624834 0.422017 0
M  V30 6394 H 621.388 -1.02514 1.52194 0
M  V30 6395 H 619.77 -3.65197 1.53125 0
M  V30 6396 H 620.944 -2.24859 4.02213 0
M  V30 6397 H 619.259 -2.16854 3.55476 0
M  V30 6398 H 621.856 -4.73526 2.48348 0
M  V30 6399 H 622.199 -4.06264 0.908605 0
M  V30 6400 H 622.732 -3.19541 2.36935 0
M  V30 6401 H 619.471 -3.8712 5.28978 0
M  V30 6402 H 618.991 -4.66377 3.77163 0
M  V30 6403 H 620.67 -4.78648 4.35321 0
M  V30 6404 N 620.802 -1.09834 -1.13024 0
M  V30 6405 C 621.75 -0.736283 -2.20639 0
M  V30 6406 C 622.744 0.264725 -1.67319 0
M  V30 6407 O 623.95 0.125745 -1.7956 0
M  V30 6408 H 620.325 -0.220136 -0.719058 0
M  V30 6409 H 622.296 -1.65295 -2.48436 0
M  V30 6410 C 621.045 -0.177544 -3.47246 0
M  V30 6411 H 620.368 -0.939009 -3.88616 0
M  V30 6412 H 621.808 0.0378007 -4.23983 0
M  V30 6413 C 620.267 1.08824 -3.1884 0
M  V30 6414 O 620.797 2.1708 -3.37993 0
M  V30 6415 N 619.003 1.00442 -2.7269 0
M  V30 6416 H 618.55 0.123383 -2.57304 0
M  V30 6417 H 618.508 1.85206 -2.5406 0
M  V30 6418 N 622.28 1.30327 -0.886154 0
M  V30 6419 C 623.243 2.26376 -0.358687 0
M  V30 6420 C 624.243 1.52845 0.499498 0
M  V30 6421 O 625.433 1.71483 0.306485 0
M  V30 6422 C 622.565 3.37379 0.488726 0
M  V30 6423 H 623.758 2.74547 -1.20681 0
M  V30 6424 H 621.311 1.41536 -0.663113 0
M  V30 6425 H 622.046 2.94526 1.35739 0
M  V30 6426 H 621.831 3.91897 -0.126003 0
M  V30 6427 H 623.321 4.08868 0.84952 0
M  V30 6428 N 623.758 0.647228 1.43697 0
M  V30 6429 C 625.004 0.167001 2.02713 0
M  V30 6430 C 625.359 -1.20351 1.50111 0
M  V30 6431 O 624.652 -1.79047 0.682113 0
M  V30 6432 C 624.846 0.111481 3.57226 0
M  V30 6433 C 624.675 1.47507 4.2482 0
M  V30 6434 C 623.445 2.06594 4.61137 0
M  V30 6435 C 625.643 2.41224 4.54219 0
M  V30 6436 N 623.625 3.3602 5.13774 0
M  V30 6437 C 624.996 3.55278 5.08112 0
M  V30 6438 C 627.051 2.40102 4.36183 0
M  V30 6439 C 625.754 4.68426 5.45866 0
M  V30 6440 C 627.78 3.52326 4.74995 0
M  V30 6441 C 627.142 4.65104 5.29015 0
M  V30 6442 H 623.241 0.105402 0.774864 0
M  V30 6443 H 625.825 0.854229 1.7496 0
M  V30 6444 H 623.996 -0.545073 3.84556 0
M  V30 6445 H 625.728 -0.379063 4.02921 0
M  V30 6446 H 622.483 1.59366 4.45981 0
M  V30 6447 H 622.907 4.02233 5.44552 0
M  V30 6448 H 627.549 1.54151 3.93697 0
M  V30 6449 H 625.267 5.55074 5.87298 0
M  V30 6450 H 628.853 3.52652 4.6274 0
M  V30 6451 H 627.733 5.50506 5.58492 0
M  V30 6452 N 625.236 -1.5273 0.388769 0
M  V30 6453 C 626.483 -2.01573 -0.19359 0
M  V30 6454 C 626.811 -1.27525 -1.46859 0
M  V30 6455 O 626.066 -0.363926 -1.92286 0
M  V30 6456 C 626.365 -3.53765 -0.508445 0
M  V30 6457 C 626.031 -4.4582 0.674947 0
M  V30 6458 C 624.693 -4.70703 0.999596 0
M  V30 6459 C 627.045 -5.00138 1.46666 0
M  V30 6460 C 624.373 -5.47155 2.11751 0
M  V30 6461 C 626.725 -5.77812 2.57518 0
M  V30 6462 C 625.389 -6.00975 2.90492 0
M  V30 6463 H 624.659 -0.737606 -0.0708397 0
M  V30 6464 H 627.306 -1.84134 0.526006 0
M  V30 6465 H 625.611 -3.69274 -1.30936 0
M  V30 6466 H 627.308 -3.8905 -0.971664 0
M  V30 6467 H 623.898 -4.26616 0.411906 0
M  V30 6468 H 628.082 -4.8084 1.22909 0
M  V30 6469 H 623.338 -5.63314 2.3767 0
M  V30 6470 H 627.512 -6.18904 3.19267 0
M  V30 6471 H 625.139 -6.59998 3.77236 0
M  V30 6472 N 626.714 -0.118576 -1.57153 0
M  V30 6473 C 627.962 0.538461 -1.94795 0
M  V30 6474 C 628.283 1.67243 -1.00274 0
M  V30 6475 O 627.553 1.95811 -0.0589692 0
M  V30 6476 H 626.133 0.201904 -0.719197 0
M  V30 6477 H 628.795 -0.187418 -1.93997 0
M  V30 6478 H 627.891 0.933315 -2.97818 0
M  V30 6479 N 628.193 1.56834 0.155195 0
M  V30 6480 C 629.423 1.86778 0.883044 0
M  V30 6481 C 629.831 0.703824 1.75622 0
M  V30 6482 O 629.174 -0.33581 1.80605 0
M  V30 6483 C 629.236 3.1133 1.79761 0
M  V30 6484 C 628.9 4.43504 1.10242 0
M  V30 6485 C 629.897 5.17859 0.460204 0
M  V30 6486 C 627.582 4.90233 1.09437 0
M  V30 6487 C 629.576 6.37144 -0.180782 0
M  V30 6488 C 627.263 6.09444 0.449569 0
M  V30 6489 C 628.261 6.82744 -0.186888 0
M  V30 6490 O 627.949 7.99692 -0.821486 0
M  V30 6491 H 627.681 0.62352 0.261149 0
M  V30 6492 H 630.235 2.04813 0.155204 0
M  V30 6493 H 628.465 2.89282 2.56618 0
M  V30 6494 H 630.154 3.27587 2.39669 0
M  V30 6495 H 630.92 4.8283 0.458289 0
M  V30 6496 H 626.799 4.33109 1.57917 0
M  V30 6497 H 630.343 6.94296 -0.678154 0
M  V30 6498 H 626.24 6.43936 0.449123 0
M  V30 6499 H 627.008 8.15306 -0.722337 0
M  V30 6500 N 629.671 -0.424282 1.51781 0
M  V30 6501 C 630.948 -1.18464 1.55646 0
M  V30 6502 C 631.328 -2.08529 0.328438 0
M  V30 6503 O 630.676 -2.17969 -0.685693 0
M  V30 6504 C 630.886 -1.97514 2.87731 0
M  V30 6505 C 632.234 -2.54106 3.40169 0
M  V30 6506 O 633.258 -2.07711 2.89369 0
M  V30 6507 O 632.117 -3.38759 4.28841 0
M  V30 6508 H 629.211 -0.540055 0.626314 0
M  V30 6509 H 631.757 -0.432291 1.64102 0
M  V30 6510 H 630.529 -1.31444 3.68562 0
M  V30 6511 H 630.152 -2.79787 2.82498 0
M  V30 6512 N 631.149 -1.42148 -0.680565 0
M  V30 6513 C 632.426 -1.32795 -1.43614 0
M  V30 6514 C 632.806 0.037415 -2.11067 0
M  V30 6515 O 632.154 1.05258 -2.02813 0
M  V30 6516 C 632.364 -2.49206 -2.44331 0
M  V30 6517 C 633.712 -2.91059 -3.09144 0
M  V30 6518 O 634.736 -2.49054 -2.54657 0
M  V30 6519 O 633.595 -3.63741 -4.07866 0
M  V30 6520 H 630.689 -0.523397 -0.640301 0
M  V30 6521 H 633.235 -1.54144 -0.709775 0
M  V30 6522 H 632.007 -3.40252 -1.93247 0
M  V30 6523 H 631.63 -2.29813 -3.24456 0
M  V30 6524 N 632.627 0.916307 -1.28225 0
M  V30 6525 C 633.852 1.7043 -1.18188 0
M  V30 6526 C 634.277 1.86346 0.256274 0
M  V30 6527 O 633.635 1.37175 1.18544 0
M  V30 6528 C 633.683 3.07546 -1.88275 0
M  V30 6529 O 632.787 3.94904 -1.18848 0
M  V30 6530 H 632.128 0.521967 -0.410423 0
M  V30 6531 H 634.658 1.14589 -1.69501 0
M  V30 6532 H 634.668 3.57793 -1.96082 0
M  V30 6533 H 633.343 2.95279 -2.92887 0
M  V30 6534 H 631.92 3.53339 -1.19187 0
M  V30 6535 N 634.105 1.10431 1.1244 0
M  V30 6536 C 635.351 0.847972 1.84221 0
M  V30 6537 C 635.684 -0.624903 1.83871 0
M  V30 6538 O 634.959 -1.46074 1.28423 0
M  V30 6539 C 635.242 1.39695 3.319 0
M  V30 6540 C 635.095 2.93668 3.40704 0
M  V30 6541 C 636.414 1.03924 4.27654 0
M  V30 6542 H 633.533 0.309502 0.668863 0
M  V30 6543 H 636.175 1.36745 1.31912 0
M  V30 6544 H 634.325 0.955095 3.76577 0
M  V30 6545 H 635.997 3.46379 3.04662 0
M  V30 6546 H 634.24 3.30272 2.81252 0
M  V30 6547 H 634.911 3.27162 4.446 0
M  V30 6548 H 637.387 1.42049 3.91102 0
M  V30 6549 H 636.263 1.45027 5.29394 0
M  V30 6550 H 636.524 -0.051336 4.4207 0
M  V30 6551 N 635.583 -1.29855 0.893053 0
M  V30 6552 C 636.994 -1.77946 0.564998 0
M  V30 6553 C 637.345 -1.73339 -0.919134 0
M  V30 6554 O 636.47 -1.3152 -1.71847 0
M  V30 6555 C 637.065 -3.23118 1.01883 0
M  V30 6556 C 635.624 -3.69013 0.742051 0
M  V30 6557 C 634.771 -2.50121 1.19727 0
M  V30 6558 H 637.722 -1.16611 1.07646 0
M  V30 6559 H 637.743 -3.78875 0.351249 0
M  V30 6560 H 637.255 -3.26439 2.09903 0
M  V30 6561 H 635.356 -3.71173 -0.325816 0
M  V30 6562 H 635.469 -4.60117 1.33527 0
M  V30 6563 H 633.833 -2.47128 0.616418 0
M  V30 6564 H 634.616 -2.56174 2.28538 0
M  V30 6565 N 637.061 -0.65484 -1.43351 0
M  V30 6566 C 637.991 0.0221809 -2.33489 0
M  V30 6567 C 638.972 0.810272 -1.49561 0
M  V30 6568 O 640.157 0.771426 -1.78221 0
M  V30 6569 C 637.287 0.988117 -3.32947 0
M  V30 6570 C 636.241 0.310026 -4.26876 0
M  V30 6571 C 635.567 1.38752 -5.16384 0
M  V30 6572 C 636.867 -0.798589 -5.16159 0
M  V30 6573 H 638.561 -0.730571 -2.9035 0
M  V30 6574 H 636.107 -0.352773 -1.39612 0
M  V30 6575 H 638.06 1.47067 -3.94904 0
M  V30 6576 H 636.784 1.77205 -2.74346 0
M  V30 6577 H 635.443 -0.152097 -3.66284 0
M  V30 6578 H 635.091 2.16293 -4.54121 0
M  V30 6579 H 634.791 0.939051 -5.80048 0
M  V30 6580 H 636.315 1.87141 -5.81215 0
M  V30 6581 H 637.729 -0.398126 -5.71916 0
M  V30 6582 H 636.126 -1.17163 -5.88552 0
M  V30 6583 H 637.196 -1.65588 -4.55751 0
M  V30 6584 N 638.539 1.52521 -0.396863 0
M  V30 6585 C 639.469 2.29582 0.425941 0
M  V30 6586 C 640.45 1.33281 1.05689 0
M  V30 6587 O 641.635 1.62181 1.06823 0
M  V30 6588 C 638.765 3.10821 1.54943 0
M  V30 6589 C 637.719 4.15069 1.04413 0
M  V30 6590 C 637.045 4.84578 2.26028 0
M  V30 6591 C 638.345 5.22191 0.106767 0
M  V30 6592 H 640.039 2.98612 -0.217045 0
M  V30 6593 H 637.585 1.43611 -0.105826 0
M  V30 6594 H 639.538 3.63492 2.13193 0
M  V30 6595 H 638.262 2.39538 2.22011 0
M  V30 6596 H 636.921 3.63389 0.484118 0
M  V30 6597 H 636.569 4.09835 2.91623 0
M  V30 6598 H 636.269 5.55043 1.92876 0
M  V30 6599 H 637.793 5.40056 2.84906 0
M  V30 6600 H 639.207 5.70176 0.597685 0
M  V30 6601 H 637.604 5.99947 -0.135352 0
M  V30 6602 H 638.674 4.77531 -0.842134 0
M  V30 6603 N 640.017 0.126909 1.57088 0
M  V30 6604 C 640.965 -0.837618 2.16995 0
M  V30 6605 C 641.959 -1.26974 1.12133 0
M  V30 6606 O 643.165 -1.24056 1.30423 0
M  V30 6607 H 639.54 -0.288256 0.694559 0
M  V30 6608 H 641.511 -0.307957 2.96807 0
M  V30 6609 C 640.26 -2.07474 2.79016 0
M  V30 6610 H 639.583 -1.75117 3.59408 0
M  V30 6611 H 641.023 -2.72949 3.24461 0
M  V30 6612 C 639.482 -2.86967 1.76498 0
M  V30 6613 O 640.012 -3.82625 1.22316 0
M  V30 6614 N 638.218 -2.51111 1.46258 0
M  V30 6615 H 637.765 -1.73389 1.90509 0
M  V30 6616 H 637.723 -3.04594 0.779085 0
M  V30 6617 N 641.495 -1.56914 -0.146875 0
M  V30 6618 C 642.425 -2.01308 -1.1831 0
M  V30 6619 C 643.406 -0.892664 -1.44795 0
M  V30 6620 O 644.591 -1.16048 -1.55713 0
M  V30 6621 C 641.721 -2.3938 -2.51624 0
M  V30 6622 C 640.675 -3.54608 -2.3966 0
M  V30 6623 C 640.001 -3.78493 -3.77686 0
M  V30 6624 C 641.301 -4.87269 -1.88058 0
M  V30 6625 H 642.995 -2.88123 -0.813964 0
M  V30 6626 H 640.541 -1.38615 -0.3901 0
M  V30 6627 H 642.494 -2.69037 -3.24341 0
M  V30 6628 H 641.218 -1.49502 -2.90373 0
M  V30 6629 H 639.877 -3.25116 -1.69396 0
M  V30 6630 H 639.525 -2.85866 -4.13871 0
M  V30 6631 H 639.225 -4.56039 -3.70543 0
M  V30 6632 H 640.749 -4.10576 -4.51951 0
M  V30 6633 H 642.163 -5.15644 -2.50568 0
M  V30 6634 H 640.56 -5.68622 -1.91805 0
M  V30 6635 H 641.63 -4.77634 -0.836277 0
M  V30 6636 N 642.974 0.416227 -1.52004 0
M  V30 6637 C 644.204 1.18401 -1.69307 0
M  V30 6638 C 644.612 1.84943 -0.399072 0
M  V30 6639 O 643.955 1.72406 0.634177 0
M  V30 6640 C 644.017 2.29465 -2.76742 0
M  V30 6641 C 643.681 1.83117 -4.18709 0
M  V30 6642 C 644.678 1.32286 -5.02789 0
M  V30 6643 C 642.363 1.90167 -4.64911 0
M  V30 6644 C 644.357 0.891178 -6.31139 0
M  V30 6645 C 642.044 1.4661 -5.93253 0
M  V30 6646 C 643.042 0.961696 -6.76196 0
M  V30 6647 O 642.73 0.532388 -8.02135 0
M  V30 6648 H 642.462 0.362098 -0.570843 0
M  V30 6649 H 645.016 0.496764 -1.99302 0
M  V30 6650 H 643.246 3.01531 -2.42107 0
M  V30 6651 H 644.935 2.91252 -2.82713 0
M  V30 6652 H 645.701 1.26218 -4.68288 0
M  V30 6653 H 641.58 2.28371 -4.00459 0
M  V30 6654 H 645.124 0.496788 -6.95829 0
M  V30 6655 H 641.021 1.52355 -6.27263 0
M  V30 6656 H 641.789 0.656339 -8.15864 0
M  V30 6657 N 644.452 1.42507 0.673017 0
M  V30 6658 C 645.4 1.46362 1.80779 0
M  V30 6659 C 646.394 0.339166 1.6597 0
M  V30 6660 O 647.6 0.512262 1.72557 0
M  V30 6661 H 643.975 0.458433 0.596107 0
M  V30 6662 H 645.946 2.41953 1.74646 0
M  V30 6663 C 644.695 1.38462 3.18941 0
M  V30 6664 H 644.018 2.24283 3.30964 0
M  V30 6665 H 645.458 1.45221 3.98355 0
M  V30 6666 C 643.917 0.0996354 3.36753 0
M  V30 6667 O 644.447 -0.846894 3.92671 0
M  V30 6668 N 642.653 0.016211 2.90595 0
M  V30 6669 H 642.2 0.78725 2.45276 0
M  V30 6670 H 642.158 -0.84291 3.0289 0
M  V30 6671 N 645.93 -0.909495 1.28709 0
M  V30 6672 C 647.341 -1.47419 1.14563 0
M  V30 6673 C 647.692 -1.94432 -0.262832 0
M  V30 6674 O 646.817 -1.82842 -1.15748 0
M  V30 6675 C 647.412 -2.67933 2.07358 0
M  V30 6676 C 645.971 -3.20568 1.97264 0
M  V30 6677 C 645.118 -1.93269 1.98852 0
M  V30 6678 H 648.069 -0.721787 1.41336 0
M  V30 6679 H 648.09 -3.43339 1.64007 0
M  V30 6680 H 647.602 -2.33685 3.09859 0
M  V30 6681 H 645.703 -3.59531 0.978157 0
M  V30 6682 H 645.816 -3.85529 2.84436 0
M  V30 6683 H 644.18 -2.10553 1.43317 0
M  V30 6684 H 644.963 -1.61312 3.0304 0
M  V30 6685 N 647.408 -1.11026 -1.11852 0
M  V30 6686 C 648.654 -0.857729 -1.83768 0
M  V30 6687 C 648.987 0.615143 -1.842 0
M  V30 6688 O 648.262 1.45391 -1.29196 0
M  V30 6689 C 648.545 -1.41453 -3.31154 0
M  V30 6690 C 648.398 -2.95471 -3.39142 0
M  V30 6691 C 649.717 -1.0619 -4.27097 0
M  V30 6692 H 646.836 -0.313044 -0.667212 0
M  V30 6693 H 649.478 -1.37443 -1.31185 0
M  V30 6694 H 647.628 -0.975052 -3.76065 0
M  V30 6695 H 649.3 -3.4799 -3.02821 0
M  V30 6696 H 647.543 -3.31759 -2.79497 0
M  V30 6697 H 648.214 -3.29515 -4.42859 0
M  V30 6698 H 650.69 -1.44122 -3.90344 0
M  V30 6699 H 649.566 -1.47832 -5.28618 0
M  V30 6700 H 649.827 0.0278912 -4.42091 0
M  V30 6701 N 648.886 1.2938 -0.899927 0
M  V30 6702 C 649.834 2.29675 -0.367698 0
M  V30 6703 C 650.828 1.60787 0.533282 0
M  V30 6704 O 652.034 1.75126 0.416058 0
M  V30 6705 H 648.409 0.745284 -0.100279 0
M  V30 6706 H 650.38 2.72008 -1.22696 0
M  V30 6707 C 649.129 3.45512 0.389483 0
M  V30 6708 H 648.452 3.98713 -0.294575 0
M  V30 6709 H 649.892 4.17725 0.726744 0
M  V30 6710 C 648.351 2.969 1.59223 0
M  V30 6711 O 648.881 2.98195 2.69152 0
M  V30 6712 N 647.087 2.52728 1.43447 0
M  V30 6713 H 646.634 2.51873 0.540148 0
M  V30 6714 H 646.592 2.20561 2.24054 0
M  V30 6715 N 650.364 0.662433 1.43002 0
M  V30 6716 C 651.592 0.187615 2.06048 0
M  V30 6717 C 652.007 -1.15039 1.49705 0
M  V30 6718 O 651.364 -1.71209 0.631956 0
M  V30 6719 C 651.415 0.100498 3.6136 0
M  V30 6720 O 651.136 1.38562 4.15611 0
M  V30 6721 C 652.637 -0.399298 4.41498 0
M  V30 6722 H 649.857 0.0941675 0.664359 0
M  V30 6723 H 652.401 0.905681 1.83351 0
M  V30 6724 H 650.556 -0.568181 3.83211 0
M  V30 6725 H 650.97 1.25084 5.09366 0
M  V30 6726 H 652.444 -0.409187 5.50481 0
M  V30 6727 H 652.921 -1.43232 4.15188 0
M  V30 6728 H 653.527 0.23721 4.24638 0
M  V30 6729 N 651.842 -1.52309 0.404946 0
M  V30 6730 C 653.119 -1.94237 -0.230544 0
M  V30 6731 C 653.499 -1.34154 -1.6299 0
M  V30 6732 O 652.847 -0.515713 -2.22604 0
M  V30 6733 C 653.057 -3.48166 -0.241106 0
M  V30 6734 C 654.405 -4.22074 -0.462488 0
M  V30 6735 O 655.429 -3.54754 -0.320644 0
M  V30 6736 O 654.288 -5.41443 -0.741708 0
M  V30 6737 H 651.382 -0.813766 -0.147358 0
M  V30 6738 H 653.928 -1.6333 0.460587 0
M  V30 6739 H 652.7 -3.84269 0.738467 0
M  V30 6740 H 652.323 -3.85422 -0.97651 0
M  V30 6741 N 653.32 -0.135238 -1.57019 0
M  V30 6742 C 654.567 0.518794 -1.95742 0
M  V30 6743 C 654.895 1.65642 -1.01947 0
M  V30 6744 O 654.15 1.95645 -0.0464016 0
M  V30 6745 C 654.449 1.07694 -3.40788 0
M  V30 6746 C 654.115 0.058992 -4.50861 0
M  V30 6747 C 652.777 -0.220872 -4.80693 0
M  V30 6748 C 655.129 -0.633856 -5.17331 0
M  V30 6749 C 652.457 -1.19959 -5.74305 0
M  V30 6750 C 654.809 -1.60131 -6.11997 0
M  V30 6751 C 653.473 -1.889 -6.40213 0
M  V30 6752 H 652.743 0.18984 -0.716269 0
M  V30 6753 H 655.39 -0.219581 -1.90237 0
M  V30 6754 H 653.695 1.89241 -3.43067 0
M  V30 6755 H 655.392 1.59137 -3.68071 0
M  V30 6756 H 651.982 0.287304 -4.27636 0
M  V30 6757 H 656.166 -0.430823 -4.94427 0
M  V30 6758 H 651.422 -1.42905 -5.94465 0
M  V30 6759 H 655.596 -2.14376 -6.62583 0
M  V30 6760 H 653.223 -2.64891 -7.12556 0
M  V30 6761 N 654.798 1.5699 0.138552 0
M  V30 6762 C 656.075 1.74741 0.87891 0
M  V30 6763 C 656.455 0.705522 1.98961 0
M  V30 6764 O 655.803 -0.274066 2.2685 0
M  V30 6765 C 656.013 3.1909 1.4136 0
M  V30 6766 C 657.361 3.81023 1.87368 0
M  V30 6767 O 658.385 3.22571 1.51084 0
M  V30 6768 O 657.244 4.83722 2.54312 0
M  V30 6769 H 654.338 0.714781 0.415953 0
M  V30 6770 H 656.884 1.69248 0.123817 0
M  V30 6771 H 655.656 3.86424 0.61579 0
M  V30 6772 H 655.279 3.29043 2.23196 0
M  V30 6773 N 656.276 -0.40816 1.52223 0
M  V30 6774 C 657.523 -1.15502 1.66329 0
M  V30 6775 C 657.851 -1.90474 0.393701 0
M  V30 6776 O 657.106 -1.85507 -0.623356 0
M  V30 6777 C 657.405 -2.17422 2.83659 0
M  V30 6778 C 657.071 -1.5925 4.21841 0
M  V30 6779 C 655.733 -1.4311 4.59427 0
M  V30 6780 C 658.085 -1.16776 5.0795 0
M  V30 6781 C 655.413 -0.830148 5.80797 0
M  V30 6782 C 657.765 -0.580988 6.29926 0
M  V30 6783 C 656.429 -0.406729 6.6626 0
M  V30 6784 H 655.699 -0.422653 0.608642 0
M  V30 6785 H 658.346 -0.442114 1.86327 0
M  V30 6786 H 656.651 -2.94861 2.58001 0
M  V30 6787 H 658.348 -2.75084 2.9177 0
M  V30 6788 H 654.938 -1.72796 3.92224 0
M  V30 6789 H 659.122 -1.28055 4.79495 0
M  V30 6790 H 654.378 -0.68316 6.07571 0
M  V30 6791 H 658.552 -0.243488 6.95974 0
M  V30 6792 H 656.179 0.0610366 7.60175 0
M  V30 6793 N 657.755 -1.42862 -0.66545 0
M  V30 6794 C 658.703 -1.47319 -1.8 0
M  V30 6795 C 659.697 -0.347963 -1.65788 0
M  V30 6796 O 660.903 -0.521406 -1.72283 0
M  V30 6797 H 657.278 -0.461588 -0.593667 0
M  V30 6798 H 659.249 -2.42876 -1.7336 0
M  V30 6799 C 657.998 -1.40152 -3.18203 0
M  V30 6800 H 657.321 -2.26035 -3.2977 0
M  V30 6801 H 658.761 -1.47331 -3.9758 0
M  V30 6802 C 657.22 -0.117493 -3.36695 0
M  V30 6803 O 657.75 0.826058 -3.93115 0
M  V30 6804 N 655.956 -0.0316218 -2.90583 0
M  V30 6805 H 655.503 -0.800247 -2.44855 0
M  V30 6806 H 655.461 0.826835 -3.03333 0
M  V30 6807 N 659.233 0.902656 -1.29189 0
M  V30 6808 C 660.196 1.98797 -1.14071 0
M  V30 6809 C 661.196 1.60615 -0.0770549 0
M  V30 6810 O 662.386 1.71165 -0.323753 0
M  V30 6811 C 659.518 3.32688 -0.743739 0
M  V30 6812 H 660.711 2.13637 -2.10473 0
M  V30 6813 H 658.264 1.08678 -1.12334 0
M  V30 6814 H 658.999 3.23549 0.220554 0
M  V30 6815 H 658.784 3.61765 -1.51223 0
M  V30 6816 H 660.274 4.12337 -0.660935 0
M  V30 6817 N 660.711 1.11618 1.11262 0
M  V30 6818 C 661.658 0.7762 2.17356 0
M  V30 6819 C 662.628 -0.253152 1.6416 0
M  V30 6820 O 663.813 -0.129655 1.90359 0
M  V30 6821 C 660.953 0.227581 3.44349 0
M  V30 6822 C 660.066 1.31372 4.1154 0
M  V30 6823 C 659.201 0.72544 5.26223 0
M  V30 6824 C 658.24 1.7913 5.85302 0
M  V30 6825 N 657.377 1.22237 6.91377 0
M  V30 6826 H 662.217 1.68508 2.45783 0
M  V30 6827 H 659.754 0.841475 1.20655 0
M  V30 6828 H 661.712 -0.108483 4.17059 0
M  V30 6829 H 660.342 -0.644486 3.16301 0
M  V30 6830 H 659.394 1.7667 3.36885 0
M  V30 6831 H 660.706 2.12005 4.51504 0
M  V30 6832 H 659.86 0.339541 6.05749 0
M  V30 6833 H 658.599 -0.112188 4.87571 0
M  V30 6834 H 657.604 2.18648 5.04453 0
M  V30 6835 H 658.829 2.63199 6.26022 0
M  V30 6836 H 656.775 0.406423 6.5474 0
M  V30 6837 H 656.692 1.9654 7.30006 0
M  V30 6838 H 657.96 0.863426 7.74703 0
M  V30 6839 N 662.189 -1.289 0.906776 0
M  V30 6840 C 663.466 -1.90221 0.455537 0
M  V30 6841 C 663.846 -1.82251 -1.06527 0
M  V30 6842 O 663.194 -1.25385 -1.91026 0
M  V30 6843 C 663.404 -3.35015 0.97806 0
M  V30 6844 C 664.752 -4.12018 1.02598 0
M  V30 6845 O 665.776 -3.43947 0.926218 0
M  V30 6846 O 664.635 -5.33677 1.17689 0
M  V30 6847 H 661.729 -0.814505 0.143214 0
M  V30 6848 H 664.275 -1.37317 0.997104 0
M  V30 6849 H 663.047 -3.35006 2.02204 0
M  V30 6850 H 662.67 -3.95408 0.416914 0
M  V30 6851 N 663.667 -0.670007 -1.42649 0
M  V30 6852 C 665.078 -0.268118 -1.84765 0
M  V30 6853 C 665.429 1.18877 -1.56086 0
M  V30 6854 O 664.554 1.90947 -1.01825 0
M  V30 6855 C 665.149 -0.47984 -3.35385 0
M  V30 6856 C 663.708 -0.132116 -3.76168 0
M  V30 6857 C 662.855 -0.774611 -2.66261 0
M  V30 6858 H 665.806 -0.872509 -1.32563 0
M  V30 6859 H 665.827 0.269522 -3.79544 0
M  V30 6860 H 665.339 -1.54026 -3.56227 0
M  V30 6861 H 663.44 0.92505 -3.60934 0
M  V30 6862 H 663.553 -0.569294 -4.75706 0
M  V30 6863 H 661.917 -0.206353 -2.53863 0
M  V30 6864 H 662.7 -1.83839 -2.89928 0
M  V30 6865 N 665.145 1.52092 -0.413018 0
M  V30 6866 C 666.108 2.25706 0.398687 0
M  V30 6867 C 667.108 1.28221 0.970368 0
M  V30 6868 O 668.298 1.52131 0.848635 0
M  V30 6869 C 665.43 3.03029 1.5616 0
M  V30 6870 H 666.623 2.98888 -0.246131 0
M  V30 6871 H 664.176 1.5542 -0.165622 0
M  V30 6872 H 664.911 2.34205 2.24317 0
M  V30 6873 H 664.696 3.74606 1.15812 0
M  V30 6874 H 666.186 3.58857 2.13569 0
M  V30 6875 N 666.623 0.143563 1.56945 0
M  V30 6876 C 667.571 -0.814556 2.17871 0
M  V30 6877 C 668.565 -1.25778 1.13474 0
M  V30 6878 O 669.771 -1.22666 1.31731 0
M  V30 6879 H 666.146 -0.280873 0.697578 0
M  V30 6880 H 668.117 -0.276459 2.97117 0
M  V30 6881 C 666.866 -2.04503 2.81201 0
M  V30 6882 H 666.189 -1.71296 3.61245 0
M  V30 6883 H 667.629 -2.69493 3.27337 0
M  V30 6884 C 666.088 -2.85079 1.79532 0
M  V30 6885 O 666.618 -3.81306 1.26368 0
M  V30 6886 N 664.824 -2.49546 1.48913 0
M  V30 6887 H 664.371 -1.71359 1.92338 0
M  V30 6888 H 664.329 -3.03751 0.811348 0
M  V30 6889 N 668.101 -1.57061 -0.130224 0
M  V30 6890 C 669.326 -1.88802 -0.858409 0
M  V30 6891 C 669.751 -0.734353 -1.73173 0
M  V30 6892 O 669.109 0.315529 -1.78533 0
M  V30 6893 C 669.157 -3.19228 -1.67708 0
M  V30 6894 O 668.261 -3.04343 -2.78297 0
M  V30 6895 H 667.602 -0.619849 -0.238083 0
M  V30 6896 H 670.132 -2.04271 -0.115995 0
M  V30 6897 H 670.142 -3.51669 -2.06864 0
M  V30 6898 H 668.817 -4.02793 -1.0359 0
M  V30 6899 H 667.394 -2.83346 -2.42425 0
M  V30 6900 N 669.579 0.400081 -1.52437 0
M  V30 6901 C 670.827 1.14392 -1.6661 0
M  V30 6902 C 671.148 1.90792 -0.402927 0
M  V30 6903 O 670.418 1.87042 0.582425 0
M  V30 6904 H 668.998 0.425275 -0.614125 0
M  V30 6905 H 671.66 0.455076 -1.89513 0
M  V30 6906 H 670.756 1.85298 -2.51139 0
M  V30 6907 N 671.057 1.43213 0.657864 0
M  V30 6908 C 672.468 1.39669 1.23893 0
M  V30 6909 C 672.819 0.0984217 1.95953 0
M  V30 6910 O 671.944 -0.8023 2.00978 0
M  V30 6911 C 672.539 2.53004 2.25332 0
M  V30 6912 C 671.098 2.5274 2.78926 0
M  V30 6913 C 670.245 2.30941 1.53497 0
M  V30 6914 H 673.196 1.52181 0.450172 0
M  V30 6915 H 673.217 2.24226 3.07413 0
M  V30 6916 H 672.729 3.4748 1.72856 0
M  V30 6917 H 670.83 1.6213 3.35477 0
M  V30 6918 H 670.943 3.50352 3.26787 0
M  V30 6919 H 669.307 1.7952 1.80678 0
M  V30 6920 H 670.09 3.27496 1.02963 0
M  V30 6921 N 672.536 -0.895792 1.29666 0
M  V30 6922 C 673.766 -1.67757 1.20586 0
M  V30 6923 C 674.174 -1.87729 -0.235432 0
M  V30 6924 O 673.517 -1.41706 -1.16898 0
M  V30 6925 C 673.579 -3.08117 1.85215 0
M  V30 6926 C 673.243 -3.1136 3.3452 0
M  V30 6927 C 674.24 -2.91217 4.30684 0
M  V30 6928 C 671.925 -3.33302 3.75786 0
M  V30 6929 C 673.919 -2.92955 5.66089 0
M  V30 6930 C 671.606 -3.3467 5.11311 0
M  V30 6931 C 672.604 -3.14519 6.06273 0
M  V30 6932 O 672.292 -3.15684 7.39323 0
M  V30 6933 H 672.024 -0.530601 0.418854 0
M  V30 6934 H 674.578 -1.12831 1.71634 0
M  V30 6935 H 672.808 -3.64661 1.28683 0
M  V30 6936 H 674.497 -3.68399 1.70403 0
M  V30 6937 H 675.263 -2.74074 4.00136 0
M  V30 6938 H 671.142 -3.48025 3.02324 0
M  V30 6939 H 674.686 -2.77145 6.40185 0
M  V30 6940 H 670.583 -3.51346 5.41504 0
M  V30 6941 H 671.351 -3.31924 7.48177 0
M  V30 6942 N 674.014 -1.12206 -1.10668 0
M  V30 6943 C 675.43 -0.857619 -1.346 0
M  V30 6944 C 675.63 0.513542 -1.94846 0
M  V30 6945 O 674.686 1.26273 -2.18658 0
M  V30 6946 C 675.999 -1.97212 -2.26998 0
M  V30 6947 C 677.547 -2.00272 -2.40542 0
M  V30 6948 C 678.022 -3.10948 -3.36267 0
M  V30 6949 N 679.513 -3.10375 -3.43834 0
M  V30 6950 C 680.248 -3.92651 -4.17867 0
M  V30 6951 N 679.744 -4.84911 -4.94807 0
M  V30 6952 N 681.537 -3.80798 -4.1346 0
M  V30 6953 H 673.688 -2.00558 -0.699306 0
M  V30 6954 H 675.951 -0.872612 -0.370477 0
M  V30 6955 H 675.657 -2.96002 -1.89936 0
M  V30 6956 H 675.531 -1.87521 -3.27286 0
M  V30 6957 H 677.918 -1.02103 -2.76874 0
M  V30 6958 H 677.999 -2.14037 -1.40077 0
M  V30 6959 H 677.643 -4.09348 -3.00661 0
M  V30 6960 H 677.573 -2.94421 -4.36605 0
M  V30 6961 H 680.064 -2.43536 -2.88961 0
M  V30 6962 H 680.377 -5.44207 -5.48688 0
M  V30 6963 H 678.722 -4.88926 -4.93939 0
M  V30 6964 H 681.913 -3.08058 -3.52445 0
M  V30 6965 H 682.086 -4.4515 -4.70898 0
M  V30 6966 N 675.492 1.28418 -0.913599 0
M  V30 6967 C 676.741 1.94265 -0.542572 0
M  V30 6968 C 677.054 1.72709 0.918207 0
M  V30 6969 O 678.26 2.32778 1.39738 0
M  V30 6970 C 676.716 3.47956 -0.919507 0
M  V30 6971 C 676.324 3.78291 -2.4 0
M  V30 6972 C 678.068 4.19962 -0.619057 0
M  V30 6973 C 675.975 5.2529 -2.71707 0
M  V30 6974 H 674.905 0.727213 -0.199192 0
M  V30 6975 H 677.556 1.45931 -1.11249 0
M  V30 6976 H 675.938 3.9502 -0.278372 0
M  V30 6977 H 677.112 3.42035 -3.08786 0
M  V30 6978 H 675.427 3.19456 -2.67089 0
M  V30 6979 H 678.024 5.28178 -0.832623 0
M  V30 6980 H 678.367 4.13935 0.443126 0
M  V30 6981 H 678.9 3.78674 -1.21865 0
M  V30 6982 H 675.639 5.36394 -3.76778 0
M  V30 6983 H 675.159 5.62743 -2.07559 0
M  V30 6984 H 676.838 5.93027 -2.58703 0
M  V30 6985 N 676.97 0.677563 1.42291 0
M  V30 6986 C 677.9 0.014968 2.33495 0
M  V30 6987 C 678.881 -0.786376 1.50831 0
M  V30 6988 O 680.066 -0.742975 1.79426 0
M  V30 6989 C 677.196 -0.935023 3.34477 0
M  V30 6990 C 676.15 -0.242074 4.27315 0
M  V30 6991 C 675.476 -1.30519 5.18526 0
M  V30 6992 C 676.776 0.880604 5.14823 0
M  V30 6993 H 678.47 0.776671 2.89151 0
M  V30 6994 H 676.016 0.37494 1.39033 0
M  V30 6995 H 677.969 -1.40766 3.97194 0
M  V30 6996 H 676.693 -1.72818 2.77131 0
M  V30 6997 H 675.352 0.210351 3.65996 0
M  V30 6998 H 675 -2.09041 4.57505 0
M  V30 6999 H 674.7 -0.846652 5.81468 0
M  V30 7000 H 676.224 -1.7787 5.84119 0
M  V30 7001 H 677.638 0.489062 5.7121 0
M  V30 7002 H 676.035 1.26511 5.86613 0
M  V30 7003 H 677.105 1.72818 4.53059 0
M  V30 7004 N 678.448 -1.51871 0.421078 0
M  V30 7005 C 679.396 -2.28903 -0.413066 0
M  V30 7006 C 680.39 -1.3408 -1.03532 0
M  V30 7007 O 681.596 -1.5149 -0.972146 0
M  V30 7008 H 677.971 -0.736478 -0.152003 0
M  V30 7009 H 679.942 -2.97285 0.257695 0
M  V30 7010 C 678.691 -3.13156 -1.51091 0
M  V30 7011 H 678.014 -3.85997 -1.04145 0
M  V30 7012 H 679.454 -3.7014 -2.06814 0
M  V30 7013 C 677.913 -2.27482 -2.48503 0
M  V30 7014 O 678.443 -1.92325 -3.52667 0
M  V30 7015 N 676.649 -1.91019 -2.18998 0
M  V30 7016 H 676.196 -2.19808 -1.34322 0
M  V30 7017 H 676.154 -1.3399 -2.84419 0
M  V30 7018 N 679.926 -0.151884 -1.56866 0
M  V30 7019 C 680.873 0.785936 -2.17006 0
M  V30 7020 C 681.843 1.2407 -1.10435 0
M  V30 7021 O 683.028 1.31235 -1.38499 0
M  V30 7022 C 680.168 2.01771 -2.79969 0
M  V30 7023 C 679.281 1.6083 -4.00946 0
M  V30 7024 C 678.416 2.79224 -4.51893 0
M  V30 7025 C 677.455 2.3468 -5.65324 0
M  V30 7026 N 676.592 3.461 -6.10867 0
M  V30 7027 H 681.432 0.266286 -2.96808 0
M  V30 7028 H 678.969 0.11972 -1.46612 0
M  V30 7029 H 680.927 2.73989 -3.14621 0
M  V30 7030 H 679.557 2.51139 -2.02803 0
M  V30 7031 H 678.609 0.783592 -3.72242 0
M  V30 7032 H 679.921 1.24119 -4.83111 0
M  V30 7033 H 679.075 3.59625 -4.88625 0
M  V30 7034 H 677.814 3.19183 -3.68746 0
M  V30 7035 H 676.819 1.52721 -5.28163 0
M  V30 7036 H 678.044 1.95801 -6.5026 0
M  V30 7037 H 675.99 3.85671 -5.30654 0
M  V30 7038 H 675.907 3.1342 -6.87971 0
M  V30 7039 H 677.175 4.26844 -6.52246 0
M  V30 7040 N 681.404 1.57128 0.121893 0
M  V30 7041 C 682.336 1.96773 1.17529 0
M  V30 7042 C 683.349 0.866668 1.37814 0
M  V30 7043 O 684.538 1.14497 1.3694 0
M  V30 7044 C 681.638 2.24832 2.53582 0
M  V30 7045 C 680.811 3.56138 2.53939 0
M  V30 7046 C 679.87 3.72443 3.71716 0
M  V30 7047 O 678.896 4.44584 3.55434 0
M  V30 7048 N 680.098 3.10993 4.90167 0
M  V30 7049 H 682.863 2.87743 0.838086 0
M  V30 7050 H 680.424 1.58881 0.311199 0
M  V30 7051 H 682.416 2.32958 3.30927 0
M  V30 7052 H 680.986 1.40002 2.79496 0
M  V30 7053 H 680.206 3.59226 1.62329 0
M  V30 7054 H 681.494 4.42448 2.51231 0
M  V30 7055 H 680.892 2.52345 5.06299 0
M  V30 7056 H 679.449 3.24644 5.65198 0
M  V30 7057 N 682.882 -0.391992 1.52647 0
M  V30 7058 C 683.829 -1.47866 1.77213 0
M  V30 7059 C 684.799 -1.54286 0.615223 0
M  V30 7060 O 685.984 -1.7059 0.854622 0
M  V30 7061 C 683.124 -2.85129 1.94411 0
M  V30 7062 C 682.237 -2.87883 3.22098 0
M  V30 7063 C 681.372 -4.16553 3.29631 0
M  V30 7064 C 680.411 -4.13348 4.51453 0
M  V30 7065 N 679.548 -5.33619 4.56284 0
M  V30 7066 H 684.388 -1.26219 2.6995 0
M  V30 7067 H 681.925 -0.612367 1.33748 0
M  V30 7068 H 683.883 -3.64833 2.02367 0
M  V30 7069 H 682.513 -3.05232 1.05038 0
M  V30 7070 H 681.565 -2.00567 3.23229 0
M  V30 7071 H 682.877 -2.81382 4.11856 0
M  V30 7072 H 682.031 -5.0466 3.36753 0
M  V30 7073 H 680.77 -4.25773 2.37842 0
M  V30 7074 H 679.775 -3.23629 4.44459 0
M  V30 7075 H 681 -4.05754 5.44555 0
M  V30 7076 H 678.946 -5.43474 3.67385 0
M  V30 7077 H 678.863 -5.29182 5.3991 0
M  V30 7078 H 680.131 -6.23632 4.67657 0
M  V30 7079 N 684.36 -1.4356 -0.65026 0
M  V30 7080 C 685.292 -1.44918 -1.77571 0
M  V30 7081 C 686.305 -0.344925 -1.59104 0
M  V30 7082 O 687.494 -0.609537 -1.6777 0
M  V30 7083 C 684.594 -1.24914 -3.15039 0
M  V30 7084 C 683.767 -2.48232 -3.60138 0
M  V30 7085 C 682.826 -2.23409 -4.76419 0
M  V30 7086 O 681.852 -2.9678 -4.85706 0
M  V30 7087 N 683.054 -1.25259 -5.66825 0
M  V30 7088 H 685.819 -2.41935 -1.76883 0
M  V30 7089 H 683.38 -1.38754 -0.834202 0
M  V30 7090 H 685.372 -1.06185 -3.90521 0
M  V30 7091 H 683.942 -0.363319 -3.10481 0
M  V30 7092 H 683.162 -2.82366 -2.75069 0
M  V30 7093 H 684.45 -3.30296 -3.87017 0
M  V30 7094 H 683.848 -0.646246 -5.61997 0
M  V30 7095 H 682.405 -1.12513 -6.42016 0
M  V30 7096 N 685.838 0.888903 -1.30139 0
M  V30 7097 C 687.066 1.67358 -1.21651 0
M  V30 7098 C 687.481 1.87499 0.221246 0
M  V30 7099 O 686.838 1.41969 1.14677 0
M  V30 7100 C 686.889 3.05213 -1.93719 0
M  V30 7101 O 686.61 2.85984 -3.31881 0
M  V30 7102 C 688.111 3.9964 -1.9184 0
M  V30 7103 H 685.331 0.522365 -0.42116 0
M  V30 7104 H 687.875 1.11086 -1.71698 0
M  V30 7105 H 686.03 3.5823 -1.4748 0
M  V30 7106 H 686.444 3.73411 -3.68327 0
M  V30 7107 H 687.918 4.93749 -2.46811 0
M  V30 7108 H 688.395 4.29955 -0.896409 0
M  V30 7109 H 689.001 3.52558 -2.37872 0
M  V30 7110 N 687.317 1.12792 1.10072 0
M  V30 7111 C 688.565 0.883796 1.81751 0
M  V30 7112 C 688.886 -0.591891 1.858 0
M  V30 7113 O 688.156 -1.43017 1.33876 0
M  V30 7114 H 686.736 0.323978 0.673088 0
M  V30 7115 H 689.398 1.42314 1.33164 0
M  V30 7116 H 688.494 1.26863 2.85153 0
M  V30 7117 N 688.795 -1.27931 0.920396 0
M  V30 7118 C 690.041 -1.94977 0.557832 0
M  V30 7119 C 690.374 -1.72224 -0.897365 0
M  V30 7120 O 689.649 -1.04705 -1.63912 0
M  V30 7121 C 689.932 -3.49289 0.875741 0
M  V30 7122 C 689.785 -3.81416 2.38416 0
M  V30 7123 C 691.104 -4.38486 0.376517 0
M  V30 7124 H 688.223 -0.708164 0.20414 0
M  V30 7125 H 690.865 -1.5118 1.15085 0
M  V30 7126 H 689.015 -3.86724 0.371062 0
M  V30 7127 H 690.687 -3.53813 2.95997 0
M  V30 7128 H 688.93 -3.28225 2.83639 0
M  V30 7129 H 689.601 -4.89198 2.55713 0
M  V30 7130 H 692.077 -4.08161 0.808945 0
M  V30 7131 H 690.953 -5.45296 0.627976 0
M  V30 7132 H 691.214 -4.36143 -0.723293 0
M  V30 7133 N 690.273 -0.685099 -1.4193 0
M  V30 7134 C 691.503 -0.220052 -2.05425 0
M  V30 7135 C 691.911 1.13185 -1.51611 0
M  V30 7136 O 691.254 1.71631 -0.654875 0
M  V30 7137 C 691.316 -0.0888364 -3.5939 0
M  V30 7138 C 690.98 -1.37109 -4.35947 0
M  V30 7139 C 691.977 -2.30675 -4.65924 0
M  V30 7140 C 689.662 -1.62155 -4.75406 0
M  V30 7141 C 691.656 -3.47556 -5.34306 0
M  V30 7142 C 689.343 -2.79324 -5.43527 0
M  V30 7143 C 690.341 -3.71848 -5.72903 0
M  V30 7144 O 690.029 -4.86966 -6.39624 0
M  V30 7145 H 689.761 -0.102165 -0.668235 0
M  V30 7146 H 692.315 -0.935194 -1.82875 0
M  V30 7147 H 690.545 0.681981 -3.80639 0
M  V30 7148 H 692.234 0.337669 -4.04493 0
M  V30 7149 H 693 -2.12579 -4.3593 0
M  V30 7150 H 688.879 -0.910053 -4.51928 0
M  V30 7151 H 692.423 -4.19794 -5.57153 0
M  V30 7152 H 688.32 -2.97342 -5.72938 0
M  V30 7153 H 689.088 -4.86644 -6.58118 0
M  V30 7154 N 691.751 1.51645 -0.429126 0
M  V30 7155 C 692.997 2.02314 0.140286 0
M  V30 7156 C 693.33 1.31314 1.43074 0
M  V30 7157 O 692.605 0.425531 1.89788 0
M  V30 7158 C 692.888 3.5822 0.36749 0
M  V30 7159 C 692.741 4.39846 -0.941039 0
M  V30 7160 C 694.06 4.25055 1.14089 0
M  V30 7161 H 691.179 0.735335 0.0495112 0
M  V30 7162 H 693.821 1.81358 -0.566514 0
M  V30 7163 H 691.971 3.76207 0.969556 0
M  V30 7164 H 693.643 4.33527 -1.57646 0
M  V30 7165 H 691.886 4.05259 -1.54751 0
M  V30 7166 H 692.557 5.47069 -0.73621 0
M  V30 7167 H 695.033 4.11288 0.630986 0
M  V30 7168 H 693.909 5.34038 1.26863 0
M  V30 7169 H 694.17 3.85358 2.16683 0
M  V30 7170 N 693.229 0.160201 1.56784 0
M  V30 7171 C 694.161 -0.80564 2.14574 0
M  V30 7172 C 695.174 -1.20154 1.09849 0
M  V30 7173 O 696.363 -1.14333 1.37078 0
M  V30 7174 C 693.463 -2.09434 2.6644 0
M  V30 7175 C 692.636 -1.86375 3.95706 0
M  V30 7176 C 691.695 -2.99358 4.32749 0
M  V30 7177 O 690.721 -2.70475 5.00831 0
M  V30 7178 N 691.923 -4.26867 3.93402 0
M  V30 7179 H 694.688 -0.311644 2.98075 0
M  V30 7180 H 692.249 -0.0229465 1.61884 0
M  V30 7181 H 694.241 -2.84091 2.88226 0
M  V30 7182 H 692.811 -2.50057 1.8759 0
M  V30 7183 H 692.031 -0.956821 3.82412 0
M  V30 7184 H 693.319 -1.68322 4.80151 0
M  V30 7185 H 692.717 -4.53197 3.38569 0
M  V30 7186 H 691.274 -4.98263 4.20211 0
M  V30 7187 N 694.707 -1.5719 -0.113559 0
M  V30 7188 C 695.984 -1.76117 -0.850999 0
M  V30 7189 C 696.364 -0.737085 -1.97814 0
M  V30 7190 O 695.712 0.237942 -2.27258 0
M  V30 7191 C 695.922 -3.21298 -1.36266 0
M  V30 7192 C 697.27 -3.83955 -1.81283 0
M  V30 7193 O 698.294 -3.24934 -1.45933 0
M  V30 7194 O 697.153 -4.87707 -2.46585 0
M  V30 7195 H 694.247 -0.721308 -0.404529 0
M  V30 7196 H 696.793 -1.69423 -0.0968756 0
M  V30 7197 H 695.565 -3.87355 -0.554235 0
M  V30 7198 H 695.188 -3.32552 -2.17933 0
M  V30 7199 N 696.185 0.383891 -1.52853 0
M  V30 7200 C 697.117 1.48889 -1.74255 0
M  V30 7201 C 698.13 1.50405 -0.623063 0
M  V30 7202 O 699.319 1.54215 -0.898887 0
M  V30 7203 C 696.419 2.87721 -1.79081 0
M  V30 7204 C 695.592 3.10111 -3.08464 0
M  V30 7205 C 694.651 4.28954 -3.0477 0
M  V30 7206 O 693.677 4.25012 -3.78621 0
M  V30 7207 N 694.879 5.35411 -2.24311 0
M  V30 7208 H 697.644 1.30915 -2.69595 0
M  V30 7209 H 695.205 0.573454 -1.51404 0
M  V30 7210 H 697.197 3.65333 -1.7411 0
M  V30 7211 H 695.767 2.99029 -0.911052 0
M  V30 7212 H 694.987 2.20319 -3.26884 0
M  V30 7213 H 696.275 3.21928 -3.94005 0
M  V30 7214 H 695.673 5.41471 -1.63787 0
M  V30 7215 H 694.23 6.1167 -2.25175 0
M  V30 7216 N 697.663 1.43903 0.642637 0
M  V30 7217 C 698.626 1.49538 1.73698 0
M  V30 7218 C 699.626 0.378776 1.56275 0
M  V30 7219 O 700.816 0.64095 1.6198 0
M  V30 7220 C 697.948 1.35821 3.12675 0
M  V30 7221 H 699.141 2.47008 1.70079 0
M  V30 7222 H 696.694 1.30824 0.85526 0
M  V30 7223 H 697.429 0.393994 3.21898 0
M  V30 7224 H 697.214 2.16776 3.26727 0
M  V30 7225 H 698.704 1.4272 3.92455 0
M  V30 7226 N 699.141 -0.881989 1.30609 0
M  V30 7227 C 700.073 -1.99375 1.13058 0
M  V30 7228 C 701.086 -1.62636 0.0729879 0
M  V30 7229 O 702.275 -1.75621 0.319301 0
M  V30 7230 C 699.375 -3.31536 0.702651 0
M  V30 7231 C 698.548 -3.96693 1.84265 0
M  V30 7232 C 697.607 -5.07158 1.40277 0
M  V30 7233 O 696.633 -5.28628 2.11048 0
M  V30 7234 N 697.835 -5.79808 0.283449 0
M  V30 7235 H 700.6 -2.14981 2.08814 0
M  V30 7236 H 698.161 -1.05526 1.22784 0
M  V30 7237 H 700.153 -4.02804 0.391331 0
M  V30 7238 H 698.723 -3.12175 -0.162954 0
M  V30 7239 H 697.943 -3.1856 2.32192 0
M  V30 7240 H 699.231 -4.36964 2.60653 0
M  V30 7241 H 698.629 -5.64871 -0.306189 0
M  V30 7242 H 697.186 -6.51792 0.0315985 0
M  V30 7243 N 700.619 -1.13374 -1.09472 0
M  V30 7244 C 701.865 -0.906459 -1.82085 0
M  V30 7245 C 702.22 0.5614 -1.84027 0
M  V30 7246 O 701.513 1.41012 -1.29716 0
M  V30 7247 C 701.707 -1.42759 -3.2765 0
M  V30 7248 C 701.536 -2.94459 -3.39888 0
M  V30 7249 C 700.306 -3.62798 -3.51718 0
M  V30 7250 C 702.504 -3.92398 -3.32457 0
M  V30 7251 N 700.486 -5.02516 -3.52635 0
M  V30 7252 C 701.857 -5.18304 -3.40237 0
M  V30 7253 C 703.912 -3.84671 -3.16122 0
M  V30 7254 C 702.615 -6.37386 -3.33364 0
M  V30 7255 C 704.641 -5.03287 -3.10574 0
M  V30 7256 C 704.003 -6.28055 -3.18945 0
M  V30 7257 H 700.102 -0.385097 -0.680606 0
M  V30 7258 H 702.686 -1.44187 -1.30836 0
M  V30 7259 H 700.857 -0.919102 -3.77369 0
M  V30 7260 H 702.589 -1.14136 -3.88272 0
M  V30 7261 H 699.344 -3.13317 -3.55147 0
M  V30 7262 H 699.768 -5.75421 -3.56679 0
M  V30 7263 H 704.41 -2.89094 -3.0852 0
M  V30 7264 H 702.128 -7.33219 -3.3973 0
M  V30 7265 H 705.714 -4.99047 -2.9907 0
M  V30 7266 H 704.594 -7.18299 -3.14668 0
M  V30 7267 N 702.098 1.27442 -0.927168 0
M  V30 7268 C 703.375 1.89473 -0.485742 0
M  V30 7269 C 703.755 1.83922 1.03614 0
M  V30 7270 O 703.103 1.28409 1.89007 0
M  V30 7271 C 703.313 3.33417 -1.03123 0
M  V30 7272 C 704.661 4.10333 -1.0914 0
M  V30 7273 O 705.685 3.4243 -0.98082 0
M  V30 7274 O 704.544 5.31737 -1.26165 0
M  V30 7275 H 701.638 0.812124 -0.156154 0
M  V30 7276 H 704.184 1.35713 -1.01882 0
M  V30 7277 H 702.956 3.31747 -2.07508 0
M  V30 7278 H 702.579 3.94695 -0.479767 0
M  V30 7279 N 703.576 0.692616 1.41565 0
M  V30 7280 C 704.523 0.0254264 2.30786 0
M  V30 7281 C 705.493 -0.774347 1.46946 0
M  V30 7282 O 706.678 -0.742981 1.7574 0
M  V30 7283 C 703.818 -0.907123 3.32964 0
M  V30 7284 C 702.931 -0.0992784 4.31886 0
M  V30 7285 C 702.066 -1.0292 5.21134 0
M  V30 7286 C 701.105 -0.214088 6.11725 0
M  V30 7287 N 700.242 -1.09766 6.93467 0
M  V30 7288 H 705.082 0.792036 2.87282 0
M  V30 7289 H 702.619 0.4023 1.41492 0
M  V30 7290 H 704.577 -1.46181 3.90752 0
M  V30 7291 H 703.207 -1.64016 2.78026 0
M  V30 7292 H 702.259 0.572287 3.76071 0
M  V30 7293 H 703.571 0.532782 4.95946 0
M  V30 7294 H 702.725 -1.65321 5.83741 0
M  V30 7295 H 701.464 -1.69512 4.57293 0
M  V30 7296 H 700.469 0.42302 5.4817 0
M  V30 7297 H 701.694 0.447995 6.77621 0
M  V30 7298 H 699.64 -1.74965 6.32237 0
M  V30 7299 H 699.557 -0.521099 7.54202 0
M  V30 7300 H 700.825 -1.70858 7.60544 0
M  V30 7301 N 705.054 -1.51416 0.437162 0
M  V30 7302 C 706.3 -2.02386 -0.129555 0
M  V30 7303 C 706.633 -1.32071 -1.42376 0
M  V30 7304 O 705.908 -0.43559 -1.8956 0
M  V30 7305 C 706.191 -3.5841 -0.348487 0
M  V30 7306 C 706.044 -4.39341 0.964352 0
M  V30 7307 C 707.363 -4.25654 -1.11834 0
M  V30 7308 H 704.482 -0.735587 -0.0456109 0
M  V30 7309 H 707.124 -1.81055 0.576124 0
M  V30 7310 H 705.274 -3.76716 -0.949592 0
M  V30 7311 H 706.946 -4.32685 1.59942 0
M  V30 7312 H 705.189 -4.04432 1.56898 0
M  V30 7313 H 705.86 -5.4667 0.765212 0
M  V30 7314 H 708.336 -4.11617 -0.609165 0
M  V30 7315 H 707.212 -5.34704 -1.24029 0
M  V30 7316 H 707.473 -3.86502 -2.14636 0
M  V30 7317 N 706.532 -0.168513 -1.56696 0
M  V30 7318 C 707.462 0.758563 -2.20835 0
M  V30 7319 C 708.443 1.24121 -1.1631 0
M  V30 7320 O 709.628 1.29487 -1.4473 0
M  V30 7321 C 706.758 1.9892 -2.8469 0
M  V30 7322 C 705.712 1.64252 -3.95228 0
M  V30 7323 C 705.038 2.94757 -4.46119 0
M  V30 7324 C 706.338 0.872675 -5.14958 0
M  V30 7325 H 708.032 0.223953 -2.98561 0
M  V30 7326 H 705.578 0.106277 -1.43607 0
M  V30 7327 H 707.531 2.64275 -3.28233 0
M  V30 7328 H 706.255 2.5479 -2.04327 0
M  V30 7329 H 704.914 1.01266 -3.52336 0
M  V30 7330 H 704.562 3.48662 -3.62552 0
M  V30 7331 H 704.262 2.72316 -5.2069 0
M  V30 7332 H 705.786 3.61147 -4.92347 0
M  V30 7333 H 707.2 1.42875 -5.55211 0
M  V30 7334 H 705.597 0.747402 -5.95428 0
M  V30 7335 H 706.667 -0.131535 -4.84722 0
M  V30 7336 N 708.01 1.57248 0.105221 0
M  V30 7337 C 709.256 1.85845 0.811753 0
M  V30 7338 C 709.589 0.756219 1.78871 0
M  V30 7339 O 708.864 -0.236736 1.93054 0
M  V30 7340 C 709.147 3.25059 1.54947 0
M  V30 7341 C 709 4.45898 0.591185 0
M  V30 7342 C 710.319 3.6203 2.50245 0
M  V30 7343 H 707.438 0.675973 0.293649 0
M  V30 7344 H 710.08 1.89849 0.0756269 0
M  V30 7345 H 708.23 3.21776 2.17698 0
M  V30 7346 H 709.902 4.61291 -0.0285352 0
M  V30 7347 H 708.145 4.33693 -0.0962343 0
M  V30 7348 H 708.816 5.40009 1.1443 0
M  V30 7349 H 711.292 3.66192 1.97593 0
M  V30 7350 H 710.168 4.60389 2.98886 0
M  V30 7351 H 710.429 2.90176 3.33542 0
M  V30 7352 N 709.488 -0.375779 1.53054 0
M  V30 7353 C 710.716 -1.14036 1.72637 0
M  V30 7354 C 711.131 -1.83342 0.450687 0
M  V30 7355 O 710.488 -1.7318 -0.575749 0
M  V30 7356 C 710.539 -2.17841 2.88492 0
M  V30 7357 O 710.26 -1.51358 4.11123 0
M  V30 7358 C 711.761 -3.06924 3.19863 0
M  V30 7359 H 708.981 -0.341386 0.577665 0
M  V30 7360 H 711.525 -0.437809 1.99759 0
M  V30 7361 H 709.68 -2.8371 2.63794 0
M  V30 7362 H 710.094 -2.20439 4.75928 0
M  V30 7363 H 711.568 -3.75763 4.04359 0
M  V30 7364 H 712.045 -3.71169 2.34798 0
M  V30 7365 H 712.651 -2.46684 3.46449 0
M  V30 7366 N 710.966 -1.44241 -0.634997 0
M  V30 7367 C 711.896 -1.53632 -1.7584 0
M  V30 7368 C 712.877 -0.389603 -1.65578 0
M  V30 7369 O 714.062 -0.609219 -1.84397 0
M  V30 7370 C 711.192 -1.47644 -3.14354 0
M  V30 7371 C 710.146 -2.60752 -3.394 0
M  V30 7372 C 709.472 -2.39817 -4.77904 0
M  V30 7373 C 710.772 -4.02921 -3.32343 0
M  V30 7374 H 712.466 -2.47662 -1.68238 0
M  V30 7375 H 710.012 -1.19197 -0.807969 0
M  V30 7376 H 711.965 -1.52815 -3.92716 0
M  V30 7377 H 710.689 -0.501284 -3.2273 0
M  V30 7378 H 709.348 -2.54965 -2.63417 0
M  V30 7379 H 708.996 -1.40502 -4.82978 0
M  V30 7380 H 708.696 -3.15649 -4.9562 0
M  V30 7381 H 710.22 -2.46799 -5.585 0
M  V30 7382 H 711.634 -4.10098 -4.00615 0
M  V30 7383 H 710.031 -4.78925 -3.61595 0
M  V30 7384 H 711.101 -4.26766 -2.30215 0
M  V30 7385 N 712.444 0.87505 -1.31075 0
M  V30 7386 C 713.692 1.62447 -1.20231 0
M  V30 7387 C 714.013 1.93506 0.240888 0
M  V30 7388 O 713.283 1.57847 1.16022 0
M  V30 7389 H 711.863 0.602207 -0.441991 0
M  V30 7390 H 714.525 1.04788 -1.64334 0
M  V30 7391 H 713.621 2.57031 -1.77036 0
M  V30 7392 N 713.922 1.13953 1.08869 0
M  V30 7393 C 715.17 0.903023 1.80803 0
M  V30 7394 C 715.491 -0.572151 1.86417 0
M  V30 7395 O 714.761 -1.41589 1.35386 0
M  V30 7396 H 713.341 0.331099 0.669614 0
M  V30 7397 H 716.003 1.43719 1.31647 0
M  V30 7398 H 715.099 1.29881 2.83791 0
M  V30 7399 N 715.4 -1.26948 0.933913 0
M  V30 7400 C 716.816 -1.46419 0.635103 0
M  V30 7401 C 717.016 -1.84336 -0.813785 0
M  V30 7402 O 716.072 -1.96061 -1.59111 0
M  V30 7403 C 717.385 -2.55206 1.5903 0
M  V30 7404 C 718.933 -2.69062 1.5992 0
M  V30 7405 C 719.408 -3.81013 2.54152 0
M  V30 7406 N 720.899 -3.88395 2.52395 0
M  V30 7407 C 721.634 -4.74454 3.21996 0
M  V30 7408 N 721.13 -5.64954 4.00997 0
M  V30 7409 N 722.923 -4.68237 3.10983 0
M  V30 7410 H 715.074 -1.00622 1.87053 0
M  V30 7411 H 717.337 -0.503189 0.803433 0
M  V30 7412 H 717.043 -2.34153 2.62422 0
M  V30 7413 H 716.917 -3.52719 1.33677 0
M  V30 7414 H 719.304 -2.89492 0.572569 0
M  V30 7415 H 719.385 -1.72016 1.89325 0
M  V30 7416 H 719.029 -3.61336 3.5693 0
M  V30 7417 H 718.959 -4.77499 2.22041 0
M  V30 7418 H 721.45 -3.23687 1.95025 0
M  V30 7419 H 721.763 -6.27496 4.51074 0
M  V30 7420 H 720.108 -5.6473 4.05099 0
M  V30 7421 H 723.299 -3.96535 2.48753 0
M  V30 7422 H 723.472 -5.35087 3.65494 0
M  V30 7423 N 716.879 -0.700114 -1.41195 0
M  V30 7424 C 718.109 -0.241828 -2.0518 0
M  V30 7425 C 718.517 1.1157 -1.52803 0
M  V30 7426 O 717.86 1.70926 -0.673042 0
M  V30 7427 C 717.922 -0.12695 -3.59276 0
M  V30 7428 C 717.586 -1.41725 -4.34469 0
M  V30 7429 C 718.583 -2.35604 -4.63451 0
M  V30 7430 C 716.268 -1.67189 -4.73659 0
M  V30 7431 C 718.262 -3.53204 -5.3059 0
M  V30 7432 C 715.949 -2.85073 -5.40534 0
M  V30 7433 C 716.947 -3.77904 -5.68927 0
M  V30 7434 O 716.635 -4.93723 -6.34424 0
M  V30 7435 H 716.367 -0.109247 -0.667114 0
M  V30 7436 H 718.921 -0.954538 -1.81873 0
M  V30 7437 H 717.151 0.641571 -3.81341 0
M  V30 7438 H 718.84 0.294748 -4.04828 0
M  V30 7439 H 719.606 -2.1719 -4.33651 0
M  V30 7440 H 715.485 -0.957935 -4.50937 0
M  V30 7441 H 719.029 -4.25679 -5.52669 0
M  V30 7442 H 714.926 -3.03402 -5.69752 0
M  V30 7443 H 715.694 -4.93597 -6.5292 0
M  V30 7444 N 718.357 1.51182 -0.445186 0
M  V30 7445 C 719.634 1.9478 0.178965 0
M  V30 7446 C 720.014 1.38428 1.59376 0
M  V30 7447 O 719.362 0.574552 2.21159 0
M  V30 7448 C 719.572 3.48683 0.148711 0
M  V30 7449 C 720.92 4.23152 0.35042 0
M  V30 7450 O 721.944 3.55479 0.226474 0
M  V30 7451 O 720.803 5.4322 0.597893 0
M  V30 7452 H 717.897 0.817387 0.12573 0
M  V30 7453 H 720.443 1.62051 -0.503729 0
M  V30 7454 H 719.215 3.82176 -0.84009 0
M  V30 7455 H 718.838 3.87875 0.873979 0
M  V30 7456 N 719.835 0.176821 1.56605 0
M  V30 7457 C 721.081 -0.460868 1.9811 0
M  V30 7458 C 721.436 -1.60488 1.06119 0
M  V30 7459 O 720.729 -1.91329 0.101939 0
M  V30 7460 C 720.923 -0.986208 3.43524 0
M  V30 7461 C 720.752 0.105368 4.49577 0
M  V30 7462 C 719.522 0.556883 5.02222 0
M  V30 7463 C 721.72 0.907756 5.06226 0
M  V30 7464 N 719.702 1.62819 5.91915 0
M  V30 7465 C 721.073 1.82887 5.92412 0
M  V30 7466 C 723.128 0.952221 4.8871 0
M  V30 7467 C 721.831 2.7907 6.62957 0
M  V30 7468 C 723.857 1.90202 5.5998 0
M  V30 7469 C 723.219 2.8106 6.45898 0
M  V30 7470 H 719.318 -0.136589 0.769979 0
M  V30 7471 H 721.902 0.278307 1.92701 0
M  V30 7472 H 720.073 -1.69489 3.49468 0
M  V30 7473 H 721.805 -1.59298 3.7203 0
M  V30 7474 H 718.56 0.153575 4.73351 0
M  V30 7475 H 718.984 2.1645 6.41466 0
M  V30 7476 H 723.626 0.263794 4.21976 0
M  V30 7477 H 721.344 3.48898 7.28901 0
M  V30 7478 H 724.93 1.9426 5.48411 0
M  V30 7479 H 723.81 3.53357 7.00077 0
M  V30 7480 N 721.313 -1.57302 -0.09688 0
M  V30 7481 C 722.276 -2.00976 -1.10188 0
M  V30 7482 C 723.276 -0.903009 -1.3305 0
M  V30 7483 O 724.466 -1.16853 -1.29194 0
M  V30 7484 C 721.598 -2.36893 -2.45142 0
M  V30 7485 H 722.791 -2.9098 -0.726003 0
M  V30 7486 H 720.344 -1.52515 -0.341872 0
M  V30 7487 H 721.079 -1.49837 -2.8761 0
M  V30 7488 H 720.864 -3.17632 -2.29897 0
M  V30 7489 H 722.354 -2.71345 -3.1743 0
M  V30 7490 N 722.791 0.367657 -1.53252 0
M  V30 7491 C 724.068 1.12606 -1.59935 0
M  V30 7492 C 724.448 2.07167 -0.405606 0
M  V30 7493 O 723.796 2.20364 0.604323 0
M  V30 7494 C 724.006 1.86699 -2.94863 0
M  V30 7495 C 725.354 2.41306 -3.49366 0
M  V30 7496 O 726.378 1.96828 -2.96879 0
M  V30 7497 O 725.237 3.2261 -4.41118 0
M  V30 7498 H 722.331 0.516438 -0.645926 0
M  V30 7499 H 724.877 0.371088 -1.65593 0
M  V30 7500 H 723.649 1.17674 -3.73187 0
M  V30 7501 H 723.272 2.6911 -2.92687 0
M  V30 7502 N 724.269 1.44576 0.627338 0
M  V30 7503 C 725.201 1.47724 1.75243 0
M  V30 7504 C 726.214 0.370193 1.58535 0
M  V30 7505 O 727.403 0.636151 1.66779 0
M  V30 7506 C 724.503 1.2991 3.13012 0
M  V30 7507 C 723.676 2.5393 3.56143 0
M  V30 7508 C 722.735 2.30961 4.72804 0
M  V30 7509 O 721.761 3.04469 4.80923 0
M  V30 7510 N 722.963 1.34261 5.6476 0
M  V30 7511 H 725.728 2.44718 1.73012 0
M  V30 7512 H 723.289 1.40064 0.812022 0
M  V30 7513 H 725.281 1.12385 3.88782 0
M  V30 7514 H 723.851 0.412668 3.09864 0
M  V30 7515 H 723.071 2.86707 2.70542 0
M  V30 7516 H 724.359 3.36411 3.81713 0
M  V30 7517 H 723.757 0.735573 5.60897 0
M  V30 7518 H 722.314 1.22713 6.40144 0
M  V30 7519 N 725.747 -0.868086 1.31537 0
M  V30 7520 C 726.657 -2.00801 1.21311 0
M  V30 7521 C 727.673 -1.73518 0.129431 0
M  V30 7522 O 728.849 -1.98378 0.347588 0
M  V30 7523 C 725.914 -3.3419 0.922935 0
M  V30 7524 C 724.975 -3.74783 2.0937 0
M  V30 7525 C 724.208 -5.01807 1.81728 0
M  V30 7526 O 724.431 -5.65404 0.753313 0
M  V30 7527 O 723.365 -5.39213 2.67457 0
M  V30 7528 H 727.191 -2.12361 2.17109 0
M  V30 7529 H 724.776 -0.996684 1.11295 0
M  V30 7530 H 726.658 -4.14174 0.777033 0
M  V30 7531 H 725.333 -3.237 -0.00500301 0
M  V30 7532 H 724.24 -2.95432 2.29501 0
M  V30 7533 H 725.573 -3.89902 3.00396 0
M  V30 7534 N 727.225 -1.14528 -1.08264 0
M  V30 7535 C 728.45 -0.938381 -1.84957 0
M  V30 7536 C 728.875 0.508044 -1.81109 0
M  V30 7537 O 728.233 1.36146 -1.19724 0
M  V30 7538 C 728.281 -1.44568 -3.30352 0
M  V30 7539 O 727.385 -0.638745 -4.07423 0
M  V30 7540 H 726.726 -0.335394 -0.573068 0
M  V30 7541 H 729.256 -1.52287 -1.36637 0
M  V30 7542 H 729.266 -1.45449 -3.81194 0
M  V30 7543 H 727.941 -2.49876 -3.32468 0
M  V30 7544 H 726.518 -0.698801 -3.66294 0
M  V30 7545 N 728.703 1.26451 -0.940633 0
M  V30 7546 C 729.633 2.28773 -0.467479 0
M  V30 7547 C 730.614 1.63218 0.478955 0
M  V30 7548 O 731.799 1.90427 0.380929 0
M  V30 7549 C 728.929 3.46259 0.268656 0
M  V30 7550 C 727.883 4.23898 -0.591171 0
M  V30 7551 C 727.209 5.33993 0.274891 0
M  V30 7552 C 728.509 4.87974 -1.86223 0
M  V30 7553 H 730.203 2.68601 -1.32265 0
M  V30 7554 H 727.749 1.29123 -0.637436 0
M  V30 7555 H 729.702 4.16951 0.610696 0
M  V30 7556 H 728.426 3.05383 1.15796 0
M  V30 7557 H 727.085 3.54969 -0.916098 0
M  V30 7558 H 726.733 4.89358 1.16353 0
M  V30 7559 H 726.433 5.86849 -0.297006 0
M  V30 7560 H 727.957 6.07523 0.612213 0
M  V30 7561 H 729.371 5.50883 -1.58747 0
M  V30 7562 H 727.768 5.50945 -2.37866 0
M  V30 7563 H 728.838 4.10945 -2.57394 0
M  V30 7564 N 730.181 0.707592 1.40822 0
M  V30 7565 C 731.129 0.0386643 2.32568 0
M  V30 7566 C 732.123 -0.755653 1.51612 0
M  V30 7567 O 733.329 -0.659921 1.67467 0
M  V30 7568 H 729.704 -0.00629912 0.751974 0
M  V30 7569 H 731.675 0.8293 2.86645 0
M  V30 7570 C 730.424 -0.87496 3.36511 0
M  V30 7571 H 729.747 -0.273157 3.98866 0
M  V30 7572 H 731.187 -1.31111 4.03219 0
M  V30 7573 C 729.646 -1.99672 2.71353 0
M  V30 7574 O 730.176 -3.08676 2.57064 0
M  V30 7575 N 728.382 -1.77799 2.29861 0
M  V30 7576 H 727.929 -0.89147 2.41683 0
M  V30 7577 H 727.887 -2.53036 1.86601 0
M  V30 7578 N 731.66 -1.50943 0.453197 0
M  V30 7579 C 733.076 -1.59245 0.106342 0
M  V30 7580 C 733.276 -1.46287 -1.38572 0
M  V30 7581 O 732.332 -1.31219 -2.15726 0
M  V30 7582 C 733.645 -2.93797 0.640595 0
M  V30 7583 C 735.193 -3.07148 0.602435 0
M  V30 7584 C 735.668 -4.44247 1.11393 0
M  V30 7585 N 737.159 -4.50611 1.07258 0
M  V30 7586 C 737.894 -5.55049 1.43905 0
M  V30 7587 N 737.39 -6.66828 1.87914 0
M  V30 7588 N 739.183 -5.45494 1.35621 0
M  V30 7589 H 731.334 -1.5761 1.42382 0
M  V30 7590 H 733.597 -0.74384 0.587713 0
M  V30 7591 H 733.303 -3.087 1.68515 0
M  V30 7592 H 733.177 -3.77127 0.0742272 0
M  V30 7593 H 735.564 -2.91903 -0.433171 0
M  V30 7594 H 735.645 -2.25619 1.20539 0
M  V30 7595 H 735.289 -4.60239 2.14808 0
M  V30 7596 H 735.219 -5.2434 0.487353 0
M  V30 7597 H 737.71 -3.70391 0.749585 0
M  V30 7598 H 738.023 -7.42558 2.14072 0
M  V30 7599 H 736.368 -6.67995 1.91853 0
M  V30 7600 H 739.559 -4.57053 1.01093 0
M  V30 7601 H 739.732 -6.2677 1.64508 0
M  V30 7602 N 733.138 -0.185124 -1.56509 0
M  V30 7603 C 734.384 0.456934 -1.97585 0
M  V30 7604 C 734.717 1.61957 -1.07161 0
M  V30 7605 O 733.992 1.9412 -0.121546 0
M  V30 7606 C 734.275 0.926666 -3.47973 0
M  V30 7607 C 734.128 -0.237097 -4.49175 0
M  V30 7608 C 735.447 1.79561 -4.01803 0
M  V30 7609 H 732.566 0.164619 -0.71838 0
M  V30 7610 H 735.208 -0.274039 -1.88013 0
M  V30 7611 H 733.358 1.54954 -3.56261 0
M  V30 7612 H 735.03 -0.87454 -4.52934 0
M  V30 7613 H 733.273 -0.890446 -4.24563 0
M  V30 7614 H 733.944 0.133924 -5.51838 0
M  V30 7615 H 736.42 1.27039 -3.96232 0
M  V30 7616 H 735.296 2.09327 -5.07418 0
M  V30 7617 H 735.557 2.74629 -3.46455 0
M  V30 7618 N 734.616 1.57351 0.0885366 0
M  V30 7619 C 735.579 2.01557 1.09121 0
M  V30 7620 C 736.579 0.910052 1.3257 0
M  V30 7621 O 737.769 1.17537 1.28572 0
M  V30 7622 C 734.901 2.38189 2.43883 0
M  V30 7623 H 736.094 2.91361 0.710562 0
M  V30 7624 H 733.647 1.52694 0.333779 0
M  V30 7625 H 734.382 1.5136 2.86811 0
M  V30 7626 H 734.167 3.18846 2.28209 0
M  V30 7627 H 735.657 2.73025 3.15986 0
M  V30 7628 N 736.094 -0.359525 1.53444 0
M  V30 7629 C 737.342 -1.09935 1.69584 0
M  V30 7630 C 737.663 -1.89656 0.453371 0
M  V30 7631 O 736.933 -1.8852 -0.53263 0
M  V30 7632 H 735.513 -0.408843 0.625185 0
M  V30 7633 H 738.175 -0.40467 1.90653 0
M  V30 7634 H 737.271 -1.78575 2.55964 0
M  V30 7635 N 737.572 -1.44907 -0.619662 0
M  V30 7636 C 738.8 -1.51795 -1.40591 0
M  V30 7637 C 739.215 -0.146553 -1.8823 0
M  V30 7638 O 738.572 0.849698 -1.61513 0
M  V30 7639 C 738.623 -2.49229 -2.61853 0
M  V30 7640 O 738.344 -3.81039 -2.16197 0
M  V30 7641 C 739.845 -2.65696 -3.54853 0
M  V30 7642 H 737.065 -0.514463 -0.430777 0
M  V30 7643 H 739.609 -1.8998 -0.756813 0
M  V30 7644 H 737.764 -2.14149 -3.2283 0
M  V30 7645 H 738.178 -4.33747 -2.94896 0
M  V30 7646 H 739.652 -3.37874 -4.36515 0
M  V30 7647 H 740.129 -1.71316 -4.0441 0
M  V30 7648 H 740.735 -3.01724 -2.99737 0
M  V30 7649 N 739.05 0.861098 -1.31996 0
M  V30 7650 C 740.278 1.6474 -1.25173 0
M  V30 7651 C 740.693 1.87926 0.181425 0
M  V30 7652 O 740.05 1.4437 1.1164 0
M  V30 7653 C 740.101 3.01036 -2.0015 0
M  V30 7654 O 739.822 2.7888 -3.37872 0
M  V30 7655 C 741.323 3.95481 -2.00273 0
M  V30 7656 H 738.543 0.513314 -0.432146 0
M  V30 7657 H 741.087 1.07419 -1.74016 0
M  V30 7658 H 739.242 3.55021 -1.55046 0
M  V30 7659 H 739.656 3.65514 -3.76165 0
M  V30 7660 H 741.13 4.88403 -2.57229 0
M  V30 7661 H 741.607 4.27957 -0.987407 0
M  V30 7662 H 742.213 3.47433 -2.45296 0
M  V30 7663 N 740.528 1.15101 1.07655 0
M  V30 7664 C 741.805 0.834578 1.76902 0
M  V30 7665 C 742.185 -0.670431 2.00171 0
M  V30 7666 O 741.533 -1.61378 1.6177 0
M  V30 7667 C 741.743 1.64191 3.07965 0
M  V30 7668 C 743.091 1.84615 3.82364 0
M  V30 7669 O 744.115 1.60941 3.17768 0
M  V30 7670 O 742.974 2.24244 4.98374 0
M  V30 7671 H 740.068 0.306608 0.768063 0
M  V30 7672 H 742.614 1.25663 1.14048 0
M  V30 7673 H 741.386 2.66386 2.86626 0
M  V30 7674 H 741.009 1.216 3.78549 0
M  V30 7675 N 742.006 -1.2595 0.947325 0
M  V30 7676 C 742.953 -2.26159 0.460497 0
M  V30 7677 C 743.923 -1.58919 -0.483125 0
M  V30 7678 O 745.108 -1.86603 -0.397983 0
M  V30 7679 C 742.248 -3.441 -0.26247 0
M  V30 7680 C 741.361 -4.25999 0.717539 0
M  V30 7681 C 740.496 -5.31193 -0.0272486 0
M  V30 7682 C 739.535 -6.04774 0.944177 0
M  V30 7683 N 738.672 -7.01721 0.230741 0
M  V30 7684 H 743.512 -2.67173 1.31995 0
M  V30 7685 H 741.049 -1.31358 0.662088 0
M  V30 7686 H 743.007 -4.11317 -0.698137 0
M  V30 7687 H 741.637 -3.03983 -1.08602 0
M  V30 7688 H 740.689 -3.58513 1.27171 0
M  V30 7689 H 742.001 -4.76981 1.45913 0
M  V30 7690 H 741.155 -6.04451 -0.521903 0
M  V30 7691 H 739.894 -4.81066 -0.801682 0
M  V30 7692 H 738.899 -5.30338 1.4499 0
M  V30 7693 H 740.124 -6.56991 1.71872 0
M  V30 7694 H 738.07 -6.53895 -0.525088 0
M  V30 7695 H 737.987 -7.50484 0.911556 0
M  V30 7696 H 739.255 -7.79122 -0.242616 0
M  V30 7697 N 743.484 -0.715051 -1.40445 0
M  V30 7698 C 744.9 -0.388555 -1.54798 0
M  V30 7699 C 745.1 1.10271 -1.68649 0
M  V30 7700 O 744.156 1.88875 -1.67578 0
M  V30 7701 C 745.469 -1.15414 -2.77669 0
M  V30 7702 C 747.017 -1.14039 -2.91486 0
M  V30 7703 C 747.492 -1.88812 -4.1727 0
M  V30 7704 N 748.983 -1.85878 -4.24268 0
M  V30 7705 C 749.718 -2.40558 -5.20499 0
M  V30 7706 N 749.214 -3.03791 -6.22642 0
M  V30 7707 N 751.007 -2.30703 -5.12574 0
M  V30 7708 H 743.158 -1.68201 -1.297 0
M  V30 7709 H 745.421 -0.710915 -0.627139 0
M  V30 7710 H 745.127 -2.20853 -2.7371 0
M  V30 7711 H 745.001 -0.745412 -3.69761 0
M  V30 7712 H 747.388 -0.0941996 -2.9495 0
M  V30 7713 H 747.469 -1.58834 -2.00513 0
M  V30 7714 H 747.113 -2.93422 -4.14568 0
M  V30 7715 H 747.043 -1.41438 -5.0725 0
M  V30 7716 H 749.534 -1.39794 -3.51093 0
M  V30 7717 H 749.847 -3.43032 -6.92495 0
M  V30 7718 H 748.192 -3.07875 -6.23087 0
M  V30 7719 H 751.383 -1.80961 -4.31707 0
M  V30 7720 H 751.556 -2.73618 -5.87398 0
M  V30 7721 N 744.962 1.50701 -0.461195 0
M  V30 7722 C 746.239 1.94958 0.158296 0
M  V30 7723 C 746.619 1.40111 1.57899 0
M  V30 7724 O 745.967 0.597976 2.20537 0
M  V30 7725 C 746.177 3.48821 0.11172 0
M  V30 7726 C 747.525 4.23499 0.30552 0
M  V30 7727 O 748.549 3.557 0.188758 0
M  V30 7728 O 747.408 5.43823 0.540244 0
M  V30 7729 H 744.502 0.818674 0.117054 0
M  V30 7730 H 747.048 1.61508 -0.520888 0
M  V30 7731 H 745.82 3.81263 -0.880577 0
M  V30 7732 H 745.443 3.88781 0.832791 0
M  V30 7733 N 746.441 0.193421 1.56409 0
M  V30 7734 C 747.718 -0.493318 1.89277 0
M  V30 7735 C 748.098 -1.79765 1.10669 0
M  V30 7736 O 747.446 -2.27558 0.207274 0
M  V30 7737 C 747.656 -0.713732 3.41624 0
M  V30 7738 C 749.004 -1.03385 4.11821 0
M  V30 7739 O 750.028 -0.801511 3.47065 0
M  V30 7740 O 748.887 -1.47327 5.26267 0
M  V30 7741 H 745.981 -0.256973 0.786062 0
M  V30 7742 H 748.527 0.23351 1.68086 0
M  V30 7743 H 747.299 0.207446 3.9075 0
M  V30 7744 H 746.922 -1.49308 3.68501 0
M  V30 7745 N 747.919 -1.57396 -0.0801906 0
M  V30 7746 C 748.866 -2.03107 -1.09618 0
M  V30 7747 C 749.836 -0.910118 -1.38946 0
M  V30 7748 O 751.021 -1.17719 -1.50156 0
M  V30 7749 C 748.161 -2.47293 -2.40708 0
M  V30 7750 C 747.274 -3.72972 -2.17982 0
M  V30 7751 C 746.409 -4.05975 -3.42576 0
M  V30 7752 C 745.448 -5.24719 -3.15177 0
M  V30 7753 N 744.585 -5.53401 -4.32078 0
M  V30 7754 H 749.425 -2.89677 -0.69939 0
M  V30 7755 H 746.962 -1.43263 -0.333785 0
M  V30 7756 H 748.92 -2.7096 -3.17232 0
M  V30 7757 H 747.55 -1.63713 -2.78205 0
M  V30 7758 H 746.602 -3.56693 -1.32189 0
M  V30 7759 H 747.914 -4.59638 -1.93738 0
M  V30 7760 H 747.068 -4.30498 -4.275 0
M  V30 7761 H 745.807 -3.17859 -3.69887 0
M  V30 7762 H 744.812 -5 -2.28648 0
M  V30 7763 H 746.037 -6.14445 -2.89197 0
M  V30 7764 H 743.983 -4.68245 -4.59437 0
M  V30 7765 H 743.9 -6.34469 -4.11078 0
M  V30 7766 H 745.168 -5.8247 -5.18024 0
M  V30 7767 N 749.397 0.351382 -1.53633 0
M  V30 7768 C 750.329 1.45159 -1.77374 0
M  V30 7769 C 751.342 1.4905 -0.654826 0
M  V30 7770 O 752.531 1.52274 -0.931396 0
M  V30 7771 C 749.631 2.83858 -1.85143 0
M  V30 7772 C 748.804 3.03498 -3.14972 0
M  V30 7773 C 747.863 4.22393 -3.138 0
M  V30 7774 O 746.889 4.16885 -3.87551 0
M  V30 7775 N 748.091 5.30533 -2.35617 0
M  V30 7776 H 750.856 1.25167 -2.72311 0
M  V30 7777 H 748.417 0.54121 -1.52586 0
M  V30 7778 H 750.409 3.61557 -1.8182 0
M  V30 7779 H 748.979 2.9703 -0.974275 0
M  V30 7780 H 748.199 2.13336 -3.31484 0
M  V30 7781 H 749.487 3.13498 -4.00745 0
M  V30 7782 H 748.885 5.37875 -1.75235 0
M  V30 7783 H 747.442 6.06756 -2.38098 0
M  V30 7784 N 750.875 1.45233 0.611969 0
M  V30 7785 C 752.122 1.49021 1.37109 0
M  V30 7786 C 752.45 0.130227 1.94064 0
M  V30 7787 O 751.705 -0.870551 1.75271 0
M  V30 7788 C 752.004 2.51353 2.54079 0
M  V30 7789 C 751.67 3.96178 2.15299 0
M  V30 7790 C 750.332 4.35614 2.04436 0
M  V30 7791 C 752.684 4.87275 1.84966 0
M  V30 7792 C 750.012 5.64047 1.61456 0
M  V30 7793 C 752.364 6.16115 1.43474 0
M  V30 7794 C 751.028 6.54486 1.31167 0
M  V30 7795 H 750.298 0.545307 0.501719 0
M  V30 7796 H 752.945 1.78555 0.692122 0
M  V30 7797 H 751.25 2.15372 3.27295 0
M  V30 7798 H 752.947 2.51523 3.12309 0
M  V30 7799 H 749.537 3.6499 2.24678 0
M  V30 7800 H 753.721 4.57548 1.92258 0
M  V30 7801 H 748.977 5.92575 1.50547 0
M  V30 7802 H 753.151 6.86149 1.19048 0
M  V30 7803 H 750.778 7.53904 0.97637 0
M  V30 7804 N 752.353 -0.854086 1.3245 0
M  V30 7805 C 753.581 -1.64074 1.26045 0
M  V30 7806 C 753.996 -1.8802 -0.171456 0
M  V30 7807 O 753.353 -1.4496 -1.10873 0
M  V30 7808 C 753.404 -2.9997 2.01743 0
M  V30 7809 O 753.125 -2.77084 3.39346 0
M  V30 7810 C 754.626 -3.94414 2.02368 0
M  V30 7811 H 751.846 -0.511015 0.434862 0
M  V30 7812 H 754.39 -1.06494 1.74583 0
M  V30 7813 H 752.545 -3.54193 1.56926 0
M  V30 7814 H 752.959 -3.63514 3.78098 0
M  V30 7815 H 754.433 -4.87032 2.59815 0
M  V30 7816 H 754.91 -4.27427 1.01009 0
M  V30 7817 H 755.516 -3.46127 2.47135 0
M  V30 7818 N 753.831 -1.1567 -1.07043 0
M  V30 7819 C 755.077 -0.944878 -1.80121 0
M  V30 7820 C 755.432 0.522239 -1.85177 0
M  V30 7821 O 754.725 1.38228 -1.32678 0
M  V30 7822 C 754.919 -1.49677 -3.24548 0
M  V30 7823 C 754.748 -3.01602 -3.33566 0
M  V30 7824 C 753.518 -3.70177 -3.43943 0
M  V30 7825 C 755.716 -3.99362 -3.24059 0
M  V30 7826 N 753.698 -5.09882 -3.41896 0
M  V30 7827 C 755.069 -5.25404 -3.29167 0
M  V30 7828 C 757.124 -3.91289 -3.07891 0
M  V30 7829 C 755.827 -6.44314 -3.19769 0
M  V30 7830 C 757.853 -5.09761 -2.99829 0
M  V30 7831 C 757.215 -6.34679 -3.05552 0
M  V30 7832 H 753.314 -0.399447 -0.672284 0
M  V30 7833 H 755.898 -1.4693 -1.27749 0
M  V30 7834 H 754.069 -0.998941 -3.75334 0
M  V30 7835 H 755.801 -1.22346 -3.85764 0
M  V30 7836 H 752.556 -3.2078 -3.48421 0
M  V30 7837 H 752.98 -5.82857 -3.44393 0
M  V30 7838 H 757.622 -2.95573 -3.02318 0
M  V30 7839 H 755.34 -7.4026 -3.24101 0
M  V30 7840 H 758.926 -5.05279 -2.88418 0
M  V30 7841 H 757.806 -7.24812 -2.99361 0
M  V30 7842 N 755.309 1.25446 -0.953992 0
M  V30 7843 C 756.725 1.4539 -0.658316 0
M  V30 7844 C 756.925 1.85607 0.784356 0
M  V30 7845 O 755.981 1.98568 1.55972 0
M  V30 7846 C 757.294 2.52643 -1.6307 0
M  V30 7847 C 758.842 2.66484 -1.64181 0
M  V30 7848 C 759.317 3.76921 -2.60182 0
M  V30 7849 N 760.808 3.84331 -2.58542 0
M  V30 7850 C 761.543 4.69271 -3.29503 0
M  V30 7851 N 761.039 5.58503 -4.09934 0
M  V30 7852 N 762.832 4.6323 -3.18393 0
M  V30 7853 H 754.983 0.976337 -1.8863 0
M  V30 7854 H 757.246 0.490343 -0.811337 0
M  V30 7855 H 756.952 2.29949 -2.66114 0
M  V30 7856 H 756.826 3.50547 -1.39271 0
M  V30 7857 H 759.213 2.88545 -0.618552 0
M  V30 7858 H 759.294 1.68982 -1.92038 0
M  V30 7859 H 758.938 3.55612 -3.62633 0
M  V30 7860 H 758.868 4.73906 -2.29609 0
M  V30 7861 H 761.359 3.20544 -2.0015 0
M  V30 7862 H 761.672 6.20241 -4.61 0
M  V30 7863 H 760.017 5.58214 -4.14032 0
M  V30 7864 H 763.208 3.92527 -2.5503 0
M  V30 7865 H 763.381 5.29204 -3.73961 0
M  V30 7866 N 756.787 0.722489 1.40064 0
M  V30 7867 C 758.035 0.264455 2.00362 0
M  V30 7868 C 758.356 -1.14847 1.57592 0
M  V30 7869 O 757.626 -1.77982 0.818477 0
M  V30 7870 H 756.206 0.0947846 0.740962 0
M  V30 7871 H 758.868 0.929659 1.71299 0
M  V30 7872 H 757.964 0.302977 3.10626 0
M  V30 7873 N 758.265 -1.50454 0.469181 0
M  V30 7874 C 759.513 -2.01916 -0.0862982 0
M  V30 7875 C 759.834 -1.35337 -1.40388 0
M  V30 7876 O 759.104 -0.498096 -1.89462 0
M  V30 7877 H 757.684 -0.746185 -0.0348825 0
M  V30 7878 H 760.346 -1.84804 0.619167 0
M  V30 7879 H 759.442 -3.11182 -0.239189 0
M  V30 7880 N 759.743 -0.201713 -1.56304 0
M  V30 7881 C 760.989 0.435952 -1.98059 0
M  V30 7882 C 761.322 1.60811 -1.08873 0
M  V30 7883 O 760.597 1.9398 -0.142128 0
M  V30 7884 C 760.88 0.889706 -3.48936 0
M  V30 7885 C 760.733 -0.284725 -4.48898 0
M  V30 7886 C 762.052 1.7529 -4.03685 0
M  V30 7887 H 759.171 0.15699 -0.720085 0
M  V30 7888 H 761.813 -0.293965 -1.87712 0
M  V30 7889 H 759.963 1.51166 -3.57884 0
M  V30 7890 H 761.635 -0.922531 -4.51981 0
M  V30 7891 H 759.878 -0.935427 -4.23594 0
M  V30 7892 H 760.549 0.0753865 -5.51949 0
M  V30 7893 H 763.025 1.2283 -3.97558 0
M  V30 7894 H 761.901 2.03933 -5.0961 0
M  V30 7895 H 762.162 2.70939 -3.49348 0
M  V30 7896 N 761.222 1.57436 0.0718424 0
M  V30 7897 C 762.17 2.04725 1.10411 0
M  V30 7898 C 763.164 0.952579 1.4008 0
M  V30 7899 O 764.37 1.13769 1.39487 0
M  V30 7900 H 760.745 0.652749 0.373393 0
M  V30 7901 H 762.716 2.90569 0.679126 0
M  V30 7902 C 761.465 2.5068 2.40946 0
M  V30 7903 H 760.788 3.34505 2.18967 0
M  V30 7904 H 762.228 2.87521 3.11621 0
M  V30 7905 C 760.687 1.38971 3.06902 0
M  V30 7906 O 761.217 0.731786 3.94978 0
M  V30 7907 N 759.423 1.13485 2.67525 0
M  V30 7908 H 758.97 1.67168 1.95991 0
M  V30 7909 H 758.928 0.389467 3.11978 0
M  V30 7910 N 762.7 -0.34323 1.53817 0
M  V30 7911 C 763.93 -1.10188 1.74763 0
M  V30 7912 C 764.338 -1.82829 0.486856 0
M  V30 7913 O 763.681 -1.75236 -0.551198 0
M  V30 7914 C 763.743 -2.16 2.87375 0
M  V30 7915 C 763.407 -1.62931 4.26969 0
M  V30 7916 C 764.404 -1.08147 5.08528 0
M  V30 7917 C 762.089 -1.67769 4.73454 0
M  V30 7918 C 764.083 -0.589039 6.34672 0
M  V30 7919 C 761.77 -1.18138 5.99572 0
M  V30 7920 C 762.768 -0.637979 6.80014 0
M  V30 7921 O 762.456 -0.149073 8.03762 0
M  V30 7922 H 762.188 -0.33445 0.587469 0
M  V30 7923 H 764.742 -0.401109 2.01445 0
M  V30 7924 H 762.972 -2.89637 2.56218 0
M  V30 7925 H 764.661 -2.77432 2.96287 0
M  V30 7926 H 765.427 -1.03732 4.73777 0
M  V30 7927 H 761.306 -2.09004 4.10899 0
M  V30 7928 H 764.85 -0.164233 6.97407 0
M  V30 7929 H 760.747 -1.22254 6.33817 0
M  V30 7930 H 761.515 -0.266332 8.18067 0
M  V30 7931 N 764.178 -1.45556 -0.604258 0
M  V30 7932 C 765.108 -1.57327 -1.72541 0
M  V30 7933 C 766.089 -0.424637 -1.64714 0
M  V30 7934 O 767.274 -0.648196 -1.83063 0
M  V30 7935 C 764.404 -1.54279 -3.11152 0
M  V30 7936 C 763.358 -2.67893 -3.33792 0
M  V30 7937 C 762.684 -2.499 -4.72709 0
M  V30 7938 C 763.984 -4.0988 -3.23722 0
M  V30 7939 H 765.678 -2.51175 -1.62947 0
M  V30 7940 H 763.224 -1.20884 -0.782504 0
M  V30 7941 H 765.177 -1.6111 -3.89386 0
M  V30 7942 H 763.901 -0.569627 -3.21594 0
M  V30 7943 H 762.56 -2.60495 -2.57949 0
M  V30 7944 H 762.208 -1.50715 -4.79889 0
M  V30 7945 H 761.908 -3.26091 -4.88813 0
M  V30 7946 H 763.432 -2.5859 -5.5314 0
M  V30 7947 H 764.846 -4.18503 -3.91826 0
M  V30 7948 H 763.243 -4.86487 -3.51355 0
M  V30 7949 H 764.313 -4.31553 -2.21111 0
M  V30 7950 N 765.656 0.84705 -1.32902 0
M  V30 7951 C 766.903 1.60176 -1.23894 0
M  V30 7952 C 767.231 1.93496 0.197341 0
M  V30 7953 O 766.486 1.58173 1.15238 0
M  V30 7954 C 766.785 2.92663 -2.05142 0
M  V30 7955 C 766.451 2.7874 -3.54422 0
M  V30 7956 C 765.113 2.7465 -3.95121 0
M  V30 7957 C 767.465 2.64128 -4.49317 0
M  V30 7958 C 764.793 2.53837 -5.28946 0
M  V30 7959 C 767.145 2.44849 -5.83294 0
M  V30 7960 C 765.809 2.39156 -6.23186 0
M  V30 7961 H 765.079 0.586127 -0.453361 0
M  V30 7962 H 767.726 0.981994 -1.64405 0
M  V30 7963 H 766.031 3.588 -1.57383 0
M  V30 7964 H 767.728 3.50095 -1.95537 0
M  V30 7965 H 764.318 2.82751 -3.22102 0
M  V30 7966 H 768.502 2.66327 -4.18788 0
M  V30 7967 H 763.758 2.4787 -5.58901 0
M  V30 7968 H 767.932 2.32524 -6.56434 0
M  V30 7969 H 765.559 2.22789 -7.26821 0
M  V30 7970 N 767.134 1.16236 1.06428 0
M  V30 7971 C 768.411 0.853294 1.76006 0
M  V30 7972 C 768.791 -0.649162 2.00871 0
M  V30 7973 O 768.139 -1.59653 1.63472 0
M  V30 7974 C 768.349 1.67448 3.06206 0
M  V30 7975 C 769.697 1.8866 3.80385 0
M  V30 7976 O 770.721 1.64303 3.16043 0
M  V30 7977 O 769.58 2.29518 4.95968 0
M  V30 7978 H 766.674 0.314737 0.764767 0
M  V30 7979 H 769.22 1.26865 1.12709 0
M  V30 7980 H 767.992 2.69411 2.83784 0
M  V30 7981 H 767.615 1.25608 3.77238 0
M  V30 7982 N 768.612 -1.24939 0.960631 0
M  V30 7983 C 769.56 -2.27659 0.47686 0
M  V30 7984 C 770.554 -1.63148 -0.455961 0
M  V30 7985 O 771.76 -1.76911 -0.332029 0
M  V30 7986 H 768.135 -0.739651 0.135723 0
M  V30 7987 H 770.106 -2.65844 1.35534 0
M  V30 7988 C 768.855 -3.46976 -0.224191 0
M  V30 7989 H 768.178 -3.96854 0.484471 0
M  V30 7990 H 769.618 -4.20717 -0.526615 0
M  V30 7991 C 768.077 -3.04159 -1.44876 0
M  V30 7992 O 768.607 -3.10697 -2.54618 0
M  V30 7993 N 766.813 -2.59284 -1.31226 0
M  V30 7994 H 766.36 -2.54164 -0.419361 0
M  V30 7995 H 766.318 -2.31 -2.13275 0
M  V30 7996 N 770.09 -0.729906 -1.39679 0
M  V30 7997 C 771.338 -0.275077 -2.00219 0
M  V30 7998 C 771.659 1.1401 -1.58199 0
M  V30 7999 O 770.929 1.77546 -0.827904 0
M  V30 8000 H 769.509 -0.0987127 -0.740449 0
M  V30 8001 H 772.171 -0.93873 -1.70804 0
M  V30 8002 H 771.267 -0.319446 -3.10461 0
M  V30 8003 N 771.568 1.50203 -0.477153 0
M  V30 8004 C 772.814 2.02658 0.0758507 0
M  V30 8005 C 773.147 1.358 1.38824 0
M  V30 8006 O 772.422 0.485696 1.88338 0
M  V30 8007 C 772.705 3.59208 0.253339 0
M  V30 8008 C 772.558 4.36629 -1.0805 0
M  V30 8009 C 773.877 4.28469 1.00509 0
M  V30 8010 H 770.996 0.736538 0.0260921 0
M  V30 8011 H 773.638 1.79464 -0.623925 0
M  V30 8012 H 771.788 3.79101 0.849378 0
M  V30 8013 H 773.46 4.28292 -1.71358 0
M  V30 8014 H 771.703 4.0013 -1.67566 0
M  V30 8015 H 772.374 5.44449 -0.909883 0
M  V30 8016 H 774.85 4.13087 0.499818 0
M  V30 8017 H 773.726 5.37804 1.09808 0
M  V30 8018 H 773.987 3.92057 2.04314 0
M  V30 8019 N 773.046 0.209999 1.56195 0
M  V30 8020 C 774.274 -0.429996 2.02382 0
M  V30 8021 C 774.689 -1.54159 1.08998 0
M  V30 8022 O 774.046 -1.82239 0.0974856 0
M  V30 8023 C 774.097 -0.972433 3.48175 0
M  V30 8024 O 773.818 0.0948231 4.37997 0
M  V30 8025 C 775.319 -1.68683 4.09952 0
M  V30 8026 H 772.539 -0.106475 0.662498 0
M  V30 8027 H 775.083 0.323072 2.01932 0
M  V30 8028 H 773.238 -1.67582 3.49278 0
M  V30 8029 H 773.652 -0.31113 5.23576 0
M  V30 8030 H 775.126 -2.01851 5.13771 0
M  V30 8031 H 775.603 -2.59587 3.54276 0
M  V30 8032 H 776.209 -1.02893 4.12666 0
M  V30 8033 N 774.524 -1.57472 -0.0634922 0
M  V30 8034 C 775.935 -1.76303 -0.614337 0
M  V30 8035 C 776.286 -0.836578 -1.77471 0
M  V30 8036 O 775.411 -0.0227184 -2.16388 0
M  V30 8037 C 776.006 -3.19709 -1.12122 0
M  V30 8038 C 774.565 -3.39856 -1.61786 0
M  V30 8039 C 773.712 -2.71975 -0.540845 0
M  V30 8040 H 776.663 -1.57864 0.162702 0
M  V30 8041 H 776.684 -3.24326 -1.98979 0
M  V30 8042 H 776.196 -3.87114 -0.276472 0
M  V30 8043 H 774.297 -2.77578 -2.48558 0
M  V30 8044 H 774.41 -4.48338 -1.68908 0
M  V30 8045 H 772.774 -2.34763 -0.987854 0
M  V30 8046 H 773.557 -3.4204 0.293856 0
M  V30 8047 N 776.003 0.335068 -1.53997 0
M  V30 8048 C 777.233 1.0926 -1.75345 0
M  V30 8049 C 777.641 1.82568 -0.496545 0
M  V30 8050 O 776.984 1.75525 0.541897 0
M  V30 8051 C 777.046 2.14473 -2.88516 0
M  V30 8052 C 776.71 1.60665 -4.27827 0
M  V30 8053 C 777.707 1.05448 -5.09094 0
M  V30 8054 C 775.392 1.65255 -4.74337 0
M  V30 8055 C 777.386 0.555372 -6.34976 0
M  V30 8056 C 775.073 1.14956 -6.0019 0
M  V30 8057 C 776.071 0.601907 -6.80343 0
M  V30 8058 O 775.759 0.106445 -8.0383 0
M  V30 8059 H 775.491 0.331329 -0.589234 0
M  V30 8060 H 778.045 0.39042 -2.01655 0
M  V30 8061 H 776.275 2.88274 -2.5775 0
M  V30 8062 H 777.964 2.75857 -2.97755 0
M  V30 8063 H 778.73 1.01218 -4.74321 0
M  V30 8064 H 774.609 2.06822 -4.12002 0
M  V30 8065 H 778.153 0.127245 -6.97484 0
M  V30 8066 H 774.05 1.18891 -6.34457 0
M  V30 8067 H 774.818 0.222944 -8.18196 0
M  V30 8068 N 777.481 1.45874 0.596531 0
M  V30 8069 C 778.728 1.50467 1.35521 0
M  V30 8070 C 779.056 0.150802 1.93915 0
M  V30 8071 O 778.311 -0.851913 1.76184 0
M  V30 8072 C 778.61 2.54034 2.51399 0
M  V30 8073 C 778.276 3.9844 2.11085 0
M  V30 8074 C 776.938 4.37758 1.99804 0
M  V30 8075 C 779.29 4.89209 1.79788 0
M  V30 8076 C 776.618 5.65727 1.55465 0
M  V30 8077 C 778.97 6.17602 1.36931 0
M  V30 8078 C 777.634 6.5584 1.24218 0
M  V30 8079 H 776.904 0.550597 0.495907 0
M  V30 8080 H 779.551 1.79279 0.673145 0
M  V30 8081 H 777.856 2.18832 3.24992 0
M  V30 8082 H 779.553 2.54822 3.09624 0
M  V30 8083 H 776.143 3.67353 2.20794 0
M  V30 8084 H 780.327 4.59562 1.87395 0
M  V30 8085 H 775.583 5.94139 1.44253 0
M  V30 8086 H 779.757 6.87373 1.11764 0
M  V30 8087 H 777.384 7.54897 0.896353 0
M  V30 8088 N 778.959 -0.83999 1.33349 0
M  V30 8089 C 780.184 -1.63249 1.27924 0
M  V30 8090 C 780.609 -1.87523 -0.147193 0
M  V30 8091 O 779.967 -1.43853 -1.10345 0
M  V30 8092 C 780.015 -2.96046 2.05886 0
M  V30 8093 O 779.119 -3.87303 1.4167 0
M  V30 8094 H 778.46 -0.49715 0.440157 0
M  V30 8095 H 780.99 -1.04512 1.75893 0
M  V30 8096 H 781 -3.45752 2.16609 0
M  V30 8097 H 779.675 -2.77701 3.09605 0
M  V30 8098 H 778.252 -3.45789 1.39585 0
M  V30 8099 N 780.437 -1.16799 -1.0581 0
M  V30 8100 C 781.667 -0.975454 -1.82122 0
M  V30 8101 C 782.075 0.479584 -1.83021 0
M  V30 8102 O 781.418 1.34471 -1.25153 0
M  V30 8103 C 781.48 -1.43209 -3.29744 0
M  V30 8104 C 781.144 -2.908 -3.5254 0
M  V30 8105 C 782.141 -3.88775 -3.45181 0
M  V30 8106 C 779.826 -3.28832 -3.79703 0
M  V30 8107 C 781.82 -5.22782 -3.64661 0
M  V30 8108 C 779.507 -4.63007 -3.98832 0
M  V30 8109 C 780.505 -5.59791 -3.91309 0
M  V30 8110 O 780.193 -6.9154 -4.09911 0
M  V30 8111 H 779.925 -0.345655 -0.580947 0
M  V30 8112 H 782.479 -1.55355 -1.34365 0
M  V30 8113 H 780.709 -0.797504 -3.78387 0
M  V30 8114 H 782.398 -1.2062 -3.87564 0
M  V30 8115 H 783.164 -3.60738 -3.2418 0
M  V30 8116 H 779.043 -2.54073 -3.84666 0
M  V30 8117 H 782.587 -5.98312 -3.58705 0
M  V30 8118 H 778.484 -4.90752 -4.19324 0
M  V30 8119 H 779.252 -6.98188 -4.27172 0
M  V30 8120 N 781.915 1.24427 -0.967243 0
M  V30 8121 C 783.14 1.9708 -0.646069 0
M  V30 8122 C 783.565 1.71272 0.777665 0
M  V30 8123 O 782.923 0.976179 1.52776 0
M  V30 8124 C 782.971 3.48501 -0.926266 0
M  V30 8125 O 782.075 4.12398 -0.0114653 0
M  V30 8126 H 781.416 0.617423 -0.244304 0
M  V30 8127 H 783.946 1.58215 -1.29727 0
M  V30 8128 H 783.956 3.98885 -0.857619 0
M  V30 8129 H 782.631 3.66613 -1.96386 0
M  V30 8130 H 781.208 3.72661 -0.133396 0
M  V30 8131 N 783.393 0.737304 1.3929 0
M  V30 8132 C 784.303 0.100464 2.34385 0
M  V30 8133 C 785.319 -0.719282 1.58437 0
M  V30 8134 O 786.495 -0.647216 1.90717 0
M  V30 8135 C 783.56 -0.794325 3.37478 0
M  V30 8136 C 782.621 0.0379345 4.29283 0
M  V30 8137 C 781.854 -0.814241 5.27452 0
M  V30 8138 O 782.077 -2.05288 5.32177 0
M  V30 8139 O 781.011 -0.241679 6.01415 0
M  V30 8140 H 784.837 0.885407 2.90507 0
M  V30 8141 H 782.422 0.497999 1.40856 0
M  V30 8142 H 784.304 -1.30622 4.00644 0
M  V30 8143 H 782.979 -1.55804 2.83737 0
M  V30 8144 H 781.886 0.595405 3.69331 0
M  V30 8145 H 783.219 0.763926 4.86236 0
M  V30 8146 N 784.871 -1.49948 0.485112 0
M  V30 8147 C 786.096 -2.073 -0.0645059 0
M  V30 8148 C 786.521 -1.345 -1.31497 0
M  V30 8149 O 785.879 -0.39687 -1.76903 0
M  V30 8150 C 785.927 -3.59201 -0.317304 0
M  V30 8151 O 785.031 -3.88085 -1.39514 0
M  V30 8152 H 784.372 -0.663723 0.0191822 0
M  V30 8153 H 786.902 -1.92963 0.680179 0
M  V30 8154 H 786.912 -4.04227 -0.553604 0
M  V30 8155 H 785.587 -4.11602 0.596387 0
M  V30 8156 H 784.164 -3.54885 -1.14504 0
M  V30 8157 N 786.349 -0.21828 -1.56081 0
M  V30 8158 C 787.596 0.414307 -1.98216 0
M  V30 8159 C 787.924 1.60005 -1.10584 0
M  V30 8160 O 787.179 1.95124 -0.150043 0
M  V30 8161 C 787.478 0.894782 -3.46018 0
M  V30 8162 C 787.144 -0.180083 -4.5054 0
M  V30 8163 C 785.806 -0.475367 -4.78846 0
M  V30 8164 C 788.158 -0.907191 -5.13244 0
M  V30 8165 C 785.486 -1.50233 -5.67139 0
M  V30 8166 C 787.838 -1.92347 -6.02649 0
M  V30 8167 C 786.502 -2.22571 -6.293 0
M  V30 8168 H 785.772 0.151606 -0.725325 0
M  V30 8169 H 788.419 -0.320113 -1.88806 0
M  V30 8170 H 786.724 1.7079 -3.52616 0
M  V30 8171 H 788.421 1.39403 -3.75989 0
M  V30 8172 H 785.011 0.06022 -4.28558 0
M  V30 8173 H 789.195 -0.692303 -4.91448 0
M  V30 8174 H 784.451 -1.74215 -5.86054 0
M  V30 8175 H 788.625 -2.49197 -6.50288 0
M  V30 8176 H 786.252 -3.0229 -6.97513 0
M  V30 8177 N 787.827 1.57504 0.0551401 0
M  V30 8178 C 788.737 2.08198 1.08124 0
M  V30 8179 C 789.753 1.01496 1.41331 0
M  V30 8180 O 790.929 1.33073 1.51174 0
M  V30 8181 C 787.994 2.52968 2.37083 0
M  V30 8182 C 787.055 3.7404 2.10696 0
M  V30 8183 C 786.288 4.16665 3.33505 0
M  V30 8184 O 786.511 3.59019 4.4324 0
M  V30 8185 O 785.445 5.09324 3.20737 0
M  V30 8186 H 789.271 2.95977 0.680518 0
M  V30 8187 H 786.856 1.46933 0.270401 0
M  V30 8188 H 788.738 2.82211 3.12946 0
M  V30 8189 H 787.413 1.6831 2.76502 0
M  V30 8190 H 786.32 3.49855 1.32484 0
M  V30 8191 H 787.653 4.59601 1.76148 0
M  V30 8192 N 789.305 -0.326896 1.54172 0
M  V30 8193 C 790.716 -0.901533 1.63491 0
M  V30 8194 C 791.067 -1.88994 0.52684 0
M  V30 8195 O 790.192 -2.137 -0.340794 0
M  V30 8196 C 790.787 -1.64192 2.96355 0
M  V30 8197 C 789.346 -2.16533 3.07881 0
M  V30 8198 C 788.493 -0.98966 2.59039 0
M  V30 8199 H 791.444 -0.104568 1.58355 0
M  V30 8200 H 791.465 -2.50592 2.86328 0
M  V30 8201 H 790.977 -0.922291 3.76982 0
M  V30 8202 H 789.078 -2.91622 2.31922 0
M  V30 8203 H 789.191 -2.41762 4.13628 0
M  V30 8204 H 787.555 -1.36787 2.14852 0
M  V30 8205 H 788.338 -0.284401 3.4212 0
M  V30 8206 N 790.784 -1.46188 -0.588786 0
M  V30 8207 C 792.009 -1.5498 -1.37826 0
M  V30 8208 C 792.434 -0.189498 -1.87143 0
M  V30 8209 O 791.792 0.829293 -1.61222 0
M  V30 8210 C 791.84 -2.55369 -2.54596 0
M  V30 8211 O 790.944 -2.08452 -3.55839 0
M  V30 8212 H 790.285 -0.521741 -0.41071 0
M  V30 8213 H 792.815 -1.91708 -0.714779 0
M  V30 8214 H 792.825 -2.74782 -3.01594 0
M  V30 8215 H 791.5 -3.54155 -2.18052 0
M  V30 8216 H 790.077 -1.98999 -3.15363 0
M  V30 8217 N 792.262 0.832906 -1.33792 0
M  V30 8218 C 793.487 1.62568 -1.28788 0
M  V30 8219 C 793.912 1.87599 0.137246 0
M  V30 8220 O 793.27 1.44436 1.0958 0
M  V30 8221 C 793.318 2.9495 -2.07453 0
M  V30 8222 O 792.422 3.86546 -1.43722 0
M  V30 8223 H 791.763 0.494809 -0.442787 0
M  V30 8224 H 794.293 1.03578 -1.76445 0
M  V30 8225 H 794.303 3.44599 -2.1844 0
M  V30 8226 H 792.978 2.76055 -3.11073 0
M  V30 8227 H 791.555 3.45044 -1.41417 0
M  V30 8228 N 793.74 1.17359 1.05189 0
M  V30 8229 C 794.672 0.848078 2.12933 0
M  V30 8230 C 795.685 -0.149521 1.62112 0
M  V30 8231 O 796.874 0.0767797 1.78335 0
M  V30 8232 C 793.974 0.243889 3.38021 0
M  V30 8233 C 793.147 1.28436 4.18118 0
M  V30 8234 C 792.206 0.697926 5.21551 0
M  V30 8235 O 791.232 1.36973 5.52473 0
M  V30 8236 N 792.434 -0.510024 5.78255 0
M  V30 8237 H 795.199 1.7754 2.41453 0
M  V30 8238 H 792.76 1.07244 1.21286 0
M  V30 8239 H 794.752 -0.161727 4.04377 0
M  V30 8240 H 793.322 -0.58722 3.07035 0
M  V30 8241 H 792.542 1.86573 3.47252 0
M  V30 8242 H 793.83 1.98617 4.68432 0
M  V30 8243 H 793.228 -1.07378 5.55416 0
M  V30 8244 H 791.785 -0.857705 6.46132 0
M  V30 8245 N 795.218 -1.23913 0.973828 0
M  V30 8246 C 796.464 -1.92436 0.640026 0
M  V30 8247 C 796.797 -1.75875 -0.823512 0
M  V30 8248 O 796.072 -1.11563 -1.59323 0
M  V30 8249 C 796.355 -3.4526 1.0231 0
M  V30 8250 C 796.208 -3.70961 2.54378 0
M  V30 8251 C 797.527 -4.36495 0.562155 0
M  V30 8252 H 794.646 -0.698868 0.233992 0
M  V30 8253 H 797.288 -1.46163 1.21393 0
M  V30 8254 H 795.438 -3.84802 0.534751 0
M  V30 8255 H 797.11 -3.40941 3.10737 0
M  V30 8256 H 795.353 -3.15899 2.97305 0
M  V30 8257 H 796.024 -4.77912 2.76232 0
M  V30 8258 H 798.5 -4.04363 0.981333 0
M  V30 8259 H 797.376 -5.42142 0.858689 0
M  V30 8260 H 797.637 -4.38818 -0.537659 0
M  V30 8261 N 796.696 -0.74468 -1.38897 0
M  V30 8262 C 797.944 -0.296298 -1.99916 0
M  V30 8263 C 798.265 1.12325 -1.59399 0
M  V30 8264 O 797.535 1.76658 -0.846689 0
M  V30 8265 H 796.115 -0.106561 -0.73936 0
M  V30 8266 H 798.777 -0.956793 -1.69798 0
M  V30 8267 H 797.873 -0.352356 -3.10105 0
M  V30 8268 N 798.174 1.49689 -0.493057 0
M  V30 8269 C 799.121 2.28976 0.28959 0
M  V30 8270 C 800.091 1.35011 0.967536 0
M  V30 8271 O 801.276 1.63964 0.975736 0
M  V30 8272 C 798.416 3.1748 1.35279 0
M  V30 8273 C 797.529 4.26496 0.687418 0
M  V30 8274 C 796.664 5.02226 1.73038 0
M  V30 8275 C 795.703 6.03089 1.04645 0
M  V30 8276 N 794.84 6.72014 2.03325 0
M  V30 8277 H 799.68 2.954 -0.392798 0
M  V30 8278 H 797.217 1.45657 -0.205554 0
M  V30 8279 H 799.175 3.67162 1.98111 0
M  V30 8280 H 797.805 2.53057 2.00405 0
M  V30 8281 H 796.857 3.80362 -0.0540001 0
M  V30 8282 H 798.169 4.98578 0.14864 0
M  V30 8283 H 797.323 5.55737 2.43395 0
M  V30 8284 H 796.062 4.29899 2.303 0
M  V30 8285 H 795.067 5.48817 0.328606 0
M  V30 8286 H 796.292 6.77398 0.480428 0
M  V30 8287 H 794.238 6.02464 2.59564 0
M  V30 8288 H 794.155 7.40046 1.54492 0
M  V30 8289 H 795.423 7.30133 2.72995 0
M  V30 8290 N 799.652 0.226554 1.55963 0
M  V30 8291 C 800.929 -0.453058 1.90281 0
M  V30 8292 C 801.309 -1.77377 1.14458 0
M  V30 8293 O 800.657 -2.27067 0.255496 0
M  V30 8294 C 800.867 -0.641108 3.43061 0
M  V30 8295 C 802.215 -0.946265 4.13921 0
M  V30 8296 O 803.239 -0.727713 3.48687 0
M  V30 8297 O 802.098 -1.36131 5.29274 0
M  V30 8298 H 799.192 -0.240242 0.791336 0
M  V30 8299 H 801.738 0.26911 1.67553 0
M  V30 8300 H 800.51 0.290283 3.90222 0
M  V30 8301 H 800.133 -1.41458 3.71585 0
M  V30 8302 N 801.13 -1.57531 -0.0467866 0
M  V30 8303 C 802.378 -1.88078 -0.739656 0
M  V30 8304 C 802.699 -0.821936 -1.76831 0
M  V30 8305 O 801.969 0.146582 -1.95351 0
M  V30 8306 H 800.549 -0.694075 -0.276169 0
M  V30 8307 H 803.211 -1.94893 -0.0169391 0
M  V30 8308 H 802.307 -2.86396 -1.24031 0
M  V30 8309 N 802.608 0.318715 -1.54344 0
M  V30 8310 C 803.556 1.41254 -1.84798 0
M  V30 8311 C 804.55 1.53325 -0.720256 0
M  V30 8312 O 805.756 1.55653 -0.903992 0
M  V30 8313 H 802.131 0.471468 -0.585851 0
M  V30 8314 H 804.102 1.12795 -2.7626 0
M  V30 8315 C 802.851 2.77395 -2.09637 0
M  V30 8316 H 802.174 2.68881 -2.95876 0
M  V30 8317 H 803.614 3.52987 -2.34896 0
M  V30 8318 C 802.073 3.24948 -0.889398 0
M  V30 8319 O 802.603 4.01573 -0.101063 0
M  V30 8320 N 800.809 2.82051 -0.699684 0
M  V30 8321 H 800.356 2.19858 -1.3424 0
M  V30 8322 H 800.314 3.1422 0.106368 0
M  V30 8323 N 804.086 1.46499 0.581025 0
M  V30 8324 C 805.335 1.51162 1.3354 0
M  V30 8325 C 805.648 0.168433 1.94873 0
M  V30 8326 O 806.854 0.092883 2.71341 0
M  V30 8327 C 805.31 2.66362 2.42032 0
M  V30 8328 C 804.918 4.07109 1.86994 0
M  V30 8329 C 806.662 2.80297 3.188 0
M  V30 8330 C 804.569 5.13645 2.93125 0
M  V30 8331 H 803.499 0.562576 0.502021 0
M  V30 8332 H 806.15 1.72713 0.619863 0
M  V30 8333 H 804.532 2.38143 3.16392 0
M  V30 8334 H 805.706 4.45125 1.19166 0
M  V30 8335 H 804.021 3.97854 1.22887 0
M  V30 8336 H 806.618 3.5706 3.9801 0
M  V30 8337 H 806.961 1.87875 3.71495 0
M  V30 8338 H 807.494 3.0817 2.51547 0
M  V30 8339 H 804.233 6.07866 2.45315 0
M  V30 8340 H 803.753 4.80172 3.59437 0
M  V30 8341 H 805.432 5.39562 3.57046 0
M  V30 8342 N 805.565 -0.825799 1.34232 0
M  V30 8343 C 806.812 -1.58185 1.26427 0
M  V30 8344 C 807.14 -1.93786 -0.166533 0
M  V30 8345 O 806.395 -1.59986 -1.12707 0
M  V30 8346 C 806.694 -2.89362 2.09772 0
M  V30 8347 C 806.36 -2.73066 3.58812 0
M  V30 8348 C 805.022 -2.68329 3.99441 0
M  V30 8349 C 807.374 -2.56946 4.53462 0
M  V30 8350 C 804.702 -2.4539 5.32917 0
M  V30 8351 C 807.054 -2.35538 5.87115 0
M  V30 8352 C 805.718 -2.29212 6.26912 0
M  V30 8353 H 804.988 -0.57884 0.462629 0
M  V30 8354 H 807.635 -0.955714 1.65947 0
M  V30 8355 H 805.94 -3.56251 1.63071 0
M  V30 8356 H 807.637 -3.4694 2.01081 0
M  V30 8357 H 804.227 -2.77591 3.26559 0
M  V30 8358 H 808.411 -2.59631 4.22972 0
M  V30 8359 H 803.667 -2.38947 5.62774 0
M  V30 8360 H 807.841 -2.22051 6.6005 0
M  V30 8361 H 805.468 -2.11197 7.30274 0
M  V30 8362 N 807.043 -1.17915 -1.04565 0
M  V30 8363 C 808.006 -0.903787 -2.10628 0
M  V30 8364 C 809.006 0.10873 -1.60432 0
M  V30 8365 O 810.196 -0.124152 -1.73757 0
M  V30 8366 C 807.328 -0.355017 -3.39046 0
M  V30 8367 H 808.521 -1.84425 -2.3649 0
M  V30 8368 H 806.074 -0.990477 -1.2091 0
M  V30 8369 H 806.809 0.592297 -3.18845 0
M  V30 8370 H 806.594 -1.08484 -3.76794 0
M  V30 8371 H 808.084 -0.180891 -4.17208 0
M  V30 8372 N 808.521 1.23394 -0.980386 0
M  V30 8373 C 809.932 1.73631 -0.686239 0
M  V30 8374 C 810.283 1.79259 0.797541 0
M  V30 8375 O 809.408 1.43046 1.62379 0
M  V30 8376 C 810.003 3.15332 -1.239 0
M  V30 8377 C 808.562 3.63024 -0.994494 0
M  V30 8378 C 807.709 2.41279 -1.36673 0
M  V30 8379 H 810.66 1.08918 -1.15423 0
M  V30 8380 H 810.681 3.75556 -0.611414 0
M  V30 8381 H 810.193 3.11204 -2.31892 0
M  V30 8382 H 808.294 3.72535 0.0693492 0
M  V30 8383 H 808.407 4.49825 -1.64906 0
M  V30 8384 H 806.771 2.42295 -0.785195 0
M  V30 8385 H 807.554 2.39822 -2.45642 0
M  V30 8386 N 809.999 0.752036 1.385 0
M  V30 8387 C 811.224 0.316993 2.04963 0
M  V30 8388 C 811.649 -1.04582 1.56346 0
M  V30 8389 O 811.007 -1.66616 0.714755 0
M  V30 8390 C 811.055 0.347235 3.58924 0
M  V30 8391 O 810.159 -0.659296 4.07096 0
M  V30 8392 H 809.5 0.140652 0.648932 0
M  V30 8393 H 812.03 1.02272 1.77205 0
M  V30 8394 H 812.04 0.19757 4.07521 0
M  V30 8395 H 810.715 1.34157 3.93668 0
M  V30 8396 H 809.292 -0.474371 3.6987 0
M  V30 8397 N 811.477 -1.49425 0.500989 0
M  V30 8398 C 812.424 -2.29126 -0.277443 0
M  V30 8399 C 813.394 -1.35522 -0.960363 0
M  V30 8400 O 814.579 -1.64479 -0.967027 0
M  V30 8401 C 811.719 -3.18193 -1.33593 0
M  V30 8402 C 810.832 -4.26854 -0.664791 0
M  V30 8403 C 809.967 -5.03137 -1.70372 0
M  V30 8404 C 809.006 -6.03635 -1.01445 0
M  V30 8405 N 808.143 -6.73083 -1.99758 0
M  V30 8406 H 812.983 -2.95187 0.408458 0
M  V30 8407 H 810.52 -1.45546 0.213275 0
M  V30 8408 H 812.478 -3.68207 -1.96161 0
M  V30 8409 H 811.108 -2.54116 -1.9906 0
M  V30 8410 H 810.16 -3.80328 0.0741708 0
M  V30 8411 H 811.472 -4.9865 -0.122197 0
M  V30 8412 H 810.626 -5.5702 -2.40445 0
M  V30 8413 H 809.365 -4.31114 -2.28017 0
M  V30 8414 H 808.37 -5.48984 -0.299496 0
M  V30 8415 H 809.595 -6.77644 -0.444497 0
M  V30 8416 H 807.541 -6.03832 -2.56365 0
M  V30 8417 H 807.458 -7.40855 -1.50565 0
M  V30 8418 H 808.726 -7.3157 -2.69119 0
M  V30 8419 N 812.955 -0.234822 -1.55841 0
M  V30 8420 C 814.203 0.392483 -1.98252 0
M  V30 8421 C 814.524 1.59344 -1.12404 0
M  V30 8422 O 813.794 1.94834 -0.204055 0
M  V30 8423 H 812.374 0.147999 -0.732192 0
M  V30 8424 H 815.036 -0.330804 -1.92072 0
M  V30 8425 H 814.132 0.709829 -3.03921 0
M  V30 8426 N 814.433 1.57553 0.0384317 0
M  V30 8427 C 815.38 2.05942 1.04194 0
M  V30 8428 C 816.35 0.946637 1.36484 0
M  V30 8429 O 817.535 1.21658 1.46983 0
M  V30 8430 C 814.675 2.53588 2.34066 0
M  V30 8431 C 813.788 3.7862 2.08017 0
M  V30 8432 C 812.923 4.14915 3.31692 0
M  V30 8433 C 811.962 5.32891 3.01155 0
M  V30 8434 N 811.099 5.64662 4.17254 0
M  V30 8435 H 815.939 2.91429 0.622341 0
M  V30 8436 H 813.476 1.44098 0.295684 0
M  V30 8437 H 815.434 2.79276 3.09937 0
M  V30 8438 H 814.064 1.71031 2.73767 0
M  V30 8439 H 813.116 3.60073 1.22686 0
M  V30 8440 H 814.428 4.64613 1.81484 0
M  V30 8441 H 813.582 4.41681 4.15936 0
M  V30 8442 H 812.321 3.27555 3.6133 0
M  V30 8443 H 811.326 5.05887 2.15311 0
M  V30 8444 H 812.551 6.21896 2.72804 0
M  V30 8445 H 810.497 4.80261 4.46861 0
M  V30 8446 H 810.414 6.45145 3.94112 0
M  V30 8447 H 811.682 5.96 5.02399 0
M  V30 8448 N 815.911 -0.310526 1.54511 0
M  V30 8449 C 816.843 -1.40405 1.8116 0
M  V30 8450 C 817.856 -1.47261 0.694114 0
M  V30 8451 O 819.045 -1.49751 0.971441 0
M  V30 8452 C 816.145 -2.78849 1.92604 0
M  V30 8453 C 815.318 -2.95041 3.22908 0
M  V30 8454 C 814.377 -4.13925 3.24889 0
M  V30 8455 O 813.403 -4.06463 3.98467 0
M  V30 8456 N 814.605 -5.24099 2.496 0
M  V30 8457 H 817.37 -1.17903 2.75534 0
M  V30 8458 H 814.931 -0.500564 1.53967 0
M  V30 8459 H 816.923 -3.5661 1.91342 0
M  V30 8460 H 815.493 -2.94342 1.05268 0
M  V30 8461 H 814.713 -2.04472 3.37023 0
M  V30 8462 H 816.001 -3.02763 4.08916 0
M  V30 8463 H 815.399 -5.33039 1.89435 0
M  V30 8464 H 813.956 -6.0023 2.54102 0
M  V30 8465 N 817.389 -1.46805 -0.573248 0
M  V30 8466 C 818.619 -1.55965 -1.35494 0
M  V30 8467 C 819.027 -0.203038 -1.88107 0
M  V30 8468 O 818.37 0.81138 -1.6481 0
M  V30 8469 C 818.432 -2.51168 -2.57206 0
M  V30 8470 C 818.096 -3.97211 -2.25993 0
M  V30 8471 C 819.093 -4.86155 -1.84254 0
M  V30 8472 C 816.778 -4.42419 -2.37846 0
M  V30 8473 C 818.772 -6.18323 -1.54776 0
M  V30 8474 C 816.459 -5.74619 -2.0798 0
M  V30 8475 C 817.457 -6.62392 -1.66511 0
M  V30 8476 O 817.145 -7.92137 -1.37016 0
M  V30 8477 H 816.877 -0.529748 -0.419932 0
M  V30 8478 H 819.431 -1.92998 -0.702914 0
M  V30 8479 H 817.661 -2.09171 -3.25245 0
M  V30 8480 H 819.35 -2.50631 -3.19279 0
M  V30 8481 H 820.116 -4.52481 -1.74603 0
M  V30 8482 H 815.995 -3.74319 -2.69085 0
M  V30 8483 H 819.539 -6.8679 -1.22334 0
M  V30 8484 H 815.436 -6.0784 -2.17258 0
M  V30 8485 H 816.204 -8.04492 -1.50782 0
M  V30 8486 N 818.867 0.818669 -1.34668 0
M  V30 8487 C 819.777 1.9616 -1.2868 0
M  V30 8488 C 820.793 1.72918 -0.193742 0
M  V30 8489 O 821.969 1.96951 -0.420975 0
M  V30 8490 C 819.034 3.30534 -1.04633 0
M  V30 8491 C 818.095 3.66755 -2.23136 0
M  V30 8492 C 817.328 4.94717 -2.00227 0
M  V30 8493 O 817.551 5.62218 -0.96264 0
M  V30 8494 O 816.485 5.28915 -2.87286 0
M  V30 8495 H 820.311 2.04157 -2.24842 0
M  V30 8496 H 817.896 0.954691 -1.14917 0
M  V30 8497 H 819.778 4.11005 -0.930216 0
M  V30 8498 H 818.453 3.23495 -0.115139 0
M  V30 8499 H 817.36 2.8671 -2.40308 0
M  V30 8500 H 818.693 3.78484 -3.1466 0
M  V30 8501 N 820.346 1.18468 1.03938 0
M  V30 8502 C 821.592 0.982286 1.77423 0
M  V30 8503 C 821.925 -0.48679 1.88 0
M  V30 8504 O 821.2 -1.36146 1.38905 0
M  V30 8505 C 821.483 1.63929 3.20623 0
M  V30 8506 C 821.336 3.18132 3.17982 0
M  V30 8507 C 822.655 1.3536 4.18767 0
M  V30 8508 H 819.774 0.358264 0.644062 0
M  V30 8509 H 822.416 1.46154 1.21405 0
M  V30 8510 H 820.566 1.2318 3.68455 0
M  V30 8511 H 822.238 3.68024 2.78129 0
M  V30 8512 H 820.481 3.50225 2.55978 0
M  V30 8513 H 821.152 3.5924 4.19107 0
M  V30 8514 H 823.628 1.70669 3.79488 0
M  V30 8515 H 822.504 1.83896 5.17178 0
M  V30 8516 H 822.765 0.276722 4.41233 0
M  V30 8517 N 821.824 -1.22873 0.986916 0
M  V30 8518 C 823.072 -1.91084 0.658121 0
M  V30 8519 C 823.393 -1.77304 -0.811675 0
M  V30 8520 O 822.663 -1.15649 -1.58121 0
M  V30 8521 H 821.243 -0.707251 0.240427 0
M  V30 8522 H 823.905 -1.49357 1.25213 0
M  V30 8523 H 823.001 -2.98373 0.915428 0
M  V30 8524 N 823.302 -0.75937 -1.38099 0
M  V30 8525 C 824.548 -0.318584 -2.00282 0
M  V30 8526 C 824.881 1.09854 -1.60143 0
M  V30 8527 O 824.156 1.75344 -0.841702 0
M  V30 8528 C 824.439 -0.448047 -3.57302 0
M  V30 8529 C 824.292 -1.9067 -4.07388 0
M  V30 8530 C 825.611 0.155119 -4.39827 0
M  V30 8531 H 822.73 -0.117233 -0.727616 0
M  V30 8532 H 825.372 -0.960097 -1.63958 0
M  V30 8533 H 823.522 0.0981003 -3.88376 0
M  V30 8534 H 825.194 -2.5116 -3.86932 0
M  V30 8535 H 823.437 -2.41979 -3.6004 0
M  V30 8536 H 824.108 -1.94841 -5.1647 0
M  V30 8537 H 826.584 -0.31073 -4.14938 0
M  V30 8538 H 825.46 0.0343264 -5.48889 0
M  V30 8539 H 825.721 1.24407 -4.24235 0
M  V30 8540 N 824.78 1.49157 -0.508906 0
M  V30 8541 C 825.727 2.2927 0.265288 0
M  V30 8542 C 826.697 1.3603 0.953162 0
M  V30 8543 O 827.882 1.64989 0.958291 0
M  V30 8544 C 825.022 3.18897 1.31904 0
M  V30 8545 C 824.135 4.27201 0.642144 0
M  V30 8546 C 823.27 5.04033 1.67701 0
M  V30 8547 C 822.309 6.04165 0.982422 0
M  V30 8548 N 821.446 6.74133 1.96186 0
M  V30 8549 H 826.286 2.94967 -0.424107 0
M  V30 8550 H 823.823 1.45431 -0.220991 0
M  V30 8551 H 825.781 3.69242 1.94206 0
M  V30 8552 H 824.411 2.55168 1.97709 0
M  V30 8553 H 823.463 3.80283 -0.0943395 0
M  V30 8554 H 824.775 4.98708 0.0957507 0
M  V30 8555 H 823.929 5.58287 2.37487 0
M  V30 8556 H 822.668 4.32317 2.25728 0
M  V30 8557 H 821.673 5.49135 0.270378 0
M  V30 8558 H 822.898 6.7787 0.408554 0
M  V30 8559 H 820.844 6.05183 2.53159 0
M  V30 8560 H 820.761 7.41643 1.46634 0
M  V30 8561 H 822.029 7.32987 2.65236 0
M  V30 8562 N 826.258 0.243083 1.55714 0
M  V30 8563 C 827.488 -0.38641 2.02954 0
M  V30 8564 C 827.896 -1.52358 1.12177 0
M  V30 8565 O 827.239 -1.83255 0.127853 0
M  V30 8566 C 827.301 -0.959388 3.46462 0
M  V30 8567 C 826.965 0.0450546 4.56978 0
M  V30 8568 C 827.962 0.853224 5.12851 0
M  V30 8569 C 825.647 0.170041 5.02012 0
M  V30 8570 C 827.641 1.77288 6.12248 0
M  V30 8571 C 825.328 1.0932 6.01242 0
M  V30 8572 C 826.326 1.89315 6.56238 0
M  V30 8573 O 826.014 2.80075 7.53534 0
M  V30 8574 H 825.746 -0.0964333 0.669086 0
M  V30 8575 H 828.3 0.363399 2.0216 0
M  V30 8576 H 826.53 -1.75869 3.44394 0
M  V30 8577 H 828.219 -1.49856 3.77224 0
M  V30 8578 H 828.985 0.767229 4.78893 0
M  V30 8579 H 824.864 -0.442528 4.58871 0
M  V30 8580 H 828.408 2.39768 6.55101 0
M  V30 8581 H 824.305 1.18013 6.3462 0
M  V30 8582 H 825.073 2.74393 7.71136 0
M  V30 8583 N 827.736 -1.57571 -0.0300757 0
M  V30 8584 C 828.982 -1.89506 -0.722159 0
M  V30 8585 C 829.315 -0.840699 -1.7506 0
M  V30 8586 O 828.59 0.144358 -1.93964 0
M  V30 8587 C 828.873 -3.32081 -1.39262 0
M  V30 8588 C 828.726 -4.48211 -0.377768 0
M  V30 8589 C 830.045 -3.73557 -2.32687 0
M  V30 8590 H 827.164 -0.689213 -0.261064 0
M  V30 8591 H 829.806 -1.89994 0.0150388 0
M  V30 8592 H 827.956 -3.31796 -2.02098 0
M  V30 8593 H 829.628 -4.6063 0.248591 0
M  V30 8594 H 827.871 -4.3274 0.303045 0
M  V30 8595 H 828.542 -5.44854 -0.885347 0
M  V30 8596 H 831.018 -3.75202 -1.79896 0
M  V30 8597 H 829.894 -4.74125 -2.7658 0
M  V30 8598 H 830.155 -3.05759 -3.19317 0
M  V30 8599 N 829.214 0.302327 -1.54673 0
M  V30 8600 C 830.625 0.875409 -1.64904 0
M  V30 8601 C 830.976 1.88132 -0.55684 0
M  V30 8602 O 830.101 2.14215 0.306754 0
M  V30 8603 C 830.696 1.59457 -2.9893 0
M  V30 8604 C 829.255 2.11607 -3.11287 0
M  V30 8605 C 828.402 0.948324 -2.6058 0
M  V30 8606 H 831.353 0.079362 -1.58501 0
M  V30 8607 H 831.374 2.46005 -2.90279 0
M  V30 8608 H 830.886 0.8622 -3.78402 0
M  V30 8609 H 828.987 2.87895 -2.36532 0
M  V30 8610 H 829.1 2.35151 -4.17422 0
M  V30 8611 H 827.464 1.33352 -2.17001 0
M  V30 8612 H 828.247 0.229936 -3.42529 0
M  V30 8613 N 830.692 1.47107 0.565454 0
M  V30 8614 C 831.602 1.61591 1.70075 0
M  V30 8615 C 832.618 0.498931 1.66693 0
M  V30 8616 O 833.794 0.765372 1.8629 0
M  V30 8617 C 830.859 1.61887 3.06583 0
M  V30 8618 C 829.92 2.84949 3.21096 0
M  V30 8619 C 829.153 2.85221 4.51093 0
M  V30 8620 O 829.376 1.94959 5.36048 0
M  V30 8621 O 828.31 3.76982 4.69221 0
M  V30 8622 H 832.136 2.57638 1.60799 0
M  V30 8623 H 829.721 1.30097 0.73451 0
M  V30 8624 H 831.603 1.64809 3.87835 0
M  V30 8625 H 830.278 0.69005 3.16259 0
M  V30 8626 H 829.185 2.87575 2.39273 0
M  V30 8627 H 830.518 3.77098 3.1632 0
M  V30 8628 N 832.17 -0.811516 1.35101 0
M  V30 8629 C 833.447 -1.55491 1.18667 0
M  V30 8630 C 833.827 -2.09775 -0.236189 0
M  V30 8631 O 833.175 -1.91989 -1.23905 0
M  V30 8632 C 833.385 -2.66732 2.25067 0
M  V30 8633 C 834.733 -3.35201 2.60625 0
M  V30 8634 O 835.757 -2.76998 2.23943 0
M  V30 8635 O 834.616 -4.40334 3.23679 0
M  V30 8636 H 831.71 -0.686783 0.460716 0
M  V30 8637 H 834.256 -0.851903 1.46768 0
M  V30 8638 H 833.028 -2.24457 3.20523 0
M  V30 8639 H 832.651 -3.44673 1.98208 0
M  V30 8640 N 833.648 -1.19017 -1.03309 0
M  V30 8641 C 835.064 -0.941483 -1.28873 0
M  V30 8642 C 835.264 0.388587 -1.97718 0
M  V30 8643 O 834.32 1.12111 -2.26246 0
M  V30 8644 C 835.633 -2.11249 -2.13996 0
M  V30 8645 C 837.181 -2.15164 -2.27318 0
M  V30 8646 C 837.656 -3.31704 -3.15811 0
M  V30 8647 N 839.147 -3.31613 -3.23399 0
M  V30 8648 C 839.882 -4.18431 -3.9205 0
M  V30 8649 N 839.378 -5.15397 -4.62966 0
M  V30 8650 N 841.171 -4.06321 -3.88406 0
M  V30 8651 H 833.322 -2.04599 -0.570343 0
M  V30 8652 H 835.585 -0.894406 -0.314232 0
M  V30 8653 H 835.291 -3.07482 -1.70727 0
M  V30 8654 H 835.165 -2.07955 -3.14697 0
M  V30 8655 H 837.552 -1.19504 -2.6982 0
M  V30 8656 H 837.633 -2.22513 -1.26182 0
M  V30 8657 H 837.277 -4.2764 -2.74019 0
M  V30 8658 H 837.207 -3.21592 -4.16997 0
M  V30 8659 H 839.698 -2.6142 -2.72888 0
M  V30 8660 H 840.011 -5.78 -5.12968 0
M  V30 8661 H 838.356 -5.19349 -4.61846 0
M  V30 8662 H 841.547 -3.29849 -3.3214 0
M  V30 8663 H 841.72 -4.74196 -4.41635 0
M  V30 8664 N 835.127 1.22348 -0.993418 0
M  V30 8665 C 836.538 1.72893 -0.704616 0
M  V30 8666 C 836.889 1.80095 0.778483 0
M  V30 8667 O 836.014 1.4476 1.60853 0
M  V30 8668 C 836.609 3.14 -1.27237 0
M  V30 8669 C 835.168 3.61949 -1.03294 0
M  V30 8670 C 834.315 2.39816 -1.39225 0
M  V30 8671 H 837.266 1.07688 -1.16572 0
M  V30 8672 H 837.287 3.74886 -0.651212 0
M  V30 8673 H 836.799 3.08727 -2.3518 0
M  V30 8674 H 834.9 3.72588 0.0298329 0
M  V30 8675 H 835.013 4.48051 -1.69668 0
M  V30 8676 H 833.377 2.41448 -0.810849 0
M  V30 8677 H 834.16 2.37203 -2.48172 0
M  V30 8678 N 836.605 0.766683 1.37694 0
M  V30 8679 C 837.854 0.325425 1.99057 0
M  V30 8680 C 838.167 -1.10275 1.61551 0
M  V30 8681 O 839.373 -1.64513 2.1598 0
M  V30 8682 C 837.829 0.530886 3.55963 0
M  V30 8683 C 837.437 1.96899 4.02411 0
M  V30 8684 C 839.181 0.152997 4.24224 0
M  V30 8685 C 837.088 2.12232 5.52007 0
M  V30 8686 H 836.018 0.117929 0.744721 0
M  V30 8687 H 838.669 0.945091 1.5729 0
M  V30 8688 H 837.051 -0.158162 3.95684 0
M  V30 8689 H 838.225 2.69258 3.73948 0
M  V30 8690 H 836.54 2.303 3.46916 0
M  V30 8691 H 839.137 0.24614 5.34133 0
M  V30 8692 H 839.48 -0.896096 4.06541 0
M  V30 8693 H 840.013 0.794398 3.89787 0
M  V30 8694 H 836.752 3.15442 5.7461 0
M  V30 8695 H 836.272 1.4435 5.82171 0
M  V30 8696 H 837.951 1.9185 6.17902 0
M  V30 8697 N 838.083 -1.48885 0.516809 0
M  V30 8698 C 839.329 -2.02788 -0.0220928 0
M  V30 8699 C 839.662 -1.39433 -1.35175 0
M  V30 8700 O 838.937 -0.535459 -1.86984 0
M  V30 8701 C 839.22 -3.59753 -0.158012 0
M  V30 8702 C 839.073 -4.33611 1.19588 0
M  V30 8703 C 840.392 -4.30984 -0.891133 0
M  V30 8704 H 837.511 -0.736971 -0.00655488 0
M  V30 8705 H 840.153 -1.77746 0.671287 0
M  V30 8706 H 838.303 -3.8122 -0.748568 0
M  V30 8707 H 839.975 -4.23598 1.82653 0
M  V30 8708 H 838.218 -3.95547 1.78116 0
M  V30 8709 H 838.889 -5.41846 1.05391 0
M  V30 8710 H 841.365 -4.14267 -0.39012 0
M  V30 8711 H 840.241 -5.40527 -0.955107 0
M  V30 8712 H 840.502 -3.97336 -1.93847 0
M  V30 8713 N 839.561 -0.251338 -1.55583 0
M  V30 8714 C 840.807 0.37272 -1.99346 0
M  V30 8715 C 841.14 1.57266 -1.13934 0
M  V30 8716 O 840.415 1.9343 -0.20377 0
M  V30 8717 C 840.698 0.778245 -3.5159 0
M  V30 8718 C 840.551 -0.427394 -4.47765 0
M  V30 8719 C 841.87 1.62358 -4.09057 0
M  V30 8720 H 838.989 0.134002 -0.724715 0
M  V30 8721 H 841.631 -0.353536 -1.86682 0
M  V30 8722 H 839.781 1.39704 -3.62512 0
M  V30 8723 H 841.453 -1.06586 -4.48818 0
M  V30 8724 H 839.696 -1.06972 -4.20404 0
M  V30 8725 H 840.367 -0.10025 -5.51909 0
M  V30 8726 H 842.843 1.1012 -4.01264 0
M  V30 8727 H 841.719 1.87617 -5.1584 0
M  V30 8728 H 841.98 2.59688 -3.57791 0
M  V30 8729 N 841.039 1.57585 0.0217189 0
M  V30 8730 C 842.267 1.93871 0.722619 0
M  V30 8731 C 842.682 0.851706 1.68498 0
M  V30 8732 O 842.039 -0.17127 1.81695 0
M  V30 8733 C 842.09 3.30114 1.47333 0
M  V30 8734 O 841.811 4.34639 0.549597 0
M  V30 8735 C 843.312 3.80727 2.27072 0
M  V30 8736 H 840.532 0.639671 0.202637 0
M  V30 8737 H 843.076 2.04487 -0.0229414 0
M  V30 8738 H 841.231 3.20872 2.17071 0
M  V30 8739 H 841.645 5.13326 1.07686 0
M  V30 8740 H 843.119 4.78547 2.75131 0
M  V30 8741 H 843.596 3.12301 3.08812 0
M  V30 8742 H 844.202 3.93075 1.62395 0
M  V30 8743 N 842.517 -0.29412 1.54831 0
M  V30 8744 C 843.765 -1.02643 1.74094 0
M  V30 8745 C 844.086 -1.87563 0.533402 0
M  V30 8746 O 843.356 -1.9061 -0.452192 0
M  V30 8747 H 841.936 -0.381959 0.641963 0
M  V30 8748 H 844.598 -0.323444 1.92197 0
M  V30 8749 H 843.694 -1.67558 2.63307 0
M  V30 8750 N 843.995 -1.47404 -0.557645 0
M  V30 8751 C 844.958 -1.59411 -1.64684 0
M  V30 8752 C 845.958 -0.469244 -1.53801 0
M  V30 8753 O 847.148 -0.734298 -1.57967 0
M  V30 8754 C 844.28 -1.5382 -3.04224 0
M  V30 8755 H 845.473 -2.56504 -1.55389 0
M  V30 8756 H 843.026 -1.35588 -0.777531 0
M  V30 8757 H 843.761 -0.581 -3.19053 0
M  V30 8758 H 843.546 -2.35456 -3.13533 0
M  V30 8759 H 845.036 -1.65358 -3.83466 0
M  V30 8760 N 845.473 0.80434 -1.35529 0
M  V30 8761 C 846.719 1.56385 -1.29118 0
M  V30 8762 C 847.052 1.9374 0.133536 0
M  V30 8763 O 846.327 1.6153 1.08344 0
M  V30 8764 C 846.61 2.85097 -2.19981 0
M  V30 8765 C 846.463 2.54204 -3.7108 0
M  V30 8766 C 847.782 3.86817 -2.09907 0
M  V30 8767 H 844.901 0.567382 -0.470368 0
M  V30 8768 H 847.543 0.925235 -1.6595 0
M  V30 8769 H 845.693 3.39594 -1.88701 0
M  V30 8770 H 847.365 2.05872 -4.12813 0
M  V30 8771 H 845.608 1.87364 -3.91251 0
M  V30 8772 H 846.279 3.46068 -4.30048 0
M  V30 8773 H 848.755 3.41725 -2.37409 0
M  V30 8774 H 847.631 4.7465 -2.75678 0
M  V30 8775 H 847.892 4.28663 -1.08171 0
M  V30 8776 N 846.951 1.19563 1.02676 0
M  V30 8777 C 848.181 1.0234 1.79472 0
M  V30 8778 C 848.589 -0.430891 1.84228 0
M  V30 8779 O 847.932 -1.31106 1.28674 0
M  V30 8780 C 847.994 1.51901 3.25832 0
M  V30 8781 C 847.658 3.00045 3.44706 0
M  V30 8782 C 848.655 3.9779 3.34752 0
M  V30 8783 C 846.34 3.38784 3.70851 0
M  V30 8784 C 848.334 5.32267 3.50672 0
M  V30 8785 C 846.021 4.73419 3.86416 0
M  V30 8786 C 847.019 5.69969 3.7633 0
M  V30 8787 O 846.707 7.02165 3.91432 0
M  V30 8788 H 846.439 0.360936 0.571578 0
M  V30 8789 H 848.993 1.58863 1.30198 0
M  V30 8790 H 847.223 0.897546 3.7614 0
M  V30 8791 H 848.912 1.30853 3.84229 0
M  V30 8792 H 849.678 3.69207 3.14502 0
M  V30 8793 H 845.557 2.64183 3.77794 0
M  V30 8794 H 849.101 6.07612 3.42715 0
M  V30 8795 H 844.998 5.01697 4.06165 0
M  V30 8796 H 845.766 7.09268 4.08511 0
M  V30 8797 N 848.429 -1.21819 0.999893 0
M  V30 8798 C 849.377 -2.26027 0.549047 0
M  V30 8799 C 850.371 -1.64516 -0.403826 0
M  V30 8800 O 851.577 -1.77878 -0.275578 0
M  V30 8801 H 847.952 -0.734958 0.159185 0
M  V30 8802 H 849.923 -2.61398 1.43923 0
M  V30 8803 C 848.672 -3.47514 -0.11369 0
M  V30 8804 H 847.995 -3.95112 0.610482 0
M  V30 8805 H 849.435 -4.22179 -0.3925 0
M  V30 8806 C 847.894 -3.08614 -1.35126 0
M  V30 8807 O 848.424 -3.1864 -2.44605 0
M  V30 8808 N 846.63 -2.63327 -1.22911 0
M  V30 8809 H 846.177 -2.55369 -0.338288 0
M  V30 8810 H 846.135 -2.37668 -2.05818 0
M  V30 8811 N 849.908 -0.773975 -1.37286 0
M  V30 8812 C 850.838 -0.175782 -2.32837 0
M  V30 8813 C 851.819 0.680603 -1.5589 0
M  V30 8814 O 853.004 0.617607 -1.84117 0
M  V30 8815 C 850.134 0.702388 -3.40123 0
M  V30 8816 C 849.088 -0.0528687 -4.27967 0
M  V30 8817 C 848.414 0.944891 -5.26285 0
M  V30 8818 C 849.714 -1.23316 -5.07534 0
M  V30 8819 H 851.408 -0.974016 -2.83114 0
M  V30 8820 H 848.954 -0.469826 -1.3612 0
M  V30 8821 H 850.907 1.13069 -4.05947 0
M  V30 8822 H 849.631 1.53316 -2.88378 0
M  V30 8823 H 848.29 -0.461978 -3.63678 0
M  V30 8824 H 847.938 1.77028 -4.70819 0
M  V30 8825 H 847.638 0.444079 -5.8592 0
M  V30 8826 H 849.162 1.37209 -5.94984 0
M  V30 8827 H 850.576 -0.881395 -5.66484 0
M  V30 8828 H 848.973 -1.66621 -5.76504 0
M  V30 8829 H 850.043 -2.03617 -4.40077 0
M  V30 8830 N 851.386 1.48609 -0.524698 0
M  V30 8831 C 852.614 2.06899 0.00742946 0
M  V30 8832 C 853.029 1.38196 1.28637 0
M  V30 8833 O 852.386 0.467771 1.76403 0
M  V30 8834 C 852.437 3.60699 0.240548 0
M  V30 8835 O 852.158 4.26821 -0.987715 0
M  V30 8836 C 853.659 4.35769 0.813652 0
M  V30 8837 H 850.879 0.670278 -0.0311294 0
M  V30 8838 H 853.423 1.91071 -0.728832 0
M  V30 8839 H 851.578 3.76149 0.926845 0
M  V30 8840 H 851.992 5.18889 -0.765175 0
M  V30 8841 H 853.466 5.44174 0.926219 0
M  V30 8842 H 853.943 3.9984 1.81728 0
M  V30 8843 H 854.549 4.24983 0.164086 0
M  V30 8844 N 852.864 0.259585 1.55447 0
M  V30 8845 C 853.811 -0.634578 2.21905 0
M  V30 8846 C 854.781 -1.16168 1.18719 0
M  V30 8847 O 855.966 -1.21383 1.4721 0
M  V30 8848 C 853.106 -1.82005 2.93203 0
M  V30 8849 C 852.219 -1.32828 4.11073 0
M  V30 8850 C 851.354 -2.47431 4.70055 0
M  V30 8851 C 850.393 -1.95179 5.80148 0
M  V30 8852 N 849.53 -3.03197 6.33258 0
M  V30 8853 H 854.37 -0.0611886 2.97937 0
M  V30 8854 H 851.907 -0.0184378 1.47088 0
M  V30 8855 H 853.865 -2.51664 3.32748 0
M  V30 8856 H 852.495 -2.36571 2.19622 0
M  V30 8857 H 851.547 -0.525301 3.76756 0
M  V30 8858 H 852.859 -0.905435 4.90513 0
M  V30 8859 H 852.013 -3.25111 5.12238 0
M  V30 8860 H 850.752 -2.93023 3.89857 0
M  V30 8861 H 849.757 -1.15974 5.37429 0
M  V30 8862 H 850.982 -1.50541 6.62204 0
M  V30 8863 H 848.928 -3.48199 5.55961 0
M  V30 8864 H 848.845 -2.65282 7.07928 0
M  V30 8865 H 850.113 -3.80898 6.80101 0
M  V30 8866 N 854.342 -1.57594 -0.0133615 0
M  V30 8867 C 855.57 -1.94251 -0.712328 0
M  V30 8868 C 855.985 -0.86063 -1.68043 0
M  V30 8869 O 855.342 0.161632 -1.81783 0
M  V30 8870 C 855.393 -3.30891 -1.45581 0
M  V30 8871 O 855.114 -4.34924 -0.526539 0
M  V30 8872 C 856.615 -3.81926 -2.2505 0
M  V30 8873 H 853.835 -0.640737 -0.199241 0
M  V30 8874 H 856.379 -2.04472 0.0337855 0
M  V30 8875 H 854.534 -3.22019 -2.15366 0
M  V30 8876 H 854.948 -5.1389 -1.04962 0
M  V30 8877 H 856.422 -4.79999 -2.72589 0
M  V30 8878 H 856.899 -3.13934 -3.07152 0
M  V30 8879 H 857.505 -3.93931 -1.60308 0
M  V30 8880 N 855.82 0.285905 -1.54985 0
M  V30 8881 C 856.768 1.37302 -1.87752 0
M  V30 8882 C 857.762 1.51763 -0.752616 0
M  V30 8883 O 858.968 1.53701 -0.936805 0
M  V30 8884 H 855.343 0.458935 -0.59572 0
M  V30 8885 H 857.314 1.0691 -2.78591 0
M  V30 8886 C 856.063 2.72885 -2.15474 0
M  V30 8887 H 855.386 2.62545 -3.01513 0
M  V30 8888 H 856.826 3.47925 -2.42331 0
M  V30 8889 C 855.285 3.22989 -0.958124 0
M  V30 8890 O 855.815 4.01268 -0.186219 0
M  V30 8891 N 854.021 2.80503 -0.759354 0
M  V30 8892 H 853.568 2.16961 -1.38874 0
M  V30 8893 H 853.526 3.14375 0.0396937 0
M  V30 8894 N 857.298 1.47698 0.54982 0
M  V30 8895 C 858.246 1.61156 1.67724 0
M  V30 8896 C 859.24 0.478606 1.62498 0
M  V30 8897 O 860.446 0.656661 1.67595 0
M  V30 8898 H 856.821 0.507304 0.55511 0
M  V30 8899 H 858.792 2.55884 1.53512 0
M  V30 8900 C 857.541 1.64994 3.06059 0
M  V30 8901 H 856.864 2.51525 3.10765 0
M  V30 8902 H 858.304 1.78459 3.84615 0
M  V30 8903 C 856.763 0.384677 3.34697 0
M  V30 8904 O 857.293 -0.511057 3.98436 0
M  V30 8905 N 855.499 0.262434 2.89413 0
M  V30 8906 H 855.046 0.99229 2.37721 0
M  V30 8907 H 855.004 -0.583177 3.08944 0
M  V30 8908 N 858.776 -0.797141 1.35954 0
M  V30 8909 C 859.706 -1.92387 1.32323 0
M  V30 8910 C 860.687 -1.68967 0.196007 0
M  V30 8911 O 861.872 -1.90193 0.39245 0
M  V30 8912 C 859.002 -3.29286 1.10398 0
M  V30 8913 C 857.956 -3.67212 2.19862 0
M  V30 8914 C 857.282 -5.02377 1.8309 0
M  V30 8915 C 858.582 -3.76602 3.61896 0
M  V30 8916 H 860.276 -1.95683 2.26602 0
M  V30 8917 H 857.822 -0.94007 1.09081 0
M  V30 8918 H 859.775 -4.07721 1.06495 0
M  V30 8919 H 858.499 -3.26358 0.125668 0
M  V30 8920 H 857.158 -2.91069 2.22878 0
M  V30 8921 H 856.806 -4.95961 0.838527 0
M  V30 8922 H 856.506 -5.28722 2.56372 0
M  V30 8923 H 858.03 -5.8324 1.80729 0
M  V30 8924 H 859.444 -4.45246 3.6115 0
M  V30 8925 H 857.841 -4.14425 4.34018 0
M  V30 8926 H 858.911 -2.77906 3.97361 0
M  V30 8927 N 860.254 -1.20106 -1.0204 0
M  V30 8928 C 861.187 -0.889795 -2.10138 0
M  V30 8929 C 862.165 0.156595 -1.61844 0
M  V30 8930 O 863.349 0.0310192 -1.88474 0
M  V30 8931 C 860.476 -0.333227 -3.37057 0
M  V30 8932 C 859.522 -1.36001 -4.04235 0
M  V30 8933 S 860.355 -2.92366 -4.48645 0
M  V30 8934 C 861.511 -2.38274 -5.78771 0
M  V30 8935 H 861.744 -1.80523 -2.36217 0
M  V30 8936 H 859.277 -1.02912 -1.15102 0
M  V30 8937 H 861.235 -0.0186507 -4.10496 0
M  V30 8938 H 859.896 0.560652 -3.09056 0
M  V30 8939 H 859.089 -0.919874 -4.95534 0
M  V30 8940 H 858.691 -1.62186 -3.37004 0
M  V30 8941 H 860.983 -1.77799 -6.53754 0
M  V30 8942 H 861.926 -3.27955 -6.27576 0
M  V30 8943 H 862.334 -1.8054 -5.34851 0
M  V30 8944 N 861.732 1.21287 -1.00634 0
M  V30 8945 C 862.695 2.21927 -0.572821 0
M  V30 8946 C 863.695 1.5691 0.351541 0
M  V30 8947 O 864.885 1.73623 0.141643 0
M  V30 8948 C 862.017 3.40501 0.164932 0
M  V30 8949 H 863.21 2.61795 -1.463 0
M  V30 8950 H 860.763 1.34571 -0.794998 0
M  V30 8951 H 861.498 3.06123 1.07049 0
M  V30 8952 H 861.283 3.88912 -0.498962 0
M  V30 8953 H 862.773 4.15103 0.455945 0
M  V30 8954 N 863.21 0.781244 1.36873 0
M  V30 8955 C 864.487 0.274217 1.93668 0
M  V30 8956 C 864.867 -1.2323 1.71399 0
M  V30 8957 O 864.215 -2.01993 1.06822 0
M  V30 8958 C 864.425 0.657939 3.42742 0
M  V30 8959 C 865.773 0.63307 4.19854 0
M  V30 8960 O 866.797 0.597909 3.51146 0
M  V30 8961 O 865.656 0.668636 5.42394 0
M  V30 8962 H 862.75 0.0658059 0.824378 0
M  V30 8963 H 865.296 0.863238 1.46104 0
M  V30 8964 H 864.068 1.69728 3.52573 0
M  V30 8965 H 863.691 0.0423678 3.97577 0
M  V30 8966 N 864.689 -1.48329 0.532571 0
M  V30 8967 C 866.1 -1.86469 0.0927749 0
M  V30 8968 C 866.451 -1.44186 -1.3306 0
M  V30 8969 O 865.576 -0.833741 -1.99694 0
M  V30 8970 C 866.171 -3.38414 0.161588 0
M  V30 8971 C 864.73 -3.75739 -0.223028 0
M  V30 8972 C 863.877 -2.72377 0.520199 0
M  V30 8973 H 866.828 -1.40197 0.743678 0
M  V30 8974 H 866.849 -3.75314 -0.626059 0
M  V30 8975 H 866.361 -3.69159 1.19765 0
M  V30 8976 H 864.462 -3.50608 -1.26113 0
M  V30 8977 H 864.575 -4.78954 0.118385 0
M  V30 8978 H 862.939 -2.54678 -0.0338425 0
M  V30 8979 H 863.722 -3.05965 1.55694 0
M  V30 8980 N 866.167 -0.267825 -1.55308 0
M  V30 8981 C 867.077 0.633055 -2.25897 0
M  V30 8982 C 868.093 1.17613 -1.28231 0
M  V30 8983 O 869.269 1.20797 -1.61153 0
M  V30 8984 C 866.334 1.80397 -2.96071 0
M  V30 8985 C 865.395 1.29829 -4.09198 0
M  V30 8986 C 864.628 2.4134 -4.76016 0
M  V30 8987 O 864.851 3.60537 -4.42006 0
M  V30 8988 O 863.785 2.09909 -5.64111 0
M  V30 8989 H 867.611 0.0614381 -3.03638 0
M  V30 8990 H 865.196 -0.0355072 -1.49358 0
M  V30 8991 H 867.078 2.48685 -3.40197 0
M  V30 8992 H 865.753 2.36281 -2.21253 0
M  V30 8993 H 864.66 0.582086 -3.69544 0
M  V30 8994 H 865.993 0.785288 -4.85895 0
M  V30 8995 N 867.645 1.57599 0.00500368 0
M  V30 8996 C 868.893 1.89973 0.68953 0
M  V30 8997 C 869.214 0.868531 1.7459 0
M  V30 8998 O 868.484 -0.0947367 1.95671 0
M  V30 8999 H 867.064 0.701153 0.25767 0
M  V30 9000 H 869.726 1.94869 -0.0347392 0
M  V30 9001 H 868.822 2.89584 1.16394 0
M  V30 9002 N 869.123 -0.277682 1.55134 0
M  V30 9003 C 870.348 -1.03254 1.7987 0
M  V30 9004 C 870.773 -1.79324 0.567861 0
M  V30 9005 O 870.131 -1.74764 -0.4824 0
M  V30 9006 C 870.179 -1.9705 3.02 0
M  V30 9007 O 869.283 -3.05744 2.76757 0
M  V30 9008 H 868.624 -0.295447 0.594649 0
M  V30 9009 H 871.154 -0.308013 2.02268 0
M  V30 9010 H 871.164 -2.3909 3.30606 0
M  V30 9011 H 869.839 -1.41094 3.91236 0
M  V30 9012 H 868.416 -2.68052 2.59235 0
M  V30 9013 N 870.601 -1.47988 -0.541979 0
M  V30 9014 C 871.848 -1.55393 -1.29843 0
M  V30 9015 C 872.176 -0.222668 -1.93221 0
M  V30 9016 O 871.431 0.785936 -1.79225 0
M  V30 9017 C 871.73 -2.63189 -2.41798 0
M  V30 9018 C 871.396 -4.05999 -1.96151 0
M  V30 9019 C 870.058 -4.44872 -1.83419 0
M  V30 9020 C 872.41 -4.95545 -1.61507 0
M  V30 9021 C 869.738 -5.71108 -1.34361 0
M  V30 9022 C 872.09 -6.22259 -1.13915 0
M  V30 9023 C 870.754 -6.59998 -0.997911 0
M  V30 9024 H 870.024 -0.568623 -0.47513 0
M  V30 9025 H 872.671 -1.81654 -0.606142 0
M  V30 9026 H 870.976 -2.30743 -3.16647 0
M  V30 9027 H 872.673 -2.66138 -2.99953 0
M  V30 9028 H 869.263 -3.75294 -2.07008 0
M  V30 9029 H 873.447 -4.662 -1.70209 0
M  V30 9030 H 868.703 -5.99083 -1.22103 0
M  V30 9031 H 872.877 -6.91048 -0.861755 0
M  V30 9032 H 870.504 -7.57704 -0.615561 0
M  V30 9033 N 872.079 0.78992 -1.36375 0
M  V30 9034 C 873.326 1.54777 -1.30576 0
M  V30 9035 C 873.654 1.94159 0.115095 0
M  V30 9036 O 872.909 1.62918 1.08426 0
M  V30 9037 C 873.208 2.83698 -2.17371 0
M  V30 9038 C 872.874 2.63457 -3.65925 0
M  V30 9039 C 871.536 2.57645 -4.06415 0
M  V30 9040 C 873.888 2.44833 -4.60115 0
M  V30 9041 C 871.216 2.31174 -5.39236 0
M  V30 9042 C 873.568 2.19889 -5.93154 0
M  V30 9043 C 872.232 2.1251 -6.32768 0
M  V30 9044 H 871.502 0.566371 -0.477813 0
M  V30 9045 H 874.149 0.91138 -1.68422 0
M  V30 9046 H 872.454 3.51802 -1.72459 0
M  V30 9047 H 874.151 3.41487 -2.10209 0
M  V30 9048 H 870.741 2.68836 -3.33804 0
M  V30 9049 H 874.925 2.48325 -4.29707 0
M  V30 9050 H 870.181 2.23942 -5.68911 0
M  V30 9051 H 874.355 2.04473 -6.65705 0
M  V30 9052 H 871.982 1.91761 -7.35616 0
M  V30 9053 N 873.557 1.20646 1.01402 0
M  V30 9054 C 874.782 1.04462 1.79172 0
M  V30 9055 C 875.207 -0.401588 1.83763 0
M  V30 9056 O 874.565 -1.28934 1.27459 0
M  V30 9057 C 874.613 1.63583 3.21361 0
M  V30 9058 O 873.717 0.875198 4.03006 0
M  V30 9059 H 873.058 0.368235 0.552539 0
M  V30 9060 H 875.588 1.59994 1.27526 0
M  V30 9061 H 875.598 1.67426 3.72065 0
M  V30 9062 H 874.273 2.68835 3.17334 0
M  V30 9063 H 872.85 0.911172 3.61597 0
M  V30 9064 N 875.035 -1.20752 1.01276 0
M  V30 9065 C 876.281 -1.90302 0.700924 0
M  V30 9066 C 876.614 -1.78406 -0.767142 0
M  V30 9067 O 875.889 -1.16575 -1.55694 0
M  V30 9068 C 876.172 -3.41831 1.13242 0
M  V30 9069 C 876.025 -3.6268 2.66051 0
M  V30 9070 C 877.344 -4.34486 0.700738 0
M  V30 9071 H 874.463 -0.69107 0.256107 0
M  V30 9072 H 877.105 -1.42227 1.25982 0
M  V30 9073 H 875.255 -3.82906 0.656902 0
M  V30 9074 H 876.927 -3.30882 3.21426 0
M  V30 9075 H 875.17 -3.06281 3.07204 0
M  V30 9076 H 875.841 -4.68882 2.91296 0
M  V30 9077 H 878.317 -4.01036 1.10948 0
M  V30 9078 H 877.193 -5.39136 1.03073 0
M  V30 9079 H 877.454 -4.40307 -0.39778 0
M  V30 9080 N 876.513 -0.788492 -1.36457 0
M  V30 9081 C 877.423 -0.187385 -2.3385 0
M  V30 9082 C 878.439 0.659984 -1.60998 0
M  V30 9083 O 879.615 0.575986 -1.92988 0
M  V30 9084 C 876.68 0.668525 -3.40194 0
M  V30 9085 C 875.741 -0.197234 -4.28847 0
M  V30 9086 C 874.974 0.61792 -5.30111 0
M  V30 9087 O 875.197 1.85396 -5.3943 0
M  V30 9088 O 874.131 0.0183016 -6.01897 0
M  V30 9089 H 877.957 -0.992617 -2.87021 0
M  V30 9090 H 875.542 -0.549934 -1.3891 0
M  V30 9091 H 877.424 1.15663 -4.05216 0
M  V30 9092 H 876.099 1.45166 -2.89324 0
M  V30 9093 H 875.006 -0.73207 -3.66867 0
M  V30 9094 H 876.339 -0.943863 -4.83065 0
M  V30 9095 N 877.991 1.48044 -0.54043 0
M  V30 9096 C 879.239 2.02097 -0.0101367 0
M  V30 9097 C 879.56 1.41881 1.33771 0
M  V30 9098 O 878.83 0.587923 1.8687 0
M  V30 9099 H 877.41 0.747 -0.000758716 0
M  V30 9100 H 880.072 1.81639 -0.706634 0
M  V30 9101 H 879.168 3.11969 0.0904474 0
M  V30 9102 N 879.47 0.276058 1.55163 0
M  V30 9103 C 880.718 -0.339782 1.99223 0
M  V30 9104 C 881.039 -1.56307 1.16589 0
M  V30 9105 O 880.309 -1.94225 0.25564 0
M  V30 9106 H 878.889 -0.128534 0.735859 0
M  V30 9107 H 881.551 0.381612 1.91128 0
M  V30 9108 H 880.647 -0.629 3.05696 0
M  V30 9109 N 880.948 -1.576 0.00335426 0
M  V30 9110 C 881.858 -2.12067 -1.00322 0
M  V30 9111 C 882.874 -1.06672 -1.37467 0
M  V30 9112 O 884.05 -1.38592 -1.46131 0
M  V30 9113 C 881.115 -2.61593 -2.27531 0
M  V30 9114 C 880.176 -3.81602 -1.96668 0
M  V30 9115 C 879.409 -4.28756 -3.17811 0
M  V30 9116 O 879.632 -3.75222 -4.2961 0
M  V30 9117 O 878.566 -5.20877 -3.01613 0
M  V30 9118 H 882.392 -2.98299 -0.570199 0
M  V30 9119 H 879.977 -1.47835 -0.215682 0
M  V30 9120 H 881.859 -2.93631 -3.02256 0
M  V30 9121 H 880.534 -1.78457 -2.70065 0
M  V30 9122 H 879.441 -3.54531 -1.19408 0
M  V30 9123 H 880.774 -4.65822 -1.58968 0
M  V30 9124 N 882.426 0.269451 -1.5528 0
M  V30 9125 C 883.675 0.998381 -1.75258 0
M  V30 9126 C 883.988 1.87321 -0.563034 0
M  V30 9127 O 885.194 2.63719 -0.645313 0
M  V30 9128 C 883.65 1.82505 -3.10193 0
M  V30 9129 C 883.258 0.99871 -4.36726 0
M  V30 9130 C 885.002 2.54807 -3.3952 0
M  V30 9131 C 882.909 1.81997 -5.627 0
M  V30 9132 H 881.839 0.376488 -0.653278 0
M  V30 9133 H 884.49 0.253909 -1.81735 0
M  V30 9134 H 882.872 2.61061 -2.97763 0
M  V30 9135 H 884.046 0.257064 -4.60082 0
M  V30 9136 H 882.361 0.390074 -4.14569 0
M  V30 9137 H 884.958 3.16662 -4.30847 0
M  V30 9138 H 885.301 3.25273 -2.59813 0
M  V30 9139 H 885.834 1.83278 -3.53064 0
M  V30 9140 H 882.573 1.15945 -6.45164 0
M  V30 9141 H 882.093 2.53749 -5.43481 0
M  V30 9142 H 883.772 2.39274 -6.0113 0
M  V30 9143 N 883.904 1.48273 0.534124 0
M  V30 9144 C 885.32 1.34302 0.862272 0
M  V30 9145 C 885.52 0.350902 1.98421 0
M  V30 9146 O 884.576 -0.229364 2.51456 0
M  V30 9147 C 885.889 2.74227 1.23371 0
M  V30 9148 C 887.437 2.82684 1.34383 0
M  V30 9149 C 887.912 4.23301 1.74871 0
M  V30 9150 N 889.403 4.25954 1.81981 0
M  V30 9151 C 890.138 5.31693 2.14686 0
M  V30 9152 N 889.634 6.47714 2.45844 0
M  V30 9153 N 891.427 5.19084 2.15657 0
M  V30 9154 H 883.578 2.11397 -0.206215 0
M  V30 9155 H 885.841 0.947537 -0.0296116 0
M  V30 9156 H 885.547 3.48368 0.482967 0
M  V30 9157 H 885.421 3.07485 2.18478 0
M  V30 9158 H 887.808 2.08801 2.08534 0
M  V30 9159 H 887.889 2.5305 0.374063 0
M  V30 9160 H 887.533 4.97699 1.01282 0
M  V30 9161 H 887.463 4.50376 2.7289 0
M  V30 9162 H 889.954 3.42266 1.60196 0
M  V30 9163 H 890.267 7.2414 2.69892 0
M  V30 9164 H 888.612 6.50995 2.43372 0
M  V30 9165 H 891.803 4.27463 1.9077 0
M  V30 9166 H 891.976 6.01592 2.40813 0
M  V30 9167 N 885.382 -0.782676 1.36792 0
M  V30 9168 C 886.345 -1.8772 1.31507 0
M  V30 9169 C 887.345 -1.59269 0.221349 0
M  V30 9170 O 888.535 -1.67555 0.476544 0
M  V30 9171 C 885.667 -3.24641 1.04025 0
M  V30 9172 H 886.86 -1.9382 2.28853 0
M  V30 9173 H 884.413 -0.981226 1.21662 0
M  V30 9174 H 885.148 -3.24221 0.0716439 0
M  V30 9175 H 884.933 -3.46681 1.8318 0
M  V30 9176 H 886.423 -4.04711 1.02949 0
M  V30 9177 N 886.86 -1.21182 -1.00761 0
M  V30 9178 C 888.276 -0.968607 -1.26847 0
M  V30 9179 C 888.476 0.346561 -1.98497 0
M  V30 9180 O 887.532 1.07287 -2.28573 0
M  V30 9181 C 888.845 -2.1574 -2.09467 0
M  V30 9182 C 890.393 -2.19937 -2.22703 0
M  V30 9183 C 890.868 -3.38328 -3.08704 0
M  V30 9184 N 892.359 -3.38398 -3.16293 0
M  V30 9185 C 893.094 -4.26653 -3.83086 0
M  V30 9186 N 892.59 -5.25101 -4.5193 0
M  V30 9187 N 894.383 -4.14469 -3.797 0
M  V30 9188 H 886.534 -2.05763 -0.526816 0
M  V30 9189 H 888.797 -0.90087 -0.29519 0
M  V30 9190 H 888.503 -3.11034 -1.64167 0
M  V30 9191 H 888.377 -2.14584 -3.10216 0
M  V30 9192 H 890.764 -1.25201 -2.67224 0
M  V30 9193 H 890.845 -2.25139 -1.21433 0
M  V30 9194 H 890.489 -4.33356 -2.64886 0
M  V30 9195 H 890.419 -3.30364 -4.10082 0
M  V30 9196 H 892.91 -2.67149 -2.67282 0
M  V30 9197 H 893.223 -5.8875 -5.00592 0
M  V30 9198 H 891.568 -5.29029 -4.50726 0
M  V30 9199 H 894.759 -3.3682 -3.25069 0
M  V30 9200 H 894.932 -4.83458 -4.31477 0
M  V30 9201 N 888.338 1.20213 -1.01915 0
M  V30 9202 C 889.586 1.89272 -0.708552 0
M  V30 9203 C 889.907 1.79394 0.76438 0
M  V30 9204 O 889.177 1.198 1.54999 0
M  V30 9205 H 887.757 0.700628 -0.259094 0
M  V30 9206 H 890.419 1.45985 -1.29129 0
M  V30 9207 H 889.515 2.95841 -0.994215 0
M  V30 9208 N 889.816 0.795718 1.36037 0
M  V30 9209 C 891.062 0.371574 1.99367 0
M  V30 9210 C 891.395 -1.0557 1.62999 0
M  V30 9211 O 890.67 -1.73051 0.887895 0
M  V30 9212 C 890.953 0.542622 3.55988 0
M  V30 9213 C 890.806 2.01404 4.0219 0
M  V30 9214 C 892.125 -0.0384527 4.40083 0
M  V30 9215 H 889.244 0.136483 0.724252 0
M  V30 9216 H 891.886 1.00323 1.61355 0
M  V30 9217 H 890.036 0.0049053 3.885 0
M  V30 9218 H 891.708 2.6133 3.80137 0
M  V30 9219 H 889.951 2.51439 3.53498 0
M  V30 9220 H 890.622 2.08466 5.11122 0
M  V30 9221 H 893.098 0.420634 4.13968 0
M  V30 9222 H 891.974 0.111214 5.48787 0
M  V30 9223 H 892.235 -1.13116 4.27384 0
M  V30 9224 N 891.294 -1.47756 0.548274 0
M  V30 9225 C 892.204 -2.33678 -0.207773 0
M  V30 9226 C 893.22 -1.47636 -0.920843 0
M  V30 9227 O 894.396 -1.80583 -0.89173 0
M  V30 9228 C 891.461 -3.24147 -1.23003 0
M  V30 9229 C 890.522 -4.26073 -0.52535 0
M  V30 9230 C 889.755 -5.12219 -1.4989 0
M  V30 9231 O 889.978 -5.0066 -2.73305 0
M  V30 9232 O 888.912 -5.93051 -1.02828 0
M  V30 9233 H 892.738 -2.99609 0.496794 0
M  V30 9234 H 890.323 -1.4617 0.308982 0
M  V30 9235 H 892.205 -3.80055 -1.82034 0
M  V30 9236 H 890.88 -2.60855 -1.91668 0
M  V30 9237 H 889.787 -3.7395 0.105927 0
M  V30 9238 H 891.12 -4.92054 0.119686 0
M  V30 9239 N 892.772 -0.284283 -1.55015 0
M  V30 9240 C 894.021 0.33055 -1.98973 0
M  V30 9241 C 894.334 1.56284 -1.17621 0
M  V30 9242 O 895.54 2.2512 -1.51767 0
M  V30 9243 C 893.996 0.639457 -3.54174 0
M  V30 9244 C 893.604 -0.573543 -4.44313 0
M  V30 9245 C 895.348 1.21641 -4.06699 0
M  V30 9246 C 893.255 -0.238715 -5.90918 0
M  V30 9247 H 892.185 0.127285 -0.743179 0
M  V30 9248 H 894.836 -0.390372 -1.793 0
M  V30 9249 H 893.218 1.41953 -3.69683 0
M  V30 9250 H 894.392 -1.3502 -4.40575 0
M  V30 9251 H 892.707 -1.06797 -4.02472 0
M  V30 9252 H 895.304 1.48088 -5.13784 0
M  V30 9253 H 895.647 2.15328 -3.56286 0
M  V30 9254 H 896.18 0.498422 -3.94665 0
M  V30 9255 H 892.919 -1.1437 -6.45445 0
M  V30 9256 H 892.439 0.500997 -5.97704 0
M  V30 9257 H 894.118 0.165774 -6.46788 0
M  V30 9258 N 894.251 1.57596 -0.0117121 0
M  V30 9259 C 895.161 2.12596 0.991964 0
M  V30 9260 C 896.177 1.07399 1.36899 0
M  V30 9261 O 897.353 1.39365 1.45394 0
M  V30 9262 C 894.418 2.62796 2.2614 0
M  V30 9263 C 893.479 3.8264 1.94642 0
M  V30 9264 C 892.712 4.30435 3.15533 0
M  V30 9265 O 892.935 3.77495 4.27614 0
M  V30 9266 O 891.869 5.22469 2.98847 0
M  V30 9267 H 895.695 2.98597 0.554371 0
M  V30 9268 H 893.28 1.47947 0.207839 0
M  V30 9269 H 895.162 2.9523 3.00695 0
M  V30 9270 H 893.837 1.79886 2.69114 0
M  V30 9271 H 892.744 3.5516 1.17526 0
M  V30 9272 H 894.077 4.66658 1.56496 0
M  V30 9273 N 895.729 -0.261212 1.5542 0
M  V30 9274 C 896.692 -1.30645 1.8832 0
M  V30 9275 C 897.692 -1.41782 0.758588 0
M  V30 9276 O 898.882 -1.40729 1.02669 0
M  V30 9277 C 896.014 -2.6862 2.09895 0
M  V30 9278 H 897.207 -1.02698 2.81768 0
M  V30 9279 H 894.76 -0.499838 1.48092 0
M  V30 9280 H 895.495 -3.0173 1.18868 0
M  V30 9281 H 895.28 -2.61921 2.91787 0
M  V30 9282 H 896.77 -3.44121 2.36581 0
M  V30 9283 N 897.207 -1.48554 -0.526253 0
M  V30 9284 C 898.154 -1.63354 -1.63046 0
M  V30 9285 C 899.124 -0.475509 -1.59148 0
M  V30 9286 O 900.309 -0.699453 -1.77517 0
M  V30 9287 C 897.449 -1.68271 -3.01295 0
M  V30 9288 C 896.562 -2.95207 -3.15399 0
M  V30 9289 C 895.697 -2.91262 -4.4423 0
M  V30 9290 C 894.736 -4.12886 -4.51876 0
M  V30 9291 N 893.873 -4.06996 -5.721 0
M  V30 9292 H 898.713 -2.57649 -1.49737 0
M  V30 9293 H 896.25 -1.27769 -0.728938 0
M  V30 9294 H 898.208 -1.69104 -3.81392 0
M  V30 9295 H 896.838 -0.774641 -3.13367 0
M  V30 9296 H 895.89 -3.04102 -2.2853 0
M  V30 9297 H 897.202 -3.85187 -3.1691 0
M  V30 9298 H 896.356 -2.90516 -5.32621 0
M  V30 9299 H 895.095 -1.99016 -4.45246 0
M  V30 9300 H 894.1 -4.13902 -3.61891 0
M  V30 9301 H 895.325 -5.06294 -4.52596 0
M  V30 9302 H 893.271 -3.17573 -5.74006 0
M  V30 9303 H 893.188 -4.90685 -5.75121 0
M  V30 9304 H 894.456 -4.10315 -6.62768 0
M  V30 9305 N 898.685 0.775411 -1.37205 0
M  V30 9306 C 899.648 1.8702 -1.325 0
M  V30 9307 C 900.648 1.5915 -0.229793 0
M  V30 9308 O 901.838 1.673 -0.485423 0
M  V30 9309 C 898.97 3.24085 -1.05745 0
M  V30 9310 H 900.163 1.92604 -2.29878 0
M  V30 9311 H 897.716 0.97476 -1.22181 0
M  V30 9312 H 898.451 3.24178 -0.0888371 0
M  V30 9313 H 898.236 3.45705 -1.85016 0
M  V30 9314 H 899.726 4.0416 -1.05094 0
M  V30 9315 N 900.163 1.21714 1.00117 0
M  V30 9316 C 901.126 0.981338 2.07129 0
M  V30 9317 C 902.126 -0.0491116 1.60725 0
M  V30 9318 O 903.316 0.188555 1.73177 0
M  V30 9319 C 900.448 0.480608 3.37495 0
M  V30 9320 H 901.641 1.93075 2.29482 0
M  V30 9321 H 899.194 1.03467 1.17151 0
M  V30 9322 H 899.929 -0.473552 3.20824 0
M  V30 9323 H 899.714 1.22393 3.72508 0
M  V30 9324 H 901.204 0.33561 4.16249 0
M  V30 9325 N 901.641 -1.19671 1.02551 0
M  V30 9326 C 902.571 -2.25009 0.623965 0
M  V30 9327 C 903.552 -1.66129 -0.36538 0
M  V30 9328 O 904.737 -1.92599 -0.248842 0
M  V30 9329 C 901.867 -3.47287 -0.0294869 0
M  V30 9330 C 900.821 -4.18818 0.881781 0
M  V30 9331 C 900.147 -5.34618 0.0936189 0
M  V30 9332 C 901.447 -4.73986 2.19396 0
M  V30 9333 H 903.141 -2.58851 1.50454 0
M  V30 9334 H 900.687 -1.24425 0.724872 0
M  V30 9335 H 902.64 -4.20168 -0.322016 0
M  V30 9336 H 901.364 -3.12635 -0.944838 0
M  V30 9337 H 900.023 -3.47815 1.15845 0
M  V30 9338 H 899.671 -4.9621 -0.823661 0
M  V30 9339 H 899.371 -5.83409 0.700568 0
M  V30 9340 H 900.895 -6.10297 -0.192249 0
M  V30 9341 H 902.309 -5.38639 1.96319 0
M  V30 9342 H 900.706 -5.3325 2.75254 0
M  V30 9343 H 901.776 -3.92238 2.85092 0
M  V30 9344 N 903.119 -0.802921 -1.35613 0
M  V30 9345 C 904.344 -0.392846 -2.03645 0
M  V30 9346 C 904.769 0.987075 -1.6012 0
M  V30 9347 O 904.127 1.63849 -0.776101 0
M  V30 9348 C 904.175 -0.480208 -3.57388 0
M  V30 9349 O 903.279 0.507751 -4.09262 0
M  V30 9350 H 902.62 -0.16464 -0.643265 0
M  V30 9351 H 905.15 -1.08779 -1.73287 0
M  V30 9352 H 905.16 -0.348683 -4.06507 0
M  V30 9353 H 903.835 -1.48675 -3.88418 0
M  V30 9354 H 902.412 0.336769 -3.71376 0
M  V30 9355 N 904.597 1.47463 -0.556102 0
M  V30 9356 C 905.56 2.28478 0.181743 0
M  V30 9357 C 906.56 1.36886 0.843738 0
M  V30 9358 O 907.75 1.59527 0.69977 0
M  V30 9359 C 904.882 3.16534 1.26566 0
M  V30 9360 H 906.075 2.95182 -0.529892 0
M  V30 9361 H 903.628 1.53134 -0.313005 0
M  V30 9362 H 904.363 2.5452 2.00973 0
M  V30 9363 H 904.148 3.83939 0.795798 0
M  V30 9364 H 905.638 3.77579 1.78393 0
M  V30 9365 N 906.075 0.2925 1.54862 0
M  V30 9366 C 907.3 -0.32494 2.04839 0
M  V30 9367 C 907.725 -1.47381 1.16877 0
M  V30 9368 O 907.083 -1.80492 0.171028 0
M  V30 9369 C 907.131 -0.76694 3.5235 0
M  V30 9370 O 906.235 -1.87256 3.67436 0
M  V30 9371 H 905.576 -0.0645195 0.660858 0
M  V30 9372 H 908.106 0.431867 1.9999 0
M  V30 9373 H 908.116 -1.05804 3.94043 0
M  V30 9374 H 906.791 0.0735212 4.15835 0
M  V30 9375 H 905.368 -1.58266 3.37648 0
M  V30 9376 N 907.553 -1.57587 0.0200696 0
M  V30 9377 C 908.799 -1.91708 -0.661503 0
M  V30 9378 C 909.132 -0.895968 -1.72296 0
M  V30 9379 O 908.407 0.082577 -1.94325 0
M  V30 9380 C 908.69 -3.36344 -1.28627 0
M  V30 9381 C 908.543 -4.49186 -0.234982 0
M  V30 9382 C 909.862 -3.80771 -2.20685 0
M  V30 9383 H 906.981 -0.69717 -0.239005 0
M  V30 9384 H 909.623 -1.8985 0.0754764 0
M  V30 9385 H 907.773 -3.38058 -1.91439 0
M  V30 9386 H 909.445 -4.59606 0.395011 0
M  V30 9387 H 907.688 -4.31557 0.440565 0
M  V30 9388 H 908.359 -5.47395 -0.711558 0
M  V30 9389 H 910.835 -3.80735 -1.67868 0
M  V30 9390 H 909.711 -4.82685 -2.61356 0
M  V30 9391 H 909.972 -3.15764 -3.09428 0
M  V30 9392 N 909.032 0.252966 -1.55557 0
M  V30 9393 C 909.98 1.33289 -1.90622 0
M  V30 9394 C 910.974 1.50133 -0.784638 0
M  V30 9395 O 912.18 1.51679 -0.969196 0
M  V30 9396 H 908.555 0.446196 -0.605321 0
M  V30 9397 H 910.526 1.00977 -2.80796 0
M  V30 9398 C 909.275 2.68254 -2.21213 0
M  V30 9399 H 908.598 2.5609 -3.07014 0
M  V30 9400 H 910.038 3.42707 -2.49656 0
M  V30 9401 C 908.497 3.20884 -1.02642 0
M  V30 9402 O 909.027 4.00783 -0.271292 0
M  V30 9403 N 907.233 2.7883 -0.818682 0
M  V30 9404 H 906.78 2.13966 -1.43444 0
M  V30 9405 H 906.738 3.14388 -0.0269989 0
M  V30 9406 N 910.51 1.48831 0.518367 0
M  V30 9407 C 911.756 1.57672 1.27543 0
M  V30 9408 C 912.089 0.254915 1.9252 0
M  V30 9409 O 911.364 -0.740107 1.79868 0
M  V30 9410 C 911.647 2.72345 2.35585 0
M  V30 9411 C 911.5 4.14267 1.75224 0
M  V30 9412 C 912.819 2.82726 3.37274 0
M  V30 9413 H 909.938 0.573926 0.462361 0
M  V30 9414 H 912.58 1.8105 0.576267 0
M  V30 9415 H 910.73 2.52543 2.95219 0
M  V30 9416 H 912.402 4.45539 1.19551 0
M  V30 9417 H 910.645 4.20724 1.05706 0
M  V30 9418 H 911.316 4.90345 2.53507 0
M  V30 9419 H 913.792 3.00699 2.8761 0
M  V30 9420 H 912.668 3.6467 4.10252 0
M  V30 9421 H 912.929 1.9136 3.9854 0
M  V30 9422 N 911.988 -0.768124 1.37614 0
M  V30 9423 C 913.234 -1.52907 1.33219 0
M  V30 9424 C 913.567 -1.94026 -0.0821218 0
M  V30 9425 O 912.842 -1.64345 -1.04023 0
M  V30 9426 C 913.125 -2.79164 2.27463 0
M  V30 9427 C 912.978 -2.44276 3.7769 0
M  V30 9428 C 914.297 -3.81115 2.20089 0
M  V30 9429 H 911.416 -0.554712 0.485246 0
M  V30 9430 H 914.058 -0.880911 1.68345 0
M  V30 9431 H 912.208 -3.34472 1.97639 0
M  V30 9432 H 913.88 -1.94855 4.18126 0
M  V30 9433 H 912.123 -1.76925 3.96081 0
M  V30 9434 H 912.794 -3.34544 4.39072 0
M  V30 9435 H 915.27 -3.35311 2.46386 0
M  V30 9436 H 914.146 -4.67174 2.88166 0
M  V30 9437 H 914.407 -4.25644 1.19498 0
M  V30 9438 N 913.466 -1.22244 -0.994698 0
M  V30 9439 C 914.714 -1.04384 -1.73056 0
M  V30 9440 C 915.035 0.422204 -1.90374 0
M  V30 9441 O 914.305 1.30383 -1.46209 0
M  V30 9442 H 912.885 -0.383263 -0.641185 0
M  V30 9443 H 915.547 -1.53725 -1.1981 0
M  V30 9444 H 914.643 -1.52021 -2.72573 0
M  V30 9445 N 914.944 1.19125 -1.03184 0
M  V30 9446 C 916.169 1.93379 -0.749628 0
M  V30 9447 C 916.594 1.75153 0.685785 0
M  V30 9448 O 915.952 1.05579 1.47386 0
M  V30 9449 C 916 3.43101 -1.1097 0
M  V30 9450 O 915.104 4.11758 -0.230053 0
M  V30 9451 H 914.445 0.603605 -0.276689 0
M  V30 9452 H 916.975 1.51116 -1.37931 0
M  V30 9453 H 916.985 3.93778 -1.06785 0
M  V30 9454 H 915.66 3.55688 -2.15544 0
M  V30 9455 H 914.237 3.7143 -0.330748 0
M  V30 9456 N 916.422 0.810101 1.35185 0
M  V30 9457 C 917.652 0.404109 2.02609 0
M  V30 9458 C 918.06 -0.990748 1.61186 0
M  V30 9459 O 917.403 -1.65038 0.80674 0
M  V30 9460 C 917.465 0.412047 3.57131 0
M  V30 9461 C 917.129 1.75802 4.21832 0
M  V30 9462 C 918.126 2.71687 4.43263 0
M  V30 9463 C 915.811 2.04299 4.58876 0
M  V30 9464 C 917.805 3.9425 5.00845 0
M  V30 9465 C 915.492 3.27125 5.16171 0
M  V30 9466 C 916.49 4.21918 5.37098 0
M  V30 9467 O 916.178 5.42576 5.93184 0
M  V30 9468 H 915.91 0.161914 0.656323 0
M  V30 9469 H 918.464 1.09605 1.73712 0
M  V30 9470 H 916.694 -0.336509 3.85233 0
M  V30 9471 H 918.383 0.0278817 4.0589 0
M  V30 9472 H 919.149 2.50964 4.15021 0
M  V30 9473 H 915.028 1.31324 4.41899 0
M  V30 9474 H 918.572 4.68251 5.17094 0
M  V30 9475 H 914.469 3.47718 5.43841 0
M  V30 9476 H 915.237 5.43921 6.11631 0
M  V30 9477 N 917.9 -1.47166 0.563914 0
M  V30 9478 C 919.128 -2.06846 0.0474287 0
M  V30 9479 C 919.543 -1.41557 -1.24928 0
M  V30 9480 O 918.9 -0.514376 -1.75101 0
M  V30 9481 C 918.951 -3.6121 -0.144831 0
M  V30 9482 O 918.672 -4.24052 1.10053 0
M  V30 9483 C 920.173 -4.37773 -0.69783 0
M  V30 9484 H 917.393 -0.669217 0.0488896 0
M  V30 9485 H 919.937 -1.89072 0.779235 0
M  V30 9486 H 918.092 -3.78474 -0.82679 0
M  V30 9487 H 918.506 -5.16677 0.902481 0
M  V30 9488 H 919.98 -5.46438 -0.781616 0
M  V30 9489 H 920.457 -4.04517 -1.71063 0
M  V30 9490 H 921.063 -4.25269 -0.0513516 0
M  V30 9491 N 919.378 -0.300708 -1.54705 0
M  V30 9492 C 920.608 0.310819 -2.04249 0
M  V30 9493 C 921.016 1.4809 -1.17754 0
M  V30 9494 O 920.359 1.82654 -0.195779 0
M  V30 9495 C 920.421 0.83014 -3.49784 0
M  V30 9496 C 920.085 -0.214628 -4.56496 0
M  V30 9497 C 921.082 -1.04298 -5.09331 0
M  V30 9498 C 918.767 -0.356242 -5.01035 0
M  V30 9499 C 920.761 -1.99889 -6.05246 0
M  V30 9500 C 918.448 -1.3156 -5.96771 0
M  V30 9501 C 919.446 -2.1354 -6.4876 0
M  V30 9502 O 919.134 -3.07849 -7.4262 0
M  V30 9503 H 918.866 0.0715341 -0.672204 0
M  V30 9504 H 921.42 -0.438179 -2.00672 0
M  V30 9505 H 919.65 1.62966 -3.50684 0
M  V30 9506 H 921.339 1.35752 -3.82526 0
M  V30 9507 H 922.105 -0.944439 -4.75716 0
M  V30 9508 H 917.984 0.271916 -4.60197 0
M  V30 9509 H 921.528 -2.63917 -6.45751 0
M  V30 9510 H 917.425 -1.41486 -6.29803 0
M  V30 9511 H 918.193 -3.02824 -7.60421 0
M  V30 9512 N 920.856 1.57574 -0.0284266 0
M  V30 9513 C 922.084 1.96071 0.660575 0
M  V30 9514 C 922.499 0.904881 1.65703 0
M  V30 9515 O 921.856 -0.113379 1.82147 0
M  V30 9516 C 921.907 3.34634 1.36756 0
M  V30 9517 O 921.628 4.36167 0.411041 0
M  V30 9518 C 923.129 3.87758 2.14845 0
M  V30 9519 H 920.349 0.645794 0.182183 0
M  V30 9520 H 922.893 2.04311 -0.0879858 0
M  V30 9521 H 921.048 3.27616 2.06753 0
M  V30 9522 H 921.462 5.16493 0.913 0
M  V30 9523 H 922.936 4.87058 2.59767 0
M  V30 9524 H 923.413 3.21967 2.9872 0
M  V30 9525 H 924.019 3.98043 1.49807 0
M  V30 9526 N 922.334 -0.244713 1.55689 0
M  V30 9527 C 923.611 -0.995407 1.68378 0
M  V30 9528 C 923.991 -2.03288 0.568949 0
M  V30 9529 O 923.339 -2.24469 -0.427299 0
M  V30 9530 C 923.549 -1.62678 3.08767 0
M  V30 9531 C 924.897 -2.1278 3.67437 0
M  V30 9532 O 925.921 -1.72614 3.11581 0
M  V30 9533 O 924.78 -2.86536 4.65359 0
M  V30 9534 H 921.874 -0.463476 0.684923 0
M  V30 9535 H 924.42 -0.238326 1.68018 0
M  V30 9536 H 923.192 -0.876469 3.81358 0
M  V30 9537 H 922.815 -2.45 3.13146 0
M  V30 9538 N 923.813 -1.49104 -0.510467 0
M  V30 9539 C 924.776 -1.64569 -1.59529 0
M  V30 9540 C 925.776 -0.517937 -1.5223 0
M  V30 9541 O 926.966 -0.784183 -1.55551 0
M  V30 9542 C 924.098 -1.6342 -2.99177 0
M  V30 9543 H 925.291 -2.61318 -1.4715 0
M  V30 9544 H 922.844 -1.37993 -0.734001 0
M  V30 9545 H 923.579 -0.68221 -3.17043 0
M  V30 9546 H 923.364 -2.45312 -3.05883 0
M  V30 9547 H 924.854 -1.77474 -3.78011 0
M  V30 9548 N 925.291 0.760815 -1.38019 0
M  V30 9549 C 926.201 1.90526 -1.36884 0
M  V30 9550 C 927.217 1.71941 -0.266908 0
M  V30 9551 O 928.393 1.94988 -0.50413 0
M  V30 9552 C 925.458 3.25799 -1.18558 0
M  V30 9553 C 924.519 3.56961 -2.3849 0
M  V30 9554 C 923.752 4.8578 -2.21029 0
M  V30 9555 O 923.975 5.57629 -1.20023 0
M  V30 9556 O 922.909 5.16254 -3.0946 0
M  V30 9557 H 926.735 1.94437 -2.33298 0
M  V30 9558 H 924.32 0.905091 -1.18863 0
M  V30 9559 H 926.202 4.0669 -1.1037 0
M  V30 9560 H 924.877 3.22716 -0.252241 0
M  V30 9561 H 923.784 2.7626 -2.52252 0
M  V30 9562 H 925.117 3.64798 -3.30429 0
M  V30 9563 N 926.769 1.22769 0.988202 0
M  V30 9564 C 927.999 1.07998 1.76125 0
M  V30 9565 C 928.407 -0.372062 1.85506 0
M  V30 9566 O 927.75 -1.26946 1.3278 0
M  V30 9567 C 927.812 1.6219 3.20834 0
M  V30 9568 C 927.476 3.1086 3.34986 0
M  V30 9569 C 928.473 4.08239 3.21927 0
M  V30 9570 C 926.158 3.50411 3.59886 0
M  V30 9571 C 928.152 5.43154 3.33561 0
M  V30 9572 C 925.839 4.85473 3.71159 0
M  V30 9573 C 926.837 5.81653 3.58006 0
M  V30 9574 O 926.525 7.14263 3.68895 0
M  V30 9575 H 926.257 0.378937 0.559806 0
M  V30 9576 H 928.811 1.62925 1.25078 0
M  V30 9577 H 927.041 1.01676 3.73094 0
M  V30 9578 H 928.73 1.43011 3.79872 0
M  V30 9579 H 929.496 3.79025 3.02597 0
M  V30 9580 H 925.375 2.76068 3.69198 0
M  V30 9581 H 928.919 6.18207 3.23211 0
M  V30 9582 H 924.816 5.14365 3.89998 0
M  V30 9583 H 925.584 7.21906 3.85739 0
M  V30 9584 N 928.247 -1.18576 1.03814 0
M  V30 9585 C 929.475 -1.92437 0.759966 0
M  V30 9586 C 929.89 -1.76031 -0.682526 0
M  V30 9587 O 929.247 -1.08829 -1.46501 0
M  V30 9588 C 929.298 -3.43923 1.11351 0
M  V30 9589 O 929.019 -3.5981 2.49937 0
M  V30 9590 C 930.52 -4.34888 0.859472 0
M  V30 9591 H 927.74 -0.610998 0.277349 0
M  V30 9592 H 930.284 -1.50448 1.38512 0
M  V30 9593 H 928.439 -3.83711 0.533362 0
M  V30 9594 H 928.853 -4.53569 2.63393 0
M  V30 9595 H 930.327 -5.39744 1.15672 0
M  V30 9596 H 930.804 -4.38717 -0.205839 0
M  V30 9597 H 931.41 -4.00795 1.42279 0
M  V30 9598 N 929.725 -0.817259 -1.34754 0
M  V30 9599 C 930.953 -0.415451 -2.02686 0
M  V30 9600 C 931.368 0.97688 -1.61563 0
M  V30 9601 O 930.725 1.63125 -0.818321 0
M  V30 9602 C 930.776 -0.501486 -3.58005 0
M  V30 9603 O 930.497 -1.83893 -3.97637 0
M  V30 9604 C 931.998 -0.0938504 -4.43201 0
M  V30 9605 H 929.218 -0.16742 -0.649778 0
M  V30 9606 H 931.762 -1.10384 -1.7215 0
M  V30 9607 H 929.917 0.138766 -3.87151 0
M  V30 9608 H 930.331 -1.8092 -4.92309 0
M  V30 9609 H 931.805 -0.205145 -5.51619 0
M  V30 9610 H 932.282 0.962011 -4.28535 0
M  V30 9611 H 932.888 -0.707677 -4.19371 0
M  V30 9612 N 931.203 1.46865 -0.571711 0
M  V30 9613 C 932.48 1.95596 0.0132445 0
M  V30 9614 C 932.86 1.51438 1.47071 0
M  V30 9615 O 932.208 0.759917 2.15494 0
M  V30 9616 C 932.418 3.48689 -0.147335 0
M  V30 9617 C 933.766 4.24599 -0.00946329 0
M  V30 9618 O 934.79 3.5612 -0.0756112 0
M  V30 9619 O 933.649 5.46332 0.135361 0
M  V30 9620 H 930.743 0.825102 0.0560039 0
M  V30 9621 H 933.289 1.57199 -0.639256 0
M  V30 9622 H 932.061 3.73681 -1.16096 0
M  V30 9623 H 931.684 3.93887 0.542109 0
M  V30 9624 N 932.681 0.308908 1.54543 0
M  V30 9625 C 933.909 -0.300418 2.04707 0
M  V30 9626 C 934.324 -1.46915 1.18581 0
M  V30 9627 O 933.681 -1.81251 0.213186 0
M  V30 9628 C 933.732 -0.749038 3.53655 0
M  V30 9629 O 933.453 0.373181 4.36508 0
M  V30 9630 C 934.954 -1.4227 4.1985 0
M  V30 9631 H 932.174 -0.0641267 0.667929 0
M  V30 9632 H 934.718 0.450839 1.99469 0
M  V30 9633 H 932.873 -1.4503 3.59228 0
M  V30 9634 H 933.287 0.0224752 5.24495 0
M  V30 9635 H 934.761 -1.68768 5.25568 0
M  V30 9636 H 935.238 -2.36531 3.70067 0
M  V30 9637 H 935.844 -0.764404 4.18374 0
M  V30 9638 N 934.159 -1.57557 0.0367827 0
M  V30 9639 C 935.387 -1.96419 -0.650168 0
M  V30 9640 C 935.802 -0.913656 -1.6522 0
M  V30 9641 O 935.159 0.103718 -1.82205 0
M  V30 9642 C 935.21 -3.35355 -1.3498 0
M  V30 9643 O 934.931 -4.36379 -0.387905 0
M  V30 9644 C 936.432 -3.88892 -2.12786 0
M  V30 9645 H 933.652 -0.646751 -0.178756 0
M  V30 9646 H 936.196 -2.04261 0.0988197 0
M  V30 9647 H 934.351 -3.28708 -2.05012 0
M  V30 9648 H 934.765 -5.16969 -0.885596 0
M  V30 9649 H 936.239 -4.88428 -2.5718 0
M  V30 9650 H 936.716 -3.23547 -2.97008 0
M  V30 9651 H 937.322 -3.98831 -1.47694 0
M  V30 9652 N 935.637 0.236453 -1.55816 0
M  V30 9653 C 936.867 0.978873 -1.81939 0
M  V30 9654 C 937.275 1.79041 -0.611647 0
M  V30 9655 O 936.618 1.78616 0.429172 0
M  V30 9656 C 936.68 1.9569 -3.01572 0
M  V30 9657 C 936.344 1.33131 -4.37178 0
M  V30 9658 C 937.341 0.728585 -5.1477 0
M  V30 9659 C 935.026 1.34755 -4.83887 0
M  V30 9660 C 937.02 0.150427 -6.37222 0
M  V30 9661 C 934.707 0.765539 -6.06286 0
M  V30 9662 C 935.705 0.168017 -6.82793 0
M  V30 9663 O 935.393 -0.404976 -8.02879 0
M  V30 9664 H 935.125 0.293186 -0.609113 0
M  V30 9665 H 937.679 0.261384 -2.0373 0
M  V30 9666 H 935.909 2.71298 -2.75562 0
M  V30 9667 H 937.598 2.56362 -3.14695 0
M  V30 9668 H 938.364 0.708477 -4.79797 0
M  V30 9669 H 934.243 1.80202 -4.24321 0
M  V30 9670 H 937.787 -0.316586 -6.96881 0
M  V30 9671 H 933.684 0.78301 -6.40733 0
M  V30 9672 H 934.452 -0.29785 -8.17958 0
M  V30 9673 N 937.115 1.49373 0.502552 0
M  V30 9674 C 938.062 1.65927 1.60427 0
M  V30 9675 C 939.032 0.500768 1.58371 0
M  V30 9676 O 940.217 0.727606 1.76382 0
M  V30 9677 C 937.357 1.73043 2.9858 0
M  V30 9678 C 936.47 3.00187 3.10663 0
M  V30 9679 C 935.605 2.98292 4.3954 0
M  V30 9680 C 934.644 4.20022 4.4525 0
M  V30 9681 N 933.781 4.16046 5.65553 0
M  V30 9682 H 938.621 2.59998 1.45619 0
M  V30 9683 H 936.158 1.28912 0.708519 0
M  V30 9684 H 938.116 1.7515 3.78653 0
M  V30 9685 H 936.746 0.824397 3.12095 0
M  V30 9686 H 935.798 3.07699 2.23663 0
M  V30 9687 H 937.11 3.9018 3.10742 0
M  V30 9688 H 936.264 2.98953 5.27932 0
M  V30 9689 H 935.003 2.06075 4.42023 0
M  V30 9690 H 934.008 4.19607 3.5526 0
M  V30 9691 H 935.233 5.13431 4.44484 0
M  V30 9692 H 933.179 3.26665 5.68881 0
M  V30 9693 H 933.096 4.99773 5.67242 0
M  V30 9694 H 934.364 4.20807 6.56156 0
M  V30 9695 N 938.594 -0.753485 1.38421 0
M  V30 9696 C 939.842 -1.50962 1.34368 0
M  V30 9697 C 940.163 -1.94889 -0.0656895 0
M  V30 9698 O 939.433 -1.67652 -1.01339 0
M  V30 9699 H 938.013 -0.559967 0.494415 0
M  V30 9700 H 940.675 -0.895665 1.73101 0
M  V30 9701 H 939.771 -2.40048 1.99458 0
M  V30 9702 N 940.072 -1.23292 -0.981677 0
M  V30 9703 C 941.02 -1.0104 -2.09508 0
M  V30 9704 C 942.014 0.0501977 -1.69326 0
M  V30 9705 O 943.22 -0.103197 -1.79704 0
M  V30 9706 H 939.595 -0.309629 -0.685298 0
M  V30 9707 H 941.566 -1.95493 -2.25444 0
M  V30 9708 C 940.315 -0.616885 -3.42184 0
M  V30 9709 H 939.638 -1.4247 -3.73554 0
M  V30 9710 H 941.078 -0.500688 -4.21033 0
M  V30 9711 C 939.537 0.674721 -3.30074 0
M  V30 9712 O 940.067 1.72421 -3.62814 0
M  V30 9713 N 938.273 0.650151 -2.83234 0
M  V30 9714 H 937.82 -0.204225 -2.56789 0
M  V30 9715 H 937.778 1.51458 -2.75514 0
M  V30 9716 N 941.55 1.18024 -1.04442 0
M  V30 9717 C 942.778 1.92032 -0.770161 0
M  V30 9718 C 943.193 1.76391 0.673181 0
M  V30 9719 O 942.55 1.09604 1.45922 0
M  V30 9720 C 942.601 3.43328 -1.13173 0
M  V30 9721 O 942.322 3.5848 -2.51841 0
M  V30 9722 C 943.823 4.34427 -0.882523 0
M  V30 9723 H 941.043 0.609518 -0.280586 0
M  V30 9724 H 943.587 1.49711 -1.39308 0
M  V30 9725 H 941.742 3.83423 -0.553704 0
M  V30 9726 H 942.156 4.52166 -2.65794 0
M  V30 9727 H 943.63 5.39123 -1.18533 0
M  V30 9728 H 944.107 4.3882 0.18257 0
M  V30 9729 H 944.713 4.00035 -1.44403 0
M  V30 9730 N 943.028 0.824394 1.34319 0
M  V30 9731 C 944.439 0.471802 1.8064 0
M  V30 9732 C 944.79 -1.00793 1.6833 0
M  V30 9733 O 943.915 -1.78447 1.22416 0
M  V30 9734 C 944.51 0.849609 3.27974 0
M  V30 9735 C 943.069 0.549365 3.72369 0
M  V30 9736 C 942.216 1.06573 2.56003 0
M  V30 9737 H 945.167 1.01443 1.22045 0
M  V30 9738 H 945.188 0.153968 3.80188 0
M  V30 9739 H 944.7 1.92663 3.36902 0
M  V30 9740 H 942.801 -0.518182 3.68979 0
M  V30 9741 H 942.914 1.09446 4.66432 0
M  V30 9742 H 941.278 0.487214 2.49997 0
M  V30 9743 H 942.061 2.14923 2.677 0
M  V30 9744 N 944.506 -1.46559 0.579492 0
M  V30 9745 C 945.469 -2.28739 -0.145371 0
M  V30 9746 C 946.469 -1.38211 -0.821854 0
M  V30 9747 O 947.659 -1.6062 -0.674302 0
M  V30 9748 C 944.791 -3.18507 -1.21515 0
M  V30 9749 H 945.984 -2.94301 0.576786 0
M  V30 9750 H 943.537 -1.52616 0.337327 0
M  V30 9751 H 944.272 -2.57685 -1.96899 0
M  V30 9752 H 944.057 -3.85157 -0.734616 0
M  V30 9753 H 945.547 -3.80369 -1.72363 0
M  V30 9754 N 945.984 -0.3171 -1.54377 0
M  V30 9755 C 946.916 0.58571 -2.2159 0
M  V30 9756 C 947.929 1.08495 -1.21378 0
M  V30 9757 O 949.118 0.999638 -1.47883 0
M  V30 9758 C 946.218 1.8157 -2.86156 0
M  V30 9759 C 945.391 1.45625 -4.12447 0
M  V30 9760 C 944.45 2.54308 -4.60667 0
M  V30 9761 O 943.476 2.18724 -5.25498 0
M  V30 9762 N 944.678 3.85129 -4.34345 0
M  V30 9763 H 947.443 0.0102247 -2.99698 0
M  V30 9764 H 945.004 -0.140011 -1.61293 0
M  V30 9765 H 946.996 2.53657 -3.15341 0
M  V30 9766 H 945.566 2.29919 -2.11793 0
M  V30 9767 H 944.786 0.567294 -3.90097 0
M  V30 9768 H 946.074 1.19169 -4.94648 0
M  V30 9769 H 945.472 4.16841 -3.8244 0
M  V30 9770 H 944.029 4.53466 -4.68201 0
M  V30 9771 N 947.462 1.57535 -0.0451378 0
M  V30 9772 C 948.708 1.92736 0.630921 0
M  V30 9773 C 949.041 0.923265 1.70849 0
M  V30 9774 O 948.316 -0.0516512 1.94431 0
M  V30 9775 C 948.599 3.38348 1.23259 0
M  V30 9776 C 948.452 4.49503 0.16349 0
M  V30 9777 C 949.771 3.84233 2.14599 0
M  V30 9778 H 946.89 0.700884 0.227883 0
M  V30 9779 H 949.532 1.89706 -0.10567 0
M  V30 9780 H 947.682 3.41061 1.86037 0
M  V30 9781 H 949.354 4.58919 -0.46808 0
M  V30 9782 H 947.597 4.30802 -0.509166 0
M  V30 9783 H 948.268 5.48457 0.624382 0
M  V30 9784 H 950.744 3.83358 1.6179 0
M  V30 9785 H 949.62 4.86781 2.53644 0
M  V30 9786 H 949.881 3.20646 3.04366 0
M  V30 9787 N 948.94 -0.228186 1.55939 0
M  V30 9788 C 950.351 -0.795734 1.68893 0
M  V30 9789 C 950.702 -1.85261 0.645967 0
M  V30 9790 O 949.827 -2.15434 -0.2042 0
M  V30 9791 C 950.422 -1.45013 3.06197 0
M  V30 9792 C 948.981 -1.96514 3.21028 0
M  V30 9793 C 948.128 -0.822918 2.64808 0
M  V30 9794 H 951.079 -0.0036485 1.587 0
M  V30 9795 H 951.1 -2.31875 3.01685 0
M  V30 9796 H 950.612 -0.680678 3.82084 0
M  V30 9797 H 948.713 -2.76282 2.49998 0
M  V30 9798 H 948.826 -2.14967 4.28166 0
M  V30 9799 H 947.19 -1.22846 2.23116 0
M  V30 9800 H 947.973 -0.0662493 3.43236 0
M  V30 9801 N 950.418 -1.49637 -0.494624 0
M  V30 9802 C 951.365 -1.66776 -1.59545 0
M  V30 9803 C 952.335 -0.509159 -1.58104 0
M  V30 9804 O 953.52 -0.736949 -1.75993 0
M  V30 9805 C 950.66 -1.74624 -2.97658 0
M  V30 9806 C 949.773 -3.01831 -3.09067 0
M  V30 9807 C 948.908 -3.00619 -4.37952 0
M  V30 9808 C 947.947 -4.22378 -4.43016 0
M  V30 9809 N 947.084 -4.1904 -5.63339 0
M  V30 9810 H 951.924 -2.60767 -1.44238 0
M  V30 9811 H 949.461 -1.29286 -0.701673 0
M  V30 9812 H 951.419 -1.77156 -3.77719 0
M  V30 9813 H 950.049 -0.840936 -3.11654 0
M  V30 9814 H 949.101 -3.08881 -2.22029 0
M  V30 9815 H 950.413 -3.91823 -3.08669 0
M  V30 9816 H 949.567 -3.01749 -5.26339 0
M  V30 9817 H 948.306 -2.08416 -4.40924 0
M  V30 9818 H 947.311 -4.21485 -3.5303 0
M  V30 9819 H 948.536 -5.15781 -4.41755 0
M  V30 9820 H 946.482 -3.29677 -5.67141 0
M  V30 9821 H 946.399 -5.02774 -5.64583 0
M  V30 9822 H 947.667 -4.24281 -6.53916 0
M  V30 9823 N 951.896 0.746133 -1.38819 0
M  V30 9824 C 952.846 1.85085 -1.33145 0
M  V30 9825 C 953.83 1.59466 -0.214339 0
M  V30 9826 O 955.022 1.71159 -0.450943 0
M  V30 9827 C 952.151 3.22884 -1.16623 0
M  V30 9828 C 951.237 3.54369 -2.32988 0
M  V30 9829 N 951.628 3.56863 -3.58445 0
M  V30 9830 C 949.926 3.84674 -2.25703 0
M  V30 9831 C 950.627 3.85827 -4.3533 0
M  V30 9832 N 949.603 4.03037 -3.64777 0
M  V30 9833 H 953.405 1.85301 -2.28124 0
M  V30 9834 H 950.919 0.943847 -1.32156 0
M  V30 9835 H 952.916 4.0195 -1.10642 0
M  V30 9836 H 951.576 3.23914 -0.225841 0
M  V30 9837 H 952.587 3.38443 -3.92017 0
M  V30 9838 H 949.264 3.93375 -1.39864 0
M  V30 9839 H 950.654 3.94317 -5.44025 0
M  V30 9840 N 953.375 1.23811 0.975125 0
M  V30 9841 C 954.308 0.967173 2.06691 0
M  V30 9842 C 955.286 -0.09642 1.62314 0
M  V30 9843 O 956.47 0.0389532 1.8846 0
M  V30 9844 C 953.597 0.458094 3.35588 0
M  V30 9845 C 952.643 1.5091 3.98909 0
M  V30 9846 S 953.476 3.08815 4.37485 0
M  V30 9847 C 954.632 2.59591 5.69529 0
M  V30 9848 H 954.865 1.89166 2.29355 0
M  V30 9849 H 952.398 1.07113 1.11203 0
M  V30 9850 H 954.356 0.170991 4.10144 0
M  V30 9851 H 953.017 -0.445562 3.10924 0
M  V30 9852 H 952.21 1.10315 4.91779 0
M  V30 9853 H 951.812 1.74582 3.30752 0
M  V30 9854 H 954.104 2.0194 6.46704 0
M  V30 9855 H 955.047 3.51021 6.14971 0
M  V30 9856 H 955.455 2.00267 5.27782 0
M  V30 9857 N 954.853 -1.17469 1.05066 0
M  V30 9858 C 955.816 -2.19648 0.654793 0
M  V30 9859 C 956.816 -1.58107 -0.293063 0
M  V30 9860 O 958.006 -1.74029 -0.077106 0
M  V30 9861 C 955.138 -3.40878 -0.0384437 0
M  V30 9862 H 956.331 -2.56184 1.55915 0
M  V30 9863 H 953.884 -1.31528 0.844396 0
M  V30 9864 H 954.619 -3.09885 -0.956133 0
M  V30 9865 H 954.404 -3.86792 0.642961 0
M  V30 9866 H 955.894 -4.1651 -0.301568 0
M  V30 9867 N 956.331 -0.831506 -1.3388 0
M  V30 9868 C 957.556 -0.435954 -2.02766 0
M  V30 9869 C 957.981 0.952889 -1.62178 0
M  V30 9870 O 957.339 1.62166 -0.810681 0
M  V30 9871 C 957.387 -0.555907 -3.56289 0
M  V30 9872 O 956.491 0.420826 -4.10247 0
M  V30 9873 H 955.832 -0.178248 -0.639628 0
M  V30 9874 H 958.362 -1.1243 -1.70941 0
M  V30 9875 H 958.372 -0.434831 -4.05676 0
M  V30 9876 H 957.047 -1.56881 -3.85177 0
M  V30 9877 H 955.624 0.257919 -3.72007 0
M  V30 9878 N 957.809 1.4625 -0.587256 0
M  V30 9879 C 958.739 2.33132 0.131076 0
M  V30 9880 C 959.72 1.45619 0.879158 0
M  V30 9881 O 960.905 1.74428 0.853723 0
M  V30 9882 C 958.035 3.27975 1.14236 0
M  V30 9883 C 956.989 4.24965 0.508819 0
M  V30 9884 C 956.315 5.09349 1.62689 0
M  V30 9885 C 957.615 5.19322 -0.55694 0
M  V30 9886 H 959.309 2.93442 -0.594333 0
M  V30 9887 H 956.855 1.41106 -0.287263 0
M  V30 9888 H 958.808 3.87614 1.65328 0
M  V30 9889 H 957.532 2.65781 1.8981 0
M  V30 9890 H 956.191 3.66595 0.0189337 0
M  V30 9891 H 955.839 4.43537 2.37242 0
M  V30 9892 H 955.539 5.75036 1.20861 0
M  V30 9893 H 957.063 5.71852 2.14049 0
M  V30 9894 H 958.477 5.73151 -0.130903 0
M  V30 9895 H 956.874 5.93376 -0.895801 0
M  V30 9896 H 957.944 4.62979 -1.44148 0
M  V30 9897 N 959.287 0.325282 1.54207 0
M  V30 9898 C 960.533 -0.269944 2.01601 0
M  V30 9899 C 960.888 -1.49643 1.20933 0
M  V30 9900 O 960.181 -1.89486 0.283838 0
M  V30 9901 C 960.375 -0.654292 3.5136 0
M  V30 9902 C 960.204 0.533397 4.46525 0
M  V30 9903 C 958.974 1.03304 4.94628 0
M  V30 9904 C 961.172 1.38613 4.95269 0
M  V30 9905 N 959.154 2.18495 5.73701 0
M  V30 9906 C 960.525 2.38519 5.72284 0
M  V30 9907 C 962.58 1.41369 4.77409 0
M  V30 9908 C 961.283 3.40988 6.3334 0
M  V30 9909 C 963.309 2.4271 5.39301 0
M  V30 9910 C 962.671 3.41343 6.16169 0
M  V30 9911 H 958.77 -0.0625778 0.779492 0
M  V30 9912 H 961.354 0.460711 1.89171 0
M  V30 9913 H 959.525 -1.35408 3.64032 0
M  V30 9914 H 961.257 -1.23114 3.85519 0
M  V30 9915 H 958.012 0.604045 4.69732 0
M  V30 9916 H 958.436 2.76605 6.17915 0
M  V30 9917 H 963.078 0.664796 4.17541 0
M  V30 9918 H 960.796 4.16784 6.92327 0
M  V30 9919 H 964.382 2.45647 5.27398 0
M  V30 9920 H 963.262 4.18476 6.6321 0
M  V30 9921 N 960.765 -1.57509 0.0534917 0
M  V30 9922 C 961.728 -2.10563 -0.905307 0
M  V30 9923 C 962.728 -1.02571 -1.23838 0
M  V30 9924 O 963.918 -1.28635 -1.17468 0
M  V30 9925 C 961.05 -2.5918 -2.21447 0
M  V30 9926 H 962.243 -2.96575 -0.445354 0
M  V30 9927 H 959.796 -1.55079 -0.194947 0
M  V30 9928 H 960.531 -1.76568 -2.72019 0
M  V30 9929 H 960.316 -3.38098 -1.98575 0
M  V30 9930 H 961.806 -3.00365 -2.90122 0
M  V30 9931 N 962.243 0.219913 -1.56058 0
M  V30 9932 C 963.52 0.968493 -1.6994 0
M  V30 9933 C 963.9 2.02358 -0.601219 0
M  V30 9934 O 963.248 2.25121 0.391534 0
M  V30 9935 C 963.458 1.57745 -3.11316 0
M  V30 9936 C 964.806 2.06908 -3.70775 0
M  V30 9937 O 965.83 1.67636 -3.14288 0
M  V30 9938 O 964.689 2.79096 -4.69859 0
M  V30 9939 H 961.783 0.452521 -0.692209 0
M  V30 9940 H 964.329 0.211566 -1.68376 0
M  V30 9941 H 963.101 0.815687 -3.82704 0
M  V30 9942 H 962.724 2.39987 -3.17005 0
M  V30 9943 N 963.721 1.49897 0.486681 0
M  V30 9944 C 964.951 1.63599 1.2617 0
M  V30 9945 C 965.359 0.312365 1.86604 0
M  V30 9946 O 964.702 -0.713911 1.6926 0
M  V30 9947 C 964.764 2.65736 2.42125 0
M  V30 9948 C 964.428 4.09711 2.0245 0
M  V30 9949 C 965.425 4.9607 1.55596 0
M  V30 9950 C 963.11 4.55534 2.11647 0
M  V30 9951 C 965.104 6.26295 1.18462 0
M  V30 9952 C 962.791 5.85768 1.74124 0
M  V30 9953 C 963.789 6.70973 1.27608 0
M  V30 9954 O 963.477 7.98778 0.905991 0
M  V30 9955 H 963.209 0.55333 0.388332 0
M  V30 9956 H 965.763 1.96768 0.589195 0
M  V30 9957 H 963.993 2.27778 3.12497 0
M  V30 9958 H 965.682 2.68819 3.04123 0
M  V30 9959 H 966.448 4.61891 1.47925 0
M  V30 9960 H 962.327 3.8937 2.46803 0
M  V30 9961 H 965.871 6.92754 0.820839 0
M  V30 9962 H 961.768 6.19473 1.8145 0
M  V30 9963 H 962.536 8.11914 1.03621 0
M  V30 9964 N 965.199 -0.738761 1.39212 0
M  V30 9965 C 966.427 -1.52801 1.39497 0
M  V30 9966 C 966.842 -1.88797 -0.0114917 0
M  V30 9967 O 966.199 -1.53835 -0.981887 0
M  V30 9968 C 966.25 -2.81793 2.2644 0
M  V30 9969 O 965.971 -2.47328 3.61608 0
M  V30 9970 C 967.472 -3.75844 2.35067 0
M  V30 9971 H 964.692 -0.472322 0.476606 0
M  V30 9972 H 967.236 -0.913153 1.8298 0
M  V30 9973 H 965.391 -3.3962 1.8638 0
M  V30 9974 H 965.805 -3.30162 4.07545 0
M  V30 9975 H 967.279 -4.6326 3.00157 0
M  V30 9976 H 967.756 -4.17329 1.3687 0
M  V30 9977 H 968.362 -3.23937 2.75581 0
M  V30 9978 N 966.677 -1.24326 -0.968545 0
M  V30 9979 C 967.924 -1.08245 -1.71141 0
M  V30 9980 C 968.252 0.378842 -1.90775 0
M  V30 9981 O 967.507 1.29634 -1.46607 0
M  V30 9982 C 967.806 -1.76644 -3.10695 0
M  V30 9983 C 967.472 -3.26572 -3.10905 0
M  V30 9984 C 966.134 -3.67475 -3.10669 0
M  V30 9985 C 968.486 -4.22422 -3.05302 0
M  V30 9986 C 965.814 -5.02666 -3.02562 0
M  V30 9987 C 968.166 -5.57619 -2.98737 0
M  V30 9988 C 966.83 -5.9787 -2.9683 0
M  V30 9989 H 966.1 -0.396098 -0.626249 0
M  V30 9990 H 968.747 -1.54418 -1.13258 0
M  V30 9991 H 967.052 -1.22864 -3.72037 0
M  V30 9992 H 968.749 -1.61668 -3.66967 0
M  V30 9993 H 965.339 -2.94017 -3.11852 0
M  V30 9994 H 969.523 -3.91821 -3.04614 0
M  V30 9995 H 964.779 -5.3305 -2.99446 0
M  V30 9996 H 968.953 -6.31595 -2.93361 0
M  V30 9997 H 966.58 -7.02587 -2.90303 0
M  V30 9998 N 968.156 1.1691 -1.05688 0
M  V30 9999 C 969.403 1.87292 -0.76993 0
M  V30 10000 C 969.731 1.81339 0.703295 0
M  V30 10001 O 968.986 1.21959 1.5305 0
M  V30 10002 C 969.285 3.36578 -1.20207 0
M  V30 10003 C 968.951 3.62732 -2.67836 0
M  V30 10004 C 967.613 3.69579 -3.08163 0
M  V30 10005 C 969.965 3.73803 -3.63209 0
M  V30 10006 C 967.293 3.84992 -4.42717 0
M  V30 10007 C 969.645 3.90735 -4.97503 0
M  V30 10008 C 968.309 3.95823 -5.37476 0
M  V30 10009 H 967.579 0.68535 -0.281737 0
M  V30 10010 H 970.226 1.38274 -1.32486 0
M  V30 10011 H 968.531 3.87687 -0.566222 0
M  V30 10012 H 970.228 3.89409 -0.957183 0
M  V30 10013 H 966.818 3.58031 -2.35609 0
M  V30 10014 H 971.002 3.67829 -3.3319 0
M  V30 10015 H 966.258 3.87181 -4.73182 0
M  V30 10016 H 970.432 3.98243 -5.71293 0
M  V30 10017 H 968.059 4.07518 -6.41742 0
M  V30 10018 N 969.634 0.838594 1.33437 0
M  V30 10019 C 970.911 0.356112 1.92331 0
M  V30 10020 C 971.291 -1.1585 1.76471 0
M  V30 10021 O 970.639 -1.97281 1.15293 0
M  V30 10022 C 970.849 0.802715 3.39643 0
M  V30 10023 C 972.197 0.810575 4.16791 0
M  V30 10024 O 973.221 0.746304 3.48294 0
M  V30 10025 O 972.08 0.898082 5.3907 0
M  V30 10026 H 969.174 0.100711 0.820845 0
M  V30 10027 H 971.72 0.924428 1.42311 0
M  V30 10028 H 970.492 1.84529 3.45057 0
M  V30 10029 H 970.115 0.210956 3.9704 0
M  V30 10030 N 971.112 -1.45937 0.595003 0
M  V30 10031 C 972.36 -2.01921 0.0851368 0
M  V30 10032 C 972.681 -1.46748 -1.28413 0
M  V30 10033 O 971.951 -0.656873 -1.84559 0
M  V30 10034 H 970.531 -0.746457 0.0284826 0
M  V30 10035 H 973.193 -1.78891 0.773561 0
M  V30 10036 H 972.289 -3.1209 0.0254002 0
M  V30 10037 N 972.59 -0.333456 -1.54032 0
M  V30 10038 C 974.001 0.15256 -1.86076 0
M  V30 10039 C 974.352 1.50819 -1.25492 0
M  V30 10040 O 973.477 2.08903 -0.564665 0
M  V30 10041 C 974.072 0.283599 -3.37611 0
M  V30 10042 C 972.631 0.713841 -3.69569 0
M  V30 10043 C 971.778 -0.158515 -2.76847 0
M  V30 10044 H 974.729 -0.553404 -1.48738 0
M  V30 10045 H 974.75 1.11284 -3.63863 0
M  V30 10046 H 974.262 -0.703193 -3.81676 0
M  V30 10047 H 972.363 1.71002 -3.31042 0
M  V30 10048 H 972.476 0.510731 -4.7637 0
M  V30 10049 H 970.84 0.367531 -2.52034 0
M  V30 10050 H 971.623 -1.14226 -3.2374 0
M  V30 10051 N 974.068 1.57479 -0.061844 0
M  V30 10052 C 974.998 2.15181 0.9066 0
M  V30 10053 C 975.979 1.07624 1.31724 0
M  V30 10054 O 977.164 1.35614 1.39006 0
M  V30 10055 C 974.294 2.70542 2.17771 0
M  V30 10056 C 973.248 3.83178 1.9068 0
M  V30 10057 C 972.574 4.25099 3.24337 0
M  V30 10058 C 973.874 5.07853 1.21994 0
M  V30 10059 H 975.568 2.96355 0.42594 0
M  V30 10060 H 973.114 1.42556 0.203435 0
M  V30 10061 H 975.067 3.09552 2.85929 0
M  V30 10062 H 973.791 1.86575 2.68062 0
M  V30 10063 H 972.45 3.44656 1.24931 0
M  V30 10064 H 972.098 3.38069 3.72449 0
M  V30 10065 H 971.798 5.01021 3.07005 0
M  V30 10066 H 973.322 4.66718 3.93709 0
M  V30 10067 H 974.736 5.44242 1.80204 0
M  V30 10068 H 973.133 5.88987 1.14954 0
M  V30 10069 H 974.203 4.84497 0.197536 0
M  V30 10070 N 975.546 -0.211634 1.56173 0
M  V30 10071 C 976.771 -0.955324 1.84088 0
M  V30 10072 C 977.196 -1.76754 0.643407 0
M  V30 10073 O 976.554 -1.76653 -0.407842 0
M  V30 10074 C 976.602 -1.84063 3.10085 0
M  V30 10075 O 975.706 -2.9373 2.89476 0
M  V30 10076 H 975.047 -0.26996 0.606645 0
M  V30 10077 H 977.577 -0.221947 2.03393 0
M  V30 10078 H 977.587 -2.24852 3.40449 0
M  V30 10079 H 976.262 -1.24373 3.96868 0
M  V30 10080 H 974.839 -2.56816 2.7037 0
M  V30 10081 N 977.024 -1.50153 -0.478725 0
M  V30 10082 C 978.272 -1.60443 -1.22892 0
M  V30 10083 C 978.593 -0.303276 -1.92627 0
M  V30 10084 O 977.863 0.678798 -1.83764 0
M  V30 10085 H 976.443 -0.591205 -0.456602 0
M  V30 10086 H 979.105 -1.86893 -0.552905 0
M  V30 10087 H 978.201 -2.41175 -1.98094 0
M  V30 10088 N 978.502 0.731368 -1.39602 0
M  V30 10089 C 979.432 1.85855 -1.41351 0
M  V30 10090 C 980.413 1.67839 -0.2764 0
M  V30 10091 O 981.598 1.88104 -0.482747 0
M  V30 10092 C 978.728 3.23644 -1.25983 0
M  V30 10093 C 977.682 3.56304 -2.37132 0
M  V30 10094 C 977.008 4.93069 -2.0685 0
M  V30 10095 C 978.308 3.58906 -3.79452 0
M  V30 10096 H 980.002 1.84648 -2.3568 0
M  V30 10097 H 977.548 0.886955 -1.13442 0
M  V30 10098 H 979.501 4.02176 -1.25826 0
M  V30 10099 H 978.225 3.25387 -0.281234 0
M  V30 10100 H 976.884 2.80104 -2.36511 0
M  V30 10101 H 976.532 4.91396 -1.0742 0
M  V30 10102 H 976.232 5.15888 -2.81306 0
M  V30 10103 H 977.756 5.73953 -2.0835 0
M  V30 10104 H 979.17 4.27508 -3.81982 0
M  V30 10105 H 977.567 3.93246 -4.53297 0
M  V30 10106 H 978.637 2.58631 -4.10168 0
M  V30 10107 N 979.98 1.24838 0.961938 0
M  V30 10108 C 981.208 1.11871 1.74047 0
M  V30 10109 C 981.623 -0.328209 1.85925 0
M  V30 10110 O 980.98 -1.22616 1.35173 0
M  V30 10111 C 981.031 1.75931 3.15801 0
M  V30 10112 O 980.752 3.14967 3.04512 0
M  V30 10113 C 982.253 1.68649 4.09966 0
M  V30 10114 H 979.473 0.390569 0.545616 0
M  V30 10115 H 982.017 1.65058 1.20732 0
M  V30 10116 H 980.172 1.26733 3.66084 0
M  V30 10117 H 980.586 3.46349 3.93882 0
M  V30 10118 H 982.06 2.18144 5.07067 0
M  V30 10119 H 982.537 0.648831 4.34381 0
M  V30 10120 H 983.143 2.17301 3.65596 0
M  V30 10121 N 981.458 -1.16348 1.06306 0
M  V30 10122 C 982.388 -2.2291 0.695234 0
M  V30 10123 C 983.369 -1.67208 -0.312343 0
M  V30 10124 O 984.554 -1.93293 -0.187442 0
M  V30 10125 C 981.684 -3.47205 0.0810149 0
M  V30 10126 C 980.638 -4.15801 1.01458 0
M  V30 10127 C 979.964 -5.3405 0.263656 0
M  V30 10128 C 981.264 -4.66766 2.34365 0
M  V30 10129 H 982.958 -2.53934 1.58613 0
M  V30 10130 H 980.504 -1.22056 0.76409 0
M  V30 10131 H 982.457 -4.2098 -0.18818 0
M  V30 10132 H 981.181 -3.15482 -0.844897 0
M  V30 10133 H 979.84 -3.43954 1.26852 0
M  V30 10134 H 979.488 -4.9858 -0.665378 0
M  V30 10135 H 979.188 -5.80885 0.88582 0
M  V30 10136 H 980.712 -6.106 0.00200994 0
M  V30 10137 H 982.126 -5.3212 2.13356 0
M  V30 10138 H 980.523 -5.24223 2.9208 0
M  V30 10139 H 981.593 -3.82969 2.97426 0
M  V30 10140 N 982.937 -0.845659 -1.3299 0
M  V30 10141 C 984.185 -0.443774 -1.97168 0
M  V30 10142 C 984.506 1.00192 -1.67292 0
M  V30 10143 O 983.776 1.69891 -0.975397 0
M  V30 10144 H 982.356 -0.161111 -0.729419 0
M  V30 10145 H 985.018 -1.08011 -1.62233 0
M  V30 10146 H 984.114 -0.581414 -3.06637 0
M  V30 10147 N 984.415 1.45619 -0.602734 0
M  V30 10148 C 985.643 2.06647 -0.102253 0
M  V30 10149 C 986.058 1.4482 1.21131 0
M  V30 10150 O 985.415 0.560621 1.73676 0
M  V30 10151 C 985.466 3.61467 0.0490113 0
M  V30 10152 O 985.187 4.20985 -1.21257 0
M  V30 10153 C 986.688 4.39469 0.581517 0
M  V30 10154 H 983.908 0.667685 -0.0666155 0
M  V30 10155 H 986.452 1.86939 -0.829091 0
M  V30 10156 H 984.607 3.80534 0.726153 0
M  V30 10157 H 985.021 5.14103 -1.03915 0
M  V30 10158 H 986.495 5.48318 0.636462 0
M  V30 10159 H 986.972 4.0891 1.60277 0
M  V30 10160 H 987.578 4.25256 -0.061419 0
M  V30 10161 N 985.893 0.34162 1.53853 0
M  V30 10162 C 987.141 -0.254979 2.00485 0
M  V30 10163 C 987.462 -1.51222 1.23114 0
M  V30 10164 O 986.732 -1.92966 0.337787 0
M  V30 10165 H 985.312 -0.0972084 0.740648 0
M  V30 10166 H 987.974 0.462332 1.89337 0
M  V30 10167 H 987.07 -0.498778 3.08089 0
M  V30 10168 N 987.371 -1.57444 0.0701946 0
M  V30 10169 C 988.619 -1.93047 -0.598106 0
M  V30 10170 C 988.94 -0.950841 -1.70247 0
M  V30 10171 O 988.21 0.00127177 -1.959 0
M  V30 10172 H 986.79 -0.712648 -0.223924 0
M  V30 10173 H 989.452 -1.94481 0.127674 0
M  V30 10174 H 988.548 -2.94807 -1.02445 0
M  V30 10175 N 988.849 0.203349 -1.56283 0
M  V30 10176 C 990.265 0.55384 -1.49682 0
M  V30 10177 C 990.465 1.86261 -0.768701 0
M  V30 10178 O 989.521 2.50517 -0.315824 0
M  V30 10179 C 990.834 0.616216 -2.94318 0
M  V30 10180 C 992.382 0.705611 -3.04943 0
M  V30 10181 C 992.857 0.79917 -4.50974 0
M  V30 10182 N 994.348 0.862916 -4.55091 0
M  V30 10183 C 995.083 0.955334 -5.65386 0
M  V30 10184 N 994.579 1.01057 -6.8539 0
M  V30 10185 N 996.372 0.991884 -5.53279 0
M  V30 10186 H 988.523 -0.655244 -2.0204 0
M  V30 10187 H 990.786 -0.232344 -0.919087 0
M  V30 10188 H 990.492 -0.27619 -3.50614 0
M  V30 10189 H 990.366 1.47371 -3.4722 0
M  V30 10190 H 992.753 1.58845 -2.48701 0
M  V30 10191 H 992.834 -0.177921 -2.5518 0
M  V30 10192 H 992.478 -0.0792841 -5.07838 0
M  V30 10193 H 992.408 1.69838 -4.9846 0
M  V30 10194 H 994.899 0.829812 -3.68677 0
M  V30 10195 H 995.212 1.08137 -7.65197 0
M  V30 10196 H 993.557 0.979384 -6.88065 0
M  V30 10197 H 996.748 0.945514 -4.58451 0
M  V30 10198 H 996.921 1.06045 -6.39264 0
M  V30 10199 N 990.327 1.50405 0.470755 0
M  V30 10200 C 991.557 1.64928 1.24428 0
M  V30 10201 C 991.965 0.332139 1.86262 0
M  V30 10202 O 991.308 -0.695919 1.70008 0
M  V30 10203 C 991.37 2.6829 2.39293 0
M  V30 10204 C 991.034 4.11835 1.98093 0
M  V30 10205 C 992.031 4.97693 1.50326 0
M  V30 10206 C 989.716 4.57753 2.06803 0
M  V30 10207 C 991.71 6.27516 1.11813 0
M  V30 10208 C 989.397 5.87582 1.67902 0
M  V30 10209 C 990.395 6.72289 1.20485 0
M  V30 10210 O 990.083 7.99694 0.821219 0
M  V30 10211 H 989.815 0.557418 0.382442 0
M  V30 10212 H 992.369 1.97382 0.568292 0
M  V30 10213 H 990.599 2.31079 3.10063 0
M  V30 10214 H 992.288 2.7203 3.01255 0
M  V30 10215 H 993.054 4.63434 1.43018 0
M  V30 10216 H 988.933 3.91966 2.42659 0
M  V30 10217 H 992.477 6.93586 0.747317 0
M  V30 10218 H 988.374 6.21362 1.74869 0
M  V30 10219 H 989.142 8.12968 0.950038 0
M  V30 10220 N 991.805 -0.723954 1.39988 0
M  V30 10221 C 993.033 -1.51313 1.4111 0
M  V30 10222 C 993.448 -1.88798 0.00853333 0
M  V30 10223 O 992.805 -1.54868 -0.965516 0
M  V30 10224 C 992.856 -2.79375 2.29416 0
M  V30 10225 O 992.577 -2.43478 3.64211 0
M  V30 10226 C 994.078 -3.7333 2.3904 0
M  V30 10227 H 991.298 -0.46724 0.481589 0
M  V30 10228 H 993.842 -0.893694 1.83938 0
M  V30 10229 H 991.997 -3.37624 1.89971 0
M  V30 10230 H 992.411 -3.25821 4.11024 0
M  V30 10231 H 993.885 -4.60051 3.05053 0
M  V30 10232 H 994.362 -4.15854 1.41289 0
M  V30 10233 H 994.968 -3.20996 2.79001 0
M  V30 10234 N 993.283 -1.25346 -0.955304 0
M  V30 10235 C 994.531 -1.09837 -1.69647 0
M  V30 10236 C 994.852 0.361425 -1.91621 0
M  V30 10237 O 994.122 1.25666 -1.50283 0
M  V30 10238 H 992.702 -0.403467 -0.628668 0
M  V30 10239 H 995.364 -1.57459 -1.14859 0
M  V30 10240 H 994.46 -1.60616 -2.67598 0
M  V30 10241 N 994.761 1.15782 -1.06922 0
M  V30 10242 C 995.986 1.90896 -0.810771 0
M  V30 10243 C 996.411 1.77246 0.629714 0
M  V30 10244 O 995.769 1.10215 1.43953 0
M  V30 10245 C 995.817 3.39397 -1.21829 0
M  V30 10246 O 994.921 4.10818 -0.360934 0
M  V30 10247 H 994.262 0.594497 -0.295752 0
M  V30 10248 H 996.792 1.46652 -1.42669 0
M  V30 10249 H 996.802 3.90181 -1.19259 0
M  V30 10250 H 995.477 3.4865 -2.2675 0
M  V30 10251 H 994.054 3.7019 -0.448748 0
M  V30 10252 N 996.239 0.8527 1.3254 0
M  V30 10253 C 997.464 0.468157 2.02047 0
M  V30 10254 C 997.889 -0.926967 1.63673 0
M  V30 10255 O 997.247 -1.60855 0.836378 0
M  V30 10256 C 997.295 0.612519 3.5536 0
M  V30 10257 O 996.399 -0.355506 4.10865 0
M  V30 10258 H 995.74 0.188401 0.636711 0
M  V30 10259 H 998.27 1.15135 1.6913 0
M  V30 10260 H 998.28 0.499315 4.04933 0
M  V30 10261 H 996.955 1.62988 3.82632 0
M  V30 10262 H 995.532 -0.198703 3.7237 0
M  V30 10263 N 997.718 -1.45297 0.610449 0
M  V30 10264 C 998.948 -2.0629 0.113047 0
M  V30 10265 C 999.356 -1.45527 -1.20907 0
M  V30 10266 O 998.699 -0.564837 -1.74801 0
M  V30 10267 C 998.761 -3.59366 -0.0979692 0
M  V30 10268 C 998.425 -4.42481 1.14279 0
M  V30 10269 C 999.422 -4.77277 2.06161 0
M  V30 10270 C 997.107 -4.83187 1.37241 0
M  V30 10271 C 999.101 -5.51639 3.19333 0
M  V30 10272 C 996.788 -5.57303 2.50713 0
M  V30 10273 C 997.786 -5.91445 3.41587 0
M  V30 10274 O 997.474 -6.64056 4.53083 0
M  V30 10275 H 997.206 -0.67264 0.0673159 0
M  V30 10276 H 999.76 -1.87486 0.838937 0
M  V30 10277 H 997.99 -3.76582 -0.878783 0
M  V30 10278 H 999.679 -4.02193 -0.547327 0
M  V30 10279 H 1000.44 -4.46384 1.89647 0
M  V30 10280 H 996.324 -4.56045 0.67407 0
M  V30 10281 H 999.868 -5.78207 3.90286 0
M  V30 10282 H 995.765 -5.8761 2.67179 0
M  V30 10283 H 996.533 -6.82509 4.51801 0
M  V30 10284 N 999.196 -0.349774 -1.5367 0
M  V30 10285 C 1000.44 0.244343 -2.00617 0
M  V30 10286 C 1000.76 1.50567 -1.23914 0
M  V30 10287 O 1000.03 1.92784 -0.348016 0
M  V30 10288 H 998.615 0.0932792 -0.741153 0
M  V30 10289 H 1001.28 -0.472367 -1.89089 0
M  V30 10290 H 1000.37 0.482433 -3.08349 0
M  V30 10291 N 1000.67 1.57404 -0.0785433 0
M  V30 10292 C 1001.95 1.85163 0.630389 0
M  V30 10293 C 1002.33 0.972295 1.87376 0
M  V30 10294 O 1001.68 0.0403375 2.28464 0
M  V30 10295 C 1001.89 3.35491 0.961604 0
M  V30 10296 C 1003.24 4.0316 1.33219 0
M  V30 10297 O 1004.26 3.40276 1.05313 0
M  V30 10298 O 1003.12 5.14086 1.85412 0
M  V30 10299 H 1000.21 0.765169 0.31376 0
M  V30 10300 H 1002.76 1.69343 -0.109986 0
M  V30 10301 H 1001.53 3.91221 0.0788113 0
M  V30 10302 H 1001.15 3.56598 1.75852 0
M  V30 10303 N 1002.15 -0.195058 1.56388 0
M  V30 10304 C 1003.56 -0.75973 1.70543 0
M  V30 10305 C 1003.91 -1.83849 0.685118 0
M  V30 10306 O 1003.04 -2.15819 -0.158457 0
M  V30 10307 C 1003.63 -1.38485 3.09204 0
M  V30 10308 C 1002.19 -1.89661 3.25124 0
M  V30 10309 C 1001.34 -0.766563 2.66494 0
M  V30 10310 H 1004.29 0.0300148 1.58672 0
M  V30 10311 H 1004.31 -2.25424 3.06536 0
M  V30 10312 H 1003.82 -0.599479 3.83442 0
M  V30 10313 H 1001.92 -2.70917 2.55802 0
M  V30 10314 H 1002.04 -2.05837 4.32629 0
M  V30 10315 H 1000.4 -1.18086 2.25672 0
M  V30 10316 H 1001.18 0.00657102 3.43299 0
M  V30 10317 N 1003.63 -1.50653 -0.462772 0
M  V30 10318 C 1004.59 -1.69561 -1.54213 0
M  V30 10319 C 1005.59 -0.566106 -1.50505 0
M  V30 10320 O 1006.78 -0.833273 -1.52978 0
M  V30 10321 C 1003.91 -1.72856 -2.93826 0
M  V30 10322 H 1005.11 -2.65867 -1.38761 0
M  V30 10323 H 1002.66 -1.40259 -0.689728 0
M  V30 10324 H 1003.4 -0.78273 -3.14712 0
M  V30 10325 H 1003.18 -2.54919 -2.97924 0
M  V30 10326 H 1004.67 -1.89411 -3.72174 0
M  V30 10327 N 1005.11 0.71652 -1.4037 0
M  V30 10328 C 1006.06 1.85194 -1.40734 0
M  V30 10329 C 1007.05 1.66934 -0.287969 0
M  V30 10330 O 1008.26 1.74051 -0.458957 0
M  V30 10331 H 1004.63 0.609922 -0.439885 0
M  V30 10332 H 1006.6 1.82003 -2.36468 0
M  V30 10333 C 1005.35 3.23048 -1.28589 0
M  V30 10334 H 1004.67 3.37704 -2.13999 0
M  V30 10335 H 1006.11 4.02633 -1.32902 0
M  V30 10336 C 1004.57 3.369 0.00396512 0
M  V30 10337 O 1005.1 3.89881 0.967243 0
M  V30 10338 N 1003.31 2.90508 0.0731565 0
M  V30 10339 H 1002.86 2.4758 -0.711454 0
M  V30 10340 H 1002.81 3.00155 0.935652 0
M  V30 10341 N 1006.59 1.25851 0.948643 0
M  V30 10342 C 1007.81 1.13813 1.73382 0
M  V30 10343 C 1008.24 -0.303615 1.85633 0
M  V30 10344 O 1007.59 -1.21997 1.34114 0
M  V30 10345 C 1007.64 1.80388 3.12238 0
M  V30 10346 O 1006.75 1.08759 3.978 0
M  V30 10347 H 1006.09 0.397006 0.532243 0
M  V30 10348 H 1008.62 1.66529 1.18866 0
M  V30 10349 H 1008.63 1.86913 3.62667 0
M  V30 10350 H 1007.3 2.85278 3.02637 0
M  V30 10351 H 1005.88 1.10157 3.56258 0
M  V30 10352 N 1008.06 -1.15214 1.07534 0
M  V30 10353 C 1009.31 -1.86043 0.799629 0
M  V30 10354 C 1009.64 -1.82435 -0.674356 0
M  V30 10355 O 1008.89 -1.24379 -1.51091 0
M  V30 10356 C 1009.19 -3.34623 1.25547 0
M  V30 10357 C 1008.86 -3.58425 2.73573 0
M  V30 10358 C 1007.52 -3.6463 3.14004 0
M  V30 10359 C 1009.87 -3.67977 3.6911 0
M  V30 10360 C 1007.2 -3.779 4.48786 0
M  V30 10361 C 1009.55 -3.82771 5.03656 0
M  V30 10362 C 1008.22 -3.87222 5.43705 0
M  V30 10363 H 1007.49 -0.680781 0.292605 0
M  V30 10364 H 1010.13 -1.36149 1.34669 0
M  V30 10365 H 1008.44 -3.86737 0.627828 0
M  V30 10366 H 1010.14 -3.87836 1.01901 0
M  V30 10367 H 1006.73 -3.54238 2.41275 0
M  V30 10368 H 1010.91 -3.62482 3.39 0
M  V30 10369 H 1006.17 -3.79604 4.79281 0
M  V30 10370 H 1010.34 -3.89104 5.77556 0
M  V30 10371 H 1007.97 -3.97256 6.48145 0
M  V30 10372 N 1009.54 -0.859717 -1.32086 0
M  V30 10373 C 1010.49 -0.306042 -2.28762 0
M  V30 10374 C 1011.46 0.589801 -1.55276 0
M  V30 10375 O 1012.64 0.523633 -1.83474 0
M  V30 10376 C 1009.78 0.495256 -3.41528 0
M  V30 10377 C 1008.9 -0.426947 -4.29885 0
M  V30 10378 C 1008.03 0.387474 -5.29785 0
M  V30 10379 C 1007.07 -0.531807 -6.09785 0
M  V30 10380 N 1006.21 0.245741 -7.0167 0
M  V30 10381 H 1011.05 -1.1357 -2.7551 0
M  V30 10382 H 1008.59 -0.571468 -1.35546 0
M  V30 10383 H 1010.54 0.97551 -4.05635 0
M  V30 10384 H 1009.17 1.28969 -2.95917 0
M  V30 10385 H 1008.23 -1.02561 -3.66313 0
M  V30 10386 H 1009.54 -1.13226 -4.85779 0
M  V30 10387 H 1008.69 0.930677 -5.99519 0
M  V30 10388 H 1007.43 1.12612 -4.74521 0
M  V30 10389 H 1006.44 -1.08685 -5.3895 0
M  V30 10390 H 1007.66 -1.26915 -6.67135 0
M  V30 10391 H 1005.61 0.967391 -6.48828 0
M  V30 10392 H 1005.52 -0.400432 -7.54939 0
M  V30 10393 H 1006.79 0.770507 -7.75683 0
M  V30 10394 N 1011.02 1.44971 -0.618145 0
M  V30 10395 C 1012.27 2.02458 -0.117656 0
M  V30 10396 C 1012.6 1.48413 1.25248 0
M  V30 10397 O 1011.87 0.662997 1.82851 0
M  V30 10398 C 1012.16 3.59987 -0.0901897 0
M  V30 10399 C 1012.01 4.24343 -1.49175 0
M  V30 10400 C 1013.33 4.36099 0.592121 0
M  V30 10401 H 1010.45 0.735672 -0.0442291 0
M  V30 10402 H 1013.09 1.727 -0.792138 0
M  V30 10403 H 1011.24 3.85471 0.484175 0
M  V30 10404 H 1012.91 4.10009 -2.114 0
M  V30 10405 H 1011.16 3.82337 -2.04941 0
M  V30 10406 H 1011.83 5.33298 -1.42468 0
M  V30 10407 H 1014.3 4.1597 0.103813 0
M  V30 10408 H 1013.18 5.45822 0.580481 0
M  V30 10409 H 1013.44 4.09746 1.66015 0
M  V30 10410 N 1012.5 0.357919 1.53482 0
M  V30 10411 C 1013.75 -0.2337 2.00744 0
M  V30 10412 C 1014.07 -1.49908 1.2471 0
M  V30 10413 O 1013.34 -1.92597 0.358235 0
M  V30 10414 H 1011.92 -0.0893474 0.741637 0
M  V30 10415 H 1014.58 0.482388 1.88836 0
M  V30 10416 H 1013.68 -0.466073 3.086 0
M  V30 10417 N 1013.98 -1.5736 0.0868897 0
M  V30 10418 C 1015.2 -1.98809 -0.590757 0
M  V30 10419 C 1015.63 -0.965407 -1.61436 0
M  V30 10420 O 1014.98 0.067143 -1.81176 0
M  V30 10421 C 1015.03 -3.39249 -1.22238 0
M  V30 10422 O 1014.14 -3.39706 -2.33824 0
M  V30 10423 H 1013.48 -0.64669 -0.150626 0
M  V30 10424 H 1016.01 -2.03927 0.165873 0
M  V30 10425 H 1016.02 -3.76765 -1.56564 0
M  V30 10426 H 1014.69 -4.13208 -0.472434 0
M  V30 10427 H 1013.27 -3.13977 -2.01178 0
M  V30 10428 N 1015.45 0.186762 -1.56489 0
M  V30 10429 C 1016.68 0.920495 -1.84961 0
M  V30 10430 C 1017.09 1.77004 -0.668297 0
M  V30 10431 O 1016.44 1.79891 0.37213 0
M  V30 10432 C 1016.5 1.85997 -3.07645 0
M  V30 10433 C 1016.16 1.19156 -4.41193 0
M  V30 10434 C 1017.16 0.564446 -5.16827 0
M  V30 10435 C 1014.84 1.19292 -4.87929 0
M  V30 10436 C 1016.84 -0.0523768 -6.37378 0
M  V30 10437 C 1014.52 0.572266 -6.08415 0
M  V30 10438 C 1015.52 -0.049294 -6.82982 0
M  V30 10439 O 1015.21 -0.660201 -8.01184 0
M  V30 10440 H 1014.94 0.273659 -0.618132 0
M  V30 10441 H 1017.5 0.196437 -2.04459 0
M  V30 10442 H 1015.73 2.62394 -2.84053 0
M  V30 10443 H 1017.42 2.46221 -3.22692 0
M  V30 10444 H 1018.18 0.555474 -4.81809 0
M  V30 10445 H 1014.06 1.66611 -4.29839 0
M  V30 10446 H 1017.6 -0.538133 -6.95521 0
M  V30 10447 H 1013.5 0.578769 -6.429 0
M  V30 10448 H 1014.27 -0.557926 -8.16596 0
M  V30 10449 N 1016.93 1.50896 0.454776 0
M  V30 10450 C 1018.16 1.6648 1.22849 0
M  V30 10451 C 1018.58 0.354841 1.85435 0
M  V30 10452 O 1017.93 -0.664931 1.69956 0
M  V30 10453 C 1017.98 2.76787 2.32532 0
M  V30 10454 O 1017.7 4.02706 1.72509 0
M  V30 10455 C 1019.21 3.03488 3.23125 0
M  V30 10456 H 1016.43 0.559152 0.370932 0
M  V30 10457 H 1018.97 1.97215 0.540983 0
M  V30 10458 H 1017.12 2.48701 2.9703 0
M  V30 10459 H 1017.54 4.63834 2.44863 0
M  V30 10460 H 1019.01 3.84294 3.9626 0
M  V30 10461 H 1019.49 2.152 3.82865 0
M  V30 10462 H 1020.1 3.33167 2.64347 0
M  V30 10463 N 1018.41 -0.709066 1.40748 0
M  V30 10464 C 1019.66 -1.47119 1.39585 0
M  V30 10465 C 1019.99 -1.942 0.000245323 0
M  V30 10466 O 1019.26 -1.68609 -0.969593 0
M  V30 10467 C 1019.55 -2.69266 2.39099 0
M  V30 10468 C 1019.4 -2.28037 3.8771 0
M  V30 10469 C 1020.72 -3.71438 2.36055 0
M  V30 10470 H 1017.84 -0.533632 0.508336 0
M  V30 10471 H 1020.48 -0.808718 1.7193 0
M  V30 10472 H 1018.63 -3.25788 2.11647 0
M  V30 10473 H 1020.3 -1.76946 4.26014 0
M  V30 10474 H 1018.55 -1.59966 4.03229 0
M  V30 10475 H 1019.22 -3.15621 4.52866 0
M  V30 10476 H 1021.69 -3.24559 2.60385 0
M  V30 10477 H 1020.57 -4.54532 3.07721 0
M  V30 10478 H 1020.83 -4.20193 1.37443 0
M  V30 10479 N 1019.89 -1.26353 -0.941956 0
M  V30 10480 C 1021.14 -1.12017 -1.69056 0
M  V30 10481 C 1021.47 0.335856 -1.91274 0
M  V30 10482 O 1020.74 1.24677 -1.49285 0
M  V30 10483 C 1021.03 -1.88889 -3.06583 0
M  V30 10484 C 1020.88 -3.42394 -2.91696 0
M  V30 10485 C 1022.2 -1.68209 -4.06686 0
M  V30 10486 H 1019.32 -0.408311 -0.613556 0
M  V30 10487 H 1021.96 -1.55339 -1.09407 0
M  V30 10488 H 1020.11 -1.5207 -3.57501 0
M  V30 10489 H 1021.78 -3.88962 -2.48005 0
M  V30 10490 H 1020.02 -3.69459 -2.27338 0
M  V30 10491 H 1020.7 -3.91408 -3.89235 0
M  V30 10492 H 1023.17 -2.00286 -3.64726 0
M  V30 10493 H 1022.05 -2.24412 -5.00929 0
M  V30 10494 H 1022.31 -0.626474 -4.37639 0
M  V30 10495 N 1021.37 1.14642 -1.08144 0
M  V30 10496 C 1022.64 1.81774 -0.72232 0
M  V30 10497 C 1023.02 1.95587 0.794294 0
M  V30 10498 O 1022.37 1.51361 1.71178 0
M  V30 10499 C 1022.58 3.1763 -1.44611 0
M  V30 10500 C 1023.93 3.93161 -1.60343 0
M  V30 10501 O 1024.95 3.2721 -1.40755 0
M  V30 10502 O 1023.81 5.11422 -1.9264 0
M  V30 10503 H 1020.91 0.785733 -0.257978 0
M  V30 10504 H 1023.45 1.21683 -1.18285 0
M  V30 10505 H 1022.23 3.02723 -2.4794 0
M  V30 10506 H 1021.85 3.85412 -0.976892 0
M  V30 10507 N 1022.85 0.866709 1.31628 0
M  V30 10508 C 1023.81 0.325041 2.26883 0
M  V30 10509 C 1024.81 -0.522133 1.52087 0
M  V30 10510 O 1026 -0.331908 1.71009 0
M  V30 10511 C 1023.13 -0.538756 3.36616 0
M  V30 10512 H 1024.32 1.16592 2.76308 0
M  V30 10513 H 1021.88 0.642029 1.42505 0
M  V30 10514 H 1022.61 -1.40096 2.92478 0
M  V30 10515 H 1022.4 0.0678115 3.92041 0
M  V30 10516 H 1023.89 -0.910123 4.07562 0
M  V30 10517 N 1024.32 -1.44642 0.625825 0
M  V30 10518 C 1025.25 -2.33397 -0.0692188 0
M  V30 10519 C 1026.23 -1.47898 -0.840241 0
M  V30 10520 O 1027.42 -1.7663 -0.807176 0
M  V30 10521 C 1024.55 -3.30888 -1.055 0
M  V30 10522 C 1023.5 -4.26164 -0.395968 0
M  V30 10523 C 1022.83 -5.13483 -1.49128 0
M  V30 10524 C 1024.13 -5.17663 0.694433 0
M  V30 10525 H 1025.82 -2.91763 0.671925 0
M  V30 10526 H 1023.37 -1.40294 0.324573 0
M  V30 10527 H 1025.32 -3.91861 -1.54993 0
M  V30 10528 H 1024.05 -2.7072 -1.82696 0
M  V30 10529 H 1022.71 -3.66516 0.0782691 0
M  V30 10530 H 1022.35 -4.49672 -2.25399 0
M  V30 10531 H 1022.05 -5.78038 -1.05573 0
M  V30 10532 H 1023.58 -5.77327 -1.98813 0
M  V30 10533 H 1024.99 -5.72602 0.282818 0
M  V30 10534 H 1023.39 -5.90793 1.05281 0
M  V30 10535 H 1024.46 -4.58994 1.56372 0
M  V30 10536 N 1025.8 -0.366053 -1.5329 0
M  V30 10537 C 1027.05 0.223824 -2.01561 0
M  V30 10538 C 1027.38 1.48382 -1.25286 0
M  V30 10539 O 1026.66 1.91385 -0.34669 0
M  V30 10540 C 1026.94 0.5153 -3.56394 0
M  V30 10541 C 1026.79 -0.758357 -4.43361 0
M  V30 10542 C 1028.11 1.31568 -4.19974 0
M  V30 10543 H 1025.23 0.0798751 -0.732659 0
M  V30 10544 H 1027.87 -0.491038 -1.83545 0
M  V30 10545 H 1026.02 1.12429 -3.71876 0
M  V30 10546 H 1027.69 -1.39584 -4.39675 0
M  V30 10547 H 1025.94 -1.37862 -4.11311 0
M  V30 10548 H 1026.61 -0.509366 -5.49645 0
M  V30 10549 H 1029.08 0.800514 -4.08327 0
M  V30 10550 H 1027.96 1.48837 -5.28336 0
M  V30 10551 H 1028.22 2.32432 -3.76069 0
M  V30 10552 N 1027.28 1.57312 -0.0952337 0
M  V30 10553 C 1028.7 1.57445 0.261416 0
M  V30 10554 C 1028.9 1.10639 1.68408 0
M  V30 10555 O 1027.95 0.782912 2.40056 0
M  V30 10556 C 1029.26 3.00659 0.0497206 0
M  V30 10557 C 1030.81 3.1278 0.117459 0
M  V30 10558 C 1031.29 4.57952 -0.0662441 0
M  V30 10559 N 1032.78 4.63199 -0.0114146 0
M  V30 10560 C 1033.51 5.73255 -0.128799 0
M  V30 10561 N 1033.01 6.92146 -0.301026 0
M  V30 10562 N 1034.8 5.62056 -0.0700599 0
M  V30 10563 H 1026.95 1.86045 -1.02475 0
M  V30 10564 H 1029.22 0.858726 -0.401614 0
M  V30 10565 H 1028.92 3.39102 -0.932888 0
M  V30 10566 H 1028.8 3.68792 0.791975 0
M  V30 10567 H 1031.18 2.74209 1.09057 0
M  V30 10568 H 1031.26 2.47238 -0.656288 0
M  V30 10569 H 1030.91 4.97217 -1.03623 0
M  V30 10570 H 1030.84 5.21555 0.727198 0
M  V30 10571 H 1033.33 3.77712 0.119154 0
M  V30 10572 H 1033.64 7.71855 -0.382104 0
M  V30 10573 H 1031.99 6.94184 -0.336695 0
M  V30 10574 H 1035.18 4.68057 0.0633587 0
M  V30 10575 H 1035.35 6.4779 -0.164991 0
M  V30 10576 N 1028.76 -0.17846 1.56586 0
M  V30 10577 C 1029.99 -0.910674 1.85446 0
M  V30 10578 C 1030.4 -1.76647 0.677675 0
M  V30 10579 O 1029.74 -1.80086 -0.362584 0
M  V30 10580 C 1029.8 -1.84363 3.08627 0
M  V30 10581 C 1029.46 -1.16814 4.41818 0
M  V30 10582 C 1030.46 -0.53703 5.17119 0
M  V30 10583 C 1028.15 -1.16703 4.88555 0
M  V30 10584 C 1030.14 0.0861778 6.37342 0
M  V30 10585 C 1027.83 -0.539992 6.0871 0
M  V30 10586 C 1028.83 0.0855135 6.82946 0
M  V30 10587 O 1028.51 0.70268 8.00823 0
M  V30 10588 H 1028.25 -0.270377 0.619574 0
M  V30 10589 H 1030.8 -0.185591 2.0456 0
M  V30 10590 H 1029.03 -2.60884 2.85441 0
M  V30 10591 H 1030.72 -2.44506 3.23993 0
M  V30 10592 H 1031.48 -0.529915 4.82096 0
M  V30 10593 H 1027.36 -1.64329 4.30717 0
M  V30 10594 H 1030.91 0.575011 6.95226 0
M  V30 10595 H 1026.8 -0.544666 6.43198 0
M  V30 10596 H 1027.57 0.601224 8.16289 0
M  V30 10597 N 1030.24 -1.51135 -0.446768 0
M  V30 10598 C 1031.51 -1.5387 -1.20762 0
M  V30 10599 C 1031.89 -0.297446 -2.08994 0
M  V30 10600 O 1031.24 0.717975 -2.16927 0
M  V30 10601 C 1031.45 -2.84767 -2.01764 0
M  V30 10602 C 1032.8 -3.3636 -2.59128 0
M  V30 10603 O 1033.82 -2.86254 -2.11984 0
M  V30 10604 O 1032.68 -4.23765 -3.45088 0
M  V30 10605 H 1029.78 -0.618228 -0.549293 0
M  V30 10606 H 1032.32 -1.63442 -0.456605 0
M  V30 10607 H 1031.09 -3.6657 -1.36901 0
M  V30 10608 H 1030.72 -2.78313 -2.8395 0
M  V30 10609 N 1031.71 0.701592 -1.41122 0
M  V30 10610 C 1032.64 1.82815 -1.45262 0
M  V30 10611 C 1033.62 1.67215 -0.311939 0
M  V30 10612 O 1034.81 1.87038 -0.522538 0
M  V30 10613 C 1031.94 3.20899 -1.32819 0
M  V30 10614 C 1030.89 3.51194 -2.44636 0
M  V30 10615 C 1030.22 4.8857 -2.17263 0
M  V30 10616 C 1031.52 3.50777 -3.86979 0
M  V30 10617 H 1033.21 1.79608 -2.39544 0
M  V30 10618 H 1030.76 0.862693 -1.15298 0
M  V30 10619 H 1032.71 3.99417 -1.34329 0
M  V30 10620 H 1031.44 3.24717 -0.350191 0
M  V30 10621 H 1030.1 2.75024 -2.42399 0
M  V30 10622 H 1029.74 4.89007 -1.17819 0
M  V30 10623 H 1029.44 5.09805 -2.92186 0
M  V30 10624 H 1030.97 5.69405 -2.20478 0
M  V30 10625 H 1032.38 4.19309 -3.90964 0
M  V30 10626 H 1030.78 3.83542 -4.61536 0
M  V30 10627 H 1031.85 2.49873 -4.15562 0
M  V30 10628 N 1033.19 1.2685 0.935242 0
M  V30 10629 C 1034.15 1.08975 2.01636 0
M  V30 10630 C 1035.15 0.0361543 1.60759 0
M  V30 10631 O 1036.34 0.280087 1.71934 0
M  V30 10632 C 1033.48 0.658831 3.34473 0
M  V30 10633 H 1034.67 2.04968 2.18925 0
M  V30 10634 H 1032.22 1.09531 1.11501 0
M  V30 10635 H 1032.96 -0.302824 3.22883 0
M  V30 10636 H 1032.74 1.41967 3.65497 0
M  V30 10637 H 1034.23 0.555783 4.13885 0
M  V30 10638 N 1034.67 -1.14067 1.0875 0
M  V30 10639 C 1036.09 -1.37173 0.815823 0
M  V30 10640 C 1036.29 -1.93175 -0.573215 0
M  V30 10641 O 1035.34 -2.14672 -1.32937 0
M  V30 10642 C 1036.66 -2.32955 1.90138 0
M  V30 10643 C 1038.2 -2.46586 1.9278 0
M  V30 10644 C 1038.68 -3.4567 3.0046 0
M  V30 10645 N 1040.17 -3.53216 2.99655 0
M  V30 10646 C 1040.9 -4.29743 3.79616 0
M  V30 10647 N 1040.4 -5.09484 4.69466 0
M  V30 10648 N 1042.19 -4.24975 3.67903 0
M  V30 10649 H 1034.34 -0.760648 1.98313 0
M  V30 10650 H 1036.61 -0.397135 0.860807 0
M  V30 10651 H 1036.31 -1.98949 2.90021 0
M  V30 10652 H 1036.19 -3.32897 1.77368 0
M  V30 10653 H 1038.57 -2.79882 0.935404 0
M  V30 10654 H 1038.66 -1.46593 2.09629 0
M  V30 10655 H 1038.3 -3.13106 3.99909 0
M  V30 10656 H 1038.23 -4.45452 2.80856 0
M  V30 10657 H 1040.72 -2.96314 2.34535 0
M  V30 10658 H 1041.03 -5.65163 5.27077 0
M  V30 10659 H 1039.38 -5.08741 4.73506 0
M  V30 10660 H 1042.57 -3.61751 2.97075 0
M  V30 10661 H 1042.74 -4.84364 4.30459 0
M  V30 10662 N 1036.15 -0.873678 -1.31166 0
M  V30 10663 C 1037.39 -0.487178 -1.96861 0
M  V30 10664 C 1037.73 0.95887 -1.68877 0
M  V30 10665 O 1037 1.6758 -0.987279 0
M  V30 10666 C 1037.29 -0.74925 -3.52219 0
M  V30 10667 C 1037.14 -2.2451 -3.89763 0
M  V30 10668 C 1038.46 -0.218194 -4.39559 0
M  V30 10669 H 1035.58 -0.178477 -0.715063 0
M  V30 10670 H 1038.22 -1.0956 -1.55231 0
M  V30 10671 H 1036.37 -0.231403 -3.8781 0
M  V30 10672 H 1038.04 -2.83049 -3.64254 0
M  V30 10673 H 1036.28 -2.71621 -3.38237 0
M  V30 10674 H 1036.95 -2.37911 -4.98099 0
M  V30 10675 H 1039.43 -0.661274 -4.10812 0
M  V30 10676 H 1038.31 -0.430983 -5.47205 0
M  V30 10677 H 1038.57 0.880056 -4.33252 0
M  V30 10678 N 1037.63 1.44308 -0.633487 0
M  V30 10679 C 1038.87 2.01624 -0.138643 0
M  V30 10680 C 1039.2 1.50101 1.24477 0
M  V30 10681 O 1038.47 0.705575 1.82752 0
M  V30 10682 H 1037.05 0.745439 -0.0482636 0
M  V30 10683 H 1039.71 1.76777 -0.820719 0
M  V30 10684 H 1038.8 3.11913 -0.108136 0
M  V30 10685 N 1039.1 0.374177 1.53094 0
M  V30 10686 C 1040.04 -0.511995 2.22382 0
M  V30 10687 C 1041.02 -1.07617 1.2189 0
M  V30 10688 O 1042.2 -1.13068 1.50824 0
M  V30 10689 C 1039.33 -1.70724 2.92525 0
M  V30 10690 C 1038.37 -1.26972 4.07161 0
M  V30 10691 S 1039.21 -0.263835 5.3485 0
M  V30 10692 C 1040.36 -1.46521 6.08508 0
M  V30 10693 H 1040.59 0.0764311 2.97202 0
M  V30 10694 H 1038.13 0.158307 1.53586 0
M  V30 10695 H 1040.09 -2.39279 3.3355 0
M  V30 10696 H 1038.75 -2.26693 2.17414 0
M  V30 10697 H 1037.94 -2.16172 4.55286 0
M  V30 10698 H 1037.54 -0.663273 3.68072 0
M  V30 10699 H 1039.83 -2.39483 6.33762 0
M  V30 10700 H 1040.78 -1.02517 7.0064 0
M  V30 10701 H 1041.18 -1.67516 5.39072 0
M  V30 10702 N 1040.58 -1.57259 0.103575 0
M  V30 10703 C 1041.55 -2.13337 -0.837859 0
M  V30 10704 C 1042.55 -1.06459 -1.20512 0
M  V30 10705 O 1043.74 -1.32307 -1.13316 0
M  V30 10706 C 1040.87 -2.66093 -2.13089 0
M  V30 10707 H 1042.06 -2.97842 -0.350775 0
M  V30 10708 H 1039.61 -1.55621 -0.145511 0
M  V30 10709 H 1040.35 -1.85133 -2.66264 0
M  V30 10710 H 1040.13 -3.44244 -1.87719 0
M  V30 10711 H 1041.62 -3.09443 -2.80419 0
M  V30 10712 N 1042.06 0.170153 -1.56679 0
M  V30 10713 C 1043.31 0.884841 -1.817 0
M  V30 10714 C 1043.63 1.82731 -0.680763 0
M  V30 10715 O 1042.9 1.936 0.299294 0
M  V30 10716 H 1041.48 0.329738 -0.670285 0
M  V30 10717 H 1044.14 0.169691 -1.9416 0
M  V30 10718 H 1043.24 1.46104 -2.7579 0
M  V30 10719 N 1043.54 1.5137 0.438746 0
M  V30 10720 C 1044.76 1.68058 1.21537 0
M  V30 10721 C 1045.19 0.376787 1.84288 0
M  V30 10722 O 1044.55 -0.662911 1.68746 0
M  V30 10723 C 1044.59 2.79684 2.27616 0
M  V30 10724 O 1043.7 2.43189 3.33066 0
M  V30 10725 H 1043.04 0.560408 0.356144 0
M  V30 10726 H 1045.57 1.97926 0.518311 0
M  V30 10727 H 1045.58 3.03726 2.72423 0
M  V30 10728 H 1044.25 3.74293 1.81321 0
M  V30 10729 H 1042.83 2.29713 2.93746 0
M  V30 10730 N 1045.02 -0.694098 1.41492 0
M  V30 10731 C 1045.96 -1.82932 1.43662 0
M  V30 10732 C 1046.96 -1.66455 0.31449 0
M  V30 10733 O 1048.16 -1.73298 0.486589 0
M  V30 10734 H 1044.54 -0.602847 0.449533 0
M  V30 10735 H 1046.51 -1.78218 2.39334 0
M  V30 10736 C 1045.26 -3.20962 1.33712 0
M  V30 10737 H 1044.58 -3.34257 2.19345 0
M  V30 10738 H 1046.02 -4.00467 1.39291 0
M  V30 10739 C 1044.48 -3.36863 0.0496332 0
M  V30 10740 O 1045.01 -3.91371 -0.905093 0
M  V30 10741 N 1043.22 -2.90588 -0.0269299 0
M  V30 10742 H 1042.76 -2.46417 0.750752 0
M  V30 10743 H 1042.72 -3.01605 -0.887781 0
M  V30 10744 N 1046.49 -1.27344 -0.928501 0
M  V30 10745 C 1047.74 -1.13804 -1.67859 0
M  V30 10746 C 1048.07 0.31555 -1.91619 0
M  V30 10747 O 1047.35 1.23087 -1.50599 0
M  V30 10748 C 1047.63 -1.9213 -3.04562 0
M  V30 10749 C 1047.48 -3.45468 -2.88048 0
M  V30 10750 C 1048.8 -1.72513 -4.04879 0
M  V30 10751 H 1045.92 -0.414796 -0.609191 0
M  V30 10752 H 1048.56 -1.5649 -1.07753 0
M  V30 10753 H 1046.71 -1.55853 -3.55868 0
M  V30 10754 H 1048.39 -3.9157 -2.43865 0
M  V30 10755 H 1046.63 -3.71849 -2.23407 0
M  V30 10756 H 1047.3 -3.95515 -3.85061 0
M  V30 10757 H 1049.78 -2.04143 -3.62581 0
M  V30 10758 H 1048.65 -2.29713 -4.98521 0
M  V30 10759 H 1048.91 -0.672856 -4.3695 0
M  V30 10760 N 1047.97 1.13488 -1.09353 0
M  V30 10761 C 1048.94 2.17066 -0.735863 0
M  V30 10762 C 1049.94 1.59086 0.234181 0
M  V30 10763 O 1051.13 1.74196 0.012463 0
M  V30 10764 C 1048.26 3.40786 -0.0880975 0
M  V30 10765 H 1049.45 2.50221 -1.65316 0
M  V30 10766 H 1047 1.28304 -0.89263 0
M  V30 10767 H 1047.74 3.1322 0.840462 0
M  V30 10768 H 1047.52 3.8414 -0.786073 0
M  V30 10769 H 1049.01 4.17342 0.146775 0
M  V30 10770 N 1049.45 0.880621 1.30701 0
M  V30 10771 C 1050.38 0.360251 2.30704 0
M  V30 10772 C 1051.36 -0.554572 1.60806 0
M  V30 10773 O 1052.55 -0.469345 1.88443 0
M  V30 10774 C 1049.68 -0.429888 3.44629 0
M  V30 10775 C 1048.63 0.392786 4.26194 0
M  V30 10776 C 1047.96 -0.52369 5.32129 0
M  V30 10777 C 1049.26 1.63258 4.96129 0
M  V30 10778 H 1050.95 1.19591 2.74478 0
M  V30 10779 H 1048.5 0.576508 1.31956 0
M  V30 10780 H 1050.45 -0.804532 4.13649 0
M  V30 10781 H 1049.17 -1.29916 2.99649 0
M  V30 10782 H 1047.83 0.749514 3.58856 0
M  V30 10783 H 1047.48 -1.39054 4.83397 0
M  V30 10784 H 1047.18 0.0229272 5.87596 0
M  V30 10785 H 1048.71 -0.894946 6.04006 0
M  V30 10786 H 1050.12 1.32877 5.57689 0
M  V30 10787 H 1048.52 2.11906 5.61441 0
M  V30 10788 H 1049.59 2.37944 4.22505 0
M  V30 10789 N 1050.93 -1.4397 0.641131 0
M  V30 10790 C 1051.88 -2.2786 -0.079879 0
M  V30 10791 C 1052.86 -1.39227 -0.80651 0
M  V30 10792 O 1054.06 -1.62956 -0.690969 0
M  V30 10793 C 1051.18 -3.26722 -1.05394 0
M  V30 10794 C 1050.27 -4.22842 -0.326411 0
M  V30 10795 N 1050.66 -5.016 0.650464 0
M  V30 10796 C 1048.96 -4.42349 -0.569507 0
M  V30 10797 C 1049.66 -5.71563 1.08121 0
M  V30 10798 N 1048.64 -5.41991 0.417932 0
M  V30 10799 H 1052.44 -2.86163 0.669906 0
M  V30 10800 H 1049.95 -1.55528 0.467433 0
M  V30 10801 H 1051.95 -3.85588 -1.58517 0
M  V30 10802 H 1050.61 -2.69979 -1.80392 0
M  V30 10803 H 1051.62 -5.07581 1.0287 0
M  V30 10804 H 1048.3 -3.96693 -1.30159 0
M  V30 10805 H 1049.69 -6.44805 1.88883 0
M  V30 10806 N 1052.41 -0.382291 -1.52893 0
M  V30 10807 C 1053.65 0.202433 -2.01787 0
M  V30 10808 C 1053.99 1.47044 -1.26853 0
M  V30 10809 O 1053.26 1.91007 -0.366969 0
M  V30 10810 C 1053.54 0.477471 -3.5692 0
M  V30 10811 C 1053.4 -0.805339 -4.42532 0
M  V30 10812 C 1054.72 1.27106 -4.21346 0
M  V30 10813 H 1051.84 0.0720998 -0.733465 0
M  V30 10814 H 1054.48 -0.510478 -1.83014 0
M  V30 10815 H 1052.63 1.08478 -3.73048 0
M  V30 10816 H 1054.3 -1.4424 -4.3817 0
M  V30 10817 H 1052.54 -1.42216 -4.09826 0
M  V30 10818 H 1053.21 -0.567635 -5.49074 0
M  V30 10819 H 1055.69 0.757161 -4.09153 0
M  V30 10820 H 1054.57 1.43225 -5.29885 0
M  V30 10821 H 1054.83 2.28431 -3.78513 0
M  V30 10822 N 1053.89 1.57202 -0.111913 0
M  V30 10823 C 1054.83 2.16186 0.858286 0
M  V30 10824 C 1055.83 1.10917 1.28039 0
M  V30 10825 O 1057.03 1.29233 1.25295 0
M  V30 10826 H 1053.41 0.691777 0.29487 0
M  V30 10827 H 1055.38 2.96499 0.336265 0
M  V30 10828 C 1054.13 2.77024 2.10127 0
M  V30 10829 H 1053.45 3.5772 1.78539 0
M  V30 10830 H 1054.89 3.21841 2.76033 0
M  V30 10831 C 1053.35 1.73752 2.88638 0
M  V30 10832 O 1053.88 1.18659 3.83774 0
M  V30 10833 N 1052.09 1.43855 2.52496 0
M  V30 10834 H 1051.63 1.88846 1.75199 0
M  V30 10835 H 1051.59 0.749985 3.05324 0
M  V30 10836 N 1055.36 -0.161842 1.56767 0
M  V30 10837 C 1056.31 -1.21948 1.98069 0
M  V30 10838 C 1057.31 -1.45303 0.870835 0
M  V30 10839 O 1058.51 -1.45771 1.05598 0
M  V30 10840 H 1054.89 -0.410145 0.630306 0
M  V30 10841 H 1056.86 -0.844336 2.86205 0
M  V30 10842 C 1055.61 -2.549 2.36477 0
M  V30 10843 H 1054.93 -2.37755 3.21423 0
M  V30 10844 H 1056.37 -3.27568 2.69212 0
M  V30 10845 C 1054.83 -3.14353 1.21176 0
M  V30 10846 O 1055.36 -3.98519 0.504499 0
M  V30 10847 N 1053.56 -2.73582 0.979855 0
M  V30 10848 H 1053.11 -2.05239 1.55675 0
M  V30 10849 H 1053.07 -3.13696 0.21025 0
M  V30 10850 N 1056.84 -1.516 -0.430713 0
M  V30 10851 C 1057.77 -1.76342 -1.53054 0
M  V30 10852 C 1058.75 -0.61349 -1.58652 0
M  V30 10853 O 1059.94 -0.856888 -1.74273 0
M  V30 10854 C 1057.07 -1.8945 -2.91077 0
M  V30 10855 C 1056.02 -3.04928 -3.00339 0
M  V30 10856 C 1055.35 -3.03228 -4.40405 0
M  V30 10857 C 1056.65 -4.44777 -2.73808 0
M  V30 10858 H 1058.34 -2.68435 -1.326 0
M  V30 10859 H 1055.89 -1.29171 -0.636466 0
M  V30 10860 H 1057.84 -2.05343 -3.67984 0
M  V30 10861 H 1056.56 -0.940114 -3.12777 0
M  V30 10862 H 1055.22 -2.88751 -2.25872 0
M  V30 10863 H 1054.87 -2.05553 -4.59083 0
M  V30 10864 H 1054.57 -3.80776 -4.47531 0
M  V30 10865 H 1056.1 -3.21222 -5.19277 0
M  V30 10866 H 1057.51 -4.6127 -3.40445 0
M  V30 10867 H 1055.91 -5.2408 -2.92335 0
M  V30 10868 H 1056.98 -4.54358 -1.69372 0
M  V30 10869 N 1058.32 0.686584 -1.41858 0
M  V30 10870 C 1059.57 1.44665 -1.41698 0
M  V30 10871 C 1059.89 1.94478 -0.0292442 0
M  V30 10872 O 1059.15 1.70512 0.960421 0
M  V30 10873 C 1059.45 2.66793 -2.37816 0
M  V30 10874 C 1059.11 2.35587 -3.8446 0
M  V30 10875 C 1057.78 2.26788 -4.24406 0
M  V30 10876 C 1060.13 2.10028 -4.77009 0
M  V30 10877 C 1057.46 1.90538 -5.54898 0
M  V30 10878 C 1059.81 1.75285 -6.07831 0
M  V30 10879 C 1058.47 1.64987 -6.46789 0
M  V30 10880 H 1057.74 0.529367 -0.518509 0
M  V30 10881 H 1060.39 0.783938 -1.74719 0
M  V30 10882 H 1058.69 3.38041 -1.9808 0
M  V30 10883 H 1060.39 3.24953 -2.34961 0
M  V30 10884 H 1056.98 2.43334 -3.52826 0
M  V30 10885 H 1061.17 2.15766 -4.46944 0
M  V30 10886 H 1056.42 1.81125 -5.83955 0
M  V30 10887 H 1060.6 1.5453 -6.79039 0
M  V30 10888 H 1058.22 1.36667 -7.47814 0
M  V30 10889 N 1059.8 1.27835 0.921735 0
M  V30 10890 C 1061.07 1.05238 1.64877 0
M  V30 10891 C 1061.45 -0.410921 2.07062 0
M  V30 10892 O 1060.8 -1.39538 1.80946 0
M  V30 10893 C 1061.01 2.01955 2.84632 0
M  V30 10894 C 1062.36 2.31657 3.55837 0
M  V30 10895 O 1063.38 1.99975 2.94768 0
M  V30 10896 O 1062.24 2.85692 4.65878 0
M  V30 10897 H 1059.34 0.401622 0.72293 0
M  V30 10898 H 1061.88 1.39123 0.971744 0
M  V30 10899 H 1060.66 3.00614 2.50494 0
M  V30 10900 H 1060.28 1.68667 3.60052 0
M  V30 10901 N 1061.28 -1.12907 1.09954 0
M  V30 10902 C 1062.69 -1.363 0.830326 0
M  V30 10903 C 1062.89 -1.93772 -0.552694 0
M  V30 10904 O 1061.95 -2.1607 -1.30652 0
M  V30 10905 C 1063.26 -2.30925 1.92598 0
M  V30 10906 C 1064.81 -2.44528 1.95385 0
M  V30 10907 C 1065.28 -3.42464 3.0411 0
M  V30 10908 N 1066.77 -3.50018 3.03384 0
M  V30 10909 C 1067.51 -4.25693 3.84152 0
M  V30 10910 N 1067.01 -5.04476 4.74843 0
M  V30 10911 N 1068.8 -4.21049 3.7239 0
M  V30 10912 H 1060.95 -0.739571 1.99108 0
M  V30 10913 H 1063.21 -0.387983 0.86497 0
M  V30 10914 H 1062.92 -1.95861 2.92115 0
M  V30 10915 H 1062.79 -3.30997 1.80889 0
M  V30 10916 H 1065.18 -2.78875 0.965037 0
M  V30 10917 H 1065.26 -1.44361 2.11172 0
M  V30 10918 H 1064.9 -3.08847 4.03207 0
M  V30 10919 H 1064.83 -4.42448 2.85565 0
M  V30 10920 H 1067.33 -2.93809 2.37665 0
M  V30 10921 H 1067.64 -5.59541 5.33042 0
M  V30 10922 H 1065.98 -5.0369 4.78875 0
M  V30 10923 H 1069.17 -3.5858 3.00895 0
M  V30 10924 H 1069.35 -4.79771 4.35572 0
M  V30 10925 N 1062.75 -0.88754 -1.30232 0
M  V30 10926 C 1063.66 -0.360333 -2.31816 0
M  V30 10927 C 1064.68 0.538741 -1.6545 0
M  V30 10928 O 1065.86 0.431246 -1.96729 0
M  V30 10929 C 1062.92 0.414336 -3.44215 0
M  V30 10930 C 1061.98 -0.514799 -4.26202 0
M  V30 10931 C 1061.21 0.222994 -5.33234 0
M  V30 10932 O 1061.44 1.44871 -5.51696 0
M  V30 10933 O 1060.37 -0.428221 -6.00375 0
M  V30 10934 H 1064.2 -1.20279 -2.78867 0
M  V30 10935 H 1061.78 -0.651459 -1.34448 0
M  V30 10936 H 1063.66 0.852859 -4.12679 0
M  V30 10937 H 1062.34 1.23305 -2.99295 0
M  V30 10938 H 1061.25 -1.00219 -3.60426 0
M  V30 10939 H 1062.58 -1.29959 -4.74733 0
M  V30 10940 N 1064.23 1.43628 -0.648757 0
M  V30 10941 C 1065.46 2.05918 -0.167701 0
M  V30 10942 C 1065.87 1.48681 1.17006 0
M  V30 10943 O 1065.21 0.610984 1.73242 0
M  V30 10944 C 1065.28 3.595 0.00265514 0
M  V30 10945 C 1064.94 4.39295 -1.2597 0
M  V30 10946 C 1065.94 4.71643 -2.18743 0
M  V30 10947 C 1063.62 4.79379 -1.50004 0
M  V30 10948 C 1065.62 5.42978 -3.33846 0
M  V30 10949 C 1063.3 5.50459 -2.65401 0
M  V30 10950 C 1064.3 5.82181 -3.57148 0
M  V30 10951 O 1063.99 6.5181 -4.7053 0
M  V30 10952 H 1063.72 0.670619 -0.0851261 0
M  V30 10953 H 1066.27 1.85196 -0.888351 0
M  V30 10954 H 1064.5 3.7878 0.77863 0
M  V30 10955 H 1066.19 4.03503 0.440501 0
M  V30 10956 H 1066.96 4.41199 -2.01416 0
M  V30 10957 H 1062.84 4.54098 -0.794745 0
M  V30 10958 H 1066.38 5.67656 -4.05479 0
M  V30 10959 H 1062.28 5.8032 -2.82664 0
M  V30 10960 H 1063.05 6.7029 -4.69738 0
M  V30 10961 N 1065.71 0.390394 1.52688 0
M  V30 10962 C 1066.96 -0.191729 2.01892 0
M  V30 10963 C 1067.29 -1.4637 1.27631 0
M  V30 10964 O 1066.56 -1.90809 0.377094 0
M  V30 10965 C 1066.85 -0.458535 3.57169 0
M  V30 10966 C 1066.7 0.828796 4.42098 0
M  V30 10967 C 1068.02 -1.2487 4.22014 0
M  V30 10968 H 1065.14 -0.0682091 0.733837 0
M  V30 10969 H 1067.78 0.520176 1.82741 0
M  V30 10970 H 1065.93 -1.06498 3.73618 0
M  V30 10971 H 1067.6 1.46562 4.37398 0
M  V30 10972 H 1065.85 1.44388 4.09066 0
M  V30 10973 H 1066.52 0.596746 5.48765 0
M  V30 10974 H 1068.99 -0.735452 4.09549 0
M  V30 10975 H 1067.87 -1.40412 5.30637 0
M  V30 10976 H 1068.13 -2.2642 3.79719 0
M  V30 10977 N 1067.19 -1.57141 0.120249 0
M  V30 10978 C 1068.15 -2.14213 -0.815185 0
M  V30 10979 C 1069.15 -1.07731 -1.19376 0
M  V30 10980 O 1070.34 -1.33502 -1.11906 0
M  V30 10981 C 1067.47 -2.68339 -2.10255 0
M  V30 10982 H 1068.67 -2.98197 -0.319166 0
M  V30 10983 H 1066.22 -1.55767 -0.128997 0
M  V30 10984 H 1066.95 -1.87946 -2.64285 0
M  V30 10985 H 1066.74 -3.46216 -1.84057 0
M  V30 10986 H 1068.23 -3.124 -2.77121 0
M  V30 10987 N 1068.67 0.153526 -1.5685 0
M  V30 10988 C 1069.89 0.886343 -1.87507 0
M  V30 10989 C 1070.32 1.74244 -0.708565 0
M  V30 10990 O 1069.67 1.78045 0.341997 0
M  V30 10991 C 1069.72 1.72428 -3.16703 0
M  V30 10992 O 1068.83 2.82784 -3.00178 0
M  V30 10993 H 1068.17 0.247259 -0.616246 0
M  V30 10994 H 1070.7 0.146306 -2.04076 0
M  V30 10995 H 1070.71 2.12062 -3.4856 0
M  V30 10996 H 1069.38 1.09558 -4.01211 0
M  V30 10997 H 1067.96 2.46604 -2.79716 0
M  V30 10998 N 1070.14 1.51827 0.422667 0
M  V30 10999 C 1071.38 1.66888 1.18016 0
M  V30 11000 C 1071.75 0.383859 1.88124 0
M  V30 11001 O 1072.95 0.410413 2.65648 0
M  V30 11002 C 1071.22 2.84842 2.1587 0
M  V30 11003 S 1072.78 3.20312 2.99909 0
M  V30 11004 H 1069.6 0.58781 0.4 0
M  V30 11005 H 1072.2 1.89779 0.46948 0
M  V30 11006 H 1070.9 3.76629 1.63029 0
M  V30 11007 H 1070.43 2.64183 2.91497 0
M  V30 11008 H 1072.45 2.67884 4.17675 0
M  V30 11009 N 1071.62 -0.679052 1.4222 0
M  V30 11010 C 1072.87 -1.43912 1.42463 0
M  V30 11011 C 1073.2 -1.9446 0.0395574 0
M  V30 11012 O 1072.45 -1.71019 -0.951365 0
M  V30 11013 C 1072.75 -2.65528 2.39227 0
M  V30 11014 C 1072.42 -2.33545 3.85704 0
M  V30 11015 C 1071.08 -2.24534 4.25603 0
M  V30 11016 C 1073.43 -2.07496 4.78116 0
M  V30 11017 C 1070.76 -1.87592 5.55901 0
M  V30 11018 C 1073.11 -1.72059 6.08752 0
M  V30 11019 C 1071.78 -1.61555 6.47654 0
M  V30 11020 H 1071.05 -0.52661 0.521309 0
M  V30 11021 H 1073.69 -0.774661 1.75132 0
M  V30 11022 H 1072 -3.36985 1.9987 0
M  V30 11023 H 1073.69 -3.23702 2.36681 0
M  V30 11024 H 1070.28 -2.4146 3.54112 0
M  V30 11025 H 1074.47 -2.13393 4.48082 0
M  V30 11026 H 1069.72 -1.78026 5.84908 0
M  V30 11027 H 1073.9 -1.50926 6.79849 0
M  V30 11028 H 1071.53 -1.32699 7.48529 0
M  V30 11029 N 1073.1 -1.28322 -0.914942 0
M  V30 11030 C 1074.05 -1.12003 -2.03858 0
M  V30 11031 C 1075.04 -0.0396287 -1.69354 0
M  V30 11032 O 1076.25 -0.198309 -1.78904 0
M  V30 11033 H 1072.62 -0.34552 -0.667922 0
M  V30 11034 H 1074.59 -2.07168 -2.14765 0
M  V30 11035 C 1073.34 -0.797402 -3.38433 0
M  V30 11036 H 1072.67 -1.62071 -3.65476 0
M  V30 11037 H 1074.11 -0.723165 -4.17787 0
M  V30 11038 C 1072.57 0.498807 -3.33187 0
M  V30 11039 O 1073.1 1.52946 -3.71444 0
M  V30 11040 N 1071.3 0.499101 -2.86282 0
M  V30 11041 H 1070.85 -0.340056 -2.55346 0
M  V30 11042 H 1070.81 1.36641 -2.83155 0
M  V30 11043 N 1074.58 1.12322 -1.10551 0
M  V30 11044 C 1075.81 1.87679 -0.87087 0
M  V30 11045 C 1076.22 1.79711 0.578733 0
M  V30 11046 O 1075.58 1.17185 1.39907 0
M  V30 11047 C 1075.63 3.36846 -1.31213 0
M  V30 11048 O 1075.35 3.44626 -2.70489 0
M  V30 11049 C 1076.85 4.29138 -1.11156 0
M  V30 11050 H 1074.07 0.593788 -0.3125 0
M  V30 11051 H 1076.62 1.42116 -1.47048 0
M  V30 11052 H 1074.77 3.79948 -0.756169 0
M  V30 11053 H 1075.18 4.37441 -2.89389 0
M  V30 11054 H 1076.66 5.32082 -1.46944 0
M  V30 11055 H 1077.14 4.39171 -0.0502963 0
M  V30 11056 H 1077.74 3.91818 -1.65405 0
M  V30 11057 N 1076.06 0.894434 1.2976 0
M  V30 11058 C 1077.29 0.532143 1.99629 0
M  V30 11059 C 1077.69 -0.886234 1.6716 0
M  V30 11060 O 1077.04 -1.59573 0.910065 0
M  V30 11061 C 1077.1 0.638335 3.53787 0
M  V30 11062 C 1076.76 2.02273 4.09798 0
M  V30 11063 C 1077.76 2.99327 4.25087 0
M  V30 11064 C 1075.45 2.33069 4.44954 0
M  V30 11065 C 1077.44 4.25304 4.74758 0
M  V30 11066 C 1075.13 3.59289 4.94322 0
M  V30 11067 C 1076.12 4.55222 5.09178 0
M  V30 11068 O 1075.81 5.79202 5.57477 0
M  V30 11069 H 1075.54 0.203326 0.644697 0
M  V30 11070 H 1078.1 1.2043 1.6639 0
M  V30 11071 H 1076.33 -0.0908338 3.86593 0
M  V30 11072 H 1078.02 0.285956 4.04891 0
M  V30 11073 H 1078.78 2.76849 3.9822 0
M  V30 11074 H 1074.66 1.59162 4.32653 0
M  V30 11075 H 1078.21 5.00189 4.86269 0
M  V30 11076 H 1074.1 3.816 5.20626 0
M  V30 11077 H 1074.87 5.81717 5.75802 0
M  V30 11078 N 1077.53 -1.43282 0.656365 0
M  V30 11079 C 1078.78 -2.01378 0.170702 0
M  V30 11080 C 1079.1 -1.52063 -1.22073 0
M  V30 11081 O 1078.37 -0.73456 -1.81607 0
M  V30 11082 H 1076.95 -0.744577 0.0601168 0
M  V30 11083 H 1079.62 -1.75449 0.848739 0
M  V30 11084 H 1078.71 -3.11701 0.157745 0
M  V30 11085 N 1079.01 -0.398486 -1.52479 0
M  V30 11086 C 1080.25 0.180412 -2.03602 0
M  V30 11087 C 1080.62 1.43276 -1.27812 0
M  V30 11088 O 1081.82 2.08941 -1.69107 0
M  V30 11089 C 1080.09 0.432744 -3.5477 0
M  V30 11090 S 1081.65 0.980612 -4.27703 0
M  V30 11091 H 1078.47 0.0499981 -0.70924 0
M  V30 11092 H 1081.07 -0.548952 -1.87635 0
M  V30 11093 H 1079.77 -0.48568 -4.07516 0
M  V30 11094 H 1079.3 1.19028 -3.74961 0
M  V30 11095 H 1081.32 2.26216 -4.41634 0
M  V30 11096 N 1080.49 1.57075 -0.12858 0
M  V30 11097 C 1081.74 1.9552 0.527087 0
M  V30 11098 C 1082.07 1.01243 1.66072 0
M  V30 11099 O 1081.32 0.0381076 1.95663 0
M  V30 11100 C 1081.62 3.40329 1.09138 0
M  V30 11101 C 1081.29 4.50832 0.0781039 0
M  V30 11102 C 1079.95 4.80782 -0.200493 0
M  V30 11103 C 1082.3 5.17595 -0.61192 0
M  V30 11104 C 1079.63 5.74809 -1.17524 0
M  V30 11105 C 1081.98 6.12671 -1.57536 0
M  V30 11106 C 1080.64 6.41008 -1.86184 0
M  V30 11107 H 1079.91 0.715458 0.192875 0
M  V30 11108 H 1082.56 1.90328 -0.211515 0
M  V30 11109 H 1080.87 3.42262 1.90694 0
M  V30 11110 H 1082.56 3.67393 1.60696 0
M  V30 11111 H 1079.15 4.2751 0.30543 0
M  V30 11112 H 1083.34 4.94605 -0.40986 0
M  V30 11113 H 1078.59 5.95065 -1.40384 0
M  V30 11114 H 1082.77 6.63486 -2.11565 0
M  V30 11115 H 1080.39 7.13673 -2.61868 0
M  V30 11116 N 1081.97 -0.145205 1.5693 0
M  V30 11117 C 1083.22 -0.85395 1.84606 0
M  V30 11118 C 1083.57 -1.78709 0.712811 0
M  V30 11119 O 1082.86 -1.89406 -0.289108 0
M  V30 11120 C 1083.06 -1.66391 3.16305 0
M  V30 11121 C 1082.89 -0.810698 4.42332 0
M  V30 11122 C 1081.66 -0.475623 5.03057 0
M  V30 11123 C 1083.85 -0.140213 5.14109 0
M  V30 11124 N 1081.84 0.390996 6.12654 0
M  V30 11125 C 1083.21 0.586471 6.1722 0
M  V30 11126 C 1085.26 -0.0610725 4.97863 0
M  V30 11127 C 1083.97 1.38483 7.05844 0
M  V30 11128 C 1085.99 0.724026 5.86951 0
M  V30 11129 C 1085.35 1.43899 6.89545 0
M  V30 11130 H 1081.45 -0.290253 0.726138 0
M  V30 11131 H 1084.04 -0.119211 1.94335 0
M  V30 11132 H 1082.21 -2.36987 3.0772 0
M  V30 11133 H 1083.94 -2.31596 3.31882 0
M  V30 11134 H 1080.69 -0.811824 4.6659 0
M  V30 11135 H 1081.12 0.815383 6.72072 0
M  V30 11136 H 1085.76 -0.599475 4.18529 0
M  V30 11137 H 1083.48 1.93448 7.84604 0
M  V30 11138 H 1087.06 0.787276 5.76449 0
M  V30 11139 H 1085.94 2.03674 7.57289 0
M  V30 11140 N 1083.45 -1.52049 -0.414609 0
M  V30 11141 C 1084.7 -1.65511 -1.15977 0
M  V30 11142 C 1085.02 -0.384703 -1.91168 0
M  V30 11143 O 1084.29 0.600247 -1.86477 0
M  V30 11144 H 1082.87 -0.610039 -0.431116 0
M  V30 11145 H 1085.53 -1.8907 -0.473139 0
M  V30 11146 H 1084.62 -2.4936 -1.87686 0
M  V30 11147 N 1084.93 0.6715 -1.42579 0
M  V30 11148 C 1085.89 1.76676 -1.46008 0
M  V30 11149 C 1086.89 1.57007 -0.347213 0
M  V30 11150 O 1088.08 1.63238 -0.608185 0
M  V30 11151 C 1085.21 3.15348 -1.29494 0
M  V30 11152 H 1086.4 1.75021 -2.43531 0
M  V30 11153 H 1083.96 0.881444 -1.29075 0
M  V30 11154 H 1084.69 3.22626 -0.32906 0
M  V30 11155 H 1084.48 3.31028 -2.10149 0
M  V30 11156 H 1085.97 3.95251 -1.34784 0
M  V30 11157 N 1086.4 1.28806 0.908124 0
M  V30 11158 C 1087.31 1.15079 2.04436 0
M  V30 11159 C 1088.33 0.076012 1.73834 0
M  V30 11160 O 1089.51 0.286421 1.99353 0
M  V30 11161 C 1086.57 0.819733 3.3687 0
M  V30 11162 C 1085.63 1.97746 3.81045 0
M  V30 11163 C 1084.86 1.66211 5.07158 0
M  V30 11164 O 1085.09 0.579092 5.67453 0
M  V30 11165 O 1084.02 2.5075 5.47182 0
M  V30 11166 H 1087.85 2.10477 2.18937 0
M  V30 11167 H 1085.43 1.08177 1.03044 0
M  V30 11168 H 1087.31 0.649304 4.16368 0
M  V30 11169 H 1085.99 -0.10454 3.23531 0
M  V30 11170 H 1084.9 2.20308 3.02349 0
M  V30 11171 H 1086.23 2.88264 3.98955 0
M  V30 11172 N 1087.88 -1.11734 1.11145 0
M  V30 11173 C 1089.3 -1.35412 0.844736 0
M  V30 11174 C 1089.5 -1.94347 -0.532111 0
M  V30 11175 O 1088.55 -2.17443 -1.28353 0
M  V30 11176 C 1089.87 -2.28869 1.95037 0
M  V30 11177 C 1091.41 -2.42442 1.97967 0
M  V30 11178 C 1091.89 -3.39219 3.07725 0
M  V30 11179 N 1093.38 -3.4678 3.07079 0
M  V30 11180 C 1094.12 -4.21595 3.88646 0
M  V30 11181 N 1093.61 -4.99411 4.80167 0
M  V30 11182 N 1095.4 -4.17075 3.76835 0
M  V30 11183 H 1087.56 -0.718412 1.99881 0
M  V30 11184 H 1089.82 -0.378787 0.869037 0
M  V30 11185 H 1089.52 -1.92752 2.94176 0
M  V30 11186 H 1089.4 -3.2906 1.84389 0
M  V30 11187 H 1091.79 -2.77835 0.994561 0
M  V30 11188 H 1091.87 -1.42113 2.12691 0
M  V30 11189 H 1091.51 -3.04553 4.0646 0
M  V30 11190 H 1091.44 -4.39394 2.90242 0
M  V30 11191 H 1093.93 -2.91272 2.40767 0
M  V30 11192 H 1094.24 -5.53856 5.38946 0
M  V30 11193 H 1092.59 -4.98582 4.84191 0
M  V30 11194 H 1095.78 -3.55369 3.04681 0
M  V30 11195 H 1095.95 -4.75125 4.40637 0
M  V30 11196 N 1089.36 -0.901303 -1.29284 0
M  V30 11197 C 1090.29 -0.337552 -2.26701 0
M  V30 11198 C 1091.3 0.517039 -1.54371 0
M  V30 11199 O 1092.49 0.333937 -1.75349 0
M  V30 11200 C 1089.59 0.537214 -3.34615 0
M  V30 11201 C 1088.77 -0.292017 -4.36424 0
M  V30 11202 C 1087.83 0.515837 -5.23666 0
M  V30 11203 O 1086.85 -0.0672303 -5.6916 0
M  V30 11204 N 1088.05 1.82159 -5.51179 0
M  V30 11205 H 1090.82 -1.17484 -2.75713 0
M  V30 11206 H 1088.38 -0.765957 -1.42635 0
M  V30 11207 H 1090.37 1.0841 -3.8991 0
M  V30 11208 H 1088.94 1.2752 -2.85408 0
M  V30 11209 H 1088.16 -1.02031 -3.80767 0
M  V30 11210 H 1089.45 -0.859855 -5.01482 0
M  V30 11211 H 1088.85 2.318 -5.16028 0
M  V30 11212 H 1087.4 2.31556 -6.09282 0
M  V30 11213 N 1090.84 1.42931 -0.663954 0
M  V30 11214 C 1092.08 2.01982 -0.182007 0
M  V30 11215 C 1092.42 1.52323 1.20463 0
M  V30 11216 O 1091.69 0.720834 1.80649 0
M  V30 11217 C 1091.97 3.59518 -0.204671 0
M  V30 11218 C 1091.83 4.19382 -1.62599 0
M  V30 11219 C 1093.15 4.37762 0.45308 0
M  V30 11220 H 1090.27 0.733892 -0.0676115 0
M  V30 11221 H 1092.91 1.70092 -0.84668 0
M  V30 11222 H 1091.06 3.86816 0.361295 0
M  V30 11223 H 1092.73 4.03076 -2.24337 0
M  V30 11224 H 1090.97 3.75623 -2.17001 0
M  V30 11225 H 1091.64 5.28496 -1.59362 0
M  V30 11226 H 1094.12 4.1609 -0.0285774 0
M  V30 11227 H 1093 5.47392 0.406538 0
M  V30 11228 H 1093.26 4.1482 1.52895 0
M  V30 11229 N 1092.32 0.406567 1.52266 0
M  V30 11230 C 1093.56 -0.170305 2.02084 0
M  V30 11231 C 1093.89 -1.45008 1.29176 0
M  V30 11232 O 1093.17 -1.90399 0.39731 0
M  V30 11233 C 1093.45 -0.420627 3.57635 0
M  V30 11234 C 1093.31 0.87564 4.41194 0
M  V30 11235 C 1094.62 -1.20387 4.23314 0
M  V30 11236 H 1091.74 -0.0604219 0.734519 0
M  V30 11237 H 1094.39 0.539529 1.82179 0
M  V30 11238 H 1092.54 -1.0253 3.74726 0
M  V30 11239 H 1094.21 1.51192 4.35819 0
M  V30 11240 H 1092.45 1.48718 4.07511 0
M  V30 11241 H 1093.12 0.654916 5.48101 0
M  V30 11242 H 1095.6 -0.691972 4.10306 0
M  V30 11243 H 1094.47 -1.34776 5.32096 0
M  V30 11244 H 1094.73 -2.2238 3.82099 0
M  V30 11245 N 1093.79 -1.57004 0.136909 0
M  V30 11246 C 1094.76 -2.15066 -0.792419 0
M  V30 11247 C 1095.76 -1.08991 -1.18226 0
M  V30 11248 O 1096.95 -1.34681 -1.10484 0
M  V30 11249 C 1094.08 -2.70554 -2.07397 0
M  V30 11250 H 1095.27 -2.98519 -0.28752 0
M  V30 11251 H 1092.83 -1.55895 -0.112469 0
M  V30 11252 H 1093.56 -1.90739 -2.62277 0
M  V30 11253 H 1093.35 -3.48149 -1.80374 0
M  V30 11254 H 1094.84 -3.15322 -2.73792 0
M  V30 11255 N 1095.27 0.136881 -1.57004 0
M  V30 11256 C 1096.5 0.862436 -1.88068 0
M  V30 11257 C 1096.92 1.74274 -0.726227 0
M  V30 11258 O 1096.27 1.79956 0.30366 0
M  V30 11259 C 1096.32 1.71076 -3.18458 0
M  V30 11260 O 1096.04 0.865918 -4.29457 0
M  V30 11261 C 1097.55 2.54302 -3.63105 0
M  V30 11262 H 1094.77 0.248865 -0.623143 0
M  V30 11263 H 1097.31 0.126633 -2.04108 0
M  V30 11264 H 1095.46 2.39951 -3.04142 0
M  V30 11265 H 1095.88 1.4493 -5.04079 0
M  V30 11266 H 1097.35 3.09384 -4.57149 0
M  V30 11267 H 1097.83 3.3082 -2.88886 0
M  V30 11268 H 1098.44 1.907 -3.80149 0
M  V30 11269 N 1096.75 1.52266 0.40654 0
M  V30 11270 C 1097.71 1.75168 1.47814 0
M  V30 11271 C 1098.71 0.621575 1.48301 0
M  V30 11272 O 1099.9 0.889476 1.4978 0
M  V30 11273 C 1097.04 1.83642 2.87208 0
M  V30 11274 H 1098.23 2.70834 1.28798 0
M  V30 11275 H 1095.78 1.42722 0.637196 0
M  V30 11276 H 1096.52 0.898994 3.1159 0
M  V30 11277 H 1096.3 2.65801 2.88257 0
M  V30 11278 H 1097.79 2.03093 3.64888 0
M  V30 11279 N 1098.23 -0.663929 1.42933 0
M  V30 11280 C 1099.46 -1.45192 1.474 0
M  V30 11281 C 1099.87 -1.88592 0.0886014 0
M  V30 11282 O 1099.23 -1.58824 -0.898962 0
M  V30 11283 C 1099.28 -2.69394 2.41059 0
M  V30 11284 O 1099 -2.27812 3.7421 0
M  V30 11285 C 1100.5 -3.62855 2.54659 0
M  V30 11286 H 1097.72 -0.446394 0.500973 0
M  V30 11287 H 1100.27 -0.814875 1.87563 0
M  V30 11288 H 1098.42 -3.29262 2.0412 0
M  V30 11289 H 1098.83 -3.08095 4.24474 0
M  V30 11290 H 1100.31 -4.46698 3.24291 0
M  V30 11291 H 1100.79 -4.09487 1.58799 0
M  V30 11292 H 1101.39 -3.08874 2.92364 0
M  V30 11293 N 1099.71 -1.29285 -0.901281 0
M  V30 11294 C 1100.95 -1.17165 -1.65162 0
M  V30 11295 C 1101.28 0.277184 -1.92515 0
M  V30 11296 O 1100.54 1.2168 -1.53273 0
M  V30 11297 C 1100.84 -1.92865 -3.00895 0
M  V30 11298 C 1100.5 -3.42593 -2.93157 0
M  V30 11299 C 1099.16 -3.83426 -2.90754 0
M  V30 11300 C 1101.52 -4.38011 -2.82481 0
M  V30 11301 C 1098.84 -5.17997 -2.75492 0
M  V30 11302 C 1101.2 -5.7267 -2.68759 0
M  V30 11303 C 1099.86 -6.12764 -2.64721 0
M  V30 11304 H 1099.13 -0.428737 -0.604372 0
M  V30 11305 H 1101.78 -1.60204 -1.04914 0
M  V30 11306 H 1100.08 -1.42412 -3.65001 0
M  V30 11307 H 1101.78 -1.80893 -3.57881 0
M  V30 11308 H 1098.37 -3.10134 -2.95829 0
M  V30 11309 H 1102.55 -4.07417 -2.83416 0
M  V30 11310 H 1097.81 -5.48173 -2.70769 0
M  V30 11311 H 1101.98 -6.46258 -2.59469 0
M  V30 11312 H 1099.61 -7.16987 -2.52652 0
M  V30 11313 N 1101.18 1.11143 -1.11736 0
M  V30 11314 C 1102.6 1.34962 -0.851905 0
M  V30 11315 C 1102.8 1.94627 0.521797 0
M  V30 11316 O 1101.86 2.18121 1.27198 0
M  V30 11317 C 1103.17 2.27832 -1.96248 0
M  V30 11318 C 1104.72 2.41388 -1.9925 0
M  V30 11319 C 1105.19 3.37582 -3.09519 0
M  V30 11320 N 1106.68 3.45147 -3.08914 0
M  V30 11321 C 1107.42 4.19527 -3.90876 0
M  V30 11322 N 1106.91 4.96858 -4.82809 0
M  V30 11323 N 1108.71 4.15071 -3.79042 0
M  V30 11324 H 1100.86 0.707801 -2.0026 0
M  V30 11325 H 1103.12 0.374172 -0.871033 0
M  V30 11326 H 1102.83 1.91189 -2.95194 0
M  V30 11327 H 1102.7 3.28078 -1.86132 0
M  V30 11328 H 1105.09 2.77304 -1.00928 0
M  V30 11329 H 1105.17 1.40983 -2.13442 0
M  V30 11330 H 1104.81 3.02393 -4.0807 0
M  V30 11331 H 1104.74 4.37849 -2.92568 0
M  V30 11332 H 1107.23 2.89991 -2.42309 0
M  V30 11333 H 1107.55 5.5099 -5.41876 0
M  V30 11334 H 1105.89 4.96008 -4.86828 0
M  V30 11335 H 1109.08 3.53748 -3.06562 0
M  V30 11336 H 1109.26 4.72781 -4.4315 0
M  V30 11337 N 1102.66 0.908147 1.28804 0
M  V30 11338 C 1103.91 0.538404 1.95211 0
M  V30 11339 C 1104.24 -0.916886 1.71533 0
M  V30 11340 O 1103.49 -1.66643 1.02609 0
M  V30 11341 C 1103.79 0.787327 3.4862 0
M  V30 11342 C 1103.46 2.22129 3.92389 0
M  V30 11343 C 1102.12 2.61336 4.04051 0
M  V30 11344 C 1104.47 3.15471 4.14883 0
M  V30 11345 C 1101.8 3.93048 4.3558 0
M  V30 11346 C 1104.15 4.46741 4.47889 0
M  V30 11347 C 1102.82 4.85809 4.57761 0
M  V30 11348 H 1102.09 0.197016 0.714329 0
M  V30 11349 H 1104.73 1.14841 1.53244 0
M  V30 11350 H 1103.04 0.0944731 3.91686 0
M  V30 11351 H 1104.73 0.480503 3.98111 0
M  V30 11352 H 1101.32 1.90704 3.83836 0
M  V30 11353 H 1105.51 2.86391 4.05332 0
M  V30 11354 H 1100.76 4.23027 4.41428 0
M  V30 11355 H 1104.94 5.19087 4.64243 0
M  V30 11356 H 1102.57 5.87904 4.81947 0
M  V30 11357 O 1104.18 -1.39676 0.810732 0
M  V30 11358 H 1104.87 -1.89765 0.38845 0
M  V30 END ATOM
M  V30 BEGIN BOND
M  V30 END BOND
M  V30 END CTAB
M  END
$$$$
