drugbank_target|P30536 Translocator protein (DB01178; DB01198)
 OpenBabel12092119383D

  0  0  0     0  0            999 V3000
M  V30 BEGIN CTAB
M  V30 COUNTS 2647 2706 0 0 0
M  V30 BEGIN ATOM
M  V30 1 H -0.908 1.98254 -0.117106 0
M  V30 2 N 0 1.576 0 0
M  V30 3 C 0.933 2.03868 1.02534 0
M  V30 4 C 1.911 0.928543 1.3348 0
M  V30 5 O 3.095 1.19667 1.45644 0
M  V30 6 C 0.222 2.43627 2.35294 0
M  V30 7 C -0.732 3.65373 2.2001 0
M  V30 8 S 0.101 5.13292 1.52614 0
M  V30 9 C 1.257 5.56322 2.86805 0
M  V30 10 H 1.49 2.90518 0.631377 0
M  V30 11 H -0.977 1.52953 0.210867 0
M  V30 12 H 0.981 2.67203 3.11629 0
M  V30 13 H -0.358 1.57376 2.7183 0
M  V30 14 H -1.165 3.90944 3.18086 0
M  V30 15 H -1.563 3.418 1.51819 0
M  V30 16 H 0.729 5.58782 3.83104 0
M  V30 17 H 1.672 6.56266 2.65933 0
M  V30 18 H 2.08 4.83886 2.90714 0
M  V30 19 N 1.4781 -0.272755 1.55222 0
M  V30 20 C 2.4411 -1.32041 1.87344 0
M  V30 21 C 3.4411 -1.42342 0.74803 0
M  V30 22 O 4.6311 -1.41488 1.0162 0
M  V30 23 C 1.7631 -2.70173 2.07893 0
M  V30 24 H 2.9561 -1.04789 2.80997 0
M  V30 25 H 0.5091 -0.51083 1.47717 0
M  V30 26 H 1.2441 -3.02605 1.16622 0
M  V30 27 H 1.0291 -2.64082 2.89833 0
M  V30 28 H 2.5191 -3.45869 2.34017 0
M  V30 29 N 2.9562 -1.48159 -0.537278 0
M  V30 30 C 4.3672 -1.49429 -1.11928 0
M  V30 31 C 4.7182 -0.26 -1.9447 0
M  V30 32 O 3.8432 0.633489 -2.0692 0
M  V30 33 C 4.4382 -2.70758 -2.03656 0
M  V30 34 C 2.9972 -2.74923 -2.57088 0
M  V30 35 C 2.1442 -2.42835 -1.3389 0
M  V30 36 H 5.0952 -1.55381 -0.322886 0
M  V30 37 H 5.1162 -2.48861 -2.87834 0
M  V30 38 H 4.6282 -3.60575 -1.43553 0
M  V30 39 H 2.7292 -1.89296 -3.20933 0
M  V30 40 H 2.8422 -3.76157 -2.9672 0
M  V30 41 H 1.2062 -1.93836 -1.65226 0
M  V30 42 H 1.9892 -3.34884 -0.755504 0
M  V30 43 N 4.4343 0.785586 -1.36625 0
M  V30 44 C 5.8453 1.36101 -1.27803 0
M  V30 45 C 6.1963 1.96035 0.0804875 0
M  V30 46 O 5.3213 1.92834 0.982042 0
M  V30 47 C 5.9163 2.47442 -2.31426 0
M  V30 48 C 4.4753 3.00789 -2.26281 0
M  V30 49 C 3.6223 1.73896 -2.15999 0
M  V30 50 H 6.5733 0.586928 -1.47448 0
M  V30 51 H 6.5943 3.2656 -1.95291 0
M  V30 52 H 6.1063 2.03791 -3.30289 0
M  V30 53 H 4.2073 3.48851 -1.30896 0
M  V30 54 H 4.3203 3.57343 -3.19128 0
M  V30 55 H 2.6843 1.9628 -1.62316 0
M  V30 56 H 3.4673 1.32368 -3.16755 0
M  V30 57 N 5.9124 1.20967 1.01018 0
M  V30 58 C 7.1584 1.0353 1.7508 0
M  V30 59 C 7.5134 -0.42734 1.87594 0
M  V30 60 O 6.8064 -1.31298 1.3954 0
M  V30 61 C 7.0004 1.65997 3.16512 0
M  V30 62 C 6.8294 3.18184 3.17788 0
M  V30 63 C 5.5994 3.87198 3.24662 0
M  V30 64 C 7.7974 4.15334 3.03319 0
M  V30 65 N 5.7794 5.26618 3.15509 0
M  V30 66 C 7.1504 5.41472 3.02007 0
M  V30 67 C 9.2054 4.06449 2.87583 0
M  V30 68 C 7.9084 6.5975 2.86571 0
M  V30 69 C 9.9344 5.24357 2.73503 0
M  V30 70 C 9.2964 6.49404 2.72862 0
M  V30 71 H 5.3954 0.433137 0.651089 0
M  V30 72 H 7.9794 1.5324 1.20107 0
M  V30 73 H 6.1504 1.18863 3.69765 0
M  V30 74 H 7.8824 1.41816 3.79039 0
M  V30 75 H 4.6374 3.38093 3.31648 0
M  V30 76 H 5.0614 5.99626 3.14289 0
M  V30 77 H 9.7034 3.10573 2.86887 0
M  V30 78 H 7.4214 7.55792 2.86015 0
M  V30 79 H 11.0074 5.19299 2.62334 0
M  V30 80 H 9.8874 7.39105 2.62093 0
M  V30 81 N 7.3905 -1.2043 1.01659 0
M  V30 82 C 8.6365 -1.90079 0.706963 0
M  V30 83 C 8.9695 -1.78648 -0.761474 0
M  V30 84 O 8.2445 -1.17069 -1.55323 0
M  V30 85 C 8.5275 -3.41469 1.14327 0
M  V30 86 C 8.3805 -3.61833 2.67201 0
M  V30 87 C 9.6995 -4.34261 0.714529 0
M  V30 88 H 6.8185 -0.690254 0.2583 0
M  V30 89 H 9.4605 -1.41826 1.26433 0
M  V30 90 H 7.6105 -3.82696 0.669056 0
M  V30 91 H 9.2825 -3.2986 3.22475 0
M  V30 92 H 7.5255 -3.05304 3.08175 0
M  V30 93 H 8.1965 -4.67955 2.92783 0
M  V30 94 H 10.6725 -4.00682 1.12221 0
M  V30 95 H 9.5485 -5.38806 1.04784 0
M  V30 96 H 9.8095 -4.40431 -0.383799 0
M  V30 97 N 8.8686 -0.792821 -1.36206 0
M  V30 98 C 10.2796 -0.429513 -1.81692 0
M  V30 99 C 10.6306 1.04695 -1.65932 0
M  V30 100 O 9.7556 1.81256 -1.18218 0
M  V30 101 C 10.3506 -0.772831 -3.29868 0
M  V30 102 C 8.9096 -0.462307 -3.7355 0
M  V30 103 C 8.0566 -1.00569 -2.5842 0
M  V30 104 H 11.0076 -0.985672 -1.24379 0
M  V30 105 H 11.0286 -0.0651928 -3.80444 0
M  V30 106 H 10.5406 -1.84747 -3.41307 0
M  V30 107 H 8.6416 0.604158 -3.67669 0
M  V30 108 H 8.7546 -0.985299 -4.68859 0
M  V30 109 H 7.1186 -0.428734 -2.51066 0
M  V30 110 H 7.9016 -2.08616 -2.72643 0
M  V30 111 N 10.3467 1.47872 -0.545128 0
M  V30 112 C 11.3097 2.28337 0.198717 0
M  V30 113 C 12.3097 1.36255 0.853888 0
M  V30 114 O 13.4997 1.59003 0.711606 0
M  V30 115 C 10.6317 3.15585 1.28915 0
M  V30 116 H 11.8247 2.95567 -0.507941 0
M  V30 117 H 9.3777 1.53362 -0.301616 0
M  V30 118 H 10.1127 2.53019 2.02859 0
M  V30 119 H 9.8977 3.83337 0.824309 0
M  V30 120 H 11.3877 3.76243 1.81194 0
M  V30 121 N 11.8248 0.280983 1.55075 0
M  V30 122 C 12.7578 -0.645439 2.18882 0
M  V30 123 C 13.7358 -1.14786 1.15165 0
M  V30 124 O 14.9198 -1.21975 1.43716 0
M  V30 125 C 12.0468 -1.88088 2.81674 0
M  V30 126 C 11.0928 -1.51343 3.98745 0
M  V30 127 S 11.9258 -0.586548 5.32278 0
M  V30 128 C 13.0818 -1.83024 5.98543 0
M  V30 129 H 13.3148 -0.1033 2.9712 0
M  V30 130 H 10.8478 0.0652099 1.54262 0
M  V30 131 H 12.8058 -2.58997 3.18482 0
M  V30 132 H 11.4668 -2.39417 2.03318 0
M  V30 133 H 10.6598 -2.43289 4.41392 0
M  V30 134 H 10.2618 -0.884477 3.63391 0
M  V30 135 H 12.5538 -2.77342 6.18133 0
M  V30 136 H 13.4968 -1.44668 6.93164 0
M  V30 137 H 13.9048 -1.99785 5.27964 0
M  V30 138 N 13.3029 -1.57598 0.00835791 0
M  V30 139 C 14.5509 -1.90551 -0.6734 0
M  V30 140 C 14.8719 -0.883301 -1.73847 0
M  V30 141 O 14.1419 0.0781442 -1.95744 0
M  V30 142 H 12.7219 -0.703312 -0.251717 0
M  V30 143 H 15.3839 -1.94833 0.0512592 0
M  V30 144 H 14.4799 -2.9056 -1.13935 0
M  V30 145 N 14.781 0.264519 -1.55364 0
M  V30 146 C 16.028 0.994986 -1.7637 0
M  V30 147 C 16.356 1.85976 -0.5695 0
M  V30 148 O 15.611 1.90509 0.44776 0
M  V30 149 C 15.91 1.9004 -3.02687 0
M  V30 150 C 15.576 1.19243 -4.34847 0
M  V30 151 C 14.238 0.996709 -4.70764 0
M  V30 152 C 16.59 0.689296 -5.16622 0
M  V30 153 C 13.918 0.285261 -5.86006 0
M  V30 154 C 16.27 -0.00860079 -6.32599 0
M  V30 155 C 14.934 -0.215963 -6.67151 0
M  V30 156 H 14.204 0.364091 -0.645383 0
M  V30 157 H 16.851 0.266543 -1.89636 0
M  V30 158 H 15.156 2.69533 -2.84357 0
M  V30 159 H 16.853 2.46695 -3.16137 0
M  V30 160 H 13.443 1.3549 -4.06621 0
M  V30 161 H 17.627 0.828108 -4.89342 0
M  V30 162 H 12.883 0.113961 -6.11294 0
M  V30 163 H 17.057 -0.406186 -6.95214 0
M  V30 164 H 14.684 -0.769217 -7.56298 0
M  V30 165 N 16.2591 1.48442 0.529413 0
M  V30 166 C 17.4871 1.60151 1.30994 0
M  V30 167 C 17.9021 0.261985 1.86973 0
M  V30 168 O 17.2591 -0.748805 1.66431 0
M  V30 169 C 17.3101 2.64854 2.46038 0
M  V30 170 O 17.0311 3.93608 1.92365 0
M  V30 171 C 18.5321 2.87007 3.37849 0
M  V30 172 H 15.7521 0.539971 0.398338 0
M  V30 173 H 18.2961 1.94273 0.638597 0
M  V30 174 H 16.4511 2.33589 3.09055 0
M  V30 175 H 16.8651 4.51055 2.67675 0
M  V30 176 H 18.3391 3.64068 4.14919 0
M  V30 177 H 18.8161 1.95852 3.93114 0
M  V30 178 H 19.4221 3.19579 2.80623 0
M  V30 179 N 17.7372 -0.778329 1.37039 0
M  V30 180 C 18.6672 -1.90546 1.34962 0
M  V30 181 C 19.6482 -1.68681 0.219274 0
M  V30 182 O 20.8332 -1.89634 0.418624 0
M  V30 183 C 17.9632 -3.27734 1.14925 0
M  V30 184 C 16.9172 -3.64147 2.24902 0
M  V30 185 C 16.2432 -4.99806 1.89996 0
M  V30 186 C 17.5432 -3.71579 3.67051 0
M  V30 187 H 19.2372 -1.92541 2.29277 0
M  V30 188 H 16.7832 -0.924948 1.10366 0
M  V30 189 H 18.7362 -4.06215 1.12104 0
M  V30 190 H 17.4602 -3.26154 0.170631 0
M  V30 191 H 16.1192 -2.8797 2.26868 0
M  V30 192 H 15.7672 -4.94759 0.906796 0
M  V30 193 H 15.4672 -5.25139 2.63634 0
M  V30 194 H 16.9912 -5.80694 1.88749 0
M  V30 195 H 18.4052 -4.40227 3.67251 0
M  V30 196 H 16.8022 -4.08405 4.39688 0
M  V30 197 H 17.8722 -2.72404 4.01154 0
M  V30 198 N 19.2153 -1.21501 -1.00376 0
M  V30 199 C 20.1783 -0.976927 -2.07337 0
M  V30 200 C 21.1783 0.0525322 -1.60714 0
M  V30 201 O 22.3683 -0.184869 -1.73216 0
M  V30 202 C 19.5003 -0.473423 -3.37597 0
M  V30 203 H 20.6933 -1.92587 -2.29892 0
M  V30 204 H 18.2463 -1.03217 -1.17371 0
M  V30 205 H 18.9813 0.480379 -3.20722 0
M  V30 206 H 18.7663 -1.216 -3.72768 0
M  V30 207 H 20.2563 -0.32675 -4.1632 0
M  V30 208 N 20.6934 1.19889 -1.02296 0
M  V30 209 C 22.1044 1.71124 -0.746568 0
M  V30 210 C 22.4554 1.81939 0.734335 0
M  V30 211 O 21.5804 1.48639 1.57275 0
M  V30 212 C 22.1754 3.10804 -1.34857 0
M  V30 213 C 20.7344 3.59323 -1.1209 0
M  V30 214 C 19.8814 2.3635 -1.45031 0
M  V30 215 H 22.8324 1.04813 -1.19163 0
M  V30 216 H 22.8534 3.73186 -0.742437 0
M  V30 217 H 22.3654 3.029 -2.42638 0
M  V30 218 H 20.4664 3.7255 -0.0610337 0
M  V30 219 H 20.5794 4.4378 -1.80544 0
M  V30 220 H 18.9434 2.39399 -0.869487 0
M  V30 221 H 19.7264 2.31081 -2.53883 0
M  V30 222 N 22.1715 0.800033 1.35784 0
M  V30 223 C 23.3965 0.388511 2.03729 0
M  V30 224 C 23.8215 -0.990481 1.5991 0
M  V30 225 O 23.1795 -1.64013 0.772612 0
M  V30 226 C 23.2275 0.4726 3.5749 0
M  V30 227 O 22.3315 -0.51646 4.09153 0
M  V30 228 H 21.6725 0.163271 0.643614 0
M  V30 229 H 24.2025 1.0841 1.73518 0
M  V30 230 H 24.2125 0.34003 4.06581 0
M  V30 231 H 22.8875 1.47848 3.88734 0
M  V30 232 H 21.4645 -0.344673 3.71304 0
M  V30 233 N 23.6496 -1.47581 0.552962 0
M  V30 234 C 24.5796 -2.32762 -0.185451 0
M  V30 235 C 25.5606 -1.43527 -0.912905 0
M  V30 236 O 26.7456 -1.72388 -0.894201 0
M  V30 237 C 23.8756 -3.25219 -1.21859 0
M  V30 238 C 22.8296 -4.23661 -0.607864 0
M  V30 239 C 22.1556 -5.05413 -1.74533 0
M  V30 240 C 23.4556 -5.20481 0.435582 0
M  V30 241 H 25.1496 -2.94749 0.525684 0
M  V30 242 H 22.6956 -1.41738 0.254251 0
M  V30 243 H 24.6486 -3.8365 -1.7433 0
M  V30 244 H 23.3726 -2.61279 -1.95961 0
M  V30 245 H 22.0316 -3.66451 -0.104489 0
M  V30 246 H 21.6796 -4.3788 -2.47529 0
M  V30 247 H 21.3796 -5.72059 -1.34249 0
M  V30 248 H 22.9036 -5.66701 -2.27338 0
M  V30 249 H 24.3176 -5.733 -0.00290157 0
M  V30 250 H 22.7146 -5.95305 0.757067 0
M  V30 251 H 23.7846 -4.66217 1.33303 0
M  V30 252 N 25.1277 -0.289203 -1.54924 0
M  V30 253 C 26.3757 0.322879 -1.99504 0
M  V30 254 C 26.6967 1.55313 -1.1791 0
M  V30 255 O 25.9667 1.94001 -0.272097 0
M  V30 256 H 24.5467 0.122291 -0.736922 0
M  V30 257 H 27.2087 -0.397802 -1.90797 0
M  V30 258 H 26.3047 0.603061 -3.06218 0
M  V30 259 N 26.6058 1.57591 -0.0167156 0
M  V30 260 C 27.8458 1.93145 0.668902 0
M  V30 261 C 28.2098 0.892406 1.7 0
M  V30 262 O 29.4108 1.13373 2.43721 0
M  V30 263 C 27.6818 3.33678 1.28039 0
M  V30 264 S 29.2408 3.91142 1.9888 0
M  V30 265 H 26.0588 0.67593 0.220545 0
M  V30 266 H 28.6608 1.95347 -0.0774105 0
M  V30 267 H 27.3648 4.07126 0.517339 0
M  V30 268 H 26.8958 3.3489 2.06427 0
M  V30 269 H 28.9108 3.73571 3.26587 0
M  V30 270 N 28.0839 -0.256276 1.55502 0
M  V30 271 C 29.3309 -0.985619 1.76895 0
M  V30 272 C 29.6589 -1.85671 0.579355 0
M  V30 273 O 28.9139 -1.90744 -0.437651 0
M  V30 274 C 29.2129 -1.88432 3.03691 0
M  V30 275 C 28.8789 -1.16936 4.35473 0
M  V30 276 C 27.5409 -0.97173 4.71286 0
M  V30 277 C 29.8929 -0.661889 5.1698 0
M  V30 278 C 27.2209 -0.254179 5.86149 0
M  V30 279 C 29.5729 0.042149 6.32586 0
M  V30 280 C 28.2369 0.25134 6.67027 0
M  V30 281 H 27.5069 -0.360663 0.647304 0
M  V30 282 H 30.1539 -0.256483 1.89775 0
M  V30 283 H 28.4589 -2.68021 2.85783 0
M  V30 284 H 30.1559 -2.45015 3.1744 0
M  V30 285 H 26.7459 -1.33332 4.07333 0
M  V30 286 H 30.9299 -0.802145 4.89775 0
M  V30 287 H 26.1859 -0.0815408 6.11346 0
M  V30 288 H 30.3599 0.443049 6.94989 0
M  V30 289 H 27.9869 0.809314 7.5588 0
M  V30 290 N 29.562 -1.4872 -0.521534 0
M  V30 291 C 30.808 -1.574 -1.27879 0
M  V30 292 C 31.141 -0.250817 -1.92573 0
M  V30 293 O 30.416 0.743934 -1.79711 0
M  V30 294 C 30.699 -2.71843 -2.36164 0
M  V30 295 C 30.552 -4.13893 -1.76105 0
M  V30 296 C 31.871 -2.82008 -3.37875 0
M  V30 297 H 28.99 -0.572941 -0.463581 0
M  V30 298 H 31.632 -1.80927 -0.580119 0
M  V30 299 H 29.782 -2.51914 -2.95756 0
M  V30 300 H 31.454 -4.45284 -1.20499 0
M  V30 301 H 29.697 -4.20498 -1.06601 0
M  V30 302 H 30.368 -4.89804 -2.5455 0
M  V30 303 H 32.844 -3.00086 -2.88249 0
M  V30 304 H 31.72 -3.63796 -4.11028 0
M  V30 305 H 31.981 -1.90511 -3.98946 0
M  V30 306 N 31.0401 0.771051 -1.3745 0
M  V30 307 C 32.2881 1.52661 -1.32435 0
M  V30 308 C 32.6091 1.9479 0.0905024 0
M  V30 309 O 31.8791 1.66348 1.03466 0
M  V30 310 H 30.4591 0.566218 -0.487244 0
M  V30 311 H 33.1211 0.917636 -1.71946 0
M  V30 312 H 32.2171 2.42568 -1.96385 0
M  V30 313 N 32.5182 1.22032 0.997298 0
M  V30 314 C 33.7432 1.06921 1.77715 0
M  V30 315 C 34.1682 -0.376226 1.84299 0
M  V30 316 O 33.5262 -1.27165 1.29223 0
M  V30 317 C 33.5742 1.67996 3.19076 0
M  V30 318 O 32.6782 0.930653 4.01762 0
M  V30 319 H 32.0192 0.375814 0.547412 0
M  V30 320 H 34.5492 1.61737 1.25309 0
M  V30 321 H 34.5592 1.72538 3.69723 0
M  V30 322 H 33.2342 2.73182 3.13599 0
M  V30 323 H 31.8112 0.960917 3.60307 0
M  V30 324 N 33.9963 -1.19345 1.0293 0
M  V30 325 C 35.4123 -1.41069 0.746446 0
M  V30 326 C 35.6123 -1.90078 -0.668776 0
M  V30 327 O 34.6683 -2.0778 -1.4347 0
M  V30 328 C 35.9813 -2.42141 1.78292 0
M  V30 329 C 37.5293 -2.55887 1.80252 0
M  V30 330 C 38.0043 -3.60214 2.8286 0
M  V30 331 N 39.4953 -3.67711 2.81679 0
M  V30 332 C 40.2303 -4.48128 3.57727 0
M  V30 333 N 39.7263 -5.32248 4.43491 0
M  V30 334 N 41.5193 -4.42782 3.46267 0
M  V30 335 H 33.6703 -0.858536 1.94275 0
M  V30 336 H 35.9333 -0.439541 0.839945 0
M  V30 337 H 35.6393 -2.13155 2.79746 0
M  V30 338 H 35.5133 -3.41323 1.60557 0
M  V30 339 H 37.9003 -2.84196 0.794757 0
M  V30 340 H 37.9813 -1.56858 2.02062 0
M  V30 341 H 37.6253 -3.32647 3.83807 0
M  V30 342 H 37.5553 -4.58895 2.58307 0
M  V30 343 H 40.0463 -3.07634 2.19476 0
M  V30 344 H 40.3593 -5.90729 4.98256 0
M  V30 345 H 38.7043 -5.31707 4.47564 0
M  V30 346 H 41.8953 -3.76107 2.78677 0
M  V30 347 H 42.0683 -5.05215 4.05785 0
M  V30 348 N 35.4744 -0.807222 -1.35358 0
M  V30 349 C 36.7214 -0.387888 -1.9875 0
M  V30 350 C 37.0494 1.04509 -1.64037 0
M  V30 351 O 36.3044 1.73986 -0.895946 0
M  V30 352 C 36.6034 -0.519036 -3.53611 0
M  V30 353 C 36.2694 -1.91542 -4.08194 0
M  V30 354 C 34.9314 -2.29745 -4.22813 0
M  V30 355 C 37.2834 -2.82896 -4.37744 0
M  V30 356 C 34.6114 -3.58668 -4.643 0
M  V30 357 C 36.9634 -4.11265 -4.8067 0
M  V30 358 C 35.6274 -4.49466 -4.93494 0
M  V30 359 H 34.8974 -0.141938 -0.727279 0
M  V30 360 H 37.5444 -1.02814 -1.6156 0
M  V30 361 H 35.8494 0.204658 -3.91265 0
M  V30 362 H 37.5464 -0.175345 -4.00616 0
M  V30 363 H 34.1364 -1.60862 -3.97268 0
M  V30 364 H 38.3204 -2.54629 -4.26002 0
M  V30 365 H 33.5764 -3.88113 -4.72418 0
M  V30 366 H 37.7504 -4.82153 -5.02496 0
M  V30 367 H 35.3774 -5.49418 -5.25399 0
M  V30 368 N 36.9525 1.47285 -0.560781 0
M  V30 369 C 38.1985 2.02764 -0.0381184 0
M  V30 370 C 38.5315 1.43384 1.30976 0
M  V30 371 O 37.8065 0.590733 1.85312 0
M  V30 372 C 38.0895 3.60064 0.0511427 0
M  V30 373 C 37.9425 4.2987 -1.32408 0
M  V30 374 C 39.2615 4.33439 0.762795 0
M  V30 375 H 36.3805 0.736841 -0.0153264 0
M  V30 376 H 39.0225 1.75675 -0.723759 0
M  V30 377 H 37.1725 3.83274 0.635065 0
M  V30 378 H 38.8445 4.17989 -1.95148 0
M  V30 379 H 37.0875 3.90085 -1.8978 0
M  V30 380 H 37.7585 5.38478 -1.21431 0
M  V30 381 H 40.2345 4.15243 0.266965 0
M  V30 382 H 39.1105 5.43124 0.794221 0
M  V30 383 H 39.3715 4.02915 1.81966 0
M  V30 384 N 38.4306 0.297415 1.54768 0
M  V30 385 C 39.3806 -0.595275 2.20092 0
M  V30 386 C 40.3646 -1.10163 1.17273 0
M  V30 387 O 41.5566 -1.043 1.43006 0
M  V30 388 C 38.6856 -1.7684 2.94249 0
M  V30 389 C 37.7716 -1.27818 4.0438 0
M  V30 390 N 38.1626 -0.505695 5.03266 0
M  V30 391 C 36.4606 -1.55923 4.17857 0
M  V30 392 C 37.1616 -0.245094 5.81183 0
M  V30 393 N 36.1376 -0.823881 5.3732 0
M  V30 394 H 39.9396 0.00250837 2.939 0
M  V30 395 H 37.4536 0.102007 1.62079 0
M  V30 396 H 39.4506 -2.41944 3.39513 0
M  V30 397 H 38.1106 -2.36992 2.21957 0
M  V30 398 H 39.1216 -0.150928 5.1768 0
M  V30 399 H 35.7986 -2.16849 3.56767 0
M  V30 400 H 37.1886 0.375084 6.70852 0
M  V30 401 N 39.9087 -1.5758 0.0250728 0
M  V30 402 C 41.1567 -1.91255 -0.653151 0
M  V30 403 C 41.4777 -0.901691 -1.729 0
M  V30 404 O 40.7477 0.0573785 -1.95816 0
M  V30 405 H 39.3277 -0.705942 -0.244243 0
M  V30 406 H 41.9897 -1.94767 0.0719209 0
M  V30 407 H 41.0857 -2.91752 -1.10847 0
M  V30 408 N 41.3868 0.248026 -1.55636 0
M  V30 409 C 42.2968 1.32859 -1.93354 0
M  V30 410 C 43.3128 1.52719 -0.833838 0
M  V30 411 O 44.4888 1.66363 -1.13513 0
M  V30 412 C 41.5538 2.66337 -2.21958 0
M  V30 413 C 40.6148 2.55008 -3.45354 0
M  V30 414 C 39.8478 3.82121 -3.72584 0
M  V30 415 O 40.0708 4.83951 -3.01907 0
M  V30 416 O 39.0048 3.80822 -4.6611 0
M  V30 417 H 42.8308 1.03862 -2.85388 0
M  V30 418 H 40.4158 0.448686 -1.42503 0
M  V30 419 H 42.2978 3.45216 -2.4167 0
M  V30 420 H 40.9728 2.95068 -1.33103 0
M  V30 421 H 39.8798 1.7442 -3.30951 0
M  V30 422 H 41.2128 2.31222 -4.34508 0
M  V30 423 N 42.8649 1.48995 0.513639 0
M  V30 424 C 44.1129 1.57531 1.26604 0
M  V30 425 C 44.4339 0.258236 1.93283 0
M  V30 426 O 43.7039 -0.721502 1.8213 0
M  V30 427 H 42.2839 0.580387 0.470276 0
M  V30 428 H 44.9459 1.85552 0.596373 0
M  V30 429 H 44.0419 2.36486 2.03669 0
M  V30 430 N 44.343 -0.763751 1.37857 0
M  V30 431 C 45.273 -1.89103 1.36975 0
M  V30 432 C 46.254 -1.68439 0.237152 0
M  V30 433 O 47.439 -1.8918 0.438713 0
M  V30 434 C 44.569 -3.26496 1.18395 0
M  V30 435 C 43.523 -3.61741 2.28751 0
M  V30 436 C 42.849 -4.97762 1.95286 0
M  V30 437 C 44.149 -3.67665 3.70972 0
M  V30 438 H 45.843 -1.90099 2.31307 0
M  V30 439 H 43.389 -0.91319 1.11341 0
M  V30 440 H 45.342 -4.05003 1.16406 0
M  V30 441 H 44.066 -3.25955 0.205215 0
M  V30 442 H 42.725 -2.85547 2.29909 0
M  V30 443 H 42.373 -4.93769 0.959221 0
M  V30 444 H 42.073 -5.22313 2.69189 0
M  V30 445 H 43.597 -5.7866 1.94898 0
M  V30 446 H 45.011 -4.36307 3.719 0
M  V30 447 H 43.408 -4.03718 4.43995 0
M  V30 448 H 44.478 -2.68134 4.0402 0
M  V30 449 N 45.8211 -1.22559 -0.990812 0
M  V30 450 C 47.2371 -0.985996 -1.255 0
M  V30 451 C 47.4371 0.319173 -1.98956 0
M  V30 452 O 46.4931 1.04127 -2.3003 0
M  V30 453 C 47.8061 -2.18607 -2.06474 0
M  V30 454 C 49.3541 -2.22985 -2.19651 0
M  V30 455 C 49.8291 -3.4255 -3.04012 0
M  V30 456 N 51.3201 -3.42725 -3.11599 0
M  V30 457 C 52.0551 -4.31892 -3.7717 0
M  V30 458 N 51.5511 -5.31279 -4.44651 0
M  V30 459 N 53.3441 -4.19662 -3.73952 0
M  V30 460 H 45.4951 -2.06469 -0.49841 0
M  V30 461 H 47.7581 -0.904853 -0.282747 0
M  V30 462 H 47.4641 -3.13267 -1.59865 0
M  V30 463 H 47.3381 -2.18838 -3.07229 0
M  V30 464 H 49.7251 -1.28871 -2.65474 0
M  V30 465 H 49.8061 -2.26791 -1.18319 0
M  V30 466 H 49.4501 -4.36965 -2.58889 0
M  V30 467 H 49.3801 -3.35984 -4.0549 0
M  V30 468 H 51.8711 -2.70807 -2.63575 0
M  V30 469 H 52.1841 -5.95593 -4.92431 0
M  V30 470 H 50.5291 -5.3519 -4.43392 0
M  V30 471 H 53.7201 -3.41268 -3.20396 0
M  V30 472 H 53.8931 -4.89358 -4.24774 0
M  V30 473 N 47.2992 1.18797 -1.03562 0
M  V30 474 C 48.5452 1.89192 -0.746867 0
M  V30 475 C 48.9002 1.78531 0.717245 0
M  V30 476 O 48.1932 1.17137 1.51622 0
M  V30 477 C 48.3872 3.38692 -1.14117 0
M  V30 478 C 48.2162 3.63902 -2.64207 0
M  V30 479 C 46.9862 3.81553 -3.31279 0
M  V30 480 C 49.1842 3.64903 -3.62423 0
M  V30 481 N 47.1662 3.94455 -4.70402 0
M  V30 482 C 48.5372 3.83458 -4.87196 0
M  V30 483 C 50.5922 3.47965 -3.56125 0
M  V30 484 C 49.2952 3.86829 -6.06429 0
M  V30 485 C 51.3212 3.52616 -4.7478 0
M  V30 486 C 50.6832 3.71663 -5.9837 0
M  V30 487 H 46.7822 0.711141 -0.325273 0
M  V30 488 H 49.3662 1.42727 -1.32428 0
M  V30 489 H 47.5372 3.83864 -0.591889 0
M  V30 490 H 49.2692 3.96634 -0.803966 0
M  V30 491 H 46.0242 3.80723 -2.81686 0
M  V30 492 H 46.4482 4.0474 -5.42692 0
M  V30 493 H 51.0902 3.32189 -2.61553 0
M  V30 494 H 48.8082 4.01395 -7.01362 0
M  V30 495 H 52.3942 3.40791 -4.71543 0
M  V30 496 H 51.2742 3.75145 -6.88648 0
M  V30 497 N 48.7773 0.814389 1.34928 0
M  V30 498 C 50.0073 0.41054 2.0248 0
M  V30 499 C 50.4153 -0.985625 1.61499 0
M  V30 500 O 49.7583 -1.64781 0.811976 0
M  V30 501 C 49.8203 0.423384 3.56998 0
M  V30 502 C 49.4843 1.77141 4.21272 0
M  V30 503 C 50.4813 2.73093 4.42398 0
M  V30 504 C 48.1663 2.05755 4.58225 0
M  V30 505 C 50.1603 3.95838 4.9959 0
M  V30 506 C 47.8473 3.28762 5.1513 0
M  V30 507 C 48.8453 4.23621 5.35755 0
M  V30 508 O 48.5333 5.44456 5.91458 0
M  V30 509 H 48.2653 0.163997 0.655806 0
M  V30 510 H 50.8193 1.10155 1.73364 0
M  V30 511 H 49.0493 -0.324276 3.85338 0
M  V30 512 H 50.7383 0.0407683 4.0588 0
M  V30 513 H 51.5043 2.5228 4.14222 0
M  V30 514 H 47.3833 1.32727 4.4148 0
M  V30 515 H 50.9273 4.69891 5.15605 0
M  V30 516 H 46.8243 3.49443 5.42734 0
M  V30 517 H 47.5923 5.4586 6.09901 0
M  V30 518 N 50.2554 -1.46986 0.568584 0
M  V30 519 C 51.2184 -2.28624 -0.162366 0
M  V30 520 C 52.2184 -1.37596 -0.832103 0
M  V30 521 O 53.4084 -1.60115 -0.68622 0
M  V30 522 C 50.5404 -3.17596 -1.23878 0
M  V30 523 H 51.7334 -2.94722 0.554899 0
M  V30 524 H 49.2864 -1.52863 0.325976 0
M  V30 525 H 50.0214 -2.56214 -1.98808 0
M  V30 526 H 49.8064 -3.846 -0.763219 0
M  V30 527 H 51.2964 -3.79078 -1.75185 0
M  V30 528 N 51.7335 -0.305618 -1.54608 0
M  V30 529 C 52.9815 0.301701 -1.99835 0
M  V30 530 C 53.3025 1.54054 -1.19551 0
M  V30 531 O 52.5725 1.93702 -0.292658 0
M  V30 532 H 51.1525 0.114468 -0.738178 0
M  V30 533 H 53.8145 -0.418016 -1.90364 0
M  V30 534 H 52.9105 0.570548 -3.06841 0
M  V30 535 N 53.2116 1.57565 -0.0334293 0
M  V30 536 C 54.1416 2.13511 0.945265 0
M  V30 537 C 55.1226 1.05231 1.33643 0
M  V30 538 O 56.3076 1.33084 1.41429 0
M  V30 539 C 53.4376 2.6657 2.22616 0
M  V30 540 C 52.3916 3.79676 1.97561 0
M  V30 541 C 51.7176 4.1918 3.31952 0
M  V30 542 C 53.0176 5.0557 1.31135 0
M  V30 543 H 54.7116 2.95538 0.479325 0
M  V30 544 H 52.2576 1.42166 0.229115 0
M  V30 545 H 54.2106 3.04344 2.91466 0
M  V30 546 H 52.9346 1.8171 2.71384 0
M  V30 547 H 51.5936 3.42347 1.31127 0
M  V30 548 H 51.2416 3.31296 3.78487 0
M  V30 549 H 50.9416 4.95402 3.15992 0
M  V30 550 H 52.4656 4.59541 4.02063 0
M  V30 551 H 53.8796 5.40903 1.89992 0
M  V30 552 H 52.2766 5.86818 1.25559 0
M  V30 553 H 53.3466 4.84062 0.284894 0
M  V30 554 N 54.6897 -0.239769 1.55765 0
M  V30 555 C 55.6217 -1.32001 1.87372 0
M  V30 556 C 56.6347 -1.43944 0.760522 0
M  V30 557 O 57.8237 -1.45167 1.0387 0
M  V30 558 C 54.9237 -2.69779 2.05115 0
M  V30 559 C 54.0967 -2.80014 3.36022 0
M  V30 560 C 53.1557 -3.98684 3.4342 0
M  V30 561 O 52.1817 -3.87877 4.16582 0
M  V30 562 N 53.3837 -5.12176 2.73232 0
M  V30 563 H 56.1487 -1.0522 2.80622 0
M  V30 564 H 53.7097 -0.429857 1.56089 0
M  V30 565 H 55.7017 -3.47517 2.07399 0
M  V30 566 H 54.2717 -2.89237 1.18577 0
M  V30 567 H 53.4917 -1.88896 3.45994 0
M  V30 568 H 54.7797 -2.83808 4.22292 0
M  V30 569 H 54.1777 -5.2385 2.13536 0
M  V30 570 H 52.7347 -5.88022 2.81199 0
M  V30 571 N 56.1678 -1.49265 -0.50573 0
M  V30 572 C 57.1148 -1.65585 -1.6078 0
M  V30 573 C 58.0848 -0.497396 -1.58478 0
M  V30 574 O 59.2698 -0.72385 -1.76536 0
M  V30 575 C 56.4098 -1.72408 -2.98948 0
M  V30 576 C 55.5228 -2.99525 -3.11301 0
M  V30 577 C 54.6578 -2.97356 -4.40174 0
M  V30 578 C 53.6968 -4.19074 -4.46143 0
M  V30 579 N 52.8338 -4.14841 -5.66437 0
M  V30 580 H 57.6738 -2.59688 -1.46172 0
M  V30 581 H 55.2108 -1.28761 -0.711261 0
M  V30 582 H 57.1688 -1.74344 -3.79025 0
M  V30 583 H 55.7988 -0.817753 -3.1227 0
M  V30 584 H 54.8508 -3.07222 -2.24318 0
M  V30 585 H 56.1628 -3.89518 -3.11572 0
M  V30 586 H 55.3168 -2.97829 -5.28567 0
M  V30 587 H 54.0558 -2.05133 -4.42461 0
M  V30 588 H 53.0608 -4.1885 -3.56153 0
M  V30 589 H 54.2858 -5.12483 -4.45575 0
M  V30 590 H 52.2318 -3.25453 -5.69575 0
M  V30 591 H 52.1488 -4.98564 -5.68304 0
M  V30 592 H 53.4168 -4.1941 -6.57051 0
M  V30 593 N 57.6459 0.756429 -1.3826 0
M  V30 594 C 59.0569 1.33359 -1.30661 0
M  V30 595 C 59.4079 1.96161 0.0388875 0
M  V30 596 O 58.5329 1.94874 0.940918 0
M  V30 597 C 59.1279 2.42477 -2.36622 0
M  V30 598 C 57.6869 2.95922 -2.3261 0
M  V30 599 C 56.8339 1.69275 -2.19639 0
M  V30 600 H 59.7849 0.55552 -1.4866 0
M  V30 601 H 59.8059 3.22345 -2.02174 0
M  V30 602 H 59.3179 1.96739 -3.34538 0
M  V30 603 H 57.4189 3.45996 -1.38267 0
M  V30 604 H 57.5319 3.50494 -3.26636 0
M  V30 605 H 55.8959 1.92793 -1.66442 0
M  V30 606 H 56.6789 1.25619 -3.19491 0
M  V30 607 N 59.124 1.23083 0.984299 0
M  V30 608 C 60.349 1.088 1.76571 0
M  V30 609 C 60.774 -0.356657 1.84688 0
M  V30 610 O 60.132 -1.25788 1.30565 0
M  V30 611 C 60.18 1.71371 3.17277 0
M  V30 612 O 59.284 0.973213 4.00752 0
M  V30 613 H 58.625 0.381599 0.543395 0
M  V30 614 H 61.155 1.63057 1.23587 0
M  V30 615 H 61.165 1.76449 3.67872 0
M  V30 616 H 59.84 2.76493 3.10684 0
M  V30 617 H 58.417 0.999078 3.59267 0
M  V30 618 N 60.6021 -1.18246 1.0419 0
M  V30 619 C 61.8481 -1.88793 0.75689 0
M  V30 620 C 62.2031 -1.78909 -0.707767 0
M  V30 621 O 61.4961 -1.1794 -1.50999 0
M  V30 622 C 61.6901 -3.38082 1.15911 0
M  V30 623 C 61.5191 -3.62496 2.66133 0
M  V30 624 C 60.2891 -3.7979 3.33298 0
M  V30 625 C 62.4871 -3.62976 3.64353 0
M  V30 626 N 60.4691 -3.91955 4.72487 0
M  V30 627 C 61.8401 -3.80869 4.89222 0
M  V30 628 C 63.8951 -3.46071 3.57965 0
M  V30 629 C 62.5981 -3.83608 6.08471 0
M  V30 630 C 64.6241 -3.50093 4.76643 0
M  V30 631 C 63.9861 -3.68484 6.00332 0
M  V30 632 H 60.0851 -0.709406 0.32904 0
M  V30 633 H 62.6691 -1.42022 1.33183 0
M  V30 634 H 60.8401 -3.83544 0.612238 0
M  V30 635 H 62.5721 -3.96202 0.824989 0
M  V30 636 H 59.3271 -3.79224 2.83701 0
M  V30 637 H 59.7511 -4.01857 5.44831 0
M  V30 638 H 64.3931 -3.30797 2.63311 0
M  V30 639 H 62.1111 -3.97669 7.0348 0
M  V30 640 H 65.6971 -3.38285 4.73344 0
M  V30 641 H 64.5771 -3.71488 6.90627 0
M  V30 642 N 62.0802 -0.821533 -1.34494 0
M  V30 643 C 63.0302 -0.214793 -2.26986 0
M  V30 644 C 64.0142 0.620125 -1.4847 0
M  V30 645 O 65.2062 0.474933 -1.70509 0
M  V30 646 C 62.3352 0.623566 -3.37589 0
M  V30 647 C 61.4212 -0.221904 -4.23519 0
M  V30 648 N 61.8122 -1.29223 -4.89014 0
M  V30 649 C 60.1102 -0.00600922 -4.46 0
M  V30 650 C 60.8112 -1.80965 -5.52835 0
M  V30 651 N 59.7872 -1.11376 -5.32068 0
M  V30 652 H 63.5892 -1.03354 -2.75128 0
M  V30 653 H 61.1032 -0.6642 -1.48196 0
M  V30 654 H 63.1002 1.0744 -4.02818 0
M  V30 655 H 61.7602 1.44049 -2.90998 0
M  V30 656 H 62.7712 -1.67502 -4.90065 0
M  V30 657 H 59.4482 0.77886 -4.10171 0
M  V30 658 H 60.8382 -2.70502 -6.15043 0
M  V30 659 N 63.5583 1.46682 -0.576371 0
M  V30 660 C 64.9693 1.86112 -0.148091 0
M  V30 661 C 65.3203 1.48073 1.2872 0
M  V30 662 O 64.4453 0.892656 1.97131 0
M  V30 663 C 65.0403 3.37786 -0.261982 0
M  V30 664 C 63.5993 3.76235 0.111384 0
M  V30 665 C 62.7463 2.70713 -0.60083 0
M  V30 666 H 65.6973 1.37927 -0.78497 0
M  V30 667 H 65.7183 3.77007 0.514364 0
M  V30 668 H 65.2303 3.6544 -1.30671 0
M  V30 669 H 63.3313 3.54198 1.15649 0
M  V30 670 H 63.4443 4.78391 -0.26052 0
M  V30 671 H 61.8083 2.54666 -0.0417783 0
M  V30 672 H 62.5913 3.01208 -1.64708 0
M  V30 673 N 65.0364 0.313813 1.54444 0
M  V30 674 C 66.4474 -0.176243 1.85866 0
M  V30 675 C 66.7984 -1.52405 1.23561 0
M  V30 676 O 65.9234 -2.09605 0.538016 0
M  V30 677 C 66.5184 -0.32657 3.37222 0
M  V30 678 C 65.0774 -0.760846 3.6863 0
M  V30 679 C 64.2244 0.123247 2.77026 0
M  V30 680 H 67.1754 0.534418 1.49431 0
M  V30 681 H 67.1964 -1.15908 3.62416 0
M  V30 682 H 66.7084 0.654531 3.82541 0
M  V30 683 H 64.8094 -1.75204 3.28838 0
M  V30 684 H 64.9224 -0.571353 4.75681 0
M  V30 685 H 63.2864 -0.399597 2.51546 0
M  V30 686 H 64.0694 1.10094 3.25168 0
M  V30 687 N 66.5145 -1.57545 0.0417849 0
M  V30 688 C 67.4645 -2.07483 -0.945247 0
M  V30 689 C 68.4485 -0.977983 -1.27767 0
M  V30 690 O 69.6405 -1.24142 -1.26166 0
M  V30 691 C 66.7695 -2.61576 -2.22335 0
M  V30 692 C 65.8555 -3.78213 -1.91874 0
M  V30 693 N 66.2465 -4.88344 -1.31733 0
M  V30 694 C 64.5445 -3.8694 -2.21796 0
M  V30 695 C 65.2455 -5.69462 -1.1869 0
M  V30 696 N 64.2215 -5.16771 -1.68666 0
M  V30 697 H 68.0235 -2.90029 -0.475441 0
M  V30 698 H 65.5375 -1.61581 -0.162911 0
M  V30 699 H 67.5345 -2.95651 -2.93932 0
M  V30 700 H 66.1945 -1.80465 -2.69931 0
M  V30 701 H 67.2055 -5.08335 -0.990729 0
M  V30 702 H 63.8825 -3.16757 -2.71977 0
M  V30 703 H 65.2725 -6.68023 -0.720793 0
M  V30 704 N 67.9926 0.231505 -1.5589 0
M  V30 705 C 69.2386 0.954429 -1.79617 0
M  V30 706 C 69.5936 1.82367 -0.613199 0
M  V30 707 O 68.8866 1.87524 0.393094 0
M  V30 708 C 69.0806 1.83577 -3.0665 0
M  V30 709 C 68.9096 1.05334 -4.3719 0
M  V30 710 C 67.6796 0.75225 -4.99669 0
M  V30 711 C 69.8776 0.423444 -5.12554 0
M  V30 712 N 67.8596 -0.052627 -6.13877 0
M  V30 713 C 69.2306 -0.245287 -6.19515 0
M  V30 714 C 71.2856 0.335466 -4.96769 0
M  V30 715 C 69.9886 -0.993566 -7.12405 0
M  V30 716 C 72.0146 -0.399321 -5.9005 0
M  V30 717 C 71.3766 -1.05663 -6.9643 0
M  V30 718 H 67.4756 0.329846 -0.709031 0
M  V30 719 H 70.0596 0.226172 -1.93382 0
M  V30 720 H 68.2306 2.53592 -2.94186 0
M  V30 721 H 69.9626 2.49541 -3.18608 0
M  V30 722 H 66.7176 1.06783 -4.61405 0
M  V30 723 H 67.1416 -0.443609 -6.75545 0
M  V30 724 H 71.7836 0.829311 -4.14587 0
M  V30 725 H 69.5016 -1.49896 -7.94076 0
M  V30 726 H 73.0876 -0.468265 -5.79913 0
M  V30 727 H 71.9676 -1.61612 -7.67366 0
M  V30 728 N 69.4707 1.49531 0.497807 0
M  V30 729 C 70.7167 1.59415 1.25358 0
M  V30 730 C 71.0497 0.281422 1.9215 0
M  V30 731 O 70.3247 -0.715249 1.80871 0
M  V30 732 C 70.6077 2.75566 2.3181 0
M  V30 733 C 70.4607 4.16642 1.69498 0
M  V30 734 C 71.7797 2.87347 3.33346 0
M  V30 735 H 68.8987 0.580244 0.454408 0
M  V30 736 H 71.5407 1.81827 0.551262 0
M  V30 737 H 69.6907 2.56587 2.91711 0
M  V30 738 H 71.3627 4.47145 1.13399 0
M  V30 739 H 69.6057 4.22141 0.998978 0
M  V30 740 H 70.2767 4.93792 2.46725 0
M  V30 741 H 72.7527 3.04634 2.83438 0
M  V30 742 H 71.6287 3.70289 4.05188 0
M  V30 743 H 71.8897 1.96834 3.95865 0
M  V30 744 N 70.9488 -0.749086 1.3866 0
M  V30 745 C 71.8788 -1.8764 1.38973 0
M  V30 746 C 72.8598 -1.68178 0.255004 0
M  V30 747 O 74.0448 -1.88704 0.458754 0
M  V30 748 C 71.1748 -3.25222 1.21851 0
M  V30 749 C 70.1288 -3.59295 2.32575 0
M  V30 750 C 69.4548 -4.95663 2.00555 0
M  V30 751 C 70.7548 -3.63709 3.7485 0
M  V30 752 H 72.4488 -1.87635 2.3331 0
M  V30 753 H 69.9948 -0.901329 1.12303 0
M  V30 754 H 71.9478 -4.03746 1.20695 0
M  V30 755 H 70.6718 -3.25719 0.239775 0
M  V30 756 H 69.3308 -2.83093 2.32925 0
M  V30 757 H 68.9788 -4.92724 1.01154 0
M  V30 758 H 68.6788 -5.19429 2.74714 0
M  V30 759 H 70.2028 -5.7656 2.01024 0
M  V30 760 H 71.6168 -4.32338 3.76506 0
M  V30 761 H 70.0138 -3.98986 4.48252 0
M  V30 762 H 71.0838 -2.63834 4.06841 0
M  V30 763 N 72.4269 -1.23603 -0.977757 0
M  V30 764 C 73.6749 -1.06759 -1.71601 0
M  V30 765 C 73.9959 0.395929 -1.90938 0
M  V30 766 O 73.2659 1.28356 -1.47992 0
M  V30 767 H 71.8459 -0.392062 -0.635843 0
M  V30 768 H 74.5079 -1.55362 -1.1768 0
M  V30 769 H 73.6039 -1.55763 -2.70452 0
M  V30 770 N 73.905 1.17692 -1.04816 0
M  V30 771 C 75.316 1.69501 -0.782698 0
M  V30 772 C 75.667 1.83456 0.695577 0
M  V30 773 O 74.792 1.51942 1.54086 0
M  V30 774 C 75.387 3.07874 -1.41419 0
M  V30 775 C 73.946 3.56864 -1.19686 0
M  V30 776 C 73.093 2.3322 -1.50012 0
M  V30 777 H 76.044 1.02262 -1.2136 0
M  V30 778 H 76.065 3.71528 -0.821428 0
M  V30 779 H 75.577 2.97685 -2.49009 0
M  V30 780 H 73.678 3.72337 -0.140043 0
M  V30 781 H 73.791 4.39851 -1.89916 0
M  V30 782 H 72.155 2.37501 -0.920071 0
M  V30 783 H 72.938 2.25644 -2.58727 0
M  V30 784 N 75.3831 0.828654 1.34056 0
M  V30 785 C 76.6291 0.42008 1.98402 0
M  V30 786 C 76.9621 -1.01564 1.65525 0
M  V30 787 O 76.2371 -1.70834 0.929831 0
M  V30 788 C 76.5201 0.62927 3.54559 0
M  V30 789 C 76.3731 2.11152 3.97159 0
M  V30 790 C 77.6921 0.0688756 4.40046 0
M  V30 791 H 74.8111 0.154104 0.720709 0
M  V30 792 H 77.4531 1.04228 1.5886 0
M  V30 793 H 75.6031 0.0996418 3.88372 0
M  V30 794 H 77.2751 2.70522 3.73651 0
M  V30 795 H 75.5181 2.59985 3.47261 0
M  V30 796 H 76.1891 2.20868 5.05887 0
M  V30 797 H 78.6651 0.521458 4.1282 0
M  V30 798 H 77.5411 0.245006 5.48353 0
M  V30 799 H 77.8021 -1.0266 4.30015 0
M  V30 800 N 76.8612 -1.46375 0.584142 0
M  V30 801 C 78.1072 -2.03248 0.0787103 0
M  V30 802 C 78.4622 -1.44737 -1.26763 0
M  V30 803 O 77.7552 -0.603625 -1.81843 0
M  V30 804 C 77.9492 -3.57373 -0.0439342 0
M  V30 805 C 77.7782 -4.30831 1.28897 0
M  V30 806 C 76.5482 -4.69683 1.8635 0
M  V30 807 C 78.7462 -4.64278 2.21248 0
M  V30 808 N 76.7282 -5.27898 3.13365 0
M  V30 809 C 78.0992 -5.23078 3.32851 0
M  V30 810 C 80.1542 -4.46209 2.20911 0
M  V30 811 C 78.8572 -5.65715 4.44251 0
M  V30 812 C 80.8832 -4.89864 3.31341 0
M  V30 813 C 80.2452 -5.48736 4.41665 0
M  V30 814 H 76.3442 -0.778714 0.0716144 0
M  V30 815 H 78.9282 -1.78509 0.777355 0
M  V30 816 H 77.0992 -3.81823 -0.711749 0
M  V30 817 H 78.8312 -4.00892 -0.553881 0
M  V30 818 H 75.5862 -4.52488 1.39826 0
M  V30 819 H 76.0102 -5.61525 3.78178 0
M  V30 820 H 80.6522 -4.00027 1.36888 0
M  V30 821 H 78.3702 -6.10875 5.29015 0
M  V30 822 H 81.9562 -4.77634 3.322 0
M  V30 823 H 80.8362 -5.81898 5.25704 0
M  V30 824 N 78.3393 -0.321999 -1.54275 0
M  V30 825 C 79.5873 0.280489 -2.00144 0
M  V30 826 C 79.9083 1.52777 -1.21178 0
M  V30 827 O 79.1783 1.9338 -0.313187 0
M  V30 828 H 77.7583 0.106632 -0.73935 0
M  V30 829 H 80.4203 -0.438184 -1.8991 0
M  V30 830 H 79.5163 0.537972 -3.07428 0
M  V30 831 N 79.8174 1.5752 -0.0501392 0
M  V30 832 C 81.0454 1.96963 0.633492 0
M  V30 833 C 81.4604 0.927631 1.6444 0
M  V30 834 O 80.8174 -0.0882665 1.82286 0
M  V30 835 C 80.8684 3.36487 1.32132 0
M  V30 836 O 80.5894 4.36693 0.350894 0
M  V30 837 C 82.0904 3.90682 2.09481 0
M  V30 838 H 79.3104 0.648244 0.173266 0
M  V30 839 H 81.8544 2.0417 -0.116134 0
M  V30 840 H 80.0094 3.30434 2.02218 0
M  V30 841 H 80.4234 5.17702 0.841735 0
M  V30 842 H 81.8974 4.90591 2.5303 0
M  V30 843 H 82.3744 3.26053 2.94255 0
M  V30 844 H 82.9804 4.00069 1.44307 0
M  V30 845 N 81.2955 -0.223234 1.56011 0
M  V30 846 C 82.2255 -1.27988 1.95298 0
M  V30 847 C 83.2065 -1.48976 0.820979 0
M  V30 848 O 84.3915 -1.61188 1.08315 0
M  V30 849 C 81.5215 -2.63 2.26822 0
M  V30 850 C 80.4755 -2.56671 3.42497 0
M  V30 851 C 79.8015 -3.95697 3.59622 0
M  V30 852 C 81.1015 -2.11601 4.77517 0
M  V30 853 H 82.7955 -0.953525 2.8381 0
M  V30 854 H 80.3415 -0.457244 1.36548 0
M  V30 855 H 82.2945 -3.37077 2.52898 0
M  V30 856 H 81.0185 -2.9732 1.35161 0
M  V30 857 H 79.6775 -1.85051 3.16467 0
M  V30 858 H 79.3255 -4.27322 2.6534 0
M  V30 859 H 79.0255 -3.92345 4.37424 0
M  V30 860 H 80.5495 -4.71438 3.88044 0
M  V30 861 H 81.9635 -2.7542 5.02809 0
M  V30 862 H 80.3605 -2.19311 5.5859 0
M  V30 863 H 81.4305 -1.06824 4.72987 0
M  V30 864 N 82.7736 -1.49793 -0.48987 0
M  V30 865 C 84.0036 -1.6333 -1.26518 0
M  V30 866 C 84.4116 -0.308392 -1.8667 0
M  V30 867 O 83.7546 0.717512 -1.69108 0
M  V30 868 C 83.8166 -2.6522 -2.4269 0
M  V30 869 C 83.4806 -4.09279 -2.03321 0
M  V30 870 C 84.4776 -4.95738 -1.56652 0
M  V30 871 C 82.1626 -4.55082 -2.12616 0
M  V30 872 C 84.1566 -6.26041 -1.19795 0
M  V30 873 C 81.8436 -5.85396 -1.75371 0
M  V30 874 C 82.8416 -6.707 -1.29036 0
M  V30 875 O 82.5296 -7.98584 -0.92299 0
M  V30 876 H 82.2616 -0.552502 -0.389509 0
M  V30 877 H 84.8156 -1.96642 -0.593381 0
M  V30 878 H 83.0456 -2.27112 -3.12981 0
M  V30 879 H 84.7346 -2.68171 -3.04695 0
M  V30 880 H 85.5006 -4.61575 -1.48908 0
M  V30 881 H 81.3796 -3.88844 -2.47631 0
M  V30 882 H 84.9236 -6.92578 -0.835582 0
M  V30 883 H 80.8206 -6.19085 -1.82768 0
M  V30 884 H 81.5886 -8.11692 -1.05349 0
M  V30 885 N 84.2517 0.741722 -1.39055 0
M  V30 886 C 85.4767 1.53607 -1.39354 0
M  V30 887 C 85.9017 1.88096 0.0116905 0
M  V30 888 O 85.2597 1.5143 0.996924 0
M  V30 889 C 85.3077 2.80441 -2.26682 0
M  V30 890 O 84.4117 3.76088 -1.69208 0
M  V30 891 H 83.7527 0.464142 -0.474835 0
M  V30 892 H 86.2827 0.915665 -1.82967 0
M  V30 893 H 86.2927 3.29246 -2.40959 0
M  V30 894 H 84.9677 2.5467 -3.2881 0
M  V30 895 H 83.5447 3.34833 -1.64138 0
M  V30 896 N 85.7298 1.2412 0.971189 0
M  V30 897 C 86.6928 1.03156 2.04674 0
M  V30 898 C 87.6928 -0.00990322 1.60797 0
M  V30 899 O 88.8828 0.230729 1.72665 0
M  V30 900 C 86.0148 0.562765 3.36223 0
M  V30 901 H 87.2078 1.98614 2.24705 0
M  V30 902 H 84.7608 1.06293 1.14593 0
M  V30 903 H 85.4958 -0.395176 3.21883 0
M  V30 904 H 85.2808 1.31441 3.69413 0
M  V30 905 H 86.7708 0.437015 4.15307 0
M  V30 906 N 87.2079 -1.17134 1.05439 0
M  V30 907 C 88.1409 -2.2012 0.601855 0
M  V30 908 C 89.1189 -1.58314 -0.370854 0
M  V30 909 O 90.3029 -1.8638 -0.281882 0
M  V30 910 C 87.4299 -3.38491 -0.118868 0
M  V30 911 C 86.4759 -4.18752 0.809242 0
M  V30 912 S 87.3089 -4.83602 2.29977 0
M  V30 913 C 88.4649 -6.0536 1.59029 0
M  V30 914 H 88.6979 -2.58165 1.47438 0
M  V30 915 H 86.2309 -1.27788 0.866573 0
M  V30 916 H 88.1889 -4.07084 -0.528495 0
M  V30 917 H 86.8499 -2.98829 -0.967465 0
M  V30 918 H 86.0429 -5.03373 0.251379 0
M  V30 919 H 85.6449 -3.5561 1.15835 0
M  V30 920 H 87.9369 -6.71615 0.891017 0
M  V30 921 H 88.8799 -6.65679 2.41407 0
M  V30 922 H 89.2879 -5.54138 1.07663 0
M  V30 923 N 88.686 -0.835752 -1.33615 0
M  V30 924 C 89.934 -0.429109 -1.97492 0
M  V30 925 C 90.255 1.01433 -1.66543 0
M  V30 926 O 89.525 1.70611 -0.962744 0
M  V30 927 H 88.105 -0.155686 -0.730596 0
M  V30 928 H 90.767 -1.06802 -1.63031 0
M  V30 929 H 89.863 -0.55861 -3.0706 0
M  V30 930 N 90.1641 1.46063 -0.591896 0
M  V30 931 C 91.3941 2.06418 -0.0867676 0
M  V30 932 C 91.8021 1.43975 1.22751 0
M  V30 933 O 91.1451 0.542531 1.75506 0
M  V30 934 C 91.2071 3.59213 0.143725 0
M  V30 935 C 90.8711 4.439 -1.08635 0
M  V30 936 C 91.8681 4.79864 -2.00067 0
M  V30 937 C 89.5531 4.84896 -1.31077 0
M  V30 938 C 91.5471 5.55661 -3.12282 0
M  V30 939 C 89.2341 5.6045 -2.43596 0
M  V30 940 C 90.2321 5.95747 -3.34027 0
M  V30 941 O 89.9201 6.69772 -4.4459 0
M  V30 942 H 89.6521 0.673443 -0.0587447 0
M  V30 943 H 92.2061 1.88539 -0.814994 0
M  V30 944 H 90.4361 3.75433 0.926668 0
M  V30 945 H 92.1251 4.01463 0.5985 0
M  V30 946 H 92.8911 4.48763 -1.83947 0
M  V30 947 H 88.7701 4.56867 -0.61594 0
M  V30 948 H 92.3141 5.8313 -3.82891 0
M  V30 949 H 88.2111 5.90965 -2.59674 0
M  V30 950 H 88.9791 6.88207 -4.43073 0
M  V30 951 N 91.6422 0.330177 1.54103 0
M  V30 952 C 92.8902 -0.269871 2.0029 0
M  V30 953 C 93.2112 -1.52133 1.21986 0
M  V30 954 O 92.4812 -1.93212 0.323438 0
M  V30 955 H 91.0612 -0.10271 0.739905 0
M  V30 956 H 93.7232 0.448249 1.89675 0
M  V30 957 H 92.8192 -0.52166 3.07709 0
M  V30 958 N 93.1203 -1.57491 0.0584922 0
M  V30 959 C 94.3453 -1.97711 -0.62652 0
M  V30 960 C 94.7703 -0.936132 -1.63151 0
M  V30 961 O 94.1283 0.099811 -1.81025 0
M  V30 962 C 94.1763 -3.36989 -1.28338 0
M  V30 963 O 93.2803 -3.35433 -2.39913 0
M  V30 964 H 92.6213 -0.643868 -0.162266 0
M  V30 965 H 95.1513 -2.04193 0.129064 0
M  V30 966 H 95.1613 -3.73879 -1.63335 0
M  V30 967 H 93.8363 -4.12289 -0.546889 0
M  V30 968 H 92.4133 -3.10298 -2.06809 0
M  V30 969 N 94.5984 0.214957 -1.56127 0
M  V30 970 C 95.8284 0.953707 -1.8327 0
M  V30 971 C 96.2364 1.78181 -0.636262 0
M  V30 972 O 95.5794 1.79191 0.404516 0
M  V30 973 C 95.6414 1.91516 -3.0424 0
M  V30 974 C 95.3054 1.27094 -4.38972 0
M  V30 975 C 96.3024 0.657575 -5.15725 0
M  V30 976 C 93.9874 1.28073 -4.85698 0
M  V30 977 C 95.9814 0.0625968 -6.37369 0
M  V30 978 C 93.6684 0.681914 -6.07283 0
M  V30 979 C 94.6664 0.0739046 -6.8296 0
M  V30 980 O 94.3544 -0.515582 -8.02245 0
M  V30 981 H 94.0864 0.284764 -0.613095 0
M  V30 982 H 96.6404 0.233283 -2.04071 0
M  V30 983 H 94.8704 2.67475 -2.79274 0
M  V30 984 H 96.5594 2.52001 -3.18198 0
M  V30 985 H 97.3254 0.642288 -4.80728 0
M  V30 986 H 93.2044 1.74337 -4.26764 0
M  V30 987 H 96.7484 -0.412593 -6.96379 0
M  V30 988 H 92.6454 0.694636 -6.41752 0
M  V30 989 H 93.4134 -0.410544 -8.1747 0
M  V30 990 N 96.0765 1.50051 0.48192 0
M  V30 991 C 97.0065 1.71046 1.58951 0
M  V30 992 C 97.9875 0.559288 1.60642 0
M  V30 993 O 99.1725 0.797243 1.77081 0
M  V30 994 C 96.3025 1.79462 2.97339 0
M  V30 995 C 95.2565 2.94558 3.10515 0
M  V30 996 C 94.5825 2.88105 4.50444 0
M  V30 997 C 95.8825 4.35227 2.88747 0
M  V30 998 H 97.5765 2.6378 1.41635 0
M  V30 999 H 95.1225 1.26936 0.679942 0
M  V30 1000 H 97.0755 1.92734 3.74742 0
M  V30 1001 H 95.7995 0.833412 3.15788 0
M  V30 1002 H 94.4585 2.80918 2.35543 0
M  V30 1003 H 94.1065 1.89853 4.65795 0
M  V30 1004 H 93.8065 3.65366 4.60197 0
M  V30 1005 H 95.3305 3.03412 5.29881 0
M  V30 1006 H 96.7445 4.49449 3.55905 0
M  V30 1007 H 95.1415 5.13856 3.09955 0
M  V30 1008 H 96.2115 4.48347 1.84696 0
M  V30 1009 N 97.5546 -0.734337 1.39446 0
M  V30 1010 C 98.8006 -1.49613 1.36908 0
M  V30 1011 C 99.1336 -1.94169 -0.0347829 0
M  V30 1012 O 98.4086 -1.66833 -0.999847 0
M  V30 1013 C 98.6916 -2.73534 2.34203 0
M  V30 1014 C 98.5446 -2.34993 3.83534 0
M  V30 1015 C 99.8636 -3.75635 2.29317 0
M  V30 1016 H 96.9826 -0.542714 0.498629 0
M  V30 1017 H 99.6246 -0.839597 1.70443 0
M  V30 1018 H 97.7746 -3.29553 2.05736 0
M  V30 1019 H 99.4466 -1.84601 4.22753 0
M  V30 1020 H 97.6896 -1.67213 4.00278 0
M  V30 1021 H 98.3606 -3.23738 4.47099 0
M  V30 1022 H 100.837 -3.29203 2.54489 0
M  V30 1023 H 99.7126 -4.60008 2.99472 0
M  V30 1024 H 99.9736 -4.22603 1.29842 0
M  V30 1025 N 99.0327 -1.24633 -0.964593 0
M  V30 1026 C 100.279 -1.09957 -1.71117 0
M  V30 1027 C 100.634 0.357422 -1.89051 0
M  V30 1028 O 99.9267 1.26029 -1.44317 0
M  V30 1029 C 100.121 -1.7763 -3.10133 0
M  V30 1030 C 99.9497 -3.29759 -3.05759 0
M  V30 1031 C 98.7197 -3.98981 -3.10068 0
M  V30 1032 C 100.918 -4.26305 -2.87695 0
M  V30 1033 N 98.8997 -5.37966 -2.95747 0
M  V30 1034 C 100.271 -5.52308 -2.81702 0
M  V30 1035 C 102.326 -4.16842 -2.72299 0
M  V30 1036 C 101.029 -6.69931 -2.61887 0
M  V30 1037 C 103.055 -5.34147 -2.53853 0
M  V30 1038 C 102.417 -6.59084 -2.48572 0
M  V30 1039 H 98.5157 -0.457003 -0.634564 0
M  V30 1040 H 101.1 -1.57592 -1.14337 0
M  V30 1041 H 99.2707 -1.32504 -3.65099 0
M  V30 1042 H 101.003 -1.55786 -3.73514 0
M  V30 1043 H 97.7577 -3.50169 -3.18871 0
M  V30 1044 H 98.1817 -6.10877 -2.91818 0
M  V30 1045 H 102.824 -3.21007 -2.75163 0
M  V30 1046 H 100.542 -7.65886 -2.57767 0
M  V30 1047 H 104.128 -5.28678 -2.4288 0
M  V30 1048 H 103.008 -7.48324 -2.34481 0
M  V30 1049 N 100.511 1.16574 -1.06058 0
M  V30 1050 C 101.458 2.20883 -0.669263 0
M  V30 1051 C 102.428 1.62729 0.332918 0
M  V30 1052 O 103.613 1.895 0.222346 0
M  V30 1053 C 100.753 3.45049 -0.0593572 0
M  V30 1054 C 99.8658 4.17458 -1.11143 0
M  V30 1055 C 99.0008 5.29135 -0.467916 0
M  V30 1056 C 98.0398 5.93343 -1.50369 0
M  V30 1057 N 97.1768 6.96516 -0.883706 0
M  V30 1058 H 102.017 2.53709 -1.5632 0
M  V30 1059 H 99.5538 1.24616 -0.781625 0
M  V30 1060 H 101.512 4.16033 0.311771 0
M  V30 1061 H 100.142 3.12781 0.797992 0
M  V30 1062 H 99.1938 3.45101 -1.60029 0
M  V30 1063 H 100.506 4.61307 -1.89731 0
M  V30 1064 H 99.6598 6.06684 -0.0436871 0
M  V30 1065 H 98.3988 4.86443 0.349864 0
M  V30 1066 H 97.4038 5.14517 -1.93784 0
M  V30 1067 H 98.6288 6.38114 -2.32352 0
M  V30 1068 H 96.5748 6.55943 -0.086595 0
M  V30 1069 H 96.4918 7.38723 -1.607 0
M  V30 1070 H 97.7598 7.77993 -0.484543 0
M  V30 1071 N 101.989 0.842826 1.3317 0
M  V30 1072 C 102.899 0.281444 2.32906 0
M  V30 1073 C 103.915 -0.594587 1.63526 0
M  V30 1074 O 105.091 -0.49777 1.95152 0
M  V30 1075 C 102.156 -0.530929 3.42611 0
M  V30 1076 C 101.217 0.369843 4.27704 0
M  V30 1077 C 100.45 -0.403853 5.3217 0
M  V30 1078 O 100.673 -1.63513 5.46461 0
M  V30 1079 O 99.6069 0.224199 6.01482 0
M  V30 1080 H 103.433 1.10744 2.82789 0
M  V30 1081 H 101.018 0.60545 1.36582 0
M  V30 1082 H 102.9 -0.992437 4.09547 0
M  V30 1083 H 101.575 -1.33392 2.94938 0
M  V30 1084 H 100.482 0.879275 3.6362 0
M  V30 1085 H 101.815 1.13771 4.78871 0
M  V30 1086 N 103.467 -1.45747 0.599634 0
M  V30 1087 C 104.397 -2.33235 -0.111306 0
M  V30 1088 C 105.378 -1.46359 -0.866781 0
M  V30 1089 O 106.563 -1.75146 -0.838904 0
M  V30 1090 C 103.693 -3.28932 -1.11451 0
M  V30 1091 C 102.647 -4.25381 -0.472772 0
M  V30 1092 C 101.973 -5.1071 -1.58365 0
M  V30 1093 C 103.273 -5.18831 0.600948 0
M  V30 1094 H 104.967 -2.92927 0.61919 0
M  V30 1095 H 102.513 -1.40857 0.299215 0
M  V30 1096 H 104.466 -3.89002 -1.62036 0
M  V30 1097 H 103.19 -2.67381 -1.8755 0
M  V30 1098 H 101.849 -3.66598 0.0121472 0
M  V30 1099 H 101.497 -4.45533 -2.33473 0
M  V30 1100 H 101.197 -5.7604 -1.15982 0
M  V30 1101 H 102.721 -5.73647 -2.09194 0
M  V30 1102 H 104.135 -5.73019 0.179491 0
M  V30 1103 H 102.532 -5.92595 0.946076 0
M  V30 1104 H 103.602 -4.6174 1.48068 0
M  V30 1105 N 104.945 -0.338344 -1.53925 0
M  V30 1106 C 106.193 0.259245 -2.0043 0
M  V30 1107 C 106.514 1.51484 -1.22791 0
M  V30 1108 O 105.784 1.93037 -0.33368 0
M  V30 1109 H 104.364 0.0987845 -0.740439 0
M  V30 1110 H 107.026 -0.458302 -1.89435 0
M  V30 1111 H 106.122 0.505334 -3.07982 0
M  V30 1112 N 106.423 1.57458 -0.0668435 0
M  V30 1113 C 107.671 1.92919 0.602214 0
M  V30 1114 C 107.992 0.947215 1.70449 0
M  V30 1115 O 107.262 -0.00544117 1.95899 0
M  V30 1116 H 105.842 0.71217 0.22544 0
M  V30 1117 H 108.504 1.94508 -0.123535 0
M  V30 1118 H 107.6 2.94589 1.03073 0
M  V30 1119 N 107.901 -0.206675 1.56239 0
M  V30 1120 C 109.148 -0.928842 1.79941 0
M  V30 1121 C 109.476 -1.83734 0.638131 0
M  V30 1122 O 108.731 -1.92039 -0.376746 0
M  V30 1123 C 109.03 -1.78675 3.09532 0
M  V30 1124 C 108.696 -1.03022 4.38973 0
M  V30 1125 C 107.358 -0.821302 4.74139 0
M  V30 1126 C 109.71 -0.497081 5.18824 0
M  V30 1127 C 107.038 -0.0675719 5.86661 0
M  V30 1128 C 109.39 0.24338 6.32132 0
M  V30 1129 C 108.054 0.463422 6.65889 0
M  V30 1130 H 107.324 -0.339887 0.658451 0
M  V30 1131 H 109.971 -0.195977 1.90495 0
M  V30 1132 H 108.276 -2.58794 2.94165 0
M  V30 1133 H 109.973 -2.34792 3.25075 0
M  V30 1134 H 106.563 -1.20306 4.11369 0
M  V30 1135 H 110.747 -0.645921 4.92079 0
M  V30 1136 H 106.003 0.112995 6.11296 0
M  V30 1137 H 110.177 0.66393 6.93228 0
M  V30 1138 H 107.804 1.04938 7.52922 0
M  V30 1139 N 109.379 -1.50304 -0.473955 0
M  V30 1140 C 110.607 -1.64902 -1.24959 0
M  V30 1141 C 111.022 -0.331198 -1.85872 0
M  V30 1142 O 110.379 0.68652 -1.69095 0
M  V30 1143 C 110.43 -2.73803 -2.36038 0
M  V30 1144 O 110.151 -4.00477 -1.77624 0
M  V30 1145 C 111.652 -2.99349 -3.26964 0
M  V30 1146 H 108.872 -0.554383 -0.378022 0
M  V30 1147 H 111.416 -1.9651 -0.566054 0
M  V30 1148 H 109.571 -2.44898 -3.00173 0
M  V30 1149 H 109.985 -4.60678 -2.5075 0
M  V30 1150 H 111.459 -3.79217 -4.01121 0
M  V30 1151 H 111.936 -2.10307 -3.85574 0
M  V30 1152 H 112.542 -3.29774 -2.68569 0
M  V30 1153 N 110.857 0.726932 -1.39834 0
M  V30 1154 C 111.767 1.87131 -1.41489 0
M  V30 1155 C 112.783 1.71239 -0.308757 0
M  V30 1156 O 113.959 1.93701 -0.551529 0
M  V30 1157 C 111.024 3.22811 -1.26468 0
M  V30 1158 C 110.085 3.51039 -2.47124 0
M  V30 1159 C 109.318 4.80245 -2.3281 0
M  V30 1160 O 109.541 5.54537 -1.33585 0
M  V30 1161 O 108.475 5.08554 -3.21957 0
M  V30 1162 H 112.301 1.8869 -2.3797 0
M  V30 1163 H 109.886 0.875837 -1.21035 0
M  V30 1164 H 111.768 4.03877 -1.20255 0
M  V30 1165 H 110.443 3.22005 -0.330862 0
M  V30 1166 H 109.35 2.70027 -2.58914 0
M  V30 1167 H 110.683 3.56632 -3.39227 0
M  V30 1168 N 112.336 1.25143 0.95797 0
M  V30 1169 C 113.283 1.05235 2.05412 0
M  V30 1170 C 114.253 -0.0374561 1.66058 0
M  V30 1171 O 115.438 0.119073 1.90428 0
M  V30 1172 C 112.578 0.673589 3.38462 0
M  V30 1173 C 111.691 1.8379 3.90954 0
M  V30 1174 C 110.826 1.40381 5.12315 0
M  V30 1175 C 109.865 2.53746 5.57027 0
M  V30 1176 N 109.002 2.11136 6.69601 0
M  V30 1177 H 113.842 1.99048 2.21774 0
M  V30 1178 H 111.379 0.991277 1.08683 0
M  V30 1179 H 113.337 0.434964 4.14926 0
M  V30 1180 H 111.967 -0.227554 3.21997 0
M  V30 1181 H 111.019 2.18992 3.11041 0
M  V30 1182 H 112.331 2.68937 4.20089 0
M  V30 1183 H 111.485 1.12464 5.96185 0
M  V30 1184 H 110.224 0.523015 4.84887 0
M  V30 1185 H 109.229 2.82412 4.71724 0
M  V30 1186 H 110.454 3.42398 5.86464 0
M  V30 1187 H 108.4 1.25468 6.4389 0
M  V30 1188 H 108.317 2.89832 6.98236 0
M  V30 1189 H 109.585 1.86385 7.56889 0
M  V30 1190 N 113.814 -1.1601 1.06675 0
M  V30 1191 C 114.777 -2.18724 0.685001 0
M  V30 1192 C 115.777 -1.58496 -0.271246 0
M  V30 1193 O 116.967 -1.74119 -0.0531156 0
M  V30 1194 C 114.099 -3.40899 0.00853648 0
M  V30 1195 H 115.292 -2.54011 1.59431 0
M  V30 1196 H 112.845 -1.30352 0.862441 0
M  V30 1197 H 113.58 -3.11173 -0.913337 0
M  V30 1198 H 113.365 -3.8587 0.696204 0
M  V30 1199 H 114.855 -4.16886 -0.24414 0
M  V30 1200 N 115.292 -0.849877 -1.32721 0
M  V30 1201 C 116.538 -0.451591 -1.97708 0
M  V30 1202 C 116.871 0.989175 -1.6712 0
M  V30 1203 O 116.146 1.69334 -0.956891 0
M  V30 1204 C 116.429 -0.685598 -3.53513 0
M  V30 1205 C 116.282 -2.17444 -3.93749 0
M  V30 1206 C 117.601 -0.138874 -4.39881 0
M  V30 1207 H 114.72 -0.16555 -0.718166 0
M  V30 1208 H 117.362 -1.06742 -1.57182 0
M  V30 1209 H 115.512 -0.161416 -3.88165 0
M  V30 1210 H 117.184 -2.76433 -3.693 0
M  V30 1211 H 115.427 -2.65476 -3.43081 0
M  V30 1212 H 116.098 -2.28888 -5.02309 0
M  V30 1213 H 118.574 -0.587068 -4.11938 0
M  V30 1214 H 117.45 -0.332213 -5.47894 0
M  V30 1215 H 117.711 0.95806 -4.31594 0
M  V30 1216 N 116.77 1.45427 -0.607355 0
M  V30 1217 C 118.016 2.0254 -0.102607 0
M  V30 1218 C 118.349 1.47478 1.26348 0
M  V30 1219 O 117.624 0.64939 1.83339 0
M  V30 1220 C 117.907 3.60044 -0.0634347 0
M  V30 1221 C 117.76 4.2544 -1.46017 0
M  V30 1222 C 119.079 4.35646 0.624514 0
M  V30 1223 H 116.198 0.73598 -0.0387607 0
M  V30 1224 H 118.84 1.73284 -0.779282 0
M  V30 1225 H 116.99 3.85101 0.512808 0
M  V30 1226 H 118.662 4.11569 -2.08347 0
M  V30 1227 H 116.905 3.83849 -2.02094 0
M  V30 1228 H 117.576 5.34342 -1.385 0
M  V30 1229 H 120.052 4.15882 0.134723 0
M  V30 1230 H 118.928 5.45376 0.621028 0
M  V30 1231 H 119.189 4.08501 1.69055 0
M  V30 1232 N 118.248 0.346503 1.53744 0
M  V30 1233 C 119.659 -0.136779 1.86198 0
M  V30 1234 C 120.01 -1.49749 1.26766 0
M  V30 1235 O 119.135 -2.08417 0.582355 0
M  V30 1236 C 119.73 -0.254966 3.37839 0
M  V30 1237 C 118.289 -0.682482 3.70161 0
M  V30 1238 C 117.436 0.181981 2.76702 0
M  V30 1239 H 120.387 0.565994 1.48264 0
M  V30 1240 H 120.408 -1.08195 3.64793 0
M  V30 1241 H 119.92 0.735526 3.81066 0
M  V30 1242 H 118.021 -1.68189 3.3248 0
M  V30 1243 H 118.134 -0.470326 4.76786 0
M  V30 1244 H 116.498 -0.34615 2.52337 0
M  V30 1245 H 117.281 1.16966 3.2276 0
M  V30 1246 N 119.726 -1.57421 0.075193 0
M  V30 1247 C 120.656 -2.15942 -0.888324 0
M  V30 1248 C 121.637 -1.08737 -1.30806 0
M  V30 1249 O 122.822 -1.36787 -1.37851 0
M  V30 1250 C 119.952 -2.72379 -2.1547 0
M  V30 1251 C 118.906 -3.8478 -1.87425 0
M  V30 1252 C 118.232 -4.27834 -3.20721 0
M  V30 1253 C 119.532 -5.08869 -1.17684 0
M  V30 1254 H 121.226 -2.96705 -0.400799 0
M  V30 1255 H 118.772 -1.42723 -0.191342 0
M  V30 1256 H 120.725 -3.11965 -2.83295 0
M  V30 1257 H 119.449 -1.88841 -2.6647 0
M  V30 1258 H 118.108 -3.45703 -1.22004 0
M  V30 1259 H 117.756 -3.41214 -3.6957 0
M  V30 1260 H 117.456 -5.03605 -3.02746 0
M  V30 1261 H 118.98 -4.70039 -3.89738 0
M  V30 1262 H 120.394 -5.4575 -1.75584 0
M  V30 1263 H 118.791 -5.8994 -1.09956 0
M  V30 1264 H 119.861 -4.84648 -0.156453 0
M  V30 1265 N 121.204 0.198386 -1.56346 0
M  V30 1266 C 122.452 0.91747 -1.80075 0
M  V30 1267 C 122.773 1.83929 -0.647692 0
M  V30 1268 O 122.043 1.93029 0.334166 0
M  V30 1269 H 120.623 0.341774 -0.664228 0
M  V30 1270 H 123.285 0.204684 -1.93822 0
M  V30 1271 H 122.381 1.51055 -2.7311 0
M  V30 1272 N 122.682 1.50554 0.465978 0
M  V30 1273 C 123.612 1.72722 1.57128 0
M  V30 1274 C 124.593 0.576294 1.6004 0
M  V30 1275 O 125.778 0.81598 1.76225 0
M  V30 1276 C 122.908 1.82605 2.95419 0
M  V30 1277 C 121.862 2.97835 3.07373 0
M  V30 1278 C 121.188 2.92867 4.47363 0
M  V30 1279 C 122.488 4.38265 2.84114 0
M  V30 1280 H 124.182 2.65267 1.38829 0
M  V30 1281 H 121.728 1.2765 0.666441 0
M  V30 1282 H 123.681 1.96698 3.72677 0
M  V30 1283 H 122.405 0.866858 3.14886 0
M  V30 1284 H 121.064 2.83401 2.3255 0
M  V30 1285 H 120.712 1.94783 4.63755 0
M  V30 1286 H 120.412 3.70227 4.56296 0
M  V30 1287 H 121.936 3.09015 5.26633 0
M  V30 1288 H 123.35 4.53198 3.51118 0
M  V30 1289 H 121.747 5.17115 3.04487 0
M  V30 1290 H 122.817 4.50281 1.7993 0
M  V30 1291 N 124.16 -0.719506 1.40217 0
M  V30 1292 C 125.39 -1.50646 1.41384 0
M  V30 1293 C 125.798 -1.89197 0.0107743 0
M  V30 1294 O 125.141 -1.55709 -0.974708 0
M  V30 1295 C 125.203 -2.81405 2.23722 0
M  V30 1296 C 124.867 -2.65199 3.72181 0
M  V30 1297 C 125.864 -2.32717 4.64907 0
M  V30 1298 C 123.549 -2.81586 4.1595 0
M  V30 1299 C 125.543 -2.16827 5.99387 0
M  V30 1300 C 123.23 -2.65313 5.50502 0
M  V30 1301 C 124.228 -2.32981 6.42035 0
M  V30 1302 O 123.916 -2.16827 7.74107 0
M  V30 1303 H 123.648 -0.471606 0.484318 0
M  V30 1304 H 126.202 -0.895456 1.84853 0
M  V30 1305 H 124.432 -3.44823 1.75026 0
M  V30 1306 H 126.121 -3.43102 2.16878 0
M  V30 1307 H 126.887 -2.19694 4.32388 0
M  V30 1308 H 122.766 -3.0574 3.45027 0
M  V30 1309 H 126.31 -1.91513 6.70797 0
M  V30 1310 H 122.207 -2.7792 5.82607 0
M  V30 1311 H 122.975 -2.31778 7.84998 0
M  V30 1312 N 125.638 -1.25649 -0.95132 0
M  V30 1313 C 126.866 -1.13343 -1.73092 0
M  V30 1314 C 127.281 0.312434 -1.86197 0
M  V30 1315 O 126.638 1.21465 -1.36207 0
M  V30 1316 C 126.689 -1.78602 -3.14299 0
M  V30 1317 O 126.41 -3.17537 -3.01831 0
M  V30 1318 C 127.911 -1.72119 -4.08522 0
M  V30 1319 H 125.131 -0.395181 -0.542285 0
M  V30 1320 H 127.675 -1.66076 -1.19328 0
M  V30 1321 H 125.83 -1.29832 -3.64996 0
M  V30 1322 H 126.244 -3.49676 -3.90931 0
M  V30 1323 H 127.718 -2.22435 -5.052 0
M  V30 1324 H 128.195 -0.685635 -4.33815 0
M  V30 1325 H 128.801 -2.20393 -3.63741 0
M  V30 1326 N 127.117 1.15442 -1.07289 0
M  V30 1327 C 128.365 1.85845 -0.794096 0
M  V30 1328 C 128.686 1.82692 0.681809 0
M  V30 1329 O 127.956 1.26741 1.49377 0
M  V30 1330 H 126.536 0.688089 -0.290763 0
M  V30 1331 H 129.198 1.39947 -1.3565 0
M  V30 1332 H 128.294 2.91001 -1.12804 0
M  V30 1333 N 128.595 0.856903 1.32268 0
M  V30 1334 C 129.527 0.260412 2.27716 0
M  V30 1335 C 130.54 -0.569137 1.52528 0
M  V30 1336 O 131.729 -0.39326 1.74114 0
M  V30 1337 C 128.829 -0.650477 3.32599 0
M  V30 1338 C 128.002 0.14372 4.37164 0
M  V30 1339 C 127.061 -0.69328 5.21613 0
M  V30 1340 O 126.087 -0.12599 5.69061 0
M  V30 1341 N 127.289 -2.00761 5.44679 0
M  V30 1342 H 130.054 1.08059 2.79541 0
M  V30 1343 H 127.615 0.717103 1.45152 0
M  V30 1344 H 129.607 -1.21581 3.86005 0
M  V30 1345 H 128.177 -1.37133 2.80915 0
M  V30 1346 H 127.397 0.890486 3.8401 0
M  V30 1347 H 128.685 0.68915 5.04111 0
M  V30 1348 H 128.083 -2.49181 5.07863 0
M  V30 1349 H 126.64 -2.52103 6.01072 0
M  V30 1350 N 130.073 -1.45103 0.615059 0
M  V30 1351 C 131.003 -2.33339 -0.0865619 0
M  V30 1352 C 131.984 -1.4727 -0.851209 0
M  V30 1353 O 133.169 -1.76026 -0.820281 0
M  V30 1354 C 130.299 -3.30095 -1.07956 0
M  V30 1355 C 129.253 -4.25858 -0.427628 0
M  V30 1356 C 128.579 -5.12361 -1.5294 0
M  V30 1357 C 129.879 -5.18165 0.655944 0
M  V30 1358 H 131.573 -2.92254 0.650224 0
M  V30 1359 H 129.119 -1.40532 0.314138 0
M  V30 1360 H 131.072 -3.90698 -1.57901 0
M  V30 1361 H 129.796 -2.69355 -1.84703 0
M  V30 1362 H 128.455 -3.66564 0.0510292 0
M  V30 1363 H 128.103 -4.47984 -2.28734 0
M  V30 1364 H 127.803 -5.77238 -1.09865 0
M  V30 1365 H 129.327 -5.75833 -2.03098 0
M  V30 1366 H 130.741 -5.72796 0.240257 0
M  V30 1367 H 129.138 -5.91559 1.00888 0
M  V30 1368 H 130.208 -4.60144 1.52957 0
M  V30 1369 N 131.551 -0.354651 -1.53558 0
M  V30 1370 C 132.514 0.484566 -2.24019 0
M  V30 1371 C 133.514 1.01861 -1.24422 0
M  V30 1372 O 134.704 0.906097 -1.4878 0
M  V30 1373 C 131.836 1.67615 -2.96847 0
M  V30 1374 H 133.029 -0.131843 -2.9961 0
M  V30 1375 H 130.582 -0.106165 -1.55939 0
M  V30 1376 H 131.317 2.33095 -2.25471 0
M  V30 1377 H 131.102 1.30029 -3.69912 0
M  V30 1378 H 132.592 2.27114 -3.50441 0
M  V30 1379 N 133.029 1.57378 -0.0835403 0
M  V30 1380 C 133.959 2.1641 0.87686 0
M  V30 1381 C 134.94 1.09429 1.30228 0
M  V30 1382 O 136.125 1.37516 1.37124 0
M  V30 1383 C 133.255 2.73517 2.14022 0
M  V30 1384 C 132.209 3.85769 1.85381 0
M  V30 1385 C 131.535 4.29529 3.18448 0
M  V30 1386 C 132.835 5.09486 1.14984 0
M  V30 1387 H 134.529 2.96914 0.385059 0
M  V30 1388 H 132.075 1.42823 0.18377 0
M  V30 1389 H 134.028 3.13463 2.81636 0
M  V30 1390 H 132.752 1.90252 2.65465 0
M  V30 1391 H 131.411 3.46345 1.20169 0
M  V30 1392 H 131.059 3.43169 3.67755 0
M  V30 1393 H 130.759 5.05204 3.00071 0
M  V30 1394 H 132.283 4.72099 3.8724 0
M  V30 1395 H 133.697 5.46674 1.72687 0
M  V30 1396 H 132.094 5.90515 1.06826 0
M  V30 1397 H 133.164 4.84724 0.130749 0
M  V30 1398 N 134.507 -0.190092 1.56449 0
M  V30 1399 C 135.455 -1.25501 1.95837 0
M  V30 1400 C 136.449 -1.4685 0.844485 0
M  V30 1401 O 137.655 -1.47651 1.02952 0
M  V30 1402 H 134.03 -0.421447 0.622805 0
M  V30 1403 H 136.001 -0.895821 2.84636 0
M  V30 1404 C 134.75 -2.59124 2.31841 0
M  V30 1405 H 134.073 -2.43514 3.17082 0
M  V30 1406 H 135.513 -3.32371 2.6326 0
M  V30 1407 C 133.972 -3.16488 1.15486 0
M  V30 1408 O 134.502 -3.99365 0.432535 0
M  V30 1409 N 132.708 -2.75305 0.930349 0
M  V30 1410 H 132.255 -2.08013 1.51948 0
M  V30 1411 H 132.213 -3.14024 0.153634 0
M  V30 1412 N 135.985 -1.50799 -0.457987 0
M  V30 1413 C 137.231 -1.63648 -1.20792 0
M  V30 1414 C 137.586 -0.338662 -1.89396 0
M  V30 1415 O 136.879 0.664291 -1.79716 0
M  V30 1416 C 137.073 -2.76358 -2.2663 0
M  V30 1417 C 136.902 -4.16974 -1.68411 0
M  V30 1418 C 135.672 -4.83199 -1.47807 0
M  V30 1419 C 137.87 -5.00774 -1.17176 0
M  V30 1420 N 135.852 -6.07991 -0.849692 0
M  V30 1421 C 137.223 -6.16397 -0.667403 0
M  V30 1422 C 139.278 -4.86452 -1.06155 0
M  V30 1423 C 137.981 -7.19272 -0.0636908 0
M  V30 1424 C 140.007 -5.89515 -0.471759 0
M  V30 1425 C 139.369 -7.04397 0.0221557 0
M  V30 1426 H 135.468 -0.652888 -0.43042 0
M  V30 1427 H 138.052 -1.87962 -0.507785 0
M  V30 1428 H 136.223 -2.53744 -2.94056 0
M  V30 1429 H 137.955 -2.78496 -2.93636 0
M  V30 1430 H 134.71 -4.40714 -1.73403 0
M  V30 1431 H 135.134 -6.74733 -0.553537 0
M  V30 1432 H 139.776 -3.97907 -1.42932 0
M  V30 1433 H 137.494 -8.07481 0.316253 0
M  V30 1434 H 141.08 -5.805 -0.388671 0
M  V30 1435 H 139.96 -7.82782 0.471375 0
M  V30 1436 N 137.463 0.71206 -1.40597 0
M  V30 1437 C 138.426 1.80785 -1.40888 0
M  V30 1438 C 139.426 1.57937 -0.302103 0
M  V30 1439 O 140.616 1.64913 -0.561182 0
M  V30 1440 C 137.748 3.18927 -1.20409 0
M  V30 1441 H 138.941 1.81924 -2.38419 0
M  V30 1442 H 136.494 0.91805 -1.26497 0
M  V30 1443 H 137.229 3.23436 -0.236522 0
M  V30 1444 H 137.014 3.36911 -2.00582 0
M  V30 1445 H 138.504 3.98949 -1.23408 0
M  V30 1446 N 138.941 1.26152 0.944643 0
M  V30 1447 C 140.187 1.12665 1.69346 0
M  V30 1448 C 140.542 -0.3273 1.89596 0
M  V30 1449 O 139.835 -1.23717 1.46303 0
M  V30 1450 C 140.029 1.82541 3.07268 0
M  V30 1451 C 139.858 3.34582 3.00475 0
M  V30 1452 C 138.628 4.03863 3.03681 0
M  V30 1453 C 140.826 4.30828 2.80877 0
M  V30 1454 N 138.808 5.42603 2.87151 0
M  V30 1455 C 140.179 5.5672 2.7288 0
M  V30 1456 C 142.234 4.21122 2.65633 0
M  V30 1457 C 140.937 6.74013 2.51196 0
M  V30 1458 C 142.963 5.38118 2.45323 0
M  V30 1459 C 142.325 6.62955 2.38055 0
M  V30 1460 H 138.424 0.467041 0.627214 0
M  V30 1461 H 141.008 1.59391 1.11815 0
M  V30 1462 H 139.179 1.38296 3.62945 0
M  V30 1463 H 140.911 1.61708 3.70989 0
M  V30 1464 H 137.666 3.55198 3.1326 0
M  V30 1465 H 138.09 6.15443 2.82063 0
M  V30 1466 H 142.732 3.25344 2.70021 0
M  V30 1467 H 140.45 7.6989 2.4555 0
M  V30 1468 H 144.036 5.32475 2.34439 0
M  V30 1469 H 142.916 7.51959 2.22546 0
M  V30 1470 N 140.419 -1.14872 1.07899 0
M  V30 1471 C 141.83 -1.67367 0.827363 0
M  V30 1472 C 142.181 -1.85236 -0.646693 0
M  V30 1473 O 141.306 -1.55974 -1.50004 0
M  V30 1474 C 141.901 -3.04016 1.49532 0
M  V30 1475 C 140.46 -3.53566 1.29106 0
M  V30 1476 C 139.607 -2.29161 1.56143 0
M  V30 1477 H 142.558 -0.990083 1.24028 0
M  V30 1478 H 142.579 -3.69219 0.919643 0
M  V30 1479 H 142.091 -2.90978 2.56814 0
M  V30 1480 H 140.192 -3.71835 0.238713 0
M  V30 1481 H 140.305 -4.34661 2.01511 0
M  V30 1482 H 138.669 -2.34978 0.982717 0
M  V30 1483 H 139.452 -2.18705 2.64619 0
M  V30 1484 N 141.898 -0.863906 -1.31812 0
M  V30 1485 C 143.309 -0.52522 -1.7916 0
M  V30 1486 C 143.66 0.957518 -1.71248 0
M  V30 1487 O 142.785 1.74734 -1.27659 0
M  V30 1488 C 143.38 -0.9466 -3.25307 0
M  V30 1489 C 141.939 -0.659668 -3.70574 0
M  V30 1490 C 141.086 -1.14126 -2.52726 0
M  V30 1491 H 144.037 -1.05022 -1.1898 0
M  V30 1492 H 144.058 -0.266766 -3.79564 0
M  V30 1493 H 143.57 -2.02579 -3.31034 0
M  V30 1494 H 141.671 0.408416 -3.70355 0
M  V30 1495 H 141.784 -1.23245 -4.62977 0
M  V30 1496 H 140.148 -0.561216 -2.4844 0
M  V30 1497 H 140.931 -2.22775 -2.61201 0
M  V30 1498 N 143.376 1.44774 -0.622745 0
M  V30 1499 C 144.625 2.01334 -0.121397 0
M  V30 1500 C 144.938 1.49505 1.26125 0
M  V30 1501 O 146.144 1.98139 1.85616 0
M  V30 1502 C 144.6 3.59516 -0.166298 0
M  V30 1503 C 144.208 4.20342 -1.54974 0
M  V30 1504 C 145.952 4.23582 0.279021 0
M  V30 1505 C 143.859 5.70721 -1.55021 0
M  V30 1506 H 142.789 0.752851 -0.0416172 0
M  V30 1507 H 145.44 1.66083 -0.780309 0
M  V30 1508 H 143.822 3.92027 0.559557 0
M  V30 1509 H 144.996 3.99381 -2.29851 0
M  V30 1510 H 143.311 3.68529 -1.93843 0
M  V30 1511 H 145.908 5.33868 0.298083 0
M  V30 1512 H 146.251 3.95327 1.30471 0
M  V30 1513 H 146.784 3.95843 -0.394063 0
M  V30 1514 H 143.523 6.03698 -2.55399 0
M  V30 1515 H 143.043 5.93829 -0.844245 0
M  V30 1516 H 144.722 6.34203 -1.28047 0
M  V30 1517 N 144.854 0.36279 1.53368 0
M  V30 1518 C 146.101 -0.227776 2.01215 0
M  V30 1519 C 146.429 -1.49003 1.25014 0
M  V30 1520 O 145.684 -1.92876 0.331236 0
M  V30 1521 C 145.983 -0.568417 3.52851 0
M  V30 1522 C 145.649 0.59918 4.46901 0
M  V30 1523 C 144.311 0.919559 4.72332 0
M  V30 1524 C 146.663 1.38156 5.02556 0
M  V30 1525 C 143.991 2.02434 5.5067 0
M  V30 1526 C 146.343 2.47674 5.821 0
M  V30 1527 C 145.007 2.8025 6.05819 0
M  V30 1528 H 144.277 -0.083349 0.736297 0
M  V30 1529 H 146.924 0.494677 1.85001 0
M  V30 1530 H 145.229 -1.37185 3.66998 0
M  V30 1531 H 146.926 -1.03756 3.87344 0
M  V30 1532 H 143.516 0.339437 4.27254 0
M  V30 1533 H 147.7 1.14729 4.82857 0
M  V30 1534 H 142.956 2.28075 5.67267 0
M  V30 1535 H 147.13 3.08716 6.24234 0
M  V30 1536 H 144.757 3.65979 6.66306 0
M  V30 1537 N 146.332 -1.57332 0.0918853 0
M  V30 1538 C 147.579 -1.94236 -0.572577 0
M  V30 1539 C 147.907 -0.973398 -1.6839 0
M  V30 1540 O 147.162 0.00756912 -1.95699 0
M  V30 1541 C 147.461 -3.37689 -1.17051 0
M  V30 1542 C 147.127 -4.50527 -0.183304 0
M  V30 1543 C 145.789 -4.81119 0.0882276 0
M  V30 1544 C 148.141 -5.18883 0.49095 0
M  V30 1545 C 145.469 -5.77395 1.04076 0
M  V30 1546 C 147.821 -6.1618 1.43193 0
M  V30 1547 C 146.485 -6.45179 1.71173 0
M  V30 1548 H 145.755 -0.710762 -0.209521 0
M  V30 1549 H 148.402 -1.9077 0.167036 0
M  V30 1550 H 146.707 -3.37718 -1.9863 0
M  V30 1551 H 148.404 -3.63543 -1.69227 0
M  V30 1552 H 144.994 -4.26681 -0.405124 0
M  V30 1553 H 149.178 -4.95427 0.294312 0
M  V30 1554 H 144.434 -5.98179 1.26457 0
M  V30 1555 H 148.608 -6.68243 1.96023 0
M  V30 1556 H 146.235 -7.1959 2.4514 0
M  V30 1557 N 147.81 0.181792 -1.56548 0
M  V30 1558 C 149.058 0.89832 -1.81038 0
M  V30 1559 C 149.379 1.83232 -0.667164 0
M  V30 1560 O 148.649 1.93372 0.313673 0
M  V30 1561 H 147.229 0.33471 -0.667816 0
M  V30 1562 H 149.891 0.184116 -1.94028 0
M  V30 1563 H 148.987 1.4815 -2.74696 0
M  V30 1564 N 149.288 1.51039 0.449983 0
M  V30 1565 C 150.251 1.70863 1.5277 0
M  V30 1566 C 151.251 0.578846 1.5002 0
M  V30 1567 O 152.441 0.846213 1.52266 0
M  V30 1568 C 149.573 1.75341 2.9235 0
M  V30 1569 H 150.766 2.67034 1.36502 0
M  V30 1570 H 148.319 1.40838 0.677812 0
M  V30 1571 H 149.054 0.809383 3.14037 0
M  V30 1572 H 148.839 2.57436 2.95752 0
M  V30 1573 H 150.329 1.92559 3.70555 0
M  V30 1574 N 150.766 -0.704594 1.40972 0
M  V30 1575 C 152.182 -1.01406 1.23244 0
M  V30 1576 C 152.382 -2.01169 0.115399 0
M  V30 1577 O 151.438 -2.47021 -0.523147 0
M  V30 1578 C 152.751 -1.54728 2.57836 0
M  V30 1579 C 154.299 -1.66658 2.64942 0
M  V30 1580 C 154.774 -2.23383 3.9983 0
M  V30 1581 N 156.265 -2.30756 4.01629 0
M  V30 1582 C 157 -2.75655 5.02794 0
M  V30 1583 N 156.496 -3.20225 6.14352 0
M  V30 1584 N 158.289 -2.75138 4.90159 0
M  V30 1585 H 150.44 -0.0435285 2.12355 0
M  V30 1586 H 152.703 -0.0818951 0.944456 0
M  V30 1587 H 152.409 -0.888832 3.40283 0
M  V30 1588 H 152.283 -2.53084 2.79693 0
M  V30 1589 H 154.67 -2.31617 1.8286 0
M  V30 1590 H 154.751 -0.668717 2.46904 0
M  V30 1591 H 154.395 -1.59043 4.82357 0
M  V30 1592 H 154.325 -3.23904 4.15203 0
M  V30 1593 H 156.816 -1.99291 3.21079 0
M  V30 1594 H 157.129 -3.53084 6.87424 0
M  V30 1595 H 155.474 -3.18156 6.17901 0
M  V30 1596 H 158.665 -2.39661 4.02095 0
M  V30 1597 H 158.838 -3.09812 5.6914 0
M  V30 1598 N 152.244 -1.26651 -0.937939 0
M  V30 1599 C 153.176 -1.04283 -2.04102 0
M  V30 1600 C 154.189 -0.00221014 -1.628 0
M  V30 1601 O 155.378 -0.242645 -1.76843 0
M  V30 1602 C 152.478 -0.557846 -3.34277 0
M  V30 1603 C 151.651 -1.66843 -4.04329 0
M  V30 1604 C 150.71 -1.18095 -5.12777 0
M  V30 1605 O 149.736 -1.87865 -5.37304 0
M  V30 1606 N 150.938 -0.0311006 -5.80492 0
M  V30 1607 H 153.703 -1.9927 -2.23856 0
M  V30 1608 H 151.264 -1.1808 -1.10764 0
M  V30 1609 H 153.256 -0.215836 -4.04124 0
M  V30 1610 H 151.826 0.298523 -3.11171 0
M  V30 1611 H 151.046 -2.18123 -3.28353 0
M  V30 1612 H 152.334 -2.41408 -4.47883 0
M  V30 1613 H 151.732 0.551486 -5.63005 0
M  V30 1614 H 150.289 0.251809 -6.51313 0
M  V30 1615 N 153.722 1.14298 -1.08507 0
M  V30 1616 C 154.655 2.18447 -0.660004 0
M  V30 1617 C 155.633 1.59242 0.328749 0
M  V30 1618 O 156.817 1.87062 0.232367 0
M  V30 1619 C 153.944 3.38688 0.0290807 0
M  V30 1620 C 152.99 4.1646 -0.919982 0
M  V30 1621 S 153.823 4.77334 -2.42718 0
M  V30 1622 C 154.979 6.00931 -1.75024 0
M  V30 1623 H 155.212 2.54166 -1.54231 0
M  V30 1624 H 152.745 1.25446 -0.900149 0
M  V30 1625 H 154.703 4.08342 0.420378 0
M  V30 1626 H 153.364 3.01289 0.887895 0
M  V30 1627 H 152.557 5.02529 -0.384751 0
M  V30 1628 H 152.159 3.52414 -1.25223 0
M  V30 1629 H 154.451 6.69017 -1.06877 0
M  V30 1630 H 155.394 6.59044 -2.58971 0
M  V30 1631 H 155.802 5.51089 -1.22317 0
M  V30 1632 N 155.201 0.870884 1.31352 0
M  V30 1633 C 156.449 0.48132 1.96285 0
M  V30 1634 C 156.77 -0.969813 1.69173 0
M  V30 1635 O 156.04 -1.67998 1.00764 0
M  V30 1636 H 154.62 0.175002 0.726212 0
M  V30 1637 H 157.282 1.11087 1.60143 0
M  V30 1638 H 156.378 0.639825 3.05471 0
M  V30 1639 N 156.679 -1.44442 0.630414 0
M  V30 1640 C 157.925 -2.02894 0.143332 0
M  V30 1641 C 158.28 -1.48697 -1.22094 0
M  V30 1642 O 157.573 -0.661171 -1.79831 0
M  V30 1643 C 157.767 -3.57332 0.0697835 0
M  V30 1644 C 157.596 -4.26512 1.42539 0
M  V30 1645 C 156.366 -4.63516 2.01198 0
M  V30 1646 C 158.564 -4.57004 2.35907 0
M  V30 1647 N 156.546 -5.17661 3.30001 0
M  V30 1648 C 157.917 -5.12223 3.49324 0
M  V30 1649 C 159.972 -4.38955 2.34995 0
M  V30 1650 C 158.675 -5.51295 4.62024 0
M  V30 1651 C 160.701 -4.79075 3.46758 0
M  V30 1652 C 160.063 -5.34407 4.58899 0
M  V30 1653 H 156.162 -0.776041 0.0963523 0
M  V30 1654 H 158.746 -1.75945 0.833752 0
M  V30 1655 H 156.917 -3.83894 -0.589915 0
M  V30 1656 H 158.649 -4.02451 -0.42606 0
M  V30 1657 H 155.404 -4.47811 1.54151 0
M  V30 1658 H 155.828 -5.4921 3.95851 0
M  V30 1659 H 160.47 -3.95469 1.49545 0
M  V30 1660 H 158.188 -5.93736 5.48182 0
M  V30 1661 H 161.774 -4.66824 3.47227 0
M  V30 1662 H 160.654 -5.64878 5.4395 0
M  V30 1663 N 158.157 -0.370918 -1.53173 0
M  V30 1664 C 159.12 0.460778 -2.24521 0
M  V30 1665 C 160.12 1.00536 -1.25496 0
M  V30 1666 O 161.31 0.890266 -1.49733 0
M  V30 1667 C 158.442 1.64457 -2.98608 0
M  V30 1668 H 159.635 -0.163613 -2.99453 0
M  V30 1669 H 157.188 -0.122699 -1.55818 0
M  V30 1670 H 157.923 2.30691 -2.2793 0
M  V30 1671 H 157.708 1.26099 -3.7127 0
M  V30 1672 H 159.198 2.23384 -3.5283 0
M  V30 1673 N 159.635 1.57281 -0.100228 0
M  V30 1674 C 160.565 2.17328 0.853857 0
M  V30 1675 C 161.546 1.10804 1.2906 0
M  V30 1676 O 162.731 1.38963 1.35657 0
M  V30 1677 C 159.861 2.75772 2.11109 0
M  V30 1678 C 158.815 3.87713 1.81279 0
M  V30 1679 C 158.141 4.32882 3.13874 0
M  V30 1680 C 159.441 5.10677 1.09574 0
M  V30 1681 H 161.135 2.97305 0.353545 0
M  V30 1682 H 158.681 1.43009 0.168612 0
M  V30 1683 H 160.634 3.16433 2.78296 0
M  V30 1684 H 159.358 1.93057 2.63432 0
M  V30 1685 H 158.017 3.476 1.16489 0
M  V30 1686 H 157.665 3.47051 3.64095 0
M  V30 1687 H 157.365 5.08358 2.94696 0
M  V30 1688 H 158.889 4.7618 3.82211 0
M  V30 1689 H 160.303 5.48474 1.66879 0
M  V30 1690 H 158.7 5.91615 1.00557 0
M  V30 1691 H 159.77 4.84835 0.0793299 0
M  V30 1692 N 161.113 -0.173488 1.56642 0
M  V30 1693 C 162.359 -0.891784 1.8214 0
M  V30 1694 C 162.692 -1.8199 0.677736 0
M  V30 1695 O 161.967 -1.91842 -0.320446 0
M  V30 1696 C 162.25 -1.68933 3.18015 0
M  V30 1697 C 162.103 -0.784487 4.42906 0
M  V30 1698 C 163.422 -2.65748 3.50808 0
M  V30 1699 H 160.541 -0.322761 0.662567 0
M  V30 1700 H 163.183 -0.158095 1.89341 0
M  V30 1701 H 161.333 -2.31482 3.12007 0
M  V30 1702 H 163.005 -0.172046 4.60979 0
M  V30 1703 H 161.248 -0.0924117 4.33702 0
M  V30 1704 H 161.919 -1.37799 5.34524 0
M  V30 1705 H 164.395 -2.13327 3.57255 0
M  V30 1706 H 163.271 -3.18619 4.4696 0
M  V30 1707 H 163.532 -3.45842 2.75401 0
M  V30 1708 N 162.591 -1.51276 -0.441967 0
M  V30 1709 C 163.868 -1.54252 -1.20273 0
M  V30 1710 C 164.248 -0.30408 -2.08898 0
M  V30 1711 O 163.596 0.711084 -2.17154 0
M  V30 1712 C 163.806 -2.85406 -2.00859 0
M  V30 1713 C 165.154 -3.37181 -2.58059 0
M  V30 1714 O 166.178 -2.86925 -2.11074 0
M  V30 1715 O 165.037 -4.24858 -3.43741 0
M  V30 1716 H 162.131 -0.619969 -0.547328 0
M  V30 1717 H 164.677 -1.63586 -0.451413 0
M  V30 1718 H 163.449 -3.67003 -1.35736 0
M  V30 1719 H 163.072 -2.79213 -2.83065 0
M  V30 1720 N 164.069 0.697108 -1.41344 0
M  V30 1721 C 164.999 1.82353 -1.45841 0
M  V30 1722 C 165.98 1.67115 -0.317247 0
M  V30 1723 O 167.165 1.86871 -0.528474 0
M  V30 1724 C 164.295 3.20476 -1.33838 0
M  V30 1725 C 163.249 3.50415 -2.4575 0
M  V30 1726 C 162.575 4.87878 -2.18813 0
M  V30 1727 C 163.875 3.49546 -3.88091 0
M  V30 1728 H 165.569 1.78846 -2.40113 0
M  V30 1729 H 163.115 0.859028 -1.15571 0
M  V30 1730 H 165.068 3.98988 -1.35596 0
M  V30 1731 H 163.792 3.24604 -0.360498 0
M  V30 1732 H 162.451 2.74253 -2.43271 0
M  V30 1733 H 162.099 4.8863 -1.19371 0
M  V30 1734 H 161.799 5.08875 -2.93803 0
M  V30 1735 H 163.323 5.68702 -2.22284 0
M  V30 1736 H 164.737 4.18066 -3.92293 0
M  V30 1737 H 163.134 3.82075 -4.62751 0
M  V30 1738 H 164.204 2.48552 -4.16353 0
M  V30 1739 N 165.547 1.27147 0.931209 0
M  V30 1740 C 166.477 1.12081 2.04842 0
M  V30 1741 C 167.458 0.0232364 1.70084 0
M  V30 1742 O 168.643 0.197085 1.93197 0
M  V30 1743 C 165.773 0.76354 3.38803 0
M  V30 1744 C 164.727 1.81396 3.87659 0
M  V30 1745 C 164.053 1.31075 5.18385 0
M  V30 1746 C 165.353 3.21739 4.11438 0
M  V30 1747 H 167.047 2.05537 2.17703 0
M  V30 1748 H 164.593 0.989603 1.04608 0
M  V30 1749 H 166.546 0.644982 4.16435 0
M  V30 1750 H 165.27 -0.206727 3.25945 0
M  V30 1751 H 163.929 1.92136 3.12217 0
M  V30 1752 H 163.577 0.330037 5.01916 0
M  V30 1753 H 163.277 2.013 5.52044 0
M  V30 1754 H 164.801 1.20506 5.98591 0
M  V30 1755 H 166.215 3.14019 4.79651 0
M  V30 1756 H 164.612 3.89644 4.56397 0
M  V30 1757 H 165.682 3.67054 3.16859 0
M  V30 1758 N 167.025 -1.13721 1.09112 0
M  V30 1759 C 167.955 -2.21148 0.749385 0
M  V30 1760 C 168.936 -1.6792 -0.271475 0
M  V30 1761 O 170.121 -1.93693 -0.140251 0
M  V30 1762 C 167.251 -3.46905 0.165659 0
M  V30 1763 C 166.205 -4.13203 1.11567 0
M  V30 1764 C 165.531 -5.33248 0.393809 0
M  V30 1765 C 166.831 -4.60912 2.45678 0
M  V30 1766 H 168.525 -2.4999 1.64758 0
M  V30 1767 H 166.071 -1.20156 0.793626 0
M  V30 1768 H 168.024 -4.21313 -0.085466 0
M  V30 1769 H 166.748 -3.17449 -0.767714 0
M  V30 1770 H 165.407 -3.40758 1.35202 0
M  V30 1771 H 165.055 -5.00054 -0.543599 0
M  V30 1772 H 164.755 -5.78552 1.02721 0
M  V30 1773 H 166.279 -6.10413 0.150908 0
M  V30 1774 H 167.693 -5.26759 2.26269 0
M  V30 1775 H 166.09 -5.16944 3.04776 0
M  V30 1776 H 167.16 -3.75603 3.06677 0
M  V30 1777 N 168.503 -0.877838 -1.30888 0
M  V30 1778 C 169.749 -0.493426 -1.96706 0
M  V30 1779 C 170.082 0.953504 -1.6918 0
M  V30 1780 O 169.357 1.67266 -0.992594 0
M  V30 1781 C 169.64 -0.760429 -3.51979 0
M  V30 1782 C 169.493 -2.25747 -3.89048 0
M  V30 1783 C 170.812 -0.232148 -4.39487 0
M  V30 1784 H 167.931 -0.180746 -0.714493 0
M  V30 1785 H 170.573 -1.10052 -1.54882 0
M  V30 1786 H 168.723 -0.243715 -3.87735 0
M  V30 1787 H 170.395 -2.84204 -3.63354 0
M  V30 1788 H 168.638 -2.72694 -3.37373 0
M  V30 1789 H 169.309 -2.39491 -4.97341 0
M  V30 1790 H 171.785 -0.674314 -4.106 0
M  V30 1791 H 170.661 -0.448355 -5.47066 0
M  V30 1792 H 170.922 0.866297 -4.33529 0
M  V30 1793 N 169.982 1.44106 -0.638065 0
M  V30 1794 C 171.207 2.0685 -0.150916 0
M  V30 1795 C 171.632 1.47417 1.16833 0
M  V30 1796 O 170.99 0.578264 1.71831 0
M  V30 1797 C 171.038 3.60555 -0.05708 0
M  V30 1798 O 170.142 4.00465 0.984972 0
M  V30 1799 H 169.483 0.658151 -0.0879399 0
M  V30 1800 H 172.013 1.84865 -0.876707 0
M  V30 1801 H 172.023 4.07789 0.131232 0
M  V30 1802 H 170.698 4.03193 -1.02021 0
M  V30 1803 H 169.275 3.64849 0.770672 0
M  V30 1804 N 171.46 0.379036 1.52974 0
M  V30 1805 C 172.708 -0.206014 2.01047 0
M  V30 1806 C 173.029 -1.48175 1.26765 0
M  V30 1807 O 172.299 -1.92085 0.384743 0
M  V30 1808 H 170.879 -0.0791184 0.742798 0
M  V30 1809 H 173.541 0.508366 1.88153 0
M  V30 1810 H 172.637 -0.423501 3.09213 0
M  V30 1811 N 172.938 -1.57226 0.108567 0
M  V30 1812 C 173.901 -2.13602 -0.831082 0
M  V30 1813 C 174.901 -1.06841 -1.20173 0
M  V30 1814 O 176.091 -1.32666 -1.12895 0
M  V30 1815 C 173.223 -2.66769 -2.12243 0
M  V30 1816 H 174.416 -2.97951 -0.341317 0
M  V30 1817 H 171.969 -1.55667 -0.14057 0
M  V30 1818 H 172.704 -1.85977 -2.65675 0
M  V30 1819 H 172.489 -3.44839 -1.86625 0
M  V30 1820 H 173.979 -3.10332 -2.79435 0
M  V30 1821 N 174.416 0.165178 -1.56732 0
M  V30 1822 C 175.379 1.18822 -1.95995 0
M  V30 1823 C 176.379 1.3685 -0.84431 0
M  V30 1824 O 177.569 1.34152 -1.11126 0
M  V30 1825 C 174.701 2.5521 -2.26011 0
M  V30 1826 H 175.894 0.851825 -2.87548 0
M  V30 1827 H 173.447 0.407857 -1.50885 0
M  V30 1828 H 174.182 2.93852 -1.37191 0
M  V30 1829 H 173.967 2.43489 -3.07336 0
M  V30 1830 H 175.457 3.28927 -2.57288 0
M  V30 1831 N 175.894 1.51508 0.433938 0
M  V30 1832 C 176.857 1.72473 1.50949 0
M  V30 1833 C 177.857 0.594725 1.49398 0
M  V30 1834 O 179.047 0.862315 1.5136 0
M  V30 1835 C 176.179 1.78431 2.90474 0
M  V30 1836 H 177.372 2.68467 1.33662 0
M  V30 1837 H 174.925 1.41549 0.662836 0
M  V30 1838 H 175.66 0.842645 3.13161 0
M  V30 1839 H 175.445 2.60558 2.93005 0
M  V30 1840 H 176.935 1.96479 3.68491 0
M  V30 1841 N 177.372 -0.689602 1.41712 0
M  V30 1842 C 178.335 -1.78521 1.43746 0
M  V30 1843 C 179.335 -1.57436 0.327191 0
M  V30 1844 O 180.525 -1.64 0.587348 0
M  V30 1845 C 177.657 -3.16971 1.25467 0
M  V30 1846 H 178.85 -1.78108 2.41283 0
M  V30 1847 H 176.403 -0.89781 1.27942 0
M  V30 1848 H 177.138 -3.23019 0.287948 0
M  V30 1849 H 176.923 -3.33678 2.05917 0
M  V30 1850 H 178.413 -3.96935 1.2974 0
M  V30 1851 N 178.85 -1.27639 -0.924453 0
M  V30 1852 C 180.078 -1.16989 -1.70649 0
M  V30 1853 C 180.493 0.272869 -1.86818 0
M  V30 1854 O 179.85 1.18549 -1.38753 0
M  V30 1855 C 179.901 -1.85229 -3.10439 0
M  V30 1856 O 179.622 -3.23868 -2.95028 0
M  V30 1857 C 181.123 -1.80746 -4.04779 0
M  V30 1858 H 178.343 -0.406595 -0.53378 0
M  V30 1859 H 180.887 -1.68569 -1.15778 0
M  V30 1860 H 179.042 -1.37545 -3.6216 0
M  V30 1861 H 179.456 -3.57889 -3.83426 0
M  V30 1862 H 180.93 -2.33101 -5.00368 0
M  V30 1863 H 181.407 -0.777499 -4.32263 0
M  V30 1864 H 182.013 -2.28059 -3.58984 0
M  V30 1865 N 180.328 1.1314 -1.09713 0
M  V30 1866 C 181.556 1.88321 -0.856898 0
M  V30 1867 C 181.971 1.79276 0.592073 0
M  V30 1868 O 181.328 1.16142 1.40774 0
M  V30 1869 C 181.379 3.37812 -1.28706 0
M  V30 1870 O 181.1 3.46627 -2.67921 0
M  V30 1871 C 182.601 4.29952 -1.07964 0
M  V30 1872 H 179.821 0.596094 -0.308079 0
M  V30 1873 H 182.365 1.43205 -1.45988 0
M  V30 1874 H 180.52 3.805 -0.727912 0
M  V30 1875 H 180.934 4.39579 -2.8613 0
M  V30 1876 H 182.408 5.33159 -1.42986 0
M  V30 1877 H 182.885 4.39196 -0.0176577 0
M  V30 1878 H 183.491 3.93036 -1.62489 0
M  V30 1879 N 181.806 0.884767 1.30421 0
M  V30 1880 C 183.052 0.503851 1.96441 0
M  V30 1881 C 183.385 -0.944518 1.69684 0
M  V30 1882 O 182.66 -1.66737 1.00145 0
M  V30 1883 C 182.943 0.779085 3.51571 0
M  V30 1884 C 182.796 2.27807 3.87846 0
M  V30 1885 C 184.115 0.255452 4.39358 0
M  V30 1886 H 181.234 0.184533 0.713524 0
M  V30 1887 H 183.876 1.10872 1.54297 0
M  V30 1888 H 182.026 0.264274 3.876 0
M  V30 1889 H 183.698 2.86127 3.61841 0
M  V30 1890 H 181.941 2.74479 3.35922 0
M  V30 1891 H 182.612 2.42125 4.96064 0
M  V30 1892 H 185.088 0.696079 4.10236 0
M  V30 1893 H 183.964 0.477361 5.4682 0
M  V30 1894 H 184.225 -0.843293 4.33983 0
M  V30 1895 N 183.284 -1.43765 0.645699 0
M  V30 1896 C 184.247 -2.29163 -0.0409488 0
M  V30 1897 C 185.247 -1.41813 -0.757996 0
M  V30 1898 O 186.437 -1.63527 -0.600382 0
M  V30 1899 C 183.569 -3.23716 -1.06869 0
M  V30 1900 H 184.762 -2.91366 0.710345 0
M  V30 1901 H 182.315 -1.5092 0.406547 0
M  V30 1902 H 183.05 -2.66393 -1.84947 0
M  V30 1903 H 182.835 -3.88105 -0.558277 0
M  V30 1904 H 184.325 -3.87831 -1.54845 0
M  V30 1905 N 184.763 -0.387143 -1.52771 0
M  V30 1906 C 186.009 0.188506 -2.02525 0
M  V30 1907 C 186.364 1.44649 -1.26864 0
M  V30 1908 O 185.657 1.88189 -0.359945 0
M  V30 1909 C 185.851 0.512209 -3.53711 0
M  V30 1910 C 185.68 -0.712855 -4.44014 0
M  V30 1911 C 184.45 -1.23147 -4.90064 0
M  V30 1912 C 186.648 -1.58453 -4.89282 0
M  V30 1913 N 184.63 -2.41431 -5.64433 0
M  V30 1914 C 186.001 -2.61381 -5.6221 0
M  V30 1915 C 188.056 -1.60488 -4.71326 0
M  V30 1916 C 186.759 -3.66227 -6.19088 0
M  V30 1917 C 188.785 -2.6424 -5.29085 0
M  V30 1918 C 188.147 -3.6589 -6.01917 0
M  V30 1919 H 184.246 0.0311236 -0.78138 0
M  V30 1920 H 186.83 -0.536548 -1.87161 0
M  V30 1921 H 185.001 1.20632 -3.69192 0
M  V30 1922 H 186.733 1.07482 -3.90166 0
M  V30 1923 H 183.488 -0.792795 -4.66917 0
M  V30 1924 H 183.912 -3.01274 -6.0627 0
M  V30 1925 H 188.554 -0.83247 -4.14524 0
M  V30 1926 H 186.272 -4.44337 -6.74974 0
M  V30 1927 H 189.858 -2.66695 -5.17074 0
M  V30 1928 H 188.738 -4.44855 -6.45813 0
M  V30 1929 N 186.241 1.57166 -0.116904 0
M  V30 1930 C 187.471 1.99184 0.548586 0
M  V30 1931 C 187.879 0.995436 1.60897 0
M  V30 1932 O 187.222 -0.0201293 1.83689 0
M  V30 1933 C 187.284 3.37611 1.23526 0
M  V30 1934 C 186.948 4.55857 0.323077 0
M  V30 1935 C 187.945 5.18056 -0.437476 0
M  V30 1936 C 185.63 5.01751 0.234761 0
M  V30 1937 C 187.624 6.24536 -1.2741 0
M  V30 1938 C 185.311 6.08093 -0.605496 0
M  V30 1939 C 186.309 6.69352 -1.35856 0
M  V30 1940 O 185.997 7.7364 -2.18487 0
M  V30 1941 H 185.729 0.659148 0.149999 0
M  V30 1942 H 188.283 2.0443 -0.199428 0
M  V30 1943 H 186.513 3.29113 2.0303 0
M  V30 1944 H 188.202 3.63932 1.79745 0
M  V30 1945 H 188.968 4.83516 -0.379105 0
M  V30 1946 H 184.847 4.53817 0.810601 0
M  V30 1947 H 188.391 6.72281 -1.86237 0
M  V30 1948 H 184.288 6.42063 -0.665268 0
M  V30 1949 H 185.056 7.90727 -2.11406 0
M  V30 1950 N 187.719 -0.156864 1.56817 0
M  V30 1951 C 188.651 -1.21883 1.94106 0
M  V30 1952 C 189.664 -1.3971 0.835754 0
M  V30 1953 O 190.853 -1.39457 1.11418 0
M  V30 1954 C 187.953 -2.58527 2.19127 0
M  V30 1955 C 187.126 -2.61809 3.50393 0
M  V30 1956 C 186.185 -3.7992 3.64071 0
M  V30 1957 O 185.211 -3.65249 4.36557 0
M  V30 1958 N 186.413 -4.96973 2.99997 0
M  V30 1959 H 189.178 -0.901974 2.85805 0
M  V30 1960 H 186.739 -0.346513 1.58148 0
M  V30 1961 H 188.731 -3.36034 2.25529 0
M  V30 1962 H 187.301 -2.82545 1.33742 0
M  V30 1963 H 186.521 -1.7029 3.5552 0
M  V30 1964 H 187.809 -2.61024 4.36742 0
M  V30 1965 H 187.207 -5.11794 2.41004 0
M  V30 1966 H 185.764 -5.7229 3.11974 0
M  V30 1967 N 189.197 -1.51736 -0.425897 0
M  V30 1968 C 190.443 -1.65214 -1.1761 0
M  V30 1969 C 190.776 -0.372778 -1.90589 0
M  V30 1970 O 190.051 0.628139 -1.84078 0
M  V30 1971 C 190.334 -2.86312 -2.18398 0
M  V30 1972 C 190.187 -4.24254 -1.49426 0
M  V30 1973 C 191.506 -3.02925 -3.19256 0
M  V30 1974 H 188.625 -0.601263 -0.426206 0
M  V30 1975 H 191.267 -1.8425 -0.463882 0
M  V30 1976 H 189.417 -2.70213 -2.79137 0
M  V30 1977 H 191.089 -4.52046 -0.919362 0
M  V30 1978 H 189.332 -4.26426 -0.796432 0
M  V30 1979 H 190.003 -5.05001 -2.22885 0
M  V30 1980 H 192.479 -3.1781 -2.68581 0
M  V30 1981 H 191.355 -3.89199 -3.8706 0
M  V30 1982 H 191.616 -2.15497 -3.86023 0
M  V30 1983 N 190.675 0.682077 -1.42076 0
M  V30 1984 C 191.9 1.47558 -1.45744 0
M  V30 1985 C 192.325 1.87977 -0.0680981 0
M  V30 1986 O 191.683 1.55522 0.9318 0
M  V30 1987 C 191.731 2.70575 -2.38373 0
M  V30 1988 O 190.835 3.68573 -1.85007 0
M  V30 1989 H 190.176 0.443585 -0.494093 0
M  V30 1990 H 192.706 0.837238 -1.86686 0
M  V30 1991 H 192.716 3.18729 -2.54707 0
M  V30 1992 H 191.391 2.40495 -3.39315 0
M  V30 1993 H 189.968 3.2757 -1.78192 0
M  V30 1994 N 192.153 1.28127 0.917671 0
M  V30 1995 C 193.564 1.13622 1.48145 0
M  V30 1996 C 193.915 -0.275207 1.9426 0
M  V30 1997 O 193.04 -1.1691 1.82102 0
M  V30 1998 C 193.635 2.05648 2.69248 0
M  V30 1999 C 192.194 1.95219 3.21818 0
M  V30 2000 C 191.341 1.97618 1.94532 0
M  V30 2001 H 194.292 1.40874 0.730772 0
M  V30 2002 H 194.313 1.61818 3.44377 0
M  V30 2003 H 193.825 3.08365 2.35653 0
M  V30 2004 H 191.926 0.955244 3.60147 0
M  V30 2005 H 192.039 2.81976 3.87333 0
M  V30 2006 H 190.403 1.41973 2.11461 0
M  V30 2007 H 191.186 3.02007 1.63238 0
M  V30 2008 N 193.631 -1.12557 1.10312 0
M  V30 2009 C 194.561 -2.20341 0.772798 0
M  V30 2010 C 195.542 -1.68198 -0.25365 0
M  V30 2011 O 196.727 -1.93831 -0.119699 0
M  V30 2012 C 193.857 -3.46709 0.202443 0
M  V30 2013 C 192.811 -4.11996 1.15943 0
M  V30 2014 C 192.137 -5.328 0.450345 0
M  V30 2015 C 193.437 -4.5828 2.50552 0
M  V30 2016 H 195.131 -2.48229 1.674 0
M  V30 2017 H 192.677 -1.19308 0.806326 0
M  V30 2018 H 194.63 -4.2138 -0.0407752 0
M  V30 2019 H 193.354 -3.18245 -0.734001 0
M  V30 2020 H 192.013 -3.39305 1.38808 0
M  V30 2021 H 191.661 -5.00602 -0.490531 0
M  V30 2022 H 191.361 -5.7743 1.08851 0
M  V30 2023 H 192.885 -6.10219 0.215642 0
M  V30 2024 H 194.299 -5.2433 2.31843 0
M  V30 2025 H 192.696 -5.13683 3.10242 0
M  V30 2026 H 193.766 -3.72329 3.10643 0
M  V30 2027 N 195.109 -0.891671 -1.2995 0
M  V30 2028 C 196.072 -0.36828 -2.26222 0
M  V30 2029 C 197.072 0.493014 -1.53056 0
M  V30 2030 O 198.262 0.299213 -1.71611 0
M  V30 2031 C 195.394 0.47442 -3.37583 0
M  V30 2032 H 196.587 -1.21844 -2.74033 0
M  V30 2033 H 194.14 -0.669107 -1.41254 0
M  V30 2034 H 194.875 1.34489 -2.95099 0
M  V30 2035 H 194.66 -0.142615 -3.91841 0
M  V30 2036 H 196.15 0.83218 -4.09224 0
M  V30 2037 N 196.587 1.43421 -0.653314 0
M  V30 2038 C 197.55 2.29182 0.0287951 0
M  V30 2039 C 198.55 1.42213 0.750465 0
M  V30 2040 O 199.74 1.63843 0.591701 0
M  V30 2041 C 196.872 3.24278 1.05151 0
M  V30 2042 H 198.065 2.90985 -0.725786 0
M  V30 2043 H 195.618 1.50702 -0.414545 0
M  V30 2044 H 196.353 2.6737 1.83532 0
M  V30 2045 H 196.138 3.88396 0.537687 0
M  V30 2046 H 197.628 3.88647 1.52786 0
M  V30 2047 N 198.065 0.39524 1.52563 0
M  V30 2048 C 199.481 0.0454682 1.59535 0
M  V30 2049 C 199.681 -1.44056 1.4089 0
M  V30 2050 O 198.737 -2.20579 1.22888 0
M  V30 2051 C 200.05 0.527963 2.96029 0
M  V30 2052 C 201.598 0.484733 3.09224 0
M  V30 2053 C 202.073 0.943512 4.48176 0
M  V30 2054 N 203.564 0.899765 4.54377 0
M  V30 2055 C 204.299 1.22609 5.60138 0
M  V30 2056 N 203.795 1.62319 6.73516 0
M  V30 2057 N 205.588 1.14696 5.50274 0
M  V30 2058 H 197.739 1.36261 1.62931 0
M  V30 2059 H 200.002 0.558887 0.765735 0
M  V30 2060 H 199.708 1.56607 3.14908 0
M  V30 2061 H 199.582 -0.0698056 3.77135 0
M  V30 2062 H 201.969 -0.544298 2.90037 0
M  V30 2063 H 202.05 1.11838 2.30056 0
M  V30 2064 H 201.694 1.9708 4.68104 0
M  V30 2065 H 201.624 0.286817 5.25818 0
M  V30 2066 H 204.115 0.607632 3.72983 0
M  V30 2067 H 204.428 1.85567 7.5019 0
M  V30 2068 H 202.773 1.66211 6.74833 0
M  V30 2069 H 205.964 0.835701 4.6058 0
M  V30 2070 H 206.137 1.40459 6.32594 0
M  V30 2071 N 199.544 -1.57102 0.125237 0
M  V30 2072 C 200.474 -2.18659 -0.819174 0
M  V30 2073 C 201.455 -1.12843 -1.27281 0
M  V30 2074 O 202.64 -1.41104 -1.33429 0
M  V30 2075 C 199.77 -2.79096 -2.06695 0
M  V30 2076 C 198.724 -3.90548 -1.75088 0
M  V30 2077 C 198.05 -4.37821 -3.06948 0
M  V30 2078 C 199.35 -5.12356 -1.01435 0
M  V30 2079 H 201.044 -2.9783 -0.306202 0
M  V30 2080 H 198.59 -1.4326 -0.145839 0
M  V30 2081 H 200.543 -3.2082 -2.73226 0
M  V30 2082 H 199.267 -1.97223 -2.60328 0
M  V30 2083 H 197.926 -3.49409 -1.10944 0
M  V30 2084 H 197.574 -3.52799 -3.58527 0
M  V30 2085 H 197.274 -5.12982 -2.86571 0
M  V30 2086 H 198.798 -4.822 -3.74587 0
M  V30 2087 H 200.212 -5.5106 -1.58132 0
M  V30 2088 H 198.609 -5.9314 -0.911319 0
M  V30 2089 H 199.679 -4.849 -0.00218681 0
M  V30 2090 N 201.022 0.148545 -1.56898 0
M  V30 2091 C 201.952 1.18524 -2.01182 0
M  V30 2092 C 202.933 1.4489 -0.891123 0
M  V30 2093 O 204.118 1.55836 -1.15882 0
M  V30 2094 C 201.248 2.51879 -2.39112 0
M  V30 2095 C 200.202 2.40038 -3.54353 0
M  V30 2096 C 199.528 3.78089 -3.78091 0
M  V30 2097 C 200.828 1.88577 -4.87069 0
M  V30 2098 H 202.522 0.817029 -2.88036 0
M  V30 2099 H 200.068 0.391575 -1.38574 0
M  V30 2100 H 202.021 3.24627 -2.68692 0
M  V30 2101 H 200.745 2.90532 -1.49193 0
M  V30 2102 H 199.404 1.69742 -3.24936 0
M  V30 2103 H 199.052 4.14175 -2.85426 0
M  V30 2104 H 198.752 3.71028 -4.55645 0
M  V30 2105 H 200.276 4.52387 -4.10095 0
M  V30 2106 H 201.69 2.51117 -5.15377 0
M  V30 2107 H 200.087 1.9241 -5.68417 0
M  V30 2108 H 201.157 0.84136 -4.77545 0
M  V30 2109 N 202.5 1.5196 0.417844 0
M  V30 2110 C 203.73 1.69181 1.18581 0
M  V30 2111 C 204.138 0.397104 1.84986 0
M  V30 2112 O 203.481 -0.636011 1.72339 0
M  V30 2113 C 203.543 2.76497 2.29759 0
M  V30 2114 C 203.207 4.18514 1.83563 0
M  V30 2115 C 204.204 5.02648 1.32821 0
M  V30 2116 C 201.889 4.64708 1.90661 0
M  V30 2117 C 203.883 6.31044 0.897894 0
M  V30 2118 C 201.57 5.93096 1.47241 0
M  V30 2119 C 202.568 6.76093 0.968891 0
M  V30 2120 O 202.256 8.02078 0.540924 0
M  V30 2121 H 201.988 0.570457 0.362705 0
M  V30 2122 H 204.542 1.99249 0.498885 0
M  V30 2123 H 202.772 2.41786 3.01789 0
M  V30 2124 H 204.461 2.82403 2.91553 0
M  V30 2125 H 205.227 4.68154 1.26716 0
M  V30 2126 H 201.106 4.00216 2.28797 0
M  V30 2127 H 204.65 6.95776 0.504192 0
M  V30 2128 H 200.547 6.271 1.53022 0
M  V30 2129 H 201.315 8.15794 0.66502 0
M  V30 2130 N 203.978 -0.674533 1.42435 0
M  V30 2131 C 205.389 -1.25514 1.38214 0
M  V30 2132 C 205.74 -1.96055 0.0755464 0
M  V30 2133 O 204.865 -2.00028 -0.8257 0
M  V30 2134 C 205.46 -2.28269 2.50357 0
M  V30 2135 C 204.019 -2.81856 2.49467 0
M  V30 2136 C 203.166 -1.56182 2.29134 0
M  V30 2137 H 206.117 -0.467902 1.51646 0
M  V30 2138 H 206.138 -3.10009 2.20624 0
M  V30 2139 H 205.65 -1.769 3.45439 0
M  V30 2140 H 203.751 -3.37346 1.58204 0
M  V30 2141 H 203.864 -3.30854 3.46515 0
M  V30 2142 H 202.228 -1.82761 1.774 0
M  V30 2143 H 203.011 -1.06778 3.26272 0
M  V30 2144 N 205.456 -1.28612 -0.910864 0
M  V30 2145 C 206.686 -1.1862 -1.69153 0
M  V30 2146 C 207.094 0.257324 -1.87442 0
M  V30 2147 O 206.437 1.18543 -1.40332 0
M  V30 2148 C 206.499 -1.81606 -3.10257 0
M  V30 2149 C 206.163 -3.30864 -3.15243 0
M  V30 2150 C 207.16 -4.27256 -2.96223 0
M  V30 2151 C 204.845 -3.71871 -3.37664 0
M  V30 2152 C 206.839 -5.62631 -2.99541 0
M  V30 2153 C 204.526 -5.07371 -3.40614 0
M  V30 2154 C 205.524 -6.02561 -3.21573 0
M  V30 2155 O 205.212 -7.35589 -3.2429 0
M  V30 2156 H 204.944 -0.412633 -0.535453 0
M  V30 2157 H 207.498 -1.70306 -1.14827 0
M  V30 2158 H 205.728 -1.24418 -3.66138 0
M  V30 2159 H 207.417 -1.66092 -3.70362 0
M  V30 2160 H 208.183 -3.9691 -2.78725 0
M  V30 2161 H 204.062 -2.98241 -3.5153 0
M  V30 2162 H 207.606 -6.36907 -2.84597 0
M  V30 2163 H 203.503 -5.37366 -3.57642 0
M  V30 2164 H 204.271 -7.44252 -3.40633 0
M  V30 2165 N 206.934 1.1197 -1.10907 0
M  V30 2166 C 207.864 2.19928 -0.784473 0
M  V30 2167 C 208.845 1.6833 0.244726 0
M  V30 2168 O 210.03 1.93892 0.109418 0
M  V30 2169 C 207.16 3.46597 -0.220827 0
M  V30 2170 C 206.114 4.11376 -1.18127 0
M  V30 2171 C 205.44 5.32554 -0.478594 0
M  V30 2172 C 206.74 4.56945 -2.52979 0
M  V30 2173 H 208.434 2.47337 -1.68715 0
M  V30 2174 H 205.98 1.18879 -0.812642 0
M  V30 2175 H 207.933 4.21396 0.0184278 0
M  V30 2176 H 206.657 3.1863 0.717113 0
M  V30 2177 H 205.316 3.38564 -1.40606 0
M  V30 2178 H 204.964 5.00856 0.463976 0
M  V30 2179 H 204.664 5.76844 -1.11912 0
M  V30 2180 H 206.188 6.10096 -0.248 0
M  V30 2181 H 207.602 5.23093 -2.3462 0
M  V30 2182 H 205.999 5.1203 -3.12962 0
M  V30 2183 H 207.069 3.70676 -3.12614 0
M  V30 2184 N 208.412 0.89855 1.29475 0
M  V30 2185 C 209.375 0.380272 2.26023 0
M  V30 2186 C 210.375 -0.484891 1.53315 0
M  V30 2187 O 211.565 -0.290108 1.71767 0
M  V30 2188 C 208.697 -0.45651 3.3783 0
M  V30 2189 H 209.89 1.23295 2.73383 0
M  V30 2190 H 207.443 0.676589 1.40897 0
M  V30 2191 H 208.178 -1.32922 2.95808 0
M  V30 2192 H 207.963 0.163393 3.91759 0
M  V30 2193 H 209.453 -0.810466 4.0966 0
M  V30 2194 N 209.89 -1.43072 0.660911 0
M  V30 2195 C 211.136 -2.02545 0.186337 0
M  V30 2196 C 211.491 -1.51253 -1.18913 0
M  V30 2197 O 210.784 -0.699167 -1.78388 0
M  V30 2198 C 210.978 -3.57103 0.145563 0
M  V30 2199 C 210.807 -4.23393 1.51554 0
M  V30 2200 C 209.577 -4.59144 2.10984 0
M  V30 2201 C 211.775 -4.51897 2.45548 0
M  V30 2202 N 209.757 -5.10545 3.40907 0
M  V30 2203 C 211.128 -5.04698 3.6011 0
M  V30 2204 C 213.183 -4.33872 2.44253 0
M  V30 2205 C 211.886 -5.41371 4.73613 0
M  V30 2206 C 213.912 -4.71612 3.56842 0
M  V30 2207 C 213.274 -5.24553 4.70131 0
M  V30 2208 H 209.373 -0.773823 0.112792 0
M  V30 2209 H 211.957 -1.74137 0.870885 0
M  V30 2210 H 210.128 -3.85059 -0.508353 0
M  V30 2211 H 211.86 -4.03264 -0.340598 0
M  V30 2212 H 208.615 -4.4444 1.63615 0
M  V30 2213 H 209.039 -5.40689 4.07411 0
M  V30 2214 H 213.681 -3.92208 1.579 0
M  V30 2215 H 211.399 -5.81975 5.60652 0
M  V30 2216 H 214.985 -4.59354 3.57051 0
M  V30 2217 H 213.865 -5.53213 5.5581 0
M  V30 2218 N 211.368 -0.403325 -1.52352 0
M  V30 2219 C 212.298 0.416205 -2.29761 0
M  V30 2220 C 213.279 1.05123 -1.33728 0
M  V30 2221 O 214.464 1.06134 -1.62632 0
M  V30 2222 C 211.594 1.53624 -3.11475 0
M  V30 2223 C 210.548 1.02653 -4.15507 0
M  V30 2224 C 209.874 2.23971 -4.85532 0
M  V30 2225 C 211.174 0.08463 -5.22231 0
M  V30 2226 H 212.868 -0.229701 -2.98518 0
M  V30 2227 H 210.414 -0.111913 -1.43564 0
M  V30 2228 H 212.367 2.1165 -3.64393 0
M  V30 2229 H 211.091 2.20994 -2.40477 0
M  V30 2230 H 209.75 0.46871 -3.63591 0
M  V30 2231 H 209.398 2.89883 -4.11068 0
M  V30 2232 H 209.098 1.90521 -5.55856 0
M  V30 2233 H 210.622 2.82614 -5.41259 0
M  V30 2234 H 212.036 0.573509 -5.70424 0
M  V30 2235 H 210.433 -0.160783 -5.99885 0
M  V30 2236 H 211.503 -0.86237 -4.7717 0
M  V30 2237 N 212.846 1.57033 -0.133567 0
M  V30 2238 C 213.809 2.14897 0.796995 0
M  V30 2239 C 214.809 1.0874 1.18458 0
M  V30 2240 O 215.999 1.34446 1.1077 0
M  V30 2241 C 213.131 2.70112 2.07973 0
M  V30 2242 H 214.324 2.98457 0.293873 0
M  V30 2243 H 211.877 1.55871 0.115787 0
M  V30 2244 H 212.612 1.9018 2.62682 0
M  V30 2245 H 212.397 3.47764 1.81115 0
M  V30 2246 H 213.887 3.14738 2.74462 0
M  V30 2247 N 214.325 -0.140222 1.56975 0
M  V30 2248 C 215.572 -0.851687 1.83719 0
M  V30 2249 C 215.9 -1.80862 0.715485 0
M  V30 2250 O 215.155 -1.93464 -0.294956 0
M  V30 2251 C 215.454 -1.65386 3.16832 0
M  V30 2252 C 215.12 -0.843112 4.42947 0
M  V30 2253 C 213.782 -0.619464 4.77196 0
M  V30 2254 C 216.134 -0.276582 5.20466 0
M  V30 2255 C 213.462 0.181312 5.8642 0
M  V30 2256 C 215.814 0.51127 6.30531 0
M  V30 2257 C 214.478 0.745432 6.63325 0
M  V30 2258 H 213.748 -0.311654 0.672274 0
M  V30 2259 H 216.395 -0.115006 1.91154 0
M  V30 2260 H 214.7 -2.46084 3.04877 0
M  V30 2261 H 216.397 -2.20793 3.34741 0
M  V30 2262 H 212.987 -1.0275 4.16101 0
M  V30 2263 H 217.171 -0.436632 4.94376 0
M  V30 2264 H 212.427 0.372165 6.10266 0
M  V30 2265 H 216.601 0.957354 6.89788 0
M  V30 2266 H 214.228 1.36778 7.47794 0
M  V30 2267 N 215.803 -1.52179 -0.40978 0
M  V30 2268 C 217.031 -1.70054 -1.17853 0
M  V30 2269 C 217.446 -0.409735 -1.843 0
M  V30 2270 O 216.803 0.614183 -1.71855 0
M  V30 2271 C 216.854 -2.83568 -2.24213 0
M  V30 2272 O 216.575 -4.0765 -1.60478 0
M  V30 2273 C 218.076 -3.12947 -3.13973 0
M  V30 2274 H 215.296 -0.569917 -0.354169 0
M  V30 2275 H 217.84 -1.98734 -0.482198 0
M  V30 2276 H 215.995 -2.57409 -2.89516 0
M  V30 2277 H 216.409 -4.70899 -2.30986 0
M  V30 2278 H 217.883 -3.95889 -3.84677 0
M  V30 2279 H 218.36 -2.26472 -3.76307 0
M  V30 2280 H 218.966 -3.40868 -2.5434 0
M  V30 2281 N 217.281 0.66697 -1.42791 0
M  V30 2282 C 218.509 1.45505 -1.47091 0
M  V30 2283 C 218.924 1.8861 -0.0845873 0
M  V30 2284 O 218.281 1.58632 0.90234 0
M  V30 2285 C 218.332 2.69906 -2.40485 0
M  V30 2286 O 218.053 2.28608 -3.73725 0
M  V30 2287 C 219.554 3.63396 -2.53886 0
M  V30 2288 H 216.774 0.447459 -0.500022 0
M  V30 2289 H 219.318 0.818866 -1.8739 0
M  V30 2290 H 217.473 3.29696 -2.03419 0
M  V30 2291 H 217.887 3.08997 -4.23817 0
M  V30 2292 H 219.361 4.47387 -3.2334 0
M  V30 2293 H 219.838 4.09824 -1.57927 0
M  V30 2294 H 220.444 3.09495 -2.91706 0
M  V30 2295 N 218.759 1.29093 0.90403 0
M  V30 2296 C 219.987 1.19689 1.68766 0
M  V30 2297 C 220.402 -0.243113 1.87228 0
M  V30 2298 O 219.759 -1.16326 1.40621 0
M  V30 2299 C 219.81 1.90144 3.07453 0
M  V30 2300 O 219.531 3.2852 2.89838 0
M  V30 2301 C 221.032 1.87162 4.01852 0
M  V30 2302 H 218.252 0.415035 0.527244 0
M  V30 2303 H 220.796 1.7039 1.13082 0
M  V30 2304 H 218.951 1.43289 3.59926 0
M  V30 2305 H 219.365 3.63944 3.77684 0
M  V30 2306 H 220.839 2.41032 4.96596 0
M  V30 2307 H 221.316 0.84617 4.30972 0
M  V30 2308 H 221.922 2.33741 3.5531 0
M  V30 2309 N 220.237 -1.11381 1.11499 0
M  V30 2310 C 221.167 -2.19509 0.796125 0
M  V30 2311 C 222.148 -1.68458 -0.235796 0
M  V30 2312 O 223.333 -1.93947 -0.0991344 0
M  V30 2313 C 220.463 -3.46475 0.239205 0
M  V30 2314 C 219.417 -4.10744 1.20307 0
M  V30 2315 C 218.743 -5.32293 0.50683 0
M  V30 2316 C 220.043 -4.55597 2.55399 0
M  V30 2317 H 221.737 -2.46439 1.70024 0
M  V30 2318 H 219.283 -1.18446 0.818935 0
M  V30 2319 H 221.236 -4.214 0.00392006 0
M  V30 2320 H 219.96 -3.19006 -0.700206 0
M  V30 2321 H 218.619 -3.37813 1.42399 0
M  V30 2322 H 218.267 -5.01095 -0.437408 0
M  V30 2323 H 217.967 -5.76243 1.1497 0
M  V30 2324 H 219.491 -6.09956 0.280351 0
M  V30 2325 H 220.905 -5.21841 2.37391 0
M  V30 2326 H 219.302 -5.10363 3.15673 0
M  V30 2327 H 220.372 -3.69013 3.14575 0
M  V30 2328 N 221.715 -0.905404 -1.28997 0
M  V30 2329 C 222.663 -0.377431 -2.29517 0
M  V30 2330 C 223.657 0.526461 -1.61012 0
M  V30 2331 O 224.863 0.40863 -1.753 0
M  V30 2332 H 221.238 -0.103437 -0.744852 0
M  V30 2333 H 223.209 -1.23848 -2.71485 0
M  V30 2334 C 221.958 0.374833 -3.45674 0
M  V30 2335 H 221.281 -0.311474 -3.98585 0
M  V30 2336 H 222.721 0.70903 -4.1803 0
M  V30 2337 C 221.18 1.57963 -2.97572 0
M  V30 2338 O 221.71 2.67886 -2.99333 0
M  V30 2339 N 219.916 1.42375 -2.53333 0
M  V30 2340 H 219.463 0.529466 -2.521 0
M  V30 2341 H 219.421 2.23117 -2.21509 0
M  V30 2342 N 223.193 1.4272 -0.668489 0
M  V30 2343 C 224.423 2.05668 -0.196063 0
M  V30 2344 C 224.831 1.5028 1.14946 0
M  V30 2345 O 224.174 0.6348 1.72383 0
M  V30 2346 C 224.236 3.59469 -0.0468879 0
M  V30 2347 C 223.9 4.37518 -1.32012 0
M  V30 2348 C 224.897 4.68584 -2.25222 0
M  V30 2349 C 222.582 4.77266 -1.56596 0
M  V30 2350 C 224.576 5.38326 -3.41297 0
M  V30 2351 C 222.263 5.4675 -2.72962 0
M  V30 2352 C 223.261 5.77204 -3.65137 0
M  V30 2353 O 222.949 6.45264 -4.79468 0
M  V30 2354 H 222.681 0.669382 -0.0943599 0
M  V30 2355 H 225.235 1.83954 -0.913788 0
M  V30 2356 H 223.465 3.79817 0.726357 0
M  V30 2357 H 225.154 4.04071 0.384852 0
M  V30 2358 H 225.92 4.38382 -2.07477 0
M  V30 2359 H 221.799 4.52959 -0.857249 0
M  V30 2360 H 225.343 5.62014 -4.13263 0
M  V30 2361 H 221.24 5.76369 -2.90635 0
M  V30 2362 H 222.008 6.63753 -4.78931 0
M  V30 2363 N 224.671 0.411399 1.52136 0
M  V30 2364 C 225.911 -0.163143 2.03748 0
M  V30 2365 C 226.275 -1.42187 1.29022 0
M  V30 2366 O 227.476 -2.075 1.70872 0
M  V30 2367 C 225.747 -0.402651 3.55125 0
M  V30 2368 S 227.306 -0.944315 4.28519 0
M  V30 2369 H 224.124 -0.0439833 0.709638 0
M  V30 2370 H 226.726 0.56484 1.87163 0
M  V30 2371 H 225.43 0.520212 4.0709 0
M  V30 2372 H 224.961 -1.15844 3.75957 0
M  V30 2373 H 226.976 -2.22463 4.43536 0
M  V30 2374 N 226.149 -1.5696 0.141893 0
M  V30 2375 C 227.395 -1.9625 -0.511248 0
M  V30 2376 C 227.728 -1.02654 -1.64851 0
M  V30 2377 O 227.003 -0.0679676 -1.94381 0
M  V30 2378 C 227.286 -3.45285 -1.02227 0
M  V30 2379 C 227.139 -4.49658 0.113138 0
M  V30 2380 C 228.458 -3.96698 -1.90574 0
M  V30 2381 H 225.577 -0.713567 -0.184367 0
M  V30 2382 H 228.219 -1.88698 0.222087 0
M  V30 2383 H 226.369 -3.51852 -1.64719 0
M  V30 2384 H 228.041 -4.55174 0.749302 0
M  V30 2385 H 226.284 -4.26857 0.773026 0
M  V30 2386 H 226.955 -5.51258 -0.286053 0
M  V30 2387 H 229.431 -3.92578 -1.37918 0
M  V30 2388 H 228.307 -5.01453 -2.2324 0
M  V30 2389 H 228.568 -3.3875 -2.84079 0
M  V30 2390 N 227.627 0.131896 -1.57047 0
M  V30 2391 C 228.873 0.838268 -1.85323 0
M  V30 2392 C 229.228 1.78098 -0.727937 0
M  V30 2393 O 228.521 1.89645 0.27304 0
M  V30 2394 C 228.715 1.63703 -3.17704 0
M  V30 2395 C 228.544 0.773167 -4.43004 0
M  V30 2396 C 227.314 0.432956 -5.03442 0
M  V30 2397 C 229.512 0.0966216 -5.14209 0
M  V30 2398 N 227.494 -0.442924 -6.123 0
M  V30 2399 C 228.865 -0.638778 -6.16701 0
M  V30 2400 C 230.92 0.018861 -4.97896 0
M  V30 2401 C 229.623 -1.44462 -7.04644 0
M  V30 2402 C 231.649 -0.773762 -5.86316 0
M  V30 2403 C 231.011 -1.4974 -6.883 0
M  V30 2404 H 227.11 0.284086 -0.728573 0
M  V30 2405 H 229.694 0.102731 -1.94429 0
M  V30 2406 H 227.865 2.3437 -3.09718 0
M  V30 2407 H 229.597 2.28774 -3.33833 0
M  V30 2408 H 226.352 0.772237 -4.67262 0
M  V30 2409 H 226.776 -0.872332 -6.71356 0
M  V30 2410 H 231.418 0.56397 -4.19022 0
M  V30 2411 H 229.136 -2.00093 -7.82936 0
M  V30 2412 H 232.722 -0.83612 -5.75761 0
M  V30 2413 H 231.602 -2.10087 -7.55535 0
M  V30 2414 N 229.106 1.52395 0.401703 0
M  V30 2415 C 230.522 1.41363 0.740864 0
M  V30 2416 C 230.722 0.523982 1.94568 0
M  V30 2417 O 229.778 -0.00741204 2.52499 0
M  V30 2418 C 231.091 2.84011 0.987847 0
M  V30 2419 C 232.639 2.93404 1.09011 0
M  V30 2420 C 233.114 4.37036 1.3698 0
M  V30 2421 N 234.605 4.40304 1.43829 0
M  V30 2422 C 235.34 5.48508 1.67112 0
M  V30 2423 N 234.836 6.66819 1.87949 0
M  V30 2424 N 236.629 5.36034 1.69187 0
M  V30 2425 H 228.78 2.08765 -0.391262 0
M  V30 2426 H 231.043 0.941265 -0.112798 0
M  V30 2427 H 230.749 3.51265 0.174835 0
M  V30 2428 H 230.623 3.25502 1.906 0
M  V30 2429 H 233.01 2.26325 1.8937 0
M  V30 2430 H 233.091 2.55359 0.15015 0
M  V30 2431 H 232.735 5.04676 0.571353 0
M  V30 2432 H 232.665 4.72623 2.3224 0
M  V30 2433 H 235.156 3.55024 1.29486 0
M  V30 2434 H 235.469 7.45063 2.05185 0
M  V30 2435 H 233.814 6.6987 1.85199 0
M  V30 2436 H 237.005 4.42579 1.52451 0
M  V30 2437 H 237.178 6.20434 1.86993 0
M  V30 2438 N 230.584 -0.659388 1.43143 0
M  V30 2439 C 231.861 -1.41627 1.34912 0
M  V30 2440 C 232.241 -2.11099 -0.00607785 0
M  V30 2441 O 231.589 -2.04353 -1.02236 0
M  V30 2442 C 231.799 -2.40604 2.52805 0
M  V30 2443 C 233.147 -3.04789 2.95616 0
M  V30 2444 O 234.171 -2.50932 2.52807 0
M  V30 2445 O 233.03 -4.02421 3.69756 0
M  V30 2446 H 230.124 -0.63246 0.532844 0
M  V30 2447 H 232.67 -0.686814 1.5518 0
M  V30 2448 H 231.442 -1.88174 3.43083 0
M  V30 2449 H 231.065 -3.21009 2.34604 0
M  V30 2450 N 232.062 -1.29571 -0.897171 0
M  V30 2451 C 233.01 -1.14802 -2.02295 0
M  V30 2452 C 234.004 -0.0629637 -1.69283 0
M  V30 2453 O 235.21 -0.222945 -1.78614 0
M  V30 2454 H 231.585 -0.354692 -0.663097 0
M  V30 2455 H 233.556 -2.10108 -2.11889 0
M  V30 2456 C 232.305 -0.843966 -3.37302 0
M  V30 2457 H 231.628 -1.67093 -3.63208 0
M  V30 2458 H 233.068 -0.780672 -4.16751 0
M  V30 2459 C 231.527 0.452843 -3.33843 0
M  V30 2460 O 232.057 1.47813 -3.73516 0
M  V30 2461 N 230.263 0.459601 -2.86943 0
M  V30 2462 H 229.81 -0.375213 -2.54853 0
M  V30 2463 H 229.768 1.32726 -2.85011 0
M  V30 2464 N 233.54 1.10788 -1.12088 0
M  V30 2465 C 234.49 2.15158 -0.754401 0
M  V30 2466 C 235.474 1.59026 0.244846 0
M  V30 2467 O 236.666 1.76927 0.0509097 0
M  V30 2468 C 233.795 3.42677 -0.206657 0
M  V30 2469 C 232.881 4.05751 -1.23398 0
M  V30 2470 N 233.272 4.43582 -2.43041 0
M  V30 2471 C 231.57 4.32764 -1.07848 0
M  V30 2472 C 232.271 4.93085 -3.08613 0
M  V30 2473 N 231.247 4.89664 -2.36072 0
M  V30 2474 H 235.049 2.42195 -1.6649 0
M  V30 2475 H 232.563 1.27872 -1.00112 0
M  V30 2476 H 234.56 4.16834 0.0740646 0
M  V30 2477 H 233.22 3.17101 0.698342 0
M  V30 2478 H 234.231 4.35395 -2.80449 0
M  V30 2479 H 230.908 4.16863 -0.230483 0
M  V30 2480 H 232.298 5.31933 -4.10483 0
M  V30 2481 N 235.018 0.912232 1.28515 0
M  V30 2482 C 236.266 0.543523 1.94654 0
M  V30 2483 C 236.587 -0.9155 1.72173 0
M  V30 2484 O 235.857 -1.64708 1.06058 0
M  V30 2485 H 234.437 0.198017 0.720277 0
M  V30 2486 H 237.099 1.16126 1.56527 0
M  V30 2487 H 236.195 0.736684 3.03281 0
M  V30 2488 N 236.496 -1.42363 0.676048 0
M  V30 2489 C 237.742 -2.02336 0.207809 0
M  V30 2490 C 238.097 -1.52506 -1.17302 0
M  V30 2491 O 237.39 -0.718048 -1.77636 0
M  V30 2492 C 237.584 -3.56929 0.183431 0
M  V30 2493 C 237.413 -4.21762 1.56036 0
M  V30 2494 C 236.183 -4.56881 2.15842 0
M  V30 2495 C 238.381 -4.49267 2.50327 0
M  V30 2496 N 236.363 -5.069 3.46303 0
M  V30 2497 C 237.734 -5.00851 3.65443 0
M  V30 2498 C 239.789 -4.31257 2.48841 0
M  V30 2499 C 238.492 -5.36317 4.79329 0
M  V30 2500 C 240.518 -4.678 3.61824 0
M  V30 2501 C 239.88 -5.19537 4.75668 0
M  V30 2502 H 235.979 -0.772583 0.120993 0
M  V30 2503 H 238.563 -1.73203 0.889306 0
M  V30 2504 H 236.734 -3.85576 -0.467483 0
M  V30 2505 H 238.466 -4.03603 -0.297808 0
M  V30 2506 H 235.221 -4.4268 1.68319 0
M  V30 2507 H 235.645 -5.36338 4.13123 0
M  V30 2508 H 240.287 -3.90511 1.62051 0
M  V30 2509 H 238.005 -5.75995 5.66794 0
M  V30 2510 H 241.591 -4.55541 3.61903 0
M  V30 2511 H 240.471 -5.47287 5.61646 0
M  V30 2512 N 237.974 -0.419461 -1.51915 0
M  V30 2513 C 239.39 -0.0708431 -1.59443 0
M  V30 2514 C 239.59 1.41796 -1.43164 0
M  V30 2515 O 238.646 2.18596 -1.26381 0
M  V30 2516 C 239.959 -0.574991 -2.95151 0
M  V30 2517 C 241.507 -0.533867 -3.08413 0
M  V30 2518 C 241.982 -1.01469 -4.46618 0
M  V30 2519 N 243.473 -0.971939 -4.52888 0
M  V30 2520 C 244.208 -1.31505 -5.58116 0
M  V30 2521 N 243.704 -1.73014 -6.70849 0
M  V30 2522 N 245.497 -1.23436 -5.48379 0
M  V30 2523 H 237.648 -1.38836 -1.60743 0
M  V30 2524 H 239.911 -0.570998 -0.756747 0
M  V30 2525 H 239.617 -1.61597 -3.12377 0
M  V30 2526 H 239.491 0.00979777 -3.77199 0
M  V30 2527 H 241.878 0.498086 -2.90866 0
M  V30 2528 H 241.959 -1.15484 -2.28248 0
M  V30 2529 H 241.603 -2.04502 -4.6491 0
M  V30 2530 H 241.533 -0.370433 -5.25295 0
M  V30 2531 H 244.024 -0.666893 -3.71969 0
M  V30 2532 H 244.337 -1.97479 -7.47143 0
M  V30 2533 H 242.682 -1.76926 -6.72103 0
M  V30 2534 H 245.873 -0.908869 -4.59192 0
M  V30 2535 H 246.046 -1.50506 -6.30279 0
M  V30 2536 N 239.452 1.56882 -0.150215 0
M  V30 2537 C 240.7 1.9584 0.499105 0
M  V30 2538 C 241.021 1.03623 1.65188 0
M  V30 2539 O 240.291 0.0984084 1.95653 0
M  V30 2540 H 238.871 0.723119 0.187373 0
M  V30 2541 H 241.533 1.9358 -0.226466 0
M  V30 2542 H 240.629 2.99638 0.873122 0
M  V30 2543 N 240.93 -0.123565 1.57115 0
M  V30 2544 C 242.178 -0.83051 1.84247 0
M  V30 2545 C 242.499 -1.80629 0.73471 0
M  V30 2546 O 241.769 -1.94403 -0.241688 0
M  V30 2547 H 240.349 -0.309694 0.679778 0
M  V30 2548 H 243.011 -0.111976 1.94578 0
M  V30 2549 H 242.107 -1.37852 2.80006 0
M  V30 2550 N 242.408 -1.52605 -0.393616 0
M  V30 2551 C 243.824 -1.41753 -0.733357 0
M  V30 2552 C 244.024 -0.534293 -1.94287 0
M  V30 2553 O 243.08 -0.0059787 -2.52499 0
M  V30 2554 C 244.393 -2.84531 -0.972772 0
M  V30 2555 C 245.941 -2.93978 -1.07453 0
M  V30 2556 C 246.416 -4.37756 -1.3466 0
M  V30 2557 N 247.907 -4.4106 -1.41492 0
M  V30 2558 C 248.642 -5.49387 -1.642 0
M  V30 2559 N 248.138 -6.67806 -1.8441 0
M  V30 2560 N 249.931 -5.36923 -1.66342 0
M  V30 2561 H 242.082 -2.08555 0.402328 0
M  V30 2562 H 244.345 -0.940654 0.117789 0
M  V30 2563 H 244.051 -3.51353 -0.156204 0
M  V30 2564 H 243.925 -3.26508 -1.88871 0
M  V30 2565 H 246.312 -2.27326 -1.88167 0
M  V30 2566 H 246.393 -2.55435 -0.136605 0
M  V30 2567 H 246.037 -5.04972 -0.544581 0
M  V30 2568 H 245.967 -4.73848 -2.2973 0
M  V30 2569 H 248.458 -3.55705 -1.27601 0
M  V30 2570 H 248.771 -7.46141 -2.01231 0
M  V30 2571 H 247.116 -6.70843 -1.81644 0
M  V30 2572 H 250.307 -4.43381 -1.50102 0
M  V30 2573 H 250.48 -6.21416 -1.837 0
M  V30 2574 N 243.887 0.651787 -1.4349 0
M  V30 2575 C 245.303 0.96762 -1.26922 0
M  V30 2576 C 245.503 2.00602 -0.189982 0
M  V30 2577 O 244.559 2.48793 0.431107 0
M  V30 2578 C 245.872 1.45052 -2.63401 0
M  V30 2579 C 247.42 1.5671 -2.70945 0
M  V30 2580 C 247.895 2.0839 -4.07845 0
M  V30 2581 N 249.386 2.1569 -4.09917 0
M  V30 2582 C 250.121 2.56804 -5.12679 0
M  V30 2583 N 249.617 2.97203 -6.25813 0
M  V30 2584 N 251.41 2.56756 -5.00033 0
M  V30 2585 H 243.561 -0.0353158 -2.12371 0
M  V30 2586 H 245.824 0.0467858 -0.946845 0
M  V30 2587 H 245.53 0.761926 -3.43348 0
M  V30 2588 H 245.404 2.42529 -2.88894 0
M  V30 2589 H 247.791 2.2467 -1.9133 0
M  V30 2590 H 247.872 0.57662 -2.49216 0
M  V30 2591 H 247.516 1.41031 -4.87927 0
M  V30 2592 H 247.446 3.08271 -4.26938 0
M  V30 2593 H 249.937 1.87237 -3.28254 0
M  V30 2594 H 250.25 3.27328 -7.00055 0
M  V30 2595 H 248.595 2.95004 -6.29283 0
M  V30 2596 H 251.786 2.24572 -4.10713 0
M  V30 2597 H 251.959 2.88475 -5.80247 0
M  V30 2598 N 245.365 1.30045 0.890287 0
M  V30 2599 C 246.295 1.18541 2.01172 0
M  V30 2600 C 247.276 0.0773356 1.69924 0
M  V30 2601 O 248.461 0.25845 1.92473 0
M  V30 2602 C 245.591 0.870941 3.36202 0
M  V30 2603 C 244.545 1.93637 3.81692 0
M  V30 2604 C 243.871 1.475 5.13953 0
M  V30 2605 C 245.171 3.34666 4.00994 0
M  V30 2606 H 246.865 2.12359 2.11054 0
M  V30 2607 H 244.411 1.02238 1.01407 0
M  V30 2608 H 246.364 0.777141 4.14172 0
M  V30 2609 H 245.088 -0.102926 3.26438 0
M  V30 2610 H 243.747 2.01972 3.05946 0
M  V30 2611 H 243.395 0.489551 5.00612 0
M  V30 2612 H 243.095 2.1876 5.4536 0
M  V30 2613 H 244.619 1.39489 5.94454 0
M  V30 2614 H 246.033 3.2912 4.69417 0
M  V30 2615 H 244.43 4.03966 4.43769 0
M  V30 2616 H 245.5 3.76949 3.05021 0
M  V30 2617 N 246.843 -1.10192 1.12674 0
M  V30 2618 C 248.254 -1.63707 0.897604 0
M  V30 2619 C 248.605 -1.87812 -0.567546 0
M  V30 2620 O 247.73 -1.62196 -1.43253 0
M  V30 2621 C 248.325 -2.974 1.62292 0
M  V30 2622 C 246.884 -3.47772 1.43986 0
M  V30 2623 C 246.031 -2.22332 1.65722 0
M  V30 2624 H 248.982 -0.936587 1.28116 0
M  V30 2625 H 249.003 -3.64986 1.07541 0
M  V30 2626 H 248.515 -2.79824 2.68924 0
M  V30 2627 H 246.616 -3.70487 0.396206 0
M  V30 2628 H 246.729 -4.25723 2.19765 0
M  V30 2629 H 245.093 -2.30599 1.08149 0
M  V30 2630 H 245.876 -2.07285 2.73657 0
M  V30 2631 N 248.321 -0.919034 -1.28029 0
M  V30 2632 C 249.231 -0.416756 -2.30869 0
M  V30 2633 C 250.247 0.498235 -1.66714 0
M  V30 2634 O 251.423 0.383144 -1.97722 0
M  V30 2635 C 248.488 0.330274 -3.45123 0
M  V30 2636 C 247.549 -0.618578 -4.2482 0
M  V30 2637 C 246.782 0.0928959 -5.33619 0
M  V30 2638 O 247.005 1.31375 -5.55065 0
M  V30 2639 O 245.939 -0.574499 -5.99152 0
M  V30 2640 H 249.765 -1.27043 -2.75851 0
M  V30 2641 H 247.35 -0.684052 -1.3282 0
M  V30 2642 H 249.232 0.751972 -4.14636 0
M  V30 2643 H 247.907 1.1597 -3.02213 0
M  V30 2644 H 246.814 -1.08978 -3.57875 0
M  V30 2645 H 248.147 -1.41497 -4.71423 0
M  V30 2646 O 249.838 1.38984 -0.822545 0
M  V30 2647 H 250.529 1.89429 -0.404525 0
M  V30 END ATOM
M  V30 BEGIN BOND
M  V30 END BOND
M  V30 END CTAB
M  END
$$$$
