drugbank_target|Q9UJU2 Lymphoid enhancer-binding factor 1 (DB00903)
 OpenBabel12092121063D

  0  0  0     0  0            999 V3000
M  V30 BEGIN CTAB
M  V30 COUNTS 6113 6211 0 0 0
M  V30 BEGIN ATOM
M  V30 1 H -0.908 1.98254 -0.117106 0
M  V30 2 N 0 1.576 0 0
M  V30 3 C 0.933 2.03868 1.02534 0
M  V30 4 C 1.911 0.928543 1.3348 0
M  V30 5 O 3.095 1.19667 1.45644 0
M  V30 6 C 0.222 2.43627 2.35294 0
M  V30 7 C -0.732 3.65373 2.2001 0
M  V30 8 S 0.101 5.13292 1.52614 0
M  V30 9 C 1.257 5.56322 2.86805 0
M  V30 10 H 1.49 2.90518 0.631377 0
M  V30 11 H -0.977 1.52953 0.210867 0
M  V30 12 H 0.981 2.67203 3.11629 0
M  V30 13 H -0.358 1.57376 2.7183 0
M  V30 14 H -1.165 3.90944 3.18086 0
M  V30 15 H -1.563 3.418 1.51819 0
M  V30 16 H 0.729 5.58782 3.83104 0
M  V30 17 H 1.672 6.56266 2.65933 0
M  V30 18 H 2.08 4.83886 2.90714 0
M  V30 19 N 1.4781 -0.272755 1.55222 0
M  V30 20 C 2.8891 -0.84378 1.66545 0
M  V30 21 C 3.2401 -1.87035 0.592641 0
M  V30 22 O 2.3651 -2.14761 -0.265818 0
M  V30 23 C 2.9601 -1.53723 3.01918 0
M  V30 24 C 1.5191 -2.05628 3.15268 0
M  V30 25 C 0.6661 -0.898424 2.62343 0
M  V30 26 H 3.6171 -0.0490998 1.58624 0
M  V30 27 H 3.6381 -2.40421 2.94921 0
M  V30 28 H 3.1501 -0.78983 3.79978 0
M  V30 29 H 1.2511 -2.83329 2.41983 0
M  V30 30 H 1.3641 -2.27142 4.21833 0
M  V30 31 H -0.2719 -1.29186 2.19506 0
M  V30 32 H 0.5111 -0.164528 3.42906 0
M  V30 33 N 2.9562 -1.48159 -0.537278 0
M  V30 34 C 3.8882 -1.58218 -1.65831 0
M  V30 35 C 4.9012 -0.466948 -1.5596 0
M  V30 36 O 6.0902 -0.73747 -1.62553 0
M  V30 37 C 3.1902 -1.48906 -3.04434 0
M  V30 38 C 2.3632 -2.75343 -3.3986 0
M  V30 39 C 1.4222 -2.59588 -4.57712 0
M  V30 40 O 0.4482 -3.33457 -4.61297 0
M  V30 41 N 1.6502 -1.68724 -5.55439 0
M  V30 42 H 4.4152 -2.54891 -1.57641 0
M  V30 43 H 1.9762 -1.4479 -0.724386 0
M  V30 44 H 3.9682 -1.36072 -3.81139 0
M  V30 45 H 2.5382 -0.602368 -3.06741 0
M  V30 46 H 1.7582 -3.02795 -2.52406 0
M  V30 47 H 3.0462 -3.5924 -3.60311 0
M  V30 48 H 2.4442 -1.07898 -5.55315 0
M  V30 49 H 1.0012 -1.61832 -6.3139 0
M  V30 50 N 4.4343 0.785586 -1.36625 0
M  V30 51 C 5.3643 1.91259 -1.33949 0
M  V30 52 C 6.3453 1.68795 -0.210325 0
M  V30 53 O 7.5303 1.89854 -0.408561 0
M  V30 54 C 4.6603 3.28339 -1.13186 0
M  V30 55 C 3.6143 3.65335 -2.22967 0
M  V30 56 C 2.9403 5.00806 -1.87342 0
M  V30 57 C 4.2403 3.7352 -3.65075 0
M  V30 58 H 5.9343 1.93755 -2.28253 0
M  V30 59 H 3.4803 0.930788 -1.09874 0
M  V30 60 H 5.4333 4.06804 -1.09948 0
M  V30 61 H 4.1573 3.2624 -0.153332 0
M  V30 62 H 2.8163 2.89169 -2.25337 0
M  V30 63 H 2.4643 4.95233 -0.880545 0
M  V30 64 H 2.1643 5.26529 -2.60846 0
M  V30 65 H 3.6883 5.81687 -1.85667 0
M  V30 66 H 5.1023 4.42168 -3.64911 0
M  V30 67 H 3.4993 4.10731 -4.37516 0
M  V30 68 H 4.5693 2.74527 -3.99703 0
M  V30 69 N 5.9124 1.20967 1.01018 0
M  V30 70 C 7.1374 1.0503 1.78839 0
M  V30 71 C 7.5624 -0.395752 1.8389 0
M  V30 72 O 6.9204 -1.28529 1.27867 0
M  V30 73 C 6.9684 1.64602 3.2084 0
M  V30 74 O 6.0724 0.887988 4.02726 0
M  V30 75 H 5.4134 0.369987 0.551367 0
M  V30 76 H 7.9434 1.60399 1.27018 0
M  V30 77 H 7.9534 1.68607 3.71532 0
M  V30 78 H 6.6284 2.69841 3.16479 0
M  V30 79 H 5.2054 0.922648 3.61305 0
M  V30 80 N 7.3905 -1.2043 1.01659 0
M  V30 81 C 8.6385 -1.89423 0.704522 0
M  V30 82 C 8.9595 -1.79231 -0.768197 0
M  V30 83 O 8.2295 -1.1947 -1.55254 0
M  V30 84 H 6.8095 -0.701178 0.257602 0
M  V30 85 H 9.4715 -1.4626 1.28818 0
M  V30 86 H 8.5675 -2.96052 0.987916 0
M  V30 87 N 8.8686 -0.792821 -1.36206 0
M  V30 88 C 10.1166 -0.366062 -1.98757 0
M  V30 89 C 10.4376 1.0668 -1.63231 0
M  V30 90 O 9.7076 1.73587 -0.907978 0
M  V30 91 H 8.2876 -0.132364 -0.735179 0
M  V30 92 H 10.9496 -1.01562 -1.66347 0
M  V30 93 H 10.0456 -0.460638 -3.08682 0
M  V30 94 N 10.3467 1.47872 -0.545128 0
M  V30 95 C 11.5947 2.02093 -0.016553 0
M  V30 96 C 11.9157 1.42305 1.3332 0
M  V30 97 O 11.1857 0.593853 1.86682 0
M  V30 98 H 9.7657 0.746993 -0.00313038 0
M  V30 99 H 12.4277 1.81414 -0.712397 0
M  V30 100 H 11.5237 3.11996 0.0805422 0
M  V30 101 N 11.8248 0.280983 1.55075 0
M  V30 102 C 13.0728 -0.333455 1.9933 0
M  V30 103 C 13.3938 -1.55937 1.17085 0
M  V30 104 O 12.6638 -1.94143 0.261805 0
M  V30 105 H 11.2438 -0.126197 0.736263 0
M  V30 106 H 13.9058 0.387678 1.91005 0
M  V30 107 H 13.0018 -0.619292 3.05894 0
M  V30 108 N 13.3029 -1.57598 0.00835791 0
M  V30 109 C 14.5509 -1.90551 -0.6734 0
M  V30 110 C 14.8719 -0.883301 -1.73847 0
M  V30 111 O 14.1419 0.0781442 -1.95744 0
M  V30 112 H 12.7219 -0.703312 -0.251717 0
M  V30 113 H 15.3839 -1.94833 0.0512592 0
M  V30 114 H 14.4799 -2.9056 -1.13935 0
M  V30 115 N 14.781 0.264519 -1.55364 0
M  V30 116 C 16.029 0.993021 -1.76021 0
M  V30 117 C 16.35 1.86511 -0.569099 0
M  V30 118 O 15.62 1.91438 0.415735 0
M  V30 119 H 14.2 0.369639 -0.649135 0
M  V30 120 H 16.862 0.286707 -1.9278 0
M  V30 121 H 15.958 1.62502 -2.66457 0
M  V30 122 N 16.2591 1.48442 0.529413 0
M  V30 123 C 17.5071 1.56179 1.28267 0
M  V30 124 C 17.8281 0.237721 1.93546 0
M  V30 125 O 17.0981 -0.740779 1.81354 0
M  V30 126 H 15.6781 0.575367 0.476405 0
M  V30 127 H 18.3401 1.84909 0.61602 0
M  V30 128 H 17.4361 2.34312 2.06165 0
M  V30 129 N 17.7372 -0.778329 1.37039 0
M  V30 130 C 18.9852 -1.53361 1.31623 0
M  V30 131 C 19.3062 -1.94739 -0.100831 0
M  V30 132 O 18.5762 -1.65797 -1.04347 0
M  V30 133 H 17.1562 -0.568794 0.484234 0
M  V30 134 H 19.8182 -0.926742 1.71457 0
M  V30 135 H 18.9142 -2.43606 1.95096 0
M  V30 136 N 19.2153 -1.21501 -1.00376 0
M  V30 137 C 20.4923 -0.941745 -1.71437 0
M  V30 138 C 20.8723 0.546114 -2.03914 0
M  V30 139 O 20.2203 1.51128 -1.71384 0
M  V30 140 C 20.4303 -1.82812 -2.97289 0
M  V30 141 C 21.7783 -2.07771 -3.70292 0
M  V30 142 O 22.8023 -1.80171 -3.07273 0
M  V30 143 O 21.6613 -2.54456 -4.83647 0
M  V30 144 H 18.7553 -0.353243 -0.747762 0
M  V30 145 H 21.3013 -1.32436 -1.06108 0
M  V30 146 H 20.0733 -2.83501 -2.69709 0
M  V30 147 H 19.6963 -1.4464 -3.70358 0
M  V30 148 N 20.6934 1.19889 -1.02296 0
M  V30 149 C 22.1044 1.71124 -0.746568 0
M  V30 150 C 22.4554 1.81939 0.734335 0
M  V30 151 O 21.5804 1.48639 1.57275 0
M  V30 152 C 22.1754 3.10804 -1.34857 0
M  V30 153 C 20.7344 3.59323 -1.1209 0
M  V30 154 C 19.8814 2.3635 -1.45031 0
M  V30 155 H 22.8324 1.04813 -1.19163 0
M  V30 156 H 22.8534 3.73186 -0.742437 0
M  V30 157 H 22.3654 3.029 -2.42638 0
M  V30 158 H 20.4664 3.7255 -0.0610337 0
M  V30 159 H 20.5794 4.4378 -1.80544 0
M  V30 160 H 18.9434 2.39399 -0.869487 0
M  V30 161 H 19.7264 2.31081 -2.53883 0
M  V30 162 N 22.1715 0.800033 1.35784 0
M  V30 163 C 23.0815 0.207204 2.33683 0
M  V30 164 C 24.0975 -0.64631 1.61551 0
M  V30 165 O 25.2735 -0.559604 1.93469 0
M  V30 166 C 22.3385 -0.639659 3.40748 0
M  V30 167 C 21.3995 0.233585 4.28664 0
M  V30 168 C 20.6325 -0.572954 5.30616 0
M  V30 169 O 20.8555 -1.80816 5.40982 0
M  V30 170 O 19.7895 0.0327285 6.01891 0
M  V30 171 H 23.6155 1.01692 2.86169 0
M  V30 172 H 21.2005 0.561691 1.38439 0
M  V30 173 H 23.0825 -1.12223 4.06182 0
M  V30 174 H 21.7575 -1.42708 2.90544 0
M  V30 175 H 20.6645 0.763147 3.66233 0
M  V30 176 H 21.9975 0.984784 4.82248 0
M  V30 177 N 23.6496 -1.47581 0.552962 0
M  V30 178 C 24.5796 -2.32762 -0.185451 0
M  V30 179 C 25.5606 -1.43527 -0.912905 0
M  V30 180 O 26.7456 -1.72388 -0.894201 0
M  V30 181 C 23.8756 -3.25219 -1.21859 0
M  V30 182 C 22.8296 -4.23661 -0.607864 0
M  V30 183 C 22.1556 -5.05413 -1.74533 0
M  V30 184 C 23.4556 -5.20481 0.435582 0
M  V30 185 H 25.1496 -2.94749 0.525684 0
M  V30 186 H 22.6956 -1.41738 0.254251 0
M  V30 187 H 24.6486 -3.8365 -1.7433 0
M  V30 188 H 23.3726 -2.61279 -1.95961 0
M  V30 189 H 22.0316 -3.66451 -0.104489 0
M  V30 190 H 21.6796 -4.3788 -2.47529 0
M  V30 191 H 21.3796 -5.72059 -1.34249 0
M  V30 192 H 22.9036 -5.66701 -2.27338 0
M  V30 193 H 24.3176 -5.733 -0.00290157 0
M  V30 194 H 22.7146 -5.95305 0.757067 0
M  V30 195 H 23.7846 -4.66217 1.33303 0
M  V30 196 N 25.1277 -0.289203 -1.54924 0
M  V30 197 C 26.3677 0.324536 -2.01807 0
M  V30 198 C 26.7317 1.5199 -1.17316 0
M  V30 199 O 27.9327 2.20422 -1.53843 0
M  V30 200 C 26.2037 0.683578 -3.50802 0
M  V30 201 S 27.7627 1.28185 -4.19659 0
M  V30 202 H 24.5807 0.100236 -0.703899 0
M  V30 203 H 27.1827 -0.414325 -1.91059 0
M  V30 204 H 25.8867 -0.195073 -4.09936 0
M  V30 205 H 25.4177 1.45354 -3.65562 0
M  V30 206 H 27.4327 2.57006 -4.24456 0
M  V30 207 N 26.6058 1.57591 -0.0167156 0
M  V30 208 C 27.5688 2.08393 0.954204 0
M  V30 209 C 28.5688 0.996531 1.26198 0
M  V30 210 O 29.7588 1.25858 1.20438 0
M  V30 211 C 26.8908 2.5394 2.27436 0
M  V30 212 H 28.0838 2.95455 0.514451 0
M  V30 213 H 25.6368 1.54582 0.231089 0
M  V30 214 H 26.3718 1.70171 2.76066 0
M  V30 215 H 26.1568 3.33371 2.06412 0
M  V30 216 H 27.6468 2.93512 2.97053 0
M  V30 217 N 28.0839 -0.256276 1.55502 0
M  V30 218 C 29.3119 -1.00342 1.8094 0
M  V30 219 C 29.7269 -1.79307 0.59114 0
M  V30 220 O 29.0839 -1.77114 -0.440081 0
M  V30 221 C 29.1349 -1.94875 3.04476 0
M  V30 222 O 28.8559 -1.19107 4.21598 0
M  V30 223 C 30.3569 -2.81266 3.42644 0
M  V30 224 H 27.5769 -0.295685 0.602338 0
M  V30 225 H 30.1209 -0.281998 2.02546 0
M  V30 226 H 28.2759 -2.62457 2.84947 0
M  V30 227 H 28.6899 -1.82969 4.91551 0
M  V30 228 H 30.1639 -3.43362 4.32211 0
M  V30 229 H 30.6409 -3.51897 2.62802 0
M  V30 230 H 31.2469 -2.1915 3.64491 0
M  V30 231 N 29.562 -1.4872 -0.521534 0
M  V30 232 C 30.839 -1.4766 -1.2828 0
M  V30 233 C 31.219 -0.19292 -2.10217 0
M  V30 234 O 30.567 0.825193 -2.13079 0
M  V30 235 C 30.777 -2.74358 -2.15705 0
M  V30 236 C 32.125 -3.23028 -2.75569 0
M  V30 237 O 33.149 -2.75333 -2.25987 0
M  V30 238 O 32.008 -4.0604 -3.65778 0
M  V30 239 H 29.102 -0.590085 -0.579421 0
M  V30 240 H 31.648 -1.60963 -0.537492 0
M  V30 241 H 30.42 -3.59292 -1.54999 0
M  V30 242 H 30.043 -2.63816 -2.97467 0
M  V30 243 N 31.0401 0.771051 -1.3745 0
M  V30 244 C 31.9501 1.91538 -1.35464 0
M  V30 245 C 32.9661 1.72134 -0.254123 0
M  V30 246 O 34.1421 1.95358 -0.489626 0
M  V30 247 C 31.2071 3.26671 -1.16134 0
M  V30 248 C 30.2681 3.58723 -2.35831 0
M  V30 249 C 29.5011 4.87409 -2.17413 0
M  V30 250 O 29.7241 5.58506 -1.15876 0
M  V30 251 O 28.6581 5.18539 -3.05615 0
M  V30 252 H 32.4841 1.96165 -2.31847 0
M  V30 253 H 30.0691 0.9139 -1.18187 0
M  V30 254 H 31.9511 4.07499 -1.07345 0
M  V30 255 H 30.6261 3.22894 -0.228251 0
M  V30 256 H 29.5331 2.78127 -2.50192 0
M  V30 257 H 30.8661 3.67243 -3.27709 0
M  V30 258 N 32.5182 1.22032 0.997298 0
M  V30 259 C 33.4512 0.929735 2.08401 0
M  V30 260 C 34.4292 -0.125681 1.62114 0
M  V30 261 O 35.6132 0.00495409 1.88499 0
M  V30 262 C 32.7402 0.397488 3.3636 0
M  V30 263 C 31.7862 1.4369 4.01566 0
M  V30 264 S 32.6192 3.00874 4.42984 0
M  V30 265 C 33.7752 2.49276 5.74119 0
M  V30 266 H 34.0082 1.84998 2.32729 0
M  V30 267 H 31.5412 1.0509 1.13117 0
M  V30 268 H 33.4992 0.0969846 4.10385 0
M  V30 269 H 32.1602 -0.501571 3.10069 0
M  V30 270 H 31.3532 1.01427 4.93689 0
M  V30 271 H 30.9552 1.68588 3.33847 0
M  V30 272 H 33.2472 1.90242 6.50242 0
M  V30 273 H 34.1902 3.39872 6.21203 0
M  V30 274 H 34.5982 1.90714 5.31308 0
M  V30 275 N 33.9963 -1.19345 1.0293 0
M  V30 276 C 35.2453 -1.88363 0.721256 0
M  V30 277 C 35.5583 -1.80514 -0.753254 0
M  V30 278 O 36.7643 -2.44788 -1.17436 0
M  V30 279 C 35.2203 -3.37872 1.23978 0
M  V30 280 C 34.8283 -3.54278 2.74211 0
M  V30 281 C 36.5723 -4.12365 1.00775 0
M  V30 282 C 34.4793 -4.97682 3.19479 0
M  V30 283 H 33.4093 -0.705484 0.266098 0
M  V30 284 H 36.0603 -1.34928 1.24365 0
M  V30 285 H 34.4423 -3.90707 0.6453 0
M  V30 286 H 35.6163 -3.11769 3.39318 0
M  V30 287 H 33.9313 -2.93174 2.95699 0
M  V30 288 H 36.5283 -5.18119 1.32123 0
M  V30 289 H 36.8713 -4.16263 -0.0554308 0
M  V30 290 H 37.4043 -3.65668 1.56625 0
M  V30 291 H 34.1433 -4.98945 4.25128 0
M  V30 292 H 33.6633 -5.4095 2.591 0
M  V30 293 H 35.3423 -5.66337 3.12845 0
M  V30 294 N 35.4744 -0.807222 -1.35358 0
M  V30 295 C 36.8854 -0.44876 -1.81226 0
M  V30 296 C 37.2364 1.02929 -1.67033 0
M  V30 297 O 36.3614 1.79991 -1.20133 0
M  V30 298 C 36.9564 -0.807774 -3.2903 0
M  V30 299 C 35.5154 -0.501901 -3.73039 0
M  V30 300 C 34.6624 -1.03304 -2.57339 0
M  V30 301 H 37.6134 -0.998808 -1.23327 0
M  V30 302 H 37.6344 -0.10554 -3.80354 0
M  V30 303 H 37.1464 -1.88357 -3.39328 0
M  V30 304 H 35.2474 0.565128 -3.68289 0
M  V30 305 H 35.3604 -1.03497 -4.67787 0
M  V30 306 H 33.7244 -0.455339 -2.50597 0
M  V30 307 H 34.5074 -2.11496 -2.70415 0
M  V30 308 N 36.9525 1.47285 -0.560781 0
M  V30 309 C 38.1995 2.02464 -0.038062 0
M  V30 310 C 38.5275 1.43474 1.31322 0
M  V30 311 O 37.7825 0.581311 1.86867 0
M  V30 312 C 38.0815 3.57258 0.100784 0
M  V30 313 C 37.7475 4.35184 -1.18007 0
M  V30 314 C 36.4095 4.56194 -1.53103 0
M  V30 315 C 38.7615 4.80098 -2.02867 0
M  V30 316 C 36.0895 5.19367 -2.729 0
M  V30 317 C 38.4415 5.44593 -3.21871 0
M  V30 318 C 37.1055 5.63835 -3.57276 0
M  V30 319 H 36.3755 0.740869 -0.0139279 0
M  V30 320 H 39.0225 1.76916 -0.733012 0
M  V30 321 H 37.3275 3.81819 0.878724 0
M  V30 322 H 39.0245 3.97606 0.520639 0
M  V30 323 H 35.6145 4.19113 -0.8968 0
M  V30 324 H 39.7985 4.63642 -1.7706 0
M  V30 325 H 35.0545 5.32459 -3.00496 0
M  V30 326 H 39.2285 5.78358 -3.87911 0
M  V30 327 H 36.8555 6.12557 -4.50197 0
M  V30 328 N 38.4306 0.297415 1.54768 0
M  V30 329 C 39.3776 -0.580276 2.23386 0
M  V30 330 C 40.3476 -1.13238 1.21517 0
M  V30 331 O 41.5326 -1.17757 1.50126 0
M  V30 332 C 38.6726 -1.74801 2.97555 0
M  V30 333 C 37.7856 -1.22764 4.1419 0
M  V30 334 C 36.9206 -2.35895 4.75949 0
M  V30 335 C 35.9596 -1.80974 5.84735 0
M  V30 336 N 35.0966 -2.87664 6.40464 0
M  V30 337 H 39.9366 0.0114833 2.97998 0
M  V30 338 H 37.4736 0.0174361 1.4709 0
M  V30 339 H 39.4316 -2.43475 3.38786 0
M  V30 340 H 38.0616 -2.31145 2.25326 0
M  V30 341 H 37.1136 -0.433271 3.77924 0
M  V30 342 H 38.4256 -0.785551 4.92575 0
M  V30 343 H 37.5796 -3.12523 5.20014 0
M  V30 344 H 36.3186 -2.83429 3.96887 0
M  V30 345 H 35.3236 -1.02834 5.40097 0
M  V30 346 H 36.5486 -1.34348 6.65678 0
M  V30 347 H 34.4946 -3.34538 5.64287 0
M  V30 348 H 34.4116 -2.4794 7.14186 0
M  V30 349 H 35.6796 -3.642 6.89187 0
M  V30 350 N 39.9087 -1.5758 0.0250728 0
M  V30 351 C 41.1857 -1.82917 -0.692873 0
M  V30 352 C 41.5657 -0.908137 -1.90568 0
M  V30 353 O 40.9137 0.0372298 -2.2847 0
M  V30 354 C 41.1237 -3.32034 -1.07492 0
M  V30 355 C 42.4717 -3.98406 -1.46826 0
M  V30 356 O 43.4957 -3.36505 -1.16801 0
M  V30 357 O 42.3547 -5.07497 -2.02754 0
M  V30 358 H 39.4487 -0.754079 -0.33955 0
M  V30 359 H 41.9947 -1.69619 0.0524456 0
M  V30 360 H 40.7667 -3.90728 -0.211552 0
M  V30 361 H 40.3897 -3.50424 -1.87854 0
M  V30 362 N 41.3868 0.248026 -1.55636 0
M  V30 363 C 42.2968 1.32859 -1.93354 0
M  V30 364 C 43.3128 1.52719 -0.833838 0
M  V30 365 O 44.4888 1.66363 -1.13513 0
M  V30 366 C 41.5538 2.66337 -2.21958 0
M  V30 367 C 40.6148 2.55008 -3.45354 0
M  V30 368 C 39.8478 3.82121 -3.72584 0
M  V30 369 O 40.0708 4.83951 -3.01907 0
M  V30 370 O 39.0048 3.80822 -4.6611 0
M  V30 371 H 42.8308 1.03862 -2.85388 0
M  V30 372 H 40.4158 0.448686 -1.42503 0
M  V30 373 H 42.2978 3.45216 -2.4167 0
M  V30 374 H 40.9728 2.95068 -1.33103 0
M  V30 375 H 39.8798 1.7442 -3.30951 0
M  V30 376 H 41.2128 2.31222 -4.34508 0
M  V30 377 N 42.8649 1.48995 0.513639 0
M  V30 378 C 44.1129 1.57531 1.26604 0
M  V30 379 C 44.4339 0.258236 1.93283 0
M  V30 380 O 43.7039 -0.721502 1.8213 0
M  V30 381 H 42.2839 0.580387 0.470276 0
M  V30 382 H 44.9459 1.85552 0.596373 0
M  V30 383 H 44.0419 2.36486 2.03669 0
M  V30 384 N 44.343 -0.763751 1.37857 0
M  V30 385 C 45.62 -1.51244 1.24035 0
M  V30 386 C 46 -2.10472 -0.162649 0
M  V30 387 O 45.348 -1.96206 -1.17112 0
M  V30 388 C 45.558 -2.58694 2.34261 0
M  V30 389 C 46.906 -3.25878 2.72193 0
M  V30 390 O 47.93 -2.68993 2.33497 0
M  V30 391 O 46.789 -4.2874 3.38887 0
M  V30 392 H 43.883 -0.670243 0.484462 0
M  V30 393 H 46.429 -0.800031 1.49658 0
M  V30 394 H 45.201 -2.13105 3.2818 0
M  V30 395 H 44.824 -3.37527 2.10146 0
M  V30 396 N 45.8211 -1.22559 -0.990812 0
M  V30 397 C 47.2321 -1.04791 -1.54518 0
M  V30 398 C 47.5831 0.387998 -1.92325 0
M  V30 399 O 46.7081 1.27328 -1.74976 0
M  V30 400 C 47.3031 -1.896 -2.80779 0
M  V30 401 C 45.8621 -1.76124 -3.32652 0
M  V30 402 C 45.0091 -1.8594 -2.05722 0
M  V30 403 H 47.9601 -1.36374 -0.811662 0
M  V30 404 H 47.9811 -1.41464 -3.53225 0
M  V30 405 H 47.4931 -2.94101 -2.53231 0
M  V30 406 H 45.5941 -0.743643 -3.65104 0
M  V30 407 H 45.7071 -2.58913 -4.03114 0
M  V30 408 H 44.0711 -1.29403 -2.19379 0
M  V30 409 H 44.8541 -2.91976 -1.80568 0
M  V30 410 N 47.2992 1.18797 -1.03562 0
M  V30 411 C 48.2312 2.21731 -0.580337 0
M  V30 412 C 49.2442 1.59051 0.347349 0
M  V30 413 O 50.4332 1.77929 0.142669 0
M  V30 414 C 47.5332 3.38459 0.172805 0
M  V30 415 C 46.7062 4.3072 -0.761496 0
M  V30 416 C 45.7652 5.26174 -0.0525547 0
M  V30 417 O 44.7912 5.65108 -0.681333 0
M  V30 418 N 45.9932 5.67624 1.21586 0
M  V30 419 H 48.7582 2.61417 -1.46565 0
M  V30 420 H 46.3192 1.33531 -0.915476 0
M  V30 421 H 48.3112 3.99335 0.656793 0
M  V30 422 H 46.8812 2.97507 0.959602 0
M  V30 423 H 46.1012 3.67525 -1.42544 0
M  V30 424 H 47.3892 4.89267 -1.39626 0
M  V30 425 H 46.7872 5.38038 1.74732 0
M  V30 426 H 45.3442 6.30721 1.64421 0
M  V30 427 N 48.7773 0.814389 1.34928 0
M  V30 428 C 49.7243 0.22822 2.29669 0
M  V30 429 C 50.6943 -0.642164 1.53184 0
M  V30 430 O 51.8793 -0.585605 1.81591 0
M  V30 431 C 49.0193 -0.61089 3.3965 0
M  V30 432 C 48.1323 0.280792 4.31086 0
M  V30 433 C 47.2673 -0.567067 5.28165 0
M  V30 434 C 46.3063 0.324531 6.11239 0
M  V30 435 N 45.4433 -0.483756 7.00431 0
M  V30 436 H 50.2833 1.04153 2.79206 0
M  V30 437 H 47.8203 0.525133 1.37407 0
M  V30 438 H 49.7783 -1.11263 4.0209 0
M  V30 439 H 48.4083 -1.38939 2.91369 0
M  V30 440 H 47.4603 0.900688 3.69583 0
M  V30 441 H 48.7723 0.966723 4.89342 0
M  V30 442 H 47.9263 -1.13363 5.96015 0
M  V30 443 H 46.6653 -1.28654 4.70425 0
M  V30 444 H 45.6703 0.903298 5.42329 0
M  V30 445 H 46.8953 1.04198 6.71059 0
M  V30 446 H 44.8413 -1.18706 6.45171 0
M  V30 447 H 44.7583 0.143965 7.55863 0
M  V30 448 H 46.0263 -1.03334 7.7262 0
M  V30 449 N 50.2554 -1.46986 0.568584 0
M  V30 450 C 51.1654 -2.33942 -0.17555 0
M  V30 451 C 52.1814 -1.48891 -0.90041 0
M  V30 452 O 53.3574 -1.81794 -0.86676 0
M  V30 453 C 50.4224 -3.25811 -1.18524 0
M  V30 454 C 49.4834 -4.26757 -0.466582 0
M  V30 455 C 48.7164 -5.14236 -1.42817 0
M  V30 456 O 48.9394 -5.04379 -2.66379 0
M  V30 457 O 47.8734 -5.94412 -0.946453 0
M  V30 458 H 51.6994 -2.98896 0.538036 0
M  V30 459 H 49.2844 -1.4573 0.329097 0
M  V30 460 H 51.1664 -3.82527 -1.76779 0
M  V30 461 H 49.8414 -2.63471 -1.88055 0
M  V30 462 H 48.7484 -3.73769 0.157451 0
M  V30 463 H 50.0814 -4.91843 0.187485 0
M  V30 464 N 51.7335 -0.305618 -1.54608 0
M  V30 465 C 52.6805 0.568421 -2.23691 0
M  V30 466 C 53.6505 1.12592 -1.22116 0
M  V30 467 O 54.8355 1.16959 -1.50749 0
M  V30 468 C 51.9755 1.7322 -2.98477 0
M  V30 469 C 51.0885 1.20566 -4.14835 0
M  V30 470 C 50.2235 2.33368 -4.77193 0
M  V30 471 C 49.2625 1.7787 -5.85686 0
M  V30 472 N 48.3995 2.84263 -6.4198 0
M  V30 473 H 53.2395 -0.0272867 -2.97988 0
M  V30 474 H 50.7765 -0.0252363 -1.47078 0
M  V30 475 H 52.7345 2.41675 -3.40072 0
M  V30 476 H 51.3645 2.29947 -2.26548 0
M  V30 477 H 50.4165 0.413223 -3.78149 0
M  V30 478 H 51.7285 0.759417 -4.92985 0
M  V30 479 H 50.8825 3.09761 -5.21664 0
M  V30 480 H 49.6215 2.8132 -3.98385 0
M  V30 481 H 48.6265 0.99968 -5.40635 0
M  V30 482 H 49.8515 1.30816 -6.66381 0
M  V30 483 H 47.7975 3.31541 -5.66053 0
M  V30 484 H 47.7145 2.44149 -7.15491 0
M  V30 485 H 48.9825 3.6054 -6.91109 0
M  V30 486 N 53.2116 1.57565 -0.0334293 0
M  V30 487 C 54.4606 1.91155 0.643639 0
M  V30 488 C 54.7736 0.91192 1.73042 0
M  V30 489 O 55.9796 1.13923 2.46442 0
M  V30 490 C 54.4356 3.39443 1.1961 0
M  V30 491 C 54.0436 4.47774 0.142381 0
M  V30 492 C 55.7876 3.82094 1.84944 0
M  V30 493 C 53.6946 5.87162 0.706727 0
M  V30 494 H 52.6246 0.713368 0.244176 0
M  V30 495 H 55.2756 1.8323 -0.0994323 0
M  V30 496 H 53.6576 3.42313 1.99092 0
M  V30 497 H 54.8316 4.56469 -0.630296 0
M  V30 498 H 53.1466 4.14352 -0.412446 0
M  V30 499 H 55.7436 4.83591 2.2813 0
M  V30 500 H 56.0866 3.17386 2.69392 0
M  V30 501 H 56.6196 3.81665 1.12145 0
M  V30 502 H 53.3586 6.55424 -0.0997178 0
M  V30 503 H 52.8786 5.82064 1.44779 0
M  V30 504 H 54.5576 6.35866 1.19514 0
M  V30 505 N 54.6897 -0.239769 1.55765 0
M  V30 506 C 55.9367 -0.966801 1.7793 0
M  V30 507 C 56.2647 -1.85046 0.599015 0
M  V30 508 O 55.5197 -1.91197 -0.417395 0
M  V30 509 C 55.8187 -1.852 3.05672 0
M  V30 510 C 55.4847 -1.1231 4.36689 0
M  V30 511 C 54.1467 -0.921689 4.72291 0
M  V30 512 C 56.4987 -0.607019 5.17653 0
M  V30 513 C 53.8267 -0.191996 5.86386 0
M  V30 514 C 56.1787 0.109241 6.32506 0
M  V30 515 C 54.8427 0.322073 6.66723 0
M  V30 516 H 54.1127 -0.353778 0.651093 0
M  V30 517 H 56.7597 -0.23634 1.90036 0
M  V30 518 H 55.0647 -2.64975 2.8861 0
M  V30 519 H 56.7617 -2.41635 3.20021 0
M  V30 520 H 53.3517 -1.29004 4.08725 0
M  V30 521 H 57.5357 -0.750153 4.90598 0
M  V30 522 H 52.7917 -0.0166949 6.11398 0
M  V30 523 H 56.9657 0.516737 6.9448 0
M  V30 524 H 54.5927 0.88944 7.54979 0
M  V30 525 N 56.1678 -1.49265 -0.50573 0
M  V30 526 C 57.1308 -1.65075 -1.59006 0
M  V30 527 C 58.1308 -0.522768 -1.52065 0
M  V30 528 O 59.3208 -0.789117 -1.55302 0
M  V30 529 C 56.4528 -1.64369 -2.98656 0
M  V30 530 H 57.6458 -2.61784 -1.46319 0
M  V30 531 H 55.1988 -1.38226 -0.729616 0
M  V30 532 H 55.9338 -0.692272 -3.16825 0
M  V30 533 H 55.7188 -2.46282 -3.05103 0
M  V30 534 H 57.2088 -1.78674 -3.77446 0
M  V30 535 N 57.6459 0.756429 -1.3826 0
M  V30 536 C 58.5559 1.9009 -1.37488 0
M  V30 537 C 59.5719 1.71855 -0.272366 0
M  V30 538 O 60.7479 1.94827 -0.510318 0
M  V30 539 C 57.8129 3.25421 -1.19592 0
M  V30 540 C 56.8739 3.56202 -2.39622 0
M  V30 541 C 56.1069 4.85075 -2.2257 0
M  V30 542 O 56.3299 5.57246 -1.21793 0
M  V30 543 O 55.2639 5.15269 -3.11098 0
M  V30 544 H 59.0899 1.93695 -2.33914 0
M  V30 545 H 56.6749 0.901313 -1.1915 0
M  V30 546 H 58.5569 4.06337 -1.11661 0
M  V30 547 H 57.2319 3.22634 -0.262486 0
M  V30 548 H 56.1389 2.75458 -2.53128 0
M  V30 549 H 57.4719 3.63747 -3.31586 0
M  V30 550 N 59.124 1.23083 0.984299 0
M  V30 551 C 60.373 1.05466 1.71929 0
M  V30 552 C 60.686 -0.409211 1.91272 0
M  V30 553 O 61.892 -0.705226 2.62181 0
M  V30 554 C 60.348 1.83874 3.09384 0
M  V30 555 C 59.956 3.34566 2.97943 0
M  V30 556 C 61.7 1.74734 3.8687 0
M  V30 557 C 59.607 4.05381 4.30605 0
M  V30 558 H 58.537 0.391039 0.644674 0
M  V30 559 H 61.188 1.47013 1.09815 0
M  V30 560 H 59.57 1.35131 3.72231 0
M  V30 561 H 60.744 3.90767 2.44209 0
M  V30 562 H 59.059 3.44476 2.33934 0
M  V30 563 H 61.656 2.24957 4.85076 0
M  V30 564 H 61.999 0.709372 4.10212 0
M  V30 565 H 62.532 2.21067 3.30717 0
M  V30 566 H 59.271 5.09467 4.1246 0
M  V30 567 H 58.791 3.53967 4.84218 0
M  V30 568 H 60.47 4.11458 4.99311 0
M  V30 569 N 60.6021 -1.18246 1.0419 0
M  V30 570 C 61.8271 -1.92736 0.765996 0
M  V30 571 C 62.2521 -1.75728 -0.67091 0
M  V30 572 O 61.6101 -1.06825 -1.46486 0
M  V30 573 C 61.6581 -3.42148 1.13875 0
M  V30 574 O 60.7621 -4.11548 0.264954 0
M  V30 575 H 60.1031 -0.601238 0.281797 0
M  V30 576 H 62.6331 -1.49942 1.39207 0
M  V30 577 H 62.6431 -3.92858 1.1012 0
M  V30 578 H 61.3181 -3.53848 2.18551 0
M  V30 579 H 59.8951 -3.71137 0.362226 0
M  V30 580 N 62.0802 -0.821533 -1.34494 0
M  V30 581 C 63.0302 -0.214793 -2.26986 0
M  V30 582 C 64.0142 0.620125 -1.4847 0
M  V30 583 O 65.2062 0.474933 -1.70509 0
M  V30 584 C 62.3352 0.623566 -3.37589 0
M  V30 585 C 61.4212 -0.221904 -4.23519 0
M  V30 586 N 61.8122 -1.29223 -4.89014 0
M  V30 587 C 60.1102 -0.00600922 -4.46 0
M  V30 588 C 60.8112 -1.80965 -5.52835 0
M  V30 589 N 59.7872 -1.11376 -5.32068 0
M  V30 590 H 63.5892 -1.03354 -2.75128 0
M  V30 591 H 61.1032 -0.6642 -1.48196 0
M  V30 592 H 63.1002 1.0744 -4.02818 0
M  V30 593 H 61.7602 1.44049 -2.90998 0
M  V30 594 H 62.7712 -1.67502 -4.90065 0
M  V30 595 H 59.4482 0.77886 -4.10171 0
M  V30 596 H 60.8382 -2.70502 -6.15043 0
M  V30 597 N 63.5583 1.46682 -0.576371 0
M  V30 598 C 64.9693 1.86112 -0.148091 0
M  V30 599 C 65.3203 1.48073 1.2872 0
M  V30 600 O 64.4453 0.892656 1.97131 0
M  V30 601 C 65.0403 3.37786 -0.261982 0
M  V30 602 C 63.5993 3.76235 0.111384 0
M  V30 603 C 62.7463 2.70713 -0.60083 0
M  V30 604 H 65.6973 1.37927 -0.78497 0
M  V30 605 H 65.7183 3.77007 0.514364 0
M  V30 606 H 65.2303 3.6544 -1.30671 0
M  V30 607 H 63.3313 3.54198 1.15649 0
M  V30 608 H 63.4443 4.78391 -0.26052 0
M  V30 609 H 61.8083 2.54666 -0.0417783 0
M  V30 610 H 62.5913 3.01208 -1.64708 0
M  V30 611 N 65.0364 0.313813 1.54444 0
M  V30 612 C 65.9464 -0.565714 2.27677 0
M  V30 613 C 66.9624 -1.13754 1.31666 0
M  V30 614 O 68.1384 -1.15959 1.64668 0
M  V30 615 C 65.2034 -1.71528 3.01296 0
M  V30 616 C 64.2644 -1.17624 4.12872 0
M  V30 617 C 63.4974 -2.27102 4.8297 0
M  V30 618 O 63.7204 -3.47256 4.52514 0
M  V30 619 O 62.6544 -1.9307 5.70094 0
M  V30 620 H 66.4804 0.0287296 3.03686 0
M  V30 621 H 64.0654 0.0798312 1.49187 0
M  V30 622 H 65.9474 -2.38476 3.4743 0
M  V30 623 H 64.6224 -2.29608 2.2817 0
M  V30 624 H 63.5294 -0.472124 3.71109 0
M  V30 625 H 64.8624 -0.640695 4.88012 0
M  V30 626 N 66.5145 -1.57545 0.0417849 0
M  V30 627 C 67.4245 -2.14451 -0.951213 0
M  V30 628 C 68.4405 -1.09992 -1.34825 0
M  V30 629 O 69.6165 -1.42114 -1.42708 0
M  V30 630 C 66.6815 -2.67063 -2.21084 0
M  V30 631 C 65.7425 -3.86284 -1.87304 0
M  V30 632 C 64.9755 -4.36378 -3.07261 0
M  V30 633 O 65.1985 -3.85587 -4.20332 0
M  V30 634 O 64.1325 -5.28077 -2.88822 0
M  V30 635 H 67.9585 -2.99601 -0.497287 0
M  V30 636 H 65.5435 -1.48317 -0.179567 0
M  V30 637 H 67.4255 -3.00914 -2.95006 0
M  V30 638 H 66.1005 -1.84989 -2.65633 0
M  V30 639 H 65.0075 -3.57338 -1.10727 0
M  V30 640 H 66.3405 -4.6956 -1.47562 0
M  V30 641 N 67.9926 0.231505 -1.5589 0
M  V30 642 C 68.9026 1.308 -1.94752 0
M  V30 643 C 69.9186 1.51826 -0.849989 0
M  V30 644 O 71.0946 1.6515 -1.15271 0
M  V30 645 C 68.1596 2.63968 -2.24771 0
M  V30 646 C 67.2206 2.51331 -3.48039 0
M  V30 647 C 66.4536 3.78148 -3.76616 0
M  V30 648 O 66.6766 4.80722 -3.07022 0
M  V30 649 O 65.6106 3.75857 -4.70123 0
M  V30 650 H 69.4366 1.0083 -2.86474 0
M  V30 651 H 67.0216 0.433547 -1.42971 0
M  V30 652 H 68.9036 3.42633 -2.45318 0
M  V30 653 H 67.5786 2.9364 -1.36225 0
M  V30 654 H 66.4856 1.709 -3.32782 0
M  V30 655 H 67.8186 2.26601 -4.36936 0
M  V30 656 N 69.4707 1.49531 0.497807 0
M  V30 657 C 70.7187 1.58865 1.24926 0
M  V30 658 C 71.0397 0.278721 1.92998 0
M  V30 659 O 70.3097 -0.702144 1.82885 0
M  V30 660 H 68.8897 0.585343 0.464094 0
M  V30 661 H 71.5517 1.86174 0.57666 0
M  V30 662 H 70.6477 2.38633 2.01149 0
M  V30 663 N 70.9488 -0.749086 1.3866 0
M  V30 664 C 72.2258 -1.4992 1.25632 0
M  V30 665 C 72.6058 -2.10633 -0.140317 0
M  V30 666 O 71.9538 -1.97437 -1.15025 0
M  V30 667 C 72.1638 -2.56195 2.36992 0
M  V30 668 C 73.5118 -3.22972 2.75634 0
M  V30 669 O 74.5358 -2.66502 2.36337 0
M  V30 670 O 73.3948 -4.25122 3.43415 0
M  V30 671 H 70.4888 -0.665067 0.491544 0
M  V30 672 H 73.0348 -0.784113 1.50498 0
M  V30 673 H 71.8068 -2.09612 3.30422 0
M  V30 674 H 71.4298 -3.35279 2.13714 0
M  V30 675 N 72.4269 -1.23603 -0.977757 0
M  V30 676 C 73.3569 -1.04401 -2.0886 0
M  V30 677 C 74.3379 0.0399052 -1.70053 0
M  V30 678 O 75.5229 -0.125246 -1.93796 0
M  V30 679 C 72.6529 -0.637269 -3.41403 0
M  V30 680 C 71.6069 -1.66883 -3.94124 0
M  V30 681 C 70.9329 -1.11745 -5.22893 0
M  V30 682 C 72.2329 -3.06247 -4.23096 0
M  V30 683 H 73.9269 -1.97316 -2.25182 0
M  V30 684 H 71.4729 -0.950096 -1.08209 0
M  V30 685 H 73.4259 -0.48998 -4.18542 0
M  V30 686 H 72.1499 0.327557 -3.24953 0
M  V30 687 H 70.8089 -1.80416 -3.19133 0
M  V30 688 H 70.4569 -0.143527 -5.02795 0
M  V30 689 H 70.1569 -1.80672 -5.59134 0
M  V30 690 H 71.6809 -0.982067 -6.02651 0
M  V30 691 H 73.0949 -2.96001 -4.90975 0
M  V30 692 H 71.4919 -3.72436 -4.70544 0
M  V30 693 H 72.5619 -3.55041 -3.30263 0
M  V30 694 N 73.905 1.17692 -1.04816 0
M  V30 695 C 74.868 2.19787 -0.650117 0
M  V30 696 C 75.868 1.58044 0.296427 0
M  V30 697 O 77.058 1.74012 0.0808097 0
M  V30 698 C 74.19 3.40869 0.0456987 0
M  V30 699 H 75.383 2.56516 -1.5537 0
M  V30 700 H 72.936 1.31708 -0.841594 0
M  V30 701 H 73.671 3.09681 0.962726 0
M  V30 702 H 73.456 3.86928 -0.634727 0
M  V30 703 H 74.946 4.16445 0.310432 0
M  V30 704 N 75.3831 0.828654 1.34056 0
M  V30 705 C 76.6601 0.341809 1.9259 0
M  V30 706 C 77.0401 -1.17158 1.75605 0
M  V30 707 O 76.3881 -1.98132 1.13824 0
M  V30 708 C 76.5981 0.777453 3.4023 0
M  V30 709 C 77.9461 0.779579 4.17382 0
M  V30 710 O 78.9701 0.7204 3.48839 0
M  V30 711 O 77.8291 0.857996 5.39723 0
M  V30 712 H 74.9231 0.0946085 0.821571 0
M  V30 713 H 77.4691 0.913827 1.42994 0
M  V30 714 H 76.2411 1.8196 3.46419 0
M  V30 715 H 75.8641 0.181444 3.97186 0
M  V30 716 N 76.8612 -1.46375 0.584142 0
M  V30 717 C 78.1102 -2.01585 0.0679741 0
M  V30 718 C 78.4232 -1.46109 -1.30045 0
M  V30 719 O 79.6292 -1.93148 -1.90804 0
M  V30 720 C 78.0852 -3.5983 0.0709207 0
M  V30 721 C 77.6932 -4.24303 1.43775 0
M  V30 722 C 79.4372 -4.22693 -0.391228 0
M  V30 723 C 77.3442 -5.74631 1.39834 0
M  V30 724 H 76.2742 -0.753689 0.0216421 0
M  V30 725 H 78.9252 -1.68093 0.736001 0
M  V30 726 H 77.3072 -3.90405 -0.663299 0
M  V30 727 H 78.4812 -4.05335 2.19181 0
M  V30 728 H 76.7962 -3.73539 1.84004 0
M  V30 729 H 79.3932 -5.3289 -0.439524 0
M  V30 730 H 79.7362 -3.91728 -1.40906 0
M  V30 731 H 80.2692 -3.96749 0.288974 0
M  V30 732 H 77.0082 -6.10258 2.39303 0
M  V30 733 H 76.5282 -5.95858 0.686505 0
M  V30 734 H 78.2072 -6.37375 1.11187 0
M  V30 735 N 78.3393 -0.321999 -1.54275 0
M  V30 736 C 79.2863 0.544664 -2.24281 0
M  V30 737 C 80.2563 1.1129 -1.23303 0
M  V30 738 O 81.4413 1.15354 -1.51981 0
M  V30 739 C 78.5813 1.70045 -3.00298 0
M  V30 740 C 77.6943 1.16159 -4.1609 0
M  V30 741 C 76.8293 2.28293 -4.79641 0
M  V30 742 C 75.8683 1.71648 -5.8754 0
M  V30 743 N 75.0053 2.77438 -6.44959 0
M  V30 744 H 79.8453 -0.0588907 -2.97942 0
M  V30 745 H 77.3823 -0.0408345 -1.47043 0
M  V30 746 H 79.3403 2.38054 -3.42616 0
M  V30 747 H 77.9703 2.27531 -2.28975 0
M  V30 748 H 77.0223 0.373092 -3.78566 0
M  V30 749 H 78.3343 0.707087 -4.93763 0
M  V30 750 H 77.4883 3.0421 -5.2492 0
M  V30 751 H 76.2273 2.77079 -4.01346 0
M  V30 752 H 75.2323 0.942282 -5.41665 0
M  V30 753 H 76.4573 1.23741 -6.67731 0
M  V30 754 H 74.4033 3.25519 -5.69538 0
M  V30 755 H 74.3203 2.36547 -7.1804 0
M  V30 756 H 75.5883 3.53189 -6.94894 0
M  V30 757 N 79.8174 1.5752 -0.0501392 0
M  V30 758 C 81.0424 1.97376 0.636997 0
M  V30 759 C 81.4674 0.927466 1.63645 0
M  V30 760 O 80.8254 -0.10941 1.8097 0
M  V30 761 C 80.8734 3.36304 1.30123 0
M  V30 762 O 79.9774 3.34156 2.41689 0
M  V30 763 H 79.3184 0.642998 0.165679 0
M  V30 764 H 81.8484 2.04258 -0.118233 0
M  V30 765 H 81.8584 3.73008 1.65315 0
M  V30 766 H 80.5334 4.11993 0.568746 0
M  V30 767 H 79.1104 3.09196 2.08451 0
M  V30 768 N 81.2955 -0.223234 1.56011 0
M  V30 769 C 82.5205 -0.968978 1.83373 0
M  V30 770 C 82.9455 -1.77227 0.630254 0
M  V30 771 O 82.3035 -1.76345 -0.420959 0
M  V30 772 C 82.3515 -1.86363 3.08709 0
M  V30 773 O 81.4555 -2.95873 2.87285 0
M  V30 774 H 80.7965 -0.274461 0.604622 0
M  V30 775 H 83.3265 -0.237056 2.03222 0
M  V30 776 H 83.3365 -2.27376 3.38768 0
M  V30 777 H 82.0115 -1.27319 3.95933 0
M  V30 778 H 80.5885 -2.58818 2.68454 0
M  V30 779 N 82.7736 -1.49793 -0.48987 0
M  V30 780 C 83.7036 -1.70201 -1.59856 0
M  V30 781 C 84.6846 -0.55076 -1.60937 0
M  V30 782 O 85.8696 -0.787841 -1.77501 0
M  V30 783 C 82.9996 -1.77882 -2.98287 0
M  V30 784 C 81.9536 -2.92907 -3.12073 0
M  V30 785 C 81.2796 -2.85712 -4.51965 0
M  V30 786 C 82.5796 -4.3369 -2.91051 0
M  V30 787 H 84.2736 -2.63025 -1.43032 0
M  V30 788 H 81.8196 -1.26574 -0.686664 0
M  V30 789 H 83.7726 -1.90744 -3.75759 0
M  V30 790 H 82.4966 -0.816653 -3.16225 0
M  V30 791 H 81.1556 -2.79665 -2.37029 0
M  V30 792 H 80.8036 -1.8738 -4.66795 0
M  V30 793 H 80.5036 -3.62921 -4.62128 0
M  V30 794 H 82.0276 -3.00598 -5.31482 0
M  V30 795 H 83.4416 -4.47555 -3.58284 0
M  V30 796 H 81.8386 -5.12205 -3.12675 0
M  V30 797 H 82.9086 -4.47362 -1.87071 0
M  V30 798 N 84.2517 0.741722 -1.39055 0
M  V30 799 C 85.4977 1.50336 -1.36113 0
M  V30 800 C 85.8307 1.94148 0.0450796 0
M  V30 801 O 85.1057 1.66301 1.00868 0
M  V30 802 C 85.3887 2.74773 -2.32749 0
M  V30 803 C 85.2417 2.37023 -3.82283 0
M  V30 804 C 86.5607 3.76846 -2.27322 0
M  V30 805 H 83.6797 0.545351 -0.495743 0
M  V30 806 H 86.3217 0.848624 -1.69995 0
M  V30 807 H 84.4717 3.30639 -2.03986 0
M  V30 808 H 86.1437 1.8684 -4.21768 0
M  V30 809 H 84.3867 1.69334 -3.99385 0
M  V30 810 H 85.0577 3.26104 -4.45376 0
M  V30 811 H 87.5337 3.30548 -2.5274 0
M  V30 812 H 86.4097 4.6159 -2.97028 0
M  V30 813 H 86.6707 4.23286 -1.27599 0
M  V30 814 N 85.7298 1.2412 0.971189 0
M  V30 815 C 86.6778 1.02812 2.08644 0
M  V30 816 C 87.6718 -0.0358403 1.69362 0
M  V30 817 O 88.8778 0.118429 1.7961 0
M  V30 818 H 85.2528 0.315428 0.682649 0
M  V30 819 H 87.2238 1.97397 2.23779 0
M  V30 820 C 85.9728 0.645874 3.41649 0
M  V30 821 H 85.2958 1.45632 3.72332 0
M  V30 822 H 86.7358 0.536366 4.20594 0
M  V30 823 C 85.1948 -0.646713 3.30635 0
M  V30 824 O 85.7248 -1.69338 3.64263 0
M  V30 825 N 83.9308 -0.626115 2.83775 0
M  V30 826 H 83.4778 0.225988 2.56607 0
M  V30 827 H 83.4358 -1.49117 2.76788 0
M  V30 828 N 87.2079 -1.17134 1.05439 0
M  V30 829 C 88.1179 -2.24878 0.668365 0
M  V30 830 C 89.1339 -1.71186 -0.311687 0
M  V30 831 O 90.3099 -2.00738 -0.163161 0
M  V30 832 C 87.3749 -3.46662 0.051648 0
M  V30 833 C 86.4359 -4.15429 1.08246 0
M  V30 834 C 85.6689 -5.31399 0.495082 0
M  V30 835 O 85.8919 -5.66153 -0.694743 0
M  V30 836 O 84.8259 -5.89187 1.23056 0
M  V30 837 H 88.6519 -2.60189 1.56637 0
M  V30 838 H 86.2369 -1.24482 0.826104 0
M  V30 839 H 88.1189 -4.20394 -0.290966 0
M  V30 840 H 86.7939 -3.13142 -0.819971 0
M  V30 841 H 85.7009 -3.43704 1.47711 0
M  V30 842 H 87.0339 -4.52982 1.92532 0
M  V30 843 N 88.686 -0.835752 -1.33615 0
M  V30 844 C 89.911 -0.442389 -2.02627 0
M  V30 845 C 90.336 0.947735 -1.62479 0
M  V30 846 O 89.694 1.61907 -0.815826 0
M  V30 847 C 89.742 -0.567216 -3.56111 0
M  V30 848 O 88.846 0.407799 -4.10379 0
M  V30 849 H 88.187 -0.180278 -0.639059 0
M  V30 850 H 90.717 -1.12972 -1.70583 0
M  V30 851 H 90.727 -0.447708 -4.05536 0
M  V30 852 H 89.402 -1.58103 -3.84677 0
M  V30 853 H 87.979 0.246107 -3.72087 0
M  V30 854 N 90.1641 1.46063 -0.591896 0
M  V30 855 C 91.0741 2.34192 0.13831 0
M  V30 856 C 92.0901 1.50305 0.876608 0
M  V30 857 O 93.2661 1.8315 0.837728 0
M  V30 858 C 90.3311 3.27656 1.13326 0
M  V30 859 C 89.3921 4.27445 0.39863 0
M  V30 860 C 88.6251 5.16443 1.34618 0
M  V30 861 O 88.8481 5.08553 2.58321 0
M  V30 862 O 87.7821 5.95843 0.851768 0
M  V30 863 H 91.6081 2.98002 -0.58552 0
M  V30 864 H 89.1931 1.45188 -0.352239 0
M  V30 865 H 91.0751 3.85291 1.70671 0
M  V30 866 H 89.7501 2.6643 1.83839 0
M  V30 867 H 88.6571 3.73471 -0.216895 0
M  V30 868 H 89.9901 4.91482 -0.265709 0
M  V30 869 N 91.6422 0.330177 1.54103 0
M  V30 870 C 92.8912 -0.271336 1.99867 0
M  V30 871 C 93.2042 -1.52723 1.22209 0
M  V30 872 O 94.4102 -2.20515 1.58383 0
M  V30 873 C 92.8662 -0.534032 3.55916 0
M  V30 874 C 92.4742 0.705193 4.42415 0
M  V30 875 C 94.2182 -1.09514 4.1013 0
M  V30 876 C 92.1252 0.414035 5.89949 0
M  V30 877 H 91.0552 -0.105166 0.74663 0
M  V30 878 H 93.7062 0.443429 1.78062 0
M  V30 879 H 92.0882 -1.30915 3.73734 0
M  V30 880 H 93.2622 1.4804 4.36372 0
M  V30 881 H 91.5772 1.18698 3.99124 0
M  V30 882 H 94.1742 -1.3277 5.17954 0
M  V30 883 H 94.5172 -2.04656 3.62521 0
M  V30 884 H 95.0502 -0.381038 3.95971 0
M  V30 885 H 91.7892 1.33481 6.41766 0
M  V30 886 H 91.3092 -0.323336 5.98928 0
M  V30 887 H 92.9882 0.0263105 6.46995 0
M  V30 888 N 93.1203 -1.57491 0.0584922 0
M  V30 889 C 94.3693 -1.92155 -0.613146 0
M  V30 890 C 94.6823 -0.939334 -1.71569 0
M  V30 891 O 95.8883 -1.17829 -2.44599 0
M  V30 892 C 94.3443 -3.41303 -1.14195 0
M  V30 893 C 93.9523 -4.47944 -0.0711265 0
M  V30 894 C 95.6963 -3.84988 -1.78841 0
M  V30 895 C 93.6033 -5.88212 -0.613225 0
M  V30 896 H 92.5333 -0.717162 -0.232796 0
M  V30 897 H 95.1843 -1.83049 0.12857 0
M  V30 898 H 93.5663 -3.45437 -1.93621 0
M  V30 899 H 94.7403 -4.55408 0.702836 0
M  V30 900 H 93.0553 -4.13644 0.478313 0
M  V30 901 H 95.6523 -4.87159 -2.20408 0
M  V30 902 H 95.9953 -3.21632 -2.64308 0
M  V30 903 H 96.5283 -3.83401 -1.06059 0
M  V30 904 H 93.2673 -6.55183 0.203978 0
M  V30 905 H 92.7873 -5.84294 -1.35501 0
M  V30 906 H 94.4663 -6.37687 -1.09383 0
M  V30 907 N 94.5984 0.214957 -1.56127 0
M  V30 908 C 96.0094 0.781386 -1.69562 0
M  V30 909 C 96.3604 1.84707 -0.66165 0
M  V30 910 O 95.4854 2.156 0.185927 0
M  V30 911 C 96.0804 1.42411 -3.07416 0
M  V30 912 C 94.6394 1.93786 -3.22683 0
M  V30 913 C 93.7864 0.800438 -2.65496 0
M  V30 914 H 96.7374 -0.00980633 -1.58697 0
M  V30 915 H 96.7584 2.29309 -3.0364 0
M  V30 916 H 96.2704 0.64826 -3.82648 0
M  V30 917 H 94.3714 2.74152 -2.52332 0
M  V30 918 H 94.4844 2.1133 -4.29973 0
M  V30 919 H 92.8484 1.2095 -2.2415 0
M  V30 920 H 93.6314 0.0371471 -3.4328 0
M  V30 921 N 96.0765 1.50051 0.48192 0
M  V30 922 C 97.0395 1.67584 1.5636 0
M  V30 923 C 98.0395 0.546894 1.51214 0
M  V30 924 O 99.2295 0.813725 1.54026 0
M  V30 925 C 96.3615 1.691 2.96003 0
M  V30 926 H 97.5545 2.64078 1.42136 0
M  V30 927 H 95.1075 1.39369 0.707533 0
M  V30 928 H 95.8425 0.742589 3.15684 0
M  V30 929 H 95.6275 2.51105 3.01146 0
M  V30 930 H 97.1175 1.84656 3.74556 0
M  V30 931 N 97.5546 -0.734337 1.39446 0
M  V30 932 C 98.7796 -1.52866 1.40167 0
M  V30 933 C 99.2046 -1.881 -0.00171513 0
M  V30 934 O 98.5626 -1.51957 -0.988879 0
M  V30 935 C 98.6106 -2.79235 2.28167 0
M  V30 936 O 97.7146 -3.75185 1.71201 0
M  V30 937 H 97.0556 -0.461618 0.477289 0
M  V30 938 H 99.5856 -0.905949 1.8345 0
M  V30 939 H 99.5956 -3.27963 2.42702 0
M  V30 940 H 98.2706 -2.52923 3.30156 0
M  V30 941 H 96.8476 -3.33958 1.65912 0
M  V30 942 N 99.0327 -1.24633 -0.964593 0
M  V30 943 C 99.9807 -1.03917 -2.08096 0
M  V30 944 C 100.975 0.0268581 -1.69379 0
M  V30 945 O 102.181 -0.127952 -1.79545 0
M  V30 946 H 98.5557 -0.319044 -0.680966 0
M  V30 947 H 100.527 -1.98581 -2.22729 0
M  V30 948 C 99.2757 -0.663983 -3.41301 0
M  V30 949 H 98.5987 -1.47605 -3.71555 0
M  V30 950 H 100.039 -0.558663 -4.20303 0
M  V30 951 C 98.4977 0.629169 -3.30973 0
M  V30 952 O 99.0277 1.67404 -3.65156 0
M  V30 953 N 97.2337 0.611057 -2.84103 0
M  V30 954 H 96.7807 -0.239593 -2.56483 0
M  V30 955 H 96.7387 1.47647 -2.77575 0
M  V30 956 N 100.511 1.16574 -1.06058 0
M  V30 957 C 101.759 1.86677 -0.77434 0
M  V30 958 C 102.08 1.81959 0.701147 0
M  V30 959 O 101.35 1.2515 1.50713 0
M  V30 960 H 99.9298 0.691134 -0.283449 0
M  V30 961 H 102.592 1.41378 -1.34158 0
M  V30 962 H 101.688 2.92181 -1.09711 0
M  V30 963 N 101.989 0.842826 1.3317 0
M  V30 964 C 102.939 0.250877 2.26616 0
M  V30 965 C 103.923 -0.596427 1.49437 0
M  V30 966 O 105.115 -0.447747 1.71243 0
M  V30 967 C 102.244 -0.569779 3.38539 0
M  V30 968 C 101.33 0.289254 4.23112 0
M  V30 969 N 101.721 1.36987 4.86897 0
M  V30 970 C 100.019 0.0769631 4.45934 0
M  V30 971 C 100.72 1.89737 5.49886 0
M  V30 972 N 99.6959 1.19827 5.30229 0
M  V30 973 H 103.498 1.07718 2.73448 0
M  V30 974 H 101.012 0.687693 1.47121 0
M  V30 975 H 103.009 -1.01018 4.04476 0
M  V30 976 H 101.669 -1.39401 2.93253 0
M  V30 977 H 102.68 1.75277 4.87338 0
M  V30 978 H 99.3569 -0.713507 4.11358 0
M  V30 979 H 100.747 2.80253 6.10662 0
M  V30 980 N 103.467 -1.45747 0.599634 0
M  V30 981 C 104.377 -2.34262 -0.125888 0
M  V30 982 C 105.393 -1.50768 -0.868625 0
M  V30 983 O 106.569 -1.83592 -0.828003 0
M  V30 984 C 103.634 -3.28252 -1.11587 0
M  V30 985 C 102.695 -4.27651 -0.375956 0
M  V30 986 C 101.928 -5.1715 -1.31877 0
M  V30 987 O 102.151 -5.09916 -2.55621 0
M  V30 988 O 101.085 -5.96286 -0.820157 0
M  V30 989 H 104.911 -2.97688 0.601315 0
M  V30 990 H 102.496 -1.44999 0.359934 0
M  V30 991 H 104.378 -3.86191 -1.68626 0
M  V30 992 H 103.053 -2.67401 -1.82424 0
M  V30 993 H 101.96 -3.7335 0.236698 0
M  V30 994 H 103.293 -4.91334 0.29177 0
M  V30 995 N 104.945 -0.338344 -1.53925 0
M  V30 996 C 106.191 0.260143 -2.01125 0
M  V30 997 C 106.524 1.50617 -1.22589 0
M  V30 998 O 105.799 1.91979 -0.312113 0
M  V30 999 C 106.082 0.579499 -3.55407 0
M  V30 1000 C 105.935 -0.678264 -4.44657 0
M  V30 1001 C 107.254 1.39122 -4.17532 0
M  V30 1002 H 104.373 0.0930772 -0.731099 0
M  V30 1003 H 107.015 -0.457852 -1.84401 0
M  V30 1004 H 105.165 1.19118 -3.69788 0
M  V30 1005 H 106.837 -1.31631 -4.42121 0
M  V30 1006 H 105.08 -1.3042 -4.13731 0
M  V30 1007 H 105.751 -0.410143 -5.50474 0
M  V30 1008 H 108.227 0.874035 -4.06817 0
M  V30 1009 H 107.103 1.58342 -5.25565 0
M  V30 1010 H 107.364 2.39178 -3.71815 0
M  V30 1011 N 106.423 1.57458 -0.0668435 0
M  V30 1012 C 107.386 2.11323 0.887422 0
M  V30 1013 C 108.386 1.03618 1.22964 0
M  V30 1014 O 109.576 1.29626 1.16373 0
M  V30 1015 C 106.708 2.61048 2.19242 0
M  V30 1016 H 107.901 2.96942 0.420194 0
M  V30 1017 H 105.454 1.55239 0.181793 0
M  V30 1018 H 106.189 1.78868 2.70512 0
M  V30 1019 H 105.974 3.39769 1.95702 0
M  V30 1020 H 107.464 3.02814 2.87565 0
M  V30 1021 N 107.901 -0.206675 1.56239 0
M  V30 1022 C 109.317 -0.557025 1.49564 0
M  V30 1023 C 109.517 -1.86424 0.764735 0
M  V30 1024 O 108.573 -2.50584 0.310491 0
M  V30 1025 C 109.886 -0.622478 2.94186 0
M  V30 1026 C 111.434 -0.712099 3.04792 0
M  V30 1027 C 111.909 -0.808767 4.50803 0
M  V30 1028 N 113.4 -0.8726 4.54907 0
M  V30 1029 C 114.135 -0.967365 5.65181 0
M  V30 1030 N 113.631 -1.02515 6.85173 0
M  V30 1031 N 115.424 -1.00366 5.53067 0
M  V30 1032 H 107.575 0.650943 2.02179 0
M  V30 1033 H 109.838 0.230387 0.919579 0
M  V30 1034 H 109.544 0.268727 3.50672 0
M  V30 1035 H 109.418 -1.4811 3.46905 0
M  V30 1036 H 111.805 -1.59374 2.48363 0
M  V30 1037 H 111.886 0.172489 2.55218 0
M  V30 1038 H 111.53 0.0684754 5.07854 0
M  V30 1039 H 111.46 -1.70899 4.98098 0
M  V30 1040 H 113.951 -0.837657 3.68499 0
M  V30 1041 H 114.264 -1.09765 7.64965 0
M  V30 1042 H 112.609 -0.994026 6.87855 0
M  V30 1043 H 115.8 -0.95527 4.58249 0
M  V30 1044 H 115.973 -1.07405 6.39037 0
M  V30 1045 N 109.379 -1.50304 -0.473955 0
M  V30 1046 C 110.311 -1.65109 -1.58971 0
M  V30 1047 C 111.324 -0.532676 -1.53839 0
M  V30 1048 O 112.513 -0.805751 -1.59279 0
M  V30 1049 C 109.613 -1.61684 -2.97845 0
M  V30 1050 C 108.786 -2.8951 -3.27876 0
M  V30 1051 C 107.845 -2.78768 -4.4629 0
M  V30 1052 O 106.871 -3.52722 -4.46739 0
M  V30 1053 N 108.073 -1.9213 -5.47783 0
M  V30 1054 H 110.838 -2.61347 -1.46689 0
M  V30 1055 H 108.399 -1.47732 -0.662324 0
M  V30 1056 H 110.391 -1.52114 -3.75024 0
M  V30 1057 H 108.961 -0.731925 -3.03911 0
M  V30 1058 H 108.181 -3.13228 -2.39336 0
M  V30 1059 H 109.469 -3.74199 -3.4475 0
M  V30 1060 H 108.867 -1.31353 -5.50239 0
M  V30 1061 H 107.424 -1.88466 -6.23958 0
M  V30 1062 N 110.857 0.726932 -1.39834 0
M  V30 1063 C 111.82 1.82269 -1.38962 0
M  V30 1064 C 112.82 1.58248 -0.285334 0
M  V30 1065 O 114.01 1.65499 -0.54366 0
M  V30 1066 C 111.142 3.20186 -1.17019 0
M  V30 1067 H 112.335 1.84443 -2.36476 0
M  V30 1068 H 109.888 0.931416 -1.25516 0
M  V30 1069 H 110.623 3.23669 -0.202204 0
M  V30 1070 H 110.408 3.3902 -1.96998 0
M  V30 1071 H 111.898 4.00235 -1.1917 0
M  V30 1072 N 112.336 1.25143 0.95797 0
M  V30 1073 C 113.268 1.01023 2.05735 0
M  V30 1074 C 114.281 -0.0236902 1.62783 0
M  V30 1075 O 115.47 0.21448 1.77207 0
M  V30 1076 C 112.57 0.504595 3.35122 0
M  V30 1077 C 111.743 1.6039 4.06932 0
M  V30 1078 C 110.802 1.09922 5.14591 0
M  V30 1079 O 109.828 1.79293 5.40225 0
M  V30 1080 N 111.03 -0.0612545 5.80468 0
M  V30 1081 H 113.795 1.95683 2.26998 0
M  V30 1082 H 111.356 1.16303 1.12629 0
M  V30 1083 H 113.348 0.151516 4.04416 0
M  V30 1084 H 111.918 -0.347989 3.10657 0
M  V30 1085 H 111.138 2.12872 3.31782 0
M  V30 1086 H 112.426 2.34252 4.51667 0
M  V30 1087 H 111.824 -0.640985 5.62057 0
M  V30 1088 H 110.381 -0.355395 6.5083 0
M  V30 1089 N 113.814 -1.1601 1.06675 0
M  V30 1090 C 115.042 -1.90527 0.806667 0
M  V30 1091 C 115.457 -1.77643 -0.639396 0
M  V30 1092 O 114.814 -1.12369 -1.43803 0
M  V30 1093 C 114.865 -3.41106 1.19705 0
M  V30 1094 O 114.586 -3.53608 2.58636 0
M  V30 1095 C 116.087 -4.32663 0.965266 0
M  V30 1096 H 113.307 -0.604053 0.292166 0
M  V30 1097 H 115.851 -1.47026 1.4214 0
M  V30 1098 H 114.006 -3.82296 0.626774 0
M  V30 1099 H 114.42 -4.47011 2.74375 0
M  V30 1100 H 115.894 -5.36763 1.288 0
M  V30 1101 H 116.371 -4.39089 -0.0987936 0
M  V30 1102 H 116.977 -3.97206 1.52011 0
M  V30 1103 N 115.292 -0.849877 -1.32721 0
M  V30 1104 C 116.517 -0.463856 -2.02146 0
M  V30 1105 C 116.942 0.930449 -1.63476 0
M  V30 1106 O 116.3 1.61033 -0.832952 0
M  V30 1107 C 116.348 -0.604955 -3.55489 0
M  V30 1108 O 115.452 0.36425 -4.10788 0
M  V30 1109 H 114.793 -0.187046 -0.637111 0
M  V30 1110 H 117.323 -1.14775 -1.69375 0
M  V30 1111 H 117.333 -0.490696 -4.05038 0
M  V30 1112 H 116.008 -1.62174 -3.82978 0
M  V30 1113 H 114.585 0.206628 -3.72327 0
M  V30 1114 N 116.77 1.45427 -0.607355 0
M  V30 1115 C 117.702 2.2871 0.149752 0
M  V30 1116 C 118.715 1.39937 0.831958 0
M  V30 1117 O 119.904 1.64313 0.697385 0
M  V30 1118 C 117.004 3.15673 1.23304 0
M  V30 1119 C 116.177 4.32722 0.637996 0
M  V30 1120 C 115.236 5.00895 1.61215 0
M  V30 1121 O 114.262 5.57697 1.13854 0
M  V30 1122 N 115.464 5.00159 2.94655 0
M  V30 1123 H 118.229 2.94328 -0.564882 0
M  V30 1124 H 115.79 1.55612 -0.446823 0
M  V30 1125 H 117.782 3.58144 1.88454 0
M  V30 1126 H 116.352 2.51965 1.8502 0
M  V30 1127 H 115.572 3.93734 -0.191572 0
M  V30 1128 H 116.86 5.08321 0.220665 0
M  V30 1129 H 116.258 4.553 3.35735 0
M  V30 1130 H 114.815 5.46495 3.55228 0
M  V30 1131 N 118.248 0.346503 1.53744 0
M  V30 1132 C 119.158 -0.517293 2.28826 0
M  V30 1133 C 120.174 -1.10935 1.3405 0
M  V30 1134 O 121.35 -1.1244 1.6709 0
M  V30 1135 C 118.415 -1.65098 3.04866 0
M  V30 1136 C 117.476 -1.0884 4.15274 0
M  V30 1137 C 116.709 -2.16806 4.87679 0
M  V30 1138 O 116.932 -3.3758 4.59778 0
M  V30 1139 O 115.866 -1.80934 5.74061 0
M  V30 1140 H 119.692 0.0931396 3.03557 0
M  V30 1141 H 117.277 0.111458 1.48984 0
M  V30 1142 H 119.159 -2.31053 3.5241 0
M  V30 1143 H 117.834 -2.24717 2.32989 0
M  V30 1144 H 116.741 -0.3933 3.72027 0
M  V30 1145 H 118.074 -0.537036 4.89261 0
M  V30 1146 N 119.726 -1.57421 0.075193 0
M  V30 1147 C 121.137 -1.81021 -0.456964 0
M  V30 1148 C 121.488 -0.98936 -1.69429 0
M  V30 1149 O 120.613 -0.212865 -2.15351 0
M  V30 1150 C 121.208 -3.28329 -0.83581 0
M  V30 1151 C 119.767 -3.52764 -1.31281 0
M  V30 1152 C 118.914 -2.75676 -0.299648 0
M  V30 1153 H 121.865 -1.55822 0.300856 0
M  V30 1154 H 121.886 -3.40564 -1.69696 0
M  V30 1155 H 121.398 -3.88046 0.0649238 0
M  V30 1156 H 119.499 -2.98355 -2.23193 0
M  V30 1157 H 119.612 -4.61451 -1.28839 0
M  V30 1158 H 117.976 -2.42538 -0.777641 0
M  V30 1159 H 118.759 -3.38132 0.593417 0
M  V30 1160 N 121.204 0.198386 -1.56346 0
M  V30 1161 C 122.434 0.934215 -1.84271 0
M  V30 1162 C 122.842 1.77496 -0.655125 0
M  V30 1163 O 122.185 1.7961 0.385488 0
M  V30 1164 C 122.247 1.88278 -3.06254 0
M  V30 1165 C 121.911 1.22431 -4.40295 0
M  V30 1166 C 122.908 0.602839 -5.16393 0
M  V30 1167 C 120.593 1.22915 -4.87029 0
M  V30 1168 C 122.587 -0.0050083 -6.374 0
M  V30 1169 C 120.274 0.617465 -6.07973 0
M  V30 1170 C 121.272 0.00146341 -6.83 0
M  V30 1171 O 120.96 -0.600642 -8.01653 0
M  V30 1172 H 120.692 0.278245 -0.616081 0
M  V30 1173 H 123.246 0.211626 -2.04307 0
M  V30 1174 H 121.476 2.64498 -2.82095 0
M  V30 1175 H 123.165 2.48612 -3.20853 0
M  V30 1176 H 123.931 0.591265 -4.81382 0
M  V30 1177 H 119.81 1.69801 -4.28589 0
M  V30 1178 H 123.354 -0.48643 -6.95902 0
M  V30 1179 H 119.251 0.62653 -6.42452 0
M  V30 1180 H 120.019 -0.497225 -8.16988 0
M  V30 1181 N 122.682 1.50554 0.465978 0
M  V30 1182 C 123.632 1.66177 1.56106 0
M  V30 1183 C 124.616 0.516265 1.52393 0
M  V30 1184 O 125.808 0.770906 1.5933 0
M  V30 1185 C 122.937 1.76396 2.94515 0
M  V30 1186 C 122.023 2.9664 3.03093 0
M  V30 1187 N 122.414 4.20245 2.81474 0
M  V30 1188 C 120.712 2.95304 3.34233 0
M  V30 1189 C 121.413 5.01259 2.95151 0
M  V30 1190 N 120.389 4.35318 3.25576 0
M  V30 1191 H 124.191 2.59434 1.38099 0
M  V30 1192 H 121.705 1.47808 0.6728 0
M  V30 1193 H 123.702 1.85694 3.73261 0
M  V30 1194 H 122.362 0.843017 3.13565 0
M  V30 1195 H 123.373 4.4966 2.56956 0
M  V30 1196 H 120.05 2.12729 3.59239 0
M  V30 1197 H 121.44 6.09564 2.82632 0
M  V30 1198 N 124.16 -0.719506 1.40217 0
M  V30 1199 C 125.437 -1.47221 1.28784 0
M  V30 1200 C 125.817 -2.10883 -0.0956067 0
M  V30 1201 O 125.165 -1.99833 -1.10811 0
M  V30 1202 C 125.375 -2.5111 2.42373 0
M  V30 1203 C 126.723 -3.17053 2.82423 0
M  V30 1204 O 127.747 -2.61429 2.41937 0
M  V30 1205 O 126.606 -4.17742 3.52355 0
M  V30 1206 H 123.7 -0.654491 0.50554 0
M  V30 1207 H 126.246 -0.752014 1.52128 0
M  V30 1208 H 125.018 -2.02556 3.34793 0
M  V30 1209 H 124.641 -3.3067 2.20778 0
M  V30 1210 N 125.638 -1.25649 -0.95132 0
M  V30 1211 C 126.585 -1.06323 -2.04851 0
M  V30 1212 C 127.555 0.0286491 -1.66075 0
M  V30 1213 O 128.74 -0.12917 -1.90362 0
M  V30 1214 C 125.88 -0.691529 -3.381 0
M  V30 1215 C 124.993 -1.85861 -3.89974 0
M  V30 1216 C 124.128 -1.43096 -5.11563 0
M  V30 1217 C 123.167 -2.56696 -5.55674 0
M  V30 1218 N 122.304 -2.14684 -6.68472 0
M  V30 1219 H 127.144 -2.00222 -2.20715 0
M  V30 1220 H 124.681 -0.997027 -1.08156 0
M  V30 1221 H 126.639 -0.456963 -4.1469 0
M  V30 1222 H 125.269 0.210474 -3.22113 0
M  V30 1223 H 124.321 -2.20639 -3.09875 0
M  V30 1224 H 125.633 -2.71161 -4.18657 0
M  V30 1225 H 124.787 -1.15624 -5.9558 0
M  V30 1226 H 123.526 -0.548722 -4.84603 0
M  V30 1227 H 122.531 -2.84909 -4.7022 0
M  V30 1228 H 123.756 -3.45503 -5.8464 0
M  V30 1229 H 121.702 -1.28881 -6.43215 0
M  V30 1230 H 121.619 -2.9353 -6.96689 0
M  V30 1231 H 122.887 -1.90397 -7.5589 0
M  V30 1232 N 127.117 1.15442 -1.07289 0
M  V30 1233 C 128.08 2.18358 -0.696591 0
M  V30 1234 C 129.08 1.58637 0.262837 0
M  V30 1235 O 130.27 1.74145 0.0438809 0
M  V30 1236 C 127.402 3.4089 -0.0266151 0
M  V30 1237 H 128.595 2.53162 -1.60776 0
M  V30 1238 H 126.148 1.29893 -0.869342 0
M  V30 1239 H 126.883 3.11653 0.896822 0
M  V30 1240 H 126.668 3.85495 -0.716657 0
M  V30 1241 H 128.158 4.17009 0.222028 0
M  V30 1242 N 128.595 0.856903 1.32268 0
M  V30 1243 C 130.011 0.547061 1.49931 0
M  V30 1244 C 130.211 -0.921781 1.7918 0
M  V30 1245 O 129.267 -1.70469 1.8627 0
M  V30 1246 C 130.58 1.43599 2.64196 0
M  V30 1247 C 132.128 1.43665 2.78081 0
M  V30 1248 C 132.603 2.31085 3.95428 0
M  V30 1249 N 134.094 2.28893 4.02694 0
M  V30 1250 C 134.829 2.93262 4.92732 0
M  V30 1251 N 134.325 3.66751 5.87763 0
M  V30 1252 N 136.118 2.82638 4.85873 0
M  V30 1253 H 128.269 1.8075 1.11549 0
M  V30 1254 H 130.532 0.772144 0.549997 0
M  V30 1255 H 130.238 2.48058 2.49319 0
M  V30 1256 H 130.112 1.12502 3.60032 0
M  V30 1257 H 132.499 0.399701 2.92381 0
M  V30 1258 H 132.58 1.7878 1.82952 0
M  V30 1259 H 132.224 3.34849 3.81888 0
M  V30 1260 H 132.154 1.93302 4.89839 0
M  V30 1261 H 134.645 1.75466 3.34694 0
M  V30 1262 H 134.958 4.13027 6.53168 0
M  V30 1263 H 133.303 3.70859 5.87783 0
M  V30 1264 H 136.494 2.24774 4.10602 0
M  V30 1265 H 136.667 3.33084 5.55841 0
M  V30 1266 N 130.073 -1.45103 0.615059 0
M  V30 1267 C 130.983 -2.34382 -0.101034 0
M  V30 1268 C 131.999 -1.51681 -0.852585 0
M  V30 1269 O 133.175 -1.8446 -0.808484 0
M  V30 1270 C 130.24 -3.29417 -1.08099 0
M  V30 1271 C 129.301 -4.28025 -0.330577 0
M  V30 1272 C 128.534 -5.1852 -1.26385 0
M  V30 1273 O 128.757 -5.12598 -2.50198 0
M  V30 1274 O 127.691 -5.97122 -0.756866 0
M  V30 1275 H 131.517 -2.97033 0.632855 0
M  V30 1276 H 129.102 -1.4461 0.375293 0
M  V30 1277 H 130.984 -3.87958 -1.6452 0
M  V30 1278 H 129.659 -2.69321 -1.79577 0
M  V30 1279 H 128.566 -3.73078 0.276283 0
M  V30 1280 H 129.899 -4.90997 0.343866 0
M  V30 1281 N 131.551 -0.354651 -1.53558 0
M  V30 1282 C 132.501 0.513179 -2.2215 0
M  V30 1283 C 133.485 1.05734 -1.21281 0
M  V30 1284 O 134.677 0.989202 -1.46778 0
M  V30 1285 C 131.806 1.65798 -3.00609 0
M  V30 1286 C 130.892 1.12722 -4.08845 0
M  V30 1287 N 131.283 0.318563 -5.04796 0
M  V30 1288 C 129.581 1.40307 -4.23356 0
M  V30 1289 C 130.282 0.0292224 -5.81693 0
M  V30 1290 N 129.258 0.623891 -5.40008 0
M  V30 1291 H 133.06 -0.111586 -2.93688 0
M  V30 1292 H 130.574 -0.162091 -1.61589 0
M  V30 1293 H 132.571 2.29176 -3.48258 0
M  V30 1294 H 131.231 2.28591 -2.306 0
M  V30 1295 H 132.242 -0.0413091 -5.17884 0
M  V30 1296 H 128.919 2.03458 -3.6457 0
M  V30 1297 H 130.309 -0.623808 -6.68998 0
M  V30 1298 N 133.029 1.57378 -0.0835403 0
M  V30 1299 C 134.44 1.81261 0.447358 0
M  V30 1300 C 134.791 0.998331 1.68902 0
M  V30 1301 O 133.916 0.224282 2.15235 0
M  V30 1302 C 134.511 3.28767 0.818386 0
M  V30 1303 C 133.07 3.53455 1.29409 0
M  V30 1304 C 132.217 2.75831 0.285024 0
M  V30 1305 H 135.168 1.5566 -0.309115 0
M  V30 1306 H 135.189 3.41459 1.67887 0
M  V30 1307 H 134.701 3.88006 -0.0855019 0
M  V30 1308 H 132.802 2.99534 2.21608 0
M  V30 1309 H 132.915 4.62128 1.2639 0
M  V30 1310 H 131.279 2.42947 0.764767 0
M  V30 1311 H 132.062 3.37813 -0.611341 0
M  V30 1312 N 134.507 -0.190092 1.56449 0
M  V30 1313 C 135.784 -0.935886 1.71757 0
M  V30 1314 C 136.164 -2.01173 0.639726 0
M  V30 1315 O 135.512 -2.25827 -0.348502 0
M  V30 1316 C 135.722 -1.51775 3.1427 0
M  V30 1317 C 137.07 -1.99794 3.74656 0
M  V30 1318 O 138.094 -1.61607 3.1743 0
M  V30 1319 O 136.953 -2.70079 4.751 0
M  V30 1320 H 134.047 -0.439229 0.700719 0
M  V30 1321 H 136.593 -0.179395 1.68749 0
M  V30 1322 H 135.365 -0.742505 3.84191 0
M  V30 1323 H 134.988 -2.33894 3.21527 0
M  V30 1324 N 135.985 -1.50799 -0.457987 0
M  V30 1325 C 137.262 -1.52968 -1.21902 0
M  V30 1326 C 137.642 -0.281906 -2.09209 0
M  V30 1327 O 136.99 0.734076 -2.16388 0
M  V30 1328 C 137.2 -2.8326 -2.03875 0
M  V30 1329 C 138.548 -3.34425 -2.6162 0
M  V30 1330 O 139.572 -2.8467 -2.14106 0
M  V30 1331 O 138.431 -4.21188 -3.48228 0
M  V30 1332 H 135.525 -0.614129 -0.553873 0
M  V30 1333 H 138.071 -1.63098 -0.468739 0
M  V30 1334 H 136.843 -3.65543 -1.39621 0
M  V30 1335 H 136.466 -2.76195 -2.8601 0
M  V30 1336 N 137.463 0.71206 -1.40597 0
M  V30 1337 C 138.711 1.46907 -1.38791 0
M  V30 1338 C 139.032 1.94998 0.00780391 0
M  V30 1339 O 138.302 1.70587 0.963174 0
M  V30 1340 H 136.882 0.545043 -0.51082 0
M  V30 1341 H 139.544 0.843882 -1.75683 0
M  V30 1342 H 138.64 2.34021 -2.06496 0
M  V30 1343 N 138.941 1.26152 0.944643 0
M  V30 1344 C 139.888 1.07408 2.04285 0
M  V30 1345 C 140.858 -0.0198413 1.66088 0
M  V30 1346 O 142.043 0.139264 1.90291 0
M  V30 1347 C 139.183 0.70945 3.37729 0
M  V30 1348 C 138.296 1.87926 3.88983 0
M  V30 1349 C 137.431 1.45807 5.10797 0
M  V30 1350 C 136.47 2.5964 5.54305 0
M  V30 1351 N 135.607 2.18226 6.67324 0
M  V30 1352 H 140.447 2.01389 2.1965 0
M  V30 1353 H 137.984 1.00275 1.07626 0
M  V30 1354 H 139.942 0.478948 4.14442 0
M  V30 1355 H 138.572 -0.193389 3.2222 0
M  V30 1356 H 137.624 2.22279 3.08701 0
M  V30 1357 H 138.936 2.73377 4.17213 0
M  V30 1358 H 138.09 1.18781 5.94959 0
M  V30 1359 H 136.829 0.574414 4.84305 0
M  V30 1360 H 135.834 2.87399 4.68702 0
M  V30 1361 H 137.059 3.48599 5.828 0
M  V30 1362 H 135.005 1.3229 6.42523 0
M  V30 1363 H 134.922 2.97221 6.95123 0
M  V30 1364 H 136.19 1.94403 7.54869 0
M  V30 1365 N 140.419 -1.14872 1.07899 0
M  V30 1366 C 141.369 -2.17809 0.674027 0
M  V30 1367 C 142.353 -1.58008 -0.303699 0
M  V30 1368 O 143.545 -1.76616 -0.11654 0
M  V30 1369 C 140.674 -3.43208 0.0793318 0
M  V30 1370 C 139.76 -4.10051 1.08253 0
M  V30 1371 N 140.151 -4.52296 2.2641 0
M  V30 1372 C 138.449 -4.36469 0.917124 0
M  V30 1373 C 139.15 -5.04199 2.901 0
M  V30 1374 N 138.126 -4.98088 2.17736 0
M  V30 1375 H 141.928 -2.48207 1.57386 0
M  V30 1376 H 139.442 -1.315 0.952976 0
M  V30 1377 H 141.439 -4.16272 -0.228719 0
M  V30 1378 H 140.099 -3.14291 -0.815551 0
M  V30 1379 H 141.11 -4.45504 2.64096 0
M  V30 1380 H 137.787 -4.17432 0.0756078 0
M  V30 1381 H 139.177 -5.46802 3.90458 0
M  V30 1382 N 141.898 -0.863906 -1.31812 0
M  V30 1383 C 143.309 -0.52522 -1.7916 0
M  V30 1384 C 143.66 0.957518 -1.71248 0
M  V30 1385 O 142.785 1.74734 -1.27659 0
M  V30 1386 C 143.38 -0.9466 -3.25307 0
M  V30 1387 C 141.939 -0.659668 -3.70574 0
M  V30 1388 C 141.086 -1.14126 -2.52726 0
M  V30 1389 H 144.037 -1.05022 -1.1898 0
M  V30 1390 H 144.058 -0.266766 -3.79564 0
M  V30 1391 H 143.57 -2.02579 -3.31034 0
M  V30 1392 H 141.671 0.408416 -3.70355 0
M  V30 1393 H 141.784 -1.23245 -4.62977 0
M  V30 1394 H 140.148 -0.561216 -2.4844 0
M  V30 1395 H 140.931 -2.22775 -2.61201 0
M  V30 1396 N 143.376 1.44774 -0.622745 0
M  V30 1397 C 144.653 1.95522 -0.0551974 0
M  V30 1398 C 145.033 1.5649 1.41683 0
M  V30 1399 O 144.381 0.834848 2.12703 0
M  V30 1400 C 144.591 3.4796 -0.269242 0
M  V30 1401 C 145.939 4.24306 -0.158014 0
M  V30 1402 O 146.963 3.55637 -0.200162 0
M  V30 1403 O 145.822 5.46471 -0.0558693 0
M  V30 1404 H 142.916 0.826556 0.0271015 0
M  V30 1405 H 145.462 1.54866 -0.693864 0
M  V30 1406 H 144.234 3.6939 -1.29099 0
M  V30 1407 H 143.857 3.95543 0.403966 0
M  V30 1408 N 144.854 0.36279 1.53368 0
M  V30 1409 C 146.102 -0.227326 2.00817 0
M  V30 1410 C 146.423 -1.49511 1.25186 0
M  V30 1411 O 145.693 -1.92482 0.364348 0
M  V30 1412 H 144.273 -0.0869923 0.741917 0
M  V30 1413 H 146.935 0.488381 1.88682 0
M  V30 1414 H 146.031 -0.456273 3.08747 0
M  V30 1415 N 146.332 -1.57332 0.0918853 0
M  V30 1416 C 147.58 -1.93853 -0.571446 0
M  V30 1417 C 147.901 -0.974212 -1.6892 0
M  V30 1418 O 147.171 -0.0257254 -1.95883 0
M  V30 1419 H 145.751 -0.715666 -0.214082 0
M  V30 1420 H 148.413 -1.94287 0.154464 0
M  V30 1421 H 147.509 -2.96191 -0.983729 0
M  V30 1422 N 147.81 0.181792 -1.56548 0
M  V30 1423 C 148.74 1.22765 -1.98623 0
M  V30 1424 C 149.721 1.46747 -0.860189 0
M  V30 1425 O 150.906 1.58259 -1.12551 0
M  V30 1426 C 148.036 2.56894 -2.33715 0
M  V30 1427 C 146.99 2.475 -3.49182 0
M  V30 1428 C 146.316 3.86023 -3.69986 0
M  V30 1429 C 147.616 1.98866 -4.82959 0
M  V30 1430 H 149.31 0.877942 -2.86239 0
M  V30 1431 H 146.856 0.42088 -1.37712 0
M  V30 1432 H 148.809 3.30253 -2.61746 0
M  V30 1433 H 147.533 2.93632 -1.42997 0
M  V30 1434 H 146.192 1.76596 -3.21262 0
M  V30 1435 H 145.84 4.20136 -2.76576 0
M  V30 1436 H 145.54 3.80609 -4.47672 0
M  V30 1437 H 147.064 4.60984 -4.00407 0
M  V30 1438 H 148.478 2.61992 -5.09934 0
M  V30 1439 H 146.875 2.04424 -5.64208 0
M  V30 1440 H 147.945 0.942465 -4.75653 0
M  V30 1441 N 149.288 1.51039 0.449983 0
M  V30 1442 C 150.518 1.66627 1.22143 0
M  V30 1443 C 150.926 0.357776 1.85786 0
M  V30 1444 O 150.269 -0.672424 1.70951 0
M  V30 1445 C 150.331 2.71562 2.35573 0
M  V30 1446 C 149.995 4.14526 1.92399 0
M  V30 1447 C 150.992 4.99717 1.43453 0
M  V30 1448 C 148.677 4.60559 2.00475 0
M  V30 1449 C 150.671 6.28998 1.03155 0
M  V30 1450 C 148.358 5.8984 1.59788 0
M  V30 1451 C 149.356 6.73886 1.11208 0
M  V30 1452 O 149.044 8.0075 0.710935 0
M  V30 1453 H 148.776 0.562635 0.374724 0
M  V30 1454 H 151.33 1.98146 0.541036 0
M  V30 1455 H 149.56 2.3533 3.06849 0
M  V30 1456 H 151.249 2.76156 2.97478 0
M  V30 1457 H 152.015 4.65361 1.36618 0
M  V30 1458 H 147.894 3.95273 2.37235 0
M  V30 1459 H 151.438 6.9455 0.651663 0
M  V30 1460 H 147.335 6.23713 1.66289 0
M  V30 1461 H 148.103 8.142 0.837913 0
M  V30 1462 N 150.766 -0.704594 1.40972 0
M  V30 1463 C 151.714 -1.83994 1.42299 0
M  V30 1464 C 152.708 -1.66684 0.302111 0
M  V30 1465 O 153.914 -1.73655 0.473697 0
M  V30 1466 H 150.289 -0.606171 0.44504 0
M  V30 1467 H 152.26 -1.79992 2.38003 0
M  V30 1468 C 151.009 -3.21946 1.31323 0
M  V30 1469 H 150.332 -3.35878 2.16855 0
M  V30 1470 H 151.772 -4.01491 1.36311 0
M  V30 1471 C 150.231 -3.36891 0.0245977 0
M  V30 1472 O 150.761 -3.90687 -0.934153 0
M  V30 1473 N 148.967 -2.90559 -0.0485243 0
M  V30 1474 H 148.514 -2.46968 0.732419 0
M  V30 1475 H 148.472 -3.00937 -0.910171 0
M  V30 1476 N 152.244 -1.26651 -0.937939 0
M  V30 1477 C 153.191 -1.0849 -2.03712 0
M  V30 1478 C 154.161 0.011033 -1.66096 0
M  V30 1479 O 155.346 -0.149353 -1.90215 0
M  V30 1480 C 152.486 -0.72735 -3.37348 0
M  V30 1481 C 151.599 -1.89986 -3.87981 0
M  V30 1482 C 150.734 -1.48513 -5.10017 0
M  V30 1483 C 149.773 -2.62575 -5.5292 0
M  V30 1484 N 148.91 -2.21762 -6.66158 0
M  V30 1485 H 153.75 -2.02551 -2.18579 0
M  V30 1486 H 151.287 -1.00844 -1.07093 0
M  V30 1487 H 153.245 -0.50092 -4.14182 0
M  V30 1488 H 151.875 0.176298 -3.22318 0
M  V30 1489 H 150.927 -2.23913 -3.07518 0
M  V30 1490 H 152.239 -2.75586 -4.15757 0
M  V30 1491 H 151.393 -1.21934 -5.94321 0
M  V30 1492 H 150.132 -0.60009 -4.83994 0
M  V30 1493 H 149.137 -2.8988 -4.67172 0
M  V30 1494 H 150.362 -3.51685 -5.80943 0
M  V30 1495 H 148.308 -1.35696 -6.41812 0
M  V30 1496 H 148.225 -3.00903 -6.93537 0
M  V30 1497 H 149.493 -1.98403 -7.53828 0
M  V30 1498 N 153.722 1.14298 -1.08507 0
M  V30 1499 C 154.97 1.84993 -0.813763 0
M  V30 1500 C 155.291 1.83405 0.662393 0
M  V30 1501 O 154.561 1.28319 1.48024 0
M  V30 1502 H 153.141 0.684966 -0.298045 0
M  V30 1503 H 155.803 1.385 -1.37126 0
M  V30 1504 H 154.899 2.89788 -1.15884 0
M  V30 1505 N 155.201 0.870884 1.31352 0
M  V30 1506 C 156.612 0.534714 1.78879 0
M  V30 1507 C 156.963 -0.948423 1.71754 0
M  V30 1508 O 156.088 -1.74055 1.28584 0
M  V30 1509 C 156.683 0.963839 3.24801 0
M  V30 1510 C 155.242 0.679311 3.70219 0
M  V30 1511 C 154.389 1.15465 2.52117 0
M  V30 1512 H 157.34 1.05651 1.18421 0
M  V30 1513 H 157.361 0.286892 3.79417 0
M  V30 1514 H 156.873 2.04332 3.29955 0
M  V30 1515 H 154.974 -0.388769 3.70566 0
M  V30 1516 H 155.087 1.25698 4.62317 0
M  V30 1517 H 153.451 0.574383 2.48139 0
M  V30 1518 H 154.234 2.24157 2.60016 0
M  V30 1519 N 156.679 -1.44442 0.630414 0
M  V30 1520 C 157.904 -2.06927 0.139944 0
M  V30 1521 C 158.329 -1.46795 -1.17613 0
M  V30 1522 O 157.687 -0.569144 -1.72135 0
M  V30 1523 C 157.735 -3.6058 0.0379581 0
M  V30 1524 O 156.839 -3.99937 -1.0062 0
M  V30 1525 H 156.18 -0.658608 0.0844483 0
M  V30 1526 H 158.71 -1.85327 0.866891 0
M  V30 1527 H 158.72 -4.07714 -0.152856 0
M  V30 1528 H 157.395 -4.03728 0.998809 0
M  V30 1529 H 155.972 -3.64436 -0.79001 0
M  V30 1530 N 158.157 -0.370918 -1.53173 0
M  V30 1531 C 159.387 0.217389 -2.05453 0
M  V30 1532 C 159.795 1.42568 -1.24382 0
M  V30 1533 O 159.138 1.81571 -0.278839 0
M  V30 1534 C 159.2 0.669827 -3.53205 0
M  V30 1535 C 158.864 -0.4225 -4.55043 0
M  V30 1536 C 159.861 -1.27407 -5.04047 0
M  V30 1537 C 157.546 -0.58427 -4.9889 0
M  V30 1538 C 159.54 -2.27271 -5.95505 0
M  V30 1539 C 157.227 -1.58627 -5.90153 0
M  V30 1540 C 158.225 -2.42892 -6.38351 0
M  V30 1541 O 157.913 -3.41382 -7.27814 0
M  V30 1542 H 157.645 0.0408171 -0.674767 0
M  V30 1543 H 160.199 -0.5292 -1.98466 0
M  V30 1544 H 158.429 1.4681 -3.57748 0
M  V30 1545 H 160.118 1.18173 -3.88317 0
M  V30 1546 H 160.884 -1.16031 -4.70916 0
M  V30 1547 H 156.763 0.061851 -4.60959 0
M  V30 1548 H 160.307 -2.93079 -6.33049 0
M  V30 1549 H 156.204 -1.70048 -6.22699 0
M  V30 1550 H 156.972 -3.37173 -7.45826 0
M  V30 1551 N 159.635 1.57281 -0.100228 0
M  V30 1552 C 160.86 1.99302 0.573881 0
M  V30 1553 C 161.285 0.979059 1.60611 0
M  V30 1554 O 160.643 -0.0517803 1.81226 0
M  V30 1555 C 160.691 3.40274 1.19358 0
M  V30 1556 O 159.795 3.41676 2.30935 0
M  V30 1557 H 159.136 0.647944 0.145138 0
M  V30 1558 H 161.666 2.03779 -0.183156 0
M  V30 1559 H 161.676 3.78078 1.53365 0
M  V30 1560 H 160.351 4.13594 0.437385 0
M  V30 1561 H 158.928 3.15672 1.98509 0
M  V30 1562 N 161.113 -0.173488 1.56642 0
M  V30 1563 C 162.338 -0.910149 1.86363 0
M  V30 1564 C 162.763 -1.75132 0.686318 0
M  V30 1565 O 162.121 -1.77595 -0.364643 0
M  V30 1566 C 162.169 -1.76447 3.14482 0
M  V30 1567 O 161.273 -2.86584 2.96553 0
M  V30 1568 H 160.614 -0.255086 0.613047 0
M  V30 1569 H 163.144 -0.172283 2.03873 0
M  V30 1570 H 163.154 -2.16483 3.45831 0
M  V30 1571 H 161.829 -1.14658 3.99783 0
M  V30 1572 H 160.406 -2.50146 2.76553 0
M  V30 1573 N 162.591 -1.51276 -0.441967 0
M  V30 1574 C 163.821 -1.67273 -1.21257 0
M  V30 1575 C 164.229 -0.367624 -1.85594 0
M  V30 1576 O 163.572 0.663349 -1.71305 0
M  V30 1577 C 163.634 -2.72807 -2.34129 0
M  V30 1578 C 163.298 -4.1554 -1.90198 0
M  V30 1579 C 164.295 -5.00471 -1.40801 0
M  V30 1580 C 161.98 -4.61616 -1.9803 0
M  V30 1581 C 163.974 -6.29536 -0.998174 0
M  V30 1582 C 161.661 -5.90679 -1.56658 0
M  V30 1583 C 162.659 -6.74466 -1.07633 0
M  V30 1584 O 162.347 -8.01116 -0.668459 0
M  V30 1585 H 162.079 -0.564614 -0.371734 0
M  V30 1586 H 164.633 -1.9843 -0.530521 0
M  V30 1587 H 162.863 -2.36954 -3.05597 0
M  V30 1588 H 164.552 -2.77729 -2.96009 0
M  V30 1589 H 165.318 -4.66079 -1.34148 0
M  V30 1590 H 161.197 -3.96526 -2.35135 0
M  V30 1591 H 164.741 -6.94885 -0.61482 0
M  V30 1592 H 160.638 -6.24586 -1.62979 0
M  V30 1593 H 161.406 -8.14633 -0.794722 0
M  V30 1594 N 164.069 0.697108 -1.41344 0
M  V30 1595 C 165.294 1.49096 -1.44171 0
M  V30 1596 C 165.719 1.88038 -0.0481568 0
M  V30 1597 O 165.077 1.54525 0.948243 0
M  V30 1598 C 165.125 2.73088 -2.3549 0
M  V30 1599 O 164.229 3.70514 -1.81088 0
M  V30 1600 H 163.57 0.448801 -0.489361 0
M  V30 1601 H 166.1 0.856992 -1.85787 0
M  V30 1602 H 166.11 3.21413 -2.51312 0
M  V30 1603 H 164.785 2.44081 -3.36745 0
M  V30 1604 H 163.362 3.29441 -1.74708 0
M  V30 1605 N 165.547 1.27147 0.931209 0
M  V30 1606 C 166.795 1.13055 1.6752 0
M  V30 1607 C 167.116 -0.324791 1.92276 0
M  V30 1608 O 166.386 -1.22775 1.52654 0
M  V30 1609 H 164.966 0.415391 0.620854 0
M  V30 1610 H 167.628 1.59623 1.11833 0
M  V30 1611 H 166.724 1.65694 2.64485 0
M  V30 1612 N 167.025 -1.13721 1.09112 0
M  V30 1613 C 168.255 -1.88499 0.845671 0
M  V30 1614 C 168.663 -1.79218 -0.606432 0
M  V30 1615 O 168.006 -1.1544 -1.42896 0
M  V30 1616 C 168.068 -3.38954 1.19793 0
M  V30 1617 C 167.732 -3.72018 2.65428 0
M  V30 1618 C 168.729 -3.7153 3.63677 0
M  V30 1619 C 166.414 -4.01775 3.01467 0
M  V30 1620 C 168.408 -4.00336 4.95994 0
M  V30 1621 C 166.095 -4.30243 4.33975 0
M  V30 1622 C 167.093 -4.29508 5.31048 0
M  V30 1623 O 166.781 -4.5728 6.61173 0
M  V30 1624 H 166.513 -0.603702 0.304171 0
M  V30 1625 H 169.067 -1.44903 1.45576 0
M  V30 1626 H 167.297 -3.83039 0.530871 0
M  V30 1627 H 168.986 -3.95052 0.932146 0
M  V30 1628 H 169.752 -3.4862 3.37179 0
M  V30 1629 H 165.631 -4.01496 2.26544 0
M  V30 1630 H 169.175 -3.99678 5.71755 0
M  V30 1631 H 165.072 -4.52625 4.60219 0
M  V30 1632 H 165.84 -4.74964 6.66597 0
M  V30 1633 N 168.503 -0.877838 -1.30888 0
M  V30 1634 C 169.752 -0.488793 -1.95688 0
M  V30 1635 C 170.065 0.965485 -1.70111 0
M  V30 1636 O 171.271 1.46104 -2.28836 0
M  V30 1637 C 169.727 -0.823201 -3.50359 0
M  V30 1638 C 169.335 -2.29477 -3.84765 0
M  V30 1639 C 171.079 -0.503009 -4.21509 0
M  V30 1640 C 168.986 -2.57118 -5.32583 0
M  V30 1641 H 167.916 -0.179062 -0.732429 0
M  V30 1642 H 170.567 -1.07183 -1.48943 0
M  V30 1643 H 168.949 -0.169331 -3.95638 0
M  V30 1644 H 170.123 -2.99236 -3.5042 0
M  V30 1645 H 168.438 -2.58178 -3.267 0
M  V30 1646 H 171.035 -0.68665 -5.30273 0
M  V30 1647 H 171.378 0.557109 -4.12555 0
M  V30 1648 H 171.911 -1.11376 -3.8189 0
M  V30 1649 H 168.65 -3.61843 -5.4658 0
M  V30 1650 H 168.17 -1.91961 -5.68253 0
M  V30 1651 H 169.849 -2.42251 -5.99936 0
M  V30 1652 N 169.982 1.44106 -0.638065 0
M  V30 1653 C 170.915 2.27924 0.112161 0
M  V30 1654 C 171.893 1.38945 0.844574 0
M  V30 1655 O 173.077 1.68386 0.847248 0
M  V30 1656 C 170.204 3.18029 1.16512 0
M  V30 1657 C 169.25 4.23163 0.532458 0
M  V30 1658 S 170.083 5.31131 -0.682666 0
M  V30 1659 C 171.239 6.24805 0.37013 0
M  V30 1660 H 171.472 2.91205 -0.598887 0
M  V30 1661 H 169.005 1.48394 -0.426441 0
M  V30 1662 H 170.963 3.70492 1.76766 0
M  V30 1663 H 169.624 2.53955 1.8484 0
M  V30 1664 H 168.817 4.86252 1.32571 0
M  V30 1665 H 168.419 3.74 0.00437644 0
M  V30 1666 H 170.711 6.66042 1.24071 0
M  V30 1667 H 171.654 7.07741 -0.225349 0
M  V30 1668 H 172.062 5.60154 0.699141 0
M  V30 1669 N 171.46 0.379036 1.52974 0
M  V30 1670 C 172.393 -0.504932 2.22544 0
M  V30 1671 C 173.371 -1.0723 1.22231 0
M  V30 1672 O 174.555 -1.12589 1.51182 0
M  V30 1673 C 171.682 -1.69794 2.93066 0
M  V30 1674 C 170.728 -1.25678 4.07563 0
M  V30 1675 S 171.561 -0.246852 5.34931 0
M  V30 1676 C 172.717 -1.44588 6.08971 0
M  V30 1677 H 172.95 0.0858666 2.97176 0
M  V30 1678 H 170.483 0.163183 1.53535 0
M  V30 1679 H 172.441 -2.38219 3.34308 0
M  V30 1680 H 171.102 -2.26002 2.18133 0
M  V30 1681 H 170.295 -2.14725 4.5597 0
M  V30 1682 H 169.897 -0.651584 3.6828 0
M  V30 1683 H 172.189 -2.37469 6.34519 0
M  V30 1684 H 173.132 -1.00292 7.00962 0
M  V30 1685 H 173.54 -1.65804 5.39601 0
M  V30 1686 N 172.938 -1.57226 0.108567 0
M  V30 1687 C 174.349 -1.8195 -0.418464 0
M  V30 1688 C 174.7 -1.02508 -1.67292 0
M  V30 1689 O 173.825 -0.258496 -2.14851 0
M  V30 1690 C 174.42 -3.30028 -0.765979 0
M  V30 1691 C 172.979 -3.55469 -1.23769 0
M  V30 1692 C 172.126 -2.7625 -0.241106 0
M  V30 1693 H 175.077 -1.55149 0.33384 0
M  V30 1694 H 175.098 -3.44086 -1.62434 0
M  V30 1695 H 174.61 -3.87821 0.147219 0
M  V30 1696 H 172.711 -3.03022 -2.16814 0
M  V30 1697 H 172.824 -4.6408 -1.19022 0
M  V30 1698 H 171.188 -2.44133 -0.72602 0
M  V30 1699 H 171.971 -3.36797 0.665007 0
M  V30 1700 N 174.416 0.165178 -1.56732 0
M  V30 1701 C 175.364 1.22369 -1.97809 0
M  V30 1702 C 176.358 1.45488 -0.867741 0
M  V30 1703 O 177.564 1.45995 -1.05288 0
M  V30 1704 H 173.939 0.411486 -0.629431 0
M  V30 1705 H 175.91 0.850425 -2.86025 0
M  V30 1706 C 174.659 2.55403 -2.35934 0
M  V30 1707 H 173.982 2.38438 -3.20916 0
M  V30 1708 H 175.422 3.2814 -2.68514 0
M  V30 1709 C 173.881 3.14611 -1.20506 0
M  V30 1710 O 174.411 3.98626 -0.496016 0
M  V30 1711 N 172.617 2.7379 -0.97403 0
M  V30 1712 H 172.164 2.0557 -1.55238 0
M  V30 1713 H 172.122 3.1374 -0.203573 0
M  V30 1714 N 175.894 1.51508 0.433938 0
M  V30 1715 C 176.827 1.67756 1.54704 0
M  V30 1716 C 177.805 0.525127 1.53887 0
M  V30 1717 O 178.989 0.749393 1.72963 0
M  V30 1718 C 176.116 1.69424 2.9328 0
M  V30 1719 C 175.162 2.90673 3.12108 0
M  V30 1720 S 175.995 4.51431 2.88046 0
M  V30 1721 C 177.151 4.55849 4.28897 0
M  V30 1722 H 177.384 2.61904 1.40689 0
M  V30 1723 H 174.917 1.41235 0.62386 0
M  V30 1724 H 176.875 1.7107 3.73156 0
M  V30 1725 H 175.536 0.764464 3.04655 0
M  V30 1726 H 174.729 2.88251 4.13434 0
M  V30 1727 H 174.331 2.86786 2.40062 0
M  V30 1728 H 176.623 4.31699 5.22152 0
M  V30 1729 H 177.566 5.57676 4.36351 0
M  V30 1730 H 177.974 3.85137 4.12711 0
M  V30 1731 N 177.372 -0.689602 1.41712 0
M  V30 1732 C 178.32 -1.82475 1.44242 0
M  V30 1733 C 179.314 -1.66354 0.319774 0
M  V30 1734 O 180.52 -1.73143 0.492089 0
M  V30 1735 H 176.895 -0.601416 0.451445 0
M  V30 1736 H 178.866 -1.77458 2.39899 0
M  V30 1737 C 177.615 -3.20535 1.3473 0
M  V30 1738 H 176.938 -3.33559 2.20405 0
M  V30 1739 H 178.378 -4.00023 1.40562 0
M  V30 1740 C 176.837 -3.36846 0.0603281 0
M  V30 1741 O 177.367 -3.91656 -0.892663 0
M  V30 1742 N 175.573 -2.90595 -0.0177039 0
M  V30 1743 H 175.12 -2.46178 0.758572 0
M  V30 1744 H 175.078 -3.01886 -0.878201 0
M  V30 1745 N 178.85 -1.27639 -0.924453 0
M  V30 1746 C 179.798 -1.10485 -2.04685 0
M  V30 1747 C 180.792 -0.0270421 -1.69378 0
M  V30 1748 O 181.998 -0.185008 -1.79047 0
M  V30 1749 H 178.373 -0.340546 -0.670472 0
M  V30 1750 H 180.344 -2.05566 -2.16298 0
M  V30 1751 C 179.093 -0.772229 -3.39016 0
M  V30 1752 H 178.416 -1.59351 -3.66671 0
M  V30 1753 H 179.856 -0.692097 -4.18313 0
M  V30 1754 C 178.315 0.523554 -3.32807 0
M  V30 1755 O 178.845 1.55702 -3.70297 0
M  V30 1756 N 177.051 0.520363 -2.85903 0
M  V30 1757 H 176.598 -0.32107 -2.55591 0
M  V30 1758 H 176.556 1.38742 -2.82131 0
M  V30 1759 N 180.328 1.1314 -1.09713 0
M  V30 1760 C 181.605 1.80762 -0.747302 0
M  V30 1761 C 181.985 1.96663 0.767265 0
M  V30 1762 O 181.333 1.53706 1.69076 0
M  V30 1763 C 181.543 3.15606 -1.48975 0
M  V30 1764 C 182.891 3.90914 -1.65746 0
M  V30 1765 O 183.915 3.25239 -1.45251 0
M  V30 1766 O 182.774 5.08718 -1.9967 0
M  V30 1767 H 179.868 0.782103 -0.268782 0
M  V30 1768 H 182.414 1.20041 -1.19951 0
M  V30 1769 H 181.186 2.99278 -2.52088 0
M  V30 1770 H 180.809 3.84029 -1.02991 0
M  V30 1771 N 181.806 0.884767 1.30421 0
M  V30 1772 C 183.217 0.553656 1.78302 0
M  V30 1773 C 183.568 -0.930153 1.7275 0
M  V30 1774 O 182.693 -1.72681 1.30423 0
M  V30 1775 C 183.288 0.998234 3.2376 0
M  V30 1776 C 181.847 0.71854 3.69478 0
M  V30 1777 C 180.994 1.18132 2.50879 0
M  V30 1778 H 183.945 1.06901 1.17294 0
M  V30 1779 H 183.966 0.327118 3.79091 0
M  V30 1780 H 183.478 2.0782 3.27769 0
M  V30 1781 H 181.579 -0.349444 3.70958 0
M  V30 1782 H 181.692 1.30595 4.60958 0
M  V30 1783 H 180.056 0.600669 2.47516 0
M  V30 1784 H 180.839 2.26902 2.57624 0
M  V30 1785 N 183.284 -1.43765 0.645699 0
M  V30 1786 C 184.514 -2.05953 0.163318 0
M  V30 1787 C 184.922 -1.48432 -1.17322 0
M  V30 1788 O 184.265 -0.607295 -1.73371 0
M  V30 1789 C 184.327 -3.59499 -0.0103065 0
M  V30 1790 C 183.991 -4.39563 1.25035 0
M  V30 1791 C 184.988 -4.72108 2.17739 0
M  V30 1792 C 182.673 -4.79697 1.48983 0
M  V30 1793 C 184.667 -5.43688 3.3269 0
M  V30 1794 C 182.354 -5.51023 2.64229 0
M  V30 1795 C 183.352 -5.8294 3.55908 0
M  V30 1796 O 183.04 -6.5281 4.69142 0
M  V30 1797 H 182.772 -0.670798 0.0836986 0
M  V30 1798 H 185.326 -1.85384 0.884407 0
M  V30 1799 H 183.556 -3.78613 -0.78669 0
M  V30 1800 H 185.245 -4.03408 -0.449087 0
M  V30 1801 H 186.011 -4.41627 2.00476 0
M  V30 1802 H 181.89 -4.54266 0.785078 0
M  V30 1803 H 185.434 -5.68517 4.04269 0
M  V30 1804 H 181.331 -5.8092 2.81429 0
M  V30 1805 H 182.099 -6.71288 4.6831 0
M  V30 1806 N 184.763 -0.387143 -1.52771 0
M  V30 1807 C 185.696 0.493123 -2.22808 0
M  V30 1808 C 186.674 1.0658 -1.22798 0
M  V30 1809 O 187.858 1.11785 -1.51777 0
M  V30 1810 C 184.985 1.68238 -2.93962 0
M  V30 1811 C 184.031 1.23515 -4.08223 0
M  V30 1812 S 184.864 0.21848 -5.35054 0
M  V30 1813 C 186.02 1.41357 -6.09729 0
M  V30 1814 H 186.253 -0.101625 -2.97126 0
M  V30 1815 H 183.786 -0.171323 -1.53447 0
M  V30 1816 H 185.744 2.36443 -3.35567 0
M  V30 1817 H 184.405 2.24842 -2.19328 0
M  V30 1818 H 183.598 2.12304 -4.57103 0
M  V30 1819 H 183.2 0.632044 -3.68621 0
M  V30 1820 H 185.492 2.34101 -6.3577 0
M  V30 1821 H 186.435 0.965736 -7.01484 0
M  V30 1822 H 186.843 1.6294 -5.40473 0
M  V30 1823 N 186.241 1.57166 -0.116904 0
M  V30 1824 C 187.466 1.999 0.55271 0
M  V30 1825 C 187.891 0.996039 1.59564 0
M  V30 1826 O 187.249 -0.032556 1.81271 0
M  V30 1827 C 187.297 3.4152 1.15742 0
M  V30 1828 O 186.401 3.44106 2.27299 0
M  V30 1829 H 185.742 0.649447 0.138258 0
M  V30 1830 H 188.272 2.03573 -0.204759 0
M  V30 1831 H 188.282 3.79684 1.49346 0
M  V30 1832 H 186.957 4.14034 0.393493 0
M  V30 1833 H 185.534 3.17759 1.9515 0
M  V30 1834 N 187.719 -0.156864 1.56817 0
M  V30 1835 C 188.667 -1.21319 1.98455 0
M  V30 1836 C 189.661 -1.45025 0.875444 0
M  V30 1837 O 190.867 -1.45435 1.0606 0
M  V30 1838 H 187.242 -0.408142 0.631605 0
M  V30 1839 H 189.213 -0.835244 2.86472 0
M  V30 1840 C 187.962 -2.54148 2.37285 0
M  V30 1841 H 187.285 -2.36733 3.22176 0
M  V30 1842 H 188.725 -3.26712 2.70251 0
M  V30 1843 C 187.184 -3.13967 1.22173 0
M  V30 1844 O 187.714 -3.98357 0.517149 0
M  V30 1845 N 185.92 -2.7327 0.988536 0
M  V30 1846 H 185.467 -2.04744 1.56326 0
M  V30 1847 H 185.425 -3.13628 0.220209 0
M  V30 1848 N 189.197 -1.51736 -0.425897 0
M  V30 1849 C 190.445 -1.64644 -1.17204 0
M  V30 1850 C 190.766 -0.370486 -1.91448 0
M  V30 1851 O 190.036 0.614088 -1.86026 0
M  V30 1852 H 188.616 -0.606819 -0.435638 0
M  V30 1853 H 191.278 -1.88713 -0.487177 0
M  V30 1854 H 190.374 -2.47958 -1.89534 0
M  V30 1855 N 190.675 0.682077 -1.42076 0
M  V30 1856 C 191.9 1.47558 -1.45744 0
M  V30 1857 C 192.325 1.87977 -0.0680981 0
M  V30 1858 O 191.683 1.55522 0.9318 0
M  V30 1859 C 191.731 2.70575 -2.38373 0
M  V30 1860 O 190.835 3.68573 -1.85007 0
M  V30 1861 H 190.176 0.443585 -0.494093 0
M  V30 1862 H 192.706 0.837238 -1.86686 0
M  V30 1863 H 192.716 3.18729 -2.54707 0
M  V30 1864 H 191.391 2.40495 -3.39315 0
M  V30 1865 H 189.968 3.2757 -1.78192 0
M  V30 1866 N 192.153 1.28127 0.917671 0
M  V30 1867 C 193.083 1.14248 2.03641 0
M  V30 1868 C 194.064 0.0412748 1.7005 0
M  V30 1869 O 195.249 0.217566 1.92977 0
M  V30 1870 C 192.379 0.799431 3.37974 0
M  V30 1871 C 191.333 1.85497 3.85713 0
M  V30 1872 C 190.659 1.36565 5.16966 0
M  V30 1873 C 191.959 3.26085 4.08002 0
M  V30 1874 H 193.653 2.07835 2.15511 0
M  V30 1875 H 191.199 1.00064 1.03553 0
M  V30 1876 H 193.152 0.689114 4.15727 0
M  V30 1877 H 191.876 -0.172145 3.26146 0
M  V30 1878 H 190.535 1.95437 3.10161 0
M  V30 1879 H 190.183 0.383253 5.01538 0
M  V30 1880 H 189.883 2.07143 5.49878 0
M  V30 1881 H 191.407 1.26848 5.97279 0
M  V30 1882 H 192.821 3.19089 4.76293 0
M  V30 1883 H 191.218 3.94462 4.52238 0
M  V30 1884 H 192.288 3.70394 3.12948 0
M  V30 1885 N 193.631 -1.12557 1.10312 0
M  V30 1886 C 194.856 -1.88405 0.867085 0
M  V30 1887 C 195.281 -1.79038 -0.576817 0
M  V30 1888 O 194.639 -1.14439 -1.40618 0
M  V30 1889 C 194.687 -3.3563 1.31851 0
M  V30 1890 O 193.791 -4.09565 0.482734 0
M  V30 1891 H 193.132 -0.585455 0.313271 0
M  V30 1892 H 195.662 -1.42352 1.4696 0
M  V30 1893 H 195.672 -3.86469 1.3079 0
M  V30 1894 H 194.347 -3.41765 2.37001 0
M  V30 1895 H 192.924 -3.68695 0.558448 0
M  V30 1896 N 195.109 -0.891671 -1.2995 0
M  V30 1897 C 196.52 -0.563104 -1.78006 0
M  V30 1898 C 196.871 0.920978 -1.73241 0
M  V30 1899 O 195.996 1.71987 -1.31337 0
M  V30 1900 C 196.591 -1.01539 -3.23226 0
M  V30 1901 C 195.15 -0.738124 -3.69092 0
M  V30 1902 C 194.297 -1.19461 -2.50249 0
M  V30 1903 H 197.248 -1.07522 -1.16725 0
M  V30 1904 H 197.269 -0.347217 -3.78912 0
M  V30 1905 H 196.781 -2.09555 -3.26662 0
M  V30 1906 H 194.882 0.329766 -3.71138 0
M  V30 1907 H 194.995 -1.33037 -4.60259 0
M  V30 1908 H 193.359 -0.613787 -2.47194 0
M  V30 1909 H 194.142 -2.28265 -2.56417 0
M  V30 1910 N 196.587 1.43421 -0.653314 0
M  V30 1911 C 197.998 1.85065 -0.246537 0
M  V30 1912 C 198.349 1.54688 1.2069 0
M  V30 1913 O 197.474 0.995896 1.92122 0
M  V30 1914 C 198.069 3.35922 -0.440666 0
M  V30 1915 C 196.628 3.76297 -0.0882064 0
M  V30 1916 C 195.775 2.67147 -0.743484 0
M  V30 1917 H 198.726 1.33572 -0.856979 0
M  V30 1918 H 198.747 3.79204 0.313798 0
M  V30 1919 H 198.259 3.58 -1.49858 0
M  V30 1920 H 196.36 3.5983 0.96711 0
M  V30 1921 H 196.473 4.76338 -0.513738 0
M  V30 1922 H 194.837 2.54086 -0.176712 0
M  V30 1923 H 195.62 2.92053 -1.80443 0
M  V30 1924 N 198.065 0.39524 1.52563 0
M  V30 1925 C 199.314 -0.186321 2.00838 0
M  V30 1926 C 199.627 -1.47402 1.28577 0
M  V30 1927 O 200.833 -2.13599 1.67593 0
M  V30 1928 C 199.289 -0.382595 3.57861 0
M  V30 1929 C 198.897 0.892202 4.39026 0
M  V30 1930 C 200.641 -0.9202 4.14406 0
M  V30 1931 C 198.548 0.66388 5.87662 0
M  V30 1932 H 197.478 -0.0734041 0.750418 0
M  V30 1933 H 200.129 0.518552 1.76021 0
M  V30 1934 H 198.511 -1.14946 3.7895 0
M  V30 1935 H 199.685 1.66414 4.29701 0
M  V30 1936 H 198 1.35519 3.9373 0
M  V30 1937 H 200.597 -1.10683 5.23119 0
M  V30 1938 H 200.94 -1.89096 3.70875 0
M  V30 1939 H 201.473 -0.212751 3.97231 0
M  V30 1940 H 198.212 1.6058 6.35527 0
M  V30 1941 H 197.732 -0.0690193 5.9976 0
M  V30 1942 H 199.411 0.300699 6.46301 0
M  V30 1943 N 199.544 -1.57102 0.125237 0
M  V30 1944 C 200.955 -1.82384 -0.399142 0
M  V30 1945 C 201.306 -1.04276 -1.66195 0
M  V30 1946 O 200.431 -0.281269 -2.14564 0
M  V30 1947 C 201.026 -3.30821 -0.730932 0
M  V30 1948 C 199.585 -3.56762 -1.19992 0
M  V30 1949 C 198.732 -2.7649 -0.211792 0
M  V30 1950 H 201.683 -1.54786 0.350277 0
M  V30 1951 H 201.704 -3.4579 -1.58775 0
M  V30 1952 H 201.216 -3.87643 0.188345 0
M  V30 1953 H 199.317 -3.05305 -2.13588 0
M  V30 1954 H 199.43 -4.65317 -1.14093 0
M  V30 1955 H 197.794 -2.4489 -0.700085 0
M  V30 1956 H 198.577 -3.36073 0.700691 0
M  V30 1957 N 201.022 0.148545 -1.56898 0
M  V30 1958 C 202.438 0.501131 -1.51528 0
M  V30 1959 C 202.638 1.83458 -0.833399 0
M  V30 1960 O 201.694 2.49259 -0.40328 0
M  V30 1961 C 203.007 0.512864 -2.96294 0
M  V30 1962 C 204.555 0.598487 -3.07225 0
M  V30 1963 C 205.03 0.640897 -4.53494 0
M  V30 1964 N 206.521 0.703163 -4.57832 0
M  V30 1965 C 207.256 0.756935 -5.68382 0
M  V30 1966 N 206.752 0.770147 -6.88506 0
M  V30 1967 N 208.545 0.797698 -5.56411 0
M  V30 1968 H 200.696 -0.725532 -1.99624 0
M  V30 1969 H 202.959 -0.264358 -0.910395 0
M  V30 1970 H 202.665 -0.398691 -3.49433 0
M  V30 1971 H 202.539 1.35133 -3.52163 0
M  V30 1972 H 204.926 1.50046 -2.54106 0
M  V30 1973 H 205.007 -0.267093 -2.54402 0
M  V30 1974 H 204.651 -0.256915 -5.0725 0
M  V30 1975 H 204.581 1.52295 -5.04097 0
M  V30 1976 H 207.072 0.700314 -3.71354 0
M  V30 1977 H 207.385 0.812983 -7.68512 0
M  V30 1978 H 205.73 0.738049 -6.9107 0
M  V30 1979 H 208.921 0.784535 -4.61479 0
M  V30 1980 H 209.094 0.83614 -6.42583 0
M  V30 1981 N 202.5 1.5196 0.417844 0
M  V30 1982 C 203.728 1.69426 1.18753 0
M  V30 1983 C 204.143 0.399955 1.84515 0
M  V30 1984 O 203.5 -0.623288 1.71527 0
M  V30 1985 C 203.551 2.82375 2.25714 0
M  V30 1986 O 203.272 4.06793 1.62638 0
M  V30 1987 C 204.773 3.11277 3.15628 0
M  V30 1988 H 201.993 0.568031 0.357186 0
M  V30 1989 H 204.537 1.98475 0.49273 0
M  V30 1990 H 202.692 2.5587 2.90877 0
M  V30 1991 H 203.106 4.69667 2.3348 0
M  V30 1992 H 204.58 3.93843 3.86771 0
M  V30 1993 H 205.057 2.24473 3.77503 0
M  V30 1994 H 205.663 3.39515 2.56144 0
M  V30 1995 N 203.978 -0.674533 1.42435 0
M  V30 1996 C 205.203 -1.46784 1.46524 0
M  V30 1997 C 205.628 -1.87938 0.078066 0
M  V30 1998 O 204.986 -1.56014 -0.92354 0
M  V30 1999 C 205.034 -2.69307 2.39805 0
M  V30 2000 O 204.138 -3.67587 1.86959 0
M  V30 2001 H 203.479 -0.440959 0.496439 0
M  V30 2002 H 206.009 -0.827326 1.87127 0
M  V30 2003 H 206.019 -3.17374 2.56393 0
M  V30 2004 H 204.694 -2.38692 3.40586 0
M  V30 2005 H 203.271 -3.2662 1.79927 0
M  V30 2006 N 205.456 -1.28612 -0.910864 0
M  V30 2007 C 206.404 -1.1265 -2.03501 0
M  V30 2008 C 207.398 -0.0450054 -1.6934 0
M  V30 2009 O 208.604 -0.203988 -1.7884 0
M  V30 2010 H 204.979 -0.347639 -0.666822 0
M  V30 2011 H 206.95 -2.07849 -2.14106 0
M  V30 2012 C 205.699 -0.808143 -3.38178 0
M  V30 2013 H 205.022 -1.63231 -3.6496 0
M  V30 2014 H 206.462 -0.736426 -4.17556 0
M  V30 2015 C 204.921 0.488226 -3.33344 0
M  V30 2016 O 205.451 1.51766 -3.71927 0
M  V30 2017 N 203.657 0.490009 -2.86439 0
M  V30 2018 H 203.204 -0.348161 -2.55236 0
M  V30 2019 H 203.162 1.35741 -2.83587 0
M  V30 2020 N 206.934 1.1197 -1.10907 0
M  V30 2021 C 207.881 2.17846 -0.762345 0
M  V30 2022 C 208.851 1.63995 0.263599 0
M  V30 2023 O 210.036 1.90273 0.141773 0
M  V30 2024 C 207.176 3.44487 -0.205651 0
M  V30 2025 C 206.289 4.12369 -1.28748 0
M  V30 2026 C 205.424 5.26674 -0.691919 0
M  V30 2027 C 204.463 5.86431 -1.75399 0
M  V30 2028 N 203.6 6.92142 -1.17833 0
M  V30 2029 H 208.44 2.46851 -1.6694 0
M  V30 2030 H 205.977 1.21188 -0.833776 0
M  V30 2031 H 207.935 4.16981 0.135037 0
M  V30 2032 H 206.565 3.15884 0.664613 0
M  V30 2033 H 205.617 3.38003 -1.74522 0
M  V30 2034 H 206.929 4.52844 -2.09125 0
M  V30 2035 H 206.083 6.05953 -0.300963 0
M  V30 2036 H 204.822 4.8749 0.143232 0
M  V30 2037 H 203.827 5.05835 -2.15432 0
M  V30 2038 H 205.052 6.27685 -2.59208 0
M  V30 2039 H 202.998 6.54985 -0.364725 0
M  V30 2040 H 202.915 7.31242 -1.91887 0
M  V30 2041 H 204.183 7.75237 -0.81408 0
M  V30 2042 N 208.412 0.89855 1.29475 0
M  V30 2043 C 209.658 0.524658 1.95896 0
M  V30 2044 C 209.991 -0.926468 1.70676 0
M  V30 2045 O 209.266 -1.65665 1.01908 0
M  V30 2046 C 209.549 0.81633 3.50725 0
M  V30 2047 C 209.402 2.31907 3.85408 0
M  V30 2048 C 210.721 0.302038 4.39062 0
M  V30 2049 H 207.84 0.19209 0.711527 0
M  V30 2050 H 210.482 1.12502 1.53112 0
M  V30 2051 H 208.632 0.305369 3.87298 0
M  V30 2052 H 210.304 2.89949 3.58786 0
M  V30 2053 H 208.547 2.78027 3.32992 0
M  V30 2054 H 209.218 2.47373 4.93468 0
M  V30 2055 H 211.694 0.739551 4.09475 0
M  V30 2056 H 210.57 0.535331 5.46283 0
M  V30 2057 H 210.831 -0.797216 4.34853 0
M  V30 2058 N 209.89 -1.43072 0.660911 0
M  V30 2059 C 211.301 -1.84932 0.256348 0
M  V30 2060 C 211.652 -1.55325 -1.19868 0
M  V30 2061 O 210.777 -1.00607 -1.91591 0
M  V30 2062 C 211.372 -3.35684 0.458475 0
M  V30 2063 C 209.931 -3.76245 0.108161 0
M  V30 2064 C 209.078 -2.66749 0.757641 0
M  V30 2065 H 212.029 -1.33116 0.864051 0
M  V30 2066 H 212.05 -3.79365 -0.293683 0
M  V30 2067 H 211.562 -3.572 1.51755 0
M  V30 2068 H 209.663 -3.60338 -0.948014 0
M  V30 2069 H 209.776 -4.76058 0.538992 0
M  V30 2070 H 208.14 -2.53989 0.190185 0
M  V30 2071 H 208.923 -2.91092 1.81989 0
M  V30 2072 N 211.368 -0.403325 -1.52352 0
M  V30 2073 C 212.614 0.174605 -2.02047 0
M  V30 2074 C 212.947 1.45282 -1.28867 0
M  V30 2075 O 212.222 1.90483 -0.393257 0
M  V30 2076 C 212.505 0.428238 -3.57545 0
M  V30 2077 C 212.358 -0.866248 -4.4138 0
M  V30 2078 C 213.677 1.21287 -4.23057 0
M  V30 2079 H 210.796 0.0619851 -0.734389 0
M  V30 2080 H 213.438 -0.53565 -1.82293 0
M  V30 2081 H 211.588 1.03327 -3.74507 0
M  V30 2082 H 213.26 -1.50265 -4.3614 0
M  V30 2083 H 211.503 -1.47851 -4.07827 0
M  V30 2084 H 212.174 -0.643249 -5.48239 0
M  V30 2085 H 214.65 0.700703 -4.10158 0
M  V30 2086 H 213.526 1.35909 -5.31808 0
M  V30 2087 H 213.787 2.23193 -3.81625 0
M  V30 2088 N 212.846 1.57033 -0.133567 0
M  V30 2089 C 214.092 1.95976 0.521649 0
M  V30 2090 C 214.425 1.01779 1.65393 0
M  V30 2091 O 213.7 0.0576581 1.94415 0
M  V30 2092 C 213.983 3.44738 1.04057 0
M  V30 2093 C 213.836 4.49711 -0.0892897 0
M  V30 2094 C 215.155 3.95682 1.92675 0
M  V30 2095 H 212.274 0.712579 0.188149 0
M  V30 2096 H 214.916 1.88813 -0.212076 0
M  V30 2097 H 213.066 3.50973 1.66583 0
M  V30 2098 H 214.738 4.55565 -0.725152 0
M  V30 2099 H 212.981 4.27261 -0.750378 0
M  V30 2100 H 213.652 5.51099 0.315284 0
M  V30 2101 H 216.128 3.91841 1.39998 0
M  V30 2102 H 215.004 5.00262 2.25897 0
M  V30 2103 H 215.265 3.37239 2.85872 0
M  V30 2104 N 214.325 -0.140222 1.56975 0
M  V30 2105 C 215.257 -1.19818 1.95388 0
M  V30 2106 C 216.27 -1.38816 0.850525 0
M  V30 2107 O 217.459 -1.38267 1.12891 0
M  V30 2108 C 214.559 -2.56189 2.21857 0
M  V30 2109 C 213.732 -2.58077 3.5315 0
M  V30 2110 C 212.791 -3.76037 3.6808 0
M  V30 2111 O 211.817 -3.60598 4.40406 0
M  V30 2112 N 213.019 -4.93763 3.05251 0
M  V30 2113 H 215.784 -0.871609 2.86746 0
M  V30 2114 H 213.345 -0.32972 1.58507 0
M  V30 2115 H 215.337 -3.33623 2.2908 0
M  V30 2116 H 213.907 -2.81111 1.36731 0
M  V30 2117 H 213.127 -1.6651 3.57307 0
M  V30 2118 H 214.415 -2.56377 4.39486 0
M  V30 2119 H 213.813 -5.09209 2.46419 0
M  V30 2120 H 212.37 -5.68949 3.18026 0
M  V30 2121 N 215.803 -1.52179 -0.40978 0
M  V30 2122 C 217.214 -1.58377 -0.988615 0
M  V30 2123 C 217.565 -0.423879 -1.91566 0
M  V30 2124 O 216.69 0.455844 -2.11544 0
M  V30 2125 C 217.285 -2.87044 -1.79976 0
M  V30 2126 C 215.844 -2.95722 -2.32863 0
M  V30 2127 C 214.991 -2.53309 -1.12828 0
M  V30 2128 H 217.942 -1.57558 -0.190039 0
M  V30 2129 H 217.963 -2.7236 -2.65707 0
M  V30 2130 H 217.475 -3.71444 -1.12478 0
M  V30 2131 H 215.576 -2.15814 -3.03735 0
M  V30 2132 H 215.689 -3.99951 -2.63773 0
M  V30 2133 H 214.053 -2.07142 -1.48204 0
M  V30 2134 H 214.836 -3.40082 -0.46897 0
M  V30 2135 N 217.281 0.66697 -1.42791 0
M  V30 2136 C 218.506 1.46004 -1.47301 0
M  V30 2137 C 218.931 1.87894 -0.0880317 0
M  V30 2138 O 218.289 1.56502 0.915253 0
M  V30 2139 C 218.337 2.68031 -2.41229 0
M  V30 2140 O 217.441 3.6659 -1.88906 0
M  V30 2141 H 216.782 0.43832 -0.49877 0
M  V30 2142 H 219.312 0.817391 -1.87563 0
M  V30 2143 H 219.322 3.1601 -2.58073 0
M  V30 2144 H 217.997 2.36883 -3.41847 0
M  V30 2145 H 216.574 3.25661 -1.81656 0
M  V30 2146 N 218.759 1.29093 0.90403 0
M  V30 2147 C 219.709 1.10482 1.99443 0
M  V30 2148 C 220.693 0.0255401 1.6088 0
M  V30 2149 O 221.885 0.24677 1.75271 0
M  V30 2150 C 219.014 0.778882 3.34348 0
M  V30 2151 C 218.1 1.89749 3.79284 0
M  V30 2152 N 218.491 3.14045 3.96497 0
M  V30 2153 C 216.789 1.78955 4.08523 0
M  V30 2154 C 217.49 3.86996 4.34292 0
M  V30 2155 N 216.466 3.14909 4.43095 0
M  V30 2156 H 220.268 2.04778 2.10815 0
M  V30 2157 H 217.782 1.20155 1.09255 0
M  V30 2158 H 219.779 0.62661 4.12164 0
M  V30 2159 H 218.439 -0.156205 3.24324 0
M  V30 2160 H 219.45 3.49548 3.82148 0
M  V30 2161 H 216.127 0.926886 4.07081 0
M  V30 2162 H 217.517 4.93941 4.55491 0
M  V30 2163 N 220.237 -1.11381 1.11499 0
M  V30 2164 C 221.2 -2.15622 0.777153 0
M  V30 2165 C 222.2 -1.59504 -0.203779 0
M  V30 2166 O 223.39 -1.74188 0.020782 0
M  V30 2167 C 220.522 -3.40556 0.153116 0
M  V30 2168 H 221.715 -2.47021 1.70061 0
M  V30 2169 H 219.268 -1.26577 0.916952 0
M  V30 2170 H 220.003 -3.14767 -0.780536 0
M  V30 2171 H 219.788 -3.8257 0.859238 0
M  V30 2172 H 221.278 -4.17546 -0.0671044 0
M  V30 2173 N 221.715 -0.905404 -1.28997 0
M  V30 2174 C 222.961 -0.535039 -1.95615 0
M  V30 2175 C 223.294 0.917404 -1.71165 0
M  V30 2176 O 222.569 1.65123 -1.02785 0
M  V30 2177 C 222.852 -0.834918 -3.50287 0
M  V30 2178 C 222.705 -2.33948 -3.84172 0
M  V30 2179 C 224.024 -0.325318 -4.38896 0
M  V30 2180 H 221.143 -0.195861 -0.710498 0
M  V30 2181 H 223.785 -1.13313 -1.52513 0
M  V30 2182 H 221.935 -0.325904 -3.87131 0
M  V30 2183 H 223.607 -2.91847 -3.57243 0
M  V30 2184 H 221.85 -2.79789 -3.31513 0
M  V30 2185 H 222.521 -2.49987 -4.92149 0
M  V30 2186 H 224.997 -0.761256 -4.09077 0
M  V30 2187 H 223.873 -0.564295 -5.45992 0
M  V30 2188 H 224.134 0.774144 -4.35269 0
M  V30 2189 N 223.193 1.4272 -0.668489 0
M  V30 2190 C 224.143 2.27971 0.0363806 0
M  V30 2191 C 225.127 1.40741 0.779794 0
M  V30 2192 O 226.319 1.64245 0.659745 0
M  V30 2193 C 223.448 3.28673 0.991398 0
M  V30 2194 C 222.534 4.23388 0.245658 0
M  V30 2195 N 222.925 5.00267 -0.746069 0
M  V30 2196 C 221.223 4.43355 0.484988 0
M  V30 2197 C 221.924 5.69396 -1.19009 0
M  V30 2198 N 220.9 5.41095 -0.521287 0
M  V30 2199 H 224.702 2.84833 -0.724394 0
M  V30 2200 H 222.216 1.54607 -0.497028 0
M  V30 2201 H 224.213 3.88543 1.51129 0
M  V30 2202 H 222.873 2.73373 1.75207 0
M  V30 2203 H 223.884 5.05525 -1.12537 0
M  V30 2204 H 220.561 3.99104 1.22565 0
M  V30 2205 H 221.951 6.41083 -2.01153 0
M  V30 2206 N 224.671 0.411399 1.52136 0
M  V30 2207 C 226.082 -0.0576826 1.86611 0
M  V30 2208 C 226.433 -1.44238 1.33003 0
M  V30 2209 O 225.558 -2.05759 0.670228 0
M  V30 2210 C 226.153 -0.111448 3.38617 0
M  V30 2211 C 224.712 -0.52487 3.72723 0
M  V30 2212 C 223.859 0.299176 2.75681 0
M  V30 2213 H 226.81 0.628368 1.4573 0
M  V30 2214 H 226.831 -0.926252 3.69054 0
M  V30 2215 H 226.343 0.896488 3.77604 0
M  V30 2216 H 224.444 -1.53936 3.39315 0
M  V30 2217 H 224.557 -0.267681 4.78352 0
M  V30 2218 H 222.921 -0.238814 2.53578 0
M  V30 2219 H 223.704 1.3055 3.17508 0
M  V30 2220 N 226.149 -1.5696 0.141893 0
M  V30 2221 C 227.079 -2.19516 -0.795936 0
M  V30 2222 C 228.06 -1.14187 -1.26077 0
M  V30 2223 O 229.245 -1.42511 -1.31925 0
M  V30 2224 C 226.375 -2.81272 -2.03723 0
M  V30 2225 C 225.329 -3.92384 -1.70936 0
M  V30 2226 C 224.655 -4.41052 -3.02287 0
M  V30 2227 C 225.955 -5.13403 -0.959954 0
M  V30 2228 H 227.649 -2.98138 -0.274596 0
M  V30 2229 H 225.195 -1.43406 -0.130636 0
M  V30 2230 H 227.148 -3.237 -2.69808 0
M  V30 2231 H 225.872 -1.99973 -2.58221 0
M  V30 2232 H 224.531 -3.50566 -1.07232 0
M  V30 2233 H 224.179 -3.56582 -3.54765 0
M  V30 2234 H 223.879 -5.15993 -2.81114 0
M  V30 2235 H 225.403 -4.86146 -3.69451 0
M  V30 2236 H 226.817 -5.52706 -1.52279 0
M  V30 2237 H 225.214 -5.94073 -0.848357 0
M  V30 2238 H 226.284 -4.84875 0.0492434 0
M  V30 2239 N 227.627 0.131896 -1.57047 0
M  V30 2240 C 228.855 0.856461 -1.88341 0
M  V30 2241 C 229.27 1.74042 -0.731757 0
M  V30 2242 O 228.627 1.80051 0.297945 0
M  V30 2243 C 228.678 1.70064 -3.18999 0
M  V30 2244 O 228.399 0.852278 -4.2973 0
M  V30 2245 C 229.9 2.53148 -3.63911 0
M  V30 2246 H 227.12 0.246885 -0.62393 0
M  V30 2247 H 229.664 0.120152 -2.04147 0
M  V30 2248 H 227.819 2.38984 -3.04902 0
M  V30 2249 H 228.233 1.43329 -5.04537 0
M  V30 2250 H 229.707 3.07931 -4.58129 0
M  V30 2251 H 230.184 3.29901 -2.89935 0
M  V30 2252 H 230.79 1.89492 -3.80753 0
M  V30 2253 N 229.106 1.52395 0.401703 0
M  V30 2254 C 230.517 1.58899 0.980202 0
M  V30 2255 C 230.868 0.434032 1.91339 0
M  V30 2256 O 229.993 -0.444619 2.11783 0
M  V30 2257 C 230.588 2.87994 1.78451 0
M  V30 2258 C 229.147 2.96953 2.31292 0
M  V30 2259 C 228.294 2.53903 1.11483 0
M  V30 2260 H 231.245 1.57657 0.18168 0
M  V30 2261 H 231.266 2.73765 2.64259 0
M  V30 2262 H 230.778 3.72035 1.10506 0
M  V30 2263 H 228.879 2.17422 3.02586 0
M  V30 2264 H 228.992 4.01344 2.61649 0
M  V30 2265 H 227.356 2.07925 1.47104 0
M  V30 2266 H 228.139 3.40326 0.450928 0
M  V30 2267 N 230.584 -0.659388 1.43143 0
M  V30 2268 C 231.514 -1.78422 1.50625 0
M  V30 2269 C 232.495 -1.66216 0.361443 0
M  V30 2270 O 233.68 -1.85404 0.577834 0
M  V30 2271 C 230.81 -3.16815 1.42287 0
M  V30 2272 C 229.764 -3.43777 2.54954 0
M  V30 2273 C 229.09 -4.81905 2.31671 0
M  V30 2274 C 230.39 -3.39134 3.97222 0
M  V30 2275 H 232.084 -1.72417 2.44771 0
M  V30 2276 H 229.63 -0.828084 1.17808 0
M  V30 2277 H 231.583 -3.95253 1.46127 0
M  V30 2278 H 230.307 -3.23534 0.446435 0
M  V30 2279 H 228.966 -2.67707 2.50457 0
M  V30 2280 H 228.614 -4.85294 1.32284 0
M  V30 2281 H 228.314 -5.00906 3.07192 0
M  V30 2282 H 229.838 -5.62609 2.37284 0
M  V30 2283 H 231.252 -4.07518 4.03239 0
M  V30 2284 H 229.649 -3.69671 4.72719 0
M  V30 2285 H 230.719 -2.37426 4.22797 0
M  V30 2286 N 232.062 -1.29571 -0.897171 0
M  V30 2287 C 233.311 -1.1706 -1.64256 0
M  V30 2288 C 233.624 0.276476 -1.93636 0
M  V30 2289 O 234.83 0.52294 -2.66416 0
M  V30 2290 C 233.286 -2.0475 -2.95982 0
M  V30 2291 C 232.894 -3.54295 -2.74187 0
M  V30 2292 C 234.638 -2.0097 -3.73914 0
M  V30 2293 C 232.545 -4.34081 -4.01656 0
M  V30 2294 H 231.475 -0.43452 -0.616205 0
M  V30 2295 H 234.126 -1.54229 -0.994268 0
M  V30 2296 H 232.508 -1.60452 -3.62038 0
M  V30 2297 H 233.682 -4.06662 -2.1671 0
M  V30 2298 H 231.997 -3.59773 -2.09648 0
M  V30 2299 H 234.594 -2.57838 -4.68427 0
M  V30 2300 H 234.937 -0.990273 -4.0435 0
M  V30 2301 H 235.47 -2.43325 -3.14703 0
M  V30 2302 H 232.209 -5.36671 -3.76384 0
M  V30 2303 H 231.729 -3.86483 -4.58684 0
M  V30 2304 H 233.408 -4.44877 -4.69781 0
M  V30 2305 N 233.54 1.10788 -1.12088 0
M  V30 2306 C 234.768 1.86461 -0.896651 0
M  V30 2307 C 235.183 1.80492 0.553912 0
M  V30 2308 O 234.54 1.19102 1.38278 0
M  V30 2309 C 234.591 3.35006 -1.35843 0
M  V30 2310 O 234.312 3.40866 -2.75213 0
M  V30 2311 C 235.813 4.27565 -1.1706 0
M  V30 2312 H 233.033 0.589425 -0.320654 0
M  V30 2313 H 235.577 1.40076 -1.48993 0
M  V30 2314 H 233.732 3.7887 -0.808458 0
M  V30 2315 H 234.146 4.33411 -2.9539 0
M  V30 2316 H 235.62 5.30007 -1.54263 0
M  V30 2317 H 236.097 4.3906 -0.110814 0
M  V30 2318 H 236.703 3.89501 -1.70789 0
M  V30 2319 N 235.018 0.912232 1.28515 0
M  V30 2320 C 236.248 0.559604 1.98877 0
M  V30 2321 C 236.656 -0.863113 1.68366 0
M  V30 2322 O 235.999 -1.58304 0.931969 0
M  V30 2323 C 236.061 0.68703 3.52874 0
M  V30 2324 C 235.725 2.07901 4.06972 0
M  V30 2325 C 236.722 3.05157 4.20922 0
M  V30 2326 C 234.407 2.39178 4.417 0
M  V30 2327 C 236.401 4.31806 4.68852 0
M  V30 2328 C 234.088 3.66068 4.89324 0
M  V30 2329 C 235.086 4.62195 5.02856 0
M  V30 2330 O 234.774 5.86829 5.49442 0
M  V30 2331 H 234.506 0.212191 0.641834 0
M  V30 2332 H 237.06 1.22712 1.64715 0
M  V30 2333 H 235.29 -0.0375486 3.86682 0
M  V30 2334 H 236.979 0.341727 4.04459 0
M  V30 2335 H 237.745 2.82311 3.94367 0
M  V30 2336 H 233.624 1.65109 4.30418 0
M  V30 2337 H 237.168 5.06842 4.79329 0
M  V30 2338 H 233.065 3.88739 5.15318 0
M  V30 2339 H 233.833 5.89597 5.6773 0
M  V30 2340 N 236.496 -1.42363 0.676048 0
M  V30 2341 C 237.721 -2.06377 0.205705 0
M  V30 2342 C 238.146 -1.50463 -1.12883 0
M  V30 2343 O 237.504 -0.623619 -1.70237 0
M  V30 2344 C 237.552 -3.60277 0.152655 0
M  V30 2345 O 236.656 -4.02935 -0.87845 0
M  V30 2346 H 235.997 -0.655588 0.105359 0
M  V30 2347 H 238.527 -1.82475 0.925412 0
M  V30 2348 H 238.537 -4.07993 -0.0230675 0
M  V30 2349 H 237.212 -4.00346 1.12675 0
M  V30 2350 H 235.789 -3.66764 -0.673668 0
M  V30 2351 N 237.974 -0.419461 -1.51915 0
M  V30 2352 C 239.251 0.211999 -1.94448 0
M  V30 2353 C 239.631 1.61703 -1.35703 0
M  V30 2354 O 238.979 2.22102 -0.536931 0
M  V30 2355 C 239.189 0.207872 -3.4838 0
M  V30 2356 C 240.537 0.422192 -4.22496 0
M  V30 2357 O 241.561 0.286778 -3.55044 0
M  V30 2358 O 240.42 0.690009 -5.42126 0
M  V30 2359 H 237.514 0.139586 -0.815135 0
M  V30 2360 H 240.06 -0.476151 -1.62883 0
M  V30 2361 H 238.832 -0.775102 -3.83546 0
M  V30 2362 H 238.455 0.939688 -3.86336 0
M  V30 2363 N 239.452 1.56882 -0.150215 0
M  V30 2364 C 240.362 2.20494 0.801222 0
M  V30 2365 C 241.378 1.19019 1.26927 0
M  V30 2366 O 242.554 1.51607 1.32579 0
M  V30 2367 C 239.619 2.81659 2.02161 0
M  V30 2368 C 238.68 3.9827 1.60249 0
M  V30 2369 C 237.913 4.56508 2.7647 0
M  V30 2370 O 238.136 4.13627 3.92771 0
M  V30 2371 O 237.07 5.46719 2.51757 0
M  V30 2372 H 240.896 3.02315 0.289717 0
M  V30 2373 H 238.481 1.49202 0.0769684 0
M  V30 2374 H 240.363 3.20522 2.73576 0
M  V30 2375 H 239.038 2.02849 2.52258 0
M  V30 2376 H 237.945 3.64117 0.858477 0
M  V30 2377 H 239.278 4.78609 1.14864 0
M  V30 2378 N 240.93 -0.123565 1.57115 0
M  V30 2379 C 241.88 -1.1575 1.96433 0
M  V30 2380 C 242.864 -1.37313 0.838686 0
M  V30 2381 O 244.056 -1.38482 1.10235 0
M  V30 2382 C 241.185 -2.48526 2.36833 0
M  V30 2383 C 240.271 -2.30457 3.5602 0
M  V30 2384 N 240.662 -1.8219 4.71848 0
M  V30 2385 C 238.96 -2.61129 3.61563 0
M  V30 2386 C 239.661 -1.77721 5.53886 0
M  V30 2387 N 238.637 -2.21899 4.96248 0
M  V30 2388 H 242.439 -0.776797 2.83449 0
M  V30 2389 H 239.953 -0.331364 1.58983 0
M  V30 2390 H 241.95 -3.233 2.63216 0
M  V30 2391 H 240.61 -2.87358 1.5118 0
M  V30 2392 H 241.621 -1.51805 4.95152 0
M  V30 2393 H 238.298 -3.03678 2.86507 0
M  V30 2394 H 239.688 -1.41697 6.56789 0
M  V30 2395 N 242.408 -1.52605 -0.393616 0
M  V30 2396 C 243.655 -1.67424 -1.1391 0
M  V30 2397 C 243.983 -0.411859 -1.90089 0
M  V30 2398 O 243.238 0.605626 -1.86093 0
M  V30 2399 C 243.537 -2.85721 -2.14705 0
M  V30 2400 C 243.203 -4.23342 -1.55218 0
M  V30 2401 C 241.865 -4.60771 -1.3872 0
M  V30 2402 C 244.217 -5.09041 -1.11924 0
M  V30 2403 C 241.545 -5.81563 -0.774689 0
M  V30 2404 C 243.897 -6.30452 -0.520853 0
M  V30 2405 C 242.561 -6.66617 -0.343134 0
M  V30 2406 H 241.831 -0.612648 -0.416826 0
M  V30 2407 H 244.478 -1.8674 -0.424315 0
M  V30 2408 H 242.783 -2.60803 -2.92385 0
M  V30 2409 H 244.48 -2.94382 -2.72288 0
M  V30 2410 H 241.07 -3.93855 -1.69045 0
M  V30 2411 H 245.254 -4.80695 -1.23473 0
M  V30 2412 H 240.51 -6.08196 -0.625154 0
M  V30 2413 H 244.684 -6.96175 -0.177065 0
M  V30 2414 H 242.311 -7.60083 0.133571 0
M  V30 2415 N 243.887 0.651787 -1.4349 0
M  V30 2416 C 245.112 1.44434 -1.48841 0
M  V30 2417 C 245.537 1.8779 -0.107955 0
M  V30 2418 O 244.895 1.57464 0.898602 0
M  V30 2419 C 244.943 2.65458 -2.44059 0
M  V30 2420 O 244.047 3.64566 -1.92784 0
M  V30 2421 H 243.388 0.433005 -0.503391 0
M  V30 2422 H 245.918 0.797451 -1.88419 0
M  V30 2423 H 245.928 3.13255 -2.6141 0
M  V30 2424 H 244.603 2.33244 -3.4434 0
M  V30 2425 H 243.18 3.23716 -1.851 0
M  V30 2426 N 245.365 1.30045 0.890287 0
M  V30 2427 C 246.776 1.16738 1.45702 0
M  V30 2428 C 247.127 -0.233939 1.948 0
M  V30 2429 O 246.252 -1.13021 1.84541 0
M  V30 2430 C 246.847 2.11313 2.64825 0
M  V30 2431 C 245.406 2.02001 3.17604 0
M  V30 2432 C 244.553 2.01699 1.90296 0
M  V30 2433 H 247.504 1.42392 0.700726 0
M  V30 2434 H 247.525 1.69086 3.40867 0
M  V30 2435 H 247.037 3.13294 2.2906 0
M  V30 2436 H 245.138 1.03142 3.5804 0
M  V30 2437 H 245.251 2.90128 3.81264 0
M  V30 2438 H 243.615 1.46427 2.08402 0
M  V30 2439 H 244.398 3.05402 1.56795 0
M  V30 2440 N 246.843 -1.10192 1.12674 0
M  V30 2441 C 248.091 -1.81845 0.881861 0
M  V30 2442 C 248.412 -1.85737 -0.593867 0
M  V30 2443 O 247.682 -1.33724 -1.4316 0
M  V30 2444 H 246.262 -0.673432 0.323261 0
M  V30 2445 H 248.924 -1.33316 1.42172 0
M  V30 2446 H 248.02 -2.85288 1.2656 0
M  V30 2447 N 248.321 -0.919034 -1.28029 0
M  V30 2448 C 249.546 -0.570357 -1.99403 0
M  V30 2449 C 249.971 0.842486 -1.68178 0
M  V30 2450 O 249.329 1.56391 -0.917141 0
M  V30 2451 C 249.377 -0.792541 -3.51783 0
M  V30 2452 O 248.481 0.145988 -4.12142 0
M  V30 2453 H 247.822 -0.220555 -0.6263 0
M  V30 2454 H 250.352 -1.23592 -1.63053 0
M  V30 2455 H 250.362 -0.704708 -4.01868 0
M  V30 2456 H 249.037 -1.82247 -3.73844 0
M  V30 2457 H 247.614 0.00897528 -3.72899 0
M  V30 2458 N 249.799 1.42003 -0.683588 0
M  V30 2459 C 250.749 2.27997 0.0121992 0
M  V30 2460 C 251.733 1.4156 0.764822 0
M  V30 2461 O 252.925 1.64935 0.642287 0
M  V30 2462 C 250.054 3.29706 0.956482 0
M  V30 2463 C 249.14 4.23625 0.200739 0
M  V30 2464 N 249.531 4.99448 -0.799087 0
M  V30 2465 C 247.829 4.43845 0.437937 0
M  V30 2466 C 248.53 5.68102 -1.25041 0
M  V30 2467 N 247.506 5.40511 -0.578648 0
M  V30 2468 H 251.308 2.84048 -0.754564 0
M  V30 2469 H 248.822 1.54071 -0.513398 0
M  V30 2470 H 250.819 3.90124 1.47 0
M  V30 2471 H 249.479 2.75216 1.72297 0
M  V30 2472 H 250.49 5.04303 -1.17893 0
M  V30 2473 H 247.167 4.00382 1.18325 0
M  V30 2474 H 248.557 6.38913 -2.07942 0
M  V30 2475 N 251.277 0.427512 1.51691 0
M  V30 2476 C 252.688 -0.0378867 1.86662 0
M  V30 2477 C 253.039 -1.42819 1.34525 0
M  V30 2478 O 252.164 -2.05037 0.692014 0
M  V30 2479 C 252.759 -0.0755266 3.38716 0
M  V30 2480 C 251.318 -0.485309 3.73258 0
M  V30 2481 C 250.465 0.328399 2.75349 0
M  V30 2482 H 253.416 0.64379 1.45055 0
M  V30 2483 H 253.437 -0.887056 3.70016 0
M  V30 2484 H 252.949 0.936487 3.76632 0
M  V30 2485 H 251.05 -1.50329 3.40928 0
M  V30 2486 H 251.163 -0.21693 4.78609 0
M  V30 2487 H 249.527 -0.211905 2.53817 0
M  V30 2488 H 250.31 1.3391 3.16106 0
M  V30 2489 N 252.755 -1.56801 0.158532 0
M  V30 2490 C 253.98 -2.01295 -0.499516 0
M  V30 2491 C 254.405 -1.03799 -1.56867 0
M  V30 2492 O 253.763 -0.0155162 -1.81293 0
M  V30 2493 C 253.811 -3.44469 -1.06647 0
M  V30 2494 O 252.915 -3.50012 -2.18095 0
M  V30 2495 H 252.256 -0.652884 -0.12099 0
M  V30 2496 H 254.786 -2.02958 0.258661 0
M  V30 2497 H 254.796 -3.8351 -1.39227 0
M  V30 2498 H 253.471 -4.14932 -0.283581 0
M  V30 2499 H 252.048 -3.22822 -1.86656 0
M  V30 2500 N 254.233 0.115231 -1.57178 0
M  V30 2501 C 255.183 1.14707 -1.97044 0
M  V30 2502 C 256.167 1.36866 -0.845957 0
M  V30 2503 O 257.359 1.37895 -1.10968 0
M  V30 2504 C 254.488 2.47266 -2.38148 0
M  V30 2505 C 253.574 2.28566 -3.57237 0
M  V30 2506 N 253.965 1.79685 -4.72807 0
M  V30 2507 C 252.263 2.59208 -3.62943 0
M  V30 2508 C 252.964 1.74781 -5.54821 0
M  V30 2509 N 251.94 2.19264 -4.97417 0
M  V30 2510 H 255.742 0.761754 -2.83857 0
M  V30 2511 H 253.256 0.322928 -1.59157 0
M  V30 2512 H 255.253 3.219 -2.64927 0
M  V30 2513 H 253.913 2.86552 -1.52702 0
M  V30 2514 H 254.924 1.49177 -4.9595 0
M  V30 2515 H 251.601 3.02154 -2.88113 0
M  V30 2516 H 252.991 1.38212 -6.57531 0
M  V30 2517 N 255.711 1.52812 0.385517 0
M  V30 2518 C 256.96 1.67249 1.12741 0
M  V30 2519 C 257.273 0.4205 1.91027 0
M  V30 2520 O 258.479 0.445064 2.67827 0
M  V30 2521 C 256.935 2.95583 2.05326 0
M  V30 2522 C 256.543 4.27974 1.32447 0
M  V30 2523 C 258.287 3.19386 2.7963 0
M  V30 2524 C 256.194 5.47412 2.23818 0
M  V30 2525 H 255.124 0.6231 0.424573 0
M  V30 2526 H 257.775 1.79309 0.389924 0
M  V30 2527 H 256.157 2.77277 2.82725 0
M  V30 2528 H 257.331 4.56844 0.602495 0
M  V30 2529 H 255.646 4.10459 0.700885 0
M  V30 2530 H 258.243 4.05801 3.48181 0
M  V30 2531 H 258.586 2.34604 3.43899 0
M  V30 2532 H 259.119 3.38274 2.09322 0
M  V30 2533 H 255.858 6.34612 1.64157 0
M  V30 2534 H 255.378 5.22849 2.93921 0
M  V30 2535 H 257.057 5.81423 2.83824 0
M  V30 2536 N 257.189 -0.644168 1.43834 0
M  V30 2537 C 258.6 -1.22554 1.40845 0
M  V30 2538 C 258.951 -1.9585 0.117115 0
M  V30 2539 O 258.076 -2.01734 -0.783086 0
M  V30 2540 C 258.671 -2.22907 2.55143 0
M  V30 2541 C 257.23 -2.76501 2.5539 0
M  V30 2542 C 256.377 -1.51287 2.32396 0
M  V30 2543 H 259.328 -0.43563 1.52604 0
M  V30 2544 H 259.349 -3.05259 2.2715 0
M  V30 2545 H 258.861 -1.69533 3.49114 0
M  V30 2546 H 256.962 -3.33914 1.65324 0
M  V30 2547 H 257.075 -3.23429 3.53455 0
M  V30 2548 H 255.439 -1.78957 1.81236 0
M  V30 2549 H 256.222 -0.998336 3.28463 0
M  V30 2550 N 258.668 -1.30515 -0.883378 0
M  V30 2551 C 259.893 -1.22487 -1.67367 0
M  V30 2552 C 260.318 0.208767 -1.86938 0
M  V30 2553 O 259.676 1.15015 -1.40148 0
M  V30 2554 C 259.724 -1.96041 -3.02655 0
M  V30 2555 O 258.828 -1.28859 -3.91751 0
M  V30 2556 H 258.169 -0.423573 -0.511353 0
M  V30 2557 H 260.699 -1.72362 -1.10239 0
M  V30 2558 H 260.709 -2.05124 -3.52687 0
M  V30 2559 H 259.384 -3.00307 -2.8773 0
M  V30 2560 H 257.961 -1.28141 -3.50192 0
M  V30 2561 N 260.146 1.09593 -1.13257 0
M  V30 2562 C 261.423 1.78293 -0.804432 0
M  V30 2563 C 261.803 1.99004 0.70431 0
M  V30 2564 O 261.151 1.59007 1.641 0
M  V30 2565 C 261.361 3.10707 -1.5894 0
M  V30 2566 C 262.709 3.85443 -1.78099 0
M  V30 2567 O 263.733 3.20454 -1.55525 0
M  V30 2568 O 262.592 5.02108 -2.15753 0
M  V30 2569 H 259.686 0.773156 -0.293528 0
M  V30 2570 H 262.232 1.16164 -1.23709 0
M  V30 2571 H 261.004 2.91106 -2.61482 0
M  V30 2572 H 260.627 3.80558 -1.15157 0
M  V30 2573 N 261.624 0.925811 1.2754 0
M  V30 2574 C 262.87 0.566092 1.94739 0
M  V30 2575 C 263.203 -0.890057 1.72603 0
M  V30 2576 O 262.478 -1.63467 1.05399 0
M  V30 2577 C 262.761 0.89054 3.48915 0
M  V30 2578 C 262.614 2.4003 3.80402 0
M  V30 2579 C 263.933 0.395101 4.38323 0
M  V30 2580 H 261.052 0.20714 0.707292 0
M  V30 2581 H 263.694 1.15725 1.50691 0
M  V30 2582 H 261.844 0.387452 3.86563 0
M  V30 2583 H 263.516 2.97494 3.52555 0
M  V30 2584 H 261.759 2.85028 3.2702 0
M  V30 2585 H 262.43 2.57785 4.8811 0
M  V30 2586 H 264.906 0.826241 4.07814 0
M  V30 2587 H 263.782 0.651086 5.45025 0
M  V30 2588 H 264.043 -0.704798 4.36446 0
M  V30 2589 N 263.102 -1.41638 0.69111 0
M  V30 2590 C 264.05 -2.32597 0.0115199 0
M  V30 2591 C 265.044 -1.5072 -0.773296 0
M  V30 2592 O 266.25 -1.66685 -0.67942 0
M  V30 2593 H 262.625 -0.751849 -0.0150746 0
M  V30 2594 H 264.596 -2.87593 0.795791 0
M  V30 2595 C 263.345 -3.35467 -0.914172 0
M  V30 2596 H 262.668 -3.9852 -0.319687 0
M  V30 2597 H 264.108 -4.01662 -1.35808 0
M  V30 2598 C 262.567 -2.69004 -2.02826 0
M  V30 2599 O 263.097 -2.53444 -3.11655 0
M  V30 2600 N 261.303 -2.2777 -1.80469 0
M  V30 2601 H 260.85 -2.40626 -0.919615 0
M  V30 2602 H 260.808 -1.83635 -2.55197 0
M  V30 2603 N 264.58 -0.43555 -1.51462 0
M  V30 2604 C 265.805 0.132627 -2.06976 0
M  V30 2605 C 266.23 1.35848 -1.30104 0
M  V30 2606 O 265.588 1.78112 -0.338493 0
M  V30 2607 C 265.636 0.43523 -3.57964 0
M  V30 2608 O 264.74 1.52198 -3.83288 0
M  V30 2609 H 264.081 0.00265 -0.663995 0
M  V30 2610 H 266.611 -0.616369 -1.95095 0
M  V30 2611 H 266.621 0.686206 -4.02188 0
M  V30 2612 H 265.296 -0.460739 -4.1334 0
M  V30 2613 H 263.873 1.2611 -3.50928 0
M  V30 2614 N 266.058 1.56714 -0.166846 0
M  V30 2615 C 267.005 2.17746 0.765193 0
M  V30 2616 C 267.975 1.11614 1.23011 0
M  V30 2617 O 269.16 1.39745 1.29908 0
M  V30 2618 C 266.3 2.81882 1.9909 0
M  V30 2619 C 265.413 4.02462 1.56997 0
M  V30 2620 C 264.548 4.54537 2.749 0
M  V30 2621 C 263.587 5.67538 2.29275 0
M  V30 2622 N 262.724 6.14142 3.40255 0
M  V30 2623 H 267.564 2.97048 0.237952 0
M  V30 2624 H 265.101 1.4672 0.105725 0
M  V30 2625 H 267.059 3.17221 2.70974 0
M  V30 2626 H 265.689 2.05191 2.49192 0
M  V30 2627 H 264.741 3.72973 0.748037 0
M  V30 2628 H 266.053 4.84273 1.19503 0
M  V30 2629 H 265.207 4.92035 3.54946 0
M  V30 2630 H 263.946 3.71774 3.1565 0
M  V30 2631 H 262.951 5.29597 1.47674 0
M  V30 2632 H 264.176 6.52099 1.89588 0
M  V30 2633 H 262.122 5.3431 3.8059 0
M  V30 2634 H 262.039 6.9093 3.06841 0
M  V30 2635 H 263.307 6.56289 4.206 0
M  V30 2636 N 267.536 -0.106894 1.57237 0
M  V30 2637 C 268.468 -1.15646 1.97885 0
M  V30 2638 C 269.481 -1.36981 0.879779 0
M  V30 2639 O 270.67 -1.35841 1.15799 0
M  V30 2640 C 267.77 -2.51425 2.27241 0
M  V30 2641 C 266.943 -2.50529 3.58545 0
M  V30 2642 C 266.002 -3.68145 3.75973 0
M  V30 2643 O 265.028 -3.51176 4.47956 0
M  V30 2644 N 266.23 -4.87177 3.15656 0
M  V30 2645 H 268.995 -0.81059 2.8853 0
M  V30 2646 H 266.556 -0.296024 1.59171 0
M  V30 2647 H 268.548 -3.28689 2.36105 0
M  V30 2648 H 267.118 -2.78147 1.42663 0
M  V30 2649 H 266.338 -1.58894 3.60758 0
M  V30 2650 H 267.626 -2.46997 4.44826 0
M  V30 2651 H 267.024 -5.03868 2.57165 0
M  V30 2652 H 265.581 -5.62075 3.30023 0
M  V30 2653 N 269.014 -1.53014 -0.377408 0
M  V30 2654 C 270.262 -1.6829 -1.11906 0
M  V30 2655 C 270.583 -0.431206 -1.90173 0
M  V30 2656 O 269.853 0.554595 -1.87886 0
M  V30 2657 H 268.433 -0.620371 -0.416112 0
M  V30 2658 H 271.095 -1.90167 -0.426893 0
M  V30 2659 H 270.191 -2.53862 -1.8155 0
M  V30 2660 N 270.492 0.636531 -1.44174 0
M  V30 2661 C 271.425 1.76139 -1.45087 0
M  V30 2662 C 272.403 1.59611 -0.310326 0
M  V30 2663 O 273.587 1.81568 -0.506477 0
M  V30 2664 C 270.714 3.13648 -1.27839 0
M  V30 2665 C 269.76 3.48838 -2.45386 0
M  V30 2666 S 270.593 3.46927 -4.07924 0
M  V30 2667 C 271.749 4.87064 -3.9309 0
M  V30 2668 H 271.982 1.75096 -2.40268 0
M  V30 2669 H 269.515 0.810666 -1.31406 0
M  V30 2670 H 271.473 3.93002 -1.18575 0
M  V30 2671 H 270.134 3.12235 -0.341787 0
M  V30 2672 H 269.327 4.48886 -2.29167 0
M  V30 2673 H 268.929 2.76935 -2.51362 0
M  V30 2674 H 271.221 5.76153 -3.56446 0
M  V30 2675 H 272.164 5.08337 -4.92949 0
M  V30 2676 H 272.572 4.61384 -3.25246 0
M  V30 2677 N 271.97 1.30982 0.876444 0
M  V30 2678 C 273.195 1.23373 1.66715 0
M  V30 2679 C 273.62 -0.19885 1.87046 0
M  V30 2680 O 272.978 -1.1427 1.40756 0
M  V30 2681 C 273.026 1.97644 3.01611 0
M  V30 2682 O 272.13 1.30935 3.91062 0
M  V30 2683 H 271.471 0.426279 0.509099 0
M  V30 2684 H 274.001 1.72944 1.09323 0
M  V30 2685 H 274.011 2.06992 3.51594 0
M  V30 2686 H 272.686 3.01829 2.86133 0
M  V30 2687 H 271.263 1.29996 3.49507 0
M  V30 2688 N 273.449 -1.08991 1.13837 0
M  V30 2689 C 274.865 -1.33312 0.877506 0
M  V30 2690 C 275.065 -1.95587 -0.48456 0
M  V30 2691 O 274.121 -2.20509 -1.23013 0
M  V30 2692 C 275.434 -2.24045 2.0056 0
M  V30 2693 C 276.982 -2.37542 2.03821 0
M  V30 2694 C 277.457 -3.31614 3.15905 0
M  V30 2695 N 278.948 -3.39189 3.15445 0
M  V30 2696 C 279.683 -4.11992 3.98811 0
M  V30 2697 N 279.179 -4.87553 4.92203 0
M  V30 2698 N 280.972 -4.07762 3.86894 0
M  V30 2699 H 273.123 -0.669456 2.01574 0
M  V30 2700 H 275.386 -0.357482 0.878015 0
M  V30 2701 H 275.092 -1.85521 2.98789 0
M  V30 2702 H 274.966 -3.24466 1.92359 0
M  V30 2703 H 277.353 -2.75327 1.06202 0
M  V30 2704 H 277.434 -1.36884 2.16093 0
M  V30 2705 H 277.078 -2.94551 4.13766 0
M  V30 2706 H 277.008 -4.32186 3.0087 0
M  V30 2707 H 279.499 -2.85314 2.47799 0
M  V30 2708 H 279.812 -5.40549 5.52292 0
M  V30 2709 H 278.157 -4.86627 4.96205 0
M  V30 2710 H 281.348 -3.47833 3.13257 0
M  V30 2711 H 281.521 -4.64238 4.52092 0
M  V30 2712 N 274.927 -0.932562 -1.27047 0
M  V30 2713 C 275.877 -0.406392 -2.24349 0
M  V30 2714 C 276.861 0.492066 -1.53191 0
M  V30 2715 O 278.053 0.328717 -1.73921 0
M  V30 2716 C 275.182 0.335214 -3.41659 0
M  V30 2717 C 274.268 -0.58004 -4.20115 0
M  V30 2718 N 274.659 -1.70203 -4.76303 0
M  V30 2719 C 272.957 -0.383974 -4.44344 0
M  V30 2720 C 273.658 -2.27167 -5.35509 0
M  V30 2721 N 272.634 -1.56068 -5.20715 0
M  V30 2722 H 276.436 -1.26299 -2.65378 0
M  V30 2723 H 273.95 -0.787408 -1.42034 0
M  V30 2724 H 275.947 0.729142 -4.10474 0
M  V30 2725 H 274.607 1.18868 -3.0216 0
M  V30 2726 H 275.618 -2.08433 -4.74106 0
M  V30 2727 H 272.295 0.428436 -4.15296 0
M  V30 2728 H 273.685 -3.21654 -5.89905 0
M  V30 2729 N 276.405 1.4127 -0.698611 0
M  V30 2730 C 277.816 1.84187 -0.305289 0
M  V30 2731 C 278.167 1.58449 1.15708 0
M  V30 2732 O 277.292 1.05651 1.88856 0
M  V30 2733 C 277.887 3.3435 -0.547314 0
M  V30 2734 C 276.446 3.75826 -0.207878 0
M  V30 2735 C 275.593 2.64647 -0.828099 0
M  V30 2736 H 278.544 1.30778 -0.89904 0
M  V30 2737 H 278.565 3.8001 0.192998 0
M  V30 2738 H 278.077 3.53051 -1.61172 0
M  V30 2739 H 276.178 3.62725 0.852143 0
M  V30 2740 H 276.291 4.74462 -0.665021 0
M  V30 2741 H 274.655 2.53395 -0.257458 0
M  V30 2742 H 275.438 2.86165 -1.89643 0
M  V30 2743 N 277.883 0.443576 1.51229 0
M  V30 2744 C 279.294 -0.0180867 1.86691 0
M  V30 2745 C 279.645 -1.41384 1.36033 0
M  V30 2746 O 278.77 -2.04291 0.713722 0
M  V30 2747 C 279.365 -0.039597 3.38777 0
M  V30 2748 C 277.924 -0.445692 3.73752 0
M  V30 2749 C 277.071 0.357584 2.74985 0
M  V30 2750 H 280.022 0.659138 1.44364 0
M  V30 2751 H 280.043 -0.847761 3.70936 0
M  V30 2752 H 279.555 0.976382 3.75617 0
M  V30 2753 H 277.656 -1.46704 3.42503 0
M  V30 2754 H 277.769 -0.166155 4.78812 0
M  V30 2755 H 276.133 -0.184973 2.54027 0
M  V30 2756 H 276.916 1.37256 3.14668 0
M  V30 2757 N 279.361 -1.56624 0.175154 0
M  V30 2758 C 280.324 -2.16934 -0.739738 0
M  V30 2759 C 281.324 -1.11842 -1.15533 0
M  V30 2760 O 282.514 -1.37335 -1.07167 0
M  V30 2761 C 279.646 -2.75531 -2.00738 0
M  V30 2762 H 280.839 -2.99131 -0.214639 0
M  V30 2763 H 278.392 -1.56123 -0.0744197 0
M  V30 2764 H 279.127 -1.97078 -2.57548 0
M  V30 2765 H 278.912 -3.52444 -1.71831 0
M  V30 2766 H 280.402 -3.21904 -2.66021 0
M  V30 2767 N 280.839 0.0985539 -1.57292 0
M  V30 2768 C 282.25 0.653457 -1.74891 0
M  V30 2769 C 282.601 1.7929 -0.796838 0
M  V30 2770 O 281.726 2.16385 0.0254886 0
M  V30 2771 C 282.321 1.19216 -3.17133 0
M  V30 2772 C 280.88 1.69316 -3.36168 0
M  V30 2773 C 280.027 0.601294 -2.70702 0
M  V30 2774 H 282.978 -0.127497 -1.58187 0
M  V30 2775 H 282.999 2.06154 -3.19814 0
M  V30 2776 H 282.511 0.362635 -3.86402 0
M  V30 2777 H 280.612 2.5468 -2.71972 0
M  V30 2778 H 280.725 1.78853 -4.44464 0
M  V30 2779 H 279.089 1.0399 -2.32504 0
M  V30 2780 H 279.872 -0.217592 -3.4261 0
M  V30 2781 N 282.317 1.53212 0.369288 0
M  V30 2782 C 283.594 1.59815 1.12776 0
M  V30 2783 C 283.974 0.403402 2.0721 0
M  V30 2784 O 283.322 -0.606667 2.20299 0
M  V30 2785 C 283.532 2.94664 1.87013 0
M  V30 2786 C 284.88 3.49109 2.41677 0
M  V30 2787 O 285.904 2.96669 1.97144 0
M  V30 2788 O 284.763 4.40775 3.23079 0
M  V30 2789 H 281.857 0.645376 0.517125 0
M  V30 2790 H 284.403 1.65553 0.37285 0
M  V30 2791 H 283.175 3.73061 1.18071 0
M  V30 2792 H 282.798 2.92401 2.69421 0
M  V30 2793 N 283.795 -0.628877 1.44509 0
M  V30 2794 C 285.044 -1.38437 1.4669 0
M  V30 2795 C 285.357 -1.95322 0.104272 0
M  V30 2796 O 286.563 -2.715 0.00362163 0
M  V30 2797 C 285.019 -2.50659 2.5826 0
M  V30 2798 C 284.627 -2.00277 4.0074 0
M  V30 2799 C 286.371 -3.27844 2.69664 0
M  V30 2800 C 284.278 -3.09854 5.0373 0
M  V30 2801 H 283.208 -0.520245 0.545766 0
M  V30 2802 H 285.859 -0.676313 1.70582 0
M  V30 2803 H 284.241 -3.2405 2.27612 0
M  V30 2804 H 285.415 -1.33736 4.40966 0
M  V30 2805 H 283.73 -1.35901 3.93599 0
M  V30 2806 H 286.327 -4.09534 3.43781 0
M  V30 2807 H 286.67 -3.77471 1.75559 0
M  V30 2808 H 287.203 -2.61543 2.99733 0
M  V30 2809 H 283.942 -2.65168 5.99472 0
M  V30 2810 H 283.462 -3.7503 4.68095 0
M  V30 2811 H 285.141 -3.74592 5.27532 0
M  V30 2812 N 285.273 -1.31445 -0.869486 0
M  V30 2813 C 286.684 -1.19042 -1.43826 0
M  V30 2814 C 287.035 0.202919 -1.95148 0
M  V30 2815 O 286.16 1.10071 -1.86315 0
M  V30 2816 C 286.755 -2.15499 -2.6143 0
M  V30 2817 C 285.314 -2.07028 -3.14351 0
M  V30 2818 C 284.461 -2.04701 -1.87063 0
M  V30 2819 H 287.412 -1.43489 -0.677984 0
M  V30 2820 H 287.433 -1.74488 -3.38134 0
M  V30 2821 H 286.945 -3.16899 -2.24046 0
M  V30 2822 H 285.046 -1.08825 -3.56354 0
M  V30 2823 H 285.159 -2.96157 -3.766 0
M  V30 2824 H 283.523 -1.49724 -2.06046 0
M  V30 2825 H 284.306 -3.07857 -1.51917 0
M  V30 2826 N 286.751 1.08385 -1.14413 0
M  V30 2827 C 287.979 1.84517 -0.936001 0
M  V30 2828 C 288.394 1.81626 0.515503 0
M  V30 2829 O 287.751 1.22008 1.35721 0
M  V30 2830 C 287.802 3.32049 -1.42918 0
M  V30 2831 O 287.523 3.34951 -2.82381 0
M  V30 2832 C 289.024 4.24986 -1.26103 0
M  V30 2833 H 286.244 0.582491 -0.333084 0
M  V30 2834 H 288.788 1.36885 -1.5193 0
M  V30 2835 H 286.943 3.7707 -0.888641 0
M  V30 2836 H 287.357 4.27048 -3.04517 0
M  V30 2837 H 288.831 5.26615 -1.6547 0
M  V30 2838 H 289.308 4.38726 -0.20392 0
M  V30 2839 H 289.914 3.85791 -1.79012 0
M  V30 2840 N 288.23 0.939286 1.26551 0
M  V30 2841 C 289.477 0.585847 1.9384 0
M  V30 2842 C 289.805 -0.874784 1.73718 0
M  V30 2843 O 289.06 -1.64092 1.06642 0
M  V30 2844 C 289.359 0.872106 3.46596 0
M  V30 2845 C 289.025 2.31632 3.86856 0
M  V30 2846 C 287.687 2.71111 3.97558 0
M  V30 2847 C 290.039 3.25494 4.07066 0
M  V30 2848 C 287.367 4.03553 4.25866 0
M  V30 2849 C 289.719 4.57531 4.36862 0
M  V30 2850 C 288.383 4.96828 4.45778 0
M  V30 2851 H 287.653 0.214377 0.709312 0
M  V30 2852 H 290.3 1.18544 1.50398 0
M  V30 2853 H 288.605 0.18996 3.91339 0
M  V30 2854 H 290.302 0.577442 3.96821 0
M  V30 2855 H 286.892 2.00008 3.79071 0
M  V30 2856 H 291.076 2.9619 3.98227 0
M  V30 2857 H 286.332 4.33665 4.30981 0
M  V30 2858 H 290.506 5.30254 4.51446 0
M  V30 2859 H 288.133 5.99482 4.67468 0
M  V30 2860 N 289.708 -1.40897 0.706093 0
M  V30 2861 C 290.938 -2.05075 0.250523 0
M  V30 2862 C 291.346 -1.53275 -1.10921 0
M  V30 2863 O 290.689 -0.680281 -1.7064 0
M  V30 2864 C 290.751 -3.59219 0.142178 0
M  V30 2865 C 290.415 -4.33864 1.43566 0
M  V30 2866 C 291.412 -4.62448 2.37566 0
M  V30 2867 C 289.097 -4.72946 1.69195 0
M  V30 2868 C 291.091 -5.29088 3.5545 0
M  V30 2869 C 288.778 -5.3932 2.87362 0
M  V30 2870 C 289.776 -5.6732 3.80312 0
M  V30 2871 O 289.464 -6.32325 4.96408 0
M  V30 2872 H 289.196 -0.666645 0.112074 0
M  V30 2873 H 291.75 -1.81467 0.962239 0
M  V30 2874 H 289.98 -3.81609 -0.6254 0
M  V30 2875 H 291.669 -4.0495 -0.277584 0
M  V30 2876 H 292.435 -4.32727 2.19027 0
M  V30 2877 H 288.314 -4.50527 0.977042 0
M  V30 2878 H 291.858 -5.50859 4.28018 0
M  V30 2879 H 287.755 -5.68461 3.05814 0
M  V30 2880 H 288.523 -6.50821 4.9636 0
M  V30 2881 N 291.186 -0.45159 -1.50991 0
M  V30 2882 C 292.597 0.00818571 -1.86698 0
M  V30 2883 C 292.948 1.40661 -1.3678 0
M  V30 2884 O 292.073 2.0391 -0.724546 0
M  V30 2885 C 292.668 0.0216303 -3.38793 0
M  V30 2886 C 291.227 0.425865 -3.73983 0
M  V30 2887 C 290.374 -0.372163 -2.74791 0
M  V30 2888 H 293.325 -0.666785 -1.44013 0
M  V30 2889 H 293.346 0.828078 -3.7138 0
M  V30 2890 H 292.858 -0.996288 -3.75094 0
M  V30 2891 H 290.959 1.44886 -3.43277 0
M  V30 2892 H 291.072 0.140761 -4.78893 0
M  V30 2893 H 289.436 0.171498 -2.54122 0
M  V30 2894 H 290.219 -1.38922 -3.13935 0
M  V30 2895 N 292.664 1.56529 -0.183458 0
M  V30 2896 C 293.594 2.21549 0.737456 0
M  V30 2897 C 294.575 1.17489 1.23005 0
M  V30 2898 O 295.76 1.45959 1.281 0
M  V30 2899 C 292.89 2.86575 1.96194 0
M  V30 2900 C 291.844 3.96778 1.60473 0
M  V30 2901 C 291.17 4.48911 2.90487 0
M  V30 2902 C 292.47 5.15767 0.823497 0
M  V30 2903 H 294.164 2.98761 0.195453 0
M  V30 2904 H 291.71 1.43702 0.0925686 0
M  V30 2905 H 293.663 3.30739 2.61131 0
M  V30 2906 H 292.387 2.06749 2.52828 0
M  V30 2907 H 291.046 3.53286 0.978997 0
M  V30 2908 H 290.694 3.65862 3.45186 0
M  V30 2909 H 290.394 5.23265 2.67335 0
M  V30 2910 H 291.918 4.95771 3.56432 0
M  V30 2911 H 293.332 5.56549 1.37571 0
M  V30 2912 H 291.729 5.96114 0.690551 0
M  V30 2913 H 292.799 4.84574 -0.177782 0
M  V30 2914 N 294.142 -0.090211 1.57342 0
M  V30 2915 C 295.367 -0.810082 1.90925 0
M  V30 2916 C 295.792 -1.71248 0.778187 0
M  V30 2917 O 295.15 -1.79278 -0.269991 0
M  V30 2918 C 295.198 -1.59529 3.23393 0
M  V30 2919 O 294.302 -2.70461 3.11327 0
M  V30 2920 H 293.643 -0.222231 0.625707 0
M  V30 2921 H 296.173 -0.0639716 2.045 0
M  V30 2922 H 296.183 -1.97847 3.5682 0
M  V30 2923 H 294.858 -0.933055 4.05299 0
M  V30 2924 H 293.435 -2.35135 2.89423 0
M  V30 2925 N 295.62 -1.53406 -0.361157 0
M  V30 2926 C 297.031 -1.61442 -0.937728 0
M  V30 2927 C 297.382 -0.48461 -1.90121 0
M  V30 2928 O 296.507 0.388312 -2.12888 0
M  V30 2929 C 297.102 -2.92624 -1.70753 0
M  V30 2930 C 295.661 -3.02981 -2.23337 0
M  V30 2931 C 294.808 -2.5677 -1.04712 0
M  V30 2932 H 297.759 -1.58083 -0.139816 0
M  V30 2933 H 297.78 -2.80675 -2.56908 0
M  V30 2934 H 297.292 -3.74834 -1.00604 0
M  V30 2935 H 295.393 -2.25368 -2.96715 0
M  V30 2936 H 295.506 -4.0814 -2.50916 0
M  V30 2937 H 293.87 -2.11752 -1.41539 0
M  V30 2938 H 294.653 -3.41402 -0.360539 0
M  V30 2939 N 297.098 0.621204 -1.44841 0
M  V30 2940 C 298.346 1.37783 -1.47852 0
M  V30 2941 C 298.667 1.94653 -0.116224 0
M  V30 2942 O 297.937 1.76367 0.852737 0
M  V30 2943 H 296.517 0.511453 -0.544449 0
M  V30 2944 H 299.179 0.730446 -1.80694 0
M  V30 2945 H 298.275 2.20414 -2.20961 0
M  V30 2946 N 298.576 1.31904 0.862503 0
M  V30 2947 C 299.824 1.21776 1.61292 0
M  V30 2948 C 300.145 -0.222413 1.93727 0
M  V30 2949 O 299.415 -1.1451 1.58947 0
M  V30 2950 H 297.995 0.447717 0.597962 0
M  V30 2951 H 300.657 1.65326 1.03215 0
M  V30 2952 H 299.753 1.7948 2.5533 0
M  V30 2953 N 300.054 -1.07777 1.14986 0
M  V30 2954 C 301.3 -1.80557 0.923422 0
M  V30 2955 C 301.633 -1.86298 -0.548337 0
M  V30 2956 O 300.908 -1.34354 -1.40639 0
M  V30 2957 C 301.191 -3.25839 1.53299 0
M  V30 2958 C 301.044 -3.28269 3.07505 0
M  V30 2959 C 302.363 -4.22991 1.21518 0
M  V30 2960 H 299.482 -0.655493 0.336894 0
M  V30 2961 H 302.124 -1.26144 1.42083 0
M  V30 2962 H 300.274 -3.72306 1.10999 0
M  V30 2963 H 301.946 -2.90079 3.58681 0
M  V30 2964 H 300.189 -2.67355 3.4162 0
M  V30 2965 H 300.86 -4.30691 3.45266 0
M  V30 2966 H 303.336 -3.84894 1.581 0
M  V30 2967 H 302.212 -5.22945 1.66793 0
M  V30 2968 H 302.473 -4.41904 0.131505 0
M  V30 2969 N 301.532 -0.945985 -1.26051 0
M  V30 2970 C 302.78 -0.594941 -1.93145 0
M  V30 2971 C 303.101 0.86953 -1.7454 0
M  V30 2972 O 302.371 1.61838 -1.10387 0
M  V30 2973 H 300.951 -0.217044 -0.714773 0
M  V30 2974 H 303.613 -1.20235 -1.53393 0
M  V30 2975 H 302.709 -0.816835 -3.01221 0
M  V30 2976 N 303.011 1.40521 -0.713556 0
M  V30 2977 C 303.943 2.29191 -0.0203126 0
M  V30 2978 C 304.956 1.45723 0.725864 0
M  V30 2979 O 306.145 1.69033 0.573581 0
M  V30 2980 C 303.245 3.2395 0.995486 0
M  V30 2981 C 302.418 4.36262 0.315256 0
M  V30 2982 C 301.477 5.11474 1.23616 0
M  V30 2983 O 300.503 5.64606 0.721719 0
M  V30 2984 N 301.705 5.20638 2.56743 0
M  V30 2985 H 304.47 2.89327 -0.781652 0
M  V30 2986 H 302.031 1.51869 -0.561022 0
M  V30 2987 H 304.023 3.71137 1.61368 0
M  V30 2988 H 302.593 2.64995 1.6582 0
M  V30 2989 H 301.813 3.91228 -0.483106 0
M  V30 2990 H 303.101 5.08558 -0.157004 0
M  V30 2991 H 302.499 4.7895 3.01037 0
M  V30 2992 H 301.056 5.71339 3.13712 0
M  V30 2993 N 304.489 0.459591 1.5075 0
M  V30 2994 C 305.738 -0.100971 2.01447 0
M  V30 2995 C 306.051 -1.41816 1.34713 0
M  V30 2996 O 307.257 -2.06299 1.76502 0
M  V30 2997 C 305.713 -0.23047 3.59161 0
M  V30 2998 C 305.321 1.0776 4.34847 0
M  V30 2999 C 307.065 -0.743608 4.17936 0
M  V30 3000 C 304.972 0.91253 5.84317 0
M  V30 3001 H 303.902 -0.0415102 0.752856 0
M  V30 3002 H 306.553 0.592742 1.73663 0
M  V30 3003 H 304.935 -0.987703 3.83485 0
M  V30 3004 H 306.109 1.8449 4.22256 0
M  V30 3005 H 304.424 1.52097 3.87628 0
M  V30 3006 H 307.021 -0.883959 5.27343 0
M  V30 3007 H 307.364 -1.73196 3.78562 0
M  V30 3008 H 307.897 -0.04408 3.97776 0
M  V30 3009 H 304.636 1.87391 6.28144 0
M  V30 3010 H 304.156 0.185422 5.99513 0
M  V30 3011 H 305.835 0.574547 6.44444 0
M  V30 3012 N 305.967 -1.56429 0.191757 0
M  V30 3013 C 307.195 -2.01867 -0.453586 0
M  V30 3014 C 307.61 -1.07191 -1.5542 0
M  V30 3015 O 306.967 -0.0762108 -1.82341 0
M  V30 3016 C 307.018 -3.47017 -1.013 0
M  V30 3017 O 306.739 -4.38078 0.0437005 0
M  V30 3018 C 308.24 -4.07956 -1.73456 0
M  V30 3019 H 305.46 -0.661211 -0.114199 0
M  V30 3020 H 308.004 -2.02295 0.299483 0
M  V30 3021 H 306.159 -3.47298 -1.71647 0
M  V30 3022 H 306.573 -5.23178 -0.372212 0
M  V30 3023 H 308.047 -5.1138 -2.07833 0
M  V30 3024 H 308.524 -3.51222 -2.63704 0
M  V30 3025 H 309.13 -4.11437 -1.07702 0
M  V30 3026 N 307.445 0.0818655 -1.57387 0
M  V30 3027 C 308.856 0.634871 -1.75574 0
M  V30 3028 C 309.207 1.78435 -0.815809 0
M  V30 3029 O 308.332 2.164 0.0025366 0
M  V30 3030 C 308.927 1.15845 -3.18379 0
M  V30 3031 C 307.486 1.65741 -3.37945 0
M  V30 3032 C 306.633 0.572549 -2.71325 0
M  V30 3033 H 309.584 -0.144268 -1.58043 0
M  V30 3034 H 309.605 2.02751 -3.21982 0
M  V30 3035 H 309.117 0.321631 -3.86765 0
M  V30 3036 H 307.218 2.51781 -2.74658 0
M  V30 3037 H 307.331 1.74129 -4.46336 0
M  V30 3038 H 305.695 1.01518 -2.33594 0
M  V30 3039 H 306.478 -0.253918 -3.4236 0
M  V30 3040 N 308.923 1.53595 0.353017 0
M  V30 3041 C 310.334 1.61937 0.929153 0
M  V30 3042 C 310.685 0.494686 1.89861 0
M  V30 3043 O 309.81 -0.377017 2.1309 0
M  V30 3044 C 310.405 2.93526 1.69199 0
M  V30 3045 C 308.964 3.04161 2.21727 0
M  V30 3046 C 308.111 2.57322 1.03348 0
M  V30 3047 H 311.062 1.58155 0.131431 0
M  V30 3048 H 311.083 2.82034 2.55416 0
M  V30 3049 H 310.595 3.75362 0.986144 0
M  V30 3050 H 308.696 2.26938 2.95516 0
M  V30 3051 H 308.809 4.09465 2.48748 0
M  V30 3052 H 307.173 2.12499 1.40414 0
M  V30 3053 H 307.956 3.41588 0.342428 0
M  V30 3054 N 310.401 -0.613514 1.45168 0
M  V30 3055 C 311.331 -1.7354 1.56225 0
M  V30 3056 C 312.312 -1.64981 0.41414 0
M  V30 3057 O 313.497 -1.83472 0.636526 0
M  V30 3058 C 310.627 -3.12128 1.52295 0
M  V30 3059 C 309.581 -3.35491 2.65762 0
M  V30 3060 C 308.907 -4.74291 2.46885 0
M  V30 3061 C 310.207 -3.26325 4.0781 0
M  V30 3062 H 311.901 -1.64543 2.50132 0
M  V30 3063 H 309.447 -0.790185 1.20383 0
M  V30 3064 H 311.4 -3.90404 1.58628 0
M  V30 3065 H 310.124 -3.2195 0.549139 0
M  V30 3066 H 308.783 -2.59603 2.58847 0
M  V30 3067 H 308.431 -4.80839 1.47657 0
M  V30 3068 H 308.131 -4.9088 3.22972 0
M  V30 3069 H 309.655 -5.54775 2.55063 0
M  V30 3070 H 311.069 -3.94483 4.16 0
M  V30 3071 H 309.466 -3.54445 4.8424 0
M  V30 3072 H 310.536 -2.23855 4.30136 0
M  V30 3073 N 311.879 -1.3236 -0.855495 0
M  V30 3074 C 313.127 -1.22629 -1.60644 0
M  V30 3075 C 313.448 0.212136 -1.93843 0
M  V30 3076 O 312.718 1.13666 -1.59552 0
M  V30 3077 H 311.298 -0.450882 -0.595579 0
M  V30 3078 H 313.96 -1.65871 -1.02337 0
M  V30 3079 H 313.056 -1.80832 -2.54374 0
M  V30 3080 N 313.357 1.07166 -1.15556 0
M  V30 3081 C 314.603 1.80222 -0.942961 0
M  V30 3082 C 314.958 1.85121 0.524209 0
M  V30 3083 O 314.251 1.32531 1.38369 0
M  V30 3084 C 314.445 3.24707 -1.49332 0
M  V30 3085 C 314.274 3.33887 -3.01247 0
M  V30 3086 C 313.044 3.44337 -3.69811 0
M  V30 3087 C 315.242 3.24484 -3.99017 0
M  V30 3088 N 313.224 3.42439 -5.09518 0
M  V30 3089 C 314.595 3.29726 -5.25053 0
M  V30 3090 C 316.65 3.08307 -3.90962 0
M  V30 3091 C 315.353 3.20455 -6.43973 0
M  V30 3092 C 317.379 3.00371 -5.09442 0
M  V30 3093 C 316.741 3.06227 -6.34354 0
M  V30 3094 H 312.84 0.672709 -0.398731 0
M  V30 3095 H 315.424 1.27905 -1.46794 0
M  V30 3096 H 313.595 3.7544 -0.994946 0
M  V30 3097 H 315.327 3.85894 -1.21935 0
M  V30 3098 H 312.082 3.48762 -3.20409 0
M  V30 3099 H 312.506 3.45013 -5.8249 0
M  V30 3100 H 317.148 3.02633 -2.95251 0
M  V30 3101 H 314.866 3.24888 -7.39914 0
M  V30 3102 H 318.452 2.88955 -5.04971 0
M  V30 3103 H 317.332 3.00132 -7.24493 0
M  V30 3104 N 314.835 0.952656 1.25548 0
M  V30 3105 C 315.767 0.428609 2.25157 0
M  V30 3106 C 316.78 -0.454428 1.56329 0
M  V30 3107 O 317.969 -0.263023 1.76552 0
M  V30 3108 C 315.069 -0.401972 3.36508 0
M  V30 3109 C 314.242 0.467601 4.34893 0
M  V30 3110 C 313.301 -0.30445 5.25319 0
M  V30 3111 O 312.327 0.296473 5.68427 0
M  V30 3112 N 313.529 -1.59805 5.5807 0
M  V30 3113 H 316.294 1.28497 2.70756 0
M  V30 3114 H 313.855 0.822798 1.39433 0
M  V30 3115 H 315.847 -0.926134 3.9396 0
M  V30 3116 H 314.417 -1.15918 2.90313 0
M  V30 3117 H 313.637 1.17288 3.76347 0
M  V30 3118 H 314.925 1.06119 4.97611 0
M  V30 3119 H 314.323 -2.10823 5.24948 0
M  V30 3120 H 312.88 -2.06822 6.18116 0
M  V30 3121 N 316.313 -1.40141 0.720998 0
M  V30 3122 C 317.561 -2.0039 0.262323 0
M  V30 3123 C 317.882 -1.57469 -1.15015 0
M  V30 3124 O 317.152 -0.816582 -1.78069 0
M  V30 3125 H 315.732 -0.741063 0.093996 0
M  V30 3126 H 318.394 -1.71398 0.927835 0
M  V30 3127 H 317.49 -3.10658 0.299671 0
M  V30 3128 N 317.792 -0.46758 -1.50504 0
M  V30 3129 C 318.724 0.364655 -2.26281 0
M  V30 3130 C 319.737 0.960151 -1.31472 0
M  V30 3131 O 320.926 0.849153 -1.57008 0
M  V30 3132 C 318.026 1.52509 -3.02645 0
M  V30 3133 C 317.199 1.04302 -4.24782 0
M  V30 3134 C 316.258 2.07709 -4.8347 0
M  V30 3135 O 315.284 1.65913 -5.44483 0
M  V30 3136 N 316.486 3.40485 -4.70159 0
M  V30 3137 H 319.251 -0.28495 -2.98342 0
M  V30 3138 H 316.812 -0.298163 -1.59131 0
M  V30 3139 H 318.804 2.21371 -3.38787 0
M  V30 3140 H 317.374 2.07945 -2.33404 0
M  V30 3141 H 316.594 0.180393 -3.93787 0
M  V30 3142 H 317.882 0.698798 -5.03978 0
M  V30 3143 H 317.28 3.77155 -4.21629 0
M  V30 3144 H 315.837 4.05156 -5.1058 0
M  V30 3145 N 319.27 1.56325 -0.20005 0
M  V30 3146 C 320.681 1.8408 0.31167 0
M  V30 3147 C 321.032 1.12087 1.61031 0
M  V30 3148 O 320.157 0.38332 2.12978 0
M  V30 3149 C 320.752 3.33932 0.57226 0
M  V30 3150 C 319.311 3.6208 1.02834 0
M  V30 3151 C 318.458 2.77186 0.079634 0
M  V30 3152 H 321.409 1.52939 -0.423729 0
M  V30 3153 H 321.43 3.52971 1.42096 0
M  V30 3154 H 320.942 3.86303 -0.37308 0
M  V30 3155 H 319.043 3.15147 1.98778 0
M  V30 3156 H 319.156 4.7023 0.917624 0
M  V30 3157 H 317.52 2.47951 0.582448 0
M  V30 3158 H 318.303 3.32347 -0.860238 0
M  V30 3159 N 320.748 -0.0735177 1.57428 0
M  V30 3160 C 321.994 -0.774145 1.87443 0
M  V30 3161 C 322.327 -1.77311 0.792103 0
M  V30 3162 O 321.602 -1.93492 -0.197793 0
M  V30 3163 C 321.885 -1.48367 3.28115 0
M  V30 3164 C 321.738 -0.501227 4.46999 0
M  V30 3165 C 323.057 -2.429 3.66998 0
M  V30 3166 H 320.176 -0.279971 0.681752 0
M  V30 3167 H 322.818 -0.0373616 1.89963 0
M  V30 3168 H 320.968 -2.11171 3.26097 0
M  V30 3169 H 322.64 0.121468 4.6114 0
M  V30 3170 H 320.883 0.183593 4.33411 0
M  V30 3171 H 321.554 -1.03526 5.42205 0
M  V30 3172 H 324.03 -1.90175 3.70098 0
M  V30 3173 H 322.906 -2.89549 4.66318 0
M  V30 3174 H 323.167 -3.27628 2.96837 0
M  V30 3175 N 322.226 -1.5378 -0.344866 0
M  V30 3176 C 323.456 -1.74646 -1.10374 0
M  V30 3177 C 323.864 -0.48491 -1.8288 0
M  V30 3178 O 323.207 0.553062 -1.75177 0
M  V30 3179 C 323.269 -2.87145 -2.16306 0
M  V30 3180 C 322.933 -4.26795 -1.63386 0
M  V30 3181 C 323.93 -5.08412 -1.08688 0
M  V30 3182 C 321.615 -4.73276 -1.68272 0
M  V30 3183 C 323.609 -6.34609 -0.595792 0
M  V30 3184 C 321.296 -5.99446 -1.18776 0
M  V30 3185 C 322.294 -6.79946 -0.645215 0
M  V30 3186 O 321.982 -8.03745 -0.157626 0
M  V30 3187 H 321.714 -0.587112 -0.335075 0
M  V30 3188 H 324.268 -2.01403 -0.403252 0
M  V30 3189 H 322.498 -2.55909 -2.89909 0
M  V30 3190 H 324.187 -2.95992 -2.77747 0
M  V30 3191 H 324.953 -4.73666 -1.04236 0
M  V30 3192 H 320.832 -4.10677 -2.09442 0
M  V30 3193 H 324.376 -6.97389 -0.171654 0
M  V30 3194 H 320.273 -6.33687 -1.22928 0
M  V30 3195 H 321.041 -8.18038 -0.275037 0
M  V30 3196 N 323.704 0.605807 -1.45491 0
M  V30 3197 C 325.115 1.18777 -1.44045 0
M  V30 3198 C 325.466 1.95471 -0.169001 0
M  V30 3199 O 324.591 2.0374 0.729324 0
M  V30 3200 C 325.186 2.16064 -2.60963 0
M  V30 3201 C 323.745 2.69633 -2.62631 0
M  V30 3202 C 322.892 1.45072 -2.36325 0
M  V30 3203 H 325.843 0.395017 -1.53705 0
M  V30 3204 H 325.864 2.9913 -2.35163 0
M  V30 3205 H 325.376 1.60217 -3.53486 0
M  V30 3206 H 323.477 3.29414 -1.74119 0
M  V30 3207 H 323.59 3.13944 -3.61906 0
M  V30 3208 H 321.954 1.74089 -1.85917 0
M  V30 3209 H 322.737 0.910899 -3.30995 0
M  V30 3210 N 325.182 1.32811 0.848464 0
M  V30 3211 C 326.431 1.23075 1.59798 0
M  V30 3212 C 326.744 -0.204419 1.94529 0
M  V30 3213 O 327.95 -0.423701 2.68173 0
M  V30 3214 C 326.406 2.15594 2.88179 0
M  V30 3215 C 326.014 3.64228 2.60849 0
M  V30 3216 C 327.758 2.14709 3.66197 0
M  V30 3217 C 325.665 4.48689 3.85269 0
M  V30 3218 H 324.595 0.457091 0.599653 0
M  V30 3219 H 327.246 1.57813 0.936342 0
M  V30 3220 H 325.628 1.73778 3.55833 0
M  V30 3221 H 326.802 4.14424 2.01467 0
M  V30 3222 H 325.117 3.67306 1.96151 0
M  V30 3223 H 327.714 2.75046 4.58534 0
M  V30 3224 H 328.057 1.13966 4.00397 0
M  V30 3225 H 328.59 2.54837 3.05455 0
M  V30 3226 H 325.329 5.5027 3.56207 0
M  V30 3227 H 324.849 4.03241 4.44024 0
M  V30 3228 H 326.528 4.62006 4.52946 0
M  V30 3229 N 326.66 -1.06551 1.16123 0
M  V30 3230 C 327.888 -1.83005 0.965237 0
M  V30 3231 C 328.303 -1.82423 -0.486542 0
M  V30 3232 O 327.66 -1.24152 -1.33763 0
M  V30 3233 C 327.711 -3.29733 1.48183 0
M  V30 3234 O 327.432 -3.30416 2.87674 0
M  V30 3235 C 328.933 -4.22926 1.32848 0
M  V30 3236 H 326.153 -0.577118 0.342309 0
M  V30 3237 H 328.697 -1.3445 1.54089 0
M  V30 3238 H 326.852 -3.75609 0.948517 0
M  V30 3239 H 327.266 -4.22149 3.11272 0
M  V30 3240 H 328.74 -5.23916 1.73827 0
M  V30 3241 H 329.217 -4.38346 0.273692 0
M  V30 3242 H 329.823 -3.82894 1.85127 0
M  V30 3243 N 328.138 -0.959301 -1.25041 0
M  V30 3244 C 329.386 -0.615393 -1.92503 0
M  V30 3245 C 329.707 0.850969 -1.75452 0
M  V30 3246 O 328.977 1.60658 -1.12098 0
M  V30 3247 H 327.557 -0.224613 -0.712431 0
M  V30 3248 H 330.219 -1.21855 -1.5211 0
M  V30 3249 H 329.315 -0.848738 -3.00338 0
M  V30 3250 N 329.616 1.39756 -0.72842 0
M  V30 3251 C 330.864 2.00248 -0.272946 0
M  V30 3252 C 331.185 1.58077 1.14178 0
M  V30 3253 O 330.455 0.826014 1.77634 0
M  V30 3254 H 329.035 0.740554 -0.0979247 0
M  V30 3255 H 331.697 1.70903 -0.936912 0
M  V30 3256 H 330.793 3.10495 -0.316142 0
M  V30 3257 N 331.094 0.475555 1.50254 0
M  V30 3258 C 332.341 -0.0778919 2.0235 0
M  V30 3259 C 332.669 -1.39319 1.35722 0
M  V30 3260 O 331.924 -1.89888 0.473395 0
M  V30 3261 C 332.223 -0.305114 3.56095 0
M  V30 3262 C 331.889 0.92903 4.41225 0
M  V30 3263 C 330.551 1.26739 4.6421 0
M  V30 3264 C 332.903 1.75054 4.90923 0
M  V30 3265 C 330.231 2.42724 5.34137 0
M  V30 3266 C 332.583 2.9017 5.62125 0
M  V30 3267 C 331.247 3.24416 5.83362 0
M  V30 3268 H 330.517 -0.0285027 0.740452 0
M  V30 3269 H 333.164 0.630543 1.80821 0
M  V30 3270 H 331.469 -1.09584 3.76163 0
M  V30 3271 H 333.166 -0.747377 3.93974 0
M  V30 3272 H 329.756 0.655428 4.23559 0
M  V30 3273 H 333.94 1.50231 4.73016 0
M  V30 3274 H 329.196 2.69525 5.48786 0
M  V30 3275 H 333.37 3.54169 5.99614 0
M  V30 3276 H 330.997 4.14396 6.37323 0
M  V30 3277 N 332.573 -1.56217 0.208337 0
M  V30 3278 C 333.989 -1.58919 -0.14729 0
M  V30 3279 C 334.189 -1.22486 -1.59998 0
M  V30 3280 O 333.245 -0.953849 -2.3379 0
M  V30 3281 C 334.558 -3.00236 0.167048 0
M  V30 3282 C 336.106 -3.12813 0.108219 0
M  V30 3283 C 336.581 -4.56284 0.396049 0
M  V30 3284 N 338.072 -4.61912 0.345142 0
M  V30 3285 C 338.807 -5.70837 0.541523 0
M  V30 3286 N 338.303 -6.88178 0.798968 0
M  V30 3287 N 340.096 -5.60091 0.474867 0
M  V30 3288 H 332.247 -1.78177 1.15614 0
M  V30 3289 H 334.51 -0.827555 0.462446 0
M  V30 3290 H 334.216 -3.31499 1.1748 0
M  V30 3291 H 334.09 -3.7354 -0.524184 0
M  V30 3292 H 336.477 -2.81354 -0.890157 0
M  V30 3293 H 336.558 -2.41866 0.832729 0
M  V30 3294 H 336.202 -4.88458 1.3918 0
M  V30 3295 H 336.132 -5.25439 -0.349502 0
M  V30 3296 H 338.623 -3.77589 0.153316 0
M  V30 3297 H 338.936 -7.67095 0.93727 0
M  V30 3298 H 337.281 -6.89953 0.836013 0
M  V30 3299 H 340.472 -4.67297 0.274064 0
M  V30 3300 H 340.645 -6.44917 0.631326 0
M  V30 3301 N 334.051 0.0651679 -1.57465 0
M  V30 3302 C 334.983 1.10359 -2.00882 0
M  V30 3303 C 335.996 1.346 -0.915788 0
M  V30 3304 O 337.185 1.32723 -1.1936 0
M  V30 3305 C 334.285 2.45312 -2.33828 0
M  V30 3306 C 333.458 2.40934 -3.65061 0
M  V30 3307 C 332.517 3.58047 -3.85602 0
M  V30 3308 O 331.543 3.39175 -4.57109 0
M  V30 3309 N 332.745 4.78637 -3.28462 0
M  V30 3310 H 335.51 0.733807 -2.90578 0
M  V30 3311 H 333.071 0.253719 -1.599 0
M  V30 3312 H 335.063 3.22314 -2.44737 0
M  V30 3313 H 333.633 2.74267 -1.49988 0
M  V30 3314 H 332.853 1.49273 -3.64844 0
M  V30 3315 H 334.141 2.35117 -4.51218 0
M  V30 3316 H 333.539 4.96872 -2.70433 0
M  V30 3317 H 332.096 5.53127 -3.44809 0
M  V30 3318 N 335.529 1.53961 0.336706 0
M  V30 3319 C 336.94 1.62914 0.911925 0
M  V30 3320 C 337.291 0.514795 1.89326 0
M  V30 3321 O 336.416 -0.354395 2.13478 0
M  V30 3322 C 337.011 2.95304 1.66076 0
M  V30 3323 C 335.57 3.06496 2.18489 0
M  V30 3324 C 334.717 2.58403 1.00613 0
M  V30 3325 H 337.668 1.58285 0.114649 0
M  V30 3326 H 337.689 2.84727 2.5241 0
M  V30 3327 H 337.201 3.76387 0.946276 0
M  V30 3328 H 335.302 2.3006 2.93092 0
M  V30 3329 H 335.415 4.1208 2.44391 0
M  V30 3330 H 333.779 2.13977 1.38152 0
M  V30 3331 H 334.562 3.41932 0.306179 0
M  V30 3332 N 337.007 -0.598083 1.45811 0
M  V30 3333 C 338.237 -1.38121 1.53643 0
M  V30 3334 C 338.645 -1.88425 0.171081 0
M  V30 3335 O 337.988 -1.63409 -0.839237 0
M  V30 3336 C 338.05 -2.61432 2.46766 0
M  V30 3337 C 337.714 -2.32702 3.93318 0
M  V30 3338 C 338.711 -1.92479 4.82957 0
M  V30 3339 C 336.396 -2.45321 4.38318 0
M  V30 3340 C 338.39 -1.65248 6.15607 0
M  V30 3341 C 336.077 -2.17703 5.71007 0
M  V30 3342 C 337.075 -1.7773 6.5947 0
M  V30 3343 O 336.763 -1.50441 7.89698 0
M  V30 3344 H 336.495 -0.428863 0.522544 0
M  V30 3345 H 339.049 -0.73557 1.91777 0
M  V30 3346 H 337.279 -3.28749 2.0362 0
M  V30 3347 H 338.968 -3.23487 2.45175 0
M  V30 3348 H 339.734 -1.82258 4.49452 0
M  V30 3349 H 335.613 -2.75399 3.69697 0
M  V30 3350 H 339.157 -1.33973 6.84614 0
M  V30 3351 H 335.054 -2.27544 6.04065 0
M  V30 3352 H 335.822 -1.64415 8.01817 0
M  V30 3353 N 338.485 -1.33259 -0.841409 0
M  V30 3354 C 339.896 -1.22066 -1.41269 0
M  V30 3355 C 340.247 0.161479 -1.95534 0
M  V30 3356 O 339.372 1.06094 -1.88608 0
M  V30 3357 C 339.967 -2.20996 -2.568 0
M  V30 3358 C 338.526 -2.13649 -3.09888 0
M  V30 3359 C 337.673 -2.08623 -1.82679 0
M  V30 3360 H 340.624 -1.44895 -0.647395 0
M  V30 3361 H 340.645 -1.81621 -3.34356 0
M  V30 3362 H 340.157 -3.2158 -2.17274 0
M  V30 3363 H 338.258 -1.16359 -3.53965 0
M  V30 3364 H 338.371 -3.04079 -3.70234 0
M  V30 3365 H 336.735 -1.54061 -2.02824 0
M  V30 3366 H 337.518 -3.1101 -1.45353 0
M  V30 3367 N 339.963 1.05934 -1.16686 0
M  V30 3368 C 341.188 1.83029 -0.975455 0
M  V30 3369 C 341.613 1.82096 0.471452 0
M  V30 3370 O 340.971 1.22443 1.33706 0
M  V30 3371 C 341.019 3.27372 -1.51195 0
M  V30 3372 O 340.123 4.06054 -0.720701 0
M  V30 3373 H 339.464 0.566194 -0.346872 0
M  V30 3374 H 341.994 1.33541 -1.55009 0
M  V30 3375 H 342.004 3.78186 -1.53099 0
M  V30 3376 H 340.679 3.27366 -2.56523 0
M  V30 3377 H 339.256 3.64812 -0.772458 0
M  V30 3378 N 341.441 0.965919 1.2453 0
M  V30 3379 C 342.666 0.643971 1.97149 0
M  V30 3380 C 343.091 -0.779487 1.71189 0
M  V30 3381 O 342.449 -1.5288 0.974553 0
M  V30 3382 C 342.497 0.922557 3.48599 0
M  V30 3383 O 341.601 0.00707672 4.12399 0
M  V30 3384 H 340.942 0.243647 0.617683 0
M  V30 3385 H 343.472 1.29558 1.58353 0
M  V30 3386 H 343.482 0.853373 3.98976 0
M  V30 3387 H 342.157 1.95996 3.66822 0
M  V30 3388 H 340.734 0.12943 3.72675 0
M  V30 3389 N 342.919 -1.39368 0.735821 0
M  V30 3390 C 343.849 -2.33234 0.111506 0
M  V30 3391 C 344.83 -1.53954 -0.723334 0
M  V30 3392 O 346.015 -1.82344 -0.668147 0
M  V30 3393 C 343.145 -3.38057 -0.795917 0
M  V30 3394 C 342.099 -4.2795 -0.065172 0
M  V30 3395 C 341.425 -5.23479 -1.08967 0
M  V30 3396 C 342.725 -5.10741 1.09273 0
M  V30 3397 H 344.419 -2.85692 0.895571 0
M  V30 3398 H 341.965 -1.37364 0.432109 0
M  V30 3399 H 343.918 -4.02675 -1.24221 0
M  V30 3400 H 342.642 -2.8404 -1.61211 0
M  V30 3401 H 341.301 -3.64813 0.361511 0
M  V30 3402 H 340.949 -4.65758 -1.89944 0
M  V30 3403 H 340.649 -5.84472 -0.605489 0
M  V30 3404 H 342.173 -5.90974 -1.53565 0
M  V30 3405 H 343.587 -5.68699 0.724841 0
M  V30 3406 H 341.984 -5.8088 1.50659 0
M  V30 3407 H 343.054 -4.45525 1.91404 0
M  V30 3408 N 344.397 -0.483516 -1.5 0
M  V30 3409 C 345.622 0.0667119 -2.07293 0
M  V30 3410 C 346.047 1.3164 -1.3436 0
M  V30 3411 O 345.405 1.76945 -0.394987 0
M  V30 3412 C 345.453 0.321126 -3.59167 0
M  V30 3413 O 344.557 1.39927 -3.87936 0
M  V30 3414 H 343.898 -0.0184758 -0.663743 0
M  V30 3415 H 346.428 -0.678125 -1.93035 0
M  V30 3416 H 346.438 0.557906 -4.04168 0
M  V30 3417 H 345.113 -0.592007 -4.11665 0
M  V30 3418 H 343.69 1.14882 -3.54763 0
M  V30 3419 N 345.875 1.56104 -0.216619 0
M  V30 3420 C 347.121 1.98466 0.417033 0
M  V30 3421 C 347.454 1.10403 1.59765 0
M  V30 3422 O 346.729 0.160632 1.93836 0
M  V30 3423 C 347.012 3.49769 0.85637 0
M  V30 3424 C 346.865 4.48606 -0.327546 0
M  V30 3425 C 348.184 4.05339 1.7143 0
M  V30 3426 H 345.303 0.721551 0.150112 0
M  V30 3427 H 347.945 1.87423 -0.311864 0
M  V30 3428 H 346.095 3.5931 1.47745 0
M  V30 3429 H 347.767 4.5108 -0.965618 0
M  V30 3430 H 346.01 4.22682 -0.975805 0
M  V30 3431 H 346.681 5.51995 0.0227149 0
M  V30 3432 H 349.157 3.98712 1.19031 0
M  V30 3433 H 348.033 5.11533 1.99061 0
M  V30 3434 H 348.294 3.51918 2.67593 0
M  V30 3435 N 347.353 -0.0568162 1.57498 0
M  V30 3436 C 348.63 -0.786954 1.79071 0
M  V30 3437 C 349.01 -1.95028 0.80792 0
M  V30 3438 O 348.358 -2.27968 -0.155858 0
M  V30 3439 C 348.568 -1.24594 3.26002 0
M  V30 3440 C 349.916 -1.67323 3.90241 0
M  V30 3441 O 350.94 -1.34124 3.29984 0
M  V30 3442 O 349.799 -2.28842 4.9628 0
M  V30 3443 H 346.893 -0.378262 0.735423 0
M  V30 3444 H 349.439 -0.035734 1.69662 0
M  V30 3445 H 348.211 -0.41423 3.89101 0
M  V30 3446 H 347.834 -2.05803 3.40192 0
M  V30 3447 N 348.832 -1.54138 -0.328536 0
M  V30 3448 C 350.06 -1.76062 -1.08673 0
M  V30 3449 C 350.475 -0.506852 -1.81869 0
M  V30 3450 O 349.832 0.522223 -1.74869 0
M  V30 3451 C 349.883 -2.95054 -2.08866 0
M  V30 3452 O 349.604 -4.15583 -1.38644 0
M  V30 3453 C 351.105 -3.2915 -2.96943 0
M  V30 3454 H 348.325 -0.587889 -0.323461 0
M  V30 3455 H 350.869 -2.0101 -0.376175 0
M  V30 3456 H 349.024 -2.72394 -2.75464 0
M  V30 3457 H 349.438 -4.82481 -2.05699 0
M  V30 3458 H 350.912 -4.15723 -3.63151 0
M  V30 3459 H 351.389 -2.461 -3.63774 0
M  V30 3460 H 351.995 -3.53871 -2.35914 0
M  V30 3461 N 350.31 0.590341 -1.46126 0
M  V30 3462 C 351.535 1.37991 -1.54833 0
M  V30 3463 C 351.96 1.87163 -0.187506 0
M  V30 3464 O 351.318 1.61133 0.831008 0
M  V30 3465 C 351.366 2.54867 -2.55098 0
M  V30 3466 O 350.47 3.56061 -2.08073 0
M  V30 3467 H 349.811 0.411265 -0.521303 0
M  V30 3468 H 352.341 0.716819 -1.91632 0
M  V30 3469 H 352.351 3.01886 -2.74461 0
M  V30 3470 H 351.026 2.18429 -3.53923 0
M  V30 3471 H 349.603 3.15574 -1.98664 0
M  V30 3472 N 351.788 1.33704 0.83433 0
M  V30 3473 C 352.721 1.18675 1.94914 0
M  V30 3474 C 353.699 0.0811145 1.62398 0
M  V30 3475 O 354.883 0.244186 1.86912 0
M  V30 3476 C 352.01 0.821231 3.28593 0
M  V30 3477 C 351.056 1.93501 3.80079 0
M  V30 3478 S 351.889 3.54671 4.01209 0
M  V30 3479 C 353.045 3.20136 5.37833 0
M  V30 3480 H 353.278 2.13043 2.07364 0
M  V30 3481 H 350.811 1.18598 0.988624 0
M  V30 3482 H 352.769 0.617123 4.05835 0
M  V30 3483 H 351.43 -0.103927 3.13928 0
M  V30 3484 H 350.623 1.63273 4.76821 0
M  V30 3485 H 350.225 2.09601 3.09747 0
M  V30 3486 H 352.517 2.71242 6.20833 0
M  V30 3487 H 353.46 4.15975 5.73036 0
M  V30 3488 H 353.868 2.56613 5.02802 0
M  V30 3489 N 353.266 -1.05314 1.17247 0
M  V30 3490 C 354.491 -1.82509 0.985148 0
M  V30 3491 C 354.916 -1.82343 -0.461788 0
M  V30 3492 O 354.274 -1.23151 -1.33055 0
M  V30 3493 C 354.322 -3.26566 1.52929 0
M  V30 3494 O 353.426 -4.05666 0.742225 0
M  V30 3495 H 352.767 -0.564347 0.349869 0
M  V30 3496 H 355.297 -1.32718 1.55715 0
M  V30 3497 H 355.307 -3.77369 1.55103 0
M  V30 3498 H 353.982 -3.26001 2.58256 0
M  V30 3499 H 352.559 -3.64397 0.791794 0
M  V30 3500 N 354.744 -0.972509 -1.24016 0
M  V30 3501 C 356.16 -0.679827 -1.44397 0
M  V30 3502 C 356.36 0.756716 -1.86751 0
M  V30 3503 O 355.416 1.53007 -2.00861 0
M  V30 3504 C 356.729 -1.66803 -2.50195 0
M  V30 3505 C 358.277 -1.68119 -2.64017 0
M  V30 3506 C 358.752 -2.65748 -3.73017 0
M  V30 3507 N 360.243 -2.64219 -3.8045 0
M  V30 3508 C 360.978 -3.36433 -4.64328 0
M  V30 3509 N 360.474 -4.1818 -5.52356 0
M  V30 3510 N 362.267 -3.25235 -4.58453 0
M  V30 3511 H 354.418 -1.90059 -0.948228 0
M  V30 3512 H 356.681 -0.818527 -0.478245 0
M  V30 3513 H 356.387 -2.69498 -2.25973 0
M  V30 3514 H 356.261 -1.4446 -3.48441 0
M  V30 3515 H 358.648 -0.661319 -2.87594 0
M  V30 3516 H 358.729 -1.94525 -1.66113 0
M  V30 3517 H 358.373 -3.67872 -3.50189 0
M  V30 3518 H 358.303 -2.36619 -4.70446 0
M  V30 3519 H 360.794 -2.04887 -3.17537 0
M  V30 3520 H 361.107 -4.70157 -6.13329 0
M  V30 3521 H 359.452 -4.22273 -5.52006 0
M  V30 3522 H 362.643 -2.60829 -3.88698 0
M  V30 3523 H 362.816 -3.81776 -5.23594 0
M  V30 3524 N 356.222 1.38976 -0.743202 0
M  V30 3525 C 357.469 2.00343 -0.294752 0
M  V30 3526 C 357.797 1.58983 1.12047 0
M  V30 3527 O 357.052 0.813809 1.77977 0
M  V30 3528 C 357.351 3.55647 -0.353517 0
M  V30 3529 C 357.017 4.16685 -1.72292 0
M  V30 3530 C 355.679 4.3307 -2.09771 0
M  V30 3531 C 358.031 4.50464 -2.62168 0
M  V30 3532 C 355.359 4.80526 -3.36618 0
M  V30 3533 C 357.711 4.99332 -3.88395 0
M  V30 3534 C 356.375 5.13924 -4.25956 0
M  V30 3535 H 355.645 0.733108 -0.107857 0
M  V30 3536 H 358.292 1.6618 -0.951651 0
M  V30 3537 H 356.597 3.89884 0.386954 0
M  V30 3538 H 358.294 4.00998 0.0117269 0
M  V30 3539 H 354.884 4.04339 -1.42155 0
M  V30 3540 H 359.068 4.37416 -2.3448 0
M  V30 3541 H 354.324 4.90008 -3.65653 0
M  V30 3542 H 358.498 5.2444 -4.58187 0
M  V30 3543 H 356.125 5.50457 -5.2431 0
M  V30 3544 N 357.7 0.491464 1.49741 0
M  V30 3545 C 358.925 -0.0557177 2.07325 0
M  V30 3546 C 359.35 -1.30925 1.35056 0
M  V30 3547 O 358.708 -1.76733 0.404365 0
M  V30 3548 C 358.756 -0.302074 3.59333 0
M  V30 3549 O 357.86 -1.37868 3.88672 0
M  V30 3550 H 357.201 0.0219956 0.663636 0
M  V30 3551 H 359.731 0.688352 1.92673 0
M  V30 3552 H 359.741 -0.536464 4.04458 0
M  V30 3553 H 358.416 0.61383 4.11345 0
M  V30 3554 H 356.993 -1.12999 3.55367 0
M  V30 3555 N 359.178 -1.55987 0.224894 0
M  V30 3556 C 360.128 -2.17076 -0.697296 0
M  V30 3557 C 361.112 -1.12006 -1.15514 0
M  V30 3558 O 362.304 -1.37985 -1.10857 0
M  V30 3559 C 359.433 -2.85679 -1.90374 0
M  V30 3560 C 358.519 -3.97977 -1.46543 0
M  V30 3561 N 358.91 -5.00359 -0.739909 0
M  V30 3562 C 357.208 -4.10128 -1.75245 0
M  V30 3563 C 357.909 -5.79407 -0.515939 0
M  V30 3564 N 356.885 -5.32892 -1.07364 0
M  V30 3565 H 360.687 -2.93592 -0.134594 0
M  V30 3566 H 358.201 -1.62379 0.0262885 0
M  V30 3567 H 360.198 -3.27857 -2.57518 0
M  V30 3568 H 358.858 -2.1066 -2.47088 0
M  V30 3569 H 359.869 -5.16412 -0.392253 0
M  V30 3570 H 356.546 -3.46263 -2.33255 0
M  V30 3571 H 357.936 -6.71872 0.0617349 0
M  V30 3572 N 360.656 0.0484629 -1.57525 0
M  V30 3573 C 361.606 1.06246 -2.01732 0
M  V30 3574 C 362.59 1.33155 -0.903245 0
M  V30 3575 O 363.782 1.33065 -1.16717 0
M  V30 3576 C 360.911 2.36943 -2.48421 0
M  V30 3577 C 359.997 2.13208 -3.6661 0
M  V30 3578 N 360.388 1.5947 -4.80003 0
M  V30 3579 C 358.686 2.43581 -3.7361 0
M  V30 3580 C 359.387 1.51092 -5.61735 0
M  V30 3581 N 358.363 1.9797 -5.0627 0
M  V30 3582 H 362.165 0.640675 -2.86832 0
M  V30 3583 H 359.679 0.255134 -1.60383 0
M  V30 3584 H 361.676 3.10374 -2.78341 0
M  V30 3585 H 360.336 2.79818 -1.64718 0
M  V30 3586 H 361.347 1.28008 -5.01831 0
M  V30 3587 H 358.024 2.89662 -3.00669 0
M  V30 3588 H 359.414 1.10199 -6.62801 0
M  V30 3589 N 362.134 1.5431 0.320358 0
M  V30 3590 C 363.067 1.78769 1.41834 0
M  V30 3591 C 364.045 0.63783 1.49568 0
M  V30 3592 O 365.229 0.875628 1.66928 0
M  V30 3593 C 362.356 1.90712 2.79905 0
M  V30 3594 C 361.402 3.13023 2.89687 0
M  V30 3595 S 362.235 4.71554 2.53766 0
M  V30 3596 C 363.391 4.86408 3.93902 0
M  V30 3597 H 363.624 2.71619 1.20874 0
M  V30 3598 H 361.157 1.45474 0.517377 0
M  V30 3599 H 363.115 1.98279 3.59438 0
M  V30 3600 H 361.776 0.988343 2.98145 0
M  V30 3601 H 360.969 3.18124 3.90913 0
M  V30 3602 H 360.571 3.03803 2.18128 0
M  V30 3603 H 362.863 4.69241 4.88691 0
M  V30 3604 H 363.806 5.88508 3.93782 0
M  V30 3605 H 364.214 4.14689 3.83005 0
M  V30 3606 N 363.613 -0.582584 1.46437 0
M  V30 3607 C 364.862 -1.337 1.5102 0
M  V30 3608 C 365.175 -1.94891 0.166359 0
M  V30 3609 O 366.381 -2.71351 0.0899954 0
M  V30 3610 C 364.837 -2.42315 2.66104 0
M  V30 3611 C 364.445 -1.87427 4.06909 0
M  V30 3612 C 366.189 -3.19099 2.79958 0
M  V30 3613 C 364.096 -2.93672 5.13333 0
M  V30 3614 H 363.026 -0.502619 0.562041 0
M  V30 3615 H 365.677 -0.621701 1.72647 0
M  V30 3616 H 364.059 -3.16645 2.37807 0
M  V30 3617 H 365.233 -1.19639 4.44998 0
M  V30 3618 H 363.548 -1.2331 3.97723 0
M  V30 3619 H 366.145 -3.9839 3.56636 0
M  V30 3620 H 366.488 -3.71695 1.87479 0
M  V30 3621 H 367.021 -2.51875 3.07902 0
M  V30 3622 H 363.76 -2.45962 6.07604 0
M  V30 3623 H 363.28 -3.59948 4.79789 0
M  V30 3624 H 364.959 -3.5762 5.39182 0
M  V30 3625 N 365.091 -1.34144 -0.827227 0
M  V30 3626 C 366.502 -1.23557 -1.39966 0
M  V30 3627 C 366.853 0.140731 -1.95695 0
M  V30 3628 O 365.978 1.04087 -1.89723 0
M  V30 3629 C 366.573 -2.23708 -2.54441 0
M  V30 3630 C 365.132 -2.16924 -3.07605 0
M  V30 3631 C 364.279 -2.10549 -1.80456 0
M  V30 3632 H 367.23 -1.45573 -0.631991 0
M  V30 3633 H 367.251 -1.85157 -3.32411 0
M  V30 3634 H 366.763 -3.23866 -2.13851 0
M  V30 3635 H 364.864 -1.20107 -3.52711 0
M  V30 3636 H 364.977 -3.07988 -3.66988 0
M  V30 3637 H 363.341 -1.56203 -2.01178 0
M  V30 3638 H 364.124 -3.12535 -1.42046 0
M  V30 3639 N 366.569 1.04691 -1.17803 0
M  V30 3640 C 367.817 1.7743 -0.967617 0
M  V30 3641 C 368.138 1.88359 0.504574 0
M  V30 3642 O 367.408 1.40402 1.36617 0
M  V30 3643 H 365.988 0.657242 -0.355024 0
M  V30 3644 H 368.65 1.2638 -1.48371 0
M  V30 3645 H 367.746 2.78924 -1.40027 0
M  V30 3646 N 368.047 0.979072 1.23499 0
M  V30 3647 C 369.458 0.684391 1.73704 0
M  V30 3648 C 369.809 -0.799448 1.79174 0
M  V30 3649 O 368.934 -1.62531 1.42873 0
M  V30 3650 C 369.529 1.23564 3.15464 0
M  V30 3651 C 368.088 0.99063 3.6313 0
M  V30 3652 C 367.235 1.36416 2.41425 0
M  V30 3653 H 370.186 1.15307 1.09041 0
M  V30 3654 H 370.207 0.607417 3.7562 0
M  V30 3655 H 369.719 2.31561 3.1145 0
M  V30 3656 H 367.82 -0.0733136 3.72528 0
M  V30 3657 H 367.933 1.64427 4.5 0
M  V30 3658 H 366.297 0.782616 2.42378 0
M  V30 3659 H 367.08 2.45387 2.40083 0
M  V30 3660 N 369.525 -1.3858 0.750561 0
M  V30 3661 C 370.936 -1.82927 0.373438 0
M  V30 3662 C 371.287 -1.62634 -1.09748 0
M  V30 3663 O 370.412 -1.12588 -1.84805 0
M  V30 3664 C 371.007 -3.32088 0.671029 0
M  V30 3665 C 369.566 -3.74795 0.34722 0
M  V30 3666 C 368.713 -2.61391 0.92575 0
M  V30 3667 H 371.664 -1.27351 0.946958 0
M  V30 3668 H 371.685 -3.80465 -0.0518269 0
M  V30 3669 H 371.197 -3.46826 1.74164 0
M  V30 3670 H 369.298 -3.65638 -0.716933 0
M  V30 3671 H 369.411 -4.71667 0.840656 0
M  V30 3672 H 367.775 -2.52265 0.351327 0
M  V30 3673 H 368.558 -2.78929 2.00133 0
M  V30 3674 N 371.003 -0.499398 -1.49478 0
M  V30 3675 C 372.251 0.0455996 -2.02049 0
M  V30 3676 C 372.572 1.37633 -1.38138 0
M  V30 3677 O 371.842 1.8842 -0.536166 0
M  V30 3678 H 370.422 0.0198416 -0.746736 0
M  V30 3679 H 373.084 -0.656274 -1.83519 0
M  V30 3680 H 372.18 0.176445 -3.11601 0
M  V30 3681 N 372.481 1.55866 -0.233164 0
M  V30 3682 C 373.892 1.847 0.272554 0
M  V30 3683 C 374.243 1.15477 1.58617 0
M  V30 3684 O 373.368 0.42841 2.12117 0
M  V30 3685 C 373.963 3.35071 0.501299 0
M  V30 3686 C 372.522 3.6418 0.951304 0
M  V30 3687 C 371.669 2.77292 0.0208209 0
M  V30 3688 H 374.62 1.52005 -0.456074 0
M  V30 3689 H 374.641 3.55906 1.34577 0
M  V30 3690 H 374.153 3.85424 -0.454936 0
M  V30 3691 H 372.254 3.19293 1.92049 0
M  V30 3692 H 372.367 4.72071 0.817675 0
M  V30 3693 H 370.731 2.49131 0.529723 0
M  V30 3694 H 371.514 3.30448 -0.93054 0
M  V30 3695 N 373.959 -0.0401083 1.57549 0
M  V30 3696 C 374.909 -1.05175 2.02292 0
M  V30 3697 C 375.893 -1.32674 0.910294 0
M  V30 3698 O 377.085 -1.32444 1.17421 0
M  V30 3699 C 374.214 -2.35622 2.49674 0
M  V30 3700 C 373.3 -2.11261 3.67736 0
M  V30 3701 N 373.691 -1.56923 4.80842 0
M  V30 3702 C 371.989 -2.41596 3.74897 0
M  V30 3703 C 372.69 -1.48111 5.62528 0
M  V30 3704 N 371.666 -1.95282 5.07312 0
M  V30 3705 H 375.468 -0.625455 2.87168 0
M  V30 3706 H 372.982 -0.246624 1.60516 0
M  V30 3707 H 374.979 -3.08893 2.79983 0
M  V30 3708 H 373.639 -2.7894 1.662 0
M  V30 3709 H 374.65 -1.25345 5.02503 0
M  V30 3710 H 371.327 -2.88064 3.02201 0
M  V30 3711 H 372.717 -1.06683 6.63377 0
M  V30 3712 N 375.437 -1.54477 -0.31217 0
M  V30 3713 C 376.665 -1.77205 -1.068 0
M  V30 3714 C 377.08 -0.526114 -1.81321 0
M  V30 3715 O 376.437 0.503647 -1.75413 0
M  V30 3716 C 376.488 -2.97253 -2.05725 0
M  V30 3717 O 376.209 -4.1703 -1.34228 0
M  V30 3718 C 377.71 -3.32281 -2.93435 0
M  V30 3719 H 374.93 -0.591287 -0.317208 0
M  V30 3720 H 377.474 -2.01398 -0.354834 0
M  V30 3721 H 375.629 -2.753 -2.72559 0
M  V30 3722 H 376.043 -4.84636 -2.00571 0
M  V30 3723 H 377.517 -4.19551 -3.58721 0
M  V30 3724 H 377.994 -2.49945 -3.61143 0
M  V30 3725 H 378.6 -3.56353 -2.32147 0
M  V30 3726 N 376.915 0.57481 -1.46744 0
M  V30 3727 C 378.143 1.35856 -1.56047 0
M  V30 3728 C 378.558 1.87691 -0.204365 0
M  V30 3729 O 377.915 1.64049 0.79963 0
M  V30 3730 C 377.966 2.54066 -2.57163 0
M  V30 3731 O 377.687 2.04377 -3.87507 0
M  V30 3732 C 379.188 3.46514 -2.76483 0
M  V30 3733 H 376.408 0.414754 -0.527466 0
M  V30 3734 H 378.952 0.698035 -1.92218 0
M  V30 3735 H 377.107 3.16092 -2.23974 0
M  V30 3736 H 377.521 2.81419 -4.4261 0
M  V30 3737 H 378.995 4.25919 -3.51137 0
M  V30 3738 H 379.472 3.98951 -1.83671 0
M  V30 3739 H 380.078 2.90318 -3.10799 0
M  V30 3740 N 378.394 1.34581 0.820102 0
M  V30 3741 C 379.642 1.26845 1.57336 0
M  V30 3742 C 379.963 -0.160667 1.94337 0
M  V30 3743 O 379.233 -1.09396 1.6251 0
M  V30 3744 H 377.813 0.466514 0.583415 0
M  V30 3745 H 380.475 1.68526 0.979027 0
M  V30 3746 H 379.571 1.87513 2.4949 0
M  V30 3747 N 379.872 -1.04064 1.18357 0
M  V30 3748 C 381.121 -1.76662 0.973313 0
M  V30 3749 C 381.434 -1.89154 -0.497991 0
M  V30 3750 O 382.64 -2.58606 -0.826762 0
M  V30 3751 C 381.096 -3.17624 1.69242 0
M  V30 3752 C 380.704 -3.13225 3.20303 0
M  V30 3753 C 382.448 -3.946 1.56497 0
M  V30 3754 C 380.355 -4.49046 3.84853 0
M  V30 3755 H 379.285 -0.662214 0.36054 0
M  V30 3756 H 381.936 -1.16553 1.41731 0
M  V30 3757 H 380.318 -3.78129 1.1762 0
M  V30 3758 H 381.492 -2.62172 3.78949 0
M  V30 3759 H 379.807 -2.49749 3.33189 0
M  V30 3760 H 382.404 -4.95042 2.02084 0
M  V30 3761 H 382.747 -4.13074 0.517243 0
M  V30 3762 H 383.28 -3.4067 2.05399 0
M  V30 3763 H 380.019 -4.35777 4.89672 0
M  V30 3764 H 379.539 -5.00203 3.30994 0
M  V30 3765 H 381.218 -5.17961 3.87718 0
M  V30 3766 N 381.35 -0.985608 -1.22978 0
M  V30 3767 C 382.761 -0.693593 -1.73338 0
M  V30 3768 C 383.112 0.789935 -1.79595 0
M  V30 3769 O 382.237 1.61771 -1.43733 0
M  V30 3770 C 382.832 -1.25235 -3.14804 0
M  V30 3771 C 381.391 -1.00987 -3.626 0
M  V30 3772 C 380.538 -1.37695 -2.40698 0
M  V30 3773 H 383.489 -1.15884 -1.08428 0
M  V30 3774 H 383.51 -0.627329 -3.75293 0
M  V30 3775 H 383.022 -2.33209 -3.10218 0
M  V30 3776 H 381.123 0.0535565 -3.72562 0
M  V30 3777 H 381.236 -1.66812 -4.49122 0
M  V30 3778 H 379.6 -0.795459 -2.4196 0
M  V30 3779 H 380.383 -2.46657 -2.38779 0
M  V30 3780 N 382.828 1.3818 -0.7579 0
M  V30 3781 C 383.778 2.27741 -0.108674 0
M  V30 3782 C 384.762 1.45415 0.688709 0
M  V30 3783 O 385.954 1.68108 0.553956 0
M  V30 3784 C 383.083 3.34313 0.780367 0
M  V30 3785 C 382.169 4.24093 -0.0240977 0
M  V30 3786 N 382.56 4.9451 -1.06271 0
M  V30 3787 C 380.858 4.45542 0.202049 0
M  V30 3788 C 381.559 5.60675 -1.54979 0
M  V30 3789 N 380.535 5.36684 -0.864348 0
M  V30 3790 H 384.337 2.79649 -0.904071 0
M  V30 3791 H 381.851 1.51133 -0.594346 0
M  V30 3792 H 383.848 3.97368 1.26114 0
M  V30 3793 H 382.508 2.83962 1.57467 0
M  V30 3794 H 383.519 4.97345 -1.44459 0
M  V30 3795 H 380.196 4.06091 0.96935 0
M  V30 3796 H 381.586 6.26992 -2.41517 0
M  V30 3797 N 384.306 0.507319 1.49211 0
M  V30 3798 C 385.717 0.0611118 1.866 0
M  V30 3799 C 386.068 -1.35488 1.41907 0
M  V30 3800 O 385.193 -2.0108 0.799726 0
M  V30 3801 C 385.788 0.104125 3.3864 0
M  V30 3802 C 384.347 -0.28677 3.75306 0
M  V30 3803 C 383.494 0.473893 2.73221 0
M  V30 3804 H 386.445 0.719775 1.41439 0
M  V30 3805 H 386.466 -0.689672 3.74198 0
M  V30 3806 H 385.978 1.13482 3.71138 0
M  V30 3807 H 384.079 -1.32046 3.48417 0
M  V30 3808 H 384.192 0.0370745 4.79086 0
M  V30 3809 H 382.556 -0.0770644 2.54583 0
M  V30 3810 H 383.339 1.50478 3.08563 0
M  V30 3811 N 385.784 -1.5574 0.241426 0
M  V30 3812 C 386.747 -2.19877 -0.647063 0
M  V30 3813 C 387.747 -1.16642 -1.10686 0
M  V30 3814 O 388.937 -1.41757 -1.01245 0
M  V30 3815 C 386.069 -2.83797 -1.88871 0
M  V30 3816 H 387.262 -2.99772 -0.087574 0
M  V30 3817 H 384.815 -1.56298 -0.00813574 0
M  V30 3818 H 385.55 -2.07824 -2.48957 0
M  V30 3819 H 385.335 -3.59414 -1.56728 0
M  V30 3820 H 386.825 -3.32898 -2.52129 0
M  V30 3821 N 387.262 0.0317525 -1.57568 0
M  V30 3822 C 388.511 0.722131 -1.8833 0
M  V30 3823 C 388.824 1.76664 -0.839587 0
M  V30 3824 O 390.03 2.50942 -1.03635 0
M  V30 3825 C 388.486 1.33544 -3.34207 0
M  V30 3826 C 388.094 0.327415 -4.46802 0
M  V30 3827 C 389.838 2.00585 -3.7412 0
M  V30 3828 C 387.745 0.948915 -5.83738 0
M  V30 3829 H 386.675 0.273466 -0.702661 0
M  V30 3830 H 389.326 -0.0235811 -1.83485 0
M  V30 3831 H 387.708 2.13077 -3.33788 0
M  V30 3832 H 388.882 -0.441006 -4.58685 0
M  V30 3833 H 387.197 -0.240758 -4.15703 0
M  V30 3834 H 389.794 2.47932 -4.73744 0
M  V30 3835 H 390.137 2.82285 -3.05975 0
M  V30 3836 H 390.67 1.27831 -3.76702 0
M  V30 3837 H 387.409 0.171387 -6.55276 0
M  V30 3838 H 386.929 1.68724 -5.7558 0
M  V30 3839 H 388.608 1.45705 -6.3038 0
M  V30 3840 N 388.74 1.54641 0.303973 0
M  V30 3841 C 389.986 1.74038 1.04109 0
M  V30 3842 C 390.319 0.523051 1.87024 0
M  V30 3843 O 389.594 -0.479874 1.88487 0
M  V30 3844 C 389.877 3.02761 1.94955 0
M  V30 3845 C 389.73 4.34787 1.1524 0
M  V30 3846 C 391.049 3.27336 2.94175 0
M  V30 3847 H 388.168 0.63323 0.377079 0
M  V30 3848 H 390.81 1.87354 0.316001 0
M  V30 3849 H 388.96 2.9154 2.56782 0
M  V30 3850 H 390.632 4.57922 0.557236 0
M  V30 3851 H 388.875 4.31407 0.455053 0
M  V30 3852 H 389.546 5.21116 1.8205 0
M  V30 3853 H 392.022 3.38148 2.42477 0
M  V30 3854 H 390.898 4.18726 3.54908 0
M  V30 3855 H 391.159 2.45491 3.67677 0
M  V30 3856 N 390.218 -0.567019 1.47046 0
M  V30 3857 C 391.446 -1.35027 1.56765 0
M  V30 3858 C 391.861 -1.8758 0.214316 0
M  V30 3859 O 391.218 -1.64471 -0.790919 0
M  V30 3860 C 391.269 -2.52698 2.58507 0
M  V30 3861 O 390.99 -2.0232 3.88585 0
M  V30 3862 C 392.491 -3.45043 2.78316 0
M  V30 3863 H 389.711 -0.41195 0.529658 0
M  V30 3864 H 392.255 -0.687832 1.92585 0
M  V30 3865 H 390.41 -3.149 2.25648 0
M  V30 3866 H 390.824 -2.79068 4.44096 0
M  V30 3867 H 392.298 -4.2405 3.53391 0
M  V30 3868 H 392.775 -3.97971 1.85784 0
M  V30 3869 H 393.381 -2.88665 3.12334 0
M  V30 3870 N 391.696 -1.35014 -0.812953 0
M  V30 3871 C 393.107 -1.25035 -1.38648 0
M  V30 3872 C 393.458 0.119967 -1.95833 0
M  V30 3873 O 392.583 1.02069 -1.90816 0
M  V30 3874 C 393.178 -2.26394 -2.52054 0
M  V30 3875 C 391.737 -2.20175 -3.05287 0
M  V30 3876 C 390.884 -2.12451 -1.78213 0
M  V30 3877 H 393.835 -1.46235 -0.616516 0
M  V30 3878 H 393.856 -1.88672 -3.30429 0
M  V30 3879 H 393.368 -3.26116 -2.10404 0
M  V30 3880 H 391.469 -1.23841 -3.51417 0
M  V30 3881 H 391.582 -3.11863 -3.63701 0
M  V30 3882 H 389.946 -1.58328 -1.9951 0
M  V30 3883 H 390.729 -3.14024 -1.38723 0
M  V30 3884 N 393.175 1.03435 -1.18907 0
M  V30 3885 C 394.107 2.1165 -0.879595 0
M  V30 3886 C 395.12 1.62316 0.125439 0
M  V30 3887 O 396.309 1.78201 -0.103245 0
M  V30 3888 C 393.409 3.37622 -0.294042 0
M  V30 3889 C 392.582 4.16166 -1.34629 0
M  V30 3890 C 391.641 5.20457 -0.775274 0
M  V30 3891 O 390.667 5.50379 -1.4516 0
M  V30 3892 N 391.869 5.78949 0.424126 0
M  V30 3893 H 394.634 2.38791 -1.81105 0
M  V30 3894 H 392.195 1.19681 -1.09032 0
M  V30 3895 H 394.187 4.04572 0.101679 0
M  V30 3896 H 392.757 3.07873 0.541575 0
M  V30 3897 H 391.977 3.44444 -1.91707 0
M  V30 3898 H 393.265 4.65432 -2.05549 0
M  V30 3899 H 392.663 5.56948 0.991209 0
M  V30 3900 H 391.22 6.47334 0.761691 0
M  V30 3901 N 394.653 0.992116 1.22453 0
M  V30 3902 C 395.899 0.668523 1.91464 0
M  V30 3903 C 396.232 -0.797313 1.77078 0
M  V30 3904 O 395.507 -1.5765 1.13916 0
M  V30 3905 C 395.79 1.07424 3.43703 0
M  V30 3906 C 395.643 2.59857 3.67143 0
M  V30 3907 C 396.962 0.626891 4.35612 0
M  V30 3908 H 394.081 0.244341 0.695318 0
M  V30 3909 H 396.723 1.2355 1.44345 0
M  V30 3910 H 394.873 0.591816 3.83966 0
M  V30 3911 H 396.545 3.15764 3.3629 0
M  V30 3912 H 394.788 3.01961 3.11451 0
M  V30 3913 H 395.459 2.83296 4.73759 0
M  V30 3914 H 397.935 1.04125 4.02861 0
M  V30 3915 H 396.811 0.939076 5.40807 0
M  V30 3916 H 397.072 -0.472457 4.39568 0
M  V30 3917 N 396.131 -1.37776 0.765217 0
M  V30 3918 C 397.078 -2.30342 0.145274 0
M  V30 3919 C 398.048 -1.5077 -0.696971 0
M  V30 3920 O 399.233 -1.79362 -0.650689 0
M  V30 3921 C 396.373 -3.37227 -0.732939 0
M  V30 3922 C 395.486 -4.31819 0.125199 0
M  V30 3923 C 394.621 -5.25777 -0.757107 0
M  V30 3924 C 393.66 -6.12012 0.103963 0
M  V30 3925 N 392.797 -6.98232 -0.735953 0
M  V30 3926 H 397.637 -2.8278 0.940195 0
M  V30 3927 H 395.174 -1.39211 0.475255 0
M  V30 3928 H 397.132 -3.97818 -1.25686 0
M  V30 3929 H 395.762 -2.86171 -1.49353 0
M  V30 3930 H 394.814 -3.7259 0.766865 0
M  V30 3931 H 396.126 -4.92509 0.789683 0
M  V30 3932 H 395.28 -5.91541 -1.34776 0
M  V30 3933 H 394.019 -4.65481 -1.45529 0
M  V30 3934 H 393.024 -5.45233 0.707197 0
M  V30 3935 H 394.249 -6.74379 0.799381 0
M  V30 3936 H 392.195 -6.40472 -1.41887 0
M  V30 3937 H 392.112 -7.55891 -0.128624 0
M  V30 3938 H 393.38 -7.68393 -1.31121 0
M  V30 3939 N 397.609 -0.515225 -1.4894 0
M  V30 3940 C 398.541 0.292481 -2.27326 0
M  V30 3941 C 399.554 0.917838 -1.3446 0
M  V30 3942 O 400.743 0.798772 -1.5963 0
M  V30 3943 C 397.843 1.42803 -3.07344 0
M  V30 3944 C 397.016 0.907347 -4.27885 0
M  V30 3945 C 396.075 1.92222 -4.89834 0
M  V30 3946 O 395.101 1.48506 -5.49486 0
M  V30 3947 N 396.303 3.25355 -4.80754 0
M  V30 3948 H 399.068 -0.379721 -2.97285 0
M  V30 3949 H 396.629 -0.348638 -1.58102 0
M  V30 3950 H 398.621 2.10481 -3.45658 0
M  V30 3951 H 397.191 2.00414 -2.39902 0
M  V30 3952 H 396.411 0.0550218 -3.94162 0
M  V30 3953 H 397.699 0.538108 -5.05946 0
M  V30 3954 H 397.097 3.6355 -4.33414 0
M  V30 3955 H 395.654 3.88707 -5.23211 0
M  V30 3956 N 399.087 1.5561 -0.249682 0
M  V30 3957 C 399.997 2.25143 0.659375 0
M  V30 3958 C 401.013 1.2685 1.19101 0
M  V30 3959 O 402.189 1.59732 1.22669 0
M  V30 3960 C 399.254 2.93945 1.8384 0
M  V30 3961 C 398.315 4.07655 1.34596 0
M  V30 3962 C 397.548 4.73167 2.46878 0
M  V30 3963 O 397.771 4.37768 3.65671 0
M  V30 3964 O 396.705 5.61623 2.16478 0
M  V30 3965 H 400.531 3.03545 0.0968698 0
M  V30 3966 H 398.116 1.49389 -0.018074 0
M  V30 3967 H 399.998 3.37271 2.52638 0
M  V30 3968 H 398.673 2.18481 2.38847 0
M  V30 3969 H 397.58 3.68839 0.625174 0
M  V30 3970 H 398.913 4.84946 0.841941 0
M  V30 3971 N 400.565 -0.0233959 1.57583 0
M  V30 3972 C 401.515 -1.03023 2.03397 0
M  V30 3973 C 402.499 -1.31701 0.924315 0
M  V30 3974 O 403.691 -1.31191 1.18819 0
M  V30 3975 C 400.82 -2.32961 2.52159 0
M  V30 3976 C 399.906 -2.07349 3.69956 0
M  V30 3977 N 400.297 -1.51814 4.82479 0
M  V30 3978 C 398.595 -2.37606 3.77438 0
M  V30 3979 C 399.296 -1.42136 5.64068 0
M  V30 3980 N 398.272 -1.89891 5.09355 0
M  V30 3981 H 402.074 -0.594962 2.87815 0
M  V30 3982 H 399.588 -0.229586 1.60769 0
M  V30 3983 H 401.585 -3.05906 2.83244 0
M  V30 3984 H 400.245 -2.77162 1.69149 0
M  V30 3985 H 401.256 -1.20008 5.03804 0
M  V30 3986 H 397.933 -2.84842 3.05239 0
M  V30 3987 H 399.323 -0.996405 6.64471 0
M  V30 3988 N 402.043 -1.548 -0.295768 0
M  V30 3989 C 403.454 -1.65274 -0.868411 0
M  V30 3990 C 403.805 -0.56481 -1.87894 0
M  V30 3991 O 402.93 0.29767 -2.14343 0
M  V30 3992 C 403.525 -2.99603 -1.58188 0
M  V30 3993 C 402.084 -3.12181 -2.10286 0
M  V30 3994 C 401.231 -2.6098 -0.93727 0
M  V30 3995 H 404.182 -1.58534 -0.0726422 0
M  V30 3996 H 404.203 -2.91319 -2.44772 0
M  V30 3997 H 403.715 -3.78764 -0.846151 0
M  V30 3998 H 401.816 -2.3775 -2.8689 0
M  V30 3999 H 401.929 -4.18415 -2.33379 0
M  V30 4000 H 400.293 -2.17564 -1.32431 0
M  V30 4001 H 401.076 -3.42623 -0.215414 0
M  V30 4002 N 403.521 0.559213 -1.47345 0
M  V30 4003 C 404.471 1.66192 -1.5609 0
M  V30 4004 C 405.455 1.55323 -0.419957 0
M  V30 4005 O 406.647 1.63839 -0.669762 0
M  V30 4006 C 403.776 3.0497 -1.57634 0
M  V30 4007 C 402.862 3.2105 -2.77106 0
M  V30 4008 N 403.253 3.07203 -4.01821 0
M  V30 4009 C 401.551 3.52046 -2.73825 0
M  V30 4010 C 402.252 3.25919 -4.81821 0
M  V30 4011 N 401.228 3.52161 -4.14106 0
M  V30 4012 H 405.03 1.54052 -2.5029 0
M  V30 4013 H 402.544 0.763914 -1.43311 0
M  V30 4014 H 404.541 3.84142 -1.61989 0
M  V30 4015 H 403.201 3.18224 -0.645281 0
M  V30 4016 H 404.212 2.84572 -4.32711 0
M  V30 4017 H 400.889 3.71839 -1.89848 0
M  V30 4018 H 402.279 3.20198 -5.90697 0
M  V30 4019 N 404.999 1.35443 0.805782 0
M  V30 4020 C 406.227 1.31878 1.59423 0
M  V30 4021 C 406.642 -0.103562 1.88516 0
M  V30 4022 O 405.999 -1.05575 1.48863 0
M  V30 4023 C 406.05 2.12426 2.92502 0
M  V30 4024 O 405.771 3.49115 2.6467 0
M  V30 4025 C 407.272 2.16455 3.86862 0
M  V30 4026 H 404.492 0.453002 0.495005 0
M  V30 4027 H 407.036 1.78309 1.00131 0
M  V30 4028 H 405.191 1.69593 3.48306 0
M  V30 4029 H 405.605 3.90957 3.49647 0
M  V30 4030 H 407.079 2.77204 4.77349 0
M  V30 4031 H 407.556 1.16352 4.23508 0
M  V30 4032 H 408.162 2.59453 3.36993 0
M  V30 4033 N 406.477 -1.02803 1.19454 0
M  V30 4034 C 407.754 -1.73299 0.907013 0
M  V30 4035 C 408.134 -2.02772 -0.587086 0
M  V30 4036 O 407.482 -1.68304 -1.54551 0
M  V30 4037 C 407.692 -3.00912 1.76785 0
M  V30 4038 C 409.04 -3.74403 2.00268 0
M  V30 4039 O 410.064 -3.10841 1.73943 0
M  V30 4040 O 408.923 -4.88675 2.4466 0
M  V30 4041 H 406.017 -0.754727 0.338106 0
M  V30 4042 H 408.563 -1.08754 1.30271 0
M  V30 4043 H 407.335 -2.75366 2.7801 0
M  V30 4044 H 406.958 -3.73197 1.37149 0
M  V30 4045 N 407.956 -0.998596 -1.21925 0
M  V30 4046 C 409.181 -0.696015 -1.95372 0
M  V30 4047 C 409.606 0.733826 -1.73195 0
M  V30 4048 O 408.964 1.50242 -1.01474 0
M  V30 4049 C 409.012 -1.01466 -3.4603 0
M  V30 4050 O 408.116 -0.116415 -4.12236 0
M  V30 4051 H 407.457 -0.259938 -0.611006 0
M  V30 4052 H 409.987 -1.33711 -1.54863 0
M  V30 4053 H 409.997 -0.958855 -3.96573 0
M  V30 4054 H 408.672 -2.05653 -3.61497 0
M  V30 4055 H 407.249 -0.228193 -3.72201 0
M  V30 4056 N 409.434 1.37368 -0.772513 0
M  V30 4057 C 410.711 1.93839 -0.26188 0
M  V30 4058 C 411.091 1.7061 1.24319 0
M  V30 4059 O 410.439 1.05534 2.02669 0
M  V30 4060 C 410.649 3.43154 -0.636102 0
M  V30 4061 C 411.997 4.20249 -0.606324 0
M  V30 4062 O 413.021 3.5152 -0.575538 0
M  V30 4063 O 411.88 5.42809 -0.634086 0
M  V30 4064 H 408.974 0.82478 -0.0605555 0
M  V30 4065 H 411.52 1.4665 -0.853917 0
M  V30 4066 H 410.292 3.53647 -1.6748 0
M  V30 4067 H 409.915 3.97596 -0.0170516 0
M  V30 4068 N 410.912 0.523116 1.48665 0
M  V30 4069 C 411.842 -0.23231 2.32342 0
M  V30 4070 C 412.823 -0.941637 1.41659 0
M  V30 4071 O 414.008 -0.928751 1.70552 0
M  V30 4072 C 411.138 -1.28387 3.22698 0
M  V30 4073 C 410.092 -0.693098 4.22351 0
M  V30 4074 C 409.418 -1.8468 5.01794 0
M  V30 4075 C 410.718 0.33063 5.21252 0
M  V30 4076 H 412.412 0.466192 2.95748 0
M  V30 4077 H 409.958 0.225643 1.42221 0
M  V30 4078 H 411.911 -1.82024 3.80059 0
M  V30 4079 H 410.635 -2.01186 2.57278 0
M  V30 4080 H 409.294 -0.178299 3.66166 0
M  V30 4081 H 408.942 -2.56301 4.32804 0
M  V30 4082 H 408.642 -1.45747 5.69238 0
M  V30 4083 H 410.166 -2.38709 5.62006 0
M  V30 4084 H 411.58 -0.118407 5.73178 0
M  V30 4085 H 409.977 0.636974 5.9671 0
M  V30 4086 H 411.047 1.23883 4.68808 0
M  V30 4087 N 412.39 -1.55475 0.257931 0
M  V30 4088 C 413.323 -2.179 -0.677862 0
M  V30 4089 C 414.301 -1.13448 -1.16483 0
M  V30 4090 O 415.485 -1.41889 -1.24095 0
M  V30 4091 C 412.612 -2.78851 -1.92249 0
M  V30 4092 C 411.658 -3.96454 -1.57246 0
M  V30 4093 S 412.491 -5.31349 -0.665501 0
M  V30 4094 C 413.647 -5.9576 -1.91889 0
M  V30 4095 H 413.88 -2.96934 -0.147396 0
M  V30 4096 H 411.413 -1.54342 0.0423023 0
M  V30 4097 H 413.371 -3.14602 -2.63697 0
M  V30 4098 H 412.032 -1.99742 -2.42409 0
M  V30 4099 H 411.225 -4.37731 -2.49814 0
M  V30 4100 H 410.827 -3.62038 -0.938325 0
M  V30 4101 H 413.119 -6.13947 -2.86487 0
M  V30 4102 H 414.062 -6.9094 -1.54942 0
M  V30 4103 H 414.47 -5.2494 -2.076 0
M  V30 4104 N 413.868 0.0150385 -1.57593 0
M  V30 4105 C 414.818 1.01943 -2.0394 0
M  V30 4106 C 415.802 1.31209 -0.931286 0
M  V30 4107 O 416.994 1.30559 -1.19513 0
M  V30 4108 C 414.123 2.31621 -2.53391 0
M  V30 4109 C 413.209 2.05384 -3.7105 0
M  V30 4110 N 413.6 1.49253 -4.83278 0
M  V30 4111 C 411.898 2.35601 -3.78693 0
M  V30 4112 C 412.599 1.39143 -5.64813 0
M  V30 4113 N 411.575 1.87187 -5.10355 0
M  V30 4114 H 415.377 0.57969 -2.88126 0
M  V30 4115 H 412.891 0.221056 -1.60888 0
M  V30 4116 H 414.888 3.044 -2.84862 0
M  V30 4117 H 413.548 2.76261 -1.70616 0
M  V30 4118 H 414.559 1.17334 -5.04433 0
M  V30 4119 H 411.236 2.8322 -3.06746 0
M  V30 4120 H 412.626 0.961153 -6.6499 0
M  V30 4121 N 415.346 1.54954 0.287554 0
M  V30 4122 C 416.592 1.75132 1.02257 0
M  V30 4123 C 416.925 0.542858 1.86458 0
M  V30 4124 O 416.2 -0.459856 1.88986 0
M  V30 4125 C 416.483 3.04812 1.91733 0
M  V30 4126 C 416.336 4.35985 1.10622 0
M  V30 4127 C 417.655 3.30438 2.90687 0
M  V30 4128 H 414.774 0.637194 0.370341 0
M  V30 4129 H 417.416 1.87678 0.296111 0
M  V30 4130 H 415.566 2.94247 2.53675 0
M  V30 4131 H 417.238 4.58487 0.508636 0
M  V30 4132 H 415.481 4.31865 0.409271 0
M  V30 4133 H 416.152 5.23017 1.76513 0
M  V30 4134 H 418.628 3.40701 2.38877 0
M  V30 4135 H 417.504 4.22467 3.50447 0
M  V30 4136 H 417.765 2.49377 3.65053 0
M  V30 4137 N 416.824 -0.551391 1.4764 0
M  V30 4138 C 417.771 -1.65796 1.60563 0
M  V30 4139 C 418.741 -1.59932 0.448428 0
M  V30 4140 O 419.926 -1.78679 0.669222 0
M  V30 4141 C 417.066 -3.04108 1.63133 0
M  V30 4142 C 416.179 -3.20365 2.89811 0
M  V30 4143 C 415.314 -4.49109 2.8368 0
M  V30 4144 C 414.353 -4.58819 4.05156 0
M  V30 4145 N 413.49 -5.78926 3.97227 0
M  V30 4146 H 418.33 -1.54088 2.5507 0
M  V30 4147 H 415.867 -0.75052 1.26513 0
M  V30 4148 H 417.825 -3.84207 1.62606 0
M  V30 4149 H 416.455 -3.14637 0.721341 0
M  V30 4150 H 415.507 -2.33659 3.00179 0
M  V30 4151 H 416.819 -3.23402 3.79753 0
M  V30 4152 H 415.973 -5.37475 2.81434 0
M  V30 4153 H 414.712 -4.4856 1.91431 0
M  V30 4154 H 413.717 -3.68864 4.077 0
M  V30 4155 H 414.942 -4.61124 4.98539 0
M  V30 4156 H 412.888 -5.79314 3.07785 0
M  V30 4157 H 412.805 -5.83367 4.80853 0
M  V30 4158 H 414.073 -6.69637 3.99007 0
M  V30 4159 N 418.302 -1.35869 -0.798587 0
M  V30 4160 C 419.713 -1.26498 -1.37314 0
M  V30 4161 C 420.064 0.0991899 -1.95949 0
M  V30 4162 O 419.189 1.0004 -1.91888 0
M  V30 4163 C 419.784 -2.29054 -2.49639 0
M  V30 4164 C 418.343 -2.234 -3.02935 0
M  V30 4165 C 417.49 -2.14329 -1.75949 0
M  V30 4166 H 420.441 -1.46881 -0.600971 0
M  V30 4167 H 420.462 -1.92166 -3.28409 0
M  V30 4168 H 419.974 -3.2833 -2.06933 0
M  V30 4169 H 418.075 -1.27562 -3.50084 0
M  V30 4170 H 418.188 -3.15703 -3.60372 0
M  V30 4171 H 416.552 -1.60435 -1.9782 0
M  V30 4172 H 417.335 -3.15477 -1.35384 0
M  V30 4173 N 419.78 1.02168 -1.19998 0
M  V30 4174 C 420.712 2.10705 -0.901994 0
M  V30 4175 C 421.725 1.6244 0.108216 0
M  V30 4176 O 422.914 1.78082 -0.12214 0
M  V30 4177 C 420.014 3.37291 -0.329834 0
M  V30 4178 C 419.187 4.14714 -1.39035 0
M  V30 4179 C 418.246 5.19606 -0.830432 0
M  V30 4180 O 417.272 5.48809 -1.50989 0
M  V30 4181 N 418.474 5.79366 0.362696 0
M  V30 4182 H 421.239 2.36856 -1.83628 0
M  V30 4183 H 418.8 1.18518 -1.10296 0
M  V30 4184 H 420.792 4.04657 0.0587633 0
M  V30 4185 H 419.362 3.0843 0.508891 0
M  V30 4186 H 418.582 3.42392 -1.9535 0
M  V30 4187 H 419.87 4.63226 -2.10474 0
M  V30 4188 H 419.268 5.57968 0.932081 0
M  V30 4189 H 417.825 6.48106 0.69299 0
M  V30 4190 N 421.258 1.00505 1.21394 0
M  V30 4191 C 422.208 0.536503 2.21598 0
M  V30 4192 C 423.192 -0.401914 1.55799 0
M  V30 4193 O 424.384 -0.226757 1.75541 0
M  V30 4194 C 421.513 -0.135446 3.43033 0
M  V30 4195 C 420.599 0.823992 4.16018 0
M  V30 4196 N 420.99 1.97683 4.6557 0
M  V30 4197 C 419.288 0.642387 4.4135 0
M  V30 4198 C 419.989 2.58003 5.21354 0
M  V30 4199 N 418.965 1.86162 5.1073 0
M  V30 4200 H 422.767 1.41557 2.57563 0
M  V30 4201 H 420.281 0.868878 1.37202 0
M  V30 4202 H 422.278 -0.488584 4.14027 0
M  V30 4203 H 420.938 -1.01049 3.08576 0
M  V30 4204 H 421.949 2.3572 4.61147 0
M  V30 4205 H 418.626 -0.185578 4.17087 0
M  V30 4206 H 420.016 3.555 5.70149 0
M  V30 4207 N 422.737 -1.36956 0.779787 0
M  V30 4208 C 423.647 -2.33965 0.172491 0
M  V30 4209 C 424.663 -1.60574 -0.670222 0
M  V30 4210 O 425.839 -1.92617 -0.588263 0
M  V30 4211 C 422.904 -3.39761 -0.690173 0
M  V30 4212 C 421.965 -4.28964 0.169924 0
M  V30 4213 C 421.198 -5.29707 -0.651662 0
M  V30 4214 O 421.421 -5.38238 -1.88827 0
M  V30 4215 O 420.355 -6.01873 -0.0566264 0
M  V30 4216 H 424.181 -2.87647 0.974321 0
M  V30 4217 H 421.766 -1.39258 0.541078 0
M  V30 4218 H 423.648 -4.04471 -1.1824 0
M  V30 4219 H 422.323 -2.88394 -1.47006 0
M  V30 4220 H 421.23 -3.67326 0.708696 0
M  V30 4221 H 422.563 -4.83656 0.913085 0
M  V30 4222 N 424.215 -0.530993 -1.48385 0
M  V30 4223 C 425.147 0.268353 -2.27624 0
M  V30 4224 C 426.16 0.903525 -1.35426 0
M  V30 4225 O 427.349 0.781796 -1.60469 0
M  V30 4226 C 424.449 1.39535 -3.08842 0
M  V30 4227 C 423.622 0.861913 -4.28824 0
M  V30 4228 C 422.681 1.87016 -4.91845 0
M  V30 4229 O 421.707 1.4267 -5.5103 0
M  V30 4230 N 422.909 3.20238 -4.84178 0
M  V30 4231 H 425.674 -0.41123 -2.96865 0
M  V30 4232 H 423.235 -0.365387 -1.57723 0
M  V30 4233 H 425.227 2.06803 -3.47871 0
M  V30 4234 H 423.797 1.97859 -2.42014 0
M  V30 4235 H 423.017 0.0132126 -3.94198 0
M  V30 4236 H 424.305 0.484415 -5.06489 0
M  V30 4237 H 423.703 3.58932 -4.37246 0
M  V30 4238 H 422.26 3.83136 -5.27305 0
M  V30 4239 N 425.693 1.55336 -0.266172 0
M  V30 4240 C 427.109 1.59356 0.0882065 0
M  V30 4241 C 427.309 1.2834 1.55342 0
M  V30 4242 O 426.365 1.03996 2.30089 0
M  V30 4243 C 427.678 2.99409 -0.278364 0
M  V30 4244 C 429.226 3.12196 -0.224243 0
M  V30 4245 C 429.701 4.545 -0.565123 0
M  V30 4246 N 431.192 4.60313 -0.51634 0
M  V30 4247 C 431.927 5.68434 -0.753013 0
M  V30 4248 N 431.423 6.84738 -1.05383 0
M  V30 4249 N 433.216 5.57942 -0.682414 0
M  V30 4250 H 425.367 1.73764 -1.22147 0
M  V30 4251 H 427.63 0.809822 -0.492841 0
M  V30 4252 H 427.336 3.2691 -1.29703 0
M  V30 4253 H 427.21 3.75228 0.385186 0
M  V30 4254 H 429.597 2.84464 0.78512 0
M  V30 4255 H 429.678 2.38609 -0.921922 0
M  V30 4256 H 429.322 4.82956 -1.57213 0
M  V30 4257 H 429.252 5.26374 0.154248 0
M  V30 4258 H 431.743 3.7676 -0.29335 0
M  V30 4259 H 432.056 7.63088 -1.22133 0
M  V30 4260 H 430.401 6.86375 -1.09151 0
M  V30 4261 H 433.592 4.65958 -0.44731 0
M  V30 4262 H 433.765 6.4213 -0.870248 0
M  V30 4263 N 427.171 -0.0066808 1.57599 0
M  V30 4264 C 428.118 -1.00024 2.08 0
M  V30 4265 C 429.088 -1.34549 0.973943 0
M  V30 4266 O 430.273 -1.44502 1.24595 0
M  V30 4267 C 427.413 -2.2891 2.58252 0
M  V30 4268 C 426.526 -2.00346 3.82734 0
M  V30 4269 C 425.661 -3.23265 4.21513 0
M  V30 4270 C 424.7 -2.90357 5.3885 0
M  V30 4271 N 423.837 -4.05793 5.72954 0
M  V30 4272 H 428.677 -0.563499 2.92624 0
M  V30 4273 H 426.214 -0.266592 1.44664 0
M  V30 4274 H 428.172 -3.04247 2.85464 0
M  V30 4275 H 426.802 -2.70265 1.76512 0
M  V30 4276 H 425.854 -1.15406 3.62471 0
M  V30 4277 H 427.166 -1.72086 4.68175 0
M  V30 4278 H 426.32 -4.06953 4.49971 0
M  V30 4279 H 425.059 -3.54657 3.34768 0
M  V30 4280 H 424.064 -2.05075 5.10122 0
M  V30 4281 H 425.289 -2.60219 6.27266 0
M  V30 4282 H 423.235 -4.37094 4.89167 0
M  V30 4283 H 423.152 -3.81034 6.52954 0
M  V30 4284 H 424.42 -4.90289 6.06001 0
M  V30 4285 N 428.649 -1.55105 -0.279332 0
M  V30 4286 C 429.559 -1.90638 -1.36727 0
M  V30 4287 C 430.575 -0.802899 -1.54368 0
M  V30 4288 O 431.751 -1.10138 -1.68616 0
M  V30 4289 C 428.816 -2.16547 -2.70755 0
M  V30 4290 C 427.877 -3.40146 -2.61915 0
M  V30 4291 C 427.11 -3.6481 -3.8955 0
M  V30 4292 O 427.333 -2.92095 -4.89935 0
M  V30 4293 O 426.267 -4.58343 -3.90135 0
M  V30 4294 H 430.093 -2.83237 -1.09591 0
M  V30 4295 H 427.678 -1.4157 -0.477306 0
M  V30 4296 H 429.56 -2.34665 -3.50014 0
M  V30 4297 H 428.235 -1.27131 -2.9769 0
M  V30 4298 H 427.142 -3.2737 -1.81052 0
M  V30 4299 H 428.475 -4.29761 -2.3993 0
M  V30 4300 N 430.127 0.543554 -1.4793 0
M  V30 4301 C 431.059 1.665 -1.57513 0
M  V30 4302 C 432.072 1.56156 -0.460333 0
M  V30 4303 O 433.261 1.62865 -0.730573 0
M  V30 4304 C 430.361 3.05063 -1.47614 0
M  V30 4305 C 429.534 3.41024 -2.739 0
M  V30 4306 C 428.593 4.58809 -2.57645 0
M  V30 4307 O 427.619 4.62707 -3.31498 0
M  V30 4308 N 428.821 5.56149 -1.66368 0
M  V30 4309 H 431.586 1.5872 -2.5422 0
M  V30 4310 H 429.147 0.730517 -1.44482 0
M  V30 4311 H 431.139 3.81712 -1.34455 0
M  V30 4312 H 429.709 3.06994 -0.589359 0
M  V30 4313 H 428.929 2.53687 -3.01723 0
M  V30 4314 H 430.217 3.61831 -3.57709 0
M  V30 4315 H 429.615 5.55767 -1.05543 0
M  V30 4316 H 428.172 6.32071 -1.59154 0
M  V30 4317 N 431.605 1.3629 0.791371 0
M  V30 4318 C 432.515 1.32606 1.93527 0
M  V30 4319 C 433.531 0.228541 1.72493 0
M  V30 4320 O 434.707 0.460571 1.96063 0
M  V30 4321 C 431.772 1.11271 3.28359 0
M  V30 4322 C 430.833 2.3048 3.62185 0
M  V30 4323 C 430.066 2.10154 4.90583 0
M  V30 4324 O 430.289 1.07572 5.60165 0
M  V30 4325 O 429.223 2.97884 5.23019 0
M  V30 4326 H 433.049 2.28909 1.99585 0
M  V30 4327 H 430.634 1.16818 0.931344 0
M  V30 4328 H 432.516 1.01283 4.09047 0
M  V30 4329 H 431.191 0.180292 3.23198 0
M  V30 4330 H 430.098 2.46036 2.81811 0
M  V30 4331 H 431.431 3.22221 3.72068 0
M  V30 4332 N 433.083 -1.0153 1.20538 0
M  V30 4333 C 434.494 -1.56598 1.01657 0
M  V30 4334 C 434.845 -1.91505 -0.426668 0
M  V30 4335 O 433.97 -1.72375 -1.30827 0
M  V30 4336 C 434.565 -2.84542 1.83905 0
M  V30 4337 C 433.124 -3.36133 1.69386 0
M  V30 4338 C 432.271 -2.09427 1.81757 0
M  V30 4339 H 435.222 -0.838974 1.34711 0
M  V30 4340 H 435.243 -3.56004 1.34319 0
M  V30 4341 H 434.755 -2.59105 2.8894 0
M  V30 4342 H 432.856 -3.66528 0.669933 0
M  V30 4343 H 432.969 -4.08248 2.50739 0
M  V30 4344 H 431.333 -2.21941 1.24957 0
M  V30 4345 H 432.116 -1.86414 2.88279 0
M  V30 4346 N 434.561 -1.01147 -1.20859 0
M  V30 4347 C 435.508 -0.577354 -2.23462 0
M  V30 4348 C 436.478 0.399922 -1.61214 0
M  V30 4349 O 437.663 0.300515 -1.88419 0
M  V30 4350 C 434.803 0.083372 -3.44999 0
M  V30 4351 C 433.916 -0.937856 -4.21697 0
M  V30 4352 C 433.051 -0.248717 -5.30617 0
M  V30 4353 C 432.09 -1.25705 -5.99053 0
M  V30 4354 N 431.227 -0.594939 -6.99575 0
M  V30 4355 H 436.067 -1.45695 -2.59956 0
M  V30 4356 H 433.604 -0.729428 -1.27741 0
M  V30 4357 H 435.562 0.483535 -4.14388 0
M  V30 4358 H 434.192 0.926645 -3.09214 0
M  V30 4359 H 433.244 -1.45622 -3.51423 0
M  V30 4360 H 434.556 -1.70493 -4.68757 0
M  V30 4361 H 433.71 0.207215 -6.06346 0
M  V30 4362 H 432.449 0.55071 -4.84581 0
M  V30 4363 H 431.454 -1.72343 -5.2209 0
M  V30 4364 H 432.679 -2.05767 -6.47176 0
M  V30 4365 H 430.625 0.184713 -6.5574 0
M  V30 4366 H 430.542 -1.30017 -7.44736 0
M  V30 4367 H 431.81 -0.162427 -7.79331 0
M  V30 4368 N 436.039 1.36541 -0.78704 0
M  V30 4369 C 437.455 1.52571 -0.46844 0
M  V30 4370 C 437.655 1.7415 1.01361 0
M  V30 4371 O 436.711 1.77163 1.79915 0
M  V30 4372 C 438.024 2.71299 -1.29682 0
M  V30 4373 C 439.572 2.85169 -1.29027 0
M  V30 4374 C 440.047 4.06898 -2.10233 0
M  V30 4375 N 441.538 4.1404 -2.07666 0
M  V30 4376 C 442.273 5.07301 -2.67271 0
M  V30 4377 N 441.769 6.06021 -3.35724 0
M  V30 4378 N 443.562 4.99898 -2.57018 0
M  V30 4379 H 435.713 1.20788 -1.74711 0
M  V30 4380 H 437.976 0.589364 -0.742532 0
M  V30 4381 H 437.682 2.61868 -2.34773 0
M  V30 4382 H 437.556 3.6539 -0.936479 0
M  V30 4383 H 439.943 2.94062 -0.247284 0
M  V30 4384 H 440.024 1.91992 -1.69035 0
M  V30 4385 H 439.668 3.98766 -3.1456 0
M  V30 4386 H 439.598 4.99218 -1.67597 0
M  V30 4387 H 442.089 3.43357 -1.57843 0
M  V30 4388 H 442.402 6.73741 -3.78541 0
M  V30 4389 H 440.747 6.06253 -3.39826 0
M  V30 4390 H 443.938 4.21724 -2.03142 0
M  V30 4391 H 444.111 5.72392 -3.03761 0
M  V30 4392 N 437.518 0.538854 1.48102 0
M  V30 4393 C 438.929 0.100679 1.86428 0
M  V30 4394 C 439.28 -1.32447 1.44749 0
M  V30 4395 O 438.405 -1.99339 0.842199 0
M  V30 4396 C 439 0.175933 3.38343 0
M  V30 4397 C 437.559 -0.207098 3.7583 0
M  V30 4398 C 436.706 0.531741 2.72154 0
M  V30 4399 H 439.657 0.749614 1.3988 0
M  V30 4400 H 439.678 -0.610144 3.75576 0
M  V30 4401 H 439.19 1.21328 3.68648 0
M  V30 4402 H 437.291 -1.24626 3.5114 0
M  V30 4403 H 437.404 0.138687 4.78899 0
M  V30 4404 H 435.768 -0.0230462 2.5469 0
M  V30 4405 H 436.551 1.56989 3.05302 0
M  V30 4406 N 438.996 -1.55193 0.274407 0
M  V30 4407 C 439.946 -2.19184 -0.627882 0
M  V30 4408 C 440.93 -1.15625 -1.11892 0
M  V30 4409 O 442.122 -1.41441 -1.06411 0
M  V30 4410 C 439.251 -2.91591 -1.81189 0
M  V30 4411 C 438.337 -4.02438 -1.33807 0
M  V30 4412 N 438.728 -5.0246 -0.580349 0
M  V30 4413 C 437.026 -4.15496 -1.62109 0
M  V30 4414 C 437.727 -5.80756 -0.331344 0
M  V30 4415 N 436.703 -5.36038 -0.903556 0
M  V30 4416 H 440.505 -2.93871 -0.0411216 0
M  V30 4417 H 438.019 -1.62213 0.0779348 0
M  V30 4418 H 440.016 -3.35883 -2.46957 0
M  V30 4419 H 438.676 -2.18414 -2.40261 0
M  V30 4420 H 439.687 -5.17399 -0.227762 0
M  V30 4421 H 436.364 -3.53509 -2.22121 0
M  V30 4422 H 437.754 -6.71335 0.275454 0
M  V30 4423 N 440.474 -0.00167713 -1.576 0
M  V30 4424 C 441.723 0.682021 -1.89819 0
M  V30 4425 C 442.036 1.74844 -0.876871 0
M  V30 4426 O 443.242 2.48688 -1.08934 0
M  V30 4427 C 441.698 1.26425 -3.36964 0
M  V30 4428 C 441.306 0.232568 -4.47396 0
M  V30 4429 C 443.05 1.92604 -3.78291 0
M  V30 4430 C 440.957 0.824882 -5.85619 0
M  V30 4431 H 439.887 0.258499 -0.708304 0
M  V30 4432 H 442.538 -0.0624957 -1.83394 0
M  V30 4433 H 440.92 2.05949 -3.38232 0
M  V30 4434 H 442.094 -0.5382 -4.57646 0
M  V30 4435 H 440.409 -0.32888 -4.15099 0
M  V30 4436 H 443.006 2.37827 -4.78897 0
M  V30 4437 H 443.349 2.75732 -3.11894 0
M  V30 4438 H 443.882 1.19812 -3.79328 0
M  V30 4439 H 440.621 0.0323542 -6.55492 0
M  V30 4440 H 440.141 1.56477 -5.79029 0
M  V30 4441 H 441.82 1.32301 -6.33329 0
M  V30 4442 N 441.952 1.55251 0.271103 0
M  V30 4443 C 442.899 1.88261 1.33516 0
M  V30 4444 C 443.869 0.734296 1.48988 0
M  V30 4445 O 445.054 0.985741 1.63364 0
M  V30 4446 C 442.194 2.16168 2.69008 0
M  V30 4447 C 441.307 3.43678 2.61743 0
M  V30 4448 C 440.442 3.61276 3.89427 0
M  V30 4449 C 439.481 4.82472 3.7668 0
M  V30 4450 N 438.618 4.96717 4.96202 0
M  V30 4451 H 443.458 2.79015 1.04665 0
M  V30 4452 H 440.995 1.38137 0.505618 0
M  V30 4453 H 442.953 2.30349 3.47844 0
M  V30 4454 H 441.583 1.28646 2.96057 0
M  V30 4455 H 440.635 3.37959 1.74607 0
M  V30 4456 H 441.947 4.3265 2.48224 0
M  V30 4457 H 441.101 3.75284 4.76704 0
M  V30 4458 H 439.84 2.70492 4.05814 0
M  V30 4459 H 438.845 4.68465 2.87786 0
M  V30 4460 H 440.07 5.74692 3.61809 0
M  V30 4461 H 438.016 4.08865 5.12997 0
M  V30 4462 H 437.933 5.79738 4.85222 0
M  V30 4463 H 439.201 5.15113 5.85046 0
M  V30 4464 N 443.43 -0.535701 1.48216 0
M  V30 4465 C 444.377 -1.64083 1.62312 0
M  V30 4466 C 445.347 -1.59448 0.465365 0
M  V30 4467 O 446.532 -1.77959 0.688135 0
M  V30 4468 C 443.672 -3.0236 1.66349 0
M  V30 4469 C 442.785 -3.17273 2.93193 0
M  V30 4470 C 441.92 -4.46075 2.88427 0
M  V30 4471 C 440.959 -4.54496 4.1 0
M  V30 4472 N 440.096 -5.7468 4.03345 0
M  V30 4473 H 444.936 -1.51374 2.5669 0
M  V30 4474 H 442.473 -0.737059 1.27302 0
M  V30 4475 H 444.431 -3.82461 1.66672 0
M  V30 4476 H 443.061 -3.13854 0.754672 0
M  V30 4477 H 442.113 -2.30462 3.02641 0
M  V30 4478 H 443.425 -3.19357 3.83162 0
M  V30 4479 H 442.579 -5.3446 2.87119 0
M  V30 4480 H 441.318 -4.46504 1.96177 0
M  V30 4481 H 440.323 -3.64519 4.11589 0
M  V30 4482 H 441.548 -4.5581 5.03402 0
M  V30 4483 H 439.494 -5.76017 3.13912 0
M  V30 4484 H 439.411 -5.78234 4.87013 0
M  V30 4485 H 440.679 -6.65367 4.06087 0
M  V30 4486 N 444.908 -1.36708 -0.784132 0
M  V30 4487 C 446.319 -1.27947 -1.35965 0
M  V30 4488 C 446.67 0.0784013 -1.96043 0
M  V30 4489 O 445.795 0.979989 -1.92938 0
M  V30 4490 C 446.39 -2.31689 -2.47195 0
M  V30 4491 C 444.949 -2.26601 -3.00548 0
M  V30 4492 C 444.096 -2.16184 -1.73666 0
M  V30 4493 H 447.047 -1.4751 -0.585358 0
M  V30 4494 H 447.068 -1.95638 -3.26352 0
M  V30 4495 H 446.58 -3.30506 -2.03439 0
M  V30 4496 H 444.681 -1.31268 -3.48711 0
M  V30 4497 H 444.794 -3.19508 -3.57004 0
M  V30 4498 H 443.158 -1.62524 -1.96107 0
M  V30 4499 H 443.941 -3.16896 -1.32031 0
M  V30 4500 N 446.386 1.0089 -1.21074 0
M  V30 4501 C 447.316 2.1145 -0.990523 0
M  V30 4502 C 448.297 1.69897 0.0831699 0
M  V30 4503 O 449.482 1.94052 -0.0758853 0
M  V30 4504 C 446.612 3.42914 -0.550177 0
M  V30 4505 C 445.566 3.98244 -1.56799 0
M  V30 4506 C 444.892 5.25568 -0.984013 0
M  V30 4507 C 446.192 4.30752 -2.95381 0
M  V30 4508 H 447.886 2.3013 -1.91521 0
M  V30 4509 H 445.432 1.10592 -0.92225 0
M  V30 4510 H 447.385 4.19653 -0.383305 0
M  V30 4511 H 446.109 3.24014 0.41015 0
M  V30 4512 H 444.768 3.23621 -1.72236 0
M  V30 4513 H 444.416 5.02998 -0.0155216 0
M  V30 4514 H 444.116 5.63551 -1.66384 0
M  V30 4515 H 445.64 6.04955 -0.828378 0
M  V30 4516 H 447.054 4.98349 -2.8341 0
M  V30 4517 H 445.451 4.79869 -3.60341 0
M  V30 4518 H 446.521 3.39192 -3.46521 0
M  V30 4519 N 447.864 1.01787 1.20321 0
M  V30 4520 C 448.812 0.58254 2.25187 0
M  V30 4521 C 449.806 -0.379359 1.65098 0
M  V30 4522 O 451.012 -0.249142 1.78267 0
M  V30 4523 H 447.387 0.170078 0.732514 0
M  V30 4524 H 449.358 1.47788 2.59232 0
M  V30 4525 C 448.107 -0.0620885 3.47645 0
M  V30 4526 H 447.43 0.669069 3.94162 0
M  V30 4527 H 448.87 -0.329784 4.22716 0
M  V30 4528 C 447.329 -1.3053 3.10586 0
M  V30 4529 O 447.859 -2.39848 3.22236 0
M  V30 4530 N 446.065 -1.18988 2.65123 0
M  V30 4531 H 445.612 -0.300341 2.55843 0
M  V30 4532 H 445.57 -2.02267 2.40698 0
M  V30 4533 N 449.342 -1.36122 0.79427 0
M  V30 4534 C 450.305 -2.28309 0.201889 0
M  V30 4535 C 451.305 -1.49041 -0.603603 0
M  V30 4536 O 452.495 -1.68964 -0.423888 0
M  V30 4537 C 449.627 -3.3321 -0.719978 0
M  V30 4538 H 450.82 -2.82208 1.01481 0
M  V30 4539 H 448.373 -1.45768 0.564037 0
M  V30 4540 H 449.108 -2.84475 -1.55706 0
M  V30 4541 H 448.893 -3.91835 -0.144266 0
M  V30 4542 H 450.383 -4.02044 -1.12916 0
M  V30 4543 N 450.82 -0.546701 -1.47814 0
M  V30 4544 C 452.067 -0.0187407 -2.02491 0
M  V30 4545 C 452.395 1.32685 -1.42215 0
M  V30 4546 O 451.65 1.87413 -0.563454 0
M  V30 4547 C 451.949 0.134869 -3.57145 0
M  V30 4548 C 451.615 -1.13849 -4.3629 0
M  V30 4549 C 450.277 -1.48743 -4.57634 0
M  V30 4550 C 452.629 -1.98277 -4.82012 0
M  V30 4551 C 449.957 -2.67932 -5.21948 0
M  V30 4552 C 452.309 -3.16659 -5.4764 0
M  V30 4553 C 450.973 -3.51879 -5.67219 0
M  V30 4554 H 450.243 -0.0068577 -0.740968 0
M  V30 4555 H 452.89 -0.716097 -1.77607 0
M  V30 4556 H 451.195 0.915118 -3.80963 0
M  V30 4557 H 452.892 0.558556 -3.97091 0
M  V30 4558 H 449.482 -0.856767 -4.19949 0
M  V30 4559 H 453.666 -1.72628 -4.6531 0
M  V30 4560 H 448.922 -2.95401 -5.35302 0
M  V30 4561 H 453.096 -3.82374 -5.82033 0
M  V30 4562 H 450.723 -4.44331 -6.16825 0
M  V30 4563 N 452.299 1.55045 -0.282633 0
M  V30 4564 C 453.232 2.18951 0.64311 0
M  V30 4565 C 454.21 1.15287 1.14664 0
M  V30 4566 O 455.394 1.43846 1.21822 0
M  V30 4567 C 452.521 2.81874 1.87789 0
M  V30 4568 C 451.567 3.98906 1.50919 0
M  V30 4569 S 452.4 5.3234 0.580884 0
M  V30 4570 C 453.556 5.98737 1.82387 0
M  V30 4571 H 453.789 2.97131 0.100138 0
M  V30 4572 H 451.322 1.54255 -0.0668514 0
M  V30 4573 H 453.28 3.18757 2.58658 0
M  V30 4574 H 451.941 2.03573 2.392 0
M  V30 4575 H 451.134 4.4165 2.42819 0
M  V30 4576 H 450.736 3.63485 0.88061 0
M  V30 4577 H 453.028 6.18427 2.76684 0
M  V30 4578 H 453.971 6.93318 1.4393 0
M  V30 4579 H 454.379 5.28177 1.99223 0
M  V30 4580 N 453.777 0.010035 1.57597 0
M  V30 4581 C 454.707 -0.976857 2.12084 0
M  V30 4582 C 455.688 -1.35191 1.03235 0
M  V30 4583 O 456.873 -1.43389 1.3097 0
M  V30 4584 C 454.003 -2.26548 2.63236 0
M  V30 4585 C 452.957 -2.03175 3.76701 0
M  V30 4586 C 452.283 -3.38138 4.14206 0
M  V30 4587 C 453.583 -1.38625 5.03568 0
M  V30 4588 H 455.277 -0.523145 2.94794 0
M  V30 4589 H 452.823 -0.250195 1.4181 0
M  V30 4590 H 454.776 -2.95952 2.99984 0
M  V30 4591 H 453.5 -2.74051 1.77661 0
M  V30 4592 H 452.159 -1.36195 3.40362 0
M  V30 4593 H 451.807 -3.83363 3.25641 0
M  V30 4594 H 451.507 -3.23312 4.90656 0
M  V30 4595 H 453.031 -4.08841 4.53521 0
M  V30 4596 H 454.445 -1.98 5.38023 0
M  V30 4597 H 452.842 -1.34256 5.84889 0
M  V30 4598 H 453.912 -0.356722 4.83586 0
M  V30 4599 N 455.255 -1.55392 -0.262866 0
M  V30 4600 C 456.485 -1.80251 -1.00961 0
M  V30 4601 C 456.893 -0.58117 -1.80053 0
M  V30 4602 O 456.236 0.459427 -1.77862 0
M  V30 4603 C 456.298 -2.98207 -2.00781 0
M  V30 4604 C 455.962 -4.34856 -1.40533 0
M  V30 4605 C 456.959 -5.13459 -0.815853 0
M  V30 4606 C 454.644 -4.8153 -1.42948 0
M  V30 4607 C 456.638 -6.36875 -0.258562 0
M  V30 4608 C 454.325 -6.04899 -0.868334 0
M  V30 4609 C 455.323 -6.8241 -0.283884 0
M  V30 4610 O 455.011 -8.03451 0.268644 0
M  V30 4611 H 454.743 -0.604049 -0.303482 0
M  V30 4612 H 457.297 -2.03257 -0.295926 0
M  V30 4613 H 455.527 -2.70917 -2.75936 0
M  V30 4614 H 457.216 -3.10299 -2.61667 0
M  V30 4615 H 457.982 -4.78526 -0.789812 0
M  V30 4616 H 453.861 -4.21201 -1.87378 0
M  V30 4617 H 457.405 -6.97318 0.198257 0
M  V30 4618 H 453.302 -6.39312 -0.891649 0
M  V30 4619 H 454.07 -8.18346 0.158974 0
M  V30 4620 N 456.733 0.527833 -1.48498 0
M  V30 4621 C 457.666 1.64892 -1.57753 0
M  V30 4622 C 458.644 1.5687 -0.427867 0
M  V30 4623 O 459.828 1.77311 -0.639764 0
M  V30 4624 C 456.955 3.03301 -1.50752 0
M  V30 4625 C 456.001 3.29675 -2.70586 0
M  V30 4626 S 456.834 3.15712 -4.32535 0
M  V30 4627 C 457.99 4.56564 -4.28136 0
M  V30 4628 H 458.223 1.56792 -2.52594 0
M  V30 4629 H 455.756 0.710959 -1.37057 0
M  V30 4630 H 457.714 3.83123 -1.474 0
M  V30 4631 H 456.375 3.08839 -0.572454 0
M  V30 4632 H 455.568 4.3065 -2.61833 0
M  V30 4633 H 455.17 2.57526 -2.71212 0
M  V30 4634 H 457.462 5.48126 -3.98201 0
M  V30 4635 H 458.405 4.70371 -5.29298 0
M  V30 4636 H 458.813 4.35987 -3.58574 0
M  V30 4637 N 458.211 1.37122 0.776871 0
M  V30 4638 C 459.158 1.3247 1.88998 0
M  V30 4639 C 460.128 0.191143 1.64997 0
M  V30 4640 O 461.313 0.379683 1.86984 0
M  V30 4641 C 458.453 1.13241 3.25992 0
M  V30 4642 C 457.566 2.35782 3.61982 0
M  V30 4643 C 456.701 2.09465 4.88158 0
M  V30 4644 C 455.74 3.279 5.16864 0
M  V30 4645 N 454.877 3.01167 6.34226 0
M  V30 4646 H 459.717 2.27642 1.9231 0
M  V30 4647 H 457.254 1.13125 0.94027 0
M  V30 4648 H 459.212 1.00115 4.0501 0
M  V30 4649 H 457.842 0.217186 3.22069 0
M  V30 4650 H 456.894 2.59666 2.77989 0
M  V30 4651 H 458.206 3.24125 3.79137 0
M  V30 4652 H 457.36 1.93341 5.75069 0
M  V30 4653 H 456.099 1.18452 4.73097 0
M  V30 4654 H 455.104 3.44569 4.2843 0
M  V30 4655 H 456.329 4.19757 5.33836 0
M  V30 4656 H 454.275 2.12779 6.20533 0
M  V30 4657 H 454.192 3.83052 6.51772 0
M  V30 4658 H 455.46 2.88649 7.24087 0
M  V30 4659 N 459.689 -1.00246 1.21608 0
M  V30 4660 C 460.599 -2.12515 0.993709 0
M  V30 4661 C 461.615 -1.73913 -0.0549939 0
M  V30 4662 O 462.791 -2.00943 0.135619 0
M  V30 4663 C 459.856 -3.42083 0.563953 0
M  V30 4664 C 458.917 -3.94843 1.68516 0
M  V30 4665 C 458.15 -5.18226 1.27582 0
M  V30 4666 O 458.373 -5.70201 0.150506 0
M  V30 4667 O 457.307 -5.64497 2.0887 0
M  V30 4668 H 461.133 -2.34152 1.93407 0
M  V30 4669 H 458.718 -1.10891 1.00118 0
M  V30 4670 H 460.6 -4.20073 0.334194 0
M  V30 4671 H 459.275 -3.21828 -0.347665 0
M  V30 4672 H 458.182 -3.18068 1.96935 0
M  V30 4673 H 459.515 -4.19512 2.5743 0
M  V30 4674 N 461.167 -1.02423 -1.1978 0
M  V30 4675 C 462.1 -0.545641 -2.21581 0
M  V30 4676 C 463.078 0.411024 -1.57319 0
M  V30 4677 O 464.262 0.329223 -1.85603 0
M  V30 4678 C 461.389 0.204973 -3.38079 0
M  V30 4679 C 460.435 -0.70241 -4.20676 0
M  V30 4680 S 461.268 -2.17595 -4.89298 0
M  V30 4681 C 462.424 -1.43572 -6.09211 0
M  V30 4682 H 462.657 -1.4082 -2.61834 0
M  V30 4683 H 460.19 -0.833771 -1.29952 0
M  V30 4684 H 462.148 0.631924 -4.05607 0
M  V30 4685 H 460.809 1.0432 -2.9627 0
M  V30 4686 H 460.002 -0.123193 -5.03849 0
M  V30 4687 H 459.604 -1.06747 -3.58442 0
M  V30 4688 H 461.896 -0.719806 -6.73665 0
M  V30 4689 H 462.839 -2.24388 -6.71607 0
M  V30 4690 H 463.247 -0.935252 -5.56699 0
M  V30 4691 N 462.645 1.35699 -0.801477 0
M  V30 4692 C 464.061 1.52065 -0.484596 0
M  V30 4693 C 464.261 1.75215 0.995084 0
M  V30 4694 O 463.317 1.79061 1.78026 0
M  V30 4695 C 464.63 2.69908 -1.32552 0
M  V30 4696 C 466.178 2.83784 -1.32044 0
M  V30 4697 C 466.653 4.04646 -2.14536 0
M  V30 4698 N 468.144 4.11814 -2.12046 0
M  V30 4699 C 468.879 5.04437 -2.72636 0
M  V30 4700 N 468.375 6.02426 -3.42133 0
M  V30 4701 N 470.168 4.97144 -2.62305 0
M  V30 4702 H 462.319 1.18928 -1.75983 0
M  V30 4703 H 464.582 0.581455 -0.748741 0
M  V30 4704 H 464.288 2.59363 -2.37537 0
M  V30 4705 H 464.162 3.64376 -0.975181 0
M  V30 4706 H 466.549 2.93783 -0.27846 0
M  V30 4707 H 466.63 1.90188 -1.71062 0
M  V30 4708 H 466.274 3.95407 -3.18772 0
M  V30 4709 H 466.204 4.97413 -1.72882 0
M  V30 4710 H 468.695 3.41664 -1.61476 0
M  V30 4711 H 469.008 6.69688 -3.85666 0
M  V30 4712 H 467.353 6.02615 -3.46237 0
M  V30 4713 H 470.544 4.19546 -2.07603 0
M  V30 4714 H 470.717 5.69138 -3.09815 0
M  V30 4715 N 464.123 0.554532 1.47522 0
M  V30 4716 C 465.086 -0.184174 2.28459 0
M  V30 4717 C 466.086 -0.845195 1.36796 0
M  V30 4718 O 467.276 -0.701467 1.59452 0
M  V30 4719 C 464.408 -1.26903 3.16399 0
M  V30 4720 H 465.601 0.526751 2.95238 0
M  V30 4721 H 463.154 0.311375 1.53167 0
M  V30 4722 H 463.889 -2.01244 2.54306 0
M  V30 4723 H 463.674 -0.799883 3.83854 0
M  V30 4724 H 465.164 -1.78794 3.77389 0
M  V30 4725 N 465.601 -1.54893 0.290851 0
M  V30 4726 C 466.549 -2.24579 -0.605576 0
M  V30 4727 C 467.543 -1.24824 -1.14522 0
M  V30 4728 O 468.749 -1.42706 -1.09704 0
M  V30 4729 H 465.124 -0.720946 -0.213872 0
M  V30 4730 H 467.095 -2.984 0.0048173 0
M  V30 4731 C 465.844 -2.99224 -1.77088 0
M  V30 4732 H 465.167 -3.75782 -1.36484 0
M  V30 4733 H 466.607 -3.51281 -2.3744 0
M  V30 4734 C 465.066 -2.05602 -2.66888 0
M  V30 4735 O 465.596 -1.61745 -3.67698 0
M  V30 4736 N 463.802 -1.71771 -2.34399 0
M  V30 4737 H 463.349 -2.07633 -1.52468 0
M  V30 4738 H 463.307 -1.09403 -2.94751 0
M  V30 4739 N 467.08 -0.0183926 -1.57589 0
M  V30 4740 C 468.326 0.663543 -1.91638 0
M  V30 4741 C 468.659 1.72392 -0.894134 0
M  V30 4742 O 467.934 1.94316 0.0846449 0
M  V30 4743 C 468.217 1.28984 -3.36207 0
M  V30 4744 C 468.07 0.239761 -4.49161 0
M  V30 4745 C 469.389 2.2109 -3.80536 0
M  V30 4746 H 466.508 0.239746 -0.696915 0
M  V30 4747 H 469.15 -0.073456 -1.89858 0
M  V30 4748 H 467.3 1.91799 -3.37854 0
M  V30 4749 H 468.972 -0.390119 -4.59647 0
M  V30 4750 H 467.215 -0.435972 -4.31604 0
M  V30 4751 H 467.886 0.717383 -5.47319 0
M  V30 4752 H 470.362 1.68273 -3.80557 0
M  V30 4753 H 469.238 2.61869 -4.82406 0
M  V30 4754 H 469.499 3.09764 -3.15434 0
M  V30 4755 N 468.558 1.5553 0.254621 0
M  V30 4756 C 469.804 1.77262 0.985193 0
M  V30 4757 C 470.137 0.582286 1.85265 0
M  V30 4758 O 469.412 -0.419666 1.89919 0
M  V30 4759 C 469.695 3.0881 1.85225 0
M  V30 4760 C 469.548 4.38233 1.0135 0
M  V30 4761 C 470.867 3.3653 2.83612 0
M  V30 4762 H 467.986 0.644906 0.356742 0
M  V30 4763 H 470.628 1.88264 0.256236 0
M  V30 4764 H 468.778 2.99562 2.47376 0
M  V30 4765 H 470.45 4.59463 0.411269 0
M  V30 4766 H 468.693 4.32636 0.317574 0
M  V30 4767 H 469.364 5.26644 1.65379 0
M  V30 4768 H 471.84 3.45691 2.31596 0
M  V30 4769 H 470.716 4.29805 3.41407 0
M  V30 4770 H 470.977 2.57064 3.59681 0
M  V30 4771 N 470.036 -0.519951 1.48776 0
M  V30 4772 C 470.999 -1.60574 1.6355 0
M  V30 4773 C 471.999 -1.52557 0.508234 0
M  V30 4774 O 473.189 -1.56047 0.774262 0
M  V30 4775 C 470.321 -3.00211 1.61512 0
M  V30 4776 H 471.514 -1.4881 2.60376 0
M  V30 4777 H 469.067 -0.742772 1.37523 0
M  V30 4778 H 469.802 -3.17471 0.662009 0
M  V30 4779 H 469.587 -3.07439 2.43359 0
M  V30 4780 H 471.077 -3.79134 1.75064 0
M  V30 4781 N 471.514 -1.37532 -0.769588 0
M  V30 4782 C 472.424 -1.35668 -1.91393 0
M  V30 4783 C 473.44 -0.255954 -1.72107 0
M  V30 4784 O 474.616 -0.491704 -1.95305 0
M  V30 4785 C 471.681 -1.16481 -3.26547 0
M  V30 4786 C 470.742 -2.36212 -3.58472 0
M  V30 4787 C 469.975 -2.17932 -4.87177 0
M  V30 4788 O 470.198 -1.1647 -5.58382 0
M  V30 4789 O 469.132 -3.06167 -5.18214 0
M  V30 4790 H 472.958 -2.32055 -1.95918 0
M  V30 4791 H 470.543 -1.18284 -0.912641 0
M  V30 4792 H 472.425 -1.07778 -4.07384 0
M  V30 4793 H 471.1 -0.231687 -3.2287 0
M  V30 4794 H 470.007 -2.50488 -2.77861 0
M  V30 4795 H 471.34 -3.281 -3.66894 0
M  V30 4796 N 472.992 0.995999 -1.22138 0
M  V30 4797 C 474.232 1.75032 -1.05561 0
M  V30 4798 C 474.596 1.87729 0.402698 0
M  V30 4799 O 475.797 2.59813 0.689234 0
M  V30 4800 C 474.068 3.11973 -1.74379 0
M  V30 4801 S 475.627 4.03182 -1.73175 0
M  V30 4802 H 472.445 0.602137 -0.37809 0
M  V30 4803 H 475.047 1.19107 -1.55028 0
M  V30 4804 H 473.751 3.00371 -2.79652 0
M  V30 4805 H 473.282 3.7297 -1.25128 0
M  V30 4806 H 475.297 4.90043 -0.77923 0
M  V30 4807 N 474.47 1.03057 1.19235 0
M  V30 4808 C 475.698 0.747697 1.92917 0
M  V30 4809 C 476.113 -0.69372 1.75593 0
M  V30 4810 O 475.47 -1.47191 1.07894 0
M  V30 4811 C 475.521 1.09159 3.44625 0
M  V30 4812 O 475.242 2.47641 3.61394 0
M  V30 4813 C 476.743 0.831763 4.35427 0
M  V30 4814 H 473.963 0.273453 0.612751 0
M  V30 4815 H 476.507 1.37552 1.51327 0
M  V30 4816 H 474.662 0.508919 3.84043 0
M  V30 4817 H 475.076 2.60499 4.55237 0
M  V30 4818 H 476.55 1.12233 5.4047 0
M  V30 4819 H 477.027 -0.233769 4.38577 0
M  V30 4820 H 477.633 1.39725 4.01693 0
M  V30 4821 N 475.948 -1.35272 0.808662 0
M  V30 4822 C 476.878 -2.32315 0.234981 0
M  V30 4823 C 477.859 -1.57572 -0.64071 0
M  V30 4824 O 479.044 -1.8563 -0.570551 0
M  V30 4825 C 476.174 -3.41801 -0.615601 0
M  V30 4826 C 475.128 -4.27694 0.161767 0
M  V30 4827 C 474.454 -5.28519 -0.810649 0
M  V30 4828 C 475.754 -5.04231 1.36193 0
M  V30 4829 H 477.448 -2.80543 1.04575 0
M  V30 4830 H 474.994 -1.3488 0.504315 0
M  V30 4831 H 476.947 -4.08693 -1.02702 0
M  V30 4832 H 475.671 -2.92186 -1.45928 0
M  V30 4833 H 474.33 -3.62384 0.554382 0
M  V30 4834 H 473.978 -4.75171 -1.64988 0
M  V30 4835 H 473.678 -5.8686 -0.294822 0
M  V30 4836 H 475.202 -5.98283 -1.22023 0
M  V30 4837 H 476.616 -5.64058 1.02528 0
M  V30 4838 H 475.013 -5.72077 1.81239 0
M  V30 4839 H 476.083 -4.34753 2.14751 0
M  V30 4840 N 477.426 -0.562348 -1.47226 0
M  V30 4841 C 478.373 0.182461 -2.30078 0
M  V30 4842 C 479.343 0.903503 -1.39377 0
M  V30 4843 O 480.528 0.898188 -1.68337 0
M  V30 4844 C 477.668 1.20322 -3.23445 0
M  V30 4845 C 476.781 0.487717 -4.29238 0
M  V30 4846 C 475.916 1.49422 -5.09752 0
M  V30 4847 C 474.955 0.763976 -6.07314 0
M  V30 4848 N 474.092 1.71755 -6.80768 0
M  V30 4849 H 478.932 -0.530169 -2.93246 0
M  V30 4850 H 476.469 -0.273276 -1.44539 0
M  V30 4851 H 478.427 1.80768 -3.76004 0
M  V30 4852 H 477.057 1.88382 -2.6213 0
M  V30 4853 H 476.109 -0.231374 -3.79696 0
M  V30 4854 H 477.421 -0.0841003 -4.98729 0
M  V30 4855 H 476.575 2.17206 -5.66486 0
M  V30 4856 H 475.314 2.09995 -4.40174 0
M  V30 4857 H 474.319 0.0722344 -5.49753 0
M  V30 4858 H 475.544 0.16391 -6.78902 0
M  V30 4859 H 473.49 2.31177 -6.13916 0
M  V30 4860 H 473.407 1.19802 -7.46447 0
M  V30 4861 H 474.675 2.38638 -7.42073 0
M  V30 4862 N 478.904 1.54736 -0.299062 0
M  V30 4863 C 479.814 2.27127 0.587413 0
M  V30 4864 C 480.83 1.30575 1.15005 0
M  V30 4865 O 482.006 1.63554 1.17525 0
M  V30 4866 C 479.071 2.99645 1.74395 0
M  V30 4867 C 478.132 4.11731 1.21559 0
M  V30 4868 C 477.365 4.80781 2.317 0
M  V30 4869 O 477.588 4.4918 3.51558 0
M  V30 4870 O 476.522 5.68226 1.98501 0
M  V30 4871 H 480.348 3.037 0.000250109 0
M  V30 4872 H 477.933 1.49256 -0.0655919 0
M  V30 4873 H 479.815 3.45138 2.4178 0
M  V30 4874 H 478.49 2.25969 2.31775 0
M  V30 4875 H 477.397 3.70641 0.507514 0
M  V30 4876 H 478.73 4.87379 0.687233 0
M  V30 4877 N 480.382 0.0267497 1.57577 0
M  V30 4878 C 481.607 -0.666227 1.96408 0
M  V30 4879 C 482.032 -1.65004 0.903071 0
M  V30 4880 O 481.39 -1.80787 -0.136263 0
M  V30 4881 C 481.438 -1.35101 3.34335 0
M  V30 4882 O 480.542 -2.46623 3.30531 0
M  V30 4883 H 479.883 -0.175206 0.640468 0
M  V30 4884 H 482.413 0.0878977 2.04411 0
M  V30 4885 H 482.423 -1.70834 3.70513 0
M  V30 4886 H 481.098 -0.629844 4.11103 0
M  V30 4887 H 479.675 -2.13019 3.06068 0
M  V30 4888 N 481.861 -1.55662 -0.24637 0
M  V30 4889 C 482.824 -1.89558 -1.28842 0
M  V30 4890 C 483.824 -0.772082 -1.41052 0
M  V30 4891 O 485.014 -1.04007 -1.39743 0
M  V30 4892 C 482.146 -2.12449 -2.66605 0
M  V30 4893 H 483.339 -2.82735 -1.00004 0
M  V30 4894 H 480.892 -1.48562 -0.485684 0
M  V30 4895 H 481.627 -1.21742 -3.00582 0
M  V30 4896 H 481.412 -2.94273 -2.59125 0
M  V30 4897 H 482.902 -2.39854 -3.41847 0
M  V30 4898 N 483.339 0.512053 -1.4905 0
M  V30 4899 C 484.302 1.59704 -1.64399 0
M  V30 4900 C 485.302 1.52285 -0.516317 0
M  V30 4901 O 486.492 1.55635 -0.782527 0
M  V30 4902 C 483.624 2.9935 -1.63102 0
M  V30 4903 H 484.817 1.47428 -2.61161 0
M  V30 4904 H 482.37 0.735469 -1.37915 0
M  V30 4905 H 483.105 3.17116 -0.678836 0
M  V30 4906 H 482.89 3.06144 -2.44986 0
M  V30 4907 H 484.38 3.782 -1.77072 0
M  V30 4908 N 484.817 1.37938 0.762283 0
M  V30 4909 C 486.066 1.32989 1.51647 0
M  V30 4910 C 486.379 -0.0802922 1.95435 0
M  V30 4911 O 487.585 -0.252295 2.70325 0
M  V30 4912 C 486.041 2.33485 2.73885 0
M  V30 4913 C 485.649 3.80079 2.37157 0
M  V30 4914 C 487.393 2.37563 3.51801 0
M  V30 4915 C 485.3 4.72283 3.55954 0
M  V30 4916 H 484.23 0.494301 0.56937 0
M  V30 4917 H 486.881 1.63448 0.834083 0
M  V30 4918 H 485.263 1.96056 3.44061 0
M  V30 4919 H 486.437 4.26398 1.74704 0
M  V30 4920 H 484.752 3.79037 1.72395 0
M  V30 4921 H 487.349 3.0365 4.40114 0
M  V30 4922 H 487.692 1.39199 3.92338 0
M  V30 4923 H 488.225 2.73747 2.8863 0
M  V30 4924 H 484.964 5.7181 3.2049 0
M  V30 4925 H 484.484 4.30663 4.1748 0
M  V30 4926 H 486.163 4.89876 4.22647 0
M  V30 4927 N 486.295 -0.989507 1.22664 0
M  V30 4928 C 487.243 -2.10148 0.997035 0
M  V30 4929 C 488.237 -1.6929 -0.0609783 0
M  V30 4930 O 489.443 -1.79766 0.0917523 0
M  V30 4931 H 485.818 -0.687256 0.305259 0
M  V30 4932 H 487.789 -2.26685 1.94053 0
M  V30 4933 C 486.538 -3.4257 0.595085 0
M  V30 4934 H 485.861 -3.74453 1.40089 0
M  V30 4935 H 487.301 -4.21344 0.473869 0
M  V30 4936 C 485.76 -3.29638 -0.695725 0
M  V30 4937 O 486.29 -3.61709 -1.74727 0
M  V30 4938 N 484.496 -2.82814 -0.668173 0
M  V30 4939 H 484.043 -2.56914 0.18787 0
M  V30 4940 H 484.001 -2.74544 -1.5321 0
M  V30 4941 N 487.773 -1.03688 -1.18687 0
M  V30 4942 C 488.705 -0.582696 -2.21669 0
M  V30 4943 C 489.718 0.345656 -1.59088 0
M  V30 4944 O 490.907 0.140776 -1.77944 0
M  V30 4945 C 488.007 0.169204 -3.38477 0
M  V30 4946 C 487.18 -0.766079 -4.30639 0
M  V30 4947 C 486.239 -0.0581541 -5.26168 0
M  V30 4948 O 485.265 -0.687346 -5.65035 0
M  V30 4949 N 486.467 1.20981 -5.67753 0
M  V30 4950 H 489.232 -1.46843 -2.61261 0
M  V30 4951 H 486.793 -0.916896 -1.33434 0
M  V30 4952 H 488.785 0.652543 -3.99405 0
M  V30 4953 H 487.355 0.956435 -2.97609 0
M  V30 4954 H 486.575 -1.42935 -3.67373 0
M  V30 4955 H 487.863 -1.40146 -4.89118 0
M  V30 4956 H 487.261 1.74159 -5.38224 0
M  V30 4957 H 485.818 1.6375 -6.30896 0
M  V30 4958 N 489.251 1.34841 -0.815825 0
M  V30 4959 C 490.5 1.97755 -0.396976 0
M  V30 4960 C 490.813 1.65422 1.04379 0
M  V30 4961 O 492.019 2.21771 1.5662 0
M  V30 4962 C 490.475 3.53818 -0.658869 0
M  V30 4963 C 490.083 3.95051 -2.11278 0
M  V30 4964 C 491.827 4.23397 -0.305834 0
M  V30 4965 C 489.734 5.43997 -2.31994 0
M  V30 4966 H 488.664 0.739985 -0.1447 0
M  V30 4967 H 491.315 1.53781 -1.00118 0
M  V30 4968 H 489.697 3.95997 0.0154112 0
M  V30 4969 H 490.871 3.63998 -2.82564 0
M  V30 4970 H 489.186 3.38388 -2.42657 0
M  V30 4971 H 491.783 5.32899 -0.43854 0
M  V30 4972 H 492.126 4.09508 0.748952 0
M  V30 4973 H 492.659 3.8667 -0.934403 0
M  V30 4974 H 489.398 5.62865 -3.35952 0
M  V30 4975 H 488.918 5.76589 -1.65244 0
M  V30 4976 H 490.597 6.10584 -2.14001 0
M  V30 4977 N 490.729 0.570148 1.46925 0
M  V30 4978 C 491.659 -0.158274 2.32963 0
M  V30 4979 C 492.64 -0.896093 1.44583 0
M  V30 4980 O 493.825 -0.874022 1.7342 0
M  V30 4981 C 490.955 -1.18055 3.26619 0
M  V30 4982 C 489.909 -0.558379 4.24342 0
M  V30 4983 C 489.235 -1.68623 5.07415 0
M  V30 4984 C 490.535 0.496295 5.19937 0
M  V30 4985 H 492.229 0.560046 2.94115 0
M  V30 4986 H 489.775 0.270775 1.41431 0
M  V30 4987 H 491.728 -1.69841 3.85658 0
M  V30 4988 H 490.452 -1.92899 2.63548 0
M  V30 4989 H 489.111 -0.0617157 3.66548 0
M  V30 4990 H 488.759 -2.42402 4.40738 0
M  V30 4991 H 488.459 -1.27564 5.73586 0
M  V30 4992 H 489.983 -2.20709 5.69315 0
M  V30 4993 H 491.397 0.0640052 5.73264 0
M  V30 4994 H 489.794 0.82649 5.94381 0
M  V30 4995 H 490.864 1.38735 4.6463 0
M  V30 4996 N 492.207 -1.54576 0.307264 0
M  V30 4997 C 493.455 -1.99867 -0.299574 0
M  V30 4998 C 493.776 -1.19714 -1.53927 0
M  V30 4999 O 493.046 -0.29472 -1.9367 0
M  V30 5000 H 491.626 -0.738299 -0.113683 0
M  V30 5001 H 494.288 -1.9032 0.420042 0
M  V30 5002 H 493.384 -3.06901 -0.567283 0
M  V30 5003 N 493.685 -0.035106 -1.57561 0
M  V30 5004 C 495.101 0.321334 -1.56332 0
M  V30 5005 C 495.301 1.72509 -1.04129 0
M  V30 5006 O 494.357 2.4287 -0.690694 0
M  V30 5007 C 495.67 0.164469 -3.0025 0
M  V30 5008 C 497.218 0.236786 -3.12103 0
M  V30 5009 C 497.693 0.10864 -4.57871 0
M  V30 5010 N 499.184 0.165433 -4.62904 0
M  V30 5011 C 499.919 0.0901506 -5.73329 0
M  V30 5012 N 499.415 -0.0365606 -6.9279 0
M  V30 5013 N 501.208 0.144572 -5.61914 0
M  V30 5014 H 493.359 -0.952976 -1.89821 0
M  V30 5015 H 495.622 -0.368537 -0.873432 0
M  V30 5016 H 495.328 -0.802746 -3.42416 0
M  V30 5017 H 495.202 0.932194 -3.655 0
M  V30 5018 H 497.589 1.19446 -2.69845 0
M  V30 5019 H 497.67 -0.561419 -2.49563 0
M  V30 5020 H 497.314 -0.845644 -5.00811 0
M  V30 5021 H 497.244 0.925786 -5.18398 0
M  V30 5022 H 499.735 0.263269 -3.76982 0
M  V30 5023 H 500.048 -0.0871487 -7.72751 0
M  V30 5024 H 498.393 -0.0714256 -6.94963 0
M  V30 5025 H 501.584 0.242006 -4.67474 0
M  V30 5026 H 501.757 0.0824413 -6.47948 0
M  V30 5027 N 495.163 1.55791 0.238111 0
M  V30 5028 C 496.579 1.48411 0.587045 0
M  V30 5029 C 496.779 0.72702 1.87927 0
M  V30 5030 O 495.835 0.259942 2.51158 0
M  V30 5031 C 497.148 2.92873 0.681623 0
M  V30 5032 C 498.696 3.03295 0.773363 0
M  V30 5033 C 499.171 4.49082 0.899428 0
M  V30 5034 N 500.662 4.53056 0.964075 0
M  V30 5035 C 501.397 5.63117 1.08104 0
M  V30 5036 N 500.893 6.82969 1.16299 0
M  V30 5037 N 502.686 5.50933 1.11488 0
M  V30 5038 H 494.837 2.0345 -0.610076 0
M  V30 5039 H 497.1 0.924034 -0.211813 0
M  V30 5040 H 496.806 3.51142 -0.19802 0
M  V30 5041 H 496.68 3.43851 1.55069 0
M  V30 5042 H 499.067 2.45101 1.64346 0
M  V30 5043 H 499.148 2.55513 -0.121034 0
M  V30 5044 H 498.792 5.07889 0.0338586 0
M  V30 5045 H 498.722 4.94553 1.809 0
M  V30 5046 H 501.213 3.66737 0.91173 0
M  V30 5047 H 501.526 7.62598 1.25155 0
M  V30 5048 H 499.871 6.85712 1.13241 0
M  V30 5049 H 503.062 4.56231 1.0474 0
M  V30 5050 H 503.235 6.36743 1.20259 0
M  V30 5051 N 496.642 -0.504142 1.49319 0
M  V30 5052 C 497.888 -1.25767 1.59857 0
M  V30 5053 C 498.243 -1.90348 0.280262 0
M  V30 5054 O 497.536 -1.77588 -0.719241 0
M  V30 5055 C 497.73 -2.35021 2.69258 0
M  V30 5056 C 497.559 -1.81154 4.11598 0
M  V30 5057 C 496.329 -1.62596 4.78425 0
M  V30 5058 C 498.527 -1.3252 4.96934 0
M  V30 5059 N 496.509 -1.03625 6.05091 0
M  V30 5060 C 497.88 -0.856633 6.14054 0
M  V30 5061 C 499.935 -1.21063 4.82958 0
M  V30 5062 C 498.638 -0.284841 7.18736 0
M  V30 5063 C 500.664 -0.652815 5.87786 0
M  V30 5064 C 500.026 -0.194461 7.04132 0
M  V30 5065 H 496.125 -0.450293 0.639343 0
M  V30 5066 H 498.709 -0.565344 1.86311 0
M  V30 5067 H 496.88 -3.01719 2.44581 0
M  V30 5068 H 498.612 -3.02061 2.69335 0
M  V30 5069 H 495.367 -1.86873 4.35173 0
M  V30 5070 H 495.791 -0.76076 6.72712 0
M  V30 5071 H 500.433 -1.551 3.93324 0
M  V30 5072 H 498.151 0.0677979 8.08072 0
M  V30 5073 H 501.737 -0.566994 5.79031 0
M  V30 5074 H 500.617 0.230442 7.83861 0
M  V30 5075 N 498.12 -1.38341 -0.754957 0
M  V30 5076 C 499.07 -1.31964 -1.85929 0
M  V30 5077 C 500.054 -0.204181 -1.59599 0
M  V30 5078 O 501.246 -0.440036 -1.71443 0
M  V30 5079 C 498.375 -1.14565 -3.2362 0
M  V30 5080 C 497.461 -2.30727 -3.55846 0
M  V30 5081 N 497.852 -3.56165 -3.59138 0
M  V30 5082 C 496.15 -2.23249 -3.86104 0
M  V30 5083 C 496.851 -4.32865 -3.88591 0
M  V30 5084 N 495.827 -3.62203 -4.05351 0
M  V30 5085 H 499.629 -2.2694 -1.8675 0
M  V30 5086 H 497.143 -1.31553 -0.952243 0
M  V30 5087 H 499.14 -1.0808 -4.02647 0
M  V30 5088 H 497.8 -0.205212 -3.24051 0
M  V30 5089 H 498.811 -3.89854 -3.40932 0
M  V30 5090 H 495.488 -1.37357 -3.94258 0
M  V30 5091 H 496.878 -5.41504 -3.97773 0
M  V30 5092 N 499.598 0.982988 -1.23187 0
M  V30 5093 C 500.561 2.05649 -1.01198 0
M  V30 5094 C 501.561 1.6078 0.0252464 0
M  V30 5095 O 502.751 1.72878 -0.214243 0
M  V30 5096 C 499.883 3.36744 -0.530656 0
M  V30 5097 H 501.076 2.2659 -1.96461 0
M  V30 5098 H 498.629 1.15602 -1.05195 0
M  V30 5099 H 499.364 3.21492 0.425873 0
M  V30 5100 H 499.149 3.7065 -1.2791 0
M  V30 5101 H 500.639 4.15705 -0.397366 0
M  V30 5102 N 501.076 1.04316 1.18135 0
M  V30 5103 C 502.006 0.657299 2.24058 0
M  V30 5104 C 502.987 -0.340678 1.66654 0
M  V30 5105 O 504.172 -0.220223 1.92947 0
M  V30 5106 C 501.302 0.0220715 3.47293 0
M  V30 5107 C 500.256 0.943857 4.17463 0
M  V30 5108 C 499.582 0.172973 5.3442 0
M  V30 5109 C 500.882 2.26409 4.70677 0
M  V30 5110 H 502.576 1.5428 2.56589 0
M  V30 5111 H 500.122 0.743263 1.23335 0
M  V30 5112 H 502.075 -0.259607 4.206 0
M  V30 5113 H 500.799 -0.898323 3.14003 0
M  V30 5114 H 499.458 1.20996 3.46057 0
M  V30 5115 H 499.106 -0.749907 4.97379 0
M  V30 5116 H 498.806 0.787098 5.82304 0
M  V30 5117 H 500.33 -0.101628 6.10515 0
M  V30 5118 H 501.744 2.04294 5.35665 0
M  V30 5119 H 500.141 2.8314 5.29105 0
M  V30 5120 H 501.211 2.90883 3.87962 0
M  V30 5121 N 502.554 -1.34406 0.822964 0
M  V30 5122 C 503.779 -2.0304 0.423034 0
M  V30 5123 C 504.204 -1.61568 -0.963196 0
M  V30 5124 O 503.562 -0.800339 -1.62678 0
M  V30 5125 C 503.61 -3.56636 0.53321 0
M  V30 5126 O 502.714 -4.09971 -0.446939 0
M  V30 5127 H 502.055 -0.64075 0.174171 0
M  V30 5128 H 504.585 -1.71653 1.11339 0
M  V30 5129 H 504.595 -4.05945 0.408991 0
M  V30 5130 H 503.27 -3.86168 1.54425 0
M  V30 5131 H 501.847 -3.71835 -0.281601 0
M  V30 5132 N 504.032 -0.577932 -1.46621 0
M  V30 5133 C 505.448 -0.239242 -1.57797 0
M  V30 5134 C 505.648 1.25843 -1.57371 0
M  V30 5135 O 504.704 2.03988 -1.48813 0
M  V30 5136 C 506.017 -0.884227 -2.87405 0
M  V30 5137 C 507.565 -0.857373 -3.01028 0
M  V30 5138 C 508.04 -1.48181 -4.33366 0
M  V30 5139 N 509.531 -1.44593 -4.40053 0
M  V30 5140 C 510.266 -1.89852 -5.41058 0
M  V30 5141 N 509.762 -2.43062 -6.48762 0
M  V30 5142 N 511.555 -1.80797 -5.3223 0
M  V30 5143 H 503.706 -1.55073 -1.45142 0
M  V30 5144 H 505.969 -0.647903 -0.692044 0
M  V30 5145 H 505.675 -1.93759 -2.93514 0
M  V30 5146 H 505.549 -0.389585 -3.75183 0
M  V30 5147 H 507.936 0.187357 -2.94505 0
M  V30 5148 H 508.017 -1.38999 -2.14739 0
M  V30 5149 H 507.661 -2.52572 -4.40647 0
M  V30 5150 H 507.591 -0.924464 -5.18422 0
M  V30 5151 H 510.082 -1.05694 -3.62819 0
M  V30 5152 H 510.395 -2.75466 -7.22038 0
M  V30 5153 H 508.74 -2.47085 -6.49595 0
M  V30 5154 H 511.931 -1.38989 -4.46989 0
M  V30 5155 H 512.104 -2.16385 -6.10804 0
M  V30 5156 N 505.51 1.54411 -0.315457 0
M  V30 5157 C 506.42 2.27737 0.56329 0
M  V30 5158 C 507.436 1.31787 1.13614 0
M  V30 5159 O 508.612 1.64791 1.15784 0
M  V30 5160 C 505.677 3.01478 1.71207 0
M  V30 5161 C 504.738 4.12997 1.17185 0
M  V30 5162 C 503.971 4.83212 2.26588 0
M  V30 5163 O 504.194 4.52884 3.46775 0
M  V30 5164 O 503.128 5.70299 1.92463 0
M  V30 5165 H 506.954 3.03683 -0.0319614 0
M  V30 5166 H 504.539 1.49178 -0.0814188 0
M  V30 5167 H 506.421 3.47683 2.38106 0
M  V30 5168 H 505.096 2.28414 2.29366 0
M  V30 5169 H 504.003 3.71159 0.468174 0
M  V30 5170 H 505.336 4.8808 0.635501 0
M  V30 5171 N 506.988 0.0434614 1.5754 0
M  V30 5172 C 507.898 -0.94893 2.14552 0
M  V30 5173 C 508.914 -1.34707 1.10136 0
M  V30 5174 O 510.09 -1.42557 1.42266 0
M  V30 5175 C 507.155 -2.208 2.67298 0
M  V30 5176 C 506.216 -1.86893 3.86484 0
M  V30 5177 C 505.449 -3.06797 4.36705 0
M  V30 5178 O 505.672 -4.19921 3.86034 0
M  V30 5179 O 504.606 -2.8826 5.28384 0
M  V30 5180 H 508.432 -0.494099 2.99654 0
M  V30 5181 H 506.017 -0.177989 1.48336 0
M  V30 5182 H 507.899 -2.94686 3.01228 0
M  V30 5183 H 506.574 -2.65436 1.85272 0
M  V30 5184 H 505.481 -1.10347 3.57455 0
M  V30 5185 H 506.814 -1.47062 4.69716 0
M  V30 5186 N 508.466 -1.55915 -0.229846 0
M  V30 5187 C 509.398 -1.88209 -1.30805 0
M  V30 5188 C 510.411 -0.769672 -1.43457 0
M  V30 5189 O 511.6 -1.04792 -1.44502 0
M  V30 5190 C 508.7 -2.06829 -2.68468 0
M  V30 5191 C 507.873 -3.37798 -2.77869 0
M  V30 5192 C 506.932 -3.45952 -3.96489 0
M  V30 5193 O 505.958 -4.19043 -3.85216 0
M  V30 5194 N 507.16 -2.76488 -5.10426 0
M  V30 5195 H 509.925 -2.81286 -1.03431 0
M  V30 5196 H 507.486 -1.5636 -0.41991 0
M  V30 5197 H 509.478 -2.09608 -3.46189 0
M  V30 5198 H 508.048 -1.20416 -2.88477 0
M  V30 5199 H 507.268 -3.4719 -1.86689 0
M  V30 5200 H 508.556 -4.24091 -2.81113 0
M  V30 5201 H 507.954 -2.16868 -5.2248 0
M  V30 5202 H 506.511 -2.84938 -5.8622 0
M  V30 5203 N 509.944 0.496216 -1.49584 0
M  V30 5204 C 510.907 1.57952 -1.66084 0
M  V30 5205 C 511.907 1.51729 -0.53244 0
M  V30 5206 O 513.097 1.54796 -0.79899 0
M  V30 5207 C 510.229 2.97604 -1.66268 0
M  V30 5208 H 511.422 1.44649 -2.6271 0
M  V30 5209 H 508.975 0.7208 -1.38687 0
M  V30 5210 H 509.71 3.16378 -0.712432 0
M  V30 5211 H 509.495 3.03528 -2.4822 0
M  V30 5212 H 510.985 3.76301 -1.81073 0
M  V30 5213 N 511.423 1.38739 0.74761 0
M  V30 5214 C 512.37 1.36449 1.86146 0
M  V30 5215 C 513.34 0.226098 1.64554 0
M  V30 5216 O 514.525 0.41926 1.86137 0
M  V30 5217 C 511.665 1.2013 3.23516 0
M  V30 5218 C 510.778 2.43407 3.56899 0
M  V30 5219 C 509.913 2.19773 4.83605 0
M  V30 5220 C 508.952 3.3879 5.09792 0
M  V30 5221 N 508.089 3.14553 6.27695 0
M  V30 5222 H 512.929 2.3167 1.87438 0
M  V30 5223 H 510.466 1.15094 0.916063 0
M  V30 5224 H 512.424 1.08683 4.02795 0
M  V30 5225 H 511.054 0.285453 3.21535 0
M  V30 5226 H 510.106 2.65504 2.72418 0
M  V30 5227 H 511.418 3.32094 3.72176 0
M  V30 5228 H 510.572 2.05496 5.70838 0
M  V30 5229 H 509.311 1.28461 4.70478 0
M  V30 5230 H 508.316 3.53579 4.21025 0
M  V30 5231 H 509.541 4.30986 5.24812 0
M  V30 5232 H 507.487 2.25893 6.1588 0
M  V30 5233 H 507.404 3.96791 6.435 0
M  V30 5234 H 508.672 3.03943 7.17801 0
M  V30 5235 N 512.901 -0.976442 1.23707 0
M  V30 5236 C 514.131 -1.75087 1.09673 0
M  V30 5237 C 514.539 -1.85852 -0.354344 0
M  V30 5238 O 513.882 -1.33985 -1.25673 0
M  V30 5239 C 513.944 -3.19272 1.65245 0
M  V30 5240 C 513.608 -3.32004 3.14042 0
M  V30 5241 C 514.605 -3.18017 4.11292 0
M  V30 5242 C 512.29 -3.56525 3.53829 0
M  V30 5243 C 514.284 -3.28363 5.46312 0
M  V30 5244 C 511.971 -3.6651 4.88993 0
M  V30 5245 C 512.969 -3.52439 5.85043 0
M  V30 5246 O 512.657 -3.62063 7.1775 0
M  V30 5247 H 512.389 -0.556164 0.384262 0
M  V30 5248 H 514.943 -1.23518 1.64111 0
M  V30 5249 H 513.173 -3.72107 1.05231 0
M  V30 5250 H 514.862 -3.7849 1.46629 0
M  V30 5251 H 515.628 -2.98966 3.81896 0
M  V30 5252 H 511.507 -3.66547 2.79579 0
M  V30 5253 H 515.051 -3.17297 6.21263 0
M  V30 5254 H 510.948 -3.85072 5.18063 0
M  V30 5255 H 511.716 -3.78833 7.25553 0
M  V30 5256 N 514.379 -1.04941 -1.1758 0
M  V30 5257 C 515.609 -0.777166 -1.91425 0
M  V30 5258 C 516.017 0.670647 -1.76915 0
M  V30 5259 O 515.36 1.46965 -1.10213 0
M  V30 5260 C 515.422 -1.07495 -3.43052 0
M  V30 5261 C 515.086 -2.51844 -3.81345 0
M  V30 5262 C 516.083 -3.50047 -3.844 0
M  V30 5263 C 513.768 -2.86787 -4.12382 0
M  V30 5264 C 515.762 -4.81239 -4.17957 0
M  V30 5265 C 513.449 -4.18182 -4.45608 0
M  V30 5266 C 514.447 -5.15219 -4.48373 0
M  V30 5267 O 514.135 -6.44258 -4.80819 0
M  V30 5268 H 513.867 -0.282209 -0.614275 0
M  V30 5269 H 516.421 -1.40258 -1.50056 0
M  V30 5270 H 514.651 -0.392437 -3.84704 0
M  V30 5271 H 516.34 -0.78912 -3.98155 0
M  V30 5272 H 517.106 -3.24391 -3.60548 0
M  V30 5273 H 512.985 -2.11922 -4.09402 0
M  V30 5274 H 516.529 -5.56974 -4.2003 0
M  V30 5275 H 512.426 -4.43602 -4.68922 0
M  V30 5276 H 513.194 -6.49041 -4.98686 0
M  V30 5277 N 515.857 1.33968 -0.830081 0
M  V30 5278 C 516.767 2.33164 -0.259207 0
M  V30 5279 C 517.783 1.62951 0.610164 0
M  V30 5280 O 518.959 1.94668 0.516369 0
M  V30 5281 C 516.024 3.42088 0.563598 0
M  V30 5282 C 515.085 4.28037 -0.329014 0
M  V30 5283 C 514.318 5.3176 0.454616 0
M  V30 5284 O 514.541 5.44876 1.6872 0
M  V30 5285 O 513.475 6.01669 -0.166794 0
M  V30 5286 H 517.301 2.83832 -1.08041 0
M  V30 5287 H 514.886 1.37154 -0.59239 0
M  V30 5288 H 516.768 4.08581 1.03147 0
M  V30 5289 H 515.443 2.93651 1.36201 0
M  V30 5290 H 514.35 3.64443 -0.844538 0
M  V30 5291 H 515.683 4.79934 -1.09196 0
M  V30 5292 N 517.335 0.585699 1.46312 0
M  V30 5293 C 518.265 -0.133556 2.33118 0
M  V30 5294 C 519.246 -0.880707 1.45525 0
M  V30 5295 O 520.431 -0.855579 1.74337 0
M  V30 5296 C 517.561 -1.14585 3.27853 0
M  V30 5297 C 516.515 -0.513341 4.2491 0
M  V30 5298 C 515.841 -1.63231 5.09175 0
M  V30 5299 C 517.141 0.551413 5.19381 0
M  V30 5300 H 518.835 0.59121 2.93505 0
M  V30 5301 H 516.381 0.285761 1.41136 0
M  V30 5302 H 518.334 -1.65741 3.87438 0
M  V30 5303 H 517.058 -1.90093 2.65579 0
M  V30 5304 H 515.717 -0.0228349 3.66593 0
M  V30 5305 H 515.365 -2.37713 4.43285 0
M  V30 5306 H 515.065 -1.21473 5.74907 0
M  V30 5307 H 516.589 -2.14658 5.71624 0
M  V30 5308 H 518.003 0.124804 5.73164 0
M  V30 5309 H 516.4 0.889486 5.93471 0
M  V30 5310 H 517.47 1.43655 4.63132 0
M  V30 5311 N 518.813 -1.54241 0.323641 0
M  V30 5312 C 519.776 -2.22997 -0.529602 0
M  V30 5313 C 520.776 -1.22345 -1.04347 0
M  V30 5314 O 521.966 -1.46924 -0.935889 0
M  V30 5315 C 519.098 -2.93409 -1.73562 0
M  V30 5316 H 520.291 -2.99815 0.0714518 0
M  V30 5317 H 517.844 -1.56121 0.0747258 0
M  V30 5318 H 518.579 -2.20729 -2.37591 0
M  V30 5319 H 518.364 -3.67217 -1.37456 0
M  V30 5320 H 519.854 -3.45794 -2.34128 0
M  V30 5321 N 520.291 -0.0518155 -1.57515 0
M  V30 5322 C 521.707 0.304735 -1.56664 0
M  V30 5323 C 521.907 1.71395 -1.05953 0
M  V30 5324 O 520.963 2.42123 -0.716414 0
M  V30 5325 C 522.276 0.132614 -3.00407 0
M  V30 5326 C 523.824 0.20367 -3.12337 0
M  V30 5327 C 524.299 0.0600706 -4.57961 0
M  V30 5328 N 525.79 0.116326 -4.63054 0
M  V30 5329 C 526.525 0.0293363 -5.73392 0
M  V30 5330 N 526.021 -0.110038 -6.92713 0
M  V30 5331 N 527.814 0.0849651 -5.62036 0
M  V30 5332 H 519.965 -0.973056 -1.888 0
M  V30 5333 H 522.228 -0.377781 -0.869474 0
M  V30 5334 H 521.934 -0.839019 -3.41546 0
M  V30 5335 H 521.808 0.893376 -3.66468 0
M  V30 5336 H 524.195 1.16578 -2.71097 0
M  V30 5337 H 524.276 -0.587857 -2.48954 0
M  V30 5338 H 523.92 -0.898715 -4.99886 0
M  V30 5339 H 523.85 0.87075 -5.19351 0
M  V30 5340 H 526.341 0.22327 -3.7724 0
M  V30 5341 H 526.654 -0.169104 -7.72615 0
M  V30 5342 H 524.999 -0.145132 -6.94848 0
M  V30 5343 H 528.19 0.192411 -4.67704 0
M  V30 5344 H 528.363 0.0137131 -6.47999 0
M  V30 5345 N 521.769 1.56035 0.221574 0
M  V30 5346 C 522.716 1.92413 1.27459 0
M  V30 5347 C 523.686 0.781323 1.46576 0
M  V30 5348 O 524.871 1.03721 1.60145 0
M  V30 5349 C 522.011 2.24617 2.61995 0
M  V30 5350 C 521.124 3.51831 2.50677 0
M  V30 5351 C 520.259 3.73482 3.77736 0
M  V30 5352 C 519.298 4.94211 3.6114 0
M  V30 5353 N 518.435 5.12252 4.80148 0
M  V30 5354 H 523.275 2.82203 0.957355 0
M  V30 5355 H 520.812 1.39676 0.461415 0
M  V30 5356 H 522.77 2.41298 3.40339 0
M  V30 5357 H 521.4 1.38 2.91815 0
M  V30 5358 H 520.452 3.43343 1.63767 0
M  V30 5359 H 521.764 4.40328 2.34334 0
M  V30 5360 H 520.918 3.9026 4.64523 0
M  V30 5361 H 519.657 2.83266 3.97003 0
M  V30 5362 H 518.662 4.77384 2.72736 0
M  V30 5363 H 519.887 5.85912 3.43343 0
M  V30 5364 H 517.833 4.24978 4.99729 0
M  V30 5365 H 517.75 5.94881 4.66532 0
M  V30 5366 H 519.018 5.33465 5.68362 0
M  V30 5367 N 523.247 -0.488276 1.49845 0
M  V30 5368 C 524.157 -1.61451 1.70207 0
M  V30 5369 C 525.173 -1.63877 0.584846 0
M  V30 5370 O 526.349 -1.82063 0.861107 0
M  V30 5371 C 523.414 -2.9776 1.77594 0
M  V30 5372 C 522.475 -3.05861 3.01243 0
M  V30 5373 C 521.708 -4.35668 3.08268 0
M  V30 5374 O 521.931 -5.25197 2.22541 0
M  V30 5375 O 520.865 -4.49005 4.00847 0
M  V30 5376 H 524.691 -1.47199 2.65643 0
M  V30 5377 H 522.276 -0.665939 1.33737 0
M  V30 5378 H 524.158 -3.7875 1.84732 0
M  V30 5379 H 522.833 -3.12248 0.8534 0
M  V30 5380 H 521.74 -2.24012 2.99616 0
M  V30 5381 H 523.073 -2.96304 3.9302 0
M  V30 5382 N 524.725 -1.39134 -0.740242 0
M  V30 5383 C 526.141 -1.20623 -1.0451 0
M  V30 5384 C 526.341 -0.0641651 -2.01398 0
M  V30 5385 O 525.397 0.585843 -2.4561 0
M  V30 5386 C 526.71 -2.53815 -1.6124 0
M  V30 5387 C 528.258 -2.60615 -1.73346 0
M  V30 5388 C 528.733 -3.94015 -2.33486 0
M  V30 5389 N 530.224 -3.95627 -2.40902 0
M  V30 5390 C 530.959 -4.95616 -2.88361 0
M  V30 5391 N 530.455 -6.06003 -3.35756 0
M  V30 5392 N 532.248 -4.82998 -2.87523 0
M  V30 5393 H 524.399 -2.12176 -0.0975576 0
M  V30 5394 H 526.662 -0.942066 -0.105904 0
M  V30 5395 H 526.368 -3.37911 -0.975144 0
M  V30 5396 H 526.242 -2.73162 -2.6012 0
M  V30 5397 H 528.629 -1.76906 -2.36195 0
M  V30 5398 H 528.71 -2.45123 -0.731336 0
M  V30 5399 H 528.354 -4.78153 -1.71267 0
M  V30 5400 H 528.284 -4.06825 -3.34366 0
M  V30 5401 H 530.775 -3.15903 -2.07398 0
M  V30 5402 H 531.088 -6.78215 -3.70464 0
M  V30 5403 H 529.433 -6.09604 -3.33778 0
M  V30 5404 H 532.624 -3.95866 -2.49816 0
M  V30 5405 H 532.797 -5.61072 -3.24196 0
M  V30 5406 N 526.204 0.969867 -1.24223 0
M  V30 5407 C 527.136 2.0669 -0.99055 0
M  V30 5408 C 528.149 1.62753 0.0392222 0
M  V30 5409 O 529.338 1.77403 -0.197561 0
M  V30 5410 C 526.438 3.35589 -0.472594 0
M  V30 5411 C 525.611 4.08444 -1.56499 0
M  V30 5412 C 524.67 5.15616 -1.05007 0
M  V30 5413 O 523.696 5.41911 -1.7413 0
M  V30 5414 N 524.898 5.80383 0.116641 0
M  V30 5415 H 527.663 2.28855 -1.93508 0
M  V30 5416 H 525.224 1.13733 -1.15223 0
M  V30 5417 H 527.216 4.04542 -0.112919 0
M  V30 5418 H 525.786 3.10311 0.377617 0
M  V30 5419 H 525.006 3.33798 -2.09696 0
M  V30 5420 H 526.294 4.53882 -2.29932 0
M  V30 5421 H 525.692 5.6142 0.694589 0
M  V30 5422 H 524.249 6.50462 0.417483 0
M  V30 5423 N 527.682 1.05563 1.17022 0
M  V30 5424 C 528.612 0.681026 2.23348 0
M  V30 5425 C 529.593 -0.322983 1.67005 0
M  V30 5426 O 530.778 -0.199746 1.9317 0
M  V30 5427 C 527.908 0.0589053 3.4725 0
M  V30 5428 C 526.862 0.988082 4.16438 0
M  V30 5429 C 526.188 0.229646 5.34207 0
M  V30 5430 C 527.488 2.31388 4.68249 0
M  V30 5431 H 529.182 1.56993 2.54938 0
M  V30 5432 H 526.728 0.756302 1.2254 0
M  V30 5433 H 528.681 -0.214982 4.20851 0
M  V30 5434 H 527.405 -0.864968 3.14938 0
M  V30 5435 H 526.064 1.24659 3.44754 0
M  V30 5436 H 525.712 -0.697111 4.98146 0
M  V30 5437 H 525.412 0.848815 5.81437 0
M  V30 5438 H 526.936 -0.0368694 6.10589 0
M  V30 5439 H 528.35 2.09964 5.33468 0
M  V30 5440 H 526.747 2.88736 5.26072 0
M  V30 5441 H 527.817 2.94982 3.84855 0
M  V30 5442 N 529.16 -1.33526 0.837174 0
M  V30 5443 C 530.11 -2.2672 0.241269 0
M  V30 5444 C 531.094 -1.49183 -0.602756 0
M  V30 5445 O 532.286 -1.71052 -0.455002 0
M  V30 5446 C 529.415 -3.38294 -0.584125 0
M  V30 5447 C 528.501 -4.23231 0.271315 0
M  V30 5448 N 528.892 -4.87473 1.34922 0
M  V30 5449 C 527.19 -4.45962 0.0580589 0
M  V30 5450 C 527.891 -5.50685 1.87405 0
M  V30 5451 N 526.867 -5.30732 1.17578 0
M  V30 5452 H 530.669 -2.73903 1.06558 0
M  V30 5453 H 528.183 -1.47411 0.68145 0
M  V30 5454 H 530.18 -4.04044 -1.02731 0
M  V30 5455 H 528.84 -2.9266 -1.40643 0
M  V30 5456 H 529.851 -4.88077 1.7321 0
M  V30 5457 H 526.528 -4.11052 -0.730938 0
M  V30 5458 H 527.918 -6.11845 2.77661 0
M  V30 5459 N 530.638 -0.59345 -1.46 0
M  V30 5460 C 531.571 0.182196 -2.27472 0
M  V30 5461 C 532.549 0.886901 -1.36282 0
M  V30 5462 O 533.733 0.898627 -1.65701 0
M  V30 5463 C 530.86 1.26236 -3.14296 0
M  V30 5464 C 529.906 0.662331 -4.21326 0
M  V30 5465 S 530.739 -0.519017 -5.32979 0
M  V30 5466 C 531.895 0.562086 -6.23371 0
M  V30 5467 H 532.128 -0.509056 -2.92909 0
M  V30 5468 H 529.661 -0.380607 -1.49635 0
M  V30 5469 H 531.619 1.88075 -3.64881 0
M  V30 5470 H 530.28 1.92562 -2.48151 0
M  V30 5471 H 529.473 1.47461 -4.81945 0
M  V30 5472 H 529.075 0.119381 -3.73809 0
M  V30 5473 H 531.367 1.44494 -6.61912 0
M  V30 5474 H 532.31 -0.00760776 -7.081 0
M  V30 5475 H 532.718 0.871061 -5.57739 0
M  V30 5476 N 532.116 1.54067 -0.331816 0
M  V30 5477 C 533.048 2.22139 0.564538 0
M  V30 5478 C 534.061 1.22408 1.07332 0
M  V30 5479 O 535.25 1.4883 0.985481 0
M  V30 5480 C 532.35 2.87876 1.78831 0
M  V30 5481 C 531.523 4.13817 1.41682 0
M  V30 5482 C 530.582 4.63072 2.49901 0
M  V30 5483 O 529.608 5.27562 2.13699 0
M  V30 5484 N 530.81 4.38001 3.80967 0
M  V30 5485 H 533.575 2.99694 -0.0183736 0
M  V30 5486 H 531.136 1.61153 -0.155396 0
M  V30 5487 H 533.128 3.17747 2.50637 0
M  V30 5488 H 531.698 2.13977 2.27887 0
M  V30 5489 H 530.918 3.9062 0.530044 0
M  V30 5490 H 532.206 4.95762 1.14443 0
M  V30 5491 H 531.604 3.864 4.13173 0
M  V30 5492 H 530.161 4.72507 4.48977 0
M  V30 5493 N 533.594 0.0601682 1.57485 0
M  V30 5494 C 534.524 -0.90889 2.15085 0
M  V30 5495 C 535.505 -1.31838 1.07484 0
M  V30 5496 O 536.69 -1.3915 1.35466 0
M  V30 5497 C 533.82 -2.18059 2.7031 0
M  V30 5498 C 532.774 -1.91088 3.82974 0
M  V30 5499 C 532.1 -3.24789 4.24754 0
M  V30 5500 C 533.4 -1.22535 5.07723 0
M  V30 5501 H 535.094 -0.429093 2.96309 0
M  V30 5502 H 532.64 -0.204952 1.42534 0
M  V30 5503 H 534.593 -2.86258 3.09248 0
M  V30 5504 H 533.317 -2.6826 1.8629 0
M  V30 5505 H 531.976 -1.25297 3.44523 0
M  V30 5506 H 531.624 -3.72809 3.37672 0
M  V30 5507 H 531.324 -3.07538 5.00694 0
M  V30 5508 H 532.848 -3.94205 4.66299 0
M  V30 5509 H 534.262 -1.80783 5.4405 0
M  V30 5510 H 532.659 -1.1558 5.88864 0
M  V30 5511 H 533.729 -0.202692 4.84476 0
M  V30 5512 N 535.072 -1.5615 -0.213296 0
M  V30 5513 C 536.302 -1.83372 -0.951757 0
M  V30 5514 C 536.71 -0.638158 -1.78113 0
M  V30 5515 O 536.053 0.402609 -1.79234 0
M  V30 5516 C 536.115 -3.04444 -1.91192 0
M  V30 5517 C 535.779 -4.39107 -1.26627 0
M  V30 5518 C 536.776 -5.15794 -0.652087 0
M  V30 5519 C 534.461 -4.85834 -1.27556 0
M  V30 5520 C 536.455 -6.37376 -0.055814 0
M  V30 5521 C 534.142 -6.07356 -0.675451 0
M  V30 5522 C 535.14 -6.82967 -0.0666367 0
M  V30 5523 O 534.828 -8.0219 0.524119 0
M  V30 5524 H 534.56 -0.613398 -0.284111 0
M  V30 5525 H 537.114 -2.04096 -0.231112 0
M  V30 5526 H 535.344 -2.79559 -2.67178 0
M  V30 5527 H 537.033 -3.18466 -2.51662 0
M  V30 5528 H 537.799 -4.80796 -0.637172 0
M  V30 5529 H 533.678 -4.26949 -1.73883 0
M  V30 5530 H 537.222 -6.96334 0.420004 0
M  V30 5531 H 533.119 -6.41825 -0.687806 0
M  V30 5532 H 533.887 -8.17426 0.419243 0
M  V30 5533 N 536.55 0.480323 -1.50102 0
M  V30 5534 C 537.961 1.06142 -1.53593 0
M  V30 5535 C 538.312 1.93335 -0.334055 0
M  V30 5536 O 537.437 2.09188 0.55403 0
M  V30 5537 C 538.032 1.9317 -2.78336 0
M  V30 5538 C 536.591 2.46405 -2.84538 0
M  V30 5539 C 535.738 1.24521 -2.4777 0
M  V30 5540 H 538.689 0.26333 -1.565 0
M  V30 5541 H 538.71 2.78123 -2.59669 0
M  V30 5542 H 538.222 1.29683 -3.65792 0
M  V30 5543 H 536.323 3.13472 -2.01411 0
M  V30 5544 H 536.436 2.82143 -3.87211 0
M  V30 5545 H 534.8 1.57706 -2.00003 0
M  V30 5546 H 535.583 0.627102 -3.37524 0
M  V30 5547 N 538.028 1.39524 0.732853 0
M  V30 5548 C 539.276 1.36594 1.48951 0
M  V30 5549 C 539.597 -0.0367507 1.94965 0
M  V30 5550 O 538.867 -0.988391 1.69138 0
M  V30 5551 H 537.447 0.502673 0.552566 0
M  V30 5552 H 540.109 1.74411 0.869869 0
M  V30 5553 H 539.205 2.03 2.3706 0
M  V30 5554 N 539.506 -0.963266 1.24736 0
M  V30 5555 C 540.752 -1.71 1.10139 0
M  V30 5556 C 541.107 -1.89089 -0.35541 0
M  V30 5557 O 540.4 -1.44451 -1.25875 0
M  V30 5558 C 540.594 -3.09944 1.7796 0
M  V30 5559 C 540.423 -3.05408 3.30085 0
M  V30 5560 C 539.193 -3.09643 3.99311 0
M  V30 5561 C 541.391 -2.87241 4.26611 0
M  V30 5562 N 539.373 -2.95174 5.3828 0
M  V30 5563 C 540.744 -2.81114 5.52607 0
M  V30 5564 C 542.799 -2.71856 4.17132 0
M  V30 5565 C 541.502 -2.61174 6.70209 0
M  V30 5566 C 543.528 -2.53284 5.34417 0
M  V30 5567 C 542.89 -2.4787 6.59348 0
M  V30 5568 H 538.989 -0.634078 0.457678 0
M  V30 5569 H 541.573 -1.14169 1.57713 0
M  V30 5570 H 539.744 -3.64958 1.32893 0
M  V30 5571 H 541.476 -3.73348 1.56183 0
M  V30 5572 H 538.231 -3.18498 3.50508 0
M  V30 5573 H 538.655 -2.91168 6.11188 0
M  V30 5574 H 543.297 -2.74821 3.21299 0
M  V30 5575 H 541.015 -2.56952 7.6616 0
M  V30 5576 H 544.601 -2.42317 5.28936 0
M  V30 5577 H 543.481 -2.33685 7.48573 0
M  V30 5578 N 540.985 -1.06182 -1.16461 0
M  V30 5579 C 542.21 -0.798599 -1.91408 0
M  V30 5580 C 542.635 0.640987 -1.76842 0
M  V30 5581 O 541.993 1.44652 -1.09296 0
M  V30 5582 C 542.041 -1.19665 -3.40165 0
M  V30 5583 O 541.145 -0.334768 -4.11039 0
M  V30 5584 H 540.486 -0.291961 -0.596368 0
M  V30 5585 H 543.016 -1.41732 -1.47557 0
M  V30 5586 H 543.026 -1.16772 -3.90933 0
M  V30 5587 H 541.701 -2.24526 -3.50087 0
M  V30 5588 H 540.278 -0.425168 -3.70468 0
M  V30 5589 N 542.463 1.3308 -0.844243 0
M  V30 5590 C 543.426 2.27403 -0.286485 0
M  V30 5591 C 544.426 1.51179 0.547872 0
M  V30 5592 O 545.616 1.70421 0.360886 0
M  V30 5593 C 542.748 3.35653 0.595813 0
M  V30 5594 H 543.941 2.78248 -1.11885 0
M  V30 5595 H 541.494 1.43574 -0.617749 0
M  V30 5596 H 542.229 2.90058 1.4504 0
M  V30 5597 H 542.014 3.921 -0.00125994 0
M  V30 5598 H 543.504 4.05958 0.979168 0
M  V30 5599 N 543.941 0.601185 1.45683 0
M  V30 5600 C 545.357 0.264315 1.57396 0
M  V30 5601 C 545.557 -1.23324 1.59353 0
M  V30 5602 O 544.613 -2.01594 1.52039 0
M  V30 5603 C 545.926 0.929839 2.85962 0
M  V30 5604 C 547.474 0.905156 2.99626 0
M  V30 5605 C 547.949 1.55057 4.30954 0
M  V30 5606 N 549.44 1.51576 4.37697 0
M  V30 5607 C 550.175 1.98436 5.37969 0
M  V30 5608 N 549.671 2.53352 6.44813 0
M  V30 5609 N 551.464 1.89242 5.29286 0
M  V30 5610 H 543.615 1.57363 1.42656 0
M  V30 5611 H 545.878 0.658831 0.681649 0
M  V30 5612 H 545.584 1.98404 2.90394 0
M  V30 5613 H 545.458 0.449224 3.74515 0
M  V30 5614 H 547.845 -0.14048 2.94765 0
M  V30 5615 H 547.926 1.42397 2.12501 0
M  V30 5616 H 547.57 2.5955 4.36573 0
M  V30 5617 H 547.5 1.00682 5.16886 0
M  V30 5618 H 549.991 1.11452 3.61091 0
M  V30 5619 H 550.304 2.86918 7.17564 0
M  V30 5620 H 548.649 2.57388 6.45582 0
M  V30 5621 H 551.84 1.46083 4.44722 0
M  V30 5622 H 552.013 2.26075 6.07284 0
M  V30 5623 N 545.419 -1.53889 0.339982 0
M  V30 5624 C 546.696 -1.93084 -0.312719 0
M  V30 5625 C 547.076 -1.2712 -1.68534 0
M  V30 5626 O 546.424 -0.420835 -2.24591 0
M  V30 5627 C 546.634 -3.4683 -0.388558 0
M  V30 5628 C 547.982 -4.19732 -0.641088 0
M  V30 5629 O 549.006 -3.53075 -0.470818 0
M  V30 5630 O 547.865 -5.3781 -0.970685 0
M  V30 5631 H 544.959 -0.806784 -0.18174 0
M  V30 5632 H 547.505 -1.65137 0.390898 0
M  V30 5633 H 546.277 -3.87055 0.574821 0
M  V30 5634 H 545.9 -3.80933 -1.1391 0
M  V30 5635 N 546.897 -0.0685191 -1.57451 0
M  V30 5636 C 547.845 0.917577 -2.13736 0
M  V30 5637 C 548.839 1.31049 -1.07344 0
M  V30 5638 O 550.045 1.28811 -1.25728 0
M  V30 5639 H 546.42 0.313835 -0.683382 0
M  V30 5640 H 548.391 0.417903 -2.95459 0
M  V30 5641 C 547.14 2.17686 -2.71123 0
M  V30 5642 H 546.463 1.88336 -3.52661 0
M  V30 5643 H 547.903 2.84803 -3.14107 0
M  V30 5644 C 546.362 2.9332 -1.65726 0
M  V30 5645 O 546.892 3.86901 -1.08031 0
M  V30 5646 N 545.098 2.56367 -1.36837 0
M  V30 5647 H 544.645 1.80341 -1.83943 0
M  V30 5648 H 544.603 3.07276 -0.665501 0
M  V30 5649 N 548.375 1.56261 0.205012 0
M  V30 5650 C 549.605 1.83874 0.942018 0
M  V30 5651 C 550.013 0.647595 1.77772 0
M  V30 5652 O 549.356 -0.393098 1.79445 0
M  V30 5653 C 549.418 3.05453 1.89575 0
M  V30 5654 C 549.082 4.39772 1.24296 0
M  V30 5655 C 550.079 5.16133 0.624724 0
M  V30 5656 C 547.764 4.86504 1.24978 0
M  V30 5657 C 549.758 6.37396 0.0220117 0
M  V30 5658 C 547.445 6.07705 0.643232 0
M  V30 5659 C 548.443 6.82993 0.0304164 0
M  V30 5660 O 548.131 8.019 -0.566654 0
M  V30 5661 H 547.863 0.614896 0.280854 0
M  V30 5662 H 550.417 2.04215 0.220285 0
M  V30 5663 H 548.647 2.80972 2.65691 0
M  V30 5664 H 550.336 3.19797 2.4997 0
M  V30 5665 H 551.102 4.81127 0.611666 0
M  V30 5666 H 546.981 4.27865 1.71616 0
M  V30 5667 H 550.525 6.96102 -0.456926 0
M  V30 5668 H 546.422 6.42181 0.653759 0
M  V30 5669 H 547.19 8.17192 -0.462588 0
M  V30 5670 N 549.853 -0.472356 1.50355 0
M  V30 5671 C 551.101 -1.22211 1.60962 0
M  V30 5672 C 551.422 -1.92497 0.311439 0
M  V30 5673 O 550.692 -1.8405 -0.671002 0
M  V30 5674 H 549.272 -0.454092 0.593135 0
M  V30 5675 H 551.934 -0.544977 1.87126 0
M  V30 5676 H 551.03 -1.9707 2.42012 0
M  V30 5677 N 551.331 -1.39911 -0.725443 0
M  V30 5678 C 552.278 -1.39393 -1.83952 0
M  V30 5679 C 553.248 -0.252249 -1.64173 0
M  V30 5680 O 554.433 -0.44882 -1.85446 0
M  V30 5681 C 551.573 -1.25262 -3.21564 0
M  V30 5682 C 550.686 -2.49054 -3.52982 0
M  V30 5683 C 549.821 -2.27439 -4.80047 0
M  V30 5684 C 548.86 -3.46857 -5.04338 0
M  V30 5685 N 547.997 -3.24499 -6.22611 0
M  V30 5686 H 552.837 -2.34622 -1.83729 0
M  V30 5687 H 550.374 -1.16537 -0.897636 0
M  V30 5688 H 552.332 -1.15077 -4.01015 0
M  V30 5689 H 550.962 -0.33657 -3.21041 0
M  V30 5690 H 550.014 -2.69805 -2.6816 0
M  V30 5691 H 551.326 -3.37973 -3.66846 0
M  V30 5692 H 550.48 -2.14551 -5.67497 0
M  V30 5693 H 549.219 -1.35929 -4.68374 0
M  V30 5694 H 548.224 -3.60232 -4.15346 0
M  V30 5695 H 549.449 -4.3928 -5.17889 0
M  V30 5696 H 547.395 -2.35663 -6.12208 0
M  V30 5697 H 547.312 -4.06978 -6.37106 0
M  V30 5698 H 548.58 -3.15325 -7.12875 0
M  V30 5699 N 552.809 0.956637 -1.25245 0
M  V30 5700 C 553.756 2.053 -1.05454 0
M  V30 5701 C 554.726 1.66062 0.0356889 0
M  V30 5702 O 555.911 1.90415 -0.121099 0
M  V30 5703 C 553.051 3.38391 -0.677191 0
M  V30 5704 C 552.164 3.90758 -1.84206 0
M  V30 5705 C 551.299 5.12165 -1.40926 0
M  V30 5706 C 550.338 5.56757 -2.54338 0
M  V30 5707 N 549.475 6.69376 -2.11848 0
M  V30 5708 H 554.315 2.21562 -1.99284 0
M  V30 5709 H 551.852 1.08578 -0.992434 0
M  V30 5710 H 553.81 4.1488 -0.43938 0
M  V30 5711 H 552.44 3.22021 0.224127 0
M  V30 5712 H 551.492 3.10808 -2.19323 0
M  V30 5713 H 552.804 4.19802 -2.69383 0
M  V30 5714 H 551.958 5.96065 -1.13098 0
M  V30 5715 H 550.697 4.84832 -0.528175 0
M  V30 5716 H 549.702 4.71423 -2.82913 0
M  V30 5717 H 550.927 5.861 -3.43022 0
M  V30 5718 H 548.873 6.43756 -1.26153 0
M  V30 5719 H 548.79 6.97927 -2.90574 0
M  V30 5720 H 550.058 7.5669 -1.87191 0
M  V30 5721 N 554.287 1.06798 1.15896 0
M  V30 5722 C 555.234 0.683314 2.20453 0
M  V30 5723 C 556.204 -0.32255 1.62938 0
M  V30 5724 O 557.389 -0.210276 1.89638 0
M  V30 5725 C 554.529 0.0813266 3.45004 0
M  V30 5726 C 553.642 1.13799 4.16742 0
M  V30 5727 C 552.777 0.501598 5.28826 0
M  V30 5728 C 551.816 1.54144 5.92373 0
M  V30 5729 N 550.953 0.928038 6.9594 0
M  V30 5730 H 555.793 1.57932 2.52708 0
M  V30 5731 H 553.33 0.789544 1.24115 0
M  V30 5732 H 555.288 -0.285274 4.16224 0
M  V30 5733 H 553.918 -0.77806 3.13283 0
M  V30 5734 H 552.97 1.62223 3.44075 0
M  V30 5735 H 554.282 1.92664 4.60089 0
M  V30 5736 H 553.436 0.0823162 6.06644 0
M  V30 5737 H 552.175 -0.318883 4.86656 0
M  V30 5738 H 551.18 1.97056 5.13273 0
M  V30 5739 H 552.405 2.3641 6.36621 0
M  V30 5740 H 550.351 0.12836 6.55874 0
M  V30 5741 H 550.268 1.65401 7.37685 0
M  V30 5742 H 551.536 0.534071 7.77668 0
M  V30 5743 N 555.766 -1.3263 0.851289 0
M  V30 5744 C 556.713 -2.28952 0.291469 0
M  V30 5745 C 557.683 -1.54897 -0.599676 0
M  V30 5746 O 558.868 -1.83137 -0.535305 0
M  V30 5747 C 556.008 -3.41206 -0.516992 0
M  V30 5748 C 555.121 -4.30148 0.399566 0
M  V30 5749 C 554.256 -5.29527 -0.4212 0
M  V30 5750 C 553.295 -6.10112 0.492969 0
M  V30 5751 N 552.432 -7.01499 -0.290414 0
M  V30 5752 H 557.272 -2.76228 1.11813 0
M  V30 5753 H 554.809 -1.35907 0.562826 0
M  V30 5754 H 556.767 -4.05005 -1.00132 0
M  V30 5755 H 555.397 -2.9509 -1.30851 0
M  V30 5756 H 554.449 -3.66959 1.00227 0
M  V30 5757 H 555.761 -4.8649 1.1013 0
M  V30 5758 H 554.915 -5.98914 -0.968832 0
M  V30 5759 H 553.654 -4.73794 -1.15632 0
M  V30 5760 H 552.659 -5.39632 1.05251 0
M  V30 5761 H 553.884 -6.6793 1.22664 0
M  V30 5762 H 551.83 -6.48199 -1.00868 0
M  V30 5763 H 551.747 -7.55178 0.352354 0
M  V30 5764 H 553.015 -7.75176 -0.819882 0
M  V30 5765 N 557.244 -0.608902 -1.45362 0
M  V30 5766 C 558.66 -0.272659 -1.57254 0
M  V30 5767 C 558.86 1.22477 -1.60005 0
M  V30 5768 O 557.916 2.00785 -1.53106 0
M  V30 5769 C 559.229 -0.944991 -2.85465 0
M  V30 5770 C 560.777 -0.921033 -2.99142 0
M  V30 5771 C 561.252 -1.5734 -4.30126 0
M  V30 5772 N 562.743 -1.53895 -4.36887 0
M  V30 5773 C 563.478 -2.01286 -5.36909 0
M  V30 5774 N 562.974 -2.56768 -6.43461 0
M  V30 5775 N 564.767 -1.92046 -5.28275 0
M  V30 5776 H 556.918 -1.58117 -1.4182 0
M  V30 5777 H 559.181 -0.662437 -0.678146 0
M  V30 5778 H 558.887 -1.99941 -2.89338 0
M  V30 5779 H 558.761 -0.469079 -3.74272 0
M  V30 5780 H 561.148 0.124846 -2.94836 0
M  V30 5781 H 561.229 -1.43522 -2.11743 0
M  V30 5782 H 560.873 -2.61862 -4.35191 0
M  V30 5783 H 560.803 -1.03422 -5.16344 0
M  V30 5784 H 563.294 -1.13366 -3.60495 0
M  V30 5785 H 563.607 -2.9072 -7.16032 0
M  V30 5786 H 561.952 -2.60808 -6.44208 0
M  V30 5787 H 565.143 -1.48439 -4.43941 0
M  V30 5788 H 565.316 -2.29293 -6.06077 0
M  V30 5789 N 558.722 1.53707 -0.348139 0
M  V30 5790 C 559.669 2.25173 0.506518 0
M  V30 5791 C 560.639 1.25174 1.09182 0
M  V30 5792 O 561.824 1.53917 1.12757 0
M  V30 5793 C 558.964 3.03141 1.64923 0
M  V30 5794 C 558.077 4.18002 1.0908 0
M  V30 5795 C 557.212 4.83447 2.20119 0
M  V30 5796 C 556.251 5.90369 1.61651 0
M  V30 5797 N 555.388 6.49575 2.66451 0
M  V30 5798 H 560.228 2.97799 -0.109452 0
M  V30 5799 H 557.765 1.46953 -0.0657866 0
M  V30 5800 H 559.723 3.46607 2.32205 0
M  V30 5801 H 558.353 2.32803 2.23612 0
M  V30 5802 H 557.405 3.79145 0.308783 0
M  V30 5803 H 558.717 4.94892 0.623178 0
M  V30 5804 H 557.871 5.30008 2.95257 0
M  V30 5805 H 556.61 4.05991 2.70227 0
M  V30 5806 H 555.615 5.43186 0.850209 0
M  V30 5807 H 556.84 6.69735 1.1239 0
M  V30 5808 H 554.786 5.74981 3.15805 0
M  V30 5809 H 554.703 7.21952 2.24325 0
M  V30 5810 H 555.971 7.00789 3.41344 0
M  V30 5811 N 560.2 0.0768682 1.57412 0
M  V30 5812 C 561.616 -0.279772 1.57129 0
M  V30 5813 C 561.816 -1.69688 1.08666 0
M  V30 5814 O 560.872 -2.40953 0.754843 0
M  V30 5815 C 562.185 -0.0848055 3.0058 0
M  V30 5816 C 563.733 -0.153954 3.12621 0
M  V30 5817 C 564.208 0.0127946 4.57998 0
M  V30 5818 N 565.699 -0.0426435 4.6318 0
M  V30 5819 C 566.434 0.0618892 5.73367 0
M  V30 5820 N 565.93 0.220229 6.9245 0
M  V30 5821 N 567.723 0.00446072 5.621 0
M  V30 5822 H 559.874 1.00297 1.87228 0
M  V30 5823 H 562.137 0.391565 0.863354 0
M  V30 5824 H 561.843 0.89325 3.40168 0
M  V30 5825 H 561.717 -0.834961 3.67843 0
M  V30 5826 H 564.104 -1.1225 2.72917 0
M  V30 5827 H 564.185 0.627389 2.47987 0
M  V30 5828 H 563.829 0.978128 4.98392 0
M  V30 5829 H 563.759 -0.788016 5.20671 0
M  V30 5830 H 566.25 -0.163226 3.77547 0
M  V30 5831 H 566.563 0.291999 7.72248 0
M  V30 5832 H 564.908 0.255658 6.9453 0
M  V30 5833 H 568.099 -0.117979 4.67951 0
M  V30 5834 H 568.272 0.0893796 6.47938 0
M  V30 5835 N 561.678 -1.56367 -0.196722 0
M  V30 5836 C 562.588 -1.97617 -1.2643 0
M  V30 5837 C 563.604 -0.883598 -1.49895 0
M  V30 5838 O 564.78 -1.18921 -1.62541 0
M  V30 5839 C 561.845 -2.30595 -2.58895 0
M  V30 5840 C 560.906 -3.53551 -2.43516 0
M  V30 5841 C 560.139 -3.84946 -3.69665 0
M  V30 5842 O 560.362 -3.17655 -4.73763 0
M  V30 5843 O 559.296 -4.78379 -3.65291 0
M  V30 5844 H 563.122 -2.88648 -0.944233 0
M  V30 5845 H 560.707 -1.43901 -0.401592 0
M  V30 5846 H 562.589 -2.52889 -3.37083 0
M  V30 5847 H 561.264 -1.42732 -2.90533 0
M  V30 5848 H 560.171 -3.36507 -1.63445 0
M  V30 5849 H 561.504 -4.41875 -2.16812 0
M  V30 5850 N 563.156 0.464375 -1.50603 0
M  V30 5851 C 564.103 1.56152 -1.69956 0
M  V30 5852 C 565.073 1.57046 -0.54091 0
M  V30 5853 O 566.258 1.74473 -0.772258 0
M  V30 5854 C 563.398 2.94079 -1.80586 0
M  V30 5855 C 562.511 3.02923 -3.07996 0
M  V30 5856 C 561.646 4.31806 -3.09382 0
M  V30 5857 C 560.685 4.34417 -4.31218 0
M  V30 5858 N 559.822 5.54782 -4.30304 0
M  V30 5859 H 564.662 1.38955 -2.6362 0
M  V30 5860 H 562.199 0.675482 -1.30674 0
M  V30 5861 H 564.157 3.74073 -1.8473 0
M  V30 5862 H 562.787 3.09896 -0.903556 0
M  V30 5863 H 561.839 2.1576 -3.13292 0
M  V30 5864 H 563.151 3.00712 -3.97962 0
M  V30 5865 H 562.305 5.20153 -3.12292 0
M  V30 5866 H 561.044 4.36636 -2.17257 0
M  V30 5867 H 560.049 3.44467 -4.28512 0
M  V30 5868 H 561.274 4.31273 -5.24576 0
M  V30 5869 H 559.22 5.60384 -3.41037 0
M  V30 5870 H 559.137 5.54339 -5.14047 0
M  V30 5871 H 560.405 6.45235 -4.3737 0
M  V30 5872 N 564.634 1.40294 0.718013 0
M  V30 5873 C 565.564 1.43118 1.84498 0
M  V30 5874 C 566.545 0.292403 1.67568 0
M  V30 5875 O 567.73 0.500675 1.87635 0
M  V30 5876 C 564.86 1.29065 3.22427 0
M  V30 5877 C 563.814 2.40521 3.54025 0
M  V30 5878 C 563.14 2.11546 4.91073 0
M  V30 5879 C 564.44 3.82859 3.55269 0
M  V30 5880 H 566.134 2.37432 1.82391 0
M  V30 5881 H 563.68 1.14283 0.87609 0
M  V30 5882 H 565.633 1.29658 4.00957 0
M  V30 5883 H 564.357 0.312271 3.25104 0
M  V30 5884 H 563.016 2.39173 2.77834 0
M  V30 5885 H 562.664 1.12104 4.90348 0
M  V30 5886 H 562.364 2.86216 5.1318 0
M  V30 5887 H 563.888 2.13817 5.71939 0
M  V30 5888 H 565.302 3.86044 4.23843 0
M  V30 5889 H 563.699 4.57029 3.88902 0
M  V30 5890 H 564.769 4.12617 2.54706 0
M  V30 5891 N 566.112 -0.949982 1.2575 0
M  V30 5892 C 567.044 -2.05088 1.02331 0
M  V30 5893 C 568.057 -1.62795 -0.0133247 0
M  V30 5894 O 569.246 -1.77067 0.225759 0
M  V30 5895 C 566.346 -3.34794 0.525924 0
M  V30 5896 C 565.519 -4.05903 1.62978 0
M  V30 5897 C 564.578 -5.1388 1.13196 0
M  V30 5898 O 563.604 -5.39072 1.82729 0
M  V30 5899 N 564.806 -5.80495 -0.0242926 0
M  V30 5900 H 567.571 -2.25747 1.97125 0
M  V30 5901 H 565.132 -1.11886 1.17018 0
M  V30 5902 H 567.124 -4.04312 0.177263 0
M  V30 5903 H 565.694 -3.10872 -0.328202 0
M  V30 5904 H 564.914 -3.3042 2.1498 0
M  V30 5905 H 566.202 -4.50166 2.37124 0
M  V30 5906 H 565.6 -5.62454 -0.605184 0
M  V30 5907 H 564.157 -6.51043 -0.313947 0
M  V30 5908 N 567.59 -1.07411 -1.15328 0
M  V30 5909 C 568.5 -0.706438 -2.23711 0
M  V30 5910 C 569.516 0.282586 -1.7169 0
M  V30 5911 O 570.692 0.129066 -2.00986 0
M  V30 5912 C 567.757 -0.11048 -3.46524 0
M  V30 5913 C 566.818 -1.15282 -4.13532 0
M  V30 5914 C 566.051 -0.585205 -5.30482 0
M  V30 5915 O 566.274 0.598549 -5.67251 0
M  V30 5916 O 565.208 -1.33039 -5.87013 0
M  V30 5917 H 569.034 -1.61031 -2.57493 0
M  V30 5918 H 566.619 -0.847113 -1.23062 0
M  V30 5919 H 568.501 0.21957 -4.20828 0
M  V30 5920 H 567.176 0.766703 -3.14489 0
M  V30 5921 H 566.083 -1.53523 -3.41147 0
M  V30 5922 H 567.416 -2.00192 -4.49649 0
M  V30 5923 N 569.068 1.32177 -0.85831 0
M  V30 5924 C 570.293 2.01847 -0.476718 0
M  V30 5925 C 570.718 1.64065 0.920021 0
M  V30 5926 O 570.076 0.843189 1.60499 0
M  V30 5927 C 570.124 3.55097 -0.627578 0
M  V30 5928 O 569.228 4.11012 0.338086 0
M  V30 5929 H 568.569 0.635907 -0.191099 0
M  V30 5930 H 571.099 1.68641 -1.15851 0
M  V30 5931 H 571.109 4.04718 -0.516476 0
M  V30 5932 H 569.784 3.81938 -1.64609 0
M  V30 5933 H 568.361 3.72451 0.182917 0
M  V30 5934 N 570.547 0.616602 1.45037 0
M  V30 5935 C 571.51 -0.0871112 2.29034 0
M  V30 5936 C 572.51 -0.786414 1.40258 0
M  V30 5937 O 573.7 -0.633207 1.62284 0
M  V30 5938 C 570.832 -1.13369 3.21497 0
M  V30 5939 H 572.025 0.651497 2.92738 0
M  V30 5940 H 569.578 0.376058 1.51709 0
M  V30 5941 H 570.313 -1.90277 2.62612 0
M  V30 5942 H 570.098 -0.636358 3.86902 0
M  V30 5943 H 571.588 -1.62627 3.84633 0
M  V30 5944 N 572.025 -1.5352 0.356285 0
M  V30 5945 C 573.25 -2.06007 -0.239961 0
M  V30 5946 C 573.675 -1.22872 -1.42422 0
M  V30 5947 O 573.033 -0.245516 -1.7963 0
M  V30 5948 C 573.081 -3.5522 -0.620587 0
M  V30 5949 O 572.185 -3.74864 -1.71902 0
M  V30 5950 H 571.526 -0.662961 -0.0371377 0
M  V30 5951 H 574.056 -1.98033 0.514194 0
M  V30 5952 H 574.066 -3.98081 -0.894197 0
M  V30 5953 H 572.741 -4.15175 0.245407 0
M  V30 5954 H 571.318 -3.43904 -1.44169 0
M  V30 5955 N 573.503 -0.0852151 -1.57369 0
M  V30 5956 C 574.751 0.579658 -1.93609 0
M  V30 5957 C 575.072 1.69332 -0.967043 0
M  V30 5958 O 574.342 1.95892 -0.0174215 0
M  V30 5959 H 572.922 0.217113 -0.714752 0
M  V30 5960 H 575.584 -0.146226 -1.94351 0
M  V30 5961 H 574.68 0.996276 -2.95771 0
M  V30 5962 N 574.981 1.5647 0.188427 0
M  V30 5963 C 576.209 1.85131 0.923803 0
M  V30 5964 C 576.624 0.668537 1.76567 0
M  V30 5965 O 575.981 -0.362662 1.7886 0
M  V30 5966 C 576.032 3.12661 1.81453 0
M  V30 5967 O 575.753 4.26378 1.00665 0
M  V30 5968 C 577.254 3.54548 2.66103 0
M  V30 5969 H 574.474 0.614624 0.269218 0
M  V30 5970 H 577.018 2.03581 0.193671 0
M  V30 5971 H 575.173 2.96088 2.49821 0
M  V30 5972 H 575.587 4.99041 1.61425 0
M  V30 5973 H 577.061 4.4673 3.24247 0
M  V30 5974 H 577.538 2.77853 3.40139 0
M  V30 5975 H 578.144 3.73674 2.03096 0
M  V30 5976 N 576.459 -0.456382 1.50847 0
M  V30 5977 C 577.707 -1.20497 1.62249 0
M  V30 5978 C 578.028 -1.92156 0.331839 0
M  V30 5979 O 577.298 -1.84751 -0.651443 0
M  V30 5980 H 575.878 -0.447775 0.597918 0
M  V30 5981 H 578.54 -0.525099 1.87693 0
M  V30 5982 H 577.636 -1.94492 2.44089 0
M  V30 5983 N 577.937 -1.40673 -0.710563 0
M  V30 5984 C 579.348 -1.34975 -1.28991 0
M  V30 5985 C 579.699 -0.0256272 -1.96183 0
M  V30 5986 O 578.824 0.876339 -1.97862 0
M  V30 5987 C 579.419 -2.44467 -2.34567 0
M  V30 5988 C 577.978 -2.42213 -2.88114 0
M  V30 5989 C 577.125 -2.25085 -1.61963 0
M  V30 5990 H 580.076 -1.50406 -0.506343 0
M  V30 5991 H 580.097 -2.12663 -3.15523 0
M  V30 5992 H 579.609 -3.40825 -1.85634 0
M  V30 5993 H 577.71 -1.49568 -3.41263 0
M  V30 5994 H 577.823 -3.37983 -3.39565 0
M  V30 5995 H 576.187 -1.72691 -1.87216 0
M  V30 5996 H 576.97 -3.23449 -1.15047 0
M  V30 5997 N 579.415 0.9433 -1.26252 0
M  V30 5998 C 580.831 1.21644 -1.03319 0
M  V30 5999 C 581.031 2.0003 0.242983 0
M  V30 6000 O 580.087 2.33838 0.952688 0
M  V30 6001 C 581.4 1.97978 -2.2633 0
M  V30 6002 C 582.948 2.10978 -2.31209 0
M  V30 6003 C 583.423 2.90713 -3.53907 0
M  V30 6004 N 584.914 2.98287 -3.54371 0
M  V30 6005 C 585.649 3.60406 -4.45976 0
M  V30 6006 N 585.145 4.24043 -5.47868 0
M  V30 6007 N 586.938 3.57658 -4.33633 0
M  V30 6008 H 579.089 0.419221 -2.08222 0
M  V30 6009 H 581.352 0.247995 -0.914988 0
M  V30 6010 H 581.058 1.47788 -3.19142 0
M  V30 6011 H 580.932 2.9865 -2.30408 0
M  V30 6012 H 583.319 2.6036 -1.38913 0
M  V30 6013 H 583.4 1.09575 -2.31143 0
M  V30 6014 H 583.044 2.42018 -4.46531 0
M  V30 6015 H 582.974 3.92367 -3.5122 0
M  V30 6016 H 585.465 2.53044 -2.80673 0
M  V30 6017 H 585.778 4.69334 -6.13959 0
M  V30 6018 H 584.123 4.22637 -5.51728 0
M  V30 6019 H 587.314 3.07134 -3.53251 0
M  V30 6020 H 587.487 4.05782 -5.05218 0
M  V30 6021 N 580.893 1.08022 1.14757 0
M  V30 6022 C 581.826 0.650738 2.18725 0
M  V30 6023 C 582.804 -0.335496 1.59101 0
M  V30 6024 O 583.988 -0.240295 1.86962 0
M  V30 6025 C 581.115 -0.0434377 3.38672 0
M  V30 6026 C 580.161 0.90232 4.16846 0
M  V30 6027 S 580.994 2.40693 4.78359 0
M  V30 6028 C 582.15 1.72475 6.01667 0
M  V30 6029 H 582.383 1.53152 2.54817 0
M  V30 6030 H 579.916 0.894823 1.25826 0
M  V30 6031 H 581.874 -0.437684 4.0816 0
M  V30 6032 H 580.535 -0.900659 3.0091 0
M  V30 6033 H 579.728 0.363445 5.02688 0
M  V30 6034 H 579.33 1.23728 3.52941 0
M  V30 6035 H 581.622 1.0404 6.69464 0
M  V30 6036 H 582.565 2.56175 6.60136 0
M  V30 6037 H 582.973 1.19979 5.51602 0
M  V30 6038 N 582.371 -1.3172 0.865308 0
M  V30 6039 C 583.599 -2.01057 0.488251 0
M  V30 6040 C 584.014 -1.64979 -0.918 0
M  V30 6041 O 583.371 -0.876597 -1.60069 0
M  V30 6042 C 583.422 -3.55964 0.630224 0
M  V30 6043 O 583.143 -3.90749 1.98109 0
M  V30 6044 C 584.644 -4.42574 0.253567 0
M  V30 6045 H 581.864 -0.64332 0.190736 0
M  V30 6046 H 584.408 -1.68058 1.16519 0
M  V30 6047 H 582.563 -3.874 0.000895422 0
M  V30 6048 H 582.977 -4.85467 1.9855 0
M  V30 6049 H 584.451 -5.50521 0.403875 0
M  V30 6050 H 584.928 -4.31724 -0.806895 0
M  V30 6051 H 585.534 -4.16547 0.858404 0
M  V30 6052 N 583.85 -0.624285 -1.44708 0
M  V30 6053 C 584.812 0.0749638 -2.29077 0
M  V30 6054 C 585.812 0.778965 -1.40673 0
M  V30 6055 O 587.003 0.624591 -1.62618 0
M  V30 6056 C 584.135 1.11663 -3.22094 0
M  V30 6057 H 585.327 -0.667013 -2.92388 0
M  V30 6058 H 582.88 -0.384098 -1.51507 0
M  V30 6059 H 583.615 1.88881 -2.63618 0
M  V30 6060 H 583.401 0.61583 -3.87234 0
M  V30 6061 H 584.891 1.60585 -3.8549 0
M  V30 6062 N 585.328 1.53329 -0.364422 0
M  V30 6063 C 586.291 2.24323 0.470292 0
M  V30 6064 C 587.291 1.25068 1.01067 0
M  V30 6065 O 588.481 1.49354 0.896605 0
M  V30 6066 C 585.613 2.97908 1.65722 0
M  V30 6067 H 586.806 2.9952 -0.150917 0
M  V30 6068 H 584.359 1.55868 -0.116092 0
M  V30 6069 H 585.094 2.2695 2.31655 0
M  V30 6070 H 584.879 3.70732 1.27671 0
M  V30 6071 H 586.369 3.5188 2.24878 0
M  V30 6072 N 586.806 0.0935595 1.57322 0
M  V30 6073 C 588.036 -0.578095 1.98347 0
M  V30 6074 C 588.444 -1.62357 0.971441 0
M  V30 6075 O 587.787 -1.83639 -0.0473959 0
M  V30 6076 C 587.849 -1.28525 3.3574 0
M  V30 6077 C 587.513 -0.390714 4.55327 0
M  V30 6078 C 588.51 0.360522 5.18648 0
M  V30 6079 C 586.195 -0.309221 5.01347 0
M  V30 6080 C 588.189 1.18125 6.26359 0
M  V30 6081 C 585.876 0.515157 6.08925 0
M  V30 6082 C 586.874 1.25904 6.71295 0
M  V30 6083 O 586.562 2.06978 7.76798 0
M  V30 6084 H 586.294 -0.159767 0.656849 0
M  V30 6085 H 588.848 0.169058 2.04703 0
M  V30 6086 H 587.078 -2.07894 3.26063 0
M  V30 6087 H 588.767 -1.85128 3.61223 0
M  V30 6088 H 589.533 0.307285 4.84026 0
M  V30 6089 H 585.412 -0.877881 4.52564 0
M  V30 6090 H 588.956 1.76236 6.74971 0
M  V30 6091 H 584.853 0.56988 6.42979 0
M  V30 6092 H 585.621 1.99644 7.93779 0
M  V30 6093 N 588.284 -1.56567 -0.180126 0
M  V30 6094 C 589.533 -1.80685 -0.896426 0
M  V30 6095 C 589.846 -0.669335 -1.83791 0
M  V30 6096 O 591.052 -0.795209 -2.59593 0
M  V30 6097 C 589.508 -3.20132 -1.6445 0
M  V30 6098 C 589.116 -4.41727 -0.747088 0
M  V30 6099 C 590.86 -3.53549 -2.34955 0
M  V30 6100 C 588.767 -5.72195 -1.49489 0
M  V30 6101 H 587.697 -0.673758 -0.338477 0
M  V30 6102 H 590.348 -1.8289 -0.149467 0
M  V30 6103 H 588.73 -3.12218 -2.43589 0
M  V30 6104 H 589.904 -4.608 0.00671129 0
M  V30 6105 H 588.219 -4.16122 -0.152134 0
M  V30 6106 H 590.816 -4.48267 -2.91481 0
M  V30 6107 H 591.159 -2.78006 -3.09868 0
M  V30 6108 H 591.692 -3.62976 -1.62768 0
M  V30 6109 H 588.431 -6.50743 -0.788251 0
M  V30 6110 H 587.951 -5.57115 -2.22224 0
M  V30 6111 H 589.63 -6.1384 -2.04472 0
M  V30 6112 O 589.801 0.325198 -1.58192 0
M  V30 6113 H 590.492 0.973777 -1.67443 0
M  V30 END ATOM
M  V30 BEGIN BOND
M  V30 END BOND
M  V30 END CTAB
M  END
$$$$
