drugbank_target|P36888 Receptor-type tyrosine-protein kinase FLT3 (DB00398; DB01268; DB05014; DB05465; DB06080; DB06469; DB06595; DB08901; DB09079; DB12010; DB12141; DB12267; DB12500; DB12742; DB12874; DB12978; DB15822)
 OpenBabel12092119253D

  0  0  0     0  0            999 V3000
M  V30 BEGIN CTAB
M  V30 COUNTS 15660 15852 0 0 0
M  V30 BEGIN ATOM
M  V30 1 H -0.908 1.98254 -0.117106 0
M  V30 2 N 0 1.576 0 0
M  V30 3 C 0.933 2.03868 1.02534 0
M  V30 4 C 1.911 0.928543 1.3348 0
M  V30 5 O 3.095 1.19667 1.45644 0
M  V30 6 C 0.222 2.43627 2.35294 0
M  V30 7 C -0.732 3.65373 2.2001 0
M  V30 8 S 0.101 5.13292 1.52614 0
M  V30 9 C 1.257 5.56322 2.86805 0
M  V30 10 H 1.49 2.90518 0.631377 0
M  V30 11 H -0.977 1.52953 0.210867 0
M  V30 12 H 0.981 2.67203 3.11629 0
M  V30 13 H -0.358 1.57376 2.7183 0
M  V30 14 H -1.165 3.90944 3.18086 0
M  V30 15 H -1.563 3.418 1.51819 0
M  V30 16 H 0.729 5.58782 3.83104 0
M  V30 17 H 1.672 6.56266 2.65933 0
M  V30 18 H 2.08 4.83886 2.90714 0
M  V30 19 N 1.4781 -0.272755 1.55222 0
M  V30 20 C 2.8891 -0.84378 1.66545 0
M  V30 21 C 3.2401 -1.87035 0.592641 0
M  V30 22 O 2.3651 -2.14761 -0.265818 0
M  V30 23 C 2.9601 -1.53723 3.01918 0
M  V30 24 C 1.5191 -2.05628 3.15268 0
M  V30 25 C 0.6661 -0.898424 2.62343 0
M  V30 26 H 3.6171 -0.0490998 1.58624 0
M  V30 27 H 3.6381 -2.40421 2.94921 0
M  V30 28 H 3.1501 -0.78983 3.79978 0
M  V30 29 H 1.2511 -2.83329 2.41983 0
M  V30 30 H 1.3641 -2.27142 4.21833 0
M  V30 31 H -0.2719 -1.29186 2.19506 0
M  V30 32 H 0.5111 -0.164528 3.42906 0
M  V30 33 N 2.9562 -1.48159 -0.537278 0
M  V30 34 C 3.9192 -1.61665 -1.62472 0
M  V30 35 C 4.9192 -0.490395 -1.5314 0
M  V30 36 O 6.1092 -0.755998 -1.5694 0
M  V30 37 C 3.2412 -1.57997 -3.02076 0
M  V30 38 H 4.4342 -2.58621 -1.51839 0
M  V30 39 H 1.9872 -1.36647 -0.758771 0
M  V30 40 H 2.7222 -0.624913 -3.18222 0
M  V30 41 H 2.5072 -2.39755 -3.10258 0
M  V30 42 H 3.9972 -1.70627 -3.81151 0
M  V30 43 N 4.4343 0.785586 -1.36625 0
M  V30 44 C 5.3643 1.91259 -1.33949 0
M  V30 45 C 6.3453 1.68795 -0.210325 0
M  V30 46 O 7.5303 1.89854 -0.408561 0
M  V30 47 C 4.6603 3.28339 -1.13186 0
M  V30 48 C 3.6143 3.65335 -2.22967 0
M  V30 49 C 2.9403 5.00806 -1.87342 0
M  V30 50 C 4.2403 3.7352 -3.65075 0
M  V30 51 H 5.9343 1.93755 -2.28253 0
M  V30 52 H 3.4803 0.930788 -1.09874 0
M  V30 53 H 5.4333 4.06804 -1.09948 0
M  V30 54 H 4.1573 3.2624 -0.153332 0
M  V30 55 H 2.8163 2.89169 -2.25337 0
M  V30 56 H 2.4643 4.95233 -0.880545 0
M  V30 57 H 2.1643 5.26529 -2.60846 0
M  V30 58 H 3.6883 5.81687 -1.85667 0
M  V30 59 H 5.1023 4.42168 -3.64911 0
M  V30 60 H 3.4993 4.10731 -4.37516 0
M  V30 61 H 4.5693 2.74527 -3.99703 0
M  V30 62 N 5.9124 1.20967 1.01018 0
M  V30 63 C 6.8754 0.965918 2.07853 0
M  V30 64 C 7.8754 -0.0610545 1.60684 0
M  V30 65 O 9.0654 0.175681 1.73312 0
M  V30 66 C 6.1974 0.455513 3.37843 0
M  V30 67 H 7.3904 1.91365 2.3091 0
M  V30 68 H 4.9434 1.02594 1.17916 0
M  V30 69 H 5.6784 -0.497381 3.20463 0
M  V30 70 H 5.4634 1.19622 3.73407 0
M  V30 71 H 6.9534 0.304667 4.16487 0
M  V30 72 N 7.3905 -1.2043 1.01659 0
M  V30 73 C 8.8065 -1.41852 0.731442 0
M  V30 74 C 9.0065 -1.89358 -0.688898 0
M  V30 75 O 8.0625 -2.06247 -1.45666 0
M  V30 76 C 9.3755 -2.44019 1.75714 0
M  V30 77 C 10.9235 -2.57785 1.77527 0
M  V30 78 C 11.3985 -3.63194 2.79023 0
M  V30 79 N 12.8895 -3.70678 2.77763 0
M  V30 80 C 13.6245 -4.51897 3.52954 0
M  V30 81 N 13.1205 -5.36921 4.37821 0
M  V30 82 N 14.9135 -4.4643 3.41551 0
M  V30 83 H 7.0645 -0.879093 1.93354 0
M  V30 84 H 9.3275 -0.448425 0.835236 0
M  V30 85 H 9.0335 -2.1611 2.77469 0
M  V30 86 H 8.9075 -3.43007 1.56927 0
M  V30 87 H 11.2945 -2.85023 0.764569 0
M  V30 88 H 11.3755 -1.58992 2.00387 0
M  V30 89 H 11.0195 -3.36699 3.80258 0
M  V30 90 H 10.9495 -4.61609 2.53425 0
M  V30 91 H 13.4405 -3.09944 2.16201 0
M  V30 92 H 13.7535 -5.95981 4.91962 0
M  V30 93 H 12.0985 -5.36424 4.41899 0
M  V30 94 H 15.2895 -3.79042 2.74672 0
M  V30 95 H 15.4625 -5.09491 4.00404 0
M  V30 96 N 8.8686 -0.792821 -1.36206 0
M  V30 97 C 10.1456 -0.290627 -1.93429 0
M  V30 98 C 10.5256 1.21773 -1.72437 0
M  V30 99 O 9.8736 2.0108 -1.08531 0
M  V30 100 C 10.0836 -0.686973 -3.42172 0
M  V30 101 C 11.4316 -0.668643 -4.19302 0
M  V30 102 O 12.4556 -0.627658 -3.50626 0
M  V30 103 O 11.3146 -0.714597 -5.41808 0
M  V30 104 H 8.4086 -0.0727927 -0.82379 0
M  V30 105 H 10.9546 -0.875593 -1.45367 0
M  V30 106 H 9.7266 -1.72711 -3.51122 0
M  V30 107 H 9.3496 -0.0760733 -3.97527 0
M  V30 108 N 10.3467 1.47872 -0.545128 0
M  V30 109 C 11.5947 2.02093 -0.016553 0
M  V30 110 C 11.9157 1.42305 1.3332 0
M  V30 111 O 11.1857 0.593853 1.86682 0
M  V30 112 H 9.7657 0.746993 -0.00313038 0
M  V30 113 H 12.4277 1.81414 -0.712397 0
M  V30 114 H 11.5237 3.11996 0.0805422 0
M  V30 115 N 11.8248 0.280983 1.55075 0
M  V30 116 C 13.0728 -0.333455 1.9933 0
M  V30 117 C 13.3938 -1.55937 1.17085 0
M  V30 118 O 12.6638 -1.94143 0.261805 0
M  V30 119 H 11.2438 -0.126197 0.736263 0
M  V30 120 H 13.9058 0.387678 1.91005 0
M  V30 121 H 13.0018 -0.619292 3.05894 0
M  V30 122 N 13.3029 -1.57598 0.00835791 0
M  V30 123 C 14.2349 -2.05811 -1.00868 0
M  V30 124 C 15.2479 -0.977579 -1.30182 0
M  V30 125 O 16.4369 -1.25421 -1.27011 0
M  V30 126 C 13.5369 -2.45016 -2.34137 0
M  V30 127 C 12.7099 -3.75903 -2.23643 0
M  V30 128 C 11.7689 -4.01884 -3.3967 0
M  V30 129 O 10.7949 -4.72433 -3.17483 0
M  V30 130 N 11.9969 -3.50432 -4.62793 0
M  V30 131 H 14.7619 -2.93684 -0.597458 0
M  V30 132 H 12.3229 -1.60909 -0.178852 0
M  V30 133 H 14.3149 -2.59506 -3.10546 0
M  V30 134 H 12.8849 -1.62618 -2.66972 0
M  V30 135 H 12.1049 -3.7141 -1.32091 0
M  V30 136 H 13.3929 -4.61695 -2.13812 0
M  V30 137 H 12.7909 -2.93317 -4.83716 0
M  V30 138 H 11.3479 -3.70236 -5.3644 0
M  V30 139 N 14.781 0.264519 -1.55364 0
M  V30 140 C 15.711 1.33121 -1.91836 0
M  V30 141 C 16.692 1.51101 -0.781192 0
M  V30 142 O 17.877 1.64003 -1.04003 0
M  V30 143 C 15.007 2.68921 -2.19769 0
M  V30 144 C 13.961 2.65661 -3.35571 0
M  V30 145 C 13.287 4.05093 -3.49004 0
M  V30 146 C 14.587 2.24187 -4.71739 0
M  V30 147 H 16.281 1.02844 -2.81182 0
M  V30 148 H 13.827 0.493286 -1.35287 0
M  V30 149 H 15.78 3.43663 -2.43872 0
M  V30 150 H 14.504 3.00799 -1.27231 0
M  V30 151 H 13.163 1.93377 -3.1145 0
M  V30 152 H 12.811 4.34206 -2.53917 0
M  V30 153 H 12.511 4.03804 -4.26868 0
M  V30 154 H 14.035 4.81561 -3.75408 0
M  V30 155 H 15.449 2.88654 -4.9533 0
M  V30 156 H 13.846 2.34044 -5.52579 0
M  V30 157 H 14.916 1.19327 -4.69988 0
M  V30 158 N 16.2591 1.48442 0.529413 0
M  V30 159 C 17.6701 1.5002 1.11134 0
M  V30 160 C 18.0211 0.27031 1.94329 0
M  V30 161 O 17.1461 -0.622507 2.07253 0
M  V30 162 C 17.7411 2.71834 2.02217 0
M  V30 163 C 16.3001 2.76283 2.55627 0
M  V30 164 C 15.4471 2.43542 1.326 0
M  V30 165 H 18.3981 1.5555 0.314641 0
M  V30 166 H 18.4191 2.50384 2.8651 0
M  V30 167 H 17.9311 3.61331 1.41639 0
M  V30 168 H 16.0321 1.90995 3.19924 0
M  V30 169 H 16.1451 3.77725 2.94721 0
M  V30 170 H 14.5091 1.94709 1.64196 0
M  V30 171 H 15.2921 3.3528 0.737734 0
M  V30 172 N 17.7372 -0.778329 1.37039 0
M  V30 173 C 18.6672 -1.90546 1.34962 0
M  V30 174 C 19.6482 -1.68681 0.219274 0
M  V30 175 O 20.8332 -1.89634 0.418624 0
M  V30 176 C 17.9632 -3.27734 1.14925 0
M  V30 177 C 16.9172 -3.64147 2.24902 0
M  V30 178 C 16.2432 -4.99806 1.89996 0
M  V30 179 C 17.5432 -3.71579 3.67051 0
M  V30 180 H 19.2372 -1.92541 2.29277 0
M  V30 181 H 16.7832 -0.924948 1.10366 0
M  V30 182 H 18.7362 -4.06215 1.12104 0
M  V30 183 H 17.4602 -3.26154 0.170631 0
M  V30 184 H 16.1192 -2.8797 2.26868 0
M  V30 185 H 15.7672 -4.94759 0.906796 0
M  V30 186 H 15.4672 -5.25139 2.63634 0
M  V30 187 H 16.9912 -5.80694 1.88749 0
M  V30 188 H 18.4052 -4.40227 3.67251 0
M  V30 189 H 16.8022 -4.08405 4.39688 0
M  V30 190 H 17.8722 -2.72404 4.01154 0
M  V30 191 N 19.2153 -1.21501 -1.00376 0
M  V30 192 C 20.1453 -0.999478 -2.11028 0
M  V30 193 C 21.1263 0.0759671 -1.6993 0
M  V30 194 O 22.3113 -0.0841106 -1.94018 0
M  V30 195 C 19.4413 -0.564709 -3.42678 0
M  V30 196 C 18.3953 -1.58486 -3.97576 0
M  V30 197 C 17.7213 -1.00628 -5.25146 0
M  V30 198 C 19.0213 -2.97204 -4.29496 0
M  V30 199 H 20.7153 -1.92495 -2.29317 0
M  V30 200 H 18.2613 -0.92693 -1.102 0
M  V30 201 H 20.2143 -0.401091 -4.19487 0
M  V30 202 H 18.9383 0.396411 -3.24185 0
M  V30 203 H 17.5973 -1.73606 -3.22888 0
M  V30 204 H 17.2453 -0.0368439 -5.02987 0
M  V30 205 H 16.9453 -1.68771 -5.62841 0
M  V30 206 H 18.4693 -0.854015 -6.04598 0
M  V30 207 H 19.8833 -2.8552 -4.97143 0
M  V30 208 H 18.2803 -3.62372 -4.78338 0
M  V30 209 H 19.3503 -3.47956 -3.3772 0
M  V30 210 N 20.6934 1.19889 -1.02296 0
M  V30 211 C 21.9394 1.89701 -0.717033 0
M  V30 212 C 22.2724 1.7905 0.751989 0
M  V30 213 O 21.5474 1.17891 1.547 0
M  V30 214 C 21.8304 3.40858 -1.16136 0
M  V30 215 C 21.6834 3.60411 -2.69117 0
M  V30 216 C 23.0024 4.33876 -0.737549 0
M  V30 217 H 20.1214 0.688874 -0.261957 0
M  V30 218 H 22.7634 1.41154 -1.27183 0
M  V30 219 H 20.9134 3.82335 -0.689342 0
M  V30 220 H 22.5854 3.28145 -3.2422 0
M  V30 221 H 20.8284 3.03665 -3.0979 0
M  V30 222 H 21.4994 4.66396 -2.95261 0
M  V30 223 H 23.9754 4.00081 -1.14344 0
M  V30 224 H 22.8514 5.38242 -1.0764 0
M  V30 225 H 23.1124 4.40628 0.360436 0
M  V30 226 N 22.1715 0.800033 1.35784 0
M  V30 227 C 23.4175 0.377901 1.99248 0
M  V30 228 C 23.7505 -1.05052 1.63333 0
M  V30 229 O 23.0255 -1.72768 0.893385 0
M  V30 230 C 23.3085 0.553922 3.55814 0
M  V30 231 C 23.1615 2.0268 4.01548 0
M  V30 232 C 24.4805 -0.0244802 4.40093 0
M  V30 233 H 21.5995 0.138782 0.723815 0
M  V30 234 H 24.2415 1.00835 1.61035 0
M  V30 235 H 22.3915 0.0172398 3.88496 0
M  V30 236 H 24.0635 2.62536 3.79305 0
M  V30 237 H 22.3065 2.5256 3.52698 0
M  V30 238 H 22.9775 2.10087 5.10458 0
M  V30 239 H 25.4535 0.433775 4.13833 0
M  V30 240 H 24.3295 0.128637 5.48749 0
M  V30 241 H 24.5905 -1.11758 4.27741 0
M  V30 242 N 23.6496 -1.47581 0.552962 0
M  V30 243 C 24.8966 -2.02482 0.0273243 0
M  V30 244 C 25.2246 -1.42776 -1.32081 0
M  V30 245 O 24.4796 -0.571393 -1.87173 0
M  V30 246 C 24.7786 -3.57199 -0.119728 0
M  V30 247 C 24.4446 -4.35804 1.15697 0
M  V30 248 C 23.1066 -4.57 1.50681 0
M  V30 249 C 25.4586 -4.81167 2.00319 0
M  V30 250 C 22.7866 -5.20807 2.70142 0
M  V30 251 C 25.1386 -5.46293 3.18978 0
M  V30 252 C 23.8026 -5.65722 3.54281 0
M  V30 253 H 23.0726 -0.740933 0.00999866 0
M  V30 254 H 25.7196 -1.77302 0.72362 0
M  V30 255 H 24.0246 -3.81348 -0.89896 0
M  V30 256 H 25.7216 -3.97324 -0.541718 0
M  V30 257 H 22.3116 -4.19582 0.874561 0
M  V30 258 H 26.4956 -4.64574 1.74599 0
M  V30 259 H 21.7516 -5.34045 2.97668 0
M  V30 260 H 25.9256 -5.80407 3.84838 0
M  V30 261 H 23.5526 -6.14936 4.46942 0
M  V30 262 N 25.1277 -0.289203 -1.54924 0
M  V30 263 C 26.3527 0.329299 -2.04769 0
M  V30 264 C 26.7777 1.4763 -1.16564 0
M  V30 265 O 26.1357 1.80527 -0.167186 0
M  V30 266 C 26.1837 0.774438 -3.52186 0
M  V30 267 O 25.2877 1.88038 -3.67036 0
M  V30 268 H 24.6287 0.0659259 -0.660719 0
M  V30 269 H 27.1587 -0.42761 -2.00082 0
M  V30 270 H 27.1687 1.06642 -3.93816 0
M  V30 271 H 25.8437 -0.0646707 -4.1585 0
M  V30 272 H 24.4207 1.58985 -3.3731 0
M  V30 273 N 26.6058 1.57591 -0.0167156 0
M  V30 274 C 27.5688 2.08393 0.954204 0
M  V30 275 C 28.5688 0.996531 1.26198 0
M  V30 276 O 29.7588 1.25858 1.20438 0
M  V30 277 C 26.8908 2.5394 2.27436 0
M  V30 278 H 28.0838 2.95455 0.514451 0
M  V30 279 H 25.6368 1.54582 0.231089 0
M  V30 280 H 26.3718 1.70171 2.76066 0
M  V30 281 H 26.1568 3.33371 2.06412 0
M  V30 282 H 27.6468 2.93512 2.97053 0
M  V30 283 N 28.0839 -0.256276 1.55502 0
M  V30 284 C 29.0169 -1.34321 1.84481 0
M  V30 285 C 29.9949 -1.46802 0.699131 0
M  V30 286 O 31.1789 -1.63165 0.943904 0
M  V30 287 C 28.3059 -2.71779 2.02123 0
M  V30 288 C 27.3519 -2.76496 3.24734 0
M  V30 289 S 28.1849 -2.3405 4.81644 0
M  V30 290 C 29.3409 -3.73452 5.02279 0
M  V30 291 H 29.5739 -1.09539 2.76385 0
M  V30 292 H 27.1069 -0.45678 1.47489 0
M  V30 293 H 29.0649 -3.50932 2.12972 0
M  V30 294 H 27.7259 -2.93803 1.11078 0
M  V30 295 H 26.9189 -3.77424 3.34016 0
M  V30 296 H 26.5209 -2.05379 3.12563 0
M  V30 297 H 28.8129 -4.6887 4.89047 0
M  V30 298 H 29.7559 -3.6911 6.04287 0
M  V30 299 H 30.1639 -3.6553 4.30172 0
M  V30 300 N 29.562 -1.4872 -0.521534 0
M  V30 301 C 30.811 -1.56419 -1.27341 0
M  V30 302 C 31.124 -0.246805 -1.94037 0
M  V30 303 O 32.33 -0.202122 -2.70747 0
M  V30 304 C 30.786 -2.75896 -2.31105 0
M  V30 305 C 30.394 -4.14311 -1.70441 0
M  V30 306 C 32.138 -2.92913 -3.07249 0
M  V30 307 C 30.045 -5.25038 -2.72194 0
M  V30 308 H 28.975 -0.582344 -0.478949 0
M  V30 309 H 31.626 -1.75071 -0.549779 0
M  V30 310 H 30.008 -2.50697 -3.06541 0
M  V30 311 H 31.182 -4.49564 -1.01136 0
M  V30 312 H 29.497 -4.02482 -1.06759 0
M  V30 313 H 32.094 -3.72805 -3.83302 0
M  V30 314 H 32.437 -2.02689 -3.63625 0
M  V30 315 H 32.97 -3.18054 -2.38928 0
M  V30 316 H 29.709 -6.17255 -2.20627 0
M  V30 317 H 29.229 -4.94263 -3.39801 0
M  V30 318 H 30.908 -5.53508 -3.35019 0
M  V30 319 N 31.0401 0.771051 -1.3745 0
M  V30 320 C 32.2871 1.52963 -1.32697 0
M  V30 321 C 32.6151 1.94299 0.0883274 0
M  V30 322 O 31.8701 1.64397 1.0617 0
M  V30 323 C 32.1691 2.80676 -2.2126 0
M  V30 324 C 31.8351 2.58389 -3.69521 0
M  V30 325 C 30.4971 2.52019 -4.09927 0
M  V30 326 C 32.8491 2.38469 -4.63446 0
M  V30 327 C 30.1771 2.23721 -5.42371 0
M  V30 328 C 32.5291 2.11694 -5.96128 0
M  V30 329 C 31.1931 2.03769 -6.35637 0
M  V30 330 H 30.4631 0.559732 -0.485573 0
M  V30 331 H 33.1101 0.888083 -1.69662 0
M  V30 332 H 31.4151 3.49392 -1.77291 0
M  V30 333 H 33.1121 3.38557 -2.14895 0
M  V30 334 H 29.7021 2.6421 -3.37478 0
M  V30 335 H 33.8861 2.4238 -4.33089 0
M  V30 336 H 29.1421 2.16081 -5.71943 0
M  V30 337 H 33.3161 1.9528 -6.6846 0
M  V30 338 H 30.9431 1.81606 -7.38189 0
M  V30 339 N 32.5182 1.22032 0.997298 0
M  V30 340 C 33.7662 1.04016 1.73278 0
M  V30 341 C 34.0872 -0.426255 1.90284 0
M  V30 342 O 33.3572 -1.30694 1.45931 0
M  V30 343 H 31.9372 0.381897 0.642 0
M  V30 344 H 34.5992 1.5347 1.20137 0
M  V30 345 H 33.6952 1.51441 2.72896 0
M  V30 346 N 33.9963 -1.19345 1.0293 0
M  V30 347 C 35.2243 -1.92997 0.745644 0
M  V30 348 C 35.6393 -1.75519 -0.695589 0
M  V30 349 O 34.9963 -1.07737 -1.47306 0
M  V30 350 C 35.0473 -3.44741 1.08792 0
M  V30 351 O 34.7683 -3.61658 2.47256 0
M  V30 352 C 36.2693 -4.35515 0.827129 0
M  V30 353 H 33.4893 -0.613042 0.272801 0
M  V30 354 H 36.0333 -1.51473 1.3739 0
M  V30 355 H 34.1883 -3.84097 0.504832 0
M  V30 356 H 34.6023 -4.55514 2.60015 0
M  V30 357 H 36.0763 -5.40589 1.11658 0
M  V30 358 H 36.5533 -4.38552 -0.238436 0
M  V30 359 H 37.1593 -4.01841 1.39297 0
M  V30 360 N 35.4744 -0.807222 -1.35358 0
M  V30 361 C 36.7234 -0.384376 -1.98004 0
M  V30 362 C 37.0364 1.0543 -1.64754 0
M  V30 363 O 38.2424 1.58029 -2.20769 0
M  V30 364 C 36.6984 -0.636326 -3.5423 0
M  V30 365 C 36.3064 -2.08759 -3.96388 0
M  V30 366 C 38.0504 -0.278869 -4.23583 0
M  V30 367 C 35.9574 -2.28525 -5.45463 0
M  V30 368 H 34.8874 -0.139986 -0.740891 0
M  V30 369 H 37.5384 -0.991369 -1.54415 0
M  V30 370 H 35.9204 0.0406256 -3.95979 0
M  V30 371 H 37.0944 -2.8024 -3.6579 0
M  V30 372 H 35.4094 -2.40497 -3.39926 0
M  V30 373 H 38.0064 -0.404599 -5.33167 0
M  V30 374 H 38.3494 0.775012 -4.09022 0
M  V30 375 H 38.8824 -0.909764 -3.87257 0
M  V30 376 H 35.6214 -3.32361 -5.64992 0
M  V30 377 H 35.1414 -1.61569 -5.77629 0
M  V30 378 H 36.8204 -2.10109 -6.11934 0
M  V30 379 N 36.9525 1.47285 -0.560781 0
M  V30 380 C 38.1805 2.06855 -0.0430262 0
M  V30 381 C 38.5955 1.41291 1.25229 0
M  V30 382 O 37.9525 0.510648 1.7521 0
M  V30 383 C 38.0035 3.61178 0.152518 0
M  V30 384 O 37.7245 4.24285 -1.0915 0
M  V30 385 C 39.2255 4.37624 0.707145 0
M  V30 386 H 36.4455 0.669319 -0.0474652 0
M  V30 387 H 38.9895 1.89237 -0.77521 0
M  V30 388 H 37.1445 3.78298 0.834843 0
M  V30 389 H 37.5585 5.16868 -0.891482 0
M  V30 390 H 39.0325 5.46271 0.793244 0
M  V30 391 H 39.5095 4.04152 1.71923 0
M  V30 392 H 40.1155 4.25257 0.0604027 0
M  V30 393 N 38.4306 0.297415 1.54768 0
M  V30 394 C 39.3786 -0.596051 2.24833 0
M  V30 395 C 40.3726 -1.13992 1.25308 0
M  V30 396 O 41.5786 -1.09098 1.4317 0
M  V30 397 H 37.9536 -0.210814 0.721846 0
M  V30 398 H 39.9246 0.0174667 2.98395 0
M  V30 399 C 38.6736 -1.75818 2.99972 0
M  V30 400 H 37.9966 -1.3489 3.76357 0
M  V30 401 H 39.4366 -2.35949 3.52284 0
M  V30 402 C 37.8956 -2.66014 2.06732 0
M  V30 403 O 38.4256 -3.67009 1.63302 0
M  V30 404 N 36.6316 -2.33669 1.72763 0
M  V30 405 H 36.1786 -1.51586 2.08277 0
M  V30 406 H 36.1366 -2.94285 1.10652 0
M  V30 407 N 39.9087 -1.5758 0.0250728 0
M  V30 408 C 40.8407 -2.06869 -0.986796 0
M  V30 409 C 41.8537 -0.991332 -1.29137 0
M  V30 410 O 43.0427 -1.26761 -1.25674 0
M  V30 411 C 40.1427 -2.47486 -2.31525 0
M  V30 412 C 39.3157 -3.78253 -2.19643 0
M  V30 413 C 38.3747 -4.05464 -3.35388 0
M  V30 414 O 37.4007 -4.75774 -3.12454 0
M  V30 415 N 38.6027 -3.55321 -4.59051 0
M  V30 416 H 41.3677 -2.94302 -0.566276 0
M  V30 417 H 38.9287 -1.6109 -0.161776 0
M  V30 418 H 40.9207 -2.62785 -3.07776 0
M  V30 419 H 39.4907 -1.65441 -2.65232 0
M  V30 420 H 38.7107 -3.7279 -1.28144 0
M  V30 421 H 39.9987 -4.63936 -2.08903 0
M  V30 422 H 39.3967 -2.98431 -4.80578 0
M  V30 423 H 37.9537 -3.75905 -5.32483 0
M  V30 424 N 41.3868 0.248026 -1.55636 0
M  V30 425 C 42.6638 0.998988 -1.68165 0
M  V30 426 C 43.0438 2.03409 -0.564621 0
M  V30 427 O 42.3918 2.24378 0.432076 0
M  V30 428 C 42.6018 1.63334 -3.0842 0
M  V30 429 C 43.9498 2.13562 -3.66983 0
M  V30 430 O 44.9738 1.73277 -3.11213 0
M  V30 431 O 43.8328 2.87526 -4.64749 0
M  V30 432 H 40.9268 0.464933 -0.683935 0
M  V30 433 H 43.4728 0.241902 -1.67967 0
M  V30 434 H 42.2448 0.884583 -3.8117 0
M  V30 435 H 41.8678 2.45666 -3.12624 0
M  V30 436 N 42.8649 1.48995 0.513639 0
M  V30 437 C 43.7949 1.67636 1.62544 0
M  V30 438 C 44.7759 0.525087 1.61793 0
M  V30 439 O 45.9609 0.759502 1.78732 0
M  V30 440 C 43.0909 1.73114 3.01079 0
M  V30 441 C 42.0449 2.87905 3.16693 0
M  V30 442 C 41.3709 2.78486 4.56453 0
M  V30 443 C 42.6709 4.29005 2.97913 0
M  V30 444 H 44.3649 2.60716 1.47198 0
M  V30 445 H 41.9109 1.25465 0.706714 0
M  V30 446 H 43.8639 1.84742 3.78746 0
M  V30 447 H 42.5879 0.766241 3.17484 0
M  V30 448 H 41.2469 2.75859 2.41448 0
M  V30 449 H 40.8949 1.7993 4.69717 0
M  V30 450 H 40.5949 3.55523 4.67843 0
M  V30 451 H 42.1189 2.92104 5.36197 0
M  V30 452 H 43.5329 4.41798 3.65359 0
M  V30 453 H 41.9299 5.07166 3.20785 0
M  V30 454 H 42.9999 4.44329 1.94165 0
M  V30 455 N 44.343 -0.763751 1.37857 0
M  V30 456 C 45.754 -1.3405 1.29952 0
M  V30 457 C 46.105 -1.96138 -0.0492898 0
M  V30 458 O 45.23 -1.94372 -0.951239 0
M  V30 459 C 45.825 -2.43729 2.35333 0
M  V30 460 C 44.384 -2.97151 2.31037 0
M  V30 461 C 43.531 -1.70438 2.18738 0
M  V30 462 H 46.482 -0.563396 1.48363 0
M  V30 463 H 46.503 -3.23412 2.00462 0
M  V30 464 H 46.015 -1.9851 3.33489 0
M  V30 465 H 44.116 -3.46724 1.3643 0
M  V30 466 H 44.229 -3.52221 3.24772 0
M  V30 467 H 42.593 -1.93673 1.65418 0
M  V30 468 H 43.376 -1.27312 3.18821 0
M  V30 469 N 45.8211 -1.22559 -0.990812 0
M  V30 470 C 47.0671 -1.05297 -1.73322 0
M  V30 471 C 47.4001 0.410655 -1.89808 0
M  V30 472 O 46.6751 1.30439 -1.44277 0
M  V30 473 C 46.9581 -1.76713 -3.13759 0
M  V30 474 C 46.8111 -3.30684 -3.04907 0
M  V30 475 C 48.1301 -1.52121 -4.12974 0
M  V30 476 H 45.2491 -0.38392 -0.629106 0
M  V30 477 H 47.8911 -1.50926 -1.15418 0
M  V30 478 H 46.0411 -1.37924 -3.63193 0
M  V30 479 H 47.7131 -3.7893 -2.63077 0
M  V30 480 H 45.9561 -3.60253 -2.41661 0
M  V30 481 H 46.6271 -3.75833 -4.04294 0
M  V30 482 H 49.1031 -1.85819 -3.72304 0
M  V30 483 H 47.9791 -2.04582 -5.0935 0
M  V30 484 H 48.2401 -0.454257 -4.3976 0
M  V30 485 N 47.2992 1.18797 -1.03562 0
M  V30 486 C 48.5482 1.87978 -0.731235 0
M  V30 487 C 48.8612 1.80911 0.743671 0
M  V30 488 O 50.0672 2.45407 1.16137 0
M  V30 489 C 48.5232 3.3721 -1.25768 0
M  V30 490 C 48.1312 3.52818 -2.76085 0
M  V30 491 C 49.8752 4.11825 -1.0296 0
M  V30 492 C 47.7822 4.9598 -3.22114 0
M  V30 493 H 46.7122 0.704063 -0.269835 0
M  V30 494 H 49.3632 1.34266 -1.25079 0
M  V30 495 H 47.7452 3.90359 -0.666011 0
M  V30 496 H 48.9192 3.09965 -3.40966 0
M  V30 497 H 47.2342 2.91602 -2.97249 0
M  V30 498 H 49.8312 5.17411 -1.34869 0
M  V30 499 H 50.1742 4.16287 0.0333546 0
M  V30 500 H 50.7072 3.64833 -1.58562 0
M  V30 501 H 47.4462 4.96684 -4.27768 0
M  V30 502 H 46.9662 5.39569 -2.61965 0
M  V30 503 H 48.6452 5.6467 -3.15844 0
M  V30 504 N 48.7773 0.814389 1.34928 0
M  V30 505 C 49.7243 0.22822 2.29669 0
M  V30 506 C 50.6943 -0.642164 1.53184 0
M  V30 507 O 51.8793 -0.585605 1.81591 0
M  V30 508 C 49.0193 -0.61089 3.3965 0
M  V30 509 C 48.1323 0.280792 4.31086 0
M  V30 510 C 47.2673 -0.567067 5.28165 0
M  V30 511 C 46.3063 0.324531 6.11239 0
M  V30 512 N 45.4433 -0.483756 7.00431 0
M  V30 513 H 50.2833 1.04153 2.79206 0
M  V30 514 H 47.8203 0.525133 1.37407 0
M  V30 515 H 49.7783 -1.11263 4.0209 0
M  V30 516 H 48.4083 -1.38939 2.91369 0
M  V30 517 H 47.4603 0.900688 3.69583 0
M  V30 518 H 48.7723 0.966723 4.89342 0
M  V30 519 H 47.9263 -1.13363 5.96015 0
M  V30 520 H 46.6653 -1.28654 4.70425 0
M  V30 521 H 45.6703 0.903298 5.42329 0
M  V30 522 H 46.8953 1.04198 6.71059 0
M  V30 523 H 44.8413 -1.18706 6.45171 0
M  V30 524 H 44.7583 0.143965 7.55863 0
M  V30 525 H 46.0263 -1.03334 7.7262 0
M  V30 526 N 50.2554 -1.46986 0.568584 0
M  V30 527 C 51.4954 -2.04336 0.0512999 0
M  V30 528 C 51.8594 -1.43214 -1.27881 0
M  V30 529 O 53.0604 -1.91679 -1.88448 0
M  V30 530 C 51.3314 -3.57389 -0.0282328 0
M  V30 531 S 52.8904 -4.36056 -0.489991 0
M  V30 532 H 49.7084 -0.71034 0.0306349 0
M  V30 533 H 52.3104 -1.80212 0.757891 0
M  V30 534 H 51.0144 -3.99395 0.944011 0
M  V30 535 H 50.5454 -3.86028 -0.75803 0
M  V30 536 H 52.5604 -4.6441 -1.74752 0
M  V30 537 N 51.7335 -0.305618 -1.54608 0
M  V30 538 C 52.9795 0.302746 -2.00528 0
M  V30 539 C 53.3125 1.53184 -1.19367 0
M  V30 540 O 52.5875 1.92598 -0.271321 0
M  V30 541 C 52.8705 0.654756 -3.54097 0
M  V30 542 C 52.7235 -0.583793 -4.45995 0
M  V30 543 C 54.0425 1.47947 -4.14487 0
M  V30 544 H 51.1615 0.108564 -0.72896 0
M  V30 545 H 53.8035 -0.418634 -1.85331 0
M  V30 546 H 51.9535 1.26935 -3.67178 0
M  V30 547 H 53.6255 -1.22224 -4.44814 0
M  V30 548 H 51.8685 -1.21615 -4.16404 0
M  V30 549 H 52.5395 -0.293287 -5.5122 0
M  V30 550 H 55.0155 0.96013 -4.04871 0
M  V30 551 H 53.8915 1.69454 -5.22088 0
M  V30 552 H 54.1525 2.47011 -3.66658 0
M  V30 553 N 53.2116 1.57565 -0.0334293 0
M  V30 554 C 54.1416 2.13511 0.945265 0
M  V30 555 C 55.1226 1.05231 1.33643 0
M  V30 556 O 56.3076 1.33084 1.41429 0
M  V30 557 C 53.4376 2.6657 2.22616 0
M  V30 558 C 52.3916 3.79676 1.97561 0
M  V30 559 C 51.7176 4.1918 3.31952 0
M  V30 560 C 53.0176 5.0557 1.31135 0
M  V30 561 H 54.7116 2.95538 0.479325 0
M  V30 562 H 52.2576 1.42166 0.229115 0
M  V30 563 H 54.2106 3.04344 2.91466 0
M  V30 564 H 52.9346 1.8171 2.71384 0
M  V30 565 H 51.5936 3.42347 1.31127 0
M  V30 566 H 51.2416 3.31296 3.78487 0
M  V30 567 H 50.9416 4.95402 3.15992 0
M  V30 568 H 52.4656 4.59541 4.02063 0
M  V30 569 H 53.8796 5.40903 1.89992 0
M  V30 570 H 52.2766 5.86818 1.25559 0
M  V30 571 H 53.3466 4.84062 0.284894 0
M  V30 572 N 54.6897 -0.239769 1.55765 0
M  V30 573 C 55.9387 -0.964754 1.77131 0
M  V30 574 C 56.2517 -1.86213 0.59868 0
M  V30 575 O 57.4577 -2.6244 0.695522 0
M  V30 576 C 55.9137 -1.76552 3.1362 0
M  V30 577 C 55.5217 -0.915185 4.38553 0
M  V30 578 C 57.2657 -2.48281 3.44321 0
M  V30 579 C 55.1727 -1.71225 5.66071 0
M  V30 580 H 54.1027 -0.363953 0.660344 0
M  V30 581 H 56.7537 -0.219181 1.82186 0
M  V30 582 H 55.1357 -2.55331 3.02691 0
M  V30 583 H 56.3097 -0.169217 4.60489 0
M  V30 584 H 54.6247 -0.310889 4.15238 0
M  V30 585 H 57.2217 -3.08382 4.36812 0
M  V30 586 H 57.5647 -3.20256 2.65973 0
M  V30 587 H 58.0977 -1.76507 3.56497 0
M  V30 588 H 54.8367 -1.03612 6.4726 0
M  V30 589 H 54.3567 -2.43331 5.48224 0
M  V30 590 H 56.0357 -2.27758 6.05587 0
M  V30 591 N 56.1678 -1.49265 -0.50573 0
M  V30 592 C 57.1158 -1.66065 -1.62866 0
M  V30 593 C 58.1098 -0.526636 -1.61006 0
M  V30 594 O 59.3158 -0.706126 -1.65571 0
M  V30 595 H 55.6908 -0.52356 -0.539805 0
M  V30 596 H 57.6618 -2.60329 -1.45848 0
M  V30 597 C 56.4108 -1.74008 -3.01026 0
M  V30 598 H 55.7338 -2.6064 -3.03161 0
M  V30 599 H 57.1738 -1.89798 -3.79147 0
M  V30 600 C 55.6328 -0.483868 -3.33407 0
M  V30 601 O 56.1628 0.392548 -3.99777 0
M  V30 602 N 54.3688 -0.348236 -2.88506 0
M  V30 603 H 53.9158 -1.06242 -2.34671 0
M  V30 604 H 53.8738 0.491204 -3.10539 0
M  V30 605 N 57.6459 0.756429 -1.3826 0
M  V30 606 C 58.5959 1.86069 -1.31766 0
M  V30 607 C 59.5799 1.59621 -0.202483 0
M  V30 608 O 60.7719 1.7149 -0.438211 0
M  V30 609 C 57.9009 3.23742 -1.1422 0
M  V30 610 C 56.9869 3.56091 -2.30348 0
M  V30 611 N 57.3779 3.59517 -3.55783 0
M  V30 612 C 55.6759 3.86341 -2.22838 0
M  V30 613 C 56.3769 3.89052 -4.32451 0
M  V30 614 N 55.3529 4.05736 -3.61772 0
M  V30 615 H 59.1549 1.86992 -2.26741 0
M  V30 616 H 56.6689 0.953643 -1.31451 0
M  V30 617 H 58.6659 4.02761 -1.07652 0
M  V30 618 H 57.3259 3.24073 -0.201763 0
M  V30 619 H 58.3369 3.41347 -3.89491 0
M  V30 620 H 55.0139 3.94404 -1.36937 0
M  V30 621 H 56.4039 3.98349 -5.4108 0
M  V30 622 N 59.124 1.23083 0.984299 0
M  V30 623 C 60.071 1.00854 2.07598 0
M  V30 624 C 61.041 -0.0726709 1.65941 0
M  V30 625 O 62.226 0.0786535 1.90638 0
M  V30 626 C 59.366 0.601645 3.39815 0
M  V30 627 C 58.479 1.75456 3.94765 0
M  V30 628 C 57.614 1.29482 5.15177 0
M  V30 629 C 56.653 2.41873 5.62284 0
M  V30 630 N 55.79 1.96885 6.73929 0
M  V30 631 H 60.63 1.943 2.25946 0
M  V30 632 H 58.167 0.968001 1.10762 0
M  V30 633 H 60.125 0.346854 4.15756 0
M  V30 634 H 58.755 -0.295803 3.21442 0
M  V30 635 H 57.807 2.12346 3.15616 0
M  V30 636 H 59.119 2.59965 4.25699 0
M  V30 637 H 58.273 0.997923 5.98437 0
M  V30 638 H 57.012 0.420046 4.85888 0
M  V30 639 H 56.017 2.72342 4.77608 0
M  V30 640 H 57.242 3.29881 5.93595 0
M  V30 641 H 55.188 1.11782 6.46406 0
M  V30 642 H 55.105 2.74956 7.04227 0
M  V30 643 H 56.373 1.70289 7.60672 0
M  V30 644 N 60.6021 -1.18246 1.0419 0
M  V30 645 C 61.5501 -2.23968 0.627792 0
M  V30 646 C 62.5441 -1.65828 -0.346019 0
M  V30 647 O 63.7501 -1.78733 -0.213175 0
M  V30 648 H 60.1251 -0.728939 0.184802 0
M  V30 649 H 62.0961 -2.56202 1.52981 0
M  V30 650 C 60.8451 -3.47699 0.00796591 0
M  V30 651 H 60.1681 -3.92734 0.748347 0
M  V30 652 H 61.6081 -4.23294 -0.24455 0
M  V30 653 C 60.0671 -3.13153 -1.24246 0
M  V30 654 O 60.5971 -3.27003 -2.33307 0
M  V30 655 N 58.8031 -2.67467 -1.13622 0
M  V30 656 H 58.3501 -2.56396 -0.248734 0
M  V30 657 H 58.3081 -2.44724 -1.97377 0
M  V30 658 N 62.0802 -0.821533 -1.34494 0
M  V30 659 C 63.0282 -0.230702 -2.31453 0
M  V30 660 C 64.0222 0.627793 -1.57338 0
M  V30 661 O 65.2282 0.519288 -1.72347 0
M  V30 662 H 61.6032 -0.0558577 -0.749923 0
M  V30 663 H 63.5742 -1.06332 -2.78812 0
M  V30 664 C 62.3232 0.59391 -3.4259 0
M  V30 665 H 61.6462 -0.0573588 -3.99759 0
M  V30 666 H 63.0862 0.973446 -4.12674 0
M  V30 667 C 61.5452 1.76568 -2.86924 0
M  V30 668 O 62.0752 2.8638 -2.81691 0
M  V30 669 N 60.2812 1.58198 -2.43766 0
M  V30 670 H 59.8282 0.68872 -2.48222 0
M  V30 671 H 59.7862 2.36752 -2.06871 0
M  V30 672 N 63.5583 1.46682 -0.576371 0
M  V30 673 C 64.8353 1.95599 0.00703437 0
M  V30 674 C 65.2153 1.51904 1.46589 0
M  V30 675 O 64.5633 0.766755 2.15251 0
M  V30 676 C 64.7733 3.4864 -0.158404 0
M  V30 677 C 66.1213 4.24594 -0.0229439 0
M  V30 678 O 67.1453 3.56094 -0.0869173 0
M  V30 679 O 66.0043 5.46373 0.118015 0
M  V30 680 H 63.0983 0.825275 0.053384 0
M  V30 681 H 65.6443 1.56996 -0.644244 0
M  V30 682 H 64.4163 3.7331 -1.17282 0
M  V30 683 H 64.0393 3.94057 0.5296 0
M  V30 684 N 65.0364 0.313813 1.54444 0
M  V30 685 C 66.2614 -0.296681 2.05267 0
M  V30 686 C 66.6864 -1.45757 1.18897 0
M  V30 687 O 66.0444 -1.80239 0.195886 0
M  V30 688 C 66.0924 -0.71831 3.53373 0
M  V30 689 O 65.1964 -1.82175 3.69981 0
M  V30 690 H 64.5374 -0.0554061 0.661684 0
M  V30 691 H 67.0674 0.459387 1.99376 0
M  V30 692 H 67.0774 -1.00364 3.95463 0
M  V30 693 H 65.7524 0.130821 4.15694 0
M  V30 694 H 64.3294 -1.53598 3.39797 0
M  V30 695 N 66.5145 -1.57545 0.0417849 0
M  V30 696 C 67.7395 -1.97035 -0.647455 0
M  V30 697 C 68.1645 -0.918775 -1.64135 0
M  V30 698 O 67.5225 0.119006 -1.80909 0
M  V30 699 C 67.5705 -3.35609 -1.31905 0
M  V30 700 O 66.6745 -3.3287 -2.43457 0
M  V30 701 H 66.0155 -0.64211 -0.169086 0
M  V30 702 H 68.5455 -2.04318 0.107399 0
M  V30 703 H 68.5555 -3.72126 -1.67291 0
M  V30 704 H 67.2305 -4.11685 -0.590586 0
M  V30 705 H 65.8075 -3.08087 -2.10088 0
M  V30 706 N 67.9926 0.231505 -1.5589 0
M  V30 707 C 69.2386 0.95877 -1.78705 0
M  V30 708 C 69.5716 1.8438 -0.609725 0
M  V30 709 O 68.8466 1.90521 0.391426 0
M  V30 710 C 69.1296 1.8062 -3.11526 0
M  V30 711 C 68.9826 0.948328 -4.39689 0
M  V30 712 C 70.3016 2.78585 -3.40703 0
M  V30 713 H 67.4206 0.347129 -0.650131 0
M  V30 714 H 70.0626 0.228259 -1.88624 0
M  V30 715 H 68.2126 2.42902 -3.03201 0
M  V30 716 H 69.8846 0.343016 -4.60023 0
M  V30 717 H 68.1276 0.253314 -4.3306 0
M  V30 718 H 68.7986 1.57543 -5.29041 0
M  V30 719 H 71.2746 2.26439 -3.49091 0
M  V30 720 H 70.1506 3.34988 -4.34826 0
M  V30 721 H 70.4116 3.55825 -2.62375 0
M  V30 722 N 69.4707 1.49531 0.497807 0
M  V30 723 C 70.7187 1.58865 1.24926 0
M  V30 724 C 71.0397 0.278721 1.92998 0
M  V30 725 O 70.3097 -0.702144 1.82885 0
M  V30 726 H 68.8897 0.585343 0.464094 0
M  V30 727 H 71.5517 1.86174 0.57666 0
M  V30 728 H 70.6477 2.38633 2.01149 0
M  V30 729 N 70.9488 -0.749086 1.3866 0
M  V30 730 C 71.8958 -1.86291 1.36251 0
M  V30 731 C 72.8658 -1.64578 0.224347 0
M  V30 732 O 74.0508 -1.86181 0.417279 0
M  V30 733 C 71.1908 -3.23644 1.19786 0
M  V30 734 C 70.3038 -3.57158 2.43027 0
M  V30 735 C 69.4388 -4.83838 2.19258 0
M  V30 736 C 68.4778 -5.10152 3.38247 0
M  V30 737 N 67.6148 -6.28029 3.13884 0
M  V30 738 H 72.4548 -1.87685 2.3147 0
M  V30 739 H 69.9918 -0.917287 1.14997 0
M  V30 740 H 71.9498 -4.0291 1.08254 0
M  V30 741 H 70.5798 -3.21566 0.282031 0
M  V30 742 H 69.6318 -2.72701 2.65214 0
M  V30 743 H 70.9438 -3.7253 3.31697 0
M  V30 744 H 70.0978 -5.71057 2.04888 0
M  V30 745 H 68.8368 -4.70614 1.2796 0
M  V30 746 H 67.8418 -4.21401 3.53131 0
M  V30 747 H 69.0668 -5.25271 4.30427 0
M  V30 748 H 67.0128 -6.1612 2.25238 0
M  V30 749 H 66.9298 -6.43922 3.96106 0
M  V30 750 H 68.1978 -7.18124 3.03179 0
M  V30 751 N 72.4269 -1.23603 -0.977757 0
M  V30 752 C 73.6519 -1.09735 -1.75991 0
M  V30 753 C 74.0769 0.346858 -1.84874 0
M  V30 754 O 73.4349 1.25093 -1.3123 0
M  V30 755 C 73.4829 -1.73051 -3.16363 0
M  V30 756 O 72.5869 -0.994452 -4.0023 0
M  V30 757 H 71.9279 -0.384476 -0.541364 0
M  V30 758 H 74.4579 -1.6371 -1.2272 0
M  V30 759 H 74.4679 -1.78398 -3.66931 0
M  V30 760 H 73.1429 -2.78137 -3.09213 0
M  V30 761 H 71.7199 -1.01812 -3.58732 0
M  V30 762 N 73.905 1.17692 -1.04816 0
M  V30 763 C 75.13 1.92327 -0.776207 0
M  V30 764 C 75.555 1.76082 0.661581 0
M  V30 765 O 74.913 1.076 1.45917 0
M  V30 766 C 74.961 3.41539 -1.15687 0
M  V30 767 O 74.065 4.11402 -0.286775 0
M  V30 768 H 73.406 0.599735 -0.284981 0
M  V30 769 H 75.936 1.49201 -1.4 0
M  V30 770 H 75.946 3.92269 -1.12202 0
M  V30 771 H 74.621 3.52684 -2.20425 0
M  V30 772 H 73.198 3.70939 -0.381903 0
M  V30 773 N 75.3831 0.828654 1.34056 0
M  V30 774 C 76.6081 0.431637 2.02859 0
M  V30 775 C 77.0331 -0.956339 1.61975 0
M  V30 776 O 76.3911 -1.62338 0.807228 0
M  V30 777 C 76.4391 0.548323 3.56407 0
M  V30 778 O 75.5431 -0.429556 4.10157 0
M  V30 779 H 74.8841 0.176886 0.640006 0
M  V30 780 H 77.4141 1.12066 1.71179 0
M  V30 781 H 77.4241 0.426196 4.05768 0
M  V30 782 H 76.0991 1.5606 3.8551 0
M  V30 783 H 74.6761 -0.265836 3.71951 0
M  V30 784 N 76.8612 -1.46375 0.584142 0
M  V30 785 C 78.0912 -2.06461 0.0758195 0
M  V30 786 C 78.4992 -1.43322 -1.23512 0
M  V30 787 O 77.8422 -0.533216 -1.75791 0
M  V30 788 C 77.9042 -3.59131 -0.162773 0
M  V30 789 C 77.5682 -4.4447 1.06279 0
M  V30 790 C 78.5652 -4.80918 1.97519 0
M  V30 791 C 76.2502 -4.85584 1.28504 0
M  V30 792 C 78.2442 -5.57309 3.09331 0
M  V30 793 C 75.9312 -5.61734 2.4062 0
M  V30 794 C 76.9292 -5.9751 3.30863 0
M  V30 795 O 76.6172 -6.72121 4.41032 0
M  V30 796 H 76.3492 -0.673745 0.0551725 0
M  V30 797 H 78.9032 -1.88969 0.804984 0
M  V30 798 H 77.1332 -3.74936 -0.946565 0
M  V30 799 H 78.8222 -4.0114 -0.619782 0
M  V30 800 H 79.5882 -4.49732 1.81565 0
M  V30 801 H 75.4672 -4.57187 0.591702 0
M  V30 802 H 79.0112 -5.85152 3.79793 0
M  V30 803 H 74.9082 -5.92334 2.56537 0
M  V30 804 H 75.6762 -6.90547 4.39417 0
M  V30 805 N 78.3393 -0.321999 -1.54275 0
M  V30 806 C 79.7503 0.166384 -1.85957 0
M  V30 807 C 80.1013 1.51747 -1.24367 0
M  V30 808 O 79.2263 2.09317 -0.549124 0
M  V30 809 C 79.8213 0.308681 -3.37391 0
M  V30 810 C 78.3803 0.741286 -3.69028 0
M  V30 811 C 77.5273 -0.137937 -2.76957 0
M  V30 812 H 80.4783 -0.542335 -1.49146 0
M  V30 813 H 80.4993 1.13984 -3.63026 0
M  V30 814 H 80.0113 -0.674809 -3.82188 0
M  V30 815 H 78.1123 1.73458 -3.29762 0
M  V30 816 H 78.2253 0.546118 -4.75977 0
M  V30 817 H 76.5893 0.386251 -2.51754 0
M  V30 818 H 77.3723 -1.11816 -3.2458 0
M  V30 819 N 79.8174 1.5752 -0.0501392 0
M  V30 820 C 80.7504 2.07026 0.959962 0
M  V30 821 C 81.7284 0.970539 1.30458 0
M  V30 822 O 82.9124 1.2424 1.41763 0
M  V30 823 C 80.0394 2.5099 2.27424 0
M  V30 824 C 79.0854 3.72188 2.08275 0
M  V30 825 S 79.9184 5.17888 1.36207 0
M  V30 826 C 81.0744 5.65165 2.6896 0
M  V30 827 H 81.3074 2.9238 0.538631 0
M  V30 828 H 78.8404 1.53547 0.162099 0
M  V30 829 H 80.7984 2.76982 3.02971 0
M  V30 830 H 79.4594 1.65944 2.66686 0
M  V30 831 H 78.6524 4.00866 3.05487 0
M  V30 832 H 78.2544 3.46457 1.40868 0
M  V30 833 H 80.5464 5.70687 3.65133 0
M  V30 834 H 81.4894 6.64394 2.4492 0
M  V30 835 H 81.8974 4.9289 2.75172 0
M  V30 836 N 81.2955 -0.223234 1.56011 0
M  V30 837 C 82.5415 -0.949279 1.79211 0
M  V30 838 C 82.8745 -1.84054 0.619494 0
M  V30 839 O 82.1495 -1.90726 -0.381317 0
M  V30 840 C 82.4325 -1.78965 3.12479 0
M  V30 841 C 82.2855 -0.924997 4.40186 0
M  V30 842 C 83.6045 -2.76774 3.42175 0
M  V30 843 H 80.7235 -0.343676 0.651963 0
M  V30 844 H 83.3655 -0.218253 1.88742 0
M  V30 845 H 81.5155 -2.41291 3.04485 0
M  V30 846 H 83.1875 -0.318615 4.60198 0
M  V30 847 H 81.4305 -0.230344 4.33188 0
M  V30 848 H 82.1015 -1.54735 5.29869 0
M  V30 849 H 84.5775 -2.24584 3.50287 0
M  V30 850 H 83.4535 -3.32678 4.36597 0
M  V30 851 H 83.7145 -3.54429 2.64258 0
M  V30 852 N 82.7736 -1.49793 -0.48987 0
M  V30 853 C 83.9986 -1.63836 -1.27172 0
M  V30 854 C 84.4236 -0.31402 -1.8546 0
M  V30 855 O 83.7816 0.719803 -1.66399 0
M  V30 856 C 83.8296 -2.71797 -2.36978 0
M  V30 857 O 82.9336 -2.31744 -3.41128 0
M  V30 858 H 82.2746 -0.547997 -0.37496 0
M  V30 859 H 84.8046 -1.96053 -0.585191 0
M  V30 860 H 84.8146 -2.94305 -2.82575 0
M  V30 861 H 83.4896 -3.67923 -1.93921 0
M  V30 862 H 82.0666 -2.1961 -3.01373 0
M  V30 863 N 84.2517 0.741722 -1.39055 0
M  V30 864 C 85.1617 1.88621 -1.39496 0
M  V30 865 C 86.1777 1.71557 -0.290578 0
M  V30 866 O 87.3537 1.94275 -0.530954 0
M  V30 867 C 84.4187 3.24134 -1.23037 0
M  V30 868 C 83.4797 3.5364 -2.43387 0
M  V30 869 C 82.7127 4.82687 -2.27703 0
M  V30 870 O 82.9357 5.55922 -1.27696 0
M  V30 871 O 81.8697 5.1194 -3.16545 0
M  V30 872 H 85.6957 1.91203 -2.35956 0
M  V30 873 H 83.2807 0.888625 -1.20099 0
M  V30 874 H 85.1627 4.0513 -1.15964 0
M  V30 875 H 83.8377 3.22337 -0.296691 0
M  V30 876 H 82.7447 2.72758 -2.56035 0
M  V30 877 H 84.0777 3.60209 -3.35425 0
M  V30 878 N 85.7298 1.2412 0.971189 0
M  V30 879 C 86.9548 1.10667 1.75407 0
M  V30 880 C 87.3798 -0.337048 1.85056 0
M  V30 881 O 86.7378 -1.24396 1.31892 0
M  V30 882 C 86.7858 1.74726 3.15441 0
M  V30 883 O 85.8898 1.01566 3.99697 0
M  V30 884 H 85.2308 0.387341 0.539317 0
M  V30 885 H 87.7608 1.64358 1.2185 0
M  V30 886 H 87.7708 1.80341 3.6598 0
M  V30 887 H 86.4458 2.79773 3.07734 0
M  V30 888 H 85.0228 1.03713 3.58187 0
M  V30 889 N 87.2079 -1.17134 1.05439 0
M  V30 890 C 88.6189 -1.69084 0.791676 0
M  V30 891 C 88.9699 -1.83822 -0.685839 0
M  V30 892 O 88.0949 -1.52757 -1.53278 0
M  V30 893 C 88.6899 -3.07119 1.4305 0
M  V30 894 C 87.2489 -3.56225 1.21577 0
M  V30 895 C 86.3959 -2.32421 1.51247 0
M  V30 896 H 89.3469 -1.01617 1.219 0
M  V30 897 H 89.3679 -3.71087 0.84112 0
M  V30 898 H 88.8799 -2.9636 2.50584 0
M  V30 899 H 86.9809 -3.72257 0.159787 0
M  V30 900 H 87.0939 -4.38837 1.92246 0
M  V30 901 H 85.4579 -2.3701 0.932653 0
M  V30 902 H 86.2409 -2.24268 2.5992 0
M  V30 903 N 88.686 -0.835752 -1.33615 0
M  V30 904 C 89.596 -0.269088 -2.33052 0
M  V30 905 C 90.612 0.603251 -1.63208 0
M  V30 906 O 91.788 0.508112 -1.94885 0
M  V30 907 C 88.853 0.549091 -3.42324 0
M  V30 908 C 87.914 -0.347156 -4.27894 0
M  V30 909 C 87.147 0.43207 -5.31948 0
M  V30 910 O 87.37 1.66409 -5.45586 0
M  V30 911 O 86.304 -0.192298 -6.01593 0
M  V30 912 H 90.13 -1.09243 -2.83372 0
M  V30 913 H 87.715 -0.598198 -1.36901 0
M  V30 914 H 89.597 1.01414 -4.09015 0
M  V30 915 H 88.272 1.34955 -2.94226 0
M  V30 916 H 87.179 -0.859979 -3.64081 0
M  V30 917 H 88.512 -1.1123 -4.79467 0
M  V30 918 N 90.1641 1.46063 -0.591896 0
M  V30 919 C 91.4411 1.95595 -0.0137119 0
M  V30 920 C 91.8211 1.5345 1.4497 0
M  V30 921 O 91.1691 0.789543 2.14426 0
M  V30 922 C 91.3791 3.48453 -0.195373 0
M  V30 923 C 92.7271 4.24546 -0.0679765 0
M  V30 924 O 93.7511 3.55982 -0.124681 0
M  V30 925 O 92.6101 5.46467 0.0600579 0
M  V30 926 H 89.7041 0.825795 0.0446279 0
M  V30 927 H 92.2501 1.56303 -0.660859 0
M  V30 928 H 91.0221 3.72045 -1.21235 0
M  V30 929 H 90.6451 3.94597 0.487775 0
M  V30 930 N 91.6422 0.330177 1.54103 0
M  V30 931 C 92.5722 -0.525353 2.27513 0
M  V30 932 C 93.5532 -1.11383 1.2856 0
M  V30 933 O 94.7382 -1.13773 1.57383 0
M  V30 934 C 91.8682 -1.6831 3.03791 0
M  V30 935 C 90.8222 -1.2236 4.10137 0
M  V30 936 C 90.1482 -2.46882 4.74293 0
M  V30 937 C 91.4482 -0.333697 5.21233 0
M  V30 938 H 93.1422 0.087013 2.99274 0
M  V30 939 H 90.6882 0.0432893 1.43935 0
M  V30 940 H 92.6412 -2.28795 3.5388 0
M  V30 941 H 91.3652 -2.32216 2.29659 0
M  V30 942 H 90.0242 -0.64165 3.60941 0
M  V30 943 H 89.6722 -3.09165 3.96769 0
M  V30 944 H 89.3722 -2.16825 5.46133 0
M  V30 945 H 90.8962 -3.08117 5.27159 0
M  V30 946 H 92.3102 -0.845013 5.67038 0
M  V30 947 H 90.7072 -0.125612 5.99969 0
M  V30 948 H 91.7772 0.633724 4.80741 0
M  V30 949 N 93.1203 -1.57491 0.0584922 0
M  V30 950 C 94.3683 -1.92597 -0.612436 0
M  V30 951 C 94.6893 -0.938162 -1.70949 0
M  V30 952 O 93.9593 0.0158301 -1.95894 0
M  V30 953 H 92.5393 -0.710964 -0.229214 0
M  V30 954 H 95.2013 -1.94571 0.113218 0
M  V30 955 H 94.2973 -2.94038 -1.04633 0
M  V30 956 N 94.5984 0.214957 -1.56127 0
M  V30 957 C 95.8384 0.945364 -1.81224 0
M  V30 958 C 96.2024 1.81265 -0.633005 0
M  V30 959 O 97.4034 2.57731 -0.763423 0
M  V30 960 C 95.6744 1.75665 -3.1125 0
M  V30 961 S 97.2334 2.54179 -3.57685 0
M  V30 962 H 94.0514 0.317443 -0.6362 0
M  V30 963 H 96.6534 0.210381 -1.94365 0
M  V30 964 H 95.3574 1.10977 -3.9511 0
M  V30 965 H 94.8884 2.53381 -3.00934 0
M  V30 966 H 96.9034 3.7792 -3.21545 0
M  V30 967 N 96.0765 1.50051 0.48192 0
M  V30 968 C 97.0395 1.67584 1.5636 0
M  V30 969 C 98.0395 0.546894 1.51214 0
M  V30 970 O 99.2295 0.813725 1.54026 0
M  V30 971 C 96.3615 1.691 2.96003 0
M  V30 972 H 97.5545 2.64078 1.42136 0
M  V30 973 H 95.1075 1.39369 0.707533 0
M  V30 974 H 95.8425 0.742589 3.15684 0
M  V30 975 H 95.6275 2.51105 3.01146 0
M  V30 976 H 97.1175 1.84656 3.74556 0
M  V30 977 N 97.5546 -0.734337 1.39446 0
M  V30 978 C 98.4846 -1.86155 1.40955 0
M  V30 979 C 99.4656 -1.67898 0.272827 0
M  V30 980 O 100.651 -1.88207 0.478743 0
M  V30 981 C 97.7806 -3.23912 1.25294 0
M  V30 982 C 96.7346 -3.56808 2.36373 0
M  V30 983 C 96.0606 -4.93508 2.058 0
M  V30 984 C 97.3606 -3.59713 3.78687 0
M  V30 985 H 99.0546 -1.8515 2.35287 0
M  V30 986 H 96.6006 -0.889367 1.13253 0
M  V30 987 H 98.5536 -4.02443 1.2497 0
M  V30 988 H 97.2776 -3.25446 0.274308 0
M  V30 989 H 95.9366 -2.80606 2.35914 0
M  V30 990 H 95.5846 -4.91623 1.06374 0
M  V30 991 H 95.2846 -5.16486 2.80208 0
M  V30 992 H 96.8086 -5.74396 2.07128 0
M  V30 993 H 98.2226 -4.2832 3.81071 0
M  V30 994 H 96.6196 -3.94209 4.52459 0
M  V30 995 H 97.6896 -2.59504 4.09617 0
M  V30 996 N 99.0327 -1.24633 -0.964593 0
M  V30 997 C 100.449 -1.01239 -1.2338 0
M  V30 998 C 100.649 0.2769 -1.99588 0
M  V30 999 O 99.7047 0.992241 -2.32187 0
M  V30 1000 C 101.018 -2.22937 -2.01791 0
M  V30 1001 C 102.566 -2.27594 -2.14872 0
M  V30 1002 C 103.041 -3.48921 -2.96678 0
M  V30 1003 N 104.532 -3.49257 -3.04259 0
M  V30 1004 C 105.267 -4.39795 -3.67924 0
M  V30 1005 N 104.763 -5.40591 -4.33281 0
M  V30 1006 N 106.556 -4.275 -3.64966 0
M  V30 1007 H 98.7067 -2.0748 -0.454502 0
M  V30 1008 H 100.97 -0.910647 -0.26349 0
M  V30 1009 H 100.676 -3.16587 -1.53184 0
M  V30 1010 H 100.55 -2.25306 -3.02518 0
M  V30 1011 H 102.937 -1.34473 -2.6268 0
M  V30 1012 H 103.018 -2.2925 -1.13482 0
M  V30 1013 H 102.662 -4.42359 -2.49562 0
M  V30 1014 H 102.592 -3.4451 -3.98272 0
M  V30 1015 H 105.083 -2.76337 -2.57771 0
M  V30 1016 H 105.396 -6.05904 -4.79687 0
M  V30 1017 H 103.741 -5.44475 -4.3194 0
M  V30 1018 H 106.932 -3.47987 -3.13086 0
M  V30 1019 H 107.105 -4.98258 -4.14298 0
M  V30 1020 N 100.511 1.16574 -1.06058 0
M  V30 1021 C 101.922 1.68662 -0.800632 0
M  V30 1022 C 102.273 1.84184 0.67608 0
M  V30 1023 O 101.398 1.53568 1.52466 0
M  V30 1024 C 101.993 3.06356 -1.44676 0
M  V30 1025 C 100.552 3.55575 -1.23465 0
M  V30 1026 C 99.6988 2.31616 -1.52477 0
M  V30 1027 H 102.65 1.00969 -1.22438 0
M  V30 1028 H 102.671 3.70636 -0.860788 0
M  V30 1029 H 102.183 2.95027 -2.52152 0
M  V30 1030 H 100.284 3.72167 -0.179527 0
M  V30 1031 H 100.397 4.37812 -1.94571 0
M  V30 1032 H 98.7608 2.36512 -0.945209 0
M  V30 1033 H 99.5438 2.22887 -2.61106 0
M  V30 1034 N 101.989 0.842826 1.3317 0
M  V30 1035 C 102.921 0.236245 2.27979 0
M  V30 1036 C 103.934 -0.585282 1.51915 0
M  V30 1037 O 105.123 -0.411705 1.73687 0
M  V30 1038 C 102.223 -0.685717 3.3189 0
M  V30 1039 C 101.396 0.0973448 4.37292 0
M  V30 1040 C 100.455 -0.748565 5.20848 0
M  V30 1041 O 99.4809 -0.186339 5.68895 0
M  V30 1042 N 100.683 -2.06527 5.42519 0
M  V30 1043 H 103.448 1.05088 2.80672 0
M  V30 1044 H 101.009 0.701667 1.45905 0
M  V30 1045 H 103.001 -1.25669 3.84694 0
M  V30 1046 H 101.571 -1.40105 2.79445 0
M  V30 1047 H 100.791 0.849706 3.84933 0
M  V30 1048 H 102.079 0.635643 5.04814 0
M  V30 1049 H 101.477 -2.54554 5.05192 0
M  V30 1050 H 100.034 -2.58464 5.98364 0
M  V30 1051 N 103.467 -1.45747 0.599634 0
M  V30 1052 C 104.692 -2.07178 0.0960198 0
M  V30 1053 C 105.117 -1.44268 -1.207 0
M  V30 1054 O 104.475 -0.532503 -1.73303 0
M  V30 1055 C 104.523 -3.60579 -0.0385348 0
M  V30 1056 O 103.627 -3.97713 -1.0908 0
M  V30 1057 H 102.968 -0.660251 0.0704593 0
M  V30 1058 H 105.498 -1.87124 0.827385 0
M  V30 1059 H 105.508 -4.07298 -0.239304 0
M  V30 1060 H 104.183 -4.05756 0.912947 0
M  V30 1061 H 102.76 -3.62678 -0.867135 0
M  V30 1062 N 104.945 -0.338344 -1.53925 0
M  V30 1063 C 106.17 0.263987 -2.05713 0
M  V30 1064 C 106.595 1.43847 -1.21201 0
M  V30 1065 O 105.953 1.79904 -0.224535 0
M  V30 1066 C 106.001 0.662 -3.54471 0
M  V30 1067 O 105.105 1.76265 -3.72833 0
M  V30 1068 H 104.446 0.0448722 -0.662482 0
M  V30 1069 H 106.976 -0.491048 -1.9862 0
M  V30 1070 H 106.986 0.940594 -3.9701 0
M  V30 1071 H 105.661 -0.196937 -4.15433 0
M  V30 1072 H 104.238 1.48173 -3.42198 0
M  V30 1073 N 106.423 1.57458 -0.0668435 0
M  V30 1074 C 107.671 1.92919 0.602214 0
M  V30 1075 C 107.992 0.947215 1.70449 0
M  V30 1076 O 107.262 -0.00544117 1.95899 0
M  V30 1077 H 105.842 0.71217 0.22544 0
M  V30 1078 H 108.504 1.94508 -0.123535 0
M  V30 1079 H 107.6 2.94589 1.03073 0
M  V30 1080 N 107.901 -0.206675 1.56239 0
M  V30 1081 C 109.129 -0.945345 1.8404 0
M  V30 1082 C 109.544 -1.77336 0.647885 0
M  V30 1083 O 108.901 -1.78425 -0.383511 0
M  V30 1084 C 108.952 -1.8509 3.10522 0
M  V30 1085 O 108.673 -1.05634 4.25174 0
M  V30 1086 C 110.174 -2.70222 3.51418 0
M  V30 1087 H 107.394 -0.276372 0.61144 0
M  V30 1088 H 109.938 -0.217417 2.03341 0
M  V30 1089 H 108.093 -2.53259 2.93153 0
M  V30 1090 H 108.507 -1.67238 4.97124 0
M  V30 1091 H 109.981 -3.29438 4.42916 0
M  V30 1092 H 110.458 -3.43358 2.73864 0
M  V30 1093 H 111.064 -2.07443 3.71278 0
M  V30 1094 N 109.379 -1.50304 -0.473955 0
M  V30 1095 C 110.625 -1.61389 -1.22806 0
M  V30 1096 C 110.958 -0.311955 -1.91678 0
M  V30 1097 O 110.233 0.686384 -1.81986 0
M  V30 1098 C 110.516 -2.79219 -2.27396 0
M  V30 1099 C 110.369 -4.19286 -1.62848 0
M  V30 1100 C 111.688 -2.92614 -3.28732 0
M  V30 1101 H 108.807 -0.587399 -0.445119 0
M  V30 1102 H 111.449 -1.82681 -0.522265 0
M  V30 1103 H 109.599 -2.61195 -2.87592 0
M  V30 1104 H 111.271 -4.48892 -1.06271 0
M  V30 1105 H 109.514 -4.23677 -0.931693 0
M  V30 1106 H 110.185 -4.97655 -2.38838 0
M  V30 1107 H 112.661 -3.09105 -2.78556 0
M  V30 1108 H 111.537 -3.76688 -3.99246 0
M  V30 1109 H 111.798 -2.03107 -3.92683 0
M  V30 1110 N 110.857 0.726932 -1.39834 0
M  V30 1111 C 112.087 1.51393 -1.40583 0
M  V30 1112 C 112.495 1.892 -0.000740625 0
M  V30 1113 O 111.838 1.55189 0.982951 0
M  V30 1114 C 111.9 2.82588 -2.22226 0
M  V30 1115 C 111.564 2.67169 -3.70769 0
M  V30 1116 C 112.561 2.3518 -4.63666 0
M  V30 1117 C 110.246 2.83788 -4.14451 0
M  V30 1118 C 112.24 2.20002 -5.98229 0
M  V30 1119 C 109.927 2.68229 -5.49087 0
M  V30 1120 C 110.925 2.36382 -6.4079 0
M  V30 1121 O 110.613 2.2093 -7.72946 0
M  V30 1122 H 110.345 0.474168 -0.48181 0
M  V30 1123 H 112.899 0.905247 -1.84376 0
M  V30 1124 H 111.129 3.45746 -1.73195 0
M  V30 1125 H 112.818 3.44247 -2.15055 0
M  V30 1126 H 113.584 2.21984 -4.31217 0
M  V30 1127 H 109.463 3.07566 -3.43401 0
M  V30 1128 H 113.007 1.95067 -6.69772 0
M  V30 1129 H 108.904 2.81006 -5.81125 0
M  V30 1130 H 109.672 2.35937 -7.83757 0
M  V30 1131 N 112.336 1.25143 0.95797 0
M  V30 1132 C 113.246 1.06968 2.08794 0
M  V30 1133 C 114.262 0.00773911 1.73998 0
M  V30 1134 O 115.438 0.207972 2.00323 0
M  V30 1135 C 112.503 0.68691 3.39827 0
M  V30 1136 C 111.564 1.82641 3.88511 0
M  V30 1137 C 110.797 1.46181 5.1329 0
M  V30 1138 O 111.02 0.355971 5.69288 0
M  V30 1139 O 109.954 2.29085 5.566 0
M  V30 1140 H 113.78 2.01723 2.27027 0
M  V30 1141 H 111.365 1.04051 1.07209 0
M  V30 1142 H 113.247 0.485417 4.18595 0
M  V30 1143 H 111.922 -0.231417 3.22872 0
M  V30 1144 H 110.829 2.08274 3.10762 0
M  V30 1145 H 112.162 2.72386 4.09959 0
M  V30 1146 N 113.814 -1.1601 1.06675 0
M  V30 1147 C 114.777 -2.18724 0.685001 0
M  V30 1148 C 115.777 -1.58496 -0.271246 0
M  V30 1149 O 116.967 -1.74119 -0.0531156 0
M  V30 1150 C 114.099 -3.40899 0.00853648 0
M  V30 1151 H 115.292 -2.54011 1.59431 0
M  V30 1152 H 112.845 -1.30352 0.862441 0
M  V30 1153 H 113.58 -3.11173 -0.913337 0
M  V30 1154 H 113.365 -3.8587 0.696204 0
M  V30 1155 H 114.855 -4.16886 -0.24414 0
M  V30 1156 N 115.292 -0.849877 -1.32721 0
M  V30 1157 C 116.255 -0.296122 -2.27279 0
M  V30 1158 C 117.255 0.541458 -1.5141 0
M  V30 1159 O 118.445 0.353658 -1.70572 0
M  V30 1160 C 115.577 0.581579 -3.35902 0
M  V30 1161 H 116.77 -1.13064 -2.77771 0
M  V30 1162 H 114.323 -0.62383 -1.43311 0
M  V30 1163 H 115.058 1.43809 -2.9067 0
M  V30 1164 H 114.843 -0.0178814 -3.92096 0
M  V30 1165 H 116.333 0.961951 -4.0637 0
M  V30 1166 N 116.77 1.45427 -0.607355 0
M  V30 1167 C 117.733 2.28974 0.101693 0
M  V30 1168 C 118.733 1.39754 0.795329 0
M  V30 1169 O 119.923 1.61878 0.643527 0
M  V30 1170 C 117.055 3.20768 1.15414 0
M  V30 1171 H 118.248 2.93147 -0.632844 0
M  V30 1172 H 115.801 1.51945 -0.366391 0
M  V30 1173 H 116.536 2.61395 1.91945 0
M  V30 1174 H 116.321 3.86489 0.66098 0
M  V30 1175 H 117.811 3.83589 1.65073 0
M  V30 1176 N 118.248 0.346503 1.53744 0
M  V30 1177 C 119.494 -0.249473 2.0126 0
M  V30 1178 C 119.827 -1.49965 1.23386 0
M  V30 1179 O 119.102 -1.91811 0.32229 0
M  V30 1180 C 119.385 -0.560643 3.55709 0
M  V30 1181 C 119.238 0.701836 4.44291 0
M  V30 1182 C 120.557 -1.36905 4.18264 0
M  V30 1183 H 117.676 -0.0891987 0.731582 0
M  V30 1184 H 120.318 0.467624 1.84156 0
M  V30 1185 H 118.468 -1.17156 3.70414 0
M  V30 1186 H 120.14 1.33974 4.41417 0
M  V30 1187 H 118.383 1.32612 4.13033 0
M  V30 1188 H 119.054 0.43933 5.50249 0
M  V30 1189 H 121.53 -0.852448 4.07275 0
M  V30 1190 H 120.406 -1.55553 5.26398 0
M  V30 1191 H 120.667 -2.37203 3.73078 0
M  V30 1192 N 119.726 -1.57421 0.075193 0
M  V30 1193 C 120.636 -2.1642 -0.905511 0
M  V30 1194 C 121.652 -1.12828 -1.32461 0
M  V30 1195 O 122.828 -1.45109 -1.39661 0
M  V30 1196 C 119.893 -2.71693 -2.15369 0
M  V30 1197 C 118.954 -3.90171 -1.79068 0
M  V30 1198 C 118.187 -4.42798 -2.97936 0
M  V30 1199 O 118.41 -3.94416 -4.12058 0
M  V30 1200 O 117.344 -5.34085 -2.77555 0
M  V30 1201 H 121.17 -3.00588 -0.433626 0
M  V30 1202 H 118.755 -1.48664 -0.148067 0
M  V30 1203 H 120.637 -3.07104 -2.88557 0
M  V30 1204 H 119.312 -1.90582 -2.61649 0
M  V30 1205 H 118.219 -3.59606 -1.03122 0
M  V30 1206 H 119.552 -4.72584 -1.37569 0
M  V30 1207 N 121.204 0.198386 -1.56346 0
M  V30 1208 C 122.45 0.920648 -1.80698 0
M  V30 1209 C 122.783 1.83045 -0.648697 0
M  V30 1210 O 122.058 1.91308 0.350925 0
M  V30 1211 C 122.341 1.73971 -3.15287 0
M  V30 1212 C 122.194 0.85485 -4.41602 0
M  V30 1213 C 123.513 2.71296 -3.46535 0
M  V30 1214 H 120.632 0.333261 -0.657348 0
M  V30 1215 H 123.274 0.188198 -1.89066 0
M  V30 1216 H 121.424 2.36416 -3.08285 0
M  V30 1217 H 123.096 0.245362 -4.60647 0
M  V30 1218 H 121.339 0.161398 -4.335 0
M  V30 1219 H 122.01 1.46286 -5.32264 0
M  V30 1220 H 124.486 2.18983 -3.53816 0
M  V30 1221 H 123.362 3.2569 -4.41834 0
M  V30 1222 H 123.623 3.5018 -2.69864 0
M  V30 1223 N 122.682 1.50554 0.465978 0
M  V30 1224 C 123.959 1.5232 1.22712 0
M  V30 1225 C 124.339 0.270807 2.09356 0
M  V30 1226 O 123.687 -0.745541 2.15995 0
M  V30 1227 C 123.897 2.82175 2.05374 0
M  V30 1228 C 125.245 3.33033 2.6339 0
M  V30 1229 O 126.269 2.83531 2.15612 0
M  V30 1230 O 125.128 4.19336 3.50456 0
M  V30 1231 H 122.222 0.611183 0.557122 0
M  V30 1232 H 124.768 1.62847 0.477381 0
M  V30 1233 H 123.54 3.64797 1.41558 0
M  V30 1234 H 123.163 2.74675 2.87471 0
M  V30 1235 N 124.16 -0.719506 1.40217 0
M  V30 1236 C 125.406 -1.48152 1.38488 0
M  V30 1237 C 125.739 -1.94195 -0.0141867 0
M  V30 1238 O 125.014 -1.67884 -0.982096 0
M  V30 1239 C 125.297 -2.71035 2.37091 0
M  V30 1240 C 125.15 -2.30912 3.86005 0
M  V30 1241 C 126.469 -3.73182 2.33288 0
M  V30 1242 H 123.588 -0.537395 0.504357 0
M  V30 1243 H 126.23 -0.821472 1.71324 0
M  V30 1244 H 124.38 -3.27352 2.0922 0
M  V30 1245 H 126.052 -1.80107 4.24687 0
M  V30 1246 H 124.295 -1.62958 4.02029 0
M  V30 1247 H 124.966 -3.18978 4.50508 0
M  V30 1248 H 127.442 -3.26485 2.57966 0
M  V30 1249 H 126.318 -4.56806 3.04334 0
M  V30 1250 H 126.579 -4.21202 1.34317 0
M  V30 1251 N 125.638 -1.25649 -0.95132 0
M  V30 1252 C 126.863 -1.13443 -1.73624 0
M  V30 1253 C 127.288 0.307565 -1.85568 0
M  V30 1254 O 126.646 1.22282 -1.33854 0
M  V30 1255 C 126.694 -1.79723 -3.12621 0
M  V30 1256 O 125.798 -1.07912 -3.98031 0
M  V30 1257 H 125.139 -0.395872 -0.533086 0
M  V30 1258 H 127.669 -1.66276 -1.1922 0
M  V30 1259 H 127.679 -1.86141 -3.63064 0
M  V30 1260 H 126.354 -2.84633 -3.03244 0
M  V30 1261 H 124.931 -1.09398 -3.56492 0
M  V30 1262 N 127.117 1.15442 -1.07289 0
M  V30 1263 C 128.08 2.18358 -0.696591 0
M  V30 1264 C 129.08 1.58637 0.262837 0
M  V30 1265 O 130.27 1.74145 0.0438809 0
M  V30 1266 C 127.402 3.4089 -0.0266151 0
M  V30 1267 H 128.595 2.53162 -1.60776 0
M  V30 1268 H 126.148 1.29893 -0.869342 0
M  V30 1269 H 126.883 3.11653 0.896822 0
M  V30 1270 H 126.668 3.85495 -0.716657 0
M  V30 1271 H 128.158 4.17009 0.222028 0
M  V30 1272 N 128.595 0.856903 1.32268 0
M  V30 1273 C 129.82 0.474569 2.01897 0
M  V30 1274 C 130.245 -0.921766 1.63967 0
M  V30 1275 O 129.603 -1.60589 0.84148 0
M  V30 1276 C 129.651 0.623799 3.55164 0
M  V30 1277 O 128.755 -0.342459 4.10976 0
M  V30 1278 H 128.096 0.190422 0.63611 0
M  V30 1279 H 130.626 1.15672 1.68764 0
M  V30 1280 H 130.636 0.512169 4.04773 0
M  V30 1281 H 129.311 1.64202 3.82113 0
M  V30 1282 H 127.888 -0.18688 3.72431 0
M  V30 1283 N 130.073 -1.45103 0.615059 0
M  V30 1284 C 131.322 -2.01396 0.110718 0
M  V30 1285 C 131.635 -1.48834 -1.26916 0
M  V30 1286 O 132.841 -1.97152 -1.86664 0
M  V30 1287 C 131.297 -3.59599 0.14723 0
M  V30 1288 C 130.905 -4.21158 1.52743 0
M  V30 1289 C 132.649 -4.23428 -0.30148 0
M  V30 1290 C 130.556 -5.71535 1.51992 0
M  V30 1291 H 129.486 -0.753061 0.0376241 0
M  V30 1292 H 132.137 -1.66494 0.77149 0
M  V30 1293 H 130.519 -3.91724 -0.580339 0
M  V30 1294 H 131.693 -4.00594 2.2773 0
M  V30 1295 H 130.008 -3.69552 1.91886 0
M  V30 1296 H 132.605 -5.33703 -0.326392 0
M  V30 1297 H 132.948 -3.94629 -1.32565 0
M  V30 1298 H 133.481 -3.96047 0.373065 0
M  V30 1299 H 130.22 -6.05044 2.52193 0
M  V30 1300 H 129.74 -5.94268 0.81274 0
M  V30 1301 H 131.419 -6.34873 1.24681 0
M  V30 1302 N 131.551 -0.354651 -1.53558 0
M  V30 1303 C 132.779 0.239515 -2.05509 0
M  V30 1304 C 133.194 1.4333 -1.2289 0
M  V30 1305 O 132.551 1.80538 -0.266899 0
M  V30 1306 C 132.602 0.643719 -3.55723 0
M  V30 1307 O 132.323 -0.502602 -4.35207 0
M  V30 1308 C 133.824 1.29743 -4.23889 0
M  V30 1309 H 131.044 0.0442697 -0.669538 0
M  V30 1310 H 133.588 -0.509856 -1.98042 0
M  V30 1311 H 131.743 1.34302 -3.63376 0
M  V30 1312 H 132.157 -0.178172 -5.24197 0
M  V30 1313 H 133.631 1.53091 -5.30346 0
M  V30 1314 H 134.108 2.25441 -3.76926 0
M  V30 1315 H 134.714 0.639865 -4.20459 0
M  V30 1316 N 133.029 1.57378 -0.0835403 0
M  V30 1317 C 133.959 2.1641 0.87686 0
M  V30 1318 C 134.94 1.09429 1.30228 0
M  V30 1319 O 136.125 1.37516 1.37124 0
M  V30 1320 C 133.255 2.73517 2.14022 0
M  V30 1321 C 132.209 3.85769 1.85381 0
M  V30 1322 C 131.535 4.29529 3.18448 0
M  V30 1323 C 132.835 5.09486 1.14984 0
M  V30 1324 H 134.529 2.96914 0.385059 0
M  V30 1325 H 132.075 1.42823 0.18377 0
M  V30 1326 H 134.028 3.13463 2.81636 0
M  V30 1327 H 132.752 1.90252 2.65465 0
M  V30 1328 H 131.411 3.46345 1.20169 0
M  V30 1329 H 131.059 3.43169 3.67755 0
M  V30 1330 H 130.759 5.05204 3.00071 0
M  V30 1331 H 132.283 4.72099 3.8724 0
M  V30 1332 H 133.697 5.46674 1.72687 0
M  V30 1333 H 132.094 5.90515 1.06826 0
M  V30 1334 H 133.164 4.84724 0.130749 0
M  V30 1335 N 134.507 -0.190092 1.56449 0
M  V30 1336 C 135.439 -1.25973 1.91477 0
M  V30 1337 C 136.452 -1.41452 0.805931 0
M  V30 1338 O 137.641 -1.41789 1.08435 0
M  V30 1339 C 134.741 -2.63117 2.13594 0
M  V30 1340 C 133.914 -2.69182 3.4476 0
M  V30 1341 C 132.973 -3.87557 3.5593 0
M  V30 1342 O 131.999 -3.74427 4.28711 0
M  V30 1343 N 133.201 -5.03224 2.89388 0
M  V30 1344 H 135.966 -0.962394 2.83828 0
M  V30 1345 H 133.527 -0.379981 1.57378 0
M  V30 1346 H 135.519 -3.40742 2.1835 0
M  V30 1347 H 134.089 -2.85319 1.27719 0
M  V30 1348 H 133.309 -1.77793 3.51828 0
M  V30 1349 H 134.597 -2.70229 4.31107 0
M  V30 1350 H 133.995 -5.16791 2.30094 0
M  V30 1351 H 132.552 -5.78778 2.99764 0
M  V30 1352 N 135.985 -1.50799 -0.457987 0
M  V30 1353 C 137.231 -1.62683 -1.21088 0
M  V30 1354 C 137.564 -0.332268 -1.91336 0
M  V30 1355 O 136.839 0.667043 -1.82704 0
M  V30 1356 C 137.122 -2.81615 -2.24422 0
M  V30 1357 C 136.975 -4.20989 -1.58392 0
M  V30 1358 C 138.294 -2.96085 -3.2561 0
M  V30 1359 H 135.413 -0.592087 -0.438864 0
M  V30 1360 H 138.055 -1.83225 -0.50286 0
M  V30 1361 H 136.205 -2.64231 -2.84806 0
M  V30 1362 H 137.877 -4.49994 -1.01504 0
M  V30 1363 H 136.12 -4.24641 -0.886704 0
M  V30 1364 H 136.791 -5.0016 -2.33547 0
M  V30 1365 H 139.267 -3.12042 -2.75262 0
M  V30 1366 H 138.143 -3.80902 -3.95228 0
M  V30 1367 H 138.404 -2.0726 -3.90507 0
M  V30 1368 N 137.463 0.71206 -1.40597 0
M  V30 1369 C 138.393 1.83889 -1.43899 0
M  V30 1370 C 139.374 1.67442 -0.299504 0
M  V30 1371 O 140.559 1.87421 -0.508624 0
M  V30 1372 C 137.689 3.21877 -1.30431 0
M  V30 1373 C 136.643 3.53002 -2.42019 0
M  V30 1374 C 135.969 4.90172 -2.13626 0
M  V30 1375 C 137.269 3.53643 -3.84362 0
M  V30 1376 H 138.963 1.81383 -2.38203 0
M  V30 1377 H 136.509 0.871237 -1.14654 0
M  V30 1378 H 138.462 4.00404 -1.31357 0
M  V30 1379 H 137.186 3.24968 -0.326049 0
M  V30 1380 H 135.845 2.76818 -2.40349 0
M  V30 1381 H 135.493 4.89869 -1.14182 0
M  V30 1382 H 135.193 5.11962 -2.88389 0
M  V30 1383 H 136.717 5.71028 -2.1624 0
M  V30 1384 H 138.131 4.22203 -3.87837 0
M  V30 1385 H 136.528 3.86961 -4.58673 0
M  V30 1386 H 137.598 2.52954 -4.13693 0
M  V30 1387 N 138.941 1.26152 0.944643 0
M  V30 1388 C 140.187 1.11657 1.69294 0
M  V30 1389 C 140.52 -0.339926 1.91202 0
M  V30 1390 O 139.795 -1.24994 1.49019 0
M  V30 1391 C 140.078 1.88236 3.06984 0
M  V30 1392 C 139.931 3.41772 2.92424 0
M  V30 1393 C 141.25 1.67343 4.07043 0
M  V30 1394 H 138.369 0.407004 0.614424 0
M  V30 1395 H 141.011 1.55106 1.09737 0
M  V30 1396 H 139.161 1.51308 3.57824 0
M  V30 1397 H 140.833 3.88433 2.48832 0
M  V30 1398 H 139.076 3.68974 2.28124 0
M  V30 1399 H 139.747 3.90579 3.90067 0
M  V30 1400 H 142.223 1.99509 3.65151 0
M  V30 1401 H 141.099 2.23346 5.01406 0
M  V30 1402 H 141.36 0.617158 4.37771 0
M  V30 1403 N 140.419 -1.14872 1.07899 0
M  V30 1404 C 141.696 -1.81928 0.71845 0
M  V30 1405 C 142.076 -1.95417 -0.798455 0
M  V30 1406 O 141.424 -1.50997 -1.715 0
M  V30 1407 C 141.634 -3.17937 1.43935 0
M  V30 1408 C 142.982 -3.93501 1.59506 0
M  V30 1409 O 144.006 -3.27509 1.40058 0
M  V30 1410 O 142.865 -5.1183 1.91551 0
M  V30 1411 H 139.959 -0.78628 0.256305 0
M  V30 1412 H 142.505 -1.21934 1.18026 0
M  V30 1413 H 141.277 -3.0325 2.47295 0
M  V30 1414 H 140.9 -3.85619 0.968687 0
M  V30 1415 N 141.898 -0.863906 -1.31812 0
M  V30 1416 C 142.861 -0.320212 -2.26952 0
M  V30 1417 C 143.861 0.525369 -1.51975 0
M  V30 1418 O 145.051 0.335547 -1.70938 0
M  V30 1419 C 142.183 0.545919 -3.365 0
M  V30 1420 H 143.376 -1.16004 -2.76556 0
M  V30 1421 H 140.929 -0.638995 -1.42641 0
M  V30 1422 H 141.664 1.40718 -2.92179 0
M  V30 1423 H 141.449 -0.0594674 -3.92055 0
M  V30 1424 H 142.939 0.918796 -4.07367 0
M  V30 1425 N 143.376 1.44774 -0.622745 0
M  V30 1426 C 144.787 1.85546 -0.207226 0
M  V30 1427 C 145.138 1.52093 1.23944 0
M  V30 1428 O 144.263 0.95492 1.94191 0
M  V30 1429 C 144.858 3.36781 -0.369313 0
M  V30 1430 C 143.417 3.76399 -0.00836847 0
M  V30 1431 C 142.564 2.68664 -0.686651 0
M  V30 1432 H 145.515 1.3536 -0.828454 0
M  V30 1433 H 145.536 3.78453 0.394162 0
M  V30 1434 H 145.048 3.61098 -1.42231 0
M  V30 1435 H 143.149 3.57698 1.04322 0
M  V30 1436 H 143.262 4.7732 -0.412584 0
M  V30 1437 H 141.626 2.54404 -0.122777 0
M  V30 1438 H 142.409 2.95815 -1.74208 0
M  V30 1439 N 144.854 0.36279 1.53368 0
M  V30 1440 C 146.102 -0.227326 2.00817 0
M  V30 1441 C 146.423 -1.49511 1.25186 0
M  V30 1442 O 145.693 -1.92482 0.364348 0
M  V30 1443 H 144.273 -0.0869923 0.741917 0
M  V30 1444 H 146.935 0.488381 1.88682 0
M  V30 1445 H 146.031 -0.456273 3.08747 0
M  V30 1446 N 146.332 -1.57332 0.0918853 0
M  V30 1447 C 147.28 -2.15075 -0.885747 0
M  V30 1448 C 148.274 -1.09277 -1.29441 0
M  V30 1449 O 149.48 -1.27627 -1.26931 0
M  V30 1450 H 145.855 -0.687966 -0.303656 0
M  V30 1451 H 147.826 -2.96047 -0.373995 0
M  V30 1452 C 146.575 -2.74325 -2.13638 0
M  V30 1453 H 145.898 -3.55418 -1.8308 0
M  V30 1454 H 147.338 -3.183 -2.80109 0
M  V30 1455 C 145.797 -1.70062 -2.90827 0
M  V30 1456 O 146.327 -1.13763 -3.85254 0
M  V30 1457 N 144.533 -1.40628 -2.54307 0
M  V30 1458 H 144.08 -1.866 -1.7759 0
M  V30 1459 H 144.038 -0.711043 -3.06254 0
M  V30 1460 N 147.81 0.181792 -1.56548 0
M  V30 1461 C 149.059 0.898348 -1.8059 0
M  V30 1462 C 149.372 1.83862 -0.667379 0
M  V30 1463 O 150.578 2.59678 -0.792446 0
M  V30 1464 C 149.034 1.64791 -3.19956 0
M  V30 1465 C 148.642 0.751789 -4.41647 0
M  V30 1466 C 150.386 2.35331 -3.53298 0
M  V30 1467 C 148.293 1.50098 -5.72035 0
M  V30 1468 H 147.223 0.339194 -0.673397 0
M  V30 1469 H 149.874 0.151413 -1.82874 0
M  V30 1470 H 148.256 2.43921 -3.11959 0
M  V30 1471 H 149.43 -0.0018076 -4.608 0
M  V30 1472 H 147.745 0.156562 -4.16106 0
M  V30 1473 H 150.342 2.91958 -4.47956 0
M  V30 1474 H 150.685 3.10164 -2.77676 0
M  V30 1475 H 151.218 1.63154 -3.62803 0
M  V30 1476 H 147.957 0.795175 -6.50659 0
M  V30 1477 H 147.477 2.22817 -5.56878 0
M  V30 1478 H 149.156 2.05125 -6.13622 0
M  V30 1479 N 149.288 1.51039 0.449983 0
M  V30 1480 C 150.513 1.6715 1.22783 0
M  V30 1481 C 150.938 0.363081 1.84563 0
M  V30 1482 O 150.296 -0.675433 1.68249 0
M  V30 1483 C 150.344 2.77985 2.29689 0
M  V30 1484 O 149.448 2.40707 3.34864 0
M  V30 1485 H 148.789 0.557746 0.360299 0
M  V30 1486 H 151.319 1.97535 0.533005 0
M  V30 1487 H 151.329 3.01693 2.74673 0
M  V30 1488 H 150.004 3.72935 1.84098 0
M  V30 1489 H 148.581 2.27523 2.95445 0
M  V30 1490 N 150.766 -0.704594 1.40972 0
M  V30 1491 C 152.006 -1.47691 1.41304 0
M  V30 1492 C 152.37 -1.91992 0.0178582 0
M  V30 1493 O 153.571 -2.68599 -0.103996 0
M  V30 1494 C 151.842 -2.66254 2.38419 0
M  V30 1495 S 153.401 -3.55516 2.57204 0
M  V30 1496 H 150.219 -0.504808 0.500689 0
M  V30 1497 H 152.821 -0.822962 1.77335 0
M  V30 1498 H 151.525 -2.31897 3.38603 0
M  V30 1499 H 151.056 -3.3655 2.03711 0
M  V30 1500 H 153.071 -4.61115 1.83268 0
M  V30 1501 N 152.244 -1.26651 -0.937939 0
M  V30 1502 C 153.174 -1.10993 -2.05433 0
M  V30 1503 C 154.155 -0.0142161 -1.70094 0
M  V30 1504 O 155.34 -0.186837 -1.93299 0
M  V30 1505 C 152.47 -0.745561 -3.39203 0
M  V30 1506 C 151.424 -1.79337 -3.88616 0
M  V30 1507 C 150.75 -1.28324 -5.19073 0
M  V30 1508 C 152.05 -3.19553 -4.13138 0
M  V30 1509 H 153.744 -2.0438 -2.1879 0
M  V30 1510 H 151.29 -0.984041 -1.05131 0
M  V30 1511 H 153.243 -0.622888 -4.16771 0
M  V30 1512 H 151.967 0.22401 -3.25831 0
M  V30 1513 H 150.626 -1.90477 -3.13231 0
M  V30 1514 H 150.274 -0.303414 -5.02084 0
M  V30 1515 H 149.974 -1.98369 -5.53103 0
M  V30 1516 H 151.498 -1.1733 -5.99221 0
M  V30 1517 H 152.912 -3.11471 -4.81309 0
M  V30 1518 H 151.309 -3.87218 -4.58457 0
M  V30 1519 H 152.379 -3.65368 -3.18801 0
M  V30 1520 N 153.722 1.14298 -1.08507 0
M  V30 1521 C 154.968 1.85854 -0.826438 0
M  V30 1522 C 155.323 1.81413 0.640878 0
M  V30 1523 O 154.616 1.23463 1.46518 0
M  V30 1524 C 154.81 3.33547 -1.28379 0
M  V30 1525 C 154.639 3.52369 -2.79403 0
M  V30 1526 C 153.409 3.67159 -3.47164 0
M  V30 1527 C 155.607 3.49203 -3.77573 0
M  V30 1528 N 153.589 3.74149 -4.86709 0
M  V30 1529 C 154.96 3.6245 -5.03021 0
M  V30 1530 C 157.015 3.32547 -3.70563 0
M  V30 1531 C 155.718 3.60761 -6.2229 0
M  V30 1532 C 157.744 3.32162 -4.89308 0
M  V30 1533 C 157.106 3.45949 -6.13595 0
M  V30 1534 H 153.205 0.696705 -0.355143 0
M  V30 1535 H 155.789 1.36981 -1.38362 0
M  V30 1536 H 153.96 3.81008 -0.754166 0
M  V30 1537 H 155.692 3.92867 -0.971469 0
M  V30 1538 H 152.447 3.68433 -2.9758 0
M  V30 1539 H 152.871 3.81359 -5.5937 0
M  V30 1540 H 157.513 3.20797 -2.75407 0
M  V30 1541 H 155.231 3.71286 -7.17755 0
M  V30 1542 H 158.817 3.20485 -4.85573 0
M  V30 1543 H 157.697 3.456 -7.03939 0
M  V30 1544 N 155.201 0.870884 1.31352 0
M  V30 1545 C 156.447 0.482987 1.96965 0
M  V30 1546 C 156.78 -0.962462 1.68672 0
M  V30 1547 O 156.055 -1.6779 0.98371 0
M  V30 1548 C 156.338 0.741752 3.52378 0
M  V30 1549 C 156.191 2.2368 3.9024 0
M  V30 1550 C 157.51 0.208838 4.39604 0
M  V30 1551 H 154.629 0.176955 0.715441 0
M  V30 1552 H 157.271 1.09229 1.55464 0
M  V30 1553 H 155.421 0.223149 3.87859 0
M  V30 1554 H 157.093 2.82273 3.64856 0
M  V30 1555 H 155.336 2.70901 3.38814 0
M  V30 1556 H 156.007 2.3685 4.98604 0
M  V30 1557 H 158.483 0.652529 4.10952 0
M  V30 1558 H 157.359 0.419336 5.47296 0
M  V30 1559 H 157.62 -0.889275 4.33064 0
M  V30 1560 N 156.679 -1.44442 0.630414 0
M  V30 1561 C 157.926 -2.02052 0.134617 0
M  V30 1562 C 158.254 -1.49576 -1.24327 0
M  V30 1563 O 157.509 -0.669806 -1.83881 0
M  V30 1564 C 157.808 -3.57332 0.0697835 0
M  V30 1565 C 157.474 -4.29058 1.38635 0
M  V30 1566 C 156.136 -4.4837 1.74694 0
M  V30 1567 C 158.488 -4.69872 2.25543 0
M  V30 1568 C 155.816 -5.05756 2.97369 0
M  V30 1569 C 158.168 -5.28616 3.47487 0
M  V30 1570 C 156.832 -5.46147 3.8377 0
M  V30 1571 H 156.102 -0.739361 0.0492598 0
M  V30 1572 H 158.749 -1.73217 0.816586 0
M  V30 1573 H 157.054 -3.85577 -0.695553 0
M  V30 1574 H 158.751 -3.99637 -0.330344 0
M  V30 1575 H 155.341 -4.14357 1.09574 0
M  V30 1576 H 159.525 -4.54666 1.98979 0
M  V30 1577 H 154.781 -5.17515 3.25558 0
M  V30 1578 H 158.955 -5.59192 4.15063 0
M  V30 1579 H 156.582 -5.9038 4.7891 0
M  V30 1580 N 158.157 -0.370918 -1.53173 0
M  V30 1581 C 159.104 0.473035 -2.259 0
M  V30 1582 C 160.074 1.07311 -1.26781 0
M  V30 1583 O 161.259 1.1046 -1.55574 0
M  V30 1584 C 158.399 1.60405 -3.05556 0
M  V30 1585 C 157.512 1.02863 -4.19575 0
M  V30 1586 C 156.647 2.12918 -4.86661 0
M  V30 1587 C 155.686 1.52869 -5.92704 0
M  V30 1588 N 154.823 2.56779 -6.53459 0
M  V30 1589 H 159.663 -0.153649 -2.97604 0
M  V30 1590 H 157.2 -0.0875946 -1.46839 0
M  V30 1591 H 159.158 2.27034 -3.50016 0
M  V30 1592 H 157.788 2.20131 -2.36097 0
M  V30 1593 H 156.84 0.252465 -3.79561 0
M  V30 1594 H 158.152 0.549642 -4.95762 0
M  V30 1595 H 157.306 2.87356 -5.34333 0
M  V30 1596 H 156.045 2.6417 -4.09958 0
M  V30 1597 H 155.05 0.769479 -5.44389 0
M  V30 1598 H 156.275 1.02435 -6.7133 0
M  V30 1599 H 154.221 3.07235 -5.79606 0
M  V30 1600 H 154.138 2.13583 -7.25202 0
M  V30 1601 H 155.406 3.30903 -7.05779 0
M  V30 1602 N 159.635 1.57281 -0.100228 0
M  V30 1603 C 160.585 2.10848 0.86759 0
M  V30 1604 C 161.569 1.02473 1.24049 0
M  V30 1605 O 162.761 1.28739 1.21471 0
M  V30 1606 C 159.89 2.69648 2.12474 0
M  V30 1607 C 158.976 3.85074 1.77704 0
M  V30 1608 N 159.367 4.92897 1.13518 0
M  V30 1609 C 157.665 3.94905 2.07282 0
M  V30 1610 C 158.366 5.73475 0.974735 0
M  V30 1611 N 157.342 5.22675 1.4937 0
M  V30 1612 H 161.144 2.91594 0.367471 0
M  V30 1613 H 158.658 1.62074 0.102829 0
M  V30 1614 H 160.655 3.06356 2.82757 0
M  V30 1615 H 159.315 1.90359 2.63047 0
M  V30 1616 H 160.326 5.11662 0.801381 0
M  V30 1617 H 157.003 3.26633 2.60033 0
M  V30 1618 H 158.393 6.70238 0.472364 0
M  V30 1619 N 161.113 -0.173488 1.56642 0
M  V30 1620 C 162.338 -0.910149 1.86363 0
M  V30 1621 C 162.763 -1.75132 0.686318 0
M  V30 1622 O 162.121 -1.77595 -0.364643 0
M  V30 1623 C 162.169 -1.76447 3.14482 0
M  V30 1624 O 161.273 -2.86584 2.96553 0
M  V30 1625 H 160.614 -0.255086 0.613047 0
M  V30 1626 H 163.144 -0.172283 2.03873 0
M  V30 1627 H 163.154 -2.16483 3.45831 0
M  V30 1628 H 161.829 -1.14658 3.99783 0
M  V30 1629 H 160.406 -2.50146 2.76553 0
M  V30 1630 N 162.591 -1.51276 -0.441967 0
M  V30 1631 C 163.816 -1.67799 -1.21895 0
M  V30 1632 C 164.241 -0.372864 -1.84367 0
M  V30 1633 O 163.599 0.666501 -1.68604 0
M  V30 1634 C 163.647 -2.79199 -2.28211 0
M  V30 1635 O 162.751 -2.42479 -3.33583 0
M  V30 1636 H 162.092 -0.559649 -0.357336 0
M  V30 1637 H 164.622 -1.97815 -0.522522 0
M  V30 1638 H 164.632 -3.03146 -2.73069 0
M  V30 1639 H 163.307 -3.73906 -1.82118 0
M  V30 1640 H 161.884 -2.29087 -2.94234 0
M  V30 1641 N 164.069 0.697108 -1.41344 0
M  V30 1642 C 164.999 1.82353 -1.45841 0
M  V30 1643 C 165.98 1.67115 -0.317247 0
M  V30 1644 O 167.165 1.86871 -0.528474 0
M  V30 1645 C 164.295 3.20476 -1.33838 0
M  V30 1646 C 163.249 3.50415 -2.4575 0
M  V30 1647 C 162.575 4.87878 -2.18813 0
M  V30 1648 C 163.875 3.49546 -3.88091 0
M  V30 1649 H 165.569 1.78846 -2.40113 0
M  V30 1650 H 163.115 0.859028 -1.15571 0
M  V30 1651 H 165.068 3.98988 -1.35596 0
M  V30 1652 H 163.792 3.24604 -0.360498 0
M  V30 1653 H 162.451 2.74253 -2.43271 0
M  V30 1654 H 162.099 4.8863 -1.19371 0
M  V30 1655 H 161.799 5.08875 -2.93803 0
M  V30 1656 H 163.323 5.68702 -2.22284 0
M  V30 1657 H 164.737 4.18066 -3.92293 0
M  V30 1658 H 163.134 3.82075 -4.62751 0
M  V30 1659 H 164.204 2.48552 -4.16353 0
M  V30 1660 N 165.547 1.27147 0.931209 0
M  V30 1661 C 166.495 1.09398 2.05268 0
M  V30 1662 C 167.489 0.0180591 1.6939 0
M  V30 1663 O 168.695 0.17551 1.79142 0
M  V30 1664 H 165.07 0.336986 0.672268 0
M  V30 1665 H 167.041 2.04416 2.17386 0
M  V30 1666 C 165.79 0.75424 3.39421 0
M  V30 1667 H 165.113 1.57404 3.67511 0
M  V30 1668 H 166.553 0.669903 4.18674 0
M  V30 1669 C 165.012 -0.541197 3.32525 0
M  V30 1670 O 165.542 -1.57664 3.69466 0
M  V30 1671 N 163.748 -0.535517 2.85623 0
M  V30 1672 H 163.295 0.307511 2.55758 0
M  V30 1673 H 163.253 -1.40236 2.81392 0
M  V30 1674 N 167.025 -1.13721 1.09112 0
M  V30 1675 C 168.265 -1.86576 0.834801 0
M  V30 1676 C 168.629 -1.81435 -0.628122 0
M  V30 1677 O 169.83 -2.49497 -1.00024 0
M  V30 1678 C 168.101 -3.30872 1.35124 0
M  V30 1679 S 169.66 -4.21257 1.22832 0
M  V30 1680 H 166.478 -0.643666 0.302017 0
M  V30 1681 H 169.08 -1.37085 1.39385 0
M  V30 1682 H 167.784 -3.32166 2.41027 0
M  V30 1683 H 167.315 -3.85423 0.788185 0
M  V30 1684 H 169.33 -4.95884 0.177191 0
M  V30 1685 N 168.503 -0.877838 -1.30888 0
M  V30 1686 C 169.435 -0.296607 -2.27273 0
M  V30 1687 C 170.448 0.544799 -1.53414 0
M  V30 1688 O 171.637 0.365511 -1.74718 0
M  V30 1689 C 168.737 0.597481 -3.33592 0
M  V30 1690 C 167.91 -0.213251 -4.3688 0
M  V30 1691 C 166.969 0.610208 -5.2265 0
M  V30 1692 O 165.995 0.035441 -5.69189 0
M  V30 1693 N 167.197 1.92071 -5.47804 0
M  V30 1694 H 169.962 -1.12492 -2.77787 0
M  V30 1695 H 167.523 -0.740105 -1.43993 0
M  V30 1696 H 169.515 1.15425 -3.87891 0
M  V30 1697 H 168.085 1.32647 -2.83061 0
M  V30 1698 H 167.305 -0.951466 -3.82545 0
M  V30 1699 H 168.593 -0.769262 -5.02951 0
M  V30 1700 H 167.991 2.4107 -5.11763 0
M  V30 1701 H 166.548 2.42508 -6.05007 0
M  V30 1702 N 169.982 1.44106 -0.638065 0
M  V30 1703 C 171.393 1.85316 -0.226894 0
M  V30 1704 C 171.744 1.53399 1.22324 0
M  V30 1705 O 170.869 0.975463 1.93167 0
M  V30 1706 C 171.464 3.3637 -0.405013 0
M  V30 1707 C 170.023 3.76369 -0.0482902 0
M  V30 1708 C 169.17 2.67921 -0.715108 0
M  V30 1709 H 172.121 1.34474 -0.842764 0
M  V30 1710 H 172.142 3.7885 0.354 0
M  V30 1711 H 171.654 3.59569 -1.46053 0
M  V30 1712 H 169.755 3.58784 1.00522 0
M  V30 1713 H 169.868 4.76856 -0.463187 0
M  V30 1714 H 168.232 2.54259 -0.149753 0
M  V30 1715 H 169.015 2.93951 -1.77335 0
M  V30 1716 N 171.46 0.379036 1.52974 0
M  V30 1717 C 172.41 -0.477772 2.22938 0
M  V30 1718 C 173.394 -1.03792 1.22948 0
M  V30 1719 O 174.586 -0.965725 1.48333 0
M  V30 1720 C 171.715 -1.60994 3.03209 0
M  V30 1721 C 170.801 -1.06203 4.10587 0
M  V30 1722 N 171.192 -0.238214 5.05239 0
M  V30 1723 C 169.49 -1.33554 4.25534 0
M  V30 1724 C 170.191 0.0633235 5.81666 0
M  V30 1725 N 169.167 -0.537901 5.40932 0
M  V30 1726 H 172.969 0.158295 2.93473 0
M  V30 1727 H 170.483 0.187778 1.61311 0
M  V30 1728 H 172.48 -2.23607 3.5186 0
M  V30 1729 H 171.14 -2.24893 2.34207 0
M  V30 1730 H 172.151 0.123695 5.17752 0
M  V30 1731 H 168.828 -1.97632 3.6776 0
M  V30 1732 H 170.218 0.730161 6.67921 0
M  V30 1733 N 172.938 -1.57226 0.108567 0
M  V30 1734 C 174.185 -1.94833 -0.551943 0
M  V30 1735 C 174.513 -0.991204 -1.67348 0
M  V30 1736 O 173.768 -0.0131878 -1.95696 0
M  V30 1737 C 174.067 -3.38911 -1.13463 0
M  V30 1738 C 173.733 -4.50696 -0.135509 0
M  V30 1739 C 172.395 -4.80998 0.139252 0
M  V30 1740 C 174.747 -5.18333 0.545957 0
M  V30 1741 C 172.075 -5.76259 1.10194 0
M  V30 1742 C 174.427 -6.14627 1.49721 0
M  V30 1743 C 173.091 -6.43327 1.78006 0
M  V30 1744 H 172.361 -0.712944 -0.20197 0
M  V30 1745 H 175.008 -1.90582 0.18726 0
M  V30 1746 H 173.313 -3.39805 -1.95037 0
M  V30 1747 H 175.01 -3.65317 -1.65362 0
M  V30 1748 H 171.6 -4.27087 -0.359846 0
M  V30 1749 H 175.784 -4.95087 0.346842 0
M  V30 1750 H 171.04 -5.96804 1.32795 0
M  V30 1751 H 175.214 -6.66126 2.03099 0
M  V30 1752 H 172.841 -7.1695 2.52759 0
M  V30 1753 N 174.416 0.165178 -1.56732 0
M  V30 1754 C 175.693 0.908443 -1.73224 0
M  V30 1755 C 176.073 2.0013 -0.67165 0
M  V30 1756 O 175.421 2.26353 0.31253 0
M  V30 1757 C 175.631 1.46756 -3.16644 0
M  V30 1758 C 176.979 1.93809 -3.77787 0
M  V30 1759 O 178.003 1.56537 -3.1996 0
M  V30 1760 O 176.862 2.62486 -4.79336 0
M  V30 1761 H 173.956 0.428025 -0.707618 0
M  V30 1762 H 176.502 0.152526 -1.69013 0
M  V30 1763 H 175.274 0.68129 -3.85323 0
M  V30 1764 H 174.897 2.28749 -3.25207 0
M  V30 1765 N 175.894 1.51508 0.433938 0
M  V30 1766 C 176.824 1.76016 1.53429 0
M  V30 1767 C 177.805 0.610112 1.58782 0
M  V30 1768 O 178.99 0.853177 1.74455 0
M  V30 1769 C 176.12 1.88831 2.9148 0
M  V30 1770 C 175.074 3.04288 3.00987 0
M  V30 1771 C 174.4 3.0229 4.4105 0
M  V30 1772 C 175.7 4.44193 2.74754 0
M  V30 1773 H 177.394 2.68152 1.33171 0
M  V30 1774 H 174.94 1.29035 0.639214 0
M  V30 1775 H 176.893 2.04559 3.6842 0
M  V30 1776 H 175.617 0.933455 3.12976 0
M  V30 1777 H 174.276 2.8827 2.26486 0
M  V30 1778 H 173.924 2.04576 4.59519 0
M  V30 1779 H 173.624 3.79822 4.4834 0
M  V30 1780 H 175.148 3.20116 5.1996 0
M  V30 1781 H 176.562 4.60544 3.41426 0
M  V30 1782 H 174.959 5.23457 2.9345 0
M  V30 1783 H 176.029 4.53996 1.70339 0
M  V30 1784 N 177.372 -0.689602 1.41712 0
M  V30 1785 C 178.304 -1.815 1.39966 0
M  V30 1786 C 179.317 -1.59995 0.300917 0
M  V30 1787 O 180.506 -1.69387 0.563039 0
M  V30 1788 C 177.606 -3.18364 1.16179 0
M  V30 1789 C 176.779 -3.66847 2.38206 0
M  V30 1790 C 175.838 -4.82398 2.10186 0
M  V30 1791 O 174.864 -4.93706 2.83272 0
M  V30 1792 N 176.066 -5.70064 1.0958 0
M  V30 1793 H 178.831 -1.83488 2.36965 0
M  V30 1794 H 176.392 -0.872149 1.36401 0
M  V30 1795 H 178.384 -3.93301 0.953756 0
M  V30 1796 H 176.954 -3.11365 0.27756 0
M  V30 1797 H 176.174 -2.82751 2.74673 0
M  V30 1798 H 177.462 -3.95978 3.19498 0
M  V30 1799 H 176.86 -5.63565 0.491019 0
M  V30 1800 H 175.417 -6.44874 0.947656 0
M  V30 1801 N 178.85 -1.27639 -0.924453 0
M  V30 1802 C 179.798 -1.10485 -2.04685 0
M  V30 1803 C 180.792 -0.0270421 -1.69378 0
M  V30 1804 O 181.998 -0.185008 -1.79047 0
M  V30 1805 H 178.373 -0.340546 -0.670472 0
M  V30 1806 H 180.344 -2.05566 -2.16298 0
M  V30 1807 C 179.093 -0.772229 -3.39016 0
M  V30 1808 H 178.416 -1.59351 -3.66671 0
M  V30 1809 H 179.856 -0.692097 -4.18313 0
M  V30 1810 C 178.315 0.523554 -3.32807 0
M  V30 1811 O 178.845 1.55702 -3.70297 0
M  V30 1812 N 177.051 0.520363 -2.85903 0
M  V30 1813 H 176.598 -0.32107 -2.55591 0
M  V30 1814 H 176.556 1.38742 -2.82131 0
M  V30 1815 N 180.328 1.1314 -1.09713 0
M  V30 1816 C 181.744 1.36477 -0.827423 0
M  V30 1817 C 181.944 1.93654 0.556817 0
M  V30 1818 O 181 2.15791 1.31112 0
M  V30 1819 C 182.313 2.31334 -1.92106 0
M  V30 1820 C 183.861 2.44943 -1.94864 0
M  V30 1821 C 184.336 3.4311 -3.0338 0
M  V30 1822 N 185.827 3.50662 -3.02639 0
M  V30 1823 C 186.562 4.2651 -3.83246 0
M  V30 1824 N 186.058 5.05485 -4.73768 0
M  V30 1825 N 187.851 4.2184 -3.71493 0
M  V30 1826 H 180.002 0.743807 -1.9895 0
M  V30 1827 H 182.265 0.389823 -0.864143 0
M  V30 1828 H 181.971 1.96483 -2.91698 0
M  V30 1829 H 181.845 3.31381 -1.80184 0
M  V30 1830 H 184.232 2.79079 -0.959099 0
M  V30 1831 H 184.313 1.4481 -2.10864 0
M  V30 1832 H 183.957 3.09704 -4.02549 0
M  V30 1833 H 183.887 4.43055 -2.84622 0
M  V30 1834 H 186.378 2.94315 -2.37039 0
M  V30 1835 H 186.691 5.60675 -5.3185 0
M  V30 1836 H 185.036 5.04708 -4.77802 0
M  V30 1837 H 188.227 3.5922 -3.00131 0
M  V30 1838 H 188.4 4.80697 -4.3455 0
M  V30 1839 N 181.806 0.884767 1.30421 0
M  V30 1840 C 183.054 0.502112 1.95763 0
M  V30 1841 C 183.375 -0.951815 1.70192 0
M  V30 1842 O 182.645 -1.6692 1.0254 0
M  V30 1843 H 181.225 0.182694 0.724315 0
M  V30 1844 H 183.887 1.1278 1.58955 0
M  V30 1845 H 182.983 0.672188 3.04775 0
M  V30 1846 N 183.284 -1.43765 0.645699 0
M  V30 1847 C 184.53 -2.02197 0.156271 0
M  V30 1848 C 184.863 -1.50776 -1.22393 0
M  V30 1849 O 184.138 -0.697771 -1.81553 0
M  V30 1850 C 184.421 -3.59749 0.158872 0
M  V30 1851 C 184.274 -4.21419 1.57245 0
M  V30 1852 C 185.593 -4.37149 -0.50879 0
M  V30 1853 H 182.712 -0.734694 0.0582602 0
M  V30 1854 H 185.354 -1.71157 0.824951 0
M  V30 1855 H 183.504 -3.86325 -0.410525 0
M  V30 1856 H 185.176 -4.059 2.19186 0
M  V30 1857 H 183.419 -3.78356 2.122 0
M  V30 1858 H 184.09 -5.30482 1.52619 0
M  V30 1859 H 186.566 -4.16093 -0.024412 0
M  V30 1860 H 185.442 -5.4683 -0.476213 0
M  V30 1861 H 185.703 -4.12839 -1.58165 0
M  V30 1862 N 184.763 -0.387143 -1.52771 0
M  V30 1863 C 186.009 0.196025 -2.0185 0
M  V30 1864 C 186.342 1.46641 -1.27319 0
M  V30 1865 O 185.617 1.90889 -0.373032 0
M  V30 1866 C 185.9 0.466136 -3.5707 0
M  V30 1867 C 185.753 -0.819385 -4.42274 0
M  V30 1868 C 187.072 1.25768 -4.21747 0
M  V30 1869 H 184.191 0.0697708 -0.73369 0
M  V30 1870 H 186.833 -0.516286 -1.82851 0
M  V30 1871 H 184.983 1.07293 -3.7339 0
M  V30 1872 H 186.655 -1.4563 -4.37709 0
M  V30 1873 H 184.898 -1.43517 -4.09372 0
M  V30 1874 H 185.569 -0.585065 -5.48891 0
M  V30 1875 H 188.045 0.744167 -4.09391 0
M  V30 1876 H 186.921 1.41541 -5.30337 0
M  V30 1877 H 187.182 2.27228 -3.79236 0
M  V30 1878 N 186.241 1.57166 -0.116904 0
M  V30 1879 C 187.466 1.999 0.55271 0
M  V30 1880 C 187.891 0.996039 1.59564 0
M  V30 1881 O 187.249 -0.032556 1.81271 0
M  V30 1882 C 187.297 3.4152 1.15742 0
M  V30 1883 O 186.401 3.44106 2.27299 0
M  V30 1884 H 185.742 0.649447 0.138258 0
M  V30 1885 H 188.272 2.03573 -0.204759 0
M  V30 1886 H 188.282 3.79684 1.49346 0
M  V30 1887 H 186.957 4.14034 0.393493 0
M  V30 1888 H 185.534 3.17759 1.9515 0
M  V30 1889 N 187.719 -0.156864 1.56817 0
M  V30 1890 C 188.652 -1.22316 1.9265 0
M  V30 1891 C 189.63 -1.42059 0.791076 0
M  V30 1892 O 190.814 -1.56831 1.04576 0
M  V30 1893 C 187.941 -2.58375 2.18998 0
M  V30 1894 C 186.987 -2.55284 3.41661 0
M  V30 1895 S 187.82 -2.02946 4.95553 0
M  V30 1896 C 188.976 -3.40753 5.25013 0
M  V30 1897 H 189.209 -0.917403 2.82791 0
M  V30 1898 H 186.742 -0.362059 1.50095 0
M  V30 1899 H 188.7 -3.36677 2.34859 0
M  V30 1900 H 187.361 -2.86145 1.29538 0
M  V30 1901 H 186.554 -3.55418 3.57343 0
M  V30 1902 H 186.156 -1.85086 3.24991 0
M  V30 1903 H 188.448 -4.36819 5.17876 0
M  V30 1904 H 189.391 -3.29933 6.26538 0
M  V30 1905 H 189.799 -3.37433 4.52548 0
M  V30 1906 N 189.197 -1.51736 -0.425897 0
M  V30 1907 C 190.443 -1.65214 -1.1761 0
M  V30 1908 C 190.776 -0.372778 -1.90589 0
M  V30 1909 O 190.051 0.628139 -1.84078 0
M  V30 1910 C 190.334 -2.86312 -2.18398 0
M  V30 1911 C 190.187 -4.24254 -1.49426 0
M  V30 1912 C 191.506 -3.02925 -3.19256 0
M  V30 1913 H 188.625 -0.601263 -0.426206 0
M  V30 1914 H 191.267 -1.8425 -0.463882 0
M  V30 1915 H 189.417 -2.70213 -2.79137 0
M  V30 1916 H 191.089 -4.52046 -0.919362 0
M  V30 1917 H 189.332 -4.26426 -0.796432 0
M  V30 1918 H 190.003 -5.05001 -2.22885 0
M  V30 1919 H 192.479 -3.1781 -2.68581 0
M  V30 1920 H 191.355 -3.89199 -3.8706 0
M  V30 1921 H 191.616 -2.15497 -3.86023 0
M  V30 1922 N 190.675 0.682077 -1.42076 0
M  V30 1923 C 191.924 1.43786 -1.41451 0
M  V30 1924 C 192.237 1.95574 -0.0317074 0
M  V30 1925 O 193.443 2.71326 0.0971462 0
M  V30 1926 C 191.899 2.60071 -2.48779 0
M  V30 1927 C 191.507 2.15013 -3.93031 0
M  V30 1928 C 193.251 3.37626 -2.57311 0
M  V30 1929 C 191.158 3.28336 -4.91883 0
M  V30 1930 H 190.088 0.540143 -0.526082 0
M  V30 1931 H 192.739 0.739157 -1.67955 0
M  V30 1932 H 191.121 3.32275 -2.15429 0
M  V30 1933 H 192.295 1.5001 -4.35699 0
M  V30 1934 H 190.61 1.50416 -3.88284 0
M  V30 1935 H 193.207 4.22012 -3.28345 0
M  V30 1936 H 193.55 3.83727 -1.61429 0
M  V30 1937 H 194.083 2.72488 -2.89819 0
M  V30 1938 H 190.822 2.87234 -5.89217 0
M  V30 1939 H 190.342 3.92145 -4.53853 0
M  V30 1940 H 192.021 3.93913 -5.13265 0
M  V30 1941 N 192.153 1.28127 0.917671 0
M  V30 1942 C 193.083 1.14248 2.03641 0
M  V30 1943 C 194.064 0.0412748 1.7005 0
M  V30 1944 O 195.249 0.217566 1.92977 0
M  V30 1945 C 192.379 0.799431 3.37974 0
M  V30 1946 C 191.333 1.85497 3.85713 0
M  V30 1947 C 190.659 1.36565 5.16966 0
M  V30 1948 C 191.959 3.26085 4.08002 0
M  V30 1949 H 193.653 2.07835 2.15511 0
M  V30 1950 H 191.199 1.00064 1.03553 0
M  V30 1951 H 193.152 0.689114 4.15727 0
M  V30 1952 H 191.876 -0.172145 3.26146 0
M  V30 1953 H 190.535 1.95437 3.10161 0
M  V30 1954 H 190.183 0.383253 5.01538 0
M  V30 1955 H 189.883 2.07143 5.49878 0
M  V30 1956 H 191.407 1.26848 5.97279 0
M  V30 1957 H 192.821 3.19089 4.76293 0
M  V30 1958 H 191.218 3.94462 4.52238 0
M  V30 1959 H 192.288 3.70394 3.12948 0
M  V30 1960 N 193.631 -1.12557 1.10312 0
M  V30 1961 C 194.578 -2.18247 0.750781 0
M  V30 1962 C 195.548 -1.63853 -0.272293 0
M  V30 1963 O 196.733 -1.90195 -0.151862 0
M  V30 1964 C 193.873 -3.44591 0.187379 0
M  V30 1965 C 192.986 -4.13046 1.2656 0
M  V30 1966 C 192.121 -5.27034 0.663978 0
M  V30 1967 C 191.16 -5.87353 1.72287 0
M  V30 1968 N 190.297 -6.92757 1.1416 0
M  V30 1969 H 195.137 -2.47732 1.65628 0
M  V30 1970 H 192.674 -1.21629 0.827337 0
M  V30 1971 H 194.632 -4.16904 -0.157148 0
M  V30 1972 H 193.262 -3.15527 -0.681355 0
M  V30 1973 H 192.314 -3.38924 1.72727 0
M  V30 1974 H 193.626 -4.53947 2.06721 0
M  V30 1975 H 192.78 -6.06104 0.268824 0
M  V30 1976 H 191.519 -4.87407 -0.169082 0
M  V30 1977 H 190.524 -5.06971 2.12746 0
M  V30 1978 H 191.749 -6.29051 2.55875 0
M  V30 1979 H 189.695 -6.5517 0.329984 0
M  V30 1980 H 189.612 -7.3225 1.88007 0
M  V30 1981 H 190.88 -7.75658 0.772956 0
M  V30 1982 N 195.109 -0.891671 -1.2995 0
M  V30 1983 C 196.042 -0.307994 -2.26112 0
M  V30 1984 C 197.02 0.575262 -1.52084 0
M  V30 1985 O 198.204 0.523864 -1.81074 0
M  V30 1986 C 195.331 0.561734 -3.34009 0
M  V30 1987 C 194.377 -0.253107 -4.25748 0
M  V30 1988 S 195.21 -1.64572 -5.09584 0
M  V30 1989 C 196.366 -0.782699 -6.20987 0
M  V30 1990 H 196.599 -1.12309 -2.75271 0
M  V30 1991 H 194.132 -0.691509 -1.38049 0
M  V30 1992 H 196.09 1.05777 -3.96638 0
M  V30 1993 H 194.751 1.35099 -2.83561 0
M  V30 1994 H 193.944 0.410908 -5.02322 0
M  V30 1995 H 193.546 -0.682004 -3.67729 0
M  V30 1996 H 195.838 -0.00257476 -6.775 0
M  V30 1997 H 196.781 -1.52026 -6.91588 0
M  V30 1998 H 197.189 -0.340638 -5.63471 0
M  V30 1999 N 196.587 1.43421 -0.653314 0
M  V30 2000 C 197.815 2.06163 -0.174491 0
M  V30 2001 C 198.23 1.48969 1.1599 0
M  V30 2002 O 197.587 0.621042 1.71608 0
M  V30 2003 C 197.638 3.61417 -0.0774865 0
M  V30 2004 O 197.359 4.16485 -1.35912 0
M  V30 2005 C 198.86 4.41235 0.427402 0
M  V30 2006 H 196.08 0.664946 -0.0899353 0
M  V30 2007 H 198.624 1.83924 -0.893988 0
M  V30 2008 H 196.779 3.82841 0.59257 0
M  V30 2009 H 197.193 5.10153 -1.21839 0
M  V30 2010 H 198.667 5.5021 0.44423 0
M  V30 2011 H 199.144 4.14268 1.45873 0
M  V30 2012 H 199.75 4.2478 -0.210167 0
M  V30 2013 N 198.065 0.39524 1.52563 0
M  V30 2014 C 198.975 -0.444232 2.30356 0
M  V30 2015 C 199.991 -1.06615 1.37511 0
M  V30 2016 O 201.167 -1.07067 1.70583 0
M  V30 2017 C 198.232 -1.55315 3.09964 0
M  V30 2018 C 197.293 -0.955734 4.18526 0
M  V30 2019 C 196.526 -2.01181 4.9433 0
M  V30 2020 O 196.749 -3.22781 4.70285 0
M  V30 2021 O 195.683 -1.62579 5.79527 0
M  V30 2022 H 199.509 0.189667 3.03107 0
M  V30 2023 H 197.094 0.1588 1.48554 0
M  V30 2024 H 198.976 -2.19724 3.59582 0
M  V30 2025 H 197.651 -2.17191 2.4002 0
M  V30 2026 H 196.558 -0.274743 3.7309 0
M  V30 2027 H 197.891 -0.381109 4.90722 0
M  V30 2028 N 199.544 -1.57102 0.125237 0
M  V30 2029 C 200.772 -1.99761 -0.538797 0
M  V30 2030 C 201.187 -1.00503 -1.59827 0
M  V30 2031 O 200.544 0.00119474 -1.825 0
M  V30 2032 C 200.595 -3.42408 -1.15927 0
M  V30 2033 O 200.316 -4.37869 -0.142143 0
M  V30 2034 C 201.817 -4.00232 -1.90602 0
M  V30 2035 H 199.037 -0.655772 -0.14214 0
M  V30 2036 H 201.581 -2.03383 0.213413 0
M  V30 2037 H 199.736 -3.39706 -1.86223 0
M  V30 2038 H 200.15 -5.21128 -0.593775 0
M  V30 2039 H 201.624 -5.02105 -2.29335 0
M  V30 2040 H 202.101 -3.39721 -2.78363 0
M  V30 2041 H 202.707 -4.06499 -1.25055 0
M  V30 2042 N 201.022 0.148545 -1.56898 0
M  V30 2043 C 201.954 1.20852 -1.9475 0
M  V30 2044 C 202.967 1.39265 -0.843152 0
M  V30 2045 O 204.156 1.38864 -1.12156 0
M  V30 2046 C 201.256 2.57362 -2.20495 0
M  V30 2047 C 200.429 2.59947 -3.51776 0
M  V30 2048 C 199.488 3.77984 -3.6608 0
M  V30 2049 O 198.514 3.62929 -4.38487 0
M  V30 2050 N 199.716 4.95375 -3.02629 0
M  V30 2051 H 202.481 0.886804 -2.86279 0
M  V30 2052 H 200.042 0.338121 -1.5833 0
M  V30 2053 H 202.034 3.34833 -2.27307 0
M  V30 2054 H 200.604 2.81832 -1.35238 0
M  V30 2055 H 199.824 1.68403 -3.56419 0
M  V30 2056 H 201.112 2.58704 -4.38121 0
M  V30 2057 H 200.51 5.10509 -2.43715 0
M  V30 2058 H 199.067 5.70627 -3.15004 0
M  V30 2059 N 202.5 1.5196 0.417844 0
M  V30 2060 C 203.463 1.74065 1.49111 0
M  V30 2061 C 204.463 0.610537 1.48758 0
M  V30 2062 O 205.653 0.87832 1.50437 0
M  V30 2063 C 202.785 1.81502 2.88565 0
M  V30 2064 H 203.978 2.69869 1.30807 0
M  V30 2065 H 201.531 1.42244 0.647785 0
M  V30 2066 H 202.266 0.875813 3.1225 0
M  V30 2067 H 202.051 2.63651 2.90225 0
M  V30 2068 H 203.541 2.00376 3.66387 0
M  V30 2069 N 203.978 -0.674533 1.42435 0
M  V30 2070 C 205.226 -1.43175 1.42637 0
M  V30 2071 C 205.547 -1.94951 0.0438992 0
M  V30 2072 O 204.817 -1.7308 -0.917607 0
M  V30 2073 H 203.397 -0.531307 0.525092 0
M  V30 2074 H 206.059 -0.797006 1.77859 0
M  V30 2075 H 205.155 -2.28463 2.12629 0
M  V30 2076 N 205.456 -1.28612 -0.910864 0
M  V30 2077 C 206.366 -1.14643 -2.0468 0
M  V30 2078 C 207.382 -0.0723121 -1.7385 0
M  V30 2079 O 208.558 -0.282178 -1.99413 0
M  V30 2080 C 205.623 -0.812561 -3.37044 0
M  V30 2081 C 204.684 -1.96935 -3.81465 0
M  V30 2082 C 203.917 -1.65131 -5.07511 0
M  V30 2083 O 204.14 -0.567013 -5.67575 0
M  V30 2084 O 203.074 -2.49585 -5.47714 0
M  V30 2085 H 206.9 -2.1001 -2.19384 0
M  V30 2086 H 204.485 -1.07958 -1.03274 0
M  V30 2087 H 206.367 -0.640441 -4.16505 0
M  V30 2088 H 205.042 0.111426 -3.23508 0
M  V30 2089 H 203.949 -2.19664 -3.02818 0
M  V30 2090 H 205.282 -2.87414 -3.99567 0
M  V30 2091 N 206.934 1.1197 -1.10907 0
M  V30 2092 C 208.164 1.8713 -0.875553 0
M  V30 2093 C 208.572 1.8016 0.577843 0
M  V30 2094 O 207.915 1.17699 1.41042 0
M  V30 2095 C 207.977 3.37005 -1.2517 0
M  V30 2096 C 207.641 3.67748 -2.71313 0
M  V30 2097 C 208.638 3.65698 -3.69542 0
M  V30 2098 C 206.323 3.96928 -3.07821 0
M  V30 2099 C 208.317 3.92395 -5.023 0
M  V30 2100 C 206.004 4.23284 -4.40765 0
M  V30 2101 C 207.002 4.21005 -5.37814 0
M  V30 2102 O 206.69 4.46704 -6.68364 0
M  V30 2103 H 206.422 0.598786 -0.313737 0
M  V30 2104 H 208.976 1.42568 -1.47863 0
M  V30 2105 H 207.206 3.82146 -0.591741 0
M  V30 2106 H 208.895 3.93519 -0.994877 0
M  V30 2107 H 209.661 3.43211 -3.42682 0
M  V30 2108 H 205.54 3.97841 -2.32902 0
M  V30 2109 H 209.084 3.90531 -5.78041 0
M  V30 2110 H 204.981 4.45246 -4.67361 0
M  V30 2111 H 205.749 4.64299 -6.74069 0
M  V30 2112 N 208.412 0.89855 1.29475 0
M  V30 2113 C 209.342 0.39201 2.30186 0
M  V30 2114 C 210.323 -0.532359 1.61555 0
M  V30 2115 O 211.508 -0.443331 1.89072 0
M  V30 2116 C 208.638 -0.382353 3.45189 0
M  V30 2117 C 207.592 0.451483 4.25612 0
M  V30 2118 C 206.918 -0.450307 5.328 0
M  V30 2119 C 208.218 1.70079 4.93832 0
M  V30 2120 H 209.912 1.23362 2.72804 0
M  V30 2121 H 207.458 0.594638 1.31149 0
M  V30 2122 H 209.411 -0.747451 4.14718 0
M  V30 2123 H 208.135 -1.25774 3.01411 0
M  V30 2124 H 206.794 0.798897 3.57789 0
M  V30 2125 H 206.442 -1.32379 4.85268 0
M  V30 2126 H 206.142 0.103902 5.87508 0
M  V30 2127 H 207.666 -0.811623 6.05182 0
M  V30 2128 H 209.08 1.40549 5.55805 0
M  V30 2129 H 207.477 2.19623 5.58467 0
M  V30 2130 H 208.547 2.43744 4.19186 0
M  V30 2131 N 209.89 -1.43072 0.660911 0
M  V30 2132 C 210.82 -2.33497 -0.0122829 0
M  V30 2133 C 211.801 -1.49903 -0.803925 0
M  V30 2134 O 212.986 -1.78546 -0.763864 0
M  V30 2135 C 210.116 -3.33363 -0.973994 0
M  V30 2136 C 209.07 -4.27003 -0.291928 0
M  V30 2137 C 208.396 -5.16967 -1.36562 0
M  V30 2138 C 209.696 -5.15816 0.820462 0
M  V30 2139 H 211.39 -2.90038 0.742873 0
M  V30 2140 H 208.936 -1.39461 0.358688 0
M  V30 2141 H 210.889 -3.95524 -1.45392 0
M  V30 2142 H 209.613 -2.75095 -1.7604 0
M  V30 2143 H 208.272 -3.66217 0.167623 0
M  V30 2144 H 207.92 -4.55034 -2.14366 0
M  V30 2145 H 207.62 -5.80441 -0.914454 0
M  V30 2146 H 209.144 -5.82003 -1.84675 0
M  V30 2147 H 210.558 -5.71742 0.422366 0
M  V30 2148 H 208.955 -5.8805 1.19656 0
M  V30 2149 H 210.025 -4.55045 1.67518 0
M  V30 2150 N 211.368 -0.403325 -1.52352 0
M  V30 2151 C 212.615 0.174347 -2.01748 0
M  V30 2152 C 212.943 1.45636 -1.2892 0
M  V30 2153 O 212.198 1.9193 -0.382258 0
M  V30 2154 C 212.497 0.474665 -3.54234 0
M  V30 2155 C 212.163 -0.717458 -4.45155 0
M  V30 2156 C 210.825 -1.04447 -4.69728 0
M  V30 2157 C 213.177 -1.51432 -4.98716 0
M  V30 2158 C 210.505 -2.16963 -5.45109 0
M  V30 2159 C 212.857 -2.6302 -5.75329 0
M  V30 2160 C 211.521 -2.96213 -5.98175 0
M  V30 2161 H 210.791 0.0637981 -0.738248 0
M  V30 2162 H 213.438 -0.543553 -1.83624 0
M  V30 2163 H 211.743 1.27406 -3.70506 0
M  V30 2164 H 213.44 0.934496 -3.89959 0
M  V30 2165 H 210.03 -0.452596 -4.26204 0
M  V30 2166 H 214.214 -1.27491 -4.79645 0
M  V30 2167 H 209.47 -2.43034 -5.61021 0
M  V30 2168 H 213.644 -3.25158 -6.15829 0
M  V30 2169 H 211.271 -3.83516 -6.56368 0
M  V30 2170 N 212.846 1.57033 -0.133567 0
M  V30 2171 C 214.095 1.94861 0.520768 0
M  V30 2172 C 214.408 1.02012 1.66892 0
M  V30 2173 O 215.614 1.29365 2.38699 0
M  V30 2174 C 214.07 3.46362 0.977809 0
M  V30 2175 C 213.678 4.47773 -0.142674 0
M  V30 2176 C 215.422 3.93083 1.60269 0
M  V30 2177 C 213.329 5.90468 0.331883 0
M  V30 2178 H 212.259 0.727453 0.198315 0
M  V30 2179 H 214.91 1.82227 -0.215759 0
M  V30 2180 H 213.292 3.54282 1.7692 0
M  V30 2181 H 214.466 4.51536 -0.919317 0
M  V30 2182 H 212.781 4.10891 -0.675124 0
M  V30 2183 H 215.378 4.97121 1.96914 0
M  V30 2184 H 215.721 3.33876 2.48662 0
M  V30 2185 H 216.254 3.88025 0.876453 0
M  V30 2186 H 212.993 6.53463 -0.516341 0
M  V30 2187 H 212.513 5.90094 1.07469 0
M  V30 2188 H 214.192 6.42179 0.788332 0
M  V30 2189 N 214.325 -0.140222 1.56975 0
M  V30 2190 C 215.257 -1.19818 1.95388 0
M  V30 2191 C 216.27 -1.38816 0.850525 0
M  V30 2192 O 217.459 -1.38267 1.12891 0
M  V30 2193 C 214.559 -2.56189 2.21857 0
M  V30 2194 C 213.732 -2.58077 3.5315 0
M  V30 2195 C 212.791 -3.76037 3.6808 0
M  V30 2196 O 211.817 -3.60598 4.40406 0
M  V30 2197 N 213.019 -4.93763 3.05251 0
M  V30 2198 H 215.784 -0.871609 2.86746 0
M  V30 2199 H 213.345 -0.32972 1.58507 0
M  V30 2200 H 215.337 -3.33623 2.2908 0
M  V30 2201 H 213.907 -2.81111 1.36731 0
M  V30 2202 H 213.127 -1.6651 3.57307 0
M  V30 2203 H 214.415 -2.56377 4.39486 0
M  V30 2204 H 213.813 -5.09209 2.46419 0
M  V30 2205 H 212.37 -5.68949 3.18026 0
M  V30 2206 N 215.803 -1.52179 -0.40978 0
M  V30 2207 C 217.028 -1.70347 -1.18308 0
M  V30 2208 C 217.453 -0.411887 -1.83535 0
M  V30 2209 O 216.811 0.630587 -1.6998 0
M  V30 2210 C 216.859 -2.83977 -2.22238 0
M  V30 2211 O 215.963 -2.495 -3.28365 0
M  V30 2212 H 215.304 -0.567103 -0.345384 0
M  V30 2213 H 217.834 -1.98879 -0.480445 0
M  V30 2214 H 217.844 -3.0887 -2.66577 0
M  V30 2215 H 216.519 -3.77685 -1.74146 0
M  V30 2216 H 215.096 -2.35277 -2.89308 0
M  V30 2217 N 217.281 0.66697 -1.42791 0
M  V30 2218 C 218.191 1.80962 -1.49299 0
M  V30 2219 C 219.207 1.69775 -0.381108 0
M  V30 2220 O 220.383 1.91188 -0.633188 0
M  V30 2221 C 217.448 3.17156 -1.40045 0
M  V30 2222 C 216.509 3.40242 -2.6179 0
M  V30 2223 C 215.742 4.69939 -2.52969 0
M  V30 2224 O 215.965 5.48372 -1.56985 0
M  V30 2225 O 214.899 4.94441 -3.43237 0
M  V30 2226 H 218.725 1.78427 -2.45759 0
M  V30 2227 H 216.31 0.823713 -1.24641 0
M  V30 2228 H 218.192 3.98413 -1.37276 0
M  V30 2229 H 216.867 3.20312 -0.467138 0
M  V30 2230 H 215.774 2.58802 -2.70134 0
M  V30 2231 H 217.107 3.41923 -3.54047 0
M  V30 2232 N 218.759 1.29093 0.90403 0
M  V30 2233 C 219.722 1.1386 1.98919 0
M  V30 2234 C 220.722 0.0753457 1.60623 0
M  V30 2235 O 221.912 0.321931 1.71199 0
M  V30 2236 C 219.044 0.740198 3.32767 0
M  V30 2237 H 220.237 2.10246 2.13861 0
M  V30 2238 H 217.79 1.12218 1.08797 0
M  V30 2239 H 218.525 -0.223997 3.23525 0
M  V30 2240 H 218.31 1.50838 3.61926 0
M  V30 2241 H 219.8 0.656546 4.12407 0
M  V30 2242 N 220.237 -1.11381 1.11499 0
M  V30 2243 C 221.465 -1.86934 0.88675 0
M  V30 2244 C 221.88 -1.80195 -0.563476 0
M  V30 2245 O 221.237 -1.18367 -1.38908 0
M  V30 2246 C 221.288 -3.35722 1.34064 0
M  V30 2247 O 221.009 -3.4232 2.73401 0
M  V30 2248 C 222.51 -4.2818 1.14791 0
M  V30 2249 H 219.73 -0.591117 0.317523 0
M  V30 2250 H 222.274 -1.40865 1.48248 0
M  V30 2251 H 220.429 -3.79294 0.788355 0
M  V30 2252 H 220.843 -4.34971 2.93087 0
M  V30 2253 H 222.317 -5.30817 1.5145 0
M  V30 2254 H 222.794 -4.39113 0.0875279 0
M  V30 2255 H 223.4 -3.90402 1.68721 0
M  V30 2256 N 221.715 -0.905404 -1.28997 0
M  V30 2257 C 222.663 -0.377431 -2.29517 0
M  V30 2258 C 223.657 0.526461 -1.61012 0
M  V30 2259 O 224.863 0.40863 -1.753 0
M  V30 2260 H 221.238 -0.103437 -0.744852 0
M  V30 2261 H 223.209 -1.23848 -2.71485 0
M  V30 2262 C 221.958 0.374833 -3.45674 0
M  V30 2263 H 221.281 -0.311474 -3.98585 0
M  V30 2264 H 222.721 0.70903 -4.1803 0
M  V30 2265 C 221.18 1.57963 -2.97572 0
M  V30 2266 O 221.71 2.67886 -2.99333 0
M  V30 2267 N 219.916 1.42375 -2.53333 0
M  V30 2268 H 219.463 0.529466 -2.521 0
M  V30 2269 H 219.421 2.23117 -2.21509 0
M  V30 2270 N 223.193 1.4272 -0.668489 0
M  V30 2271 C 224.423 2.05668 -0.196063 0
M  V30 2272 C 224.831 1.5028 1.14946 0
M  V30 2273 O 224.174 0.6348 1.72383 0
M  V30 2274 C 224.236 3.59469 -0.0468879 0
M  V30 2275 C 223.9 4.37518 -1.32012 0
M  V30 2276 C 224.897 4.68584 -2.25222 0
M  V30 2277 C 222.582 4.77266 -1.56596 0
M  V30 2278 C 224.576 5.38326 -3.41297 0
M  V30 2279 C 222.263 5.4675 -2.72962 0
M  V30 2280 C 223.261 5.77204 -3.65137 0
M  V30 2281 O 222.949 6.45264 -4.79468 0
M  V30 2282 H 222.681 0.669382 -0.0943599 0
M  V30 2283 H 225.235 1.83954 -0.913788 0
M  V30 2284 H 223.465 3.79817 0.726357 0
M  V30 2285 H 225.154 4.04071 0.384852 0
M  V30 2286 H 225.92 4.38382 -2.07477 0
M  V30 2287 H 221.799 4.52959 -0.857249 0
M  V30 2288 H 225.343 5.62014 -4.13263 0
M  V30 2289 H 221.24 5.76369 -2.90635 0
M  V30 2290 H 222.008 6.63753 -4.78931 0
M  V30 2291 N 224.671 0.411399 1.52136 0
M  V30 2292 C 225.899 -0.163076 2.06256 0
M  V30 2293 C 226.314 -1.3867 1.28125 0
M  V30 2294 O 225.671 -1.79423 0.333721 0
M  V30 2295 C 225.722 -0.511252 3.57867 0
M  V30 2296 O 225.443 0.66378 4.33042 0
M  V30 2297 C 226.944 -1.13921 4.28412 0
M  V30 2298 H 224.164 -0.0193897 0.67072 0
M  V30 2299 H 226.708 0.583007 1.96013 0
M  V30 2300 H 224.863 -1.20723 3.6811 0
M  V30 2301 H 225.277 0.372601 5.23175 0
M  V30 2302 H 226.751 -1.33302 5.35663 0
M  V30 2303 H 227.228 -2.11296 3.85033 0
M  V30 2304 H 227.834 -0.483373 4.22544 0
M  V30 2305 N 226.149 -1.5696 0.141893 0
M  V30 2306 C 227.398 -1.95135 -0.510427 0
M  V30 2307 C 227.711 -1.02896 -1.66348 0
M  V30 2308 O 228.917 -1.30629 -2.38009 0
M  V30 2309 C 227.373 -3.46876 -0.959427 0
M  V30 2310 C 226.981 -4.47691 0.166419 0
M  V30 2311 C 228.725 -3.93927 -1.58183 0
M  V30 2312 C 226.632 -5.90636 -0.300565 0
M  V30 2313 H 225.562 -0.728494 -0.194454 0
M  V30 2314 H 228.213 -1.8211 0.22542 0
M  V30 2315 H 226.595 -3.55215 -1.75038 0
M  V30 2316 H 227.769 -4.51043 0.94325 0
M  V30 2317 H 226.084 -4.10527 0.696905 0
M  V30 2318 H 228.681 -4.98158 -1.94275 0
M  V30 2319 H 229.024 -3.3519 -2.46888 0
M  V30 2320 H 229.557 -3.88484 -0.855863 0
M  V30 2321 H 226.296 -6.5318 0.550989 0
M  V30 2322 H 225.816 -5.90655 -1.04338 0
M  V30 2323 H 227.495 -6.42588 -0.754265 0
M  V30 2324 N 227.627 0.131896 -1.57047 0
M  V30 2325 C 228.557 1.16384 -2.02428 0
M  V30 2326 C 229.538 1.43936 -0.90644 0
M  V30 2327 O 230.723 1.54599 -1.17528 0
M  V30 2328 C 227.853 2.49328 -2.4177 0
M  V30 2329 C 226.807 2.36266 -3.56879 0
M  V30 2330 C 226.133 3.74057 -3.8208 0
M  V30 2331 C 227.433 1.834 -4.89042 0
M  V30 2332 H 229.127 0.786433 -2.88887 0
M  V30 2333 H 226.673 0.376855 -1.38981 0
M  V30 2334 H 228.626 3.21759 -2.7212 0
M  V30 2335 H 227.35 2.88934 -1.52266 0
M  V30 2336 H 226.009 1.66286 -3.26718 0
M  V30 2337 H 225.657 4.11125 -2.89803 0
M  V30 2338 H 225.357 3.66174 -4.59554 0
M  V30 2339 H 226.881 4.48012 -4.1487 0
M  V30 2340 H 228.295 2.45636 -5.18011 0
M  V30 2341 H 226.692 1.8637 -5.70426 0
M  V30 2342 H 227.762 0.790662 -4.7841 0
M  V30 2343 N 229.106 1.52395 0.401703 0
M  V30 2344 C 230.353 1.66817 1.14796 0
M  V30 2345 C 230.681 0.401772 1.90305 0
M  V30 2346 O 229.936 -0.615487 1.85769 0
M  V30 2347 C 230.235 2.84578 2.16217 0
M  V30 2348 C 229.901 4.22513 1.5746 0
M  V30 2349 C 228.563 4.60029 1.41161 0
M  V30 2350 C 230.915 5.0844 1.14622 0
M  V30 2351 C 228.243 5.81144 0.80552 0
M  V30 2352 C 230.595 6.30167 0.55428 0
M  V30 2353 C 229.259 6.66426 0.378482 0
M  V30 2354 H 228.529 0.610428 0.420069 0
M  V30 2355 H 231.176 1.86512 0.434212 0
M  V30 2356 H 229.481 2.59248 2.93764 0
M  V30 2357 H 231.178 2.92933 2.73845 0
M  V30 2358 H 227.768 3.92953 1.71132 0
M  V30 2359 H 231.952 4.80034 1.26021 0
M  V30 2360 H 227.208 6.07855 0.657399 0
M  V30 2361 H 231.382 6.96071 0.213983 0
M  V30 2362 H 229.009 7.60143 -0.0932606 0
M  V30 2363 N 230.584 -0.659388 1.43143 0
M  V30 2364 C 231.812 -1.44723 1.47861 0
M  V30 2365 C 232.227 -1.88563 0.0945886 0
M  V30 2366 O 231.584 -1.59108 -0.893915 0
M  V30 2367 C 231.635 -2.68627 2.41913 0
M  V30 2368 O 231.356 -2.26623 3.74932 0
M  V30 2369 C 232.857 -3.62045 2.55809 0
M  V30 2370 H 230.077 -0.444801 0.502387 0
M  V30 2371 H 232.621 -0.808916 1.87821 0
M  V30 2372 H 230.776 -3.28613 2.05164 0
M  V30 2373 H 231.19 -3.06745 4.2545 0
M  V30 2374 H 232.664 -4.45666 3.25708 0
M  V30 2375 H 233.141 -4.08981 1.60099 0
M  V30 2376 H 233.747 -3.07944 2.93344 0
M  V30 2377 N 232.062 -1.29571 -0.897171 0
M  V30 2378 C 233.308 -1.17863 -1.65034 0
M  V30 2379 C 233.641 0.268729 -1.92332 0
M  V30 2380 O 232.916 1.19378 -1.53555 0
M  V30 2381 C 233.199 -1.995 -2.99786 0
M  V30 2382 C 233.052 -3.5239 -2.79538 0
M  V30 2383 C 234.371 -1.82335 -4.00552 0
M  V30 2384 H 231.49 -0.429528 -0.598895 0
M  V30 2385 H 234.132 -1.59072 -1.03905 0
M  V30 2386 H 232.282 -1.64485 -3.51962 0
M  V30 2387 H 233.954 -3.97401 -2.34244 0
M  V30 2388 H 232.197 -3.77187 -2.14273 0
M  V30 2389 H 232.868 -4.04787 -3.75302 0
M  V30 2390 H 235.344 -2.12924 -3.57495 0
M  V30 2391 H 234.22 -2.41801 -4.92771 0
M  V30 2392 H 234.481 -0.779209 -4.35179 0
M  V30 2393 N 233.54 1.10788 -1.12088 0
M  V30 2394 C 234.765 1.87002 -0.896949 0
M  V30 2395 C 235.19 1.79933 0.548261 0
M  V30 2396 O 234.548 1.16662 1.38779 0
M  V30 2397 C 234.596 3.3349 -1.37174 0
M  V30 2398 O 233.7 4.08745 -0.547831 0
M  V30 2399 H 233.041 0.580397 -0.322545 0
M  V30 2400 H 235.571 1.39996 -1.49206 0
M  V30 2401 H 235.581 3.84339 -1.36922 0
M  V30 2402 H 234.256 3.37951 -2.42408 0
M  V30 2403 H 232.833 3.6776 -0.617034 0
M  V30 2404 N 235.018 0.912232 1.28515 0
M  V30 2405 C 236.267 0.540504 1.94323 0
M  V30 2406 C 236.58 -0.920044 1.72611 0
M  V30 2407 O 237.786 -1.39986 2.32629 0
M  V30 2408 C 236.242 0.915803 3.48053 0
M  V30 2409 C 235.85 2.39598 3.78546 0
M  V30 2410 C 237.594 0.614588 4.20027 0
M  V30 2411 C 235.501 2.71148 5.25578 0
M  V30 2412 H 234.431 0.198418 0.727424 0
M  V30 2413 H 237.082 1.11094 1.46049 0
M  V30 2414 H 235.464 0.274168 3.9505 0
M  V30 2415 H 236.638 3.08422 3.42364 0
M  V30 2416 H 234.953 2.66749 3.1974 0
M  V30 2417 H 237.55 0.827002 5.28266 0
M  V30 2418 H 237.893 -0.447531 4.13887 0
M  V30 2419 H 238.426 1.21462 3.78803 0
M  V30 2420 H 235.165 3.76207 5.36794 0
M  V30 2421 H 234.685 2.0696 5.62963 0
M  V30 2422 H 236.364 2.58072 5.93302 0
M  V30 2423 N 236.496 -1.42363 0.676048 0
M  V30 2424 C 237.912 -1.55811 0.345718 0
M  V30 2425 C 238.112 -1.65544 -1.14879 0
M  V30 2426 O 237.168 -1.62306 -1.93424 0
M  V30 2427 C 238.481 -2.80746 1.07713 0
M  V30 2428 C 240.029 -2.9452 1.05958 0
M  V30 2429 C 240.504 -4.22318 1.77233 0
M  V30 2430 N 241.995 -4.29233 1.74108 0
M  V30 2431 C 242.73 -5.26935 2.26113 0
M  V30 2432 N 242.226 -6.30783 2.86505 0
M  V30 2433 N 244.019 -5.18741 2.1648 0
M  V30 2434 H 236.17 -1.34289 1.6456 0
M  V30 2435 H 238.433 -0.646506 0.69335 0
M  V30 2436 H 238.139 -2.79696 2.13221 0
M  V30 2437 H 238.013 -3.71676 0.64316 0
M  V30 2438 H 240.4 -2.95097 0.0128255 0
M  V30 2439 H 240.481 -2.04817 1.53244 0
M  V30 2440 H 240.125 -4.22502 2.81877 0
M  V30 2441 H 240.055 -5.10958 1.27396 0
M  V30 2442 H 242.546 -3.54814 1.30059 0
M  V30 2443 H 242.859 -7.01691 3.23805 0
M  V30 2444 H 241.204 -6.31341 2.90575 0
M  V30 2445 H 244.395 -4.36533 1.68987 0
M  V30 2446 H 244.568 -5.94721 2.57316 0
M  V30 2447 N 237.974 -0.419461 -1.51915 0
M  V30 2448 C 238.922 0.415502 -2.28859 0
M  V30 2449 C 239.916 1.03674 -1.3397 0
M  V30 2450 O 241.122 0.973757 -1.51387 0
M  V30 2451 H 237.497 0.152786 -0.736315 0
M  V30 2452 H 239.468 -0.254531 -2.97312 0
M  V30 2453 C 238.217 1.51425 -3.12995 0
M  V30 2454 H 237.54 1.04556 -3.85886 0
M  V30 2455 H 238.98 2.07208 -3.6992 0
M  V30 2456 C 237.439 2.48745 -2.27217 0
M  V30 2457 O 237.969 3.52871 -1.9195 0
M  V30 2458 N 236.175 2.19202 -1.90785 0
M  V30 2459 H 235.722 1.34556 -2.19664 0
M  V30 2460 H 235.68 2.84561 -1.33687 0
M  V30 2461 N 239.452 1.56882 -0.150215 0
M  V30 2462 C 240.68 2.00593 0.506948 0
M  V30 2463 C 241.095 1.03033 1.58208 0
M  V30 2464 O 240.452 0.0278396 1.82479 0
M  V30 2465 C 240.503 3.44209 1.10465 0
M  V30 2466 O 240.224 4.3804 0.0724636 0
M  V30 2467 C 241.725 4.03214 1.84211 0
M  V30 2468 H 238.945 0.65795 0.13169 0
M  V30 2469 H 241.489 2.03018 -0.245743 0
M  V30 2470 H 239.644 3.42625 1.80795 0
M  V30 2471 H 240.058 5.22007 0.510793 0
M  V30 2472 H 241.532 5.0569 2.21318 0
M  V30 2473 H 242.009 3.44107 2.72923 0
M  V30 2474 H 242.615 4.08437 1.18572 0
M  V30 2475 N 240.93 -0.123565 1.57115 0
M  V30 2476 C 241.86 -1.15309 2.03042 0
M  V30 2477 C 242.841 -1.43454 0.914061 0
M  V30 2478 O 244.026 -1.53973 1.18347 0
M  V30 2479 C 241.156 -2.48043 2.43089 0
M  V30 2480 C 240.11 -2.3437 3.58127 0
M  V30 2481 C 239.436 -3.72026 3.84059 0
M  V30 2482 C 240.736 -1.80804 4.90007 0
M  V30 2483 H 242.43 -0.771102 2.893 0
M  V30 2484 H 239.976 -0.369479 1.39179 0
M  V30 2485 H 241.929 -3.20311 2.73823 0
M  V30 2486 H 240.653 -2.88122 1.53796 0
M  V30 2487 H 239.312 -1.64551 3.27595 0
M  V30 2488 H 238.96 -4.09582 2.91979 0
M  V30 2489 H 238.66 -3.63732 4.6149 0
M  V30 2490 H 240.184 -4.45806 4.1724 0
M  V30 2491 H 241.598 -2.42886 5.19307 0
M  V30 2492 H 239.995 -1.83343 5.71407 0
M  V30 2493 H 241.065 -0.76528 4.78823 0
M  V30 2494 N 242.408 -1.52605 -0.393616 0
M  V30 2495 C 243.338 -1.80022 -1.48709 0
M  V30 2496 C 244.319 -0.651995 -1.57108 0
M  V30 2497 O 245.504 -0.89913 -1.72132 0
M  V30 2498 C 242.634 -1.96492 -2.86371 0
M  V30 2499 C 241.588 -3.12161 -2.92813 0
M  V30 2500 C 240.914 -3.13877 -4.3288 0
M  V30 2501 C 242.214 -4.51322 -2.6288 0
M  V30 2502 H 243.908 -2.71589 -1.26015 0
M  V30 2503 H 241.454 -1.30684 -0.604778 0
M  V30 2504 H 243.407 -2.14255 -3.62867 0
M  V30 2505 H 242.131 -1.01611 -3.10391 0
M  V30 2506 H 240.79 -2.94173 -2.18764 0
M  V30 2507 H 240.438 -2.16687 -4.53933 0
M  V30 2508 H 240.138 -3.91576 -4.38112 0
M  V30 2509 H 241.662 -3.33789 -5.1129 0
M  V30 2510 H 243.076 -4.69435 -3.29096 0
M  V30 2511 H 241.473 -5.31053 -2.79468 0
M  V30 2512 H 242.543 -4.58353 -1.58242 0
M  V30 2513 N 243.887 0.651787 -1.4349 0
M  V30 2514 C 245.117 1.43728 -1.48411 0
M  V30 2515 C 245.525 1.8893 -0.10103 0
M  V30 2516 O 244.868 1.60182 0.899307 0
M  V30 2517 C 244.93 2.70411 -2.36893 0
M  V30 2518 C 244.594 2.4714 -3.8441 0
M  V30 2519 C 245.591 2.10271 -4.75481 0
M  V30 2520 C 243.276 2.6142 -4.28912 0
M  V30 2521 C 245.27 1.87982 -6.0905 0
M  V30 2522 C 242.957 2.38746 -5.62533 0
M  V30 2523 C 243.955 2.02083 -6.5242 0
M  V30 2524 O 243.643 1.79647 -7.8357 0
M  V30 2525 H 243.375 0.447962 -0.506267 0
M  V30 2526 H 245.929 0.80624 -1.88915 0
M  V30 2527 H 244.159 3.36079 -1.91278 0
M  V30 2528 H 245.848 3.32364 -2.33 0
M  V30 2529 H 246.614 1.98814 -4.42378 0
M  V30 2530 H 242.493 2.88931 -3.59222 0
M  V30 2531 H 246.037 1.5929 -6.7917 0
M  V30 2532 H 241.934 2.49806 -5.95203 0
M  V30 2533 H 242.702 1.9406 -7.95162 0
M  V30 2534 N 245.365 1.30045 0.890287 0
M  V30 2535 C 246.593 1.21472 1.67487 0
M  V30 2536 C 247.008 -0.223241 1.87476 0
M  V30 2537 O 246.365 -1.14828 1.41847 0
M  V30 2538 C 246.416 1.93394 3.05419 0
M  V30 2539 O 246.137 3.31576 2.86337 0
M  V30 2540 C 247.638 1.91414 3.99844 0
M  V30 2541 H 244.858 0.420604 0.522813 0
M  V30 2542 H 247.402 1.7158 1.11268 0
M  V30 2543 H 245.557 1.47099 3.58386 0
M  V30 2544 H 245.971 3.67929 3.73802 0
M  V30 2545 H 247.445 2.46285 4.94012 0
M  V30 2546 H 247.922 0.891833 4.3005 0
M  V30 2547 H 248.528 2.37496 3.52811 0
M  V30 2548 N 246.843 -1.10192 1.12674 0
M  V30 2549 C 247.773 -2.18652 0.819362 0
M  V30 2550 C 248.754 -1.68698 -0.217915 0
M  V30 2551 O 249.939 -1.94041 -0.0785581 0
M  V30 2552 C 247.069 -3.46202 0.27594 0
M  V30 2553 C 246.023 -4.09444 1.24656 0
M  V30 2554 C 245.349 -5.31725 0.563258 0
M  V30 2555 C 246.649 -4.52863 2.60217 0
M  V30 2556 H 248.343 -2.44622 1.72628 0
M  V30 2557 H 245.889 -1.17571 0.831451 0
M  V30 2558 H 247.842 -4.21372 0.0486149 0
M  V30 2559 H 246.566 -3.1973 -0.666331 0
M  V30 2560 H 245.225 -3.36284 1.45974 0
M  V30 2561 H 244.873 -5.0153 -0.384235 0
M  V30 2562 H 244.573 -5.74991 1.21075 0
M  V30 2563 H 246.097 -6.09624 0.34503 0
M  V30 2564 H 247.511 -5.19294 2.42913 0
M  V30 2565 H 245.908 -5.06986 3.21068 0
M  V30 2566 H 246.978 -3.65656 3.18471 0
M  V30 2567 N 248.321 -0.919034 -1.28029 0
M  V30 2568 C 249.737 -0.617972 -1.4715 0
M  V30 2569 C 249.937 0.835242 -1.83374 0
M  V30 2570 O 248.993 1.61388 -1.94191 0
M  V30 2571 C 250.306 -1.56041 -2.57044 0
M  V30 2572 C 251.854 -1.56769 -2.7091 0
M  V30 2573 C 252.329 -2.49688 -3.83953 0
M  V30 2574 N 253.82 -2.47845 -3.91314 0
M  V30 2575 C 254.555 -3.16437 -4.78179 0
M  V30 2576 N 254.051 -3.94376 -5.69596 0
M  V30 2577 N 255.844 -3.05498 -4.71834 0
M  V30 2578 H 247.995 -1.85866 -1.02798 0
M  V30 2579 H 250.258 -0.797506 -0.512531 0
M  V30 2580 H 249.964 -2.59671 -2.372 0
M  V30 2581 H 249.838 -1.29551 -3.54255 0
M  V30 2582 H 252.225 -0.538745 -2.90141 0
M  V30 2583 H 252.306 -1.87305 -1.74214 0
M  V30 2584 H 251.95 -3.52688 -3.65477 0
M  V30 2585 H 251.88 -2.16453 -4.80058 0
M  V30 2586 H 254.371 -1.91234 -3.25941 0
M  V30 2587 H 254.684 -4.43721 -6.32718 0
M  V30 2588 H 253.029 -3.98481 -5.69419 0
M  V30 2589 H 256.22 -2.44108 -3.99411 0
M  V30 2590 H 256.393 -3.59225 -5.39316 0
M  V30 2591 N 249.799 1.42003 -0.683588 0
M  V30 2592 C 251.215 1.55625 -0.353976 0
M  V30 2593 C 251.415 1.66151 1.14 0
M  V30 2594 O 250.471 1.63329 1.92561 0
M  V30 2595 C 251.784 2.80171 -1.092 0
M  V30 2596 C 253.332 2.93954 -1.07518 0
M  V30 2597 C 253.807 4.21372 -1.79471 0
M  V30 2598 N 255.298 4.28303 -1.76381 0
M  V30 2599 C 256.033 5.25729 -2.28904 0
M  V30 2600 N 255.529 6.29254 -2.89846 0
M  V30 2601 N 257.322 5.17586 -2.19228 0
M  V30 2602 H 249.473 1.33415 -1.6527 0
M  V30 2603 H 251.736 0.64282 -0.696769 0
M  V30 2604 H 251.442 2.78561 -2.14701 0
M  V30 2605 H 251.316 3.7133 -0.662862 0
M  V30 2606 H 253.703 2.95086 -0.028475 0
M  V30 2607 H 253.784 2.04002 -1.54328 0
M  V30 2608 H 253.428 4.21001 -2.84114 0
M  V30 2609 H 253.358 5.10275 -1.30104 0
M  V30 2610 H 255.849 3.54119 -1.31939 0
M  V30 2611 H 256.162 6.99964 -3.27522 0
M  V30 2612 H 254.507 6.29791 -2.93919 0
M  V30 2613 H 257.698 4.35631 -1.71299 0
M  V30 2614 H 257.871 5.93348 -2.60466 0
M  V30 2615 N 251.277 0.427512 1.51691 0
M  V30 2616 C 252.688 -0.0378867 1.86662 0
M  V30 2617 C 253.039 -1.42819 1.34525 0
M  V30 2618 O 252.164 -2.05037 0.692014 0
M  V30 2619 C 252.759 -0.0755266 3.38716 0
M  V30 2620 C 251.318 -0.485309 3.73258 0
M  V30 2621 C 250.465 0.328399 2.75349 0
M  V30 2622 H 253.416 0.64379 1.45055 0
M  V30 2623 H 253.437 -0.887056 3.70016 0
M  V30 2624 H 252.949 0.936487 3.76632 0
M  V30 2625 H 251.05 -1.50329 3.40928 0
M  V30 2626 H 251.163 -0.21693 4.78609 0
M  V30 2627 H 249.527 -0.211905 2.53817 0
M  V30 2628 H 250.31 1.3391 3.16106 0
M  V30 2629 N 252.755 -1.56801 0.158532 0
M  V30 2630 C 253.985 -2.00568 -0.495583 0
M  V30 2631 C 254.393 -1.03774 -1.58201 0
M  V30 2632 O 253.736 -0.0285797 -1.83678 0
M  V30 2633 C 253.798 -3.40768 -1.14532 0
M  V30 2634 C 253.462 -4.56553 -0.202101 0
M  V30 2635 C 254.459 -5.16714 0.574675 0
M  V30 2636 C 252.144 -5.02197 -0.101648 0
M  V30 2637 C 254.138 -6.20939 1.43924 0
M  V30 2638 C 251.825 -6.06274 0.766508 0
M  V30 2639 C 252.823 -6.65515 1.53555 0
M  V30 2640 O 252.511 -7.67575 2.38922 0
M  V30 2641 H 252.243 -0.662893 -0.13247 0
M  V30 2642 H 254.797 -2.03829 0.253559 0
M  V30 2643 H 253.027 -3.34381 -1.94233 0
M  V30 2644 H 254.716 -3.6857 -1.70033 0
M  V30 2645 H 255.482 -4.82341 0.507167 0
M  V30 2646 H 251.361 -4.55807 -0.689994 0
M  V30 2647 H 254.905 -6.67107 2.03996 0
M  V30 2648 H 250.802 -6.40073 0.835266 0
M  V30 2649 H 251.57 -7.84844 2.32296 0
M  V30 2650 N 254.233 0.115231 -1.57178 0
M  V30 2651 C 255.48 0.822351 -1.8505 0
M  V30 2652 C 255.808 1.79701 -0.744168 0
M  V30 2653 O 255.063 1.93909 0.26414 0
M  V30 2654 C 255.362 1.60324 -3.19423 0
M  V30 2655 C 255.028 0.772536 -4.44233 0
M  V30 2656 C 253.69 0.543468 -4.78121 0
M  V30 2657 C 256.042 0.193746 -5.2084 0
M  V30 2658 C 253.37 -0.274583 -5.86057 0
M  V30 2659 C 255.722 -0.611517 -6.29637 0
M  V30 2660 C 254.386 -0.850867 -6.62055 0
M  V30 2661 H 253.656 0.30092 -0.677147 0
M  V30 2662 H 256.303 0.0845802 -1.91313 0
M  V30 2663 H 254.608 2.41203 -3.08753 0
M  V30 2664 H 256.305 2.1544 -3.38211 0
M  V30 2665 H 252.895 0.96117 -4.17683 0
M  V30 2666 H 257.079 0.357926 -4.95008 0
M  V30 2667 H 252.335 -0.469206 -6.09597 0
M  V30 2668 H 256.509 -1.06697 -6.88178 0
M  V30 2669 H 254.136 -1.48657 -7.45523 0
M  V30 2670 N 255.711 1.52812 0.385517 0
M  V30 2671 C 257.127 1.4214 0.725829 0
M  V30 2672 C 257.327 0.544589 1.94001 0
M  V30 2673 O 256.383 0.0193693 2.52493 0
M  V30 2674 C 257.696 2.85042 0.957668 0
M  V30 2675 C 259.244 2.94543 1.05892 0
M  V30 2676 C 259.719 4.38464 1.32337 0
M  V30 2677 N 261.21 4.41804 1.39151 0
M  V30 2678 C 261.945 5.5025 1.61285 0
M  V30 2679 N 261.441 6.68775 1.80866 0
M  V30 2680 N 263.234 5.37798 1.63492 0
M  V30 2681 H 255.385 2.08338 -0.413383 0
M  V30 2682 H 257.648 0.940016 -0.122775 0
M  V30 2683 H 257.354 3.51431 0.137568 0
M  V30 2684 H 257.228 3.27505 1.87137 0
M  V30 2685 H 259.615 2.28321 1.86959 0
M  V30 2686 H 259.696 2.55504 0.123057 0
M  V30 2687 H 259.34 5.05254 0.517793 0
M  V30 2688 H 259.27 4.75059 2.27214 0
M  V30 2689 H 261.761 3.56377 1.25713 0
M  V30 2690 H 262.074 7.47197 1.97271 0
M  V30 2691 H 260.419 6.71797 1.78083 0
M  V30 2692 H 263.61 4.44171 1.47749 0
M  V30 2693 H 263.783 6.22382 1.80402 0
M  V30 2694 N 257.189 -0.644168 1.43834 0
M  V30 2695 C 258.136 -1.75671 1.49694 0
M  V30 2696 C 259.106 -1.6246 0.345809 0
M  V30 2697 O 260.291 -1.82573 0.554234 0
M  V30 2698 C 257.431 -3.13867 1.43463 0
M  V30 2699 C 256.544 -3.38147 2.6885 0
M  V30 2700 C 255.679 -4.66241 2.54544 0
M  V30 2701 C 254.718 -4.83657 3.75157 0
M  V30 2702 N 253.855 -6.03016 3.59605 0
M  V30 2703 H 258.695 -1.69998 2.44754 0
M  V30 2704 H 256.232 -0.829458 1.21484 0
M  V30 2705 H 258.19 -3.9377 1.37843 0
M  V30 2706 H 256.82 -3.18588 0.519783 0
M  V30 2707 H 255.872 -2.52276 2.84712 0
M  V30 2708 H 257.184 -3.46899 3.58417 0
M  V30 2709 H 256.338 -5.54285 2.46683 0
M  V30 2710 H 255.077 -4.59826 1.62516 0
M  V30 2711 H 254.082 -3.94046 3.83416 0
M  V30 2712 H 255.307 -4.91896 4.68204 0
M  V30 2713 H 253.253 -5.97715 2.7032 0
M  V30 2714 H 253.17 -6.12766 4.42779 0
M  V30 2715 H 254.438 -6.93657 3.55613 0
M  V30 2716 N 258.668 -1.30515 -0.883378 0
M  V30 2717 C 259.601 -1.11359 -1.99184 0
M  V30 2718 C 260.579 -0.0207858 -1.62587 0
M  V30 2719 O 261.763 -0.174646 -1.87689 0
M  V30 2720 C 258.89 -0.69871 -3.31415 0
M  V30 2721 C 257.936 -1.79261 -3.86998 0
M  V30 2722 S 258.769 -3.39536 -4.14096 0
M  V30 2723 C 259.925 -2.99954 -5.49344 0
M  V30 2724 H 260.158 -2.052 -2.15128 0
M  V30 2725 H 257.691 -1.14847 -1.03196 0
M  V30 2726 H 259.649 -0.466075 -4.07846 0
M  V30 2727 H 258.31 0.220368 -3.13326 0
M  V30 2728 H 257.503 -1.45464 -4.82552 0
M  V30 2729 H 257.105 -1.97961 -3.17313 0
M  V30 2730 H 259.397 -2.48013 -6.30473 0
M  V30 2731 H 260.34 -3.9442 -5.8808 0
M  V30 2732 H 260.748 -2.37775 -5.1198 0
M  V30 2733 N 260.146 1.09593 -1.13257 0
M  V30 2734 C 261.056 2.19739 -0.821691 0
M  V30 2735 C 262.072 1.72926 0.19302 0
M  V30 2736 O 263.248 2.01385 0.0244895 0
M  V30 2737 C 260.313 3.45482 -0.290333 0
M  V30 2738 C 259.374 4.06985 -1.36607 0
M  V30 2739 C 258.607 5.26726 -0.859975 0
M  V30 2740 O 258.83 5.69594 0.303082 0
M  V30 2741 O 257.764 5.7931 -1.63351 0
M  V30 2742 H 261.59 2.48781 -1.74189 0
M  V30 2743 H 259.175 1.18496 -0.909894 0
M  V30 2744 H 261.057 4.214 0.000674022 0
M  V30 2745 H 259.732 3.18047 0.602306 0
M  V30 2746 H 258.639 3.32712 -1.71037 0
M  V30 2747 H 259.972 4.38643 -2.23279 0
M  V30 2748 N 261.624 0.925811 1.2754 0
M  V30 2749 C 262.572 0.413897 2.28888 0
M  V30 2750 C 263.566 -0.500779 1.61829 0
M  V30 2751 O 264.772 -0.38069 1.75928 0
M  V30 2752 H 261.147 0.115274 0.743112 0
M  V30 2753 H 263.118 1.28151 2.69481 0
M  V30 2754 C 261.867 -0.319792 3.46226 0
M  V30 2755 H 261.19 0.374846 3.98039 0
M  V30 2756 H 262.63 -0.642435 4.19105 0
M  V30 2757 C 261.089 -1.53209 3.00048 0
M  V30 2758 O 261.619 -2.6309 3.03557 0
M  V30 2759 N 259.825 -1.38326 2.55566 0
M  V30 2760 H 259.372 -0.489292 2.5291 0
M  V30 2761 H 259.33 -2.19564 2.25031 0
M  V30 2762 N 263.102 -1.41638 0.69111 0
M  V30 2763 C 264.034 -2.29194 -0.0161523 0
M  V30 2764 C 265.047 -1.44549 -0.748955 0
M  V30 2765 O 266.236 -1.681 -0.6004 0
M  V30 2766 C 263.336 -3.22325 -1.0469 0
M  V30 2767 C 262.509 -4.35706 -0.384621 0
M  V30 2768 C 261.568 -5.09443 -1.31737 0
M  V30 2769 O 260.594 -5.63386 -0.811451 0
M  V30 2770 N 261.796 -5.16487 -2.64993 0
M  V30 2771 H 264.561 -2.90534 0.735523 0
M  V30 2772 H 262.122 -1.52742 0.53679 0
M  V30 2773 H 264.114 -3.68522 -1.67252 0
M  V30 2774 H 262.684 -2.62323 -1.70015 0
M  V30 2775 H 261.904 -3.91948 0.420804 0
M  V30 2776 H 263.192 -5.08743 0.0760765 0
M  V30 2777 H 262.59 -4.741 -3.08619 0
M  V30 2778 H 261.147 -5.66276 -3.22761 0
M  V30 2779 N 264.58 -0.43555 -1.51462 0
M  V30 2780 C 265.857 0.191364 -1.94662 0
M  V30 2781 C 266.237 1.60254 -1.37411 0
M  V30 2782 O 265.585 2.2152 -0.560458 0
M  V30 2783 C 265.795 0.17091 -3.48581 0
M  V30 2784 C 267.143 0.377357 -4.2292 0
M  V30 2785 O 268.167 0.249104 -3.55328 0
M  V30 2786 O 267.026 0.63247 -5.42828 0
M  V30 2787 H 264.12 0.130932 -0.816569 0
M  V30 2788 H 266.666 -0.4934 -1.62369 0
M  V30 2789 H 265.438 -0.815738 -3.82703 0
M  V30 2790 H 265.061 0.898659 -3.87311 0
M  V30 2791 N 266.058 1.56714 -0.166846 0
M  V30 2792 C 267.021 2.16539 0.751232 0
M  V30 2793 C 268.021 1.11228 1.16125 0
M  V30 2794 O 269.211 1.36765 1.07894 0
M  V30 2795 C 266.343 2.74462 2.02196 0
M  V30 2796 H 267.536 2.99013 0.230499 0
M  V30 2797 H 265.089 1.56081 0.0826982 0
M  V30 2798 H 265.824 1.95709 2.58589 0
M  V30 2799 H 265.609 3.51527 1.73698 0
M  V30 2800 H 267.099 3.20489 2.67725 0
M  V30 2801 N 267.536 -0.106894 1.57237 0
M  V30 2802 C 268.466 -1.13148 2.04254 0
M  V30 2803 C 269.447 -1.42476 0.929224 0
M  V30 2804 O 270.632 -1.52709 1.19973 0
M  V30 2805 C 267.762 -2.4545 2.45706 0
M  V30 2806 C 266.716 -2.30558 3.60592 0
M  V30 2807 C 266.042 -3.67931 3.87983 0
M  V30 2808 C 267.342 -1.75597 4.91897 0
M  V30 2809 H 269.036 -0.740374 2.90101 0
M  V30 2810 H 266.582 -0.354696 1.39563 0
M  V30 2811 H 268.535 -3.17389 2.77205 0
M  V30 2812 H 267.259 -2.86475 1.56843 0
M  V30 2813 H 265.918 -1.61067 3.29322 0
M  V30 2814 H 265.566 -4.06462 2.96306 0
M  V30 2815 H 265.266 -3.58817 4.65322 0
M  V30 2816 H 266.79 -4.41356 4.21945 0
M  V30 2817 H 268.204 -2.37364 5.21854 0
M  V30 2818 H 266.601 -1.77272 5.73319 0
M  V30 2819 H 267.671 -0.714451 4.79608 0
M  V30 2820 N 269.014 -1.53014 -0.377408 0
M  V30 2821 C 270.26 -1.68872 -1.12294 0
M  V30 2822 C 270.593 -0.433224 -1.89306 0
M  V30 2823 O 269.868 0.569258 -1.85983 0
M  V30 2824 C 270.151 -2.93115 -2.09179 0
M  V30 2825 C 270.004 -4.28794 -1.35853 0
M  V30 2826 C 271.323 -3.12928 -3.09458 0
M  V30 2827 H 268.442 -0.614518 -0.406862 0
M  V30 2828 H 271.084 -1.85633 -0.40503 0
M  V30 2829 H 269.234 -2.78956 -2.70399 0
M  V30 2830 H 270.906 -4.54742 -0.775082 0
M  V30 2831 H 269.149 -4.28744 -0.660364 0
M  V30 2832 H 269.82 -5.11837 -2.06706 0
M  V30 2833 H 272.296 -3.26194 -2.58334 0
M  V30 2834 H 271.172 -4.01316 -3.74482 0
M  V30 2835 H 271.433 -2.27669 -3.78971 0
M  V30 2836 N 270.492 0.636531 -1.44174 0
M  V30 2837 C 271.732 1.40781 -1.48189 0
M  V30 2838 C 272.096 1.91688 -0.10944 0
M  V30 2839 O 273.297 2.68789 -0.0242741 0
M  V30 2840 C 271.568 2.54575 -2.50851 0
M  V30 2841 S 273.127 3.4284 -2.73873 0
M  V30 2842 H 269.945 0.480345 -0.524204 0
M  V30 2843 H 272.547 0.737416 -1.81059 0
M  V30 2844 H 271.251 2.15478 -3.49281 0
M  V30 2845 H 270.782 3.26447 -2.19536 0
M  V30 2846 H 272.797 4.51846 -2.05059 0
M  V30 2847 N 271.97 1.30982 0.876444 0
M  V30 2848 C 273.219 1.19658 1.62373 0
M  V30 2849 C 273.532 -0.245636 1.94052 0
M  V30 2850 O 274.738 -0.48049 2.67214 0
M  V30 2851 C 273.194 2.09433 2.92687 0
M  V30 2852 C 272.802 3.58613 2.68516 0
M  V30 2853 C 274.546 2.06893 3.70669 0
M  V30 2854 C 272.453 4.40416 3.94699 0
M  V30 2855 H 271.383 0.444268 0.609214 0
M  V30 2856 H 274.034 1.55791 0.969605 0
M  V30 2857 H 272.416 1.66191 3.59439 0
M  V30 2858 H 273.59 4.10058 2.10212 0
M  V30 2859 H 271.905 3.63063 2.03898 0
M  V30 2860 H 274.502 2.65258 4.64265 0
M  V30 2861 H 274.845 1.05448 4.02724 0
M  V30 2862 H 275.378 2.48301 3.10792 0
M  V30 2863 H 272.117 5.42591 3.67798 0
M  V30 2864 H 271.637 3.93731 4.52477 0
M  V30 2865 H 273.316 4.52294 4.62644 0
M  V30 2866 N 273.449 -1.08991 1.13837 0
M  V30 2867 C 274.674 -1.85551 0.926585 0
M  V30 2868 C 275.099 -1.80782 -0.519566 0
M  V30 2869 O 274.457 -1.18855 -1.36906 0
M  V30 2870 C 274.505 -3.31266 1.42462 0
M  V30 2871 O 273.609 -4.07822 0.612789 0
M  V30 2872 H 272.95 -0.575192 0.331738 0
M  V30 2873 H 275.48 -1.37604 1.51414 0
M  V30 2874 H 275.49 -3.82112 1.43019 0
M  V30 2875 H 274.165 -3.34052 2.47754 0
M  V30 2876 H 272.742 -3.66731 0.675463 0
M  V30 2877 N 274.927 -0.932562 -1.27047 0
M  V30 2878 C 275.837 -0.441219 -2.30414 0
M  V30 2879 C 276.853 0.480525 -1.67233 0
M  V30 2880 O 278.029 0.362151 -1.98117 0
M  V30 2881 C 275.094 0.293651 -3.45454 0
M  V30 2882 C 274.155 -0.663601 -4.2414 0
M  V30 2883 C 273.388 0.0362932 -5.33688 0
M  V30 2884 O 273.611 1.2548 -5.56427 0
M  V30 2885 O 272.545 -0.638015 -5.98509 0
M  V30 2886 H 276.371 -1.29962 -2.74488 0
M  V30 2887 H 273.956 -0.6981 -1.32087 0
M  V30 2888 H 275.838 0.707951 -4.15411 0
M  V30 2889 H 274.513 1.12758 -3.03426 0
M  V30 2890 H 273.42 -1.12768 -3.56699 0
M  V30 2891 H 274.753 -1.46489 -4.69896 0
M  V30 2892 N 276.405 1.4127 -0.698611 0
M  V30 2893 C 277.63 2.06024 -0.238512 0
M  V30 2894 C 278.055 1.5224 1.10475 0
M  V30 2895 O 277.413 0.650623 1.69223 0
M  V30 2896 C 277.461 3.59988 -0.209952 0
M  V30 2897 O 276.565 4.04282 0.814235 0
M  V30 2898 H 275.906 0.653829 -0.115775 0
M  V30 2899 H 278.436 1.8098 -0.954326 0
M  V30 2900 H 278.446 4.07979 -0.0418436 0
M  V30 2901 H 277.121 3.98503 -1.1903 0
M  V30 2902 H 275.698 3.6779 0.615234 0
M  V30 2903 N 277.883 0.443576 1.51229 0
M  V30 2904 C 279.129 -0.120975 2.02439 0
M  V30 2905 C 279.462 -1.41815 1.32674 0
M  V30 2906 O 278.737 -1.89373 0.443622 0
M  V30 2907 C 279.02 -0.333291 3.58554 0
M  V30 2908 C 278.873 0.982968 4.38928 0
M  V30 2909 C 280.192 -1.10028 4.26124 0
M  V30 2910 H 277.311 -0.0424923 0.735774 0
M  V30 2911 H 279.953 0.583794 1.80809 0
M  V30 2912 H 278.103 -0.933614 3.77115 0
M  V30 2913 H 279.775 1.61775 4.32003 0
M  V30 2914 H 278.018 1.58611 4.03763 0
M  V30 2915 H 278.689 0.788379 5.46341 0
M  V30 2916 H 281.165 -0.591711 4.11871 0
M  V30 2917 H 280.041 -1.21761 5.35225 0
M  V30 2918 H 280.302 -2.12996 3.87408 0
M  V30 2919 N 279.361 -1.56624 0.175154 0
M  V30 2920 C 280.772 -1.83561 -0.340916 0
M  V30 2921 C 281.123 -1.09511 -1.62794 0
M  V30 2922 O 280.248 -0.349389 -2.13561 0
M  V30 2923 C 280.843 -3.32979 -0.625313 0
M  V30 2924 C 279.402 -3.60399 -1.08581 0
M  V30 2925 C 278.549 -2.77024 -0.123722 0
M  V30 2926 H 281.5 -1.53593 0.399344 0
M  V30 2927 H 281.521 -3.50666 -1.47694 0
M  V30 2928 H 281.033 -3.86847 0.311575 0
M  V30 2929 H 279.134 -3.11945 -2.03767 0
M  V30 2930 H 279.247 -4.68711 -0.992317 0
M  V30 2931 H 277.611 -2.46993 -0.621821 0
M  V30 2932 H 278.394 -3.33674 0.807256 0
M  V30 2933 N 280.839 0.0985539 -1.57292 0
M  V30 2934 C 281.749 1.13824 -2.05137 0
M  V30 2935 C 282.765 1.44076 -0.975604 0
M  V30 2936 O 283.941 1.54786 -1.28853 0
M  V30 2937 C 281.006 2.43969 -2.46333 0
M  V30 2938 C 280.067 2.2093 -3.68087 0
M  V30 2939 C 279.3 3.44869 -4.0731 0
M  V30 2940 O 279.523 4.52972 -3.46659 0
M  V30 2941 O 278.457 3.34661 -5.00285 0
M  V30 2942 H 282.283 0.761881 -2.93988 0
M  V30 2943 H 279.868 0.310818 -1.46131 0
M  V30 2944 H 281.75 3.20609 -2.73473 0
M  V30 2945 H 280.425 2.81038 -1.60621 0
M  V30 2946 H 279.332 1.42081 -3.46069 0
M  V30 2947 H 280.665 1.88755 -4.54568 0
M  V30 2948 N 282.317 1.53212 0.369288 0
M  V30 2949 C 283.728 1.60943 0.946276 0
M  V30 2950 C 284.079 0.47452 1.90375 0
M  V30 2951 O 283.204 -0.399597 2.12679 0
M  V30 2952 C 283.799 2.91715 1.72302 0
M  V30 2953 C 282.358 3.01792 2.24941 0
M  V30 2954 C 281.505 2.56211 1.06072 0
M  V30 2955 H 284.456 1.58007 0.148198 0
M  V30 2956 H 284.477 2.79309 2.58393 0
M  V30 2957 H 283.989 3.74295 1.0259 0
M  V30 2958 H 282.09 2.23791 2.97906 0
M  V30 2959 H 282.203 4.06803 2.53077 0
M  V30 2960 H 280.567 2.10998 1.4266 0
M  V30 2961 H 281.35 3.41206 0.378639 0
M  V30 2962 N 283.795 -0.628877 1.44509 0
M  V30 2963 C 285.044 -1.38437 1.4669 0
M  V30 2964 C 285.357 -1.95322 0.104272 0
M  V30 2965 O 286.563 -2.715 0.00362163 0
M  V30 2966 C 285.019 -2.50659 2.5826 0
M  V30 2967 C 284.627 -2.00277 4.0074 0
M  V30 2968 C 286.371 -3.27844 2.69664 0
M  V30 2969 C 284.278 -3.09854 5.0373 0
M  V30 2970 H 283.208 -0.520245 0.545766 0
M  V30 2971 H 285.859 -0.676313 1.70582 0
M  V30 2972 H 284.241 -3.2405 2.27612 0
M  V30 2973 H 285.415 -1.33736 4.40966 0
M  V30 2974 H 283.73 -1.35901 3.93599 0
M  V30 2975 H 286.327 -4.09534 3.43781 0
M  V30 2976 H 286.67 -3.77471 1.75559 0
M  V30 2977 H 287.203 -2.61543 2.99733 0
M  V30 2978 H 283.942 -2.65168 5.99472 0
M  V30 2979 H 283.462 -3.7503 4.68095 0
M  V30 2980 H 285.141 -3.74592 5.27532 0
M  V30 2981 N 285.273 -1.31445 -0.869486 0
M  V30 2982 C 286.519 -1.21337 -1.62496 0
M  V30 2983 C 286.852 0.227872 -1.92858 0
M  V30 2984 O 286.127 1.16094 -1.56053 0
M  V30 2985 C 286.41 -2.05814 -2.95487 0
M  V30 2986 C 286.263 -3.5824 -2.72 0
M  V30 2987 C 287.582 -1.9079 -3.96594 0
M  V30 2988 H 284.701 -0.442135 -0.589649 0
M  V30 2989 H 287.343 -1.6124 -1.00507 0
M  V30 2990 H 285.493 -1.71913 -3.48394 0
M  V30 2991 H 287.165 -4.0228 -2.25762 0
M  V30 2992 H 285.408 -3.81647 -2.06224 0
M  V30 2993 H 286.079 -4.12657 -3.66631 0
M  V30 2994 H 288.555 -2.20459 -3.52898 0
M  V30 2995 H 287.431 -2.52199 -4.87531 0
M  V30 2996 H 287.692 -0.871341 -4.33428 0
M  V30 2997 N 286.751 1.08385 -1.14413 0
M  V30 2998 C 287.661 2.18856 -0.844951 0
M  V30 2999 C 288.677 1.73121 0.174668 0
M  V30 3000 O 289.853 2.014 0.00312857 0
M  V30 3001 C 286.918 3.45155 -0.32696 0
M  V30 3002 C 285.979 4.05513 -1.40916 0
M  V30 3003 C 285.212 5.25784 -0.915793 0
M  V30 3004 O 285.435 5.69884 0.242651 0
M  V30 3005 O 284.369 5.77545 -1.69487 0
M  V30 3006 H 288.195 2.46919 -1.76818 0
M  V30 3007 H 285.78 1.17524 -0.922411 0
M  V30 3008 H 287.662 4.21377 -0.0440211 0
M  V30 3009 H 286.337 3.18668 0.568539 0
M  V30 3010 H 285.244 3.30879 -1.74556 0
M  V30 3011 H 286.577 4.3625 -2.27919 0
M  V30 3012 N 288.23 0.939286 1.26551 0
M  V30 3013 C 289.476 0.596234 1.94465 0
M  V30 3014 C 289.831 -0.855013 1.72358 0
M  V30 3015 O 289.124 -1.6034 1.04889 0
M  V30 3016 C 289.318 0.872106 3.46596 0
M  V30 3017 C 289.147 2.34862 3.83497 0
M  V30 3018 C 287.917 3.00344 4.06352 0
M  V30 3019 C 290.115 3.32697 3.92195 0
M  V30 3020 N 288.097 4.38027 4.30123 0
M  V30 3021 C 289.468 4.55631 4.20476 0
M  V30 3022 C 291.523 3.27747 3.74815 0
M  V30 3023 C 290.226 5.74233 4.33185 0
M  V30 3024 C 292.252 4.45672 3.88755 0
M  V30 3025 C 291.614 5.67388 4.17433 0
M  V30 3026 H 287.713 0.268515 0.734455 0
M  V30 3027 H 290.297 1.2083 1.5267 0
M  V30 3028 H 288.468 0.289102 3.87323 0
M  V30 3029 H 290.2 0.490513 4.01716 0
M  V30 3030 H 286.955 2.50969 4.01636 0
M  V30 3031 H 287.379 5.09288 4.46044 0
M  V30 3032 H 292.021 2.34703 3.51673 0
M  V30 3033 H 289.739 6.67731 4.55149 0
M  V30 3034 H 293.325 4.43372 3.76713 0
M  V30 3035 H 292.205 6.57115 4.27983 0
M  V30 3036 N 289.708 -1.40897 0.706093 0
M  V30 3037 C 290.954 -2.01352 0.241889 0
M  V30 3038 C 291.287 -1.55832 -1.15888 0
M  V30 3039 O 290.562 -0.774145 -1.7843 0
M  V30 3040 C 290.845 -3.58752 0.311311 0
M  V30 3041 C 290.698 -4.1437 1.74978 0
M  V30 3042 C 292.017 -4.38914 -0.322922 0
M  V30 3043 H 289.136 -0.731562 0.0893687 0
M  V30 3044 H 291.778 -1.67504 0.896802 0
M  V30 3045 H 289.928 -3.87718 -0.246302 0
M  V30 3046 H 291.6 -3.96239 2.36205 0
M  V30 3047 H 289.843 -3.69016 2.28057 0
M  V30 3048 H 290.514 -5.23532 1.74981 0
M  V30 3049 H 292.99 -4.15822 0.152089 0
M  V30 3050 H 291.866 -5.48358 -0.243855 0
M  V30 3051 H 292.127 -4.19176 -1.40513 0
M  V30 3052 N 291.186 -0.45159 -1.50991 0
M  V30 3053 C 292.116 0.342898 -2.30969 0
M  V30 3054 C 293.097 1.00815 -1.37005 0
M  V30 3055 O 294.282 1.00907 -1.65926 0
M  V30 3056 C 291.412 1.43637 -3.16205 0
M  V30 3057 C 290.366 0.893818 -4.18563 0
M  V30 3058 C 289.692 2.08411 -4.92411 0
M  V30 3059 C 290.992 -0.0815568 -5.22236 0
M  V30 3060 H 292.686 -0.324556 -2.97636 0
M  V30 3061 H 290.232 -0.157531 -1.43136 0
M  V30 3062 H 292.185 1.9995 -3.70942 0
M  V30 3063 H 290.909 2.13232 -2.47386 0
M  V30 3064 H 289.568 0.352798 -3.64898 0
M  V30 3065 H 289.216 2.76658 -4.20082 0
M  V30 3066 H 288.916 1.72741 -5.61636 0
M  V30 3067 H 290.44 2.65251 -5.49976 0
M  V30 3068 H 291.854 0.391742 -5.7196 0
M  V30 3069 H 290.251 -0.351551 -5.99069 0
M  V30 3070 H 291.321 -1.01374 -4.74185 0
M  V30 3071 N 292.664 1.56529 -0.183458 0
M  V30 3072 C 293.904 1.99141 0.460667 0
M  V30 3073 C 294.268 1.06736 1.59597 0
M  V30 3074 O 295.469 1.38538 2.30349 0
M  V30 3075 C 293.74 3.45358 0.919939 0
M  V30 3076 S 295.299 4.09999 1.56354 0
M  V30 3077 H 292.117 0.695479 0.147748 0
M  V30 3078 H 294.719 1.93429 -0.283782 0
M  V30 3079 H 293.423 4.10315 0.0834208 0
M  V30 3080 H 292.954 3.54862 1.69814 0
M  V30 3081 H 294.969 4.06046 2.85203 0
M  V30 3082 N 294.142 -0.090211 1.57342 0
M  V30 3083 C 295.419 -0.824761 1.77361 0
M  V30 3084 C 295.799 -1.96698 0.76637 0
M  V30 3085 O 295.147 -2.27586 -0.204179 0
M  V30 3086 C 295.357 -1.31481 3.23286 0
M  V30 3087 C 296.705 -1.75563 3.86604 0
M  V30 3088 O 297.729 -1.41093 3.27065 0
M  V30 3089 O 296.588 -2.39317 4.91314 0
M  V30 3090 H 293.682 -0.393776 0.727234 0
M  V30 3091 H 296.228 -0.0717138 1.69548 0
M  V30 3092 H 295 -0.496671 3.88135 0
M  V30 3093 H 294.623 -2.12973 3.35751 0
M  V30 3094 N 295.62 -1.53406 -0.361157 0
M  V30 3095 C 296.845 -1.74024 -1.12829 0
M  V30 3096 C 297.27 -0.470069 -1.82132 0
M  V30 3097 O 296.628 0.57619 -1.719 0
M  V30 3098 C 296.676 -2.90903 -2.13091 0
M  V30 3099 O 295.78 -2.59821 -3.20261 0
M  V30 3100 H 295.121 -0.577804 -0.327168 0
M  V30 3101 H 297.651 -2.00307 -0.41693 0
M  V30 3102 H 297.661 -3.17194 -2.56616 0
M  V30 3103 H 296.336 -3.83034 -1.62042 0
M  V30 3104 H 294.913 -2.44362 -2.81677 0
M  V30 3105 N 297.098 0.621204 -1.44841 0
M  V30 3106 C 298.03 1.74615 -1.48466 0
M  V30 3107 C 299.043 1.58377 -0.37691 0
M  V30 3108 O 300.232 1.66508 -0.643215 0
M  V30 3109 C 297.332 3.12459 -1.31236 0
M  V30 3110 C 296.505 3.55064 -2.55438 0
M  V30 3111 C 295.564 4.71821 -2.32963 0
M  V30 3112 O 294.59 4.79628 -3.06505 0
M  V30 3113 N 295.792 5.64186 -1.36654 0
M  V30 3114 H 298.557 1.71973 -2.45449 0
M  V30 3115 H 296.118 0.806077 -1.40407 0
M  V30 3116 H 298.11 3.88302 -1.14032 0
M  V30 3117 H 296.68 3.09686 -0.4258 0
M  V30 3118 H 295.9 2.69324 -2.87851 0
M  V30 3119 H 297.188 3.80284 -3.38026 0
M  V30 3120 H 296.586 5.6058 -0.759344 0
M  V30 3121 H 295.143 6.39618 -1.25425 0
M  V30 3122 N 298.576 1.31904 0.862503 0
M  V30 3123 C 299.824 1.21776 1.61292 0
M  V30 3124 C 300.145 -0.222413 1.93727 0
M  V30 3125 O 299.415 -1.1451 1.58947 0
M  V30 3126 H 297.995 0.447717 0.597962 0
M  V30 3127 H 300.657 1.65326 1.03215 0
M  V30 3128 H 299.753 1.7948 2.5533 0
M  V30 3129 N 300.054 -1.07777 1.14986 0
M  V30 3130 C 300.964 -2.18404 0.856546 0
M  V30 3131 C 301.98 -1.73211 -0.165485 0
M  V30 3132 O 303.156 -2.01399 0.00755219 0
M  V30 3133 C 300.221 -3.44977 0.34526 0
M  V30 3134 C 299.282 -4.0476 1.43065 0
M  V30 3135 C 298.515 -5.25291 0.943663 0
M  V30 3136 O 298.738 -5.70004 -0.212426 0
M  V30 3137 O 297.672 -5.76638 1.72547 0
M  V30 3138 H 301.498 -2.45978 1.78125 0
M  V30 3139 H 299.083 -1.17033 0.928631 0
M  V30 3140 H 300.965 -4.21348 0.0663671 0
M  V30 3141 H 299.64 -3.18965 -0.551631 0
M  V30 3142 H 298.547 -3.29949 1.76309 0
M  V30 3143 H 299.88 -4.35035 2.30229 0
M  V30 3144 N 301.532 -0.945985 -1.26051 0
M  V30 3145 C 302.757 -0.612525 -1.98149 0
M  V30 3146 C 303.182 0.806623 -1.69927 0
M  V30 3147 O 302.54 1.54411 -0.950108 0
M  V30 3148 C 302.588 -0.866981 -3.50023 0
M  V30 3149 O 301.692 0.0585333 -4.12358 0
M  V30 3150 H 301.033 -0.23379 -0.621481 0
M  V30 3151 H 303.563 -1.27023 -1.60395 0
M  V30 3152 H 303.573 -0.789792 -4.00283 0
M  V30 3153 H 302.248 -1.90135 -3.69894 0
M  V30 3154 H 300.825 -0.0701241 -3.72834 0
M  V30 3155 N 303.011 1.40521 -0.713556 0
M  V30 3156 C 304.251 2.02783 -0.256584 0
M  V30 3157 C 304.615 1.55352 1.12827 0
M  V30 3158 O 305.816 2.09663 1.68211 0
M  V30 3159 C 304.087 3.5586 -0.331414 0
M  V30 3160 S 305.646 4.38773 0.0488703 0
M  V30 3161 H 302.464 0.703655 -0.101934 0
M  V30 3162 H 305.066 1.71674 -0.935325 0
M  V30 3163 H 303.77 3.87874 -1.34098 0
M  V30 3164 H 303.301 3.91695 0.365873 0
M  V30 3165 H 305.316 4.79633 1.2715 0
M  V30 3166 N 304.489 0.459591 1.5075 0
M  V30 3167 C 305.436 -0.340524 2.28274 0
M  V30 3168 C 306.406 -0.997371 1.32822 0
M  V30 3169 O 307.591 -1.01202 1.61749 0
M  V30 3170 C 304.731 -1.42317 3.14388 0
M  V30 3171 C 303.844 -0.782251 4.24859 0
M  V30 3172 C 302.979 -1.84182 4.98247 0
M  V30 3173 C 302.018 -1.18053 6.00608 0
M  V30 3174 N 301.155 -2.18244 6.67319 0
M  V30 3175 H 305.995 0.326899 2.96202 0
M  V30 3176 H 303.532 0.173057 1.46078 0
M  V30 3177 H 305.49 -2.06241 3.62658 0
M  V30 3178 H 304.12 -2.05992 2.4853 0
M  V30 3179 H 303.172 -0.0307404 3.80388 0
M  V30 3180 H 304.484 -0.259663 4.98124 0
M  V30 3181 H 303.638 -2.55714 5.50177 0
M  V30 3182 H 302.377 -2.39819 4.24662 0
M  V30 3183 H 301.382 -0.450776 5.47949 0
M  V30 3184 H 302.607 -0.631202 6.7616 0
M  V30 3185 H 300.553 -2.72919 5.96533 0
M  V30 3186 H 300.47 -1.70938 7.36421 0
M  V30 3187 H 301.738 -2.89191 7.23871 0
M  V30 3188 N 305.967 -1.56429 0.191757 0
M  V30 3189 C 306.877 -2.22541 -0.742481 0
M  V30 3190 C 307.893 -1.22342 -1.23727 0
M  V30 3191 O 309.069 -1.55069 -1.28513 0
M  V30 3192 C 306.134 -2.8692 -1.94623 0
M  V30 3193 C 305.195 -4.02378 -1.49633 0
M  V30 3194 C 304.428 -4.63678 -2.6427 0
M  V30 3195 O 304.651 -4.23895 -3.81666 0
M  V30 3196 O 303.585 -5.53202 -2.37174 0
M  V30 3197 H 307.411 -3.02977 -0.209462 0
M  V30 3198 H 304.996 -1.49353 -0.0373832 0
M  V30 3199 H 306.878 -3.27663 -2.64982 0
M  V30 3200 H 305.553 -2.09466 -2.46791 0
M  V30 3201 H 304.46 -3.66265 -0.761636 0
M  V30 3202 H 305.793 -4.81487 -1.02134 0
M  V30 3203 N 307.445 0.0818655 -1.57387 0
M  V30 3204 C 308.355 1.11642 -2.06333 0
M  V30 3205 C 309.371 1.43033 -0.99083 0
M  V30 3206 O 310.547 1.53411 -1.30488 0
M  V30 3207 C 307.612 2.41342 -2.48907 0
M  V30 3208 C 306.673 2.17014 -3.7041 0
M  V30 3209 C 305.906 3.4053 -4.10944 0
M  V30 3210 O 306.129 4.4927 -3.51444 0
M  V30 3211 O 305.063 3.29336 -5.03807 0
M  V30 3212 H 308.889 0.730657 -2.9478 0
M  V30 3213 H 306.474 0.295301 -1.46452 0
M  V30 3214 H 308.356 3.17691 -2.76858 0
M  V30 3215 H 307.031 2.79319 -1.63593 0
M  V30 3216 H 305.938 1.38403 -3.47556 0
M  V30 3217 H 307.271 1.83923 -4.56545 0
M  V30 3218 N 308.923 1.53595 0.353017 0
M  V30 3219 C 310.148 1.7462 1.11904 0
M  V30 3220 C 310.573 0.479721 1.8188 0
M  V30 3221 O 309.931 -0.567066 1.72204 0
M  V30 3222 C 309.979 2.92029 2.11545 0
M  V30 3223 O 309.083 2.61516 3.18878 0
M  V30 3224 H 308.424 0.579531 0.324099 0
M  V30 3225 H 310.954 2.00525 0.406301 0
M  V30 3226 H 310.964 3.18551 2.5493 0
M  V30 3227 H 309.639 3.83888 1.60008 0
M  V30 3228 H 308.216 2.45852 2.80377 0
M  V30 3229 N 310.401 -0.613514 1.45168 0
M  V30 3230 C 311.812 -1.19539 1.43413 0
M  V30 3231 C 312.163 -1.95558 0.158632 0
M  V30 3232 O 311.288 -2.0335 -0.740119 0
M  V30 3233 C 311.883 -2.17445 2.59813 0
M  V30 3234 C 310.442 -2.71022 2.61197 0
M  V30 3235 C 309.589 -1.46323 2.35552 0
M  V30 3236 H 312.54 -0.403163 1.53494 0
M  V30 3237 H 312.561 -3.00373 2.33574 0
M  V30 3238 H 312.073 -1.62089 3.52631 0
M  V30 3239 H 310.174 -3.30332 1.7237 0
M  V30 3240 H 310.287 -3.15859 3.60236 0
M  V30 3241 H 308.651 -1.75072 1.84992 0
M  V30 3242 H 309.434 -0.92844 3.30507 0
M  V30 3243 N 311.879 -1.3236 -0.855495 0
M  V30 3244 C 312.842 -1.21164 -1.94556 0
M  V30 3245 C 313.842 -0.134908 -1.60233 0
M  V30 3246 O 315.032 -0.385249 -1.69887 0
M  V30 3247 C 312.164 -0.863192 -3.29791 0
M  V30 3248 H 313.357 -2.18038 -2.05911 0
M  V30 3249 H 310.91 -1.16179 -1.04557 0
M  V30 3250 H 311.645 0.103769 -3.24134 0
M  V30 3251 H 311.43 -1.64166 -3.56078 0
M  V30 3252 H 312.92 -0.809156 -4.09686 0
M  V30 3253 N 313.357 1.07166 -1.15556 0
M  V30 3254 C 314.603 1.80065 -0.932984 0
M  V30 3255 C 314.936 1.86586 0.53845 0
M  V30 3256 O 314.211 1.35098 1.39924 0
M  V30 3257 C 314.494 3.25022 -1.55025 0
M  V30 3258 C 314.347 3.26634 -3.09242 0
M  V30 3259 C 315.666 4.22341 -1.2376 0
M  V30 3260 H 312.785 0.653697 -0.340366 0
M  V30 3261 H 315.427 1.25389 -1.4275 0
M  V30 3262 H 313.577 3.71712 -1.12972 0
M  V30 3263 H 315.249 2.88173 -3.60214 0
M  V30 3264 H 313.492 2.65539 -3.43033 0
M  V30 3265 H 314.163 4.28854 -3.47546 0
M  V30 3266 H 316.639 3.8405 -1.60139 0
M  V30 3267 H 315.515 5.22053 -1.69564 0
M  V30 3268 H 315.776 4.41828 -0.154938 0
M  V30 3269 N 314.835 0.952656 1.25548 0
M  V30 3270 C 316.081 0.607272 1.93494 0
M  V30 3271 C 316.414 -0.853245 1.74452 0
M  V30 3272 O 315.689 -1.61194 1.08843 0
M  V30 3273 C 315.972 0.96435 3.46947 0
M  V30 3274 C 315.825 2.48045 3.75225 0
M  V30 3275 C 317.144 0.487987 4.37386 0
M  V30 3276 H 314.263 0.222096 0.702739 0
M  V30 3277 H 316.905 1.18895 1.48203 0
M  V30 3278 H 315.055 0.469361 3.85654 0
M  V30 3279 H 316.727 3.04905 3.46166 0
M  V30 3280 H 314.97 2.919 3.209 0
M  V30 3281 H 315.641 2.6808 4.82532 0
M  V30 3282 H 318.117 0.912558 4.0597 0
M  V30 3283 H 316.993 0.766547 5.43521 0
M  V30 3284 H 317.254 -0.612063 4.37843 0
M  V30 3285 N 316.313 -1.40141 0.720998 0
M  V30 3286 C 317.26 -2.30688 0.071919 0
M  V30 3287 C 318.23 -1.48476 -0.744584 0
M  V30 3288 O 319.415 -1.77201 -0.707423 0
M  V30 3289 C 316.555 -3.34724 -0.839855 0
M  V30 3290 C 315.668 -4.31998 -0.0122438 0
M  V30 3291 C 314.803 -5.23102 -0.923995 0
M  V30 3292 C 313.842 -6.12033 -0.0907969 0
M  V30 3293 N 312.979 -6.95537 -0.957718 0
M  V30 3294 H 317.819 -2.85628 0.849755 0
M  V30 3295 H 315.356 -1.40653 0.430726 0
M  V30 3296 H 317.314 -3.93618 -1.38279 0
M  V30 3297 H 315.944 -2.81274 -1.58381 0
M  V30 3298 H 314.996 -3.74841 0.64794 0
M  V30 3299 H 316.308 -4.94772 0.632595 0
M  V30 3300 H 315.462 -5.86953 -1.53527 0
M  V30 3301 H 314.201 -4.60615 -1.60264 0
M  V30 3302 H 313.206 -5.47207 0.533377 0
M  V30 3303 H 314.431 -6.76581 0.584428 0
M  V30 3304 H 312.377 -6.35633 -1.62192 0
M  V30 3305 H 312.294 -7.55099 -0.36904 0
M  V30 3306 H 313.562 -7.63832 -1.555 0
M  V30 3307 N 317.792 -0.46758 -1.50504 0
M  V30 3308 C 318.739 0.328413 -2.28452 0
M  V30 3309 C 319.709 0.990313 -1.33349 0
M  V30 3310 O 320.894 1.00343 -1.62284 0
M  V30 3311 C 318.034 1.40648 -3.15138 0
M  V30 3312 C 317.147 0.759709 -4.25267 0
M  V30 3313 C 316.282 1.81537 -4.99217 0
M  V30 3314 C 315.321 1.14866 -6.01226 0
M  V30 3315 N 314.458 2.14702 -6.68467 0
M  V30 3316 H 319.298 -0.342603 -2.96024 0
M  V30 3317 H 316.835 -0.180801 -1.45985 0
M  V30 3318 H 318.793 2.04315 -3.63746 0
M  V30 3319 H 317.423 2.04671 -2.49619 0
M  V30 3320 H 316.475 0.0105671 -3.80399 0
M  V30 3321 H 317.787 0.233243 -4.98254 0
M  V30 3322 H 316.941 2.52793 -5.51526 0
M  V30 3323 H 315.68 2.37564 -4.25928 0
M  V30 3324 H 314.685 0.42171 -5.4818 0
M  V30 3325 H 315.91 0.595334 -6.76485 0
M  V30 3326 H 313.856 2.69752 -5.97972 0
M  V30 3327 H 313.773 1.6703 -7.37317 0
M  V30 3328 H 315.041 2.85348 -7.25394 0
M  V30 3329 N 319.27 1.56325 -0.20005 0
M  V30 3330 C 320.18 2.22931 0.730668 0
M  V30 3331 C 321.196 1.22997 1.23076 0
M  V30 3332 O 322.372 1.55748 1.27689 0
M  V30 3333 C 319.437 2.87948 1.93098 0
M  V30 3334 C 318.498 4.03166 1.47497 0
M  V30 3335 C 317.731 4.65073 2.61807 0
M  V30 3336 O 317.954 4.25913 3.79413 0
M  V30 3337 O 316.888 5.54452 2.34237 0
M  V30 3338 H 320.714 3.03084 0.193391 0
M  V30 3339 H 318.299 1.49371 0.0294621 0
M  V30 3340 H 320.181 3.29063 2.6324 0
M  V30 3341 H 318.856 2.10771 2.45677 0
M  V30 3342 H 317.763 3.66664 0.742201 0
M  V30 3343 H 319.096 4.82022 0.995796 0
M  V30 3344 N 320.748 -0.0735177 1.57428 0
M  V30 3345 C 321.658 -1.10547 2.06922 0
M  V30 3346 C 322.674 -1.42506 0.998402 0
M  V30 3347 O 323.85 -1.52717 1.31299 0
M  V30 3348 C 320.915 -2.40019 2.50184 0
M  V30 3349 C 319.976 -2.15046 3.71556 0
M  V30 3350 C 319.209 -3.38345 4.12745 0
M  V30 3351 O 319.432 -4.47399 3.53822 0
M  V30 3352 O 318.366 -3.2666 5.05546 0
M  V30 3353 H 322.192 -0.715013 2.95163 0
M  V30 3354 H 319.777 -0.287531 1.46607 0
M  V30 3355 H 321.659 -3.16218 2.78539 0
M  V30 3356 H 320.334 -2.78447 1.65072 0
M  V30 3357 H 319.241 -1.36558 3.48285 0
M  V30 3358 H 320.574 -1.81499 4.57514 0
M  V30 3359 N 322.226 -1.5378 -0.344866 0
M  V30 3360 C 323.173 -1.81676 -1.42346 0
M  V30 3361 C 324.143 -0.662376 -1.52321 0
M  V30 3362 O 325.328 -0.906675 -1.67881 0
M  V30 3363 C 322.468 -2.03087 -2.79015 0
M  V30 3364 C 321.581 -3.30799 -2.77842 0
M  V30 3365 C 320.716 -3.42285 -4.0622 0
M  V30 3366 C 319.755 -4.6395 -3.9927 0
M  V30 3367 N 318.892 -4.72477 -5.19336 0
M  V30 3368 H 323.732 -2.73703 -1.17858 0
M  V30 3369 H 321.269 -1.35568 -0.570949 0
M  V30 3370 H 323.227 -2.1349 -3.58438 0
M  V30 3371 H 321.857 -1.14375 -3.01858 0
M  V30 3372 H 320.909 -3.29244 -1.90533 0
M  V30 3373 H 322.221 -4.20314 -2.68584 0
M  V30 3374 H 321.375 -3.52113 -4.94066 0
M  V30 3375 H 320.114 -2.50823 -4.18258 0
M  V30 3376 H 319.119 -4.54201 -3.09809 0
M  V30 3377 H 320.344 -5.56775 -3.88817 0
M  V30 3378 H 318.29 -3.83924 -5.3192 0
M  V30 3379 H 318.207 -5.55927 -5.12329 0
M  V30 3380 H 319.475 -4.86613 -6.08957 0
M  V30 3381 N 323.704 0.605807 -1.45491 0
M  V30 3382 C 324.95 1.36679 -1.49823 0
M  V30 3383 C 325.283 1.93693 -0.140175 0
M  V30 3384 O 324.558 1.75158 0.845581 0
M  V30 3385 C 324.841 2.51337 -2.57879 0
M  V30 3386 C 324.694 1.99508 -4.03134 0
M  V30 3387 C 326.013 3.53463 -2.62205 0
M  V30 3388 H 323.132 0.495617 -0.545466 0
M  V30 3389 H 325.774 0.682732 -1.7731 0
M  V30 3390 H 323.924 3.09691 -2.34571 0
M  V30 3391 H 325.596 1.45789 -4.37656 0
M  V30 3392 H 323.839 1.30496 -4.13707 0
M  V30 3393 H 324.51 2.82169 -4.74431 0
M  V30 3394 H 326.986 3.04953 -2.83095 0
M  V30 3395 H 325.862 4.31178 -3.39672 0
M  V30 3396 H 326.123 4.09197 -1.67363 0
M  V30 3397 N 325.182 1.32811 0.848464 0
M  V30 3398 C 326.112 1.24882 1.97299 0
M  V30 3399 C 327.093 0.131357 1.69592 0
M  V30 3400 O 328.278 0.319553 1.91553 0
M  V30 3401 C 325.408 0.97746 3.33261 0
M  V30 3402 C 324.362 2.05682 3.75338 0
M  V30 3403 C 323.688 1.63777 5.09 0
M  V30 3404 C 324.988 3.47254 3.90144 0
M  V30 3405 H 326.682 2.18966 2.04191 0
M  V30 3406 H 324.228 1.05413 0.981029 0
M  V30 3407 H 326.181 0.908513 4.1149 0
M  V30 3408 H 324.905 0.000980011 3.266 0
M  V30 3409 H 323.564 2.11603 2.99366 0
M  V30 3410 H 323.212 0.648569 4.98801 0
M  V30 3411 H 322.912 2.36 5.38124 0
M  V30 3412 H 324.436 1.5833 5.89715 0
M  V30 3413 H 325.85 3.43888 4.58709 0
M  V30 3414 H 324.247 4.1788 4.30693 0
M  V30 3415 H 325.317 3.86462 2.92874 0
M  V30 3416 N 326.66 -1.06551 1.16123 0
M  V30 3417 C 327.61 -2.12209 0.833736 0
M  V30 3418 C 328.594 -1.59825 -0.185656 0
M  V30 3419 O 329.786 -1.76994 0.0147906 0
M  V30 3420 C 326.915 -3.41674 0.333697 0
M  V30 3421 C 326.001 -4.00892 1.38372 0
M  V30 3422 N 326.392 -4.34256 2.59337 0
M  V30 3423 C 324.69 -4.28463 1.23836 0
M  V30 3424 C 325.391 -4.81291 3.26701 0
M  V30 3425 N 324.367 -4.80565 2.54083 0
M  V30 3426 H 328.169 -2.35849 1.75364 0
M  V30 3427 H 325.683 -1.24068 1.04789 0
M  V30 3428 H 327.68 -4.16822 0.0806918 0
M  V30 3429 H 326.34 -3.19475 -0.58017 0
M  V30 3430 H 327.351 -4.24687 2.96415 0
M  V30 3431 H 324.028 -4.15721 0.38504 0
M  V30 3432 H 325.418 -5.16332 4.29943 0
M  V30 3433 N 328.138 -0.959301 -1.25041 0
M  V30 3434 C 329.048 -0.489994 -2.29426 0
M  V30 3435 C 330.064 0.444944 -1.68215 0
M  V30 3436 O 331.24 0.320046 -1.98841 0
M  V30 3437 C 328.305 0.220309 -3.45999 0
M  V30 3438 C 327.366 -0.753418 -4.22637 0
M  V30 3439 C 326.599 -0.076918 -5.33645 0
M  V30 3440 O 326.822 1.13649 -5.58963 0
M  V30 3441 O 325.756 -0.764824 -5.97021 0
M  V30 3442 H 329.582 -1.35755 -2.71669 0
M  V30 3443 H 327.167 -0.725961 -1.30576 0
M  V30 3444 H 329.049 0.619677 -4.16819 0
M  V30 3445 H 327.724 1.06296 -3.0575 0
M  V30 3446 H 326.631 -1.20308 -3.54227 0
M  V30 3447 H 327.964 -1.56423 -4.66683 0
M  V30 3448 N 329.616 1.39756 -0.72842 0
M  V30 3449 C 330.546 2.33289 -0.0991354 0
M  V30 3450 C 331.527 1.53568 0.731489 0
M  V30 3451 O 332.712 1.81987 0.677807 0
M  V30 3452 C 329.842 3.3763 0.813834 0
M  V30 3453 C 328.796 4.2791 0.0878663 0
M  V30 3454 C 328.122 5.22894 1.11741 0
M  V30 3455 C 329.422 5.11314 -1.06563 0
M  V30 3456 H 331.116 2.86163 -0.880408 0
M  V30 3457 H 328.662 1.37591 -0.424819 0
M  V30 3458 H 330.615 4.0201 1.26355 0
M  V30 3459 H 329.339 2.83181 1.62715 0
M  V30 3460 H 327.998 3.65 -0.342159 0
M  V30 3461 H 327.646 4.64744 1.92412 0
M  V30 3462 H 327.346 5.84143 0.636477 0
M  V30 3463 H 328.87 5.90151 1.56697 0
M  V30 3464 H 330.284 5.69076 -0.694671 0
M  V30 3465 H 328.681 5.81671 -1.47577 0
M  V30 3466 H 329.751 4.46534 -1.89038 0
M  V30 3467 N 331.094 0.475555 1.50254 0
M  V30 3468 C 332.341 -0.0778919 2.0235 0
M  V30 3469 C 332.669 -1.39319 1.35722 0
M  V30 3470 O 331.924 -1.89888 0.473395 0
M  V30 3471 C 332.223 -0.305114 3.56095 0
M  V30 3472 C 331.889 0.92903 4.41225 0
M  V30 3473 C 330.551 1.26739 4.6421 0
M  V30 3474 C 332.903 1.75054 4.90923 0
M  V30 3475 C 330.231 2.42724 5.34137 0
M  V30 3476 C 332.583 2.9017 5.62125 0
M  V30 3477 C 331.247 3.24416 5.83362 0
M  V30 3478 H 330.517 -0.0285027 0.740452 0
M  V30 3479 H 333.164 0.630543 1.80821 0
M  V30 3480 H 331.469 -1.09584 3.76163 0
M  V30 3481 H 333.166 -0.747377 3.93974 0
M  V30 3482 H 329.756 0.655428 4.23559 0
M  V30 3483 H 333.94 1.50231 4.73016 0
M  V30 3484 H 329.196 2.69525 5.48786 0
M  V30 3485 H 333.37 3.54169 5.99614 0
M  V30 3486 H 330.997 4.14396 6.37323 0
M  V30 3487 N 332.573 -1.56217 0.208337 0
M  V30 3488 C 333.821 -1.97558 -0.426076 0
M  V30 3489 C 334.142 -1.09683 -1.61229 0
M  V30 3490 O 333.412 -0.170956 -1.95153 0
M  V30 3491 H 331.992 -0.729575 -0.160405 0
M  V30 3492 H 334.654 -1.92606 0.298155 0
M  V30 3493 H 333.75 -3.02672 -0.761312 0
M  V30 3494 N 334.051 0.0651679 -1.57465 0
M  V30 3495 C 335.279 0.775808 -1.91804 0
M  V30 3496 C 335.694 1.70782 -0.804916 0
M  V30 3497 O 335.051 1.81153 0.221311 0
M  V30 3498 C 335.102 1.56381 -3.25925 0
M  V30 3499 O 334.823 0.669248 -4.32958 0
M  V30 3500 C 336.324 2.37485 -3.7432 0
M  V30 3501 H 333.544 0.2202 -0.63384 0
M  V30 3502 H 336.088 0.0334587 -2.04473 0
M  V30 3503 H 334.243 2.25837 -3.14764 0
M  V30 3504 H 334.657 1.21801 -5.10162 0
M  V30 3505 H 336.131 2.88223 -4.70778 0
M  V30 3506 H 336.608 3.17307 -3.03666 0
M  V30 3507 H 337.214 1.73173 -3.88447 0
M  V30 3508 N 335.529 1.53961 0.336706 0
M  V30 3509 C 336.806 1.62171 1.09361 0
M  V30 3510 C 337.186 0.447263 2.06307 0
M  V30 3511 O 336.534 -0.559802 2.21537 0
M  V30 3512 C 336.744 2.98565 1.80721 0
M  V30 3513 C 338.092 3.54157 2.34218 0
M  V30 3514 O 339.116 3.00784 1.90807 0
M  V30 3515 O 337.975 4.47528 3.13657 0
M  V30 3516 H 335.069 0.6562 0.503319 0
M  V30 3517 H 337.615 1.66307 0.33765 0
M  V30 3518 H 336.387 3.75482 1.10132 0
M  V30 3519 H 336.01 2.9805 2.63158 0
M  V30 3520 N 337.007 -0.598083 1.45811 0
M  V30 3521 C 338.256 -1.35295 1.49594 0
M  V30 3522 C 338.569 -1.95057 0.145679 0
M  V30 3523 O 339.775 -2.71431 0.0612099 0
M  V30 3524 C 338.231 -2.45124 2.63519 0
M  V30 3525 C 337.839 -1.91732 4.04899 0
M  V30 3526 C 339.583 -3.2205 2.76558 0
M  V30 3527 C 337.49 -2.991 5.1019 0
M  V30 3528 H 336.42 -0.508552 0.556679 0
M  V30 3529 H 339.071 -0.639977 1.71978 0
M  V30 3530 H 337.453 -3.19149 2.34435 0
M  V30 3531 H 338.627 -1.24352 4.43704 0
M  V30 3532 H 336.942 -1.27522 3.96393 0
M  V30 3533 H 339.539 -4.0215 3.52391 0
M  V30 3534 H 339.882 -3.73663 1.83526 0
M  V30 3535 H 340.415 -2.55127 3.05213 0
M  V30 3536 H 337.154 -2.52393 6.04961 0
M  V30 3537 H 336.674 -3.65017 4.75944 0
M  V30 3538 H 338.353 -3.63318 5.35359 0
M  V30 3539 N 338.485 -1.33259 -0.841409 0
M  V30 3540 C 339.901 -1.12538 -1.13169 0
M  V30 3541 C 340.101 0.0854037 -2.01319 0
M  V30 3542 O 339.157 0.766417 -2.40587 0
M  V30 3543 C 340.47 -2.41156 -1.79623 0
M  V30 3544 C 342.018 -2.47038 -1.922 0
M  V30 3545 C 342.493 -3.7561 -2.6207 0
M  V30 3546 N 343.984 -3.76667 -2.69585 0
M  V30 3547 C 344.719 -4.72861 -3.2433 0
M  V30 3548 N 344.215 -5.79428 -3.79783 0
M  V30 3549 N 346.008 -4.6034 -3.22558 0
M  V30 3550 H 338.159 -2.10868 -0.254676 0
M  V30 3551 H 340.422 -0.931615 -0.175493 0
M  V30 3552 H 340.128 -3.29747 -1.22311 0
M  V30 3553 H 340.002 -2.53114 -2.79666 0
M  V30 3554 H 342.389 -1.58898 -2.48667 0
M  V30 3555 H 342.47 -2.39022 -0.911148 0
M  V30 3556 H 342.114 -4.64131 -2.06263 0
M  V30 3557 H 342.044 -3.80902 -3.63622 0
M  V30 3558 H 344.535 -2.99648 -2.30259 0
M  V30 3559 H 344.848 -6.48867 -4.19752 0
M  V30 3560 H 343.193 -5.83166 -3.78078 0
M  V30 3561 H 346.384 -3.76244 -2.78492 0
M  V30 3562 H 346.557 -5.35478 -3.64921 0
M  V30 3563 N 339.963 1.05934 -1.16686 0
M  V30 3564 C 341.203 1.80382 -0.961345 0
M  V30 3565 C 341.567 1.85331 0.501643 0
M  V30 3566 O 342.768 2.55795 0.825986 0
M  V30 3567 C 341.039 3.20777 -1.57596 0
M  V30 3568 S 342.598 4.11795 -1.51559 0
M  V30 3569 H 339.416 0.621332 -0.345641 0
M  V30 3570 H 342.018 1.27157 -1.48497 0
M  V30 3571 H 340.722 3.14773 -2.63337 0
M  V30 3572 H 340.253 3.79078 -1.05182 0
M  V30 3573 H 342.268 4.93485 -0.518374 0
M  V30 3574 N 341.441 0.965919 1.2453 0
M  V30 3575 C 342.681 0.634656 1.94297 0
M  V30 3576 C 343.045 -0.814822 1.73852 0
M  V30 3577 O 344.246 -1.25622 2.3764 0
M  V30 3578 C 342.517 0.99702 3.43212 0
M  V30 3579 S 344.076 0.780038 4.31811 0
M  V30 3580 H 340.894 0.232893 0.671775 0
M  V30 3581 H 343.496 1.24249 1.50938 0
M  V30 3582 H 342.2 2.04886 3.55598 0
M  V30 3583 H 341.731 0.379888 3.91562 0
M  V30 3584 H 343.746 -0.343512 4.9501 0
M  V30 3585 N 342.919 -1.39368 0.735821 0
M  V30 3586 C 343.882 -2.2896 0.104874 0
M  V30 3587 C 344.882 -1.46347 -0.666274 0
M  V30 3588 O 346.072 -1.67014 -0.49517 0
M  V30 3589 C 343.204 -3.29857 -0.860656 0
M  V30 3590 H 344.397 -2.86259 0.894205 0
M  V30 3591 H 341.95 -1.48029 0.501704 0
M  V30 3592 H 342.685 -2.77615 -1.67631 0
M  V30 3593 H 342.47 -3.9087 -0.310327 0
M  V30 3594 H 343.96 -3.96893 -1.29867 0
M  V30 3595 N 344.397 -0.483516 -1.5 0
M  V30 3596 C 345.813 -0.138404 -1.58999 0
M  V30 3597 C 346.013 1.35597 -1.4905 0
M  V30 3598 O 345.069 2.13039 -1.35539 0
M  V30 3599 C 346.382 -0.699658 -2.92447 0
M  V30 3600 C 347.93 -0.664195 -3.05872 0
M  V30 3601 C 348.405 -1.20321 -4.41913 0
M  V30 3602 N 349.896 -1.16315 -4.48358 0
M  V30 3603 C 350.631 -1.55058 -5.52037 0
M  V30 3604 N 350.127 -2.01311 -6.62907 0
M  V30 3605 N 351.92 -1.46584 -5.42651 0
M  V30 3606 H 344.071 -1.45529 -1.5471 0
M  V30 3607 H 346.334 -0.60258 -0.731848 0
M  V30 3608 H 346.04 -1.747 -3.05242 0
M  V30 3609 H 345.914 -0.150194 -3.76901 0
M  V30 3610 H 348.301 0.374272 -2.92717 0
M  V30 3611 H 348.382 -1.25061 -2.23144 0
M  V30 3612 H 348.026 -2.24037 -4.55818 0
M  V30 3613 H 347.956 -0.592896 -5.23252 0
M  V30 3614 H 350.447 -0.824058 -3.68806 0
M  V30 3615 H 350.76 -2.2899 -7.38095 0
M  V30 3616 H 349.105 -2.05273 -6.63994 0
M  V30 3617 H 352.296 -1.10281 -4.54924 0
M  V30 3618 H 352.469 -1.77103 -6.23329 0
M  V30 3619 N 345.875 1.56104 -0.216619 0
M  V30 3620 C 346.823 2.21434 0.712036 0
M  V30 3621 C 347.817 1.19218 1.20348 0
M  V30 3622 O 349.023 1.3731 1.16387 0
M  V30 3623 H 345.398 0.70992 0.248026 0
M  V30 3624 H 347.369 2.98083 0.137558 0
M  V30 3625 C 346.118 2.90434 1.91163 0
M  V30 3626 H 345.441 3.68842 1.54258 0
M  V30 3627 H 346.881 3.39552 2.5393 0
M  V30 3628 C 345.34 1.92635 2.76394 0
M  V30 3629 O 345.87 1.44017 3.74996 0
M  V30 3630 N 344.076 1.60392 2.42328 0
M  V30 3631 H 343.623 2.00122 1.622 0
M  V30 3632 H 343.581 0.952159 2.99635 0
M  V30 3633 N 347.353 -0.0568162 1.57498 0
M  V30 3634 C 348.263 -1.08346 2.08083 0
M  V30 3635 C 349.279 -1.41439 1.01346 0
M  V30 3636 O 350.455 -1.51316 1.32912 0
M  V30 3637 C 347.52 -2.37352 2.52715 0
M  V30 3638 C 346.581 -2.11093 3.73816 0
M  V30 3639 C 345.814 -3.33949 4.1631 0
M  V30 3640 O 346.037 -4.43622 3.58547 0
M  V30 3641 O 344.971 -3.21279 5.08983 0
M  V30 3642 H 348.797 -0.683667 2.95905 0
M  V30 3643 H 346.382 -0.271965 1.46904 0
M  V30 3644 H 348.264 -3.13246 2.81877 0
M  V30 3645 H 346.939 -2.76681 1.68016 0
M  V30 3646 H 345.846 -1.32856 3.49714 0
M  V30 3647 H 347.179 -1.76637 4.59413 0
M  V30 3648 N 348.832 -1.54138 -0.328536 0
M  V30 3649 C 349.762 -1.86167 -1.40939 0
M  V30 3650 C 350.743 -0.718044 -1.54202 0
M  V30 3651 O 351.928 -0.971328 -1.68163 0
M  V30 3652 C 349.058 -2.08461 -2.77779 0
M  V30 3653 C 348.012 -3.24299 -2.7931 0
M  V30 3654 C 347.338 -3.31955 -4.19178 0
M  V30 3655 C 348.638 -4.62065 -2.43502 0
M  V30 3656 H 350.332 -2.76689 -1.14383 0
M  V30 3657 H 347.878 -1.33132 -0.548806 0
M  V30 3658 H 349.831 -2.29453 -3.53454 0
M  V30 3659 H 348.555 -1.14684 -3.05802 0
M  V30 3660 H 347.214 -3.03187 -2.0609 0
M  V30 3661 H 346.862 -2.35745 -4.44335 0
M  V30 3662 H 346.562 -4.09805 -4.2111 0
M  V30 3663 H 348.086 -3.55175 -4.96672 0
M  V30 3664 H 349.5 -4.8297 -3.08889 0
M  V30 3665 H 347.897 -5.42429 -2.56693 0
M  V30 3666 H 348.967 -4.64652 -1.38659 0
M  V30 3667 N 350.31 0.590341 -1.46126 0
M  V30 3668 C 351.558 1.34616 -1.50742 0
M  V30 3669 C 351.879 1.94363 -0.157486 0
M  V30 3670 O 351.149 1.78136 0.815136 0
M  V30 3671 H 349.729 0.499789 -0.555175 0
M  V30 3672 H 352.391 0.691953 -1.82203 0
M  V30 3673 H 351.487 2.15678 -2.25587 0
M  V30 3674 N 351.788 1.33704 0.83433 0
M  V30 3675 C 353.204 1.13137 1.12571 0
M  V30 3676 C 353.404 -0.0747261 2.01361 0
M  V30 3677 O 352.46 -0.753647 2.4099 0
M  V30 3678 C 353.773 2.42105 1.78342 0
M  V30 3679 C 355.321 2.48054 1.90888 0
M  V30 3680 C 355.796 3.76995 2.60075 0
M  V30 3681 N 357.287 3.78092 2.67584 0
M  V30 3682 C 358.022 4.74574 3.21818 0
M  V30 3683 N 357.518 5.81434 3.76705 0
M  V30 3684 N 359.311 4.62044 3.20112 0
M  V30 3685 H 351.462 2.11 0.243489 0
M  V30 3686 H 353.725 0.932532 0.17055 0
M  V30 3687 H 353.431 3.30391 1.20561 0
M  V30 3688 H 353.305 2.54594 2.7832 0
M  V30 3689 H 355.692 1.60215 2.47821 0
M  V30 3690 H 355.773 2.39502 0.898459 0
M  V30 3691 H 355.417 4.65219 2.03799 0
M  V30 3692 H 355.347 3.82825 3.61597 0
M  V30 3693 H 357.838 3.00865 2.28667 0
M  V30 3694 H 358.151 6.51084 4.16305 0
M  V30 3695 H 356.496 5.85163 3.7498 0
M  V30 3696 H 359.687 3.77716 2.76493 0
M  V30 3697 H 359.86 5.37406 3.62076 0
M  V30 3698 N 353.266 -1.05314 1.17247 0
M  V30 3699 C 354.176 -2.16538 0.90268 0
M  V30 3700 C 355.192 -1.73523 -0.128707 0
M  V30 3701 O 356.368 -2.01337 0.0502701 0
M  V30 3702 C 353.433 -3.44167 0.418356 0
M  V30 3703 C 352.494 -4.01635 1.51618 0
M  V30 3704 C 351.727 -5.23171 1.05487 0
M  V30 3705 O 351.95 -5.70327 -0.0914715 0
M  V30 3706 O 350.884 -5.72848 1.8474 0
M  V30 3707 H 354.71 -2.42145 1.83302 0
M  V30 3708 H 352.295 -1.15037 0.953246 0
M  V30 3709 H 354.177 -4.21112 0.155726 0
M  V30 3710 H 352.852 -3.20063 -0.48385 0
M  V30 3711 H 351.759 -3.26135 1.83268 0
M  V30 3712 H 353.092 -4.30053 2.39405 0
M  V30 3713 N 354.744 -0.972509 -1.24016 0
M  V30 3714 C 355.984 -0.644951 -1.93958 0
M  V30 3715 C 356.348 0.80559 -1.74282 0
M  V30 3716 O 357.549 1.2436 -2.38302 0
M  V30 3717 C 355.82 -1.01521 -3.42678 0
M  V30 3718 S 357.379 -0.802927 -4.31391 0
M  V30 3719 H 354.197 -0.236452 -0.670531 0
M  V30 3720 H 356.799 -1.25048 -1.50277 0
M  V30 3721 H 355.503 -2.06769 -3.54506 0
M  V30 3722 H 355.034 -0.400648 -3.91355 0
M  V30 3723 H 357.049 0.317256 -4.95185 0
M  V30 3724 N 356.222 1.38976 -0.743202 0
M  V30 3725 C 357.45 2.04636 -0.30525 0
M  V30 3726 C 357.865 1.56044 1.06281 0
M  V30 3727 O 357.222 0.728921 1.67311 0
M  V30 3728 C 357.273 3.60193 -0.307177 0
M  V30 3729 O 356.994 4.06998 -1.62124 0
M  V30 3730 C 358.495 4.4306 0.145928 0
M  V30 3731 H 355.715 0.65788 -0.132041 0
M  V30 3732 H 358.259 1.77866 -1.00915 0
M  V30 3733 H 356.414 3.85835 0.347898 0
M  V30 3734 H 356.828 5.01371 -1.54036 0
M  V30 3735 H 358.302 5.51921 0.0934183 0
M  V30 3736 H 358.779 4.22706 1.19231 0
M  V30 3737 H 359.385 4.22584 -0.479886 0
M  V30 3738 N 357.7 0.491464 1.49741 0
M  V30 3739 C 359.116 0.146835 1.58923 0
M  V30 3740 C 359.316 -1.34804 1.49767 0
M  V30 3741 O 358.372 -2.12317 1.36667 0
M  V30 3742 C 359.685 0.715157 2.92072 0
M  V30 3743 C 361.233 0.680407 3.05515 0
M  V30 3744 C 361.708 1.22663 4.41269 0
M  V30 3745 N 363.199 1.18691 4.47735 0
M  V30 3746 C 363.934 1.57984 5.51207 0
M  V30 3747 N 363.43 2.04824 6.6183 0
M  V30 3748 N 365.223 1.49459 5.41866 0
M  V30 3749 H 357.374 1.46347 1.53936 0
M  V30 3750 H 359.637 0.606453 0.728642 0
M  V30 3751 H 359.343 1.76317 3.04311 0
M  V30 3752 H 359.217 0.17018 3.76816 0
M  V30 3753 H 361.604 -0.358743 2.92911 0
M  V30 3754 H 361.685 1.26242 2.22478 0
M  V30 3755 H 361.329 2.26451 4.54623 0
M  V30 3756 H 361.259 0.620637 5.2293 0
M  V30 3757 H 363.75 0.843605 3.68364 0
M  V30 3758 H 364.063 2.32901 7.3687 0
M  V30 3759 H 362.408 2.08791 6.62896 0
M  V30 3760 H 365.599 1.12692 4.54333 0
M  V30 3761 H 365.772 1.80406 6.22381 0
M  V30 3762 N 359.178 -1.55987 0.224894 0
M  V30 3763 C 360.108 -2.23426 -0.678457 0
M  V30 3764 C 361.089 -1.20709 -1.19847 0
M  V30 3765 O 362.274 -1.49304 -1.24186 0
M  V30 3766 C 359.404 -2.91676 -1.88527 0
M  V30 3767 C 358.358 -4.00893 -1.49896 0
M  V30 3768 C 357.684 -4.56455 -2.78483 0
M  V30 3769 C 358.984 -5.17769 -0.686461 0
M  V30 3770 H 360.678 -2.99175 -0.116173 0
M  V30 3771 H 358.224 -1.43897 -0.054436 0
M  V30 3772 H 360.177 -3.37547 -2.5227 0
M  V30 3773 H 358.901 -2.1338 -2.47258 0
M  V30 3774 H 357.56 -3.55758 -0.884985 0
M  V30 3775 H 357.208 -3.74886 -3.35365 0
M  V30 3776 H 356.908 -5.30169 -2.53368 0
M  V30 3777 H 358.432 -5.05047 -3.43162 0
M  V30 3778 H 359.846 -5.60001 -1.22767 0
M  V30 3779 H 358.243 -5.97735 -0.532259 0
M  V30 3780 H 359.313 -4.83932 0.306196 0
M  V30 3781 N 360.656 0.0484629 -1.57525 0
M  V30 3782 C 361.903 0.743125 -1.88372 0
M  V30 3783 C 362.231 1.76383 -0.819715 0
M  V30 3784 O 361.486 1.94855 0.181659 0
M  V30 3785 C 361.785 1.46632 -3.25935 0
M  V30 3786 C 361.451 0.583427 -4.4711 0
M  V30 3787 C 360.113 0.340191 -4.79996 0
M  V30 3788 C 362.465 -0.0273345 -5.21193 0
M  V30 3789 C 359.793 -0.522903 -5.84365 0
M  V30 3790 C 362.145 -0.878017 -6.26477 0
M  V30 3791 C 360.809 -1.1309 -6.5785 0
M  V30 3792 H 360.079 0.271929 -0.689301 0
M  V30 3793 H 362.726 0.00336166 -1.915 0
M  V30 3794 H 361.031 2.2789 -3.18706 0
M  V30 3795 H 362.728 2.00902 -3.47044 0
M  V30 3796 H 359.318 0.783151 -4.21384 0
M  V30 3797 H 363.502 0.147654 -4.9608 0
M  V30 3798 H 358.758 -0.727335 -6.07058 0
M  V30 3799 H 362.932 -1.35789 -6.83033 0
M  V30 3800 H 360.559 -1.80144 -7.38547 0
M  V30 3801 N 362.134 1.5431 0.320358 0
M  V30 3802 C 363.362 1.76636 1.07738 0
M  V30 3803 C 363.777 0.51649 1.81598 0
M  V30 3804 O 363.134 -0.512942 1.75143 0
M  V30 3805 C 363.185 2.96158 2.07299 0
M  V30 3806 O 362.906 4.16313 1.36438 0
M  V30 3807 C 364.407 3.3072 2.95193 0
M  V30 3808 H 361.627 0.589597 0.320339 0
M  V30 3809 H 364.171 2.01207 0.36551 0
M  V30 3810 H 362.326 2.73851 2.74016 0
M  V30 3811 H 362.74 4.83565 2.03138 0
M  V30 3812 H 364.214 4.17643 3.60941 0
M  V30 3813 H 364.691 2.48026 3.62463 0
M  V30 3814 H 365.297 3.55117 2.34034 0
M  V30 3815 N 363.613 -0.582584 1.46437 0
M  V30 3816 C 364.862 -1.337 1.5102 0
M  V30 3817 C 365.175 -1.94891 0.166359 0
M  V30 3818 O 366.381 -2.71351 0.0899954 0
M  V30 3819 C 364.837 -2.42315 2.66104 0
M  V30 3820 C 364.445 -1.87427 4.06909 0
M  V30 3821 C 366.189 -3.19099 2.79958 0
M  V30 3822 C 364.096 -2.93672 5.13333 0
M  V30 3823 H 363.026 -0.502619 0.562041 0
M  V30 3824 H 365.677 -0.621701 1.72647 0
M  V30 3825 H 364.059 -3.16645 2.37807 0
M  V30 3826 H 365.233 -1.19639 4.44998 0
M  V30 3827 H 363.548 -1.2331 3.97723 0
M  V30 3828 H 366.145 -3.9839 3.56636 0
M  V30 3829 H 366.488 -3.71695 1.87479 0
M  V30 3830 H 367.021 -2.51875 3.07902 0
M  V30 3831 H 363.76 -2.45962 6.07604 0
M  V30 3832 H 363.28 -3.59948 4.79789 0
M  V30 3833 H 364.959 -3.5762 5.39182 0
M  V30 3834 N 365.091 -1.34144 -0.827227 0
M  V30 3835 C 366.368 -1.16844 -1.56865 0
M  V30 3836 C 366.748 0.260654 -2.09485 0
M  V30 3837 O 366.096 1.26138 -1.9053 0
M  V30 3838 C 366.306 -2.21939 -2.6934 0
M  V30 3839 C 367.654 -2.56695 -3.3822 0
M  V30 3840 O 368.678 -2.20695 -2.79593 0
M  V30 3841 O 367.537 -3.18518 -4.44082 0
M  V30 3842 H 364.631 -0.452669 -0.692112 0
M  V30 3843 H 367.177 -1.45763 -0.868973 0
M  V30 3844 H 365.949 -3.17882 -2.28182 0
M  V30 3845 H 365.572 -1.94172 -3.46962 0
M  V30 3846 N 366.569 1.04691 -1.17803 0
M  V30 3847 C 367.499 2.14494 -0.92275 0
M  V30 3848 C 368.48 1.69546 0.137179 0
M  V30 3849 O 369.665 1.94195 -0.0141108 0
M  V30 3850 C 366.795 3.44491 -0.440803 0
M  V30 3851 C 365.749 4.03031 -1.4405 0
M  V30 3852 C 365.075 5.28432 -0.81631 0
M  V30 3853 C 366.375 4.39932 -2.81527 0
M  V30 3854 H 368.069 2.36107 -1.84103 0
M  V30 3855 H 365.615 1.1347 -0.886599 0
M  V30 3856 H 367.568 4.2066 -0.249602 0
M  V30 3857 H 366.292 3.22546 0.513025 0
M  V30 3858 H 364.951 3.28937 -1.61853 0
M  V30 3859 H 364.599 5.02792 0.144511 0
M  V30 3860 H 364.299 5.68559 -1.48371 0
M  V30 3861 H 365.823 6.07284 -0.635496 0
M  V30 3862 H 367.237 5.07113 -2.67412 0
M  V30 3863 H 365.634 4.9109 -3.44892 0
M  V30 3864 H 366.704 3.50045 -3.35554 0
M  V30 3865 N 368.047 0.979072 1.23499 0
M  V30 3866 C 368.995 0.510604 2.26926 0
M  V30 3867 C 369.989 -0.431691 1.63807 0
M  V30 3868 O 371.195 -0.30573 1.77385 0
M  V30 3869 H 367.57 0.146688 0.737554 0
M  V30 3870 H 369.541 1.39466 2.63803 0
M  V30 3871 C 368.29 -0.172658 3.47271 0
M  V30 3872 H 367.613 0.543331 3.96091 0
M  V30 3873 H 369.053 -0.464101 4.21452 0
M  V30 3874 C 367.512 -1.40345 3.06276 0
M  V30 3875 O 368.042 -2.49978 3.14442 0
M  V30 3876 N 366.248 -1.27362 2.61203 0
M  V30 3877 H 365.795 -0.381584 2.54758 0
M  V30 3878 H 365.753 -2.09822 2.34141 0
M  V30 3879 N 369.525 -1.3858 0.750561 0
M  V30 3880 C 370.457 -2.29057 0.0810714 0
M  V30 3881 C 371.47 -1.47596 -0.686973 0
M  V30 3882 O 372.659 -1.70495 -0.528563 0
M  V30 3883 C 369.759 -3.26475 -0.909247 0
M  V30 3884 C 368.932 -4.36945 -0.199478 0
M  V30 3885 C 367.991 -5.14572 -1.10011 0
M  V30 3886 O 367.017 -5.66321 -0.57177 0
M  V30 3887 N 368.219 -5.27262 -2.42849 0
M  V30 3888 H 370.984 -2.87153 0.858087 0
M  V30 3889 H 368.545 -1.50328 0.60109 0
M  V30 3890 H 370.537 -3.75285 -1.51471 0
M  V30 3891 H 369.107 -2.69298 -1.58736 0
M  V30 3892 H 368.327 -3.8981 0.586664 0
M  V30 3893 H 369.615 -5.07963 0.291783 0
M  V30 3894 H 369.013 -4.86763 -2.88233 0
M  V30 3895 H 367.57 -5.79456 -2.98453 0
M  V30 3896 N 371.003 -0.499398 -1.49478 0
M  V30 3897 C 372.231 0.0425456 -2.06856 0
M  V30 3898 C 372.646 1.30964 -1.35992 0
M  V30 3899 O 372.003 1.77172 -0.437762 0
M  V30 3900 C 372.054 0.301735 -3.60239 0
M  V30 3901 O 371.775 -0.915127 -4.28436 0
M  V30 3902 C 373.276 0.887499 -4.34325 0
M  V30 3903 H 370.496 -0.0197482 -0.670709 0
M  V30 3904 H 373.04 -0.696297 -1.92281 0
M  V30 3905 H 371.195 0.990556 -3.74522 0
M  V30 3906 H 371.609 -0.676993 -5.20113 0
M  V30 3907 H 373.083 1.01845 -5.42523 0
M  V30 3908 H 373.56 1.88488 -3.96698 0
M  V30 3909 H 374.166 0.236196 -4.24644 0
M  V30 3910 N 372.481 1.55866 -0.233164 0
M  V30 3911 C 373.892 1.847 0.272554 0
M  V30 3912 C 374.243 1.15477 1.58617 0
M  V30 3913 O 373.368 0.42841 2.12117 0
M  V30 3914 C 373.963 3.35071 0.501299 0
M  V30 3915 C 372.522 3.6418 0.951304 0
M  V30 3916 C 371.669 2.77292 0.0208209 0
M  V30 3917 H 374.62 1.52005 -0.456074 0
M  V30 3918 H 374.641 3.55906 1.34577 0
M  V30 3919 H 374.153 3.85424 -0.454936 0
M  V30 3920 H 372.254 3.19293 1.92049 0
M  V30 3921 H 372.367 4.72071 0.817675 0
M  V30 3922 H 370.731 2.49131 0.529723 0
M  V30 3923 H 371.514 3.30448 -0.93054 0
M  V30 3924 N 373.959 -0.0401083 1.57549 0
M  V30 3925 C 374.891 -1.07149 2.02612 0
M  V30 3926 C 375.904 -1.33126 0.937085 0
M  V30 3927 O 377.093 -1.30808 1.21456 0
M  V30 3928 C 374.193 -2.41561 2.37701 0
M  V30 3929 C 373.366 -2.35096 3.68848 0
M  V30 3930 C 372.425 -3.51867 3.91249 0
M  V30 3931 O 371.451 -3.3186 4.62447 0
M  V30 3932 N 372.653 -4.73351 3.36035 0
M  V30 3933 H 375.418 -0.687485 2.91708 0
M  V30 3934 H 372.979 -0.228248 1.60283 0
M  V30 3935 H 374.971 -3.18379 2.49833 0
M  V30 3936 H 373.541 -2.71846 1.54332 0
M  V30 3937 H 372.761 -1.4345 3.67173 0
M  V30 3938 H 374.049 -2.27908 4.54901 0
M  V30 3939 H 373.447 -4.92507 2.78304 0
M  V30 3940 H 372.004 -5.47572 3.53565 0
M  V30 3941 N 375.437 -1.54477 -0.31217 0
M  V30 3942 C 376.665 -1.77205 -1.068 0
M  V30 3943 C 377.08 -0.526114 -1.81321 0
M  V30 3944 O 376.437 0.503647 -1.75413 0
M  V30 3945 C 376.488 -2.97253 -2.05725 0
M  V30 3946 O 376.209 -4.1703 -1.34228 0
M  V30 3947 C 377.71 -3.32281 -2.93435 0
M  V30 3948 H 374.93 -0.591287 -0.317208 0
M  V30 3949 H 377.474 -2.01398 -0.354834 0
M  V30 3950 H 375.629 -2.753 -2.72559 0
M  V30 3951 H 376.043 -4.84636 -2.00571 0
M  V30 3952 H 377.517 -4.19551 -3.58721 0
M  V30 3953 H 377.994 -2.49945 -3.61143 0
M  V30 3954 H 378.6 -3.56353 -2.32147 0
M  V30 3955 N 376.915 0.57481 -1.46744 0
M  V30 3956 C 378.143 1.35856 -1.56047 0
M  V30 3957 C 378.558 1.87691 -0.204365 0
M  V30 3958 O 377.915 1.64049 0.79963 0
M  V30 3959 C 377.966 2.54066 -2.57163 0
M  V30 3960 O 377.687 2.04377 -3.87507 0
M  V30 3961 C 379.188 3.46514 -2.76483 0
M  V30 3962 H 376.408 0.414754 -0.527466 0
M  V30 3963 H 378.952 0.698035 -1.92218 0
M  V30 3964 H 377.107 3.16092 -2.23974 0
M  V30 3965 H 377.521 2.81419 -4.4261 0
M  V30 3966 H 378.995 4.25919 -3.51137 0
M  V30 3967 H 379.472 3.98951 -1.83671 0
M  V30 3968 H 380.078 2.90318 -3.10799 0
M  V30 3969 N 378.394 1.34581 0.820102 0
M  V30 3970 C 379.324 1.29038 1.94606 0
M  V30 3971 C 380.305 0.1673 1.69275 0
M  V30 3972 O 381.49 0.360112 1.90832 0
M  V30 3973 C 378.62 1.04793 3.31113 0
M  V30 3974 C 377.574 2.13597 3.70891 0
M  V30 3975 C 376.9 1.74537 5.05412 0
M  V30 3976 C 378.2 3.55451 3.8269 0
M  V30 3977 H 379.894 2.23248 1.99501 0
M  V30 3978 H 377.44 1.0747 0.958449 0
M  V30 3979 H 379.393 0.995592 4.0947 0
M  V30 3980 H 378.117 0.0702565 3.26524 0
M  V30 3981 H 376.776 2.17905 2.9481 0
M  V30 3982 H 376.424 0.754226 4.97313 0
M  V30 3983 H 376.124 2.47361 5.32997 0
M  V30 3984 H 377.648 1.70803 5.86224 0
M  V30 3985 H 379.062 3.5354 4.51312 0
M  V30 3986 H 377.459 4.26922 4.21732 0
M  V30 3987 H 378.529 3.92587 2.84611 0
M  V30 3988 N 379.872 -1.04064 1.18357 0
M  V30 3989 C 381.283 -1.58719 0.98312 0
M  V30 3990 C 381.634 -1.90556 -0.467193 0
M  V30 3991 O 380.759 -1.69561 -1.34454 0
M  V30 3992 C 381.354 -2.88379 1.77828 0
M  V30 3993 C 379.913 -3.3965 1.62218 0
M  V30 3994 C 379.06 -2.13235 1.77274 0
M  V30 3995 H 382.011 -0.867359 1.32901 0
M  V30 3996 H 382.032 -3.58773 1.26737 0
M  V30 3997 H 381.544 -2.65176 2.83379 0
M  V30 3998 H 379.645 -3.67866 0.592036 0
M  V30 3999 H 379.758 -4.13475 2.42023 0
M  V30 4000 H 378.122 -2.24542 1.20221 0
M  V30 4001 H 378.905 -1.92487 2.8426 0
M  V30 4002 N 381.35 -0.985608 -1.22978 0
M  V30 4003 C 382.282 -0.488154 -2.23941 0
M  V30 4004 C 383.295 0.41282 -1.57479 0
M  V30 4005 O 384.484 0.216121 -1.77187 0
M  V30 4006 C 381.584 0.312611 -3.37455 0
M  V30 4007 C 380.757 -0.582741 -4.33501 0
M  V30 4008 C 379.816 0.165064 -5.25941 0
M  V30 4009 O 378.842 -0.447077 -5.67442 0
M  V30 4010 N 380.044 1.44953 -5.62111 0
M  V30 4011 H 382.809 -1.3563 -2.67254 0
M  V30 4012 H 380.37 -0.859477 -1.37203 0
M  V30 4013 H 382.362 0.821357 -3.96277 0
M  V30 4014 H 380.932 1.0818 -2.93285 0
M  V30 4015 H 380.152 -1.27225 -3.73105 0
M  V30 4016 H 381.44 -1.19275 -4.94622 0
M  V30 4017 H 380.838 1.9683 -5.30353 0
M  V30 4018 H 379.395 1.90361 -6.23383 0
M  V30 4019 N 382.828 1.3818 -0.7579 0
M  V30 4020 C 383.758 2.33027 -0.148597 0
M  V30 4021 C 384.739 1.55085 0.69875 0
M  V30 4022 O 385.924 1.83384 0.639053 0
M  V30 4023 C 383.054 3.3928 0.742034 0
M  V30 4024 C 382.008 4.28 -0.00291946 0
M  V30 4025 C 381.334 5.25146 1.00625 0
M  V30 4026 C 382.634 5.08938 -1.17385 0
M  V30 4027 H 384.328 2.84231 -0.940909 0
M  V30 4028 H 381.874 1.36659 -0.453908 0
M  V30 4029 H 383.827 4.046 1.17799 0
M  V30 4030 H 382.551 2.86569 1.56671 0
M  V30 4031 H 381.21 3.64192 -0.419504 0
M  V30 4032 H 380.858 4.68721 1.8251 0
M  V30 4033 H 380.558 5.85361 0.512428 0
M  V30 4034 H 382.082 5.93342 1.44143 0
M  V30 4035 H 383.496 5.67474 -0.815224 0
M  V30 4036 H 381.893 5.7841 -1.59882 0
M  V30 4037 H 382.963 4.42424 -1.98468 0
M  V30 4038 N 384.306 0.507319 1.49211 0
M  V30 4039 C 385.553 -0.0349529 2.0247 0
M  V30 4040 C 385.881 -1.36409 1.38647 0
M  V30 4041 O 385.136 -1.88841 0.513566 0
M  V30 4042 C 385.435 -0.229513 3.56662 0
M  V30 4043 C 385.101 1.02241 4.39156 0
M  V30 4044 C 383.763 1.36557 4.61417 0
M  V30 4045 C 386.115 1.85428 4.871 0
M  V30 4046 C 383.443 2.53999 5.28868 0
M  V30 4047 C 385.795 3.02028 5.55843 0
M  V30 4048 C 384.459 3.36717 5.76349 0
M  V30 4049 H 383.729 -0.0127902 0.74089 0
M  V30 4050 H 386.376 0.668756 1.79443 0
M  V30 4051 H 384.681 -1.0158 3.78403 0
M  V30 4052 H 386.378 -0.663641 3.9547 0
M  V30 4053 H 382.968 0.745124 4.22073 0
M  V30 4054 H 387.152 1.6023 4.69723 0
M  V30 4055 H 382.408 2.81105 5.42946 0
M  V30 4056 H 386.582 3.66808 5.91967 0
M  V30 4057 H 384.209 4.27821 6.28389 0
M  V30 4058 N 385.784 -1.5574 0.241426 0
M  V30 4059 C 386.714 -2.24133 -0.654722 0
M  V30 4060 C 387.695 -1.21974 -1.1856 0
M  V30 4061 O 388.88 -1.50612 -1.22595 0
M  V30 4062 C 386.01 -2.93659 -1.85423 0
M  V30 4063 C 384.964 -4.0246 -1.45636 0
M  V30 4064 C 384.29 -4.59383 -2.73626 0
M  V30 4065 C 385.59 -5.18468 -0.631506 0
M  V30 4066 H 387.284 -2.99281 -0.0844353 0
M  V30 4067 H 384.83 -1.43947 -0.0391707 0
M  V30 4068 H 386.783 -3.40203 -2.48676 0
M  V30 4069 H 385.507 -2.15991 -2.44981 0
M  V30 4070 H 384.166 -3.56676 -0.847202 0
M  V30 4071 H 383.814 -3.78422 -3.3137 0
M  V30 4072 H 383.514 -5.32826 -2.4773 0
M  V30 4073 H 385.038 -5.08658 -3.37786 0
M  V30 4074 H 386.452 -5.61272 -1.1682 0
M  V30 4075 H 384.849 -5.98266 -0.468831 0
M  V30 4076 H 385.919 -4.8358 0.357506 0
M  V30 4077 N 387.262 0.0317525 -1.57568 0
M  V30 4078 C 388.209 1.0332 -2.06382 0
M  V30 4079 C 389.179 1.36082 -0.952414 0
M  V30 4080 O 390.364 1.46466 -1.2228 0
M  V30 4081 C 387.504 2.32989 -2.54578 0
M  V30 4082 C 386.617 2.0641 -3.79498 0
M  V30 4083 C 385.752 3.2993 -4.16317 0
M  V30 4084 C 384.791 2.98893 -5.34162 0
M  V30 4085 N 383.928 4.14857 -5.66426 0
M  V30 4086 H 388.768 0.609982 -2.9169 0
M  V30 4087 H 386.305 0.289573 -1.44222 0
M  V30 4088 H 388.263 3.0875 -2.80587 0
M  V30 4089 H 386.893 2.73039 -1.7219 0
M  V30 4090 H 385.945 1.21158 -3.6059 0
M  V30 4091 H 387.257 1.79513 -4.65378 0
M  V30 4092 H 386.411 4.1406 -4.4344 0
M  V30 4093 H 385.15 3.59938 -3.29083 0
M  V30 4094 H 384.155 2.13164 -5.06795 0
M  V30 4095 H 385.38 2.70165 -6.23047 0
M  V30 4096 H 383.326 4.44821 -4.82151 0
M  V30 4097 H 383.243 3.91374 -6.4681 0
M  V30 4098 H 384.511 4.99868 -5.98124 0
M  V30 4099 N 388.74 1.54641 0.303973 0
M  V30 4100 C 389.986 1.74038 1.04109 0
M  V30 4101 C 390.319 0.523051 1.87024 0
M  V30 4102 O 389.594 -0.479874 1.88487 0
M  V30 4103 C 389.877 3.02761 1.94955 0
M  V30 4104 C 389.73 4.34787 1.1524 0
M  V30 4105 C 391.049 3.27336 2.94175 0
M  V30 4106 H 388.168 0.63323 0.377079 0
M  V30 4107 H 390.81 1.87354 0.316001 0
M  V30 4108 H 388.96 2.9154 2.56782 0
M  V30 4109 H 390.632 4.57922 0.557236 0
M  V30 4110 H 388.875 4.31407 0.455053 0
M  V30 4111 H 389.546 5.21116 1.8205 0
M  V30 4112 H 392.022 3.38148 2.42477 0
M  V30 4113 H 390.898 4.18726 3.54908 0
M  V30 4114 H 391.159 2.45491 3.67677 0
M  V30 4115 N 390.218 -0.567019 1.47046 0
M  V30 4116 C 391.466 -1.322 1.52864 0
M  V30 4117 C 391.787 -1.94088 0.188388 0
M  V30 4118 O 391.057 -1.7941 -0.786693 0
M  V30 4119 H 389.637 -0.490894 0.563056 0
M  V30 4120 H 392.299 -0.662879 1.83281 0
M  V30 4121 H 391.395 -2.12062 2.2899 0
M  V30 4122 N 391.696 -1.35014 -0.812953 0
M  V30 4123 C 392.606 -1.2951 -1.95613 0
M  V30 4124 C 393.622 -0.20107 -1.72834 0
M  V30 4125 O 394.798 -0.42932 -1.96771 0
M  V30 4126 C 391.863 -1.06033 -3.30088 0
M  V30 4127 C 390.924 -2.24688 -3.65805 0
M  V30 4128 C 390.157 -2.02322 -4.93864 0
M  V30 4129 O 390.38 -0.986464 -5.61805 0
M  V30 4130 O 389.314 -2.89525 -5.27692 0
M  V30 4131 H 393.14 -2.25705 -2.03202 0
M  V30 4132 H 390.725 -1.15321 -0.949811 0
M  V30 4133 H 392.607 -0.94763 -4.10607 0
M  V30 4134 H 391.282 -0.128852 -3.23443 0
M  V30 4135 H 390.189 -2.41521 -2.85689 0
M  V30 4136 H 391.522 -3.16261 -3.77147 0
M  V30 4137 N 393.175 1.03435 -1.18907 0
M  V30 4138 C 394.586 1.58195 -0.991523 0
M  V30 4139 C 394.937 1.90801 0.457081 0
M  V30 4140 O 394.062 1.70272 1.33553 0
M  V30 4141 C 394.657 2.87432 -1.79355 0
M  V30 4142 C 393.216 3.38785 -1.64017 0
M  V30 4143 C 392.363 2.12292 -1.78402 0
M  V30 4144 H 395.314 0.860299 -1.33359 0
M  V30 4145 H 395.335 3.58096 -1.28638 0
M  V30 4146 H 394.847 2.63669 -2.84781 0
M  V30 4147 H 392.948 3.67547 -0.611536 0
M  V30 4148 H 393.061 4.12186 -2.44212 0
M  V30 4149 H 391.425 2.23901 -1.2141 0
M  V30 4150 H 392.208 1.90977 -2.85277 0
M  V30 4151 N 394.653 0.992116 1.22453 0
M  V30 4152 C 395.583 0.561677 2.26644 0
M  V30 4153 C 396.564 -0.411055 1.65059 0
M  V30 4154 O 397.749 -0.301861 1.9184 0
M  V30 4155 C 394.879 -0.125247 3.47074 0
M  V30 4156 C 393.833 0.765948 4.21091 0
M  V30 4157 C 393.159 -0.0538484 5.34673 0
M  V30 4158 C 394.459 2.06242 4.79856 0
M  V30 4159 H 396.153 1.43259 2.62902 0
M  V30 4160 H 393.699 0.690283 1.26377 0
M  V30 4161 H 395.652 -0.437764 4.1912 0
M  V30 4162 H 394.376 -1.03069 3.0991 0
M  V30 4163 H 393.035 1.0621 3.50878 0
M  V30 4164 H 392.683 -0.960188 4.9375 0
M  V30 4165 H 392.383 0.539415 5.85119 0
M  V30 4166 H 393.907 -0.360477 6.09535 0
M  V30 4167 H 395.321 1.8139 5.43848 0
M  V30 4168 H 393.718 2.60444 5.40638 0
M  V30 4169 H 394.788 2.74167 3.99951 0
M  V30 4170 N 396.131 -1.37776 0.765217 0
M  V30 4171 C 397.377 -2.00604 0.336066 0
M  V30 4172 C 397.732 -1.59657 -1.07366 0
M  V30 4173 O 397.025 -0.829565 -1.7271 0
M  V30 4174 C 397.219 -3.5504 0.410053 0
M  V30 4175 C 397.048 -4.10985 1.82542 0
M  V30 4176 C 395.818 -4.42229 2.44461 0
M  V30 4177 C 398.016 -4.32438 2.78392 0
M  V30 4178 N 395.998 -4.8385 3.77839 0
M  V30 4179 C 397.369 -4.76596 3.96556 0
M  V30 4180 C 399.424 -4.14559 2.75764 0
M  V30 4181 C 398.127 -5.04748 5.12466 0
M  V30 4182 C 400.153 -4.43843 3.90842 0
M  V30 4183 C 399.515 -4.88235 5.07746 0
M  V30 4184 H 395.614 -0.763325 0.169881 0
M  V30 4185 H 398.198 -1.67197 0.997656 0
M  V30 4186 H 396.369 -3.87769 -0.221325 0
M  V30 4187 H 398.101 -4.0468 -0.0405285 0
M  V30 4188 H 394.856 -4.31079 1.96131 0
M  V30 4189 H 395.28 -5.08979 4.46396 0
M  V30 4190 H 399.922 -3.79415 1.86558 0
M  V30 4191 H 397.64 -5.38783 6.02277 0
M  V30 4192 H 401.226 -4.31603 3.90141 0
M  V30 4193 H 400.106 -5.10461 5.95315 0
M  V30 4194 N 397.609 -0.515225 -1.4894 0
M  V30 4195 C 398.858 0.0261361 -2.01683 0
M  V30 4196 C 399.171 1.36719 -1.39883 0
M  V30 4197 O 400.377 1.99606 -1.84037 0
M  V30 4198 C 398.833 0.0970111 -3.59769 0
M  V30 4199 C 398.441 -1.23825 -4.30548 0
M  V30 4200 C 400.185 0.587981 -4.20408 0
M  V30 4201 C 398.092 -1.12877 -5.80528 0
M  V30 4202 H 397.022 0.0135398 -0.753878 0
M  V30 4203 H 399.673 -0.656787 -1.71343 0
M  V30 4204 H 398.055 0.844694 -3.86886 0
M  V30 4205 H 399.229 -2.00034 -4.15118 0
M  V30 4206 H 397.544 -1.66379 -3.81716 0
M  V30 4207 H 400.141 0.68763 -5.3026 0
M  V30 4208 H 400.484 1.59026 -3.84729 0
M  V30 4209 H 401.017 -0.103582 -3.97665 0
M  V30 4210 H 397.756 -2.10575 -6.20756 0
M  V30 4211 H 397.276 -0.407799 -5.98412 0
M  V30 4212 H 398.955 -0.813332 -6.41868 0
M  V30 4213 N 399.087 1.5561 -0.249682 0
M  V30 4214 C 400.503 1.59254 0.105103 0
M  V30 4215 C 400.703 1.26685 1.56694 0
M  V30 4216 O 399.759 1.0155 2.31179 0
M  V30 4217 C 401.072 2.99687 -0.246592 0
M  V30 4218 C 402.62 3.12416 -0.191118 0
M  V30 4219 C 403.095 4.55074 -0.516885 0
M  V30 4220 N 404.586 4.60835 -0.467489 0
M  V30 4221 C 405.321 5.69201 -0.69268 0
M  V30 4222 N 404.817 6.85817 -0.981146 0
M  V30 4223 N 406.61 5.58635 -0.623198 0
M  V30 4224 H 398.761 1.75049 -1.20298 0
M  V30 4225 H 401.024 0.815003 -0.484225 0
M  V30 4226 H 400.73 3.28267 -1.26228 0
M  V30 4227 H 400.604 3.74798 0.424962 0
M  V30 4228 H 402.991 2.83615 0.815247 0
M  V30 4229 H 403.072 2.39573 -0.896563 0
M  V30 4230 H 402.716 4.84596 -1.52082 0
M  V30 4231 H 402.646 5.26181 0.210068 0
M  V30 4232 H 405.137 3.7705 -0.253373 0
M  V30 4233 H 405.45 7.64341 -1.14032 0
M  V30 4234 H 403.795 6.87494 -1.01865 0
M  V30 4235 H 406.986 4.66406 -0.397863 0
M  V30 4236 H 407.159 6.43017 -0.802093 0
M  V30 4237 N 400.565 -0.0233959 1.57583 0
M  V30 4238 C 401.805 -0.71784 1.9138 0
M  V30 4239 C 402.169 -1.72216 0.848853 0
M  V30 4240 O 403.37 -2.46527 1.07134 0
M  V30 4241 C 401.641 -1.36489 3.30311 0
M  V30 4242 S 403.2 -2.0877 3.85954 0
M  V30 4243 H 400.018 -0.237676 0.670098 0
M  V30 4244 H 402.62 0.0276709 1.9548 0
M  V30 4245 H 401.324 -0.620782 4.05678 0
M  V30 4246 H 400.855 -2.14883 3.29528 0
M  V30 4247 H 402.87 -3.35988 3.65139 0
M  V30 4248 N 402.043 -1.548 -0.295768 0
M  V30 4249 C 402.99 -1.86113 -1.36494 0
M  V30 4250 C 403.96 -0.7105 -1.50137 0
M  V30 4251 O 405.145 -0.959626 -1.64912 0
M  V30 4252 C 402.285 -2.11861 -2.72413 0
M  V30 4253 C 401.398 -3.39471 -2.67177 0
M  V30 4254 C 400.533 -3.55035 -3.95125 0
M  V30 4255 C 399.572 -4.76418 -3.84308 0
M  V30 4256 N 398.709 -4.8876 -5.04042 0
M  V30 4257 H 403.549 -2.77314 -1.09091 0
M  V30 4258 H 401.086 -1.37315 -0.52753 0
M  V30 4259 H 403.044 -2.24786 -3.51464 0
M  V30 4260 H 401.674 -1.2392 -2.98066 0
M  V30 4261 H 400.726 -3.35139 -1.79962 0
M  V30 4262 H 402.038 -4.28646 -2.55076 0
M  V30 4263 H 401.192 -3.67653 -4.82614 0
M  V30 4264 H 399.931 -2.64002 -4.10066 0
M  V30 4265 H 398.936 -4.63827 -2.95202 0
M  V30 4266 H 400.161 -5.68863 -3.70906 0
M  V30 4267 H 398.107 -4.00652 -5.19436 0
M  V30 4268 H 398.024 -5.71945 -4.94384 0
M  V30 4269 H 399.292 -5.0574 -5.93167 0
M  V30 4270 N 403.521 0.559213 -1.47345 0
M  V30 4271 C 404.484 1.64854 -1.59235 0
M  V30 4272 C 405.484 1.53851 -0.467607 0
M  V30 4273 O 406.674 1.58045 -0.732617 0
M  V30 4274 C 403.806 3.04388 -1.53496 0
M  V30 4275 H 404.999 1.55662 -2.56339 0
M  V30 4276 H 402.552 0.778973 -1.35505 0
M  V30 4277 H 403.287 3.19115 -0.577604 0
M  V30 4278 H 403.072 3.13783 -2.35123 0
M  V30 4279 H 404.562 3.83642 -1.6495 0
M  V30 4280 N 404.999 1.35443 0.805782 0
M  V30 4281 C 406.245 1.28952 1.56522 0
M  V30 4282 C 406.578 -0.135597 1.93726 0
M  V30 4283 O 405.853 -1.08516 1.61414 0
M  V30 4284 C 406.136 2.19678 2.85331 0
M  V30 4285 C 405.989 3.7081 2.54598 0
M  V30 4286 C 407.308 2.09495 3.8704 0
M  V30 4287 H 404.427 0.469764 0.567883 0
M  V30 4288 H 407.069 1.65851 0.927001 0
M  V30 4289 H 405.219 1.8834 3.39795 0
M  V30 4290 H 406.891 4.12593 2.06312 0
M  V30 4291 H 405.134 3.91051 1.8778 0
M  V30 4292 H 405.805 4.29679 3.46525 0
M  V30 4293 H 408.281 2.37045 3.41978 0
M  V30 4294 H 407.157 2.75173 4.74943 0
M  V30 4295 H 407.418 1.07714 4.28777 0
M  V30 4296 N 406.477 -1.02803 1.19454 0
M  V30 4297 C 407.427 -2.0945 0.900827 0
M  V30 4298 C 408.411 -1.60335 -0.134715 0
M  V30 4299 O 409.603 -1.76857 0.0710924 0
M  V30 4300 C 406.732 -3.4044 0.442229 0
M  V30 4301 C 405.818 -3.96286 1.51056 0
M  V30 4302 N 406.209 -4.25785 2.73021 0
M  V30 4303 C 404.507 -4.24307 1.37404 0
M  V30 4304 C 405.208 -4.70654 3.41848 0
M  V30 4305 N 404.184 -4.72238 2.69243 0
M  V30 4306 H 407.986 -2.3015 1.82779 0
M  V30 4307 H 405.5 -1.20672 1.08683 0
M  V30 4308 H 407.497 -4.16354 0.21326 0
M  V30 4309 H 406.157 -3.21159 -0.478238 0
M  V30 4310 H 407.168 -4.15041 3.09776 0
M  V30 4311 H 403.845 -4.14285 0.517103 0
M  V30 4312 H 405.235 -5.02392 4.46152 0
M  V30 4313 N 407.956 -0.998596 -1.21925 0
M  V30 4314 C 409.202 -0.678667 -1.91107 0
M  V30 4315 C 409.535 0.78791 -1.77498 0
M  V30 4316 O 408.81 1.57043 -1.1475 0
M  V30 4317 C 409.093 -1.09245 -3.43129 0
M  V30 4318 C 408.946 -2.61801 -3.6576 0
M  V30 4319 C 410.265 -0.649984 -4.35274 0
M  V30 4320 H 407.384 -0.248025 -0.694012 0
M  V30 4321 H 410.026 -1.24314 -1.43688 0
M  V30 4322 H 408.176 -0.612171 -3.83647 0
M  V30 4323 H 409.848 -3.17543 -3.34611 0
M  V30 4324 H 408.091 -3.03609 -3.09845 0
M  V30 4325 H 408.762 -2.85804 -4.7225 0
M  V30 4326 H 411.238 -1.0626 -4.02303 0
M  V30 4327 H 410.114 -0.967743 -5.40302 0
M  V30 4328 H 410.375 0.449139 -4.39813 0
M  V30 4329 N 409.434 1.37368 -0.772513 0
M  V30 4330 C 410.382 2.32134 -0.147111 0
M  V30 4331 C 411.376 1.54972 0.684106 0
M  V30 4332 O 412.582 1.70363 0.581083 0
M  V30 4333 H 408.957 0.751449 -0.028786 0
M  V30 4334 H 410.928 2.82464 -0.962112 0
M  V30 4335 C 409.677 3.40226 0.71703 0
M  V30 4336 H 409 3.99706 0.0867951 0
M  V30 4337 H 410.44 4.08897 1.12159 0
M  V30 4338 C 408.899 2.80372 1.86797 0
M  V30 4339 O 409.429 2.71183 2.96349 0
M  V30 4340 N 407.635 2.37904 1.66883 0
M  V30 4341 H 407.182 2.45578 0.777759 0
M  V30 4342 H 407.14 1.98202 2.44056 0
M  V30 4343 N 410.912 0.523116 1.48665 0
M  V30 4344 C 411.862 -0.263106 2.26477 0
M  V30 4345 C 412.846 -0.916005 1.32281 0
M  V30 4346 O 414.038 -0.819946 1.56863 0
M  V30 4347 C 411.167 -1.31361 3.17174 0
M  V30 4348 C 410.253 -0.665849 4.1884 0
M  V30 4349 N 410.644 0.244434 5.05209 0
M  V30 4350 C 408.942 -0.923863 4.36326 0
M  V30 4351 C 409.643 0.617443 5.78414 0
M  V30 4352 N 408.619 -0.0198686 5.43596 0
M  V30 4353 H 412.421 0.437295 2.90629 0
M  V30 4354 H 409.935 0.340675 1.58787 0
M  V30 4355 H 411.932 -1.89052 3.71571 0
M  V30 4356 H 410.592 -2.01546 2.54576 0
M  V30 4357 H 411.603 0.616621 5.14216 0
M  V30 4358 H 408.28 -1.6168 3.84923 0
M  V30 4359 H 409.67 1.36346 6.57921 0
M  V30 4360 N 412.39 -1.55475 0.257931 0
M  V30 4361 C 413.638 -1.98813 -0.363009 0
M  V30 4362 C 413.959 -1.14757 -1.57657 0
M  V30 4363 O 413.229 -0.232956 -1.9451 0
M  V30 4364 H 411.809 -0.734308 -0.137113 0
M  V30 4365 H 414.471 -1.9156 0.359281 0
M  V30 4366 H 413.567 -3.04941 -0.664634 0
M  V30 4367 N 413.868 0.0150385 -1.57593 0
M  V30 4368 C 415.115 0.703001 -1.89906 0
M  V30 4369 C 415.443 1.74604 -0.856944 0
M  V30 4370 O 414.698 1.95197 0.140287 0
M  V30 4371 C 414.997 1.39686 -3.28972 0
M  V30 4372 C 414.663 0.488457 -4.48246 0
M  V30 4373 C 413.325 0.2383 -4.8061 0
M  V30 4374 C 415.677 -0.137881 -5.21018 0
M  V30 4375 C 413.005 -0.646738 -5.83125 0
M  V30 4376 C 415.357 -1.0107 -6.24474 0
M  V30 4377 C 414.021 -1.27019 -6.55303 0
M  V30 4378 H 413.291 0.257246 -0.694914 0
M  V30 4379 H 415.938 -0.037259 -1.91464 0
M  V30 4380 H 414.243 2.21079 -3.23468 0
M  V30 4381 H 415.94 1.93495 -3.51227 0
M  V30 4382 H 412.53 0.693593 -4.22951 0
M  V30 4383 H 416.714 0.0423953 -4.96282 0
M  V30 4384 H 411.97 -0.855937 -6.05379 0
M  V30 4385 H 416.144 -1.50247 -6.79999 0
M  V30 4386 H 413.771 -1.95769 -7.3456 0
M  V30 4387 N 415.346 1.54954 0.287554 0
M  V30 4388 C 416.594 1.74528 1.01904 0
M  V30 4389 C 416.915 0.541349 1.87335 0
M  V30 4390 O 416.185 -0.444108 1.908 0
M  V30 4391 H 414.765 0.643576 0.379235 0
M  V30 4392 H 417.427 1.92333 0.315294 0
M  V30 4393 H 416.523 2.64015 1.6644 0
M  V30 4394 N 416.824 -0.551391 1.4764 0
M  V30 4395 C 417.754 -1.66757 1.63445 0
M  V30 4396 C 418.735 -1.63077 0.483742 0
M  V30 4397 O 419.92 -1.80607 0.71377 0
M  V30 4398 C 417.05 -3.05387 1.65396 0
M  V30 4399 C 416.004 -3.23918 2.79752 0
M  V30 4400 C 415.33 -4.63393 2.66779 0
M  V30 4401 C 416.63 -3.08735 4.21284 0
M  V30 4402 H 418.324 -1.53786 2.56886 0
M  V30 4403 H 415.87 -0.738415 1.23626 0
M  V30 4404 H 417.823 -3.83325 1.75043 0
M  V30 4405 H 416.547 -3.19332 0.685195 0
M  V30 4406 H 415.206 -2.48391 2.69625 0
M  V30 4407 H 414.854 -4.74144 1.67918 0
M  V30 4408 H 414.554 -4.7674 3.43501 0
M  V30 4409 H 416.078 -5.43458 2.78364 0
M  V30 4410 H 417.492 -3.76484 4.32357 0
M  V30 4411 H 415.889 -3.33588 4.98838 0
M  V30 4412 H 416.959 -2.0541 4.39243 0
M  V30 4413 N 418.302 -1.35869 -0.798587 0
M  V30 4414 C 419.53 -1.32722 -1.58722 0
M  V30 4415 C 419.945 0.0935631 -1.88568 0
M  V30 4416 O 419.302 1.04784 -1.49421 0
M  V30 4417 C 419.353 -2.13974 -2.91371 0
M  V30 4418 O 419.074 -3.50514 -2.62815 0
M  V30 4419 C 420.575 -2.18504 -3.85708 0
M  V30 4420 H 417.795 -0.45562 -0.492596 0
M  V30 4421 H 420.339 -1.78837 -0.991843 0
M  V30 4422 H 418.494 -1.71438 -3.47402 0
M  V30 4423 H 418.908 -3.92806 -3.47568 0
M  V30 4424 H 420.382 -2.79732 -4.75872 0
M  V30 4425 H 420.859 -1.18597 -4.22885 0
M  V30 4426 H 421.465 -2.61236 -3.35612 0
M  V30 4427 N 419.78 1.02168 -1.19998 0
M  V30 4428 C 421.026 1.7606 -1.01855 0
M  V30 4429 C 421.381 1.87178 0.445222 0
M  V30 4430 O 420.674 1.3828 1.32624 0
M  V30 4431 C 420.868 3.18081 -1.62969 0
M  V30 4432 C 420.697 3.20809 -3.15137 0
M  V30 4433 C 419.467 3.28342 -3.84083 0
M  V30 4434 C 421.665 3.07268 -4.1242 0
M  V30 4435 N 419.647 3.2052 -5.23584 0
M  V30 4436 C 421.018 3.0716 -5.38566 0
M  V30 4437 C 423.073 2.91448 -4.03686 0
M  V30 4438 C 421.776 2.92853 -6.56985 0
M  V30 4439 C 423.802 2.78494 -5.21723 0
M  V30 4440 C 423.164 2.79046 -6.46771 0
M  V30 4441 H 419.263 0.655192 -0.426905 0
M  V30 4442 H 421.847 1.21564 -1.52087 0
M  V30 4443 H 420.018 3.70882 -1.15329 0
M  V30 4444 H 421.75 3.80375 -1.38192 0
M  V30 4445 H 418.505 3.34859 -3.34913 0
M  V30 4446 H 418.929 3.19997 -5.96599 0
M  V30 4447 H 423.571 2.89838 -3.07821 0
M  V30 4448 H 421.289 2.93213 -7.53028 0
M  V30 4449 H 424.875 2.67278 -5.16773 0
M  V30 4450 H 423.755 2.69134 -7.36571 0
M  V30 4451 N 421.258 1.00505 1.21394 0
M  V30 4452 C 422.168 0.574806 2.27449 0
M  V30 4453 C 423.184 -0.382206 1.6975 0
M  V30 4454 O 424.36 -0.246027 1.99892 0
M  V30 4455 C 421.425 -0.0917414 3.46579 0
M  V30 4456 C 420.486 0.909758 4.1955 0
M  V30 4457 C 419.719 0.274924 5.32991 0
M  V30 4458 O 419.942 -0.928254 5.62796 0
M  V30 4459 O 418.876 0.985877 5.93771 0
M  V30 4460 H 422.702 1.45744 2.66444 0
M  V30 4461 H 420.287 0.773923 1.27792 0
M  V30 4462 H 422.169 -0.464551 4.18832 0
M  V30 4463 H 420.844 -0.948755 3.09484 0
M  V30 4464 H 419.751 1.33372 3.49518 0
M  V30 4465 H 421.084 1.73636 4.60555 0
M  V30 4466 N 422.737 -1.36956 0.779787 0
M  V30 4467 C 423.667 -2.32761 0.185651 0
M  V30 4468 C 424.648 -1.56177 -0.673989 0
M  V30 4469 O 425.833 -1.84378 -0.609797 0
M  V30 4470 C 422.963 -3.40418 -0.687964 0
M  V30 4471 C 421.917 -4.27941 0.0710102 0
M  V30 4472 C 421.243 -5.26681 -0.922573 0
M  V30 4473 C 422.543 -5.07006 1.25467 0
M  V30 4474 H 424.237 -2.82698 0.986008 0
M  V30 4475 H 421.783 -1.3592 0.475592 0
M  V30 4476 H 423.736 -4.06423 -1.11348 0
M  V30 4477 H 422.46 -2.89025 -1.52093 0
M  V30 4478 H 421.119 -3.63478 0.47739 0
M  V30 4479 H 420.767 -4.71565 -1.7503 0
M  V30 4480 H 420.467 -5.86103 -0.419237 0
M  V30 4481 H 421.991 -5.9556 -1.34686 0
M  V30 4482 H 423.405 -5.66105 0.905401 0
M  V30 4483 H 421.802 -5.75793 1.69063 0
M  V30 4484 H 422.872 -4.3921 2.05481 0
M  V30 4485 N 424.215 -0.530993 -1.48385 0
M  V30 4486 C 425.125 0.23503 -2.3342 0
M  V30 4487 C 426.141 0.93801 -1.46552 0
M  V30 4488 O 427.317 0.912745 -1.7953 0
M  V30 4489 C 424.382 1.26778 -3.22689 0
M  V30 4490 C 423.443 0.575038 -4.25431 0
M  V30 4491 C 422.676 1.55858 -5.10435 0
M  V30 4492 O 422.899 2.79129 -4.97437 0
M  V30 4493 O 421.833 1.09742 -5.91811 0
M  V30 4494 H 425.659 -0.461794 -3.00169 0
M  V30 4495 H 423.244 -0.291903 -1.46521 0
M  V30 4496 H 425.126 1.86457 -3.77904 0
M  V30 4497 H 423.801 1.94699 -2.586 0
M  V30 4498 H 422.708 -0.0622782 -3.74048 0
M  V30 4499 H 424.041 -0.062253 -4.92161 0
M  V30 4500 N 425.693 1.55336 -0.266172 0
M  V30 4501 C 426.641 2.23587 0.641228 0
M  V30 4502 C 427.635 1.22986 1.16494 0
M  V30 4503 O 428.841 1.40943 1.1196 0
M  V30 4504 H 425.216 0.717452 0.225315 0
M  V30 4505 H 427.187 2.9837 0.0426561 0
M  V30 4506 C 425.936 2.96369 1.81826 0
M  V30 4507 H 425.259 3.73563 1.42445 0
M  V30 4508 H 426.699 3.47459 2.42998 0
M  V30 4509 C 425.158 2.0133 2.70125 0
M  V30 4510 O 425.688 1.55875 3.70224 0
M  V30 4511 N 423.894 1.6802 2.37102 0
M  V30 4512 H 423.441 2.05181 1.55751 0
M  V30 4513 H 423.399 1.047 2.96454 0
M  V30 4514 N 427.171 -0.0066808 1.57599 0
M  V30 4515 C 428.118 -1.00024 2.08 0
M  V30 4516 C 429.088 -1.34549 0.973943 0
M  V30 4517 O 430.273 -1.44502 1.24595 0
M  V30 4518 C 427.413 -2.2891 2.58252 0
M  V30 4519 C 426.526 -2.00346 3.82734 0
M  V30 4520 C 425.661 -3.23265 4.21513 0
M  V30 4521 C 424.7 -2.90357 5.3885 0
M  V30 4522 N 423.837 -4.05793 5.72954 0
M  V30 4523 H 428.677 -0.563499 2.92624 0
M  V30 4524 H 426.214 -0.266592 1.44664 0
M  V30 4525 H 428.172 -3.04247 2.85464 0
M  V30 4526 H 426.802 -2.70265 1.76512 0
M  V30 4527 H 425.854 -1.15406 3.62471 0
M  V30 4528 H 427.166 -1.72086 4.68175 0
M  V30 4529 H 426.32 -4.06953 4.49971 0
M  V30 4530 H 425.059 -3.54657 3.34768 0
M  V30 4531 H 424.064 -2.05075 5.10122 0
M  V30 4532 H 425.289 -2.60219 6.27266 0
M  V30 4533 H 423.235 -4.37094 4.89167 0
M  V30 4534 H 423.152 -3.81034 6.52954 0
M  V30 4535 H 424.42 -4.90289 6.06001 0
M  V30 4536 N 428.649 -1.55105 -0.279332 0
M  V30 4537 C 429.612 -1.86783 -1.32834 0
M  V30 4538 C 430.612 -0.74199 -1.42657 0
M  V30 4539 O 431.802 -1.0102 -1.41918 0
M  V30 4540 C 428.934 -2.06746 -2.71052 0
M  V30 4541 H 430.127 -2.8055 -1.05979 0
M  V30 4542 H 427.68 -1.47499 -0.517087 0
M  V30 4543 H 428.415 -1.15339 -3.03097 0
M  V30 4544 H 428.2 -2.88711 -2.65309 0
M  V30 4545 H 429.69 -2.32549 -3.46858 0
M  V30 4546 N 430.127 0.543554 -1.4793 0
M  V30 4547 C 431.057 1.65888 -1.64327 0
M  V30 4548 C 432.038 1.62818 -0.492383 0
M  V30 4549 O 433.223 1.80226 -0.723338 0
M  V30 4550 C 430.353 3.04506 -1.67013 0
M  V30 4551 C 429.307 3.2243 -2.81466 0
M  V30 4552 C 428.633 4.61972 -2.69233 0
M  V30 4553 C 429.933 3.06496 -4.22915 0
M  V30 4554 H 431.627 1.52421 -2.57698 0
M  V30 4555 H 429.173 0.731849 -1.24016 0
M  V30 4556 H 431.126 3.82391 -1.77074 0
M  V30 4557 H 429.85 3.18964 -0.70212 0
M  V30 4558 H 428.509 2.46957 -2.70938 0
M  V30 4559 H 428.157 4.73247 -1.7043 0
M  V30 4560 H 427.857 4.74911 -3.46025 0
M  V30 4561 H 429.381 5.41974 -2.81242 0
M  V30 4562 H 430.795 3.74186 -4.34348 0
M  V30 4563 H 429.192 3.30938 -5.006 0
M  V30 4564 H 430.262 2.03077 -4.40327 0
M  V30 4565 N 431.605 1.3629 0.791371 0
M  V30 4566 C 432.515 1.32606 1.93527 0
M  V30 4567 C 433.531 0.228541 1.72493 0
M  V30 4568 O 434.707 0.460571 1.96063 0
M  V30 4569 C 431.772 1.11271 3.28359 0
M  V30 4570 C 430.833 2.3048 3.62185 0
M  V30 4571 C 430.066 2.10154 4.90583 0
M  V30 4572 O 430.289 1.07572 5.60165 0
M  V30 4573 O 429.223 2.97884 5.23019 0
M  V30 4574 H 433.049 2.28909 1.99585 0
M  V30 4575 H 430.634 1.16818 0.931344 0
M  V30 4576 H 432.516 1.01283 4.09047 0
M  V30 4577 H 431.191 0.180292 3.23198 0
M  V30 4578 H 430.098 2.46036 2.81811 0
M  V30 4579 H 431.431 3.22221 3.72068 0
M  V30 4580 N 433.083 -1.0153 1.20538 0
M  V30 4581 C 433.993 -2.13557 0.971113 0
M  V30 4582 C 435.009 -1.73845 -0.0734366 0
M  V30 4583 O 436.185 -2.01075 0.114299 0
M  V30 4584 C 433.25 -3.42661 0.527639 0
M  V30 4585 C 432.311 -3.96608 1.64319 0
M  V30 4586 C 431.544 -5.1955 1.22078 0
M  V30 4587 O 431.767 -5.70329 0.0900198 0
M  V30 4588 O 430.701 -5.66681 2.02871 0
M  V30 4589 H 434.527 -2.3619 1.90913 0
M  V30 4590 H 432.112 -1.11946 0.989362 0
M  V30 4591 H 433.994 -4.20404 0.289621 0
M  V30 4592 H 432.669 -3.21441 -0.381779 0
M  V30 4593 H 431.576 -3.20139 1.93551 0
M  V30 4594 H 432.909 -4.22219 2.52966 0
M  V30 4595 N 434.561 -1.01147 -1.20859 0
M  V30 4596 C 435.809 -0.696486 -1.89719 0
M  V30 4597 C 436.13 0.775788 -1.78904 0
M  V30 4598 O 435.4 1.55759 -1.18811 0
M  V30 4599 H 433.98 -0.254628 -0.702263 0
M  V30 4600 H 436.642 -1.28197 -1.46804 0
M  V30 4601 H 435.738 -0.975357 -2.96468 0
M  V30 4602 N 436.039 1.36541 -0.78704 0
M  V30 4603 C 436.987 2.31965 -0.171724 0
M  V30 4604 C 437.981 1.55689 0.667631 0
M  V30 4605 O 439.187 1.70969 0.562981 0
M  V30 4606 H 435.562 0.751101 -0.0367545 0
M  V30 4607 H 437.533 2.81428 -0.992017 0
M  V30 4608 C 436.282 3.40968 0.680904 0
M  V30 4609 H 435.605 3.99775 0.0443961 0
M  V30 4610 H 437.045 4.10063 1.07815 0
M  V30 4611 C 435.504 2.82338 1.83813 0
M  V30 4612 O 436.034 2.74311 2.93456 0
M  V30 4613 N 434.24 2.39661 1.6435 0
M  V30 4614 H 433.787 2.46389 0.751668 0
M  V30 4615 H 433.745 2.00779 2.4194 0
M  V30 4616 N 437.518 0.538854 1.48102 0
M  V30 4617 C 438.748 0.0122958 2.06596 0
M  V30 4618 C 439.156 -1.27861 1.39457 0
M  V30 4619 O 438.499 -1.77348 0.478907 0
M  V30 4620 C 438.561 -0.273131 3.58461 0
M  V30 4621 C 438.225 0.92561 4.47528 0
M  V30 4622 C 439.222 1.82637 4.86765 0
M  V30 4623 C 436.907 1.13511 4.89306 0
M  V30 4624 C 438.901 2.92047 5.66558 0
M  V30 4625 C 436.588 2.23233 5.68868 0
M  V30 4626 C 437.586 3.12333 6.07402 0
M  V30 4627 O 437.274 4.20155 6.85365 0
M  V30 4628 H 437.006 0.0344283 0.675123 0
M  V30 4629 H 439.56 0.746494 1.91355 0
M  V30 4630 H 437.79 -1.06141 3.71848 0
M  V30 4631 H 439.479 -0.742842 3.99045 0
M  V30 4632 H 440.245 1.67649 4.55103 0
M  V30 4633 H 436.124 0.450835 4.5879 0
M  V30 4634 H 439.668 3.6162 5.96554 0
M  V30 4635 H 435.565 2.38201 5.99942 0
M  V30 4636 H 436.333 4.17975 7.03732 0
M  V30 4637 N 438.996 -1.55193 0.274407 0
M  V30 4638 C 440.243 -1.99581 -0.342579 0
M  V30 4639 C 440.571 -1.1628 -1.55914 0
M  V30 4640 O 439.826 -0.22029 -1.94456 0
M  V30 4641 C 440.125 -3.49019 -0.769458 0
M  V30 4642 C 439.791 -4.49598 0.342389 0
M  V30 4643 C 438.453 -4.76821 0.647686 0
M  V30 4644 C 440.805 -5.0964 1.09163 0
M  V30 4645 C 438.133 -5.61354 1.70581 0
M  V30 4646 C 440.485 -5.95323 2.13948 0
M  V30 4647 C 439.149 -6.20867 2.45113 0
M  V30 4648 H 438.419 -0.730319 -0.125358 0
M  V30 4649 H 441.066 -1.87529 0.387971 0
M  V30 4650 H 439.371 -3.58544 -1.57967 0
M  V30 4651 H 441.068 -3.8077 -1.25757 0
M  V30 4652 H 437.658 -4.28496 0.094318 0
M  V30 4653 H 441.842 -4.88632 0.869024 0
M  V30 4654 H 437.098 -5.79392 1.9523 0
M  V30 4655 H 441.272 -6.40881 2.72478 0
M  V30 4656 H 438.899 -6.86162 3.27239 0
M  V30 4657 N 440.474 -0.00167713 -1.576 0
M  V30 4658 C 441.384 1.00548 -2.1196 0
M  V30 4659 C 442.4 1.3758 -1.06526 0
M  V30 4660 O 443.576 1.46278 -1.38436 0
M  V30 4661 C 440.641 2.27809 -2.6135 0
M  V30 4662 C 439.702 1.97074 -3.81393 0
M  V30 4663 C 438.935 3.18267 -4.28417 0
M  V30 4664 O 439.158 4.30009 -3.74765 0
M  V30 4665 O 438.092 3.02167 -5.20556 0
M  V30 4666 H 441.918 0.573373 -2.98238 0
M  V30 4667 H 439.503 0.217255 -1.47812 0
M  V30 4668 H 441.385 3.02568 -2.93309 0
M  V30 4669 H 440.06 2.70254 -1.78169 0
M  V30 4670 H 438.967 1.19785 -3.54404 0
M  V30 4671 H 440.3 1.59464 -4.65652 0
M  V30 4672 N 441.952 1.55251 0.271103 0
M  V30 4673 C 442.885 1.83191 1.36075 0
M  V30 4674 C 443.863 0.685091 1.47463 0
M  V30 4675 O 445.047 0.928292 1.64058 0
M  V30 4676 C 442.174 1.99521 2.73696 0
M  V30 4677 C 441.22 3.22081 2.79582 0
M  V30 4678 S 442.053 4.79388 2.38636 0
M  V30 4679 C 443.209 4.98693 3.78228 0
M  V30 4680 H 443.442 2.75327 1.12171 0
M  V30 4681 H 440.975 1.47046 0.470833 0
M  V30 4682 H 442.933 2.09613 3.52948 0
M  V30 4683 H 441.594 1.0827 2.9485 0
M  V30 4684 H 440.787 3.304 3.80594 0
M  V30 4685 H 440.389 3.10589 2.08352 0
M  V30 4686 H 442.681 4.84551 4.73515 0
M  V30 4687 H 443.624 6.00738 3.7486 0
M  V30 4688 H 444.032 4.26665 3.69618 0
M  V30 4689 N 443.43 -0.535701 1.48216 0
M  V30 4690 C 444.655 -1.32149 1.59848 0
M  V30 4691 C 445.08 -1.86338 0.256842 0
M  V30 4692 O 444.438 -1.64107 -0.770632 0
M  V30 4693 C 444.486 -2.45224 2.64381 0
M  V30 4694 O 443.59 -3.48093 2.21144 0
M  V30 4695 H 442.931 -0.391634 0.536208 0
M  V30 4696 H 445.461 -0.645202 1.94161 0
M  V30 4697 H 445.471 -2.91491 2.85476 0
M  V30 4698 H 444.146 -2.05143 3.61786 0
M  V30 4699 H 442.723 -3.07984 2.10239 0
M  V30 4700 N 444.908 -1.36708 -0.784132 0
M  V30 4701 C 446.136 -1.34398 -1.57305 0
M  V30 4702 C 446.551 0.0735577 -1.88657 0
M  V30 4703 O 445.908 1.03193 -1.50524 0
M  V30 4704 C 445.959 -2.17053 -2.89085 0
M  V30 4705 O 445.68 -3.53281 -2.59083 0
M  V30 4706 C 447.181 -2.22583 -3.83369 0
M  V30 4707 H 444.401 -0.460819 -0.487736 0
M  V30 4708 H 446.945 -1.79879 -0.972819 0
M  V30 4709 H 445.1 -1.75113 -3.45564 0
M  V30 4710 H 445.514 -3.9647 -3.43383 0
M  V30 4711 H 446.988 -2.84763 -4.72878 0
M  V30 4712 H 447.465 -1.23075 -4.21603 0
M  V30 4713 H 448.071 -2.64781 -3.32823 0
M  V30 4714 N 446.386 1.0089 -1.21074 0
M  V30 4715 C 447.616 1.77933 -1.04993 0
M  V30 4716 C 448.024 1.84847 0.403495 0
M  V30 4717 O 447.367 1.30606 1.29181 0
M  V30 4718 C 447.429 3.23541 -1.56722 0
M  V30 4719 C 447.093 3.40214 -3.05129 0
M  V30 4720 C 448.09 3.2881 -4.02716 0
M  V30 4721 C 445.775 3.65781 -3.44252 0
M  V30 4722 C 447.769 3.42732 -5.37414 0
M  V30 4723 C 445.456 3.79346 -4.79103 0
M  V30 4724 C 446.454 3.67827 -5.75493 0
M  V30 4725 O 446.142 3.80965 -7.07899 0
M  V30 4726 H 445.874 0.566157 -0.369381 0
M  V30 4727 H 448.428 1.27826 -1.60779 0
M  V30 4728 H 446.658 3.74766 -0.953285 0
M  V30 4729 H 448.347 3.82245 -1.36543 0
M  V30 4730 H 449.113 3.08986 -3.73835 0
M  V30 4731 H 444.992 3.73831 -2.69762 0
M  V30 4732 H 448.536 3.33658 -6.12632 0
M  V30 4733 H 444.433 3.98672 -5.07672 0
M  V30 4734 H 445.201 3.97937 -7.15254 0
M  V30 4735 N 447.864 1.01787 1.20321 0
M  V30 4736 C 449.089 0.727009 1.9424 0
M  V30 4737 C 449.514 -0.706179 1.74341 0
M  V30 4738 O 448.872 -1.48609 1.03852 0
M  V30 4739 C 448.92 1.06958 3.44372 0
M  V30 4740 O 448.024 0.181983 4.11998 0
M  V30 4741 H 447.365 0.269626 0.606793 0
M  V30 4742 H 449.895 1.36158 1.52716 0
M  V30 4743 H 449.905 1.02182 3.94997 0
M  V30 4744 H 448.58 2.11378 3.58179 0
M  V30 4745 H 447.157 0.287378 3.71791 0
M  V30 4746 N 449.342 -1.36122 0.79427 0
M  V30 4747 C 450.57 -2.03362 0.380989 0
M  V30 4748 C 450.985 -1.59881 -1.00416 0
M  V30 4749 O 450.342 -0.790515 -1.6449 0
M  V30 4750 C 450.393 -3.58804 0.440649 0
M  V30 4751 O 450.114 -4.007 1.77118 0
M  V30 4752 C 451.615 -4.43296 0.0186117 0
M  V30 4753 H 448.835 -0.652526 0.156367 0
M  V30 4754 H 451.379 -1.73998 1.07447 0
M  V30 4755 H 449.534 -3.8686 -0.204458 0
M  V30 4756 H 449.948 -4.95309 1.72538 0
M  V30 4757 H 451.422 -5.51887 0.111488 0
M  V30 4758 H 451.899 -4.2684 -1.03461 0
M  V30 4759 H 452.505 -4.20512 0.636395 0
M  V30 4760 N 450.82 -0.546701 -1.47814 0
M  V30 4761 C 451.768 0.220048 -2.31557 0
M  V30 4762 C 452.762 0.919472 -1.42275 0
M  V30 4763 O 453.968 0.841953 -1.59095 0
M  V30 4764 H 450.343 0.0898334 -0.746615 0
M  V30 4765 H 452.314 -0.505589 -2.94086 0
M  V30 4766 C 451.063 1.24353 -3.24702 0
M  V30 4767 H 450.386 0.714758 -3.93359 0
M  V30 4768 H 451.826 1.75112 -3.8615 0
M  V30 4769 C 450.285 2.28593 -2.47481 0
M  V30 4770 O 450.815 3.35334 -2.21165 0
M  V30 4771 N 449.021 2.02244 -2.08676 0
M  V30 4772 H 448.568 1.15455 -2.30278 0
M  V30 4773 H 448.526 2.72207 -1.57323 0
M  V30 4774 N 452.299 1.55045 -0.282633 0
M  V30 4775 C 453.715 1.59441 0.0712997 0
M  V30 4776 C 453.915 1.2998 1.53972 0
M  V30 4777 O 452.971 1.06431 2.28973 0
M  V30 4778 C 454.284 2.99097 -0.310104 0
M  V30 4779 C 455.832 3.1194 -0.257343 0
M  V30 4780 C 456.307 4.53875 -0.613297 0
M  V30 4781 N 457.798 4.5974 -0.565134 0
M  V30 4782 C 458.533 5.67603 -0.81326 0
M  V30 4783 N 458.029 6.83582 -1.1264 0
M  V30 4784 N 459.822 5.57187 -0.741553 0
M  V30 4785 H 451.973 1.72458 -1.23984 0
M  V30 4786 H 454.236 0.804549 -0.501403 0
M  V30 4787 H 453.942 3.25516 -1.33163 0
M  V30 4788 H 453.816 3.75616 0.345366 0
M  V30 4789 H 456.203 2.85281 0.754905 0
M  V30 4790 H 456.284 2.37618 -0.947178 0
M  V30 4791 H 455.928 4.81261 -1.62327 0
M  V30 4792 H 455.858 5.26508 0.09841 0
M  V30 4793 H 458.349 3.76427 -0.333294 0
M  V30 4794 H 458.662 7.6175 -1.30219 0
M  V30 4795 H 457.007 6.85179 -1.16425 0
M  V30 4796 H 460.198 4.65457 -0.496705 0
M  V30 4797 H 460.371 6.41171 -0.938306 0
M  V30 4798 N 453.777 0.010035 1.57597 0
M  V30 4799 C 455.005 -0.683413 1.95287 0
M  V30 4800 C 455.42 -1.66747 0.885481 0
M  V30 4801 O 454.777 -1.82003 -0.134629 0
M  V30 4802 C 454.828 -1.40652 3.33015 0
M  V30 4803 O 454.549 -0.461916 4.35658 0
M  V30 4804 C 456.05 -2.19356 3.85225 0
M  V30 4805 H 453.27 -0.189708 0.643624 0
M  V30 4806 H 455.814 0.0641359 2.04399 0
M  V30 4807 H 453.969 -2.10562 3.2518 0
M  V30 4808 H 454.383 -0.973215 5.15392 0
M  V30 4809 H 455.857 -2.65433 4.83993 0
M  V30 4810 H 456.334 -3.02457 3.18459 0
M  V30 4811 H 456.94 -1.54442 3.96267 0
M  V30 4812 N 455.255 -1.55392 -0.262866 0
M  V30 4813 C 456.188 -1.8391 -1.35101 0
M  V30 4814 C 457.166 -0.692901 -1.47097 0
M  V30 4815 O 458.35 -0.936979 -1.63563 0
M  V30 4816 C 455.477 -2.00969 -2.72634 0
M  V30 4817 C 454.523 -3.23559 -2.7787 0
M  V30 4818 S 455.356 -4.80647 -2.3609 0
M  V30 4819 C 456.512 -5.00692 -3.75578 0
M  V30 4820 H 456.745 -2.75918 -1.1071 0
M  V30 4821 H 454.278 -1.47294 -0.463029 0
M  V30 4822 H 456.236 -2.11482 -3.51832 0
M  V30 4823 H 454.897 -1.09832 -2.94272 0
M  V30 4824 H 454.09 -3.32413 -3.78837 0
M  V30 4825 H 453.692 -3.11689 -2.06702 0
M  V30 4826 H 455.984 -4.87055 -4.70939 0
M  V30 4827 H 456.927 -6.02717 -3.71669 0
M  V30 4828 H 457.335 -4.28619 -3.6735 0
M  V30 4829 N 456.733 0.527833 -1.48498 0
M  V30 4830 C 457.982 1.28003 -1.55878 0
M  V30 4831 C 458.295 1.9414 -0.238577 0
M  V30 4832 O 459.501 2.7083 -0.190643 0
M  V30 4833 C 457.957 2.32272 -2.74914 0
M  V30 4834 C 457.565 1.72196 -4.13585 0
M  V30 4835 C 459.309 3.08488 -2.91608 0
M  V30 4836 C 457.216 2.74417 -5.23879 0
M  V30 4837 H 456.146 0.481413 -0.580308 0
M  V30 4838 H 458.797 0.557195 -1.74836 0
M  V30 4839 H 457.179 3.07601 -2.49395 0
M  V30 4840 H 458.353 1.03041 -4.49132 0
M  V30 4841 H 456.668 1.08464 -4.02025 0
M  V30 4842 H 459.265 3.84879 -3.71177 0
M  V30 4843 H 459.608 3.64481 -2.01145 0
M  V30 4844 H 460.141 2.40274 -3.17038 0
M  V30 4845 H 456.88 2.23242 -6.16314 0
M  V30 4846 H 456.4 3.41893 -4.92818 0
M  V30 4847 H 458.079 3.37362 -5.52083 0
M  V30 4848 N 458.211 1.37122 0.776871 0
M  V30 4849 C 459.627 1.1781 1.07671 0
M  V30 4850 C 459.827 0.0107454 2.01497 0
M  V30 4851 O 458.883 -0.650756 2.4397 0
M  V30 4852 C 460.196 2.49451 1.67913 0
M  V30 4853 C 461.744 2.55927 1.80195 0
M  V30 4854 C 462.219 3.87686 2.43851 0
M  V30 4855 N 463.71 3.891 2.51307 0
M  V30 4856 C 464.445 4.87797 3.014 0
M  V30 4857 N 463.941 5.96888 3.51705 0
M  V30 4858 N 465.734 4.75205 3.00227 0
M  V30 4859 H 457.885 2.11843 0.153778 0
M  V30 4860 H 460.148 0.938927 0.130844 0
M  V30 4861 H 459.854 3.35207 1.06439 0
M  V30 4862 H 459.728 2.66169 2.67271 0
M  V30 4863 H 462.115 1.70582 2.40803 0
M  V30 4864 H 462.196 2.43097 0.796069 0
M  V30 4865 H 461.84 4.73444 1.83884 0
M  V30 4866 H 461.77 3.97817 3.45035 0
M  V30 4867 H 464.261 3.10293 2.157 0
M  V30 4868 H 464.574 6.68155 3.88316 0
M  V30 4869 H 462.919 6.0054 3.49824 0
M  V30 4870 H 466.11 3.89103 2.60224 0
M  V30 4871 H 466.283 5.52279 3.38957 0
M  V30 4872 N 459.689 -1.00246 1.21608 0
M  V30 4873 C 460.938 -1.73476 1.02902 0
M  V30 4874 C 461.251 -1.90643 -0.437561 0
M  V30 4875 O 462.457 -2.61105 -0.74407 0
M  V30 4876 C 460.913 -3.12079 1.79261 0
M  V30 4877 C 460.521 -3.02877 3.30106 0
M  V30 4878 C 462.265 -3.89421 1.68972 0
M  V30 4879 C 460.172 -4.36575 3.98944 0
M  V30 4880 H 459.102 -0.650408 0.381425 0
M  V30 4881 H 461.753 -1.11985 1.45367 0
M  V30 4882 H 460.135 -3.74196 1.2959 0
M  V30 4883 H 461.309 -2.49983 3.87098 0
M  V30 4884 H 459.624 -2.39022 3.40965 0
M  V30 4885 H 462.221 -4.88362 2.17731 0
M  V30 4886 H 462.564 -4.1122 0.648397 0
M  V30 4887 H 463.097 -3.33963 2.16133 0
M  V30 4888 H 459.836 -4.19978 5.03288 0
M  V30 4889 H 459.356 -4.8942 3.4674 0
M  V30 4890 H 461.035 -5.05364 4.04 0
M  V30 4891 N 461.167 -1.02423 -1.1978 0
M  V30 4892 C 462.097 -0.62157 -2.25075 0
M  V30 4893 C 463.078 0.367148 -1.6609 0
M  V30 4894 O 464.263 0.250892 -1.92573 0
M  V30 4895 C 461.393 0.0331826 -3.47284 0
M  V30 4896 C 460.347 -0.877323 -4.18912 0
M  V30 4897 C 459.673 -0.0879296 -5.34628 0
M  V30 4898 C 460.973 -2.18892 -4.74219 0
M  V30 4899 H 462.667 -1.50179 -2.59011 0
M  V30 4900 H 460.213 -0.723547 -1.24502 0
M  V30 4901 H 462.166 0.326488 -4.20133 0
M  V30 4902 H 460.89 0.948164 -3.12534 0
M  V30 4903 H 459.549 -1.15475 -3.47938 0
M  V30 4904 H 459.197 0.828941 -4.96123 0
M  V30 4905 H 458.897 -0.694359 -5.83483 0
M  V30 4906 H 460.421 0.198743 -6.10276 0
M  V30 4907 H 461.835 -1.95746 -5.38847 0
M  V30 4908 H 460.232 -2.74686 -5.33542 0
M  V30 4909 H 461.302 -2.84674 -3.92541 0
M  V30 4910 N 462.645 1.35699 -0.801477 0
M  V30 4911 C 463.892 1.98913 -0.379459 0
M  V30 4912 C 464.22 1.63592 1.05204 0
M  V30 4913 O 463.475 0.888563 1.74365 0
M  V30 4914 C 463.774 3.53828 -0.504041 0
M  V30 4915 C 463.44 4.09002 -1.8981 0
M  V30 4916 C 462.102 4.23783 -2.27951 0
M  V30 4917 C 464.454 4.38939 -2.81038 0
M  V30 4918 C 461.782 4.65816 -3.56696 0
M  V30 4919 C 464.134 4.82409 -4.09224 0
M  V30 4920 C 462.798 4.95395 -4.4737 0
M  V30 4921 H 462.068 0.727874 -0.138854 0
M  V30 4922 H 464.715 1.61994 -1.02128 0
M  V30 4923 H 463.02 3.91175 0.221242 0
M  V30 4924 H 464.717 4.00687 -0.158361 0
M  V30 4925 H 461.307 3.97946 -1.59176 0
M  V30 4926 H 465.491 4.27077 -2.52821 0
M  V30 4927 H 460.747 4.74059 -3.86106 0
M  V30 4928 H 464.921 5.04535 -4.80018 0
M  V30 4929 H 462.548 5.27724 -5.47185 0
M  V30 4930 N 464.123 0.554532 1.47522 0
M  V30 4931 C 465.086 -0.184174 2.28459 0
M  V30 4932 C 466.086 -0.845195 1.36796 0
M  V30 4933 O 467.276 -0.701467 1.59452 0
M  V30 4934 C 464.408 -1.26903 3.16399 0
M  V30 4935 H 465.601 0.526751 2.95238 0
M  V30 4936 H 463.154 0.311375 1.53167 0
M  V30 4937 H 463.889 -2.01244 2.54306 0
M  V30 4938 H 463.674 -0.799883 3.83854 0
M  V30 4939 H 465.164 -1.78794 3.77389 0
M  V30 4940 N 465.601 -1.54893 0.290851 0
M  V30 4941 C 466.848 -1.99933 -0.321391 0
M  V30 4942 C 467.176 -1.17927 -1.54672 0
M  V30 4943 O 466.431 -0.240902 -1.94212 0
M  V30 4944 C 466.73 -3.49815 -0.732397 0
M  V30 4945 C 466.396 -4.4921 0.390056 0
M  V30 4946 C 465.058 -4.76107 0.698223 0
M  V30 4947 C 467.41 -5.08453 1.14562 0
M  V30 4948 C 464.738 -5.59514 1.76526 0
M  V30 4949 C 467.09 -5.9302 2.2025 0
M  V30 4950 C 465.754 -6.18232 2.51684 0
M  V30 4951 H 465.024 -0.731608 -0.117605 0
M  V30 4952 H 467.671 -1.87107 0.407839 0
M  V30 4953 H 465.976 -3.60199 -1.54155 0
M  V30 4954 H 467.673 -3.82083 -1.21712 0
M  V30 4955 H 464.263 -4.28372 0.13976 0
M  V30 4956 H 468.447 -4.87683 0.920801 0
M  V30 4957 H 463.703 -5.77289 2.01364 0
M  V30 4958 H 467.877 -6.37955 2.7926 0
M  V30 4959 H 465.504 -6.82653 3.34499 0
M  V30 4960 N 467.08 -0.0183926 -1.57589 0
M  V30 4961 C 468.326 0.663543 -1.91638 0
M  V30 4962 C 468.659 1.72392 -0.894134 0
M  V30 4963 O 467.934 1.94316 0.0846449 0
M  V30 4964 C 468.217 1.28984 -3.36207 0
M  V30 4965 C 468.07 0.239761 -4.49161 0
M  V30 4966 C 469.389 2.2109 -3.80536 0
M  V30 4967 H 466.508 0.239746 -0.696915 0
M  V30 4968 H 469.15 -0.073456 -1.89858 0
M  V30 4969 H 467.3 1.91799 -3.37854 0
M  V30 4970 H 468.972 -0.390119 -4.59647 0
M  V30 4971 H 467.215 -0.435972 -4.31604 0
M  V30 4972 H 467.886 0.717383 -5.47319 0
M  V30 4973 H 470.362 1.68273 -3.80557 0
M  V30 4974 H 469.238 2.61869 -4.82406 0
M  V30 4975 H 469.499 3.09764 -3.15434 0
M  V30 4976 N 468.558 1.5553 0.254621 0
M  V30 4977 C 469.783 1.81383 1.00573 0
M  V30 4978 C 470.208 0.594419 1.78461 0
M  V30 4979 O 469.566 -0.456403 1.75461 0
M  V30 4980 C 469.614 3.04892 1.92545 0
M  V30 4981 O 468.718 2.81266 3.01601 0
M  V30 4982 H 468.059 0.598969 0.286587 0
M  V30 4983 H 470.589 2.02703 0.277952 0
M  V30 4984 H 470.599 3.34119 2.34155 0
M  V30 4985 H 469.274 3.93287 1.3527 0
M  V30 4986 H 467.851 2.63185 2.64174 0
M  V30 4987 N 470.036 -0.519951 1.48776 0
M  V30 4988 C 471.261 -1.30447 1.6124 0
M  V30 4989 C 471.686 -1.86055 0.276591 0
M  V30 4990 O 471.044 -1.64915 -0.753183 0
M  V30 4991 C 471.092 -2.42406 2.66967 0
M  V30 4992 O 470.196 -3.45728 2.24824 0
M  V30 4993 H 469.537 -0.385924 0.540332 0
M  V30 4994 H 472.067 -0.624572 1.94834 0
M  V30 4995 H 472.077 -2.88447 2.88552 0
M  V30 4996 H 470.752 -2.01294 3.63941 0
M  V30 4997 H 469.329 -3.05737 2.13494 0
M  V30 4998 N 471.514 -1.37532 -0.769588 0
M  V30 4999 C 472.76 -1.33057 -1.53048 0
M  V30 5000 C 473.093 0.0841865 -1.94017 0
M  V30 5001 O 472.368 1.04198 -1.64235 0
M  V30 5002 C 472.651 -2.27166 -2.79406 0
M  V30 5003 C 472.504 -3.77429 -2.44677 0
M  V30 5004 C 473.823 -2.19683 -3.81349 0
M  V30 5005 H 470.942 -0.484655 -0.555228 0
M  V30 5006 H 473.584 -1.68251 -0.882702 0
M  V30 5007 H 471.734 -1.97283 -3.34682 0
M  V30 5008 H 473.406 -4.17918 -1.953 0
M  V30 5009 H 471.649 -3.95892 -1.77346 0
M  V30 5010 H 472.32 -4.38716 -3.35011 0
M  V30 5011 H 474.796 -2.46029 -3.35573 0
M  V30 5012 H 473.672 -2.87668 -4.67481 0
M  V30 5013 H 473.933 -1.19045 -4.25771 0
M  V30 5014 N 472.992 0.995999 -1.22138 0
M  V30 5015 C 473.955 2.06711 -0.990109 0
M  V30 5016 C 474.955 1.60744 0.0422978 0
M  V30 5017 O 476.145 1.73095 -0.195895 0
M  V30 5018 C 473.277 3.37288 -0.49491 0
M  V30 5019 H 474.47 2.28661 -1.94047 0
M  V30 5020 H 472.023 1.16711 -1.03963 0
M  V30 5021 H 472.758 3.21022 0.459948 0
M  V30 5022 H 472.543 3.71986 -1.23971 0
M  V30 5023 H 474.033 4.16103 -0.353253 0
M  V30 5024 N 474.47 1.03057 1.19235 0
M  V30 5025 C 475.886 0.747947 1.40989 0
M  V30 5026 C 476.086 -0.666752 1.90149 0
M  V30 5027 O 475.142 -1.43249 2.07933 0
M  V30 5028 C 476.455 1.7855 2.41951 0
M  V30 5029 C 478.003 1.80524 2.55695 0
M  V30 5030 C 478.478 2.83243 3.59913 0
M  V30 5031 N 479.969 2.8207 3.67411 0
M  V30 5032 C 480.704 3.58204 4.47747 0
M  V30 5033 N 480.2 4.44057 5.31775 0
M  V30 5034 N 481.993 3.46738 4.42413 0
M  V30 5035 H 474.144 1.94367 0.856468 0
M  V30 5036 H 476.407 0.840412 0.438647 0
M  V30 5037 H 476.113 2.79973 2.12857 0
M  V30 5038 H 475.987 1.6092 3.41152 0
M  V30 5039 H 478.374 0.79778 2.84112 0
M  V30 5040 H 478.455 2.02229 1.56643 0
M  V30 5041 H 478.099 3.84161 3.32239 0
M  V30 5042 H 478.029 2.58795 4.5862 0
M  V30 5043 H 480.52 2.19803 3.074 0
M  V30 5044 H 480.833 4.98884 5.90199 0
M  V30 5045 H 479.178 4.48129 5.3123 0
M  V30 5046 H 482.369 2.79077 3.75811 0
M  V30 5047 H 482.542 4.06322 5.04783 0
M  V30 5048 N 475.948 -1.35272 0.808662 0
M  V30 5049 C 476.896 -2.31663 0.208606 0
M  V30 5050 C 477.89 -1.56731 -0.642778 0
M  V30 5051 O 479.096 -1.71843 -0.53571 0
M  V30 5052 H 475.471 -0.750421 0.0486993 0
M  V30 5053 H 477.442 -2.79814 1.03666 0
M  V30 5054 C 476.191 -3.42008 -0.626573 0
M  V30 5055 H 475.514 -3.99795 0.0192103 0
M  V30 5056 H 476.954 -4.11727 -1.01278 0
M  V30 5057 C 475.413 -2.85226 -1.79298 0
M  V30 5058 O 475.943 -2.78945 -2.89055 0
M  V30 5059 N 474.149 -2.42245 -1.60516 0
M  V30 5060 H 473.696 -2.47554 -0.712375 0
M  V30 5061 H 473.654 -2.04603 -2.38715 0
M  V30 5062 N 477.426 -0.562348 -1.47226 0
M  V30 5063 C 478.703 0.0256985 -1.95583 0
M  V30 5064 C 479.083 1.48032 -1.50498 0
M  V30 5065 O 478.431 2.15973 -0.746181 0
M  V30 5066 C 478.641 -0.125129 -3.48776 0
M  V30 5067 C 479.989 0.0175728 -4.24596 0
M  V30 5068 O 481.013 -0.0529341 -3.56161 0
M  V30 5069 O 479.872 0.170145 -5.46235 0
M  V30 5070 H 476.966 0.0612565 -0.824728 0
M  V30 5071 H 479.512 -0.629233 -1.57603 0
M  V30 5072 H 478.284 -1.13715 -3.74412 0
M  V30 5073 H 477.907 0.567178 -3.93534 0
M  V30 5074 N 478.904 1.54736 -0.299062 0
M  V30 5075 C 480.132 2.04512 0.313447 0
M  V30 5076 C 480.547 1.17643 1.47667 0
M  V30 5077 O 479.904 0.20164 1.81383 0
M  V30 5078 C 479.955 3.53171 0.771542 0
M  V30 5079 O 479.676 4.36736 -0.345379 0
M  V30 5080 C 481.177 4.18936 1.4494 0
M  V30 5081 H 478.397 0.667507 0.0683784 0
M  V30 5082 H 480.941 1.99752 -0.438129 0
M  V30 5083 H 479.096 3.58298 1.47314 0
M  V30 5084 H 479.51 5.24499 0.0109219 0
M  V30 5085 H 480.984 5.24482 1.72111 0
M  V30 5086 H 481.461 3.68554 2.38883 0
M  V30 5087 H 482.067 4.17879 0.791028 0
M  V30 5088 N 480.382 0.0267497 1.57577 0
M  V30 5089 C 481.63 -0.651116 1.91324 0
M  V30 5090 C 481.951 -1.72804 0.90353 0
M  V30 5091 O 481.221 -1.95822 -0.0552946 0
M  V30 5092 H 479.801 -0.243491 0.706202 0
M  V30 5093 H 482.463 0.0739935 1.94759 0
M  V30 5094 H 481.559 -1.10536 2.9187 0
M  V30 5095 N 481.861 -1.55662 -0.24637 0
M  V30 5096 C 483.091 -1.81312 -0.990438 0
M  V30 5097 C 483.499 -0.600234 -1.79426 0
M  V30 5098 O 482.842 0.440537 -1.78339 0
M  V30 5099 C 482.904 -3.0032 -1.97607 0
M  V30 5100 C 482.568 -4.36322 -1.35912 0
M  V30 5101 C 483.565 -5.14295 -0.761348 0
M  V30 5102 C 481.25 -4.83019 -1.37833 0
M  V30 5103 C 483.244 -6.37114 -0.190998 0
M  V30 5104 C 480.931 -6.05786 -0.804128 0
M  V30 5105 C 481.929 -6.82672 -0.211489 0
M  V30 5106 O 481.617 -8.03121 0.353845 0
M  V30 5107 H 481.349 -0.607233 -0.297058 0
M  V30 5108 H 483.903 -2.0356 -0.274351 0
M  V30 5109 H 482.133 -2.73829 -2.73047 0
M  V30 5110 H 483.822 -3.13057 -2.58361 0
M  V30 5111 H 484.588 -4.79337 -0.739013 0
M  V30 5112 H 480.467 -4.23165 -1.829 0
M  V30 5113 H 484.011 -6.97069 0.272206 0
M  V30 5114 H 479.908 -6.40222 -0.823792 0
M  V30 5115 H 480.676 -8.18131 0.245761 0
M  V30 5116 N 483.339 0.512053 -1.4905 0
M  V30 5117 C 484.569 1.28928 -1.61434 0
M  V30 5118 C 484.977 1.87107 -0.280647 0
M  V30 5119 O 484.32 1.68024 0.742537 0
M  V30 5120 C 484.382 2.466 -2.61588 0
M  V30 5121 C 484.046 2.09375 -4.06216 0
M  V30 5122 C 485.043 1.63994 -4.93358 0
M  V30 5123 C 482.728 2.19348 -4.51876 0
M  V30 5124 C 484.722 1.29076 -6.24194 0
M  V30 5125 C 482.409 1.84041 -5.82728 0
M  V30 5126 C 483.407 1.38978 -6.68711 0
M  V30 5127 O 483.095 1.04144 -7.97126 0
M  V30 5128 H 482.827 0.397668 -0.546659 0
M  V30 5129 H 485.381 0.622507 -1.9574 0
M  V30 5130 H 483.611 3.16318 -2.22441 0
M  V30 5131 H 485.3 3.08642 -2.63619 0
M  V30 5132 H 486.066 1.55744 -4.59313 0
M  V30 5133 H 481.945 2.53376 -3.85125 0
M  V30 5134 H 485.489 0.938303 -6.91261 0
M  V30 5135 H 481.386 1.91938 -6.16304 0
M  V30 5136 H 482.154 1.17387 -8.10039 0
M  V30 5137 N 484.817 1.37938 0.762283 0
M  V30 5138 C 486.045 1.36883 1.55147 0
M  V30 5139 C 486.46 -0.0435348 1.8875 0
M  V30 5140 O 485.817 -1.00786 1.52146 0
M  V30 5141 C 485.868 2.21624 2.85596 0
M  V30 5142 O 485.589 3.57358 2.5343 0
M  V30 5143 C 487.09 2.28653 3.7978 0
M  V30 5144 H 484.31 0.468521 0.480343 0
M  V30 5145 H 486.854 1.81404 0.944079 0
M  V30 5146 H 485.009 1.80588 3.42734 0
M  V30 5147 H 485.423 4.01883 3.37032 0
M  V30 5148 H 486.897 2.9225 4.68288 0
M  V30 5149 H 487.374 1.29767 4.19592 0
M  V30 5150 H 487.98 2.70043 3.28568 0
M  V30 5151 N 486.295 -0.989507 1.22664 0
M  V30 5152 C 487.535 -1.7447 1.06488 0
M  V30 5153 C 487.899 -1.8794 -0.392737 0
M  V30 5154 O 489.1 -2.60175 -0.675446 0
M  V30 5155 C 487.371 -3.11043 1.76031 0
M  V30 5156 S 488.93 -4.02258 1.7531 0
M  V30 5157 H 485.748 -0.600123 0.381278 0
M  V30 5158 H 488.35 -1.18283 1.55658 0
M  V30 5159 H 487.054 -2.98884 2.81241 0
M  V30 5160 H 486.585 -3.72301 1.27105 0
M  V30 5161 H 488.6 -4.89623 0.805208 0
M  V30 5162 N 487.773 -1.03688 -1.18687 0
M  V30 5163 C 488.998 -0.757819 -1.93059 0
M  V30 5164 C 489.423 0.678353 -1.75442 0
M  V30 5165 O 488.781 1.46938 -1.06203 0
M  V30 5166 C 488.829 -1.12423 -3.42627 0
M  V30 5167 O 487.933 -0.247505 -4.11657 0
M  V30 5168 H 487.274 -0.279245 -0.602427 0
M  V30 5169 H 489.804 -1.3857 -1.5053 0
M  V30 5170 H 489.814 -1.08454 -3.93322 0
M  V30 5171 H 488.489 -2.17049 -3.54771 0
M  V30 5172 H 487.066 -0.34649 -3.71287 0
M  V30 5173 N 489.251 1.34841 -0.815825 0
M  V30 5174 C 490.476 2.03261 -0.41226 0
M  V30 5175 C 490.901 1.61055 0.971751 0
M  V30 5176 O 490.259 0.7917 1.63101 0
M  V30 5177 C 490.307 3.56914 -0.514289 0
M  V30 5178 O 489.411 4.09728 0.468675 0
M  V30 5179 H 488.752 0.641664 -0.170771 0
M  V30 5180 H 491.282 1.72241 -1.10427 0
M  V30 5181 H 491.292 4.06156 -0.387457 0
M  V30 5182 H 489.967 3.86982 -1.52375 0
M  V30 5183 H 488.544 3.71681 0.301316 0
M  V30 5184 N 490.729 0.570148 1.46925 0
M  V30 5185 C 491.954 0.0542592 2.07329 0
M  V30 5186 C 492.379 -1.23582 1.41806 0
M  V30 5187 O 491.737 -1.74341 0.497479 0
M  V30 5188 C 491.785 -0.111175 3.60429 0
M  V30 5189 O 490.889 -1.17071 3.95434 0
M  V30 5190 H 490.23 0.0571425 0.661537 0
M  V30 5191 H 492.76 0.789516 1.88753 0
M  V30 5192 H 492.77 -0.321315 4.06733 0
M  V30 5193 H 491.445 0.831012 4.07513 0
M  V30 5194 H 490.022 -0.940029 3.60857 0
M  V30 5195 N 492.207 -1.54576 0.307264 0
M  V30 5196 C 493.154 -2.23751 -0.56604 0
M  V30 5197 C 494.124 -1.22235 -1.12462 0
M  V30 5198 O 495.309 -1.50873 -1.16799 0
M  V30 5199 C 492.449 -2.98661 -1.72903 0
M  V30 5200 C 491.562 -4.14963 -1.20124 0
M  V30 5201 C 490.697 -4.77441 -2.3286 0
M  V30 5202 C 489.736 -5.85875 -1.77247 0
M  V30 5203 N 488.873 -6.42282 -2.8358 0
M  V30 5204 H 493.713 -2.97984 0.0304578 0
M  V30 5205 H 491.25 -1.47076 0.0268015 0
M  V30 5206 H 493.208 -3.40329 -2.41313 0
M  V30 5207 H 491.838 -2.26793 -2.29706 0
M  V30 5208 H 490.89 -3.78193 -0.409198 0
M  V30 5209 H 492.202 -4.93066 -0.754171 0
M  V30 5210 H 491.356 -5.21993 -3.09205 0
M  V30 5211 H 490.095 -3.98684 -2.80896 0
M  V30 5212 H 489.1 -5.40741 -0.993926 0
M  V30 5213 H 490.325 -6.6652 -1.30107 0
M  V30 5214 H 488.271 -5.66406 -3.30939 0
M  V30 5215 H 488.188 -7.1575 -2.43388 0
M  V30 5216 H 489.456 -6.91492 -3.59804 0
M  V30 5217 N 493.685 -0.035106 -1.57561 0
M  V30 5218 C 494.635 0.954034 -2.0708 0
M  V30 5219 C 495.619 1.2818 -0.972558 0
M  V30 5220 O 496.811 1.26691 -1.23606 0
M  V30 5221 C 493.94 2.23442 -2.60631 0
M  V30 5222 C 493.026 1.93475 -3.77396 0
M  V30 5223 N 493.417 1.33802 -4.87781 0
M  V30 5224 C 491.715 2.23434 -3.85996 0
M  V30 5225 C 492.416 1.21103 -5.68954 0
M  V30 5226 N 491.392 1.70855 -5.16052 0
M  V30 5227 H 495.194 0.487731 -2.89825 0
M  V30 5228 H 492.708 0.169759 -1.6151 0
M  V30 5229 H 494.705 2.95183 -2.94402 0
M  V30 5230 H 493.365 2.70693 -1.79319 0
M  V30 5231 H 494.376 1.01227 -5.07911 0
M  V30 5232 H 491.053 2.73317 -3.15601 0
M  V30 5233 H 492.443 0.749105 -6.67711 0
M  V30 5234 N 495.163 1.55791 0.238111 0
M  V30 5235 C 496.574 1.68383 0.806472 0
M  V30 5236 C 496.925 0.634157 1.85669 0
M  V30 5237 O 496.05 -0.217913 2.153 0
M  V30 5238 C 496.645 3.05268 1.46959 0
M  V30 5239 C 495.204 3.1977 1.98555 0
M  V30 5240 C 494.351 2.64279 0.839763 0
M  V30 5241 H 497.302 1.58694 0.0137535 0
M  V30 5242 H 497.323 3.00203 2.33792 0
M  V30 5243 H 496.835 3.81643 0.704993 0
M  V30 5244 H 494.936 2.48234 2.77868 0
M  V30 5245 H 495.049 4.26788 2.17689 0
M  V30 5246 H 493.413 2.22329 1.24265 0
M  V30 5247 H 494.196 3.43187 0.0881032 0
M  V30 5248 N 496.642 -0.504142 1.49319 0
M  V30 5249 C 497.867 -1.28729 1.62615 0
M  V30 5250 C 498.292 -1.85752 0.296309 0
M  V30 5251 O 497.65 -1.65704 -0.735649 0
M  V30 5252 C 497.698 -2.39561 2.69524 0
M  V30 5253 O 496.802 -3.43324 2.28478 0
M  V30 5254 H 496.143 -0.380172 0.544395 0
M  V30 5255 H 498.673 -0.603872 1.95485 0
M  V30 5256 H 498.683 -2.8537 2.91595 0
M  V30 5257 H 497.358 -1.97423 3.66056 0
M  V30 5258 H 495.935 -3.03455 2.16725 0
M  V30 5259 N 498.12 -1.38341 -0.754957 0
M  V30 5260 C 499.052 -1.31347 -1.87831 0
M  V30 5261 C 500.065 -0.225955 -1.61224 0
M  V30 5262 O 501.254 -0.48341 -1.7183 0
M  V30 5263 C 498.354 -1.01201 -3.23437 0
M  V30 5264 C 497.527 -2.20834 -3.77559 0
M  V30 5265 C 496.586 -1.87454 -4.91678 0
M  V30 5266 O 495.612 -2.59934 -5.06382 0
M  V30 5267 N 496.814 -0.828682 -5.74555 0
M  V30 5268 H 499.579 -2.28147 -1.94342 0
M  V30 5269 H 497.14 -1.32184 -0.934828 0
M  V30 5270 H 499.132 -0.769249 -3.97322 0
M  V30 5271 H 497.702 -0.132011 -3.12321 0
M  V30 5272 H 496.922 -2.61184 -2.95256 0
M  V30 5273 H 498.21 -3.00678 -4.10451 0
M  V30 5274 H 497.608 -0.227591 -5.65242 0
M  V30 5275 H 496.165 -0.645802 -6.48593 0
M  V30 5276 N 499.598 0.982988 -1.23187 0
M  V30 5277 C 500.823 1.76455 -1.08988 0
M  V30 5278 C 501.248 1.84726 0.354691 0
M  V30 5279 O 500.606 1.30699 1.25649 0
M  V30 5280 C 500.654 3.17094 -1.71708 0
M  V30 5281 O 499.758 4.00648 -0.977477 0
M  V30 5282 H 499.099 0.542988 -0.382177 0
M  V30 5283 H 501.629 1.23413 -1.63188 0
M  V30 5284 H 501.639 3.67684 -1.76841 0
M  V30 5285 H 500.314 3.10389 -2.76823 0
M  V30 5286 H 498.891 3.59161 -1.0029 0
M  V30 5287 N 501.076 1.04316 1.18135 0
M  V30 5288 C 502.039 0.640794 2.2006 0
M  V30 5289 C 503.039 -0.303124 1.57917 0
M  V30 5290 O 504.229 -0.0881855 1.73977 0
M  V30 5291 C 501.361 -0.060148 3.40847 0
M  V30 5292 H 502.554 1.54281 2.57172 0
M  V30 5293 H 500.107 0.836004 1.32063 0
M  V30 5294 H 500.842 -0.975845 3.0927 0
M  V30 5295 H 500.627 0.618319 3.87194 0
M  V30 5296 H 502.117 -0.328082 4.16309 0
M  V30 5297 N 502.554 -1.34406 0.822964 0
M  V30 5298 C 503.484 -2.32052 0.259608 0
M  V30 5299 C 504.465 -1.58243 -0.623961 0
M  V30 5300 O 505.65 -1.86224 -0.55083 0
M  V30 5301 C 502.78 -3.42434 -0.579314 0
M  V30 5302 C 501.734 -4.27499 0.20712 0
M  V30 5303 C 501.06 -5.29349 -0.754547 0
M  V30 5304 C 502.36 -5.02758 1.41533 0
M  V30 5305 H 504.054 -2.79418 1.07545 0
M  V30 5306 H 501.6 -1.34338 0.518593 0
M  V30 5307 H 503.553 -4.0976 -0.983612 0
M  V30 5308 H 502.277 -2.93717 -1.4282 0
M  V30 5309 H 500.936 -3.61776 0.592787 0
M  V30 5310 H 500.584 -4.76895 -1.59939 0
M  V30 5311 H 500.284 -5.8714 -0.232561 0
M  V30 5312 H 501.808 -5.99544 -1.1567 0
M  V30 5313 H 503.222 -5.62938 1.08504 0
M  V30 5314 H 501.619 -5.70123 1.87296 0
M  V30 5315 H 502.689 -4.32451 2.1935 0
M  V30 5316 N 504.032 -0.577932 -1.46621 0
M  V30 5317 C 505.278 -0.0617793 -2.02706 0
M  V30 5318 C 505.611 1.29294 -1.44903 0
M  V30 5319 O 504.886 1.8461 -0.61232 0
M  V30 5320 C 505.169 0.00911824 -3.60099 0
M  V30 5321 C 505.022 -1.37416 -4.28295 0
M  V30 5322 C 506.341 0.712159 -4.343 0
M  V30 5323 H 503.46 -0.0239246 -0.736612 0
M  V30 5324 H 506.102 -0.744211 -1.74818 0
M  V30 5325 H 504.252 0.590292 -3.83989 0
M  V30 5326 H 505.924 -2.00013 -4.15683 0
M  V30 5327 H 504.167 -1.94319 -3.87843 0
M  V30 5328 H 504.838 -1.27707 -5.37024 0
M  V30 5329 H 507.314 0.218486 -4.15526 0
M  V30 5330 H 506.19 0.730782 -5.44014 0
M  V30 5331 H 506.451 1.77251 -4.05012 0
M  V30 5332 N 505.51 1.54411 -0.315457 0
M  V30 5333 C 506.738 2.04833 0.291738 0
M  V30 5334 C 507.153 1.19203 1.46411 0
M  V30 5335 O 506.51 0.220867 1.81159 0
M  V30 5336 C 506.561 3.53969 0.73404 0
M  V30 5337 O 506.282 4.36346 -0.391682 0
M  V30 5338 C 507.783 4.2045 1.40489 0
M  V30 5339 H 505.003 0.668195 0.0612947 0
M  V30 5340 H 507.547 1.99276 -0.45929 0
M  V30 5341 H 505.702 3.5984 1.43506 0
M  V30 5342 H 506.116 5.24481 -0.0447088 0
M  V30 5343 H 507.59 5.26278 1.66539 0
M  V30 5344 H 508.067 3.71067 2.3496 0
M  V30 5345 H 508.673 4.18694 0.746662 0
M  V30 5346 N 506.988 0.0434614 1.5754 0
M  V30 5347 C 508.237 -0.631454 1.91561 0
M  V30 5348 C 508.55 -1.72457 0.92292 0
M  V30 5349 O 509.756 -2.45712 1.15489 0
M  V30 5350 C 508.212 -1.17447 3.40197 0
M  V30 5351 C 507.82 -0.113867 4.47855 0
M  V30 5352 C 509.564 -1.82507 3.83264 0
M  V30 5353 C 507.471 -0.669326 5.876 0
M  V30 5354 H 506.401 -0.239629 0.714908 0
M  V30 5355 H 509.052 0.111097 1.83163 0
M  V30 5356 H 507.434 -1.96909 3.43574 0
M  V30 5357 H 508.608 0.659348 4.56058 0
M  V30 5358 H 506.923 0.438821 4.14081 0
M  V30 5359 H 509.52 -2.25047 4.85034 0
M  V30 5360 H 509.863 -2.67365 3.19095 0
M  V30 5361 H 510.396 -1.09712 3.82372 0
M  V30 5362 H 507.135 0.141449 6.55347 0
M  V30 5363 H 506.655 -1.4107 5.82974 0
M  V30 5364 H 508.334 -1.15463 6.36614 0
M  V30 5365 N 508.466 -1.55915 -0.229846 0
M  V30 5366 C 509.712 -1.78807 -0.956868 0
M  V30 5367 C 510.045 -0.611687 -1.84315 0
M  V30 5368 O 509.32 0.389398 -1.90562 0
M  V30 5369 C 509.603 -3.11718 -1.80288 0
M  V30 5370 C 509.456 -4.3979 -0.943649 0
M  V30 5371 C 510.775 -3.40999 -2.78222 0
M  V30 5372 H 507.894 -0.6505 -0.346437 0
M  V30 5373 H 510.536 -1.88648 -0.226252 0
M  V30 5374 H 508.686 -3.03459 -2.42579 0
M  V30 5375 H 510.358 -4.60059 -0.338121 0
M  V30 5376 H 508.601 -4.33086 -0.248705 0
M  V30 5377 H 509.272 -5.29208 -1.5698 0
M  V30 5378 H 511.748 -3.49332 -2.26067 0
M  V30 5379 H 510.624 -4.35183 -3.34526 0
M  V30 5380 H 510.885 -2.62754 -3.55546 0
M  V30 5381 N 509.944 0.496216 -1.49584 0
M  V30 5382 C 510.854 1.62352 -1.69349 0
M  V30 5383 C 511.87 1.64184 -0.576147 0
M  V30 5384 O 513.046 1.82517 -0.85144 0
M  V30 5385 C 510.111 2.98698 -1.76013 0
M  V30 5386 C 509.172 3.07454 -2.99617 0
M  V30 5387 C 508.405 4.37296 -3.05953 0
M  V30 5388 O 508.628 5.2637 -2.19752 0
M  V30 5389 O 507.562 4.51124 -3.9846 0
M  V30 5390 H 511.388 1.48606 -2.64859 0
M  V30 5391 H 508.973 0.673022 -1.33382 0
M  V30 5392 H 510.855 3.79725 -1.82721 0
M  V30 5393 H 509.53 3.12696 -0.836828 0
M  V30 5394 H 508.437 2.25597 -2.98424 0
M  V30 5395 H 509.77 2.98385 -3.91443 0
M  V30 5396 N 511.423 1.38739 0.74761 0
M  V30 5397 C 512.37 1.36449 1.86146 0
M  V30 5398 C 513.34 0.226098 1.64554 0
M  V30 5399 O 514.525 0.41926 1.86137 0
M  V30 5400 C 511.665 1.2013 3.23516 0
M  V30 5401 C 510.778 2.43407 3.56899 0
M  V30 5402 C 509.913 2.19773 4.83605 0
M  V30 5403 C 508.952 3.3879 5.09792 0
M  V30 5404 N 508.089 3.14553 6.27695 0
M  V30 5405 H 512.929 2.3167 1.87438 0
M  V30 5406 H 510.466 1.15094 0.916063 0
M  V30 5407 H 512.424 1.08683 4.02795 0
M  V30 5408 H 511.054 0.285453 3.21535 0
M  V30 5409 H 510.106 2.65504 2.72418 0
M  V30 5410 H 511.418 3.32094 3.72176 0
M  V30 5411 H 510.572 2.05496 5.70838 0
M  V30 5412 H 509.311 1.28461 4.70478 0
M  V30 5413 H 508.316 3.53579 4.21025 0
M  V30 5414 H 509.541 4.30986 5.24812 0
M  V30 5415 H 507.487 2.25893 6.1588 0
M  V30 5416 H 507.404 3.96791 6.435 0
M  V30 5417 H 508.672 3.03943 7.17801 0
M  V30 5418 N 512.901 -0.976442 1.23707 0
M  V30 5419 C 514.149 -1.71487 1.06942 0
M  V30 5420 C 514.47 -1.9098 -0.393897 0
M  V30 5421 O 513.74 -1.48128 -1.28198 0
M  V30 5422 H 512.32 -0.635425 0.392739 0
M  V30 5423 H 514.982 -1.17515 1.55487 0
M  V30 5424 H 514.078 -2.70286 1.56051 0
M  V30 5425 N 514.379 -1.04941 -1.1758 0
M  V30 5426 C 515.626 -0.757989 -1.87779 0
M  V30 5427 C 515.954 0.714827 -1.80888 0
M  V30 5428 O 515.209 1.53824 -1.20982 0
M  V30 5429 C 515.508 -1.18062 -3.37337 0
M  V30 5430 C 515.174 -2.65521 -3.6443 0
M  V30 5431 C 513.836 -3.05804 -3.71534 0
M  V30 5432 C 516.188 -3.60822 -3.76108 0
M  V30 5433 C 513.516 -4.40256 -3.87803 0
M  V30 5434 C 515.868 -4.95005 -3.93895 0
M  V30 5435 C 514.532 -5.34945 -3.99237 0
M  V30 5436 H 513.802 -0.277368 -0.68713 0
M  V30 5437 H 516.449 -1.31603 -1.39115 0
M  V30 5438 H 514.754 -0.541525 -3.8804 0
M  V30 5439 H 516.451 -0.932368 -3.9001 0
M  V30 5440 H 513.041 -2.33324 -3.59524 0
M  V30 5441 H 517.225 -3.30841 -3.69943 0
M  V30 5442 H 512.481 -4.70707 -3.90186 0
M  V30 5443 H 516.655 -5.68746 -4.01872 0
M  V30 5444 H 514.282 -6.39135 -4.11596 0
M  V30 5445 N 515.857 1.33968 -0.830081 0
M  V30 5446 C 517.106 1.97323 -0.417928 0
M  V30 5447 C 517.419 1.6652 1.02618 0
M  V30 5448 O 518.625 2.2342 1.54259 0
M  V30 5449 C 517.081 3.53099 -0.696359 0
M  V30 5450 C 516.689 3.92788 -2.15457 0
M  V30 5451 C 518.433 4.23049 -0.350724 0
M  V30 5452 C 516.34 5.41506 -2.37751 0
M  V30 5453 H 515.27 0.738409 -0.152541 0
M  V30 5454 H 517.921 1.52711 -1.01744 0
M  V30 5455 H 516.303 3.95991 -0.0265904 0
M  V30 5456 H 517.477 3.6098 -2.86408 0
M  V30 5457 H 515.792 3.35795 -2.46232 0
M  V30 5458 H 518.389 5.32403 -0.495036 0
M  V30 5459 H 518.732 4.10279 0.705476 0
M  V30 5460 H 519.265 3.85657 -0.975362 0
M  V30 5461 H 516.004 5.5927 -3.41903 0
M  V30 5462 H 515.524 5.74804 -1.7135 0
M  V30 5463 H 517.203 6.0828 -2.20465 0
M  V30 5464 N 517.335 0.585699 1.46312 0
M  V30 5465 C 518.283 -0.158577 2.32059 0
M  V30 5466 C 519.277 -0.881427 1.44662 0
M  V30 5467 O 520.483 -0.799476 1.61271 0
M  V30 5468 H 516.858 -0.0700066 0.748734 0
M  V30 5469 H 518.829 0.583383 2.92642 0
M  V30 5470 C 517.578 -1.15701 3.27885 0
M  V30 5471 H 516.901 -0.610215 3.95116 0
M  V30 5472 H 518.341 -1.64812 3.90657 0
M  V30 5473 C 516.8 -2.21951 2.53455 0
M  V30 5474 O 517.33 -3.29352 2.29978 0
M  V30 5475 N 515.536 -1.9664 2.13965 0
M  V30 5476 H 515.083 -1.09309 2.33258 0
M  V30 5477 H 515.041 -2.6794 1.64485 0
M  V30 5478 N 518.813 -1.54241 0.323641 0
M  V30 5479 C 519.776 -2.22997 -0.529602 0
M  V30 5480 C 520.776 -1.22345 -1.04347 0
M  V30 5481 O 521.966 -1.46924 -0.935889 0
M  V30 5482 C 519.098 -2.93409 -1.73562 0
M  V30 5483 H 520.291 -2.99815 0.0714518 0
M  V30 5484 H 517.844 -1.56121 0.0747258 0
M  V30 5485 H 518.579 -2.20729 -2.37591 0
M  V30 5486 H 518.364 -3.67217 -1.37456 0
M  V30 5487 H 519.854 -3.45794 -2.34128 0
M  V30 5488 N 520.291 -0.0518155 -1.57515 0
M  V30 5489 C 521.519 0.631395 -1.9703 0
M  V30 5490 C 521.934 1.64341 -0.92938 0
M  V30 5491 O 521.291 1.82296 0.0863266 0
M  V30 5492 C 521.342 1.31774 -3.36627 0
M  V30 5493 O 521.063 0.346247 -4.3673 0
M  V30 5494 C 522.564 2.09065 -3.90905 0
M  V30 5495 H 519.784 0.172576 -0.648428 0
M  V30 5496 H 522.328 -0.118306 -2.04158 0
M  V30 5497 H 520.483 2.01867 -3.30649 0
M  V30 5498 H 520.897 0.836226 -5.17791 0
M  V30 5499 H 522.371 2.52508 -4.9086 0
M  V30 5500 H 522.848 2.93908 -3.26366 0
M  V30 5501 H 523.454 1.43882 -4.00223 0
M  V30 5502 N 521.769 1.56035 0.221574 0
M  V30 5503 C 522.717 1.93269 1.29421 0
M  V30 5504 C 523.711 0.814727 1.48521 0
M  V30 5505 O 524.917 0.999559 1.49696 0
M  V30 5506 H 521.292 0.614188 0.43391 0
M  V30 5507 H 523.263 2.82773 0.952987 0
M  V30 5508 C 522.012 2.26573 2.63742 0
M  V30 5509 H 521.335 3.12112 2.49853 0
M  V30 5510 H 522.775 2.5651 3.37607 0
M  V30 5511 C 521.234 1.09086 3.1875 0
M  V30 5512 O 521.764 0.351985 4.00155 0
M  V30 5513 N 519.97 0.874693 2.77124 0
M  V30 5514 H 519.517 1.47726 2.11033 0
M  V30 5515 H 519.475 0.0903349 3.1427 0
M  V30 5516 N 523.247 -0.488276 1.49845 0
M  V30 5517 C 524.472 -1.26997 1.63971 0
M  V30 5518 C 524.897 -1.85427 0.315994 0
M  V30 5519 O 524.255 -1.66475 -0.718032 0
M  V30 5520 C 524.303 -2.36689 2.72049 0
M  V30 5521 O 523.407 -3.40882 2.32107 0
M  V30 5522 H 522.748 -0.374376 0.548396 0
M  V30 5523 H 525.278 -0.583104 1.96115 0
M  V30 5524 H 525.288 -2.82262 2.94605 0
M  V30 5525 H 523.963 -1.93529 3.68129 0
M  V30 5526 H 522.54 -3.01139 2.19931 0
M  V30 5527 N 524.725 -1.39134 -0.740242 0
M  V30 5528 C 525.95 -1.39518 -1.53459 0
M  V30 5529 C 526.375 0.00968883 -1.88098 0
M  V30 5530 O 525.733 0.995312 -1.51536 0
M  V30 5531 C 525.781 -2.26981 -2.802 0
M  V30 5532 O 524.885 -1.69609 -3.75908 0
M  V30 5533 H 524.226 -0.475328 -0.463637 0
M  V30 5534 H 526.756 -1.83064 -0.913717 0
M  V30 5535 H 526.766 -2.41309 -3.28989 0
M  V30 5536 H 525.441 -3.29081 -2.5432 0
M  V30 5537 H 524.018 -1.64495 -3.34658 0
M  V30 5538 N 526.204 0.969867 -1.24223 0
M  V30 5539 C 527.114 2.09806 -1.0497 0
M  V30 5540 C 528.13 1.73998 0.00886455 0
M  V30 5541 O 529.306 2.00513 -0.188848 0
M  V30 5542 C 526.371 3.40467 -0.654452 0
M  V30 5543 C 525.432 3.90236 -1.78926 0
M  V30 5544 C 524.665 5.14662 -1.41277 0
M  V30 5545 O 524.888 5.69602 -0.301632 0
M  V30 5546 O 523.822 5.58761 -2.23763 0
M  V30 5547 H 527.648 2.28942 -1.99548 0
M  V30 5548 H 525.233 1.08197 -1.03023 0
M  V30 5549 H 527.115 4.19039 -0.445452 0
M  V30 5550 H 525.79 3.22636 0.262216 0
M  V30 5551 H 524.697 3.12735 -2.05299 0
M  V30 5552 H 526.03 4.1254 -2.68462 0
M  V30 5553 N 527.682 1.05563 1.17022 0
M  V30 5554 C 528.959 0.68165 1.83338 0
M  V30 5555 C 529.339 -0.837665 1.93769 0
M  V30 5556 O 528.687 -1.74507 1.47511 0
M  V30 5557 C 528.897 1.375 3.20772 0
M  V30 5558 C 530.245 1.51545 3.96635 0
M  V30 5559 O 531.269 1.33431 3.30264 0
M  V30 5560 O 530.128 1.812 5.15586 0
M  V30 5561 H 527.222 0.240412 0.791285 0
M  V30 5562 H 529.768 1.15545 1.24288 0
M  V30 5563 H 528.54 2.41135 3.08171 0
M  V30 5564 H 528.163 0.890798 3.87493 0
M  V30 5565 N 529.16 -1.33526 0.837174 0
M  V30 5566 C 530.39 -2.01754 0.444848 0
M  V30 5567 C 530.798 -1.63149 -0.958072 0
M  V30 5568 O 530.141 -0.839827 -1.63379 0
M  V30 5569 C 530.203 -3.56228 0.483917 0
M  V30 5570 C 529.867 -4.18205 1.84265 0
M  V30 5571 C 530.864 -4.37699 2.80563 0
M  V30 5572 C 528.549 -4.54667 2.13503 0
M  V30 5573 C 530.543 -4.928 4.04261 0
M  V30 5574 C 528.23 -5.09475 3.37458 0
M  V30 5575 C 529.228 -5.28488 4.32654 0
M  V30 5576 O 528.916 -5.82132 5.54417 0
M  V30 5577 H 528.648 -0.652928 0.175104 0
M  V30 5578 H 531.202 -1.71469 1.13082 0
M  V30 5579 H 529.432 -3.85833 -0.258826 0
M  V30 5580 H 531.121 -4.05752 0.109653 0
M  V30 5581 H 531.887 -4.0988 2.59274 0
M  V30 5582 H 527.766 -4.39164 1.40201 0
M  V30 5583 H 531.31 -5.07555 4.78574 0
M  V30 5584 H 527.207 -5.36725 3.58604 0
M  V30 5585 H 527.975 -6.00548 5.56133 0
M  V30 5586 N 530.638 -0.59345 -1.46 0
M  V30 5587 C 531.548 0.135817 -2.34207 0
M  V30 5588 C 532.564 0.875008 -1.50398 0
M  V30 5589 O 533.74 0.835778 -1.83239 0
M  V30 5590 C 530.805 1.12977 -3.27776 0
M  V30 5591 C 529.866 0.394081 -4.27487 0
M  V30 5592 C 529.099 1.34068 -5.16586 0
M  V30 5593 O 529.322 2.5778 -5.08828 0
M  V30 5594 O 528.256 0.845426 -5.95933 0
M  V30 5595 H 532.082 -0.588691 -2.9794 0
M  V30 5596 H 529.667 -0.353784 -1.45151 0
M  V30 5597 H 531.549 1.70261 -3.85473 0
M  V30 5598 H 530.224 1.83556 -2.66625 0
M  V30 5599 H 529.131 -0.220869 -3.73447 0
M  V30 5600 H 530.464 -0.270939 -4.91454 0
M  V30 5601 N 532.116 1.54067 -0.331816 0
M  V30 5602 C 533.365 1.99895 0.269209 0
M  V30 5603 C 533.678 1.22371 1.52593 0
M  V30 5604 O 534.884 1.58618 2.20347 0
M  V30 5605 C 533.34 3.55972 0.530244 0
M  V30 5606 C 532.948 4.4234 -0.709901 0
M  V30 5607 C 534.692 4.10247 1.09077 0
M  V30 5608 C 532.599 5.89905 -0.420312 0
M  V30 5609 H 531.529 0.746741 0.104371 0
M  V30 5610 H 534.18 1.78014 -0.445324 0
M  V30 5611 H 532.562 3.73873 1.30518 0
M  V30 5612 H 533.736 4.36215 -1.48504 0
M  V30 5613 H 532.051 3.98997 -1.19123 0
M  V30 5614 H 534.648 5.18095 1.32219 0
M  V30 5615 H 534.991 3.62739 2.0427 0
M  V30 5616 H 535.524 3.96011 0.376824 0
M  V30 5617 H 532.263 6.41623 -1.34164 0
M  V30 5618 H 531.783 5.98962 0.316962 0
M  V30 5619 H 533.462 6.46991 -0.0331956 0
M  V30 5620 N 533.594 0.0601682 1.57485 0
M  V30 5621 C 534.871 -0.651956 1.84415 0
M  V30 5622 C 535.251 -1.88498 0.950361 0
M  V30 5623 O 534.599 -2.28496 0.0136719 0
M  V30 5624 C 534.809 -1.00069 3.34346 0
M  V30 5625 C 536.157 -1.37915 4.01578 0
M  V30 5626 O 537.181 -1.09277 3.39024 0
M  V30 5627 O 536.04 -1.91399 5.11887 0
M  V30 5628 H 533.134 -0.322668 0.761455 0
M  V30 5629 H 535.68 0.0902159 1.6946 0
M  V30 5630 H 534.452 -0.124463 3.91102 0
M  V30 5631 H 534.075 -1.80001 3.54521 0
M  V30 5632 N 535.072 -1.5615 -0.213296 0
M  V30 5633 C 536.004 -1.89586 -1.28802 0
M  V30 5634 C 537.017 -0.784844 -1.42633 0
M  V30 5635 O 538.206 -1.06319 -1.43383 0
M  V30 5636 C 535.306 -2.09665 -2.66259 0
M  V30 5637 C 534.479 -3.40726 -2.7427 0
M  V30 5638 C 533.538 -3.50137 -3.92798 0
M  V30 5639 O 532.564 -4.23105 -3.8075 0
M  V30 5640 N 533.766 -2.81886 -5.07465 0
M  V30 5641 H 536.531 -2.82368 -1.00442 0
M  V30 5642 H 534.092 -1.56796 -0.403302 0
M  V30 5643 H 536.084 -2.13268 -3.43946 0
M  V30 5644 H 534.654 -1.23469 -2.87183 0
M  V30 5645 H 533.874 -3.4915 -1.82997 0
M  V30 5646 H 535.162 -4.27048 -2.76599 0
M  V30 5647 H 534.56 -2.22397 -5.2015 0
M  V30 5648 H 533.117 -2.91139 -5.83165 0
M  V30 5649 N 536.55 0.480323 -1.50102 0
M  V30 5650 C 537.78 1.25475 -1.64133 0
M  V30 5651 C 538.188 1.8647 -0.320272 0
M  V30 5652 O 537.531 1.69561 0.70673 0
M  V30 5653 C 537.593 2.40996 -2.6676 0
M  V30 5654 C 537.257 2.00711 -4.10565 0
M  V30 5655 C 538.254 1.53492 -4.96725 0
M  V30 5656 C 535.939 2.09714 -4.56427 0
M  V30 5657 C 537.933 1.15806 -6.26792 0
M  V30 5658 C 535.62 1.7164 -5.86501 0
M  V30 5659 C 536.618 1.24763 -6.71508 0
M  V30 5660 O 536.306 0.872122 -7.99155 0
M  V30 5661 H 536.038 0.385983 -0.554971 0
M  V30 5662 H 538.592 0.580848 -1.97016 0
M  V30 5663 H 536.822 3.11528 -2.291 0
M  V30 5664 H 538.511 3.02981 -2.70106 0
M  V30 5665 H 539.277 1.45966 -4.62514 0
M  V30 5666 H 535.156 2.4515 -3.90413 0
M  V30 5667 H 538.7 0.791465 -6.93096 0
M  V30 5668 H 534.597 1.78822 -6.20236 0
M  V30 5669 H 535.365 1.00178 -8.12346 0
M  V30 5670 N 538.028 1.39524 0.732853 0
M  V30 5671 C 538.938 1.40695 1.87729 0
M  V30 5672 C 539.954 0.301496 1.71368 0
M  V30 5673 O 541.13 0.543313 1.93933 0
M  V30 5674 C 538.195 1.25098 3.23344 0
M  V30 5675 C 537.256 2.45634 3.52083 0
M  V30 5676 C 536.489 2.30772 4.81228 0
M  V30 5677 O 536.712 1.31233 5.55098 0
M  V30 5678 O 535.646 3.19799 5.09914 0
M  V30 5679 H 539.472 2.37168 1.89697 0
M  V30 5680 H 537.057 1.20663 0.880959 0
M  V30 5681 H 538.939 1.18541 4.04383 0
M  V30 5682 H 537.614 0.317209 3.22142 0
M  V30 5683 H 536.521 2.57767 2.71122 0
M  V30 5684 H 537.854 3.37712 3.58066 0
M  V30 5685 N 539.506 -0.963266 1.24736 0
M  V30 5686 C 540.416 -2.09246 1.06082 0
M  V30 5687 C 541.432 -1.74 0.000363101 0
M  V30 5688 O 542.608 -2.0041 0.199479 0
M  V30 5689 C 539.673 -3.40115 0.672498 0
M  V30 5690 C 538.734 -3.89282 1.80993 0
M  V30 5691 C 537.967 -5.13905 1.44004 0
M  V30 5692 O 538.19 -5.69434 0.331835 0
M  V30 5693 O 537.124 -5.57566 2.26723 0
M  V30 5694 H 540.95 -2.27881 2.00759 0
M  V30 5695 H 538.535 -1.07649 1.03595 0
M  V30 5696 H 540.417 -4.18797 0.467668 0
M  V30 5697 H 539.092 -3.22771 -0.245102 0
M  V30 5698 H 537.999 -3.11642 2.06955 0
M  V30 5699 H 539.332 -4.1111 2.70646 0
M  V30 5700 N 540.985 -1.06182 -1.16461 0
M  V30 5701 C 542.232 -0.777863 -1.86964 0
M  V30 5702 C 542.56 0.695602 -1.81636 0
M  V30 5703 O 541.815 1.52532 -1.22607 0
M  V30 5704 C 542.114 -1.21633 -3.36066 0
M  V30 5705 C 541.78 -2.69371 -3.61594 0
M  V30 5706 C 540.442 -3.09727 -3.6827 0
M  V30 5707 C 542.794 -3.64791 -3.7226 0
M  V30 5708 C 540.122 -4.44345 -3.83112 0
M  V30 5709 C 542.474 -4.99155 -3.88623 0
M  V30 5710 C 541.138 -5.39149 -3.93541 0
M  V30 5711 H 540.408 -0.28464 -0.68415 0
M  V30 5712 H 543.055 -1.33071 -1.37711 0
M  V30 5713 H 541.36 -0.582651 -3.87443 0
M  V30 5714 H 543.057 -0.973682 -3.88999 0
M  V30 5715 H 539.647 -2.37124 -3.57029 0
M  V30 5716 H 543.831 -3.34746 -3.66413 0
M  V30 5717 H 539.087 -4.74819 -3.85172 0
M  V30 5718 H 543.261 -5.72976 -3.95817 0
M  V30 5719 H 540.888 -6.43464 -4.04794 0
M  V30 5720 N 542.463 1.3308 -0.844243 0
M  V30 5721 C 543.703 1.99414 -0.448697 0
M  V30 5722 C 544.067 1.65398 0.975058 0
M  V30 5723 O 545.268 2.24741 1.47461 0
M  V30 5724 C 543.539 3.51081 -0.669089 0
M  V30 5725 S 545.098 4.37241 -0.369564 0
M  V30 5726 H 541.916 0.690736 -0.168538 0
M  V30 5727 H 544.518 1.61977 -1.0947 0
M  V30 5728 H 543.222 3.73326 -1.70457 0
M  V30 5729 H 542.753 3.93399 -0.00913211 0
M  V30 5730 H 544.768 4.89568 0.808552 0
M  V30 5731 N 543.941 0.601185 1.45683 0
M  V30 5732 C 545.188 0.0938811 2.02282 0
M  V30 5733 C 545.516 -1.27315 1.47041 0
M  V30 5734 O 544.771 -1.85193 0.632623 0
M  V30 5735 C 545.07 -0.00222425 3.574 0
M  V30 5736 C 544.736 1.29963 4.31764 0
M  V30 5737 C 543.398 1.65625 4.51798 0
M  V30 5738 C 545.75 2.1603 4.74321 0
M  V30 5739 C 543.078 2.87119 5.11644 0
M  V30 5740 C 545.43 3.36766 5.3551 0
M  V30 5741 C 544.094 3.72689 5.53768 0
M  V30 5742 H 543.364 0.0343535 0.740203 0
M  V30 5743 H 546.011 0.781522 1.74827 0
M  V30 5744 H 544.316 -0.773096 3.84097 0
M  V30 5745 H 546.013 -0.410794 3.9889 0
M  V30 5746 H 542.603 1.01204 4.1648 0
M  V30 5747 H 546.787 1.89778 4.58582 0
M  V30 5748 H 542.043 3.15065 5.2397 0
M  V30 5749 H 546.217 4.03713 5.67441 0
M  V30 5750 H 543.844 4.66918 5.99909 0
M  V30 5751 N 545.419 -1.53889 0.339982 0
M  V30 5752 C 546.644 -2.05741 -0.261798 0
M  V30 5753 C 547.069 -1.21354 -1.43718 0
M  V30 5754 O 546.427 -0.22645 -1.7988 0
M  V30 5755 C 546.475 -3.54542 -0.658228 0
M  V30 5756 O 545.579 -3.7302 -1.75869 0
M  V30 5757 H 544.92 -0.662529 -0.0441672 0
M  V30 5758 H 547.45 -1.98568 0.493161 0
M  V30 5759 H 547.46 -3.9711 -0.936368 0
M  V30 5760 H 546.135 -4.15412 0.201358 0
M  V30 5761 H 544.712 -3.42355 -1.47809 0
M  V30 5762 N 546.897 -0.0685191 -1.57451 0
M  V30 5763 C 548.143 0.602239 -1.93652 0
M  V30 5764 C 548.476 1.6946 -0.948526 0
M  V30 5765 O 547.751 1.94487 0.022782 0
M  V30 5766 C 548.034 1.18223 -3.4014 0
M  V30 5767 C 547.887 0.0967431 -4.49696 0
M  V30 5768 C 549.206 2.08872 -3.87377 0
M  V30 5769 H 546.325 0.217453 -0.70419 0
M  V30 5770 H 548.967 -0.133821 -1.89528 0
M  V30 5771 H 547.117 1.80953 -3.43785 0
M  V30 5772 H 548.789 -0.536155 -4.58174 0
M  V30 5773 H 547.032 -0.573063 -4.29998 0
M  V30 5774 H 547.703 0.542894 -5.49324 0
M  V30 5775 H 550.179 1.56081 -3.85717 0
M  V30 5776 H 549.055 2.46389 -4.90493 0
M  V30 5777 H 549.316 2.99572 -3.25129 0
M  V30 5778 N 548.375 1.56261 0.205012 0
M  V30 5779 C 549.791 1.49623 0.555433 0
M  V30 5780 C 549.991 0.766719 1.86343 0
M  V30 5781 O 549.047 0.313158 2.50551 0
M  V30 5782 C 550.36 2.94253 0.619347 0
M  V30 5783 C 551.908 3.04868 0.708855 0
M  V30 5784 C 552.383 4.50888 0.803969 0
M  V30 5785 N 553.874 4.54999 0.867758 0
M  V30 5786 C 554.609 5.65284 0.96135 0
M  V30 5787 N 554.105 6.85282 1.01786 0
M  V30 5788 N 555.898 5.53174 0.997771 0
M  V30 5789 H 548.049 2.0211 -0.653094 0
M  V30 5790 H 550.312 0.919333 -0.231366 0
M  V30 5791 H 550.018 3.50643 -0.272458 0
M  V30 5792 H 549.892 3.47063 1.47741 0
M  V30 5793 H 552.279 2.48532 1.5911 0
M  V30 5794 H 552.36 2.55199 -0.175205 0
M  V30 5795 H 552.004 5.07846 -0.0738798 0
M  V30 5796 H 551.934 4.98279 1.70369 0
M  V30 5797 H 554.425 3.68588 0.833735 0
M  V30 5798 H 554.738 7.65081 1.08951 0
M  V30 5799 H 553.083 6.8796 0.986706 0
M  V30 5800 H 556.274 4.5835 0.950392 0
M  V30 5801 H 556.447 6.39151 1.06725 0
M  V30 5802 N 549.853 -0.472356 1.50355 0
M  V30 5803 C 551.1 -1.22453 1.61281 0
M  V30 5804 C 551.428 -1.91972 0.31256 0
M  V30 5805 O 550.683 -1.82696 -0.701475 0
M  V30 5806 C 550.982 -2.29257 2.74182 0
M  V30 5807 C 550.648 -1.76999 4.14708 0
M  V30 5808 C 549.31 -1.62467 4.52944 0
M  V30 5809 C 551.662 -1.38215 5.0254 0
M  V30 5810 C 548.99 -1.07574 5.76754 0
M  V30 5811 C 551.342 -0.847638 6.26895 0
M  V30 5812 C 550.006 -0.688946 6.63935 0
M  V30 5813 H 549.276 -0.448087 0.590168 0
M  V30 5814 H 551.923 -0.520744 1.84284 0
M  V30 5815 H 550.228 -3.05538 2.45263 0
M  V30 5816 H 551.925 -2.87212 2.7984 0
M  V30 5817 H 548.515 -1.89276 3.84542 0
M  V30 5818 H 552.699 -1.48276 4.73633 0
M  V30 5819 H 547.955 -0.940237 6.04127 0
M  V30 5820 H 552.129 -0.538455 6.94315 0
M  V30 5821 H 549.756 -0.261435 7.5975 0
M  V30 5822 N 551.331 -1.39911 -0.725443 0
M  V30 5823 C 552.278 -1.39393 -1.83952 0
M  V30 5824 C 553.248 -0.252249 -1.64173 0
M  V30 5825 O 554.433 -0.44882 -1.85446 0
M  V30 5826 C 551.573 -1.25262 -3.21564 0
M  V30 5827 C 550.686 -2.49054 -3.52982 0
M  V30 5828 C 549.821 -2.27439 -4.80047 0
M  V30 5829 C 548.86 -3.46857 -5.04338 0
M  V30 5830 N 547.997 -3.24499 -6.22611 0
M  V30 5831 H 552.837 -2.34622 -1.83729 0
M  V30 5832 H 550.374 -1.16537 -0.897636 0
M  V30 5833 H 552.332 -1.15077 -4.01015 0
M  V30 5834 H 550.962 -0.33657 -3.21041 0
M  V30 5835 H 550.014 -2.69805 -2.6816 0
M  V30 5836 H 551.326 -3.37973 -3.66846 0
M  V30 5837 H 550.48 -2.14551 -5.67497 0
M  V30 5838 H 549.219 -1.35929 -4.68374 0
M  V30 5839 H 548.224 -3.60232 -4.15346 0
M  V30 5840 H 549.449 -4.3928 -5.17889 0
M  V30 5841 H 547.395 -2.35663 -6.12208 0
M  V30 5842 H 547.312 -4.06978 -6.37106 0
M  V30 5843 H 548.58 -3.15325 -7.12875 0
M  V30 5844 N 552.809 0.956637 -1.25245 0
M  V30 5845 C 553.772 2.03457 -1.05537 0
M  V30 5846 C 554.772 1.60798 -0.00886317 0
M  V30 5847 O 555.962 1.72384 -0.250865 0
M  V30 5848 C 553.094 3.35543 -0.601965 0
M  V30 5849 H 554.287 2.22372 -2.01223 0
M  V30 5850 H 551.84 1.13344 -1.07623 0
M  V30 5851 H 552.575 3.22323 0.357584 0
M  V30 5852 H 552.36 3.67854 -1.35743 0
M  V30 5853 H 553.85 4.14769 -0.485454 0
M  V30 5854 N 554.287 1.06798 1.15896 0
M  V30 5855 C 555.517 0.807522 1.90165 0
M  V30 5856 C 555.925 -0.642417 1.7796 0
M  V30 5857 O 555.268 -1.45193 1.12537 0
M  V30 5858 C 555.33 1.12939 3.41299 0
M  V30 5859 C 554.994 2.57879 3.7729 0
M  V30 5860 C 555.991 3.56118 3.78782 0
M  V30 5861 C 553.676 2.93311 4.07767 0
M  V30 5862 C 555.67 4.87827 4.10248 0
M  V30 5863 C 553.357 4.25219 4.38899 0
M  V30 5864 C 554.355 5.22287 4.4012 0
M  V30 5865 O 554.043 6.51826 4.70508 0
M  V30 5866 H 553.775 0.291946 0.609708 0
M  V30 5867 H 556.329 1.42627 1.47806 0
M  V30 5868 H 554.559 0.45359 3.84031 0
M  V30 5869 H 556.248 0.852363 3.9685 0
M  V30 5870 H 557.014 3.30086 3.55342 0
M  V30 5871 H 552.893 2.18409 4.05979 0
M  V30 5872 H 556.437 5.63586 4.11116 0
M  V30 5873 H 552.334 4.51006 4.61805 0
M  V30 5874 H 553.102 6.56893 4.88298 0
M  V30 5875 N 555.766 -1.3263 0.851289 0
M  V30 5876 C 557.177 -1.79653 0.5081 0
M  V30 5877 C 557.528 -1.70327 -0.973815 0
M  V30 5878 O 556.653 -1.25986 -1.75944 0
M  V30 5879 C 557.248 -3.26196 0.915515 0
M  V30 5880 C 555.807 -3.71187 0.624277 0
M  V30 5881 C 554.954 -2.53804 1.11709 0
M  V30 5882 H 557.905 -1.19976 1.03882 0
M  V30 5883 H 557.926 -3.79801 0.230535 0
M  V30 5884 H 557.438 -3.32952 1.99411 0
M  V30 5885 H 555.539 -3.69948 -0.443737 0
M  V30 5886 H 555.652 -4.64132 1.18821 0
M  V30 5887 H 554.016 -2.48964 0.537484 0
M  V30 5888 H 554.799 -2.63315 2.20272 0
M  V30 5889 N 557.244 -0.608902 -1.45362 0
M  V30 5890 C 558.176 0.147318 -2.28726 0
M  V30 5891 C 559.189 0.830468 -1.40025 0
M  V30 5892 O 560.378 0.695636 -1.64387 0
M  V30 5893 C 557.478 1.22968 -3.15804 0
M  V30 5894 C 556.651 0.633391 -4.3279 0
M  V30 5895 C 555.71 1.60682 -5.01067 0
M  V30 5896 O 554.736 1.13261 -5.57818 0
M  V30 5897 N 555.938 2.94123 -5.00472 0
M  V30 5898 H 558.703 -0.568014 -2.94268 0
M  V30 5899 H 556.264 -0.448479 -1.55564 0
M  V30 5900 H 558.256 1.88072 -3.58345 0
M  V30 5901 H 556.826 1.84752 -2.52162 0
M  V30 5902 H 556.046 -0.195762 -3.93714 0
M  V30 5903 H 557.334 0.215255 -5.08344 0
M  V30 5904 H 556.732 3.3525 -4.55657 0
M  V30 5905 H 555.289 3.54646 -5.46872 0
M  V30 5906 N 558.722 1.53707 -0.348139 0
M  V30 5907 C 559.971 2.0017 0.247992 0
M  V30 5908 C 560.284 1.23983 1.51286 0
M  V30 5909 O 561.49 1.60946 2.18652 0
M  V30 5910 C 559.946 3.56515 0.492459 0
M  V30 5911 C 559.554 4.41562 -0.756777 0
M  V30 5912 C 561.298 4.11381 1.0472 0
M  V30 5913 C 559.205 5.89426 -0.482856 0
M  V30 5914 H 558.135 0.747806 0.0964452 0
M  V30 5915 H 560.786 1.77532 -0.464179 0
M  V30 5916 H 559.168 3.75236 1.26545 0
M  V30 5917 H 560.342 4.34615 -1.53122 0
M  V30 5918 H 558.657 3.97711 -1.23348 0
M  V30 5919 H 561.254 5.19468 1.26717 0
M  V30 5920 H 561.597 3.64885 2.00411 0
M  V30 5921 H 562.13 3.96389 0.334801 0
M  V30 5922 H 558.869 6.40164 -1.40962 0
M  V30 5923 H 558.389 5.99264 0.253416 0
M  V30 5924 H 560.068 6.4692 -0.101816 0
M  V30 5925 N 560.2 0.0768682 1.57412 0
M  V30 5926 C 561.616 -0.279772 1.57129 0
M  V30 5927 C 561.816 -1.69688 1.08666 0
M  V30 5928 O 560.872 -2.40953 0.754843 0
M  V30 5929 C 562.185 -0.0848055 3.0058 0
M  V30 5930 C 563.733 -0.153954 3.12621 0
M  V30 5931 C 564.208 0.0127946 4.57998 0
M  V30 5932 N 565.699 -0.0426435 4.6318 0
M  V30 5933 C 566.434 0.0618892 5.73367 0
M  V30 5934 N 565.93 0.220229 6.9245 0
M  V30 5935 N 567.723 0.00446072 5.621 0
M  V30 5936 H 559.874 1.00297 1.87228 0
M  V30 5937 H 562.137 0.391565 0.863354 0
M  V30 5938 H 561.843 0.89325 3.40168 0
M  V30 5939 H 561.717 -0.834961 3.67843 0
M  V30 5940 H 564.104 -1.1225 2.72917 0
M  V30 5941 H 564.185 0.627389 2.47987 0
M  V30 5942 H 563.829 0.978128 4.98392 0
M  V30 5943 H 563.759 -0.788016 5.20671 0
M  V30 5944 H 566.25 -0.163226 3.77547 0
M  V30 5945 H 566.563 0.291999 7.72248 0
M  V30 5946 H 564.908 0.255658 6.9453 0
M  V30 5947 H 568.099 -0.117979 4.67951 0
M  V30 5948 H 568.272 0.0893796 6.47938 0
M  V30 5949 N 561.678 -1.56367 -0.196722 0
M  V30 5950 C 562.918 -1.82315 -0.92415 0
M  V30 5951 C 563.282 -0.654117 -1.80514 0
M  V30 5952 O 564.483 -0.79345 -2.56823 0
M  V30 5953 C 562.754 -3.13279 -1.72021 0
M  V30 5954 S 564.313 -3.60627 -2.49988 0
M  V30 5955 H 561.131 -0.639862 -0.309997 0
M  V30 5956 H 563.733 -1.94597 -0.187684 0
M  V30 5957 H 562.437 -3.96379 -1.06358 0
M  V30 5958 H 561.968 -3.03871 -2.49852 0
M  V30 5959 H 563.983 -3.25934 -3.74141 0
M  V30 5960 N 563.156 0.464375 -1.50603 0
M  V30 5961 C 564.384 1.23907 -1.65695 0
M  V30 5962 C 564.799 1.85658 -0.343027 0
M  V30 5963 O 564.156 1.69529 0.675739 0
M  V30 5964 C 564.207 2.3429 -2.75301 0
M  V30 5965 O 563.928 1.7507 -4.01599 0
M  V30 5966 C 565.429 3.25051 -3.01424 0
M  V30 5967 H 562.649 0.374485 -0.556778 0
M  V30 5968 H 565.193 0.55353 -1.96866 0
M  V30 5969 H 563.348 2.98607 -2.46804 0
M  V30 5970 H 563.762 2.47812 -4.62266 0
M  V30 5971 H 565.236 3.98699 -3.81763 0
M  V30 5972 H 565.713 3.84227 -2.12758 0
M  V30 5973 H 566.319 2.66463 -3.31477 0
M  V30 5974 N 564.634 1.40294 0.718013 0
M  V30 5975 C 565.88 1.39648 1.47885 0
M  V30 5976 C 566.235 -0.0023879 1.924 0
M  V30 5977 O 565.528 -0.972304 1.65096 0
M  V30 5978 C 565.722 2.31814 2.72024 0
M  V30 5979 C 565.551 3.80523 2.3965 0
M  V30 5980 C 564.321 4.49351 2.3111 0
M  V30 5981 C 566.519 4.72077 2.04079 0
M  V30 5982 N 564.501 5.83305 1.91385 0
M  V30 5983 C 565.872 5.94809 1.74935 0
M  V30 5984 C 567.927 4.59935 1.90694 0
M  V30 5985 C 566.63 7.06755 1.33753 0
M  V30 5986 C 568.656 5.7182 1.50915 0
M  V30 5987 C 568.018 6.93637 1.22668 0
M  V30 5988 H 564.117 0.566263 0.539324 0
M  V30 5989 H 566.701 1.75986 0.832891 0
M  V30 5990 H 564.872 1.97607 3.34374 0
M  V30 5991 H 566.604 2.22042 3.38348 0
M  V30 5992 H 563.359 4.03002 2.4877 0
M  V30 5993 H 563.783 6.54239 1.74068 0
M  V30 5994 H 568.425 3.66274 2.11194 0
M  V30 5995 H 566.143 8.00302 1.11995 0
M  V30 5996 H 569.729 5.64421 1.4114 0
M  V30 5997 H 568.609 7.78743 0.923502 0
M  V30 5998 N 566.112 -0.949982 1.2575 0
M  V30 5999 C 567.34 -1.72972 1.13527 0
M  V30 6000 C 567.755 -1.8623 -0.310453 0
M  V30 6001 O 567.112 -1.36336 -1.2132 0
M  V30 6002 C 567.163 -3.14108 1.78936 0
M  V30 6003 O 566.884 -3.01493 3.17858 0
M  V30 6004 C 568.385 -4.08338 1.72554 0
M  V30 6005 H 565.605 -0.541864 0.395758 0
M  V30 6006 H 568.149 -1.19151 1.66202 0
M  V30 6007 H 566.304 -3.64858 1.30221 0
M  V30 6008 H 566.718 -3.90559 3.50092 0
M  V30 6009 H 568.192 -5.04963 2.22973 0
M  V30 6010 H 568.669 -4.33742 0.690251 0
M  V30 6011 H 569.275 -3.63506 2.2078 0
M  V30 6012 N 567.59 -1.07411 -1.15328 0
M  V30 6013 C 568.837 -0.797649 -1.86128 0
M  V30 6014 C 569.165 0.676298 -1.82364 0
M  V30 6015 O 568.42 1.51223 -1.24218 0
M  V30 6016 C 568.719 -1.25191 -3.34757 0
M  V30 6017 C 568.385 -2.73191 -3.58716 0
M  V30 6018 C 567.047 -3.13616 -3.64964 0
M  V30 6019 C 569.399 -3.68718 -3.6837 0
M  V30 6020 C 566.727 -4.48383 -3.78377 0
M  V30 6021 C 569.079 -5.03248 -3.83306 0
M  V30 6022 C 567.743 -5.43293 -3.878 0
M  V30 6023 H 567.013 -0.29188 -0.681092 0
M  V30 6024 H 569.66 -1.34524 -1.36292 0
M  V30 6025 H 567.965 -0.623712 -3.86804 0
M  V30 6026 H 569.662 -1.01489 -3.87945 0
M  V30 6027 H 566.252 -2.40898 -3.54494 0
M  V30 6028 H 570.436 -3.38614 -3.62842 0
M  V30 6029 H 565.692 -4.78877 -3.80114 0
M  V30 6030 H 569.866 -5.77142 -3.89718 0
M  V30 6031 H 567.493 -6.47721 -3.97946 0
M  V30 6032 N 569.068 1.32177 -0.85831 0
M  V30 6033 C 570.293 2.01847 -0.476718 0
M  V30 6034 C 570.718 1.64065 0.920021 0
M  V30 6035 O 570.076 0.843189 1.60499 0
M  V30 6036 C 570.124 3.55097 -0.627578 0
M  V30 6037 O 569.228 4.11012 0.338086 0
M  V30 6038 H 568.569 0.635907 -0.191099 0
M  V30 6039 H 571.099 1.68641 -1.15851 0
M  V30 6040 H 571.109 4.04718 -0.516476 0
M  V30 6041 H 569.784 3.81938 -1.64609 0
M  V30 6042 H 568.361 3.72451 0.182917 0
M  V30 6043 N 570.547 0.616602 1.45037 0
M  V30 6044 C 571.963 0.280994 1.57107 0
M  V30 6045 C 572.163 -1.21627 1.60653 0
M  V30 6046 O 571.219 -1.9997 1.54169 0
M  V30 6047 C 572.532 0.960116 2.8496 0
M  V30 6048 C 574.08 0.936884 2.98649 0
M  V30 6049 C 574.555 1.59619 4.29285 0
M  V30 6050 N 576.046 1.5621 4.36065 0
M  V30 6051 C 576.781 2.04131 5.35834 0
M  V30 6052 N 576.277 2.60177 6.4209 0
M  V30 6053 N 578.07 1.94845 5.27249 0
M  V30 6054 H 570.221 1.58867 1.40979 0
M  V30 6055 H 572.484 0.666024 0.674623 0
M  V30 6056 H 572.19 2.01473 2.88273 0
M  V30 6057 H 572.064 0.488921 3.74018 0
M  V30 6058 H 574.451 -0.109209 2.94898 0
M  V30 6059 H 574.532 1.44643 2.10979 0
M  V30 6060 H 574.176 2.64166 4.33796 0
M  V30 6061 H 574.106 1.06159 5.15789 0
M  V30 6062 H 576.597 1.15276 3.59889 0
M  V30 6063 H 576.91 2.94513 7.1448 0
M  V30 6064 H 575.255 2.64221 6.42816 0
M  V30 6065 H 578.446 1.50792 4.43147 0
M  V30 6066 H 578.619 2.32504 6.04852 0
M  V30 6067 N 572.025 -1.5352 0.356285 0
M  V30 6068 C 572.972 -2.25439 -0.494569 0
M  V30 6069 C 573.942 -1.25752 -1.08516 0
M  V30 6070 O 575.127 -1.54513 -1.1194 0
M  V30 6071 C 572.267 -3.04011 -1.63313 0
M  V30 6072 C 571.38 -4.18574 -1.06862 0
M  V30 6073 C 570.515 -4.84607 -2.17552 0
M  V30 6074 C 569.554 -5.91218 -1.58518 0
M  V30 6075 N 568.691 -6.50979 -2.63003 0
M  V30 6076 H 573.531 -2.97737 0.125244 0
M  V30 6077 H 571.068 -1.46916 0.0735789 0
M  V30 6078 H 573.026 -3.47834 -2.30363 0
M  V30 6079 H 571.656 -2.33986 -2.22374 0
M  V30 6080 H 570.708 -3.79303 -0.288672 0
M  V30 6081 H 572.02 -4.95215 -0.596924 0
M  V30 6082 H 571.174 -5.31566 -2.92442 0
M  V30 6083 H 569.913 -4.07418 -2.6807 0
M  V30 6084 H 568.918 -5.4363 -0.821391 0
M  V30 6085 H 570.143 -6.70322 -1.08836 0
M  V30 6086 H 568.089 -5.76648 -3.12751 0
M  V30 6087 H 568.006 -7.23131 -2.20493 0
M  V30 6088 H 569.274 -7.02589 -3.37623 0
M  V30 6089 N 573.503 -0.0852151 -1.57369 0
M  V30 6090 C 574.728 0.592872 -1.98746 0
M  V30 6091 C 575.153 1.61538 -0.963689 0
M  V30 6092 O 574.511 1.81168 0.069071 0
M  V30 6093 C 574.559 1.22599 -3.39119 0
M  V30 6094 O 573.663 2.34185 -3.39457 0
M  V30 6095 H 573.004 0.151314 -0.646529 0
M  V30 6096 H 575.534 -0.163703 -2.03944 0
M  V30 6097 H 575.544 1.56965 -3.76598 0
M  V30 6098 H 574.219 0.476831 -4.13158 0
M  V30 6099 H 572.796 2.01512 -3.13763 0
M  V30 6100 N 574.981 1.5647 0.188427 0
M  V30 6101 C 576.228 1.81013 0.907779 0
M  V30 6102 C 576.556 0.65953 1.82977 0
M  V30 6103 O 575.811 -0.354308 1.92466 0
M  V30 6104 C 576.11 3.11596 1.7505 0
M  V30 6105 C 575.776 4.40145 0.978922 0
M  V30 6106 C 574.438 4.75066 0.765912 0
M  V30 6107 C 576.79 5.19369 0.436498 0
M  V30 6108 C 574.118 5.867 -0.00089868 0
M  V30 6109 C 576.47 6.31805 -0.317136 0
M  V30 6110 C 575.134 6.65303 -0.541103 0
M  V30 6111 H 574.404 0.662373 0.33218 0
M  V30 6112 H 577.051 1.9071 0.173732 0
M  V30 6113 H 575.356 2.97165 2.55343 0
M  V30 6114 H 577.053 3.27793 2.30983 0
M  V30 6115 H 573.643 4.12745 1.15497 0
M  V30 6116 H 577.827 4.92799 0.588449 0
M  V30 6117 H 573.083 6.11122 -0.184329 0
M  V30 6118 H 577.257 6.92406 -0.744788 0
M  V30 6119 H 574.884 7.51646 -1.13718 0
M  V30 6120 N 576.459 -0.456382 1.50847 0
M  V30 6121 C 577.87 -1.03685 1.55262 0
M  V30 6122 C 578.221 -1.92779 0.364771 0
M  V30 6123 O 577.346 -2.10043 -0.52068 0
M  V30 6124 C 577.941 -1.88718 2.81374 0
M  V30 6125 C 576.5 -2.41847 2.88422 0
M  V30 6126 C 575.647 -1.20564 2.49719 0
M  V30 6127 H 578.598 -0.238399 1.56899 0
M  V30 6128 H 578.619 -2.73957 2.6406 0
M  V30 6129 H 578.131 -1.23847 3.67809 0
M  V30 6130 H 576.232 -3.10228 2.06372 0
M  V30 6131 H 576.345 -2.75947 3.9165 0
M  V30 6132 H 574.709 -1.54504 2.02486 0
M  V30 6133 H 575.492 -0.573326 3.38479 0
M  V30 6134 N 577.937 -1.40673 -0.710563 0
M  V30 6135 C 579.177 -1.40677 -1.48288 0
M  V30 6136 C 579.541 -0.0097193 -1.91998 0
M  V30 6137 O 580.742 0.115381 -2.68552 0
M  V30 6138 C 579.013 -2.37289 -2.67262 0
M  V30 6139 S 580.572 -2.55694 -3.56603 0
M  V30 6140 H 577.39 -0.498545 -0.506926 0
M  V30 6141 H 579.992 -1.76984 -0.830472 0
M  V30 6142 H 578.696 -3.37617 -2.3333 0
M  V30 6143 H 578.227 -2.02282 -3.3741 0
M  V30 6144 H 580.242 -1.81311 -4.61888 0
M  V30 6145 N 579.415 0.9433 -1.26252 0
M  V30 6146 C 580.325 2.07532 -1.09397 0
M  V30 6147 C 581.341 1.73977 -0.0280449 0
M  V30 6148 O 582.517 2.00067 -0.231337 0
M  V30 6149 C 579.582 3.39002 -0.726523 0
M  V30 6150 C 578.643 3.86353 -1.87163 0
M  V30 6151 C 577.876 5.11549 -1.52162 0
M  V30 6152 O 578.099 5.68834 -0.422385 0
M  V30 6153 O 577.033 5.53889 -2.35565 0
M  V30 6154 H 580.859 2.24658 -2.04359 0
M  V30 6155 H 578.444 1.05988 -1.05295 0
M  V30 6156 H 580.326 4.18 -0.534236 0
M  V30 6157 H 579.001 3.2312 0.193721 0
M  V30 6158 H 577.908 3.0831 -2.11886 0
M  V30 6159 H 579.241 4.06752 -2.77152 0
M  V30 6160 N 580.893 1.08022 1.14757 0
M  V30 6161 C 581.825 0.664566 2.19354 0
M  V30 6162 C 582.838 -0.286374 1.60261 0
M  V30 6163 O 584.027 -0.0746362 1.78344 0
M  V30 6164 C 581.127 -0.0434634 3.38872 0
M  V30 6165 C 580.3 0.925381 4.27499 0
M  V30 6166 C 579.359 0.253398 5.2559 0
M  V30 6167 O 578.385 0.896581 5.62094 0
M  V30 6168 N 579.587 -0.998263 5.71852 0
M  V30 6169 H 582.352 1.56438 2.55631 0
M  V30 6170 H 579.913 0.965788 1.29939 0
M  V30 6171 H 581.905 -0.503857 4.01551 0
M  V30 6172 H 580.475 -0.845321 3.00954 0
M  V30 6173 H 579.695 1.56472 3.61815 0
M  V30 6174 H 580.983 1.58203 4.8358 0
M  V30 6175 H 580.381 -1.54063 5.44317 0
M  V30 6176 H 578.938 -1.40222 6.36538 0
M  V30 6177 N 582.371 -1.3172 0.865308 0
M  V30 6178 C 583.318 -2.2863 0.315736 0
M  V30 6179 C 584.288 -1.55524 -0.583213 0
M  V30 6180 O 585.473 -1.83694 -0.51585 0
M  V30 6181 C 582.613 -3.41735 -0.480773 0
M  V30 6182 C 581.726 -4.297 0.445167 0
M  V30 6183 C 580.861 -5.29944 -0.365012 0
M  V30 6184 C 579.9 -6.09554 0.557651 0
M  V30 6185 N 579.037 -7.01768 -0.215994 0
M  V30 6186 H 583.877 -2.75026 1.14736 0
M  V30 6187 H 581.414 -1.35302 0.577209 0
M  V30 6188 H 583.372 -4.06045 -0.958306 0
M  V30 6189 H 582.002 -2.96461 -1.27714 0
M  V30 6190 H 581.054 -3.65875 1.04113 0
M  V30 6191 H 582.366 -4.85295 1.15284 0
M  V30 6192 H 581.52 -5.99908 -0.905255 0
M  V30 6193 H 580.259 -4.74994 -1.106 0
M  V30 6194 H 579.264 -5.38485 1.10969 0
M  V30 6195 H 580.489 -6.66591 1.29742 0
M  V30 6196 H 578.435 -6.49232 -0.939878 0
M  V30 6197 H 578.352 -7.54762 0.432431 0
M  V30 6198 H 579.62 -7.76002 -0.737618 0
M  V30 6199 N 583.85 -0.624285 -1.44708 0
M  V30 6200 C 585.098 -0.125802 -2.01708 0
M  V30 6201 C 585.418 1.2543 -1.49306 0
M  V30 6202 O 584.689 1.83198 -0.693924 0
M  V30 6203 H 583.269 -0.0435161 -0.745731 0
M  V30 6204 H 585.931 -0.809446 -1.77296 0
M  V30 6205 H 585.027 -0.0882734 -3.11975 0
M  V30 6206 N 585.328 1.53329 -0.364422 0
M  V30 6207 C 586.258 2.28627 0.474543 0
M  V30 6208 C 587.239 1.31009 1.08492 0
M  V30 6209 O 588.424 1.59878 1.10239 0
M  V30 6210 C 585.554 3.07465 1.61501 0
M  V30 6211 C 584.508 4.1276 1.13194 0
M  V30 6212 C 583.834 4.79674 2.36255 0
M  V30 6213 C 585.134 5.21847 0.217507 0
M  V30 6214 H 586.828 2.99005 -0.153656 0
M  V30 6215 H 584.374 1.43803 -0.0753406 0
M  V30 6216 H 586.327 3.58889 2.20855 0
M  V30 6217 H 585.051 2.34775 2.27042 0
M  V30 6218 H 583.71 3.62281 0.56109 0
M  V30 6219 H 583.358 4.03557 3.00251 0
M  V30 6220 H 583.058 5.50827 2.04606 0
M  V30 6221 H 584.582 5.33892 2.96297 0
M  V30 6222 H 585.996 5.6878 0.718493 0
M  V30 6223 H 584.393 6.00099 -0.00806408 0
M  V30 6224 H 585.463 4.7921 -0.740653 0
M  V30 6225 N 586.806 0.0935595 1.57322 0
M  V30 6226 C 588.083 -0.612692 1.85756 0
M  V30 6227 C 588.463 -1.86439 0.99013 0
M  V30 6228 O 587.811 -2.28416 0.0621362 0
M  V30 6229 C 588.021 -0.929547 3.36393 0
M  V30 6230 C 589.369 -1.29366 4.04413 0
M  V30 6231 O 590.393 -1.02061 3.41265 0
M  V30 6232 O 589.252 -1.80498 5.15832 0
M  V30 6233 H 586.346 -0.306444 0.768128 0
M  V30 6234 H 588.892 0.126141 1.69231 0
M  V30 6235 H 587.664 -0.0414766 3.91278 0
M  V30 6236 H 587.287 -1.72441 3.5826 0
M  V30 6237 N 588.284 -1.56567 -0.180126 0
M  V30 6238 C 589.232 -1.96632 -1.24251 0
M  V30 6239 C 590.226 -0.853818 -1.46309 0
M  V30 6240 O 591.432 -1.0389 -1.46993 0
M  V30 6241 H 587.807 -0.625476 -0.417473 0
M  V30 6242 H 589.778 -2.85201 -0.877679 0
M  V30 6243 C 588.527 -2.33486 -2.57642 0
M  V30 6244 H 587.85 -3.18626 -2.4149 0
M  V30 6245 H 589.29 -2.65371 -3.30688 0
M  V30 6246 C 587.749 -1.17499 -3.15746 0
M  V30 6247 O 588.279 -0.457956 -3.99081 0
M  V30 6248 N 586.485 -0.94786 -2.74707 0
M  V30 6249 H 586.032 -1.53269 -2.07042 0
M  V30 6250 H 585.99 -0.173626 -3.1392 0
M  V30 6251 N 589.762 0.448376 -1.51087 0
M  V30 6252 C 591.01 1.19635 -1.62886 0
M  V30 6253 C 591.331 1.91977 -0.342024 0
M  V30 6254 O 590.601 1.85094 0.641636 0
M  V30 6255 H 589.181 0.444598 -0.600285 0
M  V30 6256 H 591.843 0.515138 -1.87969 0
M  V30 6257 H 590.939 1.93194 -2.45117 0
M  V30 6258 N 591.24 1.41047 0.703093 0
M  V30 6259 C 592.47 1.43133 1.48985 0
M  V30 6260 C 592.878 0.0328537 1.89171 0
M  V30 6261 O 592.221 -0.956469 1.56835 0
M  V30 6262 C 592.283 2.26991 2.78775 0
M  V30 6263 C 591.947 3.7525 2.60837 0
M  V30 6264 C 592.944 4.67591 2.27276 0
M  V30 6265 C 590.629 4.19208 2.76712 0
M  V30 6266 C 592.623 6.01877 2.09817 0
M  V30 6267 C 590.31 5.53561 2.5887 0
M  V30 6268 C 591.308 6.4471 2.25472 0
M  V30 6269 O 590.996 7.76584 2.07778 0
M  V30 6270 H 590.728 0.489788 0.465922 0
M  V30 6271 H 593.282 1.85886 0.873822 0
M  V30 6272 H 591.512 1.79038 3.42757 0
M  V30 6273 H 593.201 2.20867 3.40547 0
M  V30 6274 H 593.967 4.34923 2.14633 0
M  V30 6275 H 589.846 3.48572 3.01693 0
M  V30 6276 H 593.39 6.72986 1.83671 0
M  V30 6277 H 589.287 5.85811 2.71102 0
M  V30 6278 H 590.055 7.87649 2.22601 0
M  V30 6279 N 592.718 -0.936591 1.26751 0
M  V30 6280 C 593.943 -1.72288 1.15462 0
M  V30 6281 C 594.368 -1.85915 -0.285887 0
M  V30 6282 O 593.726 -1.35272 -1.20711 0
M  V30 6283 C 593.774 -3.10503 1.83359 0
M  V30 6284 O 592.878 -3.96745 1.1255 0
M  V30 6285 H 592.219 -0.52843 0.402067 0
M  V30 6286 H 594.749 -1.17271 1.67656 0
M  V30 6287 H 594.759 -3.60867 1.90365 0
M  V30 6288 H 593.434 -2.99901 2.88153 0
M  V30 6289 H 592.011 -3.55191 1.13551 0
M  V30 6290 N 594.196 -1.08629 -1.14182 0
M  V30 6291 C 595.445 -0.812271 -1.84621 0
M  V30 6292 C 595.758 0.664313 -1.83973 0
M  V30 6293 O 596.964 1.05357 -2.50224 0
M  V30 6294 C 595.42 -1.4031 -3.31423 0
M  V30 6295 C 595.028 -2.91164 -3.40481 0
M  V30 6296 C 596.772 -1.20767 -4.06959 0
M  V30 6297 C 594.679 -3.43373 -4.81507 0
M  V30 6298 H 593.609 -0.30019 -0.691666 0
M  V30 6299 H 596.26 -1.30798 -1.28701 0
M  V30 6300 H 594.642 -0.835096 -3.87094 0
M  V30 6301 H 595.816 -3.5412 -2.94848 0
M  V30 6302 H 594.131 -3.09646 -2.78403 0
M  V30 6303 H 596.728 -1.57237 -5.11058 0
M  V30 6304 H 597.071 -0.147664 -4.16038 0
M  V30 6305 H 597.604 -1.74274 -3.57594 0
M  V30 6306 H 594.343 -4.48958 -4.77616 0
M  V30 6307 H 593.863 -2.85176 -5.27669 0
M  V30 6308 H 595.542 -3.40095 -5.50404 0
M  V30 6309 N 595.674 1.31259 -0.872281 0
M  V30 6310 C 596.899 2.0133 -0.498099 0
M  V30 6311 C 597.324 1.65031 0.902568 0
M  V30 6312 O 596.682 0.860164 1.59596 0
M  V30 6313 C 596.73 3.54411 -0.665205 0
M  V30 6314 O 595.834 4.11347 0.294473 0
M  V30 6315 H 595.175 0.633844 -0.197832 0
M  V30 6316 H 597.705 1.67402 -1.17633 0
M  V30 6317 H 597.715 4.04147 -0.559373 0
M  V30 6318 H 596.39 3.80171 -1.68651 0
M  V30 6319 H 594.967 3.72624 0.143403 0
M  V30 6320 N 597.152 0.631951 1.44375 0
M  V30 6321 C 598.099 -0.0724807 2.30686 0
M  V30 6322 C 599.069 -0.835975 1.43529 0
M  V30 6323 O 600.254 -0.816849 1.7243 0
M  V30 6324 C 597.394 -1.04753 3.28817 0
M  V30 6325 C 596.507 -0.282367 4.31076 0
M  V30 6326 C 595.642 -1.2493 5.163 0
M  V30 6327 C 594.681 -0.473349 6.10267 0
M  V30 6328 N 593.818 -1.39079 6.88187 0
M  V30 6329 H 598.658 0.669477 2.90383 0
M  V30 6330 H 596.195 0.341927 1.43071 0
M  V30 6331 H 598.153 -1.62623 3.842 0
M  V30 6332 H 596.783 -1.75661 2.70819 0
M  V30 6333 H 595.835 0.412268 3.78159 0
M  V30 6334 H 597.147 0.321955 4.9776 0
M  V30 6335 H 596.301 -1.89931 5.76204 0
M  V30 6336 H 595.04 -1.88755 4.49692 0
M  V30 6337 H 594.045 0.190142 5.49471 0
M  V30 6338 H 595.27 0.16019 6.78911 0
M  V30 6339 H 593.216 -2.01623 6.24247 0
M  V30 6340 H 593.133 -0.840513 7.51313 0
M  V30 6341 H 594.401 -2.02961 7.52613 0
M  V30 6342 N 598.631 -1.53133 0.372548 0
M  V30 6343 C 599.878 -2.01356 -0.214959 0
M  V30 6344 C 600.206 -1.2596 -1.48204 0
M  V30 6345 O 599.461 -0.343511 -1.92662 0
M  V30 6346 C 599.76 -3.53206 -0.545938 0
M  V30 6347 C 599.426 -4.46511 0.627624 0
M  V30 6348 C 598.088 -4.71737 0.949615 0
M  V30 6349 C 600.44 -5.01666 1.41353 0
M  V30 6350 C 597.768 -5.4937 2.05936 0
M  V30 6351 C 600.12 -5.80511 2.51375 0
M  V30 6352 C 598.784 -6.04022 2.84101 0
M  V30 6353 H 598.054 -0.736813 -0.078659 0
M  V30 6354 H 600.701 -1.84682 0.506447 0
M  V30 6355 H 599.006 -3.67864 -1.34845 0
M  V30 6356 H 600.703 -3.87997 -1.01287 0
M  V30 6357 H 597.293 -4.27029 0.366635 0
M  V30 6358 H 601.477 -4.82117 1.17802 0
M  V30 6359 H 596.733 -5.65803 2.31682 0
M  V30 6360 H 600.907 -6.22255 3.12684 0
M  V30 6361 H 598.534 -6.63962 3.70214 0
M  V30 6362 N 600.109 -0.101901 -1.5727 0
M  V30 6363 C 601.349 0.563489 -1.96479 0
M  V30 6364 C 601.713 1.64926 -0.983021 0
M  V30 6365 O 602.914 2.37234 -1.26386 0
M  V30 6366 C 601.185 1.09809 -3.40113 0
M  V30 6367 S 602.744 1.7744 -4.01323 0
M  V30 6368 H 599.562 0.183675 -0.686866 0
M  V30 6369 H 602.164 -0.182922 -1.94642 0
M  V30 6370 H 600.868 0.296447 -4.09328 0
M  V30 6371 H 600.399 1.88018 -3.45562 0
M  V30 6372 H 602.414 3.0591 -3.90683 0
M  V30 6373 N 601.587 1.56661 0.17182 0
M  V30 6374 C 602.535 1.97289 1.23207 0
M  V30 6375 C 603.529 0.861566 1.45854 0
M  V30 6376 O 604.735 1.04668 1.4644 0
M  V30 6377 H 601.11 0.627681 0.41415 0
M  V30 6378 H 603.081 2.85662 0.862542 0
M  V30 6379 C 601.83 2.34849 2.564 0
M  V30 6380 H 601.153 3.19903 2.39797 0
M  V30 6381 H 602.593 2.67121 3.29276 0
M  V30 6382 C 601.052 1.19172 3.15119 0
M  V30 6383 O 601.582 0.479113 3.98833 0
M  V30 6384 N 599.788 0.962415 2.74201 0
M  V30 6385 H 599.335 1.54365 2.06226 0
M  V30 6386 H 599.293 0.190272 3.13824 0
M  V30 6387 N 603.065 -0.440357 1.51323 0
M  V30 6388 C 604.015 -1.53263 1.68803 0
M  V30 6389 C 604.999 -1.51494 0.542057 0
M  V30 6390 O 606.191 -1.57999 0.797839 0
M  V30 6391 C 603.32 -2.91479 1.8137 0
M  V30 6392 C 602.406 -2.98015 3.01742 0
M  V30 6393 N 602.797 -2.743 4.24962 0
M  V30 6394 C 601.095 -3.29173 3.00934 0
M  V30 6395 C 601.796 -2.86601 5.06197 0
M  V30 6396 N 600.772 -3.1814 4.40781 0
M  V30 6397 H 604.574 -1.33675 2.61741 0
M  V30 6398 H 602.088 -0.647616 1.48929 0
M  V30 6399 H 604.085 -3.70055 1.92002 0
M  V30 6400 H 602.745 -3.12089 0.896117 0
M  V30 6401 H 603.756 -2.49287 4.53957 0
M  V30 6402 H 600.433 -3.55577 2.18796 0
M  V30 6403 H 601.823 -2.72246 6.14274 0
M  V30 6404 N 604.543 -1.41418 -0.695603 0
M  V30 6405 C 605.49 -1.43264 -1.80954 0
M  V30 6406 C 606.46 -0.287016 -1.63601 0
M  V30 6407 O 607.645 -0.488054 -1.84452 0
M  V30 6408 C 604.785 -1.32054 -3.18835 0
M  V30 6409 C 603.898 -2.56485 -3.4762 0
M  V30 6410 C 603.033 -2.3757 -4.75115 0
M  V30 6411 C 602.072 -3.57477 -4.96867 0
M  V30 6412 N 601.209 -3.37632 -6.15588 0
M  V30 6413 H 606.049 -2.38467 -1.78711 0
M  V30 6414 H 603.586 -1.18415 -0.872715 0
M  V30 6415 H 605.544 -1.23558 -3.98484 0
M  V30 6416 H 604.174 -0.404592 -3.20254 0
M  V30 6417 H 603.226 -2.75432 -2.62376 0
M  V30 6418 H 604.538 -3.45678 -3.59594 0
M  V30 6419 H 603.692 -2.2654 -5.62818 0
M  V30 6420 H 602.431 -1.45834 -4.65386 0
M  V30 6421 H 601.436 -3.68961 -4.07612 0
M  V30 6422 H 602.661 -4.50167 -5.08455 0
M  V30 6423 H 600.607 -2.48596 -6.07072 0
M  V30 6424 H 600.524 -4.20401 -6.2833 0
M  V30 6425 H 601.792 -3.30375 -7.06026 0
M  V30 6426 N 606.021 0.929856 -1.27246 0
M  V30 6427 C 606.971 2.01629 -1.06442 0
M  V30 6428 C 607.955 1.60899 0.00687842 0
M  V30 6429 O 609.147 1.75733 -0.211407 0
M  V30 6430 C 606.276 3.35849 -0.711361 0
M  V30 6431 C 605.362 3.8303 -1.82069 0
M  V30 6432 N 605.753 4.02743 -3.05993 0
M  V30 6433 C 604.051 4.12046 -1.70687 0
M  V30 6434 C 604.752 4.42001 -3.78167 0
M  V30 6435 N 603.728 4.4935 -3.05918 0
M  V30 6436 H 607.53 2.14898 -2.00489 0
M  V30 6437 H 605.044 1.11654 -1.17929 0
M  V30 6438 H 607.041 4.13343 -0.543442 0
M  V30 6439 H 605.701 3.23944 0.221517 0
M  V30 6440 H 606.712 3.89112 -3.41778 0
M  V30 6441 H 603.389 4.08866 -0.844681 0
M  V30 6442 H 604.779 4.6535 -4.84664 0
M  V30 6443 N 607.499 1.09233 1.13605 0
M  V30 6444 C 608.431 0.687794 2.18637 0
M  V30 6445 C 609.444 -0.26936 1.60556 0
M  V30 6446 O 610.633 -0.0557162 1.78413 0
M  V30 6447 C 607.733 -0.00751901 3.38899 0
M  V30 6448 C 606.906 0.97067 4.26494 0
M  V30 6449 C 605.965 0.309129 5.25291 0
M  V30 6450 O 604.991 0.956149 5.61112 0
M  V30 6451 N 606.193 -0.937555 5.72879 0
M  V30 6452 H 608.958 1.59141 2.53957 0
M  V30 6453 H 606.519 0.979515 1.28907 0
M  V30 6454 H 608.511 -0.461238 4.02063 0
M  V30 6455 H 607.081 -0.813353 3.01833 0
M  V30 6456 H 606.301 1.603 3.60135 0
M  V30 6457 H 607.589 1.63323 4.81875 0
M  V30 6458 H 606.987 -1.48281 5.4592 0
M  V30 6459 H 605.544 -1.33463 6.3799 0
M  V30 6460 N 608.977 -1.30795 0.87923 0
M  V30 6461 C 610.388 -1.78535 0.546093 0
M  V30 6462 C 610.739 -1.72354 -0.937467 0
M  V30 6463 O 609.864 -1.2969 -1.73233 0
M  V30 6464 C 610.459 -3.24181 0.9845 0
M  V30 6465 C 609.018 -3.69779 0.702871 0
M  V30 6466 C 608.165 -2.51377 1.17068 0
M  V30 6467 H 611.116 -1.17746 1.06403 0
M  V30 6468 H 611.137 -3.79227 0.311045 0
M  V30 6469 H 610.649 -3.28647 2.06429 0
M  V30 6470 H 608.75 -3.70806 -0.365166 0
M  V30 6471 H 608.863 -4.61507 1.28639 0
M  V30 6472 H 607.227 -2.47768 0.590172 0
M  V30 6473 H 608.01 -2.58584 2.25808 0
M  V30 6474 N 610.455 -0.639598 -1.44038 0
M  V30 6475 C 611.703 -0.147188 -2.01563 0
M  V30 6476 C 612.024 1.2384 -1.50628 0
M  V30 6477 O 611.294 1.82452 -0.713316 0
M  V30 6478 H 609.874 -0.0514231 -0.745228 0
M  V30 6479 H 612.536 -0.828205 -1.76428 0
M  V30 6480 H 611.632 -0.121358 -3.11864 0
M  V30 6481 N 611.933 1.52934 -0.380664 0
M  V30 6482 C 612.843 2.29921 0.466192 0
M  V30 6483 C 613.859 1.36488 1.07922 0
M  V30 6484 O 615.035 1.69553 1.0869 0
M  V30 6485 C 612.1 3.08468 1.58266 0
M  V30 6486 C 611.161 4.17595 0.995627 0
M  V30 6487 C 610.394 4.92387 2.05889 0
M  V30 6488 O 610.617 4.67184 3.27254 0
M  V30 6489 O 609.551 5.77949 1.68102 0
M  V30 6490 H 613.377 3.03274 -0.160735 0
M  V30 6491 H 610.962 1.48698 -0.144617 0
M  V30 6492 H 612.844 3.57469 2.23145 0
M  V30 6493 H 611.519 2.37937 2.19471 0
M  V30 6494 H 610.426 3.72811 0.310332 0
M  V30 6495 H 611.759 4.90336 0.427918 0
M  V30 6496 N 613.412 0.11024 1.57214 0
M  V30 6497 C 614.642 -0.557025 1.98949 0
M  V30 6498 C 615.05 -1.61317 0.988606 0
M  V30 6499 O 614.393 -1.83679 -0.0279159 0
M  V30 6500 C 614.455 -1.24956 3.37085 0
M  V30 6501 C 614.119 -0.342398 4.55716 0
M  V30 6502 C 615.116 0.415511 5.18237 0
M  V30 6503 C 612.801 -0.256029 5.01647 0
M  V30 6504 C 614.795 1.24761 6.25071 0
M  V30 6505 C 612.482 0.579713 6.08344 0
M  V30 6506 C 613.48 1.33017 6.69922 0
M  V30 6507 O 613.168 2.15205 7.74559 0
M  V30 6508 H 612.9 -0.152792 0.658506 0
M  V30 6509 H 615.454 0.19076 2.04512 0
M  V30 6510 H 613.684 -2.04424 3.2825 0
M  V30 6511 H 615.373 -1.81286 3.63167 0
M  V30 6512 H 616.139 0.358605 4.83672 0
M  V30 6513 H 612.018 -0.829831 4.5347 0
M  V30 6514 H 615.562 1.83386 6.73064 0
M  V30 6515 H 611.459 0.638044 6.42339 0
M  V30 6516 H 612.227 2.08052 7.91617 0
M  V30 6517 N 614.89 -1.56749 -0.16351 0
M  V30 6518 C 616.139 -1.81626 -0.877211 0
M  V30 6519 C 616.452 -0.688791 -1.83071 0
M  V30 6520 O 617.658 -0.822697 -2.58735 0
M  V30 6521 C 616.114 -3.21858 -1.61045 0
M  V30 6522 C 615.722 -4.42494 -0.700195 0
M  V30 6523 C 617.466 -3.56021 -2.31192 0
M  V30 6524 C 615.373 -5.73748 -1.43412 0
M  V30 6525 H 614.303 -0.67731 -0.331312 0
M  V30 6526 H 616.954 -1.83039 -0.13006 0
M  V30 6527 H 615.336 -3.14784 -2.40264 0
M  V30 6528 H 616.51 -4.60766 0.0555849 0
M  V30 6529 H 614.825 -4.1626 -0.10799 0
M  V30 6530 H 617.422 -4.51333 -2.8671 0
M  V30 6531 H 617.765 -2.81277 -3.06902 0
M  V30 6532 H 618.298 -3.64682 -1.58909 0
M  V30 6533 H 615.037 -6.51543 -0.719186 0
M  V30 6534 H 614.557 -5.5944 -2.16302 0
M  V30 6535 H 616.236 -6.15975 -1.9795 0
M  V30 6536 N 616.368 0.432326 -1.51554 0
M  V30 6537 C 617.615 1.18134 -1.64471 0
M  V30 6538 C 617.943 1.91076 -0.363349 0
M  V30 6539 O 617.198 1.84492 0.65279 0
M  V30 6540 C 617.497 2.21907 -2.80164 0
M  V30 6541 C 617.163 1.65941 -4.19255 0
M  V30 6542 C 615.825 1.50401 -4.57092 0
M  V30 6543 C 618.177 1.24843 -5.06027 0
M  V30 6544 C 615.505 0.922443 -5.79403 0
M  V30 6545 C 617.857 0.68113 -6.28922 0
M  V30 6546 C 616.521 0.512673 -6.65528 0
M  V30 6547 H 615.791 0.432283 -0.601841 0
M  V30 6548 H 618.438 0.471701 -1.856 0
M  V30 6549 H 616.743 2.98928 -2.53277 0
M  V30 6550 H 618.44 2.79691 -2.87357 0
M  V30 6551 H 615.03 1.79014 -3.89425 0
M  V30 6552 H 619.214 1.35667 -4.77397 0
M  V30 6553 H 614.47 0.779733 -6.06408 0
M  V30 6554 H 618.644 0.35418 -6.95499 0
M  V30 6555 H 616.271 0.0599084 -7.60176 0
M  V30 6556 N 617.846 1.41785 0.688094 0
M  V30 6557 C 618.796 1.40684 1.79421 0
M  V30 6558 C 619.78 0.280096 1.58443 0
M  V30 6559 O 620.972 0.521332 1.69148 0
M  V30 6560 C 618.101 1.29874 3.17785 0
M  V30 6561 C 617.187 2.47442 3.44432 0
M  V30 6562 N 617.578 3.72895 3.41736 0
M  V30 6563 C 615.876 2.41416 3.75013 0
M  V30 6564 C 616.577 4.50912 3.67496 0
M  V30 6565 N 615.553 3.81131 3.87608 0
M  V30 6566 H 619.355 2.35591 1.7571 0
M  V30 6567 H 616.869 1.35946 0.888393 0
M  V30 6568 H 618.866 1.27168 3.97031 0
M  V30 6569 H 617.526 0.359587 3.22703 0
M  V30 6570 H 618.537 4.05676 3.21943 0
M  V30 6571 H 615.214 1.56011 3.87256 0
M  V30 6572 H 616.604 5.59865 3.71484 0
M  V30 6573 N 619.324 -0.923095 1.27737 0
M  V30 6574 C 620.287 -2.00587 1.10894 0
M  V30 6575 C 621.287 -1.60718 0.0514927 0
M  V30 6576 O 622.477 -1.71658 0.296481 0
M  V30 6577 C 619.609 -3.33829 0.690717 0
M  V30 6578 H 620.802 -2.16959 2.07048 0
M  V30 6579 H 618.355 -1.10451 1.1059 0
M  V30 6580 H 619.09 -3.23157 -0.272 0
M  V30 6581 H 618.875 -3.64125 1.45448 0
M  V30 6582 H 620.365 -4.13336 0.595252 0
M  V30 6583 N 620.802 -1.09834 -1.13024 0
M  V30 6584 C 621.712 -0.753731 -2.22162 0
M  V30 6585 C 622.728 0.246105 -1.72251 0
M  V30 6586 O 623.904 0.0864051 -2.01215 0
M  V30 6587 C 620.969 -0.183958 -3.46212 0
M  V30 6588 C 620.03 -1.24028 -4.10993 0
M  V30 6589 C 619.263 -0.697597 -5.29121 0
M  V30 6590 O 619.486 0.478092 -5.68393 0
M  V30 6591 O 618.42 -1.4546 -5.84059 0
M  V30 6592 H 622.246 -1.66456 -2.5402 0
M  V30 6593 H 619.831 -0.873026 -1.21238 0
M  V30 6594 H 621.713 0.130257 -4.21199 0
M  V30 6595 H 620.388 0.699823 -3.16045 0
M  V30 6596 H 619.295 -1.60725 -3.37814 0
M  V30 6597 H 620.628 -2.09685 -4.45301 0
M  V30 6598 N 622.28 1.30327 -0.886154 0
M  V30 6599 C 623.228 2.30052 -0.343317 0
M  V30 6600 C 624.222 1.60212 0.550305 0
M  V30 6601 O 625.428 1.74674 0.434609 0
M  V30 6602 H 621.803 0.746306 -0.0923681 0
M  V30 6603 H 623.774 2.73294 -1.19804 0
M  V30 6604 C 622.523 3.45079 0.426107 0
M  V30 6605 H 621.846 3.99003 -0.25227 0
M  V30 6606 H 623.286 4.16931 0.771009 0
M  V30 6607 C 621.745 2.95195 1.62363 0
M  V30 6608 O 622.275 2.95323 2.723 0
M  V30 6609 N 620.481 2.51192 1.4612 0
M  V30 6610 H 620.028 2.51286 0.566832 0
M  V30 6611 H 619.986 2.18173 2.2638 0
M  V30 6612 N 623.758 0.647228 1.43697 0
M  V30 6613 C 625.035 0.0883758 1.954 0
M  V30 6614 C 625.415 -1.39006 1.58873 0
M  V30 6615 O 624.763 -2.11255 0.87083 0
M  V30 6616 C 624.973 0.328263 3.47453 0
M  V30 6617 C 626.321 0.230009 4.23977 0
M  V30 6618 O 627.345 0.260496 3.55246 0
M  V30 6619 O 626.204 0.148615 5.46298 0
M  V30 6620 H 623.298 -0.0130683 0.826897 0
M  V30 6621 H 625.844 0.72005 1.53666 0
M  V30 6622 H 624.616 1.3535 3.67146 0
M  V30 6623 H 624.239 -0.336772 3.96171 0
M  V30 6624 N 625.236 -1.5273 0.388769 0
M  V30 6625 C 626.513 -1.93981 -0.251133 0
M  V30 6626 C 626.893 -1.32418 -1.64404 0
M  V30 6627 O 626.241 -0.492074 -2.23139 0
M  V30 6628 C 626.451 -3.47891 -0.27802 0
M  V30 6629 C 627.799 -4.21559 -0.507229 0
M  V30 6630 O 628.823 -3.54394 -0.358252 0
M  V30 6631 O 627.682 -5.40626 -0.799094 0
M  V30 6632 H 624.776 -0.812157 -0.15598 0
M  V30 6633 H 627.322 -1.63809 0.443237 0
M  V30 6634 H 626.094 -3.8503 0.697669 0
M  V30 6635 H 625.717 -3.84364 -1.01733 0
M  V30 6636 N 626.714 -0.118576 -1.57153 0
M  V30 6637 C 627.677 0.817464 -2.14127 0
M  V30 6638 C 628.677 1.1949 -1.07604 0
M  V30 6639 O 629.867 1.12048 -1.33382 0
M  V30 6640 C 626.999 2.10541 -2.68115 0
M  V30 6641 H 628.192 0.322339 -2.98163 0
M  V30 6642 H 625.745 0.130655 -1.55753 0
M  V30 6643 H 626.48 2.64485 -1.87665 0
M  V30 6644 H 626.265 1.84425 -3.4602 0
M  V30 6645 H 627.755 2.77453 -3.12105 0
M  V30 6646 N 628.193 1.56834 0.155195 0
M  V30 6647 C 629.125 1.94235 1.21677 0
M  V30 6648 C 630.138 0.83724 1.39621 0
M  V30 6649 O 631.327 1.11567 1.39338 0
M  V30 6650 C 628.427 2.19402 2.58294 0
M  V30 6651 C 627.6 3.50671 2.61436 0
M  V30 6652 C 626.659 3.64475 3.79532 0
M  V30 6653 O 625.685 4.36945 3.64784 0
M  V30 6654 N 626.887 3.00526 4.96653 0
M  V30 6655 H 629.652 2.85901 0.898932 0
M  V30 6656 H 627.213 1.58185 0.34483 0
M  V30 6657 H 629.205 2.25886 3.35794 0
M  V30 6658 H 627.775 1.34042 2.82403 0
M  V30 6659 H 626.995 3.55702 1.69912 0
M  V30 6660 H 628.283 4.3702 2.60559 0
M  V30 6661 H 627.681 2.41549 5.11538 0
M  V30 6662 H 626.238 3.12583 5.71958 0
M  V30 6663 N 629.671 -0.424282 1.51781 0
M  V30 6664 C 630.918 -1.1726 1.65095 0
M  V30 6665 C 631.246 -1.90881 0.373477 0
M  V30 6666 O 630.501 -1.84835 -0.642997 0
M  V30 6667 C 630.8 -2.20418 2.81337 0
M  V30 6668 C 630.466 -1.63715 4.20129 0
M  V30 6669 C 629.128 -1.47975 4.57883 0
M  V30 6670 C 631.48 -1.22157 5.06682 0
M  V30 6671 C 628.808 -0.891703 5.79884 0
M  V30 6672 C 631.16 -0.647767 6.29275 0
M  V30 6673 C 629.824 -0.477371 6.65791 0
M  V30 6674 H 629.094 -0.429085 0.604125 0
M  V30 6675 H 631.741 -0.461852 1.85847 0
M  V30 6676 H 630.046 -2.97581 2.54859 0
M  V30 6677 H 631.743 -2.78163 2.88836 0
M  V30 6678 H 628.333 -1.76946 3.90369 0
M  V30 6679 H 632.517 -1.33133 4.7811 0
M  V30 6680 H 627.773 -0.747563 6.06813 0
M  V30 6681 H 631.947 -0.317291 6.95677 0
M  V30 6682 H 629.574 -0.0195936 7.60197 0
M  V30 6683 N 631.149 -1.42148 -0.680565 0
M  V30 6684 C 632.377 -1.45696 -1.46902 0
M  V30 6685 C 632.792 -0.0665858 -1.88683 0
M  V30 6686 O 632.149 0.917436 -1.57764 0
M  V30 6687 C 632.2 -2.37898 -2.72188 0
M  V30 6688 O 631.921 -3.71526 -2.32163 0
M  V30 6689 C 633.422 -2.50407 -3.65802 0
M  V30 6690 H 630.642 -0.495729 -0.45221 0
M  V30 6691 H 633.186 -1.866 -0.836709 0
M  V30 6692 H 631.341 -2.00263 -3.31622 0
M  V30 6693 H 631.755 -4.20849 -3.13027 0
M  V30 6694 H 633.229 -3.19056 -4.50452 0
M  V30 6695 H 633.706 -1.5401 -4.11312 0
M  V30 6696 H 634.312 -2.8874 -3.12265 0
M  V30 6697 N 632.627 0.916307 -1.28225 0
M  V30 6698 C 633.574 2.01841 -1.11932 0
M  V30 6699 C 634.544 1.66091 -0.0171604 0
M  V30 6700 O 635.729 1.89934 -0.181617 0
M  V30 6701 C 632.869 3.36065 -0.784504 0
M  V30 6702 C 631.982 3.847 -1.96544 0
M  V30 6703 C 631.117 5.07423 -1.57149 0
M  V30 6704 C 630.156 5.48384 -2.71922 0
M  V30 6705 N 629.293 6.62298 -2.33037 0
M  V30 6706 H 634.133 2.1511 -2.06232 0
M  V30 6707 H 631.67 1.05366 -1.02647 0
M  V30 6708 H 633.628 4.13272 -0.571148 0
M  V30 6709 H 632.258 3.22571 0.121565 0
M  V30 6710 H 631.31 3.03673 -2.291 0
M  V30 6711 H 632.622 4.1102 -2.82603 0
M  V30 6712 H 631.776 5.92165 -1.32004 0
M  V30 6713 H 630.515 4.82906 -0.682153 0
M  V30 6714 H 629.52 4.62184 -2.97768 0
M  V30 6715 H 630.745 5.7489 -3.61494 0
M  V30 6716 H 628.691 6.39416 -1.4657 0
M  V30 6717 H 628.608 6.8833 -3.12631 0
M  V30 6718 H 629.876 7.50352 -2.11169 0
M  V30 6719 N 634.105 1.10431 1.1244 0
M  V30 6720 C 635.038 0.696987 2.17296 0
M  V30 6721 C 636.016 -0.301673 1.59777 0
M  V30 6722 O 637.2 -0.200583 1.8743 0
M  V30 6723 C 634.327 0.0284094 3.38688 0
M  V30 6724 C 633.373 0.990536 4.14838 0
M  V30 6725 S 634.206 2.50785 4.73146 0
M  V30 6726 C 635.362 1.85198 5.97873 0
M  V30 6727 H 635.595 1.58523 2.51511 0
M  V30 6728 H 633.128 0.921312 1.239 0
M  V30 6729 H 635.086 -0.351009 4.08997 0
M  V30 6730 H 633.747 -0.836629 3.02753 0
M  V30 6731 H 632.94 0.469991 5.01804 0
M  V30 6732 H 632.542 1.31186 3.50237 0
M  V30 6733 H 634.834 1.18217 6.67106 0
M  V30 6734 H 635.777 2.7012 6.54554 0
M  V30 6735 H 636.185 1.31653 5.48933 0
M  V30 6736 N 635.583 -1.29855 0.893053 0
M  V30 6737 C 636.83 -1.95826 0.515585 0
M  V30 6738 C 637.158 -1.70451 -0.936842 0
M  V30 6739 O 636.413 -1.00657 -1.67829 0
M  V30 6740 C 636.712 -3.49515 0.746588 0
M  V30 6741 C 636.378 -3.94955 2.17535 0
M  V30 6742 C 635.04 -4.07073 2.56603 0
M  V30 6743 C 637.392 -4.18536 3.10607 0
M  V30 6744 C 634.72 -4.40138 3.87938 0
M  V30 6745 C 637.072 -4.53073 4.41484 0
M  V30 6746 C 635.736 -4.634 4.80434 0
M  V30 6747 H 635.006 -0.71658 0.188666 0
M  V30 6748 H 637.653 -1.54574 1.13045 0
M  V30 6749 H 635.958 -3.9177 0.0487551 0
M  V30 6750 H 637.655 -3.98644 0.434009 0
M  V30 6751 H 634.245 -3.86035 1.86212 0
M  V30 6752 H 638.429 -4.08646 2.81641 0
M  V30 6753 H 633.685 -4.46335 4.17846 0
M  V30 6754 H 637.859 -4.70269 5.13634 0
M  V30 6755 H 635.486 -4.88775 5.82239 0
M  V30 6756 N 637.061 -0.65484 -1.43351 0
M  V30 6757 C 638.289 -0.176685 -2.06144 0
M  V30 6758 C 638.704 1.15831 -1.49093 0
M  V30 6759 O 638.061 1.71542 -0.622868 0
M  V30 6760 C 638.112 -0.0813326 -3.61408 0
M  V30 6761 O 637.833 -1.36355 -4.1634 0
M  V30 6762 C 639.334 0.422706 -4.4128 0
M  V30 6763 H 636.554 -0.0906429 -0.66485 0
M  V30 6764 H 639.098 -0.895945 -1.83829 0
M  V30 6765 H 637.253 0.588496 -3.82904 0
M  V30 6766 H 637.667 -1.22381 -5.10023 0
M  V30 6767 H 639.141 0.438375 -5.50257 0
M  V30 6768 H 639.618 1.45432 -4.14423 0
M  V30 6769 H 640.224 -0.214687 -4.24758 0
M  V30 6770 N 638.539 1.52521 -0.396863 0
M  V30 6771 C 639.469 2.29582 0.425941 0
M  V30 6772 C 640.45 1.33281 1.05689 0
M  V30 6773 O 641.635 1.62181 1.06823 0
M  V30 6774 C 638.765 3.10821 1.54943 0
M  V30 6775 C 637.719 4.15069 1.04413 0
M  V30 6776 C 637.045 4.84578 2.26028 0
M  V30 6777 C 638.345 5.22191 0.106767 0
M  V30 6778 H 640.039 2.98612 -0.217045 0
M  V30 6779 H 637.585 1.43611 -0.105826 0
M  V30 6780 H 639.538 3.63492 2.13193 0
M  V30 6781 H 638.262 2.39538 2.22011 0
M  V30 6782 H 636.921 3.63389 0.484118 0
M  V30 6783 H 636.569 4.09835 2.91623 0
M  V30 6784 H 636.269 5.55043 1.92876 0
M  V30 6785 H 637.793 5.40056 2.84906 0
M  V30 6786 H 639.207 5.70176 0.597685 0
M  V30 6787 H 637.604 5.99947 -0.135352 0
M  V30 6788 H 638.674 4.77531 -0.842134 0
M  V30 6789 N 640.017 0.126909 1.57088 0
M  V30 6790 C 640.965 -0.837618 2.16995 0
M  V30 6791 C 641.959 -1.26974 1.12133 0
M  V30 6792 O 643.165 -1.24056 1.30423 0
M  V30 6793 H 639.54 -0.288256 0.694559 0
M  V30 6794 H 641.511 -0.307957 2.96807 0
M  V30 6795 C 640.26 -2.07474 2.79016 0
M  V30 6796 H 639.583 -1.75117 3.59408 0
M  V30 6797 H 641.023 -2.72949 3.24461 0
M  V30 6798 C 639.482 -2.86967 1.76498 0
M  V30 6799 O 640.012 -3.82625 1.22316 0
M  V30 6800 N 638.218 -2.51111 1.46258 0
M  V30 6801 H 637.765 -1.73389 1.90509 0
M  V30 6802 H 637.723 -3.04594 0.779085 0
M  V30 6803 N 641.495 -1.56914 -0.146875 0
M  V30 6804 C 642.744 -1.82546 -0.857898 0
M  V30 6805 C 643.057 -0.708169 -1.8233 0
M  V30 6806 O 644.263 -0.850093 -2.57848 0
M  V30 6807 C 642.719 -3.23548 -1.57623 0
M  V30 6808 C 642.327 -4.43212 -0.653224 0
M  V30 6809 C 644.071 -3.58453 -2.27402 0
M  V30 6810 C 641.978 -5.75237 -1.37318 0
M  V30 6811 H 640.908 -0.680786 -0.32411 0
M  V30 6812 H 643.559 -1.83166 -0.110639 0
M  V30 6813 H 641.941 -3.17315 -2.36912 0
M  V30 6814 H 643.115 -4.60682 0.104452 0
M  V30 6815 H 641.43 -4.16351 -0.0638336 0
M  V30 6816 H 644.027 -4.54349 -2.81907 0
M  V30 6817 H 644.37 -2.84516 -3.03901 0
M  V30 6818 H 644.903 -3.66347 -1.55032 0
M  V30 6819 H 641.642 -6.52269 -0.650041 0
M  V30 6820 H 641.162 -5.61703 -2.10357 0
M  V30 6821 H 642.841 -6.18039 -1.91406 0
M  V30 6822 N 642.974 0.416227 -1.52004 0
M  V30 6823 C 644.39 0.754319 -1.40649 0
M  V30 6824 C 644.59 1.95059 -0.505392 0
M  V30 6825 O 643.646 2.5248 0.0315057 0
M  V30 6826 C 644.959 1.0149 -2.83055 0
M  V30 6827 C 646.507 1.11805 -2.9235 0
M  V30 6828 C 646.982 1.41144 -4.35709 0
M  V30 6829 N 648.473 1.48024 -4.38911 0
M  V30 6830 C 649.208 1.72338 -5.46889 0
M  V30 6831 N 648.704 1.94303 -6.64995 0
M  V30 6832 N 650.497 1.74294 -5.34395 0
M  V30 6833 H 642.648 -0.371324 -2.09129 0
M  V30 6834 H 644.911 -0.103811 -0.942299 0
M  V30 6835 H 644.617 0.208345 -3.51082 0
M  V30 6836 H 644.491 1.93697 -3.23668 0
M  V30 6837 H 646.878 1.91521 -2.24508 0
M  V30 6838 H 646.959 0.17451 -2.55204 0
M  V30 6839 H 646.603 0.619484 -5.04108 0
M  V30 6840 H 646.533 2.36739 -4.70385 0
M  V30 6841 H 649.024 1.32868 -3.53772 0
M  V30 6842 H 649.337 2.12286 -7.43071 0
M  V30 6843 H 647.682 1.91582 -6.68073 0
M  V30 6844 H 650.873 1.56667 -4.41104 0
M  V30 6845 H 651.046 1.92904 -6.18621 0
M  V30 6846 N 644.452 1.42507 0.673017 0
M  V30 6847 C 645.868 1.25472 0.986355 0
M  V30 6848 C 646.068 0.160181 2.00862 0
M  V30 6849 O 645.124 -0.467993 2.48125 0
M  V30 6850 C 646.437 2.61219 1.48947 0
M  V30 6851 C 647.985 2.68589 1.60715 0
M  V30 6852 C 648.46 4.04707 2.14422 0
M  V30 6853 N 649.951 4.0667 2.21752 0
M  V30 6854 C 650.686 5.0881 2.64386 0
M  V30 6855 N 650.182 6.21332 3.0646 0
M  V30 6856 N 651.975 4.96166 2.64151 0
M  V30 6857 H 644.126 2.124 -0.00378532 0
M  V30 6858 H 646.389 0.946046 0.0608367 0
M  V30 6859 H 646.095 3.42179 0.812812 0
M  V30 6860 H 645.969 2.85261 2.46791 0
M  V30 6861 H 648.356 1.87974 2.27486 0
M  V30 6862 H 648.437 2.48333 0.613552 0
M  V30 6863 H 648.081 4.8578 1.48258 0
M  V30 6864 H 648.011 4.22315 3.14575 0
M  V30 6865 H 650.502 3.25438 1.92089 0
M  V30 6866 H 650.815 6.95118 3.37684 0
M  V30 6867 H 649.16 6.24835 3.04313 0
M  V30 6868 H 652.351 4.07334 2.30644 0
M  V30 6869 H 652.524 5.759 2.97057 0
M  V30 6870 N 645.93 -0.909495 1.28709 0
M  V30 6871 C 646.877 -2.01245 1.13 0
M  V30 6872 C 647.847 -1.6608 0.0259684 0
M  V30 6873 O 649.032 -1.89835 0.191687 0
M  V30 6874 C 646.172 -3.35644 0.802315 0
M  V30 6875 C 645.285 -3.83653 1.98582 0
M  V30 6876 C 644.42 -5.06582 1.59837 0
M  V30 6877 C 643.459 -5.46934 2.74827 0
M  V30 6878 N 642.596 -6.61053 2.36546 0
M  V30 6879 H 647.436 -2.14013 2.0737 0
M  V30 6880 H 644.973 -1.0482 1.03205 0
M  V30 6881 H 646.931 -4.12963 0.593057 0
M  V30 6882 H 645.561 -3.22631 -0.104457 0
M  V30 6883 H 644.613 -3.02454 2.30708 0
M  V30 6884 H 645.925 -4.09515 2.84779 0
M  V30 6885 H 645.079 -5.91457 1.35143 0
M  V30 6886 H 643.818 -4.82537 0.707753 0
M  V30 6887 H 642.823 -4.60599 3.00215 0
M  V30 6888 H 644.048 -5.72965 3.64538 0
M  V30 6889 H 641.994 -6.3863 1.49959 0
M  V30 6890 H 641.911 -6.86662 3.16277 0
M  V30 6891 H 643.179 -7.49221 2.15146 0
M  V30 6892 N 647.408 -1.11026 -1.11852 0
M  V30 6893 C 648.819 -0.873203 -1.65021 0
M  V30 6894 C 649.17 0.595364 -1.86949 0
M  V30 6895 O 648.295 1.45645 -1.60051 0
M  V30 6896 C 648.89 -1.57859 -2.99777 0
M  V30 6897 C 647.449 -1.38807 -3.49871 0
M  V30 6898 C 646.596 -1.62403 -2.24768 0
M  V30 6899 H 649.547 -1.26712 -0.955503 0
M  V30 6900 H 649.568 -1.02111 -3.66543 0
M  V30 6901 H 649.08 -2.6474 -2.83786 0
M  V30 6902 H 647.181 -0.341163 -3.71035 0
M  V30 6903 H 647.294 -2.13421 -4.28938 0
M  V30 6904 H 645.658 -1.04714 -2.32179 0
M  V30 6905 H 646.441 -2.70549 -2.11324 0
M  V30 6906 N 648.886 1.2938 -0.899927 0
M  V30 6907 C 649.818 2.26737 -0.335139 0
M  V30 6908 C 650.831 1.54316 0.518681 0
M  V30 6909 O 652.02 1.75313 0.335803 0
M  V30 6910 C 649.12 3.34558 0.540774 0
M  V30 6911 C 648.293 4.36455 -0.287372 0
M  V30 6912 C 647.352 5.2361 0.52141 0
M  V30 6913 O 646.378 5.69167 -0.0611735 0
M  V30 6914 N 647.58 5.50985 1.82745 0
M  V30 6915 H 650.345 2.75838 -1.17191 0
M  V30 6916 H 647.906 1.42716 -0.764438 0
M  V30 6917 H 649.898 3.89794 1.08825 0
M  V30 6918 H 648.468 2.85272 1.27823 0
M  V30 6919 H 647.688 3.80875 -1.01626 0
M  V30 6920 H 648.976 5.01573 -0.854518 0
M  V30 6921 H 648.374 5.15781 2.32349 0
M  V30 6922 H 646.931 6.09036 2.32204 0
M  V30 6923 N 650.364 0.662433 1.43002 0
M  V30 6924 C 651.61 0.179857 2.02001 0
M  V30 6925 C 651.943 -1.20625 1.52195 0
M  V30 6926 O 651.218 -1.80726 0.718911 0
M  V30 6927 C 651.501 0.200845 3.59539 0
M  V30 6928 C 651.354 1.62153 4.19555 0
M  V30 6929 C 652.673 -0.457738 4.37713 0
M  V30 6930 H 649.792 0.0668305 0.733964 0
M  V30 6931 H 652.434 0.84487 1.70182 0
M  V30 6932 H 650.584 -0.365411 3.86778 0
M  V30 6933 H 652.256 2.23908 4.03315 0
M  V30 6934 H 650.499 2.16601 3.75854 0
M  V30 6935 H 651.17 1.58799 5.28665 0
M  V30 6936 H 653.646 0.0241495 4.16093 0
M  V30 6937 H 652.522 -0.412363 5.47349 0
M  V30 6938 H 652.783 -1.53336 4.14657 0
M  V30 6939 N 651.842 -1.52309 0.404946 0
M  V30 6940 C 652.772 -2.29805 -0.41376 0
M  V30 6941 C 653.753 -1.3384 -1.0498 0
M  V30 6942 O 654.938 -1.62745 -1.05961 0
M  V30 6943 C 652.068 -3.11639 -1.53292 0
M  V30 6944 C 651.022 -4.15616 -1.02211 0
M  V30 6945 C 650.348 -4.8577 -2.23455 0
M  V30 6946 C 651.648 -5.2224 -0.0790725 0
M  V30 6947 H 653.342 -2.98493 0.232878 0
M  V30 6948 H 650.888 -1.43552 0.113441 0
M  V30 6949 H 652.841 -3.64618 -2.11262 0
M  V30 6950 H 651.565 -2.40712 -2.20738 0
M  V30 6951 H 650.224 -3.63641 -0.46484 0
M  V30 6952 H 649.872 -4.11376 -2.89445 0
M  V30 6953 H 649.572 -5.56058 -1.89929 0
M  V30 6954 H 651.096 -5.4156 -2.82038 0
M  V30 6955 H 652.51 -5.70485 -0.567438 0
M  V30 6956 H 650.907 -5.99867 0.167167 0
M  V30 6957 H 651.977 -4.77078 0.867447 0
M  V30 6958 N 653.32 -0.135238 -1.57019 0
M  V30 6959 C 654.283 0.794707 -2.14981 0
M  V30 6960 C 655.283 1.18342 -1.08866 0
M  V30 6961 O 656.473 1.10627 -1.34563 0
M  V30 6962 C 653.605 2.07685 -2.70333 0
M  V30 6963 H 654.798 0.290696 -2.98488 0
M  V30 6964 H 652.351 0.114128 -1.55883 0
M  V30 6965 H 653.086 2.6248 -1.9046 0
M  V30 6966 H 652.871 1.80745 -3.47957 0
M  V30 6967 H 654.361 2.74127 -3.1503 0
M  V30 6968 N 654.798 1.5699 0.138552 0
M  V30 6969 C 655.708 2.02174 1.19008 0
M  V30 6970 C 656.724 0.938622 1.46512 0
M  V30 6971 O 657.9 1.24872 1.58016 0
M  V30 6972 C 654.965 2.40045 2.50159 0
M  V30 6973 C 654.026 3.62346 2.30226 0
M  V30 6974 C 653.259 3.98401 3.55123 0
M  V30 6975 O 653.482 3.35019 4.61647 0
M  V30 6976 O 652.416 4.91606 3.47285 0
M  V30 6977 H 656.242 2.91954 0.836452 0
M  V30 6978 H 653.827 1.45293 0.347907 0
M  V30 6979 H 655.709 2.65225 3.27465 0
M  V30 6980 H 654.384 1.53417 2.85035 0
M  V30 6981 H 653.291 3.42341 1.50843 0
M  V30 6982 H 654.624 4.49617 2.00262 0
M  V30 6983 N 656.276 -0.40816 1.52223 0
M  V30 6984 C 657.239 -1.48 1.7501 0
M  V30 6985 C 658.239 -1.48367 0.619996 0
M  V30 6986 O 659.429 -1.49874 0.887881 0
M  V30 6987 C 656.561 -2.87403 1.83336 0
M  V30 6988 H 657.754 -1.29086 2.70697 0
M  V30 6989 H 655.307 -0.638715 1.42654 0
M  V30 6990 H 656.042 -3.11686 0.895677 0
M  V30 6991 H 655.827 -2.8854 2.65494 0
M  V30 6992 H 657.317 -3.65103 2.02705 0
M  V30 6993 N 657.755 -1.42862 -0.66545 0
M  V30 6994 C 658.98 -1.47456 -1.45848 0
M  V30 6995 C 659.405 -0.0900312 -1.87884 0
M  V30 6996 O 658.763 0.913587 -1.56599 0
M  V30 6997 C 658.811 -2.41514 -2.67774 0
M  V30 6998 O 657.915 -1.89296 -3.66389 0
M  V30 6999 H 657.256 -0.499236 -0.437789 0
M  V30 7000 H 659.786 -1.8765 -0.815394 0
M  V30 7001 H 659.796 -2.58409 -3.15735 0
M  V30 7002 H 658.471 -3.42099 -2.36519 0
M  V30 7003 H 657.048 -1.82003 -3.25468 0
M  V30 7004 N 659.233 0.902656 -1.29189 0
M  V30 7005 C 660.196 1.98797 -1.14071 0
M  V30 7006 C 661.196 1.60615 -0.0770549 0
M  V30 7007 O 662.386 1.71165 -0.323753 0
M  V30 7008 C 659.518 3.32688 -0.743739 0
M  V30 7009 H 660.711 2.13637 -2.10473 0
M  V30 7010 H 658.264 1.08678 -1.12334 0
M  V30 7011 H 658.999 3.23549 0.220554 0
M  V30 7012 H 658.784 3.61765 -1.51223 0
M  V30 7013 H 660.274 4.12337 -0.660935 0
M  V30 7014 N 660.711 1.11618 1.11262 0
M  V30 7015 C 661.936 0.889013 1.8738 0
M  V30 7016 C 662.361 -0.555884 1.79698 0
M  V30 7017 O 661.719 -1.39272 1.16073 0
M  V30 7018 C 661.767 1.35759 3.34069 0
M  V30 7019 O 660.871 0.530499 4.08974 0
M  V30 7020 H 660.212 0.320082 0.581759 0
M  V30 7021 H 662.742 1.48611 1.40627 0
M  V30 7022 H 662.752 1.35291 3.84916 0
M  V30 7023 H 661.427 2.40973 3.38976 0
M  V30 7024 H 660.004 0.601439 3.68018 0
M  V30 7025 N 662.189 -1.289 0.906776 0
M  V30 7026 C 663.121 -2.26556 0.347159 0
M  V30 7027 C 664.134 -1.54589 -0.51049 0
M  V30 7028 O 665.323 -1.75489 -0.326501 0
M  V30 7029 C 662.423 -3.3484 -0.523024 0
M  V30 7030 C 661.596 -4.36296 0.310515 0
M  V30 7031 C 660.655 -5.23879 -0.493634 0
M  V30 7032 O 659.681 -5.69127 0.0913569 0
M  V30 7033 N 660.883 -5.51946 -1.7982 0
M  V30 7034 H 663.648 -2.75212 1.18652 0
M  V30 7035 H 661.209 -1.42309 0.771996 0
M  V30 7036 H 663.201 -3.90366 -1.06756 0
M  V30 7037 H 661.771 -2.85946 -1.26309 0
M  V30 7038 H 660.991 -3.80331 1.03644 0
M  V30 7039 H 662.279 -5.01113 0.881106 0
M  V30 7040 H 661.677 -5.17006 -2.2961 0
M  V30 7041 H 660.234 -6.10258 -2.28971 0
M  V30 7042 N 663.667 -0.670007 -1.42649 0
M  V30 7043 C 664.63 0.00204659 -2.292 0
M  V30 7044 C 665.63 0.733817 -1.4308 0
M  V30 7045 O 666.82 0.57254 -1.64522 0
M  V30 7046 C 663.952 1.01359 -3.25483 0
M  V30 7047 H 665.145 -0.759696 -2.90118 0
M  V30 7048 H 662.698 -0.432105 -1.50208 0
M  V30 7049 H 663.433 1.80399 -2.69493 0
M  V30 7050 H 663.218 0.492323 -3.88997 0
M  V30 7051 H 664.708 1.4824 -3.90403 0
M  V30 7052 N 665.145 1.52092 -0.413018 0
M  V30 7053 C 666.37 2.06756 0.163338 0
M  V30 7054 C 666.795 1.28073 1.37764 0
M  V30 7055 O 666.153 0.312015 1.78595 0
M  V30 7056 C 666.201 3.57278 0.488322 0
M  V30 7057 O 665.305 3.80986 1.57871 0
M  V30 7058 H 664.646 0.663882 0.0125068 0
M  V30 7059 H 667.176 1.95988 -0.587339 0
M  V30 7060 H 667.186 4.01125 0.745836 0
M  V30 7061 H 665.861 4.13978 -0.399327 0
M  V30 7062 H 664.438 3.49017 1.31306 0
M  V30 7063 N 666.623 0.143563 1.56945 0
M  V30 7064 C 667.863 -0.511198 1.97904 0
M  V30 7065 C 668.227 -1.62262 1.0264 0
M  V30 7066 O 669.428 -2.338 1.32631 0
M  V30 7067 C 667.699 -1.00753 3.42905 0
M  V30 7068 S 669.258 -1.66737 4.05887 0
M  V30 7069 H 666.076 -0.165399 0.691494 0
M  V30 7070 H 668.678 0.234464 1.94089 0
M  V30 7071 H 667.382 -0.187817 4.0997 0
M  V30 7072 H 666.913 -1.7879 3.50425 0
M  V30 7073 H 668.928 -2.95444 3.98657 0
M  V30 7074 N 668.101 -1.57061 -0.130224 0
M  V30 7075 C 669.348 -1.84257 -0.839972 0
M  V30 7076 C 669.676 -0.726986 -1.80403 0
M  V30 7077 O 668.931 0.282632 -1.93648 0
M  V30 7078 C 669.23 -3.17878 -1.63365 0
M  V30 7079 C 668.896 -4.43475 -0.814891 0
M  V30 7080 C 667.558 -4.77581 -0.589066 0
M  V30 7081 C 669.91 -5.20631 -0.243437 0
M  V30 7082 C 667.238 -5.86292 0.218648 0
M  V30 7083 C 669.59 -6.30192 0.551408 0
M  V30 7084 C 668.254 -6.62837 0.787653 0
M  V30 7085 H 667.524 -0.674245 -0.307367 0
M  V30 7086 H 670.171 -1.91224 -0.102832 0
M  V30 7087 H 668.476 -3.06437 -2.44138 0
M  V30 7088 H 670.173 -3.3614 -2.18658 0
M  V30 7089 H 666.763 -4.16747 -1.00098 0
M  V30 7090 H 670.947 -4.94644 -0.405145 0
M  V30 7091 H 666.203 -6.10017 0.411016 0
M  V30 7092 H 670.377 -6.89165 1.00126 0
M  V30 7093 H 668.004 -7.46908 1.41537 0
M  V30 7094 N 669.579 0.400081 -1.52437 0
M  V30 7095 C 670.804 1.17221 -1.71096 0
M  V30 7096 C 671.229 1.83269 -0.423565 0
M  V30 7097 O 670.587 1.70378 0.619751 0
M  V30 7098 C 670.635 2.20425 -2.85386 0
M  V30 7099 O 669.739 3.26769 -2.51586 0
M  V30 7100 H 669.08 0.341766 -0.569291 0
M  V30 7101 H 671.61 0.467772 -1.99181 0
M  V30 7102 H 671.62 2.64605 -3.10561 0
M  V30 7103 H 670.295 1.71737 -3.78786 0
M  V30 7104 H 668.872 2.87804 -2.37114 0
M  V30 7105 N 671.057 1.43213 0.657864 0
M  V30 7106 C 672.334 1.35063 1.41483 0
M  V30 7107 C 672.714 -0.0038314 2.111 0
M  V30 7108 O 672.062 -1.02018 2.04462 0
M  V30 7109 C 672.272 2.53061 2.40335 0
M  V30 7110 C 673.62 2.9594 3.04474 0
M  V30 7111 O 674.644 2.53074 2.50663 0
M  V30 7112 O 673.503 3.70184 4.02027 0
M  V30 7113 H 670.597 0.533517 0.631893 0
M  V30 7114 H 673.143 1.55253 0.685162 0
M  V30 7115 H 671.915 3.43283 1.87809 0
M  V30 7116 H 671.538 2.34945 3.20759 0
M  V30 7117 N 672.536 -0.895792 1.29666 0
M  V30 7118 C 673.784 -1.64339 1.17631 0
M  V30 7119 C 674.105 -1.93099 -0.271643 0
M  V30 7120 O 673.375 -1.55981 -1.18518 0
M  V30 7121 H 671.955 -0.609162 0.432354 0
M  V30 7122 H 674.617 -1.07389 1.62646 0
M  V30 7123 H 673.713 -2.59815 1.72924 0
M  V30 7124 N 674.014 -1.12206 -1.10668 0
M  V30 7125 C 675.244 -0.897332 -1.86095 0
M  V30 7126 C 675.652 0.556778 -1.80822 0
M  V30 7127 O 674.995 1.39658 -1.19337 0
M  V30 7128 C 675.057 -1.29095 -3.35522 0
M  V30 7129 C 674.721 -2.75586 -3.64556 0
M  V30 7130 C 675.718 -3.73785 -3.6136 0
M  V30 7131 C 673.403 -3.12432 -3.93309 0
M  V30 7132 C 675.397 -5.06845 -3.86506 0
M  V30 7133 C 673.084 -4.45675 -4.18111 0
M  V30 7134 C 674.082 -5.42691 -4.147 0
M  V30 7135 O 673.77 -6.73532 -4.38873 0
M  V30 7136 H 673.502 -0.320704 -0.595084 0
M  V30 7137 H 676.056 -1.49517 -1.40833 0
M  V30 7138 H 674.286 -0.636299 -3.81429 0
M  V30 7139 H 675.975 -1.04073 -3.92331 0
M  V30 7140 H 676.741 -3.46664 -3.39189 0
M  V30 7141 H 672.62 -2.3753 -3.95096 0
M  V30 7142 H 676.164 -5.82559 -3.83758 0
M  V30 7143 H 672.061 -4.72526 -4.39761 0
M  V30 7144 H 672.829 -6.79442 -4.564 0
M  V30 7145 N 675.492 1.28418 -0.913599 0
M  V30 7146 C 676.903 1.77024 -0.593237 0
M  V30 7147 C 677.254 1.74779 0.891441 0
M  V30 7148 O 676.379 1.34237 1.69733 0
M  V30 7149 C 676.974 3.21456 -1.07011 0
M  V30 7150 C 675.533 3.67786 -0.800664 0
M  V30 7151 C 674.68 2.48185 -1.23691 0
M  V30 7152 H 677.631 1.14883 -1.09487 0
M  V30 7153 H 677.652 3.78269 -0.411481 0
M  V30 7154 H 677.164 3.23058 -2.1507 0
M  V30 7155 H 675.265 3.71644 0.266725 0
M  V30 7156 H 675.378 4.57934 -1.4083 0
M  V30 7157 H 673.742 2.46116 -0.655655 0
M  V30 7158 H 674.525 2.52506 -2.32585 0
M  V30 7159 N 676.97 0.677563 1.42291 0
M  V30 7160 C 677.9 0.014968 2.33495 0
M  V30 7161 C 678.881 -0.786376 1.50831 0
M  V30 7162 O 680.066 -0.742975 1.79426 0
M  V30 7163 C 677.196 -0.935023 3.34477 0
M  V30 7164 C 676.15 -0.242074 4.27315 0
M  V30 7165 C 675.476 -1.30519 5.18526 0
M  V30 7166 C 676.776 0.880604 5.14823 0
M  V30 7167 H 678.47 0.776671 2.89151 0
M  V30 7168 H 676.016 0.37494 1.39033 0
M  V30 7169 H 677.969 -1.40766 3.97194 0
M  V30 7170 H 676.693 -1.72818 2.77131 0
M  V30 7171 H 675.352 0.210351 3.65996 0
M  V30 7172 H 675 -2.09041 4.57505 0
M  V30 7173 H 674.7 -0.846652 5.81468 0
M  V30 7174 H 676.224 -1.7787 5.84119 0
M  V30 7175 H 677.638 0.489062 5.7121 0
M  V30 7176 H 676.035 1.26511 5.86613 0
M  V30 7177 H 677.105 1.72818 4.53059 0
M  V30 7178 N 678.448 -1.51871 0.421078 0
M  V30 7179 C 679.859 -1.86644 -0.0457991 0
M  V30 7180 C 680.21 -1.33919 -1.43388 0
M  V30 7181 O 679.335 -0.683316 -2.05328 0
M  V30 7182 C 679.93 -3.38681 -0.0898844 0
M  V30 7183 C 678.489 -3.73049 -0.501127 0
M  V30 7184 C 677.636 -2.75485 0.316723 0
M  V30 7185 H 680.587 -1.45327 0.637635 0
M  V30 7186 H 680.608 -3.69636 -0.902734 0
M  V30 7187 H 680.12 -3.77025 0.920513 0
M  V30 7188 H 678.221 -3.40288 -1.51773 0
M  V30 7189 H 678.334 -4.78512 -0.237217 0
M  V30 7190 H 676.698 -2.53725 -0.222663 0
M  V30 7191 H 677.481 -3.16671 1.32569 0
M  V30 7192 N 679.926 -0.151884 -1.56866 0
M  V30 7193 C 681.151 0.508044 -2.01081 0
M  V30 7194 C 681.576 1.57306 -1.03134 0
M  V30 7195 O 680.934 1.81298 -0.0078309 0
M  V30 7196 C 680.982 1.08106 -3.44014 0
M  V30 7197 O 680.086 2.19577 -3.49084 0
M  V30 7198 H 679.427 0.123757 -0.652365 0
M  V30 7199 H 681.957 -0.250055 -2.03066 0
M  V30 7200 H 681.967 1.40851 -3.82916 0
M  V30 7201 H 680.642 0.301168 -4.14808 0
M  V30 7202 H 679.219 1.88023 -3.22027 0
M  V30 7203 N 681.404 1.57128 0.121893 0
M  V30 7204 C 682.65 1.85853 0.826451 0
M  V30 7205 C 683.005 0.739262 1.77631 0
M  V30 7206 O 682.298 -0.260959 1.89815 0
M  V30 7207 C 682.492 3.1874 1.61677 0
M  V30 7208 C 682.321 4.43487 0.744944 0
M  V30 7209 C 681.091 5.03707 0.400891 0
M  V30 7210 C 683.289 5.1426 0.0638779 0
M  V30 7211 N 681.271 6.12006 -0.481902 0
M  V30 7212 C 682.642 6.16281 -0.678033 0
M  V30 7213 C 684.697 4.97898 -0.0128424 0
M  V30 7214 C 683.4 7.0371 -1.48946 0
M  V30 7215 C 685.426 5.85812 -0.81108 0
M  V30 7216 C 684.788 6.87333 -1.54119 0
M  V30 7217 H 680.887 0.730367 0.279442 0
M  V30 7218 H 683.471 1.9449 0.0903486 0
M  V30 7219 H 681.642 3.11204 2.32393 0
M  V30 7220 H 683.374 3.35283 2.26644 0
M  V30 7221 H 680.129 4.67744 0.742469 0
M  V30 7222 H 680.553 6.70787 -0.915063 0
M  V30 7223 H 685.195 4.19372 0.537278 0
M  V30 7224 H 682.913 7.81646 -2.05074 0
M  V30 7225 H 686.499 5.75217 -0.872764 0
M  V30 7226 H 685.379 7.54182 -2.14893 0
M  V30 7227 N 682.882 -0.391992 1.52647 0
M  V30 7228 C 684.11 -1.1586 1.71418 0
M  V30 7229 C 684.525 -1.8381 0.431216 0
M  V30 7230 O 683.882 -1.7256 -0.594085 0
M  V30 7231 C 683.933 -2.20888 2.86165 0
M  V30 7232 O 683.654 -1.5571 4.09495 0
M  V30 7233 C 685.155 -3.103 3.1659 0
M  V30 7234 H 682.375 -0.347494 0.574011 0
M  V30 7235 H 684.919 -0.458972 1.99283 0
M  V30 7236 H 683.074 -2.86492 2.6077 0
M  V30 7237 H 683.488 -2.25474 4.73563 0
M  V30 7238 H 684.962 -3.8003 4.00351 0
M  V30 7239 H 685.439 -3.73639 2.30848 0
M  V30 7240 H 686.045 -2.50345 3.43813 0
M  V30 7241 N 684.36 -1.4356 -0.65026 0
M  V30 7242 C 685.606 -1.46545 -1.41054 0
M  V30 7243 C 685.961 -0.0894113 -1.92192 0
M  V30 7244 O 685.254 0.892427 -1.69547 0
M  V30 7245 C 685.448 -2.44528 -2.60654 0
M  V30 7246 C 685.277 -3.91524 -2.21222 0
M  V30 7247 C 684.047 -4.59866 -2.09408 0
M  V30 7248 C 686.245 -4.81276 -1.81323 0
M  V30 7249 N 684.227 -5.91772 -1.63337 0
M  V30 7250 C 685.598 -6.02478 -1.46356 0
M  V30 7251 C 687.653 -4.6851 -1.68532 0
M  V30 7252 C 686.356 -7.12332 -0.998805 0
M  V30 7253 C 688.382 -5.78369 -1.23461 0
M  V30 7254 C 687.744 -6.98699 -0.894337 0
M  V30 7255 H 683.843 -0.59135 -0.511693 0
M  V30 7256 H 686.427 -1.79759 -0.747978 0
M  V30 7257 H 684.598 -2.13336 -3.24565 0
M  V30 7258 H 686.33 -2.37932 -3.27369 0
M  V30 7259 H 683.085 -4.14412 -2.29259 0
M  V30 7260 H 683.509 -6.61799 -1.42655 0
M  V30 7261 H 688.151 -3.75933 -1.93479 0
M  V30 7262 H 685.869 -8.04734 -0.736835 0
M  V30 7263 H 689.455 -5.70512 -1.1405 0
M  V30 7264 H 688.335 -7.82263 -0.550901 0
M  V30 7265 N 685.838 0.888903 -1.30139 0
M  V30 7266 C 686.785 1.99422 -1.16188 0
M  V30 7267 C 687.755 1.66017 -0.0523869 0
M  V30 7268 O 688.94 1.89506 -0.221864 0
M  V30 7269 C 686.08 3.34325 -0.855612 0
M  V30 7270 C 685.193 3.80445 -2.0466 0
M  V30 7271 C 684.328 5.03975 -1.67876 0
M  V30 7272 C 683.367 5.42492 -2.83493 0
M  V30 7273 N 682.504 6.57206 -2.47032 0
M  V30 7274 H 687.344 2.10687 -2.10749 0
M  V30 7275 H 684.881 1.03165 -1.04859 0
M  V30 7276 H 686.839 4.11968 -0.658681 0
M  V30 7277 H 685.469 3.22756 0.0531155 0
M  V30 7278 H 684.521 2.98745 -2.3549 0
M  V30 7279 H 685.833 4.04933 -2.91257 0
M  V30 7280 H 684.987 5.89232 -1.44535 0
M  V30 7281 H 683.726 4.8135 -0.784431 0
M  V30 7282 H 682.731 4.55764 -3.07505 0
M  V30 7283 H 683.956 5.67093 -3.73607 0
M  V30 7284 H 681.902 6.36164 -1.601 0
M  V30 7285 H 681.819 6.81543 -3.27161 0
M  V30 7286 H 683.087 7.45704 -2.27038 0
M  V30 7287 N 687.317 1.12792 1.10072 0
M  V30 7288 C 688.264 0.79921 2.16521 0
M  V30 7289 C 689.234 -0.235726 1.64419 0
M  V30 7290 O 690.419 -0.109457 1.90486 0
M  V30 7291 C 687.559 0.264091 3.44088 0
M  V30 7292 C 686.672 1.35729 4.10124 0
M  V30 7293 C 685.807 0.781212 5.25424 0
M  V30 7294 C 684.846 1.85327 5.8337 0
M  V30 7295 N 683.983 1.29564 6.90042 0
M  V30 7296 H 688.823 1.71105 2.43981 0
M  V30 7297 H 686.36 0.854225 1.19756 0
M  V30 7298 H 688.318 -0.0642423 4.17151 0
M  V30 7299 H 686.948 -0.610901 3.16967 0
M  V30 7300 H 686 1.80234 3.34993 0
M  V30 7301 H 687.312 2.16782 4.4923 0
M  V30 7302 H 686.466 0.403769 6.05355 0
M  V30 7303 H 685.205 -0.0604686 4.87663 0
M  V30 7304 H 684.21 2.23986 5.02106 0
M  V30 7305 H 685.435 2.69824 6.23195 0
M  V30 7306 H 683.381 0.475844 6.54272 0
M  V30 7307 H 683.298 2.04271 7.2788 0
M  V30 7308 H 684.566 0.945545 7.73744 0
M  V30 7309 N 688.795 -1.27931 0.920396 0
M  V30 7310 C 690.035 -1.96459 0.564198 0
M  V30 7311 C 690.399 -1.70802 -0.876967 0
M  V30 7312 O 691.6 -2.32956 -1.34107 0
M  V30 7313 C 689.871 -3.46583 0.872641 0
M  V30 7314 S 691.43 -4.34343 0.623859 0
M  V30 7315 H 688.248 -0.679735 0.208523 0
M  V30 7316 H 690.85 -1.55319 1.18727 0
M  V30 7317 H 689.554 -3.62753 1.91933 0
M  V30 7318 H 689.085 -3.92677 0.238479 0
M  V30 7319 H 691.1 -4.93449 -0.521744 0
M  V30 7320 N 690.273 -0.685099 -1.4193 0
M  V30 7321 C 691.498 -0.218842 -2.06242 0
M  V30 7322 C 691.923 1.11923 -1.51178 0
M  V30 7323 O 691.281 1.69837 -0.634446 0
M  V30 7324 C 691.329 -0.175592 -3.60172 0
M  V30 7325 O 690.433 0.852776 -4.03487 0
M  V30 7326 H 689.774 -0.109531 -0.654904 0
M  V30 7327 H 692.304 -0.937013 -1.81882 0
M  V30 7328 H 692.314 -0.00291151 -4.08 0
M  V30 7329 H 690.989 -1.15222 -3.99621 0
M  V30 7330 H 689.566 0.650301 -3.67186 0
M  V30 7331 N 691.751 1.51645 -0.429126 0
M  V30 7332 C 693.028 1.94579 0.199614 0
M  V30 7333 C 693.408 1.3673 1.60836 0
M  V30 7334 O 692.756 0.551062 2.21756 0
M  V30 7335 C 692.966 3.48506 0.185685 0
M  V30 7336 C 694.314 4.22756 0.395282 0
M  V30 7337 O 695.338 3.55219 0.264165 0
M  V30 7338 O 694.197 5.42555 0.655475 0
M  V30 7339 H 691.291 0.816007 0.134393 0
M  V30 7340 H 693.837 1.62577 -0.486513 0
M  V30 7341 H 692.609 3.83045 -0.799508 0
M  V30 7342 H 692.232 3.86927 0.91507 0
M  V30 7343 N 693.229 0.160201 1.56784 0
M  V30 7344 C 694.176 -0.774416 2.1742 0
M  V30 7345 C 695.146 -1.23483 1.11091 0
M  V30 7346 O 696.331 -1.30499 1.39193 0
M  V30 7347 C 693.471 -2.00283 2.81035 0
M  V30 7348 C 692.584 -1.58701 4.01793 0
M  V30 7349 C 691.719 -2.76824 4.53367 0
M  V30 7350 C 690.758 -2.31679 5.66561 0
M  V30 7351 N 689.895 -3.42856 6.12694 0
M  V30 7352 H 694.735 -0.250542 2.96945 0
M  V30 7353 H 692.272 -0.111943 1.46673 0
M  V30 7354 H 694.23 -2.72316 3.16069 0
M  V30 7355 H 692.86 -2.5006 2.04132 0
M  V30 7356 H 691.912 -0.76384 3.72652 0
M  V30 7357 H 693.224 -1.21555 4.83762 0
M  V30 7358 H 692.378 -3.57029 4.90525 0
M  V30 7359 H 691.117 -3.17223 3.70433 0
M  V30 7360 H 690.122 -1.49917 5.28966 0
M  V30 7361 H 691.347 -1.9235 6.5129 0
M  V30 7362 H 689.293 -3.82852 5.32692 0
M  V30 7363 H 689.21 -3.09767 6.89624 0
M  V30 7364 H 690.478 -4.23379 6.545 0
M  V30 7365 N 694.707 -1.5719 -0.113559 0
M  V30 7366 C 695.932 -1.89702 -0.838336 0
M  V30 7367 C 696.357 -0.752679 -1.72384 0
M  V30 7368 O 695.715 0.296575 -1.78858 0
M  V30 7369 C 695.763 -3.20989 -1.64312 0
M  V30 7370 O 694.867 -3.07278 -2.75053 0
M  V30 7371 H 694.208 -0.622339 -0.231496 0
M  V30 7372 H 696.738 -2.04382 -0.0943228 0
M  V30 7373 H 696.748 -3.53843 -2.03123 0
M  V30 7374 H 695.423 -4.03869 -0.993119 0
M  V30 7375 H 694 -2.85901 -2.39406 0
M  V30 7376 N 696.185 0.383891 -1.52853 0
M  V30 7377 C 697.596 0.961591 -1.60032 0
M  V30 7378 C 697.947 1.90819 -0.456333 0
M  V30 7379 O 697.072 2.12288 0.419873 0
M  V30 7380 C 697.667 1.75078 -2.90057 0
M  V30 7381 C 696.226 2.2781 -2.99632 0
M  V30 7382 C 695.373 1.08512 -2.55187 0
M  V30 7383 H 698.324 0.163269 -1.57858 0
M  V30 7384 H 698.345 2.61046 -2.7683 0
M  V30 7385 H 697.857 1.06157 -3.73299 0
M  V30 7386 H 695.958 3.00028 -2.20939 0
M  V30 7387 H 696.071 2.56947 -4.0437 0
M  V30 7388 H 694.435 1.44667 -2.09627 0
M  V30 7389 H 695.218 0.41118 -3.40829 0
M  V30 7390 N 697.663 1.43903 0.642637 0
M  V30 7391 C 698.611 1.50164 1.77634 0
M  V30 7392 C 699.605 0.374294 1.65213 0
M  V30 7393 O 700.811 0.548748 1.71431 0
M  V30 7394 H 697.186 0.470974 0.586249 0
M  V30 7395 H 699.157 2.45603 1.69474 0
M  V30 7396 C 697.906 1.45196 3.15933 0
M  V30 7397 H 697.229 2.31253 3.26132 0
M  V30 7398 H 698.669 1.53638 3.95185 0
M  V30 7399 C 697.128 0.171043 3.36466 0
M  V30 7400 O 697.658 -0.763413 3.94379 0
M  V30 7401 N 695.864 0.077847 2.90496 0
M  V30 7402 H 695.411 0.8391 2.43551 0
M  V30 7403 H 695.369 -0.778473 3.0461 0
M  V30 7404 N 699.141 -0.881989 1.30609 0
M  V30 7405 C 700.381 -1.64817 1.20891 0
M  V30 7406 C 700.745 -1.90593 -0.232043 0
M  V30 7407 O 701.946 -2.64964 -0.452516 0
M  V30 7408 C 700.217 -2.95006 2.01758 0
M  V30 7409 S 701.776 -3.85953 2.08771 0
M  V30 7410 H 698.594 -0.565651 0.430767 0
M  V30 7411 H 701.196 -1.04665 1.65122 0
M  V30 7412 H 699.9 -2.73973 3.0556 0
M  V30 7413 H 699.431 -3.60189 1.582 0
M  V30 7414 H 701.446 -4.81037 1.21727 0
M  V30 7415 N 700.619 -1.13374 -1.09472 0
M  V30 7416 C 701.847 -0.918351 -1.85402 0
M  V30 7417 C 702.262 0.53281 -1.81126 0
M  V30 7418 O 701.619 1.36879 -1.20708 0
M  V30 7419 C 701.67 -1.39743 -3.33398 0
M  V30 7420 O 701.391 -2.79172 -3.37631 0
M  V30 7421 C 702.892 -1.22042 -4.2617 0
M  V30 7422 H 700.112 -0.327511 -0.585643 0
M  V30 7423 H 702.656 -1.50617 -1.38328 0
M  V30 7424 H 700.811 -0.852619 -3.77901 0
M  V30 7425 H 701.225 -3.00428 -4.29934 0
M  V30 7426 H 702.699 -1.60438 -5.2817 0
M  V30 7427 H 703.176 -0.162047 -4.38901 0
M  V30 7428 H 703.782 -1.75323 -3.87482 0
M  V30 7429 N 702.098 1.27442 -0.927168 0
M  V30 7430 C 703.008 2.30599 -0.431448 0
M  V30 7431 C 704.024 1.67028 0.48761 0
M  V30 7432 O 705.2 1.97962 0.370546 0
M  V30 7433 C 702.265 3.45327 0.308292 0
M  V30 7434 C 701.326 4.24418 -0.645615 0
M  V30 7435 C 700.559 5.33667 0.0589164 0
M  V30 7436 O 700.782 5.5589 1.27838 0
M  V30 7437 O 699.716 5.98774 -0.612638 0
M  V30 7438 H 703.542 2.75036 -1.28797 0
M  V30 7439 H 701.127 1.32382 -0.692495 0
M  V30 7440 H 703.009 4.15107 0.725555 0
M  V30 7441 H 701.684 3.02945 1.14043 0
M  V30 7442 H 700.591 3.57174 -1.11255 0
M  V30 7443 H 701.924 4.70512 -1.44496 0
M  V30 7444 N 703.576 0.692616 1.41565 0
M  V30 7445 C 704.486 0.0258451 2.34586 0
M  V30 7446 C 705.502 -0.769324 1.56069 0
M  V30 7447 O 706.678 -0.707563 1.88562 0
M  V30 7448 C 703.743 -0.901289 3.3478 0
M  V30 7449 C 702.804 -0.0986579 4.29187 0
M  V30 7450 C 702.037 -0.981634 5.24595 0
M  V30 7451 O 702.26 -2.22115 5.25377 0
M  V30 7452 O 701.194 -0.432892 6.00341 0
M  V30 7453 H 705.02 0.792537 2.93177 0
M  V30 7454 H 702.605 0.452935 1.42369 0
M  V30 7455 H 704.487 -1.43302 3.96286 0
M  V30 7456 H 703.162 -1.64752 2.78637 0
M  V30 7457 H 702.069 0.477604 3.71039 0
M  V30 7458 H 703.402 0.608848 4.8842 0
M  V30 7459 N 705.054 -1.51416 0.437162 0
M  V30 7460 C 706.303 -2.01275 -0.130865 0
M  V30 7461 C 706.616 -1.32593 -1.438 0
M  V30 7462 O 707.822 -1.7342 -2.08897 0
M  V30 7463 C 706.278 -3.5878 -0.283763 0
M  V30 7464 C 705.886 -4.36399 1.01293 0
M  V30 7465 C 707.63 -4.16786 -0.805569 0
M  V30 7466 C 705.537 -5.85608 0.825687 0
M  V30 7467 H 704.467 -0.752157 -0.0526818 0
M  V30 7468 H 707.118 -1.74524 0.566896 0
M  V30 7469 H 705.5 -3.81976 -1.04452 0
M  V30 7470 H 706.674 -4.24948 1.78201 0
M  V30 7471 H 704.989 -3.89843 1.46326 0
M  V30 7472 H 707.586 -5.25972 -0.962146 0
M  V30 7473 H 707.929 -3.75949 -1.78796 0
M  V30 7474 H 708.462 -3.97666 -0.103125 0
M  V30 7475 H 705.201 -6.30857 1.78045 0
M  V30 7476 H 704.721 -5.99723 0.0964029 0
M  V30 7477 H 706.4 -6.45226 0.478815 0
M  V30 7478 N 706.532 -0.168513 -1.56696 0
M  V30 7479 C 707.76 0.483503 -2.01171 0
M  V30 7480 C 708.175 1.56994 -1.04872 0
M  V30 7481 O 707.532 1.82434 -0.0491337 0
M  V30 7482 C 707.583 1.0644 -3.45475 0
M  V30 7483 O 707.304 0.0213375 -4.38095 0
M  V30 7484 C 708.805 1.79493 -4.05336 0
M  V30 7485 H 706.025 0.124002 -0.659443 0
M  V30 7486 H 708.569 -0.269419 -2.02717 0
M  V30 7487 H 706.724 1.76784 -3.44712 0
M  V30 7488 H 707.138 0.449837 -5.22567 0
M  V30 7489 H 708.612 2.15401 -5.08238 0
M  V30 7490 H 709.089 2.68889 -3.47269 0
M  V30 7491 H 709.695 1.13798 -4.09793 0
M  V30 7492 N 708.01 1.57248 0.105221 0
M  V30 7493 C 708.92 2.04653 1.14693 0
M  V30 7494 C 709.936 0.969488 1.44489 0
M  V30 7495 O 711.112 1.28196 1.55331 0
M  V30 7496 C 708.177 2.45297 2.45011 0
M  V30 7497 C 707.238 3.67148 2.22489 0
M  V30 7498 C 706.471 4.05844 3.46592 0
M  V30 7499 O 706.694 3.44736 4.54437 0
M  V30 7500 O 705.628 4.98862 3.36779 0
M  V30 7501 H 709.454 2.93663 0.774336 0
M  V30 7502 H 707.039 1.45998 0.31701 0
M  V30 7503 H 708.921 2.72112 3.21766 0
M  V30 7504 H 707.596 1.59429 2.81717 0
M  V30 7505 H 706.503 3.45463 1.43547 0
M  V30 7506 H 707.836 4.53764 1.9068 0
M  V30 7507 N 709.488 -0.375779 1.53054 0
M  V30 7508 C 710.736 -1.11727 1.68409 0
M  V30 7509 C 711.057 -1.90127 0.43323 0
M  V30 7510 O 710.327 -1.87945 -0.552595 0
M  V30 7511 H 708.907 -0.415451 0.620813 0
M  V30 7512 H 711.569 -0.424869 1.90213 0
M  V30 7513 H 710.665 -1.8128 2.54055 0
M  V30 7514 N 710.966 -1.44241 -0.634997 0
M  V30 7515 C 712.212 -1.47038 -1.39669 0
M  V30 7516 C 712.545 -0.101122 -1.93937 0
M  V30 7517 O 711.82 0.880699 -1.73418 0
M  V30 7518 C 712.103 -2.52763 -2.56482 0
M  V30 7519 C 711.956 -3.99032 -2.07589 0
M  V30 7520 C 713.275 -2.55031 -3.58674 0
M  V30 7521 H 710.394 -0.53537 -0.506506 0
M  V30 7522 H 713.036 -1.75898 -0.718317 0
M  V30 7523 H 711.186 -2.28284 -3.14354 0
M  V30 7524 H 712.858 -4.3463 -1.54577 0
M  V30 7525 H 711.101 -4.10994 -1.38804 0
M  V30 7526 H 711.772 -4.68649 -2.91671 0
M  V30 7527 H 714.248 -2.76893 -3.10595 0
M  V30 7528 H 713.124 -3.30916 -4.37934 0
M  V30 7529 H 713.385 -1.59085 -4.12486 0
M  V30 7530 N 712.444 0.87505 -1.31075 0
M  V30 7531 C 713.69 1.63006 -1.21657 0
M  V30 7532 C 714.045 1.91088 0.224306 0
M  V30 7533 O 713.338 1.52779 1.15625 0
M  V30 7534 C 713.532 2.96948 -1.98888 0
M  V30 7535 C 713.361 2.81944 -3.50339 0
M  V30 7536 C 712.131 2.814 -4.19693 0
M  V30 7537 C 714.329 2.57171 -4.45385 0
M  V30 7538 N 712.311 2.57392 -5.57335 0
M  V30 7539 C 713.682 2.42379 -5.7066 0
M  V30 7540 C 715.737 2.42474 -4.34868 0
M  V30 7541 C 714.44 2.14385 -6.86609 0
M  V30 7542 C 716.466 2.15868 -5.50595 0
M  V30 7543 C 715.828 2.0186 -6.74857 0
M  V30 7544 H 711.927 0.601043 -0.500271 0
M  V30 7545 H 714.511 1.03033 -1.65204 0
M  V30 7546 H 712.682 3.54936 -1.57718 0
M  V30 7547 H 714.414 3.61702 -1.81531 0
M  V30 7548 H 711.169 2.93596 -3.71616 0
M  V30 7549 H 711.593 2.48373 -6.29794 0
M  V30 7550 H 716.235 2.52035 -3.39468 0
M  V30 7551 H 713.953 2.03562 -7.82041 0
M  V30 7552 H 717.539 2.05304 -5.44372 0
M  V30 7553 H 716.419 1.81562 -7.62892 0
M  V30 7554 N 713.922 1.13953 1.08869 0
M  V30 7555 C 714.87 0.817664 2.17754 0
M  V30 7556 C 715.864 -0.202444 1.68186 0
M  V30 7557 O 717.07 -0.0590159 1.79903 0
M  V30 7558 H 713.445 0.246671 0.710392 0
M  V30 7559 H 715.416 1.74401 2.4213 0
M  V30 7560 C 714.165 0.3063 3.46348 0
M  V30 7561 H 713.488 1.08259 3.84864 0
M  V30 7562 H 714.928 0.119584 4.23831 0
M  V30 7563 C 713.387 -0.969158 3.22659 0
M  V30 7564 O 713.917 -2.04386 3.45817 0
M  V30 7565 N 712.123 -0.902516 2.7623 0
M  V30 7566 H 711.67 -0.027801 2.57585 0
M  V30 7567 H 711.628 -1.75649 2.60758 0
M  V30 7568 N 715.4 -1.26948 0.933913 0
M  V30 7569 C 716.816 -1.46419 0.635103 0
M  V30 7570 C 717.016 -1.84336 -0.813785 0
M  V30 7571 O 716.072 -1.96061 -1.59111 0
M  V30 7572 C 717.385 -2.55206 1.5903 0
M  V30 7573 C 718.933 -2.69062 1.5992 0
M  V30 7574 C 719.408 -3.81013 2.54152 0
M  V30 7575 N 720.899 -3.88395 2.52395 0
M  V30 7576 C 721.634 -4.74454 3.21996 0
M  V30 7577 N 721.13 -5.64954 4.00997 0
M  V30 7578 N 722.923 -4.68237 3.10983 0
M  V30 7579 H 715.074 -1.00622 1.87053 0
M  V30 7580 H 717.337 -0.503189 0.803433 0
M  V30 7581 H 717.043 -2.34153 2.62422 0
M  V30 7582 H 716.917 -3.52719 1.33677 0
M  V30 7583 H 719.304 -2.89492 0.572569 0
M  V30 7584 H 719.385 -1.72016 1.89325 0
M  V30 7585 H 719.029 -3.61336 3.5693 0
M  V30 7586 H 718.959 -4.77499 2.22041 0
M  V30 7587 H 721.45 -3.23687 1.95025 0
M  V30 7588 H 721.763 -6.27496 4.51074 0
M  V30 7589 H 720.108 -5.6473 4.05099 0
M  V30 7590 H 723.299 -3.96535 2.48753 0
M  V30 7591 H 723.472 -5.35087 3.65494 0
M  V30 7592 N 716.879 -0.700114 -1.41195 0
M  V30 7593 C 717.826 -0.0376652 -2.30769 0
M  V30 7594 C 718.796 0.766544 -1.47354 0
M  V30 7595 O 719.981 0.73365 -1.76131 0
M  V30 7596 C 717.121 0.889452 -3.33441 0
M  V30 7597 C 716.234 0.076373 -4.31932 0
M  V30 7598 C 715.369 1.00155 -5.21673 0
M  V30 7599 C 714.408 0.181644 -6.1183 0
M  V30 7600 N 713.545 1.06087 -6.94039 0
M  V30 7601 H 718.385 -0.80726 -2.86858 0
M  V30 7602 H 715.922 -0.409798 -1.41277 0
M  V30 7603 H 717.88 1.44107 -3.91522 0
M  V30 7604 H 716.51 1.6254 -2.78892 0
M  V30 7605 H 715.562 -0.592223 -3.75762 0
M  V30 7606 H 716.874 -0.559076 -4.95657 0
M  V30 7607 H 716.028 1.62223 -5.8461 0
M  V30 7608 H 714.767 1.67085 -4.58186 0
M  V30 7609 H 713.772 -0.452085 -5.47938 0
M  V30 7610 H 714.997 -0.483925 -6.77374 0
M  V30 7611 H 712.943 1.7161 -6.33156 0
M  V30 7612 H 712.86 0.481094 -7.54468 0
M  V30 7613 H 714.128 1.66822 -7.6144 0
M  V30 7614 N 718.357 1.51182 -0.445186 0
M  V30 7615 C 719.32 2.26501 0.350722 0
M  V30 7616 C 720.32 1.3025 0.942952 0
M  V30 7617 O 721.51 1.53897 0.816175 0
M  V30 7618 C 718.642 3.06274 1.49697 0
M  V30 7619 H 719.835 2.98299 -0.309474 0
M  V30 7620 H 717.388 1.55034 -0.198551 0
M  V30 7621 H 718.123 2.38911 2.19299 0
M  V30 7622 H 717.908 3.76979 1.0784 0
M  V30 7623 H 719.398 3.63306 2.05909 0
M  V30 7624 N 719.835 0.176821 1.56605 0
M  V30 7625 C 720.783 -0.768159 2.1955 0
M  V30 7626 C 721.777 -1.23343 1.16116 0
M  V30 7627 O 722.983 -1.19844 1.34303 0
M  V30 7628 H 719.358 -0.266013 0.703378 0
M  V30 7629 H 721.329 -0.213374 2.97636 0
M  V30 7630 C 720.078 -1.98492 2.85475 0
M  V30 7631 H 719.401 -1.63595 3.64797 0
M  V30 7632 H 720.841 -2.62489 3.3298 0
M  V30 7633 C 719.3 -2.81207 1.85538 0
M  V30 7634 O 719.83 -3.7854 1.34427 0
M  V30 7635 N 718.036 -2.46331 1.54173 0
M  V30 7636 H 717.583 -1.67241 1.95929 0
M  V30 7637 H 717.541 -3.01961 0.875595 0
M  V30 7638 N 721.313 -1.57302 -0.09688 0
M  V30 7639 C 722.729 -1.53094 -0.451041 0
M  V30 7640 C 722.929 -0.893265 -1.80618 0
M  V30 7641 O 721.985 -0.485013 -2.47798 0
M  V30 7642 C 723.298 -2.9782 -0.415172 0
M  V30 7643 C 724.846 -3.09026 -0.497155 0
M  V30 7644 C 725.321 -4.55356 -0.491452 0
M  V30 7645 N 726.812 -4.59896 -0.552258 0
M  V30 7646 C 727.547 -5.70563 -0.569654 0
M  V30 7647 N 727.043 -6.90666 -0.543365 0
M  V30 7648 N 728.836 -5.58733 -0.614331 0
M  V30 7649 H 720.987 -1.97131 0.790771 0
M  V30 7650 H 723.25 -0.901211 0.294147 0
M  V30 7651 H 722.956 -3.47933 0.513362 0
M  V30 7652 H 722.83 -3.56416 -1.23481 0
M  V30 7653 H 725.217 -2.58902 -1.41611 0
M  V30 7654 H 725.298 -2.53386 0.35059 0
M  V30 7655 H 724.942 -5.06131 0.423549 0
M  V30 7656 H 724.872 -5.08832 -1.35639 0
M  V30 7657 H 727.363 -3.73456 -0.577842 0
M  V30 7658 H 727.676 -7.70769 -0.559873 0
M  V30 7659 H 726.021 -6.93123 -0.510441 0
M  V30 7660 H 729.212 -4.63809 -0.632387 0
M  V30 7661 H 729.385 -6.44984 -0.62442 0
M  V30 7662 N 722.791 0.367657 -1.53252 0
M  V30 7663 C 723.738 1.45028 -1.79543 0
M  V30 7664 C 724.708 1.53288 -0.63969 0
M  V30 7665 O 725.893 1.69209 -0.881653 0
M  V30 7666 C 723.033 2.82 -1.98923 0
M  V30 7667 C 722.146 2.82722 -3.26638 0
M  V30 7668 C 721.281 4.11257 -3.36216 0
M  V30 7669 C 720.32 4.06113 -4.57972 0
M  V30 7670 N 719.457 5.26293 -4.64715 0
M  V30 7671 H 724.297 1.21908 -2.71923 0
M  V30 7672 H 721.834 0.591011 -1.34705 0
M  V30 7673 H 723.792 3.61568 -2.08146 0
M  V30 7674 H 722.422 3.03523 -1.09881 0
M  V30 7675 H 721.474 1.95399 -3.26379 0
M  V30 7676 H 722.786 2.74794 -4.16281 0
M  V30 7677 H 721.94 4.99239 -3.44739 0
M  V30 7678 H 720.679 4.21935 -2.44586 0
M  V30 7679 H 719.684 3.16517 -4.49552 0
M  V30 7680 H 720.909 3.97039 -5.50942 0
M  V30 7681 H 718.855 5.37561 -3.75985 0
M  V30 7682 H 718.772 5.20526 -5.4826 0
M  V30 7683 H 720.04 6.16113 -4.77519 0
M  V30 7684 N 724.269 1.44576 0.627338 0
M  V30 7685 C 725.515 1.47777 1.38888 0
M  V30 7686 C 725.848 0.111406 1.9388 0
M  V30 7687 O 725.123 -0.87149 1.73883 0
M  V30 7688 C 725.406 2.54119 2.55138 0
M  V30 7689 C 725.259 4.00128 2.0547 0
M  V30 7690 C 726.578 2.56929 3.57317 0
M  V30 7691 H 723.697 0.538048 0.50366 0
M  V30 7692 H 726.339 1.76277 0.708978 0
M  V30 7693 H 724.489 2.29948 3.13139 0
M  V30 7694 H 726.161 4.35444 1.5227 0
M  V30 7695 H 724.404 4.11724 1.36623 0
M  V30 7696 H 725.075 4.7019 2.89181 0
M  V30 7697 H 727.551 2.78536 3.09122 0
M  V30 7698 H 726.427 3.33234 4.36173 0
M  V30 7699 H 726.688 1.6127 4.11636 0
M  V30 7700 N 725.747 -0.868086 1.31537 0
M  V30 7701 C 726.994 -1.62127 1.2133 0
M  V30 7702 C 727.322 -1.93158 -0.2281 0
M  V30 7703 O 726.577 -1.5632 -1.1774 0
M  V30 7704 C 726.876 -2.95889 2.0046 0
M  V30 7705 C 726.542 -2.84343 3.49943 0
M  V30 7706 C 725.204 -2.80901 3.90702 0
M  V30 7707 C 727.556 -2.71243 4.45058 0
M  V30 7708 C 724.884 -2.6222 5.24841 0
M  V30 7709 C 727.236 -2.54098 5.79325 0
M  V30 7710 C 725.9 -2.4904 6.19302 0
M  V30 7711 H 725.17 -0.593265 0.443979 0
M  V30 7712 H 727.817 -1.00803 1.62822 0
M  V30 7713 H 726.122 -3.61259 1.51655 0
M  V30 7714 H 727.819 -3.53161 1.89942 0
M  V30 7715 H 724.409 -2.8784 3.17563 0
M  V30 7716 H 728.593 -2.72956 4.14498 0
M  V30 7717 H 723.849 -2.56731 5.54887 0
M  V30 7718 H 728.023 -2.42938 6.52652 0
M  V30 7719 H 725.65 -2.34324 7.23185 0
M  V30 7720 N 727.225 -1.14528 -1.08264 0
M  V30 7721 C 728.473 -0.912599 -1.80322 0
M  V30 7722 C 728.794 0.562256 -1.86718 0
M  V30 7723 O 728.064 1.40869 -1.36135 0
M  V30 7724 H 726.644 -0.334645 -0.667849 0
M  V30 7725 H 729.306 -1.44415 -1.30883 0
M  V30 7726 H 728.402 -1.31384 -2.83098 0
M  V30 7727 N 728.703 1.26451 -0.940633 0
M  V30 7728 C 729.635 2.25556 -0.407104 0
M  V30 7729 C 730.648 1.55888 0.469324 0
M  V30 7730 O 731.837 1.76292 0.279858 0
M  V30 7731 C 728.937 3.36109 0.434064 0
M  V30 7732 C 728.11 4.3532 -0.426082 0
M  V30 7733 C 727.169 5.25004 0.354563 0
M  V30 7734 O 726.195 5.68684 -0.242219 0
M  V30 7735 N 727.397 5.5652 1.65123 0
M  V30 7736 H 730.162 2.7197 -1.25907 0
M  V30 7737 H 727.723 1.40212 -0.809456 0
M  V30 7738 H 729.715 3.93059 0.963684 0
M  V30 7739 H 728.285 2.89194 1.18683 0
M  V30 7740 H 727.505 3.77449 -1.13692 0
M  V30 7741 H 728.793 4.986 -1.01366 0
M  V30 7742 H 728.191 5.22912 2.15822 0
M  V30 7743 H 726.748 6.16115 2.12711 0
M  V30 7744 N 730.181 0.707592 1.40822 0
M  V30 7745 C 731.427 0.252828 2.01823 0
M  V30 7746 C 731.782 -1.13876 1.55081 0
M  V30 7747 O 731.075 -1.75993 0.757439 0
M  V30 7748 C 731.269 0.262892 3.56432 0
M  V30 7749 C 731.098 1.65392 4.18181 0
M  V30 7750 C 729.868 2.25966 4.5196 0
M  V30 7751 C 732.066 2.60272 4.4358 0
M  V30 7752 N 730.048 3.57508 4.9906 0
M  V30 7753 C 731.419 3.76509 4.92586 0
M  V30 7754 C 733.474 2.58386 4.25607 0
M  V30 7755 C 732.177 4.91157 5.25507 0
M  V30 7756 C 734.203 3.72155 4.59625 0
M  V30 7757 C 733.565 4.87123 5.08813 0
M  V30 7758 H 729.664 0.138172 0.769696 0
M  V30 7759 H 732.248 0.927667 1.7118 0
M  V30 7760 H 730.419 -0.381479 3.86522 0
M  V30 7761 H 732.151 -0.20783 4.04166 0
M  V30 7762 H 728.906 1.78138 4.38821 0
M  V30 7763 H 729.33 4.24968 5.27002 0
M  V30 7764 H 733.972 1.7071 3.86805 0
M  V30 7765 H 731.69 5.79483 5.63227 0
M  V30 7766 H 735.276 3.71961 4.47366 0
M  V30 7767 H 734.156 5.73698 5.3464 0
M  V30 7768 N 731.66 -1.50943 0.453197 0
M  V30 7769 C 732.906 -2.02512 -0.108082 0
M  V30 7770 C 733.239 -1.33574 -1.40967 0
M  V30 7771 O 732.514 -0.455671 -1.89087 0
M  V30 7772 C 732.797 -3.58759 -0.310453 0
M  V30 7773 C 732.65 -4.38293 1.0109 0
M  V30 7774 C 733.969 -4.26816 -1.07313 0
M  V30 7775 H 731.088 -0.73603 -0.0378064 0
M  V30 7776 H 733.73 -1.80433 0.595295 0
M  V30 7777 H 731.88 -3.77702 -0.909582 0
M  V30 7778 H 733.552 -4.30964 1.64523 0
M  V30 7779 H 731.795 -4.02745 1.61179 0
M  V30 7780 H 732.466 -5.45828 0.82315 0
M  V30 7781 H 734.942 -4.1224 -0.565473 0
M  V30 7782 H 733.818 -5.35989 -1.1835 0
M  V30 7783 H 734.079 -3.88757 -2.10525 0
M  V30 7784 N 733.138 -0.185124 -1.56509 0
M  V30 7785 C 734.363 0.465278 -2.02114 0
M  V30 7786 C 734.788 1.55083 -1.06447 0
M  V30 7787 O 734.146 1.81241 -0.0462852 0
M  V30 7788 C 734.194 1.00784 -3.46229 0
M  V30 7789 O 733.298 2.12123 -3.53663 0
M  V30 7790 H 732.639 0.109891 -0.654843 0
M  V30 7791 H 735.169 -0.293072 -2.0249 0
M  V30 7792 H 735.179 1.32697 -3.85818 0
M  V30 7793 H 733.854 0.213113 -4.15354 0
M  V30 7794 H 732.431 1.8115 -3.25943 0
M  V30 7795 N 734.616 1.57351 0.0885366 0
M  V30 7796 C 735.841 1.91011 0.80805 0
M  V30 7797 C 736.266 0.780009 1.71165 0
M  V30 7798 O 735.624 -0.268083 1.79307 0
M  V30 7799 C 735.672 3.23562 1.59185 0
M  V30 7800 O 734.776 3.11615 2.7013 0
M  V30 7801 H 734.117 0.625943 0.221565 0
M  V30 7802 H 736.647 2.04507 0.0617954 0
M  V30 7803 H 736.657 3.5703 1.97468 0
M  V30 7804 H 735.332 4.05398 0.928741 0
M  V30 7805 H 733.909 2.89673 2.34827 0
M  V30 7806 N 736.094 -0.359525 1.53444 0
M  V30 7807 C 737.319 -1.12644 1.74144 0
M  V30 7808 C 737.744 -1.82082 0.472007 0
M  V30 7809 O 737.102 -1.71962 -0.57436 0
M  V30 7810 C 737.15 -2.12781 2.9113 0
M  V30 7811 O 736.254 -3.19984 2.60162 0
M  V30 7812 H 735.595 -0.326553 0.578152 0
M  V30 7813 H 738.125 -0.414798 2.00351 0
M  V30 7814 H 738.135 -2.56278 3.17467 0
M  V30 7815 H 736.81 -1.61634 3.83207 0
M  V30 7816 H 735.387 -2.81417 2.44661 0
M  V30 7817 N 737.572 -1.44907 -0.619662 0
M  V30 7818 C 738.8 -1.51795 -1.40591 0
M  V30 7819 C 739.215 -0.146553 -1.8823 0
M  V30 7820 O 738.572 0.849698 -1.61513 0
M  V30 7821 C 738.623 -2.49229 -2.61853 0
M  V30 7822 O 738.344 -3.81039 -2.16197 0
M  V30 7823 C 739.845 -2.65696 -3.54853 0
M  V30 7824 H 737.065 -0.514463 -0.430777 0
M  V30 7825 H 739.609 -1.8998 -0.756813 0
M  V30 7826 H 737.764 -2.14149 -3.2283 0
M  V30 7827 H 738.178 -4.33747 -2.94896 0
M  V30 7828 H 739.652 -3.37874 -4.36515 0
M  V30 7829 H 740.129 -1.71316 -4.0441 0
M  V30 7830 H 740.735 -3.01724 -2.99737 0
M  V30 7831 N 739.05 0.861098 -1.31996 0
M  V30 7832 C 739.98 1.98482 -1.22993 0
M  V30 7833 C 740.961 1.6971 -0.115168 0
M  V30 7834 O 742.146 1.91849 -0.30126 0
M  V30 7835 C 739.276 3.34179 -0.945615 0
M  V30 7836 C 738.23 3.77284 -2.02091 0
M  V30 7837 C 737.556 5.1054 -1.58912 0
M  V30 7838 C 738.856 3.93439 -3.43515 0
M  V30 7839 H 740.55 2.06271 -2.17008 0
M  V30 7840 H 738.096 0.991043 -1.04472 0
M  V30 7841 H 740.049 4.12338 -0.869206 0
M  V30 7842 H 738.773 3.26586 0.0301849 0
M  V30 7843 H 737.432 3.01371 -2.08737 0
M  V30 7844 H 737.08 4.99397 -0.600942 0
M  V30 7845 H 736.78 5.40352 -2.30854 0
M  V30 7846 H 738.304 5.91199 -1.52696 0
M  V30 7847 H 739.718 4.6197 -3.39495 0
M  V30 7848 H 738.115 4.34661 -4.13751 0
M  V30 7849 H 739.185 2.96548 -3.8365 0
M  V30 7850 N 740.528 1.15101 1.07655 0
M  V30 7851 C 741.476 0.840714 2.16875 0
M  V30 7852 C 742.47 -0.184594 1.68391 0
M  V30 7853 O 743.676 -0.0399315 1.79956 0
M  V30 7854 H 740.051 0.254192 0.707736 0
M  V30 7855 H 742.022 1.76959 2.40266 0
M  V30 7856 C 740.771 0.343018 3.46004 0
M  V30 7857 H 740.094 1.12335 3.83694 0
M  V30 7858 H 741.534 0.16453 4.23681 0
M  V30 7859 C 739.993 -0.934881 3.23669 0
M  V30 7860 O 740.523 -2.00706 3.47965 0
M  V30 7861 N 738.729 -0.873167 2.77172 0
M  V30 7862 H 738.276 -0.000479072 2.576 0
M  V30 7863 H 738.234 -1.72873 2.62607 0
M  V30 7864 N 742.006 -1.2595 0.947325 0
M  V30 7865 C 742.939 -2.24559 0.406009 0
M  V30 7866 C 743.917 -1.54441 -0.508598 0
M  V30 7867 O 745.101 -1.83181 -0.444644 0
M  V30 7868 C 742.228 -3.36136 -0.415987 0
M  V30 7869 C 741.274 -4.24245 0.437969 0
M  V30 7870 S 742.107 -5.01948 1.86572 0
M  V30 7871 C 743.263 -6.16997 1.05194 0
M  V30 7872 H 743.496 -2.70128 1.24171 0
M  V30 7873 H 741.029 -1.34912 0.750874 0
M  V30 7874 H 742.987 -4.00861 -0.88433 0
M  V30 7875 H 741.648 -2.89167 -1.22643 0
M  V30 7876 H 740.841 -5.03634 -0.192127 0
M  V30 7877 H 740.443 -3.64416 0.841235 0
M  V30 7878 H 742.735 -6.76848 0.297126 0
M  V30 7879 H 743.678 -6.84324 1.8195 0
M  V30 7880 H 744.086 -5.61458 0.585294 0
M  V30 7881 N 743.484 -0.715051 -1.40445 0
M  V30 7882 C 744.709 -0.26254 -2.05732 0
M  V30 7883 C 745.134 1.08691 -1.53519 0
M  V30 7884 O 744.492 1.68453 -0.670328 0
M  V30 7885 C 744.54 -0.25195 -3.59719 0
M  V30 7886 O 743.644 0.766998 -4.05205 0
M  V30 7887 H 742.985 -0.123398 -0.652433 0
M  V30 7888 H 745.515 -0.975382 -1.79854 0
M  V30 7889 H 745.525 -0.0894537 -4.07902 0
M  V30 7890 H 744.2 -1.23672 -3.97087 0
M  V30 7891 H 742.777 0.572269 -3.68483 0
M  V30 7892 N 744.962 1.50701 -0.461195 0
M  V30 7893 C 745.872 2.32069 0.343661 0
M  V30 7894 C 746.888 1.42016 1.00535 0
M  V30 7895 O 748.064 1.75077 0.995498 0
M  V30 7896 C 745.129 3.16424 1.41692 0
M  V30 7897 C 744.19 4.22286 0.772869 0
M  V30 7898 C 743.423 5.02609 1.79499 0
M  V30 7899 O 743.646 4.83874 3.0203 0
M  V30 7900 O 742.58 5.86047 1.3723 0
M  V30 7901 H 746.406 3.01996 -0.321268 0
M  V30 7902 H 743.991 1.47723 -0.223235 0
M  V30 7903 H 745.873 3.68795 2.03883 0
M  V30 7904 H 744.548 2.49236 2.0655 0
M  V30 7905 H 743.455 3.73931 0.112277 0
M  V30 7906 H 744.788 4.91915 0.167399 0
M  V30 7907 N 746.441 0.193421 1.56409 0
M  V30 7908 C 747.404 -0.714371 2.17783 0
M  V30 7909 C 748.404 -1.1422 1.13183 0
M  V30 7910 O 749.594 -1.05557 1.38576 0
M  V30 7911 C 746.726 -1.97509 2.77855 0
M  V30 7912 H 747.919 -0.179714 2.99361 0
M  V30 7913 H 745.472 -0.0561944 1.56199 0
M  V30 7914 H 746.207 -2.5523 2.0007 0
M  V30 7915 H 745.992 -1.67706 3.54425 0
M  V30 7916 H 747.482 -2.62246 3.24987 0
M  V30 7917 N 747.919 -1.57396 -0.0801906 0
M  V30 7918 C 749.168 -1.8602 -0.779702 0
M  V30 7919 C 749.481 -0.784864 -1.79163 0
M  V30 7920 O 750.687 -0.958691 -2.54011 0
M  V30 7921 C 749.143 -3.29942 -1.43758 0
M  V30 7922 C 748.751 -4.45584 -0.464654 0
M  V30 7923 C 750.495 -3.67775 -2.11995 0
M  V30 7924 C 748.402 -5.80544 -1.12797 0
M  V30 7925 H 747.332 -0.69392 -0.294943 0
M  V30 7926 H 749.983 -1.83471 -0.0328527 0
M  V30 7927 H 748.365 -3.27078 -2.2324 0
M  V30 7928 H 749.539 -4.59824 0.299749 0
M  V30 7929 H 747.854 -4.16247 0.112813 0
M  V30 7930 H 750.451 -4.65896 -2.62383 0
M  V30 7931 H 750.794 -2.9715 -2.91561 0
M  V30 7932 H 751.327 -3.72593 -1.39354 0
M  V30 7933 H 748.066 -6.54439 -0.372807 0
M  V30 7934 H 747.586 -5.70119 -1.86344 0
M  V30 7935 H 749.265 -6.25602 -1.6502 0
M  V30 7936 N 749.397 0.351382 -1.53633 0
M  V30 7937 C 750.344 1.43115 -1.81071 0
M  V30 7938 C 751.314 1.52601 -0.655913 0
M  V30 7939 O 752.499 1.68264 -0.89955 0
M  V30 7940 C 749.639 2.79874 -2.01903 0
M  V30 7941 C 748.752 2.79242 -3.29618 0
M  V30 7942 C 747.887 4.07667 -3.40559 0
M  V30 7943 C 746.926 4.01233 -4.62254 0
M  V30 7944 N 746.063 5.21334 -4.70271 0
M  V30 7945 H 750.903 1.19017 -2.73201 0
M  V30 7946 H 748.44 0.576691 -1.35324 0
M  V30 7947 H 750.398 3.5934 -2.11969 0
M  V30 7948 H 749.028 3.0234 -1.13094 0
M  V30 7949 H 748.08 1.91927 -3.28433 0
M  V30 7950 H 749.392 2.70363 -4.19172 0
M  V30 7951 H 748.546 4.95555 -3.50015 0
M  V30 7952 H 747.285 4.19317 -2.49047 0
M  V30 7953 H 746.29 3.11732 -4.52884 0
M  V30 7954 H 747.515 3.91173 -5.55122 0
M  V30 7955 H 745.461 5.33543 -3.81665 0
M  V30 7956 H 745.378 5.14681 -5.5375 0
M  V30 7957 H 746.646 6.11014 -4.84027 0
M  V30 7958 N 750.875 1.45233 0.611969 0
M  V30 7959 C 752.123 1.48727 1.36838 0
M  V30 7960 C 752.444 0.128616 1.94575 0
M  V30 7961 O 751.714 -0.84149 1.76906 0
M  V30 7962 H 750.294 0.547695 0.507976 0
M  V30 7963 H 752.956 1.81156 0.718925 0
M  V30 7964 H 752.052 2.2236 2.19003 0
M  V30 7965 N 752.353 -0.854086 1.3245 0
M  V30 7966 C 753.6 -1.60831 1.23043 0
M  V30 7967 C 753.928 -1.93389 -0.2076 0
M  V30 7968 O 753.183 -1.5756 -1.16075 0
M  V30 7969 C 753.482 -2.93746 2.03587 0
M  V30 7970 C 753.148 -2.80615 3.52939 0
M  V30 7971 C 751.81 -2.76742 3.93659 0
M  V30 7972 C 754.162 -2.66507 4.4791 0
M  V30 7973 C 751.49 -2.56638 5.27592 0
M  V30 7974 C 753.842 -2.47939 5.81987 0
M  V30 7975 C 752.506 -2.42458 6.21909 0
M  V30 7976 H 751.776 -0.588523 0.450247 0
M  V30 7977 H 754.423 -0.990699 1.63882 0
M  V30 7978 H 752.728 -3.5963 1.55478 0
M  V30 7979 H 754.425 -3.51127 1.93677 0
M  V30 7980 H 751.015 -2.84456 3.20598 0
M  V30 7981 H 755.199 -2.68544 4.1737 0
M  V30 7982 H 750.455 -2.50831 5.57579 0
M  V30 7983 H 754.629 -2.36002 6.55192 0
M  V30 7984 H 752.256 -2.2664 7.2563 0
M  V30 7985 N 753.831 -1.1567 -1.07043 0
M  V30 7986 C 754.761 -0.879348 -2.16309 0
M  V30 7987 C 755.742 0.171311 -1.69235 0
M  V30 7988 O 756.927 0.0250175 -1.94184 0
M  V30 7989 C 754.057 -0.371307 -3.45309 0
M  V30 7990 C 753.011 -1.359 -4.05851 0
M  V30 7991 C 752.337 -0.709678 -5.29969 0
M  V30 7992 C 753.637 -2.72606 -4.45514 0
M  V30 7993 H 755.331 -1.79308 -2.39768 0
M  V30 7994 H 752.877 -0.863558 -1.15233 0
M  V30 7995 H 754.83 -0.164798 -4.21078 0
M  V30 7996 H 753.554 0.577906 -3.21446 0
M  V30 7997 H 752.213 -1.55193 -3.32131 0
M  V30 7998 H 751.861 0.245782 -5.02399 0
M  V30 7999 H 751.561 -1.36886 -5.71433 0
M  V30 8000 H 753.085 -0.513015 -6.08441 0
M  V30 8001 H 754.499 -2.57141 -5.12398 0
M  V30 8002 H 752.896 -3.34927 -4.97939 0
M  V30 8003 H 753.966 -3.28434 -3.56734 0
M  V30 8004 N 755.309 1.25446 -0.953992 0
M  V30 8005 C 756.555 1.9343 -0.60933 0
M  V30 8006 C 756.888 1.74542 0.851388 0
M  V30 8007 O 756.163 1.09014 1.61078 0
M  V30 8008 C 756.446 3.46844 -0.968041 0
M  V30 8009 C 756.299 3.74961 -2.48444 0
M  V30 8010 C 757.618 4.37334 -0.492641 0
M  V30 8011 H 754.737 0.702502 -0.222844 0
M  V30 8012 H 757.379 1.48076 -1.19053 0
M  V30 8013 H 755.529 3.85604 -0.473465 0
M  V30 8014 H 757.201 3.45841 -3.05273 0
M  V30 8015 H 755.444 3.20589 -2.92241 0
M  V30 8016 H 756.115 4.82246 -2.68594 0
M  V30 8017 H 758.591 4.05873 -0.916878 0
M  V30 8018 H 757.467 5.43439 -0.772331 0
M  V30 8019 H 757.728 4.37908 0.607403 0
M  V30 8020 N 756.787 0.722489 1.40064 0
M  V30 8021 C 757.734 0.0743738 2.3068 0
M  V30 8022 C 758.704 -0.743004 1.48555 0
M  V30 8023 O 759.889 -0.705536 1.77276 0
M  V30 8024 C 757.029 -0.836292 3.34814 0
M  V30 8025 C 756.142 -0.00764663 4.31999 0
M  V30 8026 C 755.277 -0.918428 5.232 0
M  V30 8027 C 754.316 -0.0842838 6.12042 0
M  V30 8028 N 753.453 -0.950316 6.95639 0
M  V30 8029 H 758.293 0.852794 2.85537 0
M  V30 8030 H 755.83 0.432222 1.40607 0
M  V30 8031 H 757.788 -1.3786 3.93765 0
M  V30 8032 H 756.418 -1.58082 2.81443 0
M  V30 8033 H 755.47 0.651928 3.74772 0
M  V30 8034 H 756.782 0.63786 4.94705 0
M  V30 8035 H 755.936 -1.52902 5.87116 0
M  V30 8036 H 754.675 -1.59774 4.60786 0
M  V30 8037 H 753.68 0.5392 5.4715 0
M  V30 8038 H 754.905 0.591628 6.76518 0
M  V30 8039 H 752.851 -1.61515 6.35806 0
M  V30 8040 H 752.768 -0.361004 7.55138 0
M  V30 8041 H 754.036 -1.54687 7.63997 0
M  V30 8042 N 758.265 -1.50454 0.469181 0
M  V30 8043 C 759.505 -2.04222 -0.0852381 0
M  V30 8044 C 759.869 -1.34357 -1.37158 0
M  V30 8045 O 761.07 -1.78669 -2.00825 0
M  V30 8046 C 759.341 -3.56403 -0.266778 0
M  V30 8047 S 760.9 -4.31811 -0.780028 0
M  V30 8048 H 757.718 -0.7108 -0.0168589 0
M  V30 8049 H 760.32 -1.8487 0.635883 0
M  V30 8050 H 759.024 -4.04807 0.67525 0
M  V30 8051 H 758.555 -3.80106 -1.01407 0
M  V30 8052 H 760.57 -4.51706 -2.05368 0
M  V30 8053 N 759.743 -0.201713 -1.56304 0
M  V30 8054 C 760.983 0.437395 -1.99665 0
M  V30 8055 C 761.347 1.58341 -1.08592 0
M  V30 8056 O 762.548 2.28716 -1.41217 0
M  V30 8057 C 760.819 0.879572 -3.46408 0
M  V30 8058 S 762.378 1.51558 -4.11795 0
M  V30 8059 H 759.196 0.139621 -0.697156 0
M  V30 8060 H 761.798 -0.306337 -1.93085 0
M  V30 8061 H 760.502 0.0355295 -4.10385 0
M  V30 8062 H 760.033 1.65661 -3.56819 0
M  V30 8063 H 762.048 2.80445 -4.09347 0
M  V30 8064 N 761.222 1.57436 0.0718424 0
M  V30 8065 C 762.185 2.02703 1.06977 0
M  V30 8066 C 763.185 0.924062 1.31597 0
M  V30 8067 O 764.375 1.18894 1.27318 0
M  V30 8068 C 761.507 2.40763 2.41342 0
M  V30 8069 H 762.7 2.92098 0.679619 0
M  V30 8070 H 760.253 1.5304 0.317565 0
M  V30 8071 H 760.988 1.54394 2.8519 0
M  V30 8072 H 760.773 3.21249 2.24814 0
M  V30 8073 H 762.263 2.76361 3.13073 0
M  V30 8074 N 762.7 -0.34323 1.53817 0
M  V30 8075 C 763.93 -1.10188 1.74763 0
M  V30 8076 C 764.338 -1.82829 0.486856 0
M  V30 8077 O 763.681 -1.75236 -0.551198 0
M  V30 8078 C 763.743 -2.16 2.87375 0
M  V30 8079 C 763.407 -1.62931 4.26969 0
M  V30 8080 C 764.404 -1.08147 5.08528 0
M  V30 8081 C 762.089 -1.67769 4.73454 0
M  V30 8082 C 764.083 -0.589039 6.34672 0
M  V30 8083 C 761.77 -1.18138 5.99572 0
M  V30 8084 C 762.768 -0.637979 6.80014 0
M  V30 8085 O 762.456 -0.149073 8.03762 0
M  V30 8086 H 762.188 -0.33445 0.587469 0
M  V30 8087 H 764.742 -0.401109 2.01445 0
M  V30 8088 H 762.972 -2.89637 2.56218 0
M  V30 8089 H 764.661 -2.77432 2.96287 0
M  V30 8090 H 765.427 -1.03732 4.73777 0
M  V30 8091 H 761.306 -2.09004 4.10899 0
M  V30 8092 H 764.85 -0.164233 6.97407 0
M  V30 8093 H 760.747 -1.22254 6.33817 0
M  V30 8094 H 761.515 -0.266332 8.18067 0
M  V30 8095 N 764.178 -1.45556 -0.604258 0
M  V30 8096 C 765.126 -1.5482 -1.7359 0
M  V30 8097 C 766.12 -0.417966 -1.64163 0
M  V30 8098 O 767.326 -0.594007 -1.69916 0
M  V30 8099 H 763.701 -0.486352 -0.573556 0
M  V30 8100 H 765.672 -2.5001 -1.62903 0
M  V30 8101 C 764.421 -1.53521 -3.11972 0
M  V30 8102 H 763.744 -2.39818 -3.19886 0
M  V30 8103 H 765.184 -1.64061 -3.90973 0
M  V30 8104 C 763.643 -0.260191 -3.35894 0
M  V30 8105 O 764.173 0.658582 -3.96265 0
M  V30 8106 N 762.379 -0.154839 -2.90187 0
M  V30 8107 H 761.926 -0.903378 -2.4124 0
M  V30 8108 H 761.884 0.697437 -3.06567 0
M  V30 8109 N 765.656 0.84705 -1.32902 0
M  V30 8110 C 766.881 1.63925 -1.27056 0
M  V30 8111 C 767.306 1.87443 0.157136 0
M  V30 8112 O 766.664 1.43266 1.11106 0
M  V30 8113 C 766.712 2.97134 -2.04313 0
M  V30 8114 O 765.816 3.88049 -1.39614 0
M  V30 8115 H 765.157 0.499477 -0.437514 0
M  V30 8116 H 767.687 1.05443 -1.75336 0
M  V30 8117 H 767.697 3.46896 -2.14772 0
M  V30 8118 H 766.372 2.79339 -3.08128 0
M  V30 8119 H 764.949 3.46525 -1.3775 0
M  V30 8120 N 767.134 1.16236 1.06428 0
M  V30 8121 C 768.064 0.890807 2.1584 0
M  V30 8122 C 769.045 -0.162333 1.69324 0
M  V30 8123 O 770.23 -0.0147191 1.94194 0
M  V30 8124 C 767.36 0.389615 3.45108 0
M  V30 8125 C 766.314 1.38051 4.05125 0
M  V30 8126 C 765.64 0.737773 5.29586 0
M  V30 8127 C 766.94 2.74965 4.44062 0
M  V30 8128 H 768.634 1.80577 2.38814 0
M  V30 8129 H 766.18 0.869657 1.14774 0
M  V30 8130 H 768.133 0.187127 4.20984 0
M  V30 8131 H 766.857 -0.560851 3.21748 0
M  V30 8132 H 765.516 1.56952 3.31303 0
M  V30 8133 H 765.164 -0.219135 5.02522 0
M  V30 8134 H 764.864 1.39914 5.70699 0
M  V30 8135 H 766.388 0.545275 6.0816 0
M  V30 8136 H 767.802 2.59855 5.11027 0
M  V30 8137 H 766.199 3.37563 4.96156 0
M  V30 8138 H 767.269 3.30321 3.54987 0
M  V30 8139 N 768.612 -1.24939 0.960631 0
M  V30 8140 C 769.86 -1.92437 0.617441 0
M  V30 8141 C 770.181 -1.75543 -0.849101 0
M  V30 8142 O 769.451 -1.12269 -1.60538 0
M  V30 8143 H 768.031 -0.712192 0.225371 0
M  V30 8144 H 770.693 -1.5198 1.22017 0
M  V30 8145 H 769.789 -3.00247 0.851933 0
M  V30 8146 N 770.09 -0.729906 -1.39679 0
M  V30 8147 C 771.318 -0.285709 -2.04918 0
M  V30 8148 C 771.733 1.07765 -1.55023 0
M  V30 8149 O 771.09 1.67999 -0.712923 0
M  V30 8150 C 771.141 -0.272793 -3.60469 0
M  V30 8151 O 770.862 -1.58233 -4.08527 0
M  V30 8152 C 772.363 0.188199 -4.429 0
M  V30 8153 H 769.583 -0.125758 -0.65911 0
M  V30 8154 H 772.127 -0.992129 -1.78821 0
M  V30 8155 H 770.282 0.384699 -3.85485 0
M  V30 8156 H 770.696 -1.49245 -5.02818 0
M  V30 8157 H 772.17 0.14608 -5.51807 0
M  V30 8158 H 772.647 1.2326 -4.21549 0
M  V30 8159 H 773.253 -0.439541 -4.23023 0
M  V30 8160 N 771.568 1.50203 -0.477153 0
M  V30 8161 C 772.793 2.07263 0.0754986 0
M  V30 8162 C 773.218 1.33801 1.32208 0
M  V30 8163 O 772.576 0.387482 1.77111 0
M  V30 8164 C 772.624 3.59028 0.336348 0
M  V30 8165 O 771.728 3.87339 1.4157 0
M  V30 8166 H 771.069 0.663815 -0.015662 0
M  V30 8167 H 773.599 1.93321 -0.669936 0
M  V30 8168 H 773.609 4.03927 0.575034 0
M  V30 8169 H 772.284 4.11912 -0.574551 0
M  V30 8170 H 770.861 3.54272 1.16385 0
M  V30 8171 N 773.046 0.209999 1.56195 0
M  V30 8172 C 774.286 -0.4268 1.99894 0
M  V30 8173 C 774.65 -1.57763 1.0943 0
M  V30 8174 O 775.851 -2.27964 1.42428 0
M  V30 8175 C 774.122 -0.861188 3.46869 0
M  V30 8176 S 775.681 -1.49372 4.12593 0
M  V30 8177 H 772.499 -0.135922 0.697887 0
M  V30 8178 H 775.101 0.316573 1.9292 0
M  V30 8179 H 773.805 -0.0137653 4.10398 0
M  V30 8180 H 773.336 -1.63766 3.57693 0
M  V30 8181 H 775.351 -2.7827 4.10829 0
M  V30 8182 N 774.524 -1.57472 -0.0634922 0
M  V30 8183 C 775.434 -2.07621 -1.09227 0
M  V30 8184 C 776.45 -1.00746 -1.41867 0
M  V30 8185 O 777.626 -1.32269 -1.51878 0
M  V30 8186 C 774.691 -2.51707 -2.38421 0
M  V30 8187 C 773.752 -3.72917 -2.12676 0
M  V30 8188 C 772.985 -4.14891 -3.3571 0
M  V30 8189 O 773.208 -3.56663 -4.45137 0
M  V30 8190 O 772.142 -5.07616 -3.23434 0
M  V30 8191 H 775.968 -2.95612 -0.696205 0
M  V30 8192 H 773.553 -1.46787 -0.27819 0
M  V30 8193 H 775.435 -2.80547 -3.14438 0
M  V30 8194 H 774.11 -1.66842 -2.77391 0
M  V30 8195 H 773.017 -3.49148 -1.34337 0
M  V30 8196 H 774.35 -4.5866 -1.78583 0
M  V30 8197 N 776.003 0.335068 -1.53997 0
M  V30 8198 C 777.231 1.09418 -1.756 0
M  V30 8199 C 777.646 1.82083 -0.499138 0
M  V30 8200 O 777.003 1.74646 0.529631 0
M  V30 8201 C 777.054 2.10115 -2.94166 0
M  V30 8202 O 776.775 1.40404 -4.14992 0
M  V30 8203 C 778.276 2.98336 -3.27888 0
M  V30 8204 H 775.496 0.32595 -0.586513 0
M  V30 8205 H 778.04 0.384693 -2.00849 0
M  V30 8206 H 776.195 2.76616 -2.71224 0
M  V30 8207 H 776.609 2.07743 -4.81605 0
M  V30 8208 H 778.083 3.6491 -4.1418 0
M  V30 8209 H 778.56 3.64814 -2.44556 0
M  V30 8210 H 779.166 2.37412 -3.52868 0
M  V30 8211 N 777.481 1.45874 0.596531 0
M  V30 8212 C 778.73 1.49737 1.35135 0
M  V30 8213 C 779.043 0.147755 1.95041 0
M  V30 8214 O 780.249 0.0640984 2.71424 0
M  V30 8215 C 778.705 2.6378 2.44843 0
M  V30 8216 C 778.313 4.05102 1.91301 0
M  V30 8217 C 780.057 2.769 3.21755 0
M  V30 8218 C 777.964 5.10508 2.98557 0
M  V30 8219 H 776.894 0.557219 0.507959 0
M  V30 8220 H 779.545 1.72046 0.638147 0
M  V30 8221 H 777.927 2.34774 3.189 0
M  V30 8222 H 779.101 4.43836 1.2388 0
M  V30 8223 H 777.416 3.96528 1.271 0
M  V30 8224 H 780.013 3.52819 4.01775 0
M  V30 8225 H 780.356 1.83924 3.73467 0
M  V30 8226 H 780.889 3.05485 2.54802 0
M  V30 8227 H 777.628 6.0523 2.51749 0
M  V30 8228 H 777.148 4.76332 3.6451 0
M  V30 8229 H 778.827 5.35745 3.62748 0
M  V30 8230 N 778.959 -0.83999 1.33349 0
M  V30 8231 C 779.889 -1.965 1.26135 0
M  V30 8232 C 780.87 -1.69505 0.142152 0
M  V30 8233 O 782.055 -1.91346 0.331743 0
M  V30 8234 C 779.185 -3.32632 0.99866 0
M  V30 8235 C 778.139 -3.74021 2.08068 0
M  V30 8236 C 777.465 -5.07947 1.67014 0
M  V30 8237 C 778.765 -3.87925 3.49731 0
M  V30 8238 H 780.459 -2.02793 2.20262 0
M  V30 8239 H 778.005 -0.974297 1.06035 0
M  V30 8240 H 779.958 -4.10903 0.934696 0
M  V30 8241 H 778.682 -3.26593 0.0217759 0
M  V30 8242 H 777.341 -2.98012 2.13505 0
M  V30 8243 H 776.989 -4.98378 0.680316 0
M  V30 8244 H 776.689 -5.36611 2.39422 0
M  V30 8245 H 778.213 -5.88695 1.62082 0
M  V30 8246 H 779.627 -4.5651 3.46802 0
M  V30 8247 H 778.024 -4.28023 4.20614 0
M  V30 8248 H 779.094 -2.90407 3.88319 0
M  V30 8249 N 780.437 -1.16799 -1.0581 0
M  V30 8250 C 781.367 -0.902241 -2.15364 0
M  V30 8251 C 782.348 0.153351 -1.69407 0
M  V30 8252 O 783.533 0.00442032 -1.94199 0
M  V30 8253 C 780.663 -0.407911 -3.44896 0
M  V30 8254 C 779.617 -1.40197 -4.04387 0
M  V30 8255 C 778.943 -0.765848 -5.29187 0
M  V30 8256 C 780.243 -2.77316 -4.42598 0
M  V30 8257 H 781.937 -1.81841 -2.37853 0
M  V30 8258 H 779.483 -0.875731 -1.14311 0
M  V30 8259 H 781.436 -0.20945 -4.20879 0
M  V30 8260 H 780.16 0.54378 -3.22041 0
M  V30 8261 H 778.819 -1.58707 -3.30466 0
M  V30 8262 H 778.467 0.192482 -5.02632 0
M  V30 8263 H 778.167 -1.42939 -5.69949 0
M  V30 8264 H 779.691 -0.577519 -6.07863 0
M  V30 8265 H 781.105 -2.62561 -5.09642 0
M  V30 8266 H 779.502 -3.4019 -4.94359 0
M  V30 8267 H 780.572 -3.32199 -3.53231 0
M  V30 8268 N 781.915 1.24427 -0.967243 0
M  V30 8269 C 782.863 2.27403 -0.488927 0
M  V30 8270 C 783.857 1.63388 0.447302 0
M  V30 8271 O 785.063 1.77085 0.322643 0
M  V30 8272 H 781.438 0.738921 -0.139643 0
M  V30 8273 H 783.409 2.65122 -1.36942 0
M  V30 8274 C 782.158 3.4709 0.205787 0
M  V30 8275 H 781.481 3.96591 -0.50551 0
M  V30 8276 H 782.921 4.2099 0.504296 0
M  V30 8277 C 781.38 3.04923 1.43261 0
M  V30 8278 O 781.91 3.12043 2.52967 0
M  V30 8279 N 780.116 2.59976 1.29849 0
M  V30 8280 H 779.663 2.54382 0.405876 0
M  V30 8281 H 779.621 2.32128 2.12047 0
M  V30 8282 N 783.393 0.737304 1.3929 0
M  V30 8283 C 784.618 0.295237 2.05288 0
M  V30 8284 C 785.043 -1.06235 1.55228 0
M  V30 8285 O 784.401 -1.67365 0.697043 0
M  V30 8286 C 784.449 0.309146 3.59272 0
M  V30 8287 O 783.553 -0.702437 4.06374 0
M  V30 8288 H 782.894 0.133762 0.650387 0
M  V30 8289 H 785.424 1.00387 1.78279 0
M  V30 8290 H 785.434 0.154336 4.07708 0
M  V30 8291 H 784.109 1.29974 3.95069 0
M  V30 8292 H 782.686 -0.513574 3.69346 0
M  V30 8293 N 784.871 -1.49948 0.485112 0
M  V30 8294 C 786.282 -1.8667 0.0334041 0
M  V30 8295 C 786.633 -1.3988 -1.37579 0
M  V30 8296 O 785.758 -0.769788 -2.02245 0
M  V30 8297 C 786.353 -3.38757 0.0538426 0
M  V30 8298 C 784.912 -3.74839 -0.342453 0
M  V30 8299 C 784.059 -2.73894 0.433281 0
M  V30 8300 H 787.01 -1.42492 0.698699 0
M  V30 8301 H 787.031 -3.73132 -0.745146 0
M  V30 8302 H 786.543 -3.72782 1.07959 0
M  V30 8303 H 784.644 -3.46419 -1.37203 0
M  V30 8304 H 784.757 -4.79088 -0.0340503 0
M  V30 8305 H 783.121 -2.54441 -0.114849 0
M  V30 8306 H 783.904 -3.10763 1.45881 0
M  V30 8307 N 786.349 -0.21828 -1.56081 0
M  V30 8308 C 787.597 0.413488 -1.97825 0
M  V30 8309 C 787.918 1.60527 -1.10707 0
M  V30 8310 O 787.188 1.9504 -0.183378 0
M  V30 8311 H 785.768 0.155757 -0.730581 0
M  V30 8312 H 788.43 -0.310413 -1.92412 0
M  V30 8313 H 787.526 0.742024 -3.03151 0
M  V30 8314 N 787.827 1.57504 0.0551401 0
M  V30 8315 C 789.238 1.76626 0.604979 0
M  V30 8316 C 789.589 0.845978 1.77024 0
M  V30 8317 O 788.714 0.0341936 2.16373 0
M  V30 8318 C 789.309 3.203 1.10425 0
M  V30 8319 C 787.868 3.4071 1.59981 0
M  V30 8320 C 787.015 2.72258 0.526414 0
M  V30 8321 H 789.966 1.57775 -0.171072 0
M  V30 8322 H 789.987 3.25377 1.97256 0
M  V30 8323 H 789.499 3.87255 0.255939 0
M  V30 8324 H 787.6 2.78892 2.47083 0
M  V30 8325 H 787.713 4.49227 1.66528 0
M  V30 8326 H 786.077 2.35283 0.97539 0
M  V30 8327 H 786.86 3.41879 -0.311991 0
M  V30 8328 N 789.305 -0.326896 1.54172 0
M  V30 8329 C 790.552 -1.06523 1.72218 0
M  V30 8330 C 790.88 -1.88119 0.494114 0
M  V30 8331 O 790.135 -1.8855 -0.524147 0
M  V30 8332 C 790.434 -2.0208 2.94785 0
M  V30 8333 C 790.1 -1.36665 4.2969 0
M  V30 8334 C 788.762 -1.18556 4.66367 0
M  V30 8335 C 791.114 -0.896868 5.13425 0
M  V30 8336 C 788.442 -0.521113 5.84381 0
M  V30 8337 C 790.794 -0.246261 6.3212 0
M  V30 8338 C 789.458 -0.052987 6.67479 0
M  V30 8339 H 788.728 -0.389796 0.63019 0
M  V30 8340 H 791.375 -0.342725 1.88408 0
M  V30 8341 H 789.68 -2.8077 2.73268 0
M  V30 8342 H 791.377 -2.59231 3.05941 0
M  V30 8343 H 787.967 -1.51762 4.00832 0
M  V30 8344 H 792.151 -1.02458 4.85609 0
M  V30 8345 H 787.407 -0.36014 6.10338 0
M  V30 8346 H 791.581 0.125775 6.96286 0
M  V30 8347 H 789.208 0.463903 7.58783 0
M  V30 8348 N 790.784 -1.46188 -0.588786 0
M  V30 8349 C 792.195 -1.45421 -1.17088 0
M  V30 8350 C 792.546 -0.191801 -1.9526 0
M  V30 8351 O 791.671 0.705497 -2.04577 0
M  V30 8352 C 792.266 -2.63467 -2.13004 0
M  V30 8353 C 790.825 -2.6576 -2.6655 0
M  V30 8354 C 789.972 -2.38002 -1.42304 0
M  V30 8355 H 792.923 -1.54156 -0.377052 0
M  V30 8356 H 792.944 -2.38638 -2.96365 0
M  V30 8357 H 792.456 -3.55331 -1.56081 0
M  V30 8358 H 790.557 -1.77952 -3.27359 0
M  V30 8359 H 790.67 -3.65545 -3.09699 0
M  V30 8360 H 789.034 -1.87936 -1.71907 0
M  V30 8361 H 789.817 -3.32035 -0.872209 0
M  V30 8362 N 792.262 0.832906 -1.33792 0
M  V30 8363 C 793.509 1.58853 -1.25586 0
M  V30 8364 C 793.837 1.93695 0.176807 0
M  V30 8365 O 793.092 1.59386 1.13554 0
M  V30 8366 C 793.391 2.9047 -2.08235 0
M  V30 8367 C 793.057 2.74965 -3.57358 0
M  V30 8368 C 791.719 2.70444 -3.98012 0
M  V30 8369 C 794.071 2.59347 -4.52093 0
M  V30 8370 C 791.399 2.48212 -5.31608 0
M  V30 8371 C 793.751 2.38649 -5.85858 0
M  V30 8372 C 792.415 2.32533 -6.25687 0
M  V30 8373 H 791.685 0.581285 -0.459553 0
M  V30 8374 H 794.332 0.964501 -1.65438 0
M  V30 8375 H 792.637 3.57111 -1.6118 0
M  V30 8376 H 794.334 3.48001 -1.99239 0
M  V30 8377 H 790.924 2.79319 -3.25083 0
M  V30 8378 H 795.108 2.6187 -4.2159 0
M  V30 8379 H 790.364 2.41929 -5.61498 0
M  V30 8380 H 794.538 2.25549 -6.58863 0
M  V30 8381 H 792.165 2.15067 -7.29143 0
M  V30 8382 N 793.74 1.17359 1.05189 0
M  V30 8383 C 794.989 0.956412 1.77583 0
M  V30 8384 C 795.302 -0.516018 1.88671 0
M  V30 8385 O 796.508 -0.851401 2.57805 0
M  V30 8386 C 794.964 1.66203 3.19225 0
M  V30 8387 C 794.572 3.17299 3.16267 0
M  V30 8388 C 796.316 1.52725 3.96075 0
M  V30 8389 C 794.223 3.8055 4.52698 0
M  V30 8390 H 793.153 0.354204 0.665624 0
M  V30 8391 H 795.804 1.40612 1.17901 0
M  V30 8392 H 794.186 1.14006 3.79234 0
M  V30 8393 H 795.36 3.76431 2.65776 0
M  V30 8394 H 793.675 3.3079 2.52917 0
M  V30 8395 H 796.272 1.97351 4.96947 0
M  V30 8396 H 796.615 0.477803 4.13549 0
M  V30 8397 H 797.148 2.02139 3.42614 0
M  V30 8398 H 793.887 4.85492 4.4043 0
M  V30 8399 H 793.407 3.26206 5.03339 0
M  V30 8400 H 795.086 3.82757 5.21638 0
M  V30 8401 N 795.218 -1.23913 0.973828 0
M  V30 8402 C 796.15 -2.24397 0.466763 0
M  V30 8403 C 797.163 -1.57078 -0.427828 0
M  V30 8404 O 798.352 -1.76973 -0.233019 0
M  V30 8405 C 795.452 -3.37141 -0.344798 0
M  V30 8406 C 794.625 -4.34037 0.541349 0
M  V30 8407 C 793.684 -5.2576 -0.215243 0
M  V30 8408 O 792.71 -5.67842 0.39291 0
M  V30 8409 N 793.912 -5.60702 -1.5031 0
M  V30 8410 H 796.677 -2.68536 1.33074 0
M  V30 8411 H 794.238 -1.38017 0.846346 0
M  V30 8412 H 796.23 -3.95476 -0.859133 0
M  V30 8413 H 794.8 -2.92239 -1.10974 0
M  V30 8414 H 794.02 -3.74302 1.23659 0
M  V30 8415 H 795.308 -4.95738 1.1455 0
M  V30 8416 H 794.706 -5.28451 -2.01882 0
M  V30 8417 H 793.263 -6.21538 -1.96301 0
M  V30 8418 N 796.696 -0.74468 -1.38897 0
M  V30 8419 C 797.973 -0.222773 -1.94327 0
M  V30 8420 C 798.353 1.27731 -1.68071 0
M  V30 8421 O 797.701 2.04754 -1.01429 0
M  V30 8422 C 797.911 -0.566836 -3.44366 0
M  V30 8423 C 799.259 -0.521531 -4.21385 0
M  V30 8424 O 800.283 -0.504599 -3.52608 0
M  V30 8425 O 799.142 -0.524595 -5.43976 0
M  V30 8426 H 796.236 -0.0439259 -0.825833 0
M  V30 8427 H 798.782 -0.824197 -1.48341 0
M  V30 8428 H 797.554 -1.60321 -3.56949 0
M  V30 8429 H 797.177 0.0630577 -3.9755 0
M  V30 8430 N 798.174 1.49689 -0.493057 0
M  V30 8431 C 799.122 2.30613 0.303383 0
M  V30 8432 C 800.116 1.38867 0.970165 0
M  V30 8433 O 801.322 1.55956 0.898761 0
M  V30 8434 H 797.697 0.742891 0.116691 0
M  V30 8435 H 799.668 2.95717 -0.39924 0
M  V30 8436 C 798.417 3.20008 1.35978 0
M  V30 8437 H 797.74 3.90526 0.856103 0
M  V30 8438 H 799.18 3.79586 1.88919 0
M  V30 8439 C 797.639 2.39079 2.37367 0
M  V30 8440 O 798.169 2.08933 3.43089 0
M  V30 8441 N 796.375 2.0125 2.09635 0
M  V30 8442 H 795.922 2.25966 1.23682 0
M  V30 8443 H 795.88 1.47408 2.77702 0
M  V30 8444 N 799.652 0.226554 1.55963 0
M  V30 8445 C 800.901 -0.40417 1.97609 0
M  V30 8446 C 801.214 -1.60541 1.1174 0
M  V30 8447 O 802.42 -2.30598 1.43307 0
M  V30 8448 C 800.876 -0.770466 3.51556 0
M  V30 8449 C 800.484 0.408244 4.46136 0
M  V30 8450 C 802.228 -1.36651 4.01904 0
M  V30 8451 C 800.135 0.0192347 5.91397 0
M  V30 8452 H 799.065 -0.15478 0.737943 0
M  V30 8453 H 801.716 0.323558 1.80625 0
M  V30 8454 H 800.098 -1.55575 3.6416 0
M  V30 8455 H 801.272 1.18575 4.45283 0
M  V30 8456 H 799.587 0.917859 4.06158 0
M  V30 8457 H 802.184 -1.67055 5.07934 0
M  V30 8458 H 802.527 -2.28403 3.48049 0
M  V30 8459 H 803.06 -0.644556 3.92543 0
M  V30 8460 H 799.799 0.90336 6.49245 0
M  V30 8461 H 799.319 -0.722485 5.95433 0
M  V30 8462 H 800.998 -0.405711 6.45727 0
M  V30 8463 N 801.13 -1.57531 -0.0467866 0
M  V30 8464 C 802.355 -1.93087 -0.757123 0
M  V30 8465 C 802.78 -0.825116 -1.69037 0
M  V30 8466 O 802.138 0.220449 -1.79955 0
M  V30 8467 C 802.186 -3.27669 -1.5055 0
M  V30 8468 O 801.29 -3.18667 -2.61773 0
M  V30 8469 H 800.631 -0.631597 -0.204892 0
M  V30 8470 H 803.161 -2.04599 -0.00755232 0
M  V30 8471 H 803.171 -3.6214 -1.87932 0
M  V30 8472 H 801.846 -4.07717 -0.820931 0
M  V30 8473 H 800.423 -2.95798 -2.27064 0
M  V30 8474 N 802.608 0.318715 -1.54344 0
M  V30 8475 C 803.855 1.05608 -1.72781 0
M  V30 8476 C 804.183 1.87854 -0.504083 0
M  V30 8477 O 803.438 1.88826 0.51414 0
M  V30 8478 C 803.737 2.00514 -2.95853 0
M  V30 8479 C 803.403 1.34385 -4.30409 0
M  V30 8480 C 802.065 1.16081 -4.66989 0
M  V30 8481 C 804.417 0.869627 -5.13894 0
M  V30 8482 C 801.745 0.490114 -5.84649 0
M  V30 8483 C 804.097 0.212735 -6.32242 0
M  V30 8484 C 802.761 0.0175882 -6.67498 0
M  V30 8485 H 802.031 0.386449 -0.632249 0
M  V30 8486 H 804.678 0.332729 -1.88587 0
M  V30 8487 H 802.983 2.79317 -2.74753 0
M  V30 8488 H 804.68 2.57605 -3.07312 0
M  V30 8489 H 801.27 1.49634 -4.01631 0
M  V30 8490 H 805.454 0.998809 -4.86146 0
M  V30 8491 H 800.71 0.327767 -6.10521 0
M  V30 8492 H 804.884 -0.162699 -6.9621 0
M  V30 8493 H 802.511 -0.504137 -7.58527 0
M  V30 8494 N 804.086 1.46499 0.581025 0
M  V30 8495 C 805.316 1.55244 1.36319 0
M  V30 8496 C 805.724 0.193059 1.88212 0
M  V30 8497 O 805.067 -0.820109 1.64377 0
M  V30 8498 C 805.129 2.498 2.58535 0
M  V30 8499 C 804.793 3.96007 2.28096 0
M  V30 8500 C 805.79 4.85171 1.8683 0
M  V30 8501 C 803.475 4.41152 2.40189 0
M  V30 8502 C 805.469 6.17493 1.58053 0
M  V30 8503 C 803.156 5.73508 2.11024 0
M  V30 8504 C 804.154 6.615 1.70021 0
M  V30 8505 O 803.842 7.914 1.41215 0
M  V30 8506 H 803.574 0.527513 0.422736 0
M  V30 8507 H 806.128 1.92623 0.713139 0
M  V30 8508 H 804.358 2.07443 3.2635 0
M  V30 8509 H 806.047 2.48934 3.20604 0
M  V30 8510 H 806.813 4.51548 1.77001 0
M  V30 8511 H 802.692 3.72886 2.71066 0
M  V30 8512 H 806.236 6.86131 1.25974 0
M  V30 8513 H 802.133 6.06679 2.20478 0
M  V30 8514 H 802.901 8.03681 1.55046 0
M  V30 8515 N 805.565 -0.825799 1.34232 0
M  V30 8516 C 806.528 -1.91808 1.25468 0
M  V30 8517 C 807.528 -1.59893 0.170567 0
M  V30 8518 O 808.718 -1.68986 0.422996 0
M  V30 8519 C 805.85 -3.27786 0.93644 0
M  V30 8520 H 807.043 -2.01003 2.22571 0
M  V30 8521 H 804.596 -1.01944 1.18479 0
M  V30 8522 H 805.331 -3.24285 -0.0315408 0
M  V30 8523 H 805.116 -3.52333 1.72057 0
M  V30 8524 H 806.606 -4.07782 0.900214 0
M  V30 8525 N 807.043 -1.17915 -1.04565 0
M  V30 8526 C 808.271 -0.99616 -1.8134 0
M  V30 8527 C 808.686 0.455509 -1.83223 0
M  V30 8528 O 808.043 1.31636 -1.26405 0
M  V30 8529 C 808.094 -1.53758 -3.27171 0
M  V30 8530 O 807.815 -2.93241 -3.25486 0
M  V30 8531 C 809.316 -1.40007 -4.2061 0
M  V30 8532 H 806.536 -0.352055 -0.571225 0
M  V30 8533 H 809.08 -1.56349 -1.31815 0
M  V30 8534 H 807.235 -1.01213 -3.73945 0
M  V30 8535 H 807.649 -3.18392 -4.16805 0
M  V30 8536 H 809.123 -1.82695 -5.2089 0
M  V30 8537 H 809.6 -0.348054 -4.37819 0
M  V30 8538 H 810.206 -1.916 -3.79697 0
M  V30 8539 N 808.521 1.23394 -0.980386 0
M  V30 8540 C 809.77 1.91116 -0.644785 0
M  V30 8541 C 810.083 1.77333 0.825367 0
M  V30 8542 O 811.289 2.39858 1.27203 0
M  V30 8543 C 809.745 3.42592 -1.10266 0
M  V30 8544 C 809.353 3.65037 -2.59715 0
M  V30 8545 C 811.097 4.1609 -0.8408 0
M  V30 8546 C 809.004 5.10148 -2.9917 0
M  V30 8547 H 807.934 0.715632 -0.23746 0
M  V30 8548 H 810.585 1.39829 -1.18828 0
M  V30 8549 H 808.967 3.92989 -0.487372 0
M  V30 8550 H 810.141 3.25186 -3.26482 0
M  V30 8551 H 808.456 3.04849 -2.83647 0
M  V30 8552 H 811.053 5.23021 -1.11143 0
M  V30 8553 H 811.396 4.15702 0.223085 0
M  V30 8554 H 811.929 3.71681 -1.41767 0
M  V30 8555 H 808.668 5.15668 -4.04682 0
M  V30 8556 H 808.188 5.50949 -2.37097 0
M  V30 8557 H 809.867 5.7848 -2.89775 0
M  V30 8558 N 809.999 0.752036 1.385 0
M  V30 8559 C 811.247 0.306895 1.99756 0
M  V30 8560 C 811.568 -1.11478 1.59992 0
M  V30 8561 O 810.838 -1.76206 0.856045 0
M  V30 8562 H 809.418 0.11048 0.738785 0
M  V30 8563 H 812.08 0.965785 1.69289 0
M  V30 8564 H 811.176 0.368797 3.09913 0
M  V30 8565 N 811.477 -1.49425 0.500989 0
M  V30 8566 C 812.723 -2.02753 -0.0436 0
M  V30 8567 C 813.056 -1.37991 -1.36646 0
M  V30 8568 O 812.331 -0.515597 -1.87542 0
M  V30 8569 C 812.614 -3.59565 -0.19616 0
M  V30 8570 C 812.467 -4.34855 1.14982 0
M  V30 8571 C 813.786 -4.30014 -0.936795 0
M  V30 8572 H 810.905 -0.73686 -0.0143711 0
M  V30 8573 H 813.547 -1.78448 0.652397 0
M  V30 8574 H 811.697 -3.80405 -0.788959 0
M  V30 8575 H 813.369 -4.25512 1.7815 0
M  V30 8576 H 811.612 -3.97414 1.73911 0
M  V30 8577 H 812.283 -5.42933 0.996385 0
M  V30 8578 H 814.759 -4.1383 -0.434036 0
M  V30 8579 H 813.635 -5.39483 -1.01238 0
M  V30 8580 H 813.896 -3.95257 -1.9805 0
M  V30 8581 N 812.955 -0.234822 -1.55841 0
M  V30 8582 C 814.195 0.394944 -2.00548 0
M  V30 8583 C 814.559 1.56002 -1.11926 0
M  V30 8584 O 815.76 2.2567 -1.46037 0
M  V30 8585 C 814.031 0.805896 -3.48195 0
M  V30 8586 S 815.59 1.4279 -4.14918 0
M  V30 8587 H 812.408 0.124802 -0.699961 0
M  V30 8588 H 815.01 -0.347224 -1.92392 0
M  V30 8589 H 813.714 -0.0515271 -4.10368 0
M  V30 8590 H 813.245 1.58055 -3.60253 0
M  V30 8591 H 815.26 2.71699 -4.15204 0
M  V30 8592 N 814.433 1.57553 0.0384317 0
M  V30 8593 C 815.363 2.0898 1.04161 0
M  V30 8594 C 816.344 0.99029 1.38301 0
M  V30 8595 O 817.529 1.26499 1.47349 0
M  V30 8596 C 814.659 2.56145 2.34536 0
M  V30 8597 C 813.613 3.70275 2.14663 0
M  V30 8598 C 812.939 4.03612 3.50715 0
M  V30 8599 C 814.239 4.99067 1.54045 0
M  V30 8600 H 815.933 2.93046 0.613548 0
M  V30 8601 H 813.479 1.40973 0.293684 0
M  V30 8602 H 815.432 2.90741 3.05037 0
M  V30 8603 H 814.156 1.6915 2.79385 0
M  V30 8604 H 812.815 3.36013 1.46597 0
M  V30 8605 H 812.463 3.13698 3.93195 0
M  V30 8606 H 812.163 4.80482 3.38247 0
M  V30 8607 H 813.687 4.40735 4.22593 0
M  V30 8608 H 815.101 5.3168 2.14451 0
M  V30 8609 H 813.498 5.80484 1.52178 0
M  V30 8610 H 814.568 4.8226 0.505259 0
M  V30 8611 N 815.911 -0.310526 1.54511 0
M  V30 8612 C 816.841 -1.38757 1.878 0
M  V30 8613 C 817.822 -1.53353 0.735991 0
M  V30 8614 O 819.007 -1.67018 0.990887 0
M  V30 8615 C 816.137 -2.75327 2.11689 0
M  V30 8616 C 815.091 -2.75506 3.27537 0
M  V30 8617 C 814.417 -4.15275 3.36824 0
M  V30 8618 C 815.717 -2.38093 4.64875 0
M  V30 8619 H 817.411 -1.11146 2.78005 0
M  V30 8620 H 814.957 -0.533232 1.33763 0
M  V30 8621 H 816.91 -3.50752 2.33562 0
M  V30 8622 H 815.634 -3.04443 1.18245 0
M  V30 8623 H 814.293 -2.02538 3.05572 0
M  V30 8624 H 813.941 -4.41553 2.40915 0
M  V30 8625 H 813.641 -4.16299 4.14692 0
M  V30 8626 H 815.165 -4.92493 3.60947 0
M  V30 8627 H 816.579 -3.03232 4.86542 0
M  V30 8628 H 814.976 -2.50345 5.45387 0
M  V30 8629 H 816.046 -1.33227 4.66239 0
M  V30 8630 N 817.389 -1.46805 -0.573248 0
M  V30 8631 C 818.636 -1.52604 -1.3311 0
M  V30 8632 C 818.964 -0.181633 -1.9365 0
M  V30 8633 O 818.219 0.823775 -1.77517 0
M  V30 8634 C 818.518 -2.58001 -2.47326 0
M  V30 8635 C 818.184 -4.01747 -2.04719 0
M  V30 8636 C 816.846 -4.40881 -1.92814 0
M  V30 8637 C 819.198 -4.92008 -1.71982 0
M  V30 8638 C 816.526 -5.68129 -1.46445 0
M  V30 8639 C 818.878 -6.19703 -1.27089 0
M  V30 8640 C 817.542 -6.57733 -1.13768 0
M  V30 8641 H 816.812 -0.558417 -0.487084 0
M  V30 8642 H 819.459 -1.80327 -0.644538 0
M  V30 8643 H 817.764 -2.23974 -3.2147 0
M  V30 8644 H 819.461 -2.59715 -3.05531 0
M  V30 8645 H 816.051 -3.70819 -2.14922 0
M  V30 8646 H 820.235 -4.62485 -1.8006 0
M  V30 8647 H 815.491 -5.96359 -1.34783 0
M  V30 8648 H 819.665 -6.89064 -1.00814 0
M  V30 8649 H 817.292 -7.56228 -0.776142 0
M  V30 8650 N 818.867 0.818669 -1.34668 0
M  V30 8651 C 820.116 1.57017 -1.26604 0
M  V30 8652 C 820.429 1.94936 0.161036 0
M  V30 8653 O 821.635 2.69051 0.36386 0
M  V30 8654 C 820.091 2.83305 -2.2196 0
M  V30 8655 C 819.699 2.52671 -3.69948 0
M  V30 8656 C 821.443 3.61324 -2.22813 0
M  V30 8657 C 819.35 3.75178 -4.5716 0
M  V30 8658 H 818.28 0.589323 -0.470335 0
M  V30 8659 H 820.931 0.900956 -1.59859 0
M  V30 8660 H 819.313 3.51874 -1.81661 0
M  V30 8661 H 820.487 1.92186 -4.18809 0
M  V30 8662 H 818.802 1.8792 -3.71584 0
M  V30 8663 H 821.399 4.52294 -2.85192 0
M  V30 8664 H 821.742 3.97759 -1.22857 0
M  V30 8665 H 822.275 2.99703 -2.61578 0
M  V30 8666 H 819.014 3.43861 -5.58068 0
M  V30 8667 H 818.534 4.34931 -4.13031 0
M  V30 8668 H 820.213 4.42542 -4.71981 0
M  V30 8669 N 820.346 1.18468 1.03938 0
M  V30 8670 C 821.592 0.982286 1.77423 0
M  V30 8671 C 821.925 -0.48679 1.88 0
M  V30 8672 O 821.2 -1.36146 1.38905 0
M  V30 8673 C 821.483 1.63929 3.20623 0
M  V30 8674 C 821.336 3.18132 3.17982 0
M  V30 8675 C 822.655 1.3536 4.18767 0
M  V30 8676 H 819.774 0.358264 0.644062 0
M  V30 8677 H 822.416 1.46154 1.21405 0
M  V30 8678 H 820.566 1.2318 3.68455 0
M  V30 8679 H 822.238 3.68024 2.78129 0
M  V30 8680 H 820.481 3.50225 2.55978 0
M  V30 8681 H 821.152 3.5924 4.19107 0
M  V30 8682 H 823.628 1.70669 3.79488 0
M  V30 8683 H 822.504 1.83896 5.17178 0
M  V30 8684 H 822.765 0.276722 4.41233 0
M  V30 8685 N 821.824 -1.22873 0.986916 0
M  V30 8686 C 823.07 -1.91746 0.660401 0
M  V30 8687 C 823.403 -1.76738 -0.804812 0
M  V30 8688 O 822.678 -1.13246 -1.58131 0
M  V30 8689 C 822.961 -3.44156 1.05966 0
M  V30 8690 C 822.814 -3.68242 2.58298 0
M  V30 8691 C 824.133 -4.35874 0.60842 0
M  V30 8692 H 821.252 -0.696347 0.241391 0
M  V30 8693 H 823.894 -1.44867 1.22937 0
M  V30 8694 H 822.044 -3.84213 0.575534 0
M  V30 8695 H 823.716 -3.37626 3.14335 0
M  V30 8696 H 821.959 -3.12728 3.00638 0
M  V30 8697 H 822.63 -4.74956 2.81285 0
M  V30 8698 H 825.106 -4.03299 1.02417 0
M  V30 8699 H 823.982 -5.41201 0.916142 0
M  V30 8700 H 824.243 -4.39364 -0.491086 0
M  V30 8701 N 823.302 -0.75937 -1.38099 0
M  V30 8702 C 824.232 -0.151077 -2.33011 0
M  V30 8703 C 825.213 0.697099 -1.5516 0
M  V30 8704 O 826.398 0.637101 -1.83452 0
M  V30 8705 C 823.528 0.738423 -3.39359 0
M  V30 8706 C 822.482 -0.0074741 -4.27999 0
M  V30 8707 C 821.808 1.00066 -5.25253 0
M  V30 8708 C 823.108 -1.17926 -5.08813 0
M  V30 8709 H 824.802 -0.943933 -2.84131 0
M  V30 8710 H 822.348 -0.455362 -1.36611 0
M  V30 8711 H 824.301 1.17369 -4.04725 0
M  V30 8712 H 823.025 1.56366 -2.86735 0
M  V30 8713 H 821.684 -0.423379 -3.64147 0
M  V30 8714 H 821.332 1.82012 -4.68914 0
M  V30 8715 H 821.032 0.506199 -5.85416 0
M  V30 8716 H 822.556 1.43512 -5.93495 0
M  V30 8717 H 823.97 -0.821262 -5.67387 0
M  V30 8718 H 822.367 -1.60497 -5.78239 0
M  V30 8719 H 823.437 -1.98938 -4.42212 0
M  V30 8720 N 824.78 1.49157 -0.508906 0
M  V30 8721 C 826.008 2.06879 0.0293734 0
M  V30 8722 C 826.423 1.36823 1.30095 0
M  V30 8723 O 825.78 0.449034 1.7689 0
M  V30 8724 C 825.831 3.60423 0.278791 0
M  V30 8725 O 825.552 4.27844 -0.942389 0
M  V30 8726 C 827.053 4.34881 0.859825 0
M  V30 8727 H 824.273 0.67057 -0.0240184 0
M  V30 8728 H 826.817 1.91834 -0.708526 0
M  V30 8729 H 824.972 3.75145 0.966689 0
M  V30 8730 H 825.386 5.19671 -0.710097 0
M  V30 8731 H 826.86 5.43161 0.983884 0
M  V30 8732 H 827.337 3.9789 1.85958 0
M  V30 8733 H 827.943 4.24785 0.209152 0
M  V30 8734 N 826.258 0.243083 1.55714 0
M  V30 8735 C 827.188 -0.652336 2.24203 0
M  V30 8736 C 828.169 -1.1843 1.221 0
M  V30 8737 O 829.354 -1.22435 1.50743 0
M  V30 8738 C 826.484 -1.85111 2.93856 0
M  V30 8739 C 825.438 -1.45208 4.02615 0
M  V30 8740 C 824.764 -2.73137 4.59674 0
M  V30 8741 C 826.064 -0.625988 5.18535 0
M  V30 8742 H 827.758 -0.0812504 2.9929 0
M  V30 8743 H 825.304 -0.0376388 1.43951 0
M  V30 8744 H 827.257 -2.48314 3.40468 0
M  V30 8745 H 825.981 -2.44751 2.16251 0
M  V30 8746 H 824.64 -0.843406 3.56766 0
M  V30 8747 H 824.288 -3.30967 3.78774 0
M  V30 8748 H 823.988 -2.47163 5.33089 0
M  V30 8749 H 825.512 -3.37245 5.09017 0
M  V30 8750 H 826.926 -1.16223 5.61396 0
M  V30 8751 H 825.323 -0.462465 5.98315 0
M  V30 8752 H 826.393 0.362652 4.83542 0
M  V30 8753 N 827.736 -1.57571 -0.0300757 0
M  V30 8754 C 828.666 -2.0953 -1.03051 0
M  V30 8755 C 829.647 -0.99761 -1.37774 0
M  V30 8756 O 830.832 -1.27279 -1.46676 0
M  V30 8757 C 827.962 -2.57385 -2.33174 0
M  V30 8758 C 826.916 -3.71409 -2.12696 0
M  V30 8759 C 826.242 -4.05467 -3.4857 0
M  V30 8760 C 827.542 -4.99877 -1.51396 0
M  V30 8761 H 829.236 -2.93367 -0.597999 0
M  V30 8762 H 826.782 -1.41127 -0.286203 0
M  V30 8763 H 828.735 -2.92355 -3.03491 0
M  V30 8764 H 827.459 -1.70629 -2.78484 0
M  V30 8765 H 826.118 -3.36786 -1.44813 0
M  V30 8766 H 825.766 -3.15779 -3.91526 0
M  V30 8767 H 825.466 -4.82269 -3.35694 0
M  V30 8768 H 826.99 -4.4297 -4.2025 0
M  V30 8769 H 828.404 -5.3281 -2.11629 0
M  V30 8770 H 826.801 -5.81283 -1.49098 0
M  V30 8771 H 827.871 -4.82522 -0.479676 0
M  V30 8772 N 829.214 0.302327 -1.54673 0
M  V30 8773 C 830.463 1.03533 -1.73101 0
M  V30 8774 C 830.776 1.88473 -0.523174 0
M  V30 8775 O 831.982 2.65029 -0.589229 0
M  V30 8776 C 830.438 1.89043 -3.06252 0
M  V30 8777 C 830.046 1.09112 -4.3451 0
M  V30 8778 C 831.79 2.61951 -3.34039 0
M  V30 8779 C 829.697 1.93891 -5.58713 0
M  V30 8780 H 828.627 0.390261 -0.645145 0
M  V30 8781 H 831.278 0.2924 -1.81155 0
M  V30 8782 H 829.66 2.67319 -2.92159 0
M  V30 8783 H 830.834 0.354596 -4.59434 0
M  V30 8784 H 829.149 0.477923 -4.13648 0
M  V30 8785 H 831.746 3.25729 -4.24033 0
M  V30 8786 H 832.089 3.30711 -2.52855 0
M  V30 8787 H 832.622 1.90725 -3.49097 0
M  V30 8788 H 829.361 1.29604 -6.4256 0
M  V30 8789 H 828.881 2.6522 -5.37976 0
M  V30 8790 H 830.56 2.51971 -5.95919 0
M  V30 8791 N 830.692 1.47107 0.565454 0
M  V30 8792 C 831.932 1.5488 1.33385 0
M  V30 8793 C 832.296 0.202804 1.90926 0
M  V30 8794 O 833.497 0.155345 2.68351 0
M  V30 8795 C 831.768 2.62969 2.42037 0
M  V30 8796 S 833.327 2.90269 3.29074 0
M  V30 8797 H 830.145 0.547008 0.454206 0
M  V30 8798 H 832.747 1.8444 0.648228 0
M  V30 8799 H 831.451 3.59376 1.98185 0
M  V30 8800 H 830.982 2.35197 3.15351 0
M  V30 8801 H 832.997 2.26854 4.41307 0
M  V30 8802 N 832.17 -0.811516 1.35101 0
M  V30 8803 C 833.12 -1.91227 1.24163 0
M  V30 8804 C 834.104 -1.60307 0.138012 0
M  V30 8805 O 835.296 -1.73116 0.368767 0
M  V30 8806 C 832.425 -3.2808 1.01085 0
M  V30 8807 C 831.511 -3.65082 2.15815 0
M  V30 8808 N 831.902 -3.73558 3.4101 0
M  V30 8809 C 830.2 -3.95005 2.07092 0
M  V30 8810 C 830.901 -4.06158 4.16426 0
M  V30 8811 N 829.877 -4.19982 3.45132 0
M  V30 8812 H 833.679 -1.95975 2.19023 0
M  V30 8813 H 831.193 -1.00583 1.27503 0
M  V30 8814 H 833.19 -4.06771 0.913382 0
M  V30 8815 H 831.85 -3.24622 0.0710406 0
M  V30 8816 H 832.861 -3.56761 3.75423 0
M  V30 8817 H 829.538 -3.99601 1.20937 0
M  V30 8818 H 830.928 -4.19824 5.24592 0
M  V30 8819 N 833.648 -1.19017 -1.03309 0
M  V30 8820 C 834.595 -0.924088 -2.11493 0
M  V30 8821 C 835.565 0.139464 -1.65513 0
M  V30 8822 O 836.75 -0.00178761 -1.908 0
M  V30 8823 C 833.89 -0.464255 -3.41963 0
M  V30 8824 C 833.003 -1.5941 -4.01513 0
M  V30 8825 C 832.138 -1.08622 -5.19976 0
M  V30 8826 C 831.177 -2.19024 -5.71572 0
M  V30 8827 N 830.314 -1.69575 -6.81314 0
M  V30 8828 H 835.154 -1.85039 -2.33591 0
M  V30 8829 H 832.691 -0.922593 -1.14572 0
M  V30 8830 H 834.649 -0.179078 -4.16815 0
M  V30 8831 H 833.279 0.425062 -3.19989 0
M  V30 8832 H 832.331 -1.99458 -3.23915 0
M  V30 8833 H 833.643 -2.42604 -4.35826 0
M  V30 8834 H 832.797 -0.756022 -6.01971 0
M  V30 8835 H 831.536 -0.223955 -4.87186 0
M  V30 8836 H 830.541 -2.5288 -4.88193 0
M  V30 8837 H 831.766 -3.05699 -6.06403 0
M  V30 8838 H 829.712 -0.856494 -6.50385 0
M  V30 8839 H 829.629 -2.46361 -7.14732 0
M  V30 8840 H 830.897 -1.39505 -7.66915 0
M  V30 8841 N 835.127 1.22348 -0.993418 0
M  V30 8842 C 836.357 1.94842 -0.687023 0
M  V30 8843 C 836.765 1.73594 0.752445 0
M  V30 8844 O 836.108 1.03238 1.51946 0
M  V30 8845 C 836.17 3.47694 -0.913754 0
M  V30 8846 C 835.834 3.92678 -2.33781 0
M  V30 8847 C 836.831 4.0031 -3.31734 0
M  V30 8848 C 834.516 4.25311 -2.67237 0
M  V30 8849 C 836.51 4.39951 -4.61218 0
M  V30 8850 C 834.197 4.64631 -3.9694 0
M  V30 8851 C 835.195 4.71919 -4.93742 0
M  V30 8852 O 834.883 5.10349 -6.21127 0
M  V30 8853 H 834.615 0.626771 -0.253247 0
M  V30 8854 H 837.169 1.56436 -1.33105 0
M  V30 8855 H 835.399 3.86115 -0.212552 0
M  V30 8856 H 837.088 4.01403 -0.602528 0
M  V30 8857 H 837.854 3.75288 -3.07219 0
M  V30 8858 H 833.733 4.18842 -1.92594 0
M  V30 8859 H 837.277 4.45555 -5.36774 0
M  V30 8860 H 833.174 4.89104 -4.21245 0
M  V30 8861 H 833.942 5.2842 -6.25072 0
M  V30 8862 N 836.605 0.766683 1.37694 0
M  V30 8863 C 837.552 0.147725 2.30327 0
M  V30 8864 C 838.522 -0.695366 1.50844 0
M  V30 8865 O 839.707 -0.64878 1.79431 0
M  V30 8866 C 836.847 -0.72935 3.37305 0
M  V30 8867 C 835.96 0.129795 4.31805 0
M  V30 8868 C 835.095 -0.751511 5.25857 0
M  V30 8869 C 834.134 0.110475 6.12 0
M  V30 8870 N 833.271 -0.728522 6.9831 0
M  V30 8871 H 838.111 0.943204 2.82679 0
M  V30 8872 H 835.648 0.476736 1.3916 0
M  V30 8873 H 837.606 -1.25263 3.97951 0
M  V30 8874 H 836.236 -1.49048 2.86329 0
M  V30 8875 H 835.288 0.770829 3.72508 0
M  V30 8876 H 836.6 0.794923 4.92425 0
M  V30 8877 H 835.754 -1.34146 5.91684 0
M  V30 8878 H 834.493 -1.45034 4.65636 0
M  V30 8879 H 833.498 0.712999 5.45157 0
M  V30 8880 H 834.723 0.806557 6.74293 0
M  V30 8881 H 832.669 -1.41206 6.40622 0
M  V30 8882 H 832.586 -0.12058 7.55904 0
M  V30 8883 H 833.854 -1.30303 7.68532 0
M  V30 8884 N 838.083 -1.48885 0.516809 0
M  V30 8885 C 839.03 -2.29408 -0.253125 0
M  V30 8886 C 840 -1.36533 -0.945935 0
M  V30 8887 O 841.185 -1.65495 -0.949527 0
M  V30 8888 C 838.325 -3.19592 -1.30211 0
M  V30 8889 C 837.438 -4.27535 -0.61948 0
M  V30 8890 C 836.573 -5.04916 -1.65026 0
M  V30 8891 C 835.612 -6.04677 -0.950368 0
M  V30 8892 N 834.749 -6.75164 -1.92608 0
M  V30 8893 H 839.589 -2.94738 0.439744 0
M  V30 8894 H 837.126 -1.45311 0.2287 0
M  V30 8895 H 839.084 -3.70267 -1.92245 0
M  V30 8896 H 837.714 -2.56213 -1.96353 0
M  V30 8897 H 836.766 -3.80228 0.114505 0
M  V30 8898 H 838.078 -4.98752 -0.0693016 0
M  V30 8899 H 837.232 -5.59539 -2.34523 0
M  V30 8900 H 835.971 -4.33508 -2.23432 0
M  V30 8901 H 834.976 -5.4927 -0.241252 0
M  V30 8902 H 836.201 -6.78077 -0.372599 0
M  V30 8903 H 834.147 -6.06517 -2.49946 0
M  V30 8904 H 834.064 -7.4241 -1.42699 0
M  V30 8905 H 835.332 -7.34384 -2.61345 0
M  V30 8906 N 839.561 -0.251338 -1.55583 0
M  V30 8907 C 840.493 0.679167 -2.18906 0
M  V30 8908 C 841.506 1.13545 -1.16667 0
M  V30 8909 O 842.695 1.06146 -1.4351 0
M  V30 8910 C 839.795 1.93544 -2.78198 0
M  V30 8911 C 838.968 1.62987 -4.05899 0
M  V30 8912 C 838.027 2.73618 -4.49466 0
M  V30 8913 O 837.053 2.40815 -5.15749 0
M  V30 8914 N 838.255 4.03204 -4.1762 0
M  V30 8915 H 841.02 0.137328 -2.99385 0
M  V30 8916 H 838.581 -0.0714754 -1.61742 0
M  V30 8917 H 840.573 2.66804 -3.04299 0
M  V30 8918 H 839.143 2.38695 -2.0185 0
M  V30 8919 H 838.363 0.732237 -3.8734 0
M  V30 8920 H 839.651 1.40041 -4.89148 0
M  V30 8921 H 839.049 4.32686 -3.64416 0
M  V30 8922 H 837.606 4.72916 -4.48547 0
M  V30 8923 N 841.039 1.57585 0.0217189 0
M  V30 8924 C 842.286 1.89606 0.711045 0
M  V30 8925 C 842.614 0.849535 1.74966 0
M  V30 8926 O 841.869 -0.14856 1.95135 0
M  V30 8927 C 842.168 3.28377 1.41079 0
M  V30 8928 C 841.834 4.48035 0.507454 0
M  V30 8929 C 840.496 4.80504 0.258672 0
M  V30 8930 C 842.848 5.21071 -0.115793 0
M  V30 8931 C 840.176 5.83393 -0.622013 0
M  V30 8932 C 842.528 6.24897 -0.984224 0
M  V30 8933 C 841.192 6.55836 -1.2424 0
M  V30 8934 H 840.462 0.693817 0.26019 0
M  V30 8935 H 843.109 1.91478 -0.0291424 0
M  V30 8936 H 841.414 3.22528 2.22448 0
M  V30 8937 H 843.111 3.50404 1.94982 0
M  V30 8938 H 839.701 4.22653 0.711516 0
M  V30 8939 H 843.885 4.96259 0.0634327 0
M  V30 8940 H 839.141 6.05736 -0.830267 0
M  V30 8941 H 843.315 6.8063 -1.47363 0
M  V30 8942 H 840.942 7.35383 -1.92653 0
M  V30 8943 N 842.517 -0.29412 1.54831 0
M  V30 8944 C 843.933 -0.640167 1.46199 0
M  V30 8945 C 844.133 -1.90426 0.658798 0
M  V30 8946 O 843.189 -2.51932 0.169228 0
M  V30 8947 C 844.502 -0.786763 2.90225 0
M  V30 8948 C 846.05 -0.882201 3.0031 0
M  V30 8949 C 846.525 -1.06074 4.45547 0
M  V30 8950 N 848.016 -1.12678 4.49286 0
M  V30 8951 C 848.751 -1.28334 5.58854 0
M  V30 8952 N 848.247 -1.40845 6.78332 0
M  V30 8953 N 850.04 -1.31277 5.46555 0
M  V30 8954 H 842.191 0.536334 2.05517 0
M  V30 8955 H 844.454 0.178363 0.93107 0
M  V30 8956 H 844.16 0.0713018 3.51628 0
M  V30 8957 H 844.034 -1.67364 3.38037 0
M  V30 8958 H 846.421 -1.73075 2.39017 0
M  V30 8959 H 846.502 0.0288405 2.55784 0
M  V30 8960 H 846.146 -0.216935 5.07437 0
M  V30 8961 H 846.076 -1.98611 4.8771 0
M  V30 8962 H 848.567 -1.04335 3.63212 0
M  V30 8963 H 848.88 -1.52566 7.57591 0
M  V30 8964 H 847.225 -1.37888 6.81184 0
M  V30 8965 H 850.416 -1.2112 4.52159 0
M  V30 8966 H 850.589 -1.43136 6.31994 0
M  V30 8967 N 843.995 -1.47404 -0.557645 0
M  V30 8968 C 845.225 -1.57393 -1.33832 0
M  V30 8969 C 845.633 -0.222978 -1.87881 0
M  V30 8970 O 844.976 0.793854 -1.65661 0
M  V30 8971 C 845.038 -2.53882 -2.54528 0
M  V30 8972 C 844.702 -3.99585 -2.21767 0
M  V30 8973 C 845.699 -4.88082 -1.79087 0
M  V30 8974 C 843.384 -4.44917 -2.3314 0
M  V30 8975 C 845.378 -6.1993 -1.48209 0
M  V30 8976 C 843.065 -5.76793 -2.01874 0
M  V30 8977 C 844.063 -6.64121 -1.59476 0
M  V30 8978 O 843.751 -7.93546 -1.28607 0
M  V30 8979 H 843.483 -0.534172 -0.41429 0
M  V30 8980 H 846.037 -1.93733 -0.682404 0
M  V30 8981 H 844.267 -2.12609 -3.23009 0
M  V30 8982 H 845.956 -2.54003 -3.16603 0
M  V30 8983 H 846.722 -4.54307 -1.69794 0
M  V30 8984 H 842.601 -3.77152 -2.65099 0
M  V30 8985 H 846.145 -6.88049 -1.15043 0
M  V30 8986 H 842.042 -6.1011 -2.10799 0
M  V30 8987 H 842.81 -8.06046 -1.42241 0
M  V30 8988 N 845.473 0.80434 -1.35529 0
M  V30 8989 C 846.383 1.94784 -1.30753 0
M  V30 8990 C 847.399 1.72703 -0.212071 0
M  V30 8991 O 848.575 1.96494 -0.441841 0
M  V30 8992 C 845.64 3.29406 -1.08133 0
M  V30 8993 C 844.701 3.64367 -2.27013 0
M  V30 8994 C 843.934 4.92566 -2.05463 0
M  V30 8995 O 844.157 5.61166 -1.02222 0
M  V30 8996 O 843.091 5.25838 -2.92879 0
M  V30 8997 H 846.917 2.01761 -2.26994 0
M  V30 8998 H 844.502 0.942448 -1.15924 0
M  V30 8999 H 846.384 4.09995 -0.973756 0
M  V30 9000 H 845.059 3.23355 -0.149444 0
M  V30 9001 H 843.966 2.84146 -2.43335 0
M  V30 9002 H 845.299 3.75125 -3.18656 0
M  V30 9003 N 846.951 1.19563 1.02676 0
M  V30 9004 C 848.176 1.02556 1.80269 0
M  V30 9005 C 848.601 -0.421056 1.83327 0
M  V30 9006 O 847.959 -1.30279 1.26084 0
M  V30 9007 C 848.007 1.60165 3.23078 0
M  V30 9008 O 847.111 0.832404 4.03912 0
M  V30 9009 H 846.452 0.362354 0.556413 0
M  V30 9010 H 848.982 1.58633 1.29216 0
M  V30 9011 H 848.992 1.6347 3.7382 0
M  V30 9012 H 847.667 2.65454 3.20167 0
M  V30 9013 H 846.244 0.872768 3.62543 0
M  V30 9014 N 848.429 -1.21819 0.999893 0
M  V30 9015 C 849.361 -2.23356 0.514256 0
M  V30 9016 C 850.374 -1.5795 -0.394413 0
M  V30 9017 O 851.563 -1.77427 -0.195428 0
M  V30 9018 C 848.663 -3.37797 -0.273207 0
M  V30 9019 C 847.836 -4.32791 0.633293 0
M  V30 9020 C 846.895 -5.26098 -0.103673 0
M  V30 9021 O 845.921 -5.66881 0.513269 0
M  V30 9022 N 847.123 -5.63764 -1.38383 0
M  V30 9023 H 849.888 -2.65653 1.3874 0
M  V30 9024 H 847.449 -1.3619 0.875431 0
M  V30 9025 H 849.441 -3.97209 -0.775053 0
M  V30 9026 H 848.011 -2.94527 -1.0475 0
M  V30 9027 H 847.231 -3.71595 1.31571 0
M  V30 9028 H 848.519 -4.93196 1.25039 0
M  V30 9029 H 847.917 -5.32614 -1.90627 0
M  V30 9030 H 846.474 -6.25562 -1.83073 0
M  V30 9031 N 849.908 -0.773975 -1.37286 0
M  V30 9032 C 850.838 -0.175782 -2.32837 0
M  V30 9033 C 851.819 0.680603 -1.5589 0
M  V30 9034 O 853.004 0.617607 -1.84117 0
M  V30 9035 C 850.134 0.702388 -3.40123 0
M  V30 9036 C 849.088 -0.0528687 -4.27967 0
M  V30 9037 C 848.414 0.944891 -5.26285 0
M  V30 9038 C 849.714 -1.23316 -5.07534 0
M  V30 9039 H 851.408 -0.974016 -2.83114 0
M  V30 9040 H 848.954 -0.469826 -1.3612 0
M  V30 9041 H 850.907 1.13069 -4.05947 0
M  V30 9042 H 849.631 1.53316 -2.88378 0
M  V30 9043 H 848.29 -0.461978 -3.63678 0
M  V30 9044 H 847.938 1.77028 -4.70819 0
M  V30 9045 H 847.638 0.444079 -5.8592 0
M  V30 9046 H 849.162 1.37209 -5.94984 0
M  V30 9047 H 850.576 -0.881395 -5.66484 0
M  V30 9048 H 848.973 -1.66621 -5.76504 0
M  V30 9049 H 850.043 -2.03617 -4.40077 0
M  V30 9050 N 851.386 1.48609 -0.524698 0
M  V30 9051 C 852.318 2.27508 0.278 0
M  V30 9052 C 853.331 1.35042 0.909258 0
M  V30 9053 O 854.52 1.60136 0.788592 0
M  V30 9054 C 851.62 3.08247 1.40843 0
M  V30 9055 C 850.793 4.28455 0.880083 0
M  V30 9056 C 849.852 4.91048 1.891 0
M  V30 9057 O 848.878 5.5042 1.45005 0
M  V30 9058 N 850.08 4.82816 3.22288 0
M  V30 9059 H 852.845 2.97037 -0.398642 0
M  V30 9060 H 850.406 1.57876 -0.358698 0
M  V30 9061 H 852.398 3.46992 2.08276 0
M  V30 9062 H 850.968 2.41173 1.98883 0
M  V30 9063 H 850.188 3.94189 0.0299228 0
M  V30 9064 H 851.476 5.06279 0.505881 0
M  V30 9065 H 850.874 4.3572 3.60783 0
M  V30 9066 H 849.431 5.25676 3.85368 0
M  V30 9067 N 852.864 0.259585 1.55447 0
M  V30 9068 C 853.797 -0.675542 2.17972 0
M  V30 9069 C 854.775 -1.16362 1.13572 0
M  V30 9070 O 855.959 -1.23944 1.42021 0
M  V30 9071 C 853.086 -1.91952 2.79056 0
M  V30 9072 C 852.132 -1.56824 3.96621 0
M  V30 9073 S 852.965 -0.659846 5.31419 0
M  V30 9074 C 854.121 -1.91255 5.95963 0
M  V30 9075 H 854.354 -0.144236 2.9695 0
M  V30 9076 H 851.887 0.0439448 1.54337 0
M  V30 9077 H 853.845 -2.63362 3.14882 0
M  V30 9078 H 852.506 -2.42196 2 0
M  V30 9079 H 851.699 -2.49348 4.37997 0
M  V30 9080 H 851.301 -0.934472 3.62138 0
M  V30 9081 H 853.593 -2.85834 6.14252 0
M  V30 9082 H 854.536 -1.54207 6.91105 0
M  V30 9083 H 854.944 -2.07042 5.25161 0
M  V30 9084 N 854.342 -1.57594 -0.0133615 0
M  V30 9085 C 855.588 -1.90262 -0.702019 0
M  V30 9086 C 855.921 -0.859219 -1.74158 0
M  V30 9087 O 855.196 0.123778 -1.94106 0
M  V30 9088 C 855.479 -3.3354 -1.35732 0
M  V30 9089 C 855.332 -4.48586 -0.330208 0
M  V30 9090 C 856.651 -3.76004 -2.28712 0
M  V30 9091 H 853.77 -0.691943 -0.253739 0
M  V30 9092 H 856.412 -1.89967 0.0351894 0
M  V30 9093 H 854.562 -3.33921 -1.98567 0
M  V30 9094 H 856.234 -4.6034 0.297433 0
M  V30 9095 H 854.477 -4.32394 0.348926 0
M  V30 9096 H 855.148 -5.45762 -0.827508 0
M  V30 9097 H 857.624 -3.77089 -1.75906 0
M  V30 9098 H 856.5 -4.77032 -2.71535 0
M  V30 9099 H 856.761 -3.09129 -3.16056 0
M  V30 9100 N 855.82 0.285905 -1.54985 0
M  V30 9101 C 856.752 1.37505 -1.83371 0
M  V30 9102 C 857.765 1.46138 -0.717454 0
M  V30 9103 O 858.954 1.48186 -0.995142 0
M  V30 9104 C 856.054 2.7575 -1.97016 0
M  V30 9105 C 855.227 2.89866 -3.27561 0
M  V30 9106 C 854.286 4.08704 -3.31433 0
M  V30 9107 O 853.312 4.00073 -4.04883 0
M  V30 9108 N 854.514 5.20062 -2.57907 0
M  V30 9109 H 857.279 1.13505 -2.77375 0
M  V30 9110 H 854.84 0.476006 -1.54744 0
M  V30 9111 H 856.832 3.5352 -1.96991 0
M  V30 9112 H 855.402 2.9263 -1.09938 0
M  V30 9113 H 854.622 1.99085 -3.40234 0
M  V30 9114 H 855.91 2.96219 -4.13681 0
M  V30 9115 H 855.308 5.29958 -1.97891 0
M  V30 9116 H 853.865 5.96111 -2.63619 0
M  V30 9117 N 857.298 1.47698 0.54982 0
M  V30 9118 C 858.544 1.54931 1.30859 0
M  V30 9119 C 858.877 0.214021 1.93017 0
M  V30 9120 O 858.152 -0.778093 1.78258 0
M  V30 9121 C 858.435 2.67286 2.41309 0
M  V30 9122 C 858.288 4.10457 1.83971 0
M  V30 9123 C 859.607 2.75509 3.43195 0
M  V30 9124 H 856.726 0.56399 0.474431 0
M  V30 9125 H 859.368 1.79787 0.614541 0
M  V30 9126 H 857.518 2.46224 3.0051 0
M  V30 9127 H 859.19 4.42903 1.28974 0
M  V30 9128 H 857.433 4.18387 1.14606 0
M  V30 9129 H 858.104 4.84857 2.63851 0
M  V30 9130 H 860.58 2.94531 2.93923 0
M  V30 9131 H 859.456 3.55886 4.17895 0
M  V30 9132 H 859.717 1.82863 4.02509 0
M  V30 9133 N 858.776 -0.797141 1.35954 0
M  V30 9134 C 860.004 -1.5858 1.32891 0
M  V30 9135 C 860.419 -1.88578 -0.0915564 0
M  V30 9136 O 859.776 -1.49532 -1.04625 0
M  V30 9137 C 859.827 -2.91143 2.14284 0
M  V30 9138 O 859.548 -2.62442 3.50793 0
M  V30 9139 C 861.049 -3.85476 2.18914 0
M  V30 9140 H 858.269 -0.492111 0.456144 0
M  V30 9141 H 860.813 -0.98994 1.78943 0
M  V30 9142 H 858.968 -3.47219 1.71807 0
M  V30 9143 H 859.382 -3.4715 3.93175 0
M  V30 9144 H 860.856 -4.75574 2.80238 0
M  V30 9145 H 861.333 -4.22758 1.19047 0
M  V30 9146 H 861.939 -3.35334 2.61593 0
M  V30 9147 N 860.254 -1.20106 -1.0204 0
M  V30 9148 C 861.502 -1.0069 -1.75231 0
M  V30 9149 C 861.823 0.462491 -1.89436 0
M  V30 9150 O 861.093 1.33455 -1.4341 0
M  V30 9151 H 859.673 -0.369576 -0.649171 0
M  V30 9152 H 862.335 -1.51149 -1.23044 0
M  V30 9153 H 861.431 -1.46205 -2.75736 0
M  V30 9154 N 861.732 1.21287 -1.00634 0
M  V30 9155 C 862.957 1.94925 -0.708441 0
M  V30 9156 C 863.382 1.73659 0.722783 0
M  V30 9157 O 862.74 1.02429 1.49593 0
M  V30 9158 C 862.788 3.45377 -1.03667 0
M  V30 9159 O 861.892 4.12153 -0.142661 0
M  V30 9160 H 861.233 0.609338 -0.263824 0
M  V30 9161 H 863.763 1.54008 -1.34695 0
M  V30 9162 H 863.773 3.95954 -0.984086 0
M  V30 9163 H 862.448 3.6018 -2.0795 0
M  V30 9164 H 861.025 3.72048 -0.251888 0
M  V30 9165 N 863.21 0.781244 1.36873 0
M  V30 9166 C 864.435 0.360398 2.04245 0
M  V30 9167 C 864.86 -1.01242 1.58529 0
M  V30 9168 O 864.218 -1.65063 0.749936 0
M  V30 9169 C 864.266 0.42329 3.58107 0
M  V30 9170 O 863.37 -0.572796 4.08403 0
M  V30 9171 H 862.711 0.154386 0.645803 0
M  V30 9172 H 865.241 1.06008 1.74996 0
M  V30 9173 H 865.251 0.283967 4.07011 0
M  V30 9174 H 863.926 1.42477 3.90734 0
M  V30 9175 H 862.503 -0.395809 3.70793 0
M  V30 9176 N 864.689 -1.48329 0.532571 0
M  V30 9177 C 865.966 -1.95492 -0.0650985 0
M  V30 9178 C 866.346 -1.47485 -1.51034 0
M  V30 9179 O 865.694 -0.702516 -2.17433 0
M  V30 9180 C 865.904 -3.48957 0.0548341 0
M  V30 9181 C 867.252 -4.24475 -0.103115 0
M  V30 9182 O 868.276 -3.56195 -0.0188343 0
M  V30 9183 O 867.135 -5.45781 -0.280164 0
M  V30 9184 H 864.229 -0.823327 -0.0778603 0
M  V30 9185 H 866.775 -1.58839 0.597353 0
M  V30 9186 H 865.547 -3.76628 1.06148 0
M  V30 9187 H 865.17 -3.92311 -0.64635 0
M  V30 9188 N 866.167 -0.267825 -1.55308 0
M  V30 9189 C 867.115 0.638848 -2.23655 0
M  V30 9190 C 868.109 1.16363 -1.2311 0
M  V30 9191 O 869.315 1.1181 -1.41062 0
M  V30 9192 H 865.69 0.224551 -0.717691 0
M  V30 9193 H 867.661 0.0394809 -2.98374 0
M  V30 9194 C 866.41 1.8151 -2.96562 0
M  V30 9195 H 865.733 1.42048 -3.73715 0
M  V30 9196 H 867.173 2.42629 -3.47717 0
M  V30 9197 C 865.632 2.69911 -2.01618 0
M  V30 9198 O 866.162 3.70058 -1.56268 0
M  V30 9199 N 864.368 2.36924 -1.68272 0
M  V30 9200 H 863.915 1.55533 -2.05347 0
M  V30 9201 H 863.873 2.96343 -1.05016 0
M  V30 9202 N 867.645 1.57599 0.00500368 0
M  V30 9203 C 868.555 2.11532 1.01446 0
M  V30 9204 C 869.571 1.05941 1.3803 0
M  V30 9205 O 870.747 1.37815 1.46864 0
M  V30 9206 C 867.812 2.60382 2.28915 0
M  V30 9207 C 866.873 3.80554 1.98689 0
M  V30 9208 C 866.106 4.27064 3.20081 0
M  V30 9209 O 866.329 3.72939 4.31593 0
M  V30 9210 O 865.263 5.1927 3.04371 0
M  V30 9211 H 869.089 2.97993 0.586011 0
M  V30 9212 H 866.674 1.47718 0.223519 0
M  V30 9213 H 868.556 2.92024 3.03809 0
M  V30 9214 H 867.231 1.77022 2.71007 0
M  V30 9215 H 866.138 3.53893 1.21286 0
M  V30 9216 H 867.471 4.64972 1.61437 0
M  V30 9217 N 869.123 -0.277682 1.55134 0
M  V30 9218 C 870.353 -1.02677 1.79279 0
M  V30 9219 C 870.761 -1.80599 0.563962 0
M  V30 9220 O 870.104 -1.77416 -0.476378 0
M  V30 9221 C 870.166 -2.03617 2.96277 0
M  V30 9222 C 869.83 -1.44676 4.33495 0
M  V30 9223 C 870.827 -0.864811 5.12657 0
M  V30 9224 C 868.512 -1.47537 4.80144 0
M  V30 9225 C 870.506 -0.319322 6.366 0
M  V30 9226 C 868.193 -0.926016 6.04043 0
M  V30 9227 C 869.191 -0.348988 6.82108 0
M  V30 9228 O 868.879 0.191964 8.03671 0
M  V30 9229 H 868.611 -0.309232 0.601125 0
M  V30 9230 H 871.165 -0.315308 2.02965 0
M  V30 9231 H 869.395 -2.78509 2.68272 0
M  V30 9232 H 871.084 -2.64616 3.07788 0
M  V30 9233 H 871.85 -0.835438 4.7775 0
M  V30 9234 H 867.729 -1.91389 4.19394 0
M  V30 9235 H 871.273 0.131709 6.97476 0
M  V30 9236 H 867.17 -0.952613 6.38432 0
M  V30 9237 H 867.938 0.0808779 8.1846 0
M  V30 9238 N 870.601 -1.47988 -0.541979 0
M  V30 9239 C 871.848 -1.55393 -1.29843 0
M  V30 9240 C 872.176 -0.222668 -1.93221 0
M  V30 9241 O 871.431 0.785936 -1.79225 0
M  V30 9242 C 871.73 -2.63189 -2.41798 0
M  V30 9243 C 871.396 -4.05999 -1.96151 0
M  V30 9244 C 870.058 -4.44872 -1.83419 0
M  V30 9245 C 872.41 -4.95545 -1.61507 0
M  V30 9246 C 869.738 -5.71108 -1.34361 0
M  V30 9247 C 872.09 -6.22259 -1.13915 0
M  V30 9248 C 870.754 -6.59998 -0.997911 0
M  V30 9249 H 870.024 -0.568623 -0.47513 0
M  V30 9250 H 872.671 -1.81654 -0.606142 0
M  V30 9251 H 870.976 -2.30743 -3.16647 0
M  V30 9252 H 872.673 -2.66138 -2.99953 0
M  V30 9253 H 869.263 -3.75294 -2.07008 0
M  V30 9254 H 873.447 -4.662 -1.70209 0
M  V30 9255 H 868.703 -5.99083 -1.22103 0
M  V30 9256 H 872.877 -6.91048 -0.861755 0
M  V30 9257 H 870.504 -7.57704 -0.615561 0
M  V30 9258 N 872.079 0.78992 -1.36375 0
M  V30 9259 C 873.309 1.57644 -1.33536 0
M  V30 9260 C 873.717 1.89007 0.0855075 0
M  V30 9261 O 873.06 1.50547 1.05267 0
M  V30 9262 C 873.122 2.92424 -2.09113 0
M  V30 9263 C 872.786 2.83793 -3.58205 0
M  V30 9264 C 873.783 2.56072 -4.52464 0
M  V30 9265 C 871.468 3.02386 -4.01084 0
M  V30 9266 C 873.462 2.47044 -5.87578 0
M  V30 9267 C 871.149 2.9298 -5.36289 0
M  V30 9268 C 872.147 2.65347 -6.29349 0
M  V30 9269 O 871.835 2.55935 -7.62071 0
M  V30 9270 H 871.567 0.495639 -0.459694 0
M  V30 9271 H 874.121 0.988354 -1.80058 0
M  V30 9272 H 872.351 3.53282 -1.57254 0
M  V30 9273 H 874.04 3.53693 -1.99139 0
M  V30 9274 H 874.806 2.4141 -4.2065 0
M  V30 9275 H 870.685 3.229 -3.29023 0
M  V30 9276 H 874.229 2.25396 -6.60184 0
M  V30 9277 H 870.126 3.07204 -5.67711 0
M  V30 9278 H 870.894 2.7142 -7.72187 0
M  V30 9279 N 873.557 1.20646 1.01402 0
M  V30 9280 C 874.803 1.0197 1.753 0
M  V30 9281 C 875.136 -0.446803 1.8899 0
M  V30 9282 O 874.411 -1.33169 1.41762 0
M  V30 9283 C 874.694 1.70693 3.17074 0
M  V30 9284 C 874.547 3.24805 3.11162 0
M  V30 9285 C 875.866 1.44212 4.15802 0
M  V30 9286 H 872.985 0.371844 0.636318 0
M  V30 9287 H 875.627 1.48696 1.18277 0
M  V30 9288 H 873.777 1.30968 3.65759 0
M  V30 9289 H 875.449 3.73841 2.70261 0
M  V30 9290 H 873.692 3.55576 2.48492 0
M  V30 9291 H 874.363 3.68049 4.11393 0
M  V30 9292 H 876.839 1.7868 3.75783 0
M  V30 9293 H 875.715 1.94825 5.13161 0
M  V30 9294 H 875.976 0.370252 4.40547 0
M  V30 9295 N 875.035 -1.20752 1.01276 0
M  V30 9296 C 876.312 -1.85676 0.615112 0
M  V30 9297 C 876.692 -1.90623 -0.906976 0
M  V30 9298 O 876.04 -1.41124 -1.79712 0
M  V30 9299 C 876.25 -3.2552 1.25847 0
M  V30 9300 C 877.598 -4.0184 1.37148 0
M  V30 9301 O 878.622 -3.3486 1.21438 0
M  V30 9302 O 877.481 -5.21783 1.62495 0
M  V30 9303 H 874.575 -0.799437 0.211729 0
M  V30 9304 H 877.121 -1.28372 1.10989 0
M  V30 9305 H 875.893 -3.16664 2.29869 0
M  V30 9306 H 875.516 -3.90452 0.750524 0
M  V30 9307 N 876.513 -0.788492 -1.36457 0
M  V30 9308 C 877.76 -0.360461 -1.99266 0
M  V30 9309 C 878.088 1.0676 -1.62581 0
M  V30 9310 O 877.343 1.75205 -0.871884 0
M  V30 9311 C 877.642 -0.470255 -3.54293 0
M  V30 9312 C 877.308 -1.85899 -4.10795 0
M  V30 9313 C 875.97 -2.23896 -4.25939 0
M  V30 9314 C 878.322 -2.76836 -4.41601 0
M  V30 9315 C 875.65 -3.52235 -4.69199 0
M  V30 9316 C 878.002 -4.04602 -4.86292 0
M  V30 9317 C 876.666 -4.42623 -4.99641 0
M  V30 9318 H 875.936 -0.131902 -0.729166 0
M  V30 9319 H 878.583 -1.00577 -1.62962 0
M  V30 9320 H 876.888 0.258559 -3.90946 0
M  V30 9321 H 878.585 -0.120119 -4.0082 0
M  V30 9322 H 875.175 -1.55372 -3.99447 0
M  V30 9323 H 879.359 -2.48735 -4.2947 0
M  V30 9324 H 874.615 -3.81565 -4.77722 0
M  V30 9325 H 878.789 -4.75182 -5.09092 0
M  V30 9326 H 876.416 -5.42125 -5.32921 0
M  V30 9327 N 877.991 1.48044 -0.54043 0
M  V30 9328 C 879.407 1.58354 -0.199006 0
M  V30 9329 C 879.607 1.54118 1.29807 0
M  V30 9330 O 878.663 1.43573 2.07709 0
M  V30 9331 C 879.976 2.89563 -0.810797 0
M  V30 9332 C 881.524 3.03113 -0.780486 0
M  V30 9333 C 881.999 4.36997 -1.37104 0
M  V30 9334 N 883.49 4.43591 -1.33347 0
M  V30 9335 C 884.225 5.45714 -1.76021 0
M  V30 9336 N 883.721 6.54738 -2.26473 0
M  V30 9337 N 885.514 5.36659 -1.67194 0
M  V30 9338 H 877.665 1.49041 -1.51329 0
M  V30 9339 H 879.928 0.708309 -0.630081 0
M  V30 9340 H 879.634 2.9835 -1.86227 0
M  V30 9341 H 879.508 3.76053 -0.293977 0
M  V30 9342 H 881.895 2.93932 0.262246 0
M  V30 9343 H 881.976 2.18207 -1.33489 0
M  V30 9344 H 881.62 4.46932 -2.41276 0
M  V30 9345 H 881.55 5.20607 -0.792229 0
M  V30 9346 H 884.041 3.65391 -0.964259 0
M  V30 9347 H 884.354 7.28814 -2.57002 0
M  V30 9348 H 882.699 6.55673 -2.30473 0
M  V30 9349 H 885.89 4.50382 -1.27569 0
M  V30 9350 H 886.063 6.16113 -2.00771 0
M  V30 9351 N 879.47 0.276058 1.55163 0
M  V30 9352 C 880.38 -0.621066 2.2623 0
M  V30 9353 C 881.396 -1.16931 1.28853 0
M  V30 9354 O 882.572 -1.1994 1.61791 0
M  V30 9355 C 879.637 -1.78824 2.97023 0
M  V30 9356 C 878.698 -1.27657 4.09881 0
M  V30 9357 C 877.931 -2.38812 4.77289 0
M  V30 9358 O 878.154 -3.58188 4.43912 0
M  V30 9359 O 877.088 -2.06915 5.65217 0
M  V30 9360 H 880.914 -0.0453346 3.03666 0
M  V30 9361 H 878.499 0.0434275 1.49337 0
M  V30 9362 H 880.381 -2.46877 3.41511 0
M  V30 9363 H 879.056 -2.35104 2.22503 0
M  V30 9364 H 877.963 -0.56248 3.69847 0
M  V30 9365 H 879.296 -0.759509 4.86305 0
M  V30 9366 N 880.948 -1.576 0.00335426 0
M  V30 9367 C 882.178 -1.94713 -0.690682 0
M  V30 9368 C 882.586 -0.876915 -1.67651 0
M  V30 9369 O 881.929 0.152434 -1.83066 0
M  V30 9370 C 881.991 -3.27833 -1.47532 0
M  V30 9371 C 881.655 -4.52344 -0.650704 0
M  V30 9372 C 882.652 -5.19862 0.0630537 0
M  V30 9373 C 880.337 -4.98755 -0.595687 0
M  V30 9374 C 882.331 -6.32093 0.820779 0
M  V30 9375 C 880.018 -6.10875 0.165761 0
M  V30 9376 C 881.016 -6.77401 0.872724 0
M  V30 9377 O 880.704 -7.87372 1.62174 0
M  V30 9378 H 880.436 -0.646627 -0.197104 0
M  V30 9379 H 882.99 -2.05335 0.0516082 0
M  V30 9380 H 881.22 -3.13628 -2.26217 0
M  V30 9381 H 882.909 -3.50034 -2.05501 0
M  V30 9382 H 883.675 -4.84991 0.0297223 0
M  V30 9383 H 879.554 -4.46797 -1.13549 0
M  V30 9384 H 883.098 -6.83953 1.37312 0
M  V30 9385 H 878.995 -6.45187 0.200901 0
M  V30 9386 H 879.763 -8.03905 1.5388 0
M  V30 9387 N 882.426 0.269451 -1.5528 0
M  V30 9388 C 883.336 1.35511 -1.91505 0
M  V30 9389 C 884.352 1.53854 -0.812712 0
M  V30 9390 O 885.528 1.67912 -1.1121 0
M  V30 9391 C 882.593 2.6937 -2.18267 0
M  V30 9392 C 881.654 2.59743 -3.41807 0
M  V30 9393 C 880.887 3.87219 -3.67283 0
M  V30 9394 O 881.11 4.88066 -2.95208 0
M  V30 9395 O 880.044 3.87209 -4.60818 0
M  V30 9396 H 883.87 1.07785 -2.8393 0
M  V30 9397 H 881.455 0.468282 -1.41871 0
M  V30 9398 H 883.337 3.48513 -2.36889 0
M  V30 9399 H 882.012 2.96874 -1.29024 0
M  V30 9400 H 880.919 1.78964 -3.28516 0
M  V30 9401 H 882.252 2.37188 -4.3128 0
M  V30 9402 N 883.904 1.48273 0.534124 0
M  V30 9403 C 885.134 1.59503 1.31311 0
M  V30 9404 C 885.542 0.25284 1.87503 0
M  V30 9405 O 884.885 -0.767399 1.66903 0
M  V30 9406 C 884.947 2.57899 2.50456 0
M  V30 9407 C 884.611 4.03063 2.15382 0
M  V30 9408 C 885.608 4.90869 1.713 0
M  V30 9409 C 883.293 4.4857 2.26032 0
M  V30 9410 C 885.287 6.22209 1.38328 0
M  V30 9411 C 882.974 5.79932 1.92672 0
M  V30 9412 C 883.972 6.66574 1.4889 0
M  V30 9413 O 883.66 7.95492 1.15966 0
M  V30 9414 H 883.392 0.540695 0.405739 0
M  V30 9415 H 885.946 1.94794 0.651497 0
M  V30 9416 H 884.176 2.1772 3.19585 0
M  V30 9417 H 885.865 2.59008 3.12522 0
M  V30 9418 H 886.631 4.56951 1.62545 0
M  V30 9419 H 882.51 3.81321 2.59066 0
M  V30 9420 H 886.054 6.89792 1.04082 0
M  V30 9421 H 881.951 6.13386 2.01066 0
M  V30 9422 H 882.719 8.08207 1.29399 0
M  V30 9423 N 885.382 -0.782676 1.36792 0
M  V30 9424 C 886.659 -1.52939 1.21939 0
M  V30 9425 C 887.039 -2.10228 -0.191639 0
M  V30 9426 O 886.387 -1.94574 -1.19805 0
M  V30 9427 C 886.597 -2.61898 2.30674 0
M  V30 9428 C 887.945 -3.29598 2.67676 0
M  V30 9429 O 888.969 -2.72186 2.29768 0
M  V30 9430 O 887.828 -4.3337 3.32946 0
M  V30 9431 H 884.922 -0.676856 0.47518 0
M  V30 9432 H 887.468 -0.82058 1.48542 0
M  V30 9433 H 886.24 -2.17607 3.25212 0
M  V30 9434 H 885.863 -3.40391 2.05475 0
M  V30 9435 N 886.86 -1.21182 -1.00761 0
M  V30 9436 C 887.79 -0.992773 -2.11344 0
M  V30 9437 C 888.771 0.0813618 -1.69905 0
M  V30 9438 O 889.956 -0.0779503 -1.94043 0
M  V30 9439 C 887.086 -0.553826 -3.42856 0
M  V30 9440 C 886.04 -1.57223 -3.98077 0
M  V30 9441 C 885.366 -0.989605 -5.25463 0
M  V30 9442 C 886.666 -2.95839 -4.30438 0
M  V30 9443 H 888.36 -1.91766 -2.29927 0
M  V30 9444 H 885.906 -0.923426 -1.10494 0
M  V30 9445 H 887.859 -0.387771 -4.19612 0
M  V30 9446 H 886.583 0.406702 -3.24058 0
M  V30 9447 H 885.242 -1.7258 -3.23437 0
M  V30 9448 H 884.89 -0.0208743 -5.02996 0
M  V30 9449 H 884.59 -1.66984 -5.63374 0
M  V30 9450 H 886.114 -0.834815 -6.04866 0
M  V30 9451 H 887.528 -2.8394 -4.98047 0
M  V30 9452 H 885.925 -3.60851 -4.79486 0
M  V30 9453 H 886.995 -3.46882 -3.38823 0
M  V30 9454 N 888.338 1.20213 -1.01915 0
M  V30 9455 C 889.285 2.2309 -0.591571 0
M  V30 9456 C 890.255 1.61465 0.389649 0
M  V30 9457 O 891.44 1.88606 0.288511 0
M  V30 9458 C 888.58 3.45045 0.0614028 0
M  V30 9459 C 887.693 4.21091 -0.964688 0
M  V30 9460 C 886.828 5.30448 -0.282499 0
M  V30 9461 C 885.867 5.98241 -1.29517 0
M  V30 9462 N 885.004 6.99182 -0.639472 0
M  V30 9463 H 889.844 2.59023 -1.47347 0
M  V30 9464 H 887.381 1.27274 -0.737547 0
M  V30 9465 H 889.339 4.14688 0.45714 0
M  V30 9466 H 887.969 3.09797 0.906937 0
M  V30 9467 H 887.021 3.50489 -1.47857 0
M  V30 9468 H 888.333 4.67662 -1.73475 0
M  V30 9469 H 887.487 6.06466 0.168603 0
M  V30 9470 H 886.226 4.84922 0.519843 0
M  V30 9471 H 885.231 5.20982 -1.75663 0
M  V30 9472 H 886.456 6.45853 -2.09884 0
M  V30 9473 H 884.402 6.55844 0.142955 0
M  V30 9474 H 884.319 7.43893 -1.34756 0
M  V30 9475 H 885.587 7.79212 -0.212047 0
M  V30 9476 N 889.816 0.795718 1.36037 0
M  V30 9477 C 891.062 0.380668 1.99806 0
M  V30 9478 C 891.417 -1.03783 1.62009 0
M  V30 9479 O 890.71 -1.70819 0.867831 0
M  V30 9480 C 890.904 0.489038 3.54038 0
M  V30 9481 C 890.733 1.91652 4.06817 0
M  V30 9482 C 889.503 2.54252 4.36674 0
M  V30 9483 C 891.701 2.87956 4.26129 0
M  V30 9484 N 889.683 3.88523 4.75314 0
M  V30 9485 C 891.054 4.07074 4.67644 0
M  V30 9486 C 893.109 2.8493 4.08313 0
M  V30 9487 C 891.812 5.23583 4.93208 0
M  V30 9488 C 893.838 4.00632 4.35027 0
M  V30 9489 C 893.2 5.18496 4.76804 0
M  V30 9490 H 889.299 0.186842 0.759351 0
M  V30 9491 H 891.883 1.03465 1.64933 0
M  V30 9492 H 890.054 -0.134893 3.88166 0
M  V30 9493 H 891.786 0.0496256 4.0467 0
M  V30 9494 H 888.541 2.05685 4.26604 0
M  V30 9495 H 888.965 4.57623 4.98909 0
M  V30 9496 H 893.607 1.94964 3.75165 0
M  V30 9497 H 891.325 6.14129 5.25234 0
M  V30 9498 H 894.911 3.99659 4.22805 0
M  V30 9499 H 893.791 6.06538 4.97073 0
M  V30 9500 N 891.294 -1.47756 0.548274 0
M  V30 9501 C 892.204 -2.33678 -0.207773 0
M  V30 9502 C 893.22 -1.47636 -0.920843 0
M  V30 9503 O 894.396 -1.80583 -0.89173 0
M  V30 9504 C 891.461 -3.24147 -1.23003 0
M  V30 9505 C 890.522 -4.26073 -0.52535 0
M  V30 9506 C 889.755 -5.12219 -1.4989 0
M  V30 9507 O 889.978 -5.0066 -2.73305 0
M  V30 9508 O 888.912 -5.93051 -1.02828 0
M  V30 9509 H 892.738 -2.99609 0.496794 0
M  V30 9510 H 890.323 -1.4617 0.308982 0
M  V30 9511 H 892.205 -3.80055 -1.82034 0
M  V30 9512 H 890.88 -2.60855 -1.91668 0
M  V30 9513 H 889.787 -3.7395 0.105927 0
M  V30 9514 H 891.12 -4.92054 0.119686 0
M  V30 9515 N 892.772 -0.284283 -1.55015 0
M  V30 9516 C 894.019 0.329864 -1.99795 0
M  V30 9517 C 894.347 1.55171 -1.1727 0
M  V30 9518 O 893.602 1.94312 -0.232667 0
M  V30 9519 C 893.901 0.747219 -3.49502 0
M  V30 9520 C 893.567 -0.37101 -4.49371 0
M  V30 9521 C 892.229 -0.678034 -4.76399 0
M  V30 9522 C 894.581 -1.12406 -5.08935 0
M  V30 9523 C 891.909 -1.74152 -5.60257 0
M  V30 9524 C 894.261 -2.17734 -5.93948 0
M  V30 9525 C 892.925 -2.49061 -6.19294 0
M  V30 9526 H 892.195 0.120706 -0.731103 0
M  V30 9527 H 894.842 -0.399904 -1.87278 0
M  V30 9528 H 893.147 1.55681 -3.59542 0
M  V30 9529 H 894.844 1.2333 -3.81563 0
M  V30 9530 H 891.434 -0.1216 -4.28427 0
M  V30 9531 H 895.618 -0.900119 -4.88069 0
M  V30 9532 H 890.874 -1.98915 -5.78137 0
M  V30 9533 H 895.048 -2.76553 -6.39133 0
M  V30 9534 H 892.675 -3.31602 -6.84064 0
M  V30 9535 N 894.251 1.57596 -0.0117121 0
M  V30 9536 C 895.662 1.79033 0.529521 0
M  V30 9537 C 896.013 0.920299 1.73277 0
M  V30 9538 O 895.138 0.125934 2.16033 0
M  V30 9539 C 895.733 3.24695 0.967405 0
M  V30 9540 C 894.292 3.47188 1.45387 0
M  V30 9541 C 893.439 2.74245 0.410466 0
M  V30 9542 H 896.39 1.56908 -0.237836 0
M  V30 9543 H 896.411 3.33451 1.83278 0
M  V30 9544 H 895.923 3.87992 0.0914605 0
M  V30 9545 H 894.024 2.89121 2.35032 0
M  V30 9546 H 894.137 4.55886 1.47325 0
M  V30 9547 H 892.501 2.39209 0.874721 0
M  V30 9548 H 893.284 3.40248 -0.456713 0
M  V30 9549 N 895.729 -0.261212 1.5542 0
M  V30 9550 C 897.145 -0.609012 1.47524 0
M  V30 9551 C 897.345 -1.88986 0.699042 0
M  V30 9552 O 896.401 -2.51517 0.222628 0
M  V30 9553 C 897.714 -0.725025 2.91828 0
M  V30 9554 C 899.262 -0.818302 3.02114 0
M  V30 9555 C 899.737 -0.965996 4.47697 0
M  V30 9556 N 901.228 -1.03123 4.51575 0
M  V30 9557 C 901.963 -1.16451 5.6145 0
M  V30 9558 N 901.459 -1.26425 6.81167 0
M  V30 9559 N 903.252 -1.19655 5.49217 0
M  V30 9560 H 895.403 0.579807 2.04333 0
M  V30 9561 H 897.666 0.198072 0.927077 0
M  V30 9562 H 897.372 0.145871 3.51397 0
M  V30 9563 H 897.246 -1.60156 3.41511 0
M  V30 9564 H 899.633 -1.67966 2.42634 0
M  V30 9565 H 899.714 0.0830895 2.55665 0
M  V30 9566 H 899.358 -0.109251 5.07782 0
M  V30 9567 H 899.288 -1.88221 4.91813 0
M  V30 9568 H 901.779 -0.966072 3.65343 0
M  V30 9569 H 902.092 -1.36462 7.60656 0
M  V30 9570 H 900.437 -1.23408 6.83956 0
M  V30 9571 H 903.628 -1.11501 4.54626 0
M  V30 9572 H 903.801 -1.29698 6.34888 0
M  V30 9573 N 897.207 -1.48554 -0.526253 0
M  V30 9574 C 898.117 -1.66044 -1.65731 0
M  V30 9575 C 899.133 -0.542951 -1.65312 0
M  V30 9576 O 900.309 -0.814495 -1.84195 0
M  V30 9577 C 897.374 -1.69959 -3.02184 0
M  V30 9578 C 896.435 -2.93362 -3.13428 0
M  V30 9579 C 895.668 -2.97081 -4.43372 0
M  V30 9580 O 895.891 -2.09103 -5.3069 0
M  V30 9581 O 894.825 -3.8929 -4.59061 0
M  V30 9582 H 898.651 -2.61811 -1.53912 0
M  V30 9583 H 896.236 -1.31999 -0.699759 0
M  V30 9584 H 898.118 -1.75033 -3.83329 0
M  V30 9585 H 896.793 -0.773658 -3.14319 0
M  V30 9586 H 895.7 -2.93818 -2.31564 0
M  V30 9587 H 897.033 -3.85352 -3.06211 0
M  V30 9588 N 898.685 0.775411 -1.37205 0
M  V30 9589 C 899.633 1.90996 -1.32752 0
M  V30 9590 C 900.627 1.68006 -0.216907 0
M  V30 9591 O 901.833 1.7584 -0.384723 0
M  V30 9592 H 898.208 0.62803 -0.413621 0
M  V30 9593 H 900.179 1.91869 -2.28536 0
M  V30 9594 C 898.928 3.28211 -1.14772 0
M  V30 9595 H 898.251 3.46477 -1.99484 0
M  V30 9596 H 899.691 4.07907 -1.15706 0
M  V30 9597 C 898.15 3.3658 0.146852 0
M  V30 9598 O 898.68 3.85428 1.13173 0
M  V30 9599 N 896.886 2.89936 0.196305 0
M  V30 9600 H 896.433 2.50375 -0.605807 0
M  V30 9601 H 896.391 2.95916 1.06212 0
M  V30 9602 N 900.163 1.21714 1.00117 0
M  V30 9603 C 901.093 1.00397 2.10815 0
M  V30 9604 C 902.074 -0.0723502 1.69946 0
M  V30 9605 O 903.259 0.0882398 1.93999 0
M  V30 9606 C 900.389 0.572001 3.42557 0
M  V30 9607 C 899.343 1.59331 3.97237 0
M  V30 9608 C 898.669 1.01746 5.2493 0
M  V30 9609 C 899.969 2.98117 4.28863 0
M  V30 9610 H 901.663 1.92983 2.28906 0
M  V30 9611 H 899.209 0.929273 1.10002 0
M  V30 9612 H 901.162 0.410018 4.19401 0
M  V30 9613 H 899.886 -0.38951 3.24269 0
M  V30 9614 H 898.545 1.74293 3.22518 0
M  V30 9615 H 898.193 0.0475491 5.02978 0
M  V30 9616 H 897.893 1.69969 5.62481 0
M  V30 9617 H 899.417 0.866881 6.04415 0
M  V30 9618 H 900.831 2.86578 4.96534 0
M  V30 9619 H 899.228 3.63389 4.77565 0
M  V30 9620 H 900.298 3.48674 3.36979 0
M  V30 9621 N 901.641 -1.19671 1.02551 0
M  V30 9622 C 902.551 -2.26441 0.613329 0
M  V30 9623 C 903.567 -1.70375 -0.353339 0
M  V30 9624 O 904.743 -2.0028 -0.212064 0
M  V30 9625 C 901.808 -3.46684 -0.0329028 0
M  V30 9626 C 900.869 -4.17945 0.980837 0
M  V30 9627 C 900.102 -5.32448 0.36535 0
M  V30 9628 O 900.325 -5.64291 -0.832596 0
M  V30 9629 O 899.259 -5.92012 1.08652 0
M  V30 9630 H 903.085 -2.63932 1.50246 0
M  V30 9631 H 900.67 -1.2646 0.795502 0
M  V30 9632 H 902.552 -4.1956 -0.393395 0
M  V30 9633 H 901.227 -3.1105 -0.896089 0
M  V30 9634 H 900.134 -3.47204 1.39286 0
M  V30 9635 H 901.467 -4.57542 1.81428 0
M  V30 9636 N 903.119 -0.802921 -1.35613 0
M  V30 9637 C 904.366 -0.381576 -1.98872 0
M  V30 9638 C 904.694 1.0503 -1.63704 0
M  V30 9639 O 903.949 1.7427 -0.890418 0
M  V30 9640 C 904.248 -0.507806 -3.53774 0
M  V30 9641 C 903.914 -1.90245 -4.088 0
M  V30 9642 C 902.576 -2.28401 -4.2354 0
M  V30 9643 C 904.928 -2.81504 -4.3864 0
M  V30 9644 C 902.256 -3.57192 -4.65436 0
M  V30 9645 C 904.608 -4.09737 -4.81973 0
M  V30 9646 C 903.272 -4.47897 -4.94919 0
M  V30 9647 H 902.542 -0.139629 -0.727726 0
M  V30 9648 H 905.189 -1.023 -1.61886 0
M  V30 9649 H 903.494 0.21708 -3.91198 0
M  V30 9650 H 905.191 -0.162625 -4.0067 0
M  V30 9651 H 901.781 -1.596 -3.97776 0
M  V30 9652 H 905.965 -2.53276 -4.26808 0
M  V30 9653 H 901.221 -3.86611 -4.73648 0
M  V30 9654 H 905.395 -4.80555 -5.04024 0
M  V30 9655 H 903.022 -5.47747 -5.27141 0
M  V30 9656 N 904.597 1.47463 -0.556102 0
M  V30 9657 C 905.845 2.02075 -0.0315712 0
M  V30 9658 C 906.166 1.43292 1.32259 0
M  V30 9659 O 905.436 0.60771 1.86236 0
M  V30 9660 H 904.016 0.74695 -0.0086816 0
M  V30 9661 H 906.678 1.80879 -0.725859 0
M  V30 9662 H 905.774 3.12047 0.0573538 0
M  V30 9663 N 906.075 0.2925 1.54862 0
M  V30 9664 C 907.022 -0.587365 2.23201 0
M  V30 9665 C 907.992 -1.13623 1.21157 0
M  V30 9666 O 909.177 -1.18233 1.49752 0
M  V30 9667 C 906.317 -1.75745 2.96998 0
M  V30 9668 C 905.43 -1.24078 4.13798 0
M  V30 9669 C 904.565 -2.37405 4.75197 0
M  V30 9670 C 903.604 -1.82829 5.84157 0
M  V30 9671 N 902.741 -2.89696 6.39547 0
M  V30 9672 H 907.581 0.00202207 2.98 0
M  V30 9673 H 905.118 0.012766 1.47094 0
M  V30 9674 H 907.076 -2.44549 3.38011 0
M  V30 9675 H 905.706 -2.3186 2.24591 0
M  V30 9676 H 904.758 -0.445268 3.77785 0
M  V30 9677 H 906.07 -0.801186 4.92324 0
M  V30 9678 H 905.224 -3.14172 5.19019 0
M  V30 9679 H 903.963 -2.84688 3.95985 0
M  V30 9680 H 902.968 -1.04548 5.39768 0
M  V30 9681 H 904.193 -1.36461 6.65248 0
M  V30 9682 H 902.139 -3.36328 5.63222 0
M  V30 9683 H 902.056 -2.50206 7.13395 0
M  V30 9684 H 903.324 -3.66386 6.88027 0
M  V30 9685 N 907.553 -1.57587 0.0200696 0
M  V30 9686 C 908.799 -1.91708 -0.661503 0
M  V30 9687 C 909.132 -0.895968 -1.72296 0
M  V30 9688 O 908.407 0.082577 -1.94325 0
M  V30 9689 C 908.69 -3.36344 -1.28627 0
M  V30 9690 C 908.543 -4.49186 -0.234982 0
M  V30 9691 C 909.862 -3.80771 -2.20685 0
M  V30 9692 H 906.981 -0.69717 -0.239005 0
M  V30 9693 H 909.623 -1.8985 0.0754764 0
M  V30 9694 H 907.773 -3.38058 -1.91439 0
M  V30 9695 H 909.445 -4.59606 0.395011 0
M  V30 9696 H 907.688 -4.31557 0.440565 0
M  V30 9697 H 908.359 -5.47395 -0.711558 0
M  V30 9698 H 910.835 -3.80735 -1.67868 0
M  V30 9699 H 909.711 -4.82685 -2.61356 0
M  V30 9700 H 909.972 -3.15764 -3.09428 0
M  V30 9701 N 909.032 0.252966 -1.55557 0
M  V30 9702 C 909.962 1.31691 -1.9282 0
M  V30 9703 C 910.943 1.50516 -0.7924 0
M  V30 9704 O 912.128 1.63225 -1.05219 0
M  V30 9705 C 909.258 2.67281 -2.21762 0
M  V30 9706 C 908.212 2.6316 -3.37536 0
M  V30 9707 C 907.538 4.02488 -3.52005 0
M  V30 9708 C 908.838 2.20675 -4.73392 0
M  V30 9709 H 910.532 1.00751 -2.81939 0
M  V30 9710 H 908.078 0.483219 -1.3565 0
M  V30 9711 H 910.031 3.41842 -2.46419 0
M  V30 9712 H 908.755 2.99845 -1.29463 0
M  V30 9713 H 907.414 1.91057 -3.12878 0
M  V30 9714 H 907.062 4.32307 -2.57137 0
M  V30 9715 H 906.762 4.00621 -4.29857 0
M  V30 9716 H 908.286 4.78758 -3.78977 0
M  V30 9717 H 909.7 2.84965 -4.97461 0
M  V30 9718 H 908.097 2.29931 -5.54303 0
M  V30 9719 H 909.167 1.15831 -4.70862 0
M  V30 9720 N 910.51 1.48831 0.518367 0
M  V30 9721 C 911.758 1.57128 1.27103 0
M  V30 9722 C 912.079 0.252098 1.93364 0
M  V30 9723 O 911.349 -0.727281 1.819 0
M  V30 9724 H 909.929 0.578891 0.472116 0
M  V30 9725 H 912.591 1.85361 0.602262 0
M  V30 9726 H 911.687 2.35838 2.04418 0
M  V30 9727 N 911.988 -0.768124 1.37614 0
M  V30 9728 C 913.213 -1.56239 1.36397 0
M  V30 9729 C 913.638 -1.8804 -0.0475839 0
M  V30 9730 O 912.996 -1.495 -1.02564 0
M  V30 9731 C 913.044 -2.84716 2.21289 0
M  V30 9732 O 912.148 -3.79249 1.62001 0
M  V30 9733 H 911.489 -0.473119 0.465891 0
M  V30 9734 H 914.019 -0.950415 1.81186 0
M  V30 9735 H 914.029 -3.33784 2.34632 0
M  V30 9736 H 912.704 -2.60899 3.2389 0
M  V30 9737 H 911.281 -3.37904 1.57719 0
M  V30 9738 N 913.466 -1.22244 -0.994698 0
M  V30 9739 C 914.714 -1.04384 -1.73056 0
M  V30 9740 C 915.035 0.422204 -1.90374 0
M  V30 9741 O 914.305 1.30383 -1.46209 0
M  V30 9742 H 912.885 -0.383263 -0.641185 0
M  V30 9743 H 915.547 -1.53725 -1.1981 0
M  V30 9744 H 914.643 -1.52021 -2.72573 0
M  V30 9745 N 914.944 1.19125 -1.03184 0
M  V30 9746 C 915.907 2.20662 -0.619766 0
M  V30 9747 C 916.907 1.57621 0.318179 0
M  V30 9748 O 918.097 1.73885 0.104783 0
M  V30 9749 C 915.229 3.40774 0.0926696 0
M  V30 9750 H 916.422 2.58633 -1.5182 0
M  V30 9751 H 913.975 1.32855 -0.823364 0
M  V30 9752 H 914.71 3.08324 1.00531 0
M  V30 9753 H 914.495 3.87766 -0.581344 0
M  V30 9754 H 915.985 4.15977 0.367792 0
M  V30 9755 N 916.422 0.810101 1.35185 0
M  V30 9756 C 917.669 0.392117 1.98667 0
M  V30 9757 C 917.997 -1.0416 1.64259 0
M  V30 9758 O 917.252 -1.73795 0.899647 0
M  V30 9759 C 917.551 0.526561 3.535 0
M  V30 9760 C 917.217 1.92411 4.07785 0
M  V30 9761 C 915.879 2.30644 4.22323 0
M  V30 9762 C 918.231 2.83827 4.37141 0
M  V30 9763 C 915.559 3.59655 4.63536 0
M  V30 9764 C 917.911 4.12287 4.79794 0
M  V30 9765 C 916.575 4.50515 4.92536 0
M  V30 9766 H 915.845 0.143486 0.726975 0
M  V30 9767 H 918.492 1.03157 1.61341 0
M  V30 9768 H 916.797 -0.19633 3.91308 0
M  V30 9769 H 918.494 0.183871 4.00578 0
M  V30 9770 H 915.084 1.61707 3.96924 0
M  V30 9771 H 919.268 2.55536 4.25459 0
M  V30 9772 H 914.524 3.89117 4.71591 0
M  V30 9773 H 918.698 4.83221 5.01468 0
M  V30 9774 H 916.325 5.50535 5.24229 0
M  V30 9775 N 917.9 -1.47166 0.563914 0
M  V30 9776 C 919.148 -2.02056 0.0422873 0
M  V30 9777 C 919.469 -1.43992 -1.31497 0
M  V30 9778 O 918.739 -0.617578 -1.85911 0
M  V30 9779 H 917.319 -0.746893 0.0126427 0
M  V30 9780 H 919.981 -1.80492 0.735441 0
M  V30 9781 H 919.077 -3.12073 -0.0408044 0
M  V30 9782 N 919.378 -0.300708 -1.54705 0
M  V30 9783 C 920.325 0.57552 -2.23509 0
M  V30 9784 C 921.295 1.12979 -1.21758 0
M  V30 9785 O 922.48 1.17437 -1.50377 0
M  V30 9786 C 919.62 1.74167 -2.97926 0
M  V30 9787 C 918.733 1.21882 -4.1445 0
M  V30 9788 C 917.868 2.34881 -4.7645 0
M  V30 9789 C 916.907 1.79729 -5.85119 0
M  V30 9790 N 916.044 2.863 -6.41075 0
M  V30 9791 H 920.884 -0.0178257 -2.97995 0
M  V30 9792 H 918.421 -0.0205666 -1.47086 0
M  V30 9793 H 920.379 2.42753 -3.39303 0
M  V30 9794 H 919.009 2.30665 -2.25817 0
M  V30 9795 H 918.061 0.425227 -3.78016 0
M  V30 9796 H 919.373 0.775065 -4.92741 0
M  V30 9797 H 918.527 3.11415 -5.20678 0
M  V30 9798 H 917.266 2.82584 -3.97489 0
M  V30 9799 H 916.271 1.01684 -5.40315 0
M  V30 9800 H 917.496 1.32931 -6.65963 0
M  V30 9801 H 915.442 3.33337 -5.64998 0
M  V30 9802 H 915.359 2.46419 -7.14712 0
M  V30 9803 H 916.627 3.62732 -6.89961 0
M  V30 9804 N 920.856 1.57574 -0.0284266 0
M  V30 9805 C 922.102 1.92056 0.651327 0
M  V30 9806 C 922.435 0.905092 1.71819 0
M  V30 9807 O 921.71 -0.0722703 1.94366 0
M  V30 9808 C 921.993 3.37021 1.26841 0
M  V30 9809 C 921.846 4.49304 0.211157 0
M  V30 9810 C 923.165 3.81936 2.18662 0
M  V30 9811 H 920.284 0.698428 0.235304 0
M  V30 9812 H 922.926 1.89807 -0.0855435 0
M  V30 9813 H 921.076 3.39068 1.89644 0
M  V30 9814 H 922.748 4.5939 -0.419379 0
M  V30 9815 H 920.991 4.31317 -0.463445 0
M  V30 9816 H 921.662 5.47764 0.682518 0
M  V30 9817 H 924.138 3.8162 1.65847 0
M  V30 9818 H 923.014 4.84064 2.58792 0
M  V30 9819 H 923.275 3.174 3.07749 0
M  V30 9820 N 922.334 -0.244713 1.55689 0
M  V30 9821 C 923.267 -1.32946 1.85474 0
M  V30 9822 C 924.245 -1.46279 0.710021 0
M  V30 9823 O 925.429 -1.62459 0.956004 0
M  V30 9824 C 922.556 -2.7027 2.04137 0
M  V30 9825 C 921.602 -2.74075 3.2678 0
M  V30 9826 S 922.435 -2.30465 4.8337 0
M  V30 9827 C 923.591 -3.69709 5.05041 0
M  V30 9828 H 923.824 -1.07482 2.77191 0
M  V30 9829 H 921.357 -0.445807 1.47824 0
M  V30 9830 H 923.315 -3.4934 2.15574 0
M  V30 9831 H 921.976 -2.9297 1.13259 0
M  V30 9832 H 921.169 -3.74932 3.36812 0
M  V30 9833 H 920.771 -2.03051 3.1408 0
M  V30 9834 H 923.063 -4.65222 4.92518 0
M  V30 9835 H 924.006 -3.6461 6.07014 0
M  V30 9836 H 924.414 -3.62323 4.32877 0
M  V30 9837 N 923.813 -1.49104 -0.510467 0
M  V30 9838 C 924.761 -1.65547 -1.63392 0
M  V30 9839 C 925.755 -0.521522 -1.61172 0
M  V30 9840 O 926.961 -0.700865 -1.65795 0
M  V30 9841 H 923.336 -0.521843 -0.541464 0
M  V30 9842 H 925.307 -2.59864 -1.46673 0
M  V30 9843 C 924.056 -1.73051 -3.01577 0
M  V30 9844 H 923.379 -2.59676 -3.03987 0
M  V30 9845 H 924.819 -1.88594 -3.79748 0
M  V30 9846 C 923.278 -0.47328 -3.33559 0
M  V30 9847 O 923.808 0.405239 -3.99651 0
M  V30 9848 N 922.014 -0.339074 -2.88615 0
M  V30 9849 H 921.561 -1.05497 -2.35007 0
M  V30 9850 H 921.519 0.501061 -3.10382 0
M  V30 9851 N 925.291 0.760815 -1.38019 0
M  V30 9852 C 926.254 1.85604 -1.34476 0
M  V30 9853 C 927.254 1.58897 -0.24666 0
M  V30 9854 O 928.444 1.66776 -0.50314 0
M  V30 9855 C 925.576 3.22945 -1.09176 0
M  V30 9856 H 926.769 1.90155 -2.31908 0
M  V30 9857 H 924.322 0.961746 -1.23208 0
M  V30 9858 H 925.057 3.24066 -0.123216 0
M  V30 9859 H 924.842 3.43723 -1.88672 0
M  V30 9860 H 926.332 4.03022 -1.09375 0
M  V30 9861 N 926.769 1.22769 0.988202 0
M  V30 9862 C 927.997 1.08155 1.76381 0
M  V30 9863 C 928.412 -0.367573 1.85187 0
M  V30 9864 O 927.769 -1.25455 1.32541 0
M  V30 9865 C 927.82 1.69193 3.19462 0
M  V30 9866 O 927.541 3.08437 3.11125 0
M  V30 9867 C 929.042 1.59915 4.13451 0
M  V30 9868 H 926.262 0.378908 0.553778 0
M  V30 9869 H 928.806 1.6246 1.24206 0
M  V30 9870 H 926.961 1.18939 3.6869 0
M  V30 9871 H 927.375 3.37916 4.0114 0
M  V30 9872 H 928.849 2.07339 5.1158 0
M  V30 9873 H 929.326 0.556546 4.3566 0
M  V30 9874 H 929.932 2.09497 3.70123 0
M  V30 9875 N 928.247 -1.18576 1.03814 0
M  V30 9876 C 929.21 -2.2033 0.63146 0
M  V30 9877 C 930.21 -1.57787 -0.309816 0
M  V30 9878 O 931.4 -1.73938 -0.0955598 0
M  V30 9879 C 928.532 -3.40818 -0.0745963 0
M  V30 9880 H 929.725 -2.57824 1.53189 0
M  V30 9881 H 927.278 -1.32416 0.830398 0
M  V30 9882 H 928.013 -3.08853 -0.988947 0
M  V30 9883 H 927.798 -3.87453 0.6019 0
M  V30 9884 H 929.288 -4.16166 -0.345727 0
M  V30 9885 N 929.725 -0.817259 -1.34754 0
M  V30 9886 C 930.955 -0.414849 -2.02392 0
M  V30 9887 C 931.363 0.982186 -1.61709 0
M  V30 9888 O 930.706 1.64607 -0.815481 0
M  V30 9889 C 930.768 -0.430981 -3.56907 0
M  V30 9890 C 930.432 -1.78037 -4.20894 0
M  V30 9891 C 931.429 -2.74034 -4.41816 0
M  V30 9892 C 929.114 -2.0673 -4.57786 0
M  V30 9893 C 931.108 -3.96901 -4.98747 0
M  V30 9894 C 928.795 -3.29858 -5.14429 0
M  V30 9895 C 929.793 -4.24761 -5.34853 0
M  V30 9896 O 929.481 -5.45714 -5.90298 0
M  V30 9897 H 929.213 -0.165392 -0.655455 0
M  V30 9898 H 931.767 -1.10524 -1.73129 0
M  V30 9899 H 929.997 0.316074 -3.85406 0
M  V30 9900 H 931.686 -0.0494067 -4.0587 0
M  V30 9901 H 932.452 -2.53161 -4.13684 0
M  V30 9902 H 928.331 -1.33666 -4.41197 0
M  V30 9903 H 931.875 -4.70987 -5.14604 0
M  V30 9904 H 927.772 -3.50597 -5.41989 0
M  V30 9905 H 928.54 -5.47157 -6.08738 0
M  V30 9906 N 931.203 1.46865 -0.571711 0
M  V30 9907 C 932.451 2.0203 -0.0530022 0
M  V30 9908 C 932.772 1.44687 1.30731 0
M  V30 9909 O 932.042 0.627429 1.85581 0
M  V30 9910 H 930.622 0.746815 -0.0166035 0
M  V30 9911 H 933.284 1.80099 -0.745003 0
M  V30 9912 H 932.38 3.12091 0.0242538 0
M  V30 9913 N 932.681 0.308908 1.54543 0
M  V30 9914 C 933.93 -0.298854 1.99474 0
M  V30 9915 C 934.243 -1.54393 1.20093 0
M  V30 9916 O 935.449 -2.22677 1.55329 0
M  V30 9917 C 933.905 -0.58303 3.55146 0
M  V30 9918 C 933.513 0.644157 4.43345 0
M  V30 9919 C 935.257 -1.15155 4.08582 0
M  V30 9920 C 933.164 0.332694 5.90463 0
M  V30 9921 H 932.094 -0.115445 0.74511 0
M  V30 9922 H 934.745 0.418848 1.78656 0
M  V30 9923 H 933.127 -1.36053 3.71894 0
M  V30 9924 H 934.301 1.42012 4.38371 0
M  V30 9925 H 932.616 1.13186 4.00722 0
M  V30 9926 H 935.213 -1.39896 5.16075 0
M  V30 9927 H 935.556 -2.09632 3.59667 0
M  V30 9928 H 936.089 -0.435571 3.95408 0
M  V30 9929 H 932.828 1.24624 6.43544 0
M  V30 9930 H 932.348 -0.405844 5.98425 0
M  V30 9931 H 934.027 -0.0628545 6.46969 0
M  V30 9932 N 934.159 -1.57557 0.0367827 0
M  V30 9933 C 935.384 -1.96828 -0.653707 0
M  V30 9934 C 935.809 -0.913559 -1.64425 0
M  V30 9935 O 935.167 0.124749 -1.8087 0
M  V30 9936 C 935.215 -3.35189 -1.32969 0
M  V30 9937 O 934.319 -3.32095 -2.44513 0
M  V30 9938 H 933.66 -0.64157 -0.171124 0
M  V30 9939 H 936.19 -2.04351 0.100912 0
M  V30 9940 H 936.2 -3.71593 -1.68472 0
M  V30 9941 H 934.875 -4.11496 -0.603654 0
M  V30 9942 H 933.452 -3.07418 -2.11065 0
M  V30 9943 N 935.637 0.236453 -1.55816 0
M  V30 9944 C 936.584 1.29289 -1.91188 0
M  V30 9945 C 937.554 1.47315 -0.767301 0
M  V30 9946 O 938.739 1.61128 -1.02189 0
M  V30 9947 C 935.879 2.64126 -2.22107 0
M  V30 9948 C 934.992 2.54022 -3.49423 0
M  V30 9949 C 934.127 3.81282 -3.69861 0
M  V30 9950 C 933.166 3.65839 -4.90743 0
M  V30 9951 N 932.303 4.85014 -5.07647 0
M  V30 9952 H 937.143 0.98424 -2.81277 0
M  V30 9953 H 934.68 0.474722 -1.39229 0
M  V30 9954 H 936.638 3.42626 -2.3804 0
M  V30 9955 H 935.268 2.93118 -1.35209 0
M  V30 9956 H 934.32 1.67036 -3.41765 0
M  V30 9957 H 935.632 2.38525 -4.38072 0
M  V30 9958 H 934.786 4.68226 -3.8581 0
M  V30 9959 H 933.525 3.99688 -2.79465 0
M  V30 9960 H 932.53 2.77279 -4.74759 0
M  V30 9961 H 933.755 3.48918 -5.82609 0
M  V30 9962 H 931.701 5.03762 -4.20191 0
M  V30 9963 H 931.618 4.72188 -5.90402 0
M  V30 9964 H 932.886 5.73427 -5.28017 0
M  V30 9965 N 937.115 1.49373 0.502552 0
M  V30 9966 C 938.343 1.62488 1.28084 0
M  V30 9967 C 938.758 0.295667 1.86471 0
M  V30 9968 O 938.115 -0.718664 1.67754 0
M  V30 9969 C 938.166 2.69249 2.4122 0
M  V30 9970 O 937.887 3.97014 1.85234 0
M  V30 9971 C 939.388 2.93054 3.32617 0
M  V30 9972 H 936.608 0.547068 0.388533 0
M  V30 9973 H 939.152 1.95394 0.603452 0
M  V30 9974 H 937.307 2.39125 3.04792 0
M  V30 9975 H 937.721 4.55809 2.59496 0
M  V30 9976 H 939.195 3.71493 4.08285 0
M  V30 9977 H 939.672 2.02911 3.89517 0
M  V30 9978 H 940.278 3.24589 2.74813 0
M  V30 9979 N 938.594 -0.753485 1.38421 0
M  V30 9980 C 939.842 -1.50962 1.34368 0
M  V30 9981 C 940.163 -1.94889 -0.0656895 0
M  V30 9982 O 939.433 -1.67652 -1.01339 0
M  V30 9983 H 938.013 -0.559967 0.494415 0
M  V30 9984 H 940.675 -0.895665 1.73101 0
M  V30 9985 H 939.771 -2.40048 1.99458 0
M  V30 9986 N 940.072 -1.23292 -0.981677 0
M  V30 9987 C 941.318 -1.06582 -1.72535 0
M  V30 9988 C 941.651 0.396538 -1.90108 0
M  V30 9989 O 940.926 1.29363 -1.45243 0
M  V30 9990 C 941.209 -1.7904 -3.12437 0
M  V30 9991 C 941.062 -3.32941 -3.02441 0
M  V30 9992 C 942.381 -1.55185 -4.11832 0
M  V30 9993 H 939.5 -0.388585 -0.626236 0
M  V30 9994 H 942.142 -1.51779 -1.14293 0
M  V30 9995 H 940.292 -1.40619 -3.62158 0
M  V30 9996 H 941.964 -3.80875 -2.60254 0
M  V30 9997 H 940.207 -3.62039 -2.38977 0
M  V30 9998 H 940.878 -3.78827 -4.0149 0
M  V30 9999 H 943.354 -1.88581 -3.70913 0
M  V30 10000 H 942.23 -2.08362 -5.07815 0
M  V30 10001 H 942.491 -0.486925 -4.3941 0
M  V30 10002 N 941.55 1.18024 -1.04442 0
M  V30 10003 C 942.775 1.92573 -0.770097 0
M  V30 10004 C 943.2 1.75871 0.667169 0
M  V30 10005 O 942.558 1.07136 1.46258 0
M  V30 10006 C 942.606 3.41904 -1.14602 0
M  V30 10007 O 941.71 4.11491 -0.273712 0
M  V30 10008 H 941.051 0.600636 -0.283076 0
M  V30 10009 H 943.581 1.49645 -1.39526 0
M  V30 10010 H 943.591 3.92623 -1.10956 0
M  V30 10011 H 942.266 3.53382 -2.19304 0
M  V30 10012 H 940.843 3.71059 -0.370124 0
M  V30 10013 N 943.028 0.824394 1.34319 0
M  V30 10014 C 944.277 0.40956 1.97498 0
M  V30 10015 C 944.59 -1.03323 1.66083 0
M  V30 10016 O 945.796 -1.55205 2.22764 0
M  V30 10017 C 944.252 0.681384 3.53391 0
M  V30 10018 C 943.86 2.1379 3.93698 0
M  V30 10019 C 945.604 0.332788 4.23194 0
M  V30 10020 C 943.511 2.35453 5.42509 0
M  V30 10021 H 942.441 0.149409 0.739049 0
M  V30 10022 H 945.092 1.01095 1.5314 0
M  V30 10023 H 943.474 0.00980375 3.95999 0
M  V30 10024 H 944.648 2.84876 3.62191 0
M  V30 10025 H 942.963 2.44807 3.36836 0
M  V30 10026 H 945.56 0.472463 5.32609 0
M  V30 10027 H 945.903 -0.722862 4.09976 0
M  V30 10028 H 946.436 0.959005 3.86067 0
M  V30 10029 H 943.175 3.39529 5.60714 0
M  V30 10030 H 942.695 1.68912 5.75525 0
M  V30 10031 H 944.374 2.17885 6.09209 0
M  V30 10032 N 944.506 -1.46559 0.579492 0
M  V30 10033 C 945.438 -2.28383 -0.19337 0
M  V30 10034 C 946.451 -1.38324 -0.858511 0
M  V30 10035 O 947.64 -1.62952 -0.728615 0
M  V30 10036 C 944.74 -3.13262 -1.29306 0
M  V30 10037 C 943.913 -4.31426 -0.720459 0
M  V30 10038 C 942.972 -4.97728 -1.70744 0
M  V30 10039 O 941.998 -5.55423 -1.24476 0
M  V30 10040 N 943.2 -4.94445 -3.04146 0
M  V30 10041 H 945.965 -2.95353 0.508611 0
M  V30 10042 H 943.526 -1.56436 0.417046 0
M  V30 10043 H 945.518 -3.54483 -1.95254 0
M  V30 10044 H 944.088 -2.48388 -1.89795 0
M  V30 10045 H 943.308 -3.94028 0.116398 0
M  V30 10046 H 944.596 -5.07808 -0.31763 0
M  V30 10047 H 943.994 -4.4881 -3.44363 0
M  V30 10048 H 942.551 -5.39616 -3.65592 0
M  V30 10049 N 945.984 -0.3171 -1.54377 0
M  V30 10050 C 947.23 0.287836 -2.00747 0
M  V30 10051 C 947.563 1.52292 -1.20502 0
M  V30 10052 O 946.838 1.92391 -0.285626 0
M  V30 10053 C 947.121 0.628423 -3.54574 0
M  V30 10054 C 946.974 -0.616922 -4.45549 0
M  V30 10055 C 948.293 1.44862 -4.15575 0
M  V30 10056 H 945.412 0.103144 -0.729747 0
M  V30 10057 H 948.054 -0.432396 -1.85014 0
M  V30 10058 H 946.204 1.24203 -3.68111 0
M  V30 10059 H 947.876 -1.25526 -4.43893 0
M  V30 10060 H 946.119 -1.24706 -4.15489 0
M  V30 10061 H 946.79 -0.334243 -5.50987 0
M  V30 10062 H 949.266 0.930015 -4.05574 0
M  V30 10063 H 948.142 1.6557 -5.23333 0
M  V30 10064 H 948.403 2.44279 -3.68484 0
M  V30 10065 N 947.462 1.57535 -0.0451378 0
M  V30 10066 C 948.425 2.1008 0.916461 0
M  V30 10067 C 949.425 1.01913 1.2438 0
M  V30 10068 O 950.615 1.2801 1.18148 0
M  V30 10069 C 947.747 2.58001 2.22818 0
M  V30 10070 H 948.94 2.96334 0.461076 0
M  V30 10071 H 946.493 1.54974 0.203169 0
M  V30 10072 H 947.228 1.75123 2.72951 0
M  V30 10073 H 947.013 3.3704 2.00366 0
M  V30 10074 H 948.503 2.98822 2.9171 0
M  V30 10075 N 948.94 -0.228186 1.55939 0
M  V30 10076 C 950.186 -0.954964 1.78909 0
M  V30 10077 C 950.519 -1.8425 0.613648 0
M  V30 10078 O 949.794 -1.90604 -0.38737 0
M  V30 10079 C 950.077 -1.79957 3.1191 0
M  V30 10080 C 949.93 -0.938968 4.3989 0
M  V30 10081 C 951.249 -2.77859 3.41295 0
M  V30 10082 H 948.368 -0.345745 0.650868 0
M  V30 10083 H 951.01 -0.224244 1.88672 0
M  V30 10084 H 949.16 -2.42256 3.03717 0
M  V30 10085 H 950.832 -0.333225 4.60095 0
M  V30 10086 H 949.075 -0.244096 4.33113 0
M  V30 10087 H 949.746 -1.56416 5.29375 0
M  V30 10088 H 952.222 -2.25695 3.49572 0
M  V30 10089 H 951.098 -3.34062 4.35538 0
M  V30 10090 H 951.359 -3.55266 2.63132 0
M  V30 10091 N 950.418 -1.49637 -0.494624 0
M  V30 10092 C 951.365 -1.66776 -1.59545 0
M  V30 10093 C 952.335 -0.509159 -1.58104 0
M  V30 10094 O 953.52 -0.736949 -1.75993 0
M  V30 10095 C 950.66 -1.74624 -2.97658 0
M  V30 10096 C 949.773 -3.01831 -3.09067 0
M  V30 10097 C 948.908 -3.00619 -4.37952 0
M  V30 10098 C 947.947 -4.22378 -4.43016 0
M  V30 10099 N 947.084 -4.1904 -5.63339 0
M  V30 10100 H 951.924 -2.60767 -1.44238 0
M  V30 10101 H 949.461 -1.29286 -0.701673 0
M  V30 10102 H 951.419 -1.77156 -3.77719 0
M  V30 10103 H 950.049 -0.840936 -3.11654 0
M  V30 10104 H 949.101 -3.08881 -2.22029 0
M  V30 10105 H 950.413 -3.91823 -3.08669 0
M  V30 10106 H 949.567 -3.01749 -5.26339 0
M  V30 10107 H 948.306 -2.08416 -4.40924 0
M  V30 10108 H 947.311 -4.21485 -3.5303 0
M  V30 10109 H 948.536 -5.15781 -4.41755 0
M  V30 10110 H 946.482 -3.29677 -5.67141 0
M  V30 10111 H 946.399 -5.02774 -5.64583 0
M  V30 10112 H 947.667 -4.24281 -6.53916 0
M  V30 10113 N 951.896 0.746133 -1.38819 0
M  V30 10114 C 952.829 1.86833 -1.31029 0
M  V30 10115 C 953.807 1.61533 -0.185948 0
M  V30 10116 O 954.991 1.84942 -0.364529 0
M  V30 10117 C 952.118 3.22596 -1.03198 0
M  V30 10118 C 951.164 3.66772 -2.17671 0
M  V30 10119 S 951.997 3.77438 -3.7987 0
M  V30 10120 C 953.153 5.16008 -3.54241 0
M  V30 10121 H 953.386 1.93155 -2.26005 0
M  V30 10122 H 950.919 0.909872 -1.24742 0
M  V30 10123 H 952.877 4.00995 -0.878237 0
M  V30 10124 H 951.538 3.13943 -0.0992704 0
M  V30 10125 H 950.731 4.65266 -1.93762 0
M  V30 10126 H 950.333 2.95547 -2.2919 0
M  V30 10127 H 952.625 6.01996 -3.10816 0
M  V30 10128 H 953.568 5.44941 -4.52156 0
M  V30 10129 H 953.976 4.85158 -2.88587 0
M  V30 10130 N 953.375 1.23811 0.975125 0
M  V30 10131 C 954.305 1.04846 2.08638 0
M  V30 10132 C 955.286 -0.0362859 1.70061 0
M  V30 10133 O 956.471 0.12937 1.93769 0
M  V30 10134 C 953.601 0.644534 3.41267 0
M  V30 10135 C 952.555 1.67722 3.93768 0
M  V30 10136 C 951.881 1.12857 5.22654 0
M  V30 10137 C 953.181 3.07147 4.22443 0
M  V30 10138 H 954.875 1.97795 2.24761 0
M  V30 10139 H 952.421 0.952397 1.08006 0
M  V30 10140 H 954.374 0.498887 4.18436 0
M  V30 10141 H 953.098 -0.320641 3.25022 0
M  V30 10142 H 951.757 1.81095 3.18748 0
M  V30 10143 H 951.405 0.154227 5.02764 0
M  V30 10144 H 951.105 1.81862 5.58749 0
M  V30 10145 H 952.629 0.994891 6.0244 0
M  V30 10146 H 954.043 2.97045 4.90344 0
M  V30 10147 H 952.44 3.73437 4.6975 0
M  V30 10148 H 953.51 3.55743 3.29507 0
M  V30 10149 N 954.853 -1.17469 1.05066 0
M  V30 10150 C 955.8 -2.21443 0.650512 0
M  V30 10151 C 956.77 -1.62441 -0.346702 0
M  V30 10152 O 957.955 -1.89305 -0.238404 0
M  V30 10153 C 955.095 -3.45087 0.0301014 0
M  V30 10154 C 954.208 -4.18385 1.07599 0
M  V30 10155 C 953.343 -5.29513 0.423038 0
M  V30 10156 C 952.382 -5.94596 1.45333 0
M  V30 10157 N 951.519 -6.97241 0.824623 0
M  V30 10158 H 956.359 -2.55025 1.54163 0
M  V30 10159 H 953.896 -1.25274 0.771032 0
M  V30 10160 H 955.854 -4.15754 -0.347032 0
M  V30 10161 H 954.484 -3.12093 -0.824481 0
M  V30 10162 H 953.536 -3.46446 1.57097 0
M  V30 10163 H 954.848 -4.62899 1.85813 0
M  V30 10164 H 954.002 -6.067 -0.00774975 0
M  V30 10165 H 952.741 -4.86129 -0.391092 0
M  V30 10166 H 951.746 -5.16142 1.89415 0
M  V30 10167 H 952.971 -6.40061 2.26934 0
M  V30 10168 H 950.917 -6.55993 0.0309804 0
M  V30 10169 H 950.834 -7.40059 1.54432 0
M  V30 10170 H 952.102 -7.78375 0.418567 0
M  V30 10171 N 956.331 -0.831506 -1.3388 0
M  V30 10172 C 957.241 -0.261688 -2.33136 0
M  V30 10173 C 958.257 0.608429 -1.63016 0
M  V30 10174 O 959.433 0.514297 -1.94723 0
M  V30 10175 C 956.498 0.559957 -3.42148 0
M  V30 10176 C 955.559 -0.333569 -4.28002 0
M  V30 10177 C 954.792 0.448956 -5.31808 0
M  V30 10178 O 955.015 1.6814 -5.45055 0
M  V30 10179 O 953.949 -0.173197 -6.01651 0
M  V30 10180 H 957.775 -1.08343 -2.83717 0
M  V30 10181 H 955.36 -0.593849 -1.3709 0
M  V30 10182 H 957.242 1.02712 -4.08691 0
M  V30 10183 H 955.917 1.35888 -2.93796 0
M  V30 10184 H 954.824 -0.848416 -3.64352 0
M  V30 10185 H 956.157 -1.09707 -4.79818 0
M  V30 10186 N 957.809 1.4625 -0.587256 0
M  V30 10187 C 958.756 2.30354 0.143384 0
M  V30 10188 C 959.726 1.40891 0.879716 0
M  V30 10189 O 960.911 1.69837 0.869486 0
M  V30 10190 C 958.051 3.25441 1.14815 0
M  V30 10191 C 957.164 4.30004 0.414792 0
M  V30 10192 C 956.299 5.12214 1.40748 0
M  V30 10193 C 955.338 6.08523 0.660786 0
M  V30 10194 N 954.475 6.83585 1.60176 0
M  V30 10195 H 959.315 2.92304 -0.579866 0
M  V30 10196 H 956.852 1.44055 -0.29777 0
M  V30 10197 H 958.81 3.79018 1.7436 0
M  V30 10198 H 957.44 2.6529 1.83906 0
M  V30 10199 H 956.492 3.79248 -0.295787 0
M  V30 10200 H 957.804 4.98515 -0.168738 0
M  V30 10201 H 956.958 5.70091 2.0756 0
M  V30 10202 H 955.697 4.43675 2.02494 0
M  V30 10203 H 954.702 5.49796 -0.0210864 0
M  V30 10204 H 955.927 6.79083 0.0486551 0
M  V30 10205 H 953.873 6.17752 2.20724 0
M  V30 10206 H 953.79 7.48373 1.07115 0
M  V30 10207 H 955.058 7.46016 2.26009 0
M  V30 10208 N 959.287 0.325282 1.54207 0
M  V30 10209 C 960.25 -0.527228 2.23054 0
M  V30 10210 C 961.25 -1.04217 1.22456 0
M  V30 10211 O 962.44 -0.934325 1.47024 0
M  V30 10212 C 959.572 -1.7325 2.93594 0
M  V30 10213 H 960.765 0.0746423 2.99807 0
M  V30 10214 H 958.318 0.0763872 1.56113 0
M  V30 10215 H 959.053 -2.37356 2.20981 0
M  V30 10216 H 958.838 -1.37065 3.67363 0
M  V30 10217 H 960.328 -2.3376 3.46043 0
M  V30 10218 N 960.765 -1.57509 0.0534917 0
M  V30 10219 C 962.042 -1.84137 -0.659767 0
M  V30 10220 C 962.422 -0.942362 -1.88899 0
M  V30 10221 O 961.77 -0.00398566 -2.285 0
M  V30 10222 C 961.98 -3.33919 -1.01486 0
M  V30 10223 C 963.328 -4.00989 -1.39616 0
M  V30 10224 O 964.352 -3.38557 -1.10713 0
M  V30 10225 O 963.211 -5.11071 -1.93567 0
M  V30 10226 H 960.305 -0.760081 -0.325893 0
M  V30 10227 H 962.851 -1.69497 0.0830315 0
M  V30 10228 H 961.623 -3.91046 -0.141041 0
M  V30 10229 H 961.246 -3.53755 -1.81503 0
M  V30 10230 N 962.243 0.219913 -1.56058 0
M  V30 10231 C 963.468 0.965073 -1.83579 0
M  V30 10232 C 963.893 1.77092 -0.634024 0
M  V30 10233 O 963.251 1.76434 0.417205 0
M  V30 10234 C 963.299 1.85705 -3.09105 0
M  V30 10235 O 962.403 2.95261 -2.87914 0
M  V30 10236 H 961.744 0.273173 -0.605204 0
M  V30 10237 H 964.274 0.23273 -2.03272 0
M  V30 10238 H 964.284 2.26655 -3.39252 0
M  V30 10239 H 962.959 1.26476 -3.96203 0
M  V30 10240 H 961.536 2.58246 -2.69005 0
M  V30 10241 N 963.721 1.49897 0.486681 0
M  V30 10242 C 964.946 1.64106 1.26823 0
M  V30 10243 C 965.371 0.317967 1.85393 0
M  V30 10244 O 964.729 -0.71626 1.66551 0
M  V30 10245 C 964.777 2.72301 2.36399 0
M  V30 10246 O 963.881 2.32469 3.40634 0
M  V30 10247 H 963.222 0.548794 0.373793 0
M  V30 10248 H 965.752 1.96177 0.581017 0
M  V30 10249 H 965.762 2.94906 2.81948 0
M  V30 10250 H 964.437 3.68335 1.93137 0
M  V30 10251 H 963.014 2.20251 3.00905 0
M  V30 10252 N 965.199 -0.738761 1.39212 0
M  V30 10253 C 966.109 -1.88324 1.39897 0
M  V30 10254 C 967.125 -1.71494 0.294229 0
M  V30 10255 O 968.301 -1.94162 0.535087 0
M  V30 10256 C 965.366 -3.23871 1.23726 0
M  V30 10257 C 964.427 -3.53121 2.44139 0
M  V30 10258 C 963.66 -4.82202 2.2873 0
M  V30 10259 O 963.883 -5.55649 1.28879 0
M  V30 10260 O 962.817 -5.11265 3.17634 0
M  V30 10261 H 966.643 -1.90701 2.36362 0
M  V30 10262 H 964.228 -0.886067 1.20288 0
M  V30 10263 H 966.11 -4.04882 1.16826 0
M  V30 10264 H 964.785 -3.22274 0.303551 0
M  V30 10265 H 963.692 -2.72212 2.56615 0
M  V30 10266 H 965.025 -3.59495 3.36191 0
M  V30 10267 N 966.677 -1.24326 -0.968545 0
M  V30 10268 C 968.093 -1.00847 -1.23701 0
M  V30 10269 C 968.293 0.283235 -1.99499 0
M  V30 10270 O 967.349 0.999607 -2.31871 0
M  V30 10271 C 968.662 -2.22295 -2.02498 0
M  V30 10272 C 970.21 -2.26911 -2.15593 0
M  V30 10273 C 970.685 -3.47978 -2.97784 0
M  V30 10274 N 972.176 -3.48289 -3.05367 0
M  V30 10275 C 972.911 -4.38625 -3.69318 0
M  V30 10276 N 972.407 -5.39213 -4.34995 0
M  V30 10277 N 974.2 -4.26339 -3.66322 0
M  V30 10278 H 966.351 -2.07335 -0.461087 0
M  V30 10279 H 968.614 -0.909805 -0.26638 0
M  V30 10280 H 968.32 -3.161 -1.54188 0
M  V30 10281 H 968.194 -2.24344 -3.03232 0
M  V30 10282 H 970.581 -1.33639 -2.63106 0
M  V30 10283 H 970.662 -2.28888 -1.14209 0
M  V30 10284 H 970.306 -4.41564 -2.50965 0
M  V30 10285 H 970.236 -3.43244 -3.99364 0
M  V30 10286 H 972.727 -2.75517 -2.58648 0
M  V30 10287 H 973.04 -6.04378 -4.81608 0
M  V30 10288 H 971.385 -5.43101 -4.33667 0
M  V30 10289 H 974.576 -3.46991 -3.14189 0
M  V30 10290 H 974.749 -4.9694 -4.15878 0
M  V30 10291 N 968.156 1.1691 -1.05688 0
M  V30 10292 C 969.066 2.24735 -0.67315 0
M  V30 10293 C 970.082 1.71252 0.308043 0
M  V30 10294 O 971.258 2.00772 0.158889 0
M  V30 10295 C 968.323 3.4665 -0.059026 0
M  V30 10296 C 967.384 4.15198 -1.0913 0
M  V30 10297 C 966.617 5.31292 -0.50639 0
M  V30 10298 O 966.84 5.663 0.682692 0
M  V30 10299 O 965.774 5.88923 -1.2431 0
M  V30 10300 H 969.6 2.59855 -1.57191 0
M  V30 10301 H 967.185 1.24306 -0.828751 0
M  V30 10302 H 969.067 4.20455 0.282018 0
M  V30 10303 H 967.742 3.13316 0.813304 0
M  V30 10304 H 966.649 3.43389 -1.48442 0
M  V30 10305 H 967.982 4.52571 -1.93495 0
M  V30 10306 N 969.634 0.838594 1.33437 0
M  V30 10307 C 970.597 0.276843 2.27522 0
M  V30 10308 C 971.597 -0.554275 1.50945 0
M  V30 10309 O 972.787 -0.368107 1.70266 0
M  V30 10310 C 969.919 -0.610036 3.35397 0
M  V30 10311 H 971.112 1.10705 2.78719 0
M  V30 10312 H 968.665 0.611657 1.43835 0
M  V30 10313 H 969.4 -1.46269 2.89441 0
M  V30 10314 H 969.185 -0.0153615 3.92097 0
M  V30 10315 H 970.675 -0.996368 4.05539 0
M  V30 10316 N 971.112 -1.45937 0.595003 0
M  V30 10317 C 972.042 -2.33198 -0.11871 0
M  V30 10318 C 973.023 -1.46083 -0.871423 0
M  V30 10319 O 974.208 -1.74879 -0.844461 0
M  V30 10320 C 971.338 -3.28576 -1.12495 0
M  V30 10321 C 970.292 -4.25229 -0.486275 0
M  V30 10322 C 969.618 -5.10204 -1.59986 0
M  V30 10323 C 970.918 -5.19019 0.584473 0
M  V30 10324 H 972.612 -2.93122 0.609886 0
M  V30 10325 H 970.158 -1.40951 0.294742 0
M  V30 10326 H 972.111 -3.88485 -1.6327 0
M  V30 10327 H 970.835 -2.66784 -1.88398 0
M  V30 10328 H 969.494 -3.666 0.000507962 0
M  V30 10329 H 969.142 -4.44789 -2.34886 0
M  V30 10330 H 968.842 -5.75669 -1.1781 0
M  V30 10331 H 970.366 -5.7298 -2.11014 0
M  V30 10332 H 971.78 -5.73073 0.161297 0
M  V30 10333 H 970.177 -5.92893 0.927256 0
M  V30 10334 H 971.247 -4.62208 1.46601 0
M  V30 10335 N 972.59 -0.333456 -1.54032 0
M  V30 10336 C 973.523 0.570776 -2.20947 0
M  V30 10337 C 974.501 1.10811 -1.18994 0
M  V30 10338 O 975.685 1.17027 -1.47773 0
M  V30 10339 C 972.812 1.7842 -2.87896 0
M  V30 10340 C 971.858 1.37722 -4.03652 0
M  V30 10341 S 972.691 0.405548 -5.33962 0
M  V30 10342 C 973.847 1.62603 -6.0441 0
M  V30 10343 H 974.08 0.0023936 -2.973 0
M  V30 10344 H 971.613 -0.117531 -1.53952 0
M  V30 10345 H 973.571 2.48038 -3.27089 0
M  V30 10346 H 972.232 2.32378 -2.11327 0
M  V30 10347 H 971.425 2.28167 -4.49395 0
M  V30 10348 H 971.027 0.760628 -3.66184 0
M  V30 10349 H 973.319 2.56202 -6.2719 0
M  V30 10350 H 974.262 1.21058 -6.97675 0
M  V30 10351 H 974.67 1.8175 -5.34441 0
M  V30 10352 N 974.068 1.57479 -0.061844 0
M  V30 10353 C 975.293 1.97843 0.622311 0
M  V30 10354 C 975.718 0.939602 1.62951 0
M  V30 10355 O 975.076 -0.095958 1.81046 0
M  V30 10356 C 975.124 3.37262 1.2762 0
M  V30 10357 O 974.228 3.35943 2.39199 0
M  V30 10358 H 973.569 0.644212 0.160896 0
M  V30 10359 H 976.099 2.04165 -0.133409 0
M  V30 10360 H 976.109 3.74226 1.62539 0
M  V30 10361 H 974.784 4.12404 0.538112 0
M  V30 10362 H 973.361 3.10737 2.06148 0
M  V30 10363 N 975.546 -0.211634 1.56173 0
M  V30 10364 C 976.456 -1.2831 1.96402 0
M  V30 10365 C 977.472 -1.50731 0.869254 0
M  V30 10366 O 978.648 -1.63669 1.17365 0
M  V30 10367 C 975.713 -2.61084 2.28114 0
M  V30 10368 C 974.774 -2.46879 3.51211 0
M  V30 10369 C 974.007 -3.73321 3.81401 0
M  V30 10370 O 974.23 -4.76773 3.13119 0
M  V30 10371 O 973.164 -3.69839 4.74871 0
M  V30 10372 H 976.99 -0.971733 2.87734 0
M  V30 10373 H 974.575 -0.415305 1.43512 0
M  V30 10374 H 976.457 -3.39481 2.49661 0
M  V30 10375 H 975.132 -2.91881 1.39954 0
M  V30 10376 H 974.039 -1.66648 3.34932 0
M  V30 10377 H 975.372 -2.21018 4.39786 0
M  V30 10378 N 977.024 -1.50153 -0.478725 0
M  V30 10379 C 977.954 -1.71384 -1.58587 0
M  V30 10380 C 978.935 -0.562705 -1.60523 0
M  V30 10381 O 980.12 -0.80101 -1.76911 0
M  V30 10382 C 977.25 -1.80094 -2.96957 0
M  V30 10383 C 976.204 -2.95218 -3.09888 0
M  V30 10384 C 975.53 -2.89063 -4.49829 0
M  V30 10385 C 976.83 -4.35841 -2.8782 0
M  V30 10386 H 978.524 -2.64081 -1.41073 0
M  V30 10387 H 976.07 -1.27081 -0.677239 0
M  V30 10388 H 978.023 -1.93531 -3.74331 0
M  V30 10389 H 976.747 -0.840131 -3.1561 0
M  V30 10390 H 975.406 -2.81419 -2.34944 0
M  V30 10391 H 975.054 -1.90844 -4.6539 0
M  V30 10392 H 974.754 -3.66345 -4.59418 0
M  V30 10393 H 976.278 -3.04539 -5.29234 0
M  V30 10394 H 977.692 -4.50205 -3.54948 0
M  V30 10395 H 976.089 -5.14515 -3.0886 0
M  V30 10396 H 977.159 -4.48739 -1.83742 0
M  V30 10397 N 978.502 0.731368 -1.39602 0
M  V30 10398 C 979.449 1.84541 -1.38612 0
M  V30 10399 C 980.419 1.64279 -0.245287 0
M  V30 10400 O 981.604 1.85635 -0.440954 0
M  V30 10401 C 978.744 3.22092 -1.23897 0
M  V30 10402 C 977.857 3.54034 -2.47555 0
M  V30 10403 C 976.992 4.81007 -2.25402 0
M  V30 10404 C 976.031 5.05804 -3.44716 0
M  V30 10405 N 975.168 6.23981 -3.21857 0
M  V30 10406 H 980.008 1.84722 -2.33841 0
M  V30 10407 H 977.545 0.902569 -1.16156 0
M  V30 10408 H 979.503 4.01499 -1.13376 0
M  V30 10409 H 978.133 3.2118 -0.322958 0
M  V30 10410 H 977.185 2.69301 -2.68665 0
M  V30 10411 H 978.497 3.68275 -3.36415 0
M  V30 10412 H 977.651 5.68401 -2.12143 0
M  V30 10413 H 976.39 4.68946 -1.33943 0
M  V30 10414 H 975.395 4.1687 -3.58468 0
M  V30 10415 H 976.62 5.19747 -4.37081 0
M  V30 10416 H 974.566 6.13202 -2.33065 0
M  V30 10417 H 974.483 6.38826 -4.04274 0
M  V30 10418 H 975.751 7.14205 -3.123 0
M  V30 10419 N 979.98 1.24838 0.961938 0
M  V30 10420 C 980.913 0.989041 2.05653 0
M  V30 10421 C 981.891 -0.079199 1.62407 0
M  V30 10422 O 983.075 0.0589397 1.88408 0
M  V30 10423 C 980.202 0.493661 3.35083 0
M  V30 10424 C 979.248 1.55132 3.97286 0
M  V30 10425 S 980.081 3.13438 4.34185 0
M  V30 10426 C 981.237 2.65617 5.66744 0
M  V30 10427 H 981.47 1.91588 2.27335 0
M  V30 10428 H 979.003 1.08287 1.10061 0
M  V30 10429 H 980.961 0.214482 4.09939 0
M  V30 10430 H 979.622 -0.412559 3.11379 0
M  V30 10431 H 978.815 1.15525 4.90581 0
M  V30 10432 H 978.417 1.78081 3.28882 0
M  V30 10433 H 980.709 2.08788 6.44526 0
M  V30 10434 H 981.652 3.57524 6.11214 0
M  V30 10435 H 982.06 2.05853 5.25628 0
M  V30 10436 N 981.458 -1.16348 1.06306 0
M  V30 10437 C 982.391 -2.19667 0.618197 0
M  V30 10438 C 983.369 -1.58586 -0.359078 0
M  V30 10439 O 984.553 -1.86585 -0.268023 0
M  V30 10440 C 981.68 -3.3857 -0.0937091 0
M  V30 10441 C 980.726 -4.18139 0.840339 0
M  V30 10442 S 981.559 -4.81879 2.33565 0
M  V30 10443 C 982.715 -6.04161 1.63524 0
M  V30 10444 H 982.948 -2.57063 1.49352 0
M  V30 10445 H 980.481 -1.27141 0.876046 0
M  V30 10446 H 982.439 -4.07465 -0.498227 0
M  V30 10447 H 981.1 -2.9954 -0.94523 0
M  V30 10448 H 980.293 -5.03172 0.288781 0
M  V30 10449 H 979.895 -3.54739 1.18474 0
M  V30 10450 H 982.187 -6.70935 0.940904 0
M  V30 10451 H 983.13 -6.63866 2.46347 0
M  V30 10452 H 983.538 -5.53323 1.11778 0
M  V30 10453 N 982.937 -0.845659 -1.3299 0
M  V30 10454 C 984.165 -0.45835 -2.01759 0
M  V30 10455 C 984.58 0.94239 -1.63598 0
M  V30 10456 O 983.937 1.61353 -0.852738 0
M  V30 10457 C 983.988 -0.577311 -3.5686 0
M  V30 10458 O 983.709 -1.92287 -3.93646 0
M  V30 10459 C 985.21 -0.187839 -4.42902 0
M  V30 10460 H 982.43 -0.181165 -0.646081 0
M  V30 10461 H 984.974 -1.14011 -1.6977 0
M  V30 10462 H 983.129 0.0566146 -3.87359 0
M  V30 10463 H 983.543 -1.91322 -4.88361 0
M  V30 10464 H 985.017 -0.322105 -5.51059 0
M  V30 10465 H 985.494 0.870896 -4.30479 0
M  V30 10466 H 986.1 -0.796473 -4.17776 0
M  V30 10467 N 984.415 1.45619 -0.602734 0
M  V30 10468 C 985.347 2.28662 0.157012 0
M  V30 10469 C 986.36 1.39672 0.836396 0
M  V30 10470 O 987.549 1.64091 0.702599 0
M  V30 10471 C 984.649 3.1528 1.24306 0
M  V30 10472 C 983.822 4.32517 0.651731 0
M  V30 10473 C 982.881 5.00381 1.62804 0
M  V30 10474 O 981.907 5.57333 1.15624 0
M  V30 10475 N 983.109 4.99221 2.96241 0
M  V30 10476 H 985.874 2.94506 -0.555535 0
M  V30 10477 H 983.435 1.55753 -0.441881 0
M  V30 10478 H 985.427 3.57544 1.8959 0
M  V30 10479 H 983.997 2.51376 1.85819 0
M  V30 10480 H 983.217 3.93793 -0.17907 0
M  V30 10481 H 984.505 5.08249 0.236802 0
M  V30 10482 H 983.903 4.54232 3.37179 0
M  V30 10483 H 982.46 5.45364 3.56961 0
M  V30 10484 N 985.893 0.34162 1.53853 0
M  V30 10485 C 986.823 -0.508431 2.27897 0
M  V30 10486 C 987.804 -1.10425 1.29384 0
M  V30 10487 O 988.989 -1.126 1.58224 0
M  V30 10488 C 986.119 -1.66048 3.05034 0
M  V30 10489 C 985.073 -1.19309 4.11035 0
M  V30 10490 C 984.399 -2.4335 4.76114 0
M  V30 10491 C 985.699 -0.294952 5.21467 0
M  V30 10492 H 987.393 0.109251 2.99201 0
M  V30 10493 H 984.939 0.0539847 1.43899 0
M  V30 10494 H 986.892 -2.26158 3.5557 0
M  V30 10495 H 985.616 -2.30503 2.31379 0
M  V30 10496 H 984.275 -0.614809 3.61408 0
M  V30 10497 H 983.923 -3.06208 3.99056 0
M  V30 10498 H 983.623 -2.1276 5.47729 0
M  V30 10499 H 985.147 -3.0419 5.29434 0
M  V30 10500 H 986.561 -0.80285 5.67651 0
M  V30 10501 H 984.958 -0.0810221 6.00045 0
M  V30 10502 H 986.028 0.669433 4.80257 0
M  V30 10503 N 987.371 -1.57444 0.0701946 0
M  V30 10504 C 988.619 -1.93047 -0.598106 0
M  V30 10505 C 988.94 -0.950841 -1.70247 0
M  V30 10506 O 988.21 0.00127177 -1.959 0
M  V30 10507 H 986.79 -0.712648 -0.223924 0
M  V30 10508 H 989.452 -1.94481 0.127674 0
M  V30 10509 H 988.548 -2.94807 -1.02445 0
M  V30 10510 N 988.849 0.203349 -1.56283 0
M  V30 10511 C 990.074 0.945548 -1.84592 0
M  V30 10512 C 990.499 1.7641 -0.652772 0
M  V30 10513 O 989.857 1.76867 0.398468 0
M  V30 10514 C 989.905 1.82416 -3.11057 0
M  V30 10515 O 989.009 2.92191 -2.9103 0
M  V30 10516 H 988.35 0.266739 -0.608068 0
M  V30 10517 H 990.88 0.211158 -2.03507 0
M  V30 10518 H 990.89 2.23044 -3.41636 0
M  V30 10519 H 989.565 1.22267 -3.97522 0
M  V30 10520 H 988.142 2.55378 -2.71728 0
M  V30 10521 N 990.327 1.50405 0.470755 0
M  V30 10522 C 991.277 1.65681 1.56633 0
M  V30 10523 C 992.261 0.511424 1.52556 0
M  V30 10524 O 993.453 0.765844 1.59574 0
M  V30 10525 C 990.582 1.7546 2.95074 0
M  V30 10526 C 989.668 2.95676 3.04034 0
M  V30 10527 N 990.059 4.1935 2.82807 0
M  V30 10528 C 988.357 2.94241 3.35169 0
M  V30 10529 C 989.058 5.0032 2.96741 0
M  V30 10530 N 988.034 4.34282 3.26956 0
M  V30 10531 H 991.836 2.58994 1.38922 0
M  V30 10532 H 989.35 1.47593 0.67749 0
M  V30 10533 H 991.347 1.84508 3.73848 0
M  V30 10534 H 990.007 0.833057 3.13832 0
M  V30 10535 H 991.018 4.48842 2.58382 0
M  V30 10536 H 987.695 2.11587 3.59913 0
M  V30 10537 H 989.085 6.08664 2.84566 0
M  V30 10538 N 991.805 -0.723954 1.39988 0
M  V30 10539 C 992.715 -1.86829 1.41887 0
M  V30 10540 C 993.731 -1.71173 0.312401 0
M  V30 10541 O 994.907 -1.93583 0.555651 0
M  V30 10542 C 991.972 -3.22541 1.27154 0
M  V30 10543 C 991.033 -3.50512 2.47871 0
M  V30 10544 C 990.266 -4.79749 2.33831 0
M  V30 10545 O 990.489 -5.54251 1.34765 0
M  V30 10546 O 989.423 -5.07868 3.23039 0
M  V30 10547 H 993.249 -1.88183 2.38371 0
M  V30 10548 H 990.834 -0.873259 1.21221 0
M  V30 10549 H 992.716 -4.0362 1.21114 0
M  V30 10550 H 991.391 -3.21933 0.337715 0
M  V30 10551 H 990.298 -2.69475 2.59488 0
M  V30 10552 H 991.631 -3.55909 3.39985 0
M  V30 10553 N 993.283 -1.25346 -0.955304 0
M  V30 10554 C 994.231 -1.05461 -2.07318 0
M  V30 10555 C 995.225 0.0142699 -1.69394 0
M  V30 10556 O 996.431 -0.141292 -1.79445 0
M  V30 10557 H 992.806 -0.324095 -0.678577 0
M  V30 10558 H 994.777 -2.00231 -2.21247 0
M  V30 10559 C 993.526 -0.689329 -3.40798 0
M  V30 10560 H 992.849 -1.50362 -3.70447 0
M  V30 10561 H 994.289 -0.589883 -4.19877 0
M  V30 10562 C 992.748 0.604556 -3.31431 0
M  V30 10563 O 993.278 1.64686 -3.6639 0
M  V30 10564 N 991.484 0.589927 -2.84549 0
M  V30 10565 H 991.031 -0.258647 -2.56298 0
M  V30 10566 H 990.989 1.4558 -2.78664 0
M  V30 10567 N 994.761 1.15782 -1.06922 0
M  V30 10568 C 996.01 1.85807 -0.784774 0
M  V30 10569 C 996.323 1.82967 0.691551 0
M  V30 10570 O 997.529 2.48632 1.0906 0
M  V30 10571 C 995.985 3.33469 -1.35375 0
M  V30 10572 C 995.593 3.44766 -2.86077 0
M  V30 10573 C 997.337 4.08707 -1.14713 0
M  V30 10574 C 995.244 4.86551 -3.36187 0
M  V30 10575 H 994.174 0.696046 -0.28989 0
M  V30 10576 H 996.825 1.30629 -1.28873 0
M  V30 10577 H 995.207 3.88292 -0.77754 0
M  V30 10578 H 996.381 3.00073 -3.49704 0
M  V30 10579 H 994.696 2.82969 -3.05479 0
M  V30 10580 H 997.293 5.13336 -1.49633 0
M  V30 10581 H 997.636 4.16211 -0.0858868 0
M  V30 10582 H 998.169 3.60142 -1.68946 0
M  V30 10583 H 994.908 4.84229 -4.41818 0
M  V30 10584 H 994.428 5.31844 -2.77312 0
M  V30 10585 H 996.107 5.55392 -3.31887 0
M  V30 10586 N 996.239 0.8527 1.3254 0
M  V30 10587 C 997.485 0.455798 1.97612 0
M  V30 10588 C 997.818 -0.985616 1.6733 0
M  V30 10589 O 997.093 -1.69129 0.960493 0
M  V30 10590 C 997.376 0.69312 3.53366 0
M  V30 10591 C 997.229 2.18281 3.93285 0
M  V30 10592 C 998.548 0.148236 4.3985 0
M  V30 10593 H 995.667 0.167078 0.717812 0
M  V30 10594 H 998.309 1.07076 1.56954 0
M  V30 10595 H 996.459 0.169677 3.88129 0
M  V30 10596 H 998.131 2.77218 3.68711 0
M  V30 10597 H 996.374 2.66206 3.42515 0
M  V30 10598 H 997.045 2.29957 5.01821 0
M  V30 10599 H 999.521 0.595834 4.11812 0
M  V30 10600 H 998.397 0.343873 5.47822 0
M  V30 10601 H 998.658 -0.948872 4.31797 0
M  V30 10602 N 997.718 -1.45297 0.610449 0
M  V30 10603 C 998.666 -2.32295 -0.119167 0
M  V30 10604 C 999.66 -1.46138 -0.856746 0
M  V30 10605 O 1000.87 -1.62605 -0.771988 0
M  V30 10606 H 997.241 -0.749815 -0.0572881 0
M  V30 10607 H 999.212 -2.91609 0.63297 0
M  V30 10608 C 997.961 -3.29802 -1.10119 0
M  V30 10609 H 997.284 -3.96095 -0.543063 0
M  V30 10610 H 998.724 -3.93398 -1.58158 0
M  V30 10611 C 997.183 -2.57185 -2.17617 0
M  V30 10612 O 997.713 -2.35535 -3.25401 0
M  V30 10613 N 995.919 -2.17272 -1.9298 0
M  V30 10614 H 995.466 -2.3508 -1.05334 0
M  V30 10615 H 995.424 -1.69009 -2.6511 0
M  V30 10616 N 999.196 -0.349774 -1.5367 0
M  V30 10617 C 1000.13 0.496338 -2.28164 0
M  V30 10618 C 1001.11 1.09737 -1.29968 0
M  V30 10619 O 1002.29 1.11759 -1.58819 0
M  V30 10620 C 999.422 1.64428 -3.0591 0
M  V30 10621 C 998.376 1.17127 -4.11661 0
M  V30 10622 C 997.702 2.40822 -4.77398 0
M  V30 10623 C 999.002 0.267293 -5.21616 0
M  V30 10624 H 1000.7 -0.125117 -2.99138 0
M  V30 10625 H 998.242 -0.0616152 -1.43868 0
M  V30 10626 H 1000.19 2.2427 -3.56765 0
M  V30 10627 H 998.919 2.29272 -2.32598 0
M  V30 10628 H 997.578 0.595634 -3.61729 0
M  V30 10629 H 997.226 3.04088 -4.00674 0
M  V30 10630 H 996.926 2.09852 -5.48849 0
M  V30 10631 H 998.45 3.01378 -5.3104 0
M  V30 10632 H 999.864 0.772734 -5.68068 0
M  V30 10633 H 998.261 0.0491991 -6.0008 0
M  V30 10634 H 999.331 -0.694892 -4.79895 0
M  V30 10635 N 1000.67 1.57404 -0.0785433 0
M  V30 10636 C 1001.6 2.16131 0.883726 0
M  V30 10637 C 1002.58 1.09015 1.30575 0
M  V30 10638 O 1003.77 1.3708 1.37559 0
M  V30 10639 C 1000.9 2.72836 2.1489 0
M  V30 10640 C 999.854 3.85178 1.86605 0
M  V30 10641 C 999.18 4.28516 3.1981 0
M  V30 10642 C 1000.48 5.09118 1.16601 0
M  V30 10643 H 1002.17 2.9679 0.394484 0
M  V30 10644 H 999.72 1.42763 0.188304 0
M  V30 10645 H 1001.67 3.12567 2.8263 0
M  V30 10646 H 1000.4 1.89408 2.66068 0
M  V30 10647 H 999.056 3.45962 1.21268 0
M  V30 10648 H 998.704 3.42 3.68843 0
M  V30 10649 H 998.404 5.04249 3.01674 0
M  V30 10650 H 999.928 4.70868 3.88737 0
M  V30 10651 H 1001.34 5.46123 1.74422 0
M  V30 10652 H 999.739 5.90173 1.087 0
M  V30 10653 H 1000.81 4.8468 0.146138 0
M  V30 10654 N 1002.15 -0.195058 1.56388 0
M  V30 10655 C 1003.4 -0.913636 1.8027 0
M  V30 10656 C 1003.72 -1.83791 0.651606 0
M  V30 10657 O 1002.99 -1.931 -0.330057 0
M  V30 10658 H 1001.57 -0.34036 0.664954 0
M  V30 10659 H 1004.23 -0.200559 1.93865 0
M  V30 10660 H 1003.33 -1.50473 2.7343 0
M  V30 10661 N 1003.63 -1.50653 -0.462772 0
M  V30 10662 C 1004.59 -1.69561 -1.54213 0
M  V30 10663 C 1005.59 -0.566106 -1.50505 0
M  V30 10664 O 1006.78 -0.833273 -1.52978 0
M  V30 10665 C 1003.91 -1.72856 -2.93826 0
M  V30 10666 H 1005.11 -2.65867 -1.38761 0
M  V30 10667 H 1002.66 -1.40259 -0.689728 0
M  V30 10668 H 1003.4 -0.78273 -3.14712 0
M  V30 10669 H 1003.18 -2.54919 -2.97924 0
M  V30 10670 H 1004.67 -1.89411 -3.72174 0
M  V30 10671 N 1005.11 0.71652 -1.4037 0
M  V30 10672 C 1006.35 1.48883 -1.40047 0
M  V30 10673 C 1006.71 1.92 -0.00158027 0
M  V30 10674 O 1007.91 2.68501 0.126765 0
M  V30 10675 C 1006.18 2.68265 -2.36154 0
M  V30 10676 S 1007.74 3.57684 -2.5418 0
M  V30 10677 H 1004.56 0.509035 -0.496391 0
M  V30 10678 H 1007.16 0.837967 -1.76631 0
M  V30 10679 H 1005.87 2.34759 -3.36625 0
M  V30 10680 H 1005.4 3.38264 -2.0085 0
M  V30 10681 H 1007.41 4.62653 -1.79352 0
M  V30 10682 N 1006.59 1.25851 0.948643 0
M  V30 10683 C 1007.81 1.13711 1.72851 0
M  V30 10684 C 1008.23 -0.308471 1.86263 0
M  V30 10685 O 1007.59 -1.21175 1.36465 0
M  V30 10686 C 1007.64 1.79271 3.13918 0
M  V30 10687 O 1007.36 3.18179 3.01154 0
M  V30 10688 C 1008.86 1.72988 4.08154 0
M  V30 10689 H 1006.08 0.396334 0.541443 0
M  V30 10690 H 1008.62 1.66329 1.18974 0
M  V30 10691 H 1006.78 1.30609 3.64719 0
M  V30 10692 H 1007.19 3.50507 3.90186 0
M  V30 10693 H 1008.67 2.2351 5.04725 0
M  V30 10694 H 1009.14 0.694866 4.33668 0
M  V30 10695 H 1009.75 2.21166 3.63271 0
M  V30 10696 N 1008.06 -1.15214 1.07534 0
M  V30 10697 C 1008.99 -2.2216 0.718837 0
M  V30 10698 C 1009.98 -1.6753 -0.29459 0
M  V30 10699 O 1011.16 -1.93481 -0.166931 0
M  V30 10700 C 1008.29 -3.471 0.117836 0
M  V30 10701 C 1007.24 -4.14701 1.05862 0
M  V30 10702 C 1006.57 -5.3374 0.320284 0
M  V30 10703 C 1007.87 -4.64254 2.39302 0
M  V30 10704 H 1009.56 -2.52237 1.61297 0
M  V30 10705 H 1007.11 -1.21239 0.776992 0
M  V30 10706 H 1009.06 -4.21156 -0.143519 0
M  V30 10707 H 1007.79 -3.16361 -0.811389 0
M  V30 10708 H 1006.45 -3.42589 1.30493 0
M  V30 10709 H 1006.09 -4.99257 -0.61246 0
M  V30 10710 H 1005.79 -5.79912 0.947381 0
M  V30 10711 H 1007.32 -6.10563 0.0667721 0
M  V30 10712 H 1008.73 -5.29827 2.18988 0
M  V30 10713 H 1007.13 -5.21095 2.97623 0
M  V30 10714 H 1008.2 -3.79793 3.01472 0
M  V30 10715 N 1009.54 -0.859717 -1.32086 0
M  V30 10716 C 1010.77 -0.478865 -2.01796 0
M  V30 10717 C 1011.19 0.918274 -1.64163 0
M  V30 10718 O 1010.55 1.60409 -0.844896 0
M  V30 10719 C 1010.6 -0.631356 -3.5503 0
M  V30 10720 O 1009.7 0.333712 -4.11048 0
M  V30 10721 H 1009.04 -0.191775 -0.635703 0
M  V30 10722 H 1011.57 -1.16031 -1.68517 0
M  V30 10723 H 1011.58 -0.520783 -4.04663 0
M  V30 10724 H 1010.26 -1.65015 -3.81763 0
M  V30 10725 H 1008.84 0.178953 -3.7247 0
M  V30 10726 N 1011.02 1.44971 -0.618145 0
M  V30 10727 C 1012.27 2.0176 -0.11725 0
M  V30 10728 C 1012.59 1.48773 1.26062 0
M  V30 10729 O 1011.86 0.686152 1.83491 0
M  V30 10730 H 1010.44 0.745909 -0.0403545 0
M  V30 10731 H 1013.1 1.77638 -0.801923 0
M  V30 10732 H 1012.2 3.1201 -0.0750477 0
M  V30 10733 N 1012.5 0.357919 1.53482 0
M  V30 10734 C 1013.91 -0.122938 1.86295 0
M  V30 10735 C 1014.26 -1.48803 1.27875 0
M  V30 10736 O 1013.39 -2.07978 0.597828 0
M  V30 10737 C 1013.98 -0.229853 3.38019 0
M  V30 10738 C 1012.54 -0.654955 3.70658 0
M  V30 10739 C 1011.69 0.202539 2.76559 0
M  V30 10740 H 1014.64 0.576997 1.47839 0
M  V30 10741 H 1014.66 -1.05481 3.65587 0
M  V30 10742 H 1014.17 0.763825 3.80509 0
M  V30 10743 H 1012.27 -1.65714 3.33721 0
M  V30 10744 H 1012.38 -0.43488 4.77122 0
M  V30 10745 H 1010.75 -0.327388 2.52587 0
M  V30 10746 H 1011.53 1.19361 3.21882 0
M  V30 10747 N 1013.98 -1.5736 0.0868897 0
M  V30 10748 C 1015.23 -1.93229 -0.578387 0
M  V30 10749 C 1015.54 -0.970127 -1.69847 0
M  V30 10750 O 1016.74 -1.22222 -2.42434 0
M  V30 10751 C 1015.2 -3.43307 -1.0802 0
M  V30 10752 C 1014.81 -4.47999 0.00968135 0
M  V30 10753 C 1016.55 -3.88151 -1.71868 0
M  V30 10754 C 1014.46 -5.89223 -0.507029 0
M  V30 10755 H 1013.39 -0.721245 -0.219823 0
M  V30 10756 H 1016.04 -1.82787 0.161566 0
M  V30 10757 H 1014.42 -3.48873 -1.87359 0
M  V30 10758 H 1015.6 -4.54067 0.784865 0
M  V30 10759 H 1013.91 -4.12714 0.552845 0
M  V30 10760 H 1016.51 -4.91056 -2.11585 0
M  V30 10761 H 1016.85 -3.26347 -2.58464 0
M  V30 10762 H 1017.38 -3.85252 -0.991259 0
M  V30 10763 H 1014.12 -6.54708 0.322121 0
M  V30 10764 H 1013.64 -5.86643 -1.2494 0
M  V30 10765 H 1015.32 -6.39556 -0.978628 0
M  V30 10766 N 1015.45 0.186762 -1.56489 0
M  V30 10767 C 1016.68 0.920495 -1.84961 0
M  V30 10768 C 1017.09 1.77004 -0.668297 0
M  V30 10769 O 1016.44 1.79891 0.37213 0
M  V30 10770 C 1016.5 1.85997 -3.07645 0
M  V30 10771 C 1016.16 1.19156 -4.41193 0
M  V30 10772 C 1017.16 0.564446 -5.16827 0
M  V30 10773 C 1014.84 1.19292 -4.87929 0
M  V30 10774 C 1016.84 -0.0523768 -6.37378 0
M  V30 10775 C 1014.52 0.572266 -6.08415 0
M  V30 10776 C 1015.52 -0.049294 -6.82982 0
M  V30 10777 O 1015.21 -0.660201 -8.01184 0
M  V30 10778 H 1014.94 0.273659 -0.618132 0
M  V30 10779 H 1017.5 0.196437 -2.04459 0
M  V30 10780 H 1015.73 2.62394 -2.84053 0
M  V30 10781 H 1017.42 2.46221 -3.22692 0
M  V30 10782 H 1018.18 0.555474 -4.81809 0
M  V30 10783 H 1014.06 1.66611 -4.29839 0
M  V30 10784 H 1017.6 -0.538133 -6.95521 0
M  V30 10785 H 1013.5 0.578769 -6.429 0
M  V30 10786 H 1014.27 -0.557926 -8.16596 0
M  V30 10787 N 1016.93 1.50896 0.454776 0
M  V30 10788 C 1017.86 1.73885 1.5584 0
M  V30 10789 C 1018.84 0.588172 1.59607 0
M  V30 10790 O 1020.03 0.829054 1.75614 0
M  V30 10791 C 1017.16 1.84796 2.94054 0
M  V30 10792 C 1016.11 3.00111 3.05152 0
M  V30 10793 C 1015.44 2.96183 4.45174 0
M  V30 10794 C 1016.74 4.40365 2.80849 0
M  V30 10795 H 1018.43 2.66292 1.36854 0
M  V30 10796 H 1015.98 1.28142 0.656936 0
M  V30 10797 H 1017.93 1.99462 3.71204 0
M  V30 10798 H 1016.66 0.890235 3.14233 0
M  V30 10799 H 1015.31 2.85121 2.30438 0
M  V30 10800 H 1014.96 1.98224 4.62295 0
M  V30 10801 H 1014.66 3.73608 4.53532 0
M  V30 10802 H 1016.19 3.1292 5.24322 0
M  V30 10803 H 1017.6 4.55795 3.47741 0
M  V30 10804 H 1016 5.19363 3.00636 0
M  V30 10805 H 1017.07 4.51606 1.76579 0
M  V30 10806 N 1018.41 -0.709066 1.40748 0
M  V30 10807 C 1019.66 -1.4646 1.38681 0
M  V30 10808 C 1019.97 -1.95599 -0.0056209 0
M  V30 10809 O 1021.18 -2.71091 -0.148907 0
M  V30 10810 C 1019.63 -2.64771 2.43771 0
M  V30 10811 C 1019.24 -2.22474 3.88856 0
M  V30 10812 C 1020.99 -3.42475 2.50821 0
M  V30 10813 C 1018.89 -3.37663 4.85528 0
M  V30 10814 H 1017.82 -0.550084 0.515678 0
M  V30 10815 H 1020.47 -0.771074 1.66513 0
M  V30 10816 H 1018.86 -3.36325 2.09048 0
M  V30 10817 H 1020.03 -1.58297 4.32757 0
M  V30 10818 H 1018.35 -1.57798 3.85342 0
M  V30 10819 H 1020.94 -4.28201 3.20232 0
M  V30 10820 H 1021.29 -3.86738 1.54076 0
M  V30 10821 H 1021.82 -2.77969 2.84567 0
M  V30 10822 H 1018.56 -2.98426 5.83628 0
M  V30 10823 H 1018.08 -4.00734 4.46287 0
M  V30 10824 H 1019.76 -4.03636 5.05655 0
M  V30 10825 N 1019.89 -1.26353 -0.941956 0
M  V30 10826 C 1021.14 -1.11851 -1.68806 0
M  V30 10827 C 1021.46 0.33829 -1.91535 0
M  V30 10828 O 1020.72 1.26495 -1.49324 0
M  V30 10829 C 1021.02 -1.83195 -3.06879 0
M  V30 10830 C 1020.68 -3.33093 -3.03908 0
M  V30 10831 C 1019.35 -3.73982 -3.02805 0
M  V30 10832 C 1021.7 -4.28803 -2.96273 0
M  V30 10833 C 1019.03 -5.08971 -2.91832 0
M  V30 10834 C 1021.38 -5.6383 -2.86842 0
M  V30 10835 C 1020.04 -6.04032 -2.84081 0
M  V30 10836 H 1019.31 -0.409293 -0.617706 0
M  V30 10837 H 1021.96 -1.56785 -1.09957 0
M  V30 10838 H 1020.26 -1.30728 -3.69347 0
M  V30 10839 H 1021.96 -1.69416 -3.63455 0
M  V30 10840 H 1018.55 -3.00566 -3.05546 0
M  V30 10841 H 1022.74 -3.98195 -2.96234 0
M  V30 10842 H 1017.99 -5.39282 -2.88072 0
M  V30 10843 H 1022.17 -6.37676 -2.79898 0
M  V30 10844 H 1019.79 -7.08586 -2.75335 0
M  V30 10845 N 1021.37 1.14642 -1.08144 0
M  V30 10846 C 1022.28 2.23257 -0.720668 0
M  V30 10847 C 1023.29 1.71866 0.271648 0
M  V30 10848 O 1024.47 2.01064 0.116266 0
M  V30 10849 C 1021.53 3.46447 -0.132542 0
M  V30 10850 C 1020.6 4.12789 -1.17913 0
M  V30 10851 C 1019.83 5.30099 -0.618971 0
M  V30 10852 O 1020.05 5.6762 0.562418 0
M  V30 10853 O 1018.99 5.86154 -1.36774 0
M  V30 10854 H 1022.81 2.56463 -1.62667 0
M  V30 10855 H 1020.4 1.22521 -0.854932 0
M  V30 10856 H 1022.28 4.20959 0.19277 0
M  V30 10857 H 1020.95 3.14971 0.746662 0
M  V30 10858 H 1019.86 3.40163 -1.55693 0
M  V30 10859 H 1021.19 4.48365 -2.03051 0
M  V30 10860 N 1022.85 0.866709 1.31628 0
M  V30 10861 C 1024.08 0.489679 2.00713 0
M  V30 10862 C 1024.48 -0.921492 1.65243 0
M  V30 10863 O 1023.83 -1.61467 0.876012 0
M  V30 10864 C 1023.89 0.563148 3.55062 0
M  V30 10865 C 1023.55 1.93535 4.13996 0
M  V30 10866 C 1024.55 2.90243 4.31341 0
M  V30 10867 C 1022.23 2.23578 4.49798 0
M  V30 10868 C 1024.23 4.15138 4.83673 0
M  V30 10869 C 1021.92 3.48723 5.01832 0
M  V30 10870 C 1022.91 4.44319 5.18719 0
M  V30 10871 O 1022.6 5.67247 5.69637 0
M  V30 10872 H 1022.33 0.189605 0.648865 0
M  V30 10873 H 1024.89 1.16874 1.68907 0
M  V30 10874 H 1023.12 -0.172815 3.86314 0
M  V30 10875 H 1024.81 0.200009 4.05407 0
M  V30 10876 H 1025.57 2.6834 4.04003 0
M  V30 10877 H 1021.45 1.49949 4.35932 0
M  V30 10878 H 1025 4.89762 4.96769 0
M  V30 10879 H 1020.89 3.70471 5.28603 0
M  V30 10880 H 1021.66 5.69372 5.88011 0
M  V30 10881 N 1024.32 -1.44642 0.625825 0
M  V30 10882 C 1025.56 -2.03977 0.131444 0
M  V30 10883 C 1025.93 -1.48122 -1.22163 0
M  V30 10884 O 1027.13 -1.98926 -1.80781 0
M  V30 10885 C 1025.4 -3.57224 0.112032 0
M  V30 10886 S 1026.96 -4.37643 -0.318501 0
M  V30 10887 H 1023.78 -0.70859 0.0584859 0
M  V30 10888 H 1026.38 -1.77099 0.828024 0
M  V30 10889 H 1025.08 -3.95383 1.10001 0
M  V30 10890 H 1024.61 -3.88705 -0.605965 0
M  V30 10891 H 1026.63 -4.70909 -1.56393 0
M  V30 10892 N 1025.8 -0.366053 -1.5329 0
M  V30 10893 C 1027.04 0.223558 -2.03174 0
M  V30 10894 C 1027.41 1.45955 -1.24745 0
M  V30 10895 O 1028.61 2.12481 -1.64637 0
M  V30 10896 C 1026.88 0.507899 -3.53773 0
M  V30 10897 S 1028.44 1.07111 -4.25526 0
M  V30 10898 H 1025.25 0.0650309 -0.70802 0
M  V30 10899 H 1027.86 -0.509028 -1.88757 0
M  V30 10900 H 1026.56 -0.39913 -4.08455 0
M  V30 10901 H 1026.09 1.26954 -3.72352 0
M  V30 10902 H 1028.11 2.35533 -4.36737 0
M  V30 10903 N 1027.28 1.57312 -0.0952337 0
M  V30 10904 C 1028.51 1.98409 0.575984 0
M  V30 10905 C 1028.92 0.973168 1.62253 0
M  V30 10906 O 1028.26 -0.0454416 1.83644 0
M  V30 10907 C 1028.32 3.35877 1.28167 0
M  V30 10908 C 1027.99 4.55368 0.385868 0
M  V30 10909 C 1028.98 5.1861 -0.366041 0
M  V30 10910 C 1026.67 5.0138 0.303885 0
M  V30 10911 C 1028.66 6.26233 -1.18791 0
M  V30 10912 C 1026.35 6.0887 -0.521637 0
M  V30 10913 C 1027.35 6.71161 -1.26618 0
M  V30 10914 O 1027.04 7.76577 -2.07804 0
M  V30 10915 H 1026.77 0.657018 0.159068 0
M  V30 10916 H 1029.32 2.04685 -0.171237 0
M  V30 10917 H 1027.55 3.26284 2.07547 0
M  V30 10918 H 1029.24 3.6142 1.84744 0
M  V30 10919 H 1030.01 4.83993 -0.312435 0
M  V30 10920 H 1025.89 4.52657 0.873065 0
M  V30 10921 H 1029.43 6.74784 -1.76955 0
M  V30 10922 H 1025.33 6.42918 -0.576722 0
M  V30 10923 H 1026.09 7.93566 -2.00489 0
M  V30 10924 N 1028.76 -0.17846 1.56586 0
M  V30 10925 C 1030.01 -0.894464 1.81228 0
M  V30 10926 C 1030.33 -1.83089 0.671062 0
M  V30 10927 O 1029.6 -1.93439 -0.309557 0
M  V30 10928 H 1028.18 -0.333288 0.668527 0
M  V30 10929 H 1030.84 -0.179986 1.94067 0
M  V30 10930 H 1029.93 -1.47565 2.75011 0
M  V30 10931 N 1030.24 -1.51135 -0.446768 0
M  V30 10932 C 1031.51 -1.5387 -1.20762 0
M  V30 10933 C 1031.89 -0.297446 -2.08994 0
M  V30 10934 O 1031.24 0.717975 -2.16927 0
M  V30 10935 C 1031.45 -2.84767 -2.01764 0
M  V30 10936 C 1032.8 -3.3636 -2.59128 0
M  V30 10937 O 1033.82 -2.86254 -2.11984 0
M  V30 10938 O 1032.68 -4.23765 -3.45088 0
M  V30 10939 H 1029.78 -0.618228 -0.549293 0
M  V30 10940 H 1032.32 -1.63442 -0.456605 0
M  V30 10941 H 1031.09 -3.6657 -1.36901 0
M  V30 10942 H 1030.72 -2.78313 -2.8395 0
M  V30 10943 N 1031.71 0.701592 -1.41122 0
M  V30 10944 C 1032.64 1.82815 -1.45262 0
M  V30 10945 C 1033.62 1.67215 -0.311939 0
M  V30 10946 O 1034.81 1.87038 -0.522538 0
M  V30 10947 C 1031.94 3.20899 -1.32819 0
M  V30 10948 C 1030.89 3.51194 -2.44636 0
M  V30 10949 C 1030.22 4.8857 -2.17263 0
M  V30 10950 C 1031.52 3.50777 -3.86979 0
M  V30 10951 H 1033.21 1.79608 -2.39544 0
M  V30 10952 H 1030.76 0.862693 -1.15298 0
M  V30 10953 H 1032.71 3.99417 -1.34329 0
M  V30 10954 H 1031.44 3.24717 -0.350191 0
M  V30 10955 H 1030.1 2.75024 -2.42399 0
M  V30 10956 H 1029.74 4.89007 -1.17819 0
M  V30 10957 H 1029.44 5.09805 -2.92186 0
M  V30 10958 H 1030.97 5.69405 -2.20478 0
M  V30 10959 H 1032.38 4.19309 -3.90964 0
M  V30 10960 H 1030.78 3.83542 -4.61536 0
M  V30 10961 H 1031.85 2.49873 -4.15562 0
M  V30 10962 N 1033.19 1.2685 0.935242 0
M  V30 10963 C 1034.12 1.1143 2.05196 0
M  V30 10964 C 1035.1 0.0178362 1.70091 0
M  V30 10965 O 1036.29 0.190951 1.93259 0
M  V30 10966 C 1033.42 0.752779 3.39044 0
M  V30 10967 C 1032.37 1.80164 3.88233 0
M  V30 10968 C 1031.7 1.29428 5.18799 0
M  V30 10969 C 1033 3.20431 4.12457 0
M  V30 10970 H 1034.69 2.04845 2.18355 0
M  V30 10971 H 1032.24 0.986276 1.04922 0
M  V30 10972 H 1034.19 0.631757 4.16637 0
M  V30 10973 H 1032.91 -0.217075 3.25878 0
M  V30 10974 H 1031.57 1.91144 3.12825 0
M  V30 10975 H 1031.22 0.3141 5.02018 0
M  V30 10976 H 1030.92 1.99546 5.5268 0
M  V30 10977 H 1032.45 1.18605 5.9897 0
M  V30 10978 H 1033.86 3.12495 4.80645 0
M  V30 10979 H 1032.26 3.88193 4.57631 0
M  V30 10980 H 1033.33 3.66046 3.18023 0
M  V30 10981 N 1034.67 -1.14067 1.0875 0
M  V30 10982 C 1035.62 -2.21332 0.715195 0
M  V30 10983 C 1036.61 -1.67059 -0.280679 0
M  V30 10984 O 1037.82 -1.79432 -0.142874 0
M  V30 10985 H 1034.19 -0.721126 0.213264 0
M  V30 10986 H 1036.16 -2.50002 1.62916 0
M  V30 10987 C 1034.91 -3.474 0.144401 0
M  V30 10988 H 1034.24 -3.89495 0.901884 0
M  V30 10989 H 1035.68 -4.23928 -0.0782564 0
M  V30 10990 C 1034.14 -3.17787 -1.11862 0
M  V30 10991 O 1034.67 -3.35906 -2.20295 0
M  V30 10992 N 1032.87 -2.71719 -1.03039 0
M  V30 10993 H 1032.42 -2.57175 -0.14793 0
M  V30 10994 H 1032.38 -2.52281 -1.87621 0
M  V30 10995 N 1036.15 -0.873678 -1.31166 0
M  V30 10996 C 1037.38 -0.500317 -2.0045 0
M  V30 10997 C 1037.79 0.912716 -1.65729 0
M  V30 10998 O 1037.13 1.61001 -0.884563 0
M  V30 10999 C 1037.19 -0.58197 -3.54758 0
M  V30 11000 C 1036.86 -1.95728 -4.12964 0
M  V30 11001 C 1037.85 -2.92526 -4.29796 0
M  V30 11002 C 1035.54 -2.2596 -4.48606 0
M  V30 11003 C 1037.53 -4.17697 -4.81464 0
M  V30 11004 C 1035.22 -3.5138 -4.99976 0
M  V30 11005 C 1036.22 -4.47064 -5.16356 0
M  V30 11006 O 1035.9 -5.70259 -5.66621 0
M  V30 11007 H 1035.64 -0.193044 -0.64785 0
M  V30 11008 H 1038.19 -1.17768 -1.68285 0
M  V30 11009 H 1036.42 0.152326 -3.864 0
M  V30 11010 H 1038.11 -0.221506 -4.05295 0
M  V30 11011 H 1038.88 -2.70479 -4.02574 0
M  V30 11012 H 1034.75 -1.52258 -4.3513 0
M  V30 11013 H 1038.3 -4.92389 -4.94165 0
M  V30 11014 H 1034.2 -3.73269 -5.26631 0
M  V30 11015 H 1034.96 -5.72483 -5.84983 0
M  V30 11016 N 1037.63 1.44308 -0.633487 0
M  V30 11017 C 1038.56 2.33431 0.0568402 0
M  V30 11018 C 1039.54 1.48342 0.832386 0
M  V30 11019 O 1040.72 1.77056 0.797798 0
M  V30 11020 C 1037.85 3.31443 1.03743 0
M  V30 11021 C 1036.81 4.26368 0.373362 0
M  V30 11022 C 1036.13 5.14267 1.46403 0
M  V30 11023 C 1037.43 5.17287 -0.721876 0
M  V30 11024 H 1039.13 2.91402 -0.687388 0
M  V30 11025 H 1036.67 1.4012 -0.332009 0
M  V30 11026 H 1038.63 3.92677 1.52913 0
M  V30 11027 H 1037.35 2.71686 1.81258 0
M  V30 11028 H 1036.01 3.6647 -0.0977053 0
M  V30 11029 H 1035.66 4.50861 2.23011 0
M  V30 11030 H 1035.36 5.7859 1.02506 0
M  V30 11031 H 1036.88 5.78373 1.95748 0
M  V30 11032 H 1038.29 5.72444 -0.313181 0
M  V30 11033 H 1036.69 5.90226 -1.08413 0
M  V30 11034 H 1037.76 4.58159 -1.58804 0
M  V30 11035 N 1039.1 0.374177 1.53094 0
M  V30 11036 C 1040.52 0.0234783 1.59583 0
M  V30 11037 C 1040.72 -1.45984 1.38892 0
M  V30 11038 O 1039.78 -2.22251 1.19836 0
M  V30 11039 C 1041.09 0.487117 2.96728 0
M  V30 11040 C 1042.64 0.442073 3.09862 0
M  V30 11041 C 1043.11 0.881659 4.49434 0
M  V30 11042 N 1044.6 0.837062 4.55574 0
M  V30 11043 C 1045.34 1.14878 5.61774 0
M  V30 11044 N 1044.83 1.53022 6.75689 0
M  V30 11045 N 1046.63 1.07102 5.51802 0
M  V30 11046 H 1038.78 1.34003 1.64794 0
M  V30 11047 H 1041.04 0.548281 0.773364 0
M  V30 11048 H 1040.75 1.52252 3.17037 0
M  V30 11049 H 1040.62 -0.121772 3.77003 0
M  V30 11050 H 1043.01 -0.584216 2.89259 0
M  V30 11051 H 1043.09 1.08657 2.31576 0
M  V30 11052 H 1042.73 1.90611 4.70776 0
M  V30 11053 H 1042.66 0.214326 5.26164 0
M  V30 11054 H 1045.15 0.556173 3.73785 0
M  V30 11055 H 1045.47 1.75211 7.52676 0
M  V30 11056 H 1043.81 1.56895 6.77059 0
M  V30 11057 H 1047 0.772149 4.61688 0
M  V30 11058 H 1047.18 1.31728 6.3447 0
M  V30 11059 N 1040.58 -1.57259 0.103575 0
M  V30 11060 C 1041.81 -1.99424 -0.569638 0
M  V30 11061 C 1042.23 -0.982475 -1.60403 0
M  V30 11062 O 1041.59 0.0479231 -1.81237 0
M  V30 11063 C 1041.64 -3.40527 -1.18633 0
M  V30 11064 O 1040.74 -3.42167 -2.30208 0
M  V30 11065 H 1040.08 -0.648251 -0.143759 0
M  V30 11066 H 1042.61 -2.03739 0.187493 0
M  V30 11067 H 1042.62 -3.78404 -1.5256 0
M  V30 11068 H 1041.3 -4.13686 -0.428582 0
M  V30 11069 H 1039.88 -3.16093 -1.97837 0
M  V30 11070 N 1042.06 0.170153 -1.56679 0
M  V30 11071 C 1043.01 1.21064 -1.965 0
M  V30 11072 C 1043.98 1.43928 -0.829092 0
M  V30 11073 O 1045.16 1.56649 -1.08931 0
M  V30 11074 C 1042.3 2.54468 -2.33109 0
M  V30 11075 C 1041.42 2.38974 -3.59883 0
M  V30 11076 C 1040.55 3.65252 -3.857 0
M  V30 11077 C 1039.59 3.44696 -5.05817 0
M  V30 11078 N 1038.73 4.63047 -5.27761 0
M  V30 11079 H 1043.57 0.864055 -2.85198 0
M  V30 11080 H 1041.1 0.415243 -1.41117 0
M  V30 11081 H 1043.06 3.32222 -2.52358 0
M  V30 11082 H 1041.69 2.8712 -1.4752 0
M  V30 11083 H 1040.74 1.5239 -3.48542 0
M  V30 11084 H 1042.06 2.19731 -4.47794 0
M  V30 11085 H 1041.21 4.51441 -4.05322 0
M  V30 11086 H 1039.95 3.87475 -2.96166 0
M  V30 11087 H 1038.95 2.56893 -4.86092 0
M  V30 11088 H 1040.18 3.23894 -5.96883 0
M  V30 11089 H 1038.12 4.85487 -4.41179 0
M  V30 11090 H 1038.04 4.46722 -6.09898 0
M  V30 11091 H 1039.31 5.50516 -5.51863 0
M  V30 11092 N 1043.54 1.5137 0.438746 0
M  V30 11093 C 1044.95 1.39514 0.775116 0
M  V30 11094 C 1045.15 0.47638 1.95788 0
M  V30 11095 O 1044.21 -0.0689832 2.52406 0
M  V30 11096 C 1045.52 2.81517 1.05681 0
M  V30 11097 C 1047.07 2.90658 1.16133 0
M  V30 11098 C 1047.55 4.33566 1.47597 0
M  V30 11099 N 1049.04 4.36665 1.54524 0
M  V30 11100 C 1049.77 5.4427 1.80438 0
M  V30 11101 N 1049.27 6.62037 2.04154 0
M  V30 11102 N 1051.06 5.31749 1.82208 0
M  V30 11103 H 1043.21 2.09657 -0.340237 0
M  V30 11104 H 1045.48 0.943736 -0.0898115 0
M  V30 11105 H 1045.18 3.50734 0.260441 0
M  V30 11106 H 1045.06 3.20757 1.98481 0
M  V30 11107 H 1047.44 2.2164 1.94833 0
M  V30 11108 H 1047.52 2.54917 0.212376 0
M  V30 11109 H 1047.17 5.03133 0.694251 0
M  V30 11110 H 1047.1 4.66819 2.43696 0
M  V30 11111 H 1049.59 3.51761 1.38105 0
M  V30 11112 H 1049.9 7.39838 2.23293 0
M  V30 11113 H 1048.25 6.65155 2.01479 0
M  V30 11114 H 1051.44 4.3873 1.63198 0
M  V30 11115 H 1051.61 6.15689 2.02067 0
M  V30 11116 N 1045.02 -0.694098 1.41492 0
M  V30 11117 C 1045.93 -1.83778 1.45818 0
M  V30 11118 C 1046.94 -1.70471 0.348639 0
M  V30 11119 O 1048.12 -1.92361 0.596588 0
M  V30 11120 C 1045.18 -3.19771 1.33967 0
M  V30 11121 C 1044.24 -3.45175 2.5525 0
M  V30 11122 C 1043.48 -4.74681 2.43955 0
M  V30 11123 O 1043.7 -5.51268 1.46491 0
M  V30 11124 O 1042.63 -5.00901 3.33739 0
M  V30 11125 H 1046.46 -1.83084 2.42309 0
M  V30 11126 H 1044.05 -0.847349 1.23046 0
M  V30 11127 H 1045.93 -4.00961 1.29648 0
M  V30 11128 H 1044.6 -3.21145 0.405926 0
M  V30 11129 H 1043.51 -2.6391 2.65146 0
M  V30 11130 H 1044.84 -3.48617 3.47458 0
M  V30 11131 N 1046.49 -1.27344 -0.928501 0
M  V30 11132 C 1047.44 -1.10001 -2.029 0
M  V30 11133 C 1048.41 -0.00131084 -1.661 0
M  V30 11134 O 1049.6 -0.163485 -1.90098 0
M  V30 11135 C 1046.74 -0.7524 -3.36798 0
M  V30 11136 C 1045.85 -1.92865 -3.86558 0
M  V30 11137 C 1044.98 -1.52299 -5.08899 0
M  V30 11138 C 1044.02 -2.66677 -5.50953 0
M  V30 11139 N 1043.16 -2.26706 -6.64491 0
M  V30 11140 H 1048 -2.0417 -2.17068 0
M  V30 11141 H 1045.54 -1.01637 -1.0634 0
M  V30 11142 H 1047.5 -0.531687 -4.13798 0
M  V30 11143 H 1046.13 0.15234 -3.2244 0
M  V30 11144 H 1045.18 -2.26192 -3.05845 0
M  V30 11145 H 1046.49 -2.78668 -4.13698 0
M  V30 11146 H 1045.64 -1.26348 -5.93398 0
M  V30 11147 H 1044.38 -0.636042 -4.83535 0
M  V30 11148 H 1043.39 -2.93344 -4.65004 0
M  V30 11149 H 1044.61 -3.55992 -5.78313 0
M  V30 11150 H 1042.56 -1.40462 -6.40786 0
M  V30 11151 H 1042.48 -3.06049 -6.91281 0
M  V30 11152 H 1043.74 -2.04 -7.52333 0
M  V30 11153 N 1047.97 1.13488 -1.09353 0
M  V30 11154 C 1049.22 1.84748 -0.829126 0
M  V30 11155 C 1049.55 1.83485 0.645247 0
M  V30 11156 O 1048.8 1.26767 1.49093 0
M  V30 11157 C 1049.1 3.32584 -1.30854 0
M  V30 11158 C 1048.77 3.54028 -2.7924 0
M  V30 11159 C 1047.43 3.59588 -3.19765 0
M  V30 11160 C 1049.78 3.62058 -3.74918 0
M  V30 11161 C 1047.11 3.70712 -4.54741 0
M  V30 11162 C 1049.46 3.7471 -5.09682 0
M  V30 11163 C 1048.13 3.78523 -5.49797 0
M  V30 11164 H 1047.4 0.67604 -0.303399 0
M  V30 11165 H 1050.04 1.33989 -1.36818 0
M  V30 11166 H 1048.35 3.85689 -0.689275 0
M  V30 11167 H 1050.04 3.86166 -1.08059 0
M  V30 11168 H 1046.63 3.50354 -2.4688 0
M  V30 11169 H 1050.82 3.57043 -3.44723 0
M  V30 11170 H 1046.07 3.71931 -4.8526 0
M  V30 11171 H 1050.25 3.79866 -5.83674 0
M  V30 11172 H 1047.88 3.86895 -6.54382 0
M  V30 11173 N 1049.45 0.880621 1.30701 0
M  V30 11174 C 1050.4 0.315679 2.25804 0
M  V30 11175 C 1051.39 -0.553382 1.51084 0
M  V30 11176 O 1052.58 -0.398518 1.72455 0
M  V30 11177 C 1049.71 -0.472586 3.40032 0
M  V30 11178 C 1048.79 0.410318 4.2211 0
M  V30 11179 N 1049.18 1.50876 4.82773 0
M  V30 11180 C 1047.48 0.20465 4.4553 0
M  V30 11181 C 1048.18 2.05409 5.44226 0
M  V30 11182 N 1047.16 1.34964 5.26579 0
M  V30 11183 H 1050.96 1.15505 2.70251 0
M  V30 11184 H 1048.47 0.729547 1.45091 0
M  V30 11185 H 1050.47 -0.893918 4.07204 0
M  V30 11186 H 1049.13 -1.30945 2.97125 0
M  V30 11187 H 1050.14 1.89163 4.82118 0
M  V30 11188 H 1046.82 -0.595398 4.13233 0
M  V30 11189 H 1048.21 2.97627 6.02385 0
M  V30 11190 N 1050.93 -1.4397 0.641131 0
M  V30 11191 C 1052.35 -1.56607 0.30762 0
M  V30 11192 C 1052.55 -1.62694 -1.18882 0
M  V30 11193 O 1051.6 -1.57541 -1.97325 0
M  V30 11194 C 1052.91 -2.83289 1.00834 0
M  V30 11195 C 1054.46 -2.97016 0.98744 0
M  V30 11196 C 1054.94 -4.26514 1.66882 0
M  V30 11197 N 1056.43 -4.33351 1.63589 0
M  V30 11198 C 1057.16 -5.32292 2.13196 0
M  V30 11199 N 1056.66 -6.37582 2.71038 0
M  V30 11200 N 1058.45 -5.23866 2.03766 0
M  V30 11201 H 1050.6 -1.38262 1.61237 0
M  V30 11202 H 1052.87 -0.663221 0.677378 0
M  V30 11203 H 1052.57 -2.84812 2.06337 0
M  V30 11204 H 1052.45 -3.73134 0.552333 0
M  V30 11205 H 1054.83 -2.95041 -0.0591395 0
M  V30 11206 H 1054.91 -2.08493 1.48203 0
M  V30 11207 H 1054.56 -4.2925 2.71491 0
M  V30 11208 H 1054.49 -5.13912 1.14898 0
M  V30 11209 H 1056.98 -3.5788 1.21368 0
M  V30 11210 H 1057.29 -7.09378 3.06597 0
M  V30 11211 H 1055.64 -6.38239 2.75093 0
M  V30 11212 H 1058.83 -4.40524 1.58291 0
M  V30 11213 H 1059 -6.00819 2.42737 0
M  V30 11214 N 1052.41 -0.382291 -1.52893 0
M  V30 11215 C 1053.64 0.202408 -2.05908 0
M  V30 11216 C 1054.05 1.4109 -1.25456 0
M  V30 11217 O 1053.41 1.80027 -0.29942 0
M  V30 11218 C 1053.46 0.579452 -3.56826 0
M  V30 11219 O 1053.18 -0.58102 -4.3423 0
M  V30 11220 C 1054.68 1.22076 -4.2616 0
M  V30 11221 H 1051.9 0.0321859 -0.670228 0
M  V30 11222 H 1054.44 -0.545494 -1.9709 0
M  V30 11223 H 1052.6 1.27726 -3.65739 0
M  V30 11224 H 1053.01 -0.272693 -5.23791 0
M  V30 11225 H 1054.49 1.435 -5.33021 0
M  V30 11226 H 1054.96 2.18605 -3.80931 0
M  V30 11227 H 1055.57 0.563922 -4.21545 0
M  V30 11228 N 1053.89 1.57202 -0.111913 0
M  V30 11229 C 1055.13 1.96035 0.542393 0
M  V30 11230 C 1055.49 0.993925 1.64739 0
M  V30 11231 O 1054.78 0.0227369 1.91587 0
M  V30 11232 C 1054.97 3.39152 1.12741 0
M  V30 11233 C 1054.8 4.49628 0.0806232 0
M  V30 11234 C 1053.57 5.04095 -0.348737 0
M  V30 11235 C 1055.77 5.09546 -0.697655 0
M  V30 11236 N 1053.75 5.98141 -1.38204 0
M  V30 11237 C 1055.12 5.99468 -1.58234 0
M  V30 11238 C 1057.18 4.92229 -0.749324 0
M  V30 11239 C 1055.88 6.7393 -2.51418 0
M  V30 11240 C 1057.91 5.67366 -1.66884 0
M  V30 11241 C 1057.27 6.56968 -2.54112 0
M  V30 11242 H 1053.37 0.763672 0.168311 0
M  V30 11243 H 1055.95 1.93687 -0.198387 0
M  V30 11244 H 1054.12 3.42161 1.83794 0
M  V30 11245 H 1055.86 3.65125 1.74546 0
M  V30 11246 H 1052.61 4.73581 0.042288 0
M  V30 11247 H 1053.03 6.49868 -1.8974 0
M  V30 11248 H 1057.68 4.22706 -0.0890808 0
M  V30 11249 H 1055.39 7.42704 -3.18459 0
M  V30 11250 H 1058.98 5.55974 -1.71417 0
M  V30 11251 H 1057.86 7.1409 -3.24107 0
M  V30 11252 N 1055.36 -0.161842 1.56767 0
M  V30 11253 C 1056.59 -0.892247 1.86672 0
M  V30 11254 C 1057.01 -1.75407 0.69841 0
M  V30 11255 O 1056.36 -1.7945 -0.332251 0
M  V30 11256 C 1056.41 -1.7612 3.15696 0
M  V30 11257 O 1056.14 -0.934131 4.28025 0
M  V30 11258 C 1057.64 -2.60046 3.59014 0
M  V30 11259 H 1054.86 -0.258747 0.619105 0
M  V30 11260 H 1057.4 -0.159089 2.0388 0
M  V30 11261 H 1055.56 -2.44759 3.00286 0
M  V30 11262 H 1055.97 -1.52931 5.01709 0
M  V30 11263 H 1057.44 -3.16618 4.5217 0
M  V30 11264 H 1057.92 -3.35374 2.83586 0
M  V30 11265 H 1058.53 -1.96724 3.77067 0
M  V30 11266 N 1056.84 -1.516 -0.430713 0
M  V30 11267 C 1057.75 -1.76247 -1.54836 0
M  V30 11268 C 1058.77 -0.646985 -1.61524 0
M  V30 11269 O 1059.94 -0.929987 -1.78643 0
M  V30 11270 C 1057.01 -1.88833 -2.90763 0
M  V30 11271 C 1056.07 -3.12701 -2.94137 0
M  V30 11272 C 1055.3 -3.24676 -4.23581 0
M  V30 11273 O 1055.53 -2.42429 -5.16318 0
M  V30 11274 O 1054.46 -4.17697 -4.33374 0
M  V30 11275 H 1058.29 -2.71069 -1.3695 0
M  V30 11276 H 1055.87 -1.36182 -0.614396 0
M  V30 11277 H 1057.75 -1.99057 -3.71422 0
M  V30 11278 H 1056.43 -0.971987 -3.08762 0
M  V30 11279 H 1055.33 -3.0795 -2.1241 0
M  V30 11280 H 1056.67 -4.04045 -2.81084 0
M  V30 11281 N 1058.32 0.686584 -1.41858 0
M  V30 11282 C 1059.57 1.44235 -1.40994 0
M  V30 11283 C 1059.88 1.95583 -0.0254979 0
M  V30 11284 O 1061.09 2.71294 0.10576 0
M  V30 11285 C 1059.54 2.6086 -2.47952 0
M  V30 11286 C 1059.15 2.16259 -3.92347 0
M  V30 11287 C 1060.9 3.38441 -2.56237 0
M  V30 11288 C 1058.8 3.29896 -4.90838 0
M  V30 11289 H 1057.73 0.54181 -0.524364 0
M  V30 11290 H 1060.38 0.744486 -1.67719 0
M  V30 11291 H 1058.77 3.32957 -2.14373 0
M  V30 11292 H 1059.94 1.51392 -4.35221 0
M  V30 11293 H 1058.25 1.51648 -3.87804 0
M  V30 11294 H 1060.85 4.23052 -3.27003 0
M  V30 11295 H 1061.19 3.84238 -1.6021 0
M  V30 11296 H 1061.73 2.73406 -2.88953 0
M  V30 11297 H 1058.47 2.89104 -5.88302 0
M  V30 11298 H 1057.99 3.93584 -4.52606 0
M  V30 11299 H 1059.67 3.95541 -5.12012 0
M  V30 11300 N 1059.8 1.27835 0.921735 0
M  V30 11301 C 1061.04 1.14523 1.67005 0
M  V30 11302 C 1061.37 -0.307776 1.92049 0
M  V30 11303 O 1060.63 -1.24103 1.51317 0
M  V30 11304 C 1060.93 1.88054 3.03925 0
M  V30 11305 C 1060.59 3.37886 2.9857 0
M  V30 11306 C 1059.25 3.78752 2.96817 0
M  V30 11307 C 1061.61 4.33462 2.89414 0
M  V30 11308 C 1058.93 5.13549 2.83698 0
M  V30 11309 C 1061.29 5.68322 2.77836 0
M  V30 11310 C 1059.95 6.08475 2.74436 0
M  V30 11311 H 1059.22 0.419068 0.611116 0
M  V30 11312 H 1061.87 1.58515 1.07449 0
M  V30 11313 H 1060.17 1.36587 3.67221 0
M  V30 11314 H 1061.87 1.75176 3.60714 0
M  V30 11315 H 1058.46 3.05389 3.00725 0
M  V30 11316 H 1062.64 4.02857 2.89862 0
M  V30 11317 H 1057.9 5.43796 2.79456 0
M  V30 11318 H 1062.07 6.42048 2.69717 0
M  V30 11319 H 1059.7 7.12877 2.64027 0
M  V30 11320 N 1061.28 -1.12907 1.09954 0
M  V30 11321 C 1062.22 -2.18485 0.743848 0
M  V30 11322 C 1063.19 -1.63766 -0.277494 0
M  V30 11323 O 1064.38 -1.90146 -0.157899 0
M  V30 11324 C 1061.52 -3.44649 0.176437 0
M  V30 11325 C 1060.63 -4.13445 1.25248 0
M  V30 11326 C 1059.77 -5.27242 0.647242 0
M  V30 11327 C 1058.8 -5.87897 1.70421 0
M  V30 11328 N 1057.94 -6.93116 1.1196 0
M  V30 11329 H 1062.78 -2.48257 1.64841 0
M  V30 11330 H 1060.32 -1.21891 0.823471 0
M  V30 11331 H 1062.28 -4.16852 -0.170384 0
M  V30 11332 H 1060.91 -3.15309 -0.69137 0
M  V30 11333 H 1059.96 -3.39471 1.7165 0
M  V30 11334 H 1061.27 -4.54601 2.05279 0
M  V30 11335 H 1060.42 -6.06186 0.249579 0
M  V30 11336 H 1059.16 -4.87351 -0.184556 0
M  V30 11337 H 1058.17 -5.07643 2.11136 0
M  V30 11338 H 1059.39 -6.2986 2.53877 0
M  V30 11339 H 1057.34 -6.55271 0.309181 0
M  V30 11340 H 1057.26 -7.32843 1.85681 0
M  V30 11341 H 1058.52 -7.759 0.748326 0
M  V30 11342 N 1062.75 -0.88754 -1.30232 0
M  V30 11343 C 1063.66 -0.360333 -2.31816 0
M  V30 11344 C 1064.68 0.538741 -1.6545 0
M  V30 11345 O 1065.86 0.431246 -1.96729 0
M  V30 11346 C 1062.92 0.414336 -3.44215 0
M  V30 11347 C 1061.98 -0.514799 -4.26202 0
M  V30 11348 C 1061.21 0.222994 -5.33234 0
M  V30 11349 O 1061.44 1.44871 -5.51696 0
M  V30 11350 O 1060.37 -0.428221 -6.00375 0
M  V30 11351 H 1064.2 -1.20279 -2.78867 0
M  V30 11352 H 1061.78 -0.651459 -1.34448 0
M  V30 11353 H 1063.66 0.852859 -4.12679 0
M  V30 11354 H 1062.34 1.23305 -2.99295 0
M  V30 11355 H 1061.25 -1.00219 -3.60426 0
M  V30 11356 H 1062.58 -1.29959 -4.74733 0
M  V30 11357 N 1064.23 1.43628 -0.648757 0
M  V30 11358 C 1065.18 2.27899 0.0677939 0
M  V30 11359 C 1066.17 1.39653 0.799115 0
M  V30 11360 O 1067.36 1.6332 0.682317 0
M  V30 11361 C 1064.49 3.27276 1.0366 0
M  V30 11362 C 1063.57 4.23009 0.303982 0
M  V30 11363 N 1063.96 5.01248 -0.677056 0
M  V30 11364 C 1062.26 4.42645 0.546041 0
M  V30 11365 C 1062.96 5.70982 -1.11151 0
M  V30 11366 N 1061.94 5.41762 -0.446669 0
M  V30 11367 H 1065.74 2.85804 -0.685073 0
M  V30 11368 H 1063.26 1.55277 -0.475674 0
M  V30 11369 H 1065.25 3.86423 1.5647 0
M  V30 11370 H 1063.91 2.70932 1.78958 0
M  V30 11371 H 1064.92 5.07028 -1.0556 0
M  V30 11372 H 1061.6 3.97377 1.28053 0
M  V30 11373 H 1062.99 6.43794 -1.923 0
M  V30 11374 N 1065.71 0.390394 1.52688 0
M  V30 11375 C 1066.66 -0.4591 2.28024 0
M  V30 11376 C 1067.65 -1.06212 1.31967 0
M  V30 11377 O 1068.86 -1.00247 1.49501 0
M  V30 11378 H 1065.23 -0.16681 0.733266 0
M  V30 11379 H 1067.2 0.197747 2.97744 0
M  V30 11380 C 1065.95 -1.5737 3.10048 0
M  V30 11381 H 1065.28 -1.11901 3.83821 0
M  V30 11382 H 1066.72 -2.1423 3.65898 0
M  V30 11383 C 1065.18 -2.53036 2.22429 0
M  V30 11384 O 1065.71 -3.5647 1.85181 0
M  V30 11385 N 1063.91 -2.22802 1.86567 0
M  V30 11386 H 1063.46 -1.38723 2.17057 0
M  V30 11387 H 1063.42 -2.87061 1.28233 0
M  V30 11388 N 1067.19 -1.57141 0.120249 0
M  V30 11389 C 1068.44 -1.95238 -0.537449 0
M  V30 11390 C 1068.76 -1.00361 -1.66607 0
M  V30 11391 O 1068.02 -0.0277306 -1.9568 0
M  V30 11392 C 1068.32 -3.39745 -1.10941 0
M  V30 11393 C 1067.98 -4.50785 -0.102012 0
M  V30 11394 C 1066.65 -4.80882 0.174994 0
M  V30 11395 C 1069 -5.17913 0.584462 0
M  V30 11396 C 1066.33 -5.75424 1.14474 0
M  V30 11397 C 1068.68 -6.13497 1.54284 0
M  V30 11398 C 1067.34 -6.41987 1.82782 0
M  V30 11399 H 1066.61 -0.714425 -0.196666 0
M  V30 11400 H 1069.26 -1.90438 0.201418 0
M  V30 11401 H 1067.56 -3.41246 -1.92506 0
M  V30 11402 H 1069.26 -3.66536 -1.62642 0
M  V30 11403 H 1065.85 -4.27342 -0.328097 0
M  V30 11404 H 1070.03 -4.94815 0.383625 0
M  V30 11405 H 1065.29 -5.95801 1.37226 0
M  V30 11406 H 1069.46 -6.64598 2.08044 0
M  V30 11407 H 1067.09 -7.15052 2.5808 0
M  V30 11408 N 1068.67 0.153526 -1.5685 0
M  V30 11409 C 1069.89 0.886343 -1.87507 0
M  V30 11410 C 1070.32 1.74244 -0.708565 0
M  V30 11411 O 1069.67 1.78045 0.341997 0
M  V30 11412 C 1069.72 1.72428 -3.16703 0
M  V30 11413 O 1068.83 2.82784 -3.00178 0
M  V30 11414 H 1068.17 0.247259 -0.616246 0
M  V30 11415 H 1070.7 0.146306 -2.04076 0
M  V30 11416 H 1070.71 2.12062 -3.4856 0
M  V30 11417 H 1069.38 1.09558 -4.01211 0
M  V30 11418 H 1067.96 2.46604 -2.79716 0
M  V30 11419 N 1070.14 1.51827 0.422667 0
M  V30 11420 C 1071.39 1.6522 1.17084 0
M  V30 11421 C 1071.72 0.375508 1.90841 0
M  V30 11422 O 1070.97 -0.641029 1.84903 0
M  V30 11423 C 1071.27 2.81572 2.20119 0
M  V30 11424 C 1070.94 4.20303 1.63268 0
M  V30 11425 C 1069.6 4.5804 1.47488 0
M  V30 11426 C 1071.95 5.06812 1.21618 0
M  V30 11427 C 1069.28 5.79979 0.885531 0
M  V30 11428 C 1071.63 6.29343 0.641071 0
M  V30 11429 C 1070.3 6.65841 0.470286 0
M  V30 11430 H 1069.57 0.604581 0.428442 0
M  V30 11431 H 1072.21 1.85896 0.459874 0
M  V30 11432 H 1070.52 2.55175 2.97309 0
M  V30 11433 H 1072.22 2.89132 2.77856 0
M  V30 11434 H 1068.81 3.90557 1.76531 0
M  V30 11435 H 1072.99 4.78251 1.32624 0
M  V30 11436 H 1068.25 6.06892 0.741105 0
M  V30 11437 H 1072.42 6.9571 0.309888 0
M  V30 11438 H 1070.05 7.60199 0.0115038 0
M  V30 11439 N 1071.62 -0.679052 1.4222 0
M  V30 11440 C 1072.85 -1.46534 1.45641 0
M  V30 11441 C 1073.26 -1.89088 0.0649574 0
M  V30 11442 O 1072.6 -1.58436 -0.929712 0
M  V30 11443 C 1072.67 -2.74882 2.3169 0
M  V30 11444 C 1072.33 -2.5443 3.79624 0
M  V30 11445 C 1073.33 -2.19307 4.71382 0
M  V30 11446 C 1071.01 -2.69557 4.23845 0
M  V30 11447 C 1073.01 -1.99571 6.05351 0
M  V30 11448 C 1070.69 -2.49437 5.57875 0
M  V30 11449 C 1071.69 -2.14497 6.48444 0
M  V30 11450 O 1071.38 -1.94567 7.79999 0
M  V30 11451 H 1071.11 -0.457542 0.497626 0
M  V30 11452 H 1073.66 -0.842145 1.87342 0
M  V30 11453 H 1071.89 -3.39669 1.8483 0
M  V30 11454 H 1073.58 -3.3675 2.26615 0
M  V30 11455 H 1074.35 -2.0722 4.38503 0
M  V30 11456 H 1070.23 -2.95733 3.53642 0
M  V30 11457 H 1073.77 -1.72222 6.76007 0
M  V30 11458 H 1069.67 -2.61119 5.90328 0
M  V30 11459 H 1070.44 -2.092 7.91314 0
M  V30 11460 N 1073.1 -1.28322 -0.914942 0
M  V30 11461 C 1074.51 -1.13937 -1.47903 0
M  V30 11462 C 1074.86 0.271072 -1.94318 0
M  V30 11463 O 1073.99 1.16522 -1.8235 0
M  V30 11464 C 1074.58 -2.06221 -2.68809 0
M  V30 11465 C 1073.14 -1.95903 -3.21402 0
M  V30 11466 C 1072.29 -1.98031 -1.94111 0
M  V30 11467 H 1075.24 -1.41029 -0.727772 0
M  V30 11468 H 1075.26 -1.6255 -3.44031 0
M  V30 11469 H 1074.77 -3.08866 -2.34997 0
M  V30 11470 H 1072.87 -0.962907 -3.59943 0
M  V30 11471 H 1072.99 -2.82799 -3.86732 0
M  V30 11472 H 1071.35 -1.42423 -2.11158 0
M  V30 11473 H 1072.13 -3.02354 -1.62595 0
M  V30 11474 N 1074.58 1.12322 -1.10551 0
M  V30 11475 C 1075.81 1.87679 -0.87087 0
M  V30 11476 C 1076.22 1.79711 0.578733 0
M  V30 11477 O 1075.58 1.17185 1.39907 0
M  V30 11478 C 1075.63 3.36846 -1.31213 0
M  V30 11479 O 1075.35 3.44626 -2.70489 0
M  V30 11480 C 1076.85 4.29138 -1.11156 0
M  V30 11481 H 1074.07 0.593788 -0.3125 0
M  V30 11482 H 1076.62 1.42116 -1.47048 0
M  V30 11483 H 1074.77 3.79948 -0.756169 0
M  V30 11484 H 1075.18 4.37441 -2.89389 0
M  V30 11485 H 1076.66 5.32082 -1.46944 0
M  V30 11486 H 1077.14 4.39171 -0.0502963 0
M  V30 11487 H 1077.74 3.91818 -1.65405 0
M  V30 11488 N 1076.06 0.894434 1.2976 0
M  V30 11489 C 1077.3 0.517669 1.95771 0
M  V30 11490 C 1077.63 -0.935028 1.70551 0
M  V30 11491 O 1076.89 -1.67722 1.00835 0
M  V30 11492 C 1077.19 0.750307 3.49435 0
M  V30 11493 C 1076.85 2.17955 3.94723 0
M  V30 11494 C 1075.51 2.57036 4.068 0
M  V30 11495 C 1077.87 3.11053 4.18205 0
M  V30 11496 C 1075.19 3.88406 4.39724 0
M  V30 11497 C 1077.55 4.41966 4.52602 0
M  V30 11498 C 1076.21 4.80927 4.62888 0
M  V30 11499 H 1075.48 0.189428 0.716378 0
M  V30 11500 H 1078.13 1.13209 1.54454 0
M  V30 11501 H 1076.43 0.0529242 3.91764 0
M  V30 11502 H 1078.13 0.438251 3.98598 0
M  V30 11503 H 1074.72 1.86622 3.85837 0
M  V30 11504 H 1078.9 2.82076 4.08347 0
M  V30 11505 H 1074.16 4.18321 4.4589 0
M  V30 11506 H 1078.33 5.14134 4.69722 0
M  V30 11507 H 1075.96 5.82759 4.88156 0
M  V30 11508 N 1077.53 -1.43282 0.656365 0
M  V30 11509 C 1078.47 -2.29087 -0.0720378 0
M  V30 11510 C 1079.48 -1.4268 -0.783982 0
M  V30 11511 O 1080.67 -1.66585 -0.641213 0
M  V30 11512 C 1077.77 -3.19676 -1.12519 0
M  V30 11513 C 1076.94 -4.34638 -0.490756 0
M  V30 11514 C 1076 -5.06079 -1.44121 0
M  V30 11515 O 1075.03 -5.6124 -0.948595 0
M  V30 11516 N 1076.23 -5.09872 -2.77509 0
M  V30 11517 H 1078.99 -2.92241 0.664456 0
M  V30 11518 H 1076.55 -1.54006 0.499383 0
M  V30 11519 H 1078.55 -3.64334 -1.76189 0
M  V30 11520 H 1077.12 -2.581 -1.76362 0
M  V30 11521 H 1076.34 -3.92857 0.3251 0
M  V30 11522 H 1077.62 -5.08777 -0.0480061 0
M  V30 11523 H 1077.02 -4.66433 -3.20088 0
M  V30 11524 H 1075.58 -5.58237 -3.36474 0
M  V30 11525 N 1079.01 -0.398486 -1.52479 0
M  V30 11526 C 1080.24 0.183059 -2.06591 0
M  V30 11527 C 1080.66 1.3898 -1.26753 0
M  V30 11528 O 1080.02 1.78885 -0.294959 0
M  V30 11529 C 1080.07 0.522392 -3.56796 0
M  V30 11530 O 1079.17 1.61499 -3.79462 0
M  V30 11531 H 1078.51 0.0188411 -0.663733 0
M  V30 11532 H 1081.04 -0.56861 -1.9654 0
M  V30 11533 H 1081.05 0.784078 -4.00395 0
M  V30 11534 H 1079.73 -0.359807 -4.14341 0
M  V30 11535 H 1078.31 1.3463 -3.47749 0
M  V30 11536 N 1080.49 1.57075 -0.12858 0
M  V30 11537 C 1081.44 2.12379 0.829418 0
M  V30 11538 C 1082.43 1.04694 1.2218 0
M  V30 11539 O 1083.62 1.30909 1.1913 0
M  V30 11540 C 1080.75 2.73436 2.07575 0
M  V30 11541 C 1079.83 3.88217 1.7073 0
M  V30 11542 N 1080.22 4.94864 1.04609 0
M  V30 11543 C 1078.52 3.9858 2.00125 0
M  V30 11544 C 1079.22 5.7514 0.871137 0
M  V30 11545 N 1078.2 5.25284 1.39918 0
M  V30 11546 H 1082 2.92209 0.314816 0
M  V30 11547 H 1079.51 1.62233 0.0735788 0
M  V30 11548 H 1081.51 3.11406 2.77185 0
M  V30 11549 H 1080.17 1.95073 2.5957 0
M  V30 11550 H 1081.18 5.13025 0.708961 0
M  V30 11551 H 1077.86 3.3127 2.541 0
M  V30 11552 H 1079.25 6.7098 0.351395 0
M  V30 11553 N 1081.97 -0.145205 1.5693 0
M  V30 11554 C 1083.38 -0.705089 1.72874 0
M  V30 11555 C 1083.73 -1.81577 0.743261 0
M  V30 11556 O 1082.86 -2.16214 -0.0897153 0
M  V30 11557 C 1083.45 -1.28578 3.13454 0
M  V30 11558 C 1082.01 -1.79221 3.30994 0
M  V30 11559 C 1081.16 -0.681392 2.68798 0
M  V30 11560 H 1084.11 0.0804798 1.58496 0
M  V30 11561 H 1084.13 -2.15558 3.13552 0
M  V30 11562 H 1083.64 -0.477186 3.85155 0
M  V30 11563 H 1081.74 -2.62642 2.64292 0
M  V30 11564 H 1081.86 -1.91969 4.38959 0
M  V30 11565 H 1080.22 -1.10847 2.29314 0
M  V30 11566 H 1081 0.115786 3.43105 0
M  V30 11567 N 1083.45 -1.52049 -0.414609 0
M  V30 11568 C 1084.4 -1.75603 -1.52533 0
M  V30 11569 C 1085.39 -0.622965 -1.57529 0
M  V30 11570 O 1086.6 -0.804886 -1.61002 0
M  V30 11571 H 1082.97 -0.555222 -0.507181 0
M  V30 11572 H 1084.94 -2.68666 -1.2985 0
M  V30 11573 C 1083.69 -1.9188 -2.89961 0
M  V30 11574 H 1083.01 -2.78483 -2.86857 0
M  V30 11575 H 1084.45 -2.12363 -3.66985 0
M  V30 11576 C 1082.91 -0.684453 -3.29874 0
M  V30 11577 O 1083.44 0.150256 -4.01419 0
M  V30 11578 N 1081.65 -0.521936 -2.85874 0
M  V30 11579 H 1081.2 -1.20229 -2.27822 0
M  V30 11580 H 1081.15 0.302655 -3.1294 0
M  V30 11581 N 1084.93 0.6715 -1.42579 0
M  V30 11582 C 1086.15 1.46471 -1.46836 0
M  V30 11583 C 1086.58 1.87921 -0.0820658 0
M  V30 11584 O 1085.93 1.5621 0.920217 0
M  V30 11585 C 1085.98 2.68796 -2.40377 0
M  V30 11586 O 1085.09 3.67188 -1.87741 0
M  V30 11587 H 1084.43 0.439901 -0.497376 0
M  V30 11588 H 1086.96 0.823342 -1.87303 0
M  V30 11589 H 1086.97 3.16828 -2.57068 0
M  V30 11590 H 1085.64 2.37967 -3.41093 0
M  V30 11591 H 1084.22 3.26237 -1.80621 0
M  V30 11592 N 1086.4 1.28806 0.908124 0
M  V30 11593 C 1087.63 1.19271 1.69674 0
M  V30 11594 C 1088.05 -0.244403 1.86505 0
M  V30 11595 O 1087.41 -1.17668 1.37927 0
M  V30 11596 C 1087.46 1.9023 3.06341 0
M  V30 11597 O 1086.56 1.2136 3.94139 0
M  V30 11598 H 1085.9 0.413738 0.519343 0
M  V30 11599 H 1088.43 1.70227 1.13508 0
M  V30 11600 H 1088.44 1.98356 3.56537 0
M  V30 11601 H 1087.12 2.94762 2.93408 0
M  V30 11602 H 1085.7 1.21435 3.52573 0
M  V30 11603 N 1087.88 -1.11734 1.11145 0
M  V30 11604 C 1088.81 -2.16847 0.710809 0
M  V30 11605 C 1089.79 -1.59966 -0.291494 0
M  V30 11606 O 1090.98 -1.87554 -0.188645 0
M  V30 11607 C 1088.1 -3.38663 0.0499744 0
M  V30 11608 C 1087.15 -4.14199 1.01693 0
M  V30 11609 S 1087.98 -4.7154 2.53793 0
M  V30 11610 C 1089.14 -5.96682 1.89001 0
M  V30 11611 H 1089.37 -2.50497 1.60121 0
M  V30 11612 H 1086.9 -1.23311 0.929182 0
M  V30 11613 H 1088.86 -4.09212 -0.324959 0
M  V30 11614 H 1087.52 -3.03279 -0.817335 0
M  V30 11615 H 1086.72 -5.01494 0.501933 0
M  V30 11616 H 1086.32 -3.49395 1.33414 0
M  V30 11617 H 1088.61 -6.6634 1.22462 0
M  V30 11618 H 1089.55 -6.52821 2.74282 0
M  V30 11619 H 1089.96 -5.48084 1.35145 0
M  V30 11620 N 1089.36 -0.901303 -1.29284 0
M  V30 11621 C 1090.77 -0.576317 -1.77582 0
M  V30 11622 C 1091.12 0.908078 -1.73921 0
M  V30 11623 O 1090.25 1.71006 -1.32611 0
M  V30 11624 C 1090.84 -1.03938 -3.22463 0
M  V30 11625 C 1089.4 -0.765533 -3.68533 0
M  V30 11626 C 1088.55 -1.21318 -2.49354 0
M  V30 11627 H 1091.5 -1.08386 -1.15923 0
M  V30 11628 H 1091.52 -0.375367 -3.78644 0
M  V30 11629 H 1091.03 -2.11977 -3.25096 0
M  V30 11630 H 1089.13 0.302176 -3.71373 0
M  V30 11631 H 1089.25 -1.36454 -4.59257 0
M  V30 11632 H 1087.61 -0.632141 -2.46731 0
M  V30 11633 H 1088.39 -2.30165 -2.54714 0
M  V30 11634 N 1090.84 1.42931 -0.663954 0
M  V30 11635 C 1092.09 2.01284 -0.181379 0
M  V30 11636 C 1092.41 1.52708 1.21265 0
M  V30 11637 O 1091.68 0.744181 1.81215 0
M  V30 11638 H 1090.26 0.744248 -0.0640646 0
M  V30 11639 H 1092.92 1.74997 -0.858031 0
M  V30 11640 H 1092.01 3.11613 -0.174273 0
M  V30 11641 N 1092.32 0.406567 1.52266 0
M  V30 11642 C 1093.54 -0.172101 2.06685 0
M  V30 11643 C 1093.97 -1.38306 1.27488 0
M  V30 11644 O 1093.32 -1.78726 0.304441 0
M  V30 11645 C 1093.37 -0.503463 3.57068 0
M  V30 11646 O 1092.48 -1.59485 3.80314 0
M  V30 11647 H 1091.82 -0.0153209 0.663823 0
M  V30 11648 H 1094.35 0.579025 1.96236 0
M  V30 11649 H 1094.36 -0.762833 4.00805 0
M  V30 11650 H 1093.03 0.381775 4.14144 0
M  V30 11651 H 1091.61 -1.32784 3.48458 0
M  V30 11652 N 1093.79 -1.57004 0.136909 0
M  V30 11653 C 1095.21 -1.58082 -0.21958 0
M  V30 11654 C 1095.41 -1.15065 -1.65415 0
M  V30 11655 O 1094.47 -0.846284 -2.37896 0
M  V30 11656 C 1095.78 -3.00685 0.0300112 0
M  V30 11657 C 1097.33 -3.12981 -0.0344899 0
M  V30 11658 C 1097.8 -4.57615 0.187639 0
M  V30 11659 N 1099.29 -4.63005 0.134219 0
M  V30 11660 C 1100.03 -5.72712 0.280743 0
M  V30 11661 N 1099.52 -6.91104 0.48443 0
M  V30 11662 N 1101.32 -5.61673 0.219055 0
M  V30 11663 H 1093.47 -1.83262 1.07372 0
M  V30 11664 H 1095.73 -0.847776 0.424241 0
M  V30 11665 H 1095.44 -3.36509 1.02247 0
M  V30 11666 H 1095.31 -3.70762 -0.693918 0
M  V30 11667 H 1097.7 -2.77004 -1.01749 0
M  V30 11668 H 1097.78 -2.45411 0.721608 0
M  V30 11669 H 1097.42 -4.94295 1.16769 0
M  V30 11670 H 1097.35 -5.23299 -0.588661 0
M  V30 11671 H 1099.84 -3.77895 -0.0189681 0
M  V30 11672 H 1100.16 -7.7057 0.586613 0
M  V30 11673 H 1098.5 -6.93047 0.520627 0
M  V30 11674 H 1101.69 -4.68061 0.0607606 0
M  V30 11675 H 1101.87 -6.47125 0.336683 0
M  V30 11676 N 1095.27 0.136881 -1.57004 0
M  V30 11677 C 1096.18 1.18793 -2.023 0
M  V30 11678 C 1097.2 1.46412 -0.94018 0
M  V30 11679 O 1098.37 1.57883 -1.2504 0
M  V30 11680 C 1095.44 2.49903 -2.40311 0
M  V30 11681 C 1094.5 2.29841 -3.6259 0
M  V30 11682 C 1093.73 3.54699 -3.98779 0
M  V30 11683 O 1093.96 4.61291 -3.3551 0
M  V30 11684 O 1092.89 3.46761 -4.91976 0
M  V30 11685 H 1096.72 0.833345 -2.92043 0
M  V30 11686 H 1094.3 0.346361 -1.4533 0
M  V30 11687 H 1096.18 3.27183 -2.65574 0
M  V30 11688 H 1094.86 2.84872 -1.5372 0
M  V30 11689 H 1093.77 1.50478 -3.42501 0
M  V30 11690 H 1095.1 1.99784 -4.4983 0
M  V30 11691 N 1096.75 1.52266 0.40654 0
M  V30 11692 C 1098 1.66699 1.15496 0
M  V30 11693 C 1098.33 0.397019 1.90098 0
M  V30 11694 O 1097.6 -0.604646 1.84863 0
M  V30 11695 C 1097.89 2.8907 2.14734 0
M  V30 11696 C 1097.74 4.26123 1.44012 0
M  V30 11697 C 1099.06 3.06966 3.15373 0
M  V30 11698 H 1096.18 0.606642 0.418515 0
M  V30 11699 H 1098.82 1.84826 0.440381 0
M  V30 11700 H 1096.97 2.73745 2.75673 0
M  V30 11701 H 1098.64 4.5318 0.861722 0
M  V30 11702 H 1096.89 4.27406 0.742064 0
M  V30 11703 H 1097.56 5.07799 2.16436 0
M  V30 11704 H 1100.03 3.21205 2.64512 0
M  V30 11705 H 1098.91 3.94097 3.82072 0
M  V30 11706 H 1099.17 2.20395 3.83247 0
M  V30 11707 N 1098.23 -0.663929 1.42933 0
M  V30 11708 C 1099.16 -1.78946 1.43217 0
M  V30 11709 C 1100.17 -1.59426 0.329727 0
M  V30 11710 O 1101.36 -1.68344 0.5935 0
M  V30 11711 C 1098.46 -3.16217 1.21902 0
M  V30 11712 C 1097.64 -3.6249 2.44785 0
M  V30 11713 C 1096.69 -4.78529 2.18853 0
M  V30 11714 O 1095.72 -4.88516 2.92131 0
M  V30 11715 N 1096.92 -5.67994 1.19845 0
M  V30 11716 H 1099.69 -1.79184 2.40236 0
M  V30 11717 H 1097.25 -0.847404 1.37952 0
M  V30 11718 H 1099.24 -3.91517 1.02454 0
M  V30 11719 H 1097.81 -3.10814 0.333676 0
M  V30 11720 H 1097.03 -2.77751 2.79729 0
M  V30 11721 H 1098.32 -3.90151 3.26588 0
M  V30 11722 H 1097.72 -5.62588 0.59259 0
M  V30 11723 H 1096.27 -6.4306 1.06382 0
M  V30 11724 N 1099.71 -1.29285 -0.901281 0
M  V30 11725 C 1100.96 -1.16538 -1.64626 0
M  V30 11726 C 1101.27 0.282623 -1.93547 0
M  V30 11727 O 1102.47 0.531396 -2.66249 0
M  V30 11728 C 1100.93 -2.03809 -2.96631 0
M  V30 11729 C 1100.54 -3.53423 -2.75311 0
M  V30 11730 C 1102.28 -1.99782 -3.7455 0
M  V30 11731 C 1100.19 -4.32804 -4.03032 0
M  V30 11732 H 1099.12 -0.432561 -0.617581 0
M  V30 11733 H 1101.77 -1.53912 -0.999159 0
M  V30 11734 H 1100.15 -1.59302 -3.62545 0
M  V30 11735 H 1101.33 -4.05971 -2.18 0
M  V30 11736 H 1099.64 -3.59106 -2.10789 0
M  V30 11737 H 1102.24 -2.5635 -4.69243 0
M  V30 11738 H 1102.58 -0.97743 -4.04663 0
M  V30 11739 H 1103.11 -2.42324 -3.15474 0
M  V30 11740 H 1099.85 -5.35473 -3.78086 0
M  V30 11741 H 1099.37 -3.85025 -4.59909 0
M  V30 11742 H 1101.05 -4.43383 -4.71191 0
M  V30 11743 N 1101.18 1.11143 -1.11736 0
M  V30 11744 C 1102.13 2.15396 -0.747566 0
M  V30 11745 C 1103.12 1.58948 0.249894 0
M  V30 11746 O 1104.31 1.7691 0.0565267 0
M  V30 11747 C 1101.44 3.42741 -0.195776 0
M  V30 11748 C 1100.53 4.06141 -1.22109 0
M  V30 11749 N 1100.92 4.44351 -2.41631 0
M  V30 11750 C 1099.21 4.33104 -1.06474 0
M  V30 11751 C 1099.92 4.94062 -3.07046 0
M  V30 11752 N 1098.89 4.90411 -2.34516 0
M  V30 11753 H 1102.69 2.42722 -1.6572 0
M  V30 11754 H 1100.21 1.28189 -0.997059 0
M  V30 11755 H 1102.2 4.16809 0.0872984 0
M  V30 11756 H 1100.86 3.16878 0.708406 0
M  V30 11757 H 1101.88 4.36283 -2.79065 0
M  V30 11758 H 1098.55 4.16934 -0.217246 0
M  V30 11759 H 1099.94 5.33234 -4.08792 0
M  V30 11760 N 1102.66 0.908147 1.28804 0
M  V30 11761 C 1104.07 0.585727 1.77274 0
M  V30 11762 C 1104.42 -0.898842 1.744 0
M  V30 11763 O 1103.55 -1.70301 1.33516 0
M  V30 11764 C 1104.14 1.05647 3.21907 0
M  V30 11765 C 1102.7 0.785066 3.68122 0
M  V30 11766 C 1101.85 1.22638 2.48707 0
M  V30 11767 H 1104.8 1.09 1.15346 0
M  V30 11768 H 1104.82 0.395442 3.7844 0
M  V30 11769 H 1104.33 2.13698 3.23967 0
M  V30 11770 H 1102.44 -0.282477 3.71528 0
M  V30 11771 H 1102.55 1.38888 4.58527 0
M  V30 11772 H 1100.91 0.645217 2.46392 0
M  V30 11773 H 1101.7 2.31512 2.5349 0
M  V30 11774 N 1104.14 -1.42577 0.671525 0
M  V30 11775 C 1105.42 -1.95222 0.121529 0
M  V30 11776 C 1105.8 -1.61209 -1.36289 0
M  V30 11777 O 1105.15 -0.906561 -2.09747 0
M  V30 11778 C 1105.36 -3.46846 0.387189 0
M  V30 11779 C 1106.7 -4.23525 0.301938 0
M  V30 11780 O 1107.73 -3.54753 0.320755 0
M  V30 11781 O 1106.59 -5.45967 0.241317 0
M  V30 11782 H 1103.68 -0.826999 0.000968615 0
M  V30 11783 H 1106.23 -1.52422 0.746029 0
M  V30 11784 H 1105 -3.64795 1.41563 0
M  V30 11785 H 1104.62 -3.96686 -0.26948 0
M  V30 11786 N 1105.62 -0.414636 -1.52048 0
M  V30 11787 C 1106.84 0.161137 -2.06773 0
M  V30 11788 C 1107.27 1.37628 -1.2822 0
M  V30 11789 O 1106.63 1.78562 -0.313915 0
M  V30 11790 C 1106.67 0.48452 -3.5733 0
M  V30 11791 O 1105.78 1.57466 -3.81154 0
M  V30 11792 H 1105.12 0.0118003 -0.663895 0
M  V30 11793 H 1107.65 -0.589424 -1.95926 0
M  V30 11794 H 1107.66 0.741567 -4.01204 0
M  V30 11795 H 1106.33 -0.403733 -4.13936 0
M  V30 11796 H 1104.91 1.30935 -3.49157 0
M  V30 11797 N 1107.1 1.56929 -0.145233 0
M  V30 11798 C 1108.37 1.8767 0.551288 0
M  V30 11799 C 1108.75 1.05089 1.83083 0
M  V30 11800 O 1108.1 0.137201 2.28088 0
M  V30 11801 C 1108.31 3.39268 0.818445 0
M  V30 11802 C 1109.66 4.08447 1.16 0
M  V30 11803 O 1110.68 3.44436 0.907857 0
M  V30 11804 O 1109.54 5.21488 1.63441 0
M  V30 11805 H 1106.64 0.777788 0.281024 0
M  V30 11806 H 1109.18 1.68724 -0.181712 0
M  V30 11807 H 1107.95 3.91203 -0.0871897 0
M  V30 11808 H 1107.58 3.63735 1.60569 0
M  V30 11809 N 1108.58 -0.128553 1.57075 0
M  V30 11810 C 1109.51 -1.18362 1.96273 0
M  V30 11811 C 1110.52 -1.3818 0.860818 0
M  V30 11812 O 1111.71 -1.37424 1.13916 0
M  V30 11813 C 1108.81 -2.54533 2.23755 0
M  V30 11814 C 1107.98 -2.55446 3.55058 0
M  V30 11815 C 1107.04 -3.73291 3.70864 0
M  V30 11816 O 1106.07 -3.57315 4.43074 0
M  V30 11817 N 1107.27 -4.91481 3.08912 0
M  V30 11818 H 1110.03 -0.850276 2.87385 0
M  V30 11819 H 1107.6 -0.317931 1.58748 0
M  V30 11820 H 1109.59 -3.31912 2.31553 0
M  V30 11821 H 1108.16 -2.80087 1.38816 0
M  V30 11822 H 1107.38 -1.6385 3.58534 0
M  V30 11823 H 1108.67 -2.53104 4.4138 0
M  V30 11824 H 1108.06 -5.07364 2.50196 0
M  V30 11825 H 1106.62 -5.6657 3.22245 0
M  V30 11826 N 1110.05 -1.5248 -0.398459 0
M  V30 11827 C 1111.3 -1.66287 -1.14155 0
M  V30 11828 C 1111.62 -0.40429 -1.91376 0
M  V30 11829 O 1112.82 -0.422341 -2.68195 0
M  V30 11830 C 1111.28 -2.93831 -2.07825 0
M  V30 11831 C 1110.89 -4.26836 -1.3607 0
M  V30 11832 C 1112.63 -3.17004 -2.82327 0
M  V30 11833 C 1110.54 -5.45495 -2.28451 0
M  V30 11834 H 1109.47 -0.619478 -0.42984 0
M  V30 11835 H 1112.12 -1.78972 -0.405112 0
M  V30 11836 H 1110.5 -2.7487 -2.85065 0
M  V30 11837 H 1111.67 -4.56317 -0.641205 0
M  V30 11838 H 1109.99 -4.0985 -0.735659 0
M  V30 11839 H 1112.59 -4.02834 -3.51609 0
M  V30 11840 H 1112.93 -2.3168 -3.45876 0
M  V30 11841 H 1113.46 -3.36487 -2.12183 0
M  V30 11842 H 1110.2 -6.33198 -1.69532 0
M  V30 11843 H 1109.72 -5.20338 -2.98343 0
M  V30 11844 H 1111.4 -5.78996 -2.88743 0
M  V30 11845 N 1111.53 0.65634 -1.43283 0
M  V30 11846 C 1112.76 1.44906 -1.48382 0
M  V30 11847 C 1113.18 1.87823 -0.101993 0
M  V30 11848 O 1112.54 1.57178 0.903597 0
M  V30 11849 C 1112.59 2.66231 -2.43215 0
M  V30 11850 O 1111.69 3.65176 -1.91625 0
M  V30 11851 H 1111.03 0.434601 -0.502014 0
M  V30 11852 H 1113.56 0.803429 -1.88165 0
M  V30 11853 H 1113.57 3.14083 -2.60414 0
M  V30 11854 H 1112.25 2.34336 -3.43598 0
M  V30 11855 H 1110.82 3.24302 -1.84072 0
M  V30 11856 N 1113.01 1.29761 0.894412 0
M  V30 11857 C 1114.26 1.17806 1.64214 0
M  V30 11858 C 1114.58 -0.269588 1.93127 0
M  V30 11859 O 1113.85 -1.18352 1.56107 0
M  V30 11860 H 1112.43 0.433002 0.608702 0
M  V30 11861 H 1115.09 1.6276 1.07216 0
M  V30 11862 H 1114.19 1.73201 2.5963 0
M  V30 11863 N 1114.49 -1.10549 1.12324 0
M  V30 11864 C 1115.42 -2.18911 0.812416 0
M  V30 11865 C 1116.4 -1.68628 -0.22327 0
M  V30 11866 O 1117.58 -1.94015 -0.0847184 0
M  V30 11867 C 1114.71 -3.46288 0.264947 0
M  V30 11868 C 1113.67 -4.09838 1.23356 0
M  V30 11869 C 1112.99 -5.31901 0.546374 0
M  V30 11870 C 1114.29 -4.53686 2.58778 0
M  V30 11871 H 1115.99 -2.45169 1.71851 0
M  V30 11872 H 1113.53 -1.17834 0.827715 0
M  V30 11873 H 1115.49 -4.21385 0.0352364 0
M  V30 11874 H 1114.21 -3.19517 -0.676479 0
M  V30 11875 H 1112.87 -3.36746 1.44906 0
M  V30 11876 H 1112.52 -5.01406 -0.400157 0
M  V30 11877 H 1112.22 -5.75372 1.19249 0
M  V30 11878 H 1113.74 -6.09731 0.325673 0
M  V30 11879 H 1115.16 -5.20063 2.41263 0
M  V30 11880 H 1113.55 -5.08003 3.19457 0
M  V30 11881 H 1114.62 -3.66665 3.17309 0
M  V30 11882 N 1115.97 -0.914965 -1.28321 0
M  V30 11883 C 1116.92 -0.375436 -2.24888 0
M  V30 11884 C 1117.9 0.51313 -1.52498 0
M  V30 11885 O 1119.09 0.352654 -1.73451 0
M  V30 11886 C 1116.22 0.382266 -3.41165 0
M  V30 11887 C 1115.31 -0.522089 -4.20874 0
M  V30 11888 N 1115.7 -1.63623 -4.78603 0
M  V30 11889 C 1114 -0.322703 -4.44831 0
M  V30 11890 C 1114.7 -2.19766 -5.38589 0
M  V30 11891 N 1113.67 -1.48878 -5.22816 0
M  V30 11892 H 1117.47 -1.2263 -2.67094 0
M  V30 11893 H 1114.99 -0.767759 -1.43106 0
M  V30 11894 H 1116.99 0.785641 -4.0943 0
M  V30 11895 H 1115.65 1.23021 -3.00493 0
M  V30 11896 H 1116.66 -2.01879 -4.76933 0
M  V30 11897 H 1113.33 0.485627 -4.14666 0
M  V30 11898 H 1114.72 -3.13494 -5.94282 0
M  V30 11899 N 1117.44 1.42219 -0.679077 0
M  V30 11900 C 1118.69 2.01081 -0.202718 0
M  V30 11901 C 1119.01 1.53986 1.19639 0
M  V30 11902 O 1118.28 0.763359 1.80415 0
M  V30 11903 H 1116.86 0.743526 -0.0719547 0
M  V30 11904 H 1119.52 1.74077 -0.876544 0
M  V30 11905 H 1118.62 3.11411 -0.207314 0
M  V30 11906 N 1118.92 0.422693 1.51826 0
M  V30 11907 C 1119.87 -0.41063 2.28947 0
M  V30 11908 C 1120.86 -1.03389 1.34191 0
M  V30 11909 O 1122.07 -0.970533 1.51594 0
M  V30 11910 H 1118.44 -0.151219 0.736639 0
M  V30 11911 H 1120.42 0.260859 2.97258 0
M  V30 11912 C 1119.16 -1.50758 3.13317 0
M  V30 11913 H 1118.49 -1.03734 3.86108 0
M  V30 11914 H 1119.93 -2.0642 3.7036 0
M  V30 11915 C 1118.39 -2.48261 2.27746 0
M  V30 11916 O 1118.92 -3.52462 1.92701 0
M  V30 11917 N 1117.12 -2.18795 1.91251 0
M  V30 11918 H 1116.67 -1.34088 2.1995 0
M  V30 11919 H 1116.63 -2.84276 1.34293 0
M  V30 11920 N 1120.4 -1.5685 0.153553 0
M  V30 11921 C 1121.62 -2.01135 -0.505904 0
M  V30 11922 C 1122.05 -1.03301 -1.57196 0
M  V30 11923 O 1121.41 -0.00976022 -1.81297 0
M  V30 11924 C 1121.46 -3.44129 -1.0774 0
M  V30 11925 O 1120.56 -3.49318 -2.19205 0
M  V30 11926 H 1119.9 -0.652496 -0.123062 0
M  V30 11927 H 1122.43 -2.03039 0.252216 0
M  V30 11928 H 1122.44 -3.83066 -1.40444 0
M  V30 11929 H 1121.12 -4.1484 -0.296754 0
M  V30 11930 H 1119.69 -3.22227 -1.8768 0
M  V30 11931 N 1121.88 0.120221 -1.57141 0
M  V30 11932 C 1123.12 0.828222 -1.84788 0
M  V30 11933 C 1123.45 1.79936 -0.738459 0
M  V30 11934 O 1122.71 1.93824 0.270295 0
M  V30 11935 C 1123.01 1.61338 -3.18912 0
M  V30 11936 C 1122.67 0.786637 -4.43985 0
M  V30 11937 C 1121.33 0.558645 -4.77946 0
M  V30 11938 C 1123.69 0.210281 -5.20776 0
M  V30 11939 C 1121.01 -0.255975 -5.86141 0
M  V30 11940 C 1123.37 -0.591523 -6.29828 0
M  V30 11941 C 1122.03 -0.829843 -6.62322 0
M  V30 11942 H 1121.3 0.303068 -0.676188 0
M  V30 11943 H 1123.95 0.0906538 -1.91285 0
M  V30 11944 H 1122.25 2.42182 -3.07986 0
M  V30 11945 H 1123.95 2.16513 -3.37525 0
M  V30 11946 H 1120.54 0.974426 -4.17376 0
M  V30 11947 H 1124.72 0.373641 -4.94892 0
M  V30 11948 H 1119.98 -0.449849 -6.09743 0
M  V30 11949 H 1124.15 -1.04512 -6.88513 0
M  V30 11950 H 1121.78 -1.4629 -7.45992 0
M  V30 11951 N 1123.36 1.52689 0.390367 0
M  V30 11952 C 1124.31 1.73751 1.4763 0
M  V30 11953 C 1125.29 0.591572 1.4963 0
M  V30 11954 O 1126.48 0.849354 1.5529 0
M  V30 11955 C 1123.61 1.90855 2.85358 0
M  V30 11956 C 1122.7 3.11377 2.87933 0
M  V30 11957 N 1123.09 4.33751 2.6018 0
M  V30 11958 C 1121.39 3.11594 3.19101 0
M  V30 11959 C 1122.09 5.15346 2.69803 0
M  V30 11960 N 1121.06 4.51002 3.03476 0
M  V30 11961 H 1124.87 2.65994 1.24997 0
M  V30 11962 H 1122.38 1.50977 0.598301 0
M  V30 11963 H 1124.38 2.04065 3.63542 0
M  V30 11964 H 1123.04 0.998241 3.08974 0
M  V30 11965 H 1124.05 4.61907 2.34227 0
M  V30 11966 H 1120.72 2.30368 3.48191 0
M  V30 11967 H 1122.11 6.22892 2.51902 0
M  V30 11968 N 1124.83 -0.648732 1.43629 0
M  V30 11969 C 1126.06 -1.44117 1.49148 0
M  V30 11970 C 1126.48 -1.87767 0.111952 0
M  V30 11971 O 1125.84 -1.57655 -0.895249 0
M  V30 11972 C 1125.89 -2.64938 2.44623 0
M  V30 11973 O 1124.99 -3.64155 1.93559 0
M  V30 11974 H 1124.34 -0.431933 0.504312 0
M  V30 11975 H 1126.87 -0.793439 1.88589 0
M  V30 11976 H 1126.88 -3.12698 2.62076 0
M  V30 11977 H 1125.55 -2.3251 3.44836 0
M  V30 11978 H 1124.13 -3.23322 1.85789 0
M  V30 11979 N 1126.31 -1.30234 -0.887518 0
M  V30 11980 C 1127.22 -1.18316 -2.02579 0
M  V30 11981 C 1128.24 -0.103658 -1.73691 0
M  V30 11982 O 1129.41 -0.3181 -1.98872 0
M  V30 11983 C 1126.48 -0.873222 -3.35523 0
M  V30 11984 C 1125.54 -2.03783 -3.7785 0
M  V30 11985 C 1124.77 -1.74258 -5.0445 0
M  V30 11986 O 1125 -0.669295 -5.6646 0
M  V30 11987 O 1123.93 -2.59423 -5.43124 0
M  V30 11988 H 1127.76 -2.13933 -2.15561 0
M  V30 11989 H 1125.34 -1.09803 -1.0131 0
M  V30 11990 H 1127.22 -0.715463 -4.15282 0
M  V30 11991 H 1125.9 0.053056 -3.23657 0
M  V30 11992 H 1124.81 -2.2509 -2.98806 0
M  V30 11993 H 1126.14 -2.94574 -3.94318 0
M  V30 11994 N 1127.79 1.09952 -1.12909 0
M  V30 11995 C 1129.07 1.78547 -0.798767 0
M  V30 11996 C 1129.45 1.9878 0.710624 0
M  V30 11997 O 1128.8 1.58485 1.64604 0
M  V30 11998 C 1129.01 3.1121 -1.57953 0
M  V30 11999 C 1130.35 3.86006 -1.76874 0
M  V30 12000 O 1131.38 3.20946 -1.54506 0
M  V30 12001 O 1130.24 5.02791 -2.14158 0
M  V30 12002 H 1127.33 0.774084 -0.291072 0
M  V30 12003 H 1129.88 1.16557 -1.2334 0
M  V30 12004 H 1128.65 2.91935 -2.60557 0
M  V30 12005 H 1128.27 3.80922 -1.13948 0
M  V30 12006 N 1129.27 0.921757 1.27833 0
M  V30 12007 C 1130.18 0.421668 2.30779 0
M  V30 12008 C 1131.19 -0.494686 1.6682 0
M  V30 12009 O 1132.37 -0.378935 1.97803 0
M  V30 12010 C 1129.44 -0.322928 3.45193 0
M  V30 12011 C 1128.5 0.627618 4.24687 0
M  V30 12012 C 1127.73 -0.0815385 5.33638 0
M  V30 12013 O 1127.95 -1.30193 5.55343 0
M  V30 12014 O 1126.89 0.58725 5.99028 0
M  V30 12015 H 1130.71 1.2763 2.7558 0
M  V30 12016 H 1128.3 0.686877 1.32674 0
M  V30 12017 H 1130.18 -0.743145 4.14796 0
M  V30 12018 H 1128.85 -1.15326 3.02459 0
M  V30 12019 H 1127.76 1.09739 3.57642 0
M  V30 12020 H 1129.09 1.425 4.71121 0
M  V30 12021 N 1130.75 -1.41857 0.686609 0
M  V30 12022 C 1132 -2.00594 0.21095 0
M  V30 12023 C 1132.31 -1.54974 -1.19341 0
M  V30 12024 O 1133.51 -2.0621 -1.76607 0
M  V30 12025 C 1131.97 -3.58418 0.326261 0
M  V30 12026 C 1131.58 -4.13022 1.73542 0
M  V30 12027 C 1133.32 -4.24404 -0.0900816 0
M  V30 12028 C 1131.23 -5.6325 1.80287 0
M  V30 12029 H 1130.16 -0.75025 0.0751077 0
M  V30 12030 H 1132.81 -1.62442 0.853508 0
M  V30 12031 H 1131.19 -3.9413 -0.384394 0
M  V30 12032 H 1132.37 -3.88747 2.47411 0
M  V30 12033 H 1130.68 -3.5953 2.10065 0
M  V30 12034 H 1133.28 -5.34666 -0.060004 0
M  V30 12035 H 1133.62 -4.00745 -1.12733 0
M  V30 12036 H 1134.15 -3.93695 0.569979 0
M  V30 12037 H 1130.89 -5.91724 2.82034 0
M  V30 12038 H 1130.41 -5.89479 1.1079 0
M  V30 12039 H 1132.09 -6.2787 1.56167 0
M  V30 12040 N 1132.22 -0.430739 -1.51599 0
M  V30 12041 C 1133.13 0.390347 -2.3133 0
M  V30 12042 C 1134.15 1.03376 -1.39962 0
M  V30 12043 O 1135.33 1.03057 -1.73035 0
M  V30 12044 C 1132.39 1.48039 -3.13505 0
M  V30 12045 C 1131.45 0.857792 -4.20643 0
M  V30 12046 C 1130.69 1.89589 -4.9889 0
M  V30 12047 O 1130.91 3.11717 -4.77691 0
M  V30 12048 O 1129.84 1.49009 -5.83164 0
M  V30 12049 H 1133.67 -0.260358 -3.02582 0
M  V30 12050 H 1131.25 -0.193428 -1.48143 0
M  V30 12051 H 1133.14 2.11272 -3.64612 0
M  V30 12052 H 1131.81 2.1153 -2.45024 0
M  V30 12053 H 1130.72 0.187592 -3.73629 0
M  V30 12054 H 1132.05 0.266474 -4.91478 0
M  V30 12055 N 1133.7 1.56767 -0.161869 0
M  V30 12056 C 1134.93 2.00673 0.491314 0
M  V30 12057 C 1135.34 1.04111 1.5798 0
M  V30 12058 O 1134.68 0.0324889 1.83671 0
M  V30 12059 C 1134.75 3.41011 1.13806 0
M  V30 12060 C 1134.41 4.56595 0.192384 0
M  V30 12061 C 1135.41 5.16591 -0.585671 0
M  V30 12062 C 1133.09 5.02218 0.0909594 0
M  V30 12063 C 1135.09 6.20631 -1.45245 0
M  V30 12064 C 1132.77 6.06109 -0.77941 0
M  V30 12065 C 1133.77 6.65187 -1.54971 0
M  V30 12066 O 1133.46 7.67065 -2.40555 0
M  V30 12067 H 1133.19 0.663174 0.131059 0
M  V30 12068 H 1135.74 2.03775 -0.257896 0
M  V30 12069 H 1133.97 3.34793 1.93521 0
M  V30 12070 H 1135.66 3.68931 1.69248 0
M  V30 12071 H 1136.43 4.82232 -0.517432 0
M  V30 12072 H 1132.31 4.55953 0.680292 0
M  V30 12073 H 1135.85 6.66671 -2.05415 0
M  V30 12074 H 1131.75 6.39894 -0.848887 0
M  V30 12075 H 1132.52 7.84348 -2.33966 0
M  V30 12076 N 1135.18 -0.111886 1.57202 0
M  V30 12077 C 1136.09 -1.1556 2.04165 0
M  V30 12078 C 1137.11 -1.44898 0.963354 0
M  V30 12079 O 1138.28 -1.55873 1.27536 0
M  V30 12080 C 1135.35 -2.46048 2.44256 0
M  V30 12081 C 1134.41 -2.24043 3.66201 0
M  V30 12082 C 1133.64 -3.4831 4.04371 0
M  V30 12083 O 1133.86 -4.55895 3.42806 0
M  V30 12084 O 1132.8 -3.38891 4.9743 0
M  V30 12085 H 1136.62 -0.786778 2.93332 0
M  V30 12086 H 1134.21 -0.323196 1.45862 0
M  V30 12087 H 1136.09 -3.22916 2.70745 0
M  V30 12088 H 1134.77 -2.8239 1.58233 0
M  V30 12089 H 1133.67 -1.4501 3.44852 0
M  V30 12090 H 1135.01 -1.92602 4.52952 0
M  V30 12091 N 1136.66 -1.52894 -0.382264 0
M  V30 12092 C 1137.61 -1.78799 -1.48774 0
M  V30 12093 C 1138.6 -0.65624 -1.56173 0
M  V30 12094 O 1139.81 -0.838856 -1.59258 0
M  V30 12095 H 1136.18 -0.565855 -0.49529 0
M  V30 12096 H 1138.15 -2.7136 -1.24122 0
M  V30 12097 C 1136.9 -1.97987 -2.85826 0
M  V30 12098 H 1136.22 -2.84505 -2.80886 0
M  V30 12099 H 1137.66 -2.20099 -3.62398 0
M  V30 12100 C 1136.12 -0.75427 -3.28348 0
M  V30 12101 O 1136.65 0.0650749 -4.01647 0
M  V30 12102 N 1134.86 -0.582457 -2.84703 0
M  V30 12103 H 1134.41 -1.25034 -2.2522 0
M  V30 12104 H 1134.36 0.236208 -3.13511 0
M  V30 12105 N 1138.14 0.641106 -1.43971 0
M  V30 12106 C 1139.07 1.76645 -1.46046 0
M  V30 12107 C 1140.08 1.58881 -0.355049 0
M  V30 12108 O 1141.27 1.67379 -0.620207 0
M  V30 12109 C 1138.37 3.14237 -1.26918 0
M  V30 12110 C 1137.54 3.5855 -2.50521 0
M  V30 12111 C 1136.6 4.74986 -2.26438 0
M  V30 12112 O 1135.63 4.83807 -2.99866 0
M  V30 12113 N 1136.83 5.66016 -1.28866 0
M  V30 12114 H 1139.6 1.75339 -2.43056 0
M  V30 12115 H 1137.16 0.82535 -1.39282 0
M  V30 12116 H 1139.15 3.89837 -1.0867 0
M  V30 12117 H 1137.72 3.10244 -0.383082 0
M  V30 12118 H 1136.94 2.73265 -2.84112 0
M  V30 12119 H 1138.23 3.84906 -3.32754 0
M  V30 12120 H 1137.63 5.61574 -0.682018 0
M  V30 12121 H 1136.18 6.41286 -1.16599 0
M  V30 12122 N 1139.62 1.30703 0.880598 0
M  V30 12123 C 1140.56 1.17455 1.98678 0
M  V30 12124 C 1141.53 0.0629569 1.65981 0
M  V30 12125 O 1142.72 0.233926 1.89361 0
M  V30 12126 C 1139.86 0.876882 3.33774 0
M  V30 12127 C 1138.97 2.07078 3.79134 0
M  V30 12128 C 1138.11 1.71082 5.02896 0
M  V30 12129 C 1137.14 2.86942 5.40676 0
M  V30 12130 N 1136.28 2.51212 6.55619 0
M  V30 12131 H 1141.12 2.12086 2.09341 0
M  V30 12132 H 1138.66 1.05514 1.02495 0
M  V30 12133 H 1140.62 0.684899 4.1154 0
M  V30 12134 H 1139.25 -0.0325633 3.22784 0
M  V30 12135 H 1138.3 2.37388 2.97239 0
M  V30 12136 H 1139.61 2.9383 4.0307 0
M  V30 12137 H 1138.76 1.48284 5.883 0
M  V30 12138 H 1137.5 0.815064 4.80841 0
M  V30 12139 H 1136.51 3.10401 4.53797 0
M  V30 12140 H 1137.73 3.77211 5.64703 0
M  V30 12141 H 1135.68 1.64147 6.35131 0
M  V30 12142 H 1135.6 3.31495 6.79446 0
M  V30 12143 H 1136.86 2.31781 7.44243 0
M  V30 12144 N 1141.09 -1.09351 1.1349 0
M  V30 12145 C 1142.51 -1.3359 0.873269 0
M  V30 12146 C 1142.71 -1.95432 -0.490767 0
M  V30 12147 O 1141.77 -2.20117 -1.23712 0
M  V30 12148 C 1143.08 -2.24681 1.99847 0
M  V30 12149 C 1144.63 -2.38188 2.03065 0
M  V30 12150 C 1145.1 -3.32615 3.14851 0
M  V30 12151 N 1146.59 -3.40188 3.14366 0
M  V30 12152 C 1147.33 -4.13256 3.97501 0
M  V30 12153 N 1146.82 -4.89114 4.90652 0
M  V30 12154 N 1148.62 -4.08988 3.85597 0
M  V30 12155 H 1140.77 -0.675852 2.0136 0
M  V30 12156 H 1143.03 -0.360268 0.876876 0
M  V30 12157 H 1142.74 -1.86469 2.98198 0
M  V30 12158 H 1142.61 -3.25075 1.91327 0
M  V30 12159 H 1145 -2.75663 1.05327 0
M  V30 12160 H 1145.08 -1.3757 2.15658 0
M  V30 12161 H 1144.72 -2.95863 4.12829 0
M  V30 12162 H 1144.65 -4.33139 2.99496 0
M  V30 12163 H 1147.14 -2.861 2.46892 0
M  V30 12164 H 1147.46 -5.423 5.50573 0
M  V30 12165 H 1145.8 -4.882 4.94657 0
M  V30 12166 H 1148.99 -3.48826 3.12151 0
M  V30 12167 H 1149.17 -4.65671 4.50615 0
M  V30 12168 N 1142.57 -0.928524 -1.27343 0
M  V30 12169 C 1143.5 -0.445627 -2.29208 0
M  V30 12170 C 1144.48 0.494508 -1.62753 0
M  V30 12171 O 1145.67 0.399082 -1.90055 0
M  V30 12172 C 1142.8 0.301684 -3.45987 0
M  V30 12173 C 1141.75 -0.550695 -4.24442 0
M  V30 12174 C 1141.08 0.325833 -5.33706 0
M  V30 12175 C 1142.38 -1.81559 -4.89728 0
M  V30 12176 H 1144.07 -1.29696 -2.69851 0
M  V30 12177 H 1141.62 -0.625085 -1.29725 0
M  V30 12178 H 1143.57 0.650455 -4.1635 0
M  V30 12179 H 1142.29 1.18705 -3.04264 0
M  V30 12180 H 1140.95 -0.882185 -3.55827 0
M  V30 12181 H 1140.6 1.21018 -4.88225 0
M  V30 12182 H 1140.3 -0.240994 -5.87106 0
M  V30 12183 H 1141.83 0.670156 -6.06911 0
M  V30 12184 H 1143.24 -1.53483 -5.52373 0
M  V30 12185 H 1141.64 -2.32598 -5.53189 0
M  V30 12186 H 1142.71 -2.53461 -4.13383 0
M  V30 12187 N 1144.05 1.41491 -0.694123 0
M  V30 12188 C 1144.96 2.34583 -0.0283414 0
M  V30 12189 C 1145.98 1.5615 0.767662 0
M  V30 12190 O 1147.15 1.88637 0.705556 0
M  V30 12191 C 1144.22 3.34876 0.897726 0
M  V30 12192 C 1143.28 4.29197 0.0940905 0
M  V30 12193 C 1142.51 5.24699 0.976051 0
M  V30 12194 O 1142.73 5.25613 2.21556 0
M  V30 12195 O 1141.67 6.00387 0.426503 0
M  V30 12196 H 1145.49 2.93092 -0.795656 0
M  V30 12197 H 1143.08 1.4232 -0.45445 0
M  V30 12198 H 1144.96 3.96438 1.4288 0
M  V30 12199 H 1143.64 2.78812 1.64456 0
M  V30 12200 H 1142.54 3.70988 -0.481552 0
M  V30 12201 H 1143.88 4.88355 -0.614045 0
M  V30 12202 N 1145.53 0.438773 1.51369 0
M  V30 12203 C 1146.44 -0.378074 2.31534 0
M  V30 12204 C 1147.45 -1.02632 1.40508 0
M  V30 12205 O 1148.63 -1.02138 1.73579 0
M  V30 12206 C 1145.69 -1.46374 3.14286 0
M  V30 12207 C 1144.76 -0.835473 4.21092 0
M  V30 12208 C 1143.99 -1.86941 4.99889 0
M  V30 12209 O 1144.21 -3.0918 4.79337 0
M  V30 12210 O 1143.15 -1.45914 5.83946 0
M  V30 12211 H 1146.97 0.276401 3.0244 0
M  V30 12212 H 1144.56 0.201281 1.48038 0
M  V30 12213 H 1146.44 -2.09335 3.65728 0
M  V30 12214 H 1145.11 -2.10227 2.46143 0
M  V30 12215 H 1144.02 -0.167775 3.73724 0
M  V30 12216 H 1145.35 -0.240406 4.91613 0
M  V30 12217 N 1147.01 -1.56678 0.170181 0
M  V30 12218 C 1147.92 -2.21496 -0.773079 0
M  V30 12219 C 1148.93 -1.20626 -1.25401 0
M  V30 12220 O 1150.11 -1.53283 -1.30638 0
M  V30 12221 C 1147.17 -2.8421 -1.98558 0
M  V30 12222 C 1146.23 -4.00278 -1.55164 0
M  V30 12223 C 1145.47 -4.59992 -2.70634 0
M  V30 12224 O 1145.69 -4.18595 -3.87472 0
M  V30 12225 O 1144.62 -5.49881 -2.44775 0
M  V30 12226 H 1148.45 -3.02659 -0.251195 0
M  V30 12227 H 1146.03 -1.49288 -0.0579621 0
M  V30 12228 H 1147.92 -3.2398 -2.69472 0
M  V30 12229 H 1146.59 -2.06045 -2.49654 0
M  V30 12230 H 1145.5 -3.6518 -0.812038 0
M  V30 12231 H 1146.83 -4.80033 -1.0876 0
M  V30 12232 N 1148.48 0.103547 -1.57259 0
M  V30 12233 C 1149.39 1.14475 -2.04774 0
M  V30 12234 C 1150.41 1.44385 -0.971025 0
M  V30 12235 O 1151.59 1.55195 -1.28361 0
M  V30 12236 C 1148.65 2.4475 -2.45558 0
M  V30 12237 C 1147.71 2.22098 -3.67384 0
M  V30 12238 C 1146.94 3.4616 -4.06213 0
M  V30 12239 O 1147.17 4.5407 -3.45219 0
M  V30 12240 O 1146.1 3.36248 -4.9922 0
M  V30 12241 H 1149.93 0.771211 -2.93745 0
M  V30 12242 H 1147.51 0.315456 -1.46032 0
M  V30 12243 H 1149.39 3.21476 -2.72454 0
M  V30 12244 H 1148.07 2.81547 -1.59728 0
M  V30 12245 H 1146.98 1.43179 -3.45616 0
M  V30 12246 H 1148.31 1.90197 -4.53967 0
M  V30 12247 N 1149.96 1.53094 0.37415 0
M  V30 12248 C 1151.24 1.59456 1.13283 0
M  V30 12249 C 1151.62 0.396821 2.07337 0
M  V30 12250 O 1150.97 -0.613659 2.20106 0
M  V30 12251 C 1151.18 2.94069 1.87948 0
M  V30 12252 C 1152.52 3.4834 2.42785 0
M  V30 12253 O 1153.55 2.96042 1.98085 0
M  V30 12254 O 1152.41 4.39747 3.24477 0
M  V30 12255 H 1149.5 0.643731 0.519171 0
M  V30 12256 H 1152.05 1.65434 0.378105 0
M  V30 12257 H 1150.82 3.72685 1.19255 0
M  V30 12258 H 1150.44 2.91544 2.70348 0
M  V30 12259 N 1151.44 -0.633461 1.44309 0
M  V30 12260 C 1152.37 -1.75676 1.53819 0
M  V30 12261 C 1153.35 -1.65537 0.391365 0
M  V30 12262 O 1154.54 -1.84332 0.611181 0
M  V30 12263 C 1151.67 -3.14197 1.47979 0
M  V30 12264 C 1150.62 -3.39122 2.61113 0
M  V30 12265 C 1149.95 -4.77648 2.40325 0
M  V30 12266 C 1151.25 -3.31914 4.03274 0
M  V30 12267 H 1152.94 -1.67974 2.47841 0
M  V30 12268 H 1150.49 -0.8067 1.19283 0
M  V30 12269 H 1152.44 -3.92553 1.53233 0
M  V30 12270 H 1151.16 -3.22677 0.504718 0
M  V30 12271 H 1149.82 -2.63145 2.55245 0
M  V30 12272 H 1149.47 -4.82829 1.41016 0
M  V30 12273 H 1149.17 -4.95284 3.16177 0
M  V30 12274 H 1150.69 -5.58237 2.47394 0
M  V30 12275 H 1152.11 -4.00178 4.10524 0
M  V30 12276 H 1150.5 -3.61085 4.7931 0
M  V30 12277 H 1151.57 -2.29761 4.2701 0
M  V30 12278 N 1152.92 -1.31168 -0.873655 0
M  V30 12279 C 1153.87 -1.18432 -2.00191 0
M  V30 12280 C 1154.86 -0.0934873 -1.69142 0
M  V30 12281 O 1156.07 -0.255126 -1.78183 0
M  V30 12282 H 1152.44 -0.366594 -0.656592 0
M  V30 12283 H 1154.41 -2.13896 -2.08065 0
M  V30 12284 C 1153.16 -0.904668 -3.35725 0
M  V30 12285 H 1152.48 -1.73617 -3.60135 0
M  V30 12286 H 1153.92 -0.855715 -4.15275 0
M  V30 12287 C 1152.38 0.392554 -3.34605 0
M  V30 12288 O 1152.91 1.41052 -3.76121 0
M  V30 12289 N 1151.12 0.40777 -2.87725 0
M  V30 12290 H 1150.67 -0.42112 -2.54134 0
M  V30 12291 H 1150.62 1.27564 -2.87358 0
M  V30 12292 N 1154.4 1.08748 -1.14068 0
M  V30 12293 C 1155.64 1.81333 -0.908081 0
M  V30 12294 C 1155.98 1.85826 0.564112 0
M  V30 12295 O 1155.25 1.33157 1.41773 0
M  V30 12296 C 1155.53 3.27127 -1.50531 0
M  V30 12297 C 1155.39 3.30865 -3.04711 0
M  V30 12298 C 1156.71 4.24006 -1.17928 0
M  V30 12299 H 1153.82 0.658326 -0.331325 0
M  V30 12300 H 1156.47 1.27345 -1.41008 0
M  V30 12301 H 1154.62 3.73233 -1.07839 0
M  V30 12302 H 1156.29 2.93109 -3.56209 0
M  V30 12303 H 1154.53 2.70241 -3.39341 0
M  V30 12304 H 1155.2 4.33603 -3.41603 0
M  V30 12305 H 1157.68 3.86221 -1.54831 0
M  V30 12306 H 1156.55 5.2434 -1.62353 0
M  V30 12307 H 1156.82 4.42 -0.0940349 0
M  V30 12308 N 1155.87 0.935264 1.26849 0
M  V30 12309 C 1156.8 0.457776 2.28969 0
M  V30 12310 C 1157.79 -0.48587 1.63013 0
M  V30 12311 O 1158.97 -0.388998 1.90264 0
M  V30 12312 C 1156.1 -0.283332 3.46142 0
M  V30 12313 C 1155.05 0.573196 4.24144 0
M  V30 12314 C 1154.38 -0.297525 5.33872 0
M  V30 12315 C 1155.68 1.84153 4.88759 0
M  V30 12316 H 1157.37 1.31125 2.69159 0
M  V30 12317 H 1154.92 0.631956 1.29392 0
M  V30 12318 H 1156.87 -0.628366 4.16689 0
M  V30 12319 H 1155.6 -1.1709 3.04889 0
M  V30 12320 H 1154.26 0.901043 3.55354 0
M  V30 12321 H 1153.9 -1.18427 4.8886 0
M  V30 12322 H 1153.6 0.272126 5.8697 0
M  V30 12323 H 1155.13 -0.637961 6.07258 0
M  V30 12324 H 1156.54 1.5641 5.51551 0
M  V30 12325 H 1154.94 2.35528 5.51948 0
M  V30 12326 H 1156.01 2.5565 4.12033 0
M  V30 12327 N 1157.35 -1.41121 0.701616 0
M  V30 12328 C 1158.58 -2.05452 0.244365 0
M  V30 12329 C 1159 -1.5282 -1.10866 0
M  V30 12330 O 1158.35 -0.67893 -1.69401 0
M  V30 12331 C 1158.4 -3.60946 0.200112 0
M  V30 12332 O 1158.12 -4.11632 1.4997 0
M  V30 12333 C 1159.63 -4.42431 -0.277394 0
M  V30 12334 H 1156.85 -0.66151 0.112453 0
M  V30 12335 H 1159.39 -1.80784 0.9559 0
M  V30 12336 H 1157.54 -3.84632 -0.462287 0
M  V30 12337 H 1157.96 -5.05723 1.39084 0
M  V30 12338 H 1159.43 -5.514 -0.257225 0
M  V30 12339 H 1159.91 -4.1898 -1.31728 0
M  V30 12340 H 1160.52 -4.23822 0.354223 0
M  V30 12341 N 1158.83 -0.446794 -1.51134 0
M  V30 12342 C 1160.08 0.116493 -2.02165 0
M  V30 12343 C 1160.41 1.41884 -1.33039 0
M  V30 12344 O 1159.66 1.90757 -0.437071 0
M  V30 12345 C 1159.96 0.373015 -3.55448 0
M  V30 12346 C 1159.63 -0.844659 -4.42918 0
M  V30 12347 C 1158.29 -1.17857 -4.66544 0
M  V30 12348 C 1160.64 -1.65653 -4.94174 0
M  V30 12349 C 1157.97 -2.32486 -5.38672 0
M  V30 12350 C 1160.32 -2.7939 -5.6756 0
M  V30 12351 C 1158.98 -3.13224 -5.89446 0
M  V30 12352 H 1158.25 0.0426279 -0.739773 0
M  V30 12353 H 1160.9 -0.595921 -1.81992 0
M  V30 12354 H 1159.21 1.16742 -3.74003 0
M  V30 12355 H 1160.9 0.822425 -3.92476 0
M  V30 12356 H 1157.49 -0.574478 -4.24733 0
M  V30 12357 H 1161.68 -1.41176 -4.75797 0
M  V30 12358 H 1156.93 -2.59003 -5.5383 0
M  V30 12359 H 1161.11 -3.42662 -6.06264 0
M  V30 12360 H 1158.73 -4.02158 -6.45115 0
M  V30 12361 N 1160.31 1.56586 -0.178487 0
M  V30 12362 C 1161.22 2.21903 0.761321 0
M  V30 12363 C 1162.23 1.21289 1.2476 0
M  V30 12364 O 1163.41 1.53974 1.29823 0
M  V30 12365 C 1160.48 2.85259 1.97048 0
M  V30 12366 C 1159.54 4.01095 1.53039 0
M  V30 12367 C 1158.77 4.61421 2.68191 0
M  V30 12368 O 1158.99 4.20644 3.85247 0
M  V30 12369 O 1157.93 5.51171 2.41855 0
M  V30 12370 H 1161.75 3.02788 0.235141 0
M  V30 12371 H 1159.34 1.49316 0.0500442 0
M  V30 12372 H 1161.22 3.25404 2.6775 0
M  V30 12373 H 1159.89 2.07366 2.48558 0
M  V30 12374 H 1158.8 3.65606 0.792661 0
M  V30 12375 H 1160.13 4.80603 1.06213 0
M  V30 12376 N 1161.79 -0.095206 1.57312 0
M  V30 12377 C 1163.06 -0.830388 1.77099 0
M  V30 12378 C 1163.44 -1.9694 0.760121 0
M  V30 12379 O 1162.79 -2.2752 -0.211403 0
M  V30 12380 C 1163 -1.32507 3.22867 0
M  V30 12381 C 1164.35 -1.7679 3.86045 0
M  V30 12382 O 1165.37 -1.42131 3.26615 0
M  V30 12383 O 1164.23 -2.40876 4.90552 0
M  V30 12384 H 1161.33 -0.396083 0.72598 0
M  V30 12385 H 1163.87 -0.0770965 1.69525 0
M  V30 12386 H 1162.64 -0.508992 3.87975 0
M  V30 12387 H 1162.27 -2.14037 3.35073 0
M  V30 12388 N 1163.26 -1.53291 -0.366026 0
M  V30 12389 C 1164.19 -1.82675 -1.45437 0
M  V30 12390 C 1165.18 -0.680227 -1.55907 0
M  V30 12391 O 1166.36 -0.930032 -1.70482 0
M  V30 12392 C 1163.49 -2.01626 -2.8278 0
M  V30 12393 C 1162.44 -3.17391 -2.87135 0
M  V30 12394 C 1161.77 -3.21634 -4.27148 0
M  V30 12395 C 1163.07 -4.5599 -2.54697 0
M  V30 12396 H 1164.76 -2.73818 -1.21096 0
M  V30 12397 H 1162.31 -1.31754 -0.581108 0
M  V30 12398 H 1164.26 -2.20765 -3.58944 0
M  V30 12399 H 1162.99 -1.07193 -3.08508 0
M  V30 12400 H 1161.65 -2.98071 -2.13422 0
M  V30 12401 H 1161.29 -2.2484 -4.49951 0
M  V30 12402 H 1160.99 -3.99414 -4.30978 0
M  V30 12403 H 1162.52 -3.42957 -5.05186 0
M  V30 12404 H 1163.93 -4.75294 -3.20575 0
M  V30 12405 H 1162.33 -5.36008 -2.69844 0
M  V30 12406 H 1163.4 -4.61133 -1.49949 0
M  V30 12407 N 1164.74 0.6258 -1.44643 0
M  V30 12408 C 1165.67 1.74858 -1.54748 0
M  V30 12409 C 1166.65 1.65327 -0.400138 0
M  V30 12410 O 1167.84 1.84005 -0.620948 0
M  V30 12411 C 1164.97 3.13408 -1.49643 0
M  V30 12412 C 1163.92 3.37733 -2.62908 0
M  V30 12413 C 1163.25 4.76367 -2.42855 0
M  V30 12414 C 1164.55 3.29771 -4.05029 0
M  V30 12415 H 1166.24 1.66658 -2.48728 0
M  V30 12416 H 1163.79 0.800363 -1.19709 0
M  V30 12417 H 1165.74 3.91735 -1.55312 0
M  V30 12418 H 1164.47 3.22404 -0.521824 0
M  V30 12419 H 1163.12 2.61788 -2.56637 0
M  V30 12420 H 1162.77 4.82074 -1.43575 0
M  V30 12421 H 1162.47 4.936 -3.18799 0
M  V30 12422 H 1164 5.56917 -2.50351 0
M  V30 12423 H 1165.41 3.97996 -4.12641 0
M  V30 12424 H 1163.81 3.58538 -4.81218 0
M  V30 12425 H 1164.88 2.27493 -4.28223 0
M  V30 12426 N 1166.22 1.31629 0.866686 0
M  V30 12427 C 1167.46 1.22806 1.63395 0
M  V30 12428 C 1167.82 -0.209785 1.9085 0
M  V30 12429 O 1169.03 -0.421562 2.65474 0
M  V30 12430 C 1167.3 2.05187 2.92631 0
M  V30 12431 S 1168.86 2.13261 3.83491 0
M  V30 12432 H 1165.67 0.437339 0.560585 0
M  V30 12433 H 1168.28 1.66333 1.02731 0
M  V30 12434 H 1166.98 3.08736 2.70389 0
M  V30 12435 H 1166.51 1.62393 3.58318 0
M  V30 12436 H 1168.53 1.27333 4.79584 0
M  V30 12437 N 1167.7 -1.08142 1.14644 0
M  V30 12438 C 1168.95 -1.80582 0.916327 0
M  V30 12439 C 1169.27 -1.86355 -0.556969 0
M  V30 12440 O 1168.53 -1.33736 -1.42875 0
M  V30 12441 C 1168.83 -3.25962 1.46573 0
M  V30 12442 C 1168.49 -3.40302 2.95814 0
M  V30 12443 C 1167.16 -3.43922 3.36557 0
M  V30 12444 C 1169.51 -3.43758 3.91765 0
M  V30 12445 C 1166.84 -3.48594 4.7191 0
M  V30 12446 C 1169.19 -3.49965 5.26979 0
M  V30 12447 C 1167.85 -3.5186 5.67231 0
M  V30 12448 H 1167.12 -0.660795 0.335308 0
M  V30 12449 H 1169.77 -1.27309 1.43055 0
M  V30 12450 H 1168.07 -3.81961 0.872507 0
M  V30 12451 H 1169.77 -3.80571 1.2636 0
M  V30 12452 H 1166.36 -3.38176 2.63315 0
M  V30 12453 H 1170.55 -3.40189 3.61366 0
M  V30 12454 H 1165.8 -3.48355 5.02453 0
M  V30 12455 H 1169.98 -3.51585 6.01133 0
M  V30 12456 H 1167.6 -3.55233 6.72097 0
M  V30 12457 N 1169.18 -0.941978 -1.26351 0
M  V30 12458 C 1170.14 -0.456768 -2.24602 0
M  V30 12459 C 1171.14 0.432574 -1.54872 0
M  V30 12460 O 1172.33 0.23164 -1.72653 0
M  V30 12461 C 1169.46 0.341583 -3.39184 0
M  V30 12462 H 1170.66 -1.32503 -2.69041 0
M  V30 12463 H 1168.21 -0.724021 -1.38519 0
M  V30 12464 H 1168.94 1.22806 -3.00149 0
M  V30 12465 H 1168.73 -0.296268 -3.90979 0
M  V30 12466 H 1170.22 0.670955 -4.12175 0
M  V30 12467 N 1170.66 1.40747 -0.709091 0
M  V30 12468 C 1171.89 2.05022 -0.254887 0
M  V30 12469 C 1172.29 1.5351 1.10595 0
M  V30 12470 O 1171.64 0.683912 1.70494 0
M  V30 12471 C 1171.7 3.59188 -0.149823 0
M  V30 12472 C 1171.36 4.33557 -1.44489 0
M  V30 12473 C 1172.36 4.61941 -2.3855 0
M  V30 12474 C 1170.04 4.72585 -1.70201 0
M  V30 12475 C 1172.04 5.2833 -3.56575 0
M  V30 12476 C 1169.73 5.38707 -2.88509 0
M  V30 12477 C 1170.72 5.66509 -3.81518 0
M  V30 12478 O 1170.41 6.31267 -4.97752 0
M  V30 12479 H 1170.14 0.666405 -0.113493 0
M  V30 12480 H 1172.7 1.81261 -0.966099 0
M  V30 12481 H 1170.93 3.81742 0.617276 0
M  V30 12482 H 1172.62 4.05008 0.268965 0
M  V30 12483 H 1173.38 4.32259 -2.19947 0
M  V30 12484 H 1169.26 4.50318 -0.986628 0
M  V30 12485 H 1172.81 5.49947 -4.2919 0
M  V30 12486 H 1168.7 5.67809 -3.07023 0
M  V30 12487 H 1169.47 6.49764 -4.97745 0
M  V30 12488 N 1172.13 0.454803 1.50895 0
M  V30 12489 C 1173.07 -0.383826 2.25963 0
M  V30 12490 C 1174.08 -0.971263 1.30653 0
M  V30 12491 O 1175.27 -0.862434 1.56283 0
M  V30 12492 C 1172.37 -1.55069 3.01342 0
M  V30 12493 C 1171.54 -1.07899 4.23883 0
M  V30 12494 C 1170.6 -2.118 4.81692 0
M  V30 12495 O 1169.63 -1.70523 5.43057 0
M  V30 12496 N 1170.83 -3.44459 4.67256 0
M  V30 12497 H 1173.59 0.259646 2.98573 0
M  V30 12498 H 1171.15 0.284661 1.59378 0
M  V30 12499 H 1173.15 -2.24236 3.36898 0
M  V30 12500 H 1171.72 -2.09917 2.31633 0
M  V30 12501 H 1170.94 -0.213773 3.9362 0
M  V30 12502 H 1172.22 -0.741501 5.03368 0
M  V30 12503 H 1171.62 -3.80716 4.18416 0
M  V30 12504 H 1170.18 -4.0947 5.07127 0
M  V30 12505 N 1173.61 -1.56489 0.186789 0
M  V30 12506 C 1174.86 -1.97634 -0.454831 0
M  V30 12507 C 1175.19 -1.07334 -1.61843 0
M  V30 12508 O 1174.47 -0.123612 -1.94107 0
M  V30 12509 C 1174.75 -3.48071 -0.922962 0
M  V30 12510 C 1174.6 -4.49149 0.241877 0
M  V30 12511 C 1175.92 -4.01994 -1.79134 0
M  V30 12512 H 1173.04 -0.718555 -0.163854 0
M  V30 12513 H 1175.68 -1.87984 0.27604 0
M  V30 12514 H 1173.83 -3.56425 -1.54575 0
M  V30 12515 H 1175.5 -4.52841 0.87936 0
M  V30 12516 H 1173.75 -4.24468 0.894964 0
M  V30 12517 H 1174.42 -5.51851 -0.128051 0
M  V30 12518 H 1176.89 -3.96367 -1.26618 0
M  V30 12519 H 1175.77 -5.07641 -2.08787 0
M  V30 12520 H 1176.03 -3.46747 -2.74261 0
M  V30 12521 N 1175.09 0.086862 -1.5736 0
M  V30 12522 C 1176.05 1.08906 -2.01673 0
M  V30 12523 C 1177.05 1.32473 -0.911463 0
M  V30 12524 O 1178.24 1.28447 -1.17673 0
M  V30 12525 C 1175.37 2.43629 -2.38449 0
M  V30 12526 H 1176.57 0.707461 -2.91436 0
M  V30 12527 H 1174.12 0.332154 -1.5273 0
M  V30 12528 H 1174.86 2.8665 -1.51665 0
M  V30 12529 H 1174.64 2.2787 -3.19089 0
M  V30 12530 H 1176.13 3.15695 -2.73361 0
M  V30 12531 N 1176.57 1.53483 0.357892 0
M  V30 12532 C 1177.51 1.80463 1.43881 0
M  V30 12533 C 1178.48 0.649438 1.52877 0
M  V30 12534 O 1179.67 0.892409 1.68644 0
M  V30 12535 C 1176.81 2.00714 2.80727 0
M  V30 12536 C 1175.92 3.28431 2.80637 0
M  V30 12537 C 1175.06 3.38828 4.09107 0
M  V30 12538 C 1174.1 4.60549 4.03189 0
M  V30 12539 N 1173.23 4.68057 5.23323 0
M  V30 12540 H 1178.07 2.72694 1.20174 0
M  V30 12541 H 1175.61 1.35079 0.582422 0
M  V30 12542 H 1177.57 2.10444 3.60235 0
M  V30 12543 H 1176.2 1.11811 3.02817 0
M  V30 12544 H 1175.25 3.27617 1.93317 0
M  V30 12545 H 1176.56 4.18022 2.72138 0
M  V30 12546 H 1175.72 3.47911 4.97034 0
M  V30 12547 H 1174.46 2.47267 4.20369 0
M  V30 12548 H 1173.46 4.51558 3.13649 0
M  V30 12549 H 1174.69 5.53459 3.93523 0
M  V30 12550 H 1172.63 3.794 5.35156 0
M  V30 12551 H 1172.55 5.51563 5.17024 0
M  V30 12552 H 1173.82 4.81433 6.1306 0
M  V30 12553 N 1178.05 -0.61812 1.44973 0
M  V30 12554 C 1179.29 -1.37468 1.48145 0
M  V30 12555 C 1179.61 -1.94628 0.120366 0
M  V30 12556 O 1178.88 -1.76548 -0.848982 0
M  V30 12557 H 1177.46 -0.510293 0.545536 0
M  V30 12558 H 1180.13 -0.726598 1.8085 0
M  V30 12559 H 1179.22 -2.19944 2.2143 0
M  V30 12560 N 1179.52 -1.32087 -0.859693 0
M  V30 12561 C 1180.46 -1.14934 -1.97143 0
M  V30 12562 C 1181.43 -0.0501084 -1.62523 0
M  V30 12563 O 1182.62 -0.208472 -1.87344 0
M  V30 12564 C 1179.75 -0.758374 -3.30101 0
M  V30 12565 C 1178.79 -1.86212 -3.83702 0
M  V30 12566 S 1179.62 -3.46949 -4.07905 0
M  V30 12567 C 1180.78 -3.09813 -5.43844 0
M  V30 12568 H 1181.01 -2.09047 -2.11392 0
M  V30 12569 H 1178.55 -1.1669 -1.01108 0
M  V30 12570 H 1180.5 -0.539563 -4.06939 0
M  V30 12571 H 1179.17 0.163817 -3.13673 0
M  V30 12572 H 1178.36 -1.54144 -4.7985 0
M  V30 12573 H 1177.96 -2.03652 -3.13691 0
M  V30 12574 H 1180.25 -2.59345 -6.25897 0
M  V30 12575 H 1181.2 -4.04963 -5.8087 0
M  V30 12576 H 1181.6 -2.46971 -5.07607 0
M  V30 12577 N 1181 1.07532 -1.15215 0
M  V30 12578 C 1181.91 2.18222 -0.861192 0
M  V30 12579 C 1182.93 1.73246 0.161798 0
M  V30 12580 O 1184.1 2.01397 -0.0118386 0
M  V30 12581 C 1181.17 3.44902 -0.352601 0
M  V30 12582 C 1180.23 4.04455 -1.43926 0
M  V30 12583 C 1179.46 5.25089 -0.954841 0
M  V30 12584 O 1179.69 5.70048 0.200294 0
M  V30 12585 O 1178.62 5.76269 -1.73774 0
M  V30 12586 H 1182.45 2.45599 -1.78648 0
M  V30 12587 H 1180.03 1.16835 -0.93112 0
M  V30 12588 H 1181.91 4.21333 -0.0753347 0
M  V30 12589 H 1180.59 3.19082 0.544841 0
M  V30 12590 H 1179.49 3.29573 -1.7701 0
M  V30 12591 H 1180.83 4.34544 -2.31155 0
M  V30 12592 N 1182.48 0.948665 1.2585 0
M  V30 12593 C 1183.73 0.600236 1.934 0
M  V30 12594 C 1184.06 -0.86185 1.74363 0
M  V30 12595 O 1183.31 -1.63294 1.07858 0
M  V30 12596 C 1183.61 0.89784 3.45939 0
M  V30 12597 C 1183.28 2.345 3.85124 0
M  V30 12598 C 1181.94 2.74058 3.95532 0
M  V30 12599 C 1184.29 3.2851 4.04636 0
M  V30 12600 C 1181.62 4.06707 4.22855 0
M  V30 12601 C 1183.97 4.60764 4.3345 0
M  V30 12602 C 1182.63 5.00127 4.42074 0
M  V30 12603 H 1181.9 0.219642 0.707699 0
M  V30 12604 H 1184.55 1.19658 1.49513 0
M  V30 12605 H 1182.86 0.219037 3.91187 0
M  V30 12606 H 1184.55 0.606916 3.96381 0
M  V30 12607 H 1181.14 2.02819 3.77574 0
M  V30 12608 H 1185.33 2.99141 3.96015 0
M  V30 12609 H 1180.58 4.36856 4.27746 0
M  V30 12610 H 1184.76 5.33594 4.47493 0
M  V30 12611 H 1182.38 6.02939 4.63 0
M  V30 12612 N 1183.96 -1.40369 0.716545 0
M  V30 12613 C 1184.89 -2.33365 0.0793533 0
M  V30 12614 C 1185.87 -1.52943 -0.744482 0
M  V30 12615 O 1187.05 -1.81406 -0.693212 0
M  V30 12616 C 1184.18 -3.36928 -0.842429 0
M  V30 12617 C 1183.14 -4.2782 -0.124142 0
M  V30 12618 C 1182.46 -5.21928 -1.1617 0
M  V30 12619 C 1183.76 -5.12199 1.02224 0
M  V30 12620 H 1185.46 -2.86899 0.856115 0
M  V30 12621 H 1183 -1.37946 0.413138 0
M  V30 12622 H 1184.96 -4.00925 -1.29759 0
M  V30 12623 H 1183.68 -2.81791 -1.6511 0
M  V30 12624 H 1182.34 -3.65277 0.311201 0
M  V30 12625 H 1181.99 -4.63096 -1.96345 0
M  V30 12626 H 1181.69 -5.83582 -0.685978 0
M  V30 12627 H 1183.21 -5.88802 -1.61694 0
M  V30 12628 H 1184.63 -5.69644 0.646399 0
M  V30 12629 H 1183.02 -5.82901 1.4264 0
M  V30 12630 H 1184.09 -4.4812 1.85246 0
M  V30 12631 N 1185.44 -0.462799 -1.50652 0
M  V30 12632 C 1186.35 0.341191 -2.32106 0
M  V30 12633 C 1187.36 1.00384 -1.42123 0
M  V30 12634 O 1188.54 0.993635 -1.75182 0
M  V30 12635 C 1185.6 1.41356 -3.16575 0
M  V30 12636 C 1184.66 0.768375 -4.22368 0
M  V30 12637 C 1183.9 1.78964 -5.028 0
M  V30 12638 O 1184.12 3.01515 -4.84195 0
M  V30 12639 O 1183.05 1.36606 -5.86193 0
M  V30 12640 H 1186.88 -0.324482 -3.01962 0
M  V30 12641 H 1184.47 -0.224807 -1.47699 0
M  V30 12642 H 1186.35 2.0349 -3.69012 0
M  V30 12643 H 1185.02 2.06285 -2.49456 0
M  V30 12644 H 1183.93 0.108297 -3.73943 0
M  V30 12645 H 1185.26 0.162164 -4.91933 0
M  V30 12646 N 1186.91 1.56388 -0.195085 0
M  V30 12647 C 1188.16 1.9758 0.443686 0
M  V30 12648 C 1188.49 1.08196 1.61629 0
M  V30 12649 O 1187.74 0.121061 1.95325 0
M  V30 12650 C 1188.04 3.44651 0.946051 0
M  V30 12651 C 1187.71 4.50758 -0.11318 0
M  V30 12652 C 1186.37 4.79499 -0.404229 0
M  V30 12653 C 1188.72 5.14534 -0.830899 0
M  V30 12654 C 1186.05 5.69307 -1.41797 0
M  V30 12655 C 1188.4 6.05438 -1.83379 0
M  V30 12656 C 1187.07 6.32535 -2.13204 0
M  V30 12657 H 1186.34 0.722995 0.162356 0
M  V30 12658 H 1188.98 1.8926 -0.292049 0
M  V30 12659 H 1187.29 3.50042 1.76006 0
M  V30 12660 H 1188.99 3.73878 1.44969 0
M  V30 12661 H 1185.58 4.28421 0.123833 0
M  V30 12662 H 1189.76 4.92421 -0.61927 0
M  V30 12663 H 1185.02 5.88575 -1.65496 0
M  V30 12664 H 1189.19 6.53915 -2.39516 0
M  V30 12665 H 1186.82 7.01924 -2.91902 0
M  V30 12666 N 1188.39 -0.0785156 1.57404 0
M  V30 12667 C 1189.34 -1.09402 2.03224 0
M  V30 12668 C 1190.31 -1.38849 0.911596 0
M  V30 12669 O 1191.49 -1.50031 1.17878 0
M  V30 12670 C 1188.63 -2.40444 2.47549 0
M  V30 12671 C 1187.75 -2.17585 3.73203 0
M  V30 12672 C 1186.88 -3.42143 4.06339 0
M  V30 12673 C 1185.92 -3.14619 5.25054 0
M  V30 12674 N 1185.06 -4.31489 5.5386 0
M  V30 12675 H 1189.9 -0.696307 2.89751 0
M  V30 12676 H 1187.44 -0.332261 1.43298 0
M  V30 12677 H 1189.39 -3.16944 2.71298 0
M  V30 12678 H 1188.02 -2.78031 1.64009 0
M  V30 12679 H 1187.08 -1.3181 3.56834 0
M  V30 12680 H 1188.39 -1.93249 4.59844 0
M  V30 12681 H 1187.54 -4.27042 4.30953 0
M  V30 12682 H 1186.28 -3.69549 3.18253 0
M  V30 12683 H 1185.29 -2.28116 5.00243 0
M  V30 12684 H 1186.51 -2.88543 6.14752 0
M  V30 12685 H 1184.46 -4.58939 4.68734 0
M  V30 12686 H 1184.37 -4.10403 6.34906 0
M  V30 12687 H 1185.64 -5.17404 5.83021 0
M  V30 12688 N 1189.87 -1.5367 -0.349747 0
M  V30 12689 C 1191.1 -1.74858 -1.11532 0
M  V30 12690 C 1191.52 -0.483591 -1.81777 0
M  V30 12691 O 1190.88 0.563399 -1.72324 0
M  V30 12692 C 1190.93 -2.92479 -2.10923 0
M  V30 12693 O 1190.03 -2.62194 -3.18321 0
M  V30 12694 H 1189.37 -0.580219 -0.322865 0
M  V30 12695 H 1191.9 -2.00611 -0.402033 0
M  V30 12696 H 1191.91 -3.19093 -2.54252 0
M  V30 12697 H 1190.59 -3.84228 -1.59191 0
M  V30 12698 H 1189.16 -2.46448 -2.79853 0
M  V30 12699 N 1191.35 0.610423 -1.45298 0
M  V30 12700 C 1192.59 1.38085 -1.50705 0
M  V30 12701 C 1192.95 1.91459 -0.143997 0
M  V30 12702 O 1194.15 2.68702 -0.0727521 0
M  V30 12703 C 1192.42 2.50009 -2.55402 0
M  V30 12704 S 1193.98 3.37844 -2.80012 0
M  V30 12705 H 1190.8 0.470812 -0.532783 0
M  V30 12706 H 1193.4 0.704638 -1.8236 0
M  V30 12707 H 1192.11 2.09143 -3.53111 0
M  V30 12708 H 1191.64 3.22434 -2.25388 0
M  V30 12709 H 1193.65 4.48074 -2.13176 0
M  V30 12710 N 1192.83 1.32541 0.852676 0
M  V30 12711 C 1194.07 1.23397 1.60938 0
M  V30 12712 C 1194.41 -0.203294 1.93133 0
M  V30 12713 O 1193.68 -1.14097 1.57519 0
M  V30 12714 C 1193.96 2.0956 2.92842 0
M  V30 12715 C 1193.82 3.61675 2.67416 0
M  V30 12716 C 1195.14 1.95825 3.94133 0
M  V30 12717 H 1192.25 0.449608 0.583971 0
M  V30 12718 H 1194.9 1.62507 0.98446 0
M  V30 12719 H 1193.05 1.76336 3.46176 0
M  V30 12720 H 1194.72 4.05122 2.20621 0
M  V30 12721 H 1192.96 3.84242 2.01347 0
M  V30 12722 H 1193.63 4.17292 3.61347 0
M  V30 12723 H 1196.11 2.24935 3.50062 0
M  V30 12724 H 1194.98 2.58387 4.8428 0
M  V30 12725 H 1195.25 0.926466 4.32284 0
M  V30 12726 N 1194.3 -1.0692 1.15784 0
M  V30 12727 C 1195.25 -2.12473 0.826994 0
M  V30 12728 C 1196.24 -1.59766 -0.19073 0
M  V30 12729 O 1197.43 -1.76998 0.00917115 0
M  V30 12730 C 1194.56 -3.41779 0.322847 0
M  V30 12731 C 1193.65 -4.01329 1.37098 0
M  V30 12732 N 1194.04 -4.35077 2.57957 0
M  V30 12733 C 1192.33 -4.28854 1.22475 0
M  V30 12734 C 1193.04 -4.82326 3.25171 0
M  V30 12735 N 1192.01 -4.81369 2.52556 0
M  V30 12736 H 1195.81 -2.36404 1.74614 0
M  V30 12737 H 1193.33 -1.244 1.04395 0
M  V30 12738 H 1195.32 -4.16845 0.0674576 0
M  V30 12739 H 1193.98 -3.19289 -0.590311 0
M  V30 12740 H 1195 -4.25626 2.95065 0
M  V30 12741 H 1191.67 -4.15841 0.371839 0
M  V30 12742 H 1193.06 -5.17695 4.28301 0
M  V30 12743 N 1195.78 -0.955326 -1.25345 0
M  V30 12744 C 1197.2 -0.659863 -1.4532 0
M  V30 12745 C 1197.4 0.78238 -1.85691 0
M  V30 12746 O 1196.45 1.5576 -1.98734 0
M  V30 12747 C 1197.77 -1.63339 -2.5247 0
M  V30 12748 C 1199.32 -1.64464 -2.66309 0
M  V30 12749 C 1199.79 -2.60583 -3.76644 0
M  V30 12750 N 1201.28 -2.58951 -3.84055 0
M  V30 12751 C 1202.02 -3.30002 -4.6892 0
M  V30 12752 N 1201.51 -4.10528 -5.58067 0
M  V30 12753 N 1203.31 -3.18886 -4.62891 0
M  V30 12754 H 1195.46 -1.88734 -0.97433 0
M  V30 12755 H 1197.72 -0.811858 -0.48948 0
M  V30 12756 H 1197.43 -2.66358 -2.29665 0
M  V30 12757 H 1197.3 -1.39644 -3.50399 0
M  V30 12758 H 1199.69 -0.621622 -2.88479 0
M  V30 12759 H 1199.77 -1.92218 -1.68778 0
M  V30 12760 H 1199.41 -3.63011 -3.55226 0
M  V30 12761 H 1199.34 -2.30113 -4.73662 0
M  V30 12762 H 1201.83 -2.00491 -3.20331 0
M  V30 12763 H 1202.15 -4.6166 -6.1975 0
M  V30 12764 H 1200.49 -4.14626 -5.57773 0
M  V30 12765 H 1203.68 -2.55447 -3.92255 0
M  V30 12766 H 1203.85 -3.74524 -5.28806 0
M  V30 12767 N 1197.26 1.39987 -0.723979 0
M  V30 12768 C 1198.54 1.94637 -0.1939 0
M  V30 12769 C 1198.92 1.66156 1.30212 0
M  V30 12770 O 1198.27 0.983783 2.06238 0
M  V30 12771 C 1198.48 3.4517 -0.515652 0
M  V30 12772 C 1199.82 4.22113 -0.458919 0
M  V30 12773 O 1200.85 3.53318 -0.452198 0
M  V30 12774 O 1199.71 5.44695 -0.443783 0
M  V30 12775 H 1196.8 0.826394 -0.0316615 0
M  V30 12776 H 1199.35 1.49548 -0.802085 0
M  V30 12777 H 1198.12 3.5929 -1.55004 0
M  V30 12778 H 1197.74 3.97413 0.122067 0
M  V30 12779 N 1198.74 0.470782 1.50404 0
M  V30 12780 C 1199.67 -0.313458 2.31386 0
M  V30 12781 C 1200.65 -0.990623 1.38278 0
M  V30 12782 O 1201.84 -0.987854 1.67198 0
M  V30 12783 C 1198.97 -1.39599 3.18009 0
M  V30 12784 C 1197.92 -0.840443 4.19667 0
M  V30 12785 C 1197.25 -2.02124 4.95025 0
M  V30 12786 C 1198.55 0.148055 5.2209 0
M  V30 12787 H 1200.24 0.362432 2.97198 0
M  V30 12788 H 1197.79 0.175745 1.42924 0
M  V30 12789 H 1199.74 -1.9521 3.73458 0
M  V30 12790 H 1198.46 -2.10064 2.50081 0
M  V30 12791 H 1197.12 -0.306302 3.65318 0
M  V30 12792 H 1196.77 -2.71286 4.23571 0
M  V30 12793 H 1196.47 -1.65574 5.6379 0
M  V30 12794 H 1197.99 -2.58226 5.5331 0
M  V30 12795 H 1199.41 -0.318874 5.72413 0
M  V30 12796 H 1197.8 0.427811 5.98573 0
M  V30 12797 H 1198.87 1.07404 4.72855 0
M  V30 12798 N 1200.22 -1.56282 0.203376 0
M  V30 12799 C 1201.18 -2.18233 -0.700489 0
M  V30 12800 C 1202.18 -1.13908 -1.13497 0
M  V30 12801 O 1203.37 -1.39246 -1.04672 0
M  V30 12802 C 1200.5 -2.79107 -1.95735 0
M  V30 12803 H 1201.7 -2.99469 -0.160649 0
M  V30 12804 H 1199.25 -1.56232 -0.0462475 0
M  V30 12805 H 1199.98 -2.01691 -2.53951 0
M  V30 12806 H 1199.77 -3.55486 -1.65446 0
M  V30 12807 H 1201.26 -3.2665 -2.60172 0
M  V30 12808 N 1201.7 0.070167 -1.57444 0
M  V30 12809 C 1202.66 1.06761 -2.02817 0
M  V30 12810 C 1203.66 1.31498 -0.925462 0
M  V30 12811 O 1204.85 1.27192 -1.19029 0
M  V30 12812 C 1201.98 2.41086 -2.41019 0
M  V30 12813 H 1203.17 0.67651 -2.9217 0
M  V30 12814 H 1200.73 0.315936 -1.53074 0
M  V30 12815 H 1201.46 2.85025 -1.54697 0
M  V30 12816 H 1201.25 2.24472 -3.21488 0
M  V30 12817 H 1202.74 3.12778 -2.76694 0
M  V30 12818 N 1203.17 1.53854 0.341593 0
M  V30 12819 C 1204.59 1.44161 0.684821 0
M  V30 12820 C 1204.79 0.599929 1.92362 0
M  V30 12821 O 1203.85 0.0916771 2.52334 0
M  V30 12822 C 1205.16 2.87668 0.875637 0
M  V30 12823 C 1206.71 2.97455 0.974131 0
M  V30 12824 C 1207.18 4.42075 1.19725 0
M  V30 12825 N 1208.67 4.45609 1.2644 0
M  V30 12826 C 1209.41 5.54643 1.45459 0
M  V30 12827 N 1208.9 6.7368 1.61637 0
M  V30 12828 N 1210.7 5.4226 1.48022 0
M  V30 12829 H 1202.85 2.07069 -0.472883 0
M  V30 12830 H 1205.11 0.936114 -0.149648 0
M  V30 12831 H 1204.82 3.51681 0.0368595 0
M  V30 12832 H 1204.69 3.32731 1.7768 0
M  V30 12833 H 1207.08 2.33582 1.80343 0
M  V30 12834 H 1207.16 2.55751 0.0498282 0
M  V30 12835 H 1206.8 5.06529 0.372872 0
M  V30 12836 H 1206.73 4.81372 2.13515 0
M  V30 12837 H 1209.22 3.59831 1.15455 0
M  V30 12838 H 1209.54 7.52541 1.7579 0
M  V30 12839 H 1207.88 6.76622 1.5877 0
M  V30 12840 H 1211.07 4.48221 1.34966 0
M  V30 12841 H 1211.25 6.27293 1.62502 0
M  V30 12842 N 1204.65 -0.602709 1.4562 0
M  V30 12843 C 1205.6 -1.73425 1.55005 0
M  V30 12844 C 1206.59 -1.64118 0.419713 0
M  V30 12845 O 1207.8 -1.69853 0.595815 0
M  V30 12846 H 1204.17 -0.573038 0.486962 0
M  V30 12847 H 1206.15 -1.62637 2.50184 0
M  V30 12848 C 1204.89 -3.11808 1.53853 0
M  V30 12849 H 1204.22 -3.19631 2.40158 0
M  V30 12850 H 1205.66 -3.90798 1.64477 0
M  V30 12851 C 1204.12 -3.35866 0.263765 0
M  V30 12852 O 1204.65 -3.96334 -0.654364 0
M  V30 12853 N 1202.85 -2.90171 0.157927 0
M  V30 12854 H 1202.4 -2.41144 0.905944 0
M  V30 12855 H 1202.36 -3.06641 -0.694175 0
M  V30 12856 N 1206.13 -1.32992 -0.845635 0
M  V30 12857 C 1207.38 -1.24249 -1.60281 0
M  V30 12858 C 1207.71 0.193049 -1.93238 0
M  V30 12859 O 1206.98 1.1326 -1.58122 0
M  V30 12860 C 1207.27 -2.1111 -2.91727 0
M  V30 12861 C 1207.12 -3.63088 -2.65494 0
M  V30 12862 C 1208.44 -1.97913 -3.93089 0
M  V30 12863 H 1205.56 -0.452698 -0.581578 0
M  V30 12864 H 1208.2 -1.63026 -0.975828 0
M  V30 12865 H 1206.35 -1.78169 -3.45236 0
M  V30 12866 H 1208.02 -4.06287 -2.18469 0
M  V30 12867 H 1206.26 -3.85304 -1.99306 0
M  V30 12868 H 1206.94 -4.19202 -3.59129 0
M  V30 12869 H 1209.41 -2.26788 -3.48864 0
M  V30 12870 H 1208.29 -2.60952 -4.82903 0
M  V30 12871 H 1208.55 -0.949378 -4.31786 0
M  V30 12872 N 1207.61 1.06304 -1.1635 0
M  V30 12873 C 1208.54 2.15745 -0.893103 0
M  V30 12874 C 1209.52 1.69341 0.160531 0
M  V30 12875 O 1210.7 1.94196 0.0126526 0
M  V30 12876 C 1207.83 3.45066 -0.393287 0
M  V30 12877 C 1206.79 4.04978 -1.38482 0
M  V30 12878 C 1206.11 5.29507 -0.743409 0
M  V30 12879 C 1207.41 4.4377 -2.75438 0
M  V30 12880 H 1209.11 2.38622 -1.80831 0
M  V30 12881 H 1206.65 1.14681 -0.870878 0
M  V30 12882 H 1208.61 4.20964 -0.191607 0
M  V30 12883 H 1207.33 3.21808 0.557426 0
M  V30 12884 H 1205.99 3.31136 -1.57304 0
M  V30 12885 H 1205.64 5.02545 0.213787 0
M  V30 12886 H 1205.34 5.7055 -1.40521 0
M  V30 12887 H 1206.86 6.08102 -0.551746 0
M  V30 12888 H 1208.28 5.1075 -2.60398 0
M  V30 12889 H 1206.67 4.95797 -3.38091 0
M  V30 12890 H 1207.74 3.54636 -3.30699 0
M  V30 12891 N 1209.09 0.96196 1.24836 0
M  V30 12892 C 1210.33 0.621634 1.93038 0
M  V30 12893 C 1210.66 -0.840257 1.75081 0
M  V30 12894 O 1209.94 -1.60381 1.10038 0
M  V30 12895 C 1210.22 0.990107 3.46221 0
M  V30 12896 C 1210.08 2.50827 3.73371 0
M  V30 12897 C 1211.39 0.520478 4.37011 0
M  V30 12898 H 1208.51 0.227312 0.701069 0
M  V30 12899 H 1211.16 1.19993 1.47315 0
M  V30 12900 H 1209.31 0.498008 3.85295 0
M  V30 12901 H 1210.98 3.07469 3.4389 0
M  V30 12902 H 1209.22 2.94277 3.18722 0
M  V30 12903 H 1209.89 2.71659 4.80526 0
M  V30 12904 H 1212.37 0.942703 4.05281 0
M  V30 12905 H 1211.24 0.806918 5.42937 0
M  V30 12906 H 1211.5 -0.579507 4.38285 0
M  V30 12907 N 1210.56 -1.39601 0.731392 0
M  V30 12908 C 1211.79 -2.04887 0.28789 0
M  V30 12909 C 1212.21 -1.55138 -1.076 0
M  V30 12910 O 1211.56 -0.71471 -1.67923 0
M  V30 12911 C 1211.61 -3.6044 0.276629 0
M  V30 12912 O 1211.34 -4.08358 1.58668 0
M  V30 12913 C 1212.84 -4.4292 -0.183485 0
M  V30 12914 H 1210.06 -0.658976 0.126459 0
M  V30 12915 H 1212.6 -1.78716 0.994031 0
M  V30 12916 H 1210.76 -3.85526 -0.380597 0
M  V30 12917 H 1211.17 -5.02659 1.4978 0
M  V30 12918 H 1212.64 -5.51822 -0.140207 0
M  V30 12919 H 1213.12 -4.2168 -1.22811 0
M  V30 12920 H 1213.73 -4.22976 0.444042 0
M  V30 12921 N 1212.04 -0.478751 -1.50152 0
M  V30 12922 C 1212.99 0.330224 -2.25596 0
M  V30 12923 C 1213.98 0.954871 -1.29503 0
M  V30 12924 O 1215.17 0.866153 -1.54359 0
M  V30 12925 C 1212.3 1.40719 -3.13134 0
M  V30 12926 C 1211.38 0.789896 -4.16679 0
M  V30 12927 N 1211.77 -0.094345 -5.05712 0
M  V30 12928 C 1210.07 1.05299 -4.33391 0
M  V30 12929 C 1210.77 -0.445458 -5.79992 0
M  V30 12930 N 1209.75 0.181237 -5.43298 0
M  V30 12931 H 1213.55 -0.350824 -2.91799 0
M  V30 12932 H 1211.07 -0.293386 -1.59728 0
M  V30 12933 H 1213.06 1.99999 -3.65795 0
M  V30 12934 H 1211.72 2.09015 -2.48481 0
M  V30 12935 H 1212.73 -0.463695 -5.1582 0
M  V30 12936 H 1209.41 1.73036 -3.79954 0
M  V30 12937 H 1210.8 -1.16754 -6.61678 0
M  V30 12938 N 1213.52 1.56172 -0.211661 0
M  V30 12939 C 1214.77 1.97648 0.421871 0
M  V30 12940 C 1215.09 1.10026 1.60995 0
M  V30 12941 O 1214.36 0.175109 1.95116 0
M  V30 12942 H 1212.94 0.729914 0.158852 0
M  V30 12943 H 1215.6 1.92542 -0.302254 0
M  V30 12944 H 1214.7 3.02834 0.754868 0
M  V30 12945 N 1215 -0.0618163 1.57479 0
M  V30 12946 C 1215.95 -1.0724 2.04373 0
M  V30 12947 C 1216.92 -1.37875 0.926271 0
M  V30 12948 O 1218.1 -1.48772 1.19463 0
M  V30 12949 C 1215.24 -2.37805 2.50085 0
M  V30 12950 C 1214.35 -2.13614 3.7549 0
M  V30 12951 C 1213.49 -3.37814 4.09945 0
M  V30 12952 C 1212.53 -3.09032 5.28361 0
M  V30 12953 N 1211.66 -4.25591 5.58406 0
M  V30 12954 H 1216.5 -0.665536 2.90473 0
M  V30 12955 H 1214.04 -0.317043 1.43643 0
M  V30 12956 H 1216 -3.14048 2.74644 0
M  V30 12957 H 1214.63 -2.76275 1.66948 0
M  V30 12958 H 1213.68 -1.28017 3.58212 0
M  V30 12959 H 1214.99 -1.88361 4.61867 0
M  V30 12960 H 1214.15 -4.22447 4.35458 0
M  V30 12961 H 1212.89 -3.66153 3.22154 0
M  V30 12962 H 1211.89 -2.22797 5.02635 0
M  V30 12963 H 1213.12 -2.82006 6.17778 0
M  V30 12964 H 1211.06 -4.53941 4.73575 0
M  V30 12965 H 1210.98 -4.03646 6.39223 0
M  V30 12966 H 1212.25 -5.11191 5.88476 0
M  V30 12967 N 1216.48 -1.54033 -0.333429 0
M  V30 12968 C 1217.72 -1.72019 -1.07411 0
M  V30 12969 C 1218.06 -0.487265 -1.87988 0
M  V30 12970 O 1217.33 0.515757 -1.87537 0
M  V30 12971 C 1217.61 -2.98986 -2.00698 0
M  V30 12972 C 1217.47 -4.32509 -1.23517 0
M  V30 12973 C 1218.79 -3.21663 -3.00368 0
M  V30 12974 H 1215.9 -0.625919 -0.389094 0
M  V30 12975 H 1218.55 -1.86717 -0.351697 0
M  V30 12976 H 1216.7 -2.86586 -2.62298 0
M  V30 12977 H 1218.37 -4.56775 -0.644522 0
M  V30 12978 H 1216.61 -4.3046 -0.537298 0
M  V30 12979 H 1217.28 -5.17547 -1.91962 0
M  V30 12980 H 1219.76 -3.33459 -2.48886 0
M  V30 12981 H 1218.63 -4.11877 -3.62834 0
M  V30 12982 H 1218.9 -2.3843 -3.72295 0
M  V30 12983 N 1217.95 0.594978 -1.45938 0
M  V30 12984 C 1219.2 1.35561 -1.50834 0
M  V30 12985 C 1219.53 1.93584 -0.154566 0
M  V30 12986 O 1218.81 1.75781 0.832541 0
M  V30 12987 C 1219.09 2.49414 -2.5974 0
M  V30 12988 C 1218.94 1.96506 -4.04605 0
M  V30 12989 C 1220.26 3.51505 -2.64825 0
M  V30 12990 H 1217.38 0.491549 -0.549134 0
M  V30 12991 H 1220.02 0.669536 -1.77812 0
M  V30 12992 H 1218.17 3.07939 -2.36866 0
M  V30 12993 H 1219.85 1.42533 -4.38728 0
M  V30 12994 H 1218.09 1.27418 -4.14665 0
M  V30 12995 H 1218.76 2.78636 -4.76515 0
M  V30 12996 H 1221.24 3.02841 -2.85353 0
M  V30 12997 H 1220.11 4.28641 -3.42867 0
M  V30 12998 H 1220.37 4.07942 -1.70399 0
M  V30 12999 N 1219.43 1.33438 0.838571 0
M  V30 13000 C 1220.38 1.23717 1.94841 0
M  V30 13001 C 1221.35 0.11573 1.65696 0
M  V30 13002 O 1222.53 0.294051 1.8852 0
M  V30 13003 C 1219.67 0.982626 3.30815 0
M  V30 13004 C 1218.79 2.19036 3.72354 0
M  V30 13005 C 1217.92 1.86995 4.97199 0
M  V30 13006 C 1216.96 3.03998 5.31274 0
M  V30 13007 N 1216.1 2.71943 6.47295 0
M  V30 13008 H 1220.94 2.18639 2.02487 0
M  V30 13009 H 1218.48 1.08721 0.990861 0
M  V30 13010 H 1220.43 0.81548 4.09152 0
M  V30 13011 H 1219.06 0.0701443 3.22724 0
M  V30 13012 H 1218.12 2.46724 2.89537 0
M  V30 13013 H 1219.43 3.06505 3.93518 0
M  V30 13014 H 1218.58 1.66925 5.83285 0
M  V30 13015 H 1217.32 0.967628 4.78004 0
M  V30 13016 H 1216.33 3.24681 4.43692 0
M  V30 13017 H 1217.55 3.94985 5.52416 0
M  V30 13018 H 1215.5 1.8427 6.29588 0
M  V30 13019 H 1215.41 3.52943 6.68556 0
M  V30 13020 H 1216.68 2.55342 7.36492 0
M  V30 13021 N 1220.91 -1.05686 1.16912 0
M  V30 13022 C 1222.16 -1.77987 0.948875 0
M  V30 13023 C 1222.47 -1.8845 -0.524011 0
M  V30 13024 O 1223.68 -2.57442 -0.862322 0
M  V30 13025 C 1222.13 -3.19927 1.64848 0
M  V30 13026 C 1221.74 -3.1761 3.15956 0
M  V30 13027 C 1223.49 -3.96719 1.51044 0
M  V30 13028 C 1221.39 -4.54307 3.78628 0
M  V30 13029 H 1220.32 -0.667119 0.35138 0
M  V30 13030 H 1222.97 -1.18496 1.40111 0
M  V30 13031 H 1221.36 -3.79714 1.12397 0
M  V30 13032 H 1222.53 -2.67369 3.75301 0
M  V30 13033 H 1220.85 -2.54317 3.29715 0
M  V30 13034 H 1223.44 -4.97779 1.95243 0
M  V30 13035 H 1223.79 -4.13748 0.460268 0
M  V30 13036 H 1224.32 -3.43468 2.00685 0
M  V30 13037 H 1221.06 -4.42484 4.8362 0
M  V30 13038 H 1220.58 -5.04717 3.24069 0
M  V30 13039 H 1222.26 -5.23255 3.80543 0
M  V30 13040 N 1222.39 -0.968567 -1.24324 0
M  V30 13041 C 1223.63 -0.63879 -1.94162 0
M  V30 13042 C 1223.99 0.81112 -1.74025 0
M  V30 13043 O 1225.19 1.25116 -2.37906 0
M  V30 13044 C 1223.46 -1.00432 -3.42999 0
M  V30 13045 S 1225.02 -0.789227 -4.31644 0
M  V30 13046 H 1221.84 -0.234322 -0.671278 0
M  V30 13047 H 1224.44 -1.2457 -1.50673 0
M  V30 13048 H 1223.15 -2.05643 -3.55161 0
M  V30 13049 H 1222.68 -0.388221 -3.9148 0
M  V30 13050 H 1224.69 0.332976 -4.95082 0
M  V30 13051 N 1223.87 1.39211 -0.738786 0
M  V30 13052 C 1225.14 1.9442 -0.214533 0
M  V30 13053 C 1225.52 1.67528 1.28443 0
M  V30 13054 O 1224.87 1.0056 2.05183 0
M  V30 13055 C 1225.08 3.44603 -0.552232 0
M  V30 13056 C 1226.43 4.21602 -0.503663 0
M  V30 13057 O 1227.45 3.52819 -0.489647 0
M  V30 13058 O 1226.31 5.44194 -0.50153 0
M  V30 13059 H 1223.41 0.826011 -0.0404247 0
M  V30 13060 H 1225.95 1.48689 -0.817902 0
M  V30 13061 H 1224.72 3.57626 -1.58806 0
M  V30 13062 H 1224.35 3.9752 0.0799096 0
M  V30 13063 N 1225.34 0.486708 1.49896 0
M  V30 13064 C 1226.59 -0.062852 2.02402 0
M  V30 13065 C 1226.92 -1.38306 1.36754 0
M  V30 13066 O 1226.17 -1.89531 0.487493 0
M  V30 13067 C 1226.47 -0.278643 3.56312 0
M  V30 13068 C 1226.14 0.961794 4.40523 0
M  V30 13069 C 1224.8 1.30185 4.63255 0
M  V30 13070 C 1227.15 1.78697 4.89609 0
M  V30 13071 C 1224.48 2.46686 5.32318 0
M  V30 13072 C 1226.83 2.9434 5.59953 0
M  V30 13073 C 1225.5 3.28742 5.80935 0
M  V30 13074 H 1224.77 -0.0229992 0.740643 0
M  V30 13075 H 1227.41 0.643963 1.80348 0
M  V30 13076 H 1225.72 -1.06785 3.76967 0
M  V30 13077 H 1227.42 -0.718078 3.94518 0
M  V30 13078 H 1224.01 0.686887 4.2306 0
M  V30 13079 H 1228.19 1.53742 4.71887 0
M  V30 13080 H 1223.45 2.73596 5.46768 0
M  V30 13081 H 1227.62 3.58616 5.96965 0
M  V30 13082 H 1225.25 4.19121 6.34225 0
M  V30 13083 N 1226.82 -1.56058 0.219941 0
M  V30 13084 C 1228.07 -1.97869 -0.411383 0
M  V30 13085 C 1228.39 -1.10878 -1.60409 0
M  V30 13086 O 1227.66 -0.185454 -1.9502 0
M  V30 13087 H 1226.24 -0.730747 -0.154979 0
M  V30 13088 H 1228.9 -1.92379 0.312461 0
M  V30 13089 H 1228 -3.0323 -0.738798 0
M  V30 13090 N 1228.3 0.053464 -1.57509 0
M  V30 13091 C 1229.23 1.06151 -2.07977 0
M  V30 13092 C 1230.21 1.3924 -0.977047 0
M  V30 13093 O 1231.4 1.48549 -1.25087 0
M  V30 13094 C 1228.53 2.36969 -2.53895 0
M  V30 13095 C 1227.48 2.18186 -3.6821 0
M  V30 13096 C 1226.81 3.54551 -4.00247 0
M  V30 13097 C 1228.11 1.588 -4.97574 0
M  V30 13098 H 1229.8 0.641483 -2.92447 0
M  V30 13099 H 1227.35 0.307122 -1.40687 0
M  V30 13100 H 1229.3 3.07797 -2.87817 0
M  V30 13101 H 1228.02 2.80986 -1.66476 0
M  V30 13102 H 1226.68 1.49796 -3.34599 0
M  V30 13103 H 1226.33 3.96171 -3.09932 0
M  V30 13104 H 1226.03 3.42816 -4.77232 0
M  V30 13105 H 1227.56 4.2678 -4.36682 0
M  V30 13106 H 1228.97 2.19515 -5.29609 0
M  V30 13107 H 1227.37 1.57711 -5.79006 0
M  V30 13108 H 1228.44 0.551254 -4.81756 0
M  V30 13109 N 1229.78 1.54207 0.325255 0
M  V30 13110 C 1230.74 1.82757 1.38321 0
M  V30 13111 C 1231.74 0.699312 1.44797 0
M  V30 13112 O 1232.93 0.96762 1.44854 0
M  V30 13113 C 1230.06 1.98608 2.7707 0
M  V30 13114 H 1231.26 2.7728 1.14261 0
M  V30 13115 H 1228.81 1.45899 0.560647 0
M  V30 13116 H 1229.55 1.0629 3.06387 0
M  V30 13117 H 1229.33 2.80707 2.73763 0
M  V30 13118 H 1230.82 2.2215 3.53609 0
M  V30 13119 N 1231.26 -0.58723 1.46251 0
M  V30 13120 C 1232.67 -0.910129 1.31106 0
M  V30 13121 C 1232.87 -1.99557 0.279141 0
M  V30 13122 O 1231.93 -2.50466 -0.319867 0
M  V30 13123 C 1233.24 -1.33177 2.69601 0
M  V30 13124 C 1234.79 -1.44486 2.77656 0
M  V30 13125 C 1235.27 -1.90018 4.16722 0
M  V30 13126 N 1236.76 -1.97219 4.19117 0
M  V30 13127 C 1237.49 -2.33714 5.23608 0
M  V30 13128 N 1236.99 -2.69034 6.3843 0
M  V30 13129 N 1238.78 -2.3423 5.10972 0
M  V30 13130 H 1230.93 0.12987 2.12003 0
M  V30 13131 H 1233.19 -0.00456718 0.947989 0
M  V30 13132 H 1232.9 -0.608243 3.464 0
M  V30 13133 H 1232.77 -2.29421 2.99409 0
M  V30 13134 H 1235.16 -2.15926 2.01147 0
M  V30 13135 H 1235.24 -0.465047 2.51537 0
M  V30 13136 H 1234.89 -1.19159 4.93724 0
M  V30 13137 H 1234.82 -2.88949 4.40245 0
M  V30 13138 H 1237.31 -1.72431 3.36268 0
M  V30 13139 H 1237.62 -2.95822 7.13939 0
M  V30 13140 H 1235.97 -2.66683 6.41798 0
M  V30 13141 H 1239.16 -2.06056 4.20308 0
M  V30 13142 H 1239.33 -2.62345 5.92519 0
M  V30 13143 N 1232.74 -1.33881 -0.831482 0
M  V30 13144 C 1234.01 -1.16346 -1.57236 0
M  V30 13145 C 1234.39 0.267304 -2.09401 0
M  V30 13146 O 1233.74 1.26742 -1.90128 0
M  V30 13147 C 1233.95 -2.21082 -2.70044 0
M  V30 13148 C 1235.3 -2.5562 -3.39033 0
M  V30 13149 O 1236.32 -2.19806 -2.80292 0
M  V30 13150 O 1235.18 -3.17106 -4.45091 0
M  V30 13151 H 1232.28 -0.450469 -0.693546 0
M  V30 13152 H 1234.82 -1.45487 -0.873597 0
M  V30 13153 H 1233.59 -3.17155 -2.2919 0
M  V30 13154 H 1233.22 -1.9307 -3.47577 0
M  V30 13155 N 1234.21 1.05064 -1.1747 0
M  V30 13156 C 1235.46 1.77481 -0.958301 0
M  V30 13157 C 1235.78 1.88725 0.51401 0
M  V30 13158 O 1236.98 2.57895 0.848657 0
M  V30 13159 C 1235.44 3.19048 -1.66543 0
M  V30 13160 C 1235.05 3.1593 -3.17636 0
M  V30 13161 C 1236.79 3.95912 -1.53146 0
M  V30 13162 C 1234.7 4.52293 -3.81032 0
M  V30 13163 H 1233.63 0.665247 -0.354913 0
M  V30 13164 H 1236.28 1.17751 -1.40737 0
M  V30 13165 H 1234.66 3.79113 -1.1441 0
M  V30 13166 H 1235.83 2.65375 -3.76713 0
M  V30 13167 H 1234.15 2.52564 -3.31059 0
M  V30 13168 H 1236.75 4.96737 -1.9788 0
M  V30 13169 H 1237.09 4.13498 -0.482203 0
M  V30 13170 H 1237.62 3.42399 -2.02504 0
M  V30 13171 H 1234.36 4.39913 -4.8596 0
M  V30 13172 H 1233.88 5.02991 -3.26741 0
M  V30 13173 H 1235.56 5.2123 -3.83312 0
M  V30 13174 N 1235.69 0.975146 1.23809 0
M  V30 13175 C 1236.62 0.45593 2.23599 0
M  V30 13176 C 1237.6 -0.474069 1.55536 0
M  V30 13177 O 1238.79 -0.40373 1.84126 0
M  V30 13178 C 1235.91 -0.341008 3.36979 0
M  V30 13179 C 1234.96 0.532362 4.23164 0
M  V30 13180 S 1235.79 1.97706 4.97667 0
M  V30 13181 C 1236.95 1.18912 6.145 0
M  V30 13182 H 1237.18 1.30157 2.67295 0
M  V30 13183 H 1234.71 0.78074 1.33206 0
M  V30 13184 H 1236.67 -0.794817 4.02732 0
M  V30 13185 H 1235.33 -1.16171 2.91827 0
M  V30 13186 H 1234.53 -0.0798928 5.03937 0
M  V30 13187 H 1234.13 0.922202 3.62452 0
M  V30 13188 H 1236.42 0.447823 6.76018 0
M  V30 13189 H 1237.36 1.97148 6.80102 0
M  V30 13190 H 1237.77 0.710216 5.60014 0
M  V30 13191 N 1237.17 -1.38817 0.746158 0
M  V30 13192 C 1238.39 -2.05096 0.308302 0
M  V30 13193 C 1238.82 -1.55902 -1.05244 0
M  V30 13194 O 1238.18 -0.707685 -1.66918 0
M  V30 13195 C 1238.23 -3.59068 0.332016 0
M  V30 13196 O 1237.33 -4.06813 -0.676547 0
M  V30 13197 H 1236.67 -0.649523 0.1379 0
M  V30 13198 H 1239.2 -1.77637 1.0152 0
M  V30 13199 H 1239.21 -4.07601 0.180293 0
M  V30 13200 H 1237.89 -3.94234 1.32487 0
M  V30 13201 H 1236.46 -3.69666 -0.490046 0
M  V30 13202 N 1238.65 -0.49465 -1.49636 0
M  V30 13203 C 1239.92 0.114829 -1.95263 0
M  V30 13204 C 1240.3 1.54739 -1.43593 0
M  V30 13205 O 1239.65 2.1915 -0.646953 0
M  V30 13206 C 1239.86 0.0339912 -3.48983 0
M  V30 13207 C 1241.21 0.211108 -4.24075 0
M  V30 13208 O 1242.23 0.109478 -3.56032 0
M  V30 13209 O 1241.09 0.418971 -5.44892 0
M  V30 13210 H 1238.19 0.0987883 -0.821078 0
M  V30 13211 H 1240.73 -0.556736 -1.60308 0
M  V30 13212 H 1239.51 -0.965287 -3.79207 0
M  V30 13213 H 1239.13 0.745982 -3.90539 0
M  V30 13214 N 1240.13 1.55939 -0.228214 0
M  V30 13215 C 1241.35 2.0332 0.409364 0
M  V30 13216 C 1241.78 1.10683 1.52088 0
M  V30 13217 O 1241.13 0.0962484 1.81044 0
M  V30 13218 C 1241.18 3.48877 0.911981 0
M  V30 13219 O 1240.29 3.59378 2.02289 0
M  V30 13220 H 1239.63 0.657625 0.0917909 0
M  V30 13221 H 1242.16 2.01605 -0.348802 0
M  V30 13222 H 1242.17 3.89331 1.22007 0
M  V30 13223 H 1240.84 4.15783 0.0984902 0
M  V30 13224 H 1239.42 3.30815 1.72093 0
M  V30 13225 N 1241.6 -0.0451101 1.57535 0
M  V30 13226 C 1242.55 -1.0692 2.06569 0
M  V30 13227 C 1243.55 -1.38443 0.976218 0
M  V30 13228 O 1244.75 -1.37536 1.1612 0
M  V30 13229 H 1241.13 -0.36226 0.658993 0
M  V30 13230 H 1243.1 -0.629709 2.9168 0
M  V30 13231 C 1241.85 -2.36656 2.54733 0
M  V30 13232 H 1241.17 -2.13257 3.38174 0
M  V30 13233 H 1242.61 -3.06696 2.92769 0
M  V30 13234 C 1241.07 -3.04499 1.4416 0
M  V30 13235 O 1241.6 -3.93679 0.798721 0
M  V30 13236 N 1239.81 -2.6556 1.18009 0
M  V30 13237 H 1239.35 -1.93126 1.7047 0
M  V30 13238 H 1239.31 -3.11272 0.442363 0
M  V30 13239 N 1243.08 -1.54377 -0.317073 0
M  V30 13240 C 1244.31 -1.76608 -1.07206 0
M  V30 13241 C 1244.72 -0.517818 -1.81976 0
M  V30 13242 O 1244.06 0.521375 -1.76146 0
M  V30 13243 C 1244.13 -2.91 -2.11091 0
M  V30 13244 C 1243.79 -4.29673 -1.55661 0
M  V30 13245 C 1244.79 -5.1029 -0.994999 0
M  V30 13246 C 1242.47 -4.76234 -1.59708 0
M  V30 13247 C 1244.47 -6.35581 -0.48123 0
M  V30 13248 C 1242.15 -6.01491 -1.07944 0
M  V30 13249 C 1243.15 -6.80999 -0.522467 0
M  V30 13250 O 1242.84 -8.03899 -0.0126274 0
M  V30 13251 H 1242.57 -0.593061 -0.32443 0
M  V30 13252 H 1245.12 -2.02097 -0.366859 0
M  V30 13253 H 1243.35 -2.61097 -2.85246 0
M  V30 13254 H 1245.04 -3.00954 -2.72363 0
M  V30 13255 H 1245.81 -4.7547 -0.956752 0
M  V30 13256 H 1241.69 -4.14387 -2.02 0
M  V30 13257 H 1245.23 -6.97585 -0.0458374 0
M  V30 13258 H 1241.13 -6.35801 -1.11478 0
M  V30 13259 H 1241.9 -8.18401 -0.127442 0
M  V30 13260 N 1244.56 0.579466 -1.4656 0
M  V30 13261 C 1245.81 1.33954 -1.52264 0
M  V30 13262 C 1246.14 1.93409 -0.175089 0
M  V30 13263 O 1245.41 1.76654 0.81385 0
M  V30 13264 C 1245.7 2.46645 -2.6237 0
M  V30 13265 C 1245.55 1.92204 -4.06667 0
M  V30 13266 C 1246.87 3.48676 -2.68538 0
M  V30 13267 H 1243.99 0.485697 -0.554317 0
M  V30 13268 H 1246.63 0.650639 -1.78512 0
M  V30 13269 H 1244.78 3.0541 -2.40119 0
M  V30 13270 H 1246.45 1.37871 -4.40215 0
M  V30 13271 H 1244.7 1.23012 -4.15993 0
M  V30 13272 H 1245.37 2.73566 -4.79443 0
M  V30 13273 H 1247.84 2.99798 -2.88549 0
M  V30 13274 H 1246.72 4.24981 -3.47394 0
M  V30 13275 H 1246.98 4.06112 -1.74716 0
M  V30 13276 N 1246.04 1.3432 0.824371 0
M  V30 13277 C 1247.28 1.26783 1.58284 0
M  V30 13278 C 1247.62 -0.162282 1.93521 0
M  V30 13279 O 1246.89 -1.1073 1.59903 0
M  V30 13280 C 1247.18 2.15725 2.88331 0
M  V30 13281 C 1247.03 3.67266 2.59684 0
M  V30 13282 C 1248.35 2.04141 3.8989 0
M  V30 13283 H 1245.47 0.461893 0.574303 0
M  V30 13284 H 1248.11 1.64558 0.949769 0
M  V30 13285 H 1246.26 1.83639 3.42358 0
M  V30 13286 H 1247.93 4.09711 2.11978 0
M  V30 13287 H 1246.17 3.88426 1.93151 0
M  V30 13288 H 1246.84 4.24863 3.52414 0
M  V30 13289 H 1249.32 2.3231 3.45212 0
M  V30 13290 H 1248.2 2.68601 4.7869 0
M  V30 13291 H 1248.46 1.01795 4.30221 0
M  V30 13292 N 1247.52 -1.0444 1.18026 0
M  V30 13293 C 1248.93 -1.29766 0.929143 0
M  V30 13294 C 1249.13 -1.97338 -0.407436 0
M  V30 13295 O 1248.19 -2.25166 -1.14265 0
M  V30 13296 C 1249.5 -2.16002 2.09197 0
M  V30 13297 C 1251.05 -2.29361 2.12985 0
M  V30 13298 C 1251.52 -3.18962 3.28675 0
M  V30 13299 N 1253.02 -3.26549 3.28512 0
M  V30 13300 C 1253.75 -3.96025 4.14671 0
M  V30 13301 N 1253.25 -4.67863 5.10956 0
M  V30 13302 N 1255.04 -3.92266 4.02597 0
M  V30 13303 H 1247.19 -0.58984 2.04046 0
M  V30 13304 H 1249.45 -0.322752 0.891367 0
M  V30 13305 H 1249.16 -1.73653 3.05839 0
M  V30 13306 H 1249.03 -3.16667 2.04943 0
M  V30 13307 H 1251.42 -2.70948 1.16924 0
M  V30 13308 H 1251.5 -1.28299 2.21298 0
M  V30 13309 H 1251.15 -2.78087 4.25006 0
M  V30 13310 H 1251.08 -4.20047 3.17598 0
M  V30 13311 H 1253.57 -2.75371 2.58804 0
M  V30 13312 H 1253.88 -5.1846 5.73079 0
M  V30 13313 H 1252.22 -4.6678 5.14919 0
M  V30 13314 H 1255.42 -3.35273 3.26665 0
M  V30 13315 H 1255.59 -4.4614 4.69961 0
M  V30 13316 N 1248.99 -0.981699 -1.2329 0
M  V30 13317 C 1250.24 -0.650015 -1.91361 0
M  V30 13318 C 1250.56 0.819184 -1.76959 0
M  V30 13319 O 1249.83 1.5861 -1.14977 0
M  V30 13320 H 1248.41 -0.237427 -0.708264 0
M  V30 13321 H 1251.08 -1.24579 -1.49887 0
M  V30 13322 H 1250.17 -0.902772 -2.98758 0
M  V30 13323 N 1250.47 1.3842 -0.753509 0
M  V30 13324 C 1251.42 2.32315 -0.115107 0
M  V30 13325 C 1252.41 1.54015 0.705398 0
M  V30 13326 O 1253.62 1.69546 0.604505 0
M  V30 13327 H 1250 0.751774 -0.0184276 0
M  V30 13328 H 1251.97 2.83763 -0.923094 0
M  V30 13329 C 1250.72 3.39206 0.763849 0
M  V30 13330 H 1250.04 3.99548 0.14187 0
M  V30 13331 H 1251.48 4.07312 1.17783 0
M  V30 13332 C 1249.94 2.77771 1.90643 0
M  V30 13333 O 1250.47 2.67073 3.00058 0
M  V30 13334 N 1248.67 2.35582 1.70145 0
M  V30 13335 H 1248.22 2.44483 0.811528 0
M  V30 13336 H 1248.18 1.9482 2.46764 0
M  V30 13337 N 1251.95 0.502579 1.49372 0
M  V30 13338 C 1252.91 -0.263993 2.27675 0
M  V30 13339 C 1253.91 -0.892538 1.33755 0
M  V30 13340 O 1255.1 -0.756826 1.56901 0
M  V30 13341 C 1252.24 -1.37895 3.11765 0
M  V30 13342 H 1253.43 0.423132 2.969 0
M  V30 13343 H 1250.98 0.257595 1.54163 0
M  V30 13344 H 1251.72 -2.10018 2.47109 0
M  V30 13345 H 1251.5 -0.933694 3.80821 0
M  V30 13346 H 1252.99 -1.91889 3.70902 0
M  V30 13347 N 1253.43 -1.55816 0.23648 0
M  V30 13348 C 1254.84 -1.59159 -0.118601 0
M  V30 13349 C 1255.04 -1.25352 -1.57763 0
M  V30 13350 O 1254.1 -0.995863 -2.32032 0
M  V30 13351 C 1255.41 -2.99885 0.221175 0
M  V30 13352 C 1256.96 -3.12567 0.164624 0
M  V30 13353 C 1257.44 -4.55496 0.478285 0
M  V30 13354 N 1258.93 -4.61215 0.428402 0
M  V30 13355 C 1259.66 -5.69768 0.644398 0
M  V30 13356 N 1259.16 -6.86624 0.922966 0
M  V30 13357 N 1260.95 -5.59143 0.575814 0
M  V30 13358 H 1253.1 -1.76063 1.18809 0
M  V30 13359 H 1255.37 -0.819079 0.477297 0
M  V30 13360 H 1255.07 -3.29326 1.2344 0
M  V30 13361 H 1254.95 -3.74425 -0.456723 0
M  V30 13362 H 1257.33 -2.82914 -0.839263 0
M  V30 13363 H 1257.41 -2.40325 0.876219 0
M  V30 13364 H 1257.06 -4.85868 1.47968 0
M  V30 13365 H 1256.99 -5.25984 -0.254671 0
M  V30 13366 H 1259.48 -3.77251 0.221398 0
M  V30 13367 H 1259.79 -7.6528 1.07548 0
M  V30 13368 H 1258.14 -6.88333 0.960325 0
M  V30 13369 H 1261.33 -4.66727 0.358307 0
M  V30 13370 H 1261.5 -6.43674 0.747548 0
M  V30 13371 N 1254.91 0.036755 -1.57557 0
M  V30 13372 C 1255.84 1.03939 -2.09091 0
M  V30 13373 C 1256.82 1.38196 -0.991761 0
M  V30 13374 O 1258 1.47214 -1.26656 0
M  V30 13375 C 1255.13 2.34263 -2.56394 0
M  V30 13376 C 1254.09 2.14269 -3.70504 0
M  V30 13377 C 1253.41 3.50286 -4.03985 0
M  V30 13378 C 1254.71 1.53514 -4.9923 0
M  V30 13379 H 1256.41 0.610429 -2.93111 0
M  V30 13380 H 1253.95 0.292183 -1.41005 0
M  V30 13381 H 1255.91 3.04727 -2.91066 0
M  V30 13382 H 1254.63 2.79205 -1.69447 0
M  V30 13383 H 1253.29 1.46239 -3.36169 0
M  V30 13384 H 1252.94 3.92861 -3.14116 0
M  V30 13385 H 1252.64 3.37735 -4.80842 0
M  V30 13386 H 1254.16 4.22124 -4.41184 0
M  V30 13387 H 1255.57 2.13885 -5.31908 0
M  V30 13388 H 1253.97 1.51561 -5.80646 0
M  V30 13389 H 1255.04 0.500126 -4.82314 0
M  V30 13390 N 1256.39 1.54543 0.308881 0
M  V30 13391 C 1257.8 1.64532 0.882392 0
M  V30 13392 C 1258.15 0.54886 1.88367 0
M  V30 13393 O 1257.27 -0.315832 2.14083 0
M  V30 13394 C 1257.87 2.98251 1.60722 0
M  V30 13395 C 1256.43 3.10387 2.12925 0
M  V30 13396 C 1255.57 2.60176 0.959362 0
M  V30 13397 H 1258.52 1.58466 0.0860803 0
M  V30 13398 H 1258.55 2.89233 2.47233 0
M  V30 13399 H 1258.06 3.78033 0.878233 0
M  V30 13400 H 1256.16 2.35309 2.88895 0
M  V30 13401 H 1256.27 4.16421 2.36918 0
M  V30 13402 H 1254.64 2.16434 1.3427 0
M  V30 13403 H 1255.42 3.42429 0.244454 0
M  V30 13404 N 1257.86 -0.571685 1.46866 0
M  V30 13405 C 1259.11 -1.33145 1.52972 0
M  V30 13406 C 1259.44 -1.93314 0.185344 0
M  V30 13407 O 1258.72 -1.77083 -0.80447 0
M  V30 13408 C 1259 -2.4525 2.63675 0
M  V30 13409 C 1258.85 -1.90044 4.0768 0
M  V30 13410 C 1260.17 -3.47247 2.70384 0
M  V30 13411 H 1257.29 -0.482751 0.556885 0
M  V30 13412 H 1259.93 -0.641163 1.78855 0
M  V30 13413 H 1258.08 -3.04132 2.41735 0
M  V30 13414 H 1259.76 -1.35535 4.4094 0
M  V30 13415 H 1258 -1.20805 4.1664 0
M  V30 13416 H 1258.67 -2.71019 4.80887 0
M  V30 13417 H 1261.15 -2.98263 2.90135 0
M  V30 13418 H 1260.02 -4.23132 3.49643 0
M  V30 13419 H 1260.28 -4.05179 1.76868 0
M  V30 13420 N 1259.34 -1.34755 -0.817236 0
M  V30 13421 C 1260.29 -1.26801 -1.92848 0
M  V30 13422 C 1261.26 -0.142077 -1.65491 0
M  V30 13423 O 1262.44 -0.324006 -1.88029 0
M  V30 13424 C 1259.58 -1.03513 -3.2921 0
M  V30 13425 C 1258.7 -2.24932 -3.68822 0
M  V30 13426 C 1257.83 -1.94881 -4.94161 0
M  V30 13427 C 1256.87 -3.12411 -5.2637 0
M  V30 13428 N 1256.01 -2.82207 -6.42887 0
M  V30 13429 H 1260.85 -2.21832 -1.98983 0
M  V30 13430 H 1258.38 -1.10284 -0.973439 0
M  V30 13431 H 1260.34 -0.88047 -4.07803 0
M  V30 13432 H 1258.97 -0.121478 -3.22571 0
M  V30 13433 H 1258.02 -2.51299 -2.85575 0
M  V30 13434 H 1259.34 -3.12726 -3.88592 0
M  V30 13435 H 1258.49 -1.76184 -5.80555 0
M  V30 13436 H 1257.23 -1.04355 -4.76405 0
M  V30 13437 H 1256.23 -3.31698 -4.3847 0
M  V30 13438 H 1257.46 -4.03724 -5.46062 0
M  V30 13439 H 1255.41 -1.94263 -6.26576 0
M  V30 13440 H 1255.32 -3.63534 -6.62857 0
M  V30 13441 H 1256.59 -2.67026 -7.32337 0
M  V30 13442 N 1260.82 1.03812 -1.18578 0
M  V30 13443 C 1262.07 1.77447 -0.994191 0
M  V30 13444 C 1262.42 1.86546 0.470974 0
M  V30 13445 O 1261.71 1.3644 1.34517 0
M  V30 13446 C 1261.91 3.20297 -1.5857 0
M  V30 13447 C 1261.74 3.25122 -3.10686 0
M  V30 13448 C 1260.51 3.33604 -3.79521 0
M  V30 13449 C 1262.7 3.12923 -4.08147 0
M  V30 13450 N 1260.69 3.27705 -5.19117 0
M  V30 13451 C 1262.06 3.14553 -5.34281 0
M  V30 13452 C 1264.11 2.96983 -3.99631 0
M  V30 13453 C 1262.82 3.0188 -6.52887 0
M  V30 13454 C 1264.84 2.85657 -5.17836 0
M  V30 13455 C 1264.2 2.87933 -6.42864 0
M  V30 13456 H 1260.3 0.661013 -0.417835 0
M  V30 13457 H 1262.89 1.23648 -1.50397 0
M  V30 13458 H 1261.06 3.72437 -1.10207 0
M  V30 13459 H 1262.79 3.82243 -1.32937 0
M  V30 13460 H 1259.54 3.39442 -3.30266 0
M  V30 13461 H 1259.97 3.28188 -5.92133 0
M  V30 13462 H 1264.61 2.94052 -3.03798 0
M  V30 13463 H 1262.33 3.03563 -7.48916 0
M  V30 13464 H 1265.91 2.74374 -5.1304 0
M  V30 13465 H 1264.79 2.79259 -7.32792 0
M  V30 13466 N 1262.3 0.988223 1.22768 0
M  V30 13467 C 1263.23 0.47962 2.23103 0
M  V30 13468 C 1264.21 -0.457546 1.5603 0
M  V30 13469 O 1265.39 -0.384178 1.84544 0
M  V30 13470 C 1262.52 -0.305248 3.37322 0
M  V30 13471 C 1261.57 0.577215 4.22576 0
M  V30 13472 S 1262.4 2.02974 4.95542 0
M  V30 13473 C 1263.55 1.25423 6.13205 0
M  V30 13474 H 1263.79 1.32985 2.65899 0
M  V30 13475 H 1261.32 0.794824 1.3237 0
M  V30 13476 H 1263.28 -0.752057 4.03552 0
M  V30 13477 H 1261.94 -1.1307 2.93043 0
M  V30 13478 H 1261.13 -0.0264391 5.03993 0
M  V30 13479 H 1260.73 0.960593 3.61453 0
M  V30 13480 H 1263.03 0.519499 6.75505 0
M  V30 13481 H 1263.97 2.04351 6.77972 0
M  V30 13482 H 1264.38 0.769573 5.5923 0
M  V30 13483 N 1263.78 -1.38018 0.760839 0
M  V30 13484 C 1264.74 -2.28734 0.146154 0
M  V30 13485 C 1265.74 -1.47525 -0.639768 0
M  V30 13486 O 1266.93 -1.6788 -0.464964 0
M  V30 13487 C 1264.06 -3.31356 -0.801019 0
M  V30 13488 H 1265.25 -2.84599 0.945692 0
M  V30 13489 H 1262.81 -1.471 0.528323 0
M  V30 13490 H 1263.54 -2.80594 -1.62597 0
M  V30 13491 H 1263.33 -3.91366 -0.239775 0
M  V30 13492 H 1264.82 -3.99171 -1.22687 0
M  V30 13493 N 1265.25 -0.510493 -1.49103 0
M  V30 13494 C 1266.66 -0.0650831 -1.86587 0
M  V30 13495 C 1267.02 1.35185 -1.42195 0
M  V30 13496 O 1266.14 2.0091 -0.804004 0
M  V30 13497 C 1266.74 -0.111333 -3.38617 0
M  V30 13498 C 1265.29 0.278782 -3.75366 0
M  V30 13499 C 1264.44 -0.479707 -2.73119 0
M  V30 13500 H 1267.39 -0.722784 -1.41285 0
M  V30 13501 H 1267.41 0.681706 -3.74343 0
M  V30 13502 H 1266.93 -1.14271 -3.70896 0
M  V30 13503 H 1265.03 1.31304 -3.48698 0
M  V30 13504 H 1265.14 -0.047271 -4.79077 0
M  V30 13505 H 1263.5 0.0716459 -2.54599 0
M  V30 13506 H 1264.29 -1.51135 -3.08242 0
M  V30 13507 N 1266.73 1.55688 -0.24474 0
M  V30 13508 C 1267.64 2.24933 0.666519 0
M  V30 13509 C 1268.66 1.26471 1.19503 0
M  V30 13510 O 1269.83 1.59342 1.23176 0
M  V30 13511 C 1266.9 2.9336 1.84772 0
M  V30 13512 C 1265.96 4.07225 1.35889 0
M  V30 13513 C 1265.19 4.72381 2.48379 0
M  V30 13514 O 1265.42 4.36605 3.67059 0
M  V30 13515 O 1264.35 5.60933 2.18261 0
M  V30 13516 H 1268.18 3.03513 0.106507 0
M  V30 13517 H 1265.76 1.49394 -0.0133309 0
M  V30 13518 H 1267.64 3.36468 2.53708 0
M  V30 13519 H 1266.32 2.17721 2.39539 0
M  V30 13520 H 1265.22 3.68639 0.636881 0
M  V30 13521 H 1266.56 4.84676 0.857333 0
M  V30 13522 N 1268.21 -0.0283989 1.57574 0
M  V30 13523 C 1269.43 -0.734537 1.93957 0
M  V30 13524 C 1269.86 -1.68062 0.844787 0
M  V30 13525 O 1269.22 -1.802 -0.199432 0
M  V30 13526 C 1269.27 -1.46716 3.29404 0
M  V30 13527 O 1268.37 -2.58036 3.217 0
M  V30 13528 H 1267.71 -0.197507 0.633946 0
M  V30 13529 H 1270.24 0.0163258 2.04593 0
M  V30 13530 H 1270.25 -1.83693 3.64309 0
M  V30 13531 H 1268.93 -0.773292 4.08648 0
M  V30 13532 H 1267.5 -2.23597 2.98427 0
M  V30 13533 N 1269.69 -1.54705 -0.300681 0
M  V30 13534 C 1270.62 -1.88679 -1.37559 0
M  V30 13535 C 1271.6 -0.74574 -1.52881 0
M  V30 13536 O 1272.78 -1.0015 -1.66384 0
M  V30 13537 C 1269.91 -2.13438 -2.73974 0
M  V30 13538 C 1268.87 -3.29284 -2.73415 0
M  V30 13539 C 1268.19 -3.39462 -4.13122 0
M  V30 13540 C 1269.49 -4.66382 -2.35128 0
M  V30 13541 H 1271.19 -2.78707 -1.09373 0
M  V30 13542 H 1268.73 -1.341 -0.524704 0
M  V30 13543 H 1270.69 -2.35791 -3.49257 0
M  V30 13544 H 1269.41 -1.20181 -3.03684 0
M  V30 13545 H 1268.07 -3.06855 -2.00588 0
M  V30 13546 H 1267.72 -2.43721 -4.4001 0
M  V30 13547 H 1267.42 -4.17334 -4.1365 0
M  V30 13548 H 1268.94 -3.64075 -4.90185 0
M  V30 13549 H 1270.36 -4.88463 -3.00128 0
M  V30 13550 H 1268.75 -5.4697 -2.46867 0
M  V30 13551 H 1269.82 -4.67078 -1.30256 0
M  V30 13552 N 1271.17 0.563888 -1.47167 0
M  V30 13553 C 1272.41 1.32136 -1.53448 0
M  V30 13554 C 1272.74 1.9353 -0.19396 0
M  V30 13555 O 1272 1.78038 0.812456 0
M  V30 13556 C 1272.3 2.45678 -2.59571 0
M  V30 13557 C 1271.96 2.02157 -4.03043 0
M  V30 13558 C 1270.62 1.90003 -4.421 0
M  V30 13559 C 1272.98 1.68846 -4.93093 0
M  V30 13560 C 1270.3 1.42825 -5.6905 0
M  V30 13561 C 1272.66 1.2314 -6.20499 0
M  V30 13562 C 1271.32 1.09578 -6.58444 0
M  V30 13563 H 1270.59 0.483519 -0.561507 0
M  V30 13564 H 1273.24 0.633042 -1.80734 0
M  V30 13565 H 1271.54 3.20037 -2.26017 0
M  V30 13566 H 1273.24 3.03871 -2.61655 0
M  V30 13567 H 1269.83 2.12557 -3.7218 0
M  V30 13568 H 1274.01 1.77111 -4.63622 0
M  V30 13569 H 1269.27 1.30983 -5.97205 0
M  V30 13570 H 1273.44 0.964247 -6.89692 0
M  V30 13571 H 1271.07 0.727975 -7.56706 0
M  V30 13572 N 1272.64 1.35187 0.810078 0
M  V30 13573 C 1273.55 1.29926 1.95337 0
M  V30 13574 C 1274.57 0.204748 1.72791 0
M  V30 13575 O 1275.75 0.433507 1.96679 0
M  V30 13576 C 1272.81 1.06736 3.29861 0
M  V30 13577 C 1271.87 2.25466 3.65326 0
M  V30 13578 C 1271.11 2.03373 4.93432 0
M  V30 13579 O 1271.33 0.998419 5.61594 0
M  V30 13580 O 1270.26 2.90648 5.27075 0
M  V30 13581 H 1274.09 2.26137 2.02721 0
M  V30 13582 H 1271.67 1.15523 0.947354 0
M  V30 13583 H 1273.56 0.956367 4.10404 0
M  V30 13584 H 1272.23 0.135735 3.23415 0
M  V30 13585 H 1271.14 2.42129 2.85175 0
M  V30 13586 H 1272.47 3.17063 3.76473 0
M  V30 13587 N 1274.12 -1.03182 1.19127 0
M  V30 13588 C 1275.37 -1.76184 0.990134 0
M  V30 13589 C 1275.69 -1.88986 -0.480546 0
M  V30 13590 O 1274.96 -1.4213 -1.34817 0
M  V30 13591 H 1273.54 -0.652668 0.363364 0
M  V30 13592 H 1276.2 -1.24481 1.49968 0
M  V30 13593 H 1275.3 -2.77119 1.43568 0
M  V30 13594 N 1275.6 -0.99472 -1.22242 0
M  V30 13595 C 1276.85 -0.667045 -1.90351 0
M  V30 13596 C 1277.16 0.804615 -1.78284 0
M  V30 13597 O 1278.37 1.24395 -2.41326 0
M  V30 13598 C 1276.82 -1.14256 -3.41282 0
M  V30 13599 C 1276.43 -2.63958 -3.61981 0
M  V30 13600 C 1278.18 -0.889302 -4.1508 0
M  V30 13601 C 1276.08 -3.05103 -5.06622 0
M  V30 13602 H 1275.01 -0.245795 -0.712812 0
M  V30 13603 H 1277.66 -1.20452 -1.38432 0
M  V30 13604 H 1276.05 -0.533203 -3.92394 0
M  V30 13605 H 1277.22 -3.30255 -3.21354 0
M  V30 13606 H 1275.54 -2.87186 -3.01518 0
M  V30 13607 H 1278.13 -1.17239 -5.21689 0
M  V30 13608 H 1278.48 0.174556 -4.15934 0
M  V30 13609 H 1279.01 -1.46095 -3.70002 0
M  V30 13610 H 1275.75 -4.10672 -5.1091 0
M  V30 13611 H 1275.27 -2.4351 -5.48145 0
M  V30 13612 H 1276.95 -2.96506 -5.75059 0
M  V30 13613 N 1277.08 1.37613 -0.768148 0
M  V30 13614 C 1278.31 2.03756 -0.341615 0
M  V30 13615 C 1278.72 1.58063 1.03984 0
M  V30 13616 O 1278.06 0.755609 1.6744 0
M  V30 13617 C 1278.12 3.58229 -0.302032 0
M  V30 13618 C 1277.79 4.27039 -1.62747 0
M  V30 13619 C 1278.78 4.51408 -2.57928 0
M  V30 13620 C 1276.47 4.64941 -1.90092 0
M  V30 13621 C 1278.46 5.12731 -3.78663 0
M  V30 13622 C 1276.15 5.25986 -3.11098 0
M  V30 13623 C 1277.15 5.49818 -4.05203 0
M  V30 13624 O 1276.83 6.09588 -5.24078 0
M  V30 13625 H 1276.57 0.660992 -0.141655 0
M  V30 13626 H 1279.12 1.77001 -1.04211 0
M  V30 13627 H 1277.35 3.84016 0.454811 0
M  V30 13628 H 1279.04 4.05784 0.0969452 0
M  V30 13629 H 1279.81 4.22542 -2.38083 0
M  V30 13630 H 1275.68 4.45729 -1.17674 0
M  V30 13631 H 1279.23 5.31249 -4.52129 0
M  V30 13632 H 1275.13 5.54276 -3.3083 0
M  V30 13633 H 1275.89 6.28068 -5.24855 0
M  V30 13634 N 1278.56 0.518393 1.4883 0
M  V30 13635 C 1279.78 -0.0162 2.06894 0
M  V30 13636 C 1280.2 -1.29222 1.37649 0
M  V30 13637 O 1279.56 -1.766 0.460288 0
M  V30 13638 C 1279.61 -0.255836 3.60594 0
M  V30 13639 O 1279.33 0.969612 4.27235 0
M  V30 13640 C 1280.83 -0.832117 4.3542 0
M  V30 13641 H 1278.05 0.0282877 0.670403 0
M  V30 13642 H 1280.59 0.720726 1.91379 0
M  V30 13643 H 1278.75 -0.942782 3.75753 0
M  V30 13644 H 1279.16 0.743172 5.19208 0
M  V30 13645 H 1280.64 -0.949279 5.43776 0
M  V30 13646 H 1281.11 -1.83421 3.99066 0
M  V30 13647 H 1281.72 -0.1821 4.2491 0
M  V30 13648 N 1280.03 -1.55556 0.252993 0
M  V30 13649 C 1281.28 -1.98267 -0.370571 0
M  V30 13650 C 1281.6 -1.14449 -1.58622 0
M  V30 13651 O 1282.8 -1.472 -2.28132 0
M  V30 13652 C 1281.26 -3.52813 -0.710685 0
M  V30 13653 C 1280.87 -4.45379 0.483908 0
M  V30 13654 C 1282.61 -4.04165 -1.2981 0
M  V30 13655 C 1280.52 -5.91279 0.119611 0
M  V30 13656 H 1279.45 -0.740463 -0.142232 0
M  V30 13657 H 1282.1 -1.8005 0.354169 0
M  V30 13658 H 1280.48 -3.66748 -1.49372 0
M  V30 13659 H 1281.65 -4.43206 1.26116 0
M  V30 13660 H 1279.97 -4.04542 0.986664 0
M  V30 13661 H 1282.57 -5.10696 -1.5841 0
M  V30 13662 H 1282.91 -3.51875 -2.22462 0
M  V30 13663 H 1283.44 -3.93581 -0.577836 0
M  V30 13664 H 1280.18 -6.47619 1.01343 0
M  V30 13665 H 1279.7 -5.96573 -0.621318 0
M  V30 13666 H 1281.38 -6.46322 -0.296052 0
M  V30 13667 N 1281.51 0.0200419 -1.57587 0
M  V30 13668 C 1282.46 1.01784 -2.07144 0
M  V30 13669 C 1283.43 1.3537 -0.962501 0
M  V30 13670 O 1284.61 1.45553 -1.23365 0
M  V30 13671 C 1281.75 2.31091 -2.56302 0
M  V30 13672 C 1280.87 2.03584 -3.81022 0
M  V30 13673 C 1280 3.26827 -4.18757 0
M  V30 13674 C 1279.04 2.94915 -5.36369 0
M  V30 13675 N 1278.18 4.10636 -5.69493 0
M  V30 13676 H 1283.02 0.588288 -2.92136 0
M  V30 13677 H 1280.56 0.278848 -1.44433 0
M  V30 13678 H 1282.51 3.06656 -2.82874 0
M  V30 13679 H 1281.14 2.71752 -1.74215 0
M  V30 13680 H 1280.2 1.18475 -3.6148 0
M  V30 13681 H 1281.51 1.76049 -4.66699 0
M  V30 13682 H 1280.66 4.10753 -4.46505 0
M  V30 13683 H 1279.4 3.57483 -3.31749 0
M  V30 13684 H 1278.41 2.09392 -5.08365 0
M  V30 13685 H 1279.63 2.65528 -6.25037 0
M  V30 13686 H 1277.58 4.41226 -4.85444 0
M  V30 13687 H 1277.49 3.86556 -6.497 0
M  V30 13688 H 1278.76 4.95409 -6.01822 0
M  V30 13689 N 1282.99 1.54862 0.292472 0
M  V30 13690 C 1284.22 1.78877 1.04966 0
M  V30 13691 C 1284.64 0.550724 1.79857 0
M  V30 13692 O 1284 -0.499054 1.74296 0
M  V30 13693 C 1284.05 3.00106 1.99922 0
M  V30 13694 O 1283.15 2.73827 3.0837 0
M  V30 13695 H 1282.49 0.591802 0.301108 0
M  V30 13696 H 1285.02 2.01965 0.3273 0
M  V30 13697 H 1285.03 3.28309 2.42233 0
M  V30 13698 H 1283.71 3.89872 1.44821 0
M  V30 13699 H 1282.28 2.56665 2.70513 0
M  V30 13700 N 1284.47 -0.556076 1.47464 0
M  V30 13701 C 1285.75 -1.31689 1.44628 0
M  V30 13702 C 1286.13 -2.10609 0.143841 0
M  V30 13703 O 1285.47 -2.11097 -0.874662 0
M  V30 13704 C 1285.68 -2.22045 2.69253 0
M  V30 13705 C 1287.03 -2.83028 3.16513 0
M  V30 13706 O 1288.06 -2.32346 2.69988 0
M  V30 13707 O 1286.91 -3.75148 3.97399 0
M  V30 13708 H 1284.01 -0.593026 0.576411 0
M  V30 13709 H 1286.55 -0.574885 1.59666 0
M  V30 13710 H 1285.33 -1.63337 3.5558 0
M  V30 13711 H 1284.95 -3.03539 2.56807 0
M  V30 13712 N 1285.95 -1.35615 -0.802897 0
M  V30 13713 C 1287.19 -1.29285 -1.56247 0
M  V30 13714 C 1287.53 0.131474 -1.93754 0
M  V30 13715 O 1286.8 1.08172 -1.61645 0
M  V30 13716 C 1287.08 -2.20285 -2.84863 0
M  V30 13717 C 1286.94 -3.71351 -2.53808 0
M  V30 13718 C 1288.26 -2.10318 -3.86593 0
M  V30 13719 H 1285.38 -0.470972 -0.566882 0
M  V30 13720 H 1288.02 -1.66048 -0.923469 0
M  V30 13721 H 1286.17 -1.89063 -3.39393 0
M  V30 13722 H 1287.84 -4.13031 -2.05433 0
M  V30 13723 H 1286.08 -3.9145 -1.86947 0
M  V30 13724 H 1286.75 -4.30416 -3.4561 0
M  V30 13725 H 1289.23 -2.37772 -3.41473 0
M  V30 13726 H 1288.11 -2.76183 -4.74357 0
M  V30 13727 H 1288.37 -1.08627 -4.28547 0
M  V30 13728 N 1287.43 1.02549 -1.19673 0
M  V30 13729 C 1288.67 1.76382 -1.01296 0
M  V30 13730 C 1289.03 1.87036 0.451162 0
M  V30 13731 O 1288.32 1.37859 1.33062 0
M  V30 13732 C 1288.51 3.18597 -1.61959 0
M  V30 13733 C 1288.34 3.21808 -3.14117 0
M  V30 13734 C 1287.11 3.2956 -3.83038 0
M  V30 13735 C 1289.31 3.08576 -4.11443 0
M  V30 13736 N 1287.29 3.22181 -5.22564 0
M  V30 13737 C 1288.66 3.08868 -5.37588 0
M  V30 13738 C 1290.72 2.92728 -4.02759 0
M  V30 13739 C 1289.42 2.94938 -6.56052 0
M  V30 13740 C 1291.45 2.80149 -5.20837 0
M  V30 13741 C 1290.81 2.81098 -6.45882 0
M  V30 13742 H 1286.91 0.656544 -0.424822 0
M  V30 13743 H 1289.49 1.22046 -1.517 0
M  V30 13744 H 1287.66 3.71247 -1.14151 0
M  V30 13745 H 1289.4 3.80812 -1.36984 0
M  V30 13746 H 1286.15 3.3592 -3.33848 0
M  V30 13747 H 1286.57 3.21889 -5.95581 0
M  V30 13748 H 1291.22 2.90814 -3.069 0
M  V30 13749 H 1288.93 2.95603 -7.52093 0
M  V30 13750 H 1292.52 2.68917 -5.15921 0
M  V30 13751 H 1291.4 2.71471 -7.35713 0
M  V30 13752 N 1288.9 1.00119 1.21713 0
M  V30 13753 C 1290.13 0.700172 1.95224 0
M  V30 13754 C 1290.55 -0.730138 1.73351 0
M  V30 13755 O 1289.91 -1.50026 1.01794 0
M  V30 13756 C 1289.96 1.02202 3.45814 0
M  V30 13757 O 1289.06 0.125188 4.1221 0
M  V30 13758 H 1288.4 0.261238 0.610451 0
M  V30 13759 H 1290.93 1.34041 1.54578 0
M  V30 13760 H 1290.94 0.967293 3.96368 0
M  V30 13761 H 1289.62 2.06422 3.61058 0
M  V30 13762 H 1288.2 0.236114 3.72152 0
M  V30 13763 N 1290.38 -1.37203 0.775435 0
M  V30 13764 C 1291.61 -2.03572 0.352416 0
M  V30 13765 C 1292.02 -1.58612 -1.03145 0
M  V30 13766 O 1291.36 -0.764478 -1.67037 0
M  V30 13767 C 1291.42 -3.58064 0.321026 0
M  V30 13768 C 1291.09 -4.2617 1.6501 0
M  V30 13769 C 1292.09 -4.50034 2.60318 0
M  V30 13770 C 1289.77 -4.63927 1.92555 0
M  V30 13771 C 1291.76 -5.10716 3.81376 0
M  V30 13772 C 1289.45 -5.24329 3.13883 0
M  V30 13773 C 1290.45 -5.47661 4.08113 0
M  V30 13774 O 1290.14 -6.068 5.27304 0
M  V30 13775 H 1289.87 -0.660231 0.145159 0
M  V30 13776 H 1292.42 -1.76446 1.05148 0
M  V30 13777 H 1290.65 -3.84252 -0.434439 0
M  V30 13778 H 1292.34 -4.0583 -0.0754241 0
M  V30 13779 H 1293.11 -4.21273 2.4032 0
M  V30 13780 H 1288.99 -4.45098 1.20036 0
M  V30 13781 H 1292.53 -5.28844 4.5494 0
M  V30 13782 H 1288.43 -5.52514 3.33765 0
M  V30 13783 H 1289.2 -6.25276 5.28179 0
M  V30 13784 N 1291.86 -0.526279 -1.48553 0
M  V30 13785 C 1293.11 0.00914839 -2.02098 0
M  V30 13786 C 1293.43 1.35119 -1.40598 0
M  V30 13787 O 1292.7 1.87422 -0.570065 0
M  V30 13788 H 1291.28 0.00636935 -0.746973 0
M  V30 13789 H 1293.94 -0.689269 -1.82305 0
M  V30 13790 H 1293.04 0.120212 -3.11868 0
M  V30 13791 N 1293.34 1.5542 -0.261239 0
M  V30 13792 C 1294.59 1.9846 0.360052 0
M  V30 13793 C 1294.9 1.15288 1.58013 0
M  V30 13794 O 1296.11 1.48408 2.27348 0
M  V30 13795 C 1294.56 3.53185 0.691964 0
M  V30 13796 C 1294.17 4.45116 -0.507521 0
M  V30 13797 C 1295.91 4.04848 1.27665 0
M  V30 13798 C 1293.82 5.91207 -0.150966 0
M  V30 13799 H 1292.75 0.741207 0.138303 0
M  V30 13800 H 1295.4 1.79859 -0.363712 0
M  V30 13801 H 1293.78 3.67535 1.47425 0
M  V30 13802 H 1294.96 4.42531 -1.28465 0
M  V30 13803 H 1293.27 4.04013 -1.0081 0
M  V30 13804 H 1295.87 5.11529 1.55699 0
M  V30 13805 H 1296.21 3.5305 2.20593 0
M  V30 13806 H 1296.75 3.93882 0.556955 0
M  V30 13807 H 1293.48 6.47072 -1.04776 0
M  V30 13808 H 1293 5.96894 0.589671 0
M  V30 13809 H 1294.68 6.4647 0.261772 0
M  V30 13810 N 1294.82 -0.0116844 1.57596 0
M  V30 13811 C 1295.75 -1.00599 2.10718 0
M  V30 13812 C 1296.73 -1.36601 1.01362 0
M  V30 13813 O 1297.91 -1.4518 1.28982 0
M  V30 13814 C 1295.04 -2.30155 2.60089 0
M  V30 13815 C 1294 -2.08347 3.73866 0
M  V30 13816 C 1293.32 -3.43814 4.09507 0
M  V30 13817 C 1294.62 -1.45552 5.01609 0
M  V30 13818 H 1296.32 -0.563721 2.94045 0
M  V30 13819 H 1293.86 -0.269714 1.41452 0
M  V30 13820 H 1295.81 -3.00058 2.95877 0
M  V30 13821 H 1294.54 -2.76473 1.73868 0
M  V30 13822 H 1293.2 -1.40872 3.38453 0
M  V30 13823 H 1292.85 -3.87814 3.20326 0
M  V30 13824 H 1292.55 -3.30043 4.86154 0
M  V30 13825 H 1294.07 -4.15052 4.47844 0
M  V30 13826 H 1295.48 -2.05396 5.35243 0
M  V30 13827 H 1293.88 -1.42304 5.82983 0
M  V30 13828 H 1294.95 -0.423331 4.83049 0
M  V30 13829 N 1296.29 -1.55015 -0.284256 0
M  V30 13830 C 1297.22 -1.90128 -1.3555 0
M  V30 13831 C 1298.2 -0.761914 -1.52082 0
M  V30 13832 O 1299.39 -1.01909 -1.65312 0
M  V30 13833 C 1296.52 -2.16332 -2.71695 0
M  V30 13834 C 1295.47 -3.32166 -2.69907 0
M  V30 13835 C 1294.8 -3.43824 -4.09498 0
M  V30 13836 C 1296.1 -4.6885 -2.30168 0
M  V30 13837 H 1297.79 -2.79852 -1.06411 0
M  V30 13838 H 1295.34 -1.34649 -0.510451 0
M  V30 13839 H 1297.29 -2.39482 -3.46737 0
M  V30 13840 H 1296.02 -1.23395 -3.02392 0
M  V30 13841 H 1294.68 -3.08965 -1.97322 0
M  V30 13842 H 1294.32 -2.48375 -4.374 0
M  V30 13843 H 1294.02 -4.21698 -4.092 0
M  V30 13844 H 1295.55 -3.69254 -4.86296 0
M  V30 13845 H 1296.96 -4.91619 -2.9493 0
M  V30 13846 H 1295.36 -5.49558 -2.41052 0
M  V30 13847 H 1296.43 -4.68433 -1.25294 0
M  V30 13848 N 1297.77 0.548248 -1.47757 0
M  V30 13849 C 1299.02 1.30458 -1.56052 0
M  V30 13850 C 1299.37 1.91096 -0.22363 0
M  V30 13851 O 1298.67 1.75375 0.771644 0
M  V30 13852 C 1298.86 2.42911 -2.62162 0
M  V30 13853 C 1298.69 1.93293 -4.06039 0
M  V30 13854 C 1297.46 1.76727 -4.73387 0
M  V30 13855 C 1299.66 1.47214 -4.9278 0
M  V30 13856 N 1297.64 1.21543 -6.01748 0
M  V30 13857 C 1299.01 1.03855 -6.1124 0
M  V30 13858 C 1301.06 1.35348 -4.79151 0
M  V30 13859 C 1299.77 0.498086 -7.17573 0
M  V30 13860 C 1301.79 0.827023 -5.85589 0
M  V30 13861 C 1301.16 0.40341 -7.03244 0
M  V30 13862 H 1297.25 0.469075 -0.625694 0
M  V30 13863 H 1299.84 0.620405 -1.84551 0
M  V30 13864 H 1298.01 3.08847 -2.35516 0
M  V30 13865 H 1299.74 3.09924 -2.60249 0
M  V30 13866 H 1296.5 1.99709 -4.29433 0
M  V30 13867 H 1296.92 0.960132 -6.70157 0
M  V30 13868 H 1301.56 1.66708 -3.88546 0
M  V30 13869 H 1299.28 0.172123 -8.07917 0
M  V30 13870 H 1302.87 0.738641 -5.77092 0
M  V30 13871 H 1301.75 0.00236338 -7.842 0
M  V30 13872 N 1299.25 1.36039 0.795694 0
M  V30 13873 C 1300.16 1.31991 1.93948 0
M  V30 13874 C 1301.18 0.223064 1.72564 0
M  V30 13875 O 1302.35 0.454344 1.96208 0
M  V30 13876 C 1299.42 1.10228 3.28711 0
M  V30 13877 C 1298.48 2.29328 3.62914 0
M  V30 13878 C 1297.71 2.08595 4.91247 0
M  V30 13879 O 1297.93 1.05793 5.60503 0
M  V30 13880 O 1296.87 2.96222 5.23962 0
M  V30 13881 H 1300.69 2.28274 2.00311 0
M  V30 13882 H 1298.28 1.16521 0.935048 0
M  V30 13883 H 1300.16 0.999842 4.09367 0
M  V30 13884 H 1298.84 0.17003 3.23253 0
M  V30 13885 H 1297.74 2.4514 2.8259 0
M  V30 13886 H 1299.08 3.21038 3.73089 0
M  V30 13887 N 1300.73 -1.01913 1.20215 0
M  V30 13888 C 1301.98 -1.74878 1.00502 0
M  V30 13889 C 1302.29 -1.90022 -0.463792 0
M  V30 13890 O 1303.5 -2.60055 -0.779982 0
M  V30 13891 C 1301.95 -3.1452 1.74943 0
M  V30 13892 C 1301.56 -3.07397 3.259 0
M  V30 13893 C 1303.3 -3.91713 1.63589 0
M  V30 13894 C 1301.21 -4.42032 3.92889 0
M  V30 13895 H 1300.14 -0.655603 0.372426 0
M  V30 13896 H 1302.79 -1.13978 1.4381 0
M  V30 13897 H 1301.17 -3.75946 1.24421 0
M  V30 13898 H 1302.35 -2.55294 3.83617 0
M  V30 13899 H 1300.66 -2.43698 3.37639 0
M  V30 13900 H 1303.26 -4.91316 2.1098 0
M  V30 13901 H 1303.6 -4.12074 0.591665 0
M  V30 13902 H 1304.14 -3.3691 2.11511 0
M  V30 13903 H 1300.88 -4.26874 4.97453 0
M  V30 13904 H 1300.4 -4.94151 3.39962 0
M  V30 13905 H 1302.07 -5.10884 3.96997 0
M  V30 13906 N 1302.21 -1.00763 -1.2118 0
M  V30 13907 C 1303.45 -0.691826 -1.90316 0
M  V30 13908 C 1303.78 0.777678 -1.78276 0
M  V30 13909 O 1303.04 1.57962 -1.15526 0
M  V30 13910 C 1303.34 -1.06187 -3.41261 0
M  V30 13911 C 1303 -2.52608 -3.73497 0
M  V30 13912 C 1301.66 -2.92617 -3.82006 0
M  V30 13913 C 1304.02 -3.47442 -3.88502 0
M  V30 13914 C 1301.34 -4.26419 -4.02969 0
M  V30 13915 C 1303.7 -4.8092 -4.10973 0
M  V30 13916 C 1302.36 -5.20649 -4.17709 0
M  V30 13917 H 1301.63 -0.253157 -0.696414 0
M  V30 13918 H 1304.28 -1.26655 -1.43634 0
M  V30 13919 H 1302.58 -0.405428 -3.89697 0
M  V30 13920 H 1304.28 -0.795343 -3.93033 0
M  V30 13921 H 1300.87 -2.20603 -3.67468 0
M  V30 13922 H 1305.05 -3.17695 -3.81292 0
M  V30 13923 H 1300.31 -4.56767 -4.06416 0
M  V30 13924 H 1304.48 -5.54337 -4.21525 0
M  V30 13925 H 1302.11 -6.24343 -4.33705 0
M  V30 13926 N 1303.68 1.3679 -0.7827 0
M  V30 13927 C 1304.91 2.04206 -0.362571 0
M  V30 13928 C 1305.33 1.58637 1.01074 0
M  V30 13929 O 1304.69 0.751692 1.64983 0
M  V30 13930 C 1304.74 3.58062 -0.4271 0
M  V30 13931 O 1303.84 4.08463 0.56845 0
M  V30 13932 H 1303.19 0.645638 -0.155073 0
M  V30 13933 H 1305.72 1.74883 -1.06194 0
M  V30 13934 H 1305.73 4.0698 -0.288298 0
M  V30 13935 H 1304.4 3.90582 -1.42893 0
M  V30 13936 H 1302.98 3.70835 0.391863 0
M  V30 13937 N 1305.16 0.53415 1.48272 0
M  V30 13938 C 1306.09 -0.215037 2.32508 0
M  V30 13939 C 1307.07 -0.931083 1.42355 0
M  V30 13940 O 1308.26 -0.916051 1.71237 0
M  V30 13941 C 1305.39 -1.25985 3.23643 0
M  V30 13942 C 1304.34 -0.661692 4.22854 0
M  V30 13943 C 1303.67 -1.80946 5.03153 0
M  V30 13944 C 1304.97 0.369358 5.20992 0
M  V30 13945 H 1306.66 0.488158 2.95394 0
M  V30 13946 H 1304.21 0.236206 1.4205 0
M  V30 13947 H 1306.16 -1.79195 3.81402 0
M  V30 13948 H 1304.89 -1.99268 2.58766 0
M  V30 13949 H 1303.54 -0.151082 3.66289 0
M  V30 13950 H 1303.19 -2.53077 4.34696 0
M  V30 13951 H 1302.89 -1.41513 5.70305 0
M  V30 13952 H 1304.42 -2.34526 5.63764 0
M  V30 13953 H 1305.83 -0.0758076 5.7325 0
M  V30 13954 H 1304.23 0.681301 5.9622 0
M  V30 13955 H 1305.3 1.27363 4.67875 0
M  V30 13956 N 1306.64 -1.55279 0.269478 0
M  V30 13957 C 1307.89 -1.99077 -0.348224 0
M  V30 13958 C 1308.21 -1.15925 -1.568 0
M  V30 13959 O 1307.48 -0.247404 -1.94331 0
M  V30 13960 H 1306.06 -0.735307 -0.131653 0
M  V30 13961 H 1308.72 -1.91288 0.373506 0
M  V30 13962 H 1307.82 -3.05427 -0.641953 0
M  V30 13963 N 1308.12 0.00332656 -1.576 0
M  V30 13964 C 1309.36 0.68989 -1.90705 0
M  V30 13965 C 1309.7 1.73608 -0.870291 0
M  V30 13966 O 1308.97 1.94181 0.111416 0
M  V30 13967 C 1309.26 1.33605 -3.34397 0
M  V30 13968 C 1309.11 0.301638 -4.48787 0
M  V30 13969 C 1310.43 2.26313 -3.77453 0
M  V30 13970 H 1307.55 0.249328 -0.693545 0
M  V30 13971 H 1310.19 -0.0472847 -1.89941 0
M  V30 13972 H 1308.34 1.96437 -3.35179 0
M  V30 13973 H 1310.01 -0.326738 -4.60141 0
M  V30 13974 H 1308.25 -0.376451 -4.32163 0
M  V30 13975 H 1308.92 0.792741 -5.46278 0
M  V30 13976 H 1311.4 1.73502 -3.78201 0
M  V30 13977 H 1310.28 2.68492 -4.78752 0
M  V30 13978 H 1310.54 3.14082 -3.11135 0
M  V30 13979 N 1309.6 1.55164 0.276031 0
M  V30 13980 C 1310.54 1.88623 1.36104 0
M  V30 13981 C 1311.54 0.762265 1.51281 0
M  V30 13982 O 1312.74 0.946573 1.53101 0
M  V30 13983 H 1309.12 0.59863 0.455133 0
M  V30 13984 H 1311.09 2.79266 1.05134 0
M  V30 13985 C 1309.84 2.17207 2.71508 0
M  V30 13986 H 1309.16 3.03179 2.6062 0
M  V30 13987 H 1310.6 2.44541 3.46375 0
M  V30 13988 C 1309.06 0.978671 3.22372 0
M  V30 13989 O 1309.59 0.211766 4.01141 0
M  V30 13990 N 1307.8 0.777199 2.80014 0
M  V30 13991 H 1307.34 1.40252 2.16072 0
M  V30 13992 H 1307.3 -0.0196754 3.14394 0
M  V30 13993 N 1311.07 -0.540404 1.48045 0
M  V30 13994 C 1312.49 -1.12243 1.49192 0
M  V30 13995 C 1312.84 -1.94524 0.255895 0
M  V30 13996 O 1311.96 -2.06786 -0.637855 0
M  V30 13997 C 1312.56 -2.04227 2.70327 0
M  V30 13998 C 1311.12 -2.57668 2.7438 0
M  V30 13999 C 1310.26 -1.34402 2.42552 0
M  V30 14000 H 1313.21 -0.326165 1.55312 0
M  V30 14001 H 1313.23 -2.88359 2.48253 0
M  V30 14002 H 1312.75 -1.44314 3.60271 0
M  V30 14003 H 1310.85 -3.21331 1.88618 0
M  V30 14004 H 1310.96 -2.97514 3.7553 0
M  V30 14005 H 1309.32 -1.65635 1.93487 0
M  V30 14006 H 1310.11 -0.762571 3.34723 0
M  V30 14007 N 1312.55 -1.36459 -0.788468 0
M  V30 14008 C 1313.78 -1.33703 -1.57502 0
M  V30 14009 C 1314.19 0.0834961 -1.89016 0
M  V30 14010 O 1313.53 1.05107 -1.50659 0
M  V30 14011 C 1313.6 -2.09424 -2.92201 0
M  V30 14012 C 1313.26 -3.58507 -2.83411 0
M  V30 14013 C 1314.26 -4.52736 -2.5559 0
M  V30 14014 C 1311.94 -4.01405 -3.01959 0
M  V30 14015 C 1313.94 -5.87841 -2.46419 0
M  V30 14016 C 1311.62 -5.366 -2.92409 0
M  V30 14017 C 1312.62 -6.29631 -2.64677 0
M  V30 14018 O 1312.31 -7.62343 -2.55124 0
M  V30 14019 H 1312.04 -0.460221 -0.495149 0
M  V30 14020 H 1314.59 -1.80163 -0.986437 0
M  V30 14021 H 1312.82 -1.5763 -3.53114 0
M  V30 14022 H 1314.51 -1.99515 -3.53481 0
M  V30 14023 H 1315.28 -4.20906 -2.40962 0
M  V30 14024 H 1311.16 -3.29367 -3.2255 0
M  V30 14025 H 1314.7 -6.60423 -2.24694 0
M  V30 14026 H 1310.6 -5.68038 -3.066 0
M  V30 14027 H 1311.37 -7.72476 -2.70598 0
M  V30 14028 N 1314.03 1.01274 -1.20754 0
M  V30 14029 C 1315.44 1.56381 -1.0199 0
M  V30 14030 C 1315.79 1.91595 0.422591 0
M  V30 14031 O 1314.92 1.72653 1.3046 0
M  V30 14032 C 1315.51 2.8415 -1.8451 0
M  V30 14033 C 1314.07 3.35772 -1.70101 0
M  V30 14034 C 1313.22 2.0904 -1.82202 0
M  V30 14035 H 1316.17 0.836105 -1.34889 0
M  V30 14036 H 1316.19 3.55717 -1.35076 0
M  V30 14037 H 1315.7 2.5849 -2.8949 0
M  V30 14038 H 1313.8 3.66384 -0.677732 0
M  V30 14039 H 1313.92 4.07714 -2.51607 0
M  V30 14040 H 1312.28 2.21675 -1.25429 0
M  V30 14041 H 1313.06 1.858 -2.88675 0
M  V30 14042 N 1315.51 1.01404 1.20644 0
M  V30 14043 C 1316.76 0.700523 1.89571 0
M  V30 14044 C 1317.08 -0.771978 1.79068 0
M  V30 14045 O 1316.35 -1.55506 1.19142 0
M  V30 14046 H 1314.93 0.256122 0.70172 0
M  V30 14047 H 1317.59 1.28509 1.46531 0
M  V30 14048 H 1316.69 0.981665 2.9626 0
M  V30 14049 N 1316.99 -1.36373 0.789944 0
M  V30 14050 C 1318.24 -1.98476 0.359165 0
M  V30 14051 C 1318.55 -1.634 -1.07517 0
M  V30 14052 O 1319.76 -2.18742 -1.60824 0
M  V30 14053 C 1318.21 -3.55011 0.591228 0
M  V30 14054 C 1317.82 -3.99011 2.03701 0
M  V30 14055 C 1319.56 -4.23903 0.224979 0
M  V30 14056 C 1317.47 -5.48325 2.2157 0
M  V30 14057 H 1316.4 -0.742612 0.130552 0
M  V30 14058 H 1319.05 -1.55664 0.971652 0
M  V30 14059 H 1317.43 -3.95895 -0.0909788 0
M  V30 14060 H 1318.61 -3.69324 2.75566 0
M  V30 14061 H 1316.92 -3.42957 2.36155 0
M  V30 14062 H 1319.52 -5.33638 0.336764 0
M  V30 14063 H 1319.86 -4.08004 -0.826964 0
M  V30 14064 H 1320.4 -3.88383 0.860443 0
M  V30 14065 H 1317.13 -5.69173 3.25149 0
M  V30 14066 H 1316.65 -5.79637 1.54211 0
M  V30 14067 H 1318.33 -6.14556 2.0231 0
M  V30 14068 N 1318.47 -0.542005 -1.47987 0
M  V30 14069 C 1319.88 -0.104646 -1.86406 0
M  V30 14070 C 1320.23 1.32139 -1.4503 0
M  V30 14071 O 1319.35 1.99159 -0.846439 0
M  V30 14072 C 1319.95 -0.183133 -3.38305 0
M  V30 14073 C 1318.51 0.199098 -3.75873 0
M  V30 14074 C 1317.65 -0.537532 -2.7204 0
M  V30 14075 H 1320.6 -0.75259 -1.3972 0
M  V30 14076 H 1320.63 0.602149 -3.75705 0
M  V30 14077 H 1320.14 -1.22113 -3.68389 0
M  V30 14078 H 1318.24 1.23878 -3.51404 0
M  V30 14079 H 1318.35 -0.14888 -4.78869 0
M  V30 14080 H 1316.72 0.0176255 -2.54694 0
M  V30 14081 H 1317.5 -1.57639 -3.04967 0
M  V30 14082 N 1319.94 1.55134 -0.277709 0
M  V30 14083 C 1321.19 1.99949 0.338831 0
M  V30 14084 C 1321.52 1.16587 1.5531 0
M  V30 14085 O 1320.8 0.236572 1.93056 0
M  V30 14086 C 1321.08 3.5286 0.718457 0
M  V30 14087 C 1320.93 4.46975 -0.503332 0
M  V30 14088 C 1322.25 4.11754 1.55392 0
M  V30 14089 H 1319.37 0.726885 0.121682 0
M  V30 14090 H 1322.01 1.86055 -0.385171 0
M  V30 14091 H 1320.16 3.64831 1.33531 0
M  V30 14092 H 1321.84 4.46944 -1.14188 0
M  V30 14093 H 1320.08 4.18528 -1.14092 0
M  V30 14094 H 1320.75 5.51659 -0.193912 0
M  V30 14095 H 1323.23 4.03075 1.03293 0
M  V30 14096 H 1322.1 5.1895 1.78835 0
M  V30 14097 H 1322.36 3.62147 2.53578 0
M  V30 14098 N 1321.42 0.00503138 1.57599 0
M  V30 14099 C 1322.7 -0.716079 1.82021 0
M  V30 14100 C 1323.08 -1.91707 0.883829 0
M  V30 14101 O 1322.43 -2.28404 -0.0662812 0
M  V30 14102 C 1322.64 -1.11706 3.3064 0
M  V30 14103 C 1323.98 -1.51881 3.96506 0
M  V30 14104 O 1325.01 -1.21071 3.34993 0
M  V30 14105 O 1323.87 -2.09191 5.04877 0
M  V30 14106 H 1320.96 -0.349112 0.7497 0
M  V30 14107 H 1323.51 0.030871 1.69672 0
M  V30 14108 H 1322.28 -0.261223 3.90427 0
M  V30 14109 H 1321.9 -1.92295 3.48006 0
M  V30 14110 N 1322.9 -1.55308 -0.267798 0
M  V30 14111 C 1323.86 -1.87765 -1.31442 0
M  V30 14112 C 1324.86 -0.752571 -1.42102 0
M  V30 14113 O 1326.05 -1.02072 -1.41163 0
M  V30 14114 C 1323.18 -2.08754 -2.69508 0
M  V30 14115 H 1324.38 -2.8133 -1.03891 0
M  V30 14116 H 1321.93 -1.47879 -0.506111 0
M  V30 14117 H 1322.67 -1.17588 -3.02231 0
M  V30 14118 H 1322.45 -2.90674 -2.63156 0
M  V30 14119 H 1323.94 -2.3512 -3.4512 0
M  V30 14120 N 1324.38 0.532545 -1.4833 0
M  V30 14121 C 1325.33 1.65832 -1.63103 0
M  V30 14122 C 1326.32 1.61929 -0.497538 0
M  V30 14123 O 1327.53 1.66817 -0.676176 0
M  V30 14124 H 1323.9 0.549152 -0.513748 0
M  V30 14125 H 1325.87 1.50515 -2.57658 0
M  V30 14126 C 1324.62 3.04113 -1.68555 0
M  V30 14127 H 1323.94 3.07809 -2.55135 0
M  V30 14128 H 1325.38 3.82506 -1.82936 0
M  V30 14129 C 1323.84 3.34225 -0.423711 0
M  V30 14130 O 1324.37 3.99005 0.464523 0
M  V30 14131 N 1322.58 2.89087 -0.296192 0
M  V30 14132 H 1322.13 2.36547 -1.01997 0
M  V30 14133 H 1322.08 3.09604 0.547082 0
M  V30 14134 N 1325.86 1.36875 0.78122 0
M  V30 14135 C 1327.1 1.31559 1.53943 0
M  V30 14136 C 1327.43 -0.10273 1.94229 0
M  V30 14137 O 1326.69 -1.07386 1.63605 0
M  V30 14138 C 1326.98 2.19173 2.82309 0
M  V30 14139 C 1326.65 3.67595 2.61121 0
M  V30 14140 C 1325.31 4.08047 2.55051 0
M  V30 14141 C 1327.66 4.61665 2.41898 0
M  V30 14142 C 1324.99 5.40697 2.27736 0
M  V30 14143 C 1327.34 5.94542 2.16108 0
M  V30 14144 C 1326.01 6.34109 2.08476 0
M  V30 14145 H 1325.28 0.48141 0.563317 0
M  V30 14146 H 1327.93 1.68999 0.900638 0
M  V30 14147 H 1326.23 1.74696 3.50697 0
M  V30 14148 H 1327.93 2.12379 3.40141 0
M  V30 14149 H 1324.52 3.35509 2.66705 0
M  V30 14150 H 1328.7 4.3128 2.45584 0
M  V30 14151 H 1323.96 5.70325 2.20315 0
M  V30 14152 H 1328.13 6.66994 2.0023 0
M  V30 14153 H 1325.76 7.36823 1.87073 0
M  V30 14154 N 1327.33 -1.00632 1.21289 0
M  V30 14155 C 1328.56 -1.77709 1.05371 0
M  V30 14156 C 1328.97 -1.84933 -0.39956 0
M  V30 14157 O 1328.31 -1.30881 -1.28903 0
M  V30 14158 C 1328.38 -3.23206 1.5741 0
M  V30 14159 C 1328.04 -3.39563 3.05852 0
M  V30 14160 C 1329.04 -3.27952 4.03415 0
M  V30 14161 C 1326.72 -3.65048 3.4503 0
M  V30 14162 C 1328.72 -3.41587 5.38142 0
M  V30 14163 C 1326.4 -3.78325 4.7991 0
M  V30 14164 C 1327.4 -3.66601 5.76275 0
M  V30 14165 O 1327.09 -3.79458 7.08708 0
M  V30 14166 H 1326.82 -0.565369 0.370585 0
M  V30 14167 H 1329.38 -1.27483 1.6105 0
M  V30 14168 H 1327.61 -3.74562 0.96126 0
M  V30 14169 H 1329.29 -3.81953 1.37356 0
M  V30 14170 H 1330.06 -3.0819 3.74492 0
M  V30 14171 H 1325.94 -3.73256 2.70557 0
M  V30 14172 H 1329.48 -3.32353 6.13341 0
M  V30 14173 H 1325.38 -3.97591 5.08519 0
M  V30 14174 H 1326.15 -3.96413 7.161 0
M  V30 14175 N 1328.81 -1.02043 -1.20104 0
M  V30 14176 C 1329.76 -0.593945 -2.23027 0
M  V30 14177 C 1330.73 0.387931 -1.61506 0
M  V30 14178 O 1331.91 0.286504 -1.88637 0
M  V30 14179 C 1329.05 0.0577309 -3.45052 0
M  V30 14180 C 1328.17 -0.969169 -4.20988 0
M  V30 14181 C 1327.3 -0.288143 -5.30418 0
M  V30 14182 C 1326.34 -1.30154 -5.98102 0
M  V30 14183 N 1325.48 -0.646912 -6.99113 0
M  V30 14184 H 1330.32 -1.47623 -2.58866 0
M  V30 14185 H 1327.85 -0.738901 -1.27195 0
M  V30 14186 H 1329.81 0.452726 -4.14736 0
M  V30 14187 H 1328.44 0.90364 -3.09894 0
M  V30 14188 H 1327.49 -1.48229 -3.50332 0
M  V30 14189 H 1328.81 -1.73972 -4.67477 0
M  V30 14190 H 1327.96 0.162149 -6.06483 0
M  V30 14191 H 1326.7 0.514683 -4.84977 0
M  V30 14192 H 1325.7 -1.76218 -5.20795 0
M  V30 14193 H 1326.93 -2.10571 -6.45629 0
M  V30 14194 H 1324.88 0.135976 -6.55859 0
M  V30 14195 H 1324.79 -1.35548 -7.43749 0
M  V30 14196 H 1326.06 -0.220339 -7.79189 0
M  V30 14197 N 1330.29 1.35952 -0.797165 0
M  V30 14198 C 1331.22 2.32506 -0.215277 0
M  V30 14199 C 1332.2 1.57023 0.654046 0
M  V30 14200 O 1333.39 1.85139 0.586268 0
M  V30 14201 C 1330.52 3.41266 0.644557 0
M  V30 14202 C 1329.47 4.27816 -0.125501 0
M  V30 14203 C 1328.8 5.27813 0.855428 0
M  V30 14204 C 1330.1 5.05367 -1.31913 0
M  V30 14205 H 1331.79 2.8142 -1.02193 0
M  V30 14206 H 1329.34 1.35303 -0.492862 0
M  V30 14207 H 1331.29 4.07808 1.06163 0
M  V30 14208 H 1330.01 2.90938 1.484 0
M  V30 14209 H 1328.67 3.62841 -0.523639 0
M  V30 14210 H 1328.32 4.73755 1.69011 0
M  V30 14211 H 1328.02 5.86589 0.344566 0
M  V30 14212 H 1329.54 5.97227 1.2709 0
M  V30 14213 H 1330.96 5.64907 -0.977418 0
M  V30 14214 H 1329.36 5.73593 -1.76382 0
M  V30 14215 H 1330.43 4.36558 -2.11057 0
M  V30 14216 N 1331.77 0.549846 1.47697 0
M  V30 14217 C 1333.02 0.0209424 2.01689 0
M  V30 14218 C 1333.33 -1.33417 1.43036 0
M  V30 14219 O 1334.54 -1.95257 1.88646 0
M  V30 14220 C 1332.99 -0.0130171 3.59898 0
M  V30 14221 C 1332.6 1.3384 4.2754 0
M  V30 14222 C 1334.34 -0.489701 4.21666 0
M  V30 14223 C 1332.25 1.26395 5.77735 0
M  V30 14224 H 1331.18 0.00405885 0.753989 0
M  V30 14225 H 1333.83 0.696599 1.69764 0
M  V30 14226 H 1332.21 -0.754168 3.88752 0
M  V30 14227 H 1333.39 2.09668 4.10336 0
M  V30 14228 H 1331.7 1.75242 3.77729 0
M  V30 14229 H 1334.3 -0.563684 5.31721 0
M  V30 14230 H 1334.64 -1.50004 3.88336 0
M  V30 14231 H 1335.18 0.196366 3.97315 0
M  V30 14232 H 1331.92 2.25005 6.15673 0
M  V30 14233 H 1331.44 0.547353 5.97297 0
M  V30 14234 H 1333.11 0.962918 6.39794 0
M  V30 14235 N 1333.25 -1.54984 0.285932 0
M  V30 14236 C 1334.18 -2.20365 -0.630236 0
M  V30 14237 C 1335.19 -1.19168 -1.10918 0
M  V30 14238 O 1336.38 -1.45839 -1.02923 0
M  V30 14239 C 1333.48 -2.8244 -1.87299 0
M  V30 14240 C 1332.65 -4.09429 -1.53905 0
M  V30 14241 C 1331.71 -4.55449 -2.63538 0
M  V30 14242 O 1330.74 -5.20985 -2.29267 0
M  V30 14243 N 1331.94 -4.26498 -3.93802 0
M  V30 14244 H 1334.71 -2.99617 -0.0706044 0
M  V30 14245 H 1332.27 -1.61543 0.107486 0
M  V30 14246 H 1334.26 -3.10167 -2.59959 0
M  V30 14247 H 1332.83 -2.07117 -2.34139 0
M  V30 14248 H 1332.05 -3.88875 -0.645774 0
M  V30 14249 H 1333.34 -4.92146 -1.29111 0
M  V30 14250 H 1332.73 -3.73964 -4.24461 0
M  V30 14251 H 1331.29 -4.5897 -4.62807 0
M  V30 14252 N 1334.72 -0.0133892 -1.57594 0
M  V30 14253 C 1335.67 0.991796 -2.10395 0
M  V30 14254 C 1336.67 1.34724 -1.02693 0
M  V30 14255 O 1337.87 1.33131 -1.21145 0
M  V30 14256 H 1334.25 0.337553 -0.671984 0
M  V30 14257 H 1336.22 0.52102 -2.93816 0
M  V30 14258 C 1334.97 2.27039 -2.63341 0
M  V30 14259 H 1334.29 2.00559 -3.45855 0
M  V30 14260 H 1335.73 2.95619 -3.0395 0
M  V30 14261 C 1334.19 2.98939 -1.55362 0
M  V30 14262 O 1334.72 3.90444 -0.944282 0
M  V30 14263 N 1332.93 2.60997 -1.27784 0
M  V30 14264 H 1332.47 1.86666 -1.77521 0
M  V30 14265 H 1332.43 3.09416 -0.557585 0
M  V30 14266 N 1336.2 1.55448 0.259558 0
M  V30 14267 C 1337.45 1.76337 0.987396 0
M  V30 14268 C 1337.77 0.57505 1.86328 0
M  V30 14269 O 1337.04 -0.409621 1.9157 0
M  V30 14270 H 1335.62 0.650312 0.367565 0
M  V30 14271 H 1338.28 1.9287 0.280551 0
M  V30 14272 H 1337.38 2.66975 1.61651 0
M  V30 14273 N 1337.68 -0.524672 1.4861 0
M  V30 14274 C 1338.93 -1.28021 1.56898 0
M  V30 14275 C 1339.26 -1.92948 0.245203 0
M  V30 14276 O 1338.51 -1.8013 -0.764966 0
M  V30 14277 C 1338.81 -2.3871 2.65993 0
M  V30 14278 C 1338.48 -1.914 4.08261 0
M  V30 14279 C 1337.14 -1.78215 4.46982 0
M  V30 14280 C 1339.49 -1.55713 4.97396 0
M  V30 14281 C 1336.82 -1.27687 5.72637 0
M  V30 14282 C 1339.17 -1.06645 6.23546 0
M  V30 14283 C 1337.83 -0.920818 6.61118 0
M  V30 14284 H 1337.1 -0.468461 0.57413 0
M  V30 14285 H 1339.75 -0.584901 1.82349 0
M  V30 14286 H 1338.06 -3.13932 2.34422 0
M  V30 14287 H 1339.75 -2.96827 2.6962 0
M  V30 14288 H 1336.34 -2.02614 3.77684 0
M  V30 14289 H 1340.53 -1.64757 4.68155 0
M  V30 14290 H 1335.78 -1.15103 6.00468 0
M  V30 14291 H 1339.96 -0.781048 6.92006 0
M  V30 14292 H 1337.58 -0.527091 7.5837 0
M  V30 14293 N 1339.16 -1.37287 -0.77395 0
M  V30 14294 C 1340.11 -1.32872 -1.88716 0
M  V30 14295 C 1341.08 -0.194655 -1.64955 0
M  V30 14296 O 1342.26 -0.383662 -1.86903 0
M  V30 14297 C 1339.4 -1.13934 -3.2575 0
M  V30 14298 C 1338.51 -2.36552 -3.61479 0
M  V30 14299 C 1337.65 -2.10504 -4.87711 0
M  V30 14300 C 1336.69 -3.28999 -5.16165 0
M  V30 14301 N 1335.82 -3.02517 -6.33584 0
M  V30 14302 H 1340.66 -2.28051 -1.91825 0
M  V30 14303 H 1338.2 -1.13325 -0.93786 0
M  V30 14304 H 1340.16 -1.00976 -4.04796 0
M  V30 14305 H 1338.79 -0.22404 -3.22022 0
M  V30 14306 H 1337.84 -2.60257 -2.77435 0
M  V30 14307 H 1339.15 -3.24931 -3.78446 0
M  V30 14308 H 1338.31 -1.94564 -5.74656 0
M  V30 14309 H 1337.05 -1.19459 -4.72843 0
M  V30 14310 H 1336.05 -3.4548 -4.27696 0
M  V30 14311 H 1337.28 -4.20892 -5.32942 0
M  V30 14312 H 1335.22 -2.14099 -6.20079 0
M  V30 14313 H 1335.14 -3.84439 -6.50955 0
M  V30 14314 H 1336.41 -2.9019 -7.23471 0
M  V30 14315 N 1340.64 0.999871 -1.21821 0
M  V30 14316 C 1341.57 2.08597 -0.925334 0
M  V30 14317 C 1342.55 1.62087 0.129103 0
M  V30 14318 O 1343.73 1.885 -0.000975316 0
M  V30 14319 C 1340.86 3.36443 -0.390388 0
M  V30 14320 C 1339.9 4.01869 -1.42842 0
M  V30 14321 S 1340.74 4.43618 -2.99938 0
M  V30 14322 C 1341.89 5.74644 -2.48064 0
M  V30 14323 H 1342.13 2.33119 -1.84507 0
M  V30 14324 H 1339.66 1.13339 -1.04851 0
M  V30 14325 H 1341.62 4.10405 -0.0883221 0
M  V30 14326 H 1340.28 3.09963 0.508115 0
M  V30 14327 H 1339.47 4.93902 -1.00385 0
M  V30 14328 H 1339.07 3.34202 -1.67883 0
M  V30 14329 H 1341.37 6.50642 -1.88869 0
M  V30 14330 H 1342.31 6.21919 -3.3856 0
M  V30 14331 H 1342.72 5.31709 -1.89593 0
M  V30 14332 N 1342.11 1.02678 1.19562 0
M  V30 14333 C 1343.39 0.63674 1.84946 0
M  V30 14334 C 1343.77 -0.884667 1.91669 0
M  V30 14335 O 1343.12 -1.78053 1.43211 0
M  V30 14336 C 1343.33 1.29637 3.2403 0
M  V30 14337 C 1344.68 1.41828 4.00212 0
M  V30 14338 O 1345.7 1.25338 3.3342 0
M  V30 14339 O 1344.56 1.68573 5.19851 0
M  V30 14340 H 1341.65 0.221044 0.796912 0
M  V30 14341 H 1344.2 1.1248 1.27068 0
M  V30 14342 H 1342.97 2.33549 3.1396 0
M  V30 14343 H 1342.6 0.796041 3.8955 0
M  V30 14344 N 1343.59 -1.35528 0.804364 0
M  V30 14345 C 1344.52 -2.28562 0.170893 0
M  V30 14346 C 1345.54 -1.50178 -0.628526 0
M  V30 14347 O 1346.73 -1.72438 -0.461252 0
M  V30 14348 C 1343.83 -3.29792 -0.780434 0
M  V30 14349 C 1343 -4.37391 -0.0278619 0
M  V30 14350 C 1342.06 -5.18492 -0.897341 0
M  V30 14351 O 1341.08 -5.68128 -0.349098 0
M  V30 14352 N 1342.29 -5.36385 -2.21971 0
M  V30 14353 H 1345.05 -2.83565 0.970108 0
M  V30 14354 H 1342.61 -1.47854 0.659617 0
M  V30 14355 H 1344.6 -3.80939 -1.36628 0
M  V30 14356 H 1343.17 -2.7532 -1.48046 0
M  V30 14357 H 1342.39 -3.87208 0.739178 0
M  V30 14358 H 1343.68 -5.06426 0.490889 0
M  V30 14359 H 1343.08 -4.97699 -2.6891 0
M  V30 14360 H 1341.64 -5.90721 -2.75485 0
M  V30 14361 N 1345.07 -0.557671 -1.47404 0
M  V30 14362 C 1346.48 -0.124411 -1.86285 0
M  V30 14363 C 1346.83 1.30593 -1.46424 0
M  V30 14364 O 1345.96 1.9825 -0.867515 0
M  V30 14365 C 1346.55 -0.219005 -3.38091 0
M  V30 14366 C 1345.11 0.159221 -3.76063 0
M  V30 14367 C 1344.26 -0.566355 -2.71455 0
M  V30 14368 H 1347.21 -0.767367 -1.38914 0
M  V30 14369 H 1347.23 0.562267 -3.76323 0
M  V30 14370 H 1346.74 -1.26013 -3.67073 0
M  V30 14371 H 1344.84 1.20144 -3.52698 0
M  V30 14372 H 1344.96 -0.199662 -4.78684 0
M  V30 14373 H 1343.32 -0.00938921 -2.54698 0
M  V30 14374 H 1344.1 -1.60865 -3.03278 0
M  V30 14375 N 1346.55 1.54831 -0.294147 0
M  V30 14376 C 1347.8 2.00001 0.317135 0
M  V30 14377 C 1348.12 1.18256 1.54421 0
M  V30 14378 O 1347.38 0.245035 1.9416 0
M  V30 14379 C 1347.68 3.4997 0.72495 0
M  V30 14380 C 1347.34 4.49126 -0.399616 0
M  V30 14381 C 1346.01 4.75958 -0.708354 0
M  V30 14382 C 1348.36 5.08208 -1.15644 0
M  V30 14383 C 1345.69 5.59137 -1.77716 0
M  V30 14384 C 1348.04 5.9255 -2.21512 0
M  V30 14385 C 1346.7 6.17695 -2.52999 0
M  V30 14386 H 1345.97 0.731856 0.116048 0
M  V30 14387 H 1348.62 1.87019 -0.41182 0
M  V30 14388 H 1346.92 3.60526 1.53388 0
M  V30 14389 H 1348.62 3.82341 1.20898 0
M  V30 14390 H 1345.21 4.28341 -0.148877 0
M  V30 14391 H 1349.4 4.87486 -0.931178 0
M  V30 14392 H 1344.65 5.76859 -2.02592 0
M  V30 14393 H 1348.83 6.37359 -2.80617 0
M  V30 14394 H 1346.45 6.81939 -3.35951 0
M  V30 14395 N 1348.03 0.0217466 1.57585 0
M  V30 14396 C 1349.26 -0.667911 1.95506 0
M  V30 14397 C 1349.67 -1.66616 0.89642 0
M  V30 14398 O 1349.01 -1.83232 -0.131059 0
M  V30 14399 C 1349.07 -1.43696 3.29533 0
M  V30 14400 C 1348.73 -0.59787 4.53072 0
M  V30 14401 C 1349.73 0.12372 5.19753 0
M  V30 14402 C 1347.42 -0.53744 4.99417 0
M  V30 14403 C 1349.41 0.894491 6.31092 0
M  V30 14404 C 1347.1 0.237041 6.1064 0
M  V30 14405 C 1348.1 0.95172 6.76337 0
M  V30 14406 O 1347.78 1.71352 7.85426 0
M  V30 14407 H 1347.52 -0.189544 0.648883 0
M  V30 14408 H 1350.07 0.0755682 2.05261 0
M  V30 14409 H 1348.3 -2.22541 3.16247 0
M  V30 14410 H 1349.99 -2.01402 3.52409 0
M  V30 14411 H 1350.75 0.0863208 4.84923 0
M  V30 14412 H 1346.63 -1.08327 4.48092 0
M  V30 14413 H 1350.18 1.45285 6.82304 0
M  V30 14414 H 1346.07 0.276183 6.44909 0
M  V30 14415 H 1346.84 1.63252 8.02054 0
M  V30 14416 N 1349.51 -1.55583 -0.251311 0
M  V30 14417 C 1350.47 -1.89148 -1.29443 0
M  V30 14418 C 1351.47 -0.7676 -1.41296 0
M  V30 14419 O 1352.66 -1.03563 -1.40073 0
M  V30 14420 C 1349.79 -2.11601 -2.67279 0
M  V30 14421 H 1350.98 -2.82416 -1.00901 0
M  V30 14422 H 1348.54 -1.48407 -0.490398 0
M  V30 14423 H 1349.27 -1.20787 -3.00967 0
M  V30 14424 H 1349.06 -2.93449 -2.60058 0
M  V30 14425 H 1350.55 -2.38768 -3.42607 0
M  V30 14426 N 1350.98 0.516783 -1.48886 0
M  V30 14427 C 1352.21 1.29628 -1.61258 0
M  V30 14428 C 1352.63 1.86744 -0.27786 0
M  V30 14429 O 1351.98 1.67061 0.734639 0
M  V30 14430 C 1352.03 2.43779 -2.66935 0
M  V30 14431 O 1351.76 1.89014 -3.95228 0
M  V30 14432 C 1353.26 3.35398 -2.89867 0
M  V30 14433 H 1350.48 0.393736 -0.543335 0
M  V30 14434 H 1353.02 0.622069 -1.94809 0
M  V30 14435 H 1351.18 3.0706 -2.36206 0
M  V30 14436 H 1351.59 2.63833 -4.53312 0
M  V30 14437 H 1353.06 4.11812 -3.6758 0
M  V30 14438 H 1353.54 3.91436 -1.99185 0
M  V30 14439 H 1354.15 2.77898 -3.21952 0
M  V30 14440 N 1352.46 1.37696 0.766659 0
M  V30 14441 C 1353.37 1.36075 1.91104 0
M  V30 14442 C 1354.39 0.259617 1.72052 0
M  V30 14443 O 1355.56 0.49586 1.952 0
M  V30 14444 C 1352.63 1.17176 3.26298 0
M  V30 14445 C 1351.69 2.36975 3.57968 0
M  V30 14446 C 1350.92 2.18968 4.86712 0
M  V30 14447 O 1351.15 1.17658 5.58133 0
M  V30 14448 O 1350.08 3.07269 5.17561 0
M  V30 14449 H 1353.91 2.32472 1.95424 0
M  V30 14450 H 1351.49 1.18478 0.910122 0
M  V30 14451 H 1353.37 1.08645 4.07154 0
M  V30 14452 H 1352.05 0.238559 3.2282 0
M  V30 14453 H 1350.95 2.51079 2.77327 0
M  V30 14454 H 1352.29 3.2888 3.66195 0
M  V30 14455 N 1353.94 -0.993397 1.22349 0
M  V30 14456 C 1354.85 -2.11771 1.00947 0
M  V30 14457 C 1355.87 -1.73949 -0.0420679 0
M  V30 14458 O 1357.04 -2.00837 0.150548 0
M  V30 14459 C 1354.11 -3.41654 0.589359 0
M  V30 14460 C 1353.17 -3.93579 1.71446 0
M  V30 14461 C 1352.4 -5.17264 1.3143 0
M  V30 14462 O 1352.62 -5.70074 0.192876 0
M  V30 14463 O 1351.56 -5.62929 2.13059 0
M  V30 14464 H 1355.38 -2.32708 1.95142 0
M  V30 14465 H 1352.97 -1.10144 1.00939 0
M  V30 14466 H 1354.85 -4.19813 0.365403 0
M  V30 14467 H 1353.53 -3.22077 -0.323738 0
M  V30 14468 H 1352.43 -3.16596 1.99294 0
M  V30 14469 H 1353.77 -4.17588 2.6054 0
M  V30 14470 N 1355.42 -1.03311 -1.19015 0
M  V30 14471 C 1356.67 -0.727266 -1.88132 0
M  V30 14472 C 1356.98 0.747488 -1.80754 0
M  V30 14473 O 1358.19 1.16654 -2.45161 0
M  V30 14474 C 1356.64 -1.25056 -3.37474 0
M  V30 14475 C 1356.25 -2.7534 -3.534 0
M  V30 14476 C 1357.99 -1.02091 -4.12041 0
M  V30 14477 C 1355.9 -3.21066 -4.96659 0
M  V30 14478 H 1354.83 -0.268349 -0.704631 0
M  V30 14479 H 1357.48 -1.24795 -1.3453 0
M  V30 14480 H 1355.86 -0.65777 -3.90499 0
M  V30 14481 H 1357.04 -3.40311 -3.10684 0
M  V30 14482 H 1355.35 -2.96633 -2.92229 0
M  V30 14483 H 1357.95 -1.33777 -5.17695 0
M  V30 14484 H 1358.29 0.0421413 -4.16279 0
M  V30 14485 H 1358.83 -1.57792 -3.65166 0
M  V30 14486 H 1355.56 -4.26719 -4.97586 0
M  V30 14487 H 1355.08 -2.60826 -5.4012 0
M  V30 14488 H 1356.76 -3.14651 -5.65335 0
M  V30 14489 N 1356.9 1.35099 -0.81154 0
M  V30 14490 C 1358.13 2.02566 -0.406265 0
M  V30 14491 C 1358.53 1.61291 0.989032 0
M  V30 14492 O 1357.88 0.808496 1.64952 0
M  V30 14493 C 1357.94 3.57087 -0.415847 0
M  V30 14494 C 1357.6 4.21645 -1.76251 0
M  V30 14495 C 1358.6 4.42974 -2.72159 0
M  V30 14496 C 1356.28 4.58658 -2.04787 0
M  V30 14497 C 1358.28 5.00425 -3.94783 0
M  V30 14498 C 1355.97 5.15822 -3.27674 0
M  V30 14499 C 1356.96 5.36648 -4.2249 0
M  V30 14500 O 1356.65 5.92606 -5.43207 0
M  V30 14501 H 1356.38 0.65615 -0.162612 0
M  V30 14502 H 1358.94 1.73596 -1.09789 0
M  V30 14503 H 1357.17 3.85269 0.332409 0
M  V30 14504 H 1358.86 4.05887 -0.0322011 0
M  V30 14505 H 1359.62 4.14753 -2.51405 0
M  V30 14506 H 1355.5 4.41759 -1.31795 0
M  V30 14507 H 1359.05 5.16596 -4.68801 0
M  V30 14508 H 1354.94 5.4347 -3.48296 0
M  V30 14509 H 1355.71 6.11052 -5.44571 0
M  V30 14510 N 1358.37 0.56548 1.47106 0
M  V30 14511 C 1359.62 0.042333 2.01656 0
M  V30 14512 C 1359.94 -1.31892 1.44443 0
M  V30 14513 O 1361.14 -1.93245 1.90706 0
M  V30 14514 C 1359.6 0.0251556 3.59891 0
M  V30 14515 C 1359.21 1.38367 4.26097 0
M  V30 14516 C 1360.95 -0.44495 4.22162 0
M  V30 14517 C 1358.86 1.32516 5.76362 0
M  V30 14518 H 1357.79 0.0120557 0.753904 0
M  V30 14519 H 1360.44 0.714565 1.69015 0
M  V30 14520 H 1358.82 -0.712893 3.8953 0
M  V30 14521 H 1359.99 2.14009 4.08089 0
M  V30 14522 H 1358.31 1.79239 3.75849 0
M  V30 14523 H 1360.91 -0.507256 5.32288 0
M  V30 14524 H 1361.25 -1.45876 3.89905 0
M  V30 14525 H 1361.78 0.238496 3.97084 0
M  V30 14526 H 1358.52 2.31523 6.13252 0
M  V30 14527 H 1358.04 0.610674 5.96683 0
M  V30 14528 H 1359.72 1.03072 6.38737 0
M  V30 14529 N 1359.85 -1.54672 0.302354 0
M  V30 14530 C 1361.1 -1.99345 -0.307307 0
M  V30 14531 C 1361.41 -1.19437 -1.549 0
M  V30 14532 O 1362.62 -1.54384 -2.23334 0
M  V30 14533 C 1361.08 -3.54896 -0.59808 0
M  V30 14534 C 1360.68 -4.43614 0.625357 0
M  V30 14535 C 1362.43 -4.08091 -1.16886 0
M  V30 14536 C 1360.34 -5.90599 0.307661 0
M  V30 14537 H 1359.27 -0.744614 -0.118603 0
M  V30 14538 H 1361.92 -1.78832 0.411271 0
M  V30 14539 H 1360.3 -3.71314 -1.37629 0
M  V30 14540 H 1361.47 -4.38969 1.40152 0
M  V30 14541 H 1359.79 -4.01198 1.11487 0
M  V30 14542 H 1362.38 -5.15477 -1.42082 0
M  V30 14543 H 1362.73 -3.58775 -2.11155 0
M  V30 14544 H 1363.26 -3.9522 -0.452329 0
M  V30 14545 H 1360 -6.44067 1.21895 0
M  V30 14546 H 1359.52 -5.98248 -0.431208 0
M  V30 14547 H 1361.2 -6.46937 -0.0902796 0
M  V30 14548 N 1361.33 -0.0301034 -1.57571 0
M  V30 14549 C 1362.26 0.986212 -2.05789 0
M  V30 14550 C 1363.24 1.31682 -0.95387 0
M  V30 14551 O 1364.43 1.43332 -1.22427 0
M  V30 14552 C 1361.55 2.30598 -2.48077 0
M  V30 14553 C 1360.6 2.12991 -3.69509 0
M  V30 14554 S 1361.43 1.42782 -5.16114 0
M  V30 14555 C 1362.59 2.76126 -5.61699 0
M  V30 14556 H 1362.82 0.575769 -2.91671 0
M  V30 14557 H 1360.35 0.181613 -1.53328 0
M  V30 14558 H 1362.31 3.06469 -2.73107 0
M  V30 14559 H 1360.97 2.68775 -1.62539 0
M  V30 14560 H 1360.17 3.1056 -3.96949 0
M  V30 14561 H 1359.77 1.45263 -3.44637 0
M  V30 14562 H 1362.06 3.72361 -5.65998 0
M  V30 14563 H 1363 2.53349 -6.61226 0
M  V30 14564 H 1363.41 2.81418 -4.89351 0
M  V30 14565 N 1362.81 1.55714 0.243056 0
M  V30 14566 C 1363.74 1.87093 1.32396 0
M  V30 14567 C 1364.75 0.757482 1.44104 0
M  V30 14568 O 1365.94 1.03563 1.45386 0
M  V30 14569 C 1363.04 2.04546 2.70212 0
M  V30 14570 C 1362.22 3.3543 2.80723 0
M  V30 14571 C 1361.27 3.42578 3.99408 0
M  V30 14572 O 1360.3 4.15762 3.88755 0
M  V30 14573 N 1361.5 2.7215 5.12752 0
M  V30 14574 H 1364.27 2.80399 1.05813 0
M  V30 14575 H 1361.83 1.55998 0.433151 0
M  V30 14576 H 1363.82 2.06665 3.47954 0
M  V30 14577 H 1362.39 1.17966 2.89487 0
M  V30 14578 H 1361.61 3.45594 1.89626 0
M  V30 14579 H 1362.9 4.21692 2.84698 0
M  V30 14580 H 1362.3 2.1243 5.24299 0
M  V30 14581 H 1360.85 2.79957 5.88615 0
M  V30 14582 N 1364.29 -0.50888 1.49158 0
M  V30 14583 C 1365.51 -1.29245 1.62205 0
M  V30 14584 C 1365.94 -1.85845 0.29041 0
M  V30 14585 O 1365.29 -1.6547 -0.740906 0
M  V30 14586 C 1365.34 -2.40415 2.68762 0
M  V30 14587 O 1364.45 -3.44048 2.27387 0
M  V30 14588 H 1363.79 -0.381898 0.543185 0
M  V30 14589 H 1366.32 -0.610076 1.95293 0
M  V30 14590 H 1366.33 -2.86295 2.90688 0
M  V30 14591 H 1365 -1.98584 3.65427 0
M  V30 14592 H 1363.58 -3.04141 2.1576 0
M  V30 14593 N 1365.76 -1.381 -0.759346 0
M  V30 14594 C 1367 -1.35402 -1.5312 0
M  V30 14595 C 1367.37 0.0574616 -1.91914 0
M  V30 14596 O 1368.57 0.20927 -2.67984 0
M  V30 14597 C 1366.84 -2.27793 -2.754 0
M  V30 14598 S 1368.4 -2.43061 -3.65331 0
M  V30 14599 H 1365.22 -0.480503 -0.524059 0
M  V30 14600 H 1367.82 -1.7397 -0.891886 0
M  V30 14601 H 1366.52 -3.29247 -2.45 0
M  V30 14602 H 1366.05 -1.90353 -3.44281 0
M  V30 14603 H 1368.07 -1.6504 -4.67949 0
M  V30 14604 N 1367.24 0.986894 -1.22875 0
M  V30 14605 C 1368.49 1.73071 -1.06856 0
M  V30 14606 C 1368.84 1.88376 0.39143 0
M  V30 14607 O 1368.14 1.42022 1.28609 0
M  V30 14608 C 1368.33 3.13283 -1.72012 0
M  V30 14609 C 1368.16 3.11652 -3.24196 0
M  V30 14610 C 1366.93 3.17207 -3.93329 0
M  V30 14611 C 1369.13 2.9533 -4.21052 0
M  V30 14612 N 1367.11 3.05393 -5.32549 0
M  V30 14613 C 1368.48 2.91609 -5.47142 0
M  V30 14614 C 1370.54 2.79766 -4.11868 0
M  V30 14615 C 1369.24 2.73917 -6.65103 0
M  V30 14616 C 1371.26 2.63437 -5.29486 0
M  V30 14617 C 1370.63 2.60408 -6.54498 0
M  V30 14618 H 1366.73 0.642696 -0.445495 0
M  V30 14619 H 1369.31 1.17158 -1.55506 0
M  V30 14620 H 1367.48 3.67427 -1.25904 0
M  V30 14621 H 1369.21 3.76261 -1.4903 0
M  V30 14622 H 1365.97 3.25129 -3.44366 0
M  V30 14623 H 1366.39 3.02779 -6.0552 0
M  V30 14624 H 1371.03 2.80903 -3.15996 0
M  V30 14625 H 1368.75 2.71526 -7.61117 0
M  V30 14626 H 1372.34 2.52367 -5.24216 0
M  V30 14627 H 1371.22 2.47928 -7.43977 0
M  V30 14628 N 1368.72 1.0394 1.18466 0
M  V30 14629 C 1369.68 0.633804 2.20262 0
M  V30 14630 C 1370.68 -0.308136 1.5782 0
M  V30 14631 O 1371.87 -0.0937087 1.73948 0
M  V30 14632 C 1369.01 -0.0709693 3.40826 0
M  V30 14633 H 1370.2 1.53463 2.57661 0
M  V30 14634 H 1367.75 0.831806 1.32328 0
M  V30 14635 H 1368.49 -0.985659 3.08958 0
M  V30 14636 H 1368.27 0.606023 3.87388 0
M  V30 14637 H 1369.76 -0.341298 4.16203 0
M  V30 14638 N 1370.2 -1.34667 0.818693 0
M  V30 14639 C 1371.45 -1.98414 0.404759 0
M  V30 14640 C 1371.77 -1.64919 -1.03112 0
M  V30 14641 O 1371.03 -0.910695 -1.73219 0
M  V30 14642 C 1371.33 -3.53157 0.549059 0
M  V30 14643 C 1370.99 -4.06552 1.95003 0
M  V30 14644 C 1369.66 -4.20846 2.33329 0
M  V30 14645 C 1372.01 -4.35324 2.86604 0
M  V30 14646 C 1369.34 -4.61236 3.62599 0
M  V30 14647 C 1371.69 -4.77159 4.15334 0
M  V30 14648 C 1370.35 -4.89658 4.53642 0
M  V30 14649 H 1369.62 -0.726047 0.148112 0
M  V30 14650 H 1372.27 -1.60681 1.04182 0
M  V30 14651 H 1370.57 -3.91425 -0.17141 0
M  V30 14652 H 1372.27 -4.00453 0.209374 0
M  V30 14653 H 1368.86 -3.95887 1.64231 0
M  V30 14654 H 1373.04 -4.23823 2.58239 0
M  V30 14655 H 1368.3 -4.69104 3.92112 0
M  V30 14656 H 1372.47 -4.98381 4.86404 0
M  V30 14657 H 1370.1 -5.20713 5.53861 0
M  V30 14658 N 1371.68 -0.573274 -1.46804 0
M  V30 14659 C 1372.95 0.011163 -1.95597 0
M  V30 14660 C 1373.33 1.4691 -1.51594 0
M  V30 14661 O 1372.68 2.15413 -0.76221 0
M  V30 14662 C 1372.89 -0.151045 -3.48673 0
M  V30 14663 C 1374.24 -0.0139817 -4.24598 0
M  V30 14664 O 1375.26 -0.0794008 -3.56111 0
M  V30 14665 O 1374.12 0.129547 -5.46346 0
M  V30 14666 H 1371.22 0.0551258 -0.825161 0
M  V30 14667 H 1373.76 -0.640928 -1.57131 0
M  V30 14668 H 1372.53 -1.16494 -3.73557 0
M  V30 14669 H 1372.16 0.537917 -3.93944 0
M  V30 14670 N 1373.15 1.5451 -0.310553 0
M  V30 14671 C 1374.38 2.05204 0.301013 0
M  V30 14672 C 1374.8 1.1859 1.46007 0
M  V30 14673 O 1374.16 0.192081 1.8028 0
M  V30 14674 C 1374.21 3.53221 0.725767 0
M  V30 14675 O 1373.31 3.69596 1.82955 0
M  V30 14676 H 1372.66 0.661566 0.0568026 0
M  V30 14677 H 1375.19 1.99473 -0.455178 0
M  V30 14678 H 1375.2 3.9525 1.01198 0
M  V30 14679 H 1373.87 4.15721 -0.122046 0
M  V30 14680 H 1372.45 3.39472 1.54315 0
M  V30 14681 N 1374.63 0.0384594 1.57553 0
M  V30 14682 C 1376.05 -0.318006 1.564 0
M  V30 14683 C 1376.25 -1.72287 1.04496 0
M  V30 14684 O 1375.31 -2.42722 0.695861 0
M  V30 14685 C 1376.62 -0.158079 3.00284 0
M  V30 14686 C 1378.17 -0.230143 3.12153 0
M  V30 14687 C 1378.64 -0.0988948 4.57893 0
M  V30 14688 N 1380.13 -0.15558 4.62939 0
M  V30 14689 C 1380.87 -0.077948 5.73347 0
M  V30 14690 N 1380.36 0.0513054 6.92781 0
M  V30 14691 N 1382.16 -0.132612 5.61944 0
M  V30 14692 H 1374.31 0.957014 1.89618 0
M  V30 14693 H 1376.57 0.370396 0.872646 0
M  V30 14694 H 1376.28 0.810032 3.42245 0
M  V30 14695 H 1376.15 -0.924413 3.65697 0
M  V30 14696 H 1378.54 -1.18872 2.70099 0
M  V30 14697 H 1378.62 0.56673 2.49443 0
M  V30 14698 H 1378.26 0.856301 5.00629 0
M  V30 14699 H 1378.19 -0.91475 5.18594 0
M  V30 14700 H 1380.68 -0.255245 3.77037 0
M  V30 14701 H 1381 0.103595 7.72731 0
M  V30 14702 H 1379.34 0.0862166 6.94947 0
M  V30 14703 H 1382.53 -0.232056 4.67524 0
M  V30 14704 H 1382.71 -0.0686506 6.47964 0
M  V30 14705 N 1376.11 -1.55841 -0.234795 0
M  V30 14706 C 1377.06 -1.91326 -1.29086 0
M  V30 14707 C 1378.03 -0.768868 -1.47233 0
M  V30 14708 O 1379.21 -1.0236 -1.61019 0
M  V30 14709 C 1376.35 -2.22388 -2.6389 0
M  V30 14710 C 1375.47 -3.49693 -2.5365 0
M  V30 14711 C 1374.6 -3.70267 -3.80889 0
M  V30 14712 C 1373.64 -4.91132 -3.65317 0
M  V30 14713 N 1372.78 -5.08163 -4.84474 0
M  V30 14714 H 1377.62 -2.81382 -0.981246 0
M  V30 14715 H 1375.15 -1.3928 -0.47324 0
M  V30 14716 H 1377.11 -2.38404 -3.42373 0
M  V30 14717 H 1375.74 -1.35521 -2.92974 0
M  V30 14718 H 1374.79 -3.41943 -1.66672 0
M  V30 14719 H 1376.11 -4.38326 -2.38059 0
M  V30 14720 H 1375.26 -3.86308 -4.67815 0
M  V30 14721 H 1374 -2.7989 -3.9939 0
M  V30 14722 H 1373 -4.75054 -2.76774 0
M  V30 14723 H 1374.23 -5.8298 -3.48298 0
M  V30 14724 H 1372.18 -4.20726 -5.03314 0
M  V30 14725 H 1372.09 -5.90904 -4.71559 0
M  V30 14726 H 1373.36 -5.28627 -5.72865 0
M  V30 14727 N 1377.59 0.500963 -1.49426 0
M  V30 14728 C 1379.01 0.832142 -1.36189 0
M  V30 14729 C 1379.21 1.9759 -0.395014 0
M  V30 14730 O 1378.26 2.51905 0.173294 0
M  V30 14731 C 1379.57 1.17232 -2.76907 0
M  V30 14732 C 1381.12 1.28052 -2.85607 0
M  V30 14733 C 1381.6 1.65399 -4.27092 0
M  V30 14734 N 1383.09 1.72448 -4.29902 0
M  V30 14735 C 1383.82 2.02789 -5.36343 0
M  V30 14736 N 1383.32 2.31354 -6.53029 0
M  V30 14737 N 1385.11 2.0404 -5.23759 0
M  V30 14738 H 1377.26 -0.253253 -2.10885 0
M  V30 14739 H 1379.53 -0.0507111 -0.946643 0
M  V30 14740 H 1379.23 0.405247 -3.49357 0
M  V30 14741 H 1379.11 2.11574 -3.12276 0
M  V30 14742 H 1381.49 2.03831 -2.13394 0
M  V30 14743 H 1381.57 0.317603 -2.53821 0
M  V30 14744 H 1381.22 0.901704 -4.99832 0
M  V30 14745 H 1381.15 2.6279 -4.56343 0
M  V30 14746 H 1383.64 1.52532 -3.45749 0
M  V30 14747 H 1383.95 2.53695 -7.29972 0
M  V30 14748 H 1382.3 2.28811 -6.56255 0
M  V30 14749 H 1385.49 1.812 -4.31606 0
M  V30 14750 H 1385.66 2.27353 -6.06807 0
M  V30 14751 N 1379.07 1.38501 0.752011 0
M  V30 14752 C 1380.48 1.31086 1.32941 0
M  V30 14753 C 1380.83 -0.0326248 1.96173 0
M  V30 14754 O 1379.95 -0.934692 1.95173 0
M  V30 14755 C 1380.55 2.37395 2.41721 0
M  V30 14756 C 1379.11 2.33553 2.95177 0
M  V30 14757 C 1378.26 2.20178 1.68573 0
M  V30 14758 H 1381.21 1.48836 0.550771 0
M  V30 14759 H 1381.23 2.03202 3.21697 0
M  V30 14760 H 1380.74 3.35164 1.9567 0
M  V30 14761 H 1378.84 1.39371 3.45553 0
M  V30 14762 H 1378.95 3.27753 3.49449 0
M  V30 14763 H 1377.32 1.67057 1.9226 0
M  V30 14764 H 1378.1 3.19891 1.24599 0
M  V30 14765 N 1380.55 -0.980364 1.23396 0
M  V30 14766 C 1381.77 -1.76223 1.09363 0
M  V30 14767 C 1382.2 -1.84801 -0.350759 0
M  V30 14768 O 1381.55 -1.30966 -1.2537 0
M  V30 14769 C 1381.6 -3.16728 1.72383 0
M  V30 14770 O 1380.71 -4.00439 0.986002 0
M  V30 14771 H 1380.05 -0.542174 0.383332 0
M  V30 14772 H 1382.58 -1.23066 1.6345 0
M  V30 14773 H 1382.59 -3.67307 1.77623 0
M  V30 14774 H 1381.26 -3.098 2.77483 0
M  V30 14775 H 1379.84 -3.58946 1.01054 0
M  V30 14776 N 1382.02 -1.04567 -1.17913 0
M  V30 14777 C 1383.27 -0.752023 -1.88018 0
M  V30 14778 C 1383.6 0.720567 -1.8066 0
M  V30 14779 O 1382.85 1.54207 -1.20493 0
M  V30 14780 C 1383.15 -1.1699 -3.3771 0
M  V30 14781 C 1382.82 -2.64363 -3.65271 0
M  V30 14782 C 1381.48 -3.04622 -3.72503 0
M  V30 14783 C 1383.83 -3.59626 -3.77251 0
M  V30 14784 C 1381.16 -4.39023 -3.89199 0
M  V30 14785 C 1383.51 -4.93752 -3.95465 0
M  V30 14786 C 1382.18 -5.33675 -4.00933 0
M  V30 14787 H 1381.45 -0.275185 -0.688008 0
M  V30 14788 H 1384.09 -1.31161 -1.39532 0
M  V30 14789 H 1382.4 -0.529202 -3.8821 0
M  V30 14790 H 1384.1 -0.919981 -3.90304 0
M  V30 14791 H 1380.69 -2.32182 -3.60263 0
M  V30 14792 H 1384.87 -3.29665 -3.70992 0
M  V30 14793 H 1380.13 -4.69466 -3.91679 0
M  V30 14794 H 1384.3 -5.67467 -4.03676 0
M  V30 14795 H 1381.93 -6.37825 -4.13623 0
M  V30 14796 N 1383.5 1.34231 -0.825823 0
M  V30 14797 C 1384.91 1.8059 -0.473724 0
M  V30 14798 C 1385.26 1.68438 1.00614 0
M  V30 14799 O 1384.39 1.22606 1.78317 0
M  V30 14800 C 1384.98 3.27884 -0.853099 0
M  V30 14801 C 1383.54 3.72311 -0.553327 0
M  V30 14802 C 1382.69 2.55889 -1.06845 0
M  V30 14803 H 1385.64 1.21937 -1.01573 0
M  V30 14804 H 1385.66 3.80172 -0.158014 0
M  V30 14805 H 1385.17 3.36696 -1.93021 0
M  V30 14806 H 1383.27 3.69034 0.514256 0
M  V30 14807 H 1383.39 4.66315 -1.09942 0
M  V30 14808 H 1381.75 2.49945 -0.489874 0
M  V30 14809 H 1382.53 2.67471 -2.15207 0
M  V30 14810 N 1384.98 0.581051 1.46498 0
M  V30 14811 C 1385.93 -0.165944 2.32007 0
M  V30 14812 C 1386.92 -0.886015 1.44382 0
M  V30 14813 O 1388.13 -0.804592 1.61017 0
M  V30 14814 H 1384.5 -0.0723834 0.748508 0
M  V30 14815 H 1386.47 0.574089 2.92826 0
M  V30 14816 C 1385.22 -1.16741 3.27516 0
M  V30 14817 H 1384.55 -0.622756 3.9492 0
M  V30 14818 H 1385.99 -1.66052 3.90132 0
M  V30 14819 C 1384.44 -2.22755 2.52749 0
M  V30 14820 O 1384.97 -3.30081 2.28932 0
M  V30 14821 N 1383.18 -1.97318 2.1334 0
M  V30 14822 H 1382.73 -1.10049 2.3291 0
M  V30 14823 H 1382.69 -2.68461 1.63633 0
M  V30 14824 N 1386.46 -1.54343 0.318742 0
M  V30 14825 C 1387.39 -2.27118 -0.542206 0
M  V30 14826 C 1388.37 -1.27731 -1.12334 0
M  V30 14827 O 1389.55 -1.56535 -1.14937 0
M  V30 14828 C 1386.68 -3.02535 -1.70558 0
M  V30 14829 C 1385.64 -4.09218 -1.25398 0
M  V30 14830 C 1384.96 -4.72449 -2.50391 0
M  V30 14831 C 1386.26 -5.20971 -0.372332 0
M  V30 14832 H 1387.96 -2.9933 0.0648226 0
M  V30 14833 H 1385.5 -1.43963 0.0326168 0
M  V30 14834 H 1387.46 -3.52174 -2.31412 0
M  V30 14835 H 1386.18 -2.27931 -2.33912 0
M  V30 14836 H 1384.84 -3.60455 -0.668392 0
M  V30 14837 H 1384.49 -3.94466 -3.12099 0
M  V30 14838 H 1384.19 -5.4451 -2.20868 0
M  V30 14839 H 1385.71 -5.2486 -3.12016 0
M  V30 14840 H 1387.13 -5.66396 -0.887029 0
M  V30 14841 H 1385.52 -5.99859 -0.17009 0
M  V30 14842 H 1386.59 -4.81198 0.598064 0
M  V30 14843 N 1387.94 -0.0468143 -1.5753 0
M  V30 14844 C 1389.16 0.637648 -1.96829 0
M  V30 14845 C 1389.58 1.64635 -0.924158 0
M  V30 14846 O 1388.94 1.82267 0.0921139 0
M  V30 14847 C 1388.99 1.32842 -3.36207 0
M  V30 14848 O 1388.71 0.360111 -4.36617 0
M  V30 14849 C 1390.21 2.10305 -3.90239 0
M  V30 14850 H 1387.43 0.174634 -0.647876 0
M  V30 14851 H 1389.97 -0.111824 -2.04194 0
M  V30 14852 H 1388.13 2.02915 -3.30006 0
M  V30 14853 H 1388.54 0.852661 -5.17523 0
M  V30 14854 H 1390.02 2.54065 -4.90056 0
M  V30 14855 H 1390.49 2.94942 -3.25432 0
M  V30 14856 H 1391.1 1.45152 -3.99764 0
M  V30 14857 N 1389.41 1.55964 0.226527 0
M  V30 14858 C 1390.64 1.83168 0.972846 0
M  V30 14859 C 1391.06 0.626512 1.7736 0
M  V30 14860 O 1390.42 -0.42468 1.76256 0
M  V30 14861 C 1390.47 3.08315 1.87014 0
M  V30 14862 O 1389.57 2.8666 2.96479 0
M  V30 14863 H 1388.92 0.604041 0.275736 0
M  V30 14864 H 1391.45 2.03172 0.241345 0
M  V30 14865 H 1391.46 3.38288 2.28091 0
M  V30 14866 H 1390.13 3.95663 1.28154 0
M  V30 14867 H 1388.71 2.67907 2.59384 0
M  V30 14868 N 1390.89 -0.493031 1.4969 0
M  V30 14869 C 1392.14 -1.24664 1.59578 0
M  V30 14870 C 1392.47 -1.92385 0.286075 0
M  V30 14871 O 1391.72 -1.81712 -0.726586 0
M  V30 14872 C 1392.02 -2.33014 2.70997 0
M  V30 14873 C 1391.69 -1.82697 4.12229 0
M  V30 14874 C 1390.35 -1.68694 4.50662 0
M  V30 14875 C 1392.7 -1.45127 5.00587 0
M  V30 14876 C 1390.03 -1.15512 5.75216 0
M  V30 14877 C 1392.38 -0.933951 6.25668 0
M  V30 14878 C 1391.05 -0.780378 6.62923 0
M  V30 14879 H 1390.32 -0.456178 0.583937 0
M  V30 14880 H 1392.96 -0.546091 1.83549 0
M  V30 14881 H 1391.27 -3.08889 2.41029 0
M  V30 14882 H 1392.96 -2.91041 2.75855 0
M  V30 14883 H 1389.55 -1.94557 3.81897 0
M  V30 14884 H 1393.74 -1.5479 4.71544 0
M  V30 14885 H 1388.99 -1.0234 6.02774 0
M  V30 14886 H 1393.17 -0.634088 6.93507 0
M  V30 14887 H 1390.8 -0.366111 7.59318 0
M  V30 14888 N 1392.37 -1.38898 -0.744656 0
M  V30 14889 C 1393.3 -1.39571 -1.87195 0
M  V30 14890 C 1394.28 -0.260372 -1.68095 0
M  V30 14891 O 1395.47 -0.464776 -1.88556 0
M  V30 14892 C 1392.6 -1.22889 -3.24832 0
M  V30 14893 C 1391.55 -2.33721 -3.58551 0
M  V30 14894 C 1390.88 -2.02136 -4.9502 0
M  V30 14895 C 1392.18 -3.7601 -3.62511 0
M  V30 14896 H 1393.87 -2.33908 -1.86889 0
M  V30 14897 H 1391.42 -1.12591 -0.897739 0
M  V30 14898 H 1393.37 -1.21983 -4.03359 0
M  V30 14899 H 1392.09 -0.250172 -3.2564 0
M  V30 14900 H 1390.75 -2.33828 -2.82348 0
M  V30 14901 H 1390.4 -1.02726 -4.92399 0
M  V30 14902 H 1390.1 -2.76371 -5.18549 0
M  V30 14903 H 1391.62 -2.02864 -5.75915 0
M  V30 14904 H 1393.04 -3.77885 -4.31133 0
M  V30 14905 H 1391.44 -4.49524 -3.97553 0
M  V30 14906 H 1392.51 -4.07682 -2.62533 0
M  V30 14907 N 1393.85 0.973806 -1.23914 0
M  V30 14908 C 1395.1 1.71259 -1.07307 0
M  V30 14909 C 1395.42 1.91064 0.389831 0
M  V30 14910 O 1394.69 1.48401 1.27883 0
M  V30 14911 H 1393.27 0.634588 -0.39409 0
M  V30 14912 H 1395.93 1.17184 -1.55737 0
M  V30 14913 H 1395.03 2.69953 -1.56626 0
M  V30 14914 N 1395.33 1.05191 1.17357 0
M  V30 14915 C 1396.57 0.771027 1.893 0
M  V30 14916 C 1396.93 -0.68931 1.792 0
M  V30 14917 O 1398.13 -1.0843 2.4596 0
M  V30 14918 C 1396.4 1.23822 3.35265 0
M  V30 14919 S 1397.96 1.0847 4.25182 0
M  V30 14920 H 1394.78 0.280008 0.653542 0
M  V30 14921 H 1397.38 1.34654 1.41734 0
M  V30 14922 H 1396.09 2.2962 3.40151 0
M  V30 14923 H 1395.62 0.656981 3.87875 0
M  V30 14924 H 1397.63 0.00886614 4.96199 0
M  V30 14925 N 1396.8 -1.33791 0.83293 0
M  V30 14926 C 1397.74 -2.28148 0.219336 0
M  V30 14927 C 1398.75 -1.51477 -0.596529 0
M  V30 14928 O 1399.94 -1.73377 -0.424571 0
M  V30 14929 C 1397.04 -3.31373 -0.710305 0
M  V30 14930 C 1396.21 -4.37352 0.0649215 0
M  V30 14931 C 1395.27 -5.20279 -0.78716 0
M  V30 14932 O 1394.3 -5.68741 -0.228511 0
M  V30 14933 N 1395.5 -5.40973 -2.10544 0
M  V30 14934 H 1398.26 -2.81443 1.03004 0
M  V30 14935 H 1395.82 -1.46421 0.690831 0
M  V30 14936 H 1397.82 -3.83752 -1.28517 0
M  V30 14937 H 1396.39 -2.78398 -1.42173 0
M  V30 14938 H 1395.61 -3.85553 0.821144 0
M  V30 14939 H 1396.89 -5.05271 0.598199 0
M  V30 14940 H 1396.29 -5.03291 -2.58292 0
M  V30 14941 H 1394.85 -5.96432 -2.62893 0
M  V30 14942 N 1398.28 -0.588812 -1.46187 0
M  V30 14943 C 1399.21 0.128595 -2.33146 0
M  V30 14944 C 1400.19 0.877608 -1.45712 0
M  V30 14945 O 1401.38 0.851866 -1.74519 0
M  V30 14946 C 1398.51 1.13886 -3.28096 0
M  V30 14947 C 1397.46 0.504296 -4.25019 0
M  V30 14948 C 1396.79 1.62147 -5.09522 0
M  V30 14949 C 1398.09 -0.562466 -5.19263 0
M  V30 14950 H 1399.78 -0.597455 -2.93378 0
M  V30 14951 H 1397.33 -0.288764 -1.41075 0
M  V30 14952 H 1399.28 1.64916 -3.8779 0
M  V30 14953 H 1398.01 1.89527 -2.65983 0
M  V30 14954 H 1396.66 0.0150325 -3.66597 0
M  V30 14955 H 1396.31 2.36769 -4.4379 0
M  V30 14956 H 1396.01 1.20249 -5.75164 0
M  V30 14957 H 1397.54 2.13441 -5.7208 0
M  V30 14958 H 1398.95 -0.137003 -5.73136 0
M  V30 14959 H 1397.35 -0.902115 -5.93281 0
M  V30 14960 H 1398.42 -1.4464 -4.62825 0
M  V30 14961 N 1399.76 1.54172 -0.326923 0
M  V30 14962 C 1400.72 2.2311 0.524855 0
M  V30 14963 C 1401.72 1.22567 1.04087 0
M  V30 14964 O 1402.91 1.47123 0.932759 0
M  V30 14965 C 1400.05 2.93778 1.72937 0
M  V30 14966 H 1401.24 2.99799 -0.0778327 0
M  V30 14967 H 1398.79 1.56105 -0.0780484 0
M  V30 14968 H 1399.53 2.21234 2.3712 0
M  V30 14969 H 1399.31 3.67509 1.36674 0
M  V30 14970 H 1400.8 3.46292 2.33392 0
M  V30 14971 N 1401.24 0.0551678 1.57503 0
M  V30 14972 C 1402.52 -0.657808 1.84207 0
M  V30 14973 C 1402.9 -1.88798 0.944372 0
M  V30 14974 O 1402.24 -2.28499 0.00641728 0
M  V30 14975 C 1402.45 -1.0113 3.34026 0
M  V30 14976 C 1403.8 -1.39189 4.01138 0
M  V30 14977 O 1404.83 -1.10353 3.38675 0
M  V30 14978 O 1403.68 -1.93023 5.11277 0
M  V30 14979 H 1400.78 -0.325084 0.760427 0
M  V30 14980 H 1403.32 0.0848352 1.69488 0
M  V30 14981 H 1402.1 -0.13688 3.91061 0
M  V30 14982 H 1401.72 -1.81126 3.53948 0
M  V30 14983 N 1402.72 -1.56081 -0.218252 0
M  V30 14984 C 1403.68 -1.91851 -1.25402 0
M  V30 14985 C 1404.68 -0.797399 -1.39636 0
M  V30 14986 O 1405.87 -1.06511 -1.37844 0
M  V30 14987 C 1403 -2.17223 -2.6273 0
M  V30 14988 H 1404.19 -2.84493 -0.948882 0
M  V30 14989 H 1401.75 -1.49414 -0.458809 0
M  V30 14990 H 1402.48 -1.27144 -2.98337 0
M  V30 14991 H 1402.27 -2.98899 -2.53775 0
M  V30 14992 H 1403.76 -2.45981 -3.37466 0
M  V30 14993 N 1404.2 0.485086 -1.49949 0
M  V30 14994 C 1405.11 1.61089 -1.70551 0
M  V30 14995 C 1406.12 1.63752 -0.588333 0
M  V30 14996 O 1407.3 1.81879 -0.86498 0
M  V30 14997 C 1404.36 2.97382 -1.78227 0
M  V30 14998 C 1403.42 3.05219 -3.01894 0
M  V30 14999 C 1402.66 4.35011 -3.09195 0
M  V30 15000 O 1402.88 5.24722 -2.23658 0
M  V30 15001 O 1401.81 4.48151 -4.01802 0
M  V30 15002 H 1405.64 1.46633 -2.65956 0
M  V30 15003 H 1403.22 0.663091 -1.33879 0
M  V30 15004 H 1405.11 3.78356 -1.85538 0
M  V30 15005 H 1403.78 3.12066 -0.860043 0
M  V30 15006 H 1402.69 2.23373 -3.00092 0
M  V30 15007 H 1404.02 2.95467 -3.93649 0
M  V30 15008 N 1405.67 1.39291 0.737279 0
M  V30 15009 C 1406.58 1.40098 1.88175 0
M  V30 15010 C 1407.6 0.296053 1.71463 0
M  V30 15011 O 1408.78 0.537153 1.94105 0
M  V30 15012 C 1405.84 1.24071 3.2374 0
M  V30 15013 C 1404.9 2.44515 3.52861 0
M  V30 15014 C 1404.13 2.29243 4.81958 0
M  V30 15015 O 1404.36 1.2947 5.55512 0
M  V30 15016 O 1403.29 3.18178 5.10927 0
M  V30 15017 H 1407.12 2.36565 1.90449 0
M  V30 15018 H 1404.7 1.20382 0.884786 0
M  V30 15019 H 1406.58 1.17257 4.04758 0
M  V30 15020 H 1405.26 0.30698 3.22241 0
M  V30 15021 H 1404.17 2.56905 2.71939 0
M  V30 15022 H 1405.5 3.36573 3.59137 0
M  V30 15023 N 1407.15 -0.967221 1.24429 0
M  V30 15024 C 1408.11 -2.04344 1.03808 0
M  V30 15025 C 1409.11 -1.60799 -0.00476972 0
M  V30 15026 O 1410.3 -1.72591 0.236241 0
M  V30 15027 C 1407.44 -3.36041 0.573496 0
M  V30 15028 H 1408.63 -2.2407 1.9933 0
M  V30 15029 H 1406.18 -1.14253 1.06658 0
M  V30 15030 H 1406.92 -3.22008 -0.384898 0
M  V30 15031 H 1406.7 -3.68991 1.32619 0
M  V30 15032 H 1408.19 -4.15165 0.450272 0
M  V30 15033 N 1408.63 -1.05812 -1.16797 0
M  V30 15034 C 1409.56 -0.608879 -2.19927 0
M  V30 15035 C 1410.54 0.365798 -1.58432 0
M  V30 15036 O 1411.72 0.27593 -1.8647 0
M  V30 15037 C 1408.85 0.108061 -3.38528 0
M  V30 15038 C 1407.9 -0.822607 -4.18492 0
M  V30 15039 S 1408.73 -2.3152 -4.82865 0
M  V30 15040 C 1409.89 -1.60961 -6.04849 0
M  V30 15041 H 1410.12 -1.48261 -2.57693 0
M  V30 15042 H 1407.65 -0.870648 -1.27511 0
M  V30 15043 H 1409.61 0.515496 -4.0725 0
M  V30 15044 H 1408.27 0.95792 -2.99137 0
M  V30 15045 H 1407.46 -0.267448 -5.0329 0
M  V30 15046 H 1407.07 -1.1697 -3.55238 0
M  V30 15047 H 1409.36 -0.912454 -6.71327 0
M  V30 15048 H 1410.3 -2.43531 -6.64905 0
M  V30 15049 H 1410.71 -1.09431 -5.53792 0
M  V30 15050 N 1410.11 1.33347 -0.840014 0
M  V30 15051 C 1411.34 2.01659 -0.449141 0
M  V30 15052 C 1411.75 1.63353 0.954597 0
M  V30 15053 O 1411.09 0.843303 1.632 0
M  V30 15054 C 1411.15 3.56124 -0.491497 0
M  V30 15055 C 1410.81 4.17812 -1.85155 0
M  V30 15056 C 1411.81 4.37101 -2.81494 0
M  V30 15057 C 1409.5 4.54211 -2.1447 0
M  V30 15058 C 1411.49 4.91938 -4.05309 0
M  V30 15059 C 1409.18 5.08756 -3.38542 0
M  V30 15060 C 1410.18 5.27566 -4.33778 0
M  V30 15061 O 1409.86 5.8095 -5.55655 0
M  V30 15062 H 1409.6 0.652553 -0.176494 0
M  V30 15063 H 1412.15 1.71228 -1.13447 0
M  V30 15064 H 1410.38 3.85887 0.250613 0
M  V30 15065 H 1412.07 4.05728 -0.118288 0
M  V30 15066 H 1412.83 4.09328 -2.60146 0
M  V30 15067 H 1408.71 4.38864 -1.41135 0
M  V30 15068 H 1412.26 5.06536 -4.79654 0
M  V30 15069 H 1408.15 5.3596 -3.59746 0
M  V30 15070 H 1408.92 5.99363 -5.5741 0
M  V30 15071 N 1411.59 0.596556 1.45873 0
M  V30 15072 C 1412.52 -0.166704 2.28593 0
M  V30 15073 C 1413.53 -0.84231 1.39316 0
M  V30 15074 O 1414.72 -0.709548 1.63792 0
M  V30 15075 C 1411.82 -1.25641 3.1475 0
M  V30 15076 C 1410.99 -0.67006 4.32237 0
M  V30 15077 C 1410.05 -1.64924 4.99686 0
M  V30 15078 O 1409.08 -1.17986 5.56838 0
M  V30 15079 N 1410.28 -2.98355 4.9796 0
M  V30 15080 H 1413.04 0.543045 2.94739 0
M  V30 15081 H 1410.61 0.435274 1.55939 0
M  V30 15082 H 1412.6 -1.91104 3.56737 0
M  V30 15083 H 1411.17 -1.86883 2.50586 0
M  V30 15084 H 1410.39 0.162375 3.93865 0
M  V30 15085 H 1411.68 -0.258345 5.08144 0
M  V30 15086 H 1411.07 -3.39101 4.52799 0
M  V30 15087 H 1409.63 -3.5927 5.43846 0
M  V30 15088 N 1413.06 -1.53996 0.335095 0
M  V30 15089 C 1414.01 -2.26221 -0.541007 0
M  V30 15090 C 1415.01 -1.28053 -1.109 0
M  V30 15091 O 1416.21 -1.4579 -1.05571 0
M  V30 15092 H 1412.59 -0.726775 -0.193136 0
M  V30 15093 H 1414.56 -2.98263 0.0902792 0
M  V30 15094 C 1413.31 -3.04173 -1.68445 0
M  V30 15095 H 1412.63 -3.79537 -1.25665 0
M  V30 15096 H 1414.07 -3.57937 -2.27282 0
M  V30 15097 C 1412.53 -2.13162 -2.6089 0
M  V30 15098 O 1413.06 -1.7221 -3.62914 0
M  V30 15099 N 1411.26 -1.78414 -2.29384 0
M  V30 15100 H 1410.81 -2.11914 -1.46458 0
M  V30 15101 H 1410.77 -1.178 -2.91497 0
M  V30 15102 N 1414.54 -0.0635198 -1.57472 0
M  V30 15103 C 1415.79 0.608384 -1.93459 0
M  V30 15104 C 1416.12 1.6976 -0.943141 0
M  V30 15105 O 1415.4 1.94478 0.0289567 0
M  V30 15106 C 1415.68 1.19302 -3.39763 0
M  V30 15107 C 1415.53 0.11102 -4.49663 0
M  V30 15108 C 1416.85 2.101 -3.86712 0
M  V30 15109 H 1413.97 0.219688 -0.703496 0
M  V30 15110 H 1416.61 -0.127803 -1.8957 0
M  V30 15111 H 1414.76 1.82044 -3.43209 0
M  V30 15112 H 1416.43 -0.521606 -4.58342 0
M  V30 15113 H 1414.68 -0.559408 -4.30178 0
M  V30 15114 H 1415.35 0.560332 -5.49149 0
M  V30 15115 H 1417.82 1.57305 -3.8522 0
M  V30 15116 H 1416.7 2.47945 -4.89708 0
M  V30 15117 H 1416.96 3.00603 -3.24177 0
M  V30 15118 N 1416.02 1.56195 0.209972 0
M  V30 15119 C 1417.3 1.70553 0.957653 0
M  V30 15120 C 1417.68 0.614091 2.01971 0
M  V30 15121 O 1417.02 -0.377192 2.25365 0
M  V30 15122 C 1417.23 3.12314 1.55759 0
M  V30 15123 C 1418.58 3.72085 2.04543 0
M  V30 15124 O 1419.61 3.15349 1.65631 0
M  V30 15125 O 1418.47 4.71627 2.76099 0
M  V30 15126 H 1415.56 0.695077 0.448104 0
M  V30 15127 H 1418.11 1.68507 0.20084 0
M  V30 15128 H 1416.88 3.83215 0.791302 0
M  V30 15129 H 1416.5 3.18526 2.37964 0
M  V30 15130 N 1417.5 -0.477127 1.50204 0
M  V30 15131 C 1418.75 -1.22722 1.60573 0
M  V30 15132 C 1419.07 -1.92595 0.305326 0
M  V30 15133 O 1418.34 -1.83836 -0.676842 0
M  V30 15134 H 1416.92 -0.455973 0.591691 0
M  V30 15135 H 1419.58 -0.550915 1.86952 0
M  V30 15136 H 1418.67 -1.97837 2.41385 0
M  V30 15137 N 1418.98 -1.3968 -0.729882 0
M  V30 15138 C 1420.39 -1.21396 -1.0361 0
M  V30 15139 C 1420.59 -0.0791302 -2.01345 0
M  V30 15140 O 1419.65 0.567575 -2.46038 0
M  V30 15141 C 1420.96 -2.55006 -1.59349 0
M  V30 15142 C 1422.51 -2.61896 -1.71405 0
M  V30 15143 C 1422.98 -3.9574 -2.30552 0
M  V30 15144 N 1424.48 -3.97406 -2.37955 0
M  V30 15145 C 1425.21 -4.97745 -2.8467 0
M  V30 15146 N 1424.71 -6.08482 -3.31243 0
M  V30 15147 N 1426.5 -4.85121 -2.83925 0
M  V30 15148 H 1418.65 -2.12242 -0.081787 0
M  V30 15149 H 1420.91 -0.942827 -0.0989005 0
M  V30 15150 H 1420.62 -3.38626 -0.950005 0
M  V30 15151 H 1420.49 -2.75087 -2.58083 0
M  V30 15152 H 1422.88 -1.78656 -2.34874 0
M  V30 15153 H 1422.96 -2.45659 -0.7131 0
M  V30 15154 H 1422.61 -4.79412 -1.67709 0
M  V30 15155 H 1422.54 -4.09299 -3.31334 0
M  V30 15156 H 1425.03 -3.17435 -2.05044 0
M  V30 15157 H 1425.34 -6.8095 -3.65414 0
M  V30 15158 H 1423.68 -6.12068 -3.29239 0
M  V30 15159 H 1426.88 -3.97711 -2.46867 0
M  V30 15160 H 1427.05 -5.63465 -3.20017 0
M  V30 15161 N 1420.45 0.960609 -1.2494 0
M  V30 15162 C 1421.7 1.70701 -1.09495 0
M  V30 15163 C 1422.03 1.90754 0.364214 0
M  V30 15164 O 1421.31 1.47417 1.26879 0
M  V30 15165 C 1421.59 3.09353 -1.84317 0
M  V30 15166 C 1421.44 2.96747 -3.38026 0
M  V30 15167 C 1422.76 4.09139 -1.62153 0
M  V30 15168 H 1419.88 0.61955 -0.399158 0
M  V30 15169 H 1422.52 1.11701 -1.53698 0
M  V30 15170 H 1420.67 3.59719 -1.46746 0
M  V30 15171 H 1422.35 2.53752 -3.85237 0
M  V30 15172 H 1420.59 2.32798 -3.66043 0
M  V30 15173 H 1421.26 3.95002 -3.85587 0
M  V30 15174 H 1423.74 3.67659 -1.94849 0
M  V30 15175 H 1422.61 5.04206 -2.16951 0
M  V30 15176 H 1422.87 4.38521 -0.561437 0
M  V30 15177 N 1421.93 1.0643 1.16234 0
M  V30 15178 C 1423.16 0.802671 1.91238 0
M  V30 15179 C 1423.58 -0.637222 1.76978 0
M  V30 15180 O 1422.94 -1.44419 1.09603 0
M  V30 15181 C 1422.99 1.20389 3.3991 0
M  V30 15182 O 1422.09 0.343516 4.10967 0
M  V30 15183 H 1421.43 0.29323 0.595745 0
M  V30 15184 H 1423.96 1.42046 1.47255 0
M  V30 15185 H 1423.97 1.17604 3.90683 0
M  V30 15186 H 1422.65 2.2527 3.49608 0
M  V30 15187 H 1421.23 0.433051 3.70377 0
M  V30 15188 N 1423.41 -1.329 0.847073 0
M  V30 15189 C 1424.32 -2.32815 0.288878 0
M  V30 15190 C 1425.34 -1.63715 -0.589363 0
M  V30 15191 O 1426.51 -1.9531 -0.491537 0
M  V30 15192 C 1423.58 -3.42778 -0.519988 0
M  V30 15193 C 1422.64 -4.27584 0.383496 0
M  V30 15194 C 1421.87 -5.32296 -0.386862 0
M  V30 15195 O 1422.09 -5.4698 -1.61768 0
M  V30 15196 O 1421.03 -6.01408 0.2434 0
M  V30 15197 H 1424.85 -2.82434 1.11647 0
M  V30 15198 H 1422.44 -1.36388 0.609807 0
M  V30 15199 H 1424.32 -4.09862 -0.979357 0
M  V30 15200 H 1423 -2.95362 -1.3245 0
M  V30 15201 H 1421.9 -3.63338 0.890879 0
M  V30 15202 H 1423.24 -4.78505 1.15299 0
M  V30 15203 N 1424.89 -0.604284 -1.45555 0
M  V30 15204 C 1426.13 -0.101149 -2.0415 0
M  V30 15205 C 1426.49 1.24348 -1.46292 0
M  V30 15206 O 1427.69 1.83714 -1.9622 0
M  V30 15207 C 1425.96 -0.0589898 -3.57351 0
M  V30 15208 S 1427.52 0.383434 -4.37122 0
M  V30 15209 H 1424.34 -0.0479603 -0.709381 0
M  V30 15210 H 1426.94 -0.801643 -1.78309 0
M  V30 15211 H 1425.65 -1.04119 -3.96973 0
M  V30 15212 H 1425.18 0.663601 -3.87763 0
M  V30 15213 H 1427.19 1.63367 -4.68536 0
M  V30 15214 N 1426.37 1.53816 -0.343257 0
M  V30 15215 C 1427.78 1.86169 0.140709 0
M  V30 15216 C 1428.13 1.26449 1.50017 0
M  V30 15217 O 1427.25 0.577955 2.08539 0
M  V30 15218 C 1427.85 3.37785 0.262097 0
M  V30 15219 C 1426.41 3.70016 0.690294 0
M  V30 15220 C 1425.55 2.7674 -0.17614 0
M  V30 15221 H 1428.51 1.48383 -0.562863 0
M  V30 15222 H 1428.53 3.64564 1.08964 0
M  V30 15223 H 1428.04 3.81221 -0.727481 0
M  V30 15224 H 1426.14 3.32124 1.68891 0
M  V30 15225 H 1426.25 4.76686 0.480388 0
M  V30 15226 H 1424.62 2.52263 0.351476 0
M  V30 15227 H 1425.4 3.23006 -1.16285 0
M  V30 15228 N 1427.84 0.0718701 1.57436 0
M  V30 15229 C 1428.79 -0.905443 2.0925 0
M  V30 15230 C 1429.78 -1.25875 1.00221 0
M  V30 15231 O 1430.97 -1.23771 1.26529 0
M  V30 15232 C 1428.1 -2.17298 2.65775 0
M  V30 15233 C 1427.19 -1.84614 3.81809 0
M  V30 15234 N 1427.58 -1.22381 4.90771 0
M  V30 15235 C 1425.87 -2.14364 3.91106 0
M  V30 15236 C 1426.58 -1.07791 5.71626 0
M  V30 15237 N 1425.55 -1.58764 5.19899 0
M  V30 15238 H 1429.35 -0.419955 2.90884 0
M  V30 15239 H 1426.87 -0.132017 1.61863 0
M  V30 15240 H 1428.86 -2.88231 3.01211 0
M  V30 15241 H 1427.52 -2.66434 1.85588 0
M  V30 15242 H 1428.54 -0.89345 5.10135 0
M  V30 15243 H 1425.21 -2.65877 3.21894 0
M  V30 15244 H 1426.6 -0.593061 6.69278 0
M  V30 15245 N 1429.32 -1.56304 -0.201686 0
M  V30 15246 C 1430.55 -1.84341 -0.939465 0
M  V30 15247 C 1430.97 -0.653544 -1.77128 0
M  V30 15248 O 1430.32 0.377813 -1.78546 0
M  V30 15249 C 1430.37 -3.11111 -1.84098 0
M  V30 15250 O 1430.09 -4.25509 -1.04276 0
M  V30 15251 C 1431.6 -3.52279 -2.69099 0
M  V30 15252 H 1428.82 -0.61232 -0.274419 0
M  V30 15253 H 1431.36 -2.03409 -0.210924 0
M  V30 15254 H 1429.51 -2.9396 -2.52322 0
M  V30 15255 H 1429.93 -4.97655 -1.6565 0
M  V30 15256 H 1431.4 -4.43965 -3.28023 0
M  V30 15257 H 1431.88 -2.74959 -3.42482 0
M  V30 15258 H 1432.49 -3.71939 -2.06256 0
M  V30 15259 N 1430.8 0.469154 -1.50455 0
M  V30 15260 C 1432.03 1.24252 -1.65061 0
M  V30 15261 C 1432.44 1.86226 -0.334121 0
M  V30 15262 O 1431.78 1.70082 0.694109 0
M  V30 15263 C 1431.84 2.39007 -2.68544 0
M  V30 15264 C 1431.51 1.97655 -4.12046 0
M  V30 15265 C 1432.5 1.49796 -4.97852 0
M  V30 15266 C 1430.19 2.06316 -4.57973 0
M  V30 15267 C 1432.18 1.11145 -6.27635 0
M  V30 15268 C 1429.87 1.67276 -5.8776 0
M  V30 15269 C 1430.87 1.19769 -6.72417 0
M  V30 15270 O 1430.56 0.812708 -7.99781 0
M  V30 15271 H 1430.29 0.381848 -0.557824 0
M  V30 15272 H 1432.84 0.566191 -1.97442 0
M  V30 15273 H 1431.07 3.09817 -2.31409 0
M  V30 15274 H 1432.76 3.00965 -2.7235 0
M  V30 15275 H 1433.53 1.42525 -4.63586 0
M  V30 15276 H 1429.41 2.42242 -3.92224 0
M  V30 15277 H 1432.95 0.739936 -6.93665 0
M  V30 15278 H 1428.85 1.74208 -6.21548 0
M  V30 15279 H 1429.62 0.941386 -8.13068 0
M  V30 15280 N 1432.28 1.40065 0.722464 0
M  V30 15281 C 1433.21 1.35695 1.84715 0
M  V30 15282 C 1434.22 0.263522 1.60653 0
M  V30 15283 O 1435.41 0.523382 1.70655 0
M  V30 15284 C 1432.51 1.08722 3.20987 0
M  V30 15285 C 1431.69 2.29586 3.72302 0
M  V30 15286 C 1430.74 1.98879 4.87169 0
M  V30 15287 O 1429.77 2.71681 5.00178 0
M  V30 15288 N 1430.97 0.962554 5.72464 0
M  V30 15289 H 1433.74 2.32621 1.88964 0
M  V30 15290 H 1431.3 1.3433 0.903723 0
M  V30 15291 H 1433.29 0.861772 3.95418 0
M  V30 15292 H 1431.86 0.204869 3.11928 0
M  V30 15293 H 1431.08 2.68004 2.8908 0
M  V30 15294 H 1432.37 3.10176 4.03322 0
M  V30 15295 H 1431.77 0.359452 5.64557 0
M  V30 15296 H 1430.32 0.797003 6.46909 0
M  V30 15297 N 1433.76 -0.95397 1.25448 0
M  V30 15298 C 1434.71 -2.07206 1.05681 0
M  V30 15299 C 1435.7 -1.69395 -0.0124672 0
M  V30 15300 O 1436.91 -1.79429 0.143201 0
M  V30 15301 H 1433.28 -0.678231 0.324817 0
M  V30 15302 H 1435.25 -2.21034 2.00466 0
M  V30 15303 C 1434 -3.40725 0.692955 0
M  V30 15304 H 1433.32 -3.70287 1.50756 0
M  V30 15305 H 1434.76 -4.19814 0.594351 0
M  V30 15306 C 1433.22 -3.31495 -0.601028 0
M  V30 15307 O 1433.75 -3.66565 -1.64296 0
M  V30 15308 N 1431.96 -2.84612 -0.586899 0
M  V30 15309 H 1431.51 -2.56271 0.261375 0
M  V30 15310 H 1431.46 -2.78819 -1.45284 0
M  V30 15311 N 1435.24 -1.07045 -1.15668 0
M  V30 15312 C 1436.65 -0.795369 -1.38369 0
M  V30 15313 C 1436.85 0.601829 -1.92303 0
M  V30 15314 O 1435.91 1.36109 -2.12675 0
M  V30 15315 C 1437.22 -1.86659 -2.35752 0
M  V30 15316 C 1438.77 -1.89098 -2.49421 0
M  V30 15317 C 1439.24 -2.95296 -3.50092 0
M  V30 15318 N 1440.73 -2.94378 -3.57625 0
M  V30 15319 C 1441.47 -3.73194 -4.35331 0
M  V30 15320 N 1440.97 -4.61851 -5.16397 0
M  V30 15321 N 1442.76 -3.61554 -4.30389 0
M  V30 15322 H 1434.91 -1.97162 -0.790004 0
M  V30 15323 H 1437.17 -0.854816 -0.40987 0
M  V30 15324 H 1436.88 -2.87036 -2.03232 0
M  V30 15325 H 1436.75 -1.72406 -3.35494 0
M  V30 15326 H 1439.14 -0.893752 -2.8124 0
M  V30 15327 H 1439.22 -2.07429 -1.49689 0
M  V30 15328 H 1438.86 -3.95217 -3.19008 0
M  V30 15329 H 1438.79 -2.74212 -4.49572 0
M  V30 15330 H 1441.29 -2.3011 -2.99763 0
M  V30 15331 H 1441.6 -5.18629 -5.72926 0
M  V30 15332 H 1439.94 -4.65902 -5.15714 0
M  V30 15333 H 1443.13 -2.91672 -3.66122 0
M  V30 15334 H 1443.31 -4.23221 -4.90701 0
M  V30 15335 N 1436.71 1.32449 -0.85411 0
M  V30 15336 C 1438.13 1.50046 -0.543895 0
M  V30 15337 C 1438.33 1.78985 0.925561 0
M  V30 15338 O 1437.39 1.85909 1.70862 0
M  V30 15339 C 1438.7 2.64499 -1.43041 0
M  V30 15340 C 1440.25 2.78384 -1.43078 0
M  V30 15341 C 1440.72 3.95915 -2.3025 0
M  V30 15342 N 1442.21 4.03176 -2.28043 0
M  V30 15343 C 1442.95 4.9335 -2.92221 0
M  V30 15344 N 1442.44 5.88536 -3.6551 0
M  V30 15345 N 1444.24 4.86468 -2.81612 0
M  V30 15346 H 1436.39 1.11931 -1.80514 0
M  V30 15347 H 1438.65 0.551626 -0.770982 0
M  V30 15348 H 1438.36 2.49842 -2.47532 0
M  V30 15349 H 1438.23 3.60269 -1.11742 0
M  V30 15350 H 1440.62 2.92464 -0.393529 0
M  V30 15351 H 1440.7 1.83329 -1.78393 0
M  V30 15352 H 1440.34 3.82594 -3.34043 0
M  V30 15353 H 1440.27 4.90245 -1.92268 0
M  V30 15354 H 1442.76 3.35064 -1.74759 0
M  V30 15355 H 1443.08 6.54038 -4.11648 0
M  V30 15356 H 1441.42 5.88564 -3.69618 0
M  V30 15357 H 1444.61 4.11076 -2.23907 0
M  V30 15358 H 1444.79 5.56542 -3.3191 0
M  V30 15359 N 1438.19 0.611994 1.45232 0
M  V30 15360 C 1439.6 0.193464 1.85695 0
M  V30 15361 C 1439.95 -1.25069 1.5117 0
M  V30 15362 O 1439.08 -1.94894 0.940497 0
M  V30 15363 C 1439.67 0.344334 3.37046 0
M  V30 15364 C 1438.23 -0.0195378 3.76395 0
M  V30 15365 C 1437.38 0.666714 2.69166 0
M  V30 15366 H 1440.33 0.818395 1.35971 0
M  V30 15367 H 1440.35 -0.422209 3.7815 0
M  V30 15368 H 1439.86 1.3955 3.62143 0
M  V30 15369 H 1437.96 -1.06971 3.56915 0
M  V30 15370 H 1438.08 0.377184 4.77613 0
M  V30 15371 H 1436.44 0.103912 2.54488 0
M  V30 15372 H 1437.22 1.7201 2.97099 0
M  V30 15373 N 1439.67 -1.53632 0.351409 0
M  V30 15374 C 1440.92 -2.0104 -0.242687 0
M  V30 15375 C 1441.24 -1.23906 -1.49925 0
M  V30 15376 O 1440.5 -0.316927 -1.93117 0
M  V30 15377 C 1440.8 -3.5242 -0.594561 0
M  V30 15378 C 1440.46 -4.47333 0.566031 0
M  V30 15379 C 1439.13 -4.73001 0.884515 0
M  V30 15380 C 1441.48 -5.03566 1.34426 0
M  V30 15381 C 1438.81 -5.52156 1.98346 0
M  V30 15382 C 1441.16 -5.8392 2.43351 0
M  V30 15383 C 1439.82 -6.0788 2.7575 0
M  V30 15384 H 1439.09 -0.735659 -0.0888056 0
M  V30 15385 H 1441.74 -1.85362 0.480948 0
M  V30 15386 H 1440.04 -3.65971 -1.39902 0
M  V30 15387 H 1441.74 -3.86565 -1.06625 0
M  V30 15388 H 1438.33 -4.27494 0.307751 0
M  V30 15389 H 1442.52 -4.83694 1.11146 0
M  V30 15390 H 1437.77 -5.68942 2.23863 0
M  V30 15391 H 1441.95 -6.26505 3.04079 0
M  V30 15392 H 1439.57 -6.69001 3.61029 0
M  V30 15393 N 1441.15 -0.0802183 -1.57396 0
M  V30 15394 C 1442.37 0.599179 -1.98556 0
M  V30 15395 C 1442.8 1.61844 -0.958555 0
M  V30 15396 O 1442.16 1.81146 0.0748226 0
M  V30 15397 C 1442.2 1.23675 -3.38728 0
M  V30 15398 O 1441.31 2.35262 -3.38712 0
M  V30 15399 H 1440.65 0.153366 -0.646045 0
M  V30 15400 H 1443.18 -0.157227 -2.03995 0
M  V30 15401 H 1443.19 1.5816 -3.76098 0
M  V30 15402 H 1441.86 0.489946 -4.13004 0
M  V30 15403 H 1440.44 2.02507 -3.13122 0
M  V30 15404 N 1442.63 1.56409 0.193394 0
M  V30 15405 C 1444.04 1.50032 0.544298 0
M  V30 15406 C 1444.24 0.780546 1.85768 0
M  V30 15407 O 1443.3 0.331769 2.50311 0
M  V30 15408 C 1444.61 2.94705 0.597463 0
M  V30 15409 C 1446.16 3.05386 0.686179 0
M  V30 15410 C 1446.63 4.51473 0.770439 0
M  V30 15411 N 1448.12 4.55631 0.833921 0
M  V30 15412 C 1448.86 5.65982 0.919314 0
M  V30 15413 N 1448.36 6.8602 0.966904 0
M  V30 15414 N 1450.15 5.539 0.956634 0
M  V30 15415 H 1442.3 2.01619 -0.668096 0
M  V30 15416 H 1444.56 0.917589 -0.238191 0
M  V30 15417 H 1444.27 3.50431 -0.298509 0
M  V30 15418 H 1444.14 3.48151 1.45157 0
M  V30 15419 H 1446.53 2.49708 1.57258 0
M  V30 15420 H 1446.61 2.55062 -0.194165 0
M  V30 15421 H 1446.25 5.07777 -0.111619 0
M  V30 15422 H 1446.18 4.99531 1.66661 0
M  V30 15423 H 1448.68 3.69198 0.80632 0
M  V30 15424 H 1448.99 7.6587 1.03262 0
M  V30 15425 H 1447.33 6.88674 0.935552 0
M  V30 15426 H 1450.52 4.59044 0.916304 0
M  V30 15427 H 1450.7 6.39926 1.01972 0
M  V30 15428 N 1444.1 -0.461169 1.50702 0
M  V30 15429 C 1445.01 -1.58355 1.73092 0
M  V30 15430 C 1446.03 -1.62795 0.61431 0
M  V30 15431 O 1447.21 -1.8048 0.893806 0
M  V30 15432 C 1444.27 -2.94509 1.82936 0
M  V30 15433 C 1443.33 -3.00378 3.06711 0
M  V30 15434 C 1442.56 -4.30037 3.16076 0
M  V30 15435 O 1442.79 -5.21097 2.31978 0
M  V30 15436 O 1441.72 -4.41702 4.08881 0
M  V30 15437 H 1445.55 -1.42384 2.68255 0
M  V30 15438 H 1443.13 -0.641709 1.34916 0
M  V30 15439 H 1445.01 -3.75357 1.91534 0
M  V30 15440 H 1443.69 -3.10658 0.909581 0
M  V30 15441 H 1442.6 -2.18571 3.03608 0
M  V30 15442 H 1443.93 -2.89167 3.983 0
M  V30 15443 N 1445.58 -1.40446 -0.715026 0
M  V30 15444 C 1446.51 -1.35159 -1.83868 0
M  V30 15445 C 1447.49 -0.221884 -1.61079 0
M  V30 15446 O 1448.68 -0.405635 -1.84084 0
M  V30 15447 C 1445.8 -1.10358 -3.20217 0
M  V30 15448 C 1444.85 -2.25787 -3.61832 0
M  V30 15449 S 1445.68 -3.88183 -3.68882 0
M  V30 15450 C 1446.84 -3.65647 -5.07989 0
M  V30 15451 H 1447.07 -2.30252 -1.88073 0
M  V30 15452 H 1444.6 -1.26738 -0.881859 0
M  V30 15453 H 1446.56 -0.967343 -3.9894 0
M  V30 15454 H 1445.22 -0.169178 -3.13644 0
M  V30 15455 H 1444.42 -2.04078 -4.60834 0
M  V30 15456 H 1444.02 -2.35717 -2.90368 0
M  V30 15457 H 1446.31 -3.24149 -5.94923 0
M  V30 15458 H 1447.25 -4.64182 -5.34734 0
M  V30 15459 H 1447.66 -2.99322 -4.78609 0
M  V30 15460 N 1447.06 0.947303 -1.25952 0
M  V30 15461 C 1448.34 1.66964 -1.01894 0
M  V30 15462 C 1448.72 2.06192 0.452555 0
M  V30 15463 O 1448.06 1.78098 1.43156 0
M  V30 15464 C 1448.27 2.88643 -1.96179 0
M  V30 15465 C 1449.62 3.60432 -2.24441 0
M  V30 15466 O 1450.65 2.98737 -1.93996 0
M  V30 15467 O 1449.51 4.7154 -2.76247 0
M  V30 15468 H 1446.6 0.730875 -0.386976 0
M  V30 15469 H 1449.15 0.999577 -1.37137 0
M  V30 15470 H 1447.92 2.565 -2.95506 0
M  V30 15471 H 1447.54 3.63377 -1.61379 0
M  V30 15472 N 1448.54 1.07657 1.15099 0
M  V30 15473 C 1449.47 0.721201 2.22083 0
M  V30 15474 C 1450.45 -0.292808 1.67561 0
M  V30 15475 O 1451.63 -0.164872 1.93499 0
M  V30 15476 C 1448.76 0.12153 3.47087 0
M  V30 15477 C 1447.72 1.06303 4.14588 0
M  V30 15478 C 1447.04 0.325964 5.33706 0
M  V30 15479 C 1448.34 2.39796 4.63999 0
M  V30 15480 H 1450.04 1.61566 2.52065 0
M  V30 15481 H 1447.58 0.778282 1.21156 0
M  V30 15482 H 1449.54 -0.139037 4.21171 0
M  V30 15483 H 1448.26 -0.808022 3.16447 0
M  V30 15484 H 1446.92 1.30858 3.4245 0
M  V30 15485 H 1446.57 -0.607147 4.99322 0
M  V30 15486 H 1446.27 0.953552 5.79811 0
M  V30 15487 H 1447.79 0.0732695 6.10556 0
M  V30 15488 H 1449.21 2.19552 5.29594 0
M  V30 15489 H 1447.6 2.98178 5.20778 0
M  V30 15490 H 1448.67 3.01876 3.79472 0
M  V30 15491 N 1450.02 -1.31994 0.861122 0
M  V30 15492 C 1451.26 -1.96636 0.466754 0
M  V30 15493 C 1451.59 -1.6845 -0.982328 0
M  V30 15494 O 1450.86 -0.995157 -1.68741 0
M  V30 15495 H 1449.44 -0.727489 0.169613 0
M  V30 15496 H 1452.1 -1.60962 1.09897 0
M  V30 15497 H 1451.19 -3.05937 0.61716 0
M  V30 15498 N 1451.49 -0.619688 -1.44906 0
M  V30 15499 C 1452.42 0.0791121 -2.33366 0
M  V30 15500 C 1453.41 0.846503 -1.47541 0
M  V30 15501 O 1454.59 0.814657 -1.76287 0
M  V30 15502 C 1451.72 1.06901 -3.30438 0
M  V30 15503 C 1450.67 0.41403 -4.25993 0
M  V30 15504 C 1450 1.51303 -5.12846 0
M  V30 15505 C 1451.3 -0.672483 -5.17953 0
M  V30 15506 H 1452.99 -0.659551 -2.92045 0
M  V30 15507 H 1450.54 -0.318623 -1.40431 0
M  V30 15508 H 1452.49 1.56653 -3.912 0
M  V30 15509 H 1451.22 1.83842 -2.69944 0
M  V30 15510 H 1449.88 -0.0627315 -3.66546 0
M  V30 15511 H 1449.52 2.27303 -4.48712 0
M  V30 15512 H 1449.22 1.08022 -5.77586 0
M  V30 15513 H 1450.75 2.01258 -5.76479 0
M  V30 15514 H 1452.16 -0.258542 -5.72717 0
M  V30 15515 H 1450.56 -1.02776 -5.91234 0
M  V30 15516 H 1451.63 -1.54425 -4.59653 0
M  V30 15517 N 1452.97 1.53444 -0.359552 0
M  V30 15518 C 1453.9 2.28475 0.4818 0
M  V30 15519 C 1454.88 1.30664 1.08908 0
M  V30 15520 O 1456.07 1.59527 1.10746 0
M  V30 15521 C 1453.2 3.06951 1.62477 0
M  V30 15522 C 1452.15 4.12399 1.14504 0
M  V30 15523 C 1451.48 4.78922 2.37777 0
M  V30 15524 C 1452.78 5.21775 0.234075 0
M  V30 15525 H 1454.47 2.99053 -0.144162 0
M  V30 15526 H 1452.02 1.43826 -0.0707746 0
M  V30 15527 H 1453.97 3.58186 2.21993 0
M  V30 15528 H 1452.7 2.34053 2.27787 0
M  V30 15529 H 1451.35 3.62101 0.572589 0
M  V30 15530 H 1451 4.02602 3.0153 0
M  V30 15531 H 1450.7 5.50175 2.06353 0
M  V30 15532 H 1452.23 5.32948 2.97991 0
M  V30 15533 H 1453.64 5.68549 0.736548 0
M  V30 15534 H 1452.04 6.00099 0.0109887 0
M  V30 15535 H 1453.11 4.79443 -0.725435 0
M  V30 15536 N 1454.45 0.0885642 1.57351 0
M  V30 15537 C 1455.68 -0.588641 1.98871 0
M  V30 15538 C 1456.1 -1.61333 0.967125 0
M  V30 15539 O 1455.46 -1.81183 -0.0652149 0
M  V30 15540 C 1455.51 -1.21877 3.39379 0
M  V30 15541 O 1454.61 -2.33462 3.39955 0
M  V30 15542 H 1453.95 -0.149938 0.64685 0
M  V30 15543 H 1456.48 0.168043 2.03909 0
M  V30 15544 H 1456.49 -1.56163 3.76931 0
M  V30 15545 H 1455.17 -0.468037 4.13258 0
M  V30 15546 H 1453.74 -2.00844 3.14191 0
M  V30 15547 N 1455.93 -1.56509 -0.185096 0
M  V30 15548 C 1457.34 -1.71024 -0.748856 0
M  V30 15549 C 1457.69 -0.69681 -1.83409 0
M  V30 15550 O 1456.82 0.144711 -2.15916 0
M  V30 15551 C 1457.41 -3.1008 -1.36513 0
M  V30 15552 C 1455.97 -3.26325 -1.87587 0
M  V30 15553 C 1455.12 -2.66977 -0.749579 0
M  V30 15554 H 1458.07 -1.58649 0.0401175 0
M  V30 15555 H 1458.09 -3.07965 -2.23468 0
M  V30 15556 H 1457.6 -3.83816 -0.575051 0
M  V30 15557 H 1455.7 -2.57522 -2.69283 0
M  V30 15558 H 1455.81 -4.33931 -2.03078 0
M  V30 15559 H 1454.18 -2.26419 -1.16647 0
M  V30 15560 H 1454.96 -3.43288 0.0284301 0
M  V30 15561 N 1457.41 0.45317 -1.50944 0
M  V30 15562 C 1458.34 1.56678 -1.67287 0
M  V30 15563 C 1459.35 1.53089 -0.553853 0
M  V30 15564 O 1460.54 1.58152 -0.827653 0
M  V30 15565 C 1457.64 2.95585 -1.65779 0
M  V30 15566 C 1456.81 3.2385 -2.94007 0
M  V30 15567 C 1455.87 4.42401 -2.84899 0
M  V30 15568 O 1454.9 4.4183 -3.58853 0
M  V30 15569 N 1456.1 5.4508 -1.99671 0
M  V30 15570 H 1458.87 1.43069 -2.63347 0
M  V30 15571 H 1456.43 0.641875 -1.48632 0
M  V30 15572 H 1458.42 3.7289 -1.57275 0
M  V30 15573 H 1456.99 3.02872 -0.773791 0
M  V30 15574 H 1456.21 2.34991 -3.16501 0
M  V30 15575 H 1457.5 3.39554 -3.7892 0
M  V30 15576 H 1456.89 5.48374 -1.38933 0
M  V30 15577 H 1455.45 6.21298 -1.97057 0
M  V30 15578 N 1458.88 1.40823 0.707568 0
M  V30 15579 C 1459.85 1.41464 1.80334 0
M  V30 15580 C 1460.85 0.307143 1.57839 0
M  V30 15581 O 1462.04 0.566444 1.64733 0
M  V30 15582 C 1459.17 1.21426 3.18541 0
M  V30 15583 H 1460.36 2.38998 1.81162 0
M  V30 15584 H 1457.92 1.2679 0.914007 0
M  V30 15585 H 1458.65 0.246847 3.23359 0
M  V30 15586 H 1458.44 2.01657 3.36269 0
M  V30 15587 H 1459.93 1.24681 3.98553 0
M  V30 15588 N 1460.36 -0.94061 1.26453 0
M  V30 15589 C 1461.29 -2.04322 1.03852 0
M  V30 15590 C 1462.31 -1.628 -0.00122618 0
M  V30 15591 O 1463.5 -1.76894 0.238911 0
M  V30 15592 C 1460.6 -3.34394 0.550789 0
M  V30 15593 C 1459.77 -4.0468 1.6599 0
M  V30 15594 C 1458.83 -5.13025 1.17012 0
M  V30 15595 O 1457.85 -5.37699 1.8673 0
M  V30 15596 N 1459.06 -5.80497 0.0188478 0
M  V30 15597 H 1461.82 -2.24276 1.98797 0
M  V30 15598 H 1459.38 -1.11013 1.17846 0
M  V30 15599 H 1461.37 -4.04169 0.207305 0
M  V30 15600 H 1459.94 -3.11108 -0.30509 0
M  V30 15601 H 1459.16 -3.28813 2.17429 0
M  V30 15602 H 1460.45 -4.48392 2.40463 0
M  V30 15603 H 1459.85 -5.62888 -0.563368 0
M  V30 15604 H 1458.41 -6.51259 -0.265556 0
M  V30 15605 N 1461.84 -1.08266 -1.14527 0
M  V30 15606 C 1463.09 -0.812661 -1.85805 0
M  V30 15607 C 1463.42 0.659878 -1.82645 0
M  V30 15608 O 1462.69 1.48498 -1.25612 0
M  V30 15609 C 1462.98 -1.33335 -3.34505 0
M  V30 15610 C 1462.83 -2.87113 -3.46246 0
M  V30 15611 C 1464.15 -0.957435 -4.29559 0
M  V30 15612 H 1461.27 -0.296681 -0.674648 0
M  V30 15613 H 1463.91 -1.34203 -1.34497 0
M  V30 15614 H 1462.06 -0.883056 -3.78331 0
M  V30 15615 H 1463.73 -3.40502 -3.11217 0
M  V30 15616 H 1461.98 -3.24845 -2.87504 0
M  V30 15617 H 1462.65 -3.18618 -4.50762 0
M  V30 15618 H 1465.12 -1.3456 -3.93742 0
M  V30 15619 H 1464 -1.34897 -5.32066 0
M  V30 15620 H 1464.26 0.135689 -4.41892 0
M  V30 15621 N 1463.32 1.31536 -0.86811 0
M  V30 15622 C 1464.23 2.32326 -0.32588 0
M  V30 15623 C 1465.25 1.64632 0.563243 0
M  V30 15624 O 1466.42 1.96067 0.460403 0
M  V30 15625 C 1463.49 3.43562 0.46539 0
M  V30 15626 C 1462.55 4.26919 -0.451472 0
M  V30 15627 C 1461.78 5.32844 0.302129 0
M  V30 15628 O 1462 5.49485 1.53045 0
M  V30 15629 O 1460.94 6.00944 -0.339048 0
M  V30 15630 H 1464.76 2.80622 -1.16126 0
M  V30 15631 H 1462.35 1.35401 -0.631428 0
M  V30 15632 H 1464.23 4.11368 0.914028 0
M  V30 15633 H 1462.91 2.97432 1.27734 0
M  V30 15634 H 1461.81 3.61874 -0.948571 0
M  V30 15635 H 1463.15 4.7661 -1.22897 0
M  V30 15636 N 1464.8 0.627364 1.44575 0
M  V30 15637 C 1466.07 0.0614392 1.95503 0
M  V30 15638 C 1466.45 -1.41182 1.56942 0
M  V30 15639 O 1465.8 -2.12435 0.841634 0
M  V30 15640 C 1466.01 0.280349 3.47872 0
M  V30 15641 C 1467.36 0.171559 4.24253 0
M  V30 15642 O 1468.38 0.211515 3.55571 0
M  V30 15643 O 1467.24 0.0733152 5.46451 0
M  V30 15644 H 1464.34 -0.0244626 0.826638 0
M  V30 15645 H 1466.88 0.698805 1.54644 0
M  V30 15646 H 1465.66 1.30278 3.68976 0
M  V30 15647 H 1465.28 -0.391336 3.95669 0
M  V30 15648 N 1466.28 -1.53251 0.367684 0
M  V30 15649 C 1467.5 -2.0618 -0.224645 0
M  V30 15650 C 1467.93 -1.23927 -1.41505 0
M  V30 15651 O 1467.28 -0.258858 -1.79443 0
M  V30 15652 C 1467.33 -3.55671 -0.594171 0
M  V30 15653 O 1466.44 -3.76132 -1.69112 0
M  V30 15654 H 1465.78 -0.663218 -0.0322099 0
M  V30 15655 H 1468.31 -1.97646 0.528897 0
M  V30 15656 H 1468.32 -3.98734 -0.864589 0
M  V30 15657 H 1466.99 -4.14982 0.276254 0
M  V30 15658 H 1465.57 -3.44965 -1.41609 0
M  V30 15659 O 1467.79 -0.23698 -1.59752 0
M  V30 15660 H 1468.48 0.34055 -1.90683 0
M  V30 END ATOM
M  V30 BEGIN BOND
M  V30 END BOND
M  V30 END CTAB
M  END
$$$$
