drugbank_target|P15555 D-alanyl-D-alanine carboxypeptidase (DB00456; DB01786; DB01868; DB02136; DB02514; DB02578; DB03313; DB03450; DB03820; DB03843; DB03927; DB04340; DB04488)
 OpenBabel12092119523D

  0  0  0     0  0            999 V3000
M  V30 BEGIN CTAB
M  V30 COUNTS 5985 6037 0 0 0
M  V30 BEGIN ATOM
M  V30 1 H -0.908 1.98254 -0.117106 0
M  V30 2 N 0 1.576 0 0
M  V30 3 C 0.933 2.03868 1.02534 0
M  V30 4 C 1.911 0.928543 1.3348 0
M  V30 5 O 3.095 1.19667 1.45644 0
M  V30 6 C 0.222 2.43627 2.35294 0
M  V30 7 C -0.732 3.65373 2.2001 0
M  V30 8 S 0.101 5.13292 1.52614 0
M  V30 9 C 1.257 5.56322 2.86805 0
M  V30 10 H 1.49 2.90518 0.631377 0
M  V30 11 H -0.977 1.52953 0.210867 0
M  V30 12 H 0.981 2.67203 3.11629 0
M  V30 13 H -0.358 1.57376 2.7183 0
M  V30 14 H -1.165 3.90944 3.18086 0
M  V30 15 H -1.563 3.418 1.51819 0
M  V30 16 H 0.729 5.58782 3.83104 0
M  V30 17 H 1.672 6.56266 2.65933 0
M  V30 18 H 2.08 4.83886 2.90714 0
M  V30 19 N 1.4781 -0.272755 1.55222 0
M  V30 20 C 2.7241 -1.00581 1.761 0
M  V30 21 C 3.0571 -1.85932 0.560625 0
M  V30 22 O 2.3321 -1.89416 -0.441801 0
M  V30 23 C 2.6151 -1.88816 3.06628 0
M  V30 24 C 2.4681 -1.06457 4.37021 0
M  V30 25 C 3.7871 -2.8752 3.33197 0
M  V30 26 H 0.9061 -0.364244 0.640699 0
M  V30 27 H 3.5481 -0.278189 1.87952 0
M  V30 28 H 1.6981 -2.50856 2.96654 0
M  V30 29 H 3.3701 -0.464863 4.58952 0
M  V30 30 H 1.6131 -0.368043 4.32236 0
M  V30 31 H 2.2841 -1.71514 5.24678 0
M  V30 32 H 4.7601 -2.35615 3.42965 0
M  V30 33 H 3.6361 -3.46399 4.25792 0
M  V30 34 H 3.8971 -3.62657 2.52849 0
M  V30 35 N 2.9562 -1.48159 -0.537278 0
M  V30 36 C 4.1812 -1.59707 -1.32319 0
M  V30 37 C 4.6062 -0.254859 -1.86365 0
M  V30 38 O 3.9642 0.772378 -1.64024 0
M  V30 39 C 4.0122 -2.6412 -2.45505 0
M  V30 40 O 3.1162 -2.20774 -3.48328 0
M  V30 41 H 2.4572 -0.535791 -0.392204 0
M  V30 42 H 4.9872 -1.94092 -0.647268 0
M  V30 43 H 4.9972 -2.85166 -2.91795 0
M  V30 44 H 3.6722 -3.61567 -2.05528 0
M  V30 45 H 2.2492 -2.09911 -3.08207 0
M  V30 46 N 4.4343 0.785586 -1.36625 0
M  V30 47 C 5.6823 1.54057 -1.30808 0
M  V30 48 C 6.0033 1.94683 0.111157 0
M  V30 49 O 5.2733 1.65241 1.05224 0
M  V30 50 H 3.8533 0.571354 -0.481211 0
M  V30 51 H 6.5153 0.935821 -1.70963 0
M  V30 52 H 5.6113 2.44637 -1.93801 0
M  V30 53 N 5.9124 1.20967 1.01018 0
M  V30 54 C 7.1404 1.04956 1.78303 0
M  V30 55 C 7.5554 -0.400915 1.84494 0
M  V30 56 O 6.9124 -1.27826 1.30257 0
M  V30 57 C 6.9634 1.63403 3.22462 0
M  V30 58 O 6.6844 3.02775 3.16637 0
M  V30 59 C 8.1854 1.52432 4.16268 0
M  V30 60 H 5.4054 0.368858 0.560522 0
M  V30 61 H 7.9494 1.60193 1.27116 0
M  V30 62 H 6.1044 1.1227 3.70775 0
M  V30 63 H 6.5184 3.30626 4.07169 0
M  V30 64 H 7.9924 1.98078 5.15237 0
M  V30 65 H 8.4694 0.477875 4.36592 0
M  V30 66 H 9.0754 2.02787 3.73841 0
M  V30 67 N 7.3905 -1.2043 1.01659 0
M  V30 68 C 8.6365 -1.90079 0.706963 0
M  V30 69 C 8.9695 -1.78648 -0.761474 0
M  V30 70 O 8.2445 -1.17069 -1.55323 0
M  V30 71 C 8.5275 -3.41469 1.14327 0
M  V30 72 C 8.3805 -3.61833 2.67201 0
M  V30 73 C 9.6995 -4.34261 0.714529 0
M  V30 74 H 6.8185 -0.690254 0.2583 0
M  V30 75 H 9.4605 -1.41826 1.26433 0
M  V30 76 H 7.6105 -3.82696 0.669056 0
M  V30 77 H 9.2825 -3.2986 3.22475 0
M  V30 78 H 7.5255 -3.05304 3.08175 0
M  V30 79 H 8.1965 -4.67955 2.92783 0
M  V30 80 H 10.6725 -4.00682 1.12221 0
M  V30 81 H 9.5485 -5.38806 1.04784 0
M  V30 82 H 9.8095 -4.40431 -0.383799 0
M  V30 83 N 8.8686 -0.792821 -1.36206 0
M  V30 84 C 10.1166 -0.366062 -1.98757 0
M  V30 85 C 10.4376 1.0668 -1.63231 0
M  V30 86 O 9.7076 1.73587 -0.907978 0
M  V30 87 H 8.2876 -0.132364 -0.735179 0
M  V30 88 H 10.9496 -1.01562 -1.66347 0
M  V30 89 H 10.0456 -0.460638 -3.08682 0
M  V30 90 N 10.3467 1.47872 -0.545128 0
M  V30 91 C 11.7627 1.5829 -0.204032 0
M  V30 92 C 11.9627 1.54529 1.29317 0
M  V30 93 O 11.0187 1.44232 2.07252 0
M  V30 94 C 12.3317 2.89304 -0.819987 0
M  V30 95 C 13.8797 3.02864 -0.790105 0
M  V30 96 C 14.3547 4.3656 -1.38491 0
M  V30 97 N 15.8457 4.43165 -1.34755 0
M  V30 98 C 16.5807 5.45153 -1.77753 0
M  V30 99 N 16.0767 6.54016 -2.2855 0
M  V30 100 N 17.8697 5.36125 -1.68897 0
M  V30 101 H 10.0207 1.4856 -1.51802 0
M  V30 102 H 12.2837 0.706305 -0.632327 0
M  V30 103 H 11.9897 2.97757 -1.87173 0
M  V30 104 H 11.8637 3.75957 -0.305915 0
M  V30 105 H 14.2507 2.94014 0.252913 0
M  V30 106 H 14.3317 2.17782 -1.34181 0
M  V30 107 H 13.9757 4.46164 -2.42693 0
M  V30 108 H 13.9057 5.20353 -0.808754 0
M  V30 109 H 16.3967 3.65083 -0.975855 0
M  V30 110 H 16.7097 7.27994 -2.59314 0
M  V30 111 H 15.0547 6.54938 -2.32553 0
M  V30 112 H 18.2457 4.49975 -1.28998 0
M  V30 113 H 18.4187 6.15472 -2.02726 0
M  V30 114 N 11.8248 0.280983 1.55075 0
M  V30 115 C 13.0728 -0.333455 1.9933 0
M  V30 116 C 13.3938 -1.55937 1.17085 0
M  V30 117 O 12.6638 -1.94143 0.261805 0
M  V30 118 H 11.2438 -0.126197 0.736263 0
M  V30 119 H 13.9058 0.387678 1.91005 0
M  V30 120 H 13.0018 -0.619292 3.05894 0
M  V30 121 N 13.3029 -1.57598 0.00835791 0
M  V30 122 C 14.5309 -1.95214 -0.68549 0
M  V30 123 C 14.9459 -0.883706 -1.66841 0
M  V30 124 O 14.3029 0.136565 -1.81988 0
M  V30 125 C 14.3539 -3.32865 -1.41007 0
M  V30 126 O 14.0749 -4.35609 -0.466552 0
M  V30 127 C 15.5759 -3.84991 -2.19765 0
M  V30 128 H 12.7959 -0.643422 -0.190392 0
M  V30 129 H 15.3399 -2.04406 0.0619607 0
M  V30 130 H 13.4949 -3.24956 -2.10908 0
M  V30 131 H 13.9089 -5.15288 -0.978699 0
M  V30 132 H 15.3829 -4.8371 -2.65948 0
M  V30 133 H 15.8599 -3.18137 -3.02796 0
M  V30 134 H 16.4659 -3.96103 -1.54864 0
M  V30 135 N 14.781 0.264519 -1.55364 0
M  V30 136 C 15.744 1.31046 -1.88042 0
M  V30 137 C 16.744 1.41943 -0.755569 0
M  V30 138 O 17.934 1.40947 -1.02369 0
M  V30 139 C 15.066 2.69067 -2.09323 0
M  V30 140 H 16.259 1.03297 -2.81549 0
M  V30 141 H 13.812 0.502989 -1.47986 0
M  V30 142 H 14.547 3.01982 -1.18226 0
M  V30 143 H 14.332 2.62542 -2.91229 0
M  V30 144 H 15.822 3.44623 -2.35848 0
M  V30 145 N 16.2591 1.48442 0.529413 0
M  V30 146 C 17.1891 1.65902 1.64313 0
M  V30 147 C 18.1701 0.507897 1.6234 0
M  V30 148 O 19.3551 0.740503 1.79528 0
M  V30 149 C 16.4851 1.69911 3.02898 0
M  V30 150 C 15.4391 2.8453 3.19729 0
M  V30 151 C 14.7651 2.73629 4.59381 0
M  V30 152 C 16.0651 4.25821 3.02447 0
M  V30 153 H 17.7591 2.5914 1.49955 0
M  V30 154 H 15.3051 1.24709 0.719982 0
M  V30 155 H 17.2581 1.80715 3.80684 0
M  V30 156 H 15.9821 0.732524 3.18279 0
M  V30 157 H 14.6411 2.73283 2.44361 0
M  V30 158 H 14.2891 1.74938 4.71599 0
M  V30 159 H 13.9891 3.50541 4.71588 0
M  V30 160 H 15.5131 2.86401 5.39265 0
M  V30 161 H 16.9271 4.37898 3.70024 0
M  V30 162 H 15.3241 5.03735 3.26146 0
M  V30 163 H 16.3941 4.42244 1.98867 0
M  V30 164 N 17.7372 -0.778329 1.37039 0
M  V30 165 C 18.9852 -1.53361 1.31623 0
M  V30 166 C 19.3062 -1.94739 -0.100831 0
M  V30 167 O 18.5762 -1.65797 -1.04347 0
M  V30 168 H 17.1562 -0.568794 0.484234 0
M  V30 169 H 19.8182 -0.926742 1.71457 0
M  V30 170 H 18.9142 -2.43606 1.95096 0
M  V30 171 N 19.2153 -1.21501 -1.00376 0
M  V30 172 C 20.1783 -0.976927 -2.07337 0
M  V30 173 C 21.1783 0.0525322 -1.60714 0
M  V30 174 O 22.3683 -0.184869 -1.73216 0
M  V30 175 C 19.5003 -0.473423 -3.37597 0
M  V30 176 H 20.6933 -1.92587 -2.29892 0
M  V30 177 H 18.2463 -1.03217 -1.17371 0
M  V30 178 H 18.9813 0.480379 -3.20722 0
M  V30 179 H 18.7663 -1.216 -3.72768 0
M  V30 180 H 20.2563 -0.32675 -4.1632 0
M  V30 181 N 20.6934 1.19889 -1.02296 0
M  V30 182 C 21.9394 1.89701 -0.717033 0
M  V30 183 C 22.2724 1.7905 0.751989 0
M  V30 184 O 21.5474 1.17891 1.547 0
M  V30 185 C 21.8304 3.40858 -1.16136 0
M  V30 186 C 21.6834 3.60411 -2.69117 0
M  V30 187 C 23.0024 4.33876 -0.737549 0
M  V30 188 H 20.1214 0.688874 -0.261957 0
M  V30 189 H 22.7634 1.41154 -1.27183 0
M  V30 190 H 20.9134 3.82335 -0.689342 0
M  V30 191 H 22.5854 3.28145 -3.2422 0
M  V30 192 H 20.8284 3.03665 -3.0979 0
M  V30 193 H 21.4994 4.66396 -2.95261 0
M  V30 194 H 23.9754 4.00081 -1.14344 0
M  V30 195 H 22.8514 5.38242 -1.0764 0
M  V30 196 H 23.1124 4.40628 0.360436 0
M  V30 197 N 22.1715 0.800033 1.35784 0
M  V30 198 C 23.1015 0.220184 2.3246 0
M  V30 199 C 24.0825 -0.65073 1.57161 0
M  V30 200 O 25.2675 -0.582359 1.85263 0
M  V30 201 C 22.3975 -0.637353 3.41402 0
M  V30 202 C 21.3515 0.134531 4.27789 0
M  V30 203 C 20.6775 -0.844285 5.27992 0
M  V30 204 C 21.9775 1.32979 5.05088 0
M  V30 205 H 23.6715 1.02787 2.81203 0
M  V30 206 H 21.2175 0.495717 1.35199 0
M  V30 207 H 23.1705 -1.05302 4.08031 0
M  V30 208 H 21.8945 -1.47785 2.91251 0
M  V30 209 H 20.5535 0.531296 3.6273 0
M  V30 210 H 20.2015 -1.68011 4.74111 0
M  V30 211 H 19.9015 -0.332184 5.8666 0
M  V30 212 H 21.4255 -1.2583 5.97494 0
M  V30 213 H 22.8395 0.98934 5.64699 0
M  V30 214 H 21.2365 1.77593 5.7322 0
M  V30 215 H 22.3065 2.11978 4.36111 0
M  V30 216 N 23.6496 -1.47581 0.552962 0
M  V30 217 C 24.5796 -2.32762 -0.185451 0
M  V30 218 C 25.5606 -1.43527 -0.912905 0
M  V30 219 O 26.7456 -1.72388 -0.894201 0
M  V30 220 C 23.8756 -3.25219 -1.21859 0
M  V30 221 C 22.8296 -4.23661 -0.607864 0
M  V30 222 C 22.1556 -5.05413 -1.74533 0
M  V30 223 C 23.4556 -5.20481 0.435582 0
M  V30 224 H 25.1496 -2.94749 0.525684 0
M  V30 225 H 22.6956 -1.41738 0.254251 0
M  V30 226 H 24.6486 -3.8365 -1.7433 0
M  V30 227 H 23.3726 -2.61279 -1.95961 0
M  V30 228 H 22.0316 -3.66451 -0.104489 0
M  V30 229 H 21.6796 -4.3788 -2.47529 0
M  V30 230 H 21.3796 -5.72059 -1.34249 0
M  V30 231 H 22.9036 -5.66701 -2.27338 0
M  V30 232 H 24.3176 -5.733 -0.00290157 0
M  V30 233 H 22.7146 -5.95305 0.757067 0
M  V30 234 H 23.7846 -4.66217 1.33303 0
M  V30 235 N 25.1277 -0.289203 -1.54924 0
M  V30 236 C 26.0907 0.579144 -2.21762 0
M  V30 237 C 27.0907 1.07047 -1.1999 0
M  V30 238 O 28.2807 0.968384 -1.44803 0
M  V30 239 C 25.4127 1.80055 -2.8947 0
M  V30 240 H 26.6057 -0.00464908 -2.999 0
M  V30 241 H 24.1587 -0.0399306 -1.56249 0
M  V30 242 H 24.8937 2.42449 -2.15381 0
M  V30 243 H 24.6787 1.45602 -3.64064 0
M  V30 244 H 26.1687 2.41773 -3.40493 0
M  V30 245 N 26.6058 1.57591 -0.0167156 0
M  V30 246 C 27.5358 2.12496 0.967858 0
M  V30 247 C 28.5168 1.03807 1.34752 0
M  V30 248 O 29.7018 1.31577 1.42833 0
M  V30 249 C 26.8318 2.64194 2.25431 0
M  V30 250 C 25.7858 3.77559 2.01576 0
M  V30 251 C 25.1118 4.15636 3.36379 0
M  V30 252 C 26.4118 5.04151 1.36489 0
M  V30 253 H 28.1058 2.95013 0.510643 0
M  V30 254 H 25.6518 1.41915 0.244181 0
M  V30 255 H 27.6048 3.01236 2.94678 0
M  V30 256 H 26.3288 1.78821 2.73296 0
M  V30 257 H 24.9878 3.40937 1.34751 0
M  V30 258 H 24.6358 3.27263 3.81979 0
M  V30 259 H 24.3358 4.92022 3.21229 0
M  V30 260 H 25.8598 4.5525 4.06915 0
M  V30 261 H 27.2738 5.38857 1.95718 0
M  V30 262 H 25.6708 5.85453 1.31776 0
M  V30 263 H 26.7408 4.83733 0.336219 0
M  V30 264 N 28.0839 -0.256276 1.55502 0
M  V30 265 C 29.0139 -1.32102 1.92539 0
M  V30 266 C 29.9949 -1.50684 0.789194 0
M  V30 267 O 31.1799 -1.63449 1.04872 0
M  V30 268 C 28.3099 -2.67752 2.21192 0
M  V30 269 C 27.2639 -2.63878 3.36975 0
M  V30 270 C 26.5899 -4.03236 3.51147 0
M  V30 271 C 27.8899 -2.21682 4.72921 0
M  V30 272 H 29.5839 -1.01351 2.81724 0
M  V30 273 H 27.1299 -0.486105 1.35547 0
M  V30 274 H 29.0829 -3.42365 2.45691 0
M  V30 275 H 27.8069 -3.0012 1.28824 0
M  V30 276 H 26.4659 -1.91722 3.12471 0
M  V30 277 H 26.1139 -4.32854 2.56216 0
M  V30 278 H 25.8139 -4.01535 4.29003 0
M  V30 279 H 27.3379 -4.79563 3.77957 0
M  V30 280 H 28.7519 -2.86023 4.96854 0
M  V30 281 H 27.1489 -2.3111 5.53812 0
M  V30 282 H 28.2189 -1.16833 4.70615 0
M  V30 283 N 29.562 -1.4872 -0.521534 0
M  V30 284 C 30.525 -1.63379 -1.60748 0
M  V30 285 C 31.525 -0.50661 -1.52611 0
M  V30 286 O 32.715 -0.772601 -1.5613 0
M  V30 287 C 29.847 -1.61192 -3.00383 0
M  V30 288 H 31.04 -2.60217 -1.49087 0
M  V30 289 H 28.593 -1.37444 -0.744235 0
M  V30 290 H 29.328 -0.65863 -3.17541 0
M  V30 291 H 29.113 -2.43032 -3.07698 0
M  V30 292 H 30.603 -1.7466 -3.7932 0
M  V30 293 N 31.0401 0.771051 -1.3745 0
M  V30 294 C 32.2861 1.5319 -1.32894 0
M  V30 295 C 32.6191 1.94008 0.0862511 0
M  V30 296 O 31.8941 1.64124 1.04373 0
M  V30 297 C 32.1771 2.79648 -2.26868 0
M  V30 298 C 32.0301 2.45079 -3.77169 0
M  V30 299 C 33.3491 3.81583 -2.19277 0
M  V30 300 H 30.4681 0.555744 -0.484064 0
M  V30 301 H 33.1101 0.884492 -1.68157 0
M  V30 302 H 31.2601 3.34891 -1.96926 0
M  V30 303 H 32.9321 1.95745 -4.1771 0
M  V30 304 H 31.1751 1.77767 -3.95704 0
M  V30 305 H 31.8461 3.35478 -4.38359 0
M  V30 306 H 34.3221 3.35835 -2.45671 0
M  V30 307 H 33.1981 4.67787 -2.87171 0
M  V30 308 H 33.4591 4.25897 -1.18592 0
M  V30 309 N 32.5182 1.22032 0.997298 0
M  V30 310 C 33.9292 1.0397 1.55071 0
M  V30 311 C 34.2802 -0.398192 1.92117 0
M  V30 312 O 33.4052 -1.28254 1.74298 0
M  V30 313 C 34.0002 1.88109 2.81781 0
M  V30 314 C 32.5592 1.74357 3.33581 0
M  V30 315 C 31.7062 1.84846 2.06706 0
M  V30 316 H 34.6572 1.35941 0.818883 0
M  V30 317 H 34.6782 1.39589 3.53971 0
M  V30 318 H 34.1902 2.92754 2.54787 0
M  V30 319 H 32.2912 0.72427 3.65493 0
M  V30 320 H 32.4042 2.56772 4.04481 0
M  V30 321 H 30.7682 1.28238 2.20062 0
M  V30 322 H 31.5512 2.91014 1.82114 0
M  V30 323 N 33.9963 -1.19345 1.0293 0
M  V30 324 C 34.9593 -2.20793 0.615069 0
M  V30 325 C 35.9593 -1.57553 -0.321533 0
M  V30 326 O 37.1493 -1.73862 -0.108483 0
M  V30 327 C 34.2813 -3.40754 -0.0999222 0
M  V30 328 H 35.4743 -2.58955 1.51269 0
M  V30 329 H 33.0273 -1.3303 0.820534 0
M  V30 330 H 33.7623 -3.0811 -1.01187 0
M  V30 331 H 33.5473 -3.87889 0.57309 0
M  V30 332 H 35.0373 -4.15898 -0.376645 0
M  V30 333 N 35.4744 -0.807222 -1.35358 0
M  V30 334 C 36.4064 -0.175717 -2.28525 0
M  V30 335 C 37.4194 0.625354 -1.5031 0
M  V30 336 O 38.6084 0.457611 -1.72535 0
M  V30 337 C 35.7084 0.773471 -3.29956 0
M  V30 338 C 34.8814 0.0186296 -4.37396 0
M  V30 339 C 33.9404 0.886395 -5.18681 0
M  V30 340 O 32.9664 0.337106 -5.68201 0
M  V30 341 N 34.1684 2.20839 -5.36852 0
M  V30 342 H 36.9334 -0.976091 -2.83359 0
M  V30 343 H 34.4944 -0.662737 -1.47714 0
M  V30 344 H 36.4864 1.35824 -3.81227 0
M  V30 345 H 35.0564 1.47465 -2.75632 0
M  V30 346 H 34.2764 -0.747349 -3.87051 0
M  V30 347 H 35.5644 -0.501577 -5.06322 0
M  V30 348 H 34.9624 2.67858 -4.98265 0
M  V30 349 H 33.5194 2.74237 -5.91301 0
M  V30 350 N 36.9525 1.47285 -0.560781 0
M  V30 351 C 37.9155 2.28535 0.174488 0
M  V30 352 C 38.9155 1.37153 0.839388 0
M  V30 353 O 40.1055 1.59748 0.694702 0
M  V30 354 C 37.2375 3.16934 1.25561 0
M  V30 355 H 38.4305 2.95012 -0.539262 0
M  V30 356 H 35.9835 1.53034 -0.317865 0
M  V30 357 H 36.7185 2.55157 2.00164 0
M  V30 358 H 36.5035 3.8419 0.783604 0
M  V30 359 H 37.9935 3.78143 1.77193 0
M  V30 360 N 38.4306 0.297415 1.54768 0
M  V30 361 C 39.6786 -0.312295 1.99673 0
M  V30 362 C 39.9996 -1.54686 1.18732 0
M  V30 363 O 39.2696 -1.93854 0.282382 0
M  V30 364 H 37.8496 -0.118381 0.73756 0
M  V30 365 H 40.5116 0.407915 1.90583 0
M  V30 366 H 39.6076 -0.586813 3.06534 0
M  V30 367 N 39.9087 -1.5758 0.0250728 0
M  V30 368 C 41.1367 -1.9593 -0.664747 0
M  V30 369 C 41.5517 -0.901352 -1.65895 0
M  V30 370 O 40.9087 0.117255 -1.82123 0
M  V30 371 C 40.9597 -3.34342 -1.37468 0
M  V30 372 O 40.6807 -4.36079 -0.420324 0
M  V30 373 C 42.1817 -3.873 -2.1567 0
M  V30 374 H 39.4017 -0.645405 -0.183557 0
M  V30 375 H 41.9457 -2.04329 0.0836372 0
M  V30 376 H 40.1007 -3.27175 -2.0745 0
M  V30 377 H 40.5147 -5.16297 -0.923991 0
M  V30 378 H 41.9887 -4.86504 -2.60803 0
M  V30 379 H 42.4657 -3.21331 -2.99405 0
M  V30 380 H 43.0717 -3.97723 -1.50654 0
M  V30 381 N 41.3868 0.248026 -1.55636 0
M  V30 382 C 42.3498 1.29044 -1.89421 0
M  V30 383 C 43.3498 1.41134 -0.770581 0
M  V30 384 O 44.5398 1.39854 -1.03858 0
M  V30 385 C 41.6718 2.66831 -2.12165 0
M  V30 386 H 42.8648 1.00305 -2.82629 0
M  V30 387 H 40.4178 0.487265 -1.48511 0
M  V30 388 H 41.1528 3.00711 -1.21422 0
M  V30 389 H 40.9378 2.59438 -2.93997 0
M  V30 390 H 42.4278 3.42103 -2.3949 0
M  V30 391 N 42.8649 1.48995 0.513639 0
M  V30 392 C 43.8279 1.64229 1.59879 0
M  V30 393 C 44.8279 0.514696 1.5234 0
M  V30 394 O 46.0179 0.78087 1.55718 0
M  V30 395 C 43.1499 1.62783 2.99524 0
M  V30 396 H 44.3429 2.61004 1.47705 0
M  V30 397 H 41.8959 1.37837 0.736936 0
M  V30 398 H 42.6309 0.675461 3.17188 0
M  V30 399 H 42.4159 2.4466 3.06404 0
M  V30 400 H 43.9059 1.76669 3.78388 0
M  V30 401 N 44.343 -0.763751 1.37857 0
M  V30 402 C 45.306 -1.85889 1.34081 0
M  V30 403 C 46.306 -1.58949 0.243277 0
M  V30 404 O 47.496 -1.66882 0.499589 0
M  V30 405 C 44.628 -3.23176 1.08489 0
M  V30 406 H 45.821 -1.90648 2.31502 0
M  V30 407 H 43.374 -0.964367 1.23003 0
M  V30 408 H 44.109 -3.24091 0.116318 0
M  V30 409 H 43.894 -3.44124 1.8794 0
M  V30 410 H 45.384 -4.03254 1.08517 0
M  V30 411 N 45.8211 -1.22559 -0.990812 0
M  V30 412 C 46.7841 -0.998863 -2.0629 0
M  V30 413 C 47.7841 0.0354834 -1.60761 0
M  V30 414 O 48.9741 -0.203231 -1.7301 0
M  V30 415 C 46.1061 -0.509203 -3.37076 0
M  V30 416 H 47.2991 -1.95014 -2.27837 0
M  V30 417 H 44.8521 -1.04456 -1.16269 0
M  V30 418 H 45.5871 0.446335 -3.21214 0
M  V30 419 H 45.3721 -1.25547 -3.71457 0
M  V30 420 H 46.8621 -0.370888 -4.1595 0
M  V30 421 N 47.2992 1.18797 -1.03562 0
M  V30 422 C 48.5762 1.84469 -0.650434 0
M  V30 423 C 48.9562 1.92319 0.870433 0
M  V30 424 O 48.3042 1.44528 1.76986 0
M  V30 425 C 48.5142 3.2306 -1.32036 0
M  V30 426 C 49.8622 3.9915 -1.44792 0
M  V30 427 O 50.8862 3.32481 -1.27806 0
M  V30 428 O 49.7452 5.18587 -1.72423 0
M  V30 429 H 46.8392 0.795251 -0.226946 0
M  V30 430 H 49.3852 1.26231 -1.13419 0
M  V30 431 H 48.1572 3.1222 -2.3587 0
M  V30 432 H 47.7802 3.88949 -0.8249 0
M  V30 433 N 48.7773 0.814389 1.34928 0
M  V30 434 C 49.7073 0.244827 2.32213 0
M  V30 435 C 50.6883 -0.634024 1.57842 0
M  V30 436 O 51.8733 -0.562676 1.8587 0
M  V30 437 C 49.0033 -0.601106 3.42058 0
M  V30 438 C 47.9573 0.179896 4.27622 0
M  V30 439 C 47.2833 -0.788237 5.28858 0
M  V30 440 C 48.5833 1.38329 5.03649 0
M  V30 441 H 50.2773 1.05763 2.80097 0
M  V30 442 H 47.8233 0.510029 1.34665 0
M  V30 443 H 49.7763 -1.00968 4.09125 0
M  V30 444 H 48.5003 -1.44688 2.92802 0
M  V30 445 H 47.1593 0.569739 3.62146 0
M  V30 446 H 46.8073 -1.62973 4.75866 0
M  V30 447 H 46.5073 -0.269942 5.8698 0
M  V30 448 H 48.0313 -1.19485 5.98795 0
M  V30 449 H 49.4453 1.04918 5.63618 0
M  V30 450 H 47.8423 1.83662 5.71304 0
M  V30 451 H 48.9123 2.16592 4.33839 0
M  V30 452 N 50.2554 -1.46986 0.568584 0
M  V30 453 C 51.6664 -1.86188 0.138219 0
M  V30 454 C 52.0174 -1.47388 -1.29504 0
M  V30 455 O 51.1424 -0.88219 -1.97602 0
M  V30 456 C 51.7374 -3.3792 0.244065 0
M  V30 457 C 50.2964 -3.76171 -0.131335 0
M  V30 458 C 49.4434 -2.71027 0.586465 0
M  V30 459 H 52.3944 -1.38342 0.777645 0
M  V30 460 H 52.4154 -3.76729 -0.534351 0
M  V30 461 H 51.9274 -3.66128 1.28731 0
M  V30 462 H 50.0284 -3.5358 -1.17526 0
M  V30 463 H 50.1414 -4.78523 0.235146 0
M  V30 464 H 48.5054 -2.54684 0.0282722 0
M  V30 465 H 49.2884 -3.02077 1.63109 0
M  V30 466 N 51.7335 -0.305618 -1.54608 0
M  V30 467 C 52.6965 0.555591 -2.22364 0
M  V30 468 C 53.6965 1.05768 -1.21119 0
M  V30 469 O 54.8865 0.952972 -1.45822 0
M  V30 470 C 52.0185 1.76974 -2.91364 0
M  V30 471 H 53.2115 -0.0364572 -2.99878 0
M  V30 472 H 50.7645 -0.0565007 -1.56198 0
M  V30 473 H 51.4995 2.40151 -2.17941 0
M  V30 474 H 51.2845 1.41732 -3.65588 0
M  V30 475 H 52.7745 2.38148 -3.43038 0
M  V30 476 N 53.2116 1.57565 -0.0334293 0
M  V30 477 C 54.6226 1.79746 0.504798 0
M  V30 478 C 54.9736 0.944091 1.71992 0
M  V30 479 O 54.0986 0.155694 2.15839 0
M  V30 480 C 54.6936 3.25997 0.922567 0
M  V30 481 C 53.2526 3.49159 1.40588 0
M  V30 482 C 52.3996 2.74785 0.372633 0
M  V30 483 H 55.3506 1.56565 -0.259436 0
M  V30 484 H 55.3716 3.35945 1.78666 0
M  V30 485 H 54.8836 3.88081 0.0379825 0
M  V30 486 H 52.9846 2.92332 2.31025 0
M  V30 487 H 53.0976 4.57873 1.41028 0
M  V30 488 H 51.4616 2.40391 0.841672 0
M  V30 489 H 52.2446 3.39587 -0.503559 0
M  V30 490 N 54.6897 -0.239769 1.55765 0
M  V30 491 C 55.9667 -0.990056 1.68693 0
M  V30 492 C 56.3467 -2.03107 0.5754 0
M  V30 493 O 55.6947 -2.24604 -0.42017 0
M  V30 494 C 55.9047 -1.61696 3.09282 0
M  V30 495 C 57.2527 -2.11613 3.6811 0
M  V30 496 O 58.2767 -1.71624 3.12127 0
M  V30 497 O 57.1357 -2.85057 4.66267 0
M  V30 498 H 54.2297 -0.461299 0.686391 0
M  V30 499 H 56.7757 -0.232991 1.68093 0
M  V30 500 H 55.5477 -0.864357 3.81634 0
M  V30 501 H 55.1707 -2.44005 3.13923 0
M  V30 502 N 56.1678 -1.49265 -0.50573 0
M  V30 503 C 57.4448 -1.49012 -1.26707 0
M  V30 504 C 57.8248 -0.215205 -2.1 0
M  V30 505 O 57.1728 0.802547 -2.13943 0
M  V30 506 C 57.3828 -2.7663 -2.12783 0
M  V30 507 C 58.7308 -3.25932 -2.72127 0
M  V30 508 O 59.7548 -2.77715 -2.23054 0
M  V30 509 O 58.6138 -4.09897 -3.61451 0
M  V30 510 H 55.7078 -0.596197 -0.57313 0
M  V30 511 H 58.2538 -1.61524 -0.52039 0
M  V30 512 H 57.0258 -3.60916 -1.5118 0
M  V30 513 H 56.6488 -2.66956 -2.94653 0
M  V30 514 N 57.6459 0.756429 -1.3826 0
M  V30 515 C 58.8739 1.54565 -1.3754 0
M  V30 516 C 59.2889 1.88767 0.0355331 0
M  V30 517 O 58.6459 1.52572 1.0014 0
M  V30 518 C 58.6969 2.84654 -2.22833 0
M  V30 519 O 58.4179 2.51912 -3.5843 0
M  V30 520 C 59.9189 3.78807 -2.30261 0
M  V30 521 H 57.1389 0.478353 -0.470553 0
M  V30 522 H 59.6829 0.936381 -1.81803 0
M  V30 523 H 57.8379 3.41965 -1.8204 0
M  V30 524 H 58.2519 3.35325 -4.03308 0
M  V30 525 H 59.7259 4.67045 -2.94233 0
M  V30 526 H 60.2029 4.19038 -1.31545 0
M  V30 527 H 60.8089 3.2742 -2.71433 0
M  V30 528 N 59.124 1.23083 0.984299 0
M  V30 529 C 60.372 1.05848 1.72165 0
M  V30 530 C 60.693 -0.406049 1.90726 0
M  V30 531 O 59.963 -1.29139 1.47309 0
M  V30 532 H 58.543 0.388685 0.637913 0
M  V30 533 H 61.205 1.54736 1.18503 0
M  V30 534 H 60.301 1.54327 2.71274 0
M  V30 535 N 60.6021 -1.18246 1.0419 0
M  V30 536 C 61.5321 -2.24127 0.654914 0
M  V30 537 C 62.5131 -1.66617 -0.342451 0
M  V30 538 O 63.6981 -1.92924 -0.222277 0
M  V30 539 C 60.8281 -3.47295 0.0183757 0
M  V30 540 C 59.7821 -4.17563 0.939414 0
M  V30 541 C 59.1081 -5.34438 0.167286 0
M  V30 542 C 60.4081 -4.70917 2.25908 0
M  V30 543 H 62.1021 -2.56753 1.54007 0
M  V30 544 H 59.6481 -1.23414 0.74195 0
M  V30 545 H 61.6011 -4.20572 -0.264082 0
M  V30 546 H 60.3251 -3.13907 -0.901664 0
M  V30 547 H 58.9841 -3.46186 1.20628 0
M  V30 548 H 58.6321 -4.97298 -0.7552 0
M  V30 549 H 58.3321 -5.82388 0.780901 0
M  V30 550 H 59.8561 -6.10504 -0.108125 0
M  V30 551 H 61.2701 -5.35882 2.03724 0
M  V30 552 H 59.6671 -5.29406 2.82577 0
M  V30 553 H 60.7371 -3.88272 2.9047 0
M  V30 554 N 62.0802 -0.821533 -1.34494 0
M  V30 555 C 63.0122 -0.199946 -2.28326 0
M  V30 556 C 64.0252 0.609377 -1.50965 0
M  V30 557 O 65.2142 0.439285 -1.7301 0
M  V30 558 C 62.3142 0.738431 -3.30757 0
M  V30 559 C 61.4872 -0.0277632 -4.37391 0
M  V30 560 C 60.5462 0.831332 -5.19591 0
M  V30 561 O 59.5722 0.276822 -5.68526 0
M  V30 562 N 60.7742 2.15132 -5.39165 0
M  V30 563 H 63.5392 -1.00609 -2.82308 0
M  V30 564 H 61.1002 -0.678366 -1.47003 0
M  V30 565 H 63.0922 1.31773 -3.82646 0
M  V30 566 H 61.6622 1.44533 -2.7718 0
M  V30 567 H 60.8822 -0.788359 -3.86236 0
M  V30 568 H 62.1702 -0.555251 -5.05761 0
M  V30 569 H 61.5682 2.62559 -5.01078 0
M  V30 570 H 60.1252 2.6795 -5.94177 0
M  V30 571 N 63.5583 1.46682 -0.576371 0
M  V30 572 C 64.5213 2.28707 0.150239 0
M  V30 573 C 65.5213 1.38035 0.824794 0
M  V30 574 O 66.7113 1.60476 0.677719 0
M  V30 575 C 63.8433 3.18248 1.22192 0
M  V30 576 H 65.0363 2.94423 -0.570521 0
M  V30 577 H 62.5893 1.52688 -0.334078 0
M  V30 578 H 63.3243 2.57265 1.97447 0
M  V30 579 H 63.1093 3.85 0.742812 0
M  V30 580 H 64.5993 3.80001 1.73172 0
M  V30 581 N 65.0364 0.313813 1.54444 0
M  V30 582 C 66.2824 -0.292108 2.00685 0
M  V30 583 C 66.6154 -1.52548 1.20177 0
M  V30 584 O 65.8904 -1.92452 0.281531 0
M  V30 585 C 66.1734 -0.635968 3.5444 0
M  V30 586 C 66.0264 0.607437 4.4568 0
M  V30 587 C 67.3454 -1.45747 4.15266 0
M  V30 588 H 64.4644 -0.104697 0.729526 0
M  V30 589 H 67.1064 0.428457 1.85106 0
M  V30 590 H 65.2564 -1.24986 3.67846 0
M  V30 591 H 66.9284 1.24581 4.44159 0
M  V30 592 H 65.1714 1.23822 4.15753 0
M  V30 593 H 65.8424 0.322515 5.51057 0
M  V30 594 H 68.3184 -0.938645 4.05375 0
M  V30 595 H 67.1944 -1.66683 5.2298 0
M  V30 596 H 67.4554 -2.45063 3.67963 0
M  V30 597 N 66.5145 -1.57545 0.0417849 0
M  V30 598 C 67.4445 -2.14009 -0.933929 0
M  V30 599 C 68.4255 -1.05938 -1.33083 0
M  V30 600 O 69.6105 -1.33833 -1.40721 0
M  V30 601 C 66.7405 -2.67747 -2.21199 0
M  V30 602 C 65.6945 -3.80718 -1.95544 0
M  V30 603 C 65.0205 -4.20935 -3.29724 0
M  V30 604 C 66.3205 -5.06258 -1.28452 0
M  V30 605 H 68.0145 -2.95788 -0.463645 0
M  V30 606 H 65.5605 -1.42285 -0.221573 0
M  V30 607 H 67.5135 -3.05886 -2.89848 0
M  V30 608 H 66.2375 -1.83147 -2.70416 0
M  V30 609 H 64.8965 -3.43037 -1.2931 0
M  V30 610 H 64.5445 -3.33298 -3.76724 0
M  V30 611 H 64.2445 -4.9707 -3.13361 0
M  V30 612 H 65.7685 -4.61666 -3.9962 0
M  V30 613 H 67.1825 -5.41903 -1.8712 0
M  V30 614 H 65.5795 -5.87475 -1.22445 0
M  V30 615 H 66.6495 -4.84207 -0.259219 0
M  V30 616 N 67.9926 0.231505 -1.5589 0
M  V30 617 C 68.9426 1.29007 -1.87993 0
M  V30 618 C 69.9266 1.42764 -0.742102 0
M  V30 619 O 71.1186 1.45747 -1.00433 0
M  V30 620 C 68.2476 2.6425 -2.1915 0
M  V30 621 C 67.3336 2.54435 -3.39299 0
M  V30 622 N 67.7246 2.14262 -4.58176 0
M  V30 623 C 66.0226 2.85416 -3.42715 0
M  V30 624 C 66.7236 2.15455 -5.40328 0
M  V30 625 N 65.6996 2.55558 -4.79783 0
M  V30 626 H 69.5016 0.970213 -2.77424 0
M  V30 627 H 67.0156 0.440097 -1.56323 0
M  V30 628 H 69.0126 3.40665 -2.40319 0
M  V30 629 H 67.6726 2.9709 -1.31025 0
M  V30 630 H 68.6836 1.85554 -4.83518 0
M  V30 631 H 65.3606 3.22693 -2.64906 0
M  V30 632 H 66.7506 1.86605 -6.45467 0
M  V30 633 N 69.4707 1.49531 0.497807 0
M  V30 634 C 70.6987 1.62893 1.27567 0
M  V30 635 C 71.1137 0.301585 1.86376 0
M  V30 636 O 70.4707 -0.713335 1.67982 0
M  V30 637 C 70.5217 2.70013 2.40364 0
M  V30 638 O 70.2427 3.976 1.83972 0
M  V30 639 C 71.7437 2.94109 3.31685 0
M  V30 640 H 68.9637 0.548298 0.386794 0
M  V30 641 H 71.5077 1.95584 0.597245 0
M  V30 642 H 69.6627 2.40092 3.04031 0
M  V30 643 H 70.0767 4.56631 2.58047 0
M  V30 644 H 71.5507 3.72788 4.07104 0
M  V30 645 H 72.0277 2.04147 3.88871 0
M  V30 646 H 72.6337 3.2546 2.73781 0
M  V30 647 N 70.9488 -0.749086 1.3866 0
M  V30 648 C 71.9118 -1.84457 1.36045 0
M  V30 649 C 72.9118 -1.58682 0.260122 0
M  V30 650 O 74.1018 -1.66343 0.517261 0
M  V30 651 C 71.2338 -3.22008 1.11911 0
M  V30 652 H 72.4268 -1.88182 2.33512 0
M  V30 653 H 69.9798 -0.951266 1.24019 0
M  V30 654 H 70.7148 -3.2395 0.150686 0
M  V30 655 H 70.4998 -3.42111 1.91579 0
M  V30 656 H 71.9898 -4.0208 1.12788 0
M  V30 657 N 72.4269 -1.23603 -0.977757 0
M  V30 658 C 73.3569 -1.04401 -2.0886 0
M  V30 659 C 74.3379 0.0399052 -1.70053 0
M  V30 660 O 75.5229 -0.125246 -1.93796 0
M  V30 661 C 72.6529 -0.637269 -3.41403 0
M  V30 662 C 71.6069 -1.66883 -3.94124 0
M  V30 663 C 70.9329 -1.11745 -5.22893 0
M  V30 664 C 72.2329 -3.06247 -4.23096 0
M  V30 665 H 73.9269 -1.97316 -2.25182 0
M  V30 666 H 71.4729 -0.950096 -1.08209 0
M  V30 667 H 73.4259 -0.48998 -4.18542 0
M  V30 668 H 72.1499 0.327557 -3.24953 0
M  V30 669 H 70.8089 -1.80416 -3.19133 0
M  V30 670 H 70.4569 -0.143527 -5.02795 0
M  V30 671 H 70.1569 -1.80672 -5.59134 0
M  V30 672 H 71.6809 -0.982067 -6.02651 0
M  V30 673 H 73.0949 -2.96001 -4.90975 0
M  V30 674 H 71.4919 -3.72436 -4.70544 0
M  V30 675 H 72.5619 -3.55041 -3.30263 0
M  V30 676 N 73.905 1.17692 -1.04816 0
M  V30 677 C 75.13 1.92327 -0.776207 0
M  V30 678 C 75.555 1.76082 0.661581 0
M  V30 679 O 74.913 1.076 1.45917 0
M  V30 680 C 74.961 3.41539 -1.15687 0
M  V30 681 O 74.065 4.11402 -0.286775 0
M  V30 682 H 73.406 0.599735 -0.284981 0
M  V30 683 H 75.936 1.49201 -1.4 0
M  V30 684 H 75.946 3.92269 -1.12202 0
M  V30 685 H 74.621 3.52684 -2.20425 0
M  V30 686 H 73.198 3.70939 -0.381903 0
M  V30 687 N 75.3831 0.828654 1.34056 0
M  V30 688 C 76.3151 0.212052 2.28217 0
M  V30 689 C 77.3281 -0.601362 1.51286 0
M  V30 690 O 78.5171 -0.430104 1.73241 0
M  V30 691 C 75.6171 -0.72088 3.31144 0
M  V30 692 C 74.7901 0.0509587 4.3737 0
M  V30 693 C 73.8491 -0.803766 5.20025 0
M  V30 694 O 72.8751 -0.246667 5.68665 0
M  V30 695 N 74.0771 -2.1227 5.40298 0
M  V30 696 H 76.8421 1.02105 2.81771 0
M  V30 697 H 74.4031 0.686153 1.46641 0
M  V30 698 H 76.3951 -1.29742 3.8334 0
M  V30 699 H 74.9651 -1.43061 2.77943 0
M  V30 700 H 74.1851 0.808831 3.85813 0
M  V30 701 H 75.4731 0.582065 5.0546 0
M  V30 702 H 74.8711 -2.59898 5.02464 0
M  V30 703 H 73.4281 -2.64796 5.95589 0
M  V30 704 N 76.8612 -1.46375 0.584142 0
M  V30 705 C 78.1092 -2.01978 0.0701287 0
M  V30 706 C 78.4302 -1.4579 -1.295 0
M  V30 707 O 77.7002 -0.64314 -1.85042 0
M  V30 708 H 76.2802 -0.746648 0.0229345 0
M  V30 709 H 78.9422 -1.79461 0.760245 0
M  V30 710 H 78.0382 -3.121 0.0022064 0
M  V30 711 N 78.3393 -0.321999 -1.54275 0
M  V30 712 C 79.3023 0.531975 -2.22941 0
M  V30 713 C 80.3023 1.04478 -1.22234 0
M  V30 714 O 81.4923 0.937452 -1.46825 0
M  V30 715 C 78.6243 1.73874 -2.93224 0
M  V30 716 H 79.8173 -0.0682612 -2.99822 0
M  V30 717 H 77.3703 -0.0730644 -1.56129 0
M  V30 718 H 78.1053 2.37825 -2.20476 0
M  V30 719 H 77.8903 1.37847 -3.6707 0
M  V30 720 H 79.3803 2.34496 -3.45545 0
M  V30 721 N 79.8174 1.5752 -0.0501392 0
M  V30 722 C 81.2284 1.80271 0.485705 0
M  V30 723 C 81.5794 0.96228 1.70981 0
M  V30 724 O 80.7044 0.178578 2.15662 0
M  V30 725 C 81.2994 3.26957 0.887938 0
M  V30 726 C 79.8584 3.5063 1.36877 0
M  V30 727 C 79.0054 2.75165 0.343468 0
M  V30 728 H 81.9564 1.56281 -0.276028 0
M  V30 729 H 81.9774 3.37821 1.75093 0
M  V30 730 H 81.4894 3.881 -0.0031809 0
M  V30 731 H 79.5904 2.94766 2.27911 0
M  V30 732 H 79.7034 4.59343 1.36164 0
M  V30 733 H 78.0674 2.4127 0.816128 0
M  V30 734 H 78.8504 3.39034 -0.539548 0
M  V30 735 N 81.2955 -0.223234 1.56011 0
M  V30 736 C 82.5435 -0.946003 1.78592 0
M  V30 737 C 82.8645 -1.84936 0.618349 0
M  V30 738 O 82.1345 -1.92473 -0.364833 0
M  V30 739 H 80.7145 -0.352298 0.658707 0
M  V30 740 H 83.3765 -0.235494 1.93472 0
M  V30 741 H 82.4725 -1.55381 2.70672 0
M  V30 742 N 82.7736 -1.49793 -0.48987 0
M  V30 743 C 83.7366 -1.66752 -1.57246 0
M  V30 744 C 84.7366 -0.538867 -1.51502 0
M  V30 745 O 85.9266 -0.805545 -1.54456 0
M  V30 746 C 83.0586 -1.67528 -2.96896 0
M  V30 747 H 84.2516 -2.63321 -1.43534 0
M  V30 748 H 81.8046 -1.38992 -0.714914 0
M  V30 749 H 82.5396 -0.725837 -3.16073 0
M  V30 750 H 82.3246 -2.49504 -3.02473 0
M  V30 751 H 83.8146 -1.82667 -3.7553 0
M  V30 752 N 84.2517 0.741722 -1.39055 0
M  V30 753 C 85.1847 1.86416 -1.31622 0
M  V30 754 C 86.1627 1.61473 -0.191076 0
M  V30 755 O 87.3467 1.84825 -0.370399 0
M  V30 756 C 84.4737 3.22266 -1.04221 0
M  V30 757 C 83.5197 3.66079 -2.18834 0
M  V30 758 S 84.3527 3.7623 -3.81066 0
M  V30 759 C 85.5087 5.14881 -3.55877 0
M  V30 760 H 85.7417 1.92437 -2.26617 0
M  V30 761 H 83.2747 0.905907 -1.25031 0
M  V30 762 H 85.2327 4.00714 -0.890964 0
M  V30 763 H 83.8937 3.1391 -0.109237 0
M  V30 764 H 83.0867 4.64648 -1.95238 0
M  V30 765 H 82.6887 2.94817 -2.30128 0
M  V30 766 H 84.9807 6.01006 -3.12726 0
M  V30 767 H 85.9237 5.43503 -4.53884 0
M  V30 768 H 86.3317 4.84239 -2.90126 0
M  V30 769 N 85.7298 1.2412 0.971189 0
M  V30 770 C 86.9758 1.08041 1.71625 0
M  V30 771 C 87.3088 -0.380407 1.90438 0
M  V30 772 O 86.5838 -1.28127 1.46334 0
M  V30 773 C 86.8668 1.81682 3.10908 0
M  V30 774 C 86.7198 3.35493 2.99608 0
M  V30 775 C 88.0388 1.58671 4.10501 0
M  V30 776 H 85.1578 0.39388 0.622919 0
M  V30 777 H 87.7998 1.52743 1.13003 0
M  V30 778 H 85.9498 1.43684 3.60953 0
M  V30 779 H 87.6218 3.83068 2.57015 0
M  V30 780 H 85.8648 3.64052 2.35899 0
M  V30 781 H 86.5358 3.82217 3.98264 0
M  V30 782 H 89.0118 1.91719 3.69301 0
M  V30 783 H 87.8878 2.1266 5.06031 0
M  V30 784 H 88.1488 0.524161 4.38982 0
M  V30 785 N 87.2079 -1.17134 1.05439 0
M  V30 786 C 88.6239 -1.39454 0.776201 0
M  V30 787 C 88.8239 -1.91454 -0.628307 0
M  V30 788 O 87.8799 -2.10777 -1.39031 0
M  V30 789 C 89.1929 -2.38305 1.83388 0
M  V30 790 C 90.7409 -2.52006 1.85639 0
M  V30 791 C 91.2159 -3.54133 2.90437 0
M  V30 792 N 92.7069 -3.61653 2.89415 0
M  V30 793 C 93.4419 -4.4044 3.67152 0
M  V30 794 N 92.9379 -5.22721 4.54681 0
M  V30 795 N 94.7309 -4.35337 3.55581 0
M  V30 796 H 86.8819 -0.817134 1.96053 0
M  V30 797 H 89.1449 -0.421626 0.849079 0
M  V30 798 H 88.8509 -2.07173 2.84204 0
M  V30 799 H 88.7249 -3.37841 1.67761 0
M  V30 800 H 91.1119 -2.82447 0.85486 0
M  V30 801 H 91.1929 -1.52537 2.05344 0
M  V30 802 H 90.8369 -3.24431 3.90777 0
M  V30 803 H 90.7669 -4.53313 2.67983 0
M  V30 804 H 93.2579 -3.02909 2.25952 0
M  V30 805 H 93.5709 -5.80027 5.10674 0
M  V30 806 H 91.9159 -5.22093 4.58741 0
M  V30 807 H 95.1069 -3.70112 2.86592 0
M  V30 808 H 95.2799 -4.96494 4.1641 0
M  V30 809 N 88.686 -0.835752 -1.33615 0
M  V30 810 C 89.932 -0.430596 -1.98176 0
M  V30 811 C 90.265 1.00684 -1.66061 0
M  V30 812 O 89.54 1.70339 -0.938877 0
M  V30 813 C 89.823 -0.648065 -3.5422 0
M  V30 814 C 89.676 -2.13255 -3.96033 0
M  V30 815 C 90.995 -0.0922113 -4.40003 0
M  V30 816 H 88.114 -0.157924 -0.719881 0
M  V30 817 H 90.756 -1.05069 -1.58305 0
M  V30 818 H 88.906 -0.120237 -3.88314 0
M  V30 819 H 90.578 -2.725 -3.72211 0
M  V30 820 H 88.821 -2.61823 -3.45878 0
M  V30 821 H 89.492 -2.23547 -5.04708 0
M  V30 822 H 91.968 -0.543343 -4.12537 0
M  V30 823 H 90.844 -0.274083 -5.48215 0
M  V30 824 H 91.105 1.00378 -4.30554 0
M  V30 825 N 90.1641 1.46063 -0.591896 0
M  V30 826 C 91.4411 1.95595 -0.0137119 0
M  V30 827 C 91.8211 1.5345 1.4497 0
M  V30 828 O 91.1691 0.789543 2.14426 0
M  V30 829 C 91.3791 3.48453 -0.195373 0
M  V30 830 C 92.7271 4.24546 -0.0679765 0
M  V30 831 O 93.7511 3.55982 -0.124681 0
M  V30 832 O 92.6101 5.46467 0.0600579 0
M  V30 833 H 89.7041 0.825795 0.0446279 0
M  V30 834 H 92.2501 1.56303 -0.660859 0
M  V30 835 H 91.0221 3.72045 -1.21235 0
M  V30 836 H 90.6451 3.94597 0.487775 0
M  V30 837 N 91.6422 0.330177 1.54103 0
M  V30 838 C 92.9192 -0.325007 1.92881 0
M  V30 839 C 93.2992 -1.6934 1.26045 0
M  V30 840 O 92.6472 -2.24855 0.406526 0
M  V30 841 C 92.8572 -0.410634 3.46576 0
M  V30 842 C 94.2052 -0.667801 4.19316 0
M  V30 843 O 95.2292 -0.49329 3.52768 0
M  V30 844 O 94.0882 -1.00491 5.37181 0
M  V30 845 H 91.1822 -0.186873 0.80561 0
M  V30 846 H 93.7282 0.380376 1.65382 0
M  V30 847 H 92.5002 0.550164 3.87413 0
M  V30 848 H 92.1232 -1.16333 3.802 0
M  V30 849 N 93.1203 -1.57491 0.0584922 0
M  V30 850 C 94.0683 -2.13148 -0.931168 0
M  V30 851 C 95.0623 -1.06507 -1.31729 0
M  V30 852 O 96.2683 -1.24906 -1.29609 0
M  V30 853 H 92.6433 -0.68137 -0.31818 0
M  V30 854 H 94.6143 -2.95187 -0.436707 0
M  V30 855 C 93.3633 -2.69732 -2.19408 0
M  V30 856 H 92.6863 -3.51454 -1.90578 0
M  V30 857 H 94.1263 -3.12287 -2.86798 0
M  V30 858 C 92.5853 -1.63855 -2.94369 0
M  V30 859 O 93.1153 -1.05565 -3.87581 0
M  V30 860 N 91.3213 -1.35202 -2.57233 0
M  V30 861 H 90.8683 -1.82791 -1.81508 0
M  V30 862 H 90.8263 -0.645922 -3.07693 0
M  V30 863 N 94.5984 0.214957 -1.56127 0
M  V30 864 C 95.8464 0.936518 -1.79091 0
M  V30 865 C 96.1674 1.84606 -0.628148 0
M  V30 866 O 95.4374 1.92664 0.35462 0
M  V30 867 H 94.0174 0.3488 -0.660566 0
M  V30 868 H 96.6794 0.22523 -1.93594 0
M  V30 869 H 95.7754 1.53943 -2.71492 0
M  V30 870 N 96.0765 1.50051 0.48192 0
M  V30 871 C 97.3045 1.64237 1.25832 0
M  V30 872 C 97.7195 0.321336 1.86045 0
M  V30 873 O 97.0765 -0.695478 1.68729 0
M  V30 874 C 97.1275 2.72548 2.37487 0
M  V30 875 O 96.8485 3.99529 1.79745 0
M  V30 876 C 98.3495 2.9761 3.28547 0
M  V30 877 H 95.5695 0.55237 0.380957 0
M  V30 878 H 98.1135 1.96207 0.576467 0
M  V30 879 H 96.2685 2.43303 3.01467 0
M  V30 880 H 96.6825 4.59342 2.5319 0
M  V30 881 H 98.1565 3.77084 4.03127 0
M  V30 882 H 98.6335 2.0826 3.86684 0
M  V30 883 H 99.2395 3.28345 2.70314 0
M  V30 884 N 97.5546 -0.734337 1.39446 0
M  V30 885 C 98.8036 -1.48937 1.36017 0
M  V30 886 C 99.1166 -1.95557 -0.0409005 0
M  V30 887 O 100.323 -2.70779 -0.19778 0
M  V30 888 C 98.7786 -2.69125 2.38955 0
M  V30 889 C 98.3866 -2.29452 3.8478 0
M  V30 890 C 100.131 -3.46944 2.44603 0
M  V30 891 C 98.0376 -3.46366 4.79358 0
M  V30 892 H 96.9676 -0.559296 0.505672 0
M  V30 893 H 99.6186 -0.800983 1.65095 0
M  V30 894 H 98.0006 -3.40041 2.02948 0
M  V30 895 H 99.1746 -1.66077 4.29831 0
M  V30 896 H 97.4896 -1.64723 3.82433 0
M  V30 897 H 100.087 -4.33907 3.12456 0
M  V30 898 H 100.43 -3.89454 1.47076 0
M  V30 899 H 100.963 -2.83056 2.79507 0
M  V30 900 H 97.7016 -3.08905 5.78151 0
M  V30 901 H 97.2216 -4.08719 4.38986 0
M  V30 902 H 98.9006 -4.12691 4.98292 0
M  V30 903 N 99.0327 -1.24633 -0.964593 0
M  V30 904 C 99.9827 -1.00841 -2.04487 0
M  V30 905 C 100.967 0.0512468 -1.60818 0
M  V30 906 O 102.159 -0.162865 -1.76249 0
M  V30 907 C 99.2877 -0.618474 -3.37683 0
M  V30 908 C 98.3737 -1.71437 -3.87905 0
M  V30 909 N 98.7647 -2.9477 -4.11029 0
M  V30 910 C 97.0627 -1.5926 -4.16596 0
M  V30 911 C 97.7637 -3.65834 -4.52261 0
M  V30 912 N 96.7397 -2.9341 -4.57615 0
M  V30 913 H 100.542 -1.94487 -2.20345 0
M  V30 914 H 98.0557 -1.14805 -1.14863 0
M  V30 915 H 100.053 -0.429247 -4.14684 0
M  V30 916 H 98.7127 0.310766 -3.23209 0
M  V30 917 H 99.7237 -3.30917 -3.9839 0
M  V30 918 H 96.4007 -0.731606 -4.1104 0
M  V30 919 H 97.7907 -4.71646 -4.78539 0
M  V30 920 N 100.511 1.16574 -1.06058 0
M  V30 921 C 101.443 2.2045 -0.627239 0
M  V30 922 C 102.456 1.59752 0.313534 0
M  V30 923 O 103.645 1.78192 0.104896 0
M  V30 924 C 100.745 3.3875 0.100974 0
M  V30 925 C 99.9178 4.29008 -0.852687 0
M  V30 926 C 98.9768 5.25944 -0.164152 0
M  V30 927 O 98.0028 5.63535 -0.801047 0
M  V30 928 N 99.2048 5.70075 1.09518 0
M  V30 929 H 101.97 2.58249 -1.52077 0
M  V30 930 H 99.5308 1.3156 -0.943594 0
M  V30 931 H 101.523 4.00638 0.57194 0
M  V30 932 H 100.093 2.99476 0.89628 0
M  V30 933 H 99.3128 3.64419 -1.50308 0
M  V30 934 H 100.601 4.86195 -1.49972 0
M  V30 935 H 99.9988 5.41624 1.6328 0
M  V30 936 H 98.5558 6.34067 1.51006 0
M  V30 937 N 101.989 0.842826 1.3317 0
M  V30 938 C 102.919 0.294028 2.31641 0
M  V30 939 C 103.9 -0.600401 1.59151 0
M  V30 940 O 105.085 -0.523124 1.87022 0
M  V30 941 C 102.215 -0.528416 3.43257 0
M  V30 942 C 101.169 0.27056 4.27144 0
M  V30 943 C 100.495 -0.675881 5.30411 0
M  V30 944 C 101.795 1.48981 5.00602 0
M  V30 945 H 103.489 1.11681 2.77791 0
M  V30 946 H 101.035 0.538478 1.33553 0
M  V30 947 H 102.988 -0.922674 4.11175 0
M  V30 948 H 101.712 -1.38445 2.95805 0
M  V30 949 H 100.371 0.646427 3.60856 0
M  V30 950 H 100.019 -1.52842 4.79216 0
M  V30 951 H 99.7189 -0.145374 5.8742 0
M  V30 952 H 101.243 -1.06757 6.01195 0
M  V30 953 H 102.657 1.16849 5.61266 0
M  V30 954 H 101.054 1.95739 5.6728 0
M  V30 955 H 102.124 2.25746 4.29147 0
M  V30 956 N 103.467 -1.45747 0.599634 0
M  V30 957 C 104.692 -2.07178 0.0960198 0
M  V30 958 C 105.117 -1.44268 -1.207 0
M  V30 959 O 104.475 -0.532503 -1.73303 0
M  V30 960 C 104.523 -3.60579 -0.0385348 0
M  V30 961 O 103.627 -3.97713 -1.0908 0
M  V30 962 H 102.968 -0.660251 0.0704593 0
M  V30 963 H 105.498 -1.87124 0.827385 0
M  V30 964 H 105.508 -4.07298 -0.239304 0
M  V30 965 H 104.183 -4.05756 0.912947 0
M  V30 966 H 102.76 -3.62678 -0.867135 0
M  V30 967 N 104.945 -0.338344 -1.53925 0
M  V30 968 C 105.855 0.529421 -2.28548 0
M  V30 969 C 106.871 1.11645 -1.3346 0
M  V30 970 O 108.047 1.13325 -1.66492 0
M  V30 971 C 105.112 1.66713 -3.03987 0
M  V30 972 C 104.173 1.11041 -4.14691 0
M  V30 973 C 103.406 2.19389 -4.86522 0
M  V30 974 O 103.629 3.40013 -4.57982 0
M  V30 975 O 102.563 1.83976 -5.73094 0
M  V30 976 H 106.389 -0.0770399 -3.03602 0
M  V30 977 H 103.974 -0.103555 -1.49041 0
M  V30 978 H 105.856 2.32918 -3.5118 0
M  V30 979 H 104.531 2.25949 -2.31794 0
M  V30 980 H 103.438 0.413024 -3.71813 0
M  V30 981 H 104.771 0.562975 -4.8897 0
M  V30 982 N 106.423 1.57458 -0.0668435 0
M  V30 983 C 107.671 1.92919 0.602214 0
M  V30 984 C 107.992 0.947215 1.70449 0
M  V30 985 O 107.262 -0.00544117 1.95899 0
M  V30 986 H 105.842 0.71217 0.22544 0
M  V30 987 H 108.504 1.94508 -0.123535 0
M  V30 988 H 107.6 2.94589 1.03073 0
M  V30 989 N 107.901 -0.206675 1.56239 0
M  V30 990 C 109.147 -0.930218 1.80208 0
M  V30 991 C 109.48 -1.83387 0.638981 0
M  V30 992 O 108.755 -1.91119 -0.361066 0
M  V30 993 C 109.038 -1.75641 3.1436 0
M  V30 994 C 108.891 -0.878257 4.41142 0
M  V30 995 C 110.21 -2.73129 3.45092 0
M  V30 996 H 107.329 -0.336742 0.655571 0
M  V30 997 H 109.971 -0.198222 1.88963 0
M  V30 998 H 108.121 -2.38048 3.07027 0
M  V30 999 H 109.793 -0.269787 4.6051 0
M  V30 1000 H 108.036 -0.184385 4.33408 0
M  V30 1001 H 108.707 -1.49106 5.3148 0
M  V30 1002 H 111.183 -2.20856 3.52649 0
M  V30 1003 H 110.059 -3.28028 4.40101 0
M  V30 1004 H 110.32 -3.51606 2.68003 0
M  V30 1005 N 109.379 -1.50304 -0.473955 0
M  V30 1006 C 110.342 -1.6841 -1.55469 0
M  V30 1007 C 111.342 -0.554905 -1.50922 0
M  V30 1008 O 112.532 -0.821882 -1.53593 0
M  V30 1009 C 109.664 -1.70667 -2.95102 0
M  V30 1010 H 110.857 -2.64828 -1.40733 0
M  V30 1011 H 108.41 -1.39742 -0.700132 0
M  V30 1012 H 109.145 -0.75932 -3.15285 0
M  V30 1013 H 108.93 -2.52698 -2.9981 0
M  V30 1014 H 110.42 -1.8664 -3.73571 0
M  V30 1015 N 110.857 0.726932 -1.39834 0
M  V30 1016 C 112.134 1.47902 -1.28001 0
M  V30 1017 C 112.514 2.1083 0.106789 0
M  V30 1018 O 111.862 1.99242 1.11869 0
M  V30 1019 C 112.072 2.52392 -2.41038 0
M  V30 1020 C 113.42 3.18546 -2.80737 0
M  V30 1021 O 114.444 2.62708 -2.40547 0
M  V30 1022 O 113.303 4.19604 -3.50135 0
M  V30 1023 H 110.397 0.657163 -0.502062 0
M  V30 1024 H 112.943 0.760071 -1.51727 0
M  V30 1025 H 111.715 2.04329 -3.33715 0
M  V30 1026 H 111.338 3.31837 -2.19021 0
M  V30 1027 N 112.336 1.25143 0.95797 0
M  V30 1028 C 113.752 1.01892 1.22842 0
M  V30 1029 C 113.952 -0.266311 1.99732 0
M  V30 1030 O 113.008 -0.979913 2.3271 0
M  V30 1031 C 114.321 2.24004 2.00606 0
M  V30 1032 C 115.869 2.28731 2.13662 0
M  V30 1033 C 116.344 3.5049 2.94823 0
M  V30 1034 N 117.835 3.50866 3.02403 0
M  V30 1035 C 118.57 4.4174 3.65586 0
M  V30 1036 N 118.066 5.42882 4.30408 0
M  V30 1037 N 119.859 4.29429 3.62694 0
M  V30 1038 H 112.01 2.07718 0.443493 0
M  V30 1039 H 114.273 0.912031 0.258657 0
M  V30 1040 H 113.979 3.17395 1.51503 0
M  V30 1041 H 113.853 2.26907 3.01319 0
M  V30 1042 H 116.24 1.35865 2.61963 0
M  V30 1043 H 116.321 2.29848 1.12265 0
M  V30 1044 H 115.965 4.43676 2.47213 0
M  V30 1045 H 115.895 3.46617 3.96439 0
M  V30 1046 H 118.386 2.777 2.56302 0
M  V30 1047 H 118.699 6.0844 4.76467 0
M  V30 1048 H 117.044 5.46758 4.29047 0
M  V30 1049 H 120.235 3.49643 3.11236 0
M  V30 1050 H 120.408 5.00448 4.1165 0
M  V30 1051 N 113.814 -1.1601 1.06675 0
M  V30 1052 C 114.777 -2.18724 0.685001 0
M  V30 1053 C 115.777 -1.58496 -0.271246 0
M  V30 1054 O 116.967 -1.74119 -0.0531156 0
M  V30 1055 C 114.099 -3.40899 0.00853648 0
M  V30 1056 H 115.292 -2.54011 1.59431 0
M  V30 1057 H 112.845 -1.30352 0.862441 0
M  V30 1058 H 113.58 -3.11173 -0.913337 0
M  V30 1059 H 113.365 -3.8587 0.696204 0
M  V30 1060 H 114.855 -4.16886 -0.24414 0
M  V30 1061 N 115.292 -0.849877 -1.32721 0
M  V30 1062 C 116.52 -0.464754 -2.01613 0
M  V30 1063 C 116.935 0.937191 -1.63897 0
M  V30 1064 O 116.292 1.61081 -0.857856 0
M  V30 1065 C 116.343 -0.588638 -3.56675 0
M  V30 1066 O 116.064 -1.93535 -3.93034 0
M  V30 1067 C 117.565 -0.2019 -4.4284 0
M  V30 1068 H 114.785 -0.183215 -0.645502 0
M  V30 1069 H 117.329 -1.1455 -1.69407 0
M  V30 1070 H 115.484 0.0443159 -3.87375 0
M  V30 1071 H 115.898 -1.92871 -4.87751 0
M  V30 1072 H 117.372 -0.339599 -5.50954 0
M  V30 1073 H 117.849 0.857224 -4.30753 0
M  V30 1074 H 118.455 -0.809733 -4.17521 0
M  V30 1075 N 116.77 1.45427 -0.607355 0
M  V30 1076 C 118.018 2.01841 -0.102253 0
M  V30 1077 C 118.339 1.47832 1.27164 0
M  V30 1078 O 117.609 0.672497 1.83995 0
M  V30 1079 H 116.189 0.746188 -0.0348101 0
M  V30 1080 H 118.851 1.78229 -0.7887 0
M  V30 1081 H 117.947 3.12057 -0.0518585 0
M  V30 1082 N 118.248 0.346503 1.53744 0
M  V30 1083 C 119.664 -0.00530975 1.59599 0
M  V30 1084 C 119.864 -1.48465 1.36236 0
M  V30 1085 O 118.92 -2.24376 1.15808 0
M  V30 1086 C 120.233 0.433516 2.97559 0
M  V30 1087 C 121.781 0.386111 3.10609 0
M  V30 1088 C 122.256 0.800451 4.50951 0
M  V30 1089 N 123.747 0.754753 4.5701 0
M  V30 1090 C 124.482 1.04727 5.63755 0
M  V30 1091 N 123.978 1.4081 6.7834 0
M  V30 1092 N 125.771 0.971316 5.53644 0
M  V30 1093 H 117.922 1.31009 1.67184 0
M  V30 1094 H 120.185 0.534242 0.783128 0
M  V30 1095 H 119.891 1.46509 3.19731 0
M  V30 1096 H 119.765 -0.189753 3.76722 0
M  V30 1097 H 122.152 -0.636295 2.88158 0
M  V30 1098 H 122.233 1.04462 2.33498 0
M  V30 1099 H 121.877 1.82088 4.74137 0
M  V30 1100 H 121.807 0.119386 5.26465 0
M  V30 1101 H 124.298 0.488662 3.74727 0
M  V30 1102 H 124.611 1.61607 7.55714 0
M  V30 1103 H 122.956 1.44657 6.79779 0
M  V30 1104 H 126.147 0.688748 4.63005 0
M  V30 1105 H 126.32 1.20263 6.36742 0
M  V30 1106 N 119.726 -1.57421 0.075193 0
M  V30 1107 C 120.689 -2.11791 -0.876203 0
M  V30 1108 C 121.689 -1.04268 -1.22412 0
M  V30 1109 O 122.879 -1.30242 -1.15684 0
M  V30 1110 C 120.011 -2.62207 -2.17854 0
M  V30 1111 H 121.204 -2.9716 -0.40444 0
M  V30 1112 H 118.757 -1.55333 -0.173557 0
M  V30 1113 H 119.492 -1.803 -2.6956 0
M  V30 1114 H 119.277 -3.40802 -1.93897 0
M  V30 1115 H 120.767 -3.04335 -2.85955 0
M  V30 1116 N 121.204 0.198386 -1.56346 0
M  V30 1117 C 122.453 0.917451 -1.79627 0
M  V30 1118 C 122.766 1.8456 -0.64784 0
M  V30 1119 O 123.972 2.60504 -0.764859 0
M  V30 1120 C 122.428 1.68175 -3.18191 0
M  V30 1121 C 122.036 0.798589 -4.40825 0
M  V30 1122 C 123.78 2.39065 -3.50782 0
M  V30 1123 C 121.687 1.56157 -5.70411 0
M  V30 1124 H 120.617 0.346317 -0.669762 0
M  V30 1125 H 123.268 0.170801 -1.82703 0
M  V30 1126 H 121.65 2.47216 -3.09354 0
M  V30 1127 H 122.824 0.0470665 -4.60776 0
M  V30 1128 H 121.139 0.200686 -4.15916 0
M  V30 1129 H 123.736 2.96692 -4.44835 0
M  V30 1130 H 124.079 3.13091 -2.74371 0
M  V30 1131 H 124.612 1.66993 -3.61052 0
M  V30 1132 H 121.351 0.864142 -6.49779 0
M  V30 1133 H 120.871 2.2871 -5.54483 0
M  V30 1134 H 122.55 2.11622 -6.11412 0
M  V30 1135 N 122.682 1.50554 0.465978 0
M  V30 1136 C 123.91 1.65563 1.24083 0
M  V30 1137 C 124.325 0.341051 1.85694 0
M  V30 1138 O 123.682 -0.677543 1.69457 0
M  V30 1139 C 123.733 2.75051 2.34583 0
M  V30 1140 O 123.454 4.01413 1.75497 0
M  V30 1141 C 124.955 3.01078 3.25372 0
M  V30 1142 H 122.175 0.55638 0.375077 0
M  V30 1143 H 124.719 1.96807 0.555624 0
M  V30 1144 H 122.874 2.46486 2.9887 0
M  V30 1145 H 123.288 4.62002 2.48303 0
M  V30 1146 H 124.762 3.81339 3.99105 0
M  V30 1147 H 125.239 2.12349 3.84453 0
M  V30 1148 H 125.845 3.31194 2.66816 0
M  V30 1149 N 124.16 -0.719506 1.40217 0
M  V30 1150 C 125.388 -1.50864 1.41589 0
M  V30 1151 C 125.803 -1.88794 0.0145275 0
M  V30 1152 O 125.16 -1.55174 -0.960594 0
M  V30 1153 C 125.211 -2.78646 2.30302 0
M  V30 1154 O 124.932 -2.42321 3.64983 0
M  V30 1155 C 126.433 -3.72569 2.40224 0
M  V30 1156 H 123.653 -0.465709 0.48307 0
M  V30 1157 H 126.197 -0.88785 1.84221 0
M  V30 1158 H 124.352 -3.37019 1.91042 0
M  V30 1159 H 124.766 -3.24514 4.12057 0
M  V30 1160 H 126.24 -4.5908 3.06512 0
M  V30 1161 H 126.717 -4.15403 1.42608 0
M  V30 1162 H 127.323 -3.20109 2.80019 0
M  V30 1163 N 125.638 -1.25649 -0.95132 0
M  V30 1164 C 126.866 -1.13343 -1.73092 0
M  V30 1165 C 127.281 0.312434 -1.86197 0
M  V30 1166 O 126.638 1.21465 -1.36207 0
M  V30 1167 C 126.689 -1.78602 -3.14299 0
M  V30 1168 O 126.41 -3.17537 -3.01831 0
M  V30 1169 C 127.911 -1.72119 -4.08522 0
M  V30 1170 H 125.131 -0.395181 -0.542285 0
M  V30 1171 H 127.675 -1.66076 -1.19328 0
M  V30 1172 H 125.83 -1.29832 -3.64996 0
M  V30 1173 H 126.244 -3.49676 -3.90931 0
M  V30 1174 H 127.718 -2.22435 -5.052 0
M  V30 1175 H 128.195 -0.685635 -4.33815 0
M  V30 1176 H 128.801 -2.20393 -3.63741 0
M  V30 1177 N 127.117 1.15442 -1.07289 0
M  V30 1178 C 128.394 1.82306 -0.708792 0
M  V30 1179 C 128.774 1.94991 0.808807 0
M  V30 1180 O 128.122 1.50085 1.72298 0
M  V30 1181 C 128.332 3.18695 -1.42247 0
M  V30 1182 C 129.68 3.94341 -1.57417 0
M  V30 1183 O 130.704 3.28247 -1.38319 0
M  V30 1184 O 129.563 5.12839 -1.88834 0
M  V30 1185 H 126.657 0.787628 -0.252132 0
M  V30 1186 H 129.203 1.22559 -1.17377 0
M  V30 1187 H 127.975 3.04557 -2.45684 0
M  V30 1188 H 127.598 3.86128 -0.948223 0
M  V30 1189 N 128.595 0.856903 1.32268 0
M  V30 1190 C 130.011 0.547061 1.49931 0
M  V30 1191 C 130.211 -0.921781 1.7918 0
M  V30 1192 O 129.267 -1.70469 1.8627 0
M  V30 1193 C 130.58 1.43599 2.64196 0
M  V30 1194 C 132.128 1.43665 2.78081 0
M  V30 1195 C 132.603 2.31085 3.95428 0
M  V30 1196 N 134.094 2.28893 4.02694 0
M  V30 1197 C 134.829 2.93262 4.92732 0
M  V30 1198 N 134.325 3.66751 5.87763 0
M  V30 1199 N 136.118 2.82638 4.85873 0
M  V30 1200 H 128.269 1.8075 1.11549 0
M  V30 1201 H 130.532 0.772144 0.549997 0
M  V30 1202 H 130.238 2.48058 2.49319 0
M  V30 1203 H 130.112 1.12502 3.60032 0
M  V30 1204 H 132.499 0.399701 2.92381 0
M  V30 1205 H 132.58 1.7878 1.82952 0
M  V30 1206 H 132.224 3.34849 3.81888 0
M  V30 1207 H 132.154 1.93302 4.89839 0
M  V30 1208 H 134.645 1.75466 3.34694 0
M  V30 1209 H 134.958 4.13027 6.53168 0
M  V30 1210 H 133.303 3.70859 5.87783 0
M  V30 1211 H 136.494 2.24774 4.10602 0
M  V30 1212 H 136.667 3.33084 5.55841 0
M  V30 1213 N 130.073 -1.45103 0.615059 0
M  V30 1214 C 131.32 -2.02183 0.113179 0
M  V30 1215 C 131.648 -1.48249 -1.25906 0
M  V30 1216 O 130.903 -0.650265 -1.84581 0
M  V30 1217 C 131.202 -3.57386 0.0318797 0
M  V30 1218 C 130.868 -4.30505 1.34077 0
M  V30 1219 C 129.53 -4.50197 1.69929 0
M  V30 1220 C 131.882 -4.72238 2.20546 0
M  V30 1221 C 129.21 -5.08881 2.91988 0
M  V30 1222 C 131.562 -5.32272 3.41861 0
M  V30 1223 C 130.226 -5.50187 3.77956 0
M  V30 1224 H 129.496 -0.739842 0.0414151 0
M  V30 1225 H 132.143 -1.74073 0.798168 0
M  V30 1226 H 130.448 -3.84817 -0.736409 0
M  V30 1227 H 132.145 -3.99264 -0.372712 0
M  V30 1228 H 128.735 -4.15496 1.05173 0
M  V30 1229 H 132.919 -4.56751 1.94146 0
M  V30 1230 H 128.175 -5.20939 3.2005 0
M  V30 1231 H 132.349 -5.63563 4.09109 0
M  V30 1232 H 129.976 -5.95427 4.72622 0
M  V30 1233 N 131.551 -0.354651 -1.53558 0
M  V30 1234 C 132.967 -0.00315426 -1.596 0
M  V30 1235 C 133.167 1.47741 -1.37021 0
M  V30 1236 O 132.223 2.23759 -1.16996 0
M  V30 1237 C 133.536 -0.44929 -2.97325 0
M  V30 1238 C 135.084 -0.402578 -3.104 0
M  V30 1239 C 135.559 -0.824355 -4.5052 0
M  V30 1240 N 137.05 -0.778979 -4.56603 0
M  V30 1241 C 137.785 -1.07715 -5.63192 0
M  V30 1242 N 137.281 -1.44405 -6.77583 0
M  V30 1243 N 139.074 -1.00066 -5.53121 0
M  V30 1244 H 131.225 -1.31893 -1.66487 0
M  V30 1245 H 133.488 -0.538388 -0.780284 0
M  V30 1246 H 133.194 -1.48202 -3.1895 0
M  V30 1247 H 133.068 0.169772 -3.76818 0
M  V30 1248 H 135.455 0.621004 -2.88492 0
M  V30 1249 H 135.536 -1.05699 -2.32941 0
M  V30 1250 H 135.18 -1.846 -4.73165 0
M  V30 1251 H 135.11 -0.147304 -5.26394 0
M  V30 1252 H 137.601 -0.508528 -3.74463 0
M  V30 1253 H 137.914 -1.65612 -7.54846 0
M  V30 1254 H 136.259 -1.4826 -6.79002 0
M  V30 1255 H 139.45 -0.713293 -4.62633 0
M  V30 1256 H 139.623 -1.23638 -6.36096 0
M  V30 1257 N 133.029 1.57378 -0.0835403 0
M  V30 1258 C 134.275 1.94217 0.583733 0
M  V30 1259 C 134.608 0.964653 1.68547 0
M  V30 1260 O 133.883 -0.00422258 1.945 0
M  V30 1261 C 134.166 3.41253 1.14972 0
M  V30 1262 C 134.019 4.49768 0.0538277 0
M  V30 1263 C 135.338 3.89352 2.05166 0
M  V30 1264 H 132.457 0.706233 0.210724 0
M  V30 1265 H 135.099 1.89392 -0.1519 0
M  V30 1266 H 133.249 3.45496 1.77665 0
M  V30 1267 H 134.921 4.57641 -0.579851 0
M  V30 1268 H 133.164 4.29432 -0.614068 0
M  V30 1269 H 133.835 5.49817 0.490452 0
M  V30 1270 H 136.311 3.87189 1.52393 0
M  V30 1271 H 135.187 4.92822 2.41698 0
M  V30 1272 H 135.448 3.27973 2.96456 0
M  V30 1273 N 134.507 -0.190092 1.56449 0
M  V30 1274 C 135.755 -0.907908 1.80559 0
M  V30 1275 C 136.076 -1.83583 0.657438 0
M  V30 1276 O 135.346 -1.93203 -0.323924 0
M  V30 1277 H 133.926 -0.338247 0.666032 0
M  V30 1278 H 136.588 -0.194403 1.93928 0
M  V30 1279 H 135.684 -1.49604 2.73907 0
M  V30 1280 N 135.985 -1.50799 -0.457987 0
M  V30 1281 C 137.21 -1.66496 -1.23668 0
M  V30 1282 C 137.635 -0.353288 -1.84752 0
M  V30 1283 O 136.993 0.684346 -1.67888 0
M  V30 1284 C 137.041 -2.76763 -2.3116 0
M  V30 1285 O 136.145 -2.38928 -3.36136 0
M  V30 1286 H 135.486 -0.555828 -0.363252 0
M  V30 1287 H 138.016 -1.9725 -0.543474 0
M  V30 1288 H 138.026 -3.00232 -2.76269 0
M  V30 1289 H 136.701 -3.71954 -1.86073 0
M  V30 1290 H 135.278 -2.25953 -2.96647 0
M  V30 1291 N 137.463 0.71206 -1.40597 0
M  V30 1292 C 138.709 1.47416 -1.39271 0
M  V30 1293 C 139.042 1.942 0.00388791 0
M  V30 1294 O 138.317 1.68403 0.973179 0
M  V30 1295 C 138.6 2.69774 -2.38525 0
M  V30 1296 C 138.453 2.28861 -3.87224 0
M  V30 1297 C 139.772 3.71939 -2.35264 0
M  V30 1298 H 136.891 0.534713 -0.5072 0
M  V30 1299 H 139.533 0.812375 -1.71757 0
M  V30 1300 H 137.683 3.26238 -2.10953 0
M  V30 1301 H 139.355 1.77852 -4.25636 0
M  V30 1302 H 137.598 1.60824 -4.02887 0
M  V30 1303 H 138.269 3.16584 -4.52193 0
M  V30 1304 H 140.745 3.25113 -2.59694 0
M  V30 1305 H 139.621 4.55186 -3.06753 0
M  V30 1306 H 139.882 4.20484 -1.36549 0
M  V30 1307 N 138.941 1.26152 0.944643 0
M  V30 1308 C 140.169 1.14259 1.72489 0
M  V30 1309 C 140.584 -0.302555 1.8636 0
M  V30 1310 O 139.941 -1.20741 1.36849 0
M  V30 1311 C 139.992 1.80266 3.13347 0
M  V30 1312 O 139.713 3.19133 3.00143 0
M  V30 1313 C 141.214 1.74283 4.07603 0
M  V30 1314 H 138.434 0.398051 0.540181 0
M  V30 1315 H 140.978 1.66706 1.18446 0
M  V30 1316 H 139.133 1.31766 3.64303 0
M  V30 1317 H 139.547 3.51744 3.89071 0
M  V30 1318 H 141.021 2.25111 5.04013 0
M  V30 1319 H 141.498 0.708631 4.33446 0
M  V30 1320 H 142.104 2.22319 3.62567 0
M  V30 1321 N 140.419 -1.14872 1.07899 0
M  V30 1322 C 141.366 -2.19791 0.704319 0
M  V30 1323 C 142.336 -1.63238 -0.306987 0
M  V30 1324 O 143.521 -1.8983 -0.192171 0
M  V30 1325 C 140.661 -3.44911 0.114244 0
M  V30 1326 C 139.774 -4.15637 1.1777 0
M  V30 1327 C 138.909 -5.28324 0.552037 0
M  V30 1328 C 137.948 -5.90875 1.59789 0
M  V30 1329 N 137.085 -6.95022 0.994404 0
M  V30 1330 H 141.925 -2.5119 1.60336 0
M  V30 1331 H 139.462 -1.23356 0.801352 0
M  V30 1332 H 141.42 -4.16477 -0.245544 0
M  V30 1333 H 140.05 -3.14011 -0.74813 0
M  V30 1334 H 139.102 -3.42512 1.65499 0
M  V30 1335 H 140.414 -4.5823 1.97046 0
M  V30 1336 H 139.568 -6.06538 0.1402 0
M  V30 1337 H 138.307 -4.86939 -0.272431 0
M  V30 1338 H 137.312 -5.11369 2.01945 0
M  V30 1339 H 138.537 -6.34337 2.42474 0
M  V30 1340 H 136.483 -6.55722 0.190939 0
M  V30 1341 H 136.4 -7.36073 1.72432 0
M  V30 1342 H 137.668 -7.77123 0.608253 0
M  V30 1343 N 141.898 -0.863906 -1.31812 0
M  V30 1344 C 143.123 -0.48527 -2.01643 0
M  V30 1345 C 143.548 0.913058 -1.64453 0
M  V30 1346 O 142.906 1.6014 -0.849985 0
M  V30 1347 C 142.954 -0.642625 -3.54828 0
M  V30 1348 O 142.058 0.320659 -4.11151 0
M  V30 1349 H 141.399 -0.193793 -0.635091 0
M  V30 1350 H 143.929 -1.16565 -1.68148 0
M  V30 1351 H 143.939 -0.533628 -4.04495 0
M  V30 1352 H 142.614 -1.66227 -3.81237 0
M  V30 1353 H 141.191 0.167126 -3.72525 0
M  V30 1354 N 143.376 1.44774 -0.622745 0
M  V30 1355 C 144.623 2.02121 -0.1239 0
M  V30 1356 C 144.951 1.48915 1.25118 0
M  V30 1357 O 144.206 0.660045 1.84233 0
M  V30 1358 C 144.505 3.57364 -0.0508323 0
M  V30 1359 C 144.171 4.29787 -1.36358 0
M  V30 1360 C 142.833 4.4929 -1.72314 0
M  V30 1361 C 145.185 4.71062 -2.23048 0
M  V30 1362 C 142.513 5.07325 -2.94682 0
M  V30 1363 C 144.865 5.30452 -3.44679 0
M  V30 1364 C 143.529 5.48175 -3.80868 0
M  V30 1365 H 142.799 0.739612 -0.0453381 0
M  V30 1366 H 145.446 1.73648 -0.807389 0
M  V30 1367 H 143.751 3.85202 0.715991 0
M  V30 1368 H 145.448 3.99456 0.351533 0
M  V30 1369 H 142.038 4.14932 -1.07375 0
M  V30 1370 H 146.222 4.55715 -1.96565 0
M  V30 1371 H 141.478 5.19235 -3.22809 0
M  V30 1372 H 145.652 5.61385 -4.12092 0
M  V30 1373 H 143.279 5.92912 -4.75773 0
M  V30 1374 N 144.854 0.36279 1.53368 0
M  V30 1375 C 146.079 -0.231226 2.06107 0
M  V30 1376 C 146.504 -1.419 1.23474 0
M  V30 1377 O 145.862 -1.79524 0.253128 0
M  V30 1378 C 145.91 -0.605523 3.5548 0
M  V30 1379 O 145.014 -1.70312 3.7559 0
M  V30 1380 H 144.355 -0.034327 0.663112 0
M  V30 1381 H 146.885 0.522584 1.97814 0
M  V30 1382 H 146.895 -0.877314 3.98456 0
M  V30 1383 H 145.57 0.263004 4.15068 0
M  V30 1384 H 144.147 -1.4271 3.44512 0
M  V30 1385 N 146.332 -1.57332 0.0918853 0
M  V30 1386 C 147.295 -2.12708 -0.85369 0
M  V30 1387 C 148.295 -1.05561 -1.213 0
M  V30 1388 O 149.485 -1.31461 -1.14296 0
M  V30 1389 C 146.617 -2.64503 -2.15061 0
M  V30 1390 H 147.81 -2.97573 -0.3729 0
M  V30 1391 H 145.363 -1.55509 -0.157072 0
M  V30 1392 H 146.098 -1.83149 -2.67632 0
M  V30 1393 H 145.883 -3.4284 -1.90272 0
M  V30 1394 H 147.373 -3.07351 -2.82711 0
M  V30 1395 N 147.81 0.181792 -1.56548 0
M  V30 1396 C 149.056 0.901431 -1.81665 0
M  V30 1397 C 149.389 1.82347 -0.668075 0
M  V30 1398 O 148.664 1.91669 0.330615 0
M  V30 1399 C 148.947 1.70618 -3.17115 0
M  V30 1400 C 148.8 0.807964 -4.42484 0
M  V30 1401 C 150.119 2.67605 -3.49393 0
M  V30 1402 H 147.238 0.32627 -0.660846 0
M  V30 1403 H 149.88 0.168134 -1.89255 0
M  V30 1404 H 148.03 2.33133 -3.10775 0
M  V30 1405 H 149.702 0.19649 -4.60881 0
M  V30 1406 H 147.945 0.115411 -4.33646 0
M  V30 1407 H 148.616 1.40632 -5.33785 0
M  V30 1408 H 151.092 2.15218 -3.56118 0
M  V30 1409 H 149.968 3.20985 -4.45264 0
M  V30 1410 H 150.229 3.47298 -2.73563 0
M  V30 1411 N 149.288 1.51039 0.449983 0
M  V30 1412 C 150.534 1.63322 1.20223 0
M  V30 1413 C 150.867 0.34241 1.91158 0
M  V30 1414 O 150.142 -0.657344 1.83055 0
M  V30 1415 C 150.425 2.82801 2.22925 0
M  V30 1416 C 150.278 4.21823 1.56157 0
M  V30 1417 C 151.597 2.97807 3.24035 0
M  V30 1418 H 148.716 0.594407 0.435718 0
M  V30 1419 H 151.358 1.83489 0.493136 0
M  V30 1420 H 149.508 2.65738 2.834 0
M  V30 1421 H 151.18 4.50526 0.991162 0
M  V30 1422 H 149.423 4.25105 0.864172 0
M  V30 1423 H 150.094 5.01391 2.30891 0
M  V30 1424 H 152.57 3.13497 2.73603 0
M  V30 1425 H 151.446 3.82992 3.93202 0
M  V30 1426 H 151.707 2.09328 3.89402 0
M  V30 1427 N 150.766 -0.704594 1.40972 0
M  V30 1428 C 151.696 -1.83124 1.44872 0
M  V30 1429 C 152.677 -1.67281 0.30838 0
M  V30 1430 O 153.862 -1.87149 0.518556 0
M  V30 1431 C 150.992 -3.21181 1.32136 0
M  V30 1432 C 149.946 -3.51714 2.43888 0
M  V30 1433 C 149.272 -4.89032 2.16222 0
M  V30 1434 C 150.572 -3.516 3.86232 0
M  V30 1435 H 152.266 -1.80117 2.39161 0
M  V30 1436 H 149.812 -0.865145 1.15114 0
M  V30 1437 H 151.765 -3.99702 1.33479 0
M  V30 1438 H 150.489 -3.24791 0.343279 0
M  V30 1439 H 149.148 -2.75539 2.41813 0
M  V30 1440 H 148.796 -4.89256 1.16778 0
M  V30 1441 H 148.496 -5.10426 2.911 0
M  V30 1442 H 150.02 -5.69873 2.19265 0
M  V30 1443 H 151.434 -4.2014 3.9007 0
M  V30 1444 H 149.831 -3.84523 4.60719 0
M  V30 1445 H 150.901 -2.50757 4.15029 0
M  V30 1446 N 152.244 -1.26651 -0.937939 0
M  V30 1447 C 153.174 -1.10993 -2.05433 0
M  V30 1448 C 154.155 -0.0142161 -1.70094 0
M  V30 1449 O 155.34 -0.186837 -1.93299 0
M  V30 1450 C 152.47 -0.745561 -3.39203 0
M  V30 1451 C 151.424 -1.79337 -3.88616 0
M  V30 1452 C 150.75 -1.28324 -5.19073 0
M  V30 1453 C 152.05 -3.19553 -4.13138 0
M  V30 1454 H 153.744 -2.0438 -2.1879 0
M  V30 1455 H 151.29 -0.984041 -1.05131 0
M  V30 1456 H 153.243 -0.622888 -4.16771 0
M  V30 1457 H 151.967 0.22401 -3.25831 0
M  V30 1458 H 150.626 -1.90477 -3.13231 0
M  V30 1459 H 150.274 -0.303414 -5.02084 0
M  V30 1460 H 149.974 -1.98369 -5.53103 0
M  V30 1461 H 151.498 -1.1733 -5.99221 0
M  V30 1462 H 152.912 -3.11471 -4.81309 0
M  V30 1463 H 151.309 -3.87218 -4.58457 0
M  V30 1464 H 152.379 -3.65368 -3.18801 0
M  V30 1465 N 153.722 1.14298 -1.08507 0
M  V30 1466 C 154.654 2.1907 -0.673859 0
M  V30 1467 C 155.667 1.60381 0.279577 0
M  V30 1468 O 156.856 1.78374 0.0670754 0
M  V30 1469 C 153.956 3.38888 0.0290979 0
M  V30 1470 C 153.129 4.27103 -0.943494 0
M  V30 1471 C 152.188 5.25477 -0.275676 0
M  V30 1472 O 151.214 5.61709 -0.920401 0
M  V30 1473 N 152.416 5.7227 0.974013 0
M  V30 1474 H 155.181 2.54965 -1.57521 0
M  V30 1475 H 152.742 1.29528 -0.971287 0
M  V30 1476 H 154.734 4.01761 0.48683 0
M  V30 1477 H 153.304 3.01309 0.832555 0
M  V30 1478 H 152.524 3.61149 -1.58004 0
M  V30 1479 H 153.812 4.82905 -1.60251 0
M  V30 1480 H 153.21 5.44965 1.51755 0
M  V30 1481 H 151.767 6.37127 1.37522 0
M  V30 1482 N 155.201 0.870884 1.31352 0
M  V30 1483 C 156.131 0.343096 2.30966 0
M  V30 1484 C 157.112 -0.566507 1.60389 0
M  V30 1485 O 158.297 -0.483336 1.88089 0
M  V30 1486 C 155.427 -0.455487 3.443 0
M  V30 1487 C 154.381 0.361103 4.26474 0
M  V30 1488 C 153.707 -0.563221 5.31725 0
M  V30 1489 C 155.007 1.59566 4.97329 0
M  V30 1490 H 156.701 1.17548 2.75359 0
M  V30 1491 H 154.247 0.566686 1.32381 0
M  V30 1492 H 156.2 -0.83525 4.13039 0
M  V30 1493 H 154.924 -1.32139 2.98675 0
M  V30 1494 H 153.583 0.722825 3.59403 0
M  V30 1495 H 153.231 -1.42643 4.82351 0
M  V30 1496 H 152.931 -0.0207409 5.87596 0
M  V30 1497 H 154.455 -0.939808 6.03324 0
M  V30 1498 H 155.869 1.28728 5.58661 0
M  V30 1499 H 154.266 2.07728 5.63 0
M  V30 1500 H 155.336 2.34798 4.24262 0
M  V30 1501 N 156.679 -1.44442 0.630414 0
M  V30 1502 C 157.925 -2.02351 0.134816 0
M  V30 1503 C 158.258 -1.4947 -1.23986 0
M  V30 1504 O 157.533 -0.678475 -1.82283 0
M  V30 1505 C 157.816 -3.59898 0.120707 0
M  V30 1506 C 157.669 -4.23063 1.52767 0
M  V30 1507 C 158.988 -4.36585 -0.555127 0
M  V30 1508 H 156.107 -0.73527 0.0504646 0
M  V30 1509 H 158.749 -1.72022 0.806751 0
M  V30 1510 H 156.899 -3.85868 -0.451477 0
M  V30 1511 H 158.571 -4.08202 2.14869 0
M  V30 1512 H 156.814 -3.80586 2.08175 0
M  V30 1513 H 157.485 -5.32071 1.46984 0
M  V30 1514 H 159.961 -4.16044 -0.0685429 0
M  V30 1515 H 158.837 -5.46294 -0.534185 0
M  V30 1516 H 159.098 -4.11138 -1.62535 0
M  V30 1517 N 158.157 -0.370918 -1.53173 0
M  V30 1518 C 159.434 0.273754 -1.93675 0
M  V30 1519 C 159.814 1.65938 -1.3049 0
M  V30 1520 O 159.162 2.23698 -0.465999 0
M  V30 1521 C 159.372 0.318602 -3.47543 0
M  V30 1522 C 160.72 0.556392 -4.20939 0
M  V30 1523 O 161.744 0.399587 -3.53952 0
M  V30 1524 O 160.603 0.862133 -5.39657 0
M  V30 1525 H 157.697 0.165448 -0.810281 0
M  V30 1526 H 160.243 -0.42409 -1.64315 0
M  V30 1527 H 159.015 -0.652687 -3.85818 0
M  V30 1528 H 158.638 1.06212 -3.83151 0
M  V30 1529 N 159.635 1.57281 -0.100228 0
M  V30 1530 C 160.545 2.17833 0.870965 0
M  V30 1531 C 161.561 1.14921 1.30649 0
M  V30 1532 O 162.737 1.47313 1.37335 0
M  V30 1533 C 159.802 2.75085 2.1102 0
M  V30 1534 C 158.863 3.9297 1.72838 0
M  V30 1535 C 158.096 4.47482 2.90854 0
M  V30 1536 O 158.319 4.00922 4.05731 0
M  V30 1537 O 157.253 5.38433 2.69023 0
M  V30 1538 H 161.079 3.0124 0.38575 0
M  V30 1539 H 158.664 1.48881 0.124397 0
M  V30 1540 H 160.546 3.11656 2.83634 0
M  V30 1541 H 159.221 1.94721 2.58584 0
M  V30 1542 H 158.128 3.61201 0.973883 0
M  V30 1543 H 159.461 4.74713 1.30033 0
M  V30 1544 N 161.113 -0.173488 1.56642 0
M  V30 1545 C 162.361 -0.888706 1.81512 0
M  V30 1546 C 162.682 -1.82875 0.676872 0
M  V30 1547 O 161.952 -1.93536 -0.303414 0
M  V30 1548 H 160.532 -0.331164 0.669582 0
M  V30 1549 H 163.194 -0.173823 1.94123 0
M  V30 1550 H 162.29 -1.46691 2.75478 0
M  V30 1551 N 162.591 -1.51276 -0.441967 0
M  V30 1552 C 163.538 -1.72256 -1.53612 0
M  V30 1553 C 164.508 -0.564164 -1.56225 0
M  V30 1554 O 165.693 -0.798074 -1.73307 0
M  V30 1555 C 162.833 -1.84932 -2.91366 0
M  V30 1556 C 161.946 -3.12459 -2.98317 0
M  V30 1557 C 161.081 -3.15758 -4.27166 0
M  V30 1558 C 160.12 -4.37619 -4.27967 0
M  V30 1559 N 159.257 -4.38493 -5.48333 0
M  V30 1560 H 164.097 -2.65654 -1.35026 0
M  V30 1561 H 161.634 -1.31662 -0.656009 0
M  V30 1562 H 163.592 -1.90263 -3.7129 0
M  V30 1563 H 162.222 -0.949461 -3.08521 0
M  V30 1564 H 161.274 -3.1646 -2.11086 0
M  V30 1565 H 162.586 -4.02382 -2.94771 0
M  V30 1566 H 161.74 -3.19979 -5.15459 0
M  V30 1567 H 160.479 -2.23715 -4.33362 0
M  V30 1568 H 159.484 -4.33579 -3.38067 0
M  V30 1569 H 160.709 -5.30921 -4.23438 0
M  V30 1570 H 158.655 -3.49318 -5.55259 0
M  V30 1571 H 158.572 -5.22219 -5.46647 0
M  V30 1572 H 159.84 -4.469 -6.38671 0
M  V30 1573 N 164.069 0.697108 -1.41344 0
M  V30 1574 C 164.999 1.82353 -1.45841 0
M  V30 1575 C 165.98 1.67115 -0.317247 0
M  V30 1576 O 167.165 1.86871 -0.528474 0
M  V30 1577 C 164.295 3.20476 -1.33838 0
M  V30 1578 C 163.249 3.50415 -2.4575 0
M  V30 1579 C 162.575 4.87878 -2.18813 0
M  V30 1580 C 163.875 3.49546 -3.88091 0
M  V30 1581 H 165.569 1.78846 -2.40113 0
M  V30 1582 H 163.115 0.859028 -1.15571 0
M  V30 1583 H 165.068 3.98988 -1.35596 0
M  V30 1584 H 163.792 3.24604 -0.360498 0
M  V30 1585 H 162.451 2.74253 -2.43271 0
M  V30 1586 H 162.099 4.8863 -1.19371 0
M  V30 1587 H 161.799 5.08875 -2.93803 0
M  V30 1588 H 163.323 5.68702 -2.22284 0
M  V30 1589 H 164.737 4.18066 -3.92293 0
M  V30 1590 H 163.134 3.82075 -4.62751 0
M  V30 1591 H 164.204 2.48552 -4.16353 0
M  V30 1592 N 165.547 1.27147 0.931209 0
M  V30 1593 C 166.824 1.0401 1.65654 0
M  V30 1594 C 167.204 -0.426297 2.06751 0
M  V30 1595 O 166.552 -1.40879 1.79904 0
M  V30 1596 C 166.762 1.99834 2.86125 0
M  V30 1597 C 168.11 2.29007 3.57549 0
M  V30 1598 O 169.134 1.97779 2.96246 0
M  V30 1599 O 167.993 2.82222 4.67989 0
M  V30 1600 H 165.087 0.396239 0.725895 0
M  V30 1601 H 167.633 1.38397 0.982056 0
M  V30 1602 H 166.405 2.98744 2.52721 0
M  V30 1603 H 166.028 1.65987 3.61295 0
M  V30 1604 N 167.025 -1.13721 1.09112 0
M  V30 1605 C 167.955 -2.21148 0.749385 0
M  V30 1606 C 168.936 -1.6792 -0.271475 0
M  V30 1607 O 170.121 -1.93693 -0.140251 0
M  V30 1608 C 167.251 -3.46905 0.165659 0
M  V30 1609 C 166.205 -4.13203 1.11567 0
M  V30 1610 C 165.531 -5.33248 0.393809 0
M  V30 1611 C 166.831 -4.60912 2.45678 0
M  V30 1612 H 168.525 -2.4999 1.64758 0
M  V30 1613 H 166.071 -1.20156 0.793626 0
M  V30 1614 H 168.024 -4.21313 -0.085466 0
M  V30 1615 H 166.748 -3.17449 -0.767714 0
M  V30 1616 H 165.407 -3.40758 1.35202 0
M  V30 1617 H 165.055 -5.00054 -0.543599 0
M  V30 1618 H 164.755 -5.78552 1.02721 0
M  V30 1619 H 166.279 -6.10413 0.150908 0
M  V30 1620 H 167.693 -5.26759 2.26269 0
M  V30 1621 H 166.09 -5.16944 3.04776 0
M  V30 1622 H 167.16 -3.75603 3.06677 0
M  V30 1623 N 168.503 -0.877838 -1.30888 0
M  V30 1624 C 169.78 -0.413052 -1.91189 0
M  V30 1625 C 170.16 1.1056 -1.79832 0
M  V30 1626 O 169.508 1.93771 -1.21099 0
M  V30 1627 C 169.718 -0.903191 -3.3711 0
M  V30 1628 C 171.066 -0.93395 -4.14201 0
M  V30 1629 O 172.09 -0.849373 -3.45925 0
M  V30 1630 O 170.949 -1.05772 -5.36167 0
M  V30 1631 H 168.043 -0.125035 -0.817493 0
M  V30 1632 H 170.589 -0.966269 -1.39504 0
M  V30 1633 H 169.361 -1.94692 -3.39427 0
M  V30 1634 H 168.984 -0.328732 -3.96239 0
M  V30 1635 N 169.982 1.44106 -0.638065 0
M  V30 1636 C 170.945 2.29138 0.0531013 0
M  V30 1637 C 171.945 1.41409 0.765506 0
M  V30 1638 O 173.135 1.63206 0.609046 0
M  V30 1639 C 170.267 3.23144 1.08584 0
M  V30 1640 H 171.46 2.91739 -0.694883 0
M  V30 1641 H 169.013 1.51134 -0.398538 0
M  V30 1642 H 169.748 2.65408 1.86357 0
M  V30 1643 H 169.533 3.87804 0.578852 0
M  V30 1644 H 171.023 3.87004 1.56899 0
M  V30 1645 N 171.46 0.379036 1.52974 0
M  V30 1646 C 172.685 -0.209353 2.06341 0
M  V30 1647 C 173.11 -1.40583 1.24972 0
M  V30 1648 O 172.468 -1.79246 0.272155 0
M  V30 1649 C 172.516 -0.567786 3.56102 0
M  V30 1650 O 171.62 -1.66318 3.77375 0
M  V30 1651 H 170.961 -0.0272919 0.663439 0
M  V30 1652 H 173.491 0.543536 1.97248 0
M  V30 1653 H 173.501 -0.835003 3.99364 0
M  V30 1654 H 172.176 0.307013 4.14765 0
M  V30 1655 H 170.753 -1.39048 3.46006 0
M  V30 1656 N 172.938 -1.57226 0.108567 0
M  V30 1657 C 174.184 -1.95121 -0.552761 0
M  V30 1658 C 174.517 -0.991345 -1.66991 0
M  V30 1659 O 173.792 -0.0267211 -1.94482 0
M  V30 1660 C 174.075 -3.43039 -1.09528 0
M  V30 1661 C 173.928 -4.49797 0.0177332 0
M  V30 1662 C 175.247 -3.92567 -1.98945 0
M  V30 1663 H 172.366 -0.709496 -0.199461 0
M  V30 1664 H 175.008 -1.89126 0.182011 0
M  V30 1665 H 173.158 -3.48279 -1.72146 0
M  V30 1666 H 174.83 -4.56661 0.652584 0
M  V30 1667 H 173.073 -4.284 0.682309 0
M  V30 1668 H 173.744 -5.50528 -0.402919 0
M  V30 1669 H 176.22 -3.89565 -1.46214 0
M  V30 1670 H 175.096 -4.96605 -2.33827 0
M  V30 1671 H 175.357 -3.32648 -2.91201 0
M  V30 1672 N 174.416 0.165178 -1.56732 0
M  V30 1673 C 175.364 1.22369 -1.97809 0
M  V30 1674 C 176.358 1.45488 -0.867741 0
M  V30 1675 O 177.564 1.45995 -1.05288 0
M  V30 1676 H 173.939 0.411486 -0.629431 0
M  V30 1677 H 175.91 0.850425 -2.86025 0
M  V30 1678 C 174.659 2.55403 -2.35934 0
M  V30 1679 H 173.982 2.38438 -3.20916 0
M  V30 1680 H 175.422 3.2814 -2.68514 0
M  V30 1681 C 173.881 3.14611 -1.20506 0
M  V30 1682 O 174.411 3.98626 -0.496016 0
M  V30 1683 N 172.617 2.7379 -0.97403 0
M  V30 1684 H 172.164 2.0557 -1.55238 0
M  V30 1685 H 172.122 3.1374 -0.203573 0
M  V30 1686 N 175.894 1.51508 0.433938 0
M  V30 1687 C 177.122 1.68157 1.20543 0
M  V30 1688 C 177.537 0.380362 1.84929 0
M  V30 1689 O 176.894 -0.641446 1.70856 0
M  V30 1690 C 176.945 2.79965 2.28696 0
M  V30 1691 O 176.666 4.05045 1.66943 0
M  V30 1692 C 178.167 3.07912 3.18912 0
M  V30 1693 H 175.387 0.56421 0.363191 0
M  V30 1694 H 177.931 1.97941 0.513754 0
M  V30 1695 H 176.086 2.5277 2.93574 0
M  V30 1696 H 176.5 4.67165 2.38448 0
M  V30 1697 H 177.974 3.89719 3.90926 0
M  V30 1698 H 178.451 2.20456 3.79863 0
M  V30 1699 H 179.057 3.36779 2.59731 0
M  V30 1700 N 177.372 -0.689602 1.41712 0
M  V30 1701 C 178.602 -1.47613 1.44548 0
M  V30 1702 C 179.01 -1.89132 0.0509034 0
M  V30 1703 O 178.353 -1.57741 -0.94146 0
M  V30 1704 C 178.415 -2.76596 2.2964 0
M  V30 1705 C 178.079 -2.57245 3.77722 0
M  V30 1706 C 179.076 -2.22804 4.69739 0
M  V30 1707 C 176.761 -2.727 4.2183 0
M  V30 1708 C 178.755 -2.04064 6.03851 0
M  V30 1709 C 176.442 -2.53576 5.56006 0
M  V30 1710 C 177.44 -2.1931 6.46832 0
M  V30 1711 O 177.128 -2.00359 7.78532 0
M  V30 1712 H 176.86 -0.461227 0.494212 0
M  V30 1713 H 179.414 -0.856045 1.86711 0
M  V30 1714 H 177.644 -3.41033 1.82301 0
M  V30 1715 H 179.333 -3.38424 2.24107 0
M  V30 1716 H 180.099 -2.10473 4.36951 0
M  V30 1717 H 175.978 -2.98353 3.51435 0
M  V30 1718 H 179.522 -1.77241 6.74708 0
M  V30 1719 H 175.419 -2.65499 5.88371 0
M  V30 1720 H 176.187 -2.15075 7.89737 0
M  V30 1721 N 178.85 -1.27639 -0.924453 0
M  V30 1722 C 179.78 -1.13166 -2.04244 0
M  V30 1723 C 180.761 -0.032256 -1.70069 0
M  V30 1724 O 181.946 -0.207328 -1.9309 0
M  V30 1725 C 179.076 -0.781496 -3.38393 0
M  V30 1726 C 178.03 -1.83449 -3.86692 0
M  V30 1727 C 177.356 -1.33822 -5.17683 0
M  V30 1728 C 178.656 -3.23917 -4.09726 0
M  V30 1729 H 180.35 -2.06689 -2.1661 0
M  V30 1730 H 177.896 -0.995136 -1.04082 0
M  V30 1731 H 179.849 -0.667057 -4.16087 0
M  V30 1732 H 178.573 0.189439 -3.2605 0
M  V30 1733 H 177.232 -1.93789 -3.11193 0
M  V30 1734 H 176.88 -0.35665 -5.01734 0
M  V30 1735 H 176.58 -2.04224 -5.50968 0
M  V30 1736 H 178.104 -1.23679 -5.97943 0
M  V30 1737 H 179.518 -3.16559 -4.77978 0
M  V30 1738 H 177.915 -3.92059 -4.54324 0
M  V30 1739 H 178.985 -3.68729 -3.14908 0
M  V30 1740 N 180.328 1.1314 -1.09713 0
M  V30 1741 C 181.739 1.66029 -0.853885 0
M  V30 1742 C 182.09 1.86241 0.617142 0
M  V30 1743 O 181.215 1.5834 1.47503 0
M  V30 1744 C 181.81 3.01599 -1.5435 0
M  V30 1745 C 180.369 3.51467 -1.34714 0
M  V30 1746 C 179.516 2.26648 -1.59769 0
M  V30 1747 H 182.467 0.970226 -1.25588 0
M  V30 1748 H 182.488 3.67709 -0.978267 0
M  V30 1749 H 182 2.86856 -2.6141 0
M  V30 1750 H 180.101 3.71408 -0.297838 0
M  V30 1751 H 180.214 4.314 -2.08401 0
M  V30 1752 H 178.578 2.33385 -1.01998 0
M  V30 1753 H 179.361 2.14467 -2.68065 0
M  V30 1754 N 181.806 0.884767 1.30421 0
M  V30 1755 C 183.054 0.502112 1.95763 0
M  V30 1756 C 183.375 -0.951815 1.70192 0
M  V30 1757 O 182.645 -1.6692 1.0254 0
M  V30 1758 H 181.225 0.182694 0.724315 0
M  V30 1759 H 183.887 1.1278 1.58955 0
M  V30 1760 H 182.983 0.672188 3.04775 0
M  V30 1761 N 183.284 -1.43765 0.645699 0
M  V30 1762 C 184.214 -2.33471 -0.0370477 0
M  V30 1763 C 185.195 -1.49042 -0.819779 0
M  V30 1764 O 186.38 -1.77726 -0.782758 0
M  V30 1765 C 183.51 -3.32311 -1.0093 0
M  V30 1766 C 182.464 -4.2667 -0.337201 0
M  V30 1767 C 181.79 -5.1549 -1.42037 0
M  V30 1768 C 183.09 -5.16657 0.765706 0
M  V30 1769 H 184.784 -2.90809 0.712069 0
M  V30 1770 H 182.33 -1.39834 0.343876 0
M  V30 1771 H 184.283 -3.9396 -1.49578 0
M  V30 1772 H 183.007 -2.73213 -1.78948 0
M  V30 1773 H 181.666 -3.66374 0.128771 0
M  V30 1774 H 181.314 -4.52735 -2.1918 0
M  V30 1775 H 181.014 -5.79438 -0.975966 0
M  V30 1776 H 182.538 -5.80012 -1.90838 0
M  V30 1777 H 183.952 -5.72158 0.361702 0
M  V30 1778 H 182.349 -5.89286 1.13413 0
M  V30 1779 H 183.419 -4.56796 1.62683 0
M  V30 1780 N 184.763 -0.387143 -1.52771 0
M  V30 1781 C 185.693 0.440551 -2.29306 0
M  V30 1782 C 186.674 1.06535 -1.32606 0
M  V30 1783 O 187.859 1.07853 -1.61497 0
M  V30 1784 C 184.989 1.56919 -3.09829 0
M  V30 1785 C 183.943 1.07054 -4.14395 0
M  V30 1786 C 183.269 2.29109 -4.83129 0
M  V30 1787 C 184.569 0.140015 -5.22112 0
M  V30 1788 H 186.263 -0.198026 -2.98744 0
M  V30 1789 H 183.809 -0.09668 -1.43675 0
M  V30 1790 H 185.762 2.15503 -3.62128 0
M  V30 1791 H 184.486 2.23532 -2.3812 0
M  V30 1792 H 183.145 0.507247 -3.63074 0
M  V30 1793 H 182.793 2.94227 -4.0797 0
M  V30 1794 H 182.493 1.96406 -5.53804 0
M  V30 1795 H 184.017 2.88339 -5.38231 0
M  V30 1796 H 185.431 0.633978 -5.69784 0
M  V30 1797 H 183.828 -0.0971485 -6.00021 0
M  V30 1798 H 184.898 -0.811711 -4.78058 0
M  V30 1799 N 186.241 1.57166 -0.116904 0
M  V30 1800 C 187.652 1.82169 0.408809 0
M  V30 1801 C 188.003 1.03393 1.66746 0
M  V30 1802 O 187.128 0.269886 2.1471 0
M  V30 1803 C 187.723 3.30429 0.748466 0
M  V30 1804 C 186.282 3.5612 1.21882 0
M  V30 1805 C 185.429 2.76374 0.226452 0
M  V30 1806 H 188.38 1.5497 -0.342063 0
M  V30 1807 H 188.401 3.44943 1.60607 0
M  V30 1808 H 187.913 3.87737 -0.167784 0
M  V30 1809 H 186.014 3.04168 2.15204 0
M  V30 1810 H 186.127 4.64705 1.16559 0
M  V30 1811 H 184.491 2.44515 0.713063 0
M  V30 1812 H 185.274 3.3644 -0.682859 0
M  V30 1813 N 187.719 -0.156864 1.56817 0
M  V30 1814 C 188.996 -0.899244 1.73704 0
M  V30 1815 C 189.376 -1.99771 0.682254 0
M  V30 1816 O 188.724 -2.26515 -0.300522 0
M  V30 1817 C 188.934 -1.45075 3.17418 0
M  V30 1818 C 190.282 -1.91802 3.7881 0
M  V30 1819 O 191.306 -1.54838 3.20786 0
M  V30 1820 O 190.165 -2.5994 4.80722 0
M  V30 1821 H 187.259 -0.424267 0.709878 0
M  V30 1822 H 189.805 -0.143561 1.69092 0
M  V30 1823 H 188.577 -0.660846 3.85679 0
M  V30 1824 H 188.2 -2.27021 3.26416 0
M  V30 1825 N 189.197 -1.51736 -0.425897 0
M  V30 1826 C 190.474 -1.55519 -1.1863 0
M  V30 1827 C 190.854 -0.326219 -2.08564 0
M  V30 1828 O 190.202 0.688012 -2.17896 0
M  V30 1829 C 190.412 -2.87521 -1.9782 0
M  V30 1830 C 191.76 -3.39899 -2.54468 0
M  V30 1831 O 192.784 -2.89148 -2.08019 0
M  V30 1832 O 191.643 -4.2848 -3.39215 0
M  V30 1833 H 188.737 -0.625739 -0.540721 0
M  V30 1834 H 191.283 -1.64055 -0.434038 0
M  V30 1835 H 190.055 -3.68422 -1.31836 0
M  V30 1836 H 189.678 -2.822 -2.80088 0
M  V30 1837 N 190.675 0.682077 -1.42076 0
M  V30 1838 C 192.091 0.994324 -1.24841 0
M  V30 1839 C 192.291 2.0096 -0.147389 0
M  V30 1840 O 191.347 2.47822 0.483782 0
M  V30 1841 C 192.66 1.50607 -2.60265 0
M  V30 1842 C 194.208 1.62421 -2.6756 0
M  V30 1843 C 194.683 2.16994 -4.03333 0
M  V30 1844 N 196.174 2.24337 -4.0525 0
M  V30 1845 C 196.909 2.67621 -5.07116 0
M  V30 1846 N 196.405 3.1041 -6.19368 0
M  V30 1847 N 198.198 2.67305 -4.94474 0
M  V30 1848 H 190.349 0.00973908 -2.12398 0
M  V30 1849 H 192.612 0.0668593 -0.945639 0
M  V30 1850 H 192.318 0.834583 -3.41654 0
M  V30 1851 H 192.192 2.48602 -2.83684 0
M  V30 1852 H 194.579 2.28678 -1.86521 0
M  V30 1853 H 194.66 0.629352 -2.47937 0
M  V30 1854 H 194.304 1.51349 -4.84826 0
M  V30 1855 H 194.234 3.17258 -4.20304 0
M  V30 1856 H 196.725 1.94158 -3.24209 0
M  V30 1857 H 197.038 3.42103 -6.92954 0
M  V30 1858 H 195.383 3.08286 -6.22884 0
M  V30 1859 H 198.574 2.33233 -4.05857 0
M  V30 1860 H 198.747 3.00718 -5.73997 0
M  V30 1861 N 192.153 1.28127 0.917671 0
M  V30 1862 C 193.402 1.14432 1.66097 0
M  V30 1863 C 193.715 -0.307247 1.93172 0
M  V30 1864 O 194.921 -0.565259 2.65551 0
M  V30 1865 C 193.377 2.00015 2.99202 0
M  V30 1866 C 192.985 3.49889 2.79789 0
M  V30 1867 C 194.729 1.94996 3.77064 0
M  V30 1868 C 192.636 4.27636 4.08511 0
M  V30 1869 H 191.566 0.424662 0.62304 0
M  V30 1870 H 194.217 1.52628 1.01868 0
M  V30 1871 H 192.599 1.54672 3.64544 0
M  V30 1872 H 193.773 4.03162 2.23152 0
M  V30 1873 H 192.088 3.56392 2.15345 0
M  V30 1874 H 194.685 2.50354 4.72469 0
M  V30 1875 H 195.028 0.925819 4.05875 0
M  V30 1876 H 195.561 2.38287 3.18534 0
M  V30 1877 H 192.3 5.30615 3.84874 0
M  V30 1878 H 191.82 3.79137 4.64774 0
M  V30 1879 H 193.499 4.37346 4.76799 0
M  V30 1880 N 193.631 -1.12557 1.10312 0
M  V30 1881 C 194.859 -1.87864 0.866873 0
M  V30 1882 C 195.274 -1.79588 -0.582557 0
M  V30 1883 O 194.631 -1.16887 -1.40156 0
M  V30 1884 C 194.682 -3.37125 1.30496 0
M  V30 1885 O 194.403 -3.45201 2.69755 0
M  V30 1886 C 195.904 -4.29373 1.10243 0
M  V30 1887 H 193.124 -0.594452 0.311236 0
M  V30 1888 H 195.668 -1.42429 1.46745 0
M  V30 1889 H 193.823 -3.80109 0.748081 0
M  V30 1890 H 194.237 -4.38056 2.88457 0
M  V30 1891 H 195.711 -5.32394 1.45811 0
M  V30 1892 H 196.188 -4.39181 0.0409492 0
M  V30 1893 H 196.794 -3.92169 1.64571 0
M  V30 1894 N 195.109 -0.891671 -1.2995 0
M  V30 1895 C 196.355 -0.514261 -1.96171 0
M  V30 1896 C 196.688 0.935506 -1.70182 0
M  V30 1897 O 195.963 1.66204 -1.01028 0
M  V30 1898 C 196.246 -0.797719 -3.51153 0
M  V30 1899 C 196.099 -2.2986 -3.86632 0
M  V30 1900 C 197.418 -0.278749 -4.39216 0
M  V30 1901 H 194.537 -0.188314 -0.712535 0
M  V30 1902 H 197.179 -1.11689 -1.53706 0
M  V30 1903 H 195.329 -0.284826 -3.87455 0
M  V30 1904 H 197.001 -2.88042 -3.60319 0
M  V30 1905 H 195.244 -2.76257 -3.34462 0
M  V30 1906 H 195.915 -2.44753 -4.94773 0
M  V30 1907 H 198.391 -0.717825 -4.09862 0
M  V30 1908 H 197.267 -0.506353 -5.46559 0
M  V30 1909 H 197.528 0.820266 -4.34424 0
M  V30 1910 N 196.587 1.43421 -0.653314 0
M  V30 1911 C 198.003 1.56341 -0.320886 0
M  V30 1912 C 198.203 1.63696 1.17499 0
M  V30 1913 O 197.259 1.59208 1.95982 0
M  V30 1914 C 198.572 2.82424 -1.03233 0
M  V30 1915 C 200.12 2.96168 -1.01259 0
M  V30 1916 C 200.595 4.25084 -1.70492 0
M  V30 1917 N 202.086 4.31948 -1.67257 0
M  V30 1918 C 202.821 5.30466 -2.17701 0
M  V30 1919 N 202.317 6.35261 -2.76434 0
M  V30 1920 N 204.11 5.2212 -2.082 0
M  V30 1921 H 196.261 1.3689 -1.62403 0
M  V30 1922 H 198.524 0.657455 -0.682977 0
M  V30 1923 H 198.23 2.83053 -2.08744 0
M  V30 1924 H 198.104 3.72653 -0.583948 0
M  V30 1925 H 200.491 2.9508 0.0341235 0
M  V30 1926 H 200.572 2.07229 -1.49966 0
M  V30 1927 H 200.216 4.26932 -2.7512 0
M  V30 1928 H 200.146 5.1292 -1.19251 0
M  V30 1929 H 202.637 3.56838 -1.24398 0
M  V30 1930 H 202.95 7.06754 -3.12601 0
M  V30 1931 H 201.295 6.35884 -2.80495 0
M  V30 1932 H 204.486 4.39166 -1.62021 0
M  V30 1933 H 204.659 5.98739 -2.47822 0
M  V30 1934 N 198.065 0.39524 1.52563 0
M  V30 1935 C 198.997 -0.472201 2.24283 0
M  V30 1936 C 200.01 -1.02178 1.26742 0
M  V30 1937 O 201.199 -0.923097 1.52778 0
M  V30 1938 C 198.299 -1.66775 2.95024 0
M  V30 1939 C 197.472 -1.2445 4.19322 0
M  V30 1940 C 196.531 -2.30539 4.7301 0
M  V30 1941 O 195.557 -1.91702 5.35947 0
M  V30 1942 N 196.759 -3.6253 4.53379 0
M  V30 1943 H 199.524 0.142282 2.99362 0
M  V30 1944 H 197.085 0.2219 1.60372 0
M  V30 1945 H 199.077 -2.37283 3.27839 0
M  V30 1946 H 197.647 -2.18845 2.23217 0
M  V30 1947 H 196.867 -0.368069 3.92478 0
M  V30 1948 H 198.155 -0.938457 5.0007 0
M  V30 1949 H 197.553 -3.96841 4.03154 0
M  V30 1950 H 196.11 -4.29055 4.90668 0
M  V30 1951 N 199.544 -1.57102 0.125237 0
M  V30 1952 C 200.79 -1.95697 -0.532035 0
M  V30 1953 C 201.123 -1.009 -1.6593 0
M  V30 1954 O 200.398 -0.047347 -1.94442 0
M  V30 1955 C 200.681 -3.44181 -1.05884 0
M  V30 1956 C 200.534 -4.49752 0.0654392 0
M  V30 1957 C 201.853 -3.94655 -1.9477 0
M  V30 1958 H 198.972 -0.711571 -0.191925 0
M  V30 1959 H 201.614 -1.88923 0.20206 0
M  V30 1960 H 199.764 -3.50085 -1.68442 0
M  V30 1961 H 201.436 -4.55943 0.700982 0
M  V30 1962 H 199.679 -4.27653 0.727709 0
M  V30 1963 H 200.35 -5.50924 -0.344505 0
M  V30 1964 H 202.826 -3.91094 -1.42074 0
M  V30 1965 H 201.702 -4.99057 -2.28546 0
M  V30 1966 H 201.963 -3.35718 -2.87656 0
M  V30 1967 N 201.022 0.148545 -1.56898 0
M  V30 1968 C 201.955 1.21293 -1.93296 0
M  V30 1969 C 202.933 1.41637 -0.798599 0
M  V30 1970 O 204.117 1.56275 -1.05406 0
M  V30 1971 C 201.244 2.5721 -2.20365 0
M  V30 1972 C 200.29 2.53469 -3.4301 0
M  V30 1973 S 201.123 2.00315 -4.96623 0
M  V30 1974 C 202.279 3.37964 -5.26812 0
M  V30 1975 H 202.512 0.902393 -2.83274 0
M  V30 1976 H 200.045 0.354094 -1.50285 0
M  V30 1977 H 202.003 3.35427 -2.36641 0
M  V30 1978 H 200.664 2.85454 -1.31054 0
M  V30 1979 H 199.857 3.53518 -3.59223 0
M  V30 1980 H 199.459 1.83359 -3.25968 0
M  V30 1981 H 201.751 4.34066 -5.20185 0
M  V30 1982 H 202.694 3.26606 -6.28279 0
M  V30 1983 H 203.102 3.35028 -4.54331 0
M  V30 1984 N 202.5 1.5196 0.417844 0
M  V30 1985 C 203.725 1.69717 1.1921 0
M  V30 1986 C 204.15 0.402148 1.83751 0
M  V30 1987 O 203.508 -0.639593 1.69643 0
M  V30 1988 C 203.556 2.82794 2.2374 0
M  V30 1989 O 202.66 2.47756 3.29683 0
M  V30 1990 H 202.001 0.565263 0.348387 0
M  V30 1991 H 204.531 1.98621 0.490985 0
M  V30 1992 H 204.541 3.07452 2.68212 0
M  V30 1993 H 203.216 3.76756 1.76146 0
M  V30 1994 H 201.793 2.33739 2.90552 0
M  V30 1995 N 203.978 -0.674533 1.42435 0
M  V30 1996 C 204.928 -1.7807 1.4239 0
M  V30 1997 C 205.912 -1.58169 0.295202 0
M  V30 1998 O 207.104 -1.68643 0.537449 0
M  V30 1999 C 204.233 -3.16532 1.32901 0
M  V30 2000 C 203.319 -3.42055 2.50717 0
M  V30 2001 N 203.71 -3.38162 3.76139 0
M  V30 2002 C 202.008 -3.72692 2.44983 0
M  V30 2003 C 202.709 -3.63177 4.54398 0
M  V30 2004 N 201.685 -3.83954 3.84812 0
M  V30 2005 H 205.487 -1.73454 2.37257 0
M  V30 2006 H 203.001 -0.875381 1.36788 0
M  V30 2007 H 204.998 -3.958 1.30951 0
M  V30 2008 H 203.658 -3.22345 0.390363 0
M  V30 2009 H 204.669 -3.18057 4.0873 0
M  V30 2010 H 201.346 -3.85749 1.59699 0
M  V30 2011 H 202.736 -3.66125 5.63384 0
M  V30 2012 N 205.456 -1.28612 -0.910864 0
M  V30 2013 C 206.872 -1.06381 -1.18976 0
M  V30 2014 C 207.072 0.191998 -2.00583 0
M  V30 2015 O 206.128 0.892869 -2.36187 0
M  V30 2016 C 207.441 -2.31295 -1.92154 0
M  V30 2017 C 208.989 -2.36503 -2.05025 0
M  V30 2018 C 209.464 -3.61191 -2.81612 0
M  V30 2019 N 210.955 -3.61847 -2.89172 0
M  V30 2020 C 211.69 -4.55004 -3.4894 0
M  V30 2021 N 211.186 -5.58482 -4.09963 0
M  V30 2022 N 212.979 -4.42594 -3.46506 0
M  V30 2023 H 205.13 -2.09221 -0.366094 0
M  V30 2024 H 207.393 -0.921003 -0.224629 0
M  V30 2025 H 207.099 -3.228 -1.39618 0
M  V30 2026 H 206.973 -2.37934 -2.9269 0
M  V30 2027 H 209.36 -1.45494 -2.5674 0
M  V30 2028 H 209.441 -2.33857 -1.03657 0
M  V30 2029 H 209.085 -4.52545 -2.30576 0
M  V30 2030 H 209.015 -3.61092 -3.83302 0
M  V30 2031 H 211.506 -2.87022 -2.45819 0
M  V30 2032 H 211.819 -6.25704 -4.53557 0
M  V30 2033 H 210.164 -5.62305 -4.08459 0
M  V30 2034 H 213.355 -3.60953 -2.98045 0
M  V30 2035 H 213.528 -5.15381 -3.92793 0
M  V30 2036 N 206.934 1.1197 -1.10907 0
M  V30 2037 C 208.159 1.87942 -0.877064 0
M  V30 2038 C 208.584 1.79341 0.567314 0
M  V30 2039 O 207.942 1.15184 1.40009 0
M  V30 2040 C 207.99 3.34926 -1.33629 0
M  V30 2041 O 207.094 4.09303 -0.504447 0
M  V30 2042 H 206.435 0.583785 -0.316371 0
M  V30 2043 H 208.965 1.4157 -1.47712 0
M  V30 2044 H 208.975 3.8577 -1.32837 0
M  V30 2045 H 207.65 3.40504 -2.3881 0
M  V30 2046 H 206.227 3.68393 -0.577993 0
M  V30 2047 N 208.412 0.89855 1.29475 0
M  V30 2048 C 209.66 0.522847 1.9522 0
M  V30 2049 C 209.981 -0.93371 1.71192 0
M  V30 2050 O 209.251 -1.65823 1.04305 0
M  V30 2051 H 207.831 0.190366 0.722336 0
M  V30 2052 H 210.493 1.14459 1.5775 0
M  V30 2053 H 209.589 0.704476 3.04045 0
M  V30 2054 N 209.89 -1.43072 0.660911 0
M  V30 2055 C 210.82 -2.33497 -0.0122829 0
M  V30 2056 C 211.801 -1.49903 -0.803925 0
M  V30 2057 O 212.986 -1.78546 -0.763864 0
M  V30 2058 C 210.116 -3.33363 -0.973994 0
M  V30 2059 C 209.07 -4.27003 -0.291928 0
M  V30 2060 C 208.396 -5.16967 -1.36562 0
M  V30 2061 C 209.696 -5.15816 0.820462 0
M  V30 2062 H 211.39 -2.90038 0.742873 0
M  V30 2063 H 208.936 -1.39461 0.358688 0
M  V30 2064 H 210.889 -3.95524 -1.45392 0
M  V30 2065 H 209.613 -2.75095 -1.7604 0
M  V30 2066 H 208.272 -3.66217 0.167623 0
M  V30 2067 H 207.92 -4.55034 -2.14366 0
M  V30 2068 H 207.62 -5.80441 -0.914454 0
M  V30 2069 H 209.144 -5.82003 -1.84675 0
M  V30 2070 H 210.558 -5.71742 0.422366 0
M  V30 2071 H 208.955 -5.8805 1.19656 0
M  V30 2072 H 210.025 -4.55045 1.67518 0
M  V30 2073 N 211.368 -0.403325 -1.52352 0
M  V30 2074 C 212.598 0.17376 -2.05868 0
M  V30 2075 C 213.006 1.39898 -1.27378 0
M  V30 2076 O 212.349 1.80939 -0.31729 0
M  V30 2077 C 212.411 0.594756 -3.54546 0
M  V30 2078 C 212.075 -0.518926 -4.54044 0
M  V30 2079 C 213.072 -1.3807 -5.01231 0
M  V30 2080 C 210.757 -0.689961 -4.97539 0
M  V30 2081 C 212.751 -2.39852 -5.90551 0
M  V30 2082 C 210.438 -1.71109 -5.86656 0
M  V30 2083 C 211.436 -2.56378 -6.33056 0
M  V30 2084 O 211.124 -3.56743 -7.20409 0
M  V30 2085 H 210.856 0.0264951 -0.675481 0
M  V30 2086 H 213.41 -0.571179 -1.97299 0
M  V30 2087 H 211.64 1.39189 -3.60782 0
M  V30 2088 H 213.329 1.0991 -3.90736 0
M  V30 2089 H 214.095 -1.25994 -4.68349 0
M  V30 2090 H 209.974 -0.035939 -4.60986 0
M  V30 2091 H 213.518 -3.06441 -6.26689 0
M  V30 2092 H 209.415 -1.83218 -6.18952 0
M  V30 2093 H 210.183 -3.52918 -7.38506 0
M  V30 2094 N 212.846 1.57033 -0.133567 0
M  V30 2095 C 214.123 1.87256 0.56522 0
M  V30 2096 C 214.503 1.03726 1.83859 0
M  V30 2097 O 213.851 0.120247 2.28183 0
M  V30 2098 C 214.061 3.3865 0.843636 0
M  V30 2099 C 215.409 4.07574 1.19032 0
M  V30 2100 O 216.433 3.43752 0.933429 0
M  V30 2101 O 215.292 5.20259 1.67312 0
M  V30 2102 H 212.386 0.775678 0.286796 0
M  V30 2103 H 214.932 1.68855 -0.169168 0
M  V30 2104 H 213.704 3.91257 -0.0581149 0
M  V30 2105 H 213.327 3.62532 1.63268 0
M  V30 2106 N 214.325 -0.140222 1.56975 0
M  V30 2107 C 215.555 -0.865181 1.87612 0
M  V30 2108 C 215.963 -1.74942 0.72055 0
M  V30 2109 O 215.306 -1.80917 -0.318561 0
M  V30 2110 C 215.368 -1.76782 3.13031 0
M  V30 2111 C 215.032 -1.06005 4.44536 0
M  V30 2112 C 216.029 -0.410768 5.18275 0
M  V30 2113 C 213.714 -1.04754 4.91255 0
M  V30 2114 C 215.708 0.241572 6.36942 0
M  V30 2115 C 213.395 -0.391394 6.09845 0
M  V30 2116 C 214.393 0.252029 6.82535 0
M  V30 2117 O 214.081 0.897757 7.98871 0
M  V30 2118 H 213.813 -0.255188 0.625983 0
M  V30 2119 H 216.367 -0.135653 2.04952 0
M  V30 2120 H 214.597 -2.53846 2.91718 0
M  V30 2121 H 216.286 -2.36533 3.29859 0
M  V30 2122 H 217.052 -0.412195 4.83245 0
M  V30 2123 H 212.931 -1.53777 4.34596 0
M  V30 2124 H 216.475 0.744375 6.93617 0
M  V30 2125 H 212.372 -0.387656 6.44335 0
M  V30 2126 H 213.14 0.800102 8.1458 0
M  V30 2127 N 215.803 -1.52179 -0.40978 0
M  V30 2128 C 217.031 -1.70054 -1.17853 0
M  V30 2129 C 217.446 -0.409735 -1.843 0
M  V30 2130 O 216.803 0.614183 -1.71855 0
M  V30 2131 C 216.854 -2.83568 -2.24213 0
M  V30 2132 O 216.575 -4.0765 -1.60478 0
M  V30 2133 C 218.076 -3.12947 -3.13973 0
M  V30 2134 H 215.296 -0.569917 -0.354169 0
M  V30 2135 H 217.84 -1.98734 -0.482198 0
M  V30 2136 H 215.995 -2.57409 -2.89516 0
M  V30 2137 H 216.409 -4.70899 -2.30986 0
M  V30 2138 H 217.883 -3.95889 -3.84677 0
M  V30 2139 H 218.36 -2.26472 -3.76307 0
M  V30 2140 H 218.966 -3.40868 -2.5434 0
M  V30 2141 N 217.281 0.66697 -1.42791 0
M  V30 2142 C 218.229 1.80157 -1.47127 0
M  V30 2143 C 219.223 1.65825 -0.346199 0
M  V30 2144 O 220.429 1.72338 -0.519572 0
M  V30 2145 H 216.804 0.594158 -0.460956 0
M  V30 2146 H 218.775 1.73619 -2.42692 0
M  V30 2147 C 217.524 3.18351 -1.39813 0
M  V30 2148 H 216.847 3.3001 -2.25684 0
M  V30 2149 H 218.287 3.97736 -1.46908 0
M  V30 2150 C 216.746 3.36707 -0.11391 0
M  V30 2151 O 217.276 3.93027 0.830241 0
M  V30 2152 N 215.482 2.90586 -0.0285295 0
M  V30 2153 H 215.029 2.4494 -0.79764 0
M  V30 2154 H 214.987 3.03245 0.830063 0
M  V30 2155 N 218.759 1.29093 0.90403 0
M  V30 2156 C 220.036 1.075 1.63411 0
M  V30 2157 C 220.416 -0.382346 2.07609 0
M  V30 2158 O 219.764 -1.37031 1.82851 0
M  V30 2159 C 219.974 2.05858 2.81822 0
M  V30 2160 C 221.322 2.36539 3.52611 0
M  V30 2161 O 222.346 2.04019 2.91984 0
M  V30 2162 O 221.205 2.92085 4.61897 0
M  V30 2163 H 218.299 0.411547 0.717327 0
M  V30 2164 H 220.845 1.40449 0.952479 0
M  V30 2165 H 219.617 3.04037 2.46327 0
M  V30 2166 H 219.24 1.73613 3.57693 0
M  V30 2167 N 220.237 -1.11381 1.11499 0
M  V30 2168 C 221.17 -2.16621 0.71769 0
M  V30 2169 C 222.148 -1.60058 -0.286413 0
M  V30 2170 O 223.332 -1.87613 -0.182689 0
M  V30 2171 C 220.459 -3.38646 0.0607265 0
M  V30 2172 C 219.505 -4.13874 1.03008 0
M  V30 2173 S 220.338 -4.70731 2.55289 0
M  V30 2174 C 221.494 -5.96079 1.90895 0
M  V30 2175 H 221.727 -2.49987 1.60915 0
M  V30 2176 H 219.26 -1.23015 0.933092 0
M  V30 2177 H 221.218 -4.09313 -0.311965 0
M  V30 2178 H 219.879 -3.03537 -0.807702 0
M  V30 2179 H 219.072 -5.01333 0.517853 0
M  V30 2180 H 218.674 -3.4897 1.34522 0
M  V30 2181 H 220.966 -6.65948 1.24577 0
M  V30 2182 H 221.909 -6.51946 2.76354 0
M  V30 2183 H 222.317 -5.47652 1.36885 0
M  V30 2184 N 221.715 -0.905404 -1.28997 0
M  V30 2185 C 222.962 -0.534248 -1.95325 0
M  V30 2186 C 223.29 0.920535 -1.71337 0
M  V30 2187 O 222.545 1.66861 -1.02254 0
M  V30 2188 C 222.844 -0.779906 -3.48787 0
M  V30 2189 C 222.51 -2.21293 -3.92861 0
M  V30 2190 C 221.172 -2.60475 -4.04606 0
M  V30 2191 C 223.524 -3.14587 -4.15553 0
M  V30 2192 C 220.852 -3.9212 -4.36416 0
M  V30 2193 C 223.204 -4.45787 -4.48839 0
M  V30 2194 C 221.868 -4.84834 -4.58794 0
M  V30 2195 H 221.138 -0.195495 -0.714747 0
M  V30 2196 H 223.785 -1.14514 -1.53488 0
M  V30 2197 H 222.09 -0.0861365 -3.91705 0
M  V30 2198 H 223.787 -0.472029 -3.98212 0
M  V30 2199 H 220.377 -1.89887 -3.84241 0
M  V30 2200 H 224.561 -2.85528 -4.0594 0
M  V30 2201 H 219.817 -4.22086 -4.42327 0
M  V30 2202 H 223.991 -5.18098 -4.65346 0
M  V30 2203 H 221.618 -5.86877 -4.83197 0
M  V30 2204 N 223.193 1.4272 -0.668489 0
M  V30 2205 C 224.156 2.292 0.00448567 0
M  V30 2206 C 225.156 1.43001 0.735339 0
M  V30 2207 O 226.346 1.64461 0.57429 0
M  V30 2208 C 223.478 3.25375 1.01705 0
M  V30 2209 H 224.671 2.90199 -0.756608 0
M  V30 2210 H 222.224 1.50254 -0.430506 0
M  V30 2211 H 222.959 2.69301 1.80686 0
M  V30 2212 H 222.744 3.88944 0.496463 0
M  V30 2213 H 224.234 3.90245 1.48655 0
M  V30 2214 N 224.671 0.411399 1.52136 0
M  V30 2215 C 225.603 -0.448386 2.24771 0
M  V30 2216 C 226.616 -1.00828 1.27818 0
M  V30 2217 O 227.805 -0.906841 1.53749 0
M  V30 2218 C 224.905 -1.63636 2.96777 0
M  V30 2219 C 224.078 -1.19995 4.20618 0
M  V30 2220 C 223.137 -2.25509 4.75428 0
M  V30 2221 O 222.163 -1.86007 5.3795 0
M  V30 2222 N 223.365 -3.577 4.57199 0
M  V30 2223 H 226.13 0.174025 2.99194 0
M  V30 2224 H 223.691 0.238897 1.60128 0
M  V30 2225 H 225.683 -2.33793 3.30338 0
M  V30 2226 H 224.253 -2.16465 2.25526 0
M  V30 2227 H 223.473 -0.326421 3.92846 0
M  V30 2228 H 224.761 -0.885365 5.01038 0
M  V30 2229 H 224.159 -3.92543 4.07341 0
M  V30 2230 H 222.716 -4.23827 4.95191 0
M  V30 2231 N 226.149 -1.5696 0.141893 0
M  V30 2232 C 227.377 -2.00322 -0.517579 0
M  V30 2233 C 227.792 -1.02193 -1.58752 0
M  V30 2234 O 227.149 -0.0181619 -1.82491 0
M  V30 2235 C 227.2 -3.43618 -1.12289 0
M  V30 2236 O 226.921 -4.37995 -0.0956929 0
M  V30 2237 C 228.422 -4.02231 -1.86347 0
M  V30 2238 H 225.642 -0.657243 -0.135177 0
M  V30 2239 H 228.186 -2.03146 0.234973 0
M  V30 2240 H 226.341 -3.41662 -1.82609 0
M  V30 2241 H 226.755 -5.21729 -0.538469 0
M  V30 2242 H 228.229 -5.04509 -2.23997 0
M  V30 2243 H 228.706 -3.42655 -2.74744 0
M  V30 2244 H 229.312 -4.07802 -1.20737 0
M  V30 2245 N 227.627 0.131896 -1.57047 0
M  V30 2246 C 228.873 0.843179 -1.84441 0
M  V30 2247 C 229.206 1.80129 -0.725749 0
M  V30 2248 O 228.481 1.92624 0.269469 0
M  V30 2249 C 228.764 1.60442 -3.22382 0
M  V30 2250 C 228.617 0.666782 -4.4483 0
M  V30 2251 C 229.936 2.56354 -3.5773 0
M  V30 2252 H 227.055 0.305081 -0.670891 0
M  V30 2253 H 229.697 0.107839 -1.89694 0
M  V30 2254 H 227.847 2.23128 -3.18035 0
M  V30 2255 H 229.519 0.0497646 -4.61273 0
M  V30 2256 H 227.762 -0.022609 -4.33794 0
M  V30 2257 H 228.433 1.23579 -5.37989 0
M  V30 2258 H 230.909 2.0378 -3.62785 0
M  V30 2259 H 229.785 3.06657 -4.5525 0
M  V30 2260 H 230.046 3.38419 -2.84473 0
M  V30 2261 N 229.106 1.52395 0.401703 0
M  V30 2262 C 230.517 1.58899 0.980202 0
M  V30 2263 C 230.868 0.434032 1.91339 0
M  V30 2264 O 229.993 -0.444619 2.11783 0
M  V30 2265 C 230.588 2.87994 1.78451 0
M  V30 2266 C 229.147 2.96953 2.31292 0
M  V30 2267 C 228.294 2.53903 1.11483 0
M  V30 2268 H 231.245 1.57657 0.18168 0
M  V30 2269 H 231.266 2.73765 2.64259 0
M  V30 2270 H 230.778 3.72035 1.10506 0
M  V30 2271 H 228.879 2.17422 3.02586 0
M  V30 2272 H 228.992 4.01344 2.61649 0
M  V30 2273 H 227.356 2.07925 1.47104 0
M  V30 2274 H 228.139 3.40326 0.450928 0
M  V30 2275 N 230.584 -0.659388 1.43143 0
M  V30 2276 C 231.832 -1.41654 1.44147 0
M  V30 2277 C 232.153 -1.94893 0.0645739 0
M  V30 2278 O 231.423 -1.74044 -0.899198 0
M  V30 2279 H 230.003 -0.525708 0.530697 0
M  V30 2280 H 232.665 -0.778097 1.78694 0
M  V30 2281 H 231.761 -2.26195 2.1504 0
M  V30 2282 N 232.062 -1.29571 -0.897171 0
M  V30 2283 C 233.309 -1.17689 -1.6479 0
M  V30 2284 C 233.637 0.27107 -1.92602 0
M  V30 2285 O 232.892 1.21193 -1.53658 0
M  V30 2286 C 233.191 -1.9382 -3.00281 0
M  V30 2287 C 232.857 -3.43522 -2.92068 0
M  V30 2288 C 231.519 -3.84348 -2.89535 0
M  V30 2289 C 233.871 -4.38906 -2.81089 0
M  V30 2290 C 231.199 -5.18869 -2.73846 0
M  V30 2291 C 233.551 -5.73521 -2.66939 0
M  V30 2292 C 232.215 -6.13601 -2.62774 0
M  V30 2293 H 231.485 -0.430654 -0.603008 0
M  V30 2294 H 234.132 -1.60536 -1.04404 0
M  V30 2295 H 232.437 -1.4357 -3.64547 0
M  V30 2296 H 234.134 -1.82028 -3.57305 0
M  V30 2297 H 230.724 -3.11072 -2.94842 0
M  V30 2298 H 234.908 -4.08315 -2.82121 0
M  V30 2299 H 230.164 -5.4903 -2.69027 0
M  V30 2300 H 234.338 -6.47078 -2.57416 0
M  V30 2301 H 231.965 -7.17786 -2.50375 0
M  V30 2302 N 233.54 1.10788 -1.12088 0
M  V30 2303 C 234.45 2.20599 -0.798338 0
M  V30 2304 C 235.466 1.72712 0.21135 0
M  V30 2305 O 236.642 2.01348 0.0458477 0
M  V30 2306 C 233.707 3.45771 -0.253674 0
M  V30 2307 C 232.768 4.08411 -1.32283 0
M  V30 2308 C 232.001 5.27608 -0.80406 0
M  V30 2309 O 232.224 5.69241 0.363478 0
M  V30 2310 O 231.158 5.8101 -1.57198 0
M  V30 2311 H 234.984 2.50614 -1.7154 0
M  V30 2312 H 232.569 1.19454 -0.897275 0
M  V30 2313 H 234.451 4.21376 0.0453691 0
M  V30 2314 H 233.126 3.1739 0.636005 0
M  V30 2315 H 232.033 3.34507 -1.67499 0
M  V30 2316 H 233.366 4.40986 -2.18614 0
M  V30 2317 N 235.018 0.912232 1.28515 0
M  V30 2318 C 236.243 0.559774 1.99703 0
M  V30 2319 C 236.668 -0.851393 1.67729 0
M  V30 2320 O 236.026 -1.56875 0.908834 0
M  V30 2321 C 236.074 0.773874 3.52198 0
M  V30 2322 O 235.178 -0.167842 4.12058 0
M  V30 2323 H 234.519 0.21723 0.627461 0
M  V30 2324 H 237.049 1.22725 1.63706 0
M  V30 2325 H 237.059 0.683386 4.02236 0
M  V30 2326 H 235.734 1.80261 3.74805 0
M  V30 2327 H 234.311 -0.0287509 3.72889 0
M  V30 2328 N 236.496 -1.42363 0.676048 0
M  V30 2329 C 237.742 -2.0182 0.199125 0
M  V30 2330 C 238.075 -1.53339 -1.19168 0
M  V30 2331 O 237.35 -0.736124 -1.80032 0
M  V30 2332 C 237.633 -3.59331 0.235144 0
M  V30 2333 C 237.486 -4.17989 1.66149 0
M  V30 2334 C 238.805 -4.3813 -0.41595 0
M  V30 2335 H 235.924 -0.733293 0.0738311 0
M  V30 2336 H 238.566 -1.69368 0.86107 0
M  V30 2337 H 236.716 -3.87109 -0.328487 0
M  V30 2338 H 238.388 -4.0116 2.27747 0
M  V30 2339 H 236.631 -3.7377 2.20178 0
M  V30 2340 H 237.302 -5.27126 1.63837 0
M  V30 2341 H 239.778 -4.16051 0.0638529 0
M  V30 2342 H 238.654 -5.47717 -0.360115 0
M  V30 2343 H 238.915 -4.16101 -1.49373 0
M  V30 2344 N 237.974 -0.419461 -1.51915 0
M  V30 2345 C 239.39 -0.0708431 -1.59443 0
M  V30 2346 C 239.59 1.41796 -1.43164 0
M  V30 2347 O 238.646 2.18596 -1.26381 0
M  V30 2348 C 239.959 -0.574991 -2.95151 0
M  V30 2349 C 241.507 -0.533867 -3.08413 0
M  V30 2350 C 241.982 -1.01469 -4.46618 0
M  V30 2351 N 243.473 -0.971939 -4.52888 0
M  V30 2352 C 244.208 -1.31505 -5.58116 0
M  V30 2353 N 243.704 -1.73014 -6.70849 0
M  V30 2354 N 245.497 -1.23436 -5.48379 0
M  V30 2355 H 237.648 -1.38836 -1.60743 0
M  V30 2356 H 239.911 -0.570998 -0.756747 0
M  V30 2357 H 239.617 -1.61597 -3.12377 0
M  V30 2358 H 239.491 0.00979777 -3.77199 0
M  V30 2359 H 241.878 0.498086 -2.90866 0
M  V30 2360 H 241.959 -1.15484 -2.28248 0
M  V30 2361 H 241.603 -2.04502 -4.6491 0
M  V30 2362 H 241.533 -0.370433 -5.25295 0
M  V30 2363 H 244.024 -0.666893 -3.71969 0
M  V30 2364 H 244.337 -1.97479 -7.47143 0
M  V30 2365 H 242.682 -1.76926 -6.72103 0
M  V30 2366 H 245.873 -0.908869 -4.59192 0
M  V30 2367 H 246.046 -1.50506 -6.30279 0
M  V30 2368 N 239.452 1.56882 -0.150215 0
M  V30 2369 C 240.4 2.18214 0.805313 0
M  V30 2370 C 241.394 1.14006 1.25296 0
M  V30 2371 O 242.6 1.3225 1.22107 0
M  V30 2372 H 238.975 0.698762 0.277913 0
M  V30 2373 H 240.946 2.97231 0.263862 0
M  V30 2374 C 239.695 2.82065 2.03309 0
M  V30 2375 H 239.018 3.61968 1.69763 0
M  V30 2376 H 240.458 3.28477 2.68103 0
M  V30 2377 C 238.917 1.80739 2.84315 0
M  V30 2378 O 239.447 1.27983 3.80767 0
M  V30 2379 N 237.653 1.4997 2.48913 0
M  V30 2380 H 237.2 1.93062 1.70542 0
M  V30 2381 H 237.158 0.824217 3.03404 0
M  V30 2382 N 240.93 -0.123565 1.57115 0
M  V30 2383 C 241.877 -1.15177 2.00007 0
M  V30 2384 C 242.847 -1.41403 0.871454 0
M  V30 2385 O 244.032 -1.53346 1.13533 0
M  V30 2386 C 241.172 -2.47436 2.40561 0
M  V30 2387 C 240.285 -2.28184 3.66819 0
M  V30 2388 C 239.42 -3.53641 3.96373 0
M  V30 2389 C 238.459 -3.29528 5.15827 0
M  V30 2390 N 237.596 -4.47175 5.41275 0
M  V30 2391 H 242.436 -0.779008 2.87638 0
M  V30 2392 H 239.973 -0.373166 1.42288 0
M  V30 2393 H 241.931 -3.24584 2.62109 0
M  V30 2394 H 240.561 -2.82614 1.55978 0
M  V30 2395 H 239.613 -1.41976 3.52912 0
M  V30 2396 H 240.925 -2.0634 4.5412 0
M  V30 2397 H 240.079 -4.39209 4.18545 0
M  V30 2398 H 238.818 -3.78512 3.07538 0
M  V30 2399 H 237.823 -2.42349 4.93505 0
M  V30 2400 H 239.048 -3.06031 6.06236 0
M  V30 2401 H 236.994 -4.72175 4.55397 0
M  V30 2402 H 236.911 -4.28419 6.22891 0
M  V30 2403 H 238.179 -5.3389 5.67963 0
M  V30 2404 N 242.408 -1.52605 -0.393616 0
M  V30 2405 C 243.654 -1.67672 -1.14079 0
M  V30 2406 C 243.987 -0.413121 -1.89755 0
M  V30 2407 O 243.262 0.588952 -1.85369 0
M  V30 2408 C 243.545 -2.9088 -2.12276 0
M  V30 2409 C 243.398 -4.27329 -1.40394 0
M  V30 2410 C 244.717 -3.09628 -3.12759 0
M  V30 2411 H 241.836 -0.610168 -0.413356 0
M  V30 2412 H 244.478 -1.85193 -0.424696 0
M  V30 2413 H 242.628 -2.76073 -2.73342 0
M  V30 2414 H 244.3 -4.53894 -0.82327 0
M  V30 2415 H 242.543 -4.2802 -0.705801 0
M  V30 2416 H 243.214 -5.09615 -2.12123 0
M  V30 2417 H 245.69 -3.23436 -2.61779 0
M  V30 2418 H 244.566 -3.97322 -3.78717 0
M  V30 2419 H 244.827 -2.23637 -3.81365 0
M  V30 2420 N 243.887 0.651787 -1.4349 0
M  V30 2421 C 245.134 1.41167 -1.45183 0
M  V30 2422 C 245.462 1.94349 -0.0766601 0
M  V30 2423 O 244.717 1.72804 0.918555 0
M  V30 2424 C 245.016 2.60914 -2.44251 0
M  V30 2425 C 244.682 2.26142 -3.9009 0
M  V30 2426 C 243.344 2.16371 -4.2981 0
M  V30 2427 C 245.696 1.98334 -4.81989 0
M  V30 2428 C 243.024 1.7695 -5.5938 0
M  V30 2429 C 245.376 1.6041 -6.11924 0
M  V30 2430 C 244.04 1.49166 -6.5062 0
M  V30 2431 H 243.31 0.516566 -0.531263 0
M  V30 2432 H 245.957 0.741099 -1.76579 0
M  V30 2433 H 244.262 3.3311 -2.06265 0
M  V30 2434 H 245.959 3.19127 -2.42815 0
M  V30 2435 H 242.549 2.34658 -3.58655 0
M  V30 2436 H 246.733 2.04803 -4.52072 0
M  V30 2437 H 241.989 1.66831 -5.88198 0
M  V30 2438 H 246.163 1.37925 -6.82605 0
M  V30 2439 H 243.79 1.1839 -7.50925 0
M  V30 2440 N 245.365 1.30045 0.890287 0
M  V30 2441 C 246.59 1.21598 1.68014 0
M  V30 2442 C 247.015 -0.218678 1.86825 0
M  V30 2443 O 246.373 -1.15756 1.39536 0
M  V30 2444 C 246.421 1.94434 3.03691 0
M  V30 2445 O 245.525 1.2678 3.92429 0
M  V30 2446 H 244.866 0.420856 0.513592 0
M  V30 2447 H 247.396 1.71775 1.11151 0
M  V30 2448 H 247.406 2.03251 3.5377 0
M  V30 2449 H 246.081 2.98777 2.89318 0
M  V30 2450 H 244.658 1.26282 3.50866 0
M  V30 2451 N 246.843 -1.10192 1.12674 0
M  V30 2452 C 248.073 -1.85713 0.905213 0
M  V30 2453 C 248.481 -1.81056 -0.549108 0
M  V30 2454 O 247.824 -1.19927 -1.39151 0
M  V30 2455 C 247.886 -3.34972 1.30516 0
M  V30 2456 C 247.55 -3.63385 2.77129 0
M  V30 2457 C 248.547 -3.59772 3.75313 0
M  V30 2458 C 246.232 -3.91981 3.14096 0
M  V30 2459 C 248.226 -3.84354 5.08479 0
M  V30 2460 C 245.913 -4.16218 4.47443 0
M  V30 2461 C 246.911 -4.12395 5.44444 0
M  V30 2462 O 246.599 -4.36014 6.75387 0
M  V30 2463 H 246.331 -0.593719 0.323223 0
M  V30 2464 H 248.885 -1.40198 1.50112 0
M  V30 2465 H 247.115 -3.81156 0.652463 0
M  V30 2466 H 248.804 -3.91886 1.05736 0
M  V30 2467 H 249.57 -3.37716 3.48099 0
M  V30 2468 H 245.449 -3.94085 2.39202 0
M  V30 2469 H 248.993 -3.81285 5.84181 0
M  V30 2470 H 244.89 -4.37754 4.74386 0
M  V30 2471 H 245.658 -4.53516 6.8137 0
M  V30 2472 N 248.321 -0.919034 -1.28029 0
M  V30 2473 C 249.253 -0.368762 -2.26214 0
M  V30 2474 C 250.266 0.495716 -1.55069 0
M  V30 2475 O 251.455 0.30974 -1.75792 0
M  V30 2476 C 248.555 0.491049 -3.35324 0
M  V30 2477 C 247.728 -0.352133 -4.3598 0
M  V30 2478 C 246.787 0.443622 -5.24327 0
M  V30 2479 O 245.813 -0.14566 -5.69014 0
M  V30 2480 N 247.015 1.74545 -5.53637 0
M  V30 2481 H 249.78 -1.21273 -2.74068 0
M  V30 2482 H 247.341 -0.785541 -1.41566 0
M  V30 2483 H 249.333 1.03026 -3.91366 0
M  V30 2484 H 247.903 1.23574 -2.87138 0
M  V30 2485 H 247.123 -1.07269 -3.79324 0
M  V30 2486 H 248.411 -0.928883 -5.00249 0
M  V30 2487 H 247.809 2.24666 -5.19174 0
M  V30 2488 H 246.366 2.23138 -6.12416 0
M  V30 2489 N 249.799 1.42003 -0.683588 0
M  V30 2490 C 251.076 1.95112 -0.138075 0
M  V30 2491 C 251.456 1.62359 1.34918 0
M  V30 2492 O 250.804 0.924311 2.08971 0
M  V30 2493 C 251.014 3.46505 -0.416581 0
M  V30 2494 C 252.362 4.23254 -0.337834 0
M  V30 2495 O 253.386 3.54468 -0.35082 0
M  V30 2496 O 252.245 5.45743 -0.287596 0
M  V30 2497 H 249.339 0.826961 -0.00797996 0
M  V30 2498 H 251.885 1.51784 -0.758924 0
M  V30 2499 H 250.657 3.63582 -1.4465 0
M  V30 2500 H 250.28 3.969 0.235839 0
M  V30 2501 N 251.277 0.427512 1.51691 0
M  V30 2502 C 252.207 -0.3796 2.30394 0
M  V30 2503 C 253.188 -1.02982 1.35384 0
M  V30 2504 O 254.373 -1.03534 1.643 0
M  V30 2505 C 251.503 -1.48649 3.1388 0
M  V30 2506 C 250.457 -0.960294 4.17088 0
M  V30 2507 C 249.783 -2.16219 4.89033 0
M  V30 2508 C 251.083 -0.00153679 5.223 0
M  V30 2509 H 252.777 0.277164 2.98114 0
M  V30 2510 H 250.323 0.134739 1.43368 0
M  V30 2511 H 252.276 -2.05826 3.67714 0
M  V30 2512 H 251 -2.1714 2.43962 0
M  V30 2513 H 249.659 -0.410806 3.64291 0
M  V30 2514 H 249.307 -2.83307 4.15628 0
M  V30 2515 H 249.007 -1.81654 5.58816 0
M  V30 2516 H 250.531 -2.73968 5.45687 0
M  V30 2517 H 251.945 -0.482687 5.71264 0
M  V30 2518 H 250.342 0.256199 5.99553 0
M  V30 2519 H 251.412 0.938174 4.75738 0
M  V30 2520 N 252.755 -1.56801 0.158532 0
M  V30 2521 C 254.004 -1.95665 -0.489702 0
M  V30 2522 C 254.317 -1.04654 -1.65248 0
M  V30 2523 O 255.523 -1.33146 -2.3661 0
M  V30 2524 C 253.979 -3.47874 -0.922582 0
M  V30 2525 C 253.587 -4.47489 0.213893 0
M  V30 2526 C 255.331 -3.95583 -1.53996 0
M  V30 2527 C 253.238 -5.90921 -0.237903 0
M  V30 2528 H 252.168 -0.730516 -0.186716 0
M  V30 2529 H 254.819 -1.81861 0.244722 0
M  V30 2530 H 253.201 -3.57051 -1.71261 0
M  V30 2531 H 254.375 -4.50017 0.991036 0
M  V30 2532 H 252.69 -4.09764 0.740407 0
M  V30 2533 H 255.287 -5.0019 -1.8898 0
M  V30 2534 H 255.63 -3.37789 -2.43319 0
M  V30 2535 H 256.163 -3.8937 -0.814611 0
M  V30 2536 H 252.902 -6.52559 0.620236 0
M  V30 2537 H 252.422 -5.91729 -0.980676 0
M  V30 2538 H 254.101 -6.43352 -0.686067 0
M  V30 2539 N 254.233 0.115231 -1.57178 0
M  V30 2540 C 255.461 0.836437 -1.89239 0
M  V30 2541 C 255.876 1.73256 -0.750175 0
M  V30 2542 O 255.233 1.80357 0.278832 0
M  V30 2543 C 255.284 1.66671 -3.20785 0
M  V30 2544 O 255.005 0.806652 -4.3061 0
M  V30 2545 C 256.506 2.49274 -3.66575 0
M  V30 2546 H 253.726 0.240253 -0.626514 0
M  V30 2547 H 256.27 0.0984932 -2.04263 0
M  V30 2548 H 254.425 2.35737 -3.0742 0
M  V30 2549 H 254.839 1.37969 -5.06028 0
M  V30 2550 H 256.313 3.03055 -4.6137 0
M  V30 2551 H 256.79 3.26807 -2.93417 0
M  V30 2552 H 257.396 1.85443 -3.82741 0
M  V30 2553 N 255.711 1.52812 0.385517 0
M  V30 2554 C 256.641 1.80808 1.47752 0
M  V30 2555 C 257.622 0.660318 1.5676 0
M  V30 2556 O 258.807 0.908246 1.71652 0
M  V30 2557 C 255.937 1.98008 2.85324 0
M  V30 2558 C 254.891 3.13709 2.91154 0
M  V30 2559 C 254.217 3.16169 4.31209 0
M  V30 2560 C 255.517 4.52709 2.60483 0
M  V30 2561 H 257.211 2.72253 1.24573 0
M  V30 2562 H 254.757 1.31003 0.597839 0
M  V30 2563 H 256.71 2.16176 3.61726 0
M  V30 2564 H 255.434 1.03255 3.09848 0
M  V30 2565 H 254.093 2.95329 2.17201 0
M  V30 2566 H 253.741 2.19092 4.52778 0
M  V30 2567 H 253.441 3.93894 4.36029 0
M  V30 2568 H 254.965 3.36496 5.09512 0
M  V30 2569 H 256.379 4.71173 3.26602 0
M  V30 2570 H 254.776 5.32528 2.76648 0
M  V30 2571 H 255.846 4.59186 1.55809 0
M  V30 2572 N 257.189 -0.644168 1.43834 0
M  V30 2573 C 258.414 -1.43642 1.49605 0
M  V30 2574 C 258.839 -1.8773 0.117913 0
M  V30 2575 O 258.197 -1.57938 -0.890239 0
M  V30 2576 C 258.245 -2.6416 2.45463 0
M  V30 2577 O 257.349 -3.63538 1.94714 0
M  V30 2578 H 256.69 -0.430329 0.50568 0
M  V30 2579 H 259.22 -0.787448 1.8884 0
M  V30 2580 H 259.23 -3.11864 2.63068 0
M  V30 2581 H 257.905 -2.31414 3.45572 0
M  V30 2582 H 256.482 -3.2273 1.86814 0
M  V30 2583 N 258.668 -1.30515 -0.883378 0
M  V30 2584 C 259.598 -1.19607 -2.00541 0
M  V30 2585 C 260.579 -0.086346 -1.69881 0
M  V30 2586 O 261.764 -0.268654 -1.92333 0
M  V30 2587 C 258.894 -0.888758 -3.35736 0
M  V30 2588 C 257.848 -1.95659 -3.8066 0
M  V30 2589 C 257.174 -1.50224 -5.13164 0
M  V30 2590 C 258.474 -3.36788 -3.99213 0
M  V30 2591 H 260.168 -2.13476 -2.09925 0
M  V30 2592 H 257.714 -1.02775 -1.00863 0
M  V30 2593 H 259.667 -0.799094 -4.13754 0
M  V30 2594 H 258.391 0.0856125 -3.26488 0
M  V30 2595 H 257.05 -2.03591 -3.04871 0
M  V30 2596 H 256.698 -0.516092 -5.00345 0
M  V30 2597 H 256.398 -2.2165 -5.44192 0
M  V30 2598 H 257.922 -1.42639 -5.93706 0
M  V30 2599 H 259.336 -3.31605 -4.67665 0
M  V30 2600 H 257.733 -4.06314 -4.41621 0
M  V30 2601 H 258.803 -3.78561 -3.03017 0
M  V30 2602 N 260.146 1.09593 -1.13257 0
M  V30 2603 C 261.093 2.1618 -0.808381 0
M  V30 2604 C 262.063 1.64517 0.228754 0
M  V30 2605 O 263.248 1.9053 0.101381 0
M  V30 2606 C 260.388 3.43973 -0.278675 0
M  V30 2607 C 259.501 4.09545 -1.37466 0
M  V30 2608 C 258.636 5.25088 -0.803479 0
M  V30 2609 C 257.675 5.82579 -1.87799 0
M  V30 2610 N 256.812 6.89486 -1.32488 0
M  V30 2611 H 261.652 2.43254 -1.72138 0
M  V30 2612 H 259.189 1.19392 -0.859294 0
M  V30 2613 H 261.147 4.17174 0.0465583 0
M  V30 2614 H 259.777 3.17223 0.597459 0
M  V30 2615 H 258.829 3.34226 -1.81652 0
M  V30 2616 H 260.141 4.48307 -2.18684 0
M  V30 2617 H 259.295 6.05178 -0.429427 0
M  V30 2618 H 258.034 4.87684 0.0397956 0
M  V30 2619 H 257.039 5.01152 -2.26113 0
M  V30 2620 H 258.264 6.22045 -2.72463 0
M  V30 2621 H 256.21 6.54064 -0.503575 0
M  V30 2622 H 256.127 7.27007 -2.07355 0
M  V30 2623 H 257.395 7.73336 -0.978336 0
M  V30 2624 N 261.624 0.925811 1.2754 0
M  V30 2625 C 262.574 0.394488 2.24561 0
M  V30 2626 C 263.558 -0.500183 1.52928 0
M  V30 2627 O 264.75 -0.337936 1.73744 0
M  V30 2628 C 261.879 -0.353328 3.41477 0
M  V30 2629 C 260.965 0.557752 4.20416 0
M  V30 2630 N 261.356 1.67674 4.77199 0
M  V30 2631 C 259.654 0.360404 4.44541 0
M  V30 2632 C 260.355 2.24324 5.36706 0
M  V30 2633 N 259.331 1.53305 5.21535 0
M  V30 2634 H 263.133 1.2489 2.66045 0
M  V30 2635 H 260.647 0.779864 1.4245 0
M  V30 2636 H 262.644 -0.7509 4.10082 0
M  V30 2637 H 261.304 -1.20469 3.01525 0
M  V30 2638 H 262.315 2.05915 4.75204 0
M  V30 2639 H 258.992 -0.450454 4.15063 0
M  V30 2640 H 260.382 3.18521 5.91603 0
M  V30 2641 N 263.102 -1.41638 0.69111 0
M  V30 2642 C 264.35 -2.00902 0.219758 0
M  V30 2643 C 264.671 -1.54994 -1.18329 0
M  V30 2644 O 263.941 -0.778628 -1.79762 0
M  V30 2645 H 262.521 -0.74289 0.0782558 0
M  V30 2646 H 265.183 -1.73327 0.891271 0
M  V30 2647 H 264.279 -3.11224 0.233708 0
M  V30 2648 N 264.58 -0.43555 -1.51462 0
M  V30 2649 C 265.826 0.131709 -2.02372 0
M  V30 2650 C 266.159 1.42516 -1.3192 0
M  V30 2651 O 265.434 1.89606 -0.433573 0
M  V30 2652 C 265.717 0.352301 -3.58373 0
M  V30 2653 C 265.57 -0.959676 -4.39443 0
M  V30 2654 C 266.889 1.12286 -4.25535 0
M  V30 2655 H 264.008 0.0463936 -0.735538 0
M  V30 2656 H 266.65 -0.574197 -1.81116 0
M  V30 2657 H 264.8 0.9536 -3.76615 0
M  V30 2658 H 266.472 -1.59482 -4.32855 0
M  V30 2659 H 264.715 -1.56468 -4.04599 0
M  V30 2660 H 265.386 -0.759394 -5.46752 0
M  V30 2661 H 267.862 0.613545 -4.11552 0
M  V30 2662 H 266.738 1.24598 -5.34571 0
M  V30 2663 H 266.999 2.15048 -3.86273 0
M  V30 2664 N 266.058 1.56714 -0.166846 0
M  V30 2665 C 267.286 2.0112 0.485644 0
M  V30 2666 C 267.701 1.04705 1.57106 0
M  V30 2667 O 267.058 0.0471923 1.82439 0
M  V30 2668 C 267.109 3.45361 1.06808 0
M  V30 2669 O 266.83 4.38092 0.0259995 0
M  V30 2670 C 268.331 4.05145 1.79924 0
M  V30 2671 H 265.551 0.65931 0.124704 0
M  V30 2672 H 268.095 2.02746 -0.267262 0
M  V30 2673 H 266.25 3.44524 1.7715 0
M  V30 2674 H 266.664 5.22519 0.455398 0
M  V30 2675 H 268.138 5.08009 2.15942 0
M  V30 2676 H 268.615 3.46982 2.69258 0
M  V30 2677 H 269.221 4.09672 1.14234 0
M  V30 2678 N 267.536 -0.106894 1.57237 0
M  V30 2679 C 268.484 -1.14944 2.02215 0
M  V30 2680 C 269.478 -1.42167 0.92114 0
M  V30 2681 O 270.684 -1.41987 1.10634 0
M  V30 2682 H 267.059 -0.387841 0.64427 0
M  V30 2683 H 269.03 -0.743683 2.88984 0
M  V30 2684 C 267.779 -2.4647 2.4525 0
M  V30 2685 H 267.102 -2.26363 3.29545 0
M  V30 2686 H 268.542 -3.17948 2.80508 0
M  V30 2687 C 267.001 -3.09921 1.321 0
M  V30 2688 O 267.531 -3.9651 0.643622 0
M  V30 2689 N 265.737 -2.69986 1.07497 0
M  V30 2690 H 265.284 -1.99667 1.62761 0
M  V30 2691 H 265.242 -3.12769 0.319876 0
M  V30 2692 N 269.014 -1.53014 -0.377408 0
M  V30 2693 C 269.977 -1.77957 -1.44444 0
M  V30 2694 C 270.977 -0.649763 -1.47087 0
M  V30 2695 O 272.167 -0.917897 -1.48055 0
M  V30 2696 C 269.299 -1.89089 -2.83651 0
M  V30 2697 H 270.492 -2.73243 -1.23606 0
M  V30 2698 H 268.045 -1.43912 -0.609844 0
M  V30 2699 H 268.78 -0.958293 -3.09818 0
M  V30 2700 H 268.565 -2.71254 -2.83132 0
M  V30 2701 H 270.055 -2.1002 -3.60945 0
M  V30 2702 N 270.492 0.636531 -1.44174 0
M  V30 2703 C 271.903 1.21806 -1.41493 0
M  V30 2704 C 272.254 1.95785 -0.1275 0
M  V30 2705 O 271.379 2.02147 0.772376 0
M  V30 2706 C 271.974 2.21551 -2.56321 0
M  V30 2707 C 270.533 2.75143 -2.56853 0
M  V30 2708 C 269.68 1.50052 -2.33195 0
M  V30 2709 H 272.631 0.427531 -1.52833 0
M  V30 2710 H 272.652 3.0405 -2.28765 0
M  V30 2711 H 272.164 1.67679 -3.50008 0
M  V30 2712 H 270.265 3.33033 -1.67093 0
M  V30 2713 H 270.378 3.2155 -3.55165 0
M  V30 2714 H 268.742 1.77993 -1.82183 0
M  V30 2715 H 269.525 0.980903 -3.28988 0
M  V30 2716 N 271.97 1.30982 0.876444 0
M  V30 2717 C 273.218 1.20058 1.62575 0
M  V30 2718 C 273.539 -0.242947 1.93481 0
M  V30 2719 O 272.809 -1.1619 1.57724 0
M  V30 2720 H 271.389 0.44135 0.602677 0
M  V30 2721 H 274.051 1.64222 1.04962 0
M  V30 2722 H 273.147 1.76762 2.57219 0
M  V30 2723 N 273.449 -1.08991 1.13837 0
M  V30 2724 C 274.412 -2.13925 0.822715 0
M  V30 2725 C 275.412 -1.599 -0.1699 0
M  V30 2726 O 276.602 -1.74104 0.0577251 0
M  V30 2727 C 273.734 -3.40155 0.225318 0
M  V30 2728 H 274.927 -2.43358 1.75262 0
M  V30 2729 H 272.48 -1.24603 0.943594 0
M  V30 2730 H 273.215 -3.16352 -0.713594 0
M  V30 2731 H 273 -3.80661 0.940193 0
M  V30 2732 H 274.49 -4.17594 0.0214784 0
M  V30 2733 N 274.927 -0.932562 -1.27047 0
M  V30 2734 C 275.89 -0.440064 -2.24936 0
M  V30 2735 C 276.89 0.444071 -1.54547 0
M  V30 2736 O 278.08 0.244465 -1.72476 0
M  V30 2737 C 275.212 0.36678 -3.38921 0
M  V30 2738 H 276.405 -1.305 -2.70018 0
M  V30 2739 H 273.958 -0.713707 -1.39054 0
M  V30 2740 H 274.693 1.25033 -2.99228 0
M  V30 2741 H 274.478 -0.267204 -3.91188 0
M  V30 2742 H 275.968 0.701567 -4.11665 0
M  V30 2743 N 276.405 1.4127 -0.698611 0
M  V30 2744 C 277.635 2.05205 -0.239644 0
M  V30 2745 C 278.043 1.52684 1.11733 0
M  V30 2746 O 277.386 0.671222 1.70998 0
M  V30 2747 C 277.448 3.59289 -0.123126 0
M  V30 2748 C 277.112 4.34619 -1.41263 0
M  V30 2749 C 278.109 4.63701 -2.35111 0
M  V30 2750 C 275.794 4.73837 -1.66684 0
M  V30 2751 C 277.788 5.30966 -3.52639 0
M  V30 2752 C 275.475 5.40837 -2.84498 0
M  V30 2753 C 276.473 5.69329 -3.77298 0
M  V30 2754 O 276.161 6.34949 -4.93047 0
M  V30 2755 H 275.893 0.66723 -0.108537 0
M  V30 2756 H 278.447 1.81974 -0.952602 0
M  V30 2757 H 276.677 3.81272 0.645628 0
M  V30 2758 H 278.366 4.04797 0.299056 0
M  V30 2759 H 279.132 4.33882 -2.16729 0
M  V30 2760 H 275.011 4.51039 -0.953135 0
M  V30 2761 H 278.555 5.53121 -4.25091 0
M  V30 2762 H 274.452 5.70075 -3.02795 0
M  V30 2763 H 275.22 6.53445 -4.92902 0
M  V30 2764 N 277.883 0.443576 1.51229 0
M  V30 2765 C 279.108 -0.121648 2.07043 0
M  V30 2766 C 279.533 -1.35156 1.30823 0
M  V30 2767 O 278.891 -1.7793 0.347934 0
M  V30 2768 C 278.939 -0.41624 3.5819 0
M  V30 2769 O 278.043 -1.50163 3.8409 0
M  V30 2770 H 277.384 0.000871367 0.663999 0
M  V30 2771 H 279.914 0.626706 1.94765 0
M  V30 2772 H 279.924 -0.664867 4.02546 0
M  V30 2773 H 278.599 0.482653 4.1309 0
M  V30 2774 H 277.176 -1.24248 3.51592 0
M  V30 2775 N 279.361 -1.56624 0.175154 0
M  V30 2776 C 280.591 -2.01082 -0.474283 0
M  V30 2777 C 280.999 -1.05447 -1.57091 0
M  V30 2778 O 280.342 -0.0480595 -1.83637 0
M  V30 2779 C 280.404 -3.41963 -1.10911 0
M  V30 2780 C 280.068 -4.56742 -0.153666 0
M  V30 2781 C 281.065 -5.16076 0.629448 0
M  V30 2782 C 278.75 -5.02277 -0.0483776 0
M  V30 2783 C 280.744 -6.19377 1.50501 0
M  V30 2784 C 278.431 -6.05427 0.830768 0
M  V30 2785 C 279.429 -6.63849 1.60605 0
M  V30 2786 O 279.117 -7.64998 2.47049 0
M  V30 2787 H 278.849 -0.664261 -0.125432 0
M  V30 2788 H 281.403 -2.03549 0.275163 0
M  V30 2789 H 279.633 -3.36422 -1.90676 0
M  V30 2790 H 281.322 -3.70352 -1.66114 0
M  V30 2791 H 282.088 -4.81776 0.558297 0
M  V30 2792 H 277.967 -4.56513 -0.641611 0
M  V30 2793 H 281.511 -6.64906 2.1106 0
M  V30 2794 H 277.408 -6.39151 0.903107 0
M  V30 2795 H 278.176 -7.82336 2.40607 0
M  V30 2796 N 280.839 0.0985539 -1.57292 0
M  V30 2797 C 282.064 0.820196 -1.90493 0
M  V30 2798 C 282.489 1.71658 -0.769094 0
M  V30 2799 O 281.847 1.79133 0.279495 0
M  V30 2800 C 281.895 1.61242 -3.22542 0
M  V30 2801 O 280.999 2.72108 -3.09888 0
M  V30 2802 H 280.34 0.225547 -0.62452 0
M  V30 2803 H 282.87 0.0748159 -2.04463 0
M  V30 2804 H 282.88 1.99737 -3.55766 0
M  V30 2805 H 281.555 0.954535 -4.04798 0
M  V30 2806 H 280.132 2.36667 -2.88172 0
M  V30 2807 N 282.317 1.53212 0.369288 0
M  V30 2808 C 283.265 1.80054 1.47253 0
M  V30 2809 C 284.259 0.669456 1.55611 0
M  V30 2810 O 285.465 0.852328 1.58541 0
M  V30 2811 H 281.84 0.570034 0.490475 0
M  V30 2812 H 283.811 2.72403 1.21817 0
M  V30 2813 C 282.56 2.00403 2.84137 0
M  V30 2814 H 281.883 2.86876 2.78464 0
M  V30 2815 H 283.323 2.23164 3.60519 0
M  V30 2816 C 281.782 0.782081 3.27697 0
M  V30 2817 O 282.312 -0.0310205 4.01688 0
M  V30 2818 N 280.518 0.606573 2.84199 0
M  V30 2819 H 280.065 1.26939 2.24152 0
M  V30 2820 H 280.023 -0.20962 3.137 0
M  V30 2821 N 283.795 -0.628877 1.44509 0
M  V30 2822 C 285.023 -1.41554 1.50897 0
M  V30 2823 C 285.438 -1.8832 0.134564 0
M  V30 2824 O 284.795 -1.60969 -0.859965 0
M  V30 2825 C 284.846 -2.63435 2.47556 0
M  V30 2826 O 284.567 -2.18619 3.79654 0
M  V30 2827 C 286.068 -3.56537 2.63431 0
M  V30 2828 H 283.288 -0.434044 0.511709 0
M  V30 2829 H 285.832 -0.768895 1.89495 0
M  V30 2830 H 283.987 -3.24187 2.12089 0
M  V30 2831 H 284.401 -2.97652 4.31861 0
M  V30 2832 H 285.875 -4.38657 3.35088 0
M  V30 2833 H 286.352 -4.05493 1.68738 0
M  V30 2834 H 286.958 -3.01653 2.9981 0
M  V30 2835 N 285.273 -1.31445 -0.869486 0
M  V30 2836 C 286.221 -1.19067 -1.99814 0
M  V30 2837 C 287.215 -0.0988569 -1.69111 0
M  V30 2838 O 288.421 -0.260781 -1.78101 0
M  V30 2839 H 284.796 -0.368677 -0.655425 0
M  V30 2840 H 286.767 -2.14555 -2.07385 0
M  V30 2841 C 285.516 -0.915323 -3.35436 0
M  V30 2842 H 284.839 -1.74759 -3.59582 0
M  V30 2843 H 286.279 -0.868895 -4.15001 0
M  V30 2844 C 284.738 0.381928 -3.34728 0
M  V30 2845 O 285.268 1.39857 -3.76567 0
M  V30 2846 N 283.474 0.398633 -2.87853 0
M  V30 2847 H 283.021 -0.429186 -2.54 0
M  V30 2848 H 282.979 1.26651 -2.87762 0
M  V30 2849 N 286.751 1.08385 -1.14413 0
M  V30 2850 C 287.998 1.80776 -0.912482 0
M  V30 2851 C 288.326 1.86236 0.560934 0
M  V30 2852 O 287.581 1.33431 1.43159 0
M  V30 2853 C 287.88 3.26273 -1.45879 0
M  V30 2854 C 287.546 3.4093 -2.95089 0
M  V30 2855 C 286.208 3.44638 -3.35824 0
M  V30 2856 C 288.56 3.44591 -3.91033 0
M  V30 2857 C 285.888 3.49597 -4.71167 0
M  V30 2858 C 288.24 3.51086 -5.26233 0
M  V30 2859 C 286.904 3.53067 -5.6648 0
M  V30 2860 H 286.174 0.661507 -0.333901 0
M  V30 2861 H 288.821 1.27613 -1.42784 0
M  V30 2862 H 287.126 3.82146 -0.864376 0
M  V30 2863 H 288.823 3.80839 -1.2555 0
M  V30 2864 H 285.413 3.38736 -2.62594 0
M  V30 2865 H 289.597 3.40957 -3.60641 0
M  V30 2866 H 284.853 3.49424 -5.0171 0
M  V30 2867 H 289.027 3.52864 -6.00383 0
M  V30 2868 H 286.654 3.56662 -6.71339 0
M  V30 2869 N 288.23 0.939286 1.26551 0
M  V30 2870 C 289.476 0.586715 1.94128 0
M  V30 2871 C 289.809 -0.8717 1.73537 0
M  V30 2872 O 289.084 -1.62339 1.07127 0
M  V30 2873 C 289.367 0.927497 3.4795 0
M  V30 2874 C 289.22 2.44052 3.77834 0
M  V30 2875 C 290.539 0.441569 4.37879 0
M  V30 2876 H 287.658 0.21463 0.705055 0
M  V30 2877 H 290.3 1.17316 1.49455 0
M  V30 2878 H 288.45 0.428431 3.8613 0
M  V30 2879 H 290.122 3.01216 3.4938 0
M  V30 2880 H 288.365 2.8848 3.23978 0
M  V30 2881 H 289.036 2.62947 4.85348 0
M  V30 2882 H 291.512 0.869448 4.06915 0
M  V30 2883 H 290.388 0.708856 5.44304 0
M  V30 2884 H 290.649 -0.658467 4.37169 0
M  V30 2885 N 289.708 -1.40897 0.706093 0
M  V30 2886 C 290.954 -2.01352 0.241889 0
M  V30 2887 C 291.287 -1.55832 -1.15888 0
M  V30 2888 O 290.562 -0.774145 -1.7843 0
M  V30 2889 C 290.845 -3.58752 0.311311 0
M  V30 2890 C 290.698 -4.1437 1.74978 0
M  V30 2891 C 292.017 -4.38914 -0.322922 0
M  V30 2892 H 289.136 -0.731562 0.0893687 0
M  V30 2893 H 291.778 -1.67504 0.896802 0
M  V30 2894 H 289.928 -3.87718 -0.246302 0
M  V30 2895 H 291.6 -3.96239 2.36205 0
M  V30 2896 H 289.843 -3.69016 2.28057 0
M  V30 2897 H 290.514 -5.23532 1.74981 0
M  V30 2898 H 292.99 -4.15822 0.152089 0
M  V30 2899 H 291.866 -5.48358 -0.243855 0
M  V30 2900 H 292.127 -4.19176 -1.40513 0
M  V30 2901 N 291.186 -0.45159 -1.50991 0
M  V30 2902 C 292.149 0.341117 -2.26647 0
M  V30 2903 C 293.149 0.937422 -1.30649 0
M  V30 2904 O 294.339 0.809644 -1.54241 0
M  V30 2905 C 291.471 1.48398 -3.06905 0
M  V30 2906 H 292.664 -0.322117 -2.98165 0
M  V30 2907 H 290.217 -0.205122 -1.54948 0
M  V30 2908 H 290.952 2.18284 -2.39838 0
M  V30 2909 H 290.737 1.06241 -3.77432 0
M  V30 2910 H 292.227 2.04367 -3.64176 0
M  V30 2911 N 292.664 1.56529 -0.183458 0
M  V30 2912 C 293.912 1.96855 0.457452 0
M  V30 2913 C 294.233 1.07104 1.62953 0
M  V30 2914 O 293.503 0.139887 1.954 0
M  V30 2915 H 292.083 0.72693 0.171992 0
M  V30 2916 H 294.745 1.93056 -0.267476 0
M  V30 2917 H 293.841 3.01423 0.809368 0
M  V30 2918 N 294.142 -0.090211 1.57342 0
M  V30 2919 C 295.075 -1.14035 1.97664 0
M  V30 2920 C 296.053 -1.38576 0.850616 0
M  V30 2921 O 297.237 -1.52255 1.11134 0
M  V30 2922 C 294.364 -2.48854 2.2976 0
M  V30 2923 C 293.41 -2.40564 3.52181 0
M  V30 2924 S 294.243 -1.81745 5.03715 0
M  V30 2925 C 295.399 -3.18178 5.38993 0
M  V30 2926 H 295.632 -0.796636 2.86428 0
M  V30 2927 H 293.165 -0.298072 1.51496 0
M  V30 2928 H 295.123 -3.26413 2.48927 0
M  V30 2929 H 293.784 -2.80393 1.41558 0
M  V30 2930 H 292.977 -3.39942 3.72096 0
M  V30 2931 H 292.579 -1.71135 3.32549 0
M  V30 2932 H 294.871 -4.14461 5.35937 0
M  V30 2933 H 295.814 -3.03062 6.39968 0
M  V30 2934 H 296.222 -3.17935 4.66452 0
M  V30 2935 N 295.62 -1.53406 -0.361157 0
M  V30 2936 C 296.55 -1.83136 -1.44857 0
M  V30 2937 C 297.531 -0.685174 -1.5569 0
M  V30 2938 O 298.716 -0.93544 -1.70186 0
M  V30 2939 C 295.846 -2.02522 -2.82138 0
M  V30 2940 C 294.8 -3.18302 -2.86126 0
M  V30 2941 C 294.126 -3.22989 -4.26125 0
M  V30 2942 C 295.426 -4.56796 -2.53248 0
M  V30 2943 H 297.12 -2.74201 -1.20226 0
M  V30 2944 H 294.666 -1.31938 -0.576922 0
M  V30 2945 H 296.619 -2.21904 -3.58241 0
M  V30 2946 H 295.343 -1.08172 -3.08166 0
M  V30 2947 H 294.002 -2.98747 -2.12475 0
M  V30 2948 H 293.65 -2.26267 -4.49235 0
M  V30 2949 H 293.35 -4.00781 -4.29708 0
M  V30 2950 H 294.874 -3.44559 -5.04094 0
M  V30 2951 H 296.288 -4.7631 -3.19064 0
M  V30 2952 H 294.685 -5.36862 -2.68141 0
M  V30 2953 H 295.755 -4.61606 -1.48484 0
M  V30 2954 N 297.098 0.621204 -1.44841 0
M  V30 2955 C 298.347 1.37658 -1.47422 0
M  V30 2956 C 298.66 1.95264 -0.114629 0
M  V30 2957 O 299.866 2.71494 -0.0180199 0
M  V30 2958 C 298.322 2.49285 -2.59586 0
M  V30 2959 C 297.93 1.98149 -4.01797 0
M  V30 2960 C 299.674 3.26409 -2.71399 0
M  V30 2961 C 297.581 3.07178 -5.05367 0
M  V30 2962 H 296.511 0.517344 -0.548517 0
M  V30 2963 H 299.162 0.667257 -1.70938 0
M  V30 2964 H 297.544 3.22839 -2.29328 0
M  V30 2965 H 298.718 1.31395 -4.41669 0
M  V30 2966 H 297.033 1.33812 -3.94314 0
M  V30 2967 H 299.63 4.07706 -3.45948 0
M  V30 2968 H 299.973 3.76535 -1.77559 0
M  V30 2969 H 300.506 2.5995 -3.01116 0
M  V30 2970 H 297.245 2.61985 -6.00869 0
M  V30 2971 H 296.765 3.72542 -4.70077 0
M  V30 2972 H 298.444 3.71789 -5.29511 0
M  V30 2973 N 298.576 1.31904 0.862503 0
M  V30 2974 C 299.486 1.22161 2.00285 0
M  V30 2975 C 300.502 0.136785 1.73462 0
M  V30 2976 O 301.678 0.355994 1.98229 0
M  V30 2977 C 298.743 0.937093 3.33796 0
M  V30 2978 C 297.804 2.10957 3.73893 0
M  V30 2979 C 297.037 1.83853 5.01033 0
M  V30 2980 O 297.26 0.777274 5.65079 0
M  V30 2981 O 296.194 2.69741 5.38074 0
M  V30 2982 H 300.02 2.18008 2.11439 0
M  V30 2983 H 297.605 1.11716 0.991957 0
M  V30 2984 H 299.487 0.794583 4.13841 0
M  V30 2985 H 298.162 0.00871894 3.23699 0
M  V30 2986 H 297.069 2.30752 2.94456 0
M  V30 2987 H 298.402 3.02046 3.88625 0
M  V30 2988 N 300.054 -1.07777 1.14986 0
M  V30 2989 C 301.001 -2.14867 0.842672 0
M  V30 2990 C 301.971 -1.6486 -0.202552 0
M  V30 2991 O 303.156 -1.90668 -0.0710568 0
M  V30 2992 C 300.296 -3.43486 0.333363 0
M  V30 2993 C 299.409 -4.07306 1.43965 0
M  V30 2994 C 298.544 -5.23744 0.886914 0
M  V30 2995 C 297.583 -5.79517 1.97043 0
M  V30 2996 N 296.72 -6.87291 1.4344 0
M  V30 2997 H 301.56 -2.40485 1.75986 0
M  V30 2998 H 299.097 -1.1801 0.878179 0
M  V30 2999 H 301.055 -4.17195 0.0198163 0
M  V30 3000 H 299.685 -3.18133 -0.546916 0
M  V30 3001 H 298.737 -3.31293 1.86946 0
M  V30 3002 H 300.049 -4.44771 2.25788 0
M  V30 3003 H 299.203 -6.04419 0.525651 0
M  V30 3004 H 297.942 -4.87685 0.0377957 0
M  V30 3005 H 296.947 -4.97491 2.34057 0
M  V30 3006 H 298.172 -6.17632 2.82325 0
M  V30 3007 H 296.118 -6.5318 0.607567 0
M  V30 3008 H 296.035 -7.23617 2.18895 0
M  V30 3009 H 297.303 -7.71682 1.10124 0
M  V30 3010 N 301.532 -0.945985 -1.26051 0
M  V30 3011 C 302.462 -0.477172 -2.28572 0
M  V30 3012 C 303.443 0.472032 -1.63419 0
M  V30 3013 O 304.628 0.372853 -1.90587 0
M  V30 3014 C 301.758 0.253975 -3.4637 0
M  V30 3015 C 300.712 -0.609135 -4.23643 0
M  V30 3016 C 300.038 0.252252 -5.34105 0
M  V30 3017 C 301.338 -1.8829 -4.8718 0
M  V30 3018 H 303.032 -1.33402 -2.68038 0
M  V30 3019 H 300.578 -0.642904 -1.28852 0
M  V30 3020 H 302.531 0.593016 -4.17207 0
M  V30 3021 H 301.255 1.145 -3.05871 0
M  V30 3022 H 299.914 -0.931138 -3.54578 0
M  V30 3023 H 299.562 1.14278 -4.89846 0
M  V30 3024 H 299.262 -0.32188 -5.86718 0
M  V30 3025 H 300.786 0.586454 -6.07777 0
M  V30 3026 H 302.2 -1.61081 -5.50205 0
M  V30 3027 H 300.597 -2.40199 -5.49931 0
M  V30 3028 H 301.667 -2.59134 -4.09851 0
M  V30 3029 N 303.011 1.40521 -0.713556 0
M  V30 3030 C 304.239 2.05237 -0.261775 0
M  V30 3031 C 304.654 1.53755 1.09567 0
M  V30 3032 O 304.011 0.693268 1.6882 0
M  V30 3033 C 304.062 3.60763 -0.230706 0
M  V30 3034 O 303.783 4.10345 -1.53455 0
M  V30 3035 C 305.284 4.42651 0.239874 0
M  V30 3036 H 302.504 0.660533 -0.118057 0
M  V30 3037 H 305.048 1.79967 -0.971192 0
M  V30 3038 H 303.203 3.8501 0.429661 0
M  V30 3039 H 303.617 5.04526 -1.43366 0
M  V30 3040 H 305.091 5.51599 0.210468 0
M  V30 3041 H 305.568 4.20082 1.28171 0
M  V30 3042 H 306.174 4.23507 -0.390142 0
M  V30 3043 N 304.489 0.459591 1.5075 0
M  V30 3044 C 305.737 -0.0991532 2.01857 0
M  V30 3045 C 306.058 -1.41247 1.34441 0
M  V30 3046 O 305.328 -1.89775 0.486022 0
M  V30 3047 H 303.908 -0.039633 0.745948 0
M  V30 3048 H 306.57 0.607387 1.85194 0
M  V30 3049 H 305.666 -0.258998 3.11023 0
M  V30 3050 N 305.967 -1.56429 0.191757 0
M  V30 3051 C 306.917 -2.15548 -0.743184 0
M  V30 3052 C 307.901 -1.09531 -1.17863 0
M  V30 3053 O 309.093 -1.35602 -1.13759 0
M  V30 3054 C 306.222 -2.81577 -1.96391 0
M  V30 3055 C 305.308 -3.9478 -1.54951 0
M  V30 3056 N 305.699 -4.98677 -0.845876 0
M  V30 3057 C 303.997 -4.06319 -1.83905 0
M  V30 3058 C 304.698 -5.78183 -0.638724 0
M  V30 3059 N 303.674 -5.30495 -1.18643 0
M  V30 3060 H 307.476 -2.9324 -0.196839 0
M  V30 3061 H 304.99 -1.62398 -0.0081603 0
M  V30 3062 H 306.987 -3.22321 -2.64415 0
M  V30 3063 H 305.647 -2.05371 -2.51501 0
M  V30 3064 H 306.658 -5.15464 -0.501704 0
M  V30 3065 H 303.335 -3.41238 -2.40548 0
M  V30 3066 H 304.725 -6.71851 -0.0807929 0
M  V30 3067 N 307.445 0.0818655 -1.57387 0
M  V30 3068 C 308.67 0.799946 -1.91352 0
M  V30 3069 C 309.095 1.70833 -0.787258 0
M  V30 3070 O 308.453 1.79419 0.26048 0
M  V30 3071 C 308.501 1.57812 -3.24234 0
M  V30 3072 O 307.605 2.68806 -3.12757 0
M  V30 3073 H 306.946 0.21891 -0.626877 0
M  V30 3074 H 309.476 0.0531256 -2.04531 0
M  V30 3075 H 309.486 1.95952 -3.57864 0
M  V30 3076 H 308.161 0.911548 -4.05788 0
M  V30 3077 H 306.738 2.33597 -2.90666 0
M  V30 3078 N 308.923 1.53595 0.353017 0
M  V30 3079 C 310.169 1.70638 1.09593 0
M  V30 3080 C 310.502 0.463286 1.88593 0
M  V30 3081 O 309.777 -0.539597 1.86865 0
M  V30 3082 C 310.06 2.96406 2.04489 0
M  V30 3083 C 309.913 4.30901 1.29014 0
M  V30 3084 C 311.232 3.17812 3.0444 0
M  V30 3085 H 308.351 0.620913 0.397034 0
M  V30 3086 H 310.993 1.86254 0.375446 0
M  V30 3087 H 309.143 2.83223 2.65927 0
M  V30 3088 H 310.815 4.55917 0.702638 0
M  V30 3089 H 309.058 4.29741 0.592071 0
M  V30 3090 H 309.729 5.1506 1.98537 0
M  V30 3091 H 312.205 3.30263 2.53112 0
M  V30 3092 H 311.081 4.07223 3.6805 0
M  V30 3093 H 311.342 2.33669 3.75301 0
M  V30 3094 N 310.401 -0.613514 1.45168 0
M  V30 3095 C 311.364 -1.7065 1.53007 0
M  V30 3096 C 312.364 -1.5548 0.410184 0
M  V30 3097 O 313.554 -1.60656 0.673455 0
M  V30 3098 C 310.686 -3.09875 1.42093 0
M  V30 3099 H 311.879 -1.65068 2.50385 0
M  V30 3100 H 309.432 -0.828728 1.32521 0
M  V30 3101 H 310.167 -3.21039 0.458769 0
M  V30 3102 H 309.952 -3.22293 2.23315 0
M  V30 3103 H 311.442 -3.895 1.50598 0
M  V30 3104 N 311.879 -1.3236 -0.855495 0
M  V30 3105 C 313.107 -1.2587 -1.64208 0
M  V30 3106 C 313.522 0.173457 -1.88002 0
M  V30 3107 O 312.879 1.11027 -1.44842 0
M  V30 3108 C 312.93 -2.01424 -3.00184 0
M  V30 3109 O 312.651 -3.39051 -2.77445 0
M  V30 3110 C 314.152 -2.01948 -3.94629 0
M  V30 3111 H 311.372 -0.434318 -0.511477 0
M  V30 3112 H 313.916 -1.74469 -1.0668 0
M  V30 3113 H 312.071 -1.56549 -3.5436 0
M  V30 3114 H 312.485 -3.77711 -3.63916 0
M  V30 3115 H 313.959 -2.59297 -4.87308 0
M  V30 3116 H 314.436 -1.00554 -4.27534 0
M  V30 3117 H 315.042 -2.46767 -3.4639 0
M  V30 3118 N 313.357 1.07166 -1.15556 0
M  V30 3119 C 314.267 2.17947 -0.868116 0
M  V30 3120 C 315.283 1.73297 0.156297 0
M  V30 3121 O 316.459 2.01392 -0.0182327 0
M  V30 3122 C 313.524 3.44789 -0.36355 0
M  V30 3123 C 312.585 4.03996 -1.45209 0
M  V30 3124 C 311.818 5.24783 -0.971508 0
M  V30 3125 O 312.041 5.70109 0.182194 0
M  V30 3126 O 310.975 5.75715 -1.75603 0
M  V30 3127 H 314.801 2.4503 -1.79427 0
M  V30 3128 H 312.386 1.16539 -0.934824 0
M  V30 3129 H 314.268 4.21307 -0.0887113 0
M  V30 3130 H 312.943 3.19253 0.534708 0
M  V30 3131 H 311.85 3.29009 -1.78056 0
M  V30 3132 H 313.183 4.33808 -2.32533 0
M  V30 3133 N 314.835 0.952656 1.25548 0
M  V30 3134 C 316.065 0.622592 1.96996 0
M  V30 3135 C 316.473 -0.809112 1.71026 0
M  V30 3136 O 315.816 -1.55258 0.981861 0
M  V30 3137 C 315.878 0.798946 3.5051 0
M  V30 3138 C 315.542 2.20744 4.00151 0
M  V30 3139 C 316.539 3.18394 4.11001 0
M  V30 3140 C 314.224 2.5311 4.33867 0
M  V30 3141 C 316.218 4.46504 4.54877 0
M  V30 3142 C 313.905 3.8145 4.7743 0
M  V30 3143 C 314.903 4.77959 4.87897 0
M  V30 3144 O 314.591 6.04012 5.30494 0
M  V30 3145 H 314.323 0.232503 0.634758 0
M  V30 3146 H 316.877 1.2789 1.60728 0
M  V30 3147 H 315.107 0.0854903 3.86605 0
M  V30 3148 H 316.796 0.47023 4.03167 0
M  V30 3149 H 317.562 2.94715 3.85186 0
M  V30 3150 H 313.441 1.78719 4.24948 0
M  V30 3151 H 316.985 5.21835 4.62962 0
M  V30 3152 H 312.882 4.04936 5.0269 0
M  V30 3153 H 313.65 6.0736 5.48685 0
M  V30 3154 N 316.313 -1.40141 0.720998 0
M  V30 3155 C 317.245 -2.29177 0.0324669 0
M  V30 3156 C 318.258 -1.46105 -0.718126 0
M  V30 3157 O 319.447 -1.69335 -0.564608 0
M  V30 3158 C 316.547 -3.24473 -0.978292 0
M  V30 3159 C 315.72 -4.36423 -0.292115 0
M  V30 3160 C 314.779 -5.12122 -1.20901 0
M  V30 3161 O 313.805 -5.64981 -0.691766 0
M  V30 3162 N 315.007 -5.21992 -2.53978 0
M  V30 3163 H 317.772 -2.88909 0.796984 0
M  V30 3164 H 315.333 -1.51569 0.569068 0
M  V30 3165 H 317.325 -3.71987 -1.59398 0
M  V30 3166 H 315.895 -2.65871 -1.64413 0
M  V30 3167 H 315.115 -3.90967 0.503847 0
M  V30 3168 H 316.403 -5.08467 0.183971 0
M  V30 3169 H 315.801 -4.8054 -2.98493 0
M  V30 3170 H 314.358 -5.72995 -3.10677 0
M  V30 3171 N 317.792 -0.46758 -1.50504 0
M  V30 3172 C 318.74 0.342482 -2.30065 0
M  V30 3173 C 319.734 0.993596 -1.37201 0
M  V30 3174 O 320.94 0.925102 -1.54408 0
M  V30 3175 H 317.315 0.129283 -0.740803 0
M  V30 3176 H 319.286 -0.34899 -2.96352 0
M  V30 3177 C 318.035 1.4139 -3.17654 0
M  V30 3178 H 317.358 0.922264 -3.89017 0
M  V30 3179 H 318.798 1.95335 -3.76325 0
M  V30 3180 C 317.257 2.4139 -2.35016 0
M  V30 3181 O 317.787 3.46586 -2.03079 0
M  V30 3182 N 315.993 2.13021 -1.97662 0
M  V30 3183 H 315.54 1.27499 -2.23834 0
M  V30 3184 H 315.498 2.80164 -1.42673 0
M  V30 3185 N 319.27 1.56325 -0.20005 0
M  V30 3186 C 320.686 1.58839 0.155716 0
M  V30 3187 C 320.886 1.21636 1.60645 0
M  V30 3188 O 319.942 0.941437 2.34293 0
M  V30 3189 C 321.255 3.0032 -0.151124 0
M  V30 3190 C 322.803 3.12866 -0.0916284 0
M  V30 3191 C 323.278 4.56488 -0.371845 0
M  V30 3192 N 324.769 4.62089 -0.320641 0
M  V30 3193 C 325.504 5.71116 -0.511243 0
M  V30 3194 N 325 6.88592 -0.762461 0
M  V30 3195 N 326.793 5.60335 -0.445157 0
M  V30 3196 H 318.944 1.78788 -1.14668 0
M  V30 3197 H 321.207 0.829996 -0.458051 0
M  V30 3198 H 320.913 3.32117 -1.15721 0
M  V30 3199 H 320.787 3.73257 0.543986 0
M  V30 3200 H 323.174 2.80878 0.905065 0
M  V30 3201 H 323.255 2.42304 -0.81989 0
M  V30 3202 H 322.899 4.89189 -1.36588 0
M  V30 3203 H 322.829 5.25246 0.377362 0
M  V30 3204 H 325.32 3.77665 -0.13329 0
M  V30 3205 H 325.633 7.67581 -0.896576 0
M  V30 3206 H 323.978 6.90387 -0.799412 0
M  V30 3207 H 327.169 4.67436 -0.249278 0
M  V30 3208 H 327.342 6.45243 -0.597116 0
M  V30 3209 N 320.748 -0.0735177 1.57428 0
M  V30 3210 C 321.997 -0.771809 1.86349 0
M  V30 3211 C 322.31 -1.78828 0.792452 0
M  V30 3212 O 323.516 -2.53602 0.96945 0
M  V30 3213 C 321.972 -1.42358 3.30548 0
M  V30 3214 C 321.58 -0.445761 4.45777 0
M  V30 3215 C 323.324 -2.10434 3.6867 0
M  V30 3216 C 321.231 -1.10335 5.81016 0
M  V30 3217 H 320.161 -0.291999 0.695164 0
M  V30 3218 H 322.812 -0.0250749 1.83483 0
M  V30 3219 H 321.194 -2.21852 3.28021 0
M  V30 3220 H 322.368 0.319239 4.59693 0
M  V30 3221 H 320.683 0.130457 4.16196 0
M  V30 3222 H 323.28 -2.60405 4.67004 0
M  V30 3223 H 323.623 -2.90298 2.98383 0
M  V30 3224 H 324.156 -1.37773 3.7318 0
M  V30 3225 H 320.895 -0.345061 6.54591 0
M  V30 3226 H 320.415 -1.83925 5.70904 0
M  V30 3227 H 322.094 -1.62367 6.26295 0
M  V30 3228 N 322.226 -1.5378 -0.344866 0
M  V30 3229 C 323.473 -1.70963 -1.08526 0
M  V30 3230 C 323.801 -0.472126 -1.88683 0
M  V30 3231 O 323.056 0.546116 -1.87926 0
M  V30 3232 C 323.355 -2.92407 -2.05506 0
M  V30 3233 C 323.021 -4.28066 -1.41671 0
M  V30 3234 C 321.683 -4.64951 -1.2399 0
M  V30 3235 C 324.035 -5.12344 -0.956726 0
M  V30 3236 C 321.363 -5.83733 -0.589277 0
M  V30 3237 C 323.715 -6.3179 -0.320015 0
M  V30 3238 C 322.379 -6.67372 -0.130881 0
M  V30 3239 H 321.649 -0.625598 -0.397124 0
M  V30 3240 H 324.296 -1.87995 -0.36469 0
M  V30 3241 H 322.601 -2.69973 -2.8394 0
M  V30 3242 H 324.298 -3.02895 -2.62784 0
M  V30 3243 H 320.888 -3.99034 -1.56429 0
M  V30 3244 H 325.072 -4.8438 -1.08118 0
M  V30 3245 H 320.328 -6.09877 -0.431344 0
M  V30 3246 H 324.502 -6.96386 0.0445072 0
M  V30 3247 H 322.129 -7.59273 0.375318 0
M  V30 3248 N 323.704 0.605807 -1.45491 0
M  V30 3249 C 324.932 1.39136 -1.5313 0
M  V30 3250 C 325.347 1.88082 -0.164507 0
M  V30 3251 O 324.704 1.62316 0.834247 0
M  V30 3252 C 324.755 2.59463 -2.51716 0
M  V30 3253 O 324.476 2.12551 -3.83084 0
M  V30 3254 C 325.977 3.52301 -2.6907 0
M  V30 3255 H 323.197 0.425849 -0.51855 0
M  V30 3256 H 325.741 0.73865 -1.90694 0
M  V30 3257 H 323.896 3.20772 -2.17219 0
M  V30 3258 H 324.31 2.90744 -4.36541 0
M  V30 3259 H 325.784 4.33271 -3.42024 0
M  V30 3260 H 326.261 4.02757 -1.75167 0
M  V30 3261 H 326.867 2.96845 -3.04571 0
M  V30 3262 N 325.182 1.32811 0.848464 0
M  V30 3263 C 326.593 1.21315 1.41914 0
M  V30 3264 C 326.944 -0.171847 1.95446 0
M  V30 3265 O 326.069 -1.07093 1.88043 0
M  V30 3266 C 326.664 2.19631 2.57968 0
M  V30 3267 C 325.223 2.12003 3.11017 0
M  V30 3268 C 324.37 2.07651 1.83783 0
M  V30 3269 H 327.321 1.44549 0.655071 0
M  V30 3270 H 327.342 1.79845 3.35315 0
M  V30 3271 H 326.854 3.20423 2.18976 0
M  V30 3272 H 324.955 1.14481 3.54577 0
M  V30 3273 H 325.068 3.02111 3.71841 0
M  V30 3274 H 323.432 1.52983 2.03638 0
M  V30 3275 H 324.215 3.10235 1.47 0
M  V30 3276 N 326.66 -1.06551 1.16123 0
M  V30 3277 C 327.59 -2.15935 0.88851 0
M  V30 3278 C 328.571 -1.69306 -0.164135 0
M  V30 3279 O 329.756 -1.94193 -0.0167857 0
M  V30 3280 C 326.886 -3.45149 0.385942 0
M  V30 3281 C 325.84 -4.05271 1.3762 0
M  V30 3282 C 325.166 -5.29664 0.732137 0
M  V30 3283 C 326.466 -4.44355 2.74493 0
M  V30 3284 H 328.16 -2.39006 1.80323 0
M  V30 3285 H 325.706 -1.14866 0.868435 0
M  V30 3286 H 327.659 -4.21004 0.182647 0
M  V30 3287 H 326.383 -3.21689 -0.564274 0
M  V30 3288 H 325.042 -3.3147 1.56599 0
M  V30 3289 H 324.69 -5.02499 -0.224483 0
M  V30 3290 H 324.39 -5.70848 1.39307 0
M  V30 3291 H 325.914 -6.08218 0.538802 0
M  V30 3292 H 327.328 -5.11303 2.59311 0
M  V30 3293 H 325.725 -4.96515 3.37035 0
M  V30 3294 H 326.795 -3.55339 3.29943 0
M  V30 3295 N 328.138 -0.959301 -1.25041 0
M  V30 3296 C 329.086 -0.474437 -2.2771 0
M  V30 3297 C 330.08 0.457697 -1.631 0
M  V30 3298 O 331.286 0.333912 -1.76876 0
M  V30 3299 H 327.661 -0.134936 -0.739795 0
M  V30 3300 H 329.632 -1.35251 -2.65988 0
M  V30 3301 C 328.381 0.227884 -3.46952 0
M  V30 3302 H 327.704 -0.480248 -3.96905 0
M  V30 3303 H 329.144 0.531091 -4.20661 0
M  V30 3304 C 327.603 1.452 -3.04004 0
M  V30 3305 O 328.133 2.54949 -3.10426 0
M  V30 3306 N 326.339 1.31502 -2.59144 0
M  V30 3307 H 325.886 0.422065 -2.54119 0
M  V30 3308 H 325.844 2.13521 -2.30773 0
M  V30 3309 N 329.616 1.39756 -0.72842 0
M  V30 3310 C 330.546 2.33289 -0.0991354 0
M  V30 3311 C 331.527 1.53568 0.731489 0
M  V30 3312 O 332.712 1.81987 0.677807 0
M  V30 3313 C 329.842 3.3763 0.813834 0
M  V30 3314 C 328.796 4.2791 0.0878663 0
M  V30 3315 C 328.122 5.22894 1.11741 0
M  V30 3316 C 329.422 5.11314 -1.06563 0
M  V30 3317 H 331.116 2.86163 -0.880408 0
M  V30 3318 H 328.662 1.37591 -0.424819 0
M  V30 3319 H 330.615 4.0201 1.26355 0
M  V30 3320 H 329.339 2.83181 1.62715 0
M  V30 3321 H 327.998 3.65 -0.342159 0
M  V30 3322 H 327.646 4.64744 1.92412 0
M  V30 3323 H 327.346 5.84143 0.636477 0
M  V30 3324 H 328.87 5.90151 1.56697 0
M  V30 3325 H 330.284 5.69076 -0.694671 0
M  V30 3326 H 328.681 5.81671 -1.47577 0
M  V30 3327 H 329.751 4.46534 -1.89038 0
M  V30 3328 N 331.094 0.475555 1.50254 0
M  V30 3329 C 332.322 -0.0754493 2.06762 0
M  V30 3330 C 332.737 -1.33111 1.33891 0
M  V30 3331 O 332.094 -1.77846 0.40952 0
M  V30 3332 C 332.145 -0.359008 3.59713 0
M  V30 3333 O 331.866 0.846851 4.29837 0
M  V30 3334 C 333.367 -0.956484 4.32858 0
M  V30 3335 H 330.587 0.00907525 0.670939 0
M  V30 3336 H 333.131 0.665618 1.93364 0
M  V30 3337 H 331.286 -1.05001 3.72899 0
M  V30 3338 H 331.7 0.594162 5.21124 0
M  V30 3339 H 333.174 -1.10463 5.40834 0
M  V30 3340 H 333.651 -1.94775 3.93649 0
M  V30 3341 H 334.257 -0.303723 4.24214 0
M  V30 3342 N 332.573 -1.56217 0.208337 0
M  V30 3343 C 333.85 -1.89739 -0.475234 0
M  V30 3344 C 334.23 -1.1238 -1.78701 0
M  V30 3345 O 333.578 -0.228979 -2.2735 0
M  V30 3346 C 333.788 -3.42289 -0.681101 0
M  V30 3347 C 335.136 -4.12789 -0.994507 0
M  V30 3348 O 336.16 -3.47814 -0.768357 0
M  V30 3349 O 335.019 -5.27649 -1.42299 0
M  V30 3350 H 332.113 -0.788478 -0.249461 0
M  V30 3351 H 334.659 -1.67855 0.249538 0
M  V30 3352 H 333.431 -3.90534 0.244722 0
M  V30 3353 H 333.054 -3.69909 -1.45785 0
M  V30 3354 N 334.051 0.0651679 -1.57465 0
M  V30 3355 C 335.279 0.775808 -1.91804 0
M  V30 3356 C 335.694 1.70782 -0.804916 0
M  V30 3357 O 335.051 1.81153 0.221311 0
M  V30 3358 C 335.102 1.56381 -3.25925 0
M  V30 3359 O 334.823 0.669248 -4.32958 0
M  V30 3360 C 336.324 2.37485 -3.7432 0
M  V30 3361 H 333.544 0.2202 -0.63384 0
M  V30 3362 H 336.088 0.0334587 -2.04473 0
M  V30 3363 H 334.243 2.25837 -3.14764 0
M  V30 3364 H 334.657 1.21801 -5.10162 0
M  V30 3365 H 336.131 2.88223 -4.70778 0
M  V30 3366 H 336.608 3.17307 -3.03666 0
M  V30 3367 H 337.214 1.73173 -3.88447 0
M  V30 3368 N 335.529 1.53961 0.336706 0
M  V30 3369 C 336.776 1.71536 1.07618 0
M  V30 3370 C 337.104 0.482125 1.8843 0
M  V30 3371 O 336.359 -0.536142 1.88213 0
M  V30 3372 C 336.658 2.93493 2.03953 0
M  V30 3373 C 336.324 4.28811 1.39399 0
M  V30 3374 C 334.986 4.65602 1.21523 0
M  V30 3375 C 337.338 5.12844 0.929541 0
M  V30 3376 C 334.666 5.84037 0.558312 0
M  V30 3377 C 337.018 6.31951 0.286505 0
M  V30 3378 C 335.682 6.67432 0.0954869 0
M  V30 3379 H 334.952 0.627696 0.393801 0
M  V30 3380 H 337.599 1.88186 0.354715 0
M  V30 3381 H 335.904 2.71475 2.82504 0
M  V30 3382 H 337.601 3.04285 2.61174 0
M  V30 3383 H 334.191 3.99858 1.54311 0
M  V30 3384 H 338.375 4.84947 1.05548 0
M  V30 3385 H 333.631 6.10097 0.398995 0
M  V30 3386 H 337.805 6.96352 -0.0814376 0
M  V30 3387 H 335.432 7.59063 -0.415579 0
M  V30 3388 N 337.007 -0.598083 1.45811 0
M  V30 3389 C 338.237 -1.38121 1.53643 0
M  V30 3390 C 338.645 -1.88425 0.171081 0
M  V30 3391 O 337.988 -1.63409 -0.839237 0
M  V30 3392 C 338.05 -2.61432 2.46766 0
M  V30 3393 C 337.714 -2.32702 3.93318 0
M  V30 3394 C 338.711 -1.92479 4.82957 0
M  V30 3395 C 336.396 -2.45321 4.38318 0
M  V30 3396 C 338.39 -1.65248 6.15607 0
M  V30 3397 C 336.077 -2.17703 5.71007 0
M  V30 3398 C 337.075 -1.7773 6.5947 0
M  V30 3399 O 336.763 -1.50441 7.89698 0
M  V30 3400 H 336.495 -0.428863 0.522544 0
M  V30 3401 H 339.049 -0.73557 1.91777 0
M  V30 3402 H 337.279 -3.28749 2.0362 0
M  V30 3403 H 338.968 -3.23487 2.45175 0
M  V30 3404 H 339.734 -1.82258 4.49452 0
M  V30 3405 H 335.613 -2.75399 3.69697 0
M  V30 3406 H 339.157 -1.33973 6.84614 0
M  V30 3407 H 335.054 -2.27544 6.04065 0
M  V30 3408 H 335.822 -1.64415 8.01817 0
M  V30 3409 N 338.485 -1.33259 -0.841409 0
M  V30 3410 C 339.731 -1.24757 -1.59886 0
M  V30 3411 C 340.064 0.186913 -1.93298 0
M  V30 3412 O 339.339 1.12757 -1.5848 0
M  V30 3413 C 339.622 -2.12036 -2.91055 0
M  V30 3414 C 339.475 -3.63929 -2.6434 0
M  V30 3415 C 340.794 -1.9916 -3.92458 0
M  V30 3416 H 337.913 -0.454542 -0.580138 0
M  V30 3417 H 340.555 -1.63335 -0.970647 0
M  V30 3418 H 338.705 -1.79265 -3.44669 0
M  V30 3419 H 340.377 -4.06978 -2.17178 0
M  V30 3420 H 338.62 -3.85935 -1.98082 0
M  V30 3421 H 339.291 -4.20341 -3.57796 0
M  V30 3422 H 341.767 -2.27895 -3.48143 0
M  V30 3423 H 340.643 -2.62484 -4.82072 0
M  V30 3424 H 340.904 -0.963082 -4.31482 0
M  V30 3425 N 339.963 1.05934 -1.16686 0
M  V30 3426 C 340.913 2.11764 -0.844978 0
M  V30 3427 C 341.897 1.59922 0.177178 0
M  V30 3428 O 343.089 1.76983 -0.0241768 0
M  V30 3429 C 340.218 3.41493 -0.351812 0
M  V30 3430 C 339.304 4.00152 -1.40496 0
M  V30 3431 N 339.695 4.32874 -2.61636 0
M  V30 3432 C 337.993 4.278 -1.26106 0
M  V30 3433 C 338.694 4.79552 -3.29249 0
M  V30 3434 N 337.67 4.79211 -2.56628 0
M  V30 3435 H 341.472 2.34916 -1.76612 0
M  V30 3436 H 338.986 1.23511 -1.05446 0
M  V30 3437 H 340.983 4.16773 -0.102796 0
M  V30 3438 H 339.643 3.19778 0.56322 0
M  V30 3439 H 340.654 4.23109 -2.98663 0
M  V30 3440 H 337.331 4.15511 -0.407081 0
M  V30 3441 H 338.721 5.14045 -4.32675 0
M  V30 3442 N 341.441 0.965919 1.2453 0
M  V30 3443 C 342.852 0.665929 1.7442 0
M  V30 3444 C 343.203 -0.818407 1.78316 0
M  V30 3445 O 342.328 -1.64037 1.41141 0
M  V30 3446 C 342.923 1.20211 3.16757 0
M  V30 3447 C 341.482 0.952059 3.6416 0
M  V30 3448 C 340.629 1.33848 2.42858 0
M  V30 3449 H 343.58 1.14144 1.10258 0
M  V30 3450 H 343.601 0.567544 3.76244 0
M  V30 3451 H 343.113 2.28244 3.13889 0
M  V30 3452 H 341.214 -0.112821 3.72429 0
M  V30 3453 H 341.327 1.59645 4.51719 0
M  V30 3454 H 339.691 0.756864 2.43195 0
M  V30 3455 H 340.474 2.42827 2.42673 0
M  V30 3456 N 342.919 -1.39368 0.735821 0
M  V30 3457 C 344.196 -1.94465 0.210395 0
M  V30 3458 C 344.576 -1.67254 -1.28799 0
M  V30 3459 O 343.924 -1.00123 -2.05396 0
M  V30 3460 C 344.134 -3.4472 0.544897 0
M  V30 3461 C 345.482 -4.21708 0.494689 0
M  V30 3462 O 346.506 -3.52922 0.482136 0
M  V30 3463 O 345.365 -5.44299 0.489947 0
M  V30 3464 H 342.459 -0.826096 0.0386666 0
M  V30 3465 H 345.005 -1.48863 0.814735 0
M  V30 3466 H 343.777 -3.57963 1.58045 0
M  V30 3467 H 343.4 -3.97502 -0.08837 0
M  V30 3468 N 344.397 -0.483516 -1.5 0
M  V30 3469 C 345.625 0.0644831 -2.06799 0
M  V30 3470 C 346.04 1.32399 -1.34596 0
M  V30 3471 O 345.397 1.77626 -0.418946 0
M  V30 3472 C 345.448 0.339927 -3.59898 0
M  V30 3473 O 345.169 -0.869635 -4.29382 0
M  V30 3474 C 346.67 0.933515 -4.33359 0
M  V30 3475 H 343.89 -0.0126333 -0.670881 0
M  V30 3476 H 346.434 -0.675864 -1.93009 0
M  V30 3477 H 344.589 1.03022 -3.7345 0
M  V30 3478 H 345.003 -0.62179 -5.20801 0
M  V30 3479 H 346.477 1.07593 -5.41413 0
M  V30 3480 H 346.954 1.92685 -3.94676 0
M  V30 3481 H 347.56 0.281221 -4.24369 0
M  V30 3482 N 345.875 1.56104 -0.216619 0
M  V30 3483 C 347.121 1.98466 0.417033 0
M  V30 3484 C 347.454 1.10403 1.59765 0
M  V30 3485 O 346.729 0.160632 1.93836 0
M  V30 3486 C 347.012 3.49769 0.85637 0
M  V30 3487 C 346.865 4.48606 -0.327546 0
M  V30 3488 C 348.184 4.05339 1.7143 0
M  V30 3489 H 345.303 0.721551 0.150112 0
M  V30 3490 H 347.945 1.87423 -0.311864 0
M  V30 3491 H 346.095 3.5931 1.47745 0
M  V30 3492 H 347.767 4.5108 -0.965618 0
M  V30 3493 H 346.01 4.22682 -0.975805 0
M  V30 3494 H 346.681 5.51995 0.0227149 0
M  V30 3495 H 349.157 3.98712 1.19031 0
M  V30 3496 H 348.033 5.11533 1.99061 0
M  V30 3497 H 348.294 3.51918 2.67593 0
M  V30 3498 N 347.353 -0.0568162 1.57498 0
M  V30 3499 C 348.602 -0.752001 1.87157 0
M  V30 3500 C 348.915 -1.77978 0.811375 0
M  V30 3501 O 350.121 -2.52559 0.996293 0
M  V30 3502 C 348.577 -1.38844 3.3204 0
M  V30 3503 C 348.185 -0.398456 4.46225 0
M  V30 3504 C 349.929 -2.06512 3.70882 0
M  V30 3505 C 347.836 -1.04166 5.82154 0
M  V30 3506 H 346.766 -0.28461 0.698222 0
M  V30 3507 H 349.417 -0.00561272 1.83499 0
M  V30 3508 H 347.799 -2.1836 3.30356 0
M  V30 3509 H 348.973 0.367977 4.59328 0
M  V30 3510 H 347.288 0.174592 4.16034 0
M  V30 3511 H 349.885 -2.55437 4.6974 0
M  V30 3512 H 350.228 -2.87117 3.01445 0
M  V30 3513 H 350.761 -1.33808 3.7462 0
M  V30 3514 H 347.5 -0.275614 6.5492 0
M  V30 3515 H 347.02 -1.7786 5.72823 0
M  V30 3516 H 348.699 -1.55715 6.27982 0
M  V30 3517 N 348.832 -1.54138 -0.328536 0
M  V30 3518 C 350.243 -1.63395 -0.903272 0
M  V30 3519 C 350.594 -0.524828 -1.8905 0
M  V30 3520 O 349.719 0.343068 -2.13663 0
M  V30 3521 C 350.314 -2.9618 -1.64507 0
M  V30 3522 C 348.873 -3.0765 -2.1686 0
M  V30 3523 C 348.02 -2.58933 -0.992416 0
M  V30 3524 H 350.971 -1.58344 -0.106253 0
M  V30 3525 H 350.992 -2.86061 -2.50897 0
M  V30 3526 H 350.504 -3.76884 -0.926302 0
M  V30 3527 H 348.605 -2.31611 -2.91868 0
M  V30 3528 H 348.718 -4.1337 -2.42202 0
M  V30 3529 H 347.082 -2.14706 -1.37016 0
M  V30 3530 H 347.865 -3.42089 -0.288041 0
M  V30 3531 N 350.31 0.590341 -1.46126 0
M  V30 3532 C 351.558 1.34616 -1.50742 0
M  V30 3533 C 351.879 1.94363 -0.157486 0
M  V30 3534 O 351.149 1.78136 0.815136 0
M  V30 3535 H 349.729 0.499789 -0.555175 0
M  V30 3536 H 352.391 0.691953 -1.82203 0
M  V30 3537 H 351.487 2.15678 -2.25587 0
M  V30 3538 N 351.788 1.33704 0.83433 0
M  V30 3539 C 353.016 1.28467 1.62185 0
M  V30 3540 C 353.431 -0.143526 1.88254 0
M  V30 3541 O 352.788 -1.08709 1.4659 0
M  V30 3542 C 352.839 2.06174 2.96942 0
M  V30 3543 O 352.56 3.43422 2.72016 0
M  V30 3544 C 354.061 2.08201 3.91366 0
M  V30 3545 H 351.281 0.4424 0.504503 0
M  V30 3546 H 353.825 1.76145 1.03891 0
M  V30 3547 H 351.98 1.62167 3.51825 0
M  V30 3548 H 352.394 3.83453 3.57861 0
M  V30 3549 H 353.868 2.67017 4.83121 0
M  V30 3550 H 354.345 1.07343 4.2588 0
M  V30 3551 H 354.951 2.52246 3.42421 0
M  V30 3552 N 353.266 -1.05314 1.17247 0
M  V30 3553 C 354.216 -2.11313 0.856196 0
M  V30 3554 C 355.2 -1.60013 -0.168694 0
M  V30 3555 O 356.392 -1.76968 0.0335624 0
M  V30 3556 C 353.521 -3.41301 0.369917 0
M  V30 3557 C 352.607 -3.99401 1.42616 0
M  V30 3558 N 352.998 -4.31481 2.63928 0
M  V30 3559 C 351.296 -4.27126 1.28373 0
M  V30 3560 C 351.997 -4.77799 3.31787 0
M  V30 3561 N 350.973 -4.77843 2.59166 0
M  V30 3562 H 354.775 -2.33976 1.77856 0
M  V30 3563 H 352.289 -1.2295 1.06099 0
M  V30 3564 H 354.286 -4.16713 0.124897 0
M  V30 3565 H 352.946 -3.20072 -0.546253 0
M  V30 3566 H 353.957 -4.21519 3.00902 0
M  V30 3567 H 350.634 -4.15289 0.429111 0
M  V30 3568 H 352.024 -5.11743 4.35395 0
M  V30 3569 N 354.744 -0.972509 -1.24016 0
M  V30 3570 C 355.707 -0.511403 -2.23422 0
M  V30 3571 C 356.707 0.394679 -1.55881 0
M  V30 3572 O 357.897 0.189469 -1.73167 0
M  V30 3573 C 355.029 0.258769 -3.39916 0
M  V30 3574 H 356.222 -1.39024 -2.6573 0
M  V30 3575 H 353.775 -0.757585 -1.36713 0
M  V30 3576 H 354.51 1.1545 -3.03054 0
M  V30 3577 H 354.295 -0.391522 -3.9014 0
M  V30 3578 H 355.785 0.570244 -4.13688 0
M  V30 3579 N 356.222 1.38976 -0.743202 0
M  V30 3580 C 357.17 2.32394 -0.0978389 0
M  V30 3581 C 358.164 1.53486 0.716824 0
M  V30 3582 O 359.37 1.69092 0.617088 0
M  V30 3583 H 355.745 0.75189 -0.0128402 0
M  V30 3584 H 357.716 2.84441 -0.901981 0
M  V30 3585 C 356.465 3.38629 0.789036 0
M  V30 3586 H 355.788 3.99432 0.171559 0
M  V30 3587 H 357.228 4.06426 1.20807 0
M  V30 3588 C 355.687 2.76347 1.92702 0
M  V30 3589 O 356.217 2.64836 3.02034 0
M  V30 3590 N 354.423 2.34311 1.71891 0
M  V30 3591 H 353.97 2.43873 0.829675 0
M  V30 3592 H 353.928 1.9298 2.48205 0
M  V30 3593 N 357.7 0.491464 1.49741 0
M  V30 3594 C 358.948 -0.0563141 2.02022 0
M  V30 3595 C 359.269 -1.38363 1.37407 0
M  V30 3596 O 358.539 -1.88702 0.526166 0
M  V30 3597 H 357.119 -0.0238014 0.746621 0
M  V30 3598 H 359.781 0.646533 1.83864 0
M  V30 3599 H 358.877 -0.192967 3.11503 0
M  V30 3600 N 359.178 -1.55987 0.224894 0
M  V30 3601 C 360.408 -2.02489 -0.41007 0
M  V30 3602 C 360.816 -1.10391 -1.53657 0
M  V30 3603 O 360.159 -0.106458 -1.83391 0
M  V30 3604 C 360.221 -3.45319 -0.999757 0
M  V30 3605 C 359.885 -4.56999 -0.00827976 0
M  V30 3606 C 360.882 -5.13812 0.793314 0
M  V30 3607 C 358.567 -5.02176 0.111442 0
M  V30 3608 C 360.561 -6.14276 1.7013 0
M  V30 3609 C 358.248 -6.02477 1.02296 0
M  V30 3610 C 359.246 -6.58403 1.81643 0
M  V30 3611 O 358.934 -7.56751 2.71262 0
M  V30 3612 H 358.666 -0.667915 -0.104235 0
M  V30 3613 H 361.22 -2.0257 0.339782 0
M  V30 3614 H 359.45 -3.42318 -1.79876 0
M  V30 3615 H 361.139 -3.7545 -1.54248 0
M  V30 3616 H 361.905 -4.79756 0.711288 0
M  V30 3617 H 357.784 -4.58323 -0.49605 0
M  V30 3618 H 361.328 -6.57854 2.32107 0
M  V30 3619 H 357.225 -6.35954 1.10599 0
M  V30 3620 H 357.993 -7.74286 2.65375 0
M  V30 3621 N 360.656 0.0484629 -1.57525 0
M  V30 3622 C 361.586 1.0549 -2.08313 0
M  V30 3623 C 362.567 1.38929 -0.981463 0
M  V30 3624 O 363.752 1.48151 -1.25558 0
M  V30 3625 C 360.882 2.36162 -2.54646 0
M  V30 3626 C 359.836 2.17016 -3.68901 0
M  V30 3627 C 359.162 3.53278 -4.01371 0
M  V30 3628 C 360.462 1.57219 -4.98076 0
M  V30 3629 H 362.156 0.632195 -2.92649 0
M  V30 3630 H 359.702 0.302654 -1.40784 0
M  V30 3631 H 361.655 3.06882 -2.88793 0
M  V30 3632 H 360.379 2.80456 -1.67368 0
M  V30 3633 H 359.038 1.48733 -3.35073 0
M  V30 3634 H 358.686 3.95185 -3.11188 0
M  V30 3635 H 358.386 3.41299 -4.78318 0
M  V30 3636 H 359.91 4.25391 -4.38035 0
M  V30 3637 H 361.324 2.17832 -5.30304 0
M  V30 3638 H 359.721 1.55871 -5.79503 0
M  V30 3639 H 360.791 0.535956 -4.81929 0
M  V30 3640 N 362.134 1.5431 0.320358 0
M  V30 3641 C 363.362 1.76636 1.07738 0
M  V30 3642 C 363.777 0.51649 1.81598 0
M  V30 3643 O 363.134 -0.512942 1.75143 0
M  V30 3644 C 363.185 2.96158 2.07299 0
M  V30 3645 O 362.906 4.16313 1.36438 0
M  V30 3646 C 364.407 3.3072 2.95193 0
M  V30 3647 H 361.627 0.589597 0.320339 0
M  V30 3648 H 364.171 2.01207 0.36551 0
M  V30 3649 H 362.326 2.73851 2.74016 0
M  V30 3650 H 362.74 4.83565 2.03138 0
M  V30 3651 H 364.214 4.17643 3.60941 0
M  V30 3652 H 364.691 2.48026 3.62463 0
M  V30 3653 H 365.297 3.55117 2.34034 0
M  V30 3654 N 363.613 -0.582584 1.46437 0
M  V30 3655 C 365.024 -1.1647 1.45916 0
M  V30 3656 C 365.375 -1.95177 0.200077 0
M  V30 3657 O 364.5 -2.04874 -0.696819 0
M  V30 3658 C 365.095 -2.11885 2.64367 0
M  V30 3659 C 363.654 -2.65421 2.66887 0
M  V30 3660 C 362.801 -1.41294 2.38603 0
M  V30 3661 H 365.752 -0.370514 1.54314 0
M  V30 3662 H 365.773 -2.9535 2.39892 0
M  V30 3663 H 365.285 -1.54573 3.5599 0
M  V30 3664 H 363.386 -3.26602 1.79338 0
M  V30 3665 H 363.499 -3.08147 3.66854 0
M  V30 3666 H 361.863 -1.71109 1.88663 0
M  V30 3667 H 362.646 -0.858125 3.32402 0
M  V30 3668 N 365.091 -1.34144 -0.827227 0
M  V30 3669 C 366.368 -1.16844 -1.56865 0
M  V30 3670 C 366.748 0.260654 -2.09485 0
M  V30 3671 O 366.096 1.26138 -1.9053 0
M  V30 3672 C 366.306 -2.21939 -2.6934 0
M  V30 3673 C 367.654 -2.56695 -3.3822 0
M  V30 3674 O 368.678 -2.20695 -2.79593 0
M  V30 3675 O 367.537 -3.18518 -4.44082 0
M  V30 3676 H 364.631 -0.452669 -0.692112 0
M  V30 3677 H 367.177 -1.45763 -0.868973 0
M  V30 3678 H 365.949 -3.17882 -2.28182 0
M  V30 3679 H 365.572 -1.94172 -3.46962 0
M  V30 3680 N 366.569 1.04691 -1.17803 0
M  V30 3681 C 367.479 2.16057 -0.914151 0
M  V30 3682 C 368.495 1.73589 0.119503 0
M  V30 3683 O 369.671 2.01308 -0.0609468 0
M  V30 3684 C 366.736 3.4394 -0.436603 0
M  V30 3685 C 365.797 4.00825 -1.53746 0
M  V30 3686 C 365.03 5.22604 -1.0826 0
M  V30 3687 O 365.253 5.70367 0.0612244 0
M  V30 3688 O 364.187 5.7186 -1.87775 0
M  V30 3689 H 368.013 2.41169 -1.84584 0
M  V30 3690 H 365.598 1.1453 -0.959334 0
M  V30 3691 H 367.48 4.21024 -0.178057 0
M  V30 3692 H 366.155 3.20316 0.466869 0
M  V30 3693 H 365.062 3.25158 -1.84995 0
M  V30 3694 H 366.395 4.28778 -2.41683 0
M  V30 3695 N 368.047 0.979072 1.23499 0
M  V30 3696 C 369.01 0.523244 2.23147 0
M  V30 3697 C 370.01 -0.386406 1.56088 0
M  V30 3698 O 371.2 -0.180283 1.73265 0
M  V30 3699 C 368.332 -0.240739 3.40049 0
M  V30 3700 H 369.525 1.40432 2.64989 0
M  V30 3701 H 367.078 0.764824 1.36309 0
M  V30 3702 H 367.813 -1.13841 3.03662 0
M  V30 3703 H 367.598 0.412207 3.89927 0
M  V30 3704 H 369.088 -0.548297 4.13985 0
M  V30 3705 N 369.525 -1.3858 0.750561 0
M  V30 3706 C 370.773 -1.99789 0.30477 0
M  V30 3707 C 371.094 -1.59874 -1.11649 0
M  V30 3708 O 370.364 -0.85417 -1.76297 0
M  V30 3709 H 368.944 -0.738902 0.109694 0
M  V30 3710 H 371.606 -1.69391 0.963983 0
M  V30 3711 H 370.702 -3.09952 0.365499 0
M  V30 3712 N 371.003 -0.499398 -1.49478 0
M  V30 3713 C 372.251 0.0455996 -2.02049 0
M  V30 3714 C 372.572 1.37633 -1.38138 0
M  V30 3715 O 371.842 1.8842 -0.536166 0
M  V30 3716 H 370.422 0.0198416 -0.746736 0
M  V30 3717 H 373.084 -0.656274 -1.83519 0
M  V30 3718 H 372.18 0.176445 -3.11601 0
M  V30 3719 N 372.481 1.55866 -0.233164 0
M  V30 3720 C 373.444 2.1953 0.658715 0
M  V30 3721 C 374.444 1.16053 1.11303 0
M  V30 3722 O 375.634 1.41218 1.01996 0
M  V30 3723 C 372.766 2.82791 1.90373 0
M  V30 3724 H 373.959 2.99721 0.10347 0
M  V30 3725 H 371.512 1.56291 0.0164245 0
M  V30 3726 H 372.247 2.06501 2.50056 0
M  V30 3727 H 372.032 3.58578 1.58632 0
M  V30 3728 H 373.522 3.31556 2.53891 0
M  V30 3729 N 373.959 -0.0401083 1.57549 0
M  V30 3730 C 374.889 -1.04384 2.08869 0
M  V30 3731 C 375.87 -1.38407 0.988817 0
M  V30 3732 O 377.055 -1.47483 1.26342 0
M  V30 3733 C 374.185 -2.34808 2.55895 0
M  V30 3734 C 373.139 -2.15057 3.70047 0
M  V30 3735 C 372.465 -3.51145 4.03239 0
M  V30 3736 C 373.765 -1.54576 4.98902 0
M  V30 3737 H 375.459 -0.616666 2.92981 0
M  V30 3738 H 373.005 -0.295184 1.40942 0
M  V30 3739 H 374.958 -3.05346 2.90417 0
M  V30 3740 H 373.682 -2.79565 1.68853 0
M  V30 3741 H 372.341 -1.46954 3.35857 0
M  V30 3742 H 371.989 -3.93529 3.13279 0
M  V30 3743 H 371.689 -3.38758 4.80122 0
M  V30 3744 H 373.213 -4.23062 4.40285 0
M  V30 3745 H 374.627 -2.15017 5.31451 0
M  V30 3746 H 373.024 -1.52796 5.80322 0
M  V30 3747 H 374.094 -0.51039 4.82206 0
M  V30 3748 N 375.437 -1.54477 -0.31217 0
M  V30 3749 C 376.683 -1.73483 -1.0503 0
M  V30 3750 C 377.016 -0.513125 -1.87298 0
M  V30 3751 O 376.291 0.489864 -1.8823 0
M  V30 3752 C 376.574 -3.01723 -1.96558 0
M  V30 3753 C 376.427 -4.3417 -1.17545 0
M  V30 3754 C 377.746 -3.25772 -2.95907 0
M  V30 3755 H 374.865 -0.631222 -0.380432 0
M  V30 3756 H 377.507 -1.87184 -0.325932 0
M  V30 3757 H 375.657 -2.90174 -2.58324 0
M  V30 3758 H 377.329 -4.5762 -0.581513 0
M  V30 3759 H 375.572 -4.31159 -0.477925 0
M  V30 3760 H 376.243 -5.20143 -1.84811 0
M  V30 3761 H 378.719 -3.36857 -2.44267 0
M  V30 3762 H 377.595 -4.16838 -3.57123 0
M  V30 3763 H 377.856 -2.43537 -3.68974 0
M  V30 3764 N 376.915 0.57481 -1.46744 0
M  V30 3765 C 378.192 1.3352 -1.4294 0
M  V30 3766 C 378.572 2.10775 -0.117009 0
M  V30 3767 O 377.92 2.09966 0.901474 0
M  V30 3768 C 378.13 2.25456 -2.66403 0
M  V30 3769 C 379.478 2.87035 -3.12883 0
M  V30 3770 O 380.502 2.35766 -2.67007 0
M  V30 3771 O 379.361 3.80179 -3.92589 0
M  V30 3772 H 376.455 0.600318 -0.568812 0
M  V30 3773 H 379.001 0.595171 -1.58921 0
M  V30 3774 H 377.773 1.67851 -3.53471 0
M  V30 3775 H 377.396 3.06785 -2.52921 0
M  V30 3776 N 378.394 1.34581 0.820102 0
M  V30 3777 C 379.619 1.30333 1.61332 0
M  V30 3778 C 380.044 -0.119339 1.87721 0
M  V30 3779 O 379.402 -1.08197 1.45475 0
M  V30 3780 C 379.45 2.10258 2.92957 0
M  V30 3781 O 378.554 1.47404 3.85157 0
M  V30 3782 H 377.895 0.447488 0.490561 0
M  V30 3783 H 380.425 1.77425 1.01889 0
M  V30 3784 H 380.435 2.21718 3.42498 0
M  V30 3785 H 379.11 3.13693 2.73074 0
M  V30 3786 H 377.687 1.44703 3.43679 0
M  V30 3787 N 379.872 -1.04064 1.18357 0
M  V30 3788 C 381.1 -1.80916 1.00384 0
M  V30 3789 C 381.515 -1.83414 -0.447738 0
M  V30 3790 O 380.872 -1.26962 -1.31099 0
M  V30 3791 C 380.923 -3.26516 1.55144 0
M  V30 3792 O 380.644 -3.2424 2.94618 0
M  V30 3793 C 382.145 -4.20013 1.41789 0
M  V30 3794 H 379.365 -0.569728 0.354474 0
M  V30 3795 H 381.909 -1.31151 1.56906 0
M  V30 3796 H 380.064 -3.73512 1.02798 0
M  V30 3797 H 380.478 -4.15452 3.20156 0
M  V30 3798 H 381.952 -5.20111 1.84901 0
M  V30 3799 H 382.429 -4.37667 0.36661 0
M  V30 3800 H 383.035 -3.78881 1.93207 0
M  V30 3801 N 381.35 -0.985608 -1.22978 0
M  V30 3802 C 382.26 -0.538548 -2.28335 0
M  V30 3803 C 383.276 0.409163 -1.69121 0
M  V30 3804 O 384.452 0.277797 -1.99475 0
M  V30 3805 C 381.517 0.146867 -3.46389 0
M  V30 3806 C 380.578 -0.842896 -4.20944 0
M  V30 3807 C 379.811 -0.190095 -5.33361 0
M  V30 3808 O 380.034 1.01767 -5.61248 0
M  V30 3809 O 378.968 -0.891289 -5.95264 0
M  V30 3810 H 382.794 -1.41487 -2.68729 0
M  V30 3811 H 380.379 -0.753495 -1.29007 0
M  V30 3812 H 382.261 0.531125 -4.1804 0
M  V30 3813 H 380.936 0.997871 -3.07935 0
M  V30 3814 H 379.843 -1.27795 -3.51595 0
M  V30 3815 H 381.176 -1.66287 -4.6326 0
M  V30 3816 N 382.828 1.3818 -0.7579 0
M  V30 3817 C 383.76 2.2901 -0.0932177 0
M  V30 3818 C 384.773 1.47958 0.679136 0
M  V30 3819 O 385.962 1.70773 0.519514 0
M  V30 3820 C 383.062 3.26953 0.89192 0
M  V30 3821 C 382.235 4.37045 0.176303 0
M  V30 3822 C 381.294 5.15148 1.07281 0
M  V30 3823 O 380.32 5.66616 0.541728 0
M  V30 3824 N 381.522 5.28542 2.40049 0
M  V30 3825 H 384.287 2.86694 -0.873303 0
M  V30 3826 H 381.848 1.50007 -0.609054 0
M  V30 3827 H 383.84 3.76083 1.49479 0
M  V30 3828 H 382.41 2.70136 1.57306 0
M  V30 3829 H 381.63 3.89493 -0.607328 0
M  V30 3830 H 382.918 5.07801 -0.318718 0
M  V30 3831 H 382.316 4.88285 2.85647 0
M  V30 3832 H 380.873 5.8103 2.95376 0
M  V30 3833 N 384.306 0.507319 1.49211 0
M  V30 3834 C 385.534 -0.0315749 2.06876 0
M  V30 3835 C 385.949 -1.30241 1.36685 0
M  V30 3836 O 385.306 -1.76937 0.447152 0
M  V30 3837 C 385.357 -0.282627 3.60393 0
M  V30 3838 O 385.078 0.937835 4.27944 0
M  V30 3839 C 386.579 -0.864453 4.3479 0
M  V30 3840 H 383.799 0.0233048 0.670595 0
M  V30 3841 H 386.343 0.706484 1.91909 0
M  V30 3842 H 384.498 -0.97068 3.75042 0
M  V30 3843 H 384.912 0.704567 5.19746 0
M  V30 3844 H 386.386 -0.989664 5.43056 0
M  V30 3845 H 386.863 -1.86382 3.97692 0
M  V30 3846 H 387.469 -0.213672 4.24763 0
M  V30 3847 N 385.784 -1.5574 0.241426 0
M  V30 3848 C 387.03 -1.99104 -0.385406 0
M  V30 3849 C 387.363 -1.1293 -1.57988 0
M  V30 3850 O 386.638 -0.191449 -1.93555 0
M  V30 3851 C 386.921 -3.51087 -0.800616 0
M  V30 3852 C 386.774 -4.48028 0.398874 0
M  V30 3853 C 388.093 -4.08015 -1.64959 0
M  V30 3854 H 385.212 -0.723848 -0.138614 0
M  V30 3855 H 387.854 -1.86903 0.341642 0
M  V30 3856 H 386.004 -3.61615 -1.4201 0
M  V30 3857 H 387.676 -4.49487 1.03726 0
M  V30 3858 H 385.919 -4.21077 1.04293 0
M  V30 3859 H 386.59 -5.51962 0.0651056 0
M  V30 3860 H 389.066 -4.00555 -1.12672 0
M  V30 3861 H 387.942 -5.14635 -1.90898 0
M  V30 3862 H 388.203 -3.56131 -2.61961 0
M  V30 3863 N 387.262 0.0317525 -1.57568 0
M  V30 3864 C 388.487 0.738664 -1.938 0
M  V30 3865 C 388.912 1.68242 -0.841208 0
M  V30 3866 O 388.27 1.80157 0.203267 0
M  V30 3867 C 388.318 1.47417 -3.29091 0
M  V30 3868 O 387.422 2.5872 -3.2115 0
M  V30 3869 H 386.763 0.198856 -0.633524 0
M  V30 3870 H 389.293 -0.0119713 -2.04596 0
M  V30 3871 H 389.303 1.84468 -3.63917 0
M  V30 3872 H 387.978 0.781988 -4.08482 0
M  V30 3873 H 386.555 2.24231 -2.97951 0
M  V30 3874 N 388.74 1.54641 0.303973 0
M  V30 3875 C 389.986 1.74969 1.03718 0
M  V30 3876 C 390.341 0.527461 1.85029 0
M  V30 3877 O 389.634 -0.480143 1.85486 0
M  V30 3878 C 389.828 2.97753 1.97681 0
M  V30 3879 C 389.657 4.318 1.25613 0
M  V30 3880 C 388.427 4.95616 0.984518 0
M  V30 3881 C 390.625 5.10021 0.662081 0
M  V30 3882 N 388.607 6.13455 0.233794 0
M  V30 3883 C 389.978 6.19984 0.0439736 0
M  V30 3884 C 392.033 4.94663 0.566835 0
M  V30 3885 C 390.736 7.16264 -0.66016 0
M  V30 3886 C 392.762 5.91271 -0.123637 0
M  V30 3887 C 392.124 7.00601 -0.730608 0
M  V30 3888 H 388.223 0.692873 0.362562 0
M  V30 3889 H 390.807 1.92116 0.316135 0
M  V30 3890 H 388.978 2.82036 2.6704 0
M  V30 3891 H 390.71 3.06621 2.64132 0
M  V30 3892 H 387.465 4.55921 1.28191 0
M  V30 3893 H 387.889 6.76879 -0.127996 0
M  V30 3894 H 392.531 4.10267 1.02181 0
M  V30 3895 H 390.249 8.00204 -1.12691 0
M  V30 3896 H 393.835 5.81466 -0.197236 0
M  V30 3897 H 392.715 7.7407 -1.2564 0
M  V30 3898 N 390.218 -0.567019 1.47046 0
M  V30 3899 C 391.181 -1.65696 1.58359 0
M  V30 3900 C 392.181 -1.54097 0.459441 0
M  V30 3901 O 393.371 -1.58432 0.724225 0
M  V30 3902 C 390.503 -3.05197 1.51879 0
M  V30 3903 H 391.696 -1.57019 2.5551 0
M  V30 3904 H 389.249 -0.786148 1.3509 0
M  V30 3905 H 389.984 -3.19417 0.560673 0
M  V30 3906 H 389.769 -3.15025 2.33455 0
M  V30 3907 H 391.259 -3.84511 1.62913 0
M  V30 3908 N 391.696 -1.35014 -0.812953 0
M  V30 3909 C 392.628 -1.23262 -1.93233 0
M  V30 3910 C 393.641 -0.157371 -1.62038 0
M  V30 3911 O 394.83 -0.410096 -1.73725 0
M  V30 3912 C 391.93 -0.87392 -3.27438 0
M  V30 3913 C 391.103 -2.04622 -3.86586 0
M  V30 3914 C 390.162 -1.66432 -4.99186 0
M  V30 3915 O 389.188 -2.38222 -5.16951 0
M  V30 3916 N 390.39 -0.584248 -5.77552 0
M  V30 3917 H 393.155 -2.19699 -2.03844 0
M  V30 3918 H 390.716 -1.281 -0.99005 0
M  V30 3919 H 392.708 -0.600039 -4.00227 0
M  V30 3920 H 391.278 0.00057392 -3.126 0
M  V30 3921 H 390.498 -2.48427 -3.06068 0
M  V30 3922 H 391.786 -2.82999 -4.22835 0
M  V30 3923 H 391.184 0.0123526 -5.65699 0
M  V30 3924 H 389.741 -0.37013 -6.50748 0
M  V30 3925 N 393.175 1.03435 -1.18907 0
M  V30 3926 C 394.4 1.80919 -1.01406 0
M  V30 3927 C 394.825 1.83055 0.432721 0
M  V30 3928 O 394.183 1.25252 1.31079 0
M  V30 3929 C 394.231 3.24091 -1.58105 0
M  V30 3930 O 393.335 4.04434 -0.806669 0
M  V30 3931 H 392.676 0.558709 -0.358803 0
M  V30 3932 H 395.206 1.30223 -1.57807 0
M  V30 3933 H 395.216 3.74853 -1.61087 0
M  V30 3934 H 393.891 3.21851 -2.6341 0
M  V30 3935 H 392.468 3.63091 -0.849666 0
M  V30 3936 N 394.653 0.992116 1.22453 0
M  V30 3937 C 395.616 0.546883 2.2258 0
M  V30 3938 C 396.616 -0.369829 1.56489 0
M  V30 3939 O 397.806 -0.161896 1.73446 0
M  V30 3940 C 394.938 -0.204659 3.40285 0
M  V30 3941 H 396.131 1.43234 2.63484 0
M  V30 3942 H 393.684 0.779239 1.3549 0
M  V30 3943 H 394.419 -1.10614 3.04853 0
M  V30 3944 H 394.204 0.45354 3.89468 0
M  V30 3945 H 395.694 -0.504358 4.14543 0
M  V30 3946 N 396.131 -1.37776 0.765217 0
M  V30 3947 C 397.379 -1.99454 0.325943 0
M  V30 3948 C 397.7 -1.61049 -1.09947 0
M  V30 3949 O 396.97 -0.872821 -1.75381 0
M  V30 3950 H 395.55 -0.737697 0.117525 0
M  V30 3951 H 398.212 -1.68359 0.981895 0
M  V30 3952 H 397.308 -3.09547 0.398353 0
M  V30 3953 N 397.609 -0.515225 -1.4894 0
M  V30 3954 C 398.572 0.244681 -2.2789 0
M  V30 3955 C 399.572 0.881166 -1.34507 0
M  V30 3956 O 400.762 0.743497 -1.57537 0
M  V30 3957 C 397.894 1.35247 -3.12923 0
M  V30 3958 H 399.087 -0.448289 -2.96531 0
M  V30 3959 H 396.64 -0.270656 -1.53939 0
M  V30 3960 H 397.375 2.07916 -2.48881 0
M  V30 3961 H 397.16 0.901374 -3.81599 0
M  V30 3962 H 398.65 1.88737 -3.72516 0
M  V30 3963 N 399.087 1.5561 -0.249682 0
M  V30 3964 C 400.333 1.99306 0.374841 0
M  V30 3965 C 400.666 1.13767 1.57387 0
M  V30 3966 O 399.941 0.201711 1.93451 0
M  V30 3967 C 400.224 3.51507 0.781986 0
M  V30 3968 C 400.077 4.4781 -0.422629 0
M  V30 3969 C 401.396 4.08884 1.62793 0
M  V30 3970 H 398.515 0.724572 0.134773 0
M  V30 3971 H 401.157 1.86719 -0.351549 0
M  V30 3972 H 399.307 3.62363 1.4009 0
M  V30 3973 H 400.979 4.48931 -1.06108 0
M  V30 3974 H 399.222 4.20518 -1.06524 0
M  V30 3975 H 399.893 5.51919 -0.0943766 0
M  V30 3976 H 402.369 4.01147 1.10547 0
M  V30 3977 H 401.245 5.1564 1.88166 0
M  V30 3978 H 401.506 3.57515 2.60068 0
M  V30 3979 N 400.565 -0.0233959 1.57583 0
M  V30 3980 C 401.814 -0.712133 1.8871 0
M  V30 3981 C 402.127 -1.76217 0.848944 0
M  V30 3982 O 403.333 -2.50389 1.04964 0
M  V30 3983 C 401.789 -1.3177 3.3491 0
M  V30 3984 C 401.397 -0.303715 4.46969 0
M  V30 3985 C 403.141 -1.98598 3.75179 0
M  V30 3986 C 401.048 -0.917945 5.84233 0
M  V30 3987 H 399.978 -0.269735 0.704101 0
M  V30 3988 H 402.629 0.0333114 1.8347 0
M  V30 3989 H 401.011 -2.11304 3.34913 0
M  V30 3990 H 402.185 0.465325 4.58445 0
M  V30 3991 H 400.5 0.2628 4.1557 0
M  V30 3992 H 403.097 -2.45416 4.75053 0
M  V30 3993 H 403.44 -2.80659 3.07468 0
M  V30 3994 H 403.973 -1.25831 3.77374 0
M  V30 3995 H 400.712 -0.136633 6.55358 0
M  V30 3996 H 400.232 -1.65669 5.76467 0
M  V30 3997 H 401.911 -1.4236 6.31144 0
M  V30 3998 N 402.043 -1.548 -0.295768 0
M  V30 3999 C 403.268 -1.78653 -1.05346 0
M  V30 4000 C 403.693 -0.546894 -1.79974 0
M  V30 4001 O 403.051 0.502763 -1.7419 0
M  V30 4002 C 403.099 -2.99679 -2.00561 0
M  V30 4003 O 402.203 -2.7317 -3.08953 0
M  V30 4004 H 401.544 -0.59116 -0.302367 0
M  V30 4005 H 404.074 -2.01895 -0.331598 0
M  V30 4006 H 404.084 -3.27793 -2.42932 0
M  V30 4007 H 402.759 -3.89562 -1.4565 0
M  V30 4008 H 401.336 -2.56089 -2.71059 0
M  V30 4009 N 403.521 0.559213 -1.47345 0
M  V30 4010 C 404.746 1.34676 -1.57725 0
M  V30 4011 C 405.171 1.86723 -0.227164 0
M  V30 4012 O 404.529 1.6286 0.796642 0
M  V30 4013 C 404.577 2.49399 -2.60447 0
M  V30 4014 O 403.681 3.51567 -2.15578 0
M  V30 4015 H 403.022 0.400115 -0.52991 0
M  V30 4016 H 405.552 0.676009 -1.93109 0
M  V30 4017 H 405.562 2.95996 -2.80803 0
M  V30 4018 H 404.237 2.10873 -3.58477 0
M  V30 4019 H 402.814 3.11289 -2.05313 0
M  V30 4020 N 404.999 1.35443 0.805782 0
M  V30 4021 C 406.227 1.31878 1.59423 0
M  V30 4022 C 406.642 -0.103562 1.88516 0
M  V30 4023 O 405.999 -1.05575 1.48863 0
M  V30 4024 C 406.05 2.12426 2.92502 0
M  V30 4025 O 405.771 3.49115 2.6467 0
M  V30 4026 C 407.272 2.16455 3.86862 0
M  V30 4027 H 404.492 0.453002 0.495005 0
M  V30 4028 H 407.036 1.78309 1.00131 0
M  V30 4029 H 405.191 1.69593 3.48306 0
M  V30 4030 H 405.605 3.90957 3.49647 0
M  V30 4031 H 407.079 2.77204 4.77349 0
M  V30 4032 H 407.556 1.16352 4.23508 0
M  V30 4033 H 408.162 2.59453 3.36993 0
M  V30 4034 N 406.477 -1.02803 1.19454 0
M  V30 4035 C 407.409 -2.11181 0.890807 0
M  V30 4036 C 408.422 -1.6238 -0.116829 0
M  V30 4037 O 409.611 -1.78144 0.112694 0
M  V30 4038 C 406.711 -3.37461 0.311942 0
M  V30 4039 C 405.884 -4.15446 1.36834 0
M  V30 4040 C 404.943 -5.20039 0.802864 0
M  V30 4041 O 403.969 -5.49602 1.48077 0
M  V30 4042 N 405.171 -5.79165 -0.393417 0
M  V30 4043 H 407.936 -2.37827 1.82369 0
M  V30 4044 H 405.497 -1.19101 1.09666 0
M  V30 4045 H 407.489 -4.0462 -0.0802225 0
M  V30 4046 H 406.059 -3.08156 -0.52524 0
M  V30 4047 H 405.279 -3.43423 1.93531 0
M  V30 4048 H 406.567 -4.64335 2.08015 0
M  V30 4049 H 405.965 -5.57466 -0.961658 0
M  V30 4050 H 404.522 -6.47729 -0.727351 0
M  V30 4051 N 407.956 -0.998596 -1.21925 0
M  V30 4052 C 409.233 -0.593401 -1.86382 0
M  V30 4053 C 409.613 0.92916 -1.89552 0
M  V30 4054 O 408.961 1.81347 -1.39017 0
M  V30 4055 C 409.171 -1.22039 -3.26967 0
M  V30 4056 C 410.519 -1.32449 -4.03413 0
M  V30 4057 O 411.543 -1.17522 -3.36254 0
M  V30 4058 O 410.402 -1.56395 -5.23644 0
M  V30 4059 H 407.496 -0.202385 -0.801854 0
M  V30 4060 H 410.042 -1.09484 -1.29659 0
M  V30 4061 H 408.814 -2.26158 -3.19325 0
M  V30 4062 H 408.437 -0.704906 -3.91301 0
M  V30 4063 N 409.434 1.37368 -0.772513 0
M  V30 4064 C 410.364 2.32856 -0.173304 0
M  V30 4065 C 411.345 1.55818 0.682262 0
M  V30 4066 O 412.53 1.84052 0.619566 0
M  V30 4067 C 409.66 3.40048 0.706007 0
M  V30 4068 C 408.614 4.27973 -0.0483144 0
M  V30 4069 C 407.94 5.26184 0.950491 0
M  V30 4070 C 409.24 5.07665 -1.22776 0
M  V30 4071 H 410.934 2.83217 -0.971002 0
M  V30 4072 H 408.48 1.3617 -0.468377 0
M  V30 4073 H 410.433 4.05827 1.13501 0
M  V30 4074 H 409.157 2.88214 1.53623 0
M  V30 4075 H 407.816 3.63726 -0.458107 0
M  V30 4076 H 407.464 4.7063 1.77529 0
M  V30 4077 H 407.164 5.85872 0.450314 0
M  V30 4078 H 408.688 5.94838 1.37842 0
M  V30 4079 H 410.102 5.66578 -0.875366 0
M  V30 4080 H 408.499 5.76681 -1.66007 0
M  V30 4081 H 409.569 4.40294 -2.03149 0
M  V30 4082 N 410.912 0.523116 1.48665 0
M  V30 4083 C 412.189 -0.0775449 1.95446 0
M  V30 4084 C 412.569 -1.5197 1.4652 0
M  V30 4085 O 411.917 -2.17876 0.688657 0
M  V30 4086 C 412.127 0.0326135 3.48985 0
M  V30 4087 C 413.475 -0.130141 4.24401 0
M  V30 4088 O 414.499 -0.0415142 3.56176 0
M  V30 4089 O 413.358 -0.31491 5.45592 0
M  V30 4090 H 410.452 -0.0831012 0.822814 0
M  V30 4091 H 412.998 0.587227 1.59216 0
M  V30 4092 H 411.77 1.03748 3.77296 0
M  V30 4093 H 411.393 -0.671317 3.91892 0
M  V30 4094 N 412.39 -1.55475 0.257931 0
M  V30 4095 C 413.618 -2.03609 -0.367559 0
M  V30 4096 C 414.033 -1.13687 -1.50734 0
M  V30 4097 O 413.39 -0.153479 -1.81853 0
M  V30 4098 C 413.441 -3.51001 -0.864908 0
M  V30 4099 O 413.162 -4.37499 0.229465 0
M  V30 4100 C 414.663 -4.14946 -1.55997 0
M  V30 4101 H 411.883 -0.665459 -0.0860521 0
M  V30 4102 H 414.427 -2.00843 0.385014 0
M  V30 4103 H 412.582 -3.54266 -1.56762 0
M  V30 4104 H 412.996 -5.24286 -0.14998 0
M  V30 4105 H 414.47 -5.19735 -1.85956 0
M  V30 4106 H 414.947 -3.6209 -2.4857 0
M  V30 4107 H 415.553 -4.15635 -0.901543 0
M  V30 4108 N 413.868 0.0150385 -1.57593 0
M  V30 4109 C 415.115 0.703001 -1.89906 0
M  V30 4110 C 415.443 1.74604 -0.856944 0
M  V30 4111 O 414.698 1.95197 0.140287 0
M  V30 4112 C 414.997 1.39686 -3.28972 0
M  V30 4113 C 414.663 0.488457 -4.48246 0
M  V30 4114 C 413.325 0.2383 -4.8061 0
M  V30 4115 C 415.677 -0.137881 -5.21018 0
M  V30 4116 C 413.005 -0.646738 -5.83125 0
M  V30 4117 C 415.357 -1.0107 -6.24474 0
M  V30 4118 C 414.021 -1.27019 -6.55303 0
M  V30 4119 H 413.291 0.257246 -0.694914 0
M  V30 4120 H 415.938 -0.037259 -1.91464 0
M  V30 4121 H 414.243 2.21079 -3.23468 0
M  V30 4122 H 415.94 1.93495 -3.51227 0
M  V30 4123 H 412.53 0.693593 -4.22951 0
M  V30 4124 H 416.714 0.0423953 -4.96282 0
M  V30 4125 H 411.97 -0.855937 -6.05379 0
M  V30 4126 H 416.144 -1.50247 -6.79999 0
M  V30 4127 H 413.771 -1.95769 -7.3456 0
M  V30 4128 N 415.346 1.54954 0.287554 0
M  V30 4129 C 416.593 1.74873 1.02106 0
M  V30 4130 C 416.921 0.541829 1.86801 0
M  V30 4131 O 416.176 -0.475992 1.89823 0
M  V30 4132 C 416.475 2.99833 1.94512 0
M  V30 4133 C 416.141 4.33029 1.25686 0
M  V30 4134 C 414.803 4.69233 1.06649 0
M  V30 4135 C 417.155 5.15542 0.765913 0
M  V30 4136 C 414.483 5.85518 0.372222 0
M  V30 4137 C 416.835 6.32542 0.0853101 0
M  V30 4138 C 415.499 6.67398 -0.1169 0
M  V30 4139 H 414.769 0.639906 0.373632 0
M  V30 4140 H 417.416 1.89219 0.294665 0
M  V30 4141 H 415.721 2.80325 2.73725 0
M  V30 4142 H 417.418 3.1244 2.51361 0
M  V30 4143 H 414.008 4.04564 1.41512 0
M  V30 4144 H 418.192 4.88059 0.90066 0
M  V30 4145 H 413.448 6.11057 0.204695 0
M  V30 4146 H 417.622 6.95741 -0.302936 0
M  V30 4147 H 415.249 7.57357 -0.656859 0
M  V30 4148 N 416.824 -0.551391 1.4764 0
M  V30 4149 C 418.049 -1.33837 1.58437 0
M  V30 4150 C 418.474 -1.866 0.237063 0
M  V30 4151 O 417.832 -1.6328 -0.787994 0
M  V30 4152 C 417.88 -2.48014 2.61766 0
M  V30 4153 O 416.984 -3.50419 2.1744 0
M  V30 4154 H 416.325 -0.397299 0.532024 0
M  V30 4155 H 418.855 -0.665759 1.93465 0
M  V30 4156 H 418.865 -2.94503 2.82369 0
M  V30 4157 H 417.54 -2.08969 3.5959 0
M  V30 4158 H 416.117 -3.10196 2.06961 0
M  V30 4159 N 418.302 -1.35869 -0.798587 0
M  V30 4160 C 419.265 -1.29307 -1.89242 0
M  V30 4161 C 420.265 -0.202747 -1.59517 0
M  V30 4162 O 421.455 -0.456957 -1.681 0
M  V30 4163 C 418.587 -1.00229 -3.25833 0
M  V30 4164 H 419.78 -2.26576 -1.96478 0
M  V30 4165 H 417.333 -1.20509 -0.995358 0
M  V30 4166 H 418.068 -0.033801 -3.24282 0
M  V30 4167 H 417.853 -1.79121 -3.48795 0
M  V30 4168 H 419.343 -0.98219 -4.05885 0
M  V30 4169 N 419.78 1.02168 -1.19998 0
M  V30 4170 C 420.71 2.12488 -0.96804 0
M  V30 4171 C 421.691 1.69799 0.101185 0
M  V30 4172 O 422.876 1.94121 -0.0552993 0
M  V30 4173 C 420.006 3.43479 -0.513776 0
M  V30 4174 C 418.96 3.99884 -1.52566 0
M  V30 4175 C 418.286 5.26582 -0.928214 0
M  V30 4176 C 419.586 4.33861 -2.90795 0
M  V30 4177 H 421.28 2.32149 -1.89069 0
M  V30 4178 H 418.826 1.11564 -0.910468 0
M  V30 4179 H 420.779 4.20036 -0.338774 0
M  V30 4180 H 419.503 3.23561 0.444493 0
M  V30 4181 H 418.162 3.25429 -1.68794 0
M  V30 4182 H 417.81 5.02986 0.0378289 0
M  V30 4183 H 417.51 5.65284 -1.60397 0
M  V30 4184 H 419.034 6.05799 -0.764167 0
M  V30 4185 H 420.448 5.01327 -2.78109 0
M  V30 4186 H 418.845 4.83664 -3.55231 0
M  V30 4187 H 419.915 3.42848 -3.42904 0
M  V30 4188 N 421.258 1.00505 1.21394 0
M  V30 4189 C 422.191 0.51032 2.22421 0
M  V30 4190 C 423.169 -0.436 1.56645 0
M  V30 4191 O 424.353 -0.358709 1.85055 0
M  V30 4192 C 421.48 -0.258733 3.3771 0
M  V30 4193 C 420.526 0.635395 4.2174 0
M  V30 4194 S 421.359 2.09783 4.92698 0
M  V30 4195 C 422.515 1.33862 6.11418 0
M  V30 4196 H 422.748 1.36637 2.64041 0
M  V30 4197 H 420.281 0.812991 1.31262 0
M  V30 4198 H 422.239 -0.696372 4.0455 0
M  V30 4199 H 420.9 -1.0902 2.94573 0
M  V30 4200 H 420.093 0.0430189 5.03982 0
M  V30 4201 H 419.695 1.01031 3.60095 0
M  V30 4202 H 421.987 0.612541 6.74725 0
M  V30 4203 H 422.93 2.13675 6.75092 0
M  V30 4204 H 423.338 0.846568 5.58116 0
M  V30 4205 N 422.737 -1.36956 0.779787 0
M  V30 4206 C 423.962 -2.04283 0.358224 0
M  V30 4207 C 424.387 -1.58422 -1.01411 0
M  V30 4208 O 423.745 -0.748179 -1.65142 0
M  V30 4209 C 423.793 -3.58152 0.419479 0
M  V30 4210 O 422.897 -4.08342 -0.577142 0
M  V30 4211 H 422.238 -0.645967 0.153698 0
M  V30 4212 H 424.768 -1.75108 1.05822 0
M  V30 4213 H 424.778 -4.07041 0.279636 0
M  V30 4214 H 423.453 -3.90886 1.42061 0
M  V30 4215 H 422.03 -3.70751 -0.399755 0
M  V30 4216 N 424.215 -0.530993 -1.48385 0
M  V30 4217 C 425.463 0.00273189 -2.021 0
M  V30 4218 C 425.784 1.34672 -1.41027 0
M  V30 4219 O 425.054 1.8724 -0.576012 0
M  V30 4220 H 423.634 0.00399774 -0.746989 0
M  V30 4221 H 426.296 -0.695054 -1.82085 0
M  V30 4222 H 425.392 0.11031 -3.11905 0
M  V30 4223 N 425.693 1.55336 -0.266172 0
M  V30 4224 C 426.625 2.19544 0.658247 0
M  V30 4225 C 427.638 1.17746 1.12427 0
M  V30 4226 O 428.827 1.44517 1.04772 0
M  V30 4227 C 425.927 2.80032 1.9088 0
M  V30 4228 C 425.1 4.07436 1.59106 0
M  V30 4229 C 424.159 4.52056 2.69317 0
M  V30 4230 O 423.185 5.18023 2.35883 0
M  V30 4231 N 424.387 4.21448 3.99201 0
M  V30 4232 H 427.152 2.99503 0.108754 0
M  V30 4233 H 424.713 1.61667 -0.0869059 0
M  V30 4234 H 426.705 3.06831 2.63888 0
M  V30 4235 H 425.275 2.04119 2.36758 0
M  V30 4236 H 424.495 3.88021 0.695243 0
M  V30 4237 H 425.783 4.90462 1.35367 0
M  V30 4238 H 425.181 3.68528 4.29189 0
M  V30 4239 H 423.738 4.53039 4.68614 0
M  V30 4240 N 427.171 -0.0066808 1.57599 0
M  V30 4241 C 428.101 -0.999296 2.11036 0
M  V30 4242 C 429.082 -1.36278 1.01795 0
M  V30 4243 O 430.267 -1.4477 1.29442 0
M  V30 4244 C 427.397 -2.29328 2.60818 0
M  V30 4245 C 426.351 -2.07159 3.74525 0
M  V30 4246 C 425.677 -3.42512 4.10596 0
M  V30 4247 C 426.977 -1.43959 5.02069 0
M  V30 4248 H 428.671 -0.554382 2.94223 0
M  V30 4249 H 426.217 -0.265221 1.41536 0
M  V30 4250 H 428.17 -2.99117 2.96828 0
M  V30 4251 H 426.894 -2.7592 1.74745 0
M  V30 4252 H 425.553 -1.39797 3.38899 0
M  V30 4253 H 425.201 -3.86795 3.21556 0
M  V30 4254 H 424.901 -3.28498 4.87199 0
M  V30 4255 H 426.425 -4.13628 4.4916 0
M  V30 4256 H 427.839 -2.03696 5.35893 0
M  V30 4257 H 426.236 -1.40452 5.83432 0
M  V30 4258 H 427.306 -0.407992 4.83181 0
M  V30 4259 N 428.649 -1.55105 -0.279332 0
M  V30 4260 C 429.582 -1.82467 -1.37044 0
M  V30 4261 C 430.56 -0.677261 -1.47824 0
M  V30 4262 O 431.744 -0.919578 -1.64548 0
M  V30 4263 C 428.871 -1.98066 -2.7475 0
M  V30 4264 C 427.917 -3.20594 -2.81286 0
M  V30 4265 S 428.75 -4.78116 -2.41175 0
M  V30 4266 C 429.906 -4.9668 -3.80867 0
M  V30 4267 H 430.139 -2.74728 -1.1363 0
M  V30 4268 H 427.672 -1.46794 -0.478625 0
M  V30 4269 H 429.63 -2.07739 -3.54055 0
M  V30 4270 H 428.291 -1.06704 -2.9542 0
M  V30 4271 H 427.484 -3.28376 -3.82341 0
M  V30 4272 H 427.086 -3.09479 -2.09996 0
M  V30 4273 H 429.378 -4.82033 -4.76078 0
M  V30 4274 H 430.321 -5.98741 -3.78041 0
M  V30 4275 H 430.729 -4.24698 -3.71876 0
M  V30 4276 N 430.127 0.543554 -1.4793 0
M  V30 4277 C 431.352 1.32995 -1.59145 0
M  V30 4278 C 431.777 1.86472 -0.246956 0
M  V30 4279 O 431.135 1.63696 0.779324 0
M  V30 4280 C 431.183 2.46623 -2.63077 0
M  V30 4281 O 430.287 3.49261 -2.19295 0
M  V30 4282 H 429.628 0.394472 -0.534124 0
M  V30 4283 H 432.158 0.655489 -1.93816 0
M  V30 4284 H 432.168 2.93001 -2.83926 0
M  V30 4285 H 430.843 2.07059 -3.60693 0
M  V30 4286 H 429.42 3.09094 -2.08603 0
M  V30 4287 N 431.605 1.3629 0.791371 0
M  V30 4288 C 432.568 1.30309 1.88553 0
M  V30 4289 C 433.568 0.211204 1.59407 0
M  V30 4290 O 434.758 0.465865 1.67855 0
M  V30 4291 C 431.89 1.01956 3.25297 0
M  V30 4292 H 433.083 2.27614 1.95273 0
M  V30 4293 H 430.636 1.21035 0.988953 0
M  V30 4294 H 431.371 0.050998 3.2426 0
M  V30 4295 H 431.156 1.80968 3.4784 0
M  V30 4296 H 432.646 1.0037 4.05359 0
M  V30 4297 N 433.083 -1.0153 1.20538 0
M  V30 4298 C 434.046 -2.0826 0.957098 0
M  V30 4299 C 435.046 -1.60657 -0.0678655 0
M  V30 4300 O 436.236 -1.73385 0.168332 0
M  V30 4301 C 433.368 -3.38033 0.441188 0
M  V30 4302 H 434.561 -2.31719 1.90384 0
M  V30 4303 H 432.114 -1.1835 1.02093 0
M  V30 4304 H 432.849 -3.20249 -0.510961 0
M  V30 4305 H 432.634 -3.73911 1.18038 0
M  V30 4306 H 434.124 -4.16613 0.287009 0
M  V30 4307 N 434.561 -1.01147 -1.20859 0
M  V30 4308 C 435.493 -0.535546 -2.22855 0
M  V30 4309 C 436.506 0.379323 -1.58319 0
M  V30 4310 O 437.695 0.178489 -1.77605 0
M  V30 4311 C 434.795 0.240962 -3.38042 0
M  V30 4312 C 433.968 -0.674562 -4.32167 0
M  V30 4313 C 433.027 0.053467 -5.26173 0
M  V30 4314 O 432.053 -0.567339 -5.66366 0
M  V30 4315 N 433.255 1.32997 -5.65059 0
M  V30 4316 H 436.02 -1.41268 -2.64317 0
M  V30 4317 H 433.581 -0.888386 -1.35349 0
M  V30 4318 H 435.573 0.737115 -3.97931 0
M  V30 4319 H 434.143 1.01935 -2.95513 0
M  V30 4320 H 433.363 -1.35111 -3.70322 0
M  V30 4321 H 434.651 -1.2974 -4.91981 0
M  V30 4322 H 434.049 1.85536 -5.34409 0
M  V30 4323 H 432.606 1.77095 -6.2728 0
M  V30 4324 N 436.039 1.36541 -0.78704 0
M  V30 4325 C 436.969 2.32659 -0.197992 0
M  V30 4326 C 437.95 1.56533 0.665697 0
M  V30 4327 O 439.135 1.84698 0.60001 0
M  V30 4328 C 436.265 3.40778 0.669901 0
M  V30 4329 C 435.219 4.27897 -0.0937039 0
M  V30 4330 C 434.545 5.27163 0.894629 0
M  V30 4331 C 435.845 5.06334 -1.28154 0
M  V30 4332 H 437.539 2.82171 -1.00099 0
M  V30 4333 H 435.085 1.35665 -0.482793 0
M  V30 4334 H 437.038 4.07008 1.09191 0
M  V30 4335 H 435.762 2.89827 1.50558 0
M  V30 4336 H 434.421 3.6322 -0.49666 0
M  V30 4337 H 434.069 4.72486 1.72527 0
M  V30 4338 H 433.769 5.86317 0.388149 0
M  V30 4339 H 435.293 5.96266 1.31525 0
M  V30 4340 H 436.707 5.65617 -0.93541 0
M  V30 4341 H 435.104 5.74888 -1.72115 0
M  V30 4342 H 436.174 4.38114 -2.07807 0
M  V30 4343 N 437.518 0.538854 1.48102 0
M  V30 4344 C 438.481 -0.208395 2.28251 0
M  V30 4345 C 439.481 -0.859656 1.35892 0
M  V30 4346 O 440.671 -0.71834 1.58699 0
M  V30 4347 C 437.803 -1.30252 3.15035 0
M  V30 4348 H 438.996 0.495407 2.9578 0
M  V30 4349 H 436.549 0.295112 1.53489 0
M  V30 4350 H 437.284 -2.0393 2.52157 0
M  V30 4351 H 437.069 -0.840551 3.82985 0
M  V30 4352 H 438.559 -1.82787 3.75471 0
M  V30 4353 N 438.996 -1.55193 0.274407 0
M  V30 4354 C 439.928 -2.1989 -0.646595 0
M  V30 4355 C 440.941 -1.1834 -1.11801 0
M  V30 4356 O 442.13 -1.4507 -1.04004 0
M  V30 4357 C 439.23 -2.8104 -1.89393 0
M  V30 4358 C 438.403 -4.08274 -1.56943 0
M  V30 4359 C 437.462 -4.53478 -2.66916 0
M  V30 4360 O 436.488 -5.19267 -2.33132 0
M  V30 4361 N 437.69 -4.2356 -3.9696 0
M  V30 4362 H 440.455 -2.99556 -0.0928686 0
M  V30 4363 H 438.016 -1.61618 0.0954783 0
M  V30 4364 H 440.008 -3.08226 -2.62257 0
M  V30 4365 H 438.578 -2.05372 -2.35672 0
M  V30 4366 H 437.798 -3.88384 -0.674655 0
M  V30 4367 H 439.086 -4.91173 -1.32764 0
M  V30 4368 H 438.484 -3.70799 -4.27229 0
M  V30 4369 H 437.041 -4.55518 -4.66205 0
M  V30 4370 N 440.474 -0.00167713 -1.576 0
M  V30 4371 C 441.407 1.02317 -2.03977 0
M  V30 4372 C 442.385 1.33381 -0.929963 0
M  V30 4373 O 443.569 1.45517 -1.19822 0
M  V30 4374 C 440.696 2.35035 -2.43878 0
M  V30 4375 C 439.742 2.19621 -3.65607 0
M  V30 4376 S 440.575 1.52068 -5.13455 0
M  V30 4377 C 441.731 2.86212 -5.56627 0
M  V30 4378 H 441.964 0.628285 -2.90585 0
M  V30 4379 H 439.497 0.209239 -1.52976 0
M  V30 4380 H 441.455 3.11345 -2.67534 0
M  V30 4381 H 440.116 2.71663 -1.57665 0
M  V30 4382 H 439.309 3.1767 -3.91282 0
M  V30 4383 H 438.911 1.51455 -3.41961 0
M  V30 4384 H 441.203 3.82509 -5.59189 0
M  V30 4385 H 442.146 2.65235 -6.56549 0
M  V30 4386 H 442.554 2.90199 -4.84195 0
M  V30 4387 N 441.952 1.55251 0.271103 0
M  V30 4388 C 442.884 1.84675 1.35749 0
M  V30 4389 C 443.897 0.731366 1.45447 0
M  V30 4390 O 445.086 1.00924 1.4723 0
M  V30 4391 C 442.186 1.99638 2.73857 0
M  V30 4392 C 441.359 3.30312 2.86727 0
M  V30 4393 C 440.418 3.35318 4.05522 0
M  V30 4394 O 439.444 4.08682 3.96191 0
M  V30 4395 N 440.646 2.62857 5.17577 0
M  V30 4396 H 443.411 2.78445 1.10853 0
M  V30 4397 H 440.972 1.55191 0.461218 0
M  V30 4398 H 442.964 2.00355 3.51625 0
M  V30 4399 H 441.534 1.12725 2.91568 0
M  V30 4400 H 440.754 3.42118 1.95829 0
M  V30 4401 H 442.042 4.16488 2.92258 0
M  V30 4402 H 441.44 2.02939 5.28046 0
M  V30 4403 H 439.997 2.69295 5.93568 0
M  V30 4404 N 443.43 -0.535701 1.48216 0
M  V30 4405 C 444.362 -1.65662 1.58394 0
M  V30 4406 C 445.375 -1.5591 0.468607 0
M  V30 4407 O 446.564 -1.62475 0.7392 0
M  V30 4408 C 443.664 -3.04276 1.4923 0
M  V30 4409 C 442.837 -3.39567 2.75705 0
M  V30 4410 C 441.896 -4.57436 2.60075 0
M  V30 4411 O 440.922 -4.60942 3.33948 0
M  V30 4412 N 442.124 -5.55259 1.69315 0
M  V30 4413 H 444.889 -1.5737 2.55058 0
M  V30 4414 H 442.45 -0.722845 1.44867 0
M  V30 4415 H 444.442 -3.80994 1.36477 0
M  V30 4416 H 443.012 -3.06677 0.605632 0
M  V30 4417 H 442.232 -2.52083 3.03064 0
M  V30 4418 H 443.52 -3.59929 3.59623 0
M  V30 4419 H 442.918 -5.552 1.08489 0
M  V30 4420 H 441.475 -6.31218 1.62504 0
M  V30 4421 N 444.908 -1.36708 -0.784132 0
M  V30 4422 C 446.154 -1.32433 -1.54379 0
M  V30 4423 C 446.509 0.0941816 -1.92169 0
M  V30 4424 O 445.802 1.04997 -1.60269 0
M  V30 4425 C 445.996 -2.18571 -2.82774 0
M  V30 4426 C 445.825 -3.68656 -2.57533 0
M  V30 4427 C 444.595 -4.37813 -2.52286 0
M  V30 4428 C 446.793 -4.61802 -2.2637 0
M  V30 4429 N 444.775 -5.7351 -2.18997 0
M  V30 4430 C 446.146 -5.85785 -2.03115 0
M  V30 4431 C 448.201 -4.50313 -2.12421 0
M  V30 4432 C 446.904 -6.99569 -1.67321 0
M  V30 4433 C 448.93 -5.63969 -1.78026 0
M  V30 4434 C 448.292 -6.86994 -1.55622 0
M  V30 4435 H 444.391 -0.539886 -0.565727 0
M  V30 4436 H 446.975 -1.71812 -0.915908 0
M  V30 4437 H 445.146 -1.81429 -3.43421 0
M  V30 4438 H 446.878 -2.05646 -3.48557 0
M  V30 4439 H 443.633 -3.90674 -2.67714 0
M  V30 4440 H 444.057 -6.45189 -2.05084 0
M  V30 4441 H 448.699 -3.55781 -2.28429 0
M  V30 4442 H 446.417 -7.94047 -1.5005 0
M  V30 4443 H 450.003 -5.57044 -1.67909 0
M  V30 4444 H 448.883 -7.7345 -1.294 0
M  V30 4445 N 446.386 1.0089 -1.21074 0
M  V30 4446 C 447.614 1.78191 -1.05145 0
M  V30 4447 C 448.029 1.84537 0.398952 0
M  V30 4448 O 447.386 1.30393 1.27687 0
M  V30 4449 C 447.437 3.22288 -1.63746 0
M  V30 4450 O 447.158 3.16315 -3.03111 0
M  V30 4451 C 448.659 4.16106 -1.52875 0
M  V30 4452 H 445.879 0.560129 -0.369454 0
M  V30 4453 H 448.423 1.26945 -1.60328 0
M  V30 4454 H 446.578 3.70655 -1.12664 0
M  V30 4455 H 446.992 4.06817 -3.31059 0
M  V30 4456 H 448.466 5.15026 -1.98626 0
M  V30 4457 H 448.943 4.36541 -0.482521 0
M  V30 4458 H 449.549 3.73625 -2.03185 0
M  V30 4459 N 447.864 1.01787 1.20321 0
M  V30 4460 C 449.092 0.727194 1.937 0
M  V30 4461 C 449.507 -0.712305 1.74848 0
M  V30 4462 O 448.864 -1.48327 1.06327 0
M  V30 4463 C 448.915 1.05497 3.45764 0
M  V30 4464 O 448.636 2.43794 3.64 0
M  V30 4465 C 450.137 0.785534 4.36285 0
M  V30 4466 H 447.357 0.266939 0.615617 0
M  V30 4467 H 449.901 1.35939 1.52777 0
M  V30 4468 H 448.056 0.468158 3.84561 0
M  V30 4469 H 448.47 2.55656 4.57974 0
M  V30 4470 H 449.944 1.06495 5.4163 0
M  V30 4471 H 450.421 -0.280273 4.38305 0
M  V30 4472 H 451.027 1.35456 4.03152 0
M  V30 4473 N 449.342 -1.36122 0.79427 0
M  V30 4474 C 450.588 -1.99406 0.369452 0
M  V30 4475 C 450.921 -1.62886 -1.05743 0
M  V30 4476 O 450.196 -0.886053 -1.73145 0
M  V30 4477 C 450.479 -3.56046 0.538833 0
M  V30 4478 C 450.332 -4.02404 2.00976 0
M  V30 4479 C 451.651 -4.40079 -0.0431359 0
M  V30 4480 H 448.77 -0.724397 0.135712 0
M  V30 4481 H 451.412 -1.61461 1.00151 0
M  V30 4482 H 449.562 -3.885 0.000771004 0
M  V30 4483 H 451.234 -3.80415 2.60926 0
M  V30 4484 H 449.477 -3.53765 2.51063 0
M  V30 4485 H 450.148 -5.11344 2.07922 0
M  V30 4486 H 452.624 -4.14013 0.416228 0
M  V30 4487 H 451.5 -5.48799 0.105374 0
M  V30 4488 H 451.761 -4.27264 -1.13571 0
M  V30 4489 N 450.82 -0.546701 -1.47814 0
M  V30 4490 C 451.768 0.220048 -2.31557 0
M  V30 4491 C 452.762 0.919472 -1.42275 0
M  V30 4492 O 453.968 0.841953 -1.59095 0
M  V30 4493 H 450.343 0.0898334 -0.746615 0
M  V30 4494 H 452.314 -0.505589 -2.94086 0
M  V30 4495 C 451.063 1.24353 -3.24702 0
M  V30 4496 H 450.386 0.714758 -3.93359 0
M  V30 4497 H 451.826 1.75112 -3.8615 0
M  V30 4498 C 450.285 2.28593 -2.47481 0
M  V30 4499 O 450.815 3.35334 -2.21165 0
M  V30 4500 N 449.021 2.02244 -2.08676 0
M  V30 4501 H 448.568 1.15455 -2.30278 0
M  V30 4502 H 448.526 2.72207 -1.57323 0
M  V30 4503 N 452.299 1.55045 -0.282633 0
M  V30 4504 C 453.524 2.04628 0.337977 0
M  V30 4505 C 453.949 1.15937 1.48123 0
M  V30 4506 O 453.307 0.159532 1.80597 0
M  V30 4507 C 453.355 3.51854 0.78936 0
M  V30 4508 O 452.459 3.66236 1.89592 0
M  V30 4509 H 451.8 0.660434 0.0687261 0
M  V30 4510 H 454.33 2.00261 -0.419124 0
M  V30 4511 H 454.34 3.93361 1.08311 0
M  V30 4512 H 453.015 4.15873 -0.0470419 0
M  V30 4513 H 451.592 3.36633 1.60413 0
M  V30 4514 N 453.777 0.010035 1.57597 0
M  V30 4515 C 455.005 -0.683413 1.95287 0
M  V30 4516 C 455.42 -1.66747 0.885481 0
M  V30 4517 O 454.777 -1.82003 -0.134629 0
M  V30 4518 C 454.828 -1.40652 3.33015 0
M  V30 4519 O 454.549 -0.461916 4.35658 0
M  V30 4520 C 456.05 -2.19356 3.85225 0
M  V30 4521 H 453.27 -0.189708 0.643624 0
M  V30 4522 H 455.814 0.0641359 2.04399 0
M  V30 4523 H 453.969 -2.10562 3.2518 0
M  V30 4524 H 454.383 -0.973215 5.15392 0
M  V30 4525 H 455.857 -2.65433 4.83993 0
M  V30 4526 H 456.334 -3.02457 3.18459 0
M  V30 4527 H 456.94 -1.54442 3.96267 0
M  V30 4528 N 455.255 -1.55392 -0.262866 0
M  V30 4529 C 456.187 -1.85392 -1.34768 0
M  V30 4530 C 457.2 -0.739069 -1.45057 0
M  V30 4531 O 458.389 -1.01703 -1.46693 0
M  V30 4532 C 455.489 -2.01088 -2.72795 0
M  V30 4533 C 454.662 -3.31828 -2.84972 0
M  V30 4534 C 453.721 -3.37464 -4.03738 0
M  V30 4535 O 452.747 -4.10778 -3.94018 0
M  V30 4536 N 453.949 -2.65599 -5.16176 0
M  V30 4537 H 456.714 -2.79029 -1.09375 0
M  V30 4538 H 454.275 -1.55434 -0.452981 0
M  V30 4539 H 456.267 -2.02217 -3.50557 0
M  V30 4540 H 454.837 -1.1427 -2.90966 0
M  V30 4541 H 454.057 -3.43152 -1.94012 0
M  V30 4542 H 455.345 -4.18032 -2.90045 0
M  V30 4543 H 454.743 -2.05736 -5.26962 0
M  V30 4544 H 453.3 -2.72439 -5.92132 0
M  V30 4545 N 456.733 0.527833 -1.48498 0
M  V30 4546 C 457.981 1.28101 -1.56316 0
M  V30 4547 C 458.302 1.9352 -0.239781 0
M  V30 4548 O 457.572 1.81433 0.738849 0
M  V30 4549 H 456.152 0.475793 -0.575873 0
M  V30 4550 H 458.814 0.614052 -1.84974 0
M  V30 4551 H 457.91 2.05916 -2.34532 0
M  V30 4552 N 458.211 1.37122 0.776871 0
M  V30 4553 C 459.441 1.35034 1.56363 0
M  V30 4554 C 459.849 -0.0674681 1.8908 0
M  V30 4555 O 459.192 -1.03826 1.51545 0
M  V30 4556 C 459.254 2.11894 2.90415 0
M  V30 4557 C 458.918 3.60897 2.80362 0
M  V30 4558 C 459.915 4.54887 2.51742 0
M  V30 4559 C 457.6 4.03951 2.98545 0
M  V30 4560 C 459.594 5.89909 2.41426 0
M  V30 4561 C 457.281 5.3906 2.87849 0
M  V30 4562 C 458.279 6.31852 2.5933 0
M  V30 4563 O 457.967 7.64479 2.48651 0
M  V30 4564 H 457.699 0.464402 0.49123 0
M  V30 4565 H 460.253 1.80992 0.971127 0
M  V30 4566 H 458.483 1.60618 3.51765 0
M  V30 4567 H 460.172 2.02505 3.51776 0
M  V30 4568 H 460.938 4.22934 2.37385 0
M  V30 4569 H 456.817 3.3209 3.19746 0
M  V30 4570 H 460.361 6.62304 2.19086 0
M  V30 4571 H 456.258 5.70617 3.01773 0
M  V30 4572 H 457.026 7.74742 2.64039 0
M  V30 4573 N 459.689 -1.00246 1.21608 0
M  V30 4574 C 460.937 -1.73717 1.0328 0
M  V30 4575 C 461.258 -1.90102 -0.434318 0
M  V30 4576 O 460.528 -1.45376 -1.31311 0
M  V30 4577 H 459.108 -0.643613 0.379172 0
M  V30 4578 H 461.77 -1.20787 1.52959 0
M  V30 4579 H 460.866 -2.73535 1.50283 0
M  V30 4580 N 461.167 -1.02423 -1.1978 0
M  V30 4581 C 462.097 -0.62157 -2.25075 0
M  V30 4582 C 463.078 0.367148 -1.6609 0
M  V30 4583 O 464.263 0.250892 -1.92573 0
M  V30 4584 C 461.393 0.0331826 -3.47284 0
M  V30 4585 C 460.347 -0.877323 -4.18912 0
M  V30 4586 C 459.673 -0.0879296 -5.34628 0
M  V30 4587 C 460.973 -2.18892 -4.74219 0
M  V30 4588 H 462.667 -1.50179 -2.59011 0
M  V30 4589 H 460.213 -0.723547 -1.24502 0
M  V30 4590 H 462.166 0.326488 -4.20133 0
M  V30 4591 H 460.89 0.948164 -3.12534 0
M  V30 4592 H 459.549 -1.15475 -3.47938 0
M  V30 4593 H 459.197 0.828941 -4.96123 0
M  V30 4594 H 458.897 -0.694359 -5.83483 0
M  V30 4595 H 460.421 0.198743 -6.10276 0
M  V30 4596 H 461.835 -1.95746 -5.38847 0
M  V30 4597 H 460.232 -2.74686 -5.33542 0
M  V30 4598 H 461.302 -2.84674 -3.92541 0
M  V30 4599 N 462.645 1.35699 -0.801477 0
M  V30 4600 C 463.893 1.9852 -0.37871 0
M  V30 4601 C 464.214 1.63907 1.05638 0
M  V30 4602 O 463.484 0.919013 1.73006 0
M  V30 4603 H 462.064 0.734322 -0.137042 0
M  V30 4604 H 464.726 1.65697 -1.02619 0
M  V30 4605 H 463.822 3.08382 -0.480284 0
M  V30 4606 N 464.123 0.554532 1.47522 0
M  V30 4607 C 465.053 -0.182974 2.32782 0
M  V30 4608 C 466.034 -0.911377 1.43624 0
M  V30 4609 O 467.219 -0.892366 1.72483 0
M  V30 4610 C 464.349 -1.21513 3.25349 0
M  V30 4611 C 463.303 -0.603355 4.23726 0
M  V30 4612 C 462.629 -1.73995 5.05598 0
M  V30 4613 C 463.929 0.441121 5.20434 0
M  V30 4614 H 465.623 0.52882 2.94693 0
M  V30 4615 H 463.169 0.255759 1.41711 0
M  V30 4616 H 465.122 -1.73922 3.83835 0
M  V30 4617 H 463.846 -1.95683 2.61487 0
M  V30 4618 H 462.505 -0.10059 3.66462 0
M  V30 4619 H 462.153 -2.47063 4.38143 0
M  V30 4620 H 461.853 -1.3364 5.72201 0
M  V30 4621 H 463.377 -2.26735 5.66942 0
M  V30 4622 H 464.791 0.00319931 5.733 0
M  V30 4623 H 463.188 0.763402 5.95224 0
M  V30 4624 H 464.258 1.33799 4.66075 0
M  V30 4625 N 465.601 -1.54893 0.290851 0
M  V30 4626 C 467.017 -1.59476 -0.0628432 0
M  V30 4627 C 467.217 -1.30795 -1.5328 0
M  V30 4628 O 466.273 -1.07644 -2.28406 0
M  V30 4629 C 467.586 -2.98928 0.325962 0
M  V30 4630 C 469.134 -3.11799 0.273882 0
M  V30 4631 C 469.609 -4.53544 0.637359 0
M  V30 4632 N 471.1 -4.59433 0.589507 0
M  V30 4633 C 471.835 -5.67164 0.84335 0
M  V30 4634 N 471.331 -6.82975 1.16263 0
M  V30 4635 N 473.124 -5.56786 0.771091 0
M  V30 4636 H 465.275 -1.71798 1.24896 0
M  V30 4637 H 467.538 -0.801879 0.505663 0
M  V30 4638 H 467.244 -3.24805 1.34887 0
M  V30 4639 H 467.118 -3.75793 -0.325441 0
M  V30 4640 H 469.505 -2.85677 -0.739765 0
M  V30 4641 H 469.586 -2.37112 0.959766 0
M  V30 4642 H 469.23 -4.80394 1.64877 0
M  V30 4643 H 469.16 -5.26553 -0.0704866 0
M  V30 4644 H 471.651 -3.76245 0.353252 0
M  V30 4645 H 471.964 -7.61048 1.34257 0
M  V30 4646 H 470.309 -6.84552 1.20057 0
M  V30 4647 H 473.5 -4.65187 0.521383 0
M  V30 4648 H 473.673 -6.40664 0.972295 0
M  V30 4649 N 467.08 -0.0183926 -1.57589 0
M  V30 4650 C 468.496 0.337897 -1.55982 0
M  V30 4651 C 468.696 1.73604 -1.02294 0
M  V30 4652 O 467.752 2.43589 -0.664895 0
M  V30 4653 C 469.065 0.196305 -3.00059 0
M  V30 4654 C 470.613 0.269875 -3.11834 0
M  V30 4655 C 471.088 0.157197 -4.5773 0
M  V30 4656 N 472.579 0.214521 -4.62703 0
M  V30 4657 C 473.314 0.150955 -5.73201 0
M  V30 4658 N 472.81 0.0369212 -6.9279 0
M  V30 4659 N 474.603 0.204162 -5.61729 0
M  V30 4660 H 466.754 -0.93279 -1.90821 0
M  V30 4661 H 469.017 -0.359253 -0.877292 0
M  V30 4662 H 468.723 -0.766383 -3.43248 0
M  V30 4663 H 468.597 0.970908 -3.6449 0
M  V30 4664 H 470.984 1.22302 -2.68563 0
M  V30 4665 H 471.065 -0.534918 -2.50144 0
M  V30 4666 H 470.709 -0.792479 -5.01679 0
M  V30 4667 H 470.639 0.980717 -5.17387 0
M  V30 4668 H 473.13 0.303238 -3.76681 0
M  V30 4669 H 473.443 -0.00518321 -7.728 0
M  V30 4670 H 471.788 0.0022886 -6.95 0
M  V30 4671 H 474.979 0.291575 -4.67191 0
M  V30 4672 H 475.152 0.15116 -6.47824 0
M  V30 4673 N 468.558 1.5553 0.254621 0
M  V30 4674 C 469.974 1.4778 0.602753 0
M  V30 4675 C 470.174 0.707047 1.88688 0
M  V30 4676 O 469.23 0.233288 2.5142 0
M  V30 4677 C 470.543 2.92133 0.712648 0
M  V30 4678 C 472.091 3.02458 0.805488 0
M  V30 4679 C 472.566 4.48102 0.947009 0
M  V30 4680 N 474.057 4.52008 1.01207 0
M  V30 4681 C 474.792 5.61939 1.1407 0
M  V30 4682 N 474.288 6.81697 1.23536 0
M  V30 4683 N 476.081 5.49719 1.17325 0
M  V30 4684 H 468.232 2.04085 -0.588463 0
M  V30 4685 H 470.495 0.926229 -0.202001 0
M  V30 4686 H 470.201 3.51332 -0.160766 0
M  V30 4687 H 470.075 3.42187 1.58707 0
M  V30 4688 H 472.462 2.43344 1.66936 0
M  V30 4689 H 472.543 2.55627 -0.0939266 0
M  V30 4690 H 472.187 5.07824 0.087725 0
M  V30 4691 H 472.117 4.92607 1.86135 0
M  V30 4692 H 474.608 3.65749 0.950577 0
M  V30 4693 H 474.921 7.61228 1.33236 0
M  V30 4694 H 473.266 6.84473 1.20508 0
M  V30 4695 H 476.457 4.55095 1.09573 0
M  V30 4696 H 476.63 6.35432 1.27005 0
M  V30 4697 N 470.036 -0.519951 1.48776 0
M  V30 4698 C 471.313 -1.28123 1.47797 0
M  V30 4699 C 471.693 -2.10196 0.195157 0
M  V30 4700 O 471.041 -2.13167 -0.822925 0
M  V30 4701 C 471.251 -2.15413 2.74587 0
M  V30 4702 C 472.599 -2.75225 3.23321 0
M  V30 4703 O 473.623 -2.25694 2.75574 0
M  V30 4704 O 472.482 -3.65346 4.06429 0
M  V30 4705 H 469.576 -0.578793 0.590701 0
M  V30 4706 H 472.122 -0.535779 1.6102 0
M  V30 4707 H 470.894 -1.54617 3.59457 0
M  V30 4708 H 470.517 -2.97186 2.64132 0
M  V30 4709 N 471.514 -1.37532 -0.769588 0
M  V30 4710 C 472.444 -1.36172 -1.89682 0
M  V30 4711 C 473.425 -0.23001 -1.68538 0
M  V30 4712 O 474.61 -0.43069 -1.89364 0
M  V30 4713 C 471.74 -1.1701 -3.26995 0
M  V30 4714 C 470.694 -2.27216 -3.62708 0
M  V30 4715 C 470.02 -1.93174 -4.98586 0
M  V30 4716 C 471.32 -3.6941 -3.69234 0
M  V30 4717 H 473.014 -2.30499 -1.91078 0
M  V30 4718 H 470.56 -1.10953 -0.917902 0
M  V30 4719 H 472.513 -1.14688 -4.05493 0
M  V30 4720 H 471.237 -0.191395 -3.26039 0
M  V30 4721 H 469.896 -2.28697 -2.86519 0
M  V30 4722 H 469.544 -0.938281 -4.94171 0
M  V30 4723 H 469.244 -2.66973 -5.23449 0
M  V30 4724 H 470.768 -1.92443 -5.79481 0
M  V30 4725 H 472.182 -3.70047 -4.37879 0
M  V30 4726 H 470.579 -4.4228 -4.05597 0
M  V30 4727 H 471.649 -4.0288 -2.69844 0
M  V30 4728 N 472.992 0.995999 -1.22138 0
M  V30 4729 C 474.217 1.77601 -1.0711 0
M  V30 4730 C 474.642 1.84339 0.374264 0
M  V30 4731 O 474 1.29359 1.27028 0
M  V30 4732 C 474.048 3.18897 -1.68336 0
M  V30 4733 O 473.152 4.01663 -0.934928 0
M  V30 4734 H 472.493 0.547011 -0.376397 0
M  V30 4735 H 475.023 1.25137 -1.6187 0
M  V30 4736 H 475.033 3.69539 -1.72931 0
M  V30 4737 H 473.708 3.13308 -2.73516 0
M  V30 4738 H 472.285 3.60204 -0.964751 0
M  V30 4739 N 474.47 1.03057 1.19235 0
M  V30 4740 C 475.71 0.736757 1.9066 0
M  V30 4741 C 476.074 -0.721521 1.77927 0
M  V30 4742 O 477.275 -1.12849 2.43964 0
M  V30 4743 C 475.546 1.17755 3.37444 0
M  V30 4744 S 477.105 1.00783 4.27069 0
M  V30 4745 H 473.923 0.268174 0.658486 0
M  V30 4746 H 476.525 1.32076 1.4414 0
M  V30 4747 H 475.229 2.23448 3.44237 0
M  V30 4748 H 474.76 0.586912 3.88997 0
M  V30 4749 H 476.775 -0.0806356 4.96134 0
M  V30 4750 N 475.948 -1.35272 0.808662 0
M  V30 4751 C 477.196 -1.98316 0.389233 0
M  V30 4752 C 477.517 -1.64465 -1.04767 0
M  V30 4753 O 476.787 -0.928175 -1.72516 0
M  V30 4754 H 475.367 -0.733585 0.140935 0
M  V30 4755 H 478.029 -1.6515 1.03496 0
M  V30 4756 H 477.125 -3.08123 0.496631 0
M  V30 4757 N 477.426 -0.562348 -1.47226 0
M  V30 4758 C 478.675 -0.038041 -2.01664 0
M  V30 4759 C 478.988 1.32199 -1.44162 0
M  V30 4760 O 480.194 1.9365 -1.90294 0
M  V30 4761 C 478.65 -0.0174958 -3.59896 0
M  V30 4762 C 478.258 -1.3746 -4.2639 0
M  V30 4763 C 480.002 0.453934 -4.22066 0
M  V30 4764 C 477.909 -1.31289 -5.76643 0
M  V30 4765 H 476.839 -0.0104511 -0.753928 0
M  V30 4766 H 479.49 -0.710966 -1.69167 0
M  V30 4767 H 477.872 0.721182 -3.89378 0
M  V30 4768 H 479.046 -2.1314 -4.08544 0
M  V30 4769 H 477.361 -1.78438 -3.7623 0
M  V30 4770 H 479.958 0.518584 -5.32179 0
M  V30 4771 H 480.301 1.46706 -3.89594 0
M  V30 4772 H 480.834 -0.230044 -3.97134 0
M  V30 4773 H 477.573 -2.30217 -6.13743 0
M  V30 4774 H 477.093 -0.597973 -5.96812 0
M  V30 4775 H 478.772 -1.01713 -6.38955 0
M  V30 4776 N 478.904 1.54736 -0.299062 0
M  V30 4777 C 480.129 2.04975 0.316254 0
M  V30 4778 C 480.554 1.17501 1.46885 0
M  V30 4779 O 479.912 0.178678 1.80417 0
M  V30 4780 C 479.96 3.52672 0.751997 0
M  V30 4781 O 479.064 3.68226 1.85697 0
M  V30 4782 H 478.405 0.661126 0.0617175 0
M  V30 4783 H 480.935 1.99805 -0.440341 0
M  V30 4784 H 480.945 3.94488 1.04133 0
M  V30 4785 H 479.62 4.158 -0.0911482 0
M  V30 4786 H 478.197 3.38316 1.56834 0
M  V30 4787 N 480.382 0.0267497 1.57577 0
M  V30 4788 C 481.628 -0.653371 1.91987 0
M  V30 4789 C 481.961 -1.71915 0.903263 0
M  V30 4790 O 481.236 -1.94358 -0.0743387 0
M  V30 4791 C 481.519 -1.272 3.36886 0
M  V30 4792 C 481.372 -0.215938 4.49281 0
M  V30 4793 C 482.691 -2.19069 3.81703 0
M  V30 4794 H 479.81 -0.236047 0.698177 0
M  V30 4795 H 482.452 0.0835236 1.89816 0
M  V30 4796 H 480.602 -1.90005 3.38866 0
M  V30 4797 H 482.274 0.41449 4.59434 0
M  V30 4798 H 480.517 0.458855 4.31366 0
M  V30 4799 H 481.188 -0.688347 5.47691 0
M  V30 4800 H 483.664 -1.66253 3.81444 0
M  V30 4801 H 482.54 -2.59307 4.83788 0
M  V30 4802 H 482.801 -3.08087 3.17072 0
M  V30 4803 N 481.861 -1.55662 -0.24637 0
M  V30 4804 C 483.091 -1.81312 -0.990438 0
M  V30 4805 C 483.499 -0.600234 -1.79426 0
M  V30 4806 O 482.842 0.440537 -1.78339 0
M  V30 4807 C 482.904 -3.0032 -1.97607 0
M  V30 4808 C 482.568 -4.36322 -1.35912 0
M  V30 4809 C 483.565 -5.14295 -0.761348 0
M  V30 4810 C 481.25 -4.83019 -1.37833 0
M  V30 4811 C 483.244 -6.37114 -0.190998 0
M  V30 4812 C 480.931 -6.05786 -0.804128 0
M  V30 4813 C 481.929 -6.82672 -0.211489 0
M  V30 4814 O 481.617 -8.03121 0.353845 0
M  V30 4815 H 481.349 -0.607233 -0.297058 0
M  V30 4816 H 483.903 -2.0356 -0.274351 0
M  V30 4817 H 482.133 -2.73829 -2.73047 0
M  V30 4818 H 483.822 -3.13057 -2.58361 0
M  V30 4819 H 484.588 -4.79337 -0.739013 0
M  V30 4820 H 480.467 -4.23165 -1.829 0
M  V30 4821 H 484.011 -6.97069 0.272206 0
M  V30 4822 H 479.908 -6.40222 -0.823792 0
M  V30 4823 H 480.676 -8.18131 0.245761 0
M  V30 4824 N 483.339 0.512053 -1.4905 0
M  V30 4825 C 484.587 1.26436 -1.57665 0
M  V30 4826 C 484.908 1.93255 -0.260293 0
M  V30 4827 O 484.178 1.82206 0.719564 0
M  V30 4828 H 482.758 0.469658 -0.580888 0
M  V30 4829 H 485.42 0.594398 -1.85615 0
M  V30 4830 H 484.516 2.03417 -2.36702 0
M  V30 4831 N 484.817 1.37938 0.762283 0
M  V30 4832 C 485.767 1.30976 1.86626 0
M  V30 4833 C 486.751 0.195714 1.59705 0
M  V30 4834 O 487.943 0.430937 1.71674 0
M  V30 4835 C 485.072 1.12847 3.24223 0
M  V30 4836 C 484.158 2.28836 3.57064 0
M  V30 4837 N 484.549 3.54256 3.61022 0
M  V30 4838 C 482.847 2.21198 3.87282 0
M  V30 4839 C 483.548 4.30798 3.90881 0
M  V30 4840 N 482.524 3.60049 4.07266 0
M  V30 4841 H 486.326 2.25946 1.87951 0
M  V30 4842 H 483.84 1.31046 0.959206 0
M  V30 4843 H 485.837 1.05943 4.03214 0
M  V30 4844 H 484.497 0.188024 3.24155 0
M  V30 4845 H 485.508 3.8804 3.42995 0
M  V30 4846 H 482.185 1.35264 3.94981 0
M  V30 4847 H 483.575 5.39386 4.00639 0
M  V30 4848 N 486.295 -0.989507 1.22664 0
M  V30 4849 C 487.523 -1.76496 1.07967 0
M  V30 4850 C 487.938 -1.85148 -0.369543 0
M  V30 4851 O 487.295 -1.32408 -1.25596 0
M  V30 4852 C 487.346 -3.19642 1.68853 0
M  V30 4853 O 487.067 -3.11453 3.08105 0
M  V30 4854 C 488.568 -4.13621 1.59475 0
M  V30 4855 H 485.788 -0.55418 0.378319 0
M  V30 4856 H 488.332 -1.24378 1.62328 0
M  V30 4857 H 486.487 -3.68816 1.18547 0
M  V30 4858 H 486.901 -4.01499 3.37489 0
M  V30 4859 H 488.375 -5.11801 2.06795 0
M  V30 4860 H 488.852 -4.35718 0.55191 0
M  V30 4861 H 489.458 -3.70346 2.09103 0
M  V30 4862 N 487.773 -1.03688 -1.18687 0
M  V30 4863 C 489.021 -0.736572 -1.88199 0
M  V30 4864 C 489.342 0.737665 -1.80509 0
M  V30 4865 O 488.612 1.53204 -1.22088 0
M  V30 4866 H 487.192 -0.269466 -0.696704 0
M  V30 4867 H 489.854 -1.31282 -1.44052 0
M  V30 4868 H 488.95 -1.03802 -2.94332 0
M  V30 4869 N 489.251 1.34841 -0.815825 0
M  V30 4870 C 490.479 2.0273 -0.413294 0
M  V30 4871 C 490.894 1.61459 0.978599 0
M  V30 4872 O 490.251 0.816584 1.63212 0
M  V30 4873 C 490.302 3.58058 -0.497676 0
M  V30 4874 O 490.023 3.97832 -1.8347 0
M  V30 4875 C 491.524 4.4321 -0.0891339 0
M  V30 4876 H 488.744 0.649956 -0.166728 0
M  V30 4877 H 491.288 1.72267 -1.10201 0
M  V30 4878 H 489.443 3.87136 0.142886 0
M  V30 4879 H 489.857 4.92501 -1.80396 0
M  V30 4880 H 491.331 5.5164 -0.199274 0
M  V30 4881 H 491.808 4.28432 0.966571 0
M  V30 4882 H 492.414 4.19446 -0.703214 0
M  V30 4883 N 490.729 0.570148 1.46925 0
M  V30 4884 C 491.975 0.0510284 2.02736 0
M  V30 4885 C 492.308 -1.3006 1.44215 0
M  V30 4886 O 491.583 -1.84932 0.602521 0
M  V30 4887 C 491.866 -0.028215 3.60089 0
M  V30 4888 C 491.719 1.35142 4.29018 0
M  V30 4889 C 493.038 -0.735181 4.33916 0
M  V30 4890 H 490.157 0.0200178 0.736728 0
M  V30 4891 H 492.799 0.73493 1.75211 0
M  V30 4892 H 490.949 -0.610648 3.83671 0
M  V30 4893 H 492.621 1.97806 4.16738 0
M  V30 4894 H 490.864 1.9226 3.88868 0
M  V30 4895 H 491.535 1.24857 5.37694 0
M  V30 4896 H 494.011 -0.240519 4.15404 0
M  V30 4897 H 492.887 -0.759622 5.43618 0
M  V30 4898 H 493.148 -1.79397 4.04066 0
M  V30 4899 N 492.207 -1.54576 0.307264 0
M  V30 4900 C 493.139 -2.21212 -0.599807 0
M  V30 4901 C 494.152 -1.20685 -1.09266 0
M  V30 4902 O 495.341 -1.47244 -1.00903 0
M  V30 4903 C 492.441 -2.84994 -1.83389 0
M  V30 4904 C 491.614 -4.11511 -1.48248 0
M  V30 4905 C 490.673 -4.59038 -2.57237 0
M  V30 4906 O 489.699 -5.24095 -2.22065 0
M  V30 4907 N 490.901 -4.31884 -3.87887 0
M  V30 4908 H 493.666 -2.99686 -0.0293075 0
M  V30 4909 H 491.227 -1.61379 0.129738 0
M  V30 4910 H 493.219 -3.1372 -2.5566 0
M  V30 4911 H 491.789 -2.10324 -2.31263 0
M  V30 4912 H 491.009 -3.89728 -0.592122 0
M  V30 4913 H 492.297 -4.93879 -1.22316 0
M  V30 4914 H 491.695 -3.79778 -4.19268 0
M  V30 4915 H 490.252 -4.65304 -4.56438 0
M  V30 4916 N 493.685 -0.035106 -1.57561 0
M  V30 4917 C 494.933 0.64096 -1.91667 0
M  V30 4918 C 495.254 1.72323 -0.912681 0
M  V30 4919 O 494.524 1.95849 0.0449089 0
M  V30 4920 H 493.104 0.239743 -0.707483 0
M  V30 4921 H 495.766 -0.084321 -1.94718 0
M  V30 4922 H 494.862 1.08987 -2.92452 0
M  V30 4923 N 495.163 1.55791 0.238111 0
M  V30 4924 C 496.393 1.81834 0.980809 0
M  V30 4925 C 496.801 0.609741 1.79106 0
M  V30 4926 O 496.144 -0.431073 1.78571 0
M  V30 4927 C 496.206 3.01363 1.96011 0
M  V30 4928 C 495.87 4.37037 1.33597 0
M  V30 4929 C 496.867 5.14692 0.734063 0
M  V30 4930 C 494.552 4.83743 1.3527 0
M  V30 4931 C 496.546 6.37206 0.157208 0
M  V30 4932 C 494.233 6.06204 0.77199 0
M  V30 4933 C 495.231 6.82775 0.175282 0
M  V30 4934 O 494.919 8.02922 -0.396432 0
M  V30 4935 H 494.651 0.6088 0.293834 0
M  V30 4936 H 497.205 2.03702 0.263552 0
M  V30 4937 H 495.435 2.75273 2.71591 0
M  V30 4938 H 497.124 3.14422 2.56697 0
M  V30 4939 H 497.89 4.79722 0.713582 0
M  V30 4940 H 493.769 4.24129 1.80653 0
M  V30 4941 H 497.313 6.96915 -0.30917 0
M  V30 4942 H 493.21 6.4065 0.789828 0
M  V30 4943 H 493.978 8.17989 -0.289145 0
M  V30 4944 N 496.642 -0.504142 1.49319 0
M  V30 4945 C 497.872 -1.28071 1.62116 0
M  V30 4946 C 498.28 -1.86955 0.290566 0
M  V30 4947 O 497.623 -1.68415 -0.733616 0
M  V30 4948 C 497.685 -2.4521 2.62893 0
M  V30 4949 C 497.349 -2.07218 4.0732 0
M  V30 4950 C 498.346 -1.61375 4.94221 0
M  V30 4951 C 496.031 -2.16949 4.53033 0
M  V30 4952 C 498.025 -1.25763 6.2487 0
M  V30 4953 C 495.712 -1.80949 5.83696 0
M  V30 4954 C 496.71 -1.3543 6.69438 0
M  V30 4955 O 496.398 -0.99915 7.97667 0
M  V30 4956 H 496.13 -0.394763 0.54876 0
M  V30 4957 H 498.684 -0.612118 1.96067 0
M  V30 4958 H 496.914 -3.15134 2.24115 0
M  V30 4959 H 498.603 -3.0724 2.65252 0
M  V30 4960 H 499.369 -1.53306 4.60133 0
M  V30 4961 H 495.248 -2.5133 3.86463 0
M  V30 4962 H 498.792 -0.901631 6.91749 0
M  V30 4963 H 494.689 -1.88667 6.17313 0
M  V30 4964 H 495.457 -1.13089 8.1065 0
M  V30 4965 N 498.12 -1.38341 -0.754957 0
M  V30 4966 C 499.348 -1.37704 -1.54419 0
M  V30 4967 C 499.763 0.0335243 -1.8877 0
M  V30 4968 O 499.12 0.999773 -1.52679 0
M  V30 4969 C 499.171 -2.23136 -2.84416 0
M  V30 4970 O 498.892 -3.58697 -2.51531 0
M  V30 4971 C 500.393 -2.30664 -3.78562 0
M  V30 4972 H 497.613 -0.471061 -0.477852 0
M  V30 4973 H 500.157 -1.81902 -0.934446 0
M  V30 4974 H 498.312 -1.82403 -3.41772 0
M  V30 4975 H 498.726 -4.03665 -3.34896 0
M  V30 4976 H 500.2 -2.9473 -4.66732 0
M  V30 4977 H 500.677 -1.3199 -4.18898 0
M  V30 4978 H 501.283 -2.71781 -3.27131 0
M  V30 4979 N 499.598 0.982988 -1.23187 0
M  V30 4980 C 500.828 1.75666 -1.08743 0
M  V30 4981 C 501.236 1.85662 0.364195 0
M  V30 4982 O 500.579 1.33317 1.26382 0
M  V30 4983 C 500.641 3.20144 -1.63549 0
M  V30 4984 C 500.305 3.33665 -3.12277 0
M  V30 4985 C 501.302 3.20194 -4.096 0
M  V30 4986 C 498.987 3.58397 -3.51933 0
M  V30 4987 C 500.981 3.31256 -5.44563 0
M  V30 4988 C 498.668 3.69098 -4.87042 0
M  V30 4989 C 499.666 3.55537 -5.83166 0
M  V30 4990 O 499.354 3.65864 -7.1582 0
M  V30 4991 H 499.086 0.558194 -0.381307 0
M  V30 4992 H 501.64 1.24387 -1.63454 0
M  V30 4993 H 499.87 3.72659 -1.03256 0
M  V30 4994 H 501.559 3.79262 -1.4462 0
M  V30 4995 H 502.325 3.00987 -3.80305 0
M  V30 4996 H 498.204 3.68025 -2.77631 0
M  V30 4997 H 501.748 3.20588 -6.19572 0
M  V30 4998 H 497.645 3.87814 -5.16014 0
M  V30 4999 H 498.413 3.82675 -7.23534 0
M  V30 5000 N 501.076 1.04316 1.18135 0
M  V30 5001 C 502.039 0.640794 2.2006 0
M  V30 5002 C 503.039 -0.303124 1.57917 0
M  V30 5003 O 504.229 -0.0881855 1.73977 0
M  V30 5004 C 501.361 -0.060148 3.40847 0
M  V30 5005 H 502.554 1.54281 2.57172 0
M  V30 5006 H 500.107 0.836004 1.32063 0
M  V30 5007 H 500.842 -0.975845 3.0927 0
M  V30 5008 H 500.627 0.618319 3.87194 0
M  V30 5009 H 502.117 -0.328082 4.16309 0
M  V30 5010 N 502.554 -1.34406 0.822964 0
M  V30 5011 C 503.801 -1.98284 0.411057 0
M  V30 5012 C 504.129 -1.65245 -1.02588 0
M  V30 5013 O 503.384 -0.91619 -1.72929 0
M  V30 5014 C 503.683 -3.52981 0.560268 0
M  V30 5015 C 503.349 -4.05931 1.96293 0
M  V30 5016 C 502.011 -4.20103 2.34664 0
M  V30 5017 C 504.363 -4.34412 2.87985 0
M  V30 5018 C 501.691 -4.60082 3.64062 0
M  V30 5019 C 504.043 -4.75838 4.16847 0
M  V30 5020 C 502.707 -4.88215 4.55195 0
M  V30 5021 H 501.977 -0.725573 0.150416 0
M  V30 5022 H 504.624 -1.60349 1.04692 0
M  V30 5023 H 502.929 -3.91477 -0.158982 0
M  V30 5024 H 504.626 -4.00385 0.222087 0
M  V30 5025 H 501.216 -3.95363 1.65487 0
M  V30 5026 H 505.4 -4.23001 2.59584 0
M  V30 5027 H 500.656 -4.67856 3.93599 0
M  V30 5028 H 504.83 -4.96834 4.87984 0
M  V30 5029 H 502.457 -5.18952 5.55512 0
M  V30 5030 N 504.032 -0.577932 -1.46621 0
M  V30 5031 C 504.995 0.147805 -2.28723 0
M  V30 5032 C 505.995 0.823325 -1.38123 0
M  V30 5033 O 507.185 0.676011 -1.60548 0
M  V30 5034 C 504.317 1.21853 -3.18378 0
M  V30 5035 H 505.51 -0.573654 -2.94362 0
M  V30 5036 H 503.063 -0.335703 -1.52652 0
M  V30 5037 H 503.798 1.97173 -2.57475 0
M  V30 5038 H 503.583 0.738714 -3.85078 0
M  V30 5039 H 505.073 1.72768 -3.80186 0
M  V30 5040 N 505.51 1.54411 -0.315457 0
M  V30 5041 C 506.735 2.05299 0.294496 0
M  V30 5042 C 507.16 1.19052 1.4563 0
M  V30 5043 O 506.518 0.197804 1.80218 0
M  V30 5044 C 506.566 3.5345 0.714549 0
M  V30 5045 O 505.67 3.70175 1.81781 0
M  V30 5046 H 505.011 0.661743 0.0547019 0
M  V30 5047 H 507.541 1.99327 -0.461508 0
M  V30 5048 H 507.551 3.9557 0.999426 0
M  V30 5049 H 506.226 4.1568 -0.135244 0
M  V30 5050 H 504.803 3.3996 1.53236 0
M  V30 5051 N 506.988 0.0434614 1.5754 0
M  V30 5052 C 507.935 -0.93356 2.11077 0
M  V30 5053 C 508.905 -1.31383 1.01626 0
M  V30 5054 O 510.09 -1.40465 1.29129 0
M  V30 5055 C 507.23 -2.20578 2.65404 0
M  V30 5056 C 506.343 -1.88068 3.88914 0
M  V30 5057 C 505.478 -3.09691 4.31584 0
M  V30 5058 C 504.517 -2.73067 5.47815 0
M  V30 5059 N 503.654 -3.87359 5.85574 0
M  V30 5060 H 508.494 -0.470118 2.94268 0
M  V30 5061 H 506.031 -0.220434 1.45439 0
M  V30 5062 H 507.989 -2.95011 2.94999 0
M  V30 5063 H 506.619 -2.64513 1.85021 0
M  V30 5064 H 505.671 -1.03816 3.6596 0
M  V30 5065 H 506.983 -1.57104 4.73413 0
M  V30 5066 H 506.137 -3.92431 4.62691 0
M  V30 5067 H 504.876 -3.43827 3.45882 0
M  V30 5068 H 503.881 -1.88742 5.16388 0
M  V30 5069 H 505.106 -2.40131 6.35227 0
M  V30 5070 H 503.052 -4.21311 5.02825 0
M  V30 5071 H 502.969 -3.60068 6.64746 0
M  V30 5072 H 504.237 -4.70761 6.21292 0
M  V30 5073 N 508.466 -1.55915 -0.229846 0
M  V30 5074 C 509.743 -1.6932 -0.979295 0
M  V30 5075 C 510.123 -0.588321 -2.02736 0
M  V30 5076 O 509.471 0.40586 -2.24867 0
M  V30 5077 C 509.681 -3.10305 -1.59724 0
M  V30 5078 C 511.029 -3.6945 -2.09264 0
M  V30 5079 O 512.053 -3.13214 -1.69633 0
M  V30 5080 O 510.912 -4.68072 -2.82082 0
M  V30 5081 H 508.006 -0.689314 -0.456919 0
M  V30 5082 H 510.552 -1.68238 -0.222283 0
M  V30 5083 H 509.324 -3.82177 -0.840039 0
M  V30 5084 H 508.947 -3.1547 -2.42001 0
M  V30 5085 N 509.944 0.496216 -1.49584 0
M  V30 5086 C 511.192 1.24756 -1.58998 0
M  V30 5087 C 511.513 1.92968 -0.280775 0
M  V30 5088 O 510.783 1.82959 0.700198 0
M  V30 5089 H 509.363 0.463471 -0.585836 0
M  V30 5090 H 512.025 0.574678 -1.86235 0
M  V30 5091 H 511.121 2.00895 -2.38847 0
M  V30 5092 N 511.423 1.38739 0.74761 0
M  V30 5093 C 512.37 1.36449 1.86146 0
M  V30 5094 C 513.34 0.226098 1.64554 0
M  V30 5095 O 514.525 0.41926 1.86137 0
M  V30 5096 C 511.665 1.2013 3.23516 0
M  V30 5097 C 510.778 2.43407 3.56899 0
M  V30 5098 C 509.913 2.19773 4.83605 0
M  V30 5099 C 508.952 3.3879 5.09792 0
M  V30 5100 N 508.089 3.14553 6.27695 0
M  V30 5101 H 512.929 2.3167 1.87438 0
M  V30 5102 H 510.466 1.15094 0.916063 0
M  V30 5103 H 512.424 1.08683 4.02795 0
M  V30 5104 H 511.054 0.285453 3.21535 0
M  V30 5105 H 510.106 2.65504 2.72418 0
M  V30 5106 H 511.418 3.32094 3.72176 0
M  V30 5107 H 510.572 2.05496 5.70838 0
M  V30 5108 H 509.311 1.28461 4.70478 0
M  V30 5109 H 508.316 3.53579 4.21025 0
M  V30 5110 H 509.541 4.30986 5.24812 0
M  V30 5111 H 507.487 2.25893 6.1588 0
M  V30 5112 H 507.404 3.96791 6.435 0
M  V30 5113 H 508.672 3.03943 7.17801 0
M  V30 5114 N 512.901 -0.976442 1.23707 0
M  V30 5115 C 514.317 -1.24341 1.00058 0
M  V30 5116 C 514.517 -1.99315 -0.295932 0
M  V30 5117 O 513.573 -2.3123 -1.01435 0
M  V30 5118 C 514.886 -2.03909 2.21001 0
M  V30 5119 C 516.434 -2.17034 2.25534 0
M  V30 5120 C 516.909 -2.99994 3.46075 0
M  V30 5121 N 518.4 -3.07578 3.46338 0
M  V30 5122 C 519.135 -3.72104 4.36264 0
M  V30 5123 N 518.631 -4.3842 5.36432 0
M  V30 5124 N 520.424 -3.69029 4.23998 0
M  V30 5125 H 512.575 -0.47428 2.07037 0
M  V30 5126 H 514.838 -0.272167 0.908091 0
M  V30 5127 H 514.544 -1.56198 3.15111 0
M  V30 5128 H 514.418 -3.04654 2.22409 0
M  V30 5129 H 516.805 -2.63951 1.31961 0
M  V30 5130 H 516.886 -1.15664 2.28156 0
M  V30 5131 H 516.53 -2.53772 4.39957 0
M  V30 5132 H 516.46 -4.01541 3.40694 0
M  V30 5133 H 518.951 -2.60397 2.73865 0
M  V30 5134 H 519.264 -4.85447 6.013 0
M  V30 5135 H 517.609 -4.37116 5.40328 0
M  V30 5136 H 520.8 -3.16392 3.44984 0
M  V30 5137 H 520.973 -4.19034 4.94282 0
M  V30 5138 N 514.379 -1.04941 -1.1758 0
M  V30 5139 C 515.604 -0.778253 -1.92245 0
M  V30 5140 C 516.029 0.659707 -1.76152 0
M  V30 5141 O 515.387 1.45803 -1.07755 0
M  V30 5142 C 515.435 -1.16051 -3.41416 0
M  V30 5143 O 514.539 -0.291153 -4.11371 0
M  V30 5144 H 513.88 -0.285619 -0.599431 0
M  V30 5145 H 516.41 -1.40159 -1.49052 0
M  V30 5146 H 516.42 -1.12619 -3.92149 0
M  V30 5147 H 515.095 -2.208 -3.52449 0
M  V30 5148 H 513.672 -0.385851 -3.70898 0
M  V30 5149 N 515.857 1.33968 -0.830081 0
M  V30 5150 C 517.103 1.98357 -0.422191 0
M  V30 5151 C 517.436 1.65633 1.01387 0
M  V30 5152 O 516.711 0.931648 1.70735 0
M  V30 5153 C 516.994 3.54492 -0.633043 0
M  V30 5154 C 516.847 3.96934 -2.11574 0
M  V30 5155 C 518.166 4.40039 -0.0735584 0
M  V30 5156 H 515.285 0.720544 -0.154871 0
M  V30 5157 H 517.927 1.58749 -1.04397 0
M  V30 5158 H 516.077 3.88361 -0.103775 0
M  V30 5159 H 517.749 3.73363 -2.7092 0
M  V30 5160 H 515.992 3.46984 -2.60354 0
M  V30 5161 H 516.663 5.05651 -2.21406 0
M  V30 5162 H 519.139 4.12764 -0.52585 0
M  V30 5163 H 518.015 5.48327 -0.250841 0
M  V30 5164 H 518.276 4.30124 1.02202 0
M  V30 5165 N 517.335 0.585699 1.46312 0
M  V30 5166 C 518.563 0.0781299 2.06752 0
M  V30 5167 C 518.978 -1.22812 1.43396 0
M  V30 5168 O 518.335 -1.74318 0.540314 0
M  V30 5169 C 518.386 -0.0911927 3.61385 0
M  V30 5170 O 518.107 1.16336 4.22371 0
M  V30 5171 C 519.608 -0.632765 4.38761 0
M  V30 5172 H 516.828 0.0588188 0.668417 0
M  V30 5173 H 519.372 0.807218 1.87894 0
M  V30 5174 H 517.527 -0.770514 3.7966 0
M  V30 5175 H 517.941 0.979082 5.15281 0
M  V30 5176 H 519.415 -0.70041 5.47538 0
M  V30 5177 H 519.892 -1.65039 4.07012 0
M  V30 5178 H 520.498 0.0117856 4.25298 0
M  V30 5179 N 518.813 -1.54241 0.323641 0
M  V30 5180 C 519.776 -2.22997 -0.529602 0
M  V30 5181 C 520.776 -1.22345 -1.04347 0
M  V30 5182 O 521.966 -1.46924 -0.935889 0
M  V30 5183 C 519.098 -2.93409 -1.73562 0
M  V30 5184 H 520.291 -2.99815 0.0714518 0
M  V30 5185 H 517.844 -1.56121 0.0747258 0
M  V30 5186 H 518.579 -2.20729 -2.37591 0
M  V30 5187 H 518.364 -3.67217 -1.37456 0
M  V30 5188 H 519.854 -3.45794 -2.34128 0
M  V30 5189 N 520.291 -0.0518155 -1.57515 0
M  V30 5190 C 521.221 0.920283 -2.146 0
M  V30 5191 C 522.202 1.32406 -1.06783 0
M  V30 5192 O 523.387 1.39866 -1.34726 0
M  V30 5193 C 520.517 2.1949 -2.6915 0
M  V30 5194 C 519.471 1.93116 -3.81956 0
M  V30 5195 C 518.797 3.27037 -4.23026 0
M  V30 5196 C 520.097 1.25225 -5.07066 0
M  V30 5197 H 521.791 0.444801 -2.96077 0
M  V30 5198 H 519.337 0.212508 -1.42423 0
M  V30 5199 H 521.29 2.87894 -3.07725 0
M  V30 5200 H 520.014 2.69244 -1.84865 0
M  V30 5201 H 518.673 1.27123 -3.43854 0
M  V30 5202 H 518.321 3.74595 -3.3569 0
M  V30 5203 H 518.021 3.10189 -4.99056 0
M  V30 5204 H 519.545 3.96673 -4.64202 0
M  V30 5205 H 520.959 1.83666 -5.43083 0
M  V30 5206 H 519.356 1.18702 -5.88243 0
M  V30 5207 H 520.426 0.228382 -4.84362 0
M  V30 5208 N 521.769 1.56035 0.221574 0
M  V30 5209 C 522.732 1.91584 1.2581 0
M  V30 5210 C 523.732 0.794425 1.39805 0
M  V30 5211 O 524.922 1.06217 1.38071 0
M  V30 5212 C 522.054 2.16663 2.63192 0
M  V30 5213 H 523.247 2.8429 0.954935 0
M  V30 5214 H 520.8 1.49316 0.461988 0
M  V30 5215 H 521.535 1.26508 2.98607 0
M  V30 5216 H 521.32 2.98358 2.5441 0
M  V30 5217 H 522.81 2.45262 3.37988 0
M  V30 5218 N 523.247 -0.488276 1.49845 0
M  V30 5219 C 524.195 -1.60917 1.67954 0
M  V30 5220 C 525.189 -1.6038 0.54539 0
M  V30 5221 O 526.395 -1.64736 0.7254 0
M  V30 5222 H 522.77 -0.533658 0.529824 0
M  V30 5223 H 524.741 -1.428 2.62013 0
M  V30 5224 C 523.49 -2.98975 1.77509 0
M  V30 5225 H 522.813 -3.00099 2.6416 0
M  V30 5226 H 524.253 -3.76906 1.9421 0
M  V30 5227 C 522.712 -3.3282 0.522745 0
M  V30 5228 O 523.242 -4.00208 -0.345866 0
M  V30 5229 N 521.448 -2.8808 0.381882 0
M  V30 5230 H 520.995 -2.33415 1.08974 0
M  V30 5231 H 520.953 -3.11091 -0.454929 0
M  V30 5232 N 524.725 -1.39134 -0.740242 0
M  V30 5233 C 525.953 -1.39334 -1.5295 0
M  V30 5234 C 526.368 0.0135008 -1.88795 0
M  V30 5235 O 525.725 0.983524 -1.5373 0
M  V30 5236 C 525.776 -2.2614 -2.82034 0
M  V30 5237 O 525.497 -3.61345 -2.47712 0
M  V30 5238 C 526.998 -2.34666 -3.76094 0
M  V30 5239 H 524.218 -0.476103 -0.472828 0
M  V30 5240 H 526.762 -1.82883 -0.9151 0
M  V30 5241 H 524.917 -1.86018 -3.39818 0
M  V30 5242 H 525.331 -4.07194 -3.30595 0
M  V30 5243 H 526.805 -2.99663 -4.63579 0
M  V30 5244 H 527.282 -1.36426 -4.17474 0
M  V30 5245 H 527.888 -2.75236 -3.2423 0
M  V30 5246 N 526.204 0.969867 -1.24223 0
M  V30 5247 C 527.429 1.75289 -1.10853 0
M  V30 5248 C 527.854 1.85091 0.335079 0
M  V30 5249 O 527.212 1.32024 1.24255 0
M  V30 5250 C 527.26 3.15255 -1.75062 0
M  V30 5251 O 526.364 3.99589 -1.01992 0
M  V30 5252 H 525.705 0.538904 -0.387915 0
M  V30 5253 H 528.235 1.21675 -1.64488 0
M  V30 5254 H 528.245 3.65787 -1.80731 0
M  V30 5255 H 526.92 3.07436 -2.801 0
M  V30 5256 H 525.497 3.58077 -1.04094 0
M  V30 5257 N 527.682 1.05563 1.17022 0
M  V30 5258 C 528.63 0.653887 2.2322 0
M  V30 5259 C 529.624 -0.326642 1.66221 0
M  V30 5260 O 530.83 -0.192301 1.7897 0
M  V30 5261 H 527.205 0.193297 0.726733 0
M  V30 5262 H 529.176 1.5596 2.54399 0
M  V30 5263 C 527.925 0.0485434 3.47666 0
M  V30 5264 H 527.248 0.79413 3.91834 0
M  V30 5265 H 528.688 -0.195133 4.23551 0
M  V30 5266 C 527.147 -1.20583 3.14581 0
M  V30 5267 O 527.677 -2.29475 3.29703 0
M  V30 5268 N 525.883 -1.10493 2.68774 0
M  V30 5269 H 525.43 -0.218795 2.56669 0
M  V30 5270 H 525.388 -1.94507 2.47011 0
M  V30 5271 N 529.16 -1.33526 0.837174 0
M  V30 5272 C 530.108 -2.31168 0.257698 0
M  V30 5273 C 531.102 -1.5806 -0.609388 0
M  V30 5274 O 532.308 -1.72941 -0.499139 0
M  V30 5275 H 528.683 -0.74922 0.0646058 0
M  V30 5276 H 530.654 -2.77552 1.09578 0
M  V30 5277 C 529.403 -3.4326 -0.553887 0
M  V30 5278 H 528.726 -3.99665 0.104008 0
M  V30 5279 H 530.166 -4.13782 -0.925219 0
M  V30 5280 C 528.625 -2.88965 -1.73207 0
M  V30 5281 O 529.155 -2.85013 -2.83073 0
M  V30 5282 N 527.361 -2.45596 -1.55342 0
M  V30 5283 H 526.908 -2.49009 -0.659705 0
M  V30 5284 H 526.866 -2.0962 -2.34322 0
M  V30 5285 N 530.638 -0.59345 -1.46 0
M  V30 5286 C 531.884 -0.0832754 -2.02629 0
M  V30 5287 C 532.217 1.27749 -1.46266 0
M  V30 5288 O 531.492 1.8395 -0.631866 0
M  V30 5289 C 531.775 -0.0290756 -3.60088 0
M  V30 5290 C 531.628 -1.41951 -4.26814 0
M  V30 5291 C 532.947 0.666055 -4.35031 0
M  V30 5292 H 530.066 -0.031736 -0.736316 0
M  V30 5293 H 532.708 -0.762711 -1.74019 0
M  V30 5294 H 530.858 0.549532 -3.84594 0
M  V30 5295 H 532.53 -2.04411 -4.13538 0
M  V30 5296 H 530.773 -1.98422 -3.8576 0
M  V30 5297 H 531.444 -1.33395 -5.3564 0
M  V30 5298 H 533.92 0.174401 -4.15734 0
M  V30 5299 H 532.796 0.673041 -5.44758 0
M  V30 5300 H 533.057 1.72946 -4.06869 0
M  V30 5301 N 532.116 1.54067 -0.331816 0
M  V30 5302 C 533.064 2.26105 0.54582 0
M  V30 5303 C 534.058 1.27816 1.11173 0
M  V30 5304 O 535.264 1.45565 1.05882 0
M  V30 5305 H 531.639 0.726363 0.194683 0
M  V30 5306 H 533.61 2.98282 -0.083931 0
M  V30 5307 C 532.359 3.03814 1.69092 0
M  V30 5308 H 531.682 3.79269 1.26473 0
M  V30 5309 H 533.122 3.57453 2.28043 0
M  V30 5310 C 531.581 2.12606 2.61343 0
M  V30 5311 O 532.111 1.71437 3.6328 0
M  V30 5312 N 530.317 1.77925 2.29763 0
M  V30 5313 H 529.864 2.11602 1.46909 0
M  V30 5314 H 529.822 1.1718 2.91747 0
M  V30 5315 N 533.594 0.0601682 1.57485 0
M  V30 5316 C 534.84 -0.612501 1.93329 0
M  V30 5317 C 535.173 -1.6996 0.939526 0
M  V30 5318 O 534.448 -1.94472 -0.0330957 0
M  V30 5319 C 534.731 -1.20025 3.39508 0
M  V30 5320 C 534.584 -0.12059 4.49638 0
M  V30 5321 C 535.903 -2.10923 3.86264 0
M  V30 5322 H 533.022 -0.221185 0.703027 0
M  V30 5323 H 535.664 0.123768 1.89596 0
M  V30 5324 H 533.814 -1.82774 3.42821 0
M  V30 5325 H 535.486 0.51185 4.58452 0
M  V30 5326 H 533.729 0.550251 4.30296 0
M  V30 5327 H 534.4 -0.572019 5.49028 0
M  V30 5328 H 536.876 -1.58124 3.84884 0
M  V30 5329 H 535.752 -2.48987 4.8918 0
M  V30 5330 H 536.013 -3.01292 3.23536 0
M  V30 5331 N 535.072 -1.5615 -0.213296 0
M  V30 5332 C 536.002 -1.96109 -1.26742 0
M  V30 5333 C 536.983 -0.830448 -1.48451 0
M  V30 5334 O 538.168 -1.09339 -1.60495 0
M  V30 5335 C 535.298 -2.28492 -2.61551 0
M  V30 5336 C 534.252 -3.44124 -2.54485 0
M  V30 5337 C 533.578 -3.62134 -3.93399 0
M  V30 5338 C 534.878 -4.78855 -2.08556 0
M  V30 5339 H 536.572 -2.84412 -0.935434 0
M  V30 5340 H 534.118 -1.36836 -0.44854 0
M  V30 5341 H 536.071 -2.55039 -3.3546 0
M  V30 5342 H 534.795 -1.37052 -2.96453 0
M  V30 5343 H 533.454 -3.17639 -1.83033 0
M  V30 5344 H 533.102 -2.68055 -4.25623 0
M  V30 5345 H 532.802 -4.39913 -3.89551 0
M  V30 5346 H 534.326 -3.91038 -4.68958 0
M  V30 5347 H 535.74 -5.04552 -2.72213 0
M  V30 5348 H 534.137 -5.59975 -2.1575 0
M  V30 5349 H 535.207 -4.73657 -1.03811 0
M  V30 5350 N 536.55 0.480323 -1.50102 0
M  V30 5351 C 537.498 1.60024 -1.68805 0
M  V30 5352 C 538.492 1.60089 -0.553888 0
M  V30 5353 O 539.698 1.64349 -0.734127 0
M  V30 5354 H 536.073 0.530841 -0.532646 0
M  V30 5355 H 538.044 1.41408 -2.62767 0
M  V30 5356 C 536.793 2.98029 -1.79092 0
M  V30 5357 H 536.116 2.98694 -2.65748 0
M  V30 5358 H 537.556 3.75871 -1.96206 0
M  V30 5359 C 536.015 3.32538 -0.540388 0
M  V30 5360 O 536.545 4.00386 0.324637 0
M  V30 5361 N 534.751 2.87873 -0.397154 0
M  V30 5362 H 534.298 2.32834 -1.1021 0
M  V30 5363 H 534.256 3.11328 0.438425 0
M  V30 5364 N 538.028 1.39524 0.732853 0
M  V30 5365 C 539.256 1.40143 1.52209 0
M  V30 5366 C 539.671 -0.00348836 1.888 0
M  V30 5367 O 539.028 -0.975357 1.5425 0
M  V30 5368 C 539.079 2.27632 2.8083 0
M  V30 5369 O 538.8 3.62654 2.45792 0
M  V30 5370 C 540.301 2.36658 3.74844 0
M  V30 5371 H 537.521 0.478604 0.470297 0
M  V30 5372 H 540.065 1.83366 0.905388 0
M  V30 5373 H 538.22 1.87818 3.38826 0
M  V30 5374 H 538.634 4.08941 3.28431 0
M  V30 5375 H 540.108 3.02118 4.61984 0
M  V30 5376 H 540.585 1.38638 4.16745 0
M  V30 5377 H 541.191 2.76951 3.22766 0
M  V30 5378 N 539.506 -0.963266 1.24736 0
M  V30 5379 C 540.439 -2.05758 0.986852 0
M  V30 5380 C 541.417 -1.62398 -0.0809272 0
M  V30 5381 O 542.601 -1.88414 0.0569347 0
M  V30 5382 C 539.728 -3.35135 0.490095 0
M  V30 5383 C 538.774 -3.97451 1.54709 0
M  V30 5384 S 539.607 -4.34519 3.12976 0
M  V30 5385 C 540.763 -5.67026 2.65014 0
M  V30 5386 H 540.996 -2.27539 1.91346 0
M  V30 5387 H 538.529 -1.10176 1.08169 0
M  V30 5388 H 540.487 -4.09962 0.21012 0
M  V30 5389 H 539.148 -3.11335 -0.415873 0
M  V30 5390 H 538.341 -4.90704 1.15003 0
M  V30 5391 H 537.943 -3.29071 1.77731 0
M  V30 5392 H 540.235 -6.44748 2.08102 0
M  V30 5393 H 541.178 -6.11594 3.56873 0
M  V30 5394 H 541.586 -5.25847 2.05294 0
M  V30 5395 N 540.985 -1.06182 -1.16461 0
M  V30 5396 C 541.948 -0.675723 -2.19013 0
M  V30 5397 C 542.948 0.277963 -1.58379 0
M  V30 5398 O 544.138 0.0604962 -1.74095 0
M  V30 5399 C 541.27 0.00591459 -3.40899 0
M  V30 5400 H 542.463 -1.58353 -2.54685 0
M  V30 5401 H 540.016 -0.856908 -1.30716 0
M  V30 5402 H 540.751 0.92652 -3.10783 0
M  V30 5403 H 540.536 -0.67984 -3.86161 0
M  V30 5404 H 542.026 0.26181 -4.16778 0
M  V30 5405 N 542.463 1.3308 -0.844243 0
M  V30 5406 C 543.879 1.50447 -0.532729 0
M  V30 5407 C 544.079 1.78292 0.938837 0
M  V30 5408 O 543.135 1.84635 1.72239 0
M  V30 5409 C 544.448 2.65555 -1.41072 0
M  V30 5410 C 545.996 2.7944 -1.41005 0
M  V30 5411 C 546.471 3.97616 -2.27301 0
M  V30 5412 N 547.962 4.0486 -2.2504 0
M  V30 5413 C 548.697 4.95508 -2.88547 0
M  V30 5414 N 548.193 5.91236 -3.61126 0
M  V30 5415 N 549.986 4.88548 -2.77989 0
M  V30 5416 H 542.137 1.13269 -1.79677 0
M  V30 5417 H 544.4 0.55734 -0.766861 0
M  V30 5418 H 544.106 2.51675 -2.45668 0
M  V30 5419 H 543.98 3.61089 -1.09061 0
M  V30 5420 H 546.367 2.92749 -0.371784 0
M  V30 5421 H 546.448 1.8465 -1.77026 0
M  V30 5422 H 546.092 3.85066 -3.3119 0
M  V30 5423 H 546.022 4.91661 -1.88619 0
M  V30 5424 H 548.513 3.36353 -1.72264 0
M  V30 5425 H 548.826 6.57079 -4.06776 0
M  V30 5426 H 547.171 5.91295 -3.65234 0
M  V30 5427 H 550.362 4.12729 -2.20846 0
M  V30 5428 H 550.535 5.58994 -3.27765 0
M  V30 5429 N 543.941 0.601185 1.45683 0
M  V30 5430 C 545.169 0.100054 2.06658 0
M  V30 5431 C 545.584 -1.21285 1.44691 0
M  V30 5432 O 544.941 -1.73735 0.558772 0
M  V30 5433 C 544.992 -0.0528579 3.61461 0
M  V30 5434 O 544.713 1.20809 4.21114 0
M  V30 5435 C 546.214 -0.586193 4.39407 0
M  V30 5436 H 543.434 0.065905 0.667756 0
M  V30 5437 H 545.978 0.827101 1.87028 0
M  V30 5438 H 544.133 -0.730203 3.80456 0
M  V30 5439 H 544.547 1.03368 5.14213 0
M  V30 5440 H 546.021 -0.642297 5.4825 0
M  V30 5441 H 546.498 -1.60713 4.0874 0
M  V30 5442 H 547.104 0.0568935 4.25262 0
M  V30 5443 N 545.419 -1.53889 0.339982 0
M  V30 5444 C 546.349 -2.27843 -0.510856 0
M  V30 5445 C 547.33 -1.29267 -1.10563 0
M  V30 5446 O 548.515 -1.58104 -1.12768 0
M  V30 5447 C 545.645 -3.04857 -1.66372 0
M  V30 5448 C 544.599 -4.10907 -1.19746 0
M  V30 5449 C 543.925 -4.75855 -2.43857 0
M  V30 5450 C 545.225 -5.21435 -0.300501 0
M  V30 5451 H 546.919 -2.99212 0.106067 0
M  V30 5452 H 544.465 -1.43904 0.0524533 0
M  V30 5453 H 546.418 -3.5533 -2.26537 0
M  V30 5454 H 545.142 -2.31133 -2.30749 0
M  V30 5455 H 543.801 -3.61342 -0.618654 0
M  V30 5456 H 543.449 -3.9873 -3.06633 0
M  V30 5457 H 543.149 -5.47502 -2.13343 0
M  V30 5458 H 544.673 -5.2911 -3.04754 0
M  V30 5459 H 546.087 -5.67565 -0.80889 0
M  V30 5460 H 544.484 -6.00036 -0.0874076 0
M  V30 5461 H 545.554 -4.80328 0.664321 0
M  V30 5462 N 546.897 -0.0685191 -1.57451 0
M  V30 5463 C 547.807 0.914677 -2.16034 0
M  V30 5464 C 548.823 1.32938 -1.12265 0
M  V30 5465 O 549.999 1.40275 -1.44516 0
M  V30 5466 C 547.064 2.16519 -2.70777 0
M  V30 5467 C 546.125 1.80721 -3.89408 0
M  V30 5468 C 545.358 2.9981 -4.41531 0
M  V30 5469 O 545.581 4.13727 -3.92666 0
M  V30 5470 O 544.515 2.79817 -5.32903 0
M  V30 5471 H 548.341 0.446364 -3.00402 0
M  V30 5472 H 545.926 0.154367 -1.486 0
M  V30 5473 H 547.808 2.89856 -3.05878 0
M  V30 5474 H 546.483 2.62454 -1.89471 0
M  V30 5475 H 545.39 1.04646 -3.59166 0
M  V30 5476 H 546.723 1.39571 -4.71997 0
M  V30 5477 N 548.375 1.56261 0.205012 0
M  V30 5478 C 549.6 1.84491 0.947512 0
M  V30 5479 C 550.025 0.650894 1.76479 0
M  V30 5480 O 549.383 -0.40035 1.76824 0
M  V30 5481 C 549.431 3.10863 1.82747 0
M  V30 5482 O 548.535 2.90719 2.925 0
M  V30 5483 H 547.876 0.607783 0.267386 0
M  V30 5484 H 550.406 2.03485 0.213323 0
M  V30 5485 H 550.416 3.41399 2.23407 0
M  V30 5486 H 549.091 3.97392 1.2269 0
M  V30 5487 H 547.668 2.71457 2.55667 0
M  V30 5488 N 549.853 -0.472356 1.50355 0
M  V30 5489 C 550.816 -1.5529 1.68576 0
M  V30 5490 C 551.816 -1.50863 0.556511 0
M  V30 5491 O 553.006 -1.53505 0.823516 0
M  V30 5492 C 550.138 -2.94921 1.70981 0
M  V30 5493 H 551.331 -1.40451 2.64978 0
M  V30 5494 H 548.884 -0.698645 1.39816 0
M  V30 5495 H 549.619 -3.15204 0.762675 0
M  V30 5496 H 549.404 -2.99541 2.53017 0
M  V30 5497 H 550.894 -3.73372 1.87037 0
M  V30 5498 N 551.331 -1.39911 -0.725443 0
M  V30 5499 C 552.578 -1.37654 -1.48518 0
M  V30 5500 C 552.906 0.0243982 -1.94485 0
M  V30 5501 O 552.161 1.00708 -1.67799 0
M  V30 5502 C 552.46 -2.30368 -2.7325 0
M  V30 5503 C 552.126 -3.77817 -2.461 0
M  V30 5504 C 550.788 -4.17991 -2.38405 0
M  V30 5505 C 553.14 -4.71036 -2.23103 0
M  V30 5506 C 550.468 -5.49433 -2.05768 0
M  V30 5507 C 552.82 -6.02766 -1.9198 0
M  V30 5508 C 551.484 -6.41993 -1.82761 0
M  V30 5509 H 550.754 -0.503713 -0.543465 0
M  V30 5510 H 553.401 -1.7249 -0.831822 0
M  V30 5511 H 551.706 -1.88683 -3.43375 0
M  V30 5512 H 553.403 -2.2591 -3.31309 0
M  V30 5513 H 549.993 -3.45982 -2.52972 0
M  V30 5514 H 554.177 -4.40823 -2.2801 0
M  V30 5515 H 549.433 -5.78738 -1.9716 0
M  V30 5516 H 553.607 -6.74519 -1.73197 0
M  V30 5517 H 551.234 -7.43761 -1.57237 0
M  V30 5518 N 552.809 0.956637 -1.25245 0
M  V30 5519 C 554.049 1.71585 -1.11076 0
M  V30 5520 C 554.413 1.88916 0.34277 0
M  V30 5521 O 555.614 2.61875 0.606227 0
M  V30 5522 C 553.885 3.06267 -1.84215 0
M  V30 5523 S 555.444 3.97469 -1.85914 0
M  V30 5524 H 552.262 0.589803 -0.397055 0
M  V30 5525 H 554.864 1.14114 -1.58739 0
M  V30 5526 H 553.568 2.91322 -2.89067 0
M  V30 5527 H 553.099 3.688 -1.36931 0
M  V30 5528 H 555.114 4.87316 -0.93474 0
M  V30 5529 N 554.287 1.06798 1.15896 0
M  V30 5530 C 555.535 0.786211 1.8618 0
M  V30 5531 C 555.856 -0.689547 1.82401 0
M  V30 5532 O 555.126 -1.49913 1.26107 0
M  V30 5533 H 553.706 0.287843 0.689315 0
M  V30 5534 H 556.368 1.35055 1.40521 0
M  V30 5535 H 555.464 1.1157 2.91477 0
M  V30 5536 N 555.766 -1.3263 0.851289 0
M  V30 5537 C 556.713 -2.28952 0.291469 0
M  V30 5538 C 557.683 -1.54897 -0.599676 0
M  V30 5539 O 558.868 -1.83137 -0.535305 0
M  V30 5540 C 556.008 -3.41206 -0.516992 0
M  V30 5541 C 555.121 -4.30148 0.399566 0
M  V30 5542 C 554.256 -5.29527 -0.4212 0
M  V30 5543 C 553.295 -6.10112 0.492969 0
M  V30 5544 N 552.432 -7.01499 -0.290414 0
M  V30 5545 H 557.272 -2.76228 1.11813 0
M  V30 5546 H 554.809 -1.35907 0.562826 0
M  V30 5547 H 556.767 -4.05005 -1.00132 0
M  V30 5548 H 555.397 -2.9509 -1.30851 0
M  V30 5549 H 554.449 -3.66959 1.00227 0
M  V30 5550 H 555.761 -4.8649 1.1013 0
M  V30 5551 H 554.915 -5.98914 -0.968832 0
M  V30 5552 H 553.654 -4.73794 -1.15632 0
M  V30 5553 H 552.659 -5.39632 1.05251 0
M  V30 5554 H 553.884 -6.6793 1.22664 0
M  V30 5555 H 551.83 -6.48199 -1.00868 0
M  V30 5556 H 551.747 -7.55178 0.352354 0
M  V30 5557 H 553.015 -7.75176 -0.819882 0
M  V30 5558 N 557.244 -0.608902 -1.45362 0
M  V30 5559 C 558.655 -0.189511 -1.85736 0
M  V30 5560 C 559.006 1.2539 -1.50903 0
M  V30 5561 O 558.131 1.95094 -0.936347 0
M  V30 5562 C 558.726 -0.33716 -3.37118 0
M  V30 5563 C 557.285 0.0275487 -3.7639 0
M  V30 5564 C 556.432 -0.660983 -2.69307 0
M  V30 5565 H 559.383 -0.815499 -1.36144 0
M  V30 5566 H 559.404 0.430257 -3.7806 0
M  V30 5567 H 558.916 -1.38779 -3.62439 0
M  V30 5568 H 557.017 1.0773 -3.56686 0
M  V30 5569 H 557.13 -0.367018 -4.77692 0
M  V30 5570 H 555.494 -0.0984958 -2.54509 0
M  V30 5571 H 556.277 -1.71377 -2.97464 0
M  V30 5572 N 558.722 1.53707 -0.348139 0
M  V30 5573 C 559.95 2.05406 0.248224 0
M  V30 5574 C 560.365 1.22282 1.43849 0
M  V30 5575 O 559.722 0.259244 1.80649 0
M  V30 5576 C 559.773 3.55446 0.658793 0
M  V30 5577 O 559.494 4.35417 -0.484149 0
M  V30 5578 C 560.995 4.23335 1.31539 0
M  V30 5579 H 558.215 0.669344 0.0471075 0
M  V30 5580 H 560.759 1.98257 -0.501456 0
M  V30 5581 H 558.914 3.62803 1.35841 0
M  V30 5582 H 559.328 5.24268 -0.155949 0
M  V30 5583 H 560.802 5.29692 1.55338 0
M  V30 5584 H 561.279 3.75967 2.27036 0
M  V30 5585 H 561.885 4.20184 0.657683 0
M  V30 5586 N 560.2 0.0768682 1.57412 0
M  V30 5587 C 561.428 -0.59997 1.9801 0
M  V30 5588 C 561.843 -1.62842 0.955408 0
M  V30 5589 O 561.2 -1.8241 -0.057314 0
M  V30 5590 C 561.251 -1.26401 3.38681 0
M  V30 5591 O 560.972 -0.276723 4.37225 0
M  V30 5592 C 562.473 -2.0282 3.94182 0
M  V30 5593 H 559.693 -0.162239 0.651091 0
M  V30 5594 H 562.237 0.150771 2.03943 0
M  V30 5595 H 560.392 -1.96581 3.33819 0
M  V30 5596 H 560.806 -0.753744 5.19056 0
M  V30 5597 H 562.28 -2.44667 4.94815 0
M  V30 5598 H 562.757 -2.88678 3.31001 0
M  V30 5599 H 563.363 -1.37496 4.02461 0
M  V30 5600 N 561.678 -1.56367 -0.196722 0
M  V30 5601 C 562.641 -1.93561 -1.22746 0
M  V30 5602 C 563.641 -0.816566 -1.38524 0
M  V30 5603 O 564.831 -1.084 -1.36363 0
M  V30 5604 C 561.963 -2.20823 -2.59712 0
M  V30 5605 H 563.156 -2.85774 -0.909586 0
M  V30 5606 H 560.709 -1.50032 -0.438174 0
M  V30 5607 H 561.444 -1.31243 -2.96557 0
M  V30 5608 H 561.229 -3.02368 -2.49632 0
M  V30 5609 H 562.719 -2.50608 -3.34044 0
M  V30 5610 N 563.156 0.464375 -1.50603 0
M  V30 5611 C 564.103 1.56152 -1.69956 0
M  V30 5612 C 565.073 1.57046 -0.54091 0
M  V30 5613 O 566.258 1.74473 -0.772258 0
M  V30 5614 C 563.398 2.94079 -1.80586 0
M  V30 5615 C 562.511 3.02923 -3.07996 0
M  V30 5616 C 561.646 4.31806 -3.09382 0
M  V30 5617 C 560.685 4.34417 -4.31218 0
M  V30 5618 N 559.822 5.54782 -4.30304 0
M  V30 5619 H 564.662 1.38955 -2.6362 0
M  V30 5620 H 562.199 0.675482 -1.30674 0
M  V30 5621 H 564.157 3.74073 -1.8473 0
M  V30 5622 H 562.787 3.09896 -0.903556 0
M  V30 5623 H 561.839 2.1576 -3.13292 0
M  V30 5624 H 563.151 3.00712 -3.97962 0
M  V30 5625 H 562.305 5.20153 -3.12292 0
M  V30 5626 H 561.044 4.36636 -2.17257 0
M  V30 5627 H 560.049 3.44467 -4.28512 0
M  V30 5628 H 561.274 4.31273 -5.24576 0
M  V30 5629 H 559.22 5.60384 -3.41037 0
M  V30 5630 H 559.137 5.54339 -5.14047 0
M  V30 5631 H 560.405 6.45235 -4.3737 0
M  V30 5632 N 564.634 1.40294 0.718013 0
M  V30 5633 C 565.564 1.43118 1.84498 0
M  V30 5634 C 566.545 0.292403 1.67568 0
M  V30 5635 O 567.73 0.500675 1.87635 0
M  V30 5636 C 564.86 1.29065 3.22427 0
M  V30 5637 C 563.814 2.40521 3.54025 0
M  V30 5638 C 563.14 2.11546 4.91073 0
M  V30 5639 C 564.44 3.82859 3.55269 0
M  V30 5640 H 566.134 2.37432 1.82391 0
M  V30 5641 H 563.68 1.14283 0.87609 0
M  V30 5642 H 565.633 1.29658 4.00957 0
M  V30 5643 H 564.357 0.312271 3.25104 0
M  V30 5644 H 563.016 2.39173 2.77834 0
M  V30 5645 H 562.664 1.12104 4.90348 0
M  V30 5646 H 562.364 2.86216 5.1318 0
M  V30 5647 H 563.888 2.13817 5.71939 0
M  V30 5648 H 565.302 3.86044 4.23843 0
M  V30 5649 H 563.699 4.57029 3.88902 0
M  V30 5650 H 564.769 4.12617 2.54706 0
M  V30 5651 N 566.112 -0.949982 1.2575 0
M  V30 5652 C 567.528 -1.22191 1.02672 0
M  V30 5653 C 567.728 -1.99898 -0.253588 0
M  V30 5654 O 566.784 -2.33329 -0.965076 0
M  V30 5655 C 568.097 -1.99175 2.25277 0
M  V30 5656 C 569.645 -2.12201 2.30087 0
M  V30 5657 C 570.12 -2.92586 3.5236 0
M  V30 5658 N 571.611 -3.00163 3.52784 0
M  V30 5659 C 572.346 -3.62766 4.44059 0
M  V30 5660 N 571.842 -4.26943 5.45611 0
M  V30 5661 N 573.635 -3.59953 4.3173 0
M  V30 5662 H 565.786 -0.430258 2.07996 0
M  V30 5663 H 568.049 -0.252844 0.91366 0
M  V30 5664 H 567.755 -1.49479 3.18354 0
M  V30 5665 H 567.629 -2.99868 2.28821 0
M  V30 5666 H 570.016 -2.61093 1.3753 0
M  V30 5667 H 570.097 -1.10799 2.30559 0
M  V30 5668 H 569.741 -2.44383 4.45241 0
M  V30 5669 H 569.671 -3.94224 3.49134 0
M  V30 5670 H 572.162 -2.54529 2.79327 0
M  V30 5671 H 572.475 -4.72583 6.11461 0
M  V30 5672 H 570.82 -4.25557 5.49478 0
M  V30 5673 H 574.011 -3.09003 3.51617 0
M  V30 5674 H 574.184 -4.08455 5.03059 0
M  V30 5675 N 567.59 -1.07411 -1.15328 0
M  V30 5676 C 568.815 -0.818856 -1.90551 0
M  V30 5677 C 569.24 0.622194 -1.77512 0
M  V30 5678 O 568.598 1.43484 -1.10824 0
M  V30 5679 C 568.646 -1.23267 -3.38877 0
M  V30 5680 O 567.75 -0.378345 -4.10661 0
M  V30 5681 H 567.091 -0.29827 -0.593238 0
M  V30 5682 H 569.621 -1.43289 -1.46046 0
M  V30 5683 H 569.631 -1.20912 -3.89672 0
M  V30 5684 H 568.306 -2.28226 -3.47686 0
M  V30 5685 H 566.883 -0.464437 -3.69996 0
M  V30 5686 N 569.068 1.32177 -0.85831 0
M  V30 5687 C 570.031 2.27086 -0.310588 0
M  V30 5688 C 571.031 1.51751 0.531806 0
M  V30 5689 O 572.221 1.70794 0.34279 0
M  V30 5690 C 569.353 3.36266 0.560179 0
M  V30 5691 H 570.546 2.77045 -1.1483 0
M  V30 5692 H 568.099 1.42911 -0.632942 0
M  V30 5693 H 568.834 2.9158 1.41956 0
M  V30 5694 H 568.619 3.92077 -0.0428473 0
M  V30 5695 H 570.109 4.06974 0.936056 0
M  V30 5696 N 570.547 0.616602 1.45037 0
M  V30 5697 C 571.775 0.121968 2.0654 0
M  V30 5698 C 572.19 -1.19743 1.45969 0
M  V30 5699 O 571.547 -1.73133 0.577168 0
M  V30 5700 C 571.598 -0.0145171 3.61497 0
M  V30 5701 O 571.319 1.25269 4.19809 0
M  V30 5702 C 572.82 -0.539555 4.40004 0
M  V30 5703 H 570.04 0.0729837 0.667019 0
M  V30 5704 H 572.584 0.846891 1.8614 0
M  V30 5705 H 570.739 -0.689809 3.81209 0
M  V30 5706 H 571.153 1.08816 5.13088 0
M  V30 5707 H 572.627 -0.584112 5.48901 0
M  V30 5708 H 573.104 -1.56368 4.10421 0
M  V30 5709 H 573.71 0.101995 4.25178 0
M  V30 5710 N 572.025 -1.5352 0.356285 0
M  V30 5711 C 573.25 -2.06007 -0.239961 0
M  V30 5712 C 573.675 -1.22872 -1.42422 0
M  V30 5713 O 573.033 -0.245516 -1.7963 0
M  V30 5714 C 573.081 -3.5522 -0.620587 0
M  V30 5715 O 572.185 -3.74864 -1.71902 0
M  V30 5716 H 571.526 -0.662961 -0.0371377 0
M  V30 5717 H 574.056 -1.98033 0.514194 0
M  V30 5718 H 574.066 -3.98081 -0.894197 0
M  V30 5719 H 572.741 -4.15175 0.245407 0
M  V30 5720 H 571.318 -3.43904 -1.44169 0
M  V30 5721 N 573.503 -0.0852151 -1.57369 0
M  V30 5722 C 574.728 0.592872 -1.98746 0
M  V30 5723 C 575.153 1.61538 -0.963689 0
M  V30 5724 O 574.511 1.81168 0.069071 0
M  V30 5725 C 574.559 1.22599 -3.39119 0
M  V30 5726 O 573.663 2.34185 -3.39457 0
M  V30 5727 H 573.004 0.151314 -0.646529 0
M  V30 5728 H 575.534 -0.163703 -2.03944 0
M  V30 5729 H 575.544 1.56965 -3.76598 0
M  V30 5730 H 574.219 0.476831 -4.13158 0
M  V30 5731 H 572.796 2.01512 -3.13763 0
M  V30 5732 N 574.981 1.5647 0.188427 0
M  V30 5733 C 575.944 1.9421 1.21718 0
M  V30 5734 C 576.944 0.823901 1.38089 0
M  V30 5735 O 578.134 1.09122 1.35787 0
M  V30 5736 C 575.266 2.22197 2.58537 0
M  V30 5737 H 576.459 2.86252 0.894418 0
M  V30 5738 H 574.012 1.50263 0.430211 0
M  V30 5739 H 574.747 1.32814 2.95856 0
M  V30 5740 H 574.532 3.03688 2.48025 0
M  V30 5741 H 576.022 2.52376 3.3271 0
M  V30 5742 N 576.459 -0.456382 1.50847 0
M  V30 5743 C 577.687 -1.23026 1.66349 0
M  V30 5744 C 578.102 -1.85473 0.352868 0
M  V30 5745 O 577.459 -1.69885 -0.666739 0
M  V30 5746 C 577.51 -2.32827 2.76539 0
M  V30 5747 O 577.231 -1.72938 4.02522 0
M  V30 5748 C 578.732 -3.23448 3.03144 0
M  V30 5749 H 575.952 -0.371527 0.558756 0
M  V30 5750 H 578.496 -0.543082 1.97157 0
M  V30 5751 H 576.651 -2.97294 2.48384 0
M  V30 5752 H 577.065 -2.45357 4.63573 0
M  V30 5753 H 578.539 -3.96669 3.83872 0
M  V30 5754 H 579.016 -3.83094 2.14793 0
M  V30 5755 H 579.622 -2.64702 3.32886 0
M  V30 5756 N 577.937 -1.40673 -0.710563 0
M  V30 5757 C 579.165 -1.42547 -1.4996 0
M  V30 5758 C 579.58 -0.0265485 -1.88781 0
M  V30 5759 O 578.937 0.950694 -1.55782 0
M  V30 5760 C 578.988 -2.32071 -2.77173 0
M  V30 5761 O 578.709 -3.66518 -2.39992 0
M  V30 5762 C 580.21 -2.42591 -3.71032 0
M  V30 5763 H 577.43 -0.486025 -0.462623 0
M  V30 5764 H 579.974 -1.84783 -0.876102 0
M  V30 5765 H 578.129 -1.93184 -3.35795 0
M  V30 5766 H 578.543 -4.14115 -3.21884 0
M  V30 5767 H 580.017 -3.09429 -4.57119 0
M  V30 5768 H 580.494 -1.4525 -4.14486 0
M  V30 5769 H 581.1 -2.82051 -3.18319 0
M  V30 5770 N 579.415 0.9433 -1.26252 0
M  V30 5771 C 580.661 1.69175 -1.11837 0
M  V30 5772 C 580.994 1.91238 0.337891 0
M  V30 5773 O 580.269 1.49152 1.24836 0
M  V30 5774 C 580.552 3.06783 -1.88563 0
M  V30 5775 C 580.405 2.9206 -3.42083 0
M  V30 5776 C 581.724 4.06865 -1.67776 0
M  V30 5777 H 578.843 0.61399 -0.407658 0
M  V30 5778 H 581.485 1.09572 -1.55222 0
M  V30 5779 H 579.635 3.57663 -1.51689 0
M  V30 5780 H 581.307 2.48419 -3.88698 0
M  V30 5781 H 579.55 2.27731 -3.69217 0
M  V30 5782 H 580.221 3.89651 -3.90994 0
M  V30 5783 H 582.697 3.64939 -1.99897 0
M  V30 5784 H 581.573 5.01168 -2.23879 0
M  V30 5785 H 581.834 4.37705 -0.621816 0
M  V30 5786 N 580.893 1.08022 1.14757 0
M  V30 5787 C 581.803 0.718292 2.23333 0
M  V30 5788 C 582.819 -0.273477 1.71837 0
M  V30 5789 O 583.995 -0.118406 2.01052 0
M  V30 5790 C 581.06 0.128855 3.4646 0
M  V30 5791 C 580.121 1.17473 4.12915 0
M  V30 5792 C 579.354 0.61333 5.30164 0
M  V30 5793 O 579.577 -0.568458 5.6756 0
M  V30 5794 O 578.511 1.3615 5.86299 0
M  V30 5795 H 582.337 1.62394 2.56636 0
M  V30 5796 H 579.922 0.853628 1.22611 0
M  V30 5797 H 581.804 -0.197249 4.20938 0
M  V30 5798 H 580.479 -0.750014 3.14891 0
M  V30 5799 H 579.386 1.5533 3.40328 0
M  V30 5800 H 580.719 2.02574 4.48581 0
M  V30 5801 N 582.371 -1.3172 0.865308 0
M  V30 5802 C 583.787 -1.4958 0.556596 0
M  V30 5803 C 583.987 -1.79763 -0.910353 0
M  V30 5804 O 583.043 -1.87351 -1.6928 0
M  V30 5805 C 584.356 -2.63277 1.45279 0
M  V30 5806 C 585.904 -2.77161 1.45433 0
M  V30 5807 C 586.379 -3.93949 2.33598 0
M  V30 5808 N 587.87 -4.01228 2.31453 0
M  V30 5809 C 588.605 -4.90855 2.96393 0
M  V30 5810 N 588.101 -5.85416 3.70486 0
M  V30 5811 N 589.894 -4.84063 2.85726 0
M  V30 5812 H 582.045 -1.10396 1.81456 0
M  V30 5813 H 584.308 -0.54507 0.775631 0
M  V30 5814 H 584.014 -2.47734 2.49641 0
M  V30 5815 H 583.888 -3.59309 1.14792 0
M  V30 5816 H 586.275 -2.9212 0.41831 0
M  V30 5817 H 586.356 -1.8181 1.79941 0
M  V30 5818 H 586 -3.79748 3.37274 0
M  V30 5819 H 585.93 -4.88598 1.96417 0
M  V30 5820 H 588.421 -3.3357 1.77593 0
M  V30 5821 H 588.734 -6.50525 4.17178 0
M  V30 5822 H 587.079 -5.85409 3.74594 0
M  V30 5823 H 590.27 -4.09163 2.27384 0
M  V30 5824 H 590.443 -5.53708 3.36617 0
M  V30 5825 N 583.85 -0.624285 -1.44708 0
M  V30 5826 C 584.8 0.106466 -2.27751 0
M  V30 5827 C 585.784 0.822703 -1.38277 0
M  V30 5828 O 586.976 0.709939 -1.62138 0
M  V30 5829 C 584.105 1.092 -3.25469 0
M  V30 5830 C 583.191 0.375737 -4.22432 0
M  V30 5831 N 583.582 -0.591881 -5.02325 0
M  V30 5832 C 581.88 0.621093 -4.41654 0
M  V30 5833 C 582.581 -1.01443 -5.72786 0
M  V30 5834 N 581.557 -0.354651 -5.42442 0
M  V30 5835 H 585.359 -0.636464 -2.86926 0
M  V30 5836 H 582.873 -0.44925 -1.56062 0
M  V30 5837 H 584.87 1.63006 -3.83712 0
M  V30 5838 H 583.529 1.8353 -2.67856 0
M  V30 5839 H 584.541 -0.969389 -5.08747 0
M  V30 5840 H 581.218 1.34779 -3.95147 0
M  V30 5841 H 582.608 -1.81345 -6.46965 0
M  V30 5842 N 585.328 1.53329 -0.364422 0
M  V30 5843 C 586.238 2.29414 0.490552 0
M  V30 5844 C 587.254 1.35335 1.09363 0
M  V30 5845 O 588.43 1.68391 1.10483 0
M  V30 5846 C 585.495 3.06772 1.61529 0
M  V30 5847 C 584.556 4.16516 1.03986 0
M  V30 5848 C 583.789 4.90176 2.111 0
M  V30 5849 O 584.012 4.63687 3.32191 0
M  V30 5850 O 582.946 5.76134 1.74222 0
M  V30 5851 H 586.772 3.03428 -0.12856 0
M  V30 5852 H 584.357 1.48843 -0.128837 0
M  V30 5853 H 586.239 3.55082 2.26924 0
M  V30 5854 H 584.914 2.35596 2.21983 0
M  V30 5855 H 583.821 3.7246 0.349856 0
M  V30 5856 H 585.154 4.89855 0.4799 0
M  V30 5857 N 586.806 0.0935595 1.57322 0
M  V30 5858 C 588.083 -0.612692 1.85756 0
M  V30 5859 C 588.463 -1.86439 0.99013 0
M  V30 5860 O 587.811 -2.28416 0.0621362 0
M  V30 5861 C 588.021 -0.929547 3.36393 0
M  V30 5862 C 589.369 -1.29366 4.04413 0
M  V30 5863 O 590.393 -1.02061 3.41265 0
M  V30 5864 O 589.252 -1.80498 5.15832 0
M  V30 5865 H 586.346 -0.306444 0.768128 0
M  V30 5866 H 588.892 0.126141 1.69231 0
M  V30 5867 H 587.664 -0.0414766 3.91278 0
M  V30 5868 H 587.287 -1.72441 3.5826 0
M  V30 5869 N 588.284 -1.56567 -0.180126 0
M  V30 5870 C 589.533 -1.80685 -0.896426 0
M  V30 5871 C 589.846 -0.669335 -1.83791 0
M  V30 5872 O 591.052 -0.795209 -2.59593 0
M  V30 5873 C 589.508 -3.20132 -1.6445 0
M  V30 5874 C 589.116 -4.41727 -0.747088 0
M  V30 5875 C 590.86 -3.53549 -2.34955 0
M  V30 5876 C 588.767 -5.72195 -1.49489 0
M  V30 5877 H 587.697 -0.673758 -0.338477 0
M  V30 5878 H 590.348 -1.8289 -0.149467 0
M  V30 5879 H 588.73 -3.12218 -2.43589 0
M  V30 5880 H 589.904 -4.608 0.00671129 0
M  V30 5881 H 588.219 -4.16122 -0.152134 0
M  V30 5882 H 590.816 -4.48267 -2.91481 0
M  V30 5883 H 591.159 -2.78006 -3.09868 0
M  V30 5884 H 591.692 -3.62976 -1.62768 0
M  V30 5885 H 588.431 -6.50743 -0.788251 0
M  V30 5886 H 587.951 -5.57115 -2.22224 0
M  V30 5887 H 589.63 -6.1384 -2.04472 0
M  V30 5888 N 589.762 0.448376 -1.51087 0
M  V30 5889 C 590.725 1.52588 -1.71025 0
M  V30 5890 C 591.725 1.49958 -0.580442 0
M  V30 5891 O 592.915 1.52176 -0.847833 0
M  V30 5892 C 590.047 2.92163 -1.75652 0
M  V30 5893 H 591.24 1.36218 -2.67179 0
M  V30 5894 H 588.793 0.676313 -1.4091 0
M  V30 5895 H 589.528 3.13951 -0.812724 0
M  V30 5896 H 589.313 2.95478 -2.57751 0
M  V30 5897 H 590.803 3.70349 -1.92953 0
M  V30 5898 N 591.24 1.41047 0.703093 0
M  V30 5899 C 592.651 1.35657 1.28274 0
M  V30 5900 C 593.002 0.0360309 1.96167 0
M  V30 5901 O 592.127 -0.865833 1.98324 0
M  V30 5902 C 592.722 2.45707 2.33267 0
M  V30 5903 C 591.281 2.43738 2.86825 0
M  V30 5904 C 590.428 2.25941 1.60767 0
M  V30 5905 H 593.379 1.50672 0.49836 0
M  V30 5906 H 593.4 2.14333 3.14391 0
M  V30 5907 H 592.912 3.41805 1.83824 0
M  V30 5908 H 591.013 1.51375 3.40465 0
M  V30 5909 H 591.126 3.39779 3.37768 0
M  V30 5910 H 589.49 1.73681 1.86298 0
M  V30 5911 H 590.273 3.24054 1.1333 0
M  V30 5912 N 592.718 -0.936591 1.26751 0
M  V30 5913 C 593.966 -1.67998 1.12343 0
M  V30 5914 C 594.287 -1.92137 -0.332938 0
M  V30 5915 O 593.557 -1.52132 -1.23421 0
M  V30 5916 H 592.137 -0.622609 0.412756 0
M  V30 5917 H 594.799 -1.12509 1.59147 0
M  V30 5918 H 593.895 -2.65185 1.64571 0
M  V30 5919 N 594.196 -1.08629 -1.14182 0
M  V30 5920 C 595.445 -0.812271 -1.84621 0
M  V30 5921 C 595.758 0.664313 -1.83973 0
M  V30 5922 O 596.964 1.05357 -2.50224 0
M  V30 5923 C 595.42 -1.4031 -3.31423 0
M  V30 5924 C 595.028 -2.91164 -3.40481 0
M  V30 5925 C 596.772 -1.20767 -4.06959 0
M  V30 5926 C 594.679 -3.43373 -4.81507 0
M  V30 5927 H 593.609 -0.30019 -0.691666 0
M  V30 5928 H 596.26 -1.30798 -1.28701 0
M  V30 5929 H 594.642 -0.835096 -3.87094 0
M  V30 5930 H 595.816 -3.5412 -2.94848 0
M  V30 5931 H 594.131 -3.09646 -2.78403 0
M  V30 5932 H 596.728 -1.57237 -5.11058 0
M  V30 5933 H 597.071 -0.147664 -4.16038 0
M  V30 5934 H 597.604 -1.74274 -3.57594 0
M  V30 5935 H 594.343 -4.48958 -4.77616 0
M  V30 5936 H 593.863 -2.85176 -5.27669 0
M  V30 5937 H 595.542 -3.40095 -5.50404 0
M  V30 5938 N 595.674 1.31259 -0.872281 0
M  V30 5939 C 596.637 2.26744 -0.334656 0
M  V30 5940 C 597.637 1.52307 0.515681 0
M  V30 5941 O 598.827 1.71148 0.324656 0
M  V30 5942 C 595.959 3.36841 0.524482 0
M  V30 5943 H 597.152 2.75812 -1.17762 0
M  V30 5944 H 594.705 1.42232 -0.648064 0
M  V30 5945 H 595.44 2.93069 1.38855 0
M  V30 5946 H 595.225 3.92009 -0.0844299 0
M  V30 5947 H 596.715 4.07944 0.892838 0
M  V30 5948 N 597.152 0.631951 1.44375 0
M  V30 5949 C 598.568 0.297642 1.568 0
M  V30 5950 C 598.768 -1.19916 1.61934 0
M  V30 5951 O 597.824 -1.98324 1.56281 0
M  V30 5952 C 599.137 0.990286 2.83926 0
M  V30 5953 C 600.685 0.968507 2.97639 0
M  V30 5954 C 601.16 1.64163 4.27568 0
M  V30 5955 N 602.651 1.60826 4.34384 0
M  V30 5956 C 603.386 2.09802 5.33639 0
M  V30 5957 N 602.882 2.66973 6.39294 0
M  V30 5958 N 604.675 2.00426 5.25153 0
M  V30 5959 H 596.826 1.60353 1.39286 0
M  V30 5960 H 599.089 0.673142 0.667521 0
M  V30 5961 H 598.795 2.04519 2.8612 0
M  V30 5962 H 598.669 0.528563 3.73478 0
M  V30 5963 H 601.056 -0.0779247 2.94997 0
M  V30 5964 H 601.137 1.46873 2.09433 0
M  V30 5965 H 600.781 2.68752 4.3097 0
M  V30 5966 H 600.711 1.11624 5.14634 0
M  V30 5967 H 603.202 1.19087 3.58646 0
M  V30 5968 H 603.515 3.02074 7.11316 0
M  V30 5969 H 601.86 2.71024 6.39977 0
M  V30 5970 H 605.051 1.55483 4.41523 0
M  V30 5971 H 605.224 2.38906 6.02352 0
M  V30 5972 N 598.631 -1.53133 0.372548 0
M  V30 5973 C 599.908 -1.93704 -0.271693 0
M  V30 5974 C 600.288 -1.30667 -1.65799 0
M  V30 5975 O 599.636 -0.46838 -2.23648 0
M  V30 5976 C 599.846 -3.47576 -0.314903 0
M  V30 5977 C 601.194 -4.20998 -0.551912 0
M  V30 5978 O 602.218 -3.53994 -0.39582 0
M  V30 5979 O 601.077 -5.39748 -0.85639 0
M  V30 5980 H 598.171 -0.810457 -0.164586 0
M  V30 5981 H 600.717 -1.6427 0.425838 0
M  V30 5982 H 599.489 -3.85749 0.656792 0
M  V30 5983 H 599.112 -3.83264 -1.05804 0
M  V30 5984 O 600.148 -0.242051 -1.59676 0
M  V30 5985 H 600.839 0.334494 -1.9079 0
M  V30 END ATOM
M  V30 BEGIN BOND
M  V30 END BOND
M  V30 END CTAB
M  END
$$$$
