drugbank_target|P06744 Glucose-6-phosphate isomerase (DB02007; DB02076; DB02093; DB02548; DB03042; DB03581; DB03937; DB04493; DB09130; DB11638)
 OpenBabel12092119493D

  0  0  0     0  0            999 V3000
M  V30 BEGIN CTAB
M  V30 COUNTS 8867 8975 0 0 0
M  V30 BEGIN ATOM
M  V30 1 H -0.908 1.98254 -0.117106 0
M  V30 2 N 0 1.576 0 0
M  V30 3 C 0.933 2.03868 1.02534 0
M  V30 4 C 1.911 0.928543 1.3348 0
M  V30 5 O 3.095 1.19667 1.45644 0
M  V30 6 C 0.222 2.43627 2.35294 0
M  V30 7 C -0.732 3.65373 2.2001 0
M  V30 8 S 0.101 5.13292 1.52614 0
M  V30 9 C 1.257 5.56322 2.86805 0
M  V30 10 H 1.49 2.90518 0.631377 0
M  V30 11 H -0.977 1.52953 0.210867 0
M  V30 12 H 0.981 2.67203 3.11629 0
M  V30 13 H -0.358 1.57376 2.7183 0
M  V30 14 H -1.165 3.90944 3.18086 0
M  V30 15 H -1.563 3.418 1.51819 0
M  V30 16 H 0.729 5.58782 3.83104 0
M  V30 17 H 1.672 6.56266 2.65933 0
M  V30 18 H 2.08 4.83886 2.90714 0
M  V30 19 N 1.4781 -0.272755 1.55222 0
M  V30 20 C 2.4411 -1.32041 1.87344 0
M  V30 21 C 3.4411 -1.42342 0.74803 0
M  V30 22 O 4.6311 -1.41488 1.0162 0
M  V30 23 C 1.7631 -2.70173 2.07893 0
M  V30 24 H 2.9561 -1.04789 2.80997 0
M  V30 25 H 0.5091 -0.51083 1.47717 0
M  V30 26 H 1.2441 -3.02605 1.16622 0
M  V30 27 H 1.0291 -2.64082 2.89833 0
M  V30 28 H 2.5191 -3.45869 2.34017 0
M  V30 29 N 2.9562 -1.48159 -0.537278 0
M  V30 30 C 3.9192 -1.61665 -1.62472 0
M  V30 31 C 4.9192 -0.490395 -1.5314 0
M  V30 32 O 6.1092 -0.755998 -1.5694 0
M  V30 33 C 3.2412 -1.57997 -3.02076 0
M  V30 34 H 4.4342 -2.58621 -1.51839 0
M  V30 35 H 1.9872 -1.36647 -0.758771 0
M  V30 36 H 2.7222 -0.624913 -3.18222 0
M  V30 37 H 2.5072 -2.39755 -3.10258 0
M  V30 38 H 3.9972 -1.70627 -3.81151 0
M  V30 39 N 4.4343 0.785586 -1.36625 0
M  V30 40 C 5.3643 1.91259 -1.33949 0
M  V30 41 C 6.3453 1.68795 -0.210325 0
M  V30 42 O 7.5303 1.89854 -0.408561 0
M  V30 43 C 4.6603 3.28339 -1.13186 0
M  V30 44 C 3.6143 3.65335 -2.22967 0
M  V30 45 C 2.9403 5.00806 -1.87342 0
M  V30 46 C 4.2403 3.7352 -3.65075 0
M  V30 47 H 5.9343 1.93755 -2.28253 0
M  V30 48 H 3.4803 0.930788 -1.09874 0
M  V30 49 H 5.4333 4.06804 -1.09948 0
M  V30 50 H 4.1573 3.2624 -0.153332 0
M  V30 51 H 2.8163 2.89169 -2.25337 0
M  V30 52 H 2.4643 4.95233 -0.880545 0
M  V30 53 H 2.1643 5.26529 -2.60846 0
M  V30 54 H 3.6883 5.81687 -1.85667 0
M  V30 55 H 5.1023 4.42168 -3.64911 0
M  V30 56 H 3.4993 4.10731 -4.37516 0
M  V30 57 H 4.5693 2.74527 -3.99703 0
M  V30 58 N 5.9124 1.20967 1.01018 0
M  V30 59 C 7.1404 1.04956 1.78303 0
M  V30 60 C 7.5554 -0.400915 1.84494 0
M  V30 61 O 6.9124 -1.27826 1.30257 0
M  V30 62 C 6.9634 1.63403 3.22462 0
M  V30 63 O 6.6844 3.02775 3.16637 0
M  V30 64 C 8.1854 1.52432 4.16268 0
M  V30 65 H 5.4054 0.368858 0.560522 0
M  V30 66 H 7.9494 1.60193 1.27116 0
M  V30 67 H 6.1044 1.1227 3.70775 0
M  V30 68 H 6.5184 3.30626 4.07169 0
M  V30 69 H 7.9924 1.98078 5.15237 0
M  V30 70 H 8.4694 0.477875 4.36592 0
M  V30 71 H 9.0754 2.02787 3.73841 0
M  V30 72 N 7.3905 -1.2043 1.01659 0
M  V30 73 C 8.8065 -1.41852 0.731442 0
M  V30 74 C 9.0065 -1.89358 -0.688898 0
M  V30 75 O 8.0625 -2.06247 -1.45666 0
M  V30 76 C 9.3755 -2.44019 1.75714 0
M  V30 77 C 10.9235 -2.57785 1.77527 0
M  V30 78 C 11.3985 -3.63194 2.79023 0
M  V30 79 N 12.8895 -3.70678 2.77763 0
M  V30 80 C 13.6245 -4.51897 3.52954 0
M  V30 81 N 13.1205 -5.36921 4.37821 0
M  V30 82 N 14.9135 -4.4643 3.41551 0
M  V30 83 H 7.0645 -0.879093 1.93354 0
M  V30 84 H 9.3275 -0.448425 0.835236 0
M  V30 85 H 9.0335 -2.1611 2.77469 0
M  V30 86 H 8.9075 -3.43007 1.56927 0
M  V30 87 H 11.2945 -2.85023 0.764569 0
M  V30 88 H 11.3755 -1.58992 2.00387 0
M  V30 89 H 11.0195 -3.36699 3.80258 0
M  V30 90 H 10.9495 -4.61609 2.53425 0
M  V30 91 H 13.4405 -3.09944 2.16201 0
M  V30 92 H 13.7535 -5.95981 4.91962 0
M  V30 93 H 12.0985 -5.36424 4.41899 0
M  V30 94 H 15.2895 -3.79042 2.74672 0
M  V30 95 H 15.4625 -5.09491 4.00404 0
M  V30 96 N 8.8686 -0.792821 -1.36206 0
M  V30 97 C 10.1456 -0.290627 -1.93429 0
M  V30 98 C 10.5256 1.21773 -1.72437 0
M  V30 99 O 9.8736 2.0108 -1.08531 0
M  V30 100 C 10.0836 -0.686973 -3.42172 0
M  V30 101 C 11.4316 -0.668643 -4.19302 0
M  V30 102 O 12.4556 -0.627658 -3.50626 0
M  V30 103 O 11.3146 -0.714597 -5.41808 0
M  V30 104 H 8.4086 -0.0727927 -0.82379 0
M  V30 105 H 10.9546 -0.875593 -1.45367 0
M  V30 106 H 9.7266 -1.72711 -3.51122 0
M  V30 107 H 9.3496 -0.0760733 -3.97527 0
M  V30 108 N 10.3467 1.47872 -0.545128 0
M  V30 109 C 11.7577 1.86384 -0.108581 0
M  V30 110 C 12.1087 1.45309 1.31832 0
M  V30 111 O 11.2337 0.850641 1.9898 0
M  V30 112 C 11.8287 3.38265 -0.190274 0
M  V30 113 C 10.3877 3.75914 0.191164 0
M  V30 114 C 9.5347 2.71926 -0.543273 0
M  V30 115 H 12.4857 1.39561 -0.755537 0
M  V30 116 H 12.5067 3.75831 0.594217 0
M  V30 117 H 12.0187 3.6813 -1.2289 0
M  V30 118 H 10.1197 3.51665 1.23136 0
M  V30 119 H 10.2327 4.78836 -0.158987 0
M  V30 120 H 8.5967 2.54697 0.0122495 0
M  V30 121 H 9.3797 3.04634 -1.58282 0
M  V30 122 N 11.8248 0.280983 1.55075 0
M  V30 123 C 12.7568 -0.637268 2.20163 0
M  V30 124 C 13.7698 -1.11298 1.18813 0
M  V30 125 O 14.9588 -1.03388 1.4551 0
M  V30 126 C 12.0588 -1.88199 2.81841 0
M  V30 127 C 11.2318 -1.55211 4.08936 0
M  V30 128 C 10.2908 -2.64991 4.54606 0
M  V30 129 O 9.3168 -2.30929 5.2025 0
M  V30 130 N 10.5188 -3.95161 4.25238 0
M  V30 131 H 13.2838 -0.0801694 2.99593 0
M  V30 132 H 10.8448 0.102329 1.61576 0
M  V30 133 H 12.8368 -2.60948 3.09335 0
M  V30 134 H 11.4068 -2.34799 2.06369 0
M  V30 135 H 10.6268 -0.658185 3.88666 0
M  V30 136 H 11.9148 -1.30681 4.91732 0
M  V30 137 H 11.3128 -4.25653 3.72607 0
M  V30 138 H 9.8698 -4.6427 4.5749 0
M  V30 139 N 13.3029 -1.57598 0.00835791 0
M  V30 140 C 14.5499 -1.90928 -0.674732 0
M  V30 141 C 14.8779 -0.88277 -1.73313 0
M  V30 142 O 14.1329 0.111294 -1.95383 0
M  V30 143 C 14.4319 -3.3101 -1.34787 0
M  V30 144 C 14.0979 -4.48922 -0.421861 0
M  V30 145 C 12.7599 -4.8091 -0.166927 0
M  V30 146 C 15.1119 -5.20755 0.215211 0
M  V30 147 C 12.4399 -5.821 0.733232 0
M  V30 148 C 14.7919 -6.22905 1.1033 0
M  V30 149 C 13.4559 -6.53346 1.36733 0
M  V30 150 H 12.7259 -0.698656 -0.246902 0
M  V30 151 H 15.3729 -1.91387 0.0656779 0
M  V30 152 H 13.6779 -3.26714 -2.16253 0
M  V30 153 H 15.3749 -3.54061 -1.8826 0
M  V30 154 H 11.9649 -4.23934 -0.630729 0
M  V30 155 H 16.1489 -4.9629 0.0312829 0
M  V30 156 H 11.4049 -6.04042 0.945712 0
M  V30 157 H 15.5789 -6.77694 1.60325 0
M  V30 158 H 13.2059 -7.31573 2.06652 0
M  V30 159 N 14.781 0.264519 -1.55364 0
M  V30 160 C 15.713 1.34965 -1.85248 0
M  V30 161 C 16.726 1.45136 -0.737525 0
M  V30 162 O 17.915 1.46801 -1.01547 0
M  V30 163 C 15.015 2.73008 -2.00797 0
M  V30 164 C 14.188 2.85324 -3.31525 0
M  V30 165 C 13.247 4.04097 -3.37034 0
M  V30 166 O 12.273 3.94455 -4.10358 0
M  V30 167 N 13.475 5.16458 -2.65049 0
M  V30 168 H 16.24 1.09672 -2.78913 0
M  V30 169 H 13.801 0.454635 -1.55386 0
M  V30 170 H 15.793 3.50772 -2.01844 0
M  V30 171 H 14.363 2.91087 -1.1396 0
M  V30 172 H 13.583 1.94377 -3.42945 0
M  V30 173 H 14.871 2.9049 -4.17724 0
M  V30 174 H 14.269 5.27181 -2.05175 0
M  V30 175 H 12.826 5.92422 -2.71809 0
M  V30 176 N 16.2591 1.48442 0.529413 0
M  V30 177 C 17.2061 1.63007 1.63394 0
M  V30 178 C 18.1761 0.47212 1.59249 0
M  V30 179 O 19.3611 0.695673 1.77666 0
M  V30 180 C 16.5011 1.6763 3.01653 0
M  V30 181 C 15.6141 2.94535 3.16027 0
M  V30 182 C 14.7491 2.90316 4.44849 0
M  V30 183 C 13.7881 4.11923 4.52754 0
M  V30 184 N 12.9251 4.05777 5.72965 0
M  V30 185 H 17.7651 2.5733 1.50285 0
M  V30 186 H 15.3021 1.27613 0.731656 0
M  V30 187 H 17.2601 1.68292 3.81751 0
M  V30 188 H 15.8901 0.76797 3.13532 0
M  V30 189 H 14.9421 3.03615 2.29177 0
M  V30 190 H 16.2541 3.84512 3.17729 0
M  V30 191 H 15.4081 2.89382 5.33238 0
M  V30 192 H 14.1471 1.98068 4.45668 0
M  V30 193 H 13.1521 4.13131 3.62771 0
M  V30 194 H 14.3771 5.0533 4.53672 0
M  V30 195 H 12.3231 3.16351 5.74681 0
M  V30 196 H 12.2401 4.8946 5.76164 0
M  V30 197 H 13.5081 4.08904 6.6364 0
M  V30 198 N 17.7372 -0.778329 1.37039 0
M  V30 199 C 18.6672 -1.90546 1.34962 0
M  V30 200 C 19.6482 -1.68681 0.219274 0
M  V30 201 O 20.8332 -1.89634 0.418624 0
M  V30 202 C 17.9632 -3.27734 1.14925 0
M  V30 203 C 16.9172 -3.64147 2.24902 0
M  V30 204 C 16.2432 -4.99806 1.89996 0
M  V30 205 C 17.5432 -3.71579 3.67051 0
M  V30 206 H 19.2372 -1.92541 2.29277 0
M  V30 207 H 16.7832 -0.924948 1.10366 0
M  V30 208 H 18.7362 -4.06215 1.12104 0
M  V30 209 H 17.4602 -3.26154 0.170631 0
M  V30 210 H 16.1192 -2.8797 2.26868 0
M  V30 211 H 15.7672 -4.94759 0.906796 0
M  V30 212 H 15.4672 -5.25139 2.63634 0
M  V30 213 H 16.9912 -5.80694 1.88749 0
M  V30 214 H 18.4052 -4.40227 3.67251 0
M  V30 215 H 16.8022 -4.08405 4.39688 0
M  V30 216 H 17.8722 -2.72404 4.01154 0
M  V30 217 N 19.2153 -1.21501 -1.00376 0
M  V30 218 C 20.1473 -0.933174 -2.09343 0
M  V30 219 C 21.1603 0.0840896 -1.62583 0
M  V30 220 O 22.3493 -0.148563 -1.77881 0
M  V30 221 C 19.4493 -0.379869 -3.36764 0
M  V30 222 C 18.6223 -1.45176 -4.12605 0
M  V30 223 C 17.6813 -0.907476 -5.18316 0
M  V30 224 O 16.7073 -1.5912 -5.46507 0
M  V30 225 N 17.9093 0.276649 -5.7984 0
M  V30 226 H 20.6743 -1.87124 -2.34104 0
M  V30 227 H 18.2353 -1.12043 -1.16867 0
M  V30 228 H 20.2273 -0.00131488 -4.047 0
M  V30 229 H 18.7973 0.463048 -3.09151 0
M  V30 230 H 18.0173 -2.00411 -3.39454 0
M  V30 231 H 19.3053 -2.17328 -4.6005 0
M  V30 232 H 18.7033 0.849147 -5.59291 0
M  V30 233 H 17.2603 0.596702 -6.49063 0
M  V30 234 N 20.6934 1.19889 -1.02296 0
M  V30 235 C 21.6254 2.22334 -0.556787 0
M  V30 236 C 22.6384 1.58674 0.364199 0
M  V30 237 O 23.8274 1.77768 0.161533 0
M  V30 238 C 20.9274 3.38257 0.208694 0
M  V30 239 C 20.1004 4.31504 -0.71577 0
M  V30 240 C 19.1594 5.262 0.00325597 0
M  V30 241 O 18.1854 5.65798 -0.621357 0
M  V30 242 N 19.3874 5.66303 1.27599 0
M  V30 243 H 22.1524 2.62957 -1.43784 0
M  V30 244 H 19.7134 1.34495 -0.901261 0
M  V30 245 H 21.7054 3.98616 0.699111 0
M  V30 246 H 20.2754 2.96472 0.991102 0
M  V30 247 H 19.4954 3.69016 -1.38638 0
M  V30 248 H 20.7834 4.9072 -1.34428 0
M  V30 249 H 20.1814 5.36155 1.80429 0
M  V30 250 H 18.7384 6.28942 1.71102 0
M  V30 251 N 22.1715 0.800033 1.35784 0
M  V30 252 C 23.4175 0.38701 1.99684 0
M  V30 253 C 23.7725 -1.03268 1.62338 0
M  V30 254 O 23.0655 -1.70543 0.87325 0
M  V30 255 C 23.2595 0.500276 3.53881 0
M  V30 256 C 23.0885 1.92942 4.06206 0
M  V30 257 C 21.8585 2.55637 4.35865 0
M  V30 258 C 24.0565 2.89307 4.25213 0
M  V30 259 N 22.0385 3.9003 4.74078 0
M  V30 260 C 23.4095 4.08556 4.66349 0
M  V30 261 C 25.4645 2.86225 4.07406 0
M  V30 262 C 24.1675 5.25146 4.91543 0
M  V30 263 C 26.1935 4.02011 4.33752 0
M  V30 264 C 25.5555 5.20007 4.75155 0
M  V30 265 H 21.6545 0.189252 0.758754 0
M  V30 266 H 24.2385 1.03988 1.64604 0
M  V30 267 H 22.4095 -0.122568 3.88207 0
M  V30 268 H 24.1415 0.0624733 4.04652 0
M  V30 269 H 20.8965 2.07039 4.25948 0
M  V30 270 H 21.3205 4.59205 4.97454 0
M  V30 271 H 25.9625 1.96154 3.74544 0
M  V30 272 H 23.6805 6.15794 5.23281 0
M  V30 273 H 27.2665 4.00999 4.21534 0
M  V30 274 H 26.1465 6.08113 4.95145 0
M  V30 275 N 23.6496 -1.47581 0.552962 0
M  V30 276 C 24.8796 -2.06575 0.0320091 0
M  V30 277 C 25.2876 -1.4067 -1.26525 0
M  V30 278 O 24.6306 -0.495808 -1.76883 0
M  V30 279 C 24.6926 -3.58705 -0.238913 0
M  V30 280 C 24.3566 -4.46625 0.968272 0
M  V30 281 C 25.3536 -4.85 1.87274 0
M  V30 282 C 23.0386 -4.88201 1.18175 0
M  V30 283 C 25.0326 -5.63745 2.9744 0
M  V30 284 C 22.7196 -5.66712 2.28651 0
M  V30 285 C 23.7176 -6.04394 3.18114 0
M  V30 286 O 23.4056 -6.81324 4.26676 0
M  V30 287 H 23.1376 -0.674763 0.0408689 0
M  V30 288 H 25.6916 -1.90634 0.764719 0
M  V30 289 H 23.9216 -3.72844 -1.02588 0
M  V30 290 H 25.6106 -3.99735 -0.704731 0
M  V30 291 H 26.3766 -4.53482 1.71984 0
M  V30 292 H 22.2556 -4.58339 0.494593 0
M  V30 293 H 25.7996 -5.93077 3.67296 0
M  V30 294 H 21.6966 -5.97642 2.43915 0
M  V30 295 H 22.4646 -6.99712 4.24671 0
M  V30 296 N 25.1277 -0.289203 -1.54924 0
M  V30 297 C 26.5437 0.0645403 -1.59469 0
M  V30 298 C 26.7437 1.53419 -1.30632 0
M  V30 299 O 25.7997 2.2852 -1.074 0
M  V30 300 C 27.1127 -0.32278 -2.98963 0
M  V30 301 C 28.6607 -0.270564 -3.11828 0
M  V30 302 C 29.1357 -0.632532 -4.53611 0
M  V30 303 N 30.6267 -0.584617 -4.59496 0
M  V30 304 C 31.3617 -0.837314 -5.67254 0
M  V30 305 N 30.8577 -1.15536 -6.83098 0
M  V30 306 N 32.6507 -0.765166 -5.56868 0
M  V30 307 H 24.8017 -1.24714 -1.71931 0
M  V30 308 H 27.0647 -0.504809 -0.802416 0
M  V30 309 H 26.7707 -1.34541 -3.24948 0
M  V30 310 H 26.6447 0.32944 -3.75759 0
M  V30 311 H 29.0317 0.742805 -2.85598 0
M  V30 312 H 29.1127 -0.957242 -2.37214 0
M  V30 313 H 28.7567 -1.64365 -4.80569 0
M  V30 314 H 28.6867 0.07609 -5.26545 0
M  V30 315 H 31.1777 -0.349248 -3.76283 0
M  V30 316 H 31.4907 -1.33447 -7.61191 0
M  V30 317 H 29.8357 -1.19328 -6.84679 0
M  V30 318 H 33.0267 -0.516432 -4.65243 0
M  V30 319 H 33.1997 -0.965477 -6.40767 0
M  V30 320 N 26.6058 1.57591 -0.0167156 0
M  V30 321 C 27.5158 2.1291 0.98521 0
M  V30 322 C 28.5318 1.07834 1.36557 0
M  V30 323 O 29.7078 1.39826 1.44951 0
M  V30 324 C 26.7728 2.63512 2.25305 0
M  V30 325 C 25.8338 3.83256 1.93426 0
M  V30 326 C 25.0668 4.31435 3.14165 0
M  V30 327 O 25.2898 3.78851 4.26413 0
M  V30 328 O 24.2238 5.23416 2.97186 0
M  V30 329 H 28.0498 2.98772 0.544888 0
M  V30 330 H 25.6348 1.48012 0.203141 0
M  V30 331 H 27.5168 2.96183 2.99756 0
M  V30 332 H 26.1918 1.8074 2.68542 0
M  V30 333 H 25.0988 3.55531 1.16398 0
M  V30 334 H 26.4318 4.67153 1.55013 0
M  V30 335 N 28.0839 -0.256276 1.55502 0
M  V30 336 C 29.0339 -1.31981 1.85916 0
M  V30 337 C 30.0179 -1.43927 0.719296 0
M  V30 338 O 31.2099 -1.47326 0.981019 0
M  V30 339 C 28.3389 -2.67703 2.14918 0
M  V30 340 C 27.4249 -2.59801 3.35208 0
M  V30 341 N 27.8159 -2.21524 4.54709 0
M  V30 342 C 26.1139 -2.90832 3.38131 0
M  V30 343 C 26.8149 -2.24024 5.36832 0
M  V30 344 N 25.7909 -2.63158 4.75656 0
M  V30 345 H 29.5929 -1.01423 2.75845 0
M  V30 346 H 27.1069 -0.464911 1.55603 0
M  V30 347 H 29.1039 -3.44445 2.34869 0
M  V30 348 H 27.7639 -2.99137 1.26282 0
M  V30 349 H 28.7749 -1.93223 4.80505 0
M  V30 350 H 25.4519 -3.26867 2.59739 0
M  V30 351 H 26.8419 -1.9685 6.42417 0
M  V30 352 N 29.562 -1.4872 -0.521534 0
M  V30 353 C 30.978 -1.35028 -0.850855 0
M  V30 354 C 31.178 -0.367712 -1.98116 0
M  V30 355 O 30.234 0.208037 -2.51642 0
M  V30 356 C 31.547 -2.75263 -1.21041 0
M  V30 357 C 33.095 -2.83813 -1.31981 0
M  V30 358 C 33.57 -4.24769 -1.71276 0
M  V30 359 N 35.061 -4.27482 -1.78363 0
M  V30 360 C 35.796 -5.33494 -2.1017 0
M  V30 361 N 35.292 -6.49775 -2.40343 0
M  V30 362 N 37.085 -5.20894 -2.11248 0
M  V30 363 H 29.236 -2.11214 0.22413 0
M  V30 364 H 31.499 -0.947252 0.0376439 0
M  V30 365 H 31.205 -3.48765 -0.453415 0
M  V30 366 H 31.079 -3.09327 -2.15863 0
M  V30 367 H 33.466 -2.10561 -2.06756 0
M  V30 368 H 33.547 -2.53358 -0.352596 0
M  V30 369 H 33.191 -4.9854 -0.970588 0
M  V30 370 H 33.121 -4.52673 -2.69062 0
M  V30 371 H 35.612 -3.43611 -1.57288 0
M  V30 372 H 35.925 -7.26402 -2.63743 0
M  V30 373 H 34.27 -6.53035 -2.37844 0
M  V30 374 H 37.461 -4.29065 -1.87139 0
M  V30 375 H 37.634 -6.03612 -2.35704 0
M  V30 376 N 31.0401 0.771051 -1.3745 0
M  V30 377 C 32.2651 1.56529 -1.36065 0
M  V30 378 C 32.6901 1.88029 0.0515859 0
M  V30 379 O 32.0481 1.49282 1.02882 0
M  V30 380 C 32.0961 2.85187 -2.20683 0
M  V30 381 O 31.2001 3.79593 -1.61193 0
M  V30 382 H 30.5411 0.47411 -0.464883 0
M  V30 383 H 33.0711 0.954269 -1.80983 0
M  V30 384 H 33.0811 3.34283 -2.33921 0
M  V30 385 H 31.7561 2.61588 -3.23334 0
M  V30 386 H 30.3331 3.38239 -1.56999 0
M  V30 387 N 32.5182 1.22032 0.997298 0
M  V30 388 C 33.4282 1.00271 2.12092 0
M  V30 389 C 34.4442 -0.047621 1.73935 0
M  V30 390 O 35.6202 0.144136 2.00884 0
M  V30 391 C 32.6852 0.578449 3.4184 0
M  V30 392 C 31.7462 1.70189 3.94125 0
M  V30 393 C 30.9792 1.29778 5.17681 0
M  V30 394 O 31.2022 0.174676 5.70132 0
M  V30 395 O 30.1362 2.11261 5.63607 0
M  V30 396 H 33.9622 1.94398 2.3333 0
M  V30 397 H 31.5472 1.00587 1.10465 0
M  V30 398 H 33.4292 0.351998 4.19927 0
M  V30 399 H 32.1042 -0.334019 3.21972 0
M  V30 400 H 31.0112 1.98282 3.1723 0
M  V30 401 H 32.3442 2.59206 4.18417 0
M  V30 402 N 33.9963 -1.19345 1.0293 0
M  V30 403 C 34.9263 -2.2481 0.631105 0
M  V30 404 C 35.9073 -1.66245 -0.360104 0
M  V30 405 O 37.0923 -1.92677 -0.242726 0
M  V30 406 C 34.2223 -3.47295 -0.0184607 0
M  V30 407 C 33.1763 -4.18536 0.895073 0
M  V30 408 C 32.5023 -5.34586 0.110592 0
M  V30 409 C 33.8023 -4.73287 2.209 0
M  V30 410 H 35.4963 -2.58372 1.51275 0
M  V30 411 H 33.0423 -1.24194 0.728818 0
M  V30 412 H 34.9953 -4.20268 -0.308675 0
M  V30 413 H 33.7193 -3.12933 -0.934907 0
M  V30 414 H 32.3783 -3.47446 1.16949 0
M  V30 415 H 32.0263 -4.96469 -0.807902 0
M  V30 416 H 31.7263 -5.83183 0.719087 0
M  V30 417 H 33.2503 -6.10355 -0.172871 0
M  V30 418 H 34.6643 -5.38013 1.98028 0
M  V30 419 H 33.0613 -5.32373 2.76946 0
M  V30 420 H 34.1313 -3.91331 2.86336 0
M  V30 421 N 35.4744 -0.807222 -1.35358 0
M  V30 422 C 36.4224 -0.20614 -2.31685 0
M  V30 423 C 37.4164 0.644445 -1.56663 0
M  V30 424 O 38.6224 0.537538 -1.71786 0
M  V30 425 H 34.9974 -0.0479006 -0.750473 0
M  V30 426 H 36.9684 -1.03369 -2.79924 0
M  V30 427 C 35.7174 0.630212 -3.41941 0
M  V30 428 H 35.0404 -0.0149558 -3.99797 0
M  V30 429 H 36.4804 1.01716 -4.11619 0
M  V30 430 C 34.9394 1.79601 -2.85035 0
M  V30 431 O 35.4694 2.89351 -2.78637 0
M  V30 432 N 33.6754 1.60774 -2.42074 0
M  V30 433 H 33.2224 0.715009 -2.47478 0
M  V30 434 H 33.1804 2.38933 -2.04349 0
M  V30 435 N 36.9525 1.47285 -0.560781 0
M  V30 436 C 37.8825 2.32857 0.173105 0
M  V30 437 C 38.8635 1.44009 0.905281 0
M  V30 438 O 40.0485 1.7286 0.885046 0
M  V30 439 C 37.1785 3.25861 1.20133 0
M  V30 440 C 36.1325 4.23978 0.585388 0
M  V30 441 C 35.4585 5.06332 1.7185 0
M  V30 442 C 36.7585 5.20242 -0.463178 0
M  V30 443 H 38.4525 2.94466 -0.541307 0
M  V30 444 H 35.9985 1.41601 -0.261764 0
M  V30 445 H 37.9515 3.84569 1.72293 0
M  V30 446 H 36.6755 2.62315 1.94573 0
M  V30 447 H 35.3345 3.66501 0.085054 0
M  V30 448 H 34.9825 4.39186 2.45203 0
M  V30 449 H 34.6825 5.72762 1.31213 0
M  V30 450 H 36.2065 5.67899 2.24329 0
M  V30 451 H 37.6205 5.73293 -0.027502 0
M  V30 452 H 36.0175 5.94896 -0.788627 0
M  V30 453 H 37.0875 4.65504 -1.35773 0
M  V30 454 N 38.4306 0.297415 1.54768 0
M  V30 455 C 39.8466 -0.0560823 1.59501 0
M  V30 456 C 40.0466 -1.52725 1.31444 0
M  V30 457 O 39.1026 -2.27947 1.08611 0
M  V30 458 C 40.4156 0.338631 2.98787 0
M  V30 459 C 41.9636 0.287097 3.11681 0
M  V30 460 C 42.4386 0.656579 4.53269 0
M  V30 461 N 43.9296 0.608977 4.59179 0
M  V30 462 C 44.6646 0.867385 5.66802 0
M  V30 463 N 44.1606 1.19157 6.82476 0
M  V30 464 N 45.9536 0.794687 5.56454 0
M  V30 465 H 38.1046 1.25624 1.71267 0
M  V30 466 H 40.3676 0.509057 0.799728 0
M  V30 467 H 40.0736 1.36263 3.2423 0
M  V30 468 H 39.9476 -0.309508 3.75928 0
M  V30 469 H 42.3346 -0.727649 2.85988 0
M  V30 470 H 42.4156 0.969809 2.36703 0
M  V30 471 H 42.0596 1.66912 4.7969 0
M  V30 472 H 41.9896 -0.0481649 5.26578 0
M  V30 473 H 44.4806 0.369198 3.76092 0
M  V30 474 H 44.7936 1.37482 7.60473 0
M  V30 475 H 43.1386 1.22958 6.84037 0
M  V30 476 H 46.3296 0.541098 4.64962 0
M  V30 477 H 46.5026 0.999445 6.40246 0
M  V30 478 N 39.9087 -1.5758 0.0250728 0
M  V30 479 C 41.3247 -1.56124 -0.331282 0
M  V30 480 C 41.5247 -1.03029 -1.73169 0
M  V30 481 O 40.5807 -0.675215 -2.43305 0
M  V30 482 C 41.8937 -3.00139 -0.183584 0
M  V30 483 C 43.4417 -3.11946 -0.256654 0
M  V30 484 C 43.9167 -4.57793 -0.137792 0
M  V30 485 N 45.4077 -4.6279 -0.194904 0
M  V30 486 C 46.1427 -5.7326 -0.126655 0
M  V30 487 N 45.6387 -6.928 -0.00755288 0
M  V30 488 N 47.4317 -5.61811 -0.180348 0
M  V30 489 H 39.5827 -1.90424 0.94087 0
M  V30 490 H 41.8457 -0.875761 0.362968 0
M  V30 491 H 41.5517 -3.4292 0.780927 0
M  V30 492 H 41.4257 -3.64899 -0.955448 0
M  V30 493 H 43.8127 -2.69079 -1.21162 0
M  V30 494 H 43.8937 -2.49915 0.545517 0
M  V30 495 H 43.5377 -5.01339 0.813739 0
M  V30 496 H 43.4677 -5.17798 -0.958775 0
M  V30 497 H 45.9587 -3.76807 -0.287267 0
M  V30 498 H 46.2717 -7.72791 0.0379428 0
M  V30 499 H 44.6167 -6.94995 0.0271731 0
M  V30 500 H 47.8077 -4.6731 -0.271767 0
M  V30 501 H 47.9807 -6.47882 -0.123697 0
M  V30 502 N 41.3868 0.248026 -1.55636 0
M  V30 503 C 42.3168 1.31079 -1.93237 0
M  V30 504 C 43.2978 1.50264 -0.797174 0
M  V30 505 O 44.4828 1.62891 -1.05737 0
M  V30 506 C 41.6128 2.66575 -2.22609 0
M  V30 507 C 40.5668 2.62087 -3.3837 0
M  V30 508 C 39.8928 4.01369 -3.53281 0
M  V30 509 C 41.1928 2.19171 -4.7409 0
M  V30 510 H 42.8868 0.998556 -2.82257 0
M  V30 511 H 40.4328 0.47891 -1.35803 0
M  V30 512 H 42.3858 3.41057 -2.47503 0
M  V30 513 H 41.1098 2.99432 -1.30414 0
M  V30 514 H 39.7688 1.90063 -3.13483 0
M  V30 515 H 39.4168 4.31489 -2.58508 0
M  V30 516 H 39.1168 3.99254 -4.31127 0
M  V30 517 H 40.6408 4.77552 -3.80495 0
M  V30 518 H 42.0548 2.83384 -4.98363 0
M  V30 519 H 40.4518 2.2817 -5.5503 0
M  V30 520 H 41.5218 1.14336 -4.71227 0
M  V30 521 N 42.8649 1.48995 0.513639 0
M  V30 522 C 44.1119 1.57843 1.26854 0
M  V30 523 C 44.4399 0.259501 1.92761 0
M  V30 524 O 43.6949 -0.75159 1.80692 0
M  V30 525 C 43.9939 2.67756 2.36731 0
M  V30 526 C 43.6599 4.09669 1.88368 0
M  V30 527 C 42.3219 4.48291 1.74896 0
M  V30 528 C 44.6739 4.98537 1.52021 0
M  V30 529 C 42.0019 5.73568 1.23438 0
M  V30 530 C 44.3539 6.24319 1.0202 0
M  V30 531 C 43.0179 6.61783 0.871778 0
M  V30 532 H 42.2879 0.577587 0.464192 0
M  V30 533 H 44.9349 1.82778 0.571366 0
M  V30 534 H 43.2399 2.36743 3.12185 0
M  V30 535 H 44.9369 2.71813 2.9482 0
M  V30 536 H 41.5269 3.79176 1.99808 0
M  V30 537 H 45.7109 4.69363 1.61281 0
M  V30 538 H 40.9669 6.01304 1.10648 0
M  V30 539 H 45.1409 6.92566 0.729722 0
M  V30 540 H 42.7679 7.5874 0.470852 0
M  V30 541 N 44.343 -0.763751 1.37857 0
M  V30 542 C 45.62 -1.51244 1.24035 0
M  V30 543 C 46 -2.10472 -0.162649 0
M  V30 544 O 45.348 -1.96206 -1.17112 0
M  V30 545 C 45.558 -2.58694 2.34261 0
M  V30 546 C 46.906 -3.25878 2.72193 0
M  V30 547 O 47.93 -2.68993 2.33497 0
M  V30 548 O 46.789 -4.2874 3.38887 0
M  V30 549 H 43.883 -0.670243 0.484462 0
M  V30 550 H 46.429 -0.800031 1.49658 0
M  V30 551 H 45.201 -2.13105 3.2818 0
M  V30 552 H 44.824 -3.37527 2.10146 0
M  V30 553 N 45.8211 -1.22559 -0.990812 0
M  V30 554 C 46.7841 -0.998863 -2.0629 0
M  V30 555 C 47.7841 0.0354834 -1.60761 0
M  V30 556 O 48.9741 -0.203231 -1.7301 0
M  V30 557 C 46.1061 -0.509203 -3.37076 0
M  V30 558 H 47.2991 -1.95014 -2.27837 0
M  V30 559 H 44.8521 -1.04456 -1.16269 0
M  V30 560 H 45.5871 0.446335 -3.21214 0
M  V30 561 H 45.3721 -1.25547 -3.71457 0
M  V30 562 H 46.8621 -0.370888 -4.1595 0
M  V30 563 N 47.2992 1.18797 -1.03562 0
M  V30 564 C 48.2472 2.24297 -0.615905 0
M  V30 565 C 49.2412 1.65643 0.354808 0
M  V30 566 O 50.4472 1.78618 0.22265 0
M  V30 567 H 46.8222 0.729909 -0.180934 0
M  V30 568 H 48.7932 2.5701 -1.5162 0
M  V30 569 C 47.5422 3.47698 0.0104735 0
M  V30 570 H 46.8652 3.93125 -0.727509 0
M  V30 571 H 48.3052 4.23159 0.266995 0
M  V30 572 C 46.7642 3.12489 1.25905 0
M  V30 573 O 47.2942 3.25761 2.35038 0
M  V30 574 N 45.5002 2.6686 1.15039 0
M  V30 575 H 45.0472 2.56261 0.262328 0
M  V30 576 H 45.0052 2.43674 1.98672 0
M  V30 577 N 48.7773 0.814389 1.34928 0
M  V30 578 C 49.7243 0.22822 2.29669 0
M  V30 579 C 50.6943 -0.642164 1.53184 0
M  V30 580 O 51.8793 -0.585605 1.81591 0
M  V30 581 C 49.0193 -0.61089 3.3965 0
M  V30 582 C 48.1323 0.280792 4.31086 0
M  V30 583 C 47.2673 -0.567067 5.28165 0
M  V30 584 C 46.3063 0.324531 6.11239 0
M  V30 585 N 45.4433 -0.483756 7.00431 0
M  V30 586 H 50.2833 1.04153 2.79206 0
M  V30 587 H 47.8203 0.525133 1.37407 0
M  V30 588 H 49.7783 -1.11263 4.0209 0
M  V30 589 H 48.4083 -1.38939 2.91369 0
M  V30 590 H 47.4603 0.900688 3.69583 0
M  V30 591 H 48.7723 0.966723 4.89342 0
M  V30 592 H 47.9263 -1.13363 5.96015 0
M  V30 593 H 46.6653 -1.28654 4.70425 0
M  V30 594 H 45.6703 0.903298 5.42329 0
M  V30 595 H 46.8953 1.04198 6.71059 0
M  V30 596 H 44.8413 -1.18706 6.45171 0
M  V30 597 H 44.7583 0.143965 7.55863 0
M  V30 598 H 46.0263 -1.03334 7.7262 0
M  V30 599 N 50.2554 -1.46986 0.568584 0
M  V30 600 C 51.5324 -1.95592 -0.0174074 0
M  V30 601 C 51.9124 -1.51124 -1.47393 0
M  V30 602 O 51.2604 -0.755329 -2.15655 0
M  V30 603 C 51.4704 -3.48719 0.139913 0
M  V30 604 C 52.8184 -4.246 0.000426376 0
M  V30 605 O 53.8424 -3.56135 0.0680316 0
M  V30 606 O 52.7014 -5.46302 -0.146988 0
M  V30 607 H 49.7954 -0.82498 -0.0577599 0
M  V30 608 H 52.3414 -1.57335 0.635909 0
M  V30 609 H 51.1134 -3.73927 1.15301 0
M  V30 610 H 50.7364 -3.93771 -0.550491 0
M  V30 611 N 51.7335 -0.305618 -1.54608 0
M  V30 612 C 53.1495 0.0476228 -1.59529 0
M  V30 613 C 53.3495 1.52025 -1.32252 0
M  V30 614 O 52.4055 2.27368 -1.09818 0
M  V30 615 C 53.7185 -0.354471 -2.98603 0
M  V30 616 C 55.2665 -0.303622 -3.11524 0
M  V30 617 C 55.7415 -0.680608 -4.52915 0
M  V30 618 N 57.2325 -0.63332 -4.5885 0
M  V30 619 C 57.9675 -0.897432 -5.66334 0
M  V30 620 N 57.4635 -1.22775 -6.81834 0
M  V30 621 N 59.2565 -0.824186 -5.56025 0
M  V30 622 H 51.4075 -1.2653 -1.70599 0
M  V30 623 H 53.6705 -0.513291 -0.797017 0
M  V30 624 H 53.3765 -1.3798 -3.23503 0
M  V30 625 H 53.2505 0.289568 -3.76087 0
M  V30 626 H 55.6375 0.712472 -2.8637 0
M  V30 627 H 55.7185 -0.982348 -2.36185 0
M  V30 628 H 55.3625 -1.69453 -4.78799 0
M  V30 629 H 55.2925 0.0202385 -5.26596 0
M  V30 630 H 57.7835 -0.389138 -3.75891 0
M  V30 631 H 58.0965 -1.41513 -7.59733 0
M  V30 632 H 56.4415 -1.26583 -6.83375 0
M  V30 633 H 59.6325 -0.565748 -4.64669 0
M  V30 634 H 59.8055 -1.03338 -6.39707 0
M  V30 635 N 53.2116 1.57565 -0.0334293 0
M  V30 636 C 54.4586 1.91978 0.644272 0
M  V30 637 C 54.7866 0.910231 1.71887 0
M  V30 638 O 54.0416 -0.0801961 1.95536 0
M  V30 639 C 54.3406 3.33112 1.29504 0
M  V30 640 C 54.0066 4.49537 0.350388 0
M  V30 641 C 52.6686 4.81115 0.0903974 0
M  V30 642 C 55.0206 5.20347 -0.298032 0
M  V30 643 C 52.3486 5.8086 -0.825746 0
M  V30 644 C 54.7006 6.2107 -1.20226 0
M  V30 645 C 53.3646 6.51088 -1.4711 0
M  V30 646 H 52.6346 0.702496 0.235756 0
M  V30 647 H 55.2816 1.91259 -0.0961176 0
M  V30 648 H 53.5866 3.30113 2.11028 0
M  V30 649 H 55.2836 3.57011 1.82603 0
M  V30 650 H 51.8736 4.24883 0.563205 0
M  V30 651 H 56.0576 4.96178 -0.110234 0
M  V30 652 H 51.3136 6.02461 -1.04169 0
M  V30 653 H 55.4876 6.75057 -1.71086 0
M  V30 654 H 53.1146 7.28193 -2.18264 0
M  V30 655 N 54.6897 -0.239769 1.55765 0
M  V30 656 C 55.6377 -1.31668 1.91745 0
M  V30 657 C 56.6317 -1.49462 0.797338 0
M  V30 658 O 57.8377 -1.50852 0.982021 0
M  V30 659 H 54.2127 -0.441048 0.609082 0
M  V30 660 H 56.1837 -0.985923 2.81642 0
M  V30 661 C 54.9327 -2.66368 2.2348 0
M  V30 662 H 54.2557 -2.53478 3.09175 0
M  V30 663 H 55.6957 -3.40578 2.52553 0
M  V30 664 C 54.1547 -3.20002 1.05359 0
M  V30 665 O 54.6847 -4.00538 0.305261 0
M  V30 666 N 52.8907 -2.78126 0.842292 0
M  V30 667 H 52.4377 -2.12742 1.45253 0
M  V30 668 H 52.3957 -3.14354 0.053652 0
M  V30 669 N 56.1678 -1.49265 -0.50573 0
M  V30 670 C 57.1178 -1.6198 -1.60457 0
M  V30 671 C 58.1018 -0.47568 -1.53708 0
M  V30 672 O 59.2938 -0.728392 -1.61318 0
M  V30 673 C 56.4228 -1.68526 -2.99089 0
M  V30 674 C 55.5088 -2.885 -3.10852 0
M  V30 675 N 55.8998 -4.12635 -2.92517 0
M  V30 676 C 54.1978 -2.86338 -3.41945 0
M  V30 677 C 54.8988 -4.93258 -3.08337 0
M  V30 678 N 53.8748 -4.26533 -3.37003 0
M  V30 679 H 57.6768 -2.55681 -1.44928 0
M  V30 680 H 55.1908 -1.45972 -0.711752 0
M  V30 681 H 57.1878 -1.75732 -3.78053 0
M  V30 682 H 55.8478 -0.759584 -3.1569 0
M  V30 683 H 56.8588 -4.42689 -2.68787 0
M  V30 684 H 53.5358 -2.03129 -3.64753 0
M  V30 685 H 54.9258 -6.01856 -2.98695 0
M  V30 686 N 57.6459 0.756429 -1.3826 0
M  V30 687 C 58.8929 1.51547 -1.34312 0
M  V30 688 C 59.2209 1.94382 0.0677144 0
M  V30 689 O 58.4759 1.65514 1.04421 0
M  V30 690 C 58.7749 2.78313 -2.24224 0
M  V30 691 C 58.4409 2.54455 -3.72241 0
M  V30 692 C 57.1029 2.47657 -4.12576 0
M  V30 693 C 59.4549 2.3354 -4.65949 0
M  V30 694 C 56.7829 2.17956 -5.44713 0
M  V30 695 C 59.1349 2.05359 -5.9834 0
M  V30 696 C 57.7989 1.97016 -6.37762 0
M  V30 697 H 57.0689 0.55455 -0.491482 0
M  V30 698 H 59.7159 0.870039 -1.70595 0
M  V30 699 H 58.0209 3.47492 -1.80987 0
M  V30 700 H 59.7179 3.36259 -2.18474 0
M  V30 701 H 56.3079 2.60616 -3.40261 0
M  V30 702 H 60.4919 2.37772 -4.35635 0
M  V30 703 H 55.7479 2.10003 -5.74203 0
M  V30 704 H 59.9219 1.88179 -6.70494 0
M  V30 705 H 57.5489 1.73766 -7.40074 0
M  V30 706 N 59.124 1.23083 0.984299 0
M  V30 707 C 60.349 1.088 1.76571 0
M  V30 708 C 60.774 -0.356657 1.84688 0
M  V30 709 O 60.132 -1.25788 1.30565 0
M  V30 710 C 60.18 1.71371 3.17277 0
M  V30 711 O 59.284 0.973213 4.00752 0
M  V30 712 H 58.625 0.381599 0.543395 0
M  V30 713 H 61.155 1.63057 1.23587 0
M  V30 714 H 61.165 1.76449 3.67872 0
M  V30 715 H 59.84 2.76493 3.10684 0
M  V30 716 H 58.417 0.999078 3.59267 0
M  V30 717 N 60.6021 -1.18246 1.0419 0
M  V30 718 C 61.5321 -2.24127 0.654914 0
M  V30 719 C 62.5131 -1.66617 -0.342451 0
M  V30 720 O 63.6981 -1.92924 -0.222277 0
M  V30 721 C 60.8281 -3.47295 0.0183757 0
M  V30 722 C 59.7821 -4.17563 0.939414 0
M  V30 723 C 59.1081 -5.34438 0.167286 0
M  V30 724 C 60.4081 -4.70917 2.25908 0
M  V30 725 H 62.1021 -2.56753 1.54007 0
M  V30 726 H 59.6481 -1.23414 0.74195 0
M  V30 727 H 61.6011 -4.20572 -0.264082 0
M  V30 728 H 60.3251 -3.13907 -0.901664 0
M  V30 729 H 58.9841 -3.46186 1.20628 0
M  V30 730 H 58.6321 -4.97298 -0.7552 0
M  V30 731 H 58.3321 -5.82388 0.780901 0
M  V30 732 H 59.8561 -6.10504 -0.108125 0
M  V30 733 H 61.2701 -5.35882 2.03724 0
M  V30 734 H 59.6671 -5.29406 2.82577 0
M  V30 735 H 60.7371 -3.88272 2.9047 0
M  V30 736 N 62.0802 -0.821533 -1.34494 0
M  V30 737 C 63.3082 -0.421884 -2.02553 0
M  V30 738 C 63.7232 0.971745 -1.61872 0
M  V30 739 O 63.0802 1.62864 -0.823496 0
M  V30 740 C 63.1312 -0.51285 -3.57844 0
M  V30 741 O 62.8522 -1.85155 -3.97051 0
M  V30 742 C 64.3532 -0.107921 -4.43169 0
M  V30 743 H 61.5732 -0.169482 -0.649243 0
M  V30 744 H 64.1172 -1.1093 -1.71798 0
M  V30 745 H 62.2722 0.126474 -3.87193 0
M  V30 746 H 62.6862 -1.82482 -4.91732 0
M  V30 747 H 64.1602 -0.222657 -5.51551 0
M  V30 748 H 64.6372 0.948401 -4.28838 0
M  V30 749 H 65.2432 -0.720989 -4.19144 0
M  V30 750 N 63.5583 1.46682 -0.576371 0
M  V30 751 C 64.4883 2.33028 0.148397 0
M  V30 752 C 65.4693 1.44961 0.889956 0
M  V30 753 O 66.6543 1.73789 0.866662 0
M  V30 754 C 63.7843 3.27117 1.1667 0
M  V30 755 C 62.7383 4.24575 0.540386 0
M  V30 756 C 62.0643 5.08126 1.6647 0
M  V30 757 C 63.3643 5.19722 -0.518331 0
M  V30 758 H 65.0583 2.93875 -0.572509 0
M  V30 759 H 62.6043 1.41315 -0.276768 0
M  V30 760 H 64.5573 3.86374 1.68204 0
M  V30 761 H 63.2813 2.64364 1.9178 0
M  V30 762 H 61.9403 3.66571 0.0461769 0
M  V30 763 H 61.5883 4.41762 2.40531 0
M  V30 764 H 61.2883 5.74122 1.25131 0
M  V30 765 H 62.8123 5.70246 2.18293 0
M  V30 766 H 64.2263 5.73232 -0.0883058 0
M  V30 767 H 62.6233 5.94026 -0.851679 0
M  V30 768 H 63.6933 4.64037 -1.40703 0
M  V30 769 N 65.0364 0.313813 1.54444 0
M  V30 770 C 65.9844 -0.572171 2.25453 0
M  V30 771 C 66.9784 -1.12657 1.2651 0
M  V30 772 O 68.1844 -1.07573 1.44319 0
M  V30 773 H 64.5594 -0.203146 0.724041 0
M  V30 774 H 66.5304 0.0491145 2.9836 0
M  V30 775 C 65.2794 -1.72626 3.0182 0
M  V30 776 H 64.6024 -1.30891 3.77767 0
M  V30 777 H 66.0424 -2.32199 3.54767 0
M  V30 778 C 64.5014 -2.63806 2.09542 0
M  V30 779 O 65.0314 -3.65256 1.67185 0
M  V30 780 N 63.2374 -2.31824 1.75232 0
M  V30 781 H 62.7844 -1.49368 2.09873 0
M  V30 782 H 62.7424 -2.93095 1.13767 0
M  V30 783 N 66.5145 -1.57545 0.0417849 0
M  V30 784 C 67.7425 -1.96624 -0.643928 0
M  V30 785 C 68.1575 -0.918897 -1.64929 0
M  V30 786 O 67.5145 0.0979323 -1.82237 0
M  V30 787 C 67.5655 -3.35781 -1.33914 0
M  V30 788 O 67.2865 -4.365 -0.374048 0
M  V30 789 C 68.7875 -3.89566 -2.1155 0
M  V30 790 H 66.0075 -0.647316 -0.176702 0
M  V30 791 H 68.5515 -2.04229 0.105304 0
M  V30 792 H 66.7065 -3.29357 -2.03968 0
M  V30 793 H 67.1205 -5.17248 -0.869179 0
M  V30 794 H 68.5945 -4.89242 -2.55628 0
M  V30 795 H 69.0715 -3.24488 -2.9598 0
M  V30 796 H 69.6775 -3.99298 -1.46427 0
M  V30 797 N 67.9926 0.231505 -1.5589 0
M  V30 798 C 68.9406 1.30649 -1.92441 0
M  V30 799 C 69.9346 1.49037 -0.805254 0
M  V30 800 O 71.1406 1.50329 -0.990007 0
M  V30 801 H 67.5156 0.437812 -0.611412 0
M  V30 802 H 69.4866 0.970973 -2.82161 0
M  V30 803 C 68.2356 2.65179 -2.24889 0
M  V30 804 H 67.5586 2.51835 -3.10514 0
M  V30 805 H 68.9986 3.39234 -2.54355 0
M  V30 806 C 67.4576 3.19439 -1.07054 0
M  V30 807 O 67.9876 4.00371 -0.326499 0
M  V30 808 N 66.1936 2.77675 -0.85703 0
M  V30 809 H 65.7406 2.11969 -1.46379 0
M  V30 810 H 65.6986 3.14321 -0.0703223 0
M  V30 811 N 69.4707 1.49531 0.497807 0
M  V30 812 C 70.4207 1.62829 1.59596 0
M  V30 813 C 71.4047 0.483824 1.53453 0
M  V30 814 O 72.5967 0.736937 1.60929 0
M  V30 815 C 69.7257 1.7011 2.98191 0
M  V30 816 C 68.8117 2.90144 3.09317 0
M  V30 817 N 69.2027 4.1418 2.90324 0
M  V30 818 C 67.5007 2.88148 3.40422 0
M  V30 819 C 68.2017 4.94886 3.05717 0
M  V30 820 N 67.1777 4.28314 3.34736 0
M  V30 821 H 70.9797 2.56446 1.4357 0
M  V30 822 H 68.4937 1.46347 0.704001 0
M  V30 823 H 70.4907 1.77735 3.77115 0
M  V30 824 H 69.1507 0.776315 3.15283 0
M  V30 825 H 70.1617 4.44109 2.66436 0
M  V30 826 H 66.8387 2.05061 3.63671 0
M  V30 827 H 68.2287 6.03432 2.95499 0
M  V30 828 N 70.9488 -0.749086 1.3866 0
M  V30 829 C 72.1968 -1.50535 1.34847 0
M  V30 830 C 72.5178 -1.94909 -0.0595016 0
M  V30 831 O 71.7878 -1.67973 -1.00806 0
M  V30 832 H 70.3678 -0.558395 0.49619 0
M  V30 833 H 73.0298 -0.890165 1.73384 0
M  V30 834 H 72.1258 -2.39413 2.00219 0
M  V30 835 N 72.4269 -1.23603 -0.977757 0
M  V30 836 C 73.3769 -0.986664 -2.05545 0
M  V30 837 C 74.3609 0.0683009 -1.60755 0
M  V30 838 O 75.5529 -0.144162 -1.76412 0
M  V30 839 C 72.6819 -0.582623 -3.3832 0
M  V30 840 C 71.7679 -1.67313 -3.89701 0
M  V30 841 N 72.1589 -2.90394 -4.14132 0
M  V30 842 C 70.4569 -1.54832 -4.18262 0
M  V30 843 C 71.1579 -3.61017 -4.56116 0
M  V30 844 N 70.1339 -2.8854 -4.60701 0
M  V30 845 H 73.9359 -1.92139 -2.22396 0
M  V30 846 H 71.4499 -1.1358 -1.16074 0
M  V30 847 H 73.4469 -0.38524 -4.15116 0
M  V30 848 H 72.1069 0.34503 -3.22862 0
M  V30 849 H 73.1179 -3.26673 -4.01877 0
M  V30 850 H 69.7949 -0.687969 -4.11793 0
M  V30 851 H 71.1849 -4.66544 -4.83514 0
M  V30 852 N 73.905 1.17692 -1.04816 0
M  V30 853 C 75.154 1.87192 -0.751132 0
M  V30 854 C 75.467 1.8169 0.724441 0
M  V30 855 O 76.673 2.46625 1.13527 0
M  V30 856 C 75.129 3.35857 -1.29338 0
M  V30 857 C 74.737 3.4987 -2.79812 0
M  V30 858 C 76.481 4.10709 -1.07322 0
M  V30 859 C 74.388 4.92536 -3.27356 0
M  V30 860 H 73.318 0.701162 -0.277288 0
M  V30 861 H 75.969 1.32932 -1.26496 0
M  V30 862 H 74.351 3.89631 -0.707376 0
M  V30 863 H 75.525 3.06332 -3.44235 0
M  V30 864 H 73.84 2.88433 -3.00325 0
M  V30 865 H 76.437 5.15952 -1.4035 0
M  V30 866 H 76.78 4.16299 -0.0108001 0
M  V30 867 H 77.313 3.6313 -1.62423 0
M  V30 868 H 74.052 4.92119 -4.33012 0
M  V30 869 H 73.572 5.3676 -2.67673 0
M  V30 870 H 75.251 5.61288 -3.21815 0
M  V30 871 N 75.3831 0.828654 1.34056 0
M  V30 872 C 76.3131 0.269443 2.3194 0
M  V30 873 C 77.2941 -0.617247 1.58506 0
M  V30 874 O 78.4791 -0.542931 1.86456 0
M  V30 875 C 75.6091 -0.564793 3.42677 0
M  V30 876 C 74.5631 0.225241 4.27407 0
M  V30 877 C 73.8891 -0.7321 5.29664 0
M  V30 878 C 75.1891 1.43663 5.02154 0
M  V30 879 H 76.8831 1.08728 2.7896 0
M  V30 880 H 74.4291 0.524283 1.34117 0
M  V30 881 H 76.3821 -0.966233 4.10173 0
M  V30 882 H 75.1061 -1.41574 2.9432 0
M  V30 883 H 73.7651 0.608117 3.61521 0
M  V30 884 H 73.4131 -1.57916 4.77568 0
M  V30 885 H 73.1131 -0.20767 5.87233 0
M  V30 886 H 74.6371 -1.13128 6.00029 0
M  V30 887 H 76.0511 1.1089 5.62473 0
M  V30 888 H 74.4481 1.89711 5.69324 0
M  V30 889 H 75.5181 2.21181 4.31517 0
M  V30 890 N 76.8612 -1.46375 0.584142 0
M  V30 891 C 78.1072 -2.02678 0.0703716 0
M  V30 892 C 78.4402 -1.4545 -1.28678 0
M  V30 893 O 77.7152 -0.62014 -1.84349 0
M  V30 894 C 77.9982 -3.60099 0.00614674 0
M  V30 895 C 77.8512 -4.27709 1.3923 0
M  V30 896 C 79.1702 -4.34598 -0.693742 0
M  V30 897 H 76.2892 -0.736504 0.027047 0
M  V30 898 H 78.9312 -1.74501 0.751615 0
M  V30 899 H 77.0812 -3.84236 -0.574009 0
M  V30 900 H 78.7532 -4.14832 2.01773 0
M  V30 901 H 76.9962 -3.87016 1.95962 0
M  V30 902 H 77.6672 -5.36478 1.29982 0
M  V30 903 H 80.1432 -4.15615 -0.200869 0
M  V30 904 H 79.0192 -5.44318 -0.707714 0
M  V30 905 H 79.2802 -4.05759 -1.75533 0
M  V30 906 N 78.3393 -0.321999 -1.54275 0
M  V30 907 C 79.6163 0.335232 -1.92706 0
M  V30 908 C 79.9963 1.70006 -1.25145 0
M  V30 909 O 79.3443 2.25067 -0.394596 0
M  V30 910 C 79.5543 0.429008 -3.46353 0
M  V30 911 C 80.9023 0.690029 -4.18956 0
M  V30 912 O 81.9263 0.511992 -3.52501 0
M  V30 913 O 80.7853 1.03338 -5.36641 0
M  V30 914 H 77.8793 0.191143 -0.804608 0
M  V30 915 H 80.4253 -0.3716 -1.65581 0
M  V30 916 H 79.1973 -0.529611 -3.87699 0
M  V30 917 H 78.8203 1.18348 -3.79578 0
M  V30 918 N 79.8174 1.5752 -0.0501392 0
M  V30 919 C 81.0474 1.96678 0.632573 0
M  V30 920 C 81.4554 0.926298 1.64974 0
M  V30 921 O 80.7984 -0.09802 1.83438 0
M  V30 922 C 80.8604 3.32068 1.37735 0
M  V30 923 C 80.5244 4.54076 0.516131 0
M  V30 924 C 81.5214 5.19445 -0.217357 0
M  V30 925 C 79.2064 5.00304 0.44736 0
M  V30 926 C 81.2004 6.29378 -1.00807 0
M  V30 927 C 78.8874 6.10114 -0.347038 0
M  V30 928 C 79.8854 6.74512 -1.07344 0
M  V30 929 O 79.5734 7.82211 -1.85477 0
M  V30 930 H 79.3054 0.652193 0.177821 0
M  V30 931 H 81.8594 2.05091 -0.112543 0
M  V30 932 H 80.0894 3.20206 2.16807 0
M  V30 933 H 81.7784 3.55981 1.95019 0
M  V30 934 H 82.5444 4.84689 -0.173688 0
M  V30 935 H 78.4234 4.49971 1.00235 0
M  V30 936 H 81.9674 6.79575 -1.57556 0
M  V30 937 H 77.8644 6.44307 -0.392349 0
M  V30 938 H 78.6324 7.98982 -1.77678 0
M  V30 939 N 81.2955 -0.223234 1.56011 0
M  V30 940 C 82.5205 -0.968978 1.83373 0
M  V30 941 C 82.9455 -1.77227 0.630254 0
M  V30 942 O 82.3035 -1.76345 -0.420959 0
M  V30 943 C 82.3515 -1.86363 3.08709 0
M  V30 944 O 81.4555 -2.95873 2.87285 0
M  V30 945 H 80.7965 -0.274461 0.604622 0
M  V30 946 H 83.3265 -0.237056 2.03222 0
M  V30 947 H 83.3365 -2.27376 3.38768 0
M  V30 948 H 82.0115 -1.27319 3.95933 0
M  V30 949 H 80.5885 -2.58818 2.68454 0
M  V30 950 N 82.7736 -1.49793 -0.48987 0
M  V30 951 C 83.7206 -1.67281 -1.59014 0
M  V30 952 C 84.6906 -0.514177 -1.57941 0
M  V30 953 O 85.8756 -0.742533 -1.75759 0
M  V30 954 C 83.0156 -1.75569 -2.97102 0
M  V30 955 C 82.1286 -3.0281 -3.08107 0
M  V30 956 C 81.2636 -3.02008 -4.36995 0
M  V30 957 C 80.3026 -4.23782 -4.41673 0
M  V30 958 N 79.4396 -4.20826 -5.62005 0
M  V30 959 H 84.2796 -2.61224 -1.43409 0
M  V30 960 H 81.8166 -1.29508 -0.697565 0
M  V30 961 H 83.7746 -1.78354 -3.77155 0
M  V30 962 H 82.4046 -0.850827 -3.11385 0
M  V30 963 H 81.4566 -3.09584 -2.21047 0
M  V30 964 H 82.7686 -3.92801 -3.07423 0
M  V30 965 H 81.9226 -3.03418 -5.25378 0
M  V30 966 H 80.6616 -2.09815 -4.4026 0
M  V30 967 H 79.6666 -4.22604 -3.5169 0
M  V30 968 H 80.8916 -5.17181 -4.40115 0
M  V30 969 H 78.8376 -3.31476 -5.66091 0
M  V30 970 H 78.7546 -5.04564 -5.62984 0
M  V30 971 H 80.0226 -4.26355 -6.52565 0
M  V30 972 N 84.2517 0.741722 -1.39055 0
M  V30 973 C 85.1997 1.87702 -1.3737 0
M  V30 974 C 86.1937 1.67427 -0.257812 0
M  V30 975 O 87.3997 1.7485 -0.427489 0
M  V30 976 H 83.7747 0.617757 -0.428812 0
M  V30 977 H 85.7457 1.86239 -2.33147 0
M  V30 978 C 84.4947 3.25315 -1.22741 0
M  V30 979 H 83.8177 3.41509 -2.07873 0
M  V30 980 H 85.2577 4.04964 -1.25618 0
M  V30 981 C 83.7167 3.36838 0.0647316 0
M  V30 982 O 84.2467 3.88073 1.03741 0
M  V30 983 N 82.4527 2.90329 0.125544 0
M  V30 984 H 81.9997 2.48823 -0.666682 0
M  V30 985 H 81.9577 2.98418 0.989639 0
M  V30 986 N 85.7298 1.2412 0.971189 0
M  V30 987 C 86.6598 1.05508 2.08304 0
M  V30 988 C 87.6408 -0.0308864 1.70072 0
M  V30 989 O 88.8258 0.135521 1.93727 0
M  V30 990 C 85.9558 0.655365 3.4106 0
M  V30 991 C 84.9098 1.68971 3.93234 0
M  V30 992 C 84.2358 1.14516 5.22293 0
M  V30 993 C 85.5358 3.08487 4.21465 0
M  V30 994 H 87.2298 1.98507 2.24132 0
M  V30 995 H 84.7758 0.955821 1.07704 0
M  V30 996 H 86.7288 0.51217 4.18276 0
M  V30 997 H 85.4528 -0.31032 3.25122 0
M  V30 998 H 84.1118 1.82106 3.18171 0
M  V30 999 H 83.7598 0.170189 5.02712 0
M  V30 1000 H 83.4598 1.83635 5.58168 0
M  V30 1001 H 84.9838 1.01401 6.02121 0
M  V30 1002 H 86.3978 2.98601 4.89398 0
M  V30 1003 H 84.7948 3.74926 4.68562 0
M  V30 1004 H 85.8648 3.56787 3.28376 0
M  V30 1005 N 87.2079 -1.17134 1.05439 0
M  V30 1006 C 88.4539 -1.87733 0.767077 0
M  V30 1007 C 88.7869 -1.8098 -0.704253 0
M  V30 1008 O 88.0619 -1.21951 -1.5152 0
M  V30 1009 C 88.3449 -3.37659 1.25133 0
M  V30 1010 C 88.1979 -3.53149 2.78578 0
M  V30 1011 C 89.5169 -4.31768 0.852324 0
M  V30 1012 H 86.6359 -0.681687 0.280129 0
M  V30 1013 H 89.2779 -1.37732 1.30881 0
M  V30 1014 H 87.4279 -3.80373 0.790469 0
M  V30 1015 H 89.0999 -3.19434 3.32806 0
M  V30 1016 H 87.3429 -2.95345 3.17732 0
M  V30 1017 H 88.0139 -4.58403 3.07523 0
M  V30 1018 H 90.4899 -3.96909 1.24911 0
M  V30 1019 H 89.3659 -5.35199 1.21873 0
M  V30 1020 H 89.6269 -4.41429 -0.243485 0
M  V30 1021 N 88.686 -0.835752 -1.33615 0
M  V30 1022 C 89.914 -0.443344 -2.02094 0
M  V30 1023 C 90.329 0.954522 -1.62894 0
M  V30 1024 O 89.686 1.61982 -0.840723 0
M  V30 1025 C 89.737 -0.550775 -3.5728 0
M  V30 1026 O 89.458 -1.89356 -3.95065 0
M  V30 1027 C 90.959 -0.154919 -4.43029 0
M  V30 1028 H 88.179 -0.176359 -0.647409 0
M  V30 1029 H 90.723 -1.12746 -1.70612 0
M  V30 1030 H 88.878 0.0853997 -3.87306 0
M  V30 1031 H 89.292 -1.87687 -4.89769 0
M  V30 1032 H 90.766 -0.281144 -5.51284 0
M  V30 1033 H 91.243 0.902863 -4.2982 0
M  V30 1034 H 91.849 -0.765404 -4.18356 0
M  V30 1035 N 90.1641 1.46063 -0.591896 0
M  V30 1036 C 91.0741 2.34192 0.13831 0
M  V30 1037 C 92.0901 1.50305 0.876608 0
M  V30 1038 O 93.2661 1.8315 0.837728 0
M  V30 1039 C 90.3311 3.27656 1.13326 0
M  V30 1040 C 89.3921 4.27445 0.39863 0
M  V30 1041 C 88.6251 5.16443 1.34618 0
M  V30 1042 O 88.8481 5.08553 2.58321 0
M  V30 1043 O 87.7821 5.95843 0.851768 0
M  V30 1044 H 91.6081 2.98002 -0.58552 0
M  V30 1045 H 89.1931 1.45188 -0.352239 0
M  V30 1046 H 91.0751 3.85291 1.70671 0
M  V30 1047 H 89.7501 2.6643 1.83839 0
M  V30 1048 H 88.6571 3.73471 -0.216895 0
M  V30 1049 H 89.9901 4.91482 -0.265709 0
M  V30 1050 N 91.6422 0.330177 1.54103 0
M  V30 1051 C 92.9192 -0.325007 1.92881 0
M  V30 1052 C 93.2992 -1.6934 1.26045 0
M  V30 1053 O 92.6472 -2.24855 0.406526 0
M  V30 1054 C 92.8572 -0.410634 3.46576 0
M  V30 1055 C 94.2052 -0.667801 4.19316 0
M  V30 1056 O 95.2292 -0.49329 3.52768 0
M  V30 1057 O 94.0882 -1.00491 5.37181 0
M  V30 1058 H 91.1822 -0.186873 0.80561 0
M  V30 1059 H 93.7282 0.380376 1.65382 0
M  V30 1060 H 92.5002 0.550164 3.87413 0
M  V30 1061 H 92.1232 -1.16333 3.802 0
M  V30 1062 N 93.1203 -1.57491 0.0584922 0
M  V30 1063 C 94.3663 -1.93264 -0.614558 0
M  V30 1064 C 94.6993 -0.937717 -1.7006 0
M  V30 1065 O 93.9743 0.0351652 -1.94468 0
M  V30 1066 C 94.2573 -3.3938 -1.20386 0
M  V30 1067 C 94.1103 -4.49625 -0.125375 0
M  V30 1068 C 95.4293 -3.86039 -2.11334 0
M  V30 1069 H 92.5483 -0.702791 -0.221933 0
M  V30 1070 H 95.1903 -1.8961 0.12175 0
M  V30 1071 H 93.3403 -3.42626 -1.83139 0
M  V30 1072 H 95.0123 -4.58506 0.506971 0
M  V30 1073 H 93.2553 -4.30354 0.545672 0
M  V30 1074 H 93.9263 -5.48967 -0.577861 0
M  V30 1075 H 96.4023 -3.84716 -1.58534 0
M  V30 1076 H 95.2783 -4.88914 -2.49507 0
M  V30 1077 H 95.5393 -3.23215 -3.01636 0
M  V30 1078 N 94.5984 0.214957 -1.56127 0
M  V30 1079 C 95.5314 1.29382 -1.87977 0
M  V30 1080 C 96.5094 1.44897 -0.737807 0
M  V30 1081 O 97.6934 1.60605 -0.986833 0
M  V30 1082 C 94.8204 2.66325 -2.09258 0
M  V30 1083 C 93.8664 2.67789 -3.31951 0
M  V30 1084 S 94.6994 2.21198 -4.8768 0
M  V30 1085 C 95.8554 3.60003 -5.12004 0
M  V30 1086 H 96.0884 1.02173 -2.79192 0
M  V30 1087 H 93.6214 0.417516 -1.48648 0
M  V30 1088 H 95.5794 3.45162 -2.22201 0
M  V30 1089 H 94.2404 2.90755 -1.18829 0
M  V30 1090 H 93.4334 3.68436 -3.43906 0
M  V30 1091 H 93.0354 1.9702 -3.17898 0
M  V30 1092 H 95.3274 4.55739 -5.01307 0
M  V30 1093 H 96.2704 3.52959 -6.13861 0
M  V30 1094 H 96.6784 3.53996 -4.39712 0
M  V30 1095 N 96.0765 1.50051 0.48192 0
M  V30 1096 C 97.4925 1.37237 0.814756 0
M  V30 1097 C 97.6925 0.420109 1.97072 0
M  V30 1098 O 96.7485 -0.141246 2.52105 0
M  V30 1099 C 98.0615 2.78375 1.13701 0
M  V30 1100 C 99.6095 2.87213 1.2441 0
M  V30 1101 C 100.084 4.29161 1.59954 0
M  V30 1102 N 101.575 4.32061 1.66967 0
M  V30 1103 C 102.31 5.38879 1.95952 0
M  V30 1104 N 101.806 6.55918 2.23031 0
M  V30 1105 N 103.599 5.26312 1.97363 0
M  V30 1106 H 95.7505 2.10546 -0.28005 0
M  V30 1107 H 98.0135 0.945921 -0.0627454 0
M  V30 1108 H 97.7195 3.49845 0.360787 0
M  V30 1109 H 97.5935 3.14941 2.07586 0
M  V30 1110 H 99.9805 2.15969 2.01101 0
M  V30 1111 H 100.061 2.54204 0.285299 0
M  V30 1112 H 99.7055 5.00938 0.838067 0
M  V30 1113 H 99.6355 4.59648 2.56966 0
M  V30 1114 H 102.126 3.47661 1.48123 0
M  V30 1115 H 102.439 7.33139 2.44391 0
M  V30 1116 H 100.784 6.59112 2.20447 0
M  V30 1117 H 103.975 4.33876 1.75697 0
M  V30 1118 H 104.148 6.09649 2.19618 0
M  V30 1119 N 97.5546 -0.734337 1.39446 0
M  V30 1120 C 98.4876 -1.85715 1.32609 0
M  V30 1121 C 99.4656 -1.6137 0.199636 0
M  V30 1122 O 100.65 -1.84626 0.380195 0
M  V30 1123 C 97.7766 -3.21709 1.05929 0
M  V30 1124 C 96.8226 -3.64913 2.20773 0
M  V30 1125 S 97.6556 -3.74203 3.83056 0
M  V30 1126 C 98.8116 -5.12986 3.58603 0
M  V30 1127 H 99.0446 -1.91232 2.27635 0
M  V30 1128 H 96.5776 -0.899263 1.25509 0
M  V30 1129 H 98.5356 -4.00236 0.912203 0
M  V30 1130 H 97.1966 -3.13848 0.125883 0
M  V30 1131 H 96.3896 -4.63606 1.97699 0
M  V30 1132 H 95.9916 -2.93593 2.31688 0
M  V30 1133 H 98.2836 -5.99339 3.15909 0
M  V30 1134 H 99.2266 -5.41088 4.5676 0
M  V30 1135 H 99.6346 -4.82694 2.9269 0
M  V30 1136 N 99.0327 -1.24633 -0.964593 0
M  V30 1137 C 99.9627 -1.06611 -2.07741 0
M  V30 1138 C 100.944 0.0218666 -1.70086 0
M  V30 1139 O 102.129 -0.145793 -1.93652 0
M  V30 1140 C 99.2587 -0.673444 -3.40708 0
M  V30 1141 C 98.2127 -1.71054 -3.92332 0
M  V30 1142 C 97.5387 -1.17285 -5.21678 0
M  V30 1143 C 98.8387 -3.10718 -4.19824 0
M  V30 1144 H 100.533 -1.99693 -2.23076 0
M  V30 1145 H 98.0787 -0.96152 -1.07195 0
M  V30 1146 H 100.032 -0.534345 -4.17998 0
M  V30 1147 H 98.7557 0.293073 -3.25282 0
M  V30 1148 H 97.4147 -1.83791 -3.17201 0
M  V30 1149 H 97.0627 -0.196847 -5.02615 0
M  V30 1150 H 96.7627 -1.86592 -5.57187 0
M  V30 1151 H 98.2867 -1.04593 -6.01575 0
M  V30 1152 H 99.7007 -3.01192 -4.87808 0
M  V30 1153 H 98.0977 -3.77406 -4.66567 0
M  V30 1154 H 99.1677 -3.58524 -3.26479 0
M  V30 1155 N 100.511 1.16574 -1.06058 0
M  V30 1156 C 101.757 1.87324 -0.777022 0
M  V30 1157 C 102.09 1.81351 0.694645 0
M  V30 1158 O 101.365 1.22753 1.50871 0
M  V30 1159 C 101.648 3.36991 -1.26922 0
M  V30 1160 C 101.501 3.51667 -2.80447 0
M  V30 1161 C 102.82 4.3131 -0.87521 0
M  V30 1162 H 99.9388 0.680191 -0.28374 0
M  V30 1163 H 102.581 1.37036 -1.3161 0
M  V30 1164 H 100.731 3.79949 -0.81063 0
M  V30 1165 H 102.403 3.17664 -3.34495 0
M  V30 1166 H 100.646 2.93656 -3.19294 0
M  V30 1167 H 101.317 4.56766 -3.0995 0
M  V30 1168 H 103.793 3.9624 -1.27014 0
M  V30 1169 H 102.669 5.34545 -1.2471 0
M  V30 1170 H 102.93 4.41552 0.220071 0
M  V30 1171 N 101.989 0.842826 1.3317 0
M  V30 1172 C 103.266 0.362216 1.92217 0
M  V30 1173 C 103.646 -1.15289 1.76838 0
M  V30 1174 O 102.994 -1.96914 1.15919 0
M  V30 1175 C 103.204 0.813495 3.39387 0
M  V30 1176 C 104.552 0.823804 4.16532 0
M  V30 1177 O 105.576 0.757358 3.48055 0
M  V30 1178 O 104.435 0.915193 5.38782 0
M  V30 1179 H 101.529 0.103317 0.820521 0
M  V30 1180 H 104.075 0.928942 1.42017 0
M  V30 1181 H 102.847 1.85624 3.4447 0
M  V30 1182 H 102.47 0.223561 3.96971 0
M  V30 1183 N 103.467 -1.45747 0.599634 0
M  V30 1184 C 104.397 -2.33235 -0.111306 0
M  V30 1185 C 105.378 -1.46359 -0.866781 0
M  V30 1186 O 106.563 -1.75146 -0.838904 0
M  V30 1187 C 103.693 -3.28932 -1.11451 0
M  V30 1188 C 102.647 -4.25381 -0.472772 0
M  V30 1189 C 101.973 -5.1071 -1.58365 0
M  V30 1190 C 103.273 -5.18831 0.600948 0
M  V30 1191 H 104.967 -2.92927 0.61919 0
M  V30 1192 H 102.513 -1.40857 0.299215 0
M  V30 1193 H 104.466 -3.89002 -1.62036 0
M  V30 1194 H 103.19 -2.67381 -1.8755 0
M  V30 1195 H 101.849 -3.66598 0.0121472 0
M  V30 1196 H 101.497 -4.45533 -2.33473 0
M  V30 1197 H 101.197 -5.7604 -1.15982 0
M  V30 1198 H 102.721 -5.73647 -2.09194 0
M  V30 1199 H 104.135 -5.73019 0.179491 0
M  V30 1200 H 102.532 -5.92595 0.946076 0
M  V30 1201 H 103.602 -4.6174 1.48068 0
M  V30 1202 N 104.945 -0.338344 -1.53925 0
M  V30 1203 C 105.908 0.508299 -2.23493 0
M  V30 1204 C 106.908 1.03175 -1.23335 0
M  V30 1205 O 108.098 0.921826 -1.47811 0
M  V30 1206 C 105.23 1.70754 -2.95052 0
M  V30 1207 H 106.423 -0.100058 -2.99733 0
M  V30 1208 H 103.976 -0.0896198 -1.56043 0
M  V30 1209 H 104.711 2.35474 -2.22986 0
M  V30 1210 H 104.496 1.33946 -3.68512 0
M  V30 1211 H 105.986 2.30818 -3.48013 0
M  V30 1212 N 106.423 1.57458 -0.0668435 0
M  V30 1213 C 107.37 2.12439 0.902122 0
M  V30 1214 C 108.34 1.03565 1.2986 0
M  V30 1215 O 109.525 1.312 1.38532 0
M  V30 1216 C 106.665 2.6865 2.16614 0
M  V30 1217 C 105.778 3.91663 1.82274 0
M  V30 1218 C 104.913 4.36134 3.0325 0
M  V30 1219 C 103.952 5.51808 2.64904 0
M  V30 1220 N 103.089 5.9126 3.78624 0
M  V30 1221 H 107.929 2.94934 0.426382 0
M  V30 1222 H 105.466 1.4575 0.198819 0
M  V30 1223 H 107.424 2.99346 2.90599 0
M  V30 1224 H 106.054 1.88928 2.61737 0
M  V30 1225 H 105.106 3.6746 0.983719 0
M  V30 1226 H 106.418 4.75693 1.50059 0
M  V30 1227 H 105.572 4.68465 3.85519 0
M  V30 1228 H 104.311 3.50948 3.38655 0
M  V30 1229 H 103.316 5.19133 1.81055 0
M  V30 1230 H 104.541 6.38722 2.30675 0
M  V30 1231 H 102.487 5.09024 4.138 0
M  V30 1232 H 102.404 6.70018 3.5016 0
M  V30 1233 H 103.672 6.28212 4.61486 0
M  V30 1234 N 107.901 -0.206675 1.56239 0
M  V30 1235 C 109.126 -0.949474 1.8439 0
M  V30 1236 C 109.551 -1.76549 0.649016 0
M  V30 1237 O 108.909 -1.76782 -0.402231 0
M  V30 1238 C 108.957 -1.83078 3.10668 0
M  V30 1239 O 108.061 -2.9281 2.90407 0
M  V30 1240 H 107.402 -0.268033 0.607499 0
M  V30 1241 H 109.932 -0.215488 2.03462 0
M  V30 1242 H 109.942 -2.2377 3.41161 0
M  V30 1243 H 108.617 -1.23112 3.97261 0
M  V30 1244 H 107.194 -2.55956 2.71184 0
M  V30 1245 N 109.379 -1.50304 -0.473955 0
M  V30 1246 C 110.795 -1.37667 -0.807466 0
M  V30 1247 C 110.995 -0.430555 -1.96846 0
M  V30 1248 O 110.051 0.127874 -2.52176 0
M  V30 1249 C 111.364 -2.78974 -1.12223 0
M  V30 1250 C 112.912 -2.87868 -1.22885 0
M  V30 1251 C 113.387 -4.30003 -1.57676 0
M  V30 1252 N 114.878 -4.3294 -1.64673 0
M  V30 1253 C 115.613 -5.3991 -1.93091 0
M  V30 1254 N 115.109 -6.57092 -2.1955 0
M  V30 1255 N 116.902 -5.27351 -1.94569 0
M  V30 1256 H 109.053 -2.10394 0.291212 0
M  V30 1257 H 111.316 -0.945575 0.0677609 0
M  V30 1258 H 111.022 -3.50031 -0.342229 0
M  V30 1259 H 110.896 -3.16038 -2.05913 0
M  V30 1260 H 113.283 -2.17032 -1.99953 0
M  V30 1261 H 113.364 -2.54352 -0.271814 0
M  V30 1262 H 113.008 -5.01375 -0.81149 0
M  V30 1263 H 112.938 -4.61004 -2.54525 0
M  V30 1264 H 115.429 -3.48441 -1.46277 0
M  V30 1265 H 115.742 -7.34425 -2.405 0
M  V30 1266 H 114.087 -6.60272 -2.16948 0
M  V30 1267 H 117.278 -4.34801 -1.73394 0
M  V30 1268 H 117.451 -6.10805 -2.16381 0
M  V30 1269 N 110.857 0.726932 -1.39834 0
M  V30 1270 C 112.105 1.4837 -1.37225 0
M  V30 1271 C 112.426 1.94979 0.0284857 0
M  V30 1272 O 111.696 1.69555 0.981213 0
M  V30 1273 H 110.276 0.55043 -0.505011 0
M  V30 1274 H 112.938 0.862468 -1.74778 0
M  V30 1275 H 112.034 2.36198 -2.04003 0
M  V30 1276 N 112.336 1.25143 0.95797 0
M  V30 1277 C 113.582 1.09855 1.70469 0
M  V30 1278 C 113.915 -0.360187 1.90831 0
M  V30 1279 O 113.19 -1.26568 1.47685 0
M  V30 1280 C 113.473 1.8497 3.08963 0
M  V30 1281 C 113.326 3.38652 2.96032 0
M  V30 1282 C 114.645 1.63016 4.08795 0
M  V30 1283 H 111.764 0.400465 0.618706 0
M  V30 1284 H 114.406 1.53933 1.11376 0
M  V30 1285 H 112.556 1.47505 3.59409 0
M  V30 1286 H 114.228 3.85772 2.52938 0
M  V30 1287 H 112.471 3.66534 2.32025 0
M  V30 1288 H 113.142 3.8642 3.94187 0
M  V30 1289 H 115.618 1.95625 3.67247 0
M  V30 1290 H 114.494 2.18015 5.03747 0
M  V30 1291 H 114.755 0.570692 4.38401 0
M  V30 1292 N 113.814 -1.1601 1.06675 0
M  V30 1293 C 114.724 -2.24156 0.692179 0
M  V30 1294 C 115.74 -1.71507 -0.293513 0
M  V30 1295 O 116.916 -2.009 -0.141861 0
M  V30 1296 C 113.981 -3.46587 0.0884131 0
M  V30 1297 C 113.042 -4.14257 1.12646 0
M  V30 1298 C 112.275 -5.30844 0.551416 0
M  V30 1299 O 112.498 -5.66858 -0.634656 0
M  V30 1300 O 111.432 -5.87848 1.29298 0
M  V30 1301 H 115.258 -2.58513 1.59388 0
M  V30 1302 H 112.843 -1.23599 0.83926 0
M  V30 1303 H 114.725 -4.20679 -0.246361 0
M  V30 1304 H 113.4 -3.13994 -0.786712 0
M  V30 1305 H 112.307 -3.42118 1.51348 0
M  V30 1306 H 113.64 -4.50914 1.97325 0
M  V30 1307 N 115.292 -0.849877 -1.32721 0
M  V30 1308 C 116.255 -0.296122 -2.27279 0
M  V30 1309 C 117.255 0.541458 -1.5141 0
M  V30 1310 O 118.445 0.353658 -1.70572 0
M  V30 1311 C 115.577 0.581579 -3.35902 0
M  V30 1312 H 116.77 -1.13064 -2.77771 0
M  V30 1313 H 114.323 -0.62383 -1.43311 0
M  V30 1314 H 115.058 1.43809 -2.9067 0
M  V30 1315 H 114.843 -0.0178814 -3.92096 0
M  V30 1316 H 116.333 0.961951 -4.0637 0
M  V30 1317 N 116.77 1.45427 -0.607355 0
M  V30 1318 C 117.733 2.28974 0.101693 0
M  V30 1319 C 118.733 1.39754 0.795329 0
M  V30 1320 O 119.923 1.61878 0.643527 0
M  V30 1321 C 117.055 3.20768 1.15414 0
M  V30 1322 H 118.248 2.93147 -0.632844 0
M  V30 1323 H 115.801 1.51945 -0.366391 0
M  V30 1324 H 116.536 2.61395 1.91945 0
M  V30 1325 H 116.321 3.86489 0.66098 0
M  V30 1326 H 117.811 3.83589 1.65073 0
M  V30 1327 N 118.248 0.346503 1.53744 0
M  V30 1328 C 119.664 -0.00530975 1.59599 0
M  V30 1329 C 119.864 -1.48465 1.36236 0
M  V30 1330 O 118.92 -2.24376 1.15808 0
M  V30 1331 C 120.233 0.433516 2.97559 0
M  V30 1332 C 121.781 0.386111 3.10609 0
M  V30 1333 C 122.256 0.800451 4.50951 0
M  V30 1334 N 123.747 0.754753 4.5701 0
M  V30 1335 C 124.482 1.04727 5.63755 0
M  V30 1336 N 123.978 1.4081 6.7834 0
M  V30 1337 N 125.771 0.971316 5.53644 0
M  V30 1338 H 117.922 1.31009 1.67184 0
M  V30 1339 H 120.185 0.534242 0.783128 0
M  V30 1340 H 119.891 1.46509 3.19731 0
M  V30 1341 H 119.765 -0.189753 3.76722 0
M  V30 1342 H 122.152 -0.636295 2.88158 0
M  V30 1343 H 122.233 1.04462 2.33498 0
M  V30 1344 H 121.877 1.82088 4.74137 0
M  V30 1345 H 121.807 0.119386 5.26465 0
M  V30 1346 H 124.298 0.488662 3.74727 0
M  V30 1347 H 124.611 1.61607 7.55714 0
M  V30 1348 H 122.956 1.44657 6.79779 0
M  V30 1349 H 126.147 0.688748 4.63005 0
M  V30 1350 H 126.32 1.20263 6.36742 0
M  V30 1351 N 119.726 -1.57421 0.075193 0
M  V30 1352 C 120.636 -2.1642 -0.905511 0
M  V30 1353 C 121.652 -1.12828 -1.32461 0
M  V30 1354 O 122.828 -1.45109 -1.39661 0
M  V30 1355 C 119.893 -2.71693 -2.15369 0
M  V30 1356 C 118.954 -3.90171 -1.79068 0
M  V30 1357 C 118.187 -4.42798 -2.97936 0
M  V30 1358 O 118.41 -3.94416 -4.12058 0
M  V30 1359 O 117.344 -5.34085 -2.77555 0
M  V30 1360 H 121.17 -3.00588 -0.433626 0
M  V30 1361 H 118.755 -1.48664 -0.148067 0
M  V30 1362 H 120.637 -3.07104 -2.88557 0
M  V30 1363 H 119.312 -1.90582 -2.61649 0
M  V30 1364 H 118.219 -3.59606 -1.03122 0
M  V30 1365 H 119.552 -4.72584 -1.37569 0
M  V30 1366 N 121.204 0.198386 -1.56346 0
M  V30 1367 C 122.62 0.549085 -1.49857 0
M  V30 1368 C 122.82 1.86016 -0.774611 0
M  V30 1369 O 121.876 2.50416 -0.323776 0
M  V30 1370 C 123.189 0.606868 -2.94512 0
M  V30 1371 C 124.737 0.695925 -3.05165 0
M  V30 1372 C 125.212 0.784848 -4.51225 0
M  V30 1373 N 126.703 0.848463 -4.55363 0
M  V30 1374 C 127.438 0.937378 -5.65686 0
M  V30 1375 N 126.934 0.9888 -6.85707 0
M  V30 1376 N 128.727 0.974312 -5.53592 0
M  V30 1377 H 120.878 -0.661655 -2.01831 0
M  V30 1378 H 123.141 -0.235261 -0.918344 0
M  V30 1379 H 122.847 -0.28732 -3.50524 0
M  V30 1380 H 122.721 1.46268 -3.47686 0
M  V30 1381 H 125.108 1.58055 -2.49204 0
M  V30 1382 H 125.189 -0.186022 -2.55123 0
M  V30 1383 H 124.833 -0.0954072 -5.0781 0
M  V30 1384 H 124.763 1.68255 -4.98997 0
M  V30 1385 H 127.254 0.818103 -3.68938 0
M  V30 1386 H 127.567 1.05707 -7.65536 0
M  V30 1387 H 125.912 0.957534 -6.88372 0
M  V30 1388 H 129.103 0.930954 -4.58749 0
M  V30 1389 H 129.276 1.04015 -6.39597 0
M  V30 1390 N 122.682 1.50554 0.465978 0
M  V30 1391 C 123.615 1.64436 1.58227 0
M  V30 1392 C 124.593 0.492367 1.54966 0
M  V30 1393 O 125.777 0.712536 1.74514 0
M  V30 1394 C 122.904 1.63165 2.96808 0
M  V30 1395 C 121.95 2.83987 3.18204 0
M  V30 1396 S 122.783 4.45219 2.97557 0
M  V30 1397 C 123.939 4.46649 4.3847 0
M  V30 1398 H 124.172 2.58861 1.46213 0
M  V30 1399 H 121.705 1.3988 0.653678 0
M  V30 1400 H 123.663 1.63116 3.76701 0
M  V30 1401 H 122.324 0.69967 3.06208 0
M  V30 1402 H 121.517 2.79416 4.19455 0
M  V30 1403 H 121.119 2.81629 2.46092 0
M  V30 1404 H 123.411 4.20526 5.31191 0
M  V30 1405 H 124.354 5.48295 4.48082 0
M  V30 1406 H 124.762 3.76296 4.20787 0
M  V30 1407 N 124.16 -0.719506 1.40217 0
M  V30 1408 C 125.407 -1.47933 1.38283 0
M  V30 1409 C 125.735 -1.94493 -0.0161536 0
M  V30 1410 O 124.99 -1.68224 -0.999956 0
M  V30 1411 C 125.289 -2.72271 2.31524 0
M  V30 1412 C 124.955 -2.44496 3.78857 0
M  V30 1413 C 123.617 -2.36631 4.18998 0
M  V30 1414 C 125.969 -2.21104 4.71977 0
M  V30 1415 C 123.297 -2.03437 5.503 0
M  V30 1416 C 125.649 -1.89423 6.03574 0
M  V30 1417 C 124.313 -1.80038 6.42762 0
M  V30 1418 H 123.583 -0.541325 0.506012 0
M  V30 1419 H 126.23 -0.824502 1.72842 0
M  V30 1420 H 124.535 -3.42572 1.90137 0
M  V30 1421 H 126.232 -3.30348 2.27313 0
M  V30 1422 H 122.822 -2.51503 3.47051 0
M  V30 1423 H 127.006 -2.26139 4.41786 0
M  V30 1424 H 122.262 -1.94705 5.79569 0
M  V30 1425 H 126.436 -1.70336 6.75247 0
M  V30 1426 H 124.063 -1.54083 7.44421 0
M  V30 1427 N 125.638 -1.25649 -0.95132 0
M  V30 1428 C 126.586 -1.06118 -2.06982 0
M  V30 1429 C 127.58 0.00889169 -1.69398 0
M  V30 1430 O 128.786 -0.146988 -1.79399 0
M  V30 1431 H 125.161 -0.326248 -0.677544 0
M  V30 1432 H 127.132 -2.00932 -2.2061 0
M  V30 1433 C 125.881 -0.700145 -3.40578 0
M  V30 1434 H 125.204 -1.51537 -3.69968 0
M  V30 1435 H 126.644 -0.603211 -4.19687 0
M  V30 1436 C 125.103 0.59403 -3.31622 0
M  V30 1437 O 125.633 1.63522 -3.66911 0
M  V30 1438 N 123.839 0.58089 -2.84735 0
M  V30 1439 H 123.386 -0.266783 -2.56215 0
M  V30 1440 H 123.344 1.44695 -2.79125 0
M  V30 1441 N 127.117 1.15442 -1.07289 0
M  V30 1442 C 128.365 1.85845 -0.794096 0
M  V30 1443 C 128.686 1.82692 0.681809 0
M  V30 1444 O 127.956 1.26741 1.49377 0
M  V30 1445 H 126.536 0.688089 -0.290763 0
M  V30 1446 H 129.198 1.39947 -1.3565 0
M  V30 1447 H 128.294 2.91001 -1.12804 0
M  V30 1448 N 128.595 0.856903 1.32268 0
M  V30 1449 C 129.505 0.306131 2.32594 0
M  V30 1450 C 130.521 -0.577209 1.64147 0
M  V30 1451 O 131.697 -0.477043 1.95669 0
M  V30 1452 C 128.762 -0.494561 3.43154 0
M  V30 1453 C 127.823 0.415186 4.27288 0
M  V30 1454 C 127.056 -0.347387 5.32568 0
M  V30 1455 O 127.279 -1.57708 5.48165 0
M  V30 1456 O 126.213 0.287982 6.01211 0
M  V30 1457 H 130.039 1.13737 2.81598 0
M  V30 1458 H 127.624 0.619902 1.35932 0
M  V30 1459 H 129.506 -0.948944 4.10576 0
M  V30 1460 H 128.181 -1.30257 2.96336 0
M  V30 1461 H 127.088 0.917793 3.62667 0
M  V30 1462 H 128.421 1.18844 4.77637 0
M  V30 1463 N 130.073 -1.45103 0.615059 0
M  V30 1464 C 131.02 -2.30586 -0.0993978 0
M  V30 1465 C 131.99 -1.42544 -0.852669 0
M  V30 1466 O 133.175 -1.71465 -0.836917 0
M  V30 1467 C 130.315 -3.27572 -1.08583 0
M  V30 1468 C 129.428 -4.30717 -0.332656 0
M  V30 1469 C 128.563 -5.14807 -1.30947 0
M  V30 1470 C 127.602 -6.09673 -0.544538 0
M  V30 1471 N 126.739 -6.86517 -1.47101 0
M  V30 1472 H 131.579 -2.91144 0.635542 0
M  V30 1473 H 129.116 -1.4346 0.325206 0
M  V30 1474 H 131.074 -3.82276 -1.67095 0
M  V30 1475 H 129.704 -2.68751 -1.78809 0
M  V30 1476 H 128.756 -3.78615 0.368107 0
M  V30 1477 H 130.068 -4.98102 0.263842 0
M  V30 1478 H 129.222 -5.73948 -1.96643 0
M  V30 1479 H 127.961 -4.47458 -1.9399 0
M  V30 1480 H 126.966 -5.49656 0.126003 0
M  V30 1481 H 128.191 -6.79052 0.080947 0
M  V30 1482 H 126.137 -6.21851 -2.08895 0
M  V30 1483 H 126.054 -7.50281 -0.928137 0
M  V30 1484 H 127.322 -7.50194 -2.11731 0
M  V30 1485 N 131.551 -0.354651 -1.53558 0
M  V30 1486 C 132.8 0.239504 -2.00273 0
M  V30 1487 C 133.113 1.50759 -1.24623 0
M  V30 1488 O 134.319 2.17968 -1.61871 0
M  V30 1489 C 132.775 0.477341 -3.5672 0
M  V30 1490 C 132.383 -0.775488 -4.41237 0
M  V30 1491 C 134.127 1.02975 -4.11821 0
M  V30 1492 C 132.034 -0.507838 -5.89216 0
M  V30 1493 H 130.964 0.0932743 -0.748208 0
M  V30 1494 H 133.615 -0.471701 -1.77334 0
M  V30 1495 H 131.997 1.24953 -3.7577 0
M  V30 1496 H 133.171 -1.54963 -4.33962 0
M  V30 1497 H 131.486 -1.25033 -3.97185 0
M  V30 1498 H 134.083 1.24513 -5.2 0
M  V30 1499 H 134.426 1.98862 -3.65731 0
M  V30 1500 H 134.959 0.317994 -3.96527 0
M  V30 1501 H 131.698 -1.43674 -6.39561 0
M  V30 1502 H 131.218 0.228011 -5.99366 0
M  V30 1503 H 132.897 -0.129238 -6.46871 0
M  V30 1504 N 133.029 1.57378 -0.0835403 0
M  V30 1505 C 133.977 2.14602 0.89714 0
M  V30 1506 C 134.971 1.08589 1.30018 0
M  V30 1507 O 136.177 1.26952 1.27606 0
M  V30 1508 H 132.552 0.686346 0.3073 0
M  V30 1509 H 134.523 2.95845 0.38969 0
M  V30 1510 C 133.272 2.73188 2.15089 0
M  V30 1511 H 132.595 3.54442 1.84962 0
M  V30 1512 H 134.035 3.1681 2.81793 0
M  V30 1513 C 132.494 1.68517 2.91725 0
M  V30 1514 O 133.024 1.11718 3.85852 0
M  V30 1515 N 131.23 1.39277 2.55049 0
M  V30 1516 H 130.777 1.85655 1.78577 0
M  V30 1517 H 130.735 0.694791 3.06627 0
M  V30 1518 N 134.507 -0.190092 1.56449 0
M  V30 1519 C 135.737 -0.92443 1.84764 0
M  V30 1520 C 136.145 -1.77146 0.664529 0
M  V30 1521 O 135.488 -1.79812 -0.375957 0
M  V30 1522 C 135.55 -1.86651 3.07248 0
M  V30 1523 C 135.214 -1.20094 4.40938 0
M  V30 1524 C 136.211 -0.575445 5.16706 0
M  V30 1525 C 133.896 -1.2033 4.87674 0
M  V30 1526 C 135.89 0.0388111 6.37388 0
M  V30 1527 C 133.577 -0.585214 6.08291 0
M  V30 1528 C 134.575 0.0347578 6.82991 0
M  V30 1529 O 134.263 0.643147 8.01323 0
M  V30 1530 H 133.995 -0.274974 0.617548 0
M  V30 1531 H 136.549 -0.200788 2.04416 0
M  V30 1532 H 134.779 -2.62998 2.83494 0
M  V30 1533 H 136.468 -2.46907 3.22167 0
M  V30 1534 H 137.234 -0.565728 4.81689 0
M  V30 1535 H 133.113 -1.67526 4.29484 0
M  V30 1536 H 136.657 0.523329 6.95634 0
M  V30 1537 H 132.554 -0.592451 6.42775 0
M  V30 1538 H 133.322 0.540545 8.16713 0
M  V30 1539 N 135.985 -1.50799 -0.457987 0
M  V30 1540 C 137.213 -1.66218 -1.23203 0
M  V30 1541 C 137.628 -0.350894 -1.85511 0
M  V30 1542 O 136.985 0.668546 -1.69814 0
M  V30 1543 C 137.036 -2.76291 -2.33121 0
M  V30 1544 O 136.757 -4.02338 -1.73366 0
M  V30 1545 C 138.258 -3.028 -3.2377 0
M  V30 1546 H 135.478 -0.558361 -0.372121 0
M  V30 1547 H 138.022 -1.97099 -0.545179 0
M  V30 1548 H 136.177 -2.48068 -2.97558 0
M  V30 1549 H 136.591 -4.63312 -2.4585 0
M  V30 1550 H 138.065 -3.8345 -3.97077 0
M  V30 1551 H 138.542 -2.14385 -3.83322 0
M  V30 1552 H 139.148 -3.32604 -2.65056 0
M  V30 1553 N 137.463 0.71206 -1.40597 0
M  V30 1554 C 138.373 1.8562 -1.43466 0
M  V30 1555 C 139.389 1.70902 -0.326902 0
M  V30 1556 O 140.565 1.93105 -0.572043 0
M  V30 1557 C 137.63 3.21451 -1.29884 0
M  V30 1558 C 136.691 3.48398 -2.50833 0
M  V30 1559 C 135.924 4.77749 -2.3789 0
M  V30 1560 O 136.147 5.53089 -1.39459 0
M  V30 1561 O 135.081 5.05111 -3.27333 0
M  V30 1562 H 138.907 1.86155 -2.39958 0
M  V30 1563 H 136.492 0.86295 -1.21957 0
M  V30 1564 H 138.374 4.02579 -1.24531 0
M  V30 1565 H 137.049 3.21636 -0.364997 0
M  V30 1566 H 135.956 2.67265 -2.61763 0
M  V30 1567 H 137.289 3.53014 -3.4299 0
M  V30 1568 N 138.941 1.26152 0.944643 0
M  V30 1569 C 140.189 1.11271 1.6871 0
M  V30 1570 C 140.51 -0.345166 1.91921 0
M  V30 1571 O 139.78 -1.24387 1.51343 0
M  V30 1572 H 138.36 0.408783 0.625224 0
M  V30 1573 H 141.022 1.58427 1.1352 0
M  V30 1574 H 140.118 1.62879 2.66227 0
M  V30 1575 N 140.419 -1.14872 1.07899 0
M  V30 1576 C 141.835 -1.37776 0.805606 0
M  V30 1577 C 142.035 -1.92743 -0.587555 0
M  V30 1578 O 141.091 -2.13678 -1.34528 0
M  V30 1579 C 142.404 -2.34361 1.88402 0
M  V30 1580 C 143.952 -2.48012 1.90942 0
M  V30 1581 C 144.427 -3.47893 2.97883 0
M  V30 1582 N 145.918 -3.55433 2.97021 0
M  V30 1583 C 146.653 -4.32553 3.76412 0
M  V30 1584 N 146.149 -5.12959 4.65666 0
M  V30 1585 N 147.942 -4.27697 3.64735 0
M  V30 1586 H 140.093 -0.775365 1.97742 0
M  V30 1587 H 142.356 -0.403521 0.857831 0
M  V30 1588 H 142.062 -2.01098 2.88535 0
M  V30 1589 H 141.936 -3.34206 1.74889 0
M  V30 1590 H 144.323 -2.8057 0.914579 0
M  V30 1591 H 144.404 -1.48147 2.08534 0
M  V30 1592 H 144.048 -3.16069 3.97571 0
M  V30 1593 H 143.978 -4.47527 2.77538 0
M  V30 1594 H 146.469 -2.98048 2.32326 0
M  V30 1595 H 146.782 -5.69065 5.22862 0
M  V30 1596 H 145.127 -5.12245 4.69712 0
M  V30 1597 H 148.318 -3.63949 2.94378 0
M  V30 1598 H 148.491 -4.8755 4.26848 0
M  V30 1599 N 141.898 -0.863906 -1.31812 0
M  V30 1600 C 142.861 -0.320212 -2.26952 0
M  V30 1601 C 143.861 0.525369 -1.51975 0
M  V30 1602 O 145.051 0.335547 -1.70938 0
M  V30 1603 C 142.183 0.545919 -3.365 0
M  V30 1604 H 143.376 -1.16004 -2.76556 0
M  V30 1605 H 140.929 -0.638995 -1.42641 0
M  V30 1606 H 141.664 1.40718 -2.92179 0
M  V30 1607 H 141.449 -0.0594674 -3.92055 0
M  V30 1608 H 142.939 0.918796 -4.07367 0
M  V30 1609 N 143.376 1.44774 -0.622745 0
M  V30 1610 C 144.622 2.0242 -0.124083 0
M  V30 1611 C 144.955 1.4881 1.24777 0
M  V30 1612 O 144.23 0.668799 1.8264 0
M  V30 1613 C 144.513 3.59957 -0.101619 0
M  V30 1614 C 144.366 4.23867 -1.50521 0
M  V30 1615 C 145.685 4.36284 0.578272 0
M  V30 1616 H 142.804 0.735528 -0.0465645 0
M  V30 1617 H 145.446 1.72447 -0.797617 0
M  V30 1618 H 143.596 3.85623 0.471934 0
M  V30 1619 H 145.268 4.09336 -2.12701 0
M  V30 1620 H 143.511 3.81684 -2.06154 0
M  V30 1621 H 144.182 5.32843 -1.4416 0
M  V30 1622 H 146.658 4.16001 0.0906057 0
M  V30 1623 H 145.534 5.46004 0.563149 0
M  V30 1624 H 145.795 4.10271 1.64713 0
M  V30 1625 N 144.854 0.36279 1.53368 0
M  V30 1626 C 145.784 -0.476976 2.28576 0
M  V30 1627 C 146.765 -1.08631 1.30894 0
M  V30 1628 O 147.95 -1.10409 1.59761 0
M  V30 1629 C 145.08 -1.61828 3.07293 0
M  V30 1630 C 144.034 -1.13633 4.1264 0
M  V30 1631 C 143.36 -2.36766 4.79423 0
M  V30 1632 C 144.66 -0.223061 5.21823 0
M  V30 1633 H 146.354 0.150474 2.99022 0
M  V30 1634 H 143.9 0.0738103 1.43811 0
M  V30 1635 H 145.853 -2.21237 3.58653 0
M  V30 1636 H 144.577 -2.27292 2.34533 0
M  V30 1637 H 143.236 -0.564945 3.62221 0
M  V30 1638 H 142.884 -3.0068 4.03238 0
M  V30 1639 H 142.584 -2.05192 5.50609 0
M  V30 1640 H 144.108 -2.96865 5.33576 0
M  V30 1641 H 145.522 -0.724545 5.68703 0
M  V30 1642 H 143.919 0.001678 6.001 0
M  V30 1643 H 144.989 0.735553 4.79289 0
M  V30 1644 N 146.332 -1.57332 0.0918853 0
M  V30 1645 C 147.282 -2.10385 -0.87876 0
M  V30 1646 C 148.266 -1.01814 -1.24591 0
M  V30 1647 O 149.458 -1.28093 -1.22152 0
M  V30 1648 C 146.587 -2.68517 -2.13901 0
M  V30 1649 C 145.673 -3.84126 -1.79744 0
M  V30 1650 N 146.064 -4.92288 -1.1613 0
M  V30 1651 C 144.362 -3.93801 -2.09373 0
M  V30 1652 C 145.063 -5.7295 -1.00513 0
M  V30 1653 N 144.039 -5.21876 -1.5214 0
M  V30 1654 H 147.841 -2.91395 -0.38293 0
M  V30 1655 H 145.355 -1.62017 -0.111423 0
M  V30 1656 H 147.352 -3.04852 -2.84378 0
M  V30 1657 H 146.012 -1.88961 -2.64053 0
M  V30 1658 H 147.023 -5.1123 -0.828504 0
M  V30 1659 H 143.7 -3.25249 -2.61762 0
M  V30 1660 H 145.09 -6.69978 -0.507902 0
M  V30 1661 N 147.81 0.181792 -1.56548 0
M  V30 1662 C 149.056 0.901431 -1.81665 0
M  V30 1663 C 149.389 1.82347 -0.668075 0
M  V30 1664 O 148.664 1.91669 0.330615 0
M  V30 1665 C 148.947 1.70618 -3.17115 0
M  V30 1666 C 148.8 0.807964 -4.42484 0
M  V30 1667 C 150.119 2.67605 -3.49393 0
M  V30 1668 H 147.238 0.32627 -0.660846 0
M  V30 1669 H 149.88 0.168134 -1.89255 0
M  V30 1670 H 148.03 2.33133 -3.10775 0
M  V30 1671 H 149.702 0.19649 -4.60881 0
M  V30 1672 H 147.945 0.115411 -4.33646 0
M  V30 1673 H 148.616 1.40632 -5.33785 0
M  V30 1674 H 151.092 2.15218 -3.56118 0
M  V30 1675 H 149.968 3.20985 -4.45264 0
M  V30 1676 H 150.229 3.47298 -2.73563 0
M  V30 1677 N 149.288 1.51039 0.449983 0
M  V30 1678 C 150.251 1.70863 1.5277 0
M  V30 1679 C 151.251 0.578846 1.5002 0
M  V30 1680 O 152.441 0.846213 1.52266 0
M  V30 1681 C 149.573 1.75341 2.9235 0
M  V30 1682 H 150.766 2.67034 1.36502 0
M  V30 1683 H 148.319 1.40838 0.677812 0
M  V30 1684 H 149.054 0.809383 3.14037 0
M  V30 1685 H 148.839 2.57436 2.95752 0
M  V30 1686 H 150.329 1.92559 3.70555 0
M  V30 1687 N 150.766 -0.704594 1.40972 0
M  V30 1688 C 151.696 -1.83124 1.44872 0
M  V30 1689 C 152.677 -1.67281 0.30838 0
M  V30 1690 O 153.862 -1.87149 0.518556 0
M  V30 1691 C 150.992 -3.21181 1.32136 0
M  V30 1692 C 149.946 -3.51714 2.43888 0
M  V30 1693 C 149.272 -4.89032 2.16222 0
M  V30 1694 C 150.572 -3.516 3.86232 0
M  V30 1695 H 152.266 -1.80117 2.39161 0
M  V30 1696 H 149.812 -0.865145 1.15114 0
M  V30 1697 H 151.765 -3.99702 1.33479 0
M  V30 1698 H 150.489 -3.24791 0.343279 0
M  V30 1699 H 149.148 -2.75539 2.41813 0
M  V30 1700 H 148.796 -4.89256 1.16778 0
M  V30 1701 H 148.496 -5.10426 2.911 0
M  V30 1702 H 150.02 -5.69873 2.19265 0
M  V30 1703 H 151.434 -4.2014 3.9007 0
M  V30 1704 H 149.831 -3.84523 4.60719 0
M  V30 1705 H 150.901 -2.50757 4.15029 0
M  V30 1706 N 152.244 -1.26651 -0.937939 0
M  V30 1707 C 153.66 -1.03834 -1.21205 0
M  V30 1708 C 153.86 0.234502 -2.00131 0
M  V30 1709 O 152.916 0.942767 -2.3424 0
M  V30 1710 C 154.229 -2.27167 -1.97017 0
M  V30 1711 C 155.777 -2.32101 -2.09996 0
M  V30 1712 C 156.252 -3.55136 -2.8921 0
M  V30 1713 N 157.743 -3.55632 -2.96783 0
M  V30 1714 C 158.478 -4.475 -3.58512 0
M  V30 1715 N 157.974 -5.4966 -4.21717 0
M  V30 1716 N 159.767 -4.35145 -3.55816 0
M  V30 1717 H 151.918 -2.08398 -0.410391 0
M  V30 1718 H 154.181 -0.916031 -0.244114 0
M  V30 1719 H 153.887 -3.19765 -1.46434 0
M  V30 1720 H 153.761 -2.31672 -2.97671 0
M  V30 1721 H 156.148 -1.40015 -2.59769 0
M  V30 1722 H 156.229 -2.31605 -1.08594 0
M  V30 1723 H 155.873 -4.47553 -2.40123 0
M  V30 1724 H 155.803 -3.5288 -3.90875 0
M  V30 1725 H 158.294 -2.81743 -2.51852 0
M  V30 1726 H 158.607 -6.15943 -4.66727 0
M  V30 1727 H 156.952 -5.53514 -4.20294 0
M  V30 1728 H 160.143 -3.5455 -3.05634 0
M  V30 1729 H 160.316 -5.06934 -4.03636 0
M  V30 1730 N 153.722 1.14298 -1.08507 0
M  V30 1731 C 154.67 2.21483 -0.710483 0
M  V30 1732 C 155.664 1.66998 0.284234 0
M  V30 1733 O 156.87 1.79401 0.146692 0
M  V30 1734 H 153.245 0.721578 -0.211729 0
M  V30 1735 H 155.216 2.50348 -1.62384 0
M  V30 1736 C 153.965 3.4743 -0.137007 0
M  V30 1737 H 153.288 3.89686 -0.893592 0
M  V30 1738 H 154.728 4.2391 0.0872789 0
M  V30 1739 C 153.187 3.17548 1.12538 0
M  V30 1740 O 153.717 3.35437 2.21009 0
M  V30 1741 N 151.923 2.71499 1.03617 0
M  V30 1742 H 151.47 2.57143 0.153403 0
M  V30 1743 H 151.428 2.51881 1.88158 0
M  V30 1744 N 155.201 0.870884 1.31352 0
M  V30 1745 C 156.617 0.562932 1.49343 0
M  V30 1746 C 156.817 -0.902725 1.80148 0
M  V30 1747 O 155.873 -1.68484 1.88067 0
M  V30 1748 C 157.186 1.46393 2.62659 0
M  V30 1749 C 158.734 1.46607 2.76542 0
M  V30 1750 C 159.209 2.35266 3.92955 0
M  V30 1751 N 160.7 2.33151 4.00243 0
M  V30 1752 C 161.435 2.98471 4.89594 0
M  V30 1753 N 160.931 3.72964 5.8384 0
M  V30 1754 N 162.724 2.87775 4.82848 0
M  V30 1755 H 154.875 1.81923 1.09626 0
M  V30 1756 H 157.138 0.777934 0.541777 0
M  V30 1757 H 156.844 2.50689 2.46674 0
M  V30 1758 H 156.718 1.16314 3.58819 0
M  V30 1759 H 159.105 0.43069 2.9194 0
M  V30 1760 H 159.186 1.8071 1.81046 0
M  V30 1761 H 158.83 3.38881 3.78315 0
M  V30 1762 H 158.76 1.98487 4.87761 0
M  V30 1763 H 161.251 1.79006 3.32814 0
M  V30 1764 H 161.564 4.19932 6.4875 0
M  V30 1765 H 159.909 3.77073 5.83816 0
M  V30 1766 H 163.1 2.29116 4.08195 0
M  V30 1767 H 163.273 3.38961 5.52277 0
M  V30 1768 N 156.679 -1.44442 0.630414 0
M  V30 1769 C 157.904 -2.06927 0.139944 0
M  V30 1770 C 158.329 -1.46795 -1.17613 0
M  V30 1771 O 157.687 -0.569144 -1.72135 0
M  V30 1772 C 157.735 -3.6058 0.0379581 0
M  V30 1773 O 156.839 -3.99937 -1.0062 0
M  V30 1774 H 156.18 -0.658608 0.0844483 0
M  V30 1775 H 158.71 -1.85327 0.866891 0
M  V30 1776 H 158.72 -4.07714 -0.152856 0
M  V30 1777 H 157.395 -4.03728 0.998809 0
M  V30 1778 H 155.972 -3.64436 -0.79001 0
M  V30 1779 N 158.157 -0.370918 -1.53173 0
M  V30 1780 C 159.105 0.488101 -2.27421 0
M  V30 1781 C 160.099 1.07884 -1.30604 0
M  V30 1782 O 161.305 1.02143 -1.48212 0
M  V30 1783 H 157.68 0.176134 -0.731082 0
M  V30 1784 H 159.651 -0.159815 -2.97972 0
M  V30 1785 C 158.4 1.61306 -3.08019 0
M  V30 1786 H 157.723 1.1678 -3.82364 0
M  V30 1787 H 159.163 2.18872 -3.63141 0
M  V30 1788 C 157.622 2.55848 -2.19188 0
M  V30 1789 O 158.152 3.58799 -1.80626 0
M  V30 1790 N 156.358 2.2516 -1.83715 0
M  V30 1791 H 155.905 1.41476 -2.15273 0
M  V30 1792 H 155.863 2.8867 -1.24567 0
M  V30 1793 N 159.635 1.57281 -0.100228 0
M  V30 1794 C 160.863 1.98879 0.570509 0
M  V30 1795 C 161.278 0.979476 1.61405 0
M  V30 1796 O 160.635 -0.0302288 1.82475 0
M  V30 1797 C 160.686 3.4052 1.2136 0
M  V30 1798 O 160.407 4.37588 0.211786 0
M  V30 1799 C 161.908 3.97149 1.96945 0
M  V30 1800 H 159.128 0.653428 0.152555 0
M  V30 1801 H 161.672 2.03697 -0.18103 0
M  V30 1802 H 159.827 3.367 1.91603 0
M  V30 1803 H 160.241 5.20118 0.676607 0
M  V30 1804 H 161.715 4.98393 2.37294 0
M  V30 1805 H 162.192 3.3525 2.83733 0
M  V30 1806 H 162.798 4.04458 1.31506 0
M  V30 1807 N 161.113 -0.173488 1.56642 0
M  V30 1808 C 162.524 -0.736155 1.71574 0
M  V30 1809 C 162.875 -1.82888 0.710389 0
M  V30 1810 O 162 -2.16017 -0.1287 0
M  V30 1811 C 162.595 -1.34211 3.11083 0
M  V30 1812 C 161.154 -1.85162 3.27707 0
M  V30 1813 C 160.301 -0.729765 2.67525 0
M  V30 1814 H 163.252 0.0518786 1.58615 0
M  V30 1815 H 163.273 -2.21178 3.09613 0
M  V30 1816 H 162.785 -0.546579 3.84232 0
M  V30 1817 H 160.886 -2.67366 2.59512 0
M  V30 1818 H 160.999 -1.99855 4.35425 0
M  V30 1819 H 159.363 -1.14965 2.27278 0
M  V30 1820 H 160.146 0.0538806 3.43258 0
M  V30 1821 N 162.591 -1.51276 -0.441967 0
M  V30 1822 C 163.84 -1.6295 -1.18871 0
M  V30 1823 C 164.153 -0.349312 -1.92456 0
M  V30 1824 O 165.359 -0.345355 -2.69295 0
M  V30 1825 C 163.815 -2.87759 -2.16155 0
M  V30 1826 C 163.423 -4.22764 -1.48239 0
M  V30 1827 C 165.167 -3.08788 -2.91291 0
M  V30 1828 C 163.074 -5.38728 -2.4398 0
M  V30 1829 H 162.004 -0.606913 -0.447406 0
M  V30 1830 H 164.655 -1.77739 -0.456205 0
M  V30 1831 H 163.037 -2.66593 -2.92821 0
M  V30 1832 H 164.211 -4.54293 -0.771635 0
M  V30 1833 H 162.526 -4.07575 -0.852741 0
M  V30 1834 H 165.123 -3.92599 -3.63002 0
M  V30 1835 H 165.466 -2.21679 -3.5237 0
M  V30 1836 H 165.999 -3.30272 -2.21733 0
M  V30 1837 H 162.738 -6.28082 -1.87598 0
M  V30 1838 H 162.258 -5.1158 -3.13123 0
M  V30 1839 H 163.937 -5.70489 -3.05207 0
M  V30 1840 N 164.069 0.697108 -1.41344 0
M  V30 1841 C 164.999 1.82353 -1.45841 0
M  V30 1842 C 165.98 1.67115 -0.317247 0
M  V30 1843 O 167.165 1.86871 -0.528474 0
M  V30 1844 C 164.295 3.20476 -1.33838 0
M  V30 1845 C 163.249 3.50415 -2.4575 0
M  V30 1846 C 162.575 4.87878 -2.18813 0
M  V30 1847 C 163.875 3.49546 -3.88091 0
M  V30 1848 H 165.569 1.78846 -2.40113 0
M  V30 1849 H 163.115 0.859028 -1.15571 0
M  V30 1850 H 165.068 3.98988 -1.35596 0
M  V30 1851 H 163.792 3.24604 -0.360498 0
M  V30 1852 H 162.451 2.74253 -2.43271 0
M  V30 1853 H 162.099 4.8863 -1.19371 0
M  V30 1854 H 161.799 5.08875 -2.93803 0
M  V30 1855 H 163.323 5.68702 -2.22284 0
M  V30 1856 H 164.737 4.18066 -3.92293 0
M  V30 1857 H 163.134 3.82075 -4.62751 0
M  V30 1858 H 164.204 2.48552 -4.16353 0
M  V30 1859 N 165.547 1.27147 0.931209 0
M  V30 1860 C 166.793 1.13446 1.68101 0
M  V30 1861 C 167.126 -0.319628 1.91552 0
M  V30 1862 O 166.401 -1.23407 1.50336 0
M  V30 1863 C 166.684 1.91482 3.0497 0
M  V30 1864 C 166.537 3.44855 2.88782 0
M  V30 1865 C 167.856 1.71651 4.05246 0
M  V30 1866 H 164.975 0.413498 0.610072 0
M  V30 1867 H 167.617 1.56261 1.08086 0
M  V30 1868 H 165.767 1.55095 3.56199 0
M  V30 1869 H 167.439 3.9105 2.44698 0
M  V30 1870 H 165.682 3.71373 2.24198 0
M  V30 1871 H 166.353 3.94694 3.85902 0
M  V30 1872 H 168.829 2.0337 3.63015 0
M  V30 1873 H 167.705 2.28651 4.99009 0
M  V30 1874 H 167.966 0.663555 4.37092 0
M  V30 1875 N 167.025 -1.13721 1.09112 0
M  V30 1876 C 168.302 -1.81155 0.737706 0
M  V30 1877 C 168.682 -1.96253 -0.777683 0
M  V30 1878 O 168.03 -1.52807 -1.69889 0
M  V30 1879 C 168.24 -3.16392 1.47299 0
M  V30 1880 C 169.588 -3.91787 1.63671 0
M  V30 1881 O 170.612 -3.26005 1.43524 0
M  V30 1882 O 169.471 -5.0977 1.96969 0
M  V30 1883 H 166.565 -0.783518 0.26463 0
M  V30 1884 H 169.111 -1.20676 1.19312 0
M  V30 1885 H 167.883 -3.0061 2.50498 0
M  V30 1886 H 167.506 -3.8457 1.00953 0
M  V30 1887 N 168.503 -0.877838 -1.30888 0
M  V30 1888 C 169.751 -0.491723 -1.96027 0
M  V30 1889 C 170.072 0.960827 -1.69685 0
M  V30 1890 O 169.342 1.67462 -1.01654 0
M  V30 1891 H 167.922 -0.17885 -0.725273 0
M  V30 1892 H 170.584 -1.11935 -1.59551 0
M  V30 1893 H 169.68 -0.656016 -3.05128 0
M  V30 1894 N 169.982 1.44106 -0.638065 0
M  V30 1895 C 170.929 2.30715 0.062701 0
M  V30 1896 C 171.899 1.43882 0.829883 0
M  V30 1897 O 173.084 1.72775 0.809532 0
M  V30 1898 C 170.224 3.29258 1.03358 0
M  V30 1899 C 169.337 4.31192 0.26409 0
M  V30 1900 C 168.472 5.16825 1.22741 0
M  V30 1901 C 167.511 6.10462 0.447475 0
M  V30 1902 N 166.648 6.8877 1.36161 0
M  V30 1903 H 171.488 2.90096 -0.681781 0
M  V30 1904 H 169.025 1.42925 -0.347988 0
M  V30 1905 H 170.983 3.84886 1.60992 0
M  V30 1906 H 169.613 2.71562 1.74511 0
M  V30 1907 H 168.665 3.77981 -0.428295 0
M  V30 1908 H 169.977 4.97619 -0.343052 0
M  V30 1909 H 169.131 5.77004 1.87487 0
M  V30 1910 H 167.87 4.50488 1.86847 0
M  V30 1911 H 166.875 5.49386 -0.213433 0
M  V30 1912 H 168.1 6.78837 -0.188968 0
M  V30 1913 H 166.046 6.25096 1.98975 0
M  V30 1914 H 165.963 7.51663 0.808656 0
M  V30 1915 H 167.231 7.53467 1.99769 0
M  V30 1916 N 171.46 0.379036 1.52974 0
M  V30 1917 C 172.737 -0.263479 1.93817 0
M  V30 1918 C 173.117 -1.65244 1.31368 0
M  V30 1919 O 172.465 -2.23448 0.477856 0
M  V30 1920 C 172.675 -0.300166 3.47707 0
M  V30 1921 C 174.023 -0.534061 4.21228 0
M  V30 1922 O 175.047 -0.38081 3.54159 0
M  V30 1923 O 173.906 -0.833501 5.40106 0
M  V30 1924 H 171 -0.161149 0.811147 0
M  V30 1925 H 173.546 0.432798 1.64088 0
M  V30 1926 H 172.318 0.673138 3.85467 0
M  V30 1927 H 171.941 -1.04179 3.83709 0
M  V30 1928 N 172.938 -1.57226 0.108567 0
M  V30 1929 C 174.184 -1.95121 -0.552761 0
M  V30 1930 C 174.517 -0.991345 -1.66991 0
M  V30 1931 O 173.792 -0.0267211 -1.94482 0
M  V30 1932 C 174.075 -3.43039 -1.09528 0
M  V30 1933 C 173.928 -4.49797 0.0177332 0
M  V30 1934 C 175.247 -3.92567 -1.98945 0
M  V30 1935 H 172.366 -0.709496 -0.199461 0
M  V30 1936 H 175.008 -1.89126 0.182011 0
M  V30 1937 H 173.158 -3.48279 -1.72146 0
M  V30 1938 H 174.83 -4.56661 0.652584 0
M  V30 1939 H 173.073 -4.284 0.682309 0
M  V30 1940 H 173.744 -5.50528 -0.402919 0
M  V30 1941 H 176.22 -3.89565 -1.46214 0
M  V30 1942 H 175.096 -4.96605 -2.33827 0
M  V30 1943 H 175.357 -3.32648 -2.91201 0
M  V30 1944 N 174.416 0.165178 -1.56732 0
M  V30 1945 C 175.349 1.23336 -1.91998 0
M  V30 1946 C 176.327 1.42476 -0.783531 0
M  V30 1947 O 177.511 1.57384 -1.03743 0
M  V30 1948 C 174.638 2.59533 -2.17625 0
M  V30 1949 C 173.684 2.57093 -3.40302 0
M  V30 1950 S 174.517 2.05571 -4.9447 0
M  V30 1951 C 175.673 3.43532 -5.23198 0
M  V30 1952 H 175.906 0.932387 -2.82301 0
M  V30 1953 H 173.439 0.370013 -1.49901 0
M  V30 1954 H 175.397 3.37918 -2.3307 0
M  V30 1955 H 174.058 2.86827 -1.28019 0
M  V30 1956 H 173.251 3.57308 -3.55453 0
M  V30 1957 H 172.853 1.86806 -3.24005 0
M  V30 1958 H 175.145 4.39559 -5.15552 0
M  V30 1959 H 176.088 3.33251 -6.2478 0
M  V30 1960 H 176.496 3.39828 -4.50752 0
M  V30 1961 N 175.894 1.51508 0.433938 0
M  V30 1962 C 177.305 1.56784 1.01369 0
M  V30 1963 C 177.656 0.393349 1.92217 0
M  V30 1964 O 176.781 -0.489441 2.10792 0
M  V30 1965 C 177.376 2.84144 1.8452 0
M  V30 1966 C 175.935 2.9198 2.37539 0
M  V30 1967 C 175.082 2.51482 1.16843 0
M  V30 1968 H 178.033 1.57236 0.215081 0
M  V30 1969 H 178.054 2.68098 2.70007 0
M  V30 1970 H 177.566 3.69607 1.18373 0
M  V30 1971 H 175.667 2.10955 3.0713 0
M  V30 1972 H 175.78 3.95704 2.70103 0
M  V30 1973 H 174.144 2.04758 1.51481 0
M  V30 1974 H 174.927 3.39293 0.523015 0
M  V30 1975 N 177.372 -0.689602 1.41712 0
M  V30 1976 C 178.282 -1.83314 1.46401 0
M  V30 1977 C 179.298 -1.7036 0.35405 0
M  V30 1978 O 180.474 -1.92171 0.602692 0
M  V30 1979 C 177.539 -3.19344 1.34982 0
M  V30 1980 C 176.6 -3.44363 2.56344 0
M  V30 1981 C 175.833 -4.73904 2.45461 0
M  V30 1982 O 176.056 -5.508 1.48241 0
M  V30 1983 O 174.99 -4.99839 3.35328 0
M  V30 1984 H 178.816 -1.82314 2.42889 0
M  V30 1985 H 176.401 -0.843438 1.23315 0
M  V30 1986 H 178.283 -4.00547 1.3092 0
M  V30 1987 H 176.958 -3.21014 0.41612 0
M  V30 1988 H 175.865 -2.63067 2.65982 0
M  V30 1989 H 177.198 -3.47512 3.48563 0
M  V30 1990 N 178.85 -1.27639 -0.924453 0
M  V30 1991 C 180.096 -1.14336 -1.67497 0
M  V30 1992 C 180.429 0.309465 -1.91718 0
M  V30 1993 O 179.704 1.22608 -1.50989 0
M  V30 1994 C 179.987 -1.93096 -3.0395 0
M  V30 1995 C 179.84 -3.46381 -2.8695 0
M  V30 1996 C 181.159 -1.73798 -4.0433 0
M  V30 1997 H 178.278 -0.416728 -0.607871 0
M  V30 1998 H 180.92 -1.56832 -1.07256 0
M  V30 1999 H 179.07 -1.56982 -3.55372 0
M  V30 2000 H 180.742 -3.92343 -2.42621 0
M  V30 2001 H 178.985 -3.72557 -2.22225 0
M  V30 2002 H 179.656 -3.96735 -3.83804 0
M  V30 2003 H 182.132 -2.05293 -3.61931 0
M  V30 2004 H 181.008 -2.31294 -4.97789 0
M  V30 2005 H 181.269 -0.686725 -4.36734 0
M  V30 2006 N 180.328 1.1314 -1.09713 0
M  V30 2007 C 181.276 2.20717 -0.733934 0
M  V30 2008 C 182.27 1.6729 0.266506 0
M  V30 2009 O 183.476 1.79547 0.127656 0
M  V30 2010 H 179.851 0.719292 -0.21937 0
M  V30 2011 H 181.822 2.48611 -1.6503 0
M  V30 2012 C 180.571 3.47265 -0.173849 0
M  V30 2013 H 179.894 3.88716 -0.934873 0
M  V30 2014 H 181.334 4.23979 0.0423126 0
M  V30 2015 C 179.793 3.18724 1.09164 0
M  V30 2016 O 180.323 3.37762 2.17439 0
M  V30 2017 N 178.529 2.72583 1.00732 0
M  V30 2018 H 178.076 2.57291 0.126121 0
M  V30 2019 H 178.034 2.53862 1.85476 0
M  V30 2020 N 181.806 0.884767 1.30421 0
M  V30 2021 C 182.753 0.349642 2.28136 0
M  V30 2022 C 183.723 -0.560061 1.56373 0
M  V30 2023 O 184.908 -0.488524 1.8444 0
M  V30 2024 C 182.048 -0.42999 3.42411 0
M  V30 2025 C 181.161 0.508907 4.28992 0
M  V30 2026 C 180.296 -0.286301 5.30428 0
M  V30 2027 C 179.335 0.648079 6.08659 0
M  V30 2028 N 178.472 -0.111792 7.02011 0
M  V30 2029 H 183.312 1.18807 2.73293 0
M  V30 2030 H 180.849 0.597231 1.3443 0
M  V30 2031 H 182.807 -0.897923 4.07423 0
M  V30 2032 H 181.437 -1.23299 2.98324 0
M  V30 2033 H 180.489 1.09533 3.64289 0
M  V30 2034 H 181.801 1.22475 4.8353 0
M  V30 2035 H 180.955 -0.816098 6.01186 0
M  V30 2036 H 179.694 -1.03536 4.76583 0
M  V30 2037 H 178.699 1.18951 5.36778 0
M  V30 2038 H 179.924 1.39623 6.64592 0
M  V30 2039 H 177.87 -0.843395 6.50556 0
M  V30 2040 H 177.787 0.544429 7.54037 0
M  V30 2041 H 179.055 -0.622339 7.77012 0
M  V30 2042 N 183.284 -1.43765 0.645699 0
M  V30 2043 C 184.53 -2.02197 0.156271 0
M  V30 2044 C 184.863 -1.50776 -1.22393 0
M  V30 2045 O 184.138 -0.697771 -1.81553 0
M  V30 2046 C 184.421 -3.59749 0.158872 0
M  V30 2047 C 184.274 -4.21419 1.57245 0
M  V30 2048 C 185.593 -4.37149 -0.50879 0
M  V30 2049 H 182.712 -0.734694 0.0582602 0
M  V30 2050 H 185.354 -1.71157 0.824951 0
M  V30 2051 H 183.504 -3.86325 -0.410525 0
M  V30 2052 H 185.176 -4.059 2.19186 0
M  V30 2053 H 183.419 -3.78356 2.122 0
M  V30 2054 H 184.09 -5.30482 1.52619 0
M  V30 2055 H 186.566 -4.16093 -0.024412 0
M  V30 2056 H 185.442 -5.4683 -0.476213 0
M  V30 2057 H 185.703 -4.12839 -1.58165 0
M  V30 2058 N 184.763 -0.387143 -1.52771 0
M  V30 2059 C 185.693 0.440551 -2.29306 0
M  V30 2060 C 186.674 1.06535 -1.32606 0
M  V30 2061 O 187.859 1.07853 -1.61497 0
M  V30 2062 C 184.989 1.56919 -3.09829 0
M  V30 2063 C 183.943 1.07054 -4.14395 0
M  V30 2064 C 183.269 2.29109 -4.83129 0
M  V30 2065 C 184.569 0.140015 -5.22112 0
M  V30 2066 H 186.263 -0.198026 -2.98744 0
M  V30 2067 H 183.809 -0.09668 -1.43675 0
M  V30 2068 H 185.762 2.15503 -3.62128 0
M  V30 2069 H 184.486 2.23532 -2.3812 0
M  V30 2070 H 183.145 0.507247 -3.63074 0
M  V30 2071 H 182.793 2.94227 -4.0797 0
M  V30 2072 H 182.493 1.96406 -5.53804 0
M  V30 2073 H 184.017 2.88339 -5.38231 0
M  V30 2074 H 185.431 0.633978 -5.69784 0
M  V30 2075 H 183.828 -0.0971485 -6.00021 0
M  V30 2076 H 184.898 -0.811711 -4.78058 0
M  V30 2077 N 186.241 1.57166 -0.116904 0
M  V30 2078 C 187.518 1.86645 0.585049 0
M  V30 2079 C 187.898 1.0177 1.84949 0
M  V30 2080 O 187.246 0.0960379 2.28298 0
M  V30 2081 C 187.456 3.37736 0.879507 0
M  V30 2082 C 188.804 4.06289 1.23348 0
M  V30 2083 O 189.828 3.42743 0.969836 0
M  V30 2084 O 188.687 5.18455 1.7282 0
M  V30 2085 H 185.781 0.772593 0.295007 0
M  V30 2086 H 188.327 1.69025 -0.151249 0
M  V30 2087 H 187.099 3.91296 -0.0166136 0
M  V30 2088 H 186.722 3.6078 1.67103 0
M  V30 2089 N 187.719 -0.156864 1.56817 0
M  V30 2090 C 188.666 -1.19394 1.97519 0
M  V30 2091 C 189.636 -1.4322 0.841265 0
M  V30 2092 O 190.821 -1.55719 1.10255 0
M  V30 2093 C 187.961 -2.52483 2.35258 0
M  V30 2094 C 187.074 -2.35914 3.61896 0
M  V30 2095 C 186.209 -3.61969 3.88782 0
M  V30 2096 C 185.248 -3.40395 5.08722 0
M  V30 2097 N 184.385 -4.58556 5.31668 0
M  V30 2098 H 189.225 -0.839845 2.85921 0
M  V30 2099 H 186.762 -0.403264 1.41464 0
M  V30 2100 H 188.72 -3.30071 2.55165 0
M  V30 2101 H 187.35 -2.85859 1.49949 0
M  V30 2102 H 186.402 -1.49429 3.49821 0
M  V30 2103 H 187.714 -2.15926 4.49641 0
M  V30 2104 H 186.868 -4.47989 4.09135 0
M  V30 2105 H 185.607 -3.84951 2.9944 0
M  V30 2106 H 184.612 -2.52763 4.88253 0
M  V30 2107 H 185.837 -3.18822 5.99608 0
M  V30 2108 H 183.783 -4.81729 4.45279 0
M  V30 2109 H 183.7 -4.41535 6.13664 0
M  V30 2110 H 184.968 -5.45817 5.5651 0
M  V30 2111 N 189.197 -1.51736 -0.425897 0
M  V30 2112 C 190.13 -1.68574 -1.53812 0
M  V30 2113 C 191.108 -0.53328 -1.53606 0
M  V30 2114 O 192.292 -0.758555 -1.72564 0
M  V30 2115 C 189.419 -1.70977 -2.92377 0
M  V30 2116 C 188.465 -2.92324 -3.10563 0
M  V30 2117 S 189.298 -4.52952 -2.85648 0
M  V30 2118 C 190.454 -4.58117 -4.26474 0
M  V30 2119 H 190.687 -2.62647 -1.39298 0
M  V30 2120 H 188.22 -1.41564 -0.616361 0
M  V30 2121 H 190.178 -1.73047 -3.72243 0
M  V30 2122 H 188.839 -0.78061 -3.04245 0
M  V30 2123 H 188.032 -2.90439 -4.11899 0
M  V30 2124 H 187.634 -2.88055 -2.38538 0
M  V30 2125 H 189.926 -4.34462 -5.19855 0
M  V30 2126 H 190.869 -5.59983 -4.33388 0
M  V30 2127 H 191.277 -3.8732 -4.10662 0
M  V30 2128 N 190.675 0.682077 -1.42076 0
M  V30 2129 C 191.622 1.79578 -1.44984 0
M  V30 2130 C 192.592 1.6332 -0.302614 0
M  V30 2131 O 193.777 1.83978 -0.505633 0
M  V30 2132 C 190.917 3.1756 -1.35091 0
M  V30 2133 C 190.03 3.45156 -2.59791 0
M  V30 2134 C 189.165 4.72826 -2.42093 0
M  V30 2135 C 188.204 4.93433 -3.62202 0
M  V30 2136 N 187.341 6.12338 -3.43491 0
M  V30 2137 H 192.181 1.76427 -2.40161 0
M  V30 2138 H 189.718 0.861376 -1.19242 0
M  V30 2139 H 191.676 3.97287 -1.27354 0
M  V30 2140 H 190.306 3.19854 -0.435133 0
M  V30 2141 H 189.358 2.59736 -2.77923 0
M  V30 2142 H 190.67 3.5628 -3.49094 0
M  V30 2143 H 189.824 5.60631 -2.319 0
M  V30 2144 H 188.563 4.63973 -1.50268 0
M  V30 2145 H 187.568 4.04073 -3.72834 0
M  V30 2146 H 188.793 5.04136 -4.54998 0
M  V30 2147 H 186.739 6.04672 -2.54377 0
M  V30 2148 H 186.656 6.2429 -4.26377 0
M  V30 2149 H 187.924 7.02841 -3.37097 0
M  V30 2150 N 192.153 1.28127 0.917671 0
M  V30 2151 C 193.378 1.18007 1.70555 0
M  V30 2152 C 193.803 -0.258257 1.86319 0
M  V30 2153 O 193.161 -1.1869 1.37049 0
M  V30 2154 C 193.209 1.87948 3.07746 0
M  V30 2155 O 192.313 1.18427 3.9503 0
M  V30 2156 H 191.654 0.409867 0.522403 0
M  V30 2157 H 194.184 1.69379 1.1477 0
M  V30 2158 H 194.194 1.95701 3.58001 0
M  V30 2159 H 192.869 2.92573 2.95591 0
M  V30 2160 H 191.446 1.18811 3.53466 0
M  V30 2161 N 193.631 -1.12557 1.10312 0
M  V30 2162 C 194.878 -1.84038 0.844759 0
M  V30 2163 C 195.206 -1.84026 -0.629668 0
M  V30 2164 O 194.461 -1.28026 -1.48013 0
M  V30 2165 C 194.76 -3.31462 1.33669 0
M  V30 2166 C 194.426 -3.51647 2.82232 0
M  V30 2167 C 193.088 -3.56864 3.22802 0
M  V30 2168 C 195.44 -3.58867 3.77974 0
M  V30 2169 C 192.768 -3.66844 4.57867 0
M  V30 2170 C 195.12 -3.70375 5.1284 0
M  V30 2171 C 193.784 -3.73848 5.52986 0
M  V30 2172 H 193.054 -0.673444 0.309119 0
M  V30 2173 H 195.701 -1.32824 1.37949 0
M  V30 2174 H 194.006 -3.85091 0.721949 0
M  V30 2175 H 195.703 -3.85236 1.11329 0
M  V30 2176 H 192.293 -3.48249 2.49842 0
M  V30 2177 H 196.477 -3.54107 3.47738 0
M  V30 2178 H 191.733 -3.67804 4.88396 0
M  V30 2179 H 195.907 -3.74904 5.86873 0
M  V30 2180 H 193.534 -3.81333 6.57639 0
M  V30 2181 N 195.109 -0.891671 -1.2995 0
M  V30 2182 C 196.349 -0.520296 -1.97667 0
M  V30 2183 C 196.713 0.914797 -1.68806 0
M  V30 2184 O 197.914 1.39263 -2.29911 0
M  V30 2185 C 196.185 -0.795222 -3.48441 0
M  V30 2186 S 197.744 -0.526953 -4.35624 0
M  V30 2187 H 194.562 -0.19333 -0.684211 0
M  V30 2188 H 197.164 -1.15238 -1.57926 0
M  V30 2189 H 195.868 -1.83805 -3.66938 0
M  V30 2190 H 195.399 -0.15095 -3.9311 0
M  V30 2191 H 197.414 0.631533 -4.92165 0
M  V30 2192 N 196.587 1.43421 -0.653314 0
M  V30 2193 C 197.519 2.29071 0.0769134 0
M  V30 2194 C 198.532 1.42513 0.787017 0
M  V30 2195 O 199.721 1.66449 0.644757 0
M  V30 2196 C 196.821 3.19436 1.13199 0
M  V30 2197 C 195.994 4.34533 0.500006 0
M  V30 2198 C 195.053 5.05771 1.45198 0
M  V30 2199 O 194.079 5.61037 0.960538 0
M  V30 2200 N 195.281 5.0928 2.78594 0
M  V30 2201 H 198.046 2.92382 -0.658235 0
M  V30 2202 H 195.607 1.54112 -0.496104 0
M  V30 2203 H 197.599 3.63958 1.76964 0
M  V30 2204 H 196.169 2.57724 1.7691 0
M  V30 2205 H 195.389 3.92925 -0.316738 0
M  V30 2206 H 196.677 5.08766 0.0588345 0
M  V30 2207 H 196.075 4.65751 3.2108 0
M  V30 2208 H 194.632 5.57519 3.37662 0
M  V30 2209 N 198.065 0.39524 1.52563 0
M  V30 2210 C 199.481 0.0454682 1.59535 0
M  V30 2211 C 199.681 -1.44056 1.4089 0
M  V30 2212 O 198.737 -2.20579 1.22888 0
M  V30 2213 C 200.05 0.527963 2.96029 0
M  V30 2214 C 201.598 0.484733 3.09224 0
M  V30 2215 C 202.073 0.943512 4.48176 0
M  V30 2216 N 203.564 0.899765 4.54377 0
M  V30 2217 C 204.299 1.22609 5.60138 0
M  V30 2218 N 203.795 1.62319 6.73516 0
M  V30 2219 N 205.588 1.14696 5.50274 0
M  V30 2220 H 197.739 1.36261 1.62931 0
M  V30 2221 H 200.002 0.558887 0.765735 0
M  V30 2222 H 199.708 1.56607 3.14908 0
M  V30 2223 H 199.582 -0.0698056 3.77135 0
M  V30 2224 H 201.969 -0.544298 2.90037 0
M  V30 2225 H 202.05 1.11838 2.30056 0
M  V30 2226 H 201.694 1.9708 4.68104 0
M  V30 2227 H 201.624 0.286817 5.25818 0
M  V30 2228 H 204.115 0.607632 3.72983 0
M  V30 2229 H 204.428 1.85567 7.5019 0
M  V30 2230 H 202.773 1.66211 6.74833 0
M  V30 2231 H 205.964 0.835701 4.6058 0
M  V30 2232 H 206.137 1.40459 6.32594 0
M  V30 2233 N 199.544 -1.57102 0.125237 0
M  V30 2234 C 200.79 -1.95697 -0.532035 0
M  V30 2235 C 201.123 -1.009 -1.6593 0
M  V30 2236 O 200.398 -0.047347 -1.94442 0
M  V30 2237 C 200.681 -3.44181 -1.05884 0
M  V30 2238 C 200.534 -4.49752 0.0654392 0
M  V30 2239 C 201.853 -3.94655 -1.9477 0
M  V30 2240 H 198.972 -0.711571 -0.191925 0
M  V30 2241 H 201.614 -1.88923 0.20206 0
M  V30 2242 H 199.764 -3.50085 -1.68442 0
M  V30 2243 H 201.436 -4.55943 0.700982 0
M  V30 2244 H 199.679 -4.27653 0.727709 0
M  V30 2245 H 200.35 -5.50924 -0.344505 0
M  V30 2246 H 202.826 -3.91094 -1.42074 0
M  V30 2247 H 201.702 -4.99057 -2.28546 0
M  V30 2248 H 201.963 -3.35718 -2.87656 0
M  V30 2249 N 201.022 0.148545 -1.56898 0
M  V30 2250 C 202.438 0.501131 -1.51528 0
M  V30 2251 C 202.638 1.83458 -0.833399 0
M  V30 2252 O 201.694 2.49259 -0.40328 0
M  V30 2253 C 203.007 0.512864 -2.96294 0
M  V30 2254 C 204.555 0.598487 -3.07225 0
M  V30 2255 C 205.03 0.640897 -4.53494 0
M  V30 2256 N 206.521 0.703163 -4.57832 0
M  V30 2257 C 207.256 0.756935 -5.68382 0
M  V30 2258 N 206.752 0.770147 -6.88506 0
M  V30 2259 N 208.545 0.797698 -5.56411 0
M  V30 2260 H 200.696 -0.725532 -1.99624 0
M  V30 2261 H 202.959 -0.264358 -0.910395 0
M  V30 2262 H 202.665 -0.398691 -3.49433 0
M  V30 2263 H 202.539 1.35133 -3.52163 0
M  V30 2264 H 204.926 1.50046 -2.54106 0
M  V30 2265 H 205.007 -0.267093 -2.54402 0
M  V30 2266 H 204.651 -0.256915 -5.0725 0
M  V30 2267 H 204.581 1.52295 -5.04097 0
M  V30 2268 H 207.072 0.700314 -3.71354 0
M  V30 2269 H 207.385 0.812983 -7.68512 0
M  V30 2270 H 205.73 0.738049 -6.9107 0
M  V30 2271 H 208.921 0.784535 -4.61479 0
M  V30 2272 H 209.094 0.83614 -6.42583 0
M  V30 2273 N 202.5 1.5196 0.417844 0
M  V30 2274 C 203.725 1.69717 1.1921 0
M  V30 2275 C 204.15 0.402148 1.83751 0
M  V30 2276 O 203.508 -0.639593 1.69643 0
M  V30 2277 C 203.556 2.82794 2.2374 0
M  V30 2278 O 202.66 2.47756 3.29683 0
M  V30 2279 H 202.001 0.565263 0.348387 0
M  V30 2280 H 204.531 1.98621 0.490985 0
M  V30 2281 H 204.541 3.07452 2.68212 0
M  V30 2282 H 203.216 3.76756 1.76146 0
M  V30 2283 H 201.793 2.33739 2.90552 0
M  V30 2284 N 203.978 -0.674533 1.42435 0
M  V30 2285 C 205.226 -1.43175 1.42637 0
M  V30 2286 C 205.547 -1.94951 0.0438992 0
M  V30 2287 O 204.817 -1.7308 -0.917607 0
M  V30 2288 H 203.397 -0.531307 0.525092 0
M  V30 2289 H 206.059 -0.797006 1.77859 0
M  V30 2290 H 205.155 -2.28463 2.12629 0
M  V30 2291 N 205.456 -1.28612 -0.910864 0
M  V30 2292 C 206.733 -1.06632 -1.63979 0
M  V30 2293 C 207.113 0.393351 -2.07403 0
M  V30 2294 O 206.461 1.37999 -1.82122 0
M  V30 2295 C 206.671 -2.0436 -2.8291 0
M  V30 2296 C 208.019 -2.34666 -3.5386 0
M  V30 2297 O 209.043 -2.02467 -2.93062 0
M  V30 2298 O 207.902 -2.89631 -4.63439 0
M  V30 2299 H 204.996 -0.407737 -0.7195 0
M  V30 2300 H 207.542 -1.39942 -0.959914 0
M  V30 2301 H 206.314 -3.02727 -2.47936 0
M  V30 2302 H 205.937 -1.71714 -3.58609 0
M  V30 2303 N 206.934 1.1197 -1.10907 0
M  V30 2304 C 208.18 1.84059 -0.865674 0
M  V30 2305 C 208.535 1.82731 0.602254 0
M  V30 2306 O 207.828 1.26543 1.43866 0
M  V30 2307 C 208.022 3.30749 -1.35425 0
M  V30 2308 C 207.851 3.46363 -2.86815 0
M  V30 2309 C 206.621 3.59712 -3.54874 0
M  V30 2310 C 208.819 3.41116 -3.84895 0
M  V30 2311 N 206.801 3.63741 -4.94536 0
M  V30 2312 C 208.172 3.51698 -5.10596 0
M  V30 2313 C 210.227 3.24612 -3.77533 0
M  V30 2314 C 208.93 3.4748 -6.29802 0
M  V30 2315 C 210.956 3.21708 -4.96244 0
M  V30 2316 C 210.318 3.32856 -6.20795 0
M  V30 2317 H 206.417 0.689015 -0.369841 0
M  V30 2318 H 209.001 1.34016 -1.41237 0
M  V30 2319 H 207.172 3.79322 -0.834814 0
M  V30 2320 H 208.904 3.90718 -1.05458 0
M  V30 2321 H 205.659 3.62038 -3.05329 0
M  V30 2322 H 206.083 3.69408 -5.67333 0
M  V30 2323 H 210.725 3.14883 -2.8215 0
M  V30 2324 H 208.443 3.55978 -7.25469 0
M  V30 2325 H 212.029 3.10113 -4.92261 0
M  V30 2326 H 210.909 3.3059 -7.11112 0
M  V30 2327 N 208.412 0.89855 1.29475 0
M  V30 2328 C 209.359 0.373819 2.27753 0
M  V30 2329 C 210.329 -0.543444 1.56958 0
M  V30 2330 O 211.514 -0.468934 1.84948 0
M  V30 2331 C 208.654 -0.393648 3.42848 0
M  V30 2332 C 207.767 0.554379 4.28428 0
M  V30 2333 C 206.902 -0.230026 5.30702 0
M  V30 2334 C 205.941 0.712599 6.07938 0
M  V30 2335 N 205.078 -0.0373283 7.0209 0
M  V30 2336 H 209.918 1.21699 2.72017 0
M  V30 2337 H 207.455 0.611456 1.33789 0
M  V30 2338 H 209.413 -0.85466 4.08352 0
M  V30 2339 H 208.043 -1.20128 2.99615 0
M  V30 2340 H 207.095 1.13391 3.63107 0
M  V30 2341 H 208.407 1.27597 4.82204 0
M  V30 2342 H 207.561 -0.752288 6.02018 0
M  V30 2343 H 206.3 -0.984758 4.77654 0
M  V30 2344 H 205.305 1.24637 5.35486 0
M  V30 2345 H 206.53 1.46664 6.63074 0
M  V30 2346 H 204.476 -0.774348 6.51414 0
M  V30 2347 H 204.393 0.624374 7.53417 0
M  V30 2348 H 205.661 -0.539891 7.77628 0
M  V30 2349 N 209.89 -1.43072 0.660911 0
M  V30 2350 C 211.138 -2.01323 0.177094 0
M  V30 2351 C 211.459 -1.5245 -1.2159 0
M  V30 2352 O 210.729 -0.740322 -1.81373 0
M  V30 2353 H 209.309 -0.744382 0.0624804 0
M  V30 2354 H 211.971 -1.75179 0.854305 0
M  V30 2355 H 211.067 -3.11649 0.167641 0
M  V30 2356 N 211.368 -0.403325 -1.52352 0
M  V30 2357 C 212.598 0.17376 -2.05868 0
M  V30 2358 C 213.006 1.39898 -1.27378 0
M  V30 2359 O 212.349 1.80939 -0.31729 0
M  V30 2360 C 212.411 0.594756 -3.54546 0
M  V30 2361 C 212.075 -0.518926 -4.54044 0
M  V30 2362 C 213.072 -1.3807 -5.01231 0
M  V30 2363 C 210.757 -0.689961 -4.97539 0
M  V30 2364 C 212.751 -2.39852 -5.90551 0
M  V30 2365 C 210.438 -1.71109 -5.86656 0
M  V30 2366 C 211.436 -2.56378 -6.33056 0
M  V30 2367 O 211.124 -3.56743 -7.20409 0
M  V30 2368 H 210.856 0.0264951 -0.675481 0
M  V30 2369 H 213.41 -0.571179 -1.97299 0
M  V30 2370 H 211.64 1.39189 -3.60782 0
M  V30 2371 H 213.329 1.0991 -3.90736 0
M  V30 2372 H 214.095 -1.25994 -4.68349 0
M  V30 2373 H 209.974 -0.035939 -4.60986 0
M  V30 2374 H 213.518 -3.06441 -6.26689 0
M  V30 2375 H 209.415 -1.83218 -6.18952 0
M  V30 2376 H 210.183 -3.52918 -7.38506 0
M  V30 2377 N 212.846 1.57033 -0.133567 0
M  V30 2378 C 214.074 2.00044 0.528195 0
M  V30 2379 C 214.489 1.01349 1.59291 0
M  V30 2380 O 213.846 0.00848369 1.82498 0
M  V30 2381 C 213.897 3.43018 1.1411 0
M  V30 2382 O 213.618 4.37939 0.11892 0
M  V30 2383 C 215.119 4.01237 1.88477 0
M  V30 2384 H 212.339 0.656517 0.138661 0
M  V30 2385 H 214.883 2.03267 -0.224196 0
M  V30 2386 H 213.038 3.40688 1.84418 0
M  V30 2387 H 213.452 5.21436 0.56613 0
M  V30 2388 H 214.926 5.03314 2.26669 0
M  V30 2389 H 215.403 3.41193 2.76558 0
M  V30 2390 H 216.009 4.07156 1.22898 0
M  V30 2391 N 214.325 -0.140222 1.56975 0
M  V30 2392 C 215.573 -0.850005 1.83356 0
M  V30 2393 C 215.894 -1.81399 0.71551 0
M  V30 2394 O 215.164 -1.94136 -0.262294 0
M  V30 2395 H 213.744 -0.316886 0.676456 0
M  V30 2396 H 216.406 -0.132608 1.94448 0
M  V30 2397 H 215.502 -1.40814 2.78528 0
M  V30 2398 N 215.803 -1.52179 -0.40978 0
M  V30 2399 C 216.75 -1.75475 -1.49924 0
M  V30 2400 C 217.72 -0.597175 -1.54994 0
M  V30 2401 O 218.905 -0.834655 -1.71575 0
M  V30 2402 C 216.045 -1.9107 -2.87378 0
M  V30 2403 C 215.158 -3.18717 -2.91622 0
M  V30 2404 C 214.293 -3.24747 -4.20372 0
M  V30 2405 C 213.332 -4.46598 -4.18588 0
M  V30 2406 N 212.469 -4.50025 -5.38908 0
M  V30 2407 H 217.309 -2.68458 -1.29361 0
M  V30 2408 H 214.846 -1.33024 -0.627934 0
M  V30 2409 H 216.804 -1.98096 -3.6717 0
M  V30 2410 H 215.434 -1.01469 -3.06437 0
M  V30 2411 H 214.486 -3.20866 -2.04326 0
M  V30 2412 H 215.798 -4.08544 -2.86169 0
M  V30 2413 H 214.952 -3.30841 -5.08556 0
M  V30 2414 H 213.691 -2.32857 -4.28519 0
M  V30 2415 H 212.696 -4.40652 -3.28794 0
M  V30 2416 H 213.921 -5.39783 -4.12081 0
M  V30 2417 H 211.867 -3.61017 -5.47725 0
M  V30 2418 H 211.784 -5.33697 -5.35447 0
M  V30 2419 H 213.052 -4.60347 -6.29048 0
M  V30 2420 N 217.281 0.66697 -1.42791 0
M  V30 2421 C 218.509 1.45505 -1.47091 0
M  V30 2422 C 218.924 1.8861 -0.0845873 0
M  V30 2423 O 218.281 1.58632 0.90234 0
M  V30 2424 C 218.332 2.69906 -2.40485 0
M  V30 2425 O 218.053 2.28608 -3.73725 0
M  V30 2426 C 219.554 3.63396 -2.53886 0
M  V30 2427 H 216.774 0.447459 -0.500022 0
M  V30 2428 H 219.318 0.818866 -1.8739 0
M  V30 2429 H 217.473 3.29696 -2.03419 0
M  V30 2430 H 217.887 3.08997 -4.23817 0
M  V30 2431 H 219.361 4.47387 -3.2334 0
M  V30 2432 H 219.838 4.09824 -1.57927 0
M  V30 2433 H 220.444 3.09495 -2.91706 0
M  V30 2434 N 218.759 1.29093 0.90403 0
M  V30 2435 C 220.008 1.16187 1.64874 0
M  V30 2436 C 220.321 -0.286742 1.93487 0
M  V30 2437 O 221.527 -0.537062 2.66135 0
M  V30 2438 C 219.983 2.03177 2.97064 0
M  V30 2439 C 219.591 3.52836 2.76062 0
M  V30 2440 C 221.335 1.98984 3.74974 0
M  V30 2441 C 219.242 4.31945 4.03952 0
M  V30 2442 H 218.172 0.431246 0.618501 0
M  V30 2443 H 220.823 1.53699 1.00243 0
M  V30 2444 H 219.205 1.5853 3.62883 0
M  V30 2445 H 220.379 4.05507 2.18863 0
M  V30 2446 H 218.694 3.58656 2.11553 0
M  V30 2447 H 221.291 2.55351 4.69787 0
M  V30 2448 H 221.634 0.968815 4.0487 0
M  V30 2449 H 222.167 2.41652 3.15989 0
M  V30 2450 H 218.906 5.34667 3.79225 0
M  V30 2451 H 218.426 3.84045 4.60727 0
M  V30 2452 H 220.105 4.42379 4.72133 0
M  V30 2453 N 220.237 -1.11381 1.11499 0
M  V30 2454 C 221.465 -1.86934 0.88675 0
M  V30 2455 C 221.88 -1.80195 -0.563476 0
M  V30 2456 O 221.237 -1.18367 -1.38908 0
M  V30 2457 C 221.288 -3.35722 1.34064 0
M  V30 2458 O 221.009 -3.4232 2.73401 0
M  V30 2459 C 222.51 -4.2818 1.14791 0
M  V30 2460 H 219.73 -0.591117 0.317523 0
M  V30 2461 H 222.274 -1.40865 1.48248 0
M  V30 2462 H 220.429 -3.79294 0.788355 0
M  V30 2463 H 220.843 -4.34971 2.93087 0
M  V30 2464 H 222.317 -5.30817 1.5145 0
M  V30 2465 H 222.794 -4.39113 0.0875279 0
M  V30 2466 H 223.4 -3.90402 1.68721 0
M  V30 2467 N 221.715 -0.905404 -1.28997 0
M  V30 2468 C 222.992 -0.453513 -1.9027 0
M  V30 2469 C 223.372 1.06721 -1.82137 0
M  V30 2470 O 222.72 1.91159 -1.25182 0
M  V30 2471 C 222.93 -0.974494 -3.35119 0
M  V30 2472 C 224.278 -1.0216 -4.12127 0
M  V30 2473 O 225.302 -0.922557 -3.44046 0
M  V30 2474 O 224.161 -1.17121 -5.33802 0
M  V30 2475 H 221.255 -0.142347 -0.814657 0
M  V30 2476 H 223.801 -0.995642 -1.37423 0
M  V30 2477 H 222.573 -2.01848 -3.35221 0
M  V30 2478 H 222.196 -0.412706 -3.95452 0
M  V30 2479 N 223.193 1.4272 -0.668489 0
M  V30 2480 C 224.439 2.01923 -0.188419 0
M  V30 2481 C 224.772 1.52704 1.19979 0
M  V30 2482 O 224.047 0.726566 1.8042 0
M  V30 2483 C 224.33 3.59451 -0.216085 0
M  V30 2484 C 224.183 4.18864 -1.6393 0
M  V30 2485 C 225.502 4.37903 0.439179 0
M  V30 2486 H 222.621 0.733674 -0.0699412 0
M  V30 2487 H 225.263 1.69822 -0.852076 0
M  V30 2488 H 223.413 3.86929 0.349012 0
M  V30 2489 H 225.085 4.02362 -2.25616 0
M  V30 2490 H 223.328 3.74933 -2.18193 0
M  V30 2491 H 223.999 5.27987 -1.61039 0
M  V30 2492 H 226.475 4.16079 -0.0417878 0
M  V30 2493 H 225.351 5.47519 0.389157 0
M  V30 2494 H 225.612 4.15303 1.51577 0
M  V30 2495 N 224.671 0.411399 1.52136 0
M  V30 2496 C 225.92 -0.165009 2.01024 0
M  V30 2497 C 226.233 -1.4603 1.30133 0
M  V30 2498 O 227.439 -2.1181 1.69849 0
M  V30 2499 C 225.895 -0.344618 3.58246 0
M  V30 2500 C 225.503 0.938716 4.38055 0
M  V30 2501 C 227.247 -0.876195 4.15359 0
M  V30 2502 C 225.154 0.726172 5.86925 0
M  V30 2503 H 224.084 -0.0654407 0.751155 0
M  V30 2504 H 226.735 0.537192 1.75461 0
M  V30 2505 H 225.117 -1.10921 3.80148 0
M  V30 2506 H 226.291 1.70963 4.27912 0
M  V30 2507 H 224.606 1.39688 3.92271 0
M  V30 2508 H 227.203 -1.05128 5.24263 0
M  V30 2509 H 227.546 -1.85152 3.7286 0
M  V30 2510 H 228.079 -0.170607 3.97434 0
M  V30 2511 H 224.818 1.67312 6.33788 0
M  V30 2512 H 224.338 -0.00540283 5.998 0
M  V30 2513 H 226.017 0.369231 6.45946 0
M  V30 2514 N 226.149 -1.5696 0.141893 0
M  V30 2515 C 227.097 -2.17784 -0.816874 0
M  V30 2516 C 228.091 -1.1334 -1.25899 0
M  V30 2517 O 229.297 -1.316 -1.22806 0
M  V30 2518 H 225.672 -0.697278 -0.281615 0
M  V30 2519 H 227.643 -2.97087 -0.279621 0
M  V30 2520 C 226.392 -2.80983 -2.04802 0
M  V30 2521 H 225.715 -3.61062 -1.7168 0
M  V30 2522 H 227.155 -3.2705 -2.69841 0
M  V30 2523 C 225.614 -1.79228 -2.8527 0
M  V30 2524 O 226.144 -1.25962 -3.8144 0
M  V30 2525 N 224.35 -1.48647 -2.49704 0
M  V30 2526 H 223.897 -1.92155 -1.71564 0
M  V30 2527 H 223.855 -0.808115 -3.03837 0
M  V30 2528 N 227.627 0.131896 -1.57047 0
M  V30 2529 C 228.876 0.84044 -1.83356 0
M  V30 2530 C 229.189 1.81646 -0.725535 0
M  V30 2531 O 230.395 2.57025 -0.874659 0
M  V30 2532 C 228.851 1.54528 -3.25037 0
M  V30 2533 C 228.459 0.610902 -4.43815 0
M  V30 2534 C 230.203 2.23972 -3.60606 0
M  V30 2535 C 228.11 1.31823 -5.76521 0
M  V30 2536 H 227.04 0.317599 -0.683847 0
M  V30 2537 H 229.691 0.0931561 -1.83263 0
M  V30 2538 H 228.073 2.33873 -3.19561 0
M  V30 2539 H 229.247 -0.148407 -4.60561 0
M  V30 2540 H 227.562 0.0241016 -4.16393 0
M  V30 2541 H 230.159 2.77558 -4.57018 0
M  V30 2542 H 230.502 3.01173 -2.87403 0
M  V30 2543 H 231.035 1.51529 -3.6781 0
M  V30 2544 H 227.774 0.587771 -6.52859 0
M  V30 2545 H 227.294 2.04987 -5.63685 0
M  V30 2546 H 228.973 1.855 -6.19838 0
M  V30 2547 N 229.106 1.52395 0.401703 0
M  V30 2548 C 230.354 1.66488 1.14569 0
M  V30 2549 C 230.675 0.400897 1.90835 0
M  V30 2550 O 229.945 -0.584415 1.8698 0
M  V30 2551 H 228.525 0.613672 0.425929 0
M  V30 2552 H 231.187 1.89464 0.457093 0
M  V30 2553 H 230.283 2.50942 1.85566 0
M  V30 2554 N 230.584 -0.659388 1.43143 0
M  V30 2555 C 231.833 -1.41518 1.43721 0
M  V30 2556 C 232.146 -1.95499 0.0628176 0
M  V30 2557 O 233.352 -2.71446 -0.0539683 0
M  V30 2558 C 231.808 -2.5608 2.52885 0
M  V30 2559 C 231.416 -2.08733 3.96402 0
M  V30 2560 C 233.16 -3.3349 2.62649 0
M  V30 2561 C 231.067 -3.20469 4.97045 0
M  V30 2562 H 229.997 -0.531705 0.534608 0
M  V30 2563 H 232.648 -0.712343 1.69109 0
M  V30 2564 H 231.03 -3.28805 2.20688 0
M  V30 2565 H 232.204 -1.43059 4.3803 0
M  V30 2566 H 230.519 -1.44219 3.90627 0
M  V30 2567 H 233.116 -4.16734 3.35017 0
M  V30 2568 H 233.459 -3.8111 1.67513 0
M  V30 2569 H 233.992 -2.67842 2.94118 0
M  V30 2570 H 230.731 -2.77824 5.93712 0
M  V30 2571 H 230.251 -3.84874 4.60034 0
M  V30 2572 H 231.93 -3.85698 5.19467 0
M  V30 2573 N 232.062 -1.29571 -0.897171 0
M  V30 2574 C 233.31 -1.17456 -1.64464 0
M  V30 2575 C 233.631 0.273698 -1.9307 0
M  V30 2576 O 232.901 1.18684 -1.55855 0
M  V30 2577 H 231.481 -0.431706 -0.609622 0
M  V30 2578 H 234.143 -1.62531 -1.07562 0
M  V30 2579 H 233.239 -1.72648 -2.59998 0
M  V30 2580 N 233.54 1.10788 -1.12088 0
M  V30 2581 C 234.788 1.8231 -0.872205 0
M  V30 2582 C 235.109 1.85419 0.603709 0
M  V30 2583 O 234.379 1.32963 1.43867 0
M  V30 2584 H 232.959 0.675137 -0.319686 0
M  V30 2585 H 235.621 1.34068 -1.41463 0
M  V30 2586 H 234.717 2.85955 -1.25045 0
M  V30 2587 N 235.018 0.912232 1.28515 0
M  V30 2588 C 236.243 0.559774 1.99703 0
M  V30 2589 C 236.668 -0.851393 1.67729 0
M  V30 2590 O 236.026 -1.56875 0.908834 0
M  V30 2591 C 236.074 0.773874 3.52198 0
M  V30 2592 O 235.178 -0.167842 4.12058 0
M  V30 2593 H 234.519 0.21723 0.627461 0
M  V30 2594 H 237.049 1.22725 1.63706 0
M  V30 2595 H 237.059 0.683386 4.02236 0
M  V30 2596 H 235.734 1.80261 3.74805 0
M  V30 2597 H 234.311 -0.0287509 3.72889 0
M  V30 2598 N 236.496 -1.42363 0.676048 0
M  V30 2599 C 237.773 -1.95183 0.127726 0
M  V30 2600 C 238.153 -1.61641 -1.35777 0
M  V30 2601 O 237.501 -0.913216 -2.09458 0
M  V30 2602 C 237.711 -3.46721 0.398199 0
M  V30 2603 C 239.059 -4.23427 0.315383 0
M  V30 2604 O 240.083 -3.54649 0.332016 0
M  V30 2605 O 238.942 -5.45888 0.25865 0
M  V30 2606 H 236.036 -0.826992 0.00359427 0
M  V30 2607 H 238.582 -1.52184 0.750864 0
M  V30 2608 H 237.354 -3.64344 1.4272 0
M  V30 2609 H 236.977 -3.96769 -0.256885 0
M  V30 2610 N 237.974 -0.419461 -1.51915 0
M  V30 2611 C 238.904 0.391813 -2.30189 0
M  V30 2612 C 239.885 1.03699 -1.34836 0
M  V30 2613 O 241.07 1.04403 -1.63748 0
M  V30 2614 C 238.2 1.50312 -3.13087 0
M  V30 2615 C 237.154 0.9824 -4.16573 0
M  V30 2616 C 236.48 2.18809 -4.8788 0
M  V30 2617 C 237.78 0.0292356 -5.22292 0
M  V30 2618 H 239.474 -0.26135 -2.98257 0
M  V30 2619 H 237.02 -0.127134 -1.43438 0
M  V30 2620 H 238.973 2.07773 -3.66617 0
M  V30 2621 H 237.697 2.18431 -2.42807 0
M  V30 2622 H 236.356 0.430119 -3.64068 0
M  V30 2623 H 236.004 2.85507 -4.14119 0
M  V30 2624 H 235.704 1.84615 -5.57845 0
M  V30 2625 H 237.228 2.76858 -5.44226 0
M  V30 2626 H 238.642 0.512976 -5.71 0
M  V30 2627 H 237.039 -0.2244 -5.9968 0
M  V30 2628 H 238.109 -0.912931 -4.76228 0
M  V30 2629 N 239.452 1.56882 -0.150215 0
M  V30 2630 C 240.7 1.9584 0.499105 0
M  V30 2631 C 241.021 1.03623 1.65188 0
M  V30 2632 O 240.291 0.0984084 1.95653 0
M  V30 2633 H 238.871 0.723119 0.187373 0
M  V30 2634 H 241.533 1.9358 -0.226466 0
M  V30 2635 H 240.629 2.99638 0.873122 0
M  V30 2636 N 240.93 -0.123565 1.57115 0
M  V30 2637 C 242.341 -0.681198 1.73829 0
M  V30 2638 C 242.692 -1.80535 0.768214 0
M  V30 2639 O 241.817 -2.16317 -0.0599103 0
M  V30 2640 C 242.412 -1.24246 3.15196 0
M  V30 2641 C 240.971 -1.74643 3.33432 0
M  V30 2642 C 240.118 -0.644284 2.69711 0
M  V30 2643 H 243.069 0.102315 1.5837 0
M  V30 2644 H 243.09 -2.11216 3.16493 0
M  V30 2645 H 242.602 -0.424062 3.85776 0
M  V30 2646 H 240.703 -2.58974 2.67886 0
M  V30 2647 H 240.816 -1.85902 4.41562 0
M  V30 2648 H 239.18 -1.07676 2.3082 0
M  V30 2649 H 239.963 0.163058 3.42913 0
M  V30 2650 N 242.408 -1.52605 -0.393616 0
M  V30 2651 C 243.338 -1.80022 -1.48709 0
M  V30 2652 C 244.319 -0.651995 -1.57108 0
M  V30 2653 O 245.504 -0.89913 -1.72132 0
M  V30 2654 C 242.634 -1.96492 -2.86371 0
M  V30 2655 C 241.588 -3.12161 -2.92813 0
M  V30 2656 C 240.914 -3.13877 -4.3288 0
M  V30 2657 C 242.214 -4.51322 -2.6288 0
M  V30 2658 H 243.908 -2.71589 -1.26015 0
M  V30 2659 H 241.454 -1.30684 -0.604778 0
M  V30 2660 H 243.407 -2.14255 -3.62867 0
M  V30 2661 H 242.131 -1.01611 -3.10391 0
M  V30 2662 H 240.79 -2.94173 -2.18764 0
M  V30 2663 H 240.438 -2.16687 -4.53933 0
M  V30 2664 H 240.138 -3.91576 -4.38112 0
M  V30 2665 H 241.662 -3.33789 -5.1129 0
M  V30 2666 H 243.076 -4.69435 -3.29096 0
M  V30 2667 H 241.473 -5.31053 -2.79468 0
M  V30 2668 H 242.543 -4.58353 -1.58242 0
M  V30 2669 N 243.887 0.651787 -1.4349 0
M  V30 2670 C 244.82 1.77668 -1.43211 0
M  V30 2671 C 245.798 1.59931 -0.29338 0
M  V30 2672 O 246.982 1.82095 -0.487191 0
M  V30 2673 C 244.109 3.14986 -1.24505 0
M  V30 2674 C 243.155 3.51421 -2.41673 0
M  V30 2675 S 243.988 3.51234 -4.04222 0
M  V30 2676 C 245.144 4.91206 -3.87902 0
M  V30 2677 H 245.377 1.77635 -2.38397 0
M  V30 2678 H 242.91 0.824558 -1.30539 0
M  V30 2679 H 244.868 3.94237 -1.144 0
M  V30 2680 H 243.529 3.1258 -0.308651 0
M  V30 2681 H 242.722 4.51291 -2.24393 0
M  V30 2682 H 242.324 2.79585 -2.48411 0
M  V30 2683 H 244.616 5.79902 -3.50315 0
M  V30 2684 H 245.559 5.13537 -4.8753 0
M  V30 2685 H 245.967 4.64808 -3.20334 0
M  V30 2686 N 245.365 1.30045 0.890287 0
M  V30 2687 C 246.611 1.18737 1.64406 0
M  V30 2688 C 246.944 -0.258525 1.92472 0
M  V30 2689 O 246.219 -1.18562 1.54186 0
M  V30 2690 C 246.502 2.01087 2.98724 0
M  V30 2691 C 246.355 3.53867 2.77665 0
M  V30 2692 C 247.674 1.84457 3.9958 0
M  V30 2693 H 244.793 0.432698 0.596608 0
M  V30 2694 H 247.435 1.5962 1.0306 0
M  V30 2695 H 245.585 1.66349 3.51084 0
M  V30 2696 H 247.257 3.98637 2.32133 0
M  V30 2697 H 245.5 3.78318 2.12269 0
M  V30 2698 H 246.171 4.06772 3.7315 0
M  V30 2699 H 248.647 2.14817 3.56361 0
M  V30 2700 H 247.523 2.44411 4.91482 0
M  V30 2701 H 247.784 0.802276 4.3476 0
M  V30 2702 N 246.843 -1.10192 1.12674 0
M  V30 2703 C 248.071 -1.85983 0.906527 0
M  V30 2704 C 248.486 -1.80783 -0.544333 0
M  V30 2705 O 247.843 -1.19834 -1.37645 0
M  V30 2706 C 247.894 -3.34281 1.37618 0
M  V30 2707 O 247.615 -3.39401 2.77017 0
M  V30 2708 C 249.116 -4.26938 1.19325 0
M  V30 2709 H 246.336 -0.587716 0.323775 0
M  V30 2710 H 248.88 -1.39284 1.49734 0
M  V30 2711 H 247.035 -3.78436 0.828539 0
M  V30 2712 H 247.449 -4.31838 2.97684 0
M  V30 2713 H 248.923 -5.29181 1.57071 0
M  V30 2714 H 249.4 -4.38995 0.134097 0
M  V30 2715 H 250.006 -3.8859 1.72852 0
M  V30 2716 N 248.321 -0.919034 -1.28029 0
M  V30 2717 C 249.231 -0.416756 -2.30869 0
M  V30 2718 C 250.247 0.498235 -1.66714 0
M  V30 2719 O 251.423 0.383144 -1.97722 0
M  V30 2720 C 248.488 0.330274 -3.45123 0
M  V30 2721 C 247.549 -0.618578 -4.2482 0
M  V30 2722 C 246.782 0.0928959 -5.33619 0
M  V30 2723 O 247.005 1.31375 -5.55065 0
M  V30 2724 O 245.939 -0.574499 -5.99152 0
M  V30 2725 H 249.765 -1.27043 -2.75851 0
M  V30 2726 H 247.35 -0.684052 -1.3282 0
M  V30 2727 H 249.232 0.751972 -4.14636 0
M  V30 2728 H 247.907 1.1597 -3.02213 0
M  V30 2729 H 246.814 -1.08978 -3.57875 0
M  V30 2730 H 248.147 -1.41497 -4.71423 0
M  V30 2731 N 249.799 1.42003 -0.683588 0
M  V30 2732 C 250.762 2.29191 -0.0198243 0
M  V30 2733 C 251.762 1.43773 0.72013 0
M  V30 2734 O 252.952 1.65061 0.556815 0
M  V30 2735 C 250.084 3.26435 0.982487 0
M  V30 2736 H 251.277 2.8938 -0.787345 0
M  V30 2737 H 248.83 1.49789 -0.446418 0
M  V30 2738 H 249.565 2.71203 1.77819 0
M  V30 2739 H 249.35 3.89449 0.455182 0
M  V30 2740 H 250.84 3.918 1.44508 0
M  V30 2741 N 251.277 0.427512 1.51691 0
M  V30 2742 C 252.207 -0.3796 2.30394 0
M  V30 2743 C 253.188 -1.02982 1.35384 0
M  V30 2744 O 254.373 -1.03534 1.643 0
M  V30 2745 C 251.503 -1.48649 3.1388 0
M  V30 2746 C 250.457 -0.960294 4.17088 0
M  V30 2747 C 249.783 -2.16219 4.89033 0
M  V30 2748 C 251.083 -0.00153679 5.223 0
M  V30 2749 H 252.777 0.277164 2.98114 0
M  V30 2750 H 250.323 0.134739 1.43368 0
M  V30 2751 H 252.276 -2.05826 3.67714 0
M  V30 2752 H 251 -2.1714 2.43962 0
M  V30 2753 H 249.659 -0.410806 3.64291 0
M  V30 2754 H 249.307 -2.83307 4.15628 0
M  V30 2755 H 249.007 -1.81654 5.58816 0
M  V30 2756 H 250.531 -2.73968 5.45687 0
M  V30 2757 H 251.945 -0.482687 5.71264 0
M  V30 2758 H 250.342 0.256199 5.99553 0
M  V30 2759 H 251.412 0.938174 4.75738 0
M  V30 2760 N 252.755 -1.56801 0.158532 0
M  V30 2761 C 253.702 -2.17337 -0.776729 0
M  V30 2762 C 254.672 -1.1096 -1.23601 0
M  V30 2763 O 255.857 -1.39054 -1.30647 0
M  V30 2764 C 252.997 -2.80822 -2.00582 0
M  V30 2765 C 252.11 -4.01624 -1.59129 0
M  V30 2766 C 251.245 -4.53072 -2.77306 0
M  V30 2767 C 250.284 -5.66314 -2.32282 0
M  V30 2768 N 249.421 -6.12329 -3.43508 0
M  V30 2769 H 254.261 -2.96918 -0.253701 0
M  V30 2770 H 251.798 -1.46661 -0.113504 0
M  V30 2771 H 253.756 -3.15779 -2.72652 0
M  V30 2772 H 252.386 -2.03866 -2.50277 0
M  V30 2773 H 251.438 -3.72571 -0.767806 0
M  V30 2774 H 252.75 -4.83633 -1.2207 0
M  V30 2775 H 251.904 -4.90145 -3.57551 0
M  V30 2776 H 250.643 -3.70095 -3.17617 0
M  V30 2777 H 249.648 -5.28806 -1.5048 0
M  V30 2778 H 250.873 -6.51085 -1.93043 0
M  V30 2779 H 248.819 -5.32284 -3.83418 0
M  V30 2780 H 248.736 -6.89293 -3.105 0
M  V30 2781 H 250.004 -6.5405 -4.24075 0
M  V30 2782 N 254.233 0.115231 -1.57178 0
M  V30 2783 C 255.644 0.67197 -1.74188 0
M  V30 2784 C 255.995 1.80125 -0.777777 0
M  V30 2785 O 255.12 2.16346 0.0484376 0
M  V30 2786 C 255.715 1.22573 -3.1585 0
M  V30 2787 C 254.274 1.72872 -3.34353 0
M  V30 2788 C 253.421 0.629972 -2.70049 0
M  V30 2789 H 256.372 -0.110712 -1.58313 0
M  V30 2790 H 256.393 2.09535 -3.17609 0
M  V30 2791 H 255.905 0.403598 -3.85996 0
M  V30 2792 H 254.006 2.5755 -2.69256 0
M  V30 2793 H 254.119 1.83557 -4.42542 0
M  V30 2794 H 252.483 1.0645 -2.31388 0
M  V30 2795 H 253.266 -0.181241 -3.42821 0
M  V30 2796 N 255.711 1.52812 0.385517 0
M  V30 2797 C 256.941 1.71658 1.14966 0
M  V30 2798 C 257.349 0.436253 1.84102 0
M  V30 2799 O 256.692 -0.599313 1.73649 0
M  V30 2800 C 256.754 2.81309 2.23843 0
M  V30 2801 C 256.418 4.22313 1.74644 0
M  V30 2802 C 257.415 5.05352 1.22129 0
M  V30 2803 C 255.1 4.68648 1.80761 0
M  V30 2804 C 257.094 6.32807 0.763838 0
M  V30 2805 C 254.781 5.96086 1.34627 0
M  V30 2806 C 255.779 6.77996 0.825264 0
M  V30 2807 O 255.467 8.03045 0.370669 0
M  V30 2808 H 255.199 0.578022 0.350523 0
M  V30 2809 H 257.753 2.00263 0.456509 0
M  V30 2810 H 255.983 2.48133 2.96592 0
M  V30 2811 H 257.672 2.88524 2.85497 0
M  V30 2812 H 258.438 4.70736 1.16758 0
M  V30 2813 H 254.317 4.04979 2.20256 0
M  V30 2814 H 257.861 6.96689 0.356494 0
M  V30 2815 H 253.758 6.30205 1.39686 0
M  V30 2816 H 254.526 8.17021 0.491829 0
M  V30 2817 N 257.189 -0.644168 1.43834 0
M  V30 2818 C 258.414 -1.43642 1.49605 0
M  V30 2819 C 258.839 -1.8773 0.117913 0
M  V30 2820 O 258.197 -1.57938 -0.890239 0
M  V30 2821 C 258.245 -2.6416 2.45463 0
M  V30 2822 O 257.349 -3.63538 1.94714 0
M  V30 2823 H 256.69 -0.430329 0.50568 0
M  V30 2824 H 259.22 -0.787448 1.8884 0
M  V30 2825 H 259.23 -3.11864 2.63068 0
M  V30 2826 H 257.905 -2.31414 3.45572 0
M  V30 2827 H 256.482 -3.2273 1.86814 0
M  V30 2828 N 258.668 -1.30515 -0.883378 0
M  V30 2829 C 259.893 -1.22487 -1.67367 0
M  V30 2830 C 260.318 0.208767 -1.86938 0
M  V30 2831 O 259.676 1.15015 -1.40148 0
M  V30 2832 C 259.724 -1.96041 -3.02655 0
M  V30 2833 O 258.828 -1.28859 -3.91751 0
M  V30 2834 H 258.169 -0.423573 -0.511353 0
M  V30 2835 H 260.699 -1.72362 -1.10239 0
M  V30 2836 H 260.709 -2.05124 -3.52687 0
M  V30 2837 H 259.384 -3.00307 -2.8773 0
M  V30 2838 H 257.961 -1.28141 -3.50192 0
M  V30 2839 N 260.146 1.09593 -1.13257 0
M  V30 2840 C 261.394 1.81375 -0.891492 0
M  V30 2841 C 261.715 1.86049 0.584009 0
M  V30 2842 O 260.985 1.34481 1.42449 0
M  V30 2843 H 259.565 0.671708 -0.326828 0
M  V30 2844 H 262.227 1.3256 -1.42877 0
M  V30 2845 H 261.323 2.84612 -1.28071 0
M  V30 2846 N 261.624 0.925811 1.2754 0
M  V30 2847 C 262.872 0.564138 1.94067 0
M  V30 2848 C 263.193 -0.897188 1.73134 0
M  V30 2849 O 262.463 -1.63573 1.07799 0
M  V30 2850 H 261.043 0.205645 0.718136 0
M  V30 2851 H 263.705 1.1778 1.55287 0
M  V30 2852 H 262.801 0.76881 3.02483 0
M  V30 2853 N 263.102 -1.41638 0.69111 0
M  V30 2854 C 264.513 -1.84346 0.295517 0
M  V30 2855 C 264.864 -1.57833 -1.16547 0
M  V30 2856 O 263.989 -1.04648 -1.89414 0
M  V30 2857 C 264.584 -3.34636 0.529575 0
M  V30 2858 C 263.143 -3.7593 0.187944 0
M  V30 2859 C 262.29 -2.65082 0.814052 0
M  V30 2860 H 265.241 -1.31253 0.892092 0
M  V30 2861 H 265.262 -3.79903 -0.213148 0
M  V30 2862 H 264.774 -3.53901 1.59297 0
M  V30 2863 H 262.875 -3.62268 -0.871367 0
M  V30 2864 H 262.988 -4.74808 0.63985 0
M  V30 2865 H 261.352 -2.53528 0.244017 0
M  V30 2866 H 262.135 -2.87167 1.88123 0
M  V30 2867 N 264.58 -0.43555 -1.51462 0
M  V30 2868 C 265.996 -0.0877501 -1.59359 0
M  V30 2869 C 266.196 1.4027 -1.4466 0
M  V30 2870 O 265.252 2.17243 -1.28693 0
M  V30 2871 C 266.565 -0.606264 -2.94525 0
M  V30 2872 C 268.113 -0.566548 -3.0783 0
M  V30 2873 C 268.588 -1.06201 -4.45517 0
M  V30 2874 N 270.079 -1.01992 -4.51832 0
M  V30 2875 C 270.814 -1.37417 -5.5669 0
M  V30 2876 N 270.31 -1.80119 -6.68976 0
M  V30 2877 N 272.103 -1.29245 -5.47039 0
M  V30 2878 H 264.254 -1.40533 -1.59261 0
M  V30 2879 H 266.517 -0.578992 -0.750648 0
M  V30 2880 H 266.223 -1.64901 -3.10645 0
M  V30 2881 H 266.097 -0.0302097 -3.77188 0
M  V30 2882 H 268.484 0.467208 -2.91378 0
M  V30 2883 H 268.565 -1.17898 -2.2701 0
M  V30 2884 H 268.209 -2.09422 -4.62715 0
M  V30 2885 H 268.139 -0.426127 -5.24873 0
M  V30 2886 H 270.63 -0.706308 -3.71241 0
M  V30 2887 H 270.943 -2.05392 -7.45006 0
M  V30 2888 H 269.288 -1.84044 -6.70189 0
M  V30 2889 H 272.479 -0.957522 -4.58202 0
M  V30 2890 H 272.652 -1.57182 -6.28648 0
M  V30 2891 N 266.058 1.56714 -0.166846 0
M  V30 2892 C 267.304 1.97039 0.479962 0
M  V30 2893 C 267.637 1.05264 1.63197 0
M  V30 2894 O 266.912 0.0988833 1.94248 0
M  V30 2895 C 267.195 3.46867 0.967212 0
M  V30 2896 C 267.048 4.49421 -0.18466 0
M  V30 2897 C 268.367 3.9968 1.84238 0
M  V30 2898 H 265.486 0.71641 0.172992 0
M  V30 2899 H 268.128 1.8832 -0.252079 0
M  V30 2900 H 266.278 3.54428 1.59101 0
M  V30 2901 H 267.95 4.53924 -0.821621 0
M  V30 2902 H 266.193 4.25573 -0.840837 0
M  V30 2903 H 266.864 5.51644 0.198317 0
M  V30 2904 H 269.34 3.94723 1.31655 0
M  V30 2905 H 268.216 5.04941 2.15234 0
M  V30 2906 H 268.477 3.43226 2.78654 0
M  V30 2907 N 267.536 -0.106894 1.57237 0
M  V30 2908 C 268.782 -0.808678 1.86633 0
M  V30 2909 C 269.137 -1.76917 0.756178 0
M  V30 2910 O 268.43 -1.90055 -0.242834 0
M  V30 2911 C 268.624 -1.58628 3.20268 0
M  V30 2912 C 268.453 -0.702592 4.44178 0
M  V30 2913 C 267.223 -0.352808 5.04067 0
M  V30 2914 C 269.421 -0.0148031 5.14298 0
M  V30 2915 N 267.403 0.540279 6.11518 0
M  V30 2916 C 268.774 0.736809 6.15606 0
M  V30 2917 C 270.829 0.0603524 4.97863 0
M  V30 2918 C 269.532 1.55654 7.02257 0
M  V30 2919 C 271.558 0.866942 5.85011 0
M  V30 2920 C 270.92 1.60671 6.85831 0
M  V30 2921 H 267.019 -0.27246 0.733001 0
M  V30 2922 H 269.603 -0.0717858 1.94568 0
M  V30 2923 H 267.774 -2.29413 3.13408 0
M  V30 2924 H 269.506 -2.23434 3.3743 0
M  V30 2925 H 266.261 -0.697802 4.68431 0
M  V30 2926 H 266.685 0.979029 6.69884 0
M  V30 2927 H 271.327 -0.497236 4.19866 0
M  V30 2928 H 269.045 2.12524 7.79653 0
M  V30 2929 H 272.631 0.927612 5.74358 0
M  V30 2930 H 271.511 2.2208 7.52097 0
M  V30 2931 N 269.014 -1.53014 -0.377408 0
M  V30 2932 C 270.244 -1.72265 -1.14054 0
M  V30 2933 C 270.652 -0.44601 -1.83868 0
M  V30 2934 O 269.995 0.590095 -1.73964 0
M  V30 2935 C 270.057 -2.82492 -2.22348 0
M  V30 2936 C 269.721 -4.23233 -1.72402 0
M  V30 2937 C 270.718 -5.05992 -1.19448 0
M  V30 2938 C 268.403 -4.696 -1.78273 0
M  V30 2939 C 270.397 -6.33203 -0.730268 0
M  V30 2940 C 268.084 -5.96792 -1.31464 0
M  V30 2941 C 269.082 -6.78424 -0.789297 0
M  V30 2942 O 268.77 -8.0323 -0.328077 0
M  V30 2943 H 268.502 -0.579873 -0.347453 0
M  V30 2944 H 271.056 -2.00502 -0.445882 0
M  V30 2945 H 269.286 -2.49702 -2.95272 0
M  V30 2946 H 270.975 -2.90034 -2.83963 0
M  V30 2947 H 271.741 -4.71349 -1.14259 0
M  V30 2948 H 267.62 -4.06142 -2.18106 0
M  V30 2949 H 271.164 -6.96868 -0.319542 0
M  V30 2950 H 267.061 -6.30937 -1.36342 0
M  V30 2951 H 267.829 -8.1727 -0.448493 0
M  V30 2952 N 270.492 0.636531 -1.44174 0
M  V30 2953 C 271.738 1.39826 -1.4689 0
M  V30 2954 C 272.071 1.93947 -0.0990585 0
M  V30 2955 O 271.346 1.73325 0.882544 0
M  V30 2956 C 271.629 2.56751 -2.5249 0
M  V30 2957 C 271.482 2.08014 -3.98811 0
M  V30 2958 C 272.801 3.58946 -2.54649 0
M  V30 2959 H 269.92 0.507075 -0.53483 0
M  V30 2960 H 272.562 0.720188 -1.75822 0
M  V30 2961 H 270.712 3.14597 -2.2795 0
M  V30 2962 H 272.384 1.5504 -4.34466 0
M  V30 2963 H 270.627 1.39242 -4.10846 0
M  V30 2964 H 271.298 2.92169 -4.68339 0
M  V30 2965 H 273.774 3.1089 -2.76563 0
M  V30 2966 H 272.65 4.38286 -3.3045 0
M  V30 2967 H 272.911 4.12655 -1.58646 0
M  V30 2968 N 271.97 1.30982 0.876444 0
M  V30 2969 C 273.195 1.23373 1.66715 0
M  V30 2970 C 273.62 -0.19885 1.87046 0
M  V30 2971 O 272.978 -1.1427 1.40756 0
M  V30 2972 C 273.026 1.97644 3.01611 0
M  V30 2973 O 272.13 1.30935 3.91062 0
M  V30 2974 H 271.471 0.426279 0.509099 0
M  V30 2975 H 274.001 1.72944 1.09323 0
M  V30 2976 H 274.011 2.06992 3.51594 0
M  V30 2977 H 272.686 3.01829 2.86133 0
M  V30 2978 H 271.263 1.29996 3.49507 0
M  V30 2979 N 273.449 -1.08991 1.13837 0
M  V30 2980 C 274.397 -2.17841 0.815347 0
M  V30 2981 C 275.391 -1.68164 -0.204233 0
M  V30 2982 O 276.597 -1.79897 -0.0609304 0
M  V30 2983 H 272.972 -0.710654 0.245915 0
M  V30 2984 H 274.943 -2.42315 1.74143 0
M  V30 2985 C 273.692 -3.46381 0.302614 0
M  V30 2986 H 273.015 -3.84979 1.0785 0
M  V30 2987 H 274.455 -4.23844 0.115074 0
M  V30 2988 C 272.914 -3.22556 -0.972591 0
M  V30 2989 O 273.444 -3.45599 -2.04754 0
M  V30 2990 N 271.65 -2.76134 -0.905455 0
M  V30 2991 H 271.197 -2.57582 -0.0305421 0
M  V30 2992 H 271.155 -2.60571 -1.75926 0
M  V30 2993 N 274.927 -0.932562 -1.27047 0
M  V30 2994 C 276.176 -0.571351 -1.93439 0
M  V30 2995 C 276.489 0.892467 -1.74053 0
M  V30 2996 O 277.695 1.36267 -2.34826 0
M  V30 2997 C 276.151 -0.97106 -3.46552 0
M  V30 2998 C 275.759 -2.4559 -3.74686 0
M  V30 2999 C 277.503 -0.681333 -4.18997 0
M  V30 3000 C 275.41 -2.79475 -5.21198 0
M  V30 3001 H 274.34 -0.209966 -0.724176 0
M  V30 3002 H 276.991 -1.13403 -1.44263 0
M  V30 3003 H 275.373 -0.336983 -3.94564 0
M  V30 3004 H 276.547 -3.13829 -3.37414 0
M  V30 3005 H 274.862 -2.71802 -3.15456 0
M  V30 3006 H 277.459 -0.910939 -5.26883 0
M  V30 3007 H 277.802 0.381628 -4.14547 0
M  V30 3008 H 278.335 -1.27473 -3.76823 0
M  V30 3009 H 275.074 -3.847 -5.30741 0
M  V30 3010 H 274.594 -2.1589 -5.596 0
M  V30 3011 H 276.273 -2.67478 -5.89122 0
M  V30 3012 N 276.405 1.4127 -0.698611 0
M  V30 3013 C 277.682 1.94955 -0.158762 0
M  V30 3014 C 278.062 1.63781 1.33188 0
M  V30 3015 O 277.41 0.946423 2.07979 0
M  V30 3016 C 277.62 3.46044 -0.453309 0
M  V30 3017 C 278.968 4.22872 -0.382707 0
M  V30 3018 O 279.992 3.54076 -0.388396 0
M  V30 3019 O 278.851 5.45407 -0.345463 0
M  V30 3020 H 275.945 0.82683 -0.0167505 0
M  V30 3021 H 278.491 1.50971 -0.77498 0
M  V30 3022 H 277.263 3.62028 -1.48498 0
M  V30 3023 H 276.886 3.97128 0.19373 0
M  V30 3024 N 277.883 0.443576 1.51229 0
M  V30 3025 C 279.131 -0.120557 2.0174 0
M  V30 3026 C 279.452 -1.42665 1.32935 0
M  V30 3027 O 278.722 -1.9028 0.465866 0
M  V30 3028 H 277.302 -0.0475426 0.745486 0
M  V30 3029 H 279.964 0.587711 1.85828 0
M  V30 3030 H 279.06 -0.291972 3.10731 0
M  V30 3031 N 279.361 -1.56624 0.175154 0
M  V30 3032 C 280.589 -2.01374 -0.474971 0
M  V30 3033 C 281.004 -1.05537 -1.56548 0
M  V30 3034 O 280.361 -0.0568668 -1.82411 0
M  V30 3035 C 280.412 -3.45923 -1.04975 0
M  V30 3036 O 280.133 -4.381 -0.00276605 0
M  V30 3037 C 281.634 -4.06093 -1.77773 0
M  V30 3038 H 278.854 -0.659962 -0.121206 0
M  V30 3039 H 281.398 -2.02601 0.27801 0
M  V30 3040 H 279.553 -3.45458 -1.75321 0
M  V30 3041 H 279.967 -5.22753 -0.427681 0
M  V30 3042 H 281.441 -5.09147 -2.13245 0
M  V30 3043 H 281.918 -3.48405 -2.67414 0
M  V30 3044 H 282.524 -4.10272 -1.12059 0
M  V30 3045 N 280.839 0.0985539 -1.57292 0
M  V30 3046 C 281.789 1.1261 -1.9825 0
M  V30 3047 C 282.773 1.35961 -0.860426 0
M  V30 3048 O 283.965 1.36711 -1.12424 0
M  V30 3049 C 281.094 2.44727 -2.40757 0
M  V30 3050 C 280.18 2.24764 -3.59642 0
M  V30 3051 N 280.571 1.74661 -4.74687 0
M  V30 3052 C 278.869 2.55344 -3.65672 0
M  V30 3053 C 279.57 1.68887 -5.56644 0
M  V30 3054 N 278.546 2.13976 -4.99715 0
M  V30 3055 H 282.348 0.731604 -2.84648 0
M  V30 3056 H 279.862 0.306029 -1.59491 0
M  V30 3057 H 281.859 3.19072 -2.68326 0
M  V30 3058 H 280.519 2.84917 -1.55733 0
M  V30 3059 H 281.53 1.43908 -4.97505 0
M  V30 3060 H 278.207 2.99081 -2.91302 0
M  V30 3061 H 279.597 1.3123 -6.5896 0
M  V30 3062 N 282.317 1.53212 0.369288 0
M  V30 3063 C 283.566 1.68436 1.10961 0
M  V30 3064 C 283.879 0.440738 1.9057 0
M  V30 3065 O 285.085 0.473446 2.6734 0
M  V30 3066 C 283.541 2.97744 2.0218 0
M  V30 3067 C 283.149 4.29355 1.279 0
M  V30 3068 C 284.893 3.22334 2.76226 0
M  V30 3069 C 282.8 5.49755 2.17999 0
M  V30 3070 H 281.73 0.627568 0.41794 0
M  V30 3071 H 284.381 1.79713 0.370884 0
M  V30 3072 H 282.763 2.8026 2.79768 0
M  V30 3073 H 283.937 4.57458 0.554007 0
M  V30 3074 H 282.252 4.11179 0.657311 0
M  V30 3075 H 284.849 4.09471 3.43857 0
M  V30 3076 H 285.192 2.38238 3.41392 0
M  V30 3077 H 285.725 3.40475 2.05723 0
M  V30 3078 H 282.464 6.36318 1.57417 0
M  V30 3079 H 281.984 5.25937 2.88359 0
M  V30 3080 H 283.663 5.84401 2.77641 0
M  V30 3081 N 283.795 -0.628877 1.44509 0
M  V30 3082 C 284.758 -1.72263 1.51188 0
M  V30 3083 C 285.758 -1.55907 0.39367 0
M  V30 3084 O 286.948 -1.61361 0.656377 0
M  V30 3085 C 284.08 -3.11365 1.38798 0
M  V30 3086 H 285.273 -1.67714 2.4862 0
M  V30 3087 H 282.826 -0.842737 1.31634 0
M  V30 3088 H 283.561 -3.21507 0.424693 0
M  V30 3089 H 283.346 -3.24644 2.19884 0
M  V30 3090 H 284.836 -3.91075 1.46458 0
M  V30 3091 N 285.273 -1.31445 -0.869486 0
M  V30 3092 C 286.22 -1.19135 -1.97675 0
M  V30 3093 C 287.19 -0.0770266 -1.65921 0
M  V30 3094 O 288.375 -0.249972 -1.89155 0
M  V30 3095 C 285.515 -0.905149 -3.33018 0
M  V30 3096 C 284.628 -2.10285 -3.77365 0
M  V30 3097 C 283.763 -1.75339 -5.01427 0
M  V30 3098 C 282.802 -2.91515 -5.38224 0
M  V30 3099 N 281.939 -2.56762 -6.53466 0
M  V30 3100 H 286.779 -2.13853 -2.07535 0
M  V30 3101 H 284.316 -1.06379 -1.01597 0
M  V30 3102 H 286.274 -0.719765 -4.10944 0
M  V30 3103 H 284.904 0.00519624 -3.228 0
M  V30 3104 H 283.956 -2.39899 -2.95216 0
M  V30 3105 H 285.268 -2.97237 -4.00564 0
M  V30 3106 H 284.422 -1.53266 -5.87022 0
M  V30 3107 H 283.161 -0.855801 -4.80133 0
M  V30 3108 H 282.166 -3.14237 -4.51149 0
M  V30 3109 H 283.391 -3.81985 -5.61484 0
M  V30 3110 H 281.337 -1.69526 -6.33717 0
M  V30 3111 H 281.254 -3.37243 -6.76612 0
M  V30 3112 H 282.522 -2.38083 -7.42251 0
M  V30 3113 N 286.751 1.08385 -1.14413 0
M  V30 3114 C 287.979 1.84517 -0.936001 0
M  V30 3115 C 288.394 1.81626 0.515503 0
M  V30 3116 O 287.751 1.22008 1.35721 0
M  V30 3117 C 287.802 3.32049 -1.42918 0
M  V30 3118 O 287.523 3.34951 -2.82381 0
M  V30 3119 C 289.024 4.24986 -1.26103 0
M  V30 3120 H 286.244 0.582491 -0.333084 0
M  V30 3121 H 288.788 1.36885 -1.5193 0
M  V30 3122 H 286.943 3.7707 -0.888641 0
M  V30 3123 H 287.357 4.27048 -3.04517 0
M  V30 3124 H 288.831 5.26615 -1.6547 0
M  V30 3125 H 289.308 4.38726 -0.20392 0
M  V30 3126 H 289.914 3.85791 -1.79012 0
M  V30 3127 N 288.23 0.939286 1.26551 0
M  V30 3128 C 289.16 0.465044 2.28822 0
M  V30 3129 C 290.141 -0.480692 1.63167 0
M  V30 3130 O 291.326 -0.382955 1.90387 0
M  V30 3131 C 288.456 -0.27234 3.46231 0
M  V30 3132 C 287.41 0.58666 4.2396 0
M  V30 3133 C 286.736 -0.280573 5.33963 0
M  V30 3134 C 288.036 1.85704 4.88171 0
M  V30 3135 H 289.73 1.31979 2.68741 0
M  V30 3136 H 287.276 0.636061 1.29191 0
M  V30 3137 H 289.229 -0.615133 4.16886 0
M  V30 3138 H 287.953 -1.16121 3.0526 0
M  V30 3139 H 286.612 0.91232 3.55067 0
M  V30 3140 H 286.26 -1.16874 4.89234 0
M  V30 3141 H 285.96 0.29076 5.8688 0
M  V30 3142 H 287.484 -0.618678 6.07458 0
M  V30 3143 H 288.898 1.58161 5.51052 0
M  V30 3144 H 287.295 2.37279 5.51197 0
M  V30 3145 H 288.365 2.56957 4.11219 0
M  V30 3146 N 289.708 -1.40897 0.706093 0
M  V30 3147 C 290.671 -2.29131 0.0562841 0
M  V30 3148 C 291.671 -1.44901 -0.697166 0
M  V30 3149 O 292.861 -1.65926 -0.530484 0
M  V30 3150 C 289.993 -3.27957 -0.93043 0
M  V30 3151 H 291.186 -2.88091 0.833284 0
M  V30 3152 H 288.739 -1.4906 0.470192 0
M  V30 3153 H 289.474 -2.73997 -1.73482 0
M  V30 3154 H 289.259 -3.90124 -0.393166 0
M  V30 3155 H 290.749 -3.94049 -1.38256 0
M  V30 3156 N 291.186 -0.45159 -1.50991 0
M  V30 3157 C 292.118 0.388634 -2.25881 0
M  V30 3158 C 293.131 0.974041 -1.30446 0
M  V30 3159 O 294.32 0.865758 -1.56099 0
M  V30 3160 C 291.42 1.5571 -3.01011 0
M  V30 3161 C 290.593 1.08801 -4.23652 0
M  V30 3162 C 289.652 2.12825 -4.8124 0
M  V30 3163 O 288.678 1.71678 -5.42693 0
M  V30 3164 N 289.88 3.45453 -4.66522 0
M  V30 3165 H 292.645 -0.25329 -2.98628 0
M  V30 3166 H 290.206 -0.281268 -1.59438 0
M  V30 3167 H 292.198 2.24952 -3.3642 0
M  V30 3168 H 290.768 2.10409 -2.31186 0
M  V30 3169 H 289.988 0.22215 -3.93574 0
M  V30 3170 H 291.276 0.752213 -5.03209 0
M  V30 3171 H 290.674 3.81605 -4.17605 0
M  V30 3172 H 289.231 4.10549 -5.06254 0
M  V30 3173 N 292.664 1.56529 -0.183458 0
M  V30 3174 C 293.594 2.21549 0.737456 0
M  V30 3175 C 294.575 1.17489 1.23005 0
M  V30 3176 O 295.76 1.45959 1.281 0
M  V30 3177 C 292.89 2.86575 1.96194 0
M  V30 3178 C 291.844 3.96778 1.60473 0
M  V30 3179 C 291.17 4.48911 2.90487 0
M  V30 3180 C 292.47 5.15767 0.823497 0
M  V30 3181 H 294.164 2.98761 0.195453 0
M  V30 3182 H 291.71 1.43702 0.0925686 0
M  V30 3183 H 293.663 3.30739 2.61131 0
M  V30 3184 H 292.387 2.06749 2.52828 0
M  V30 3185 H 291.046 3.53286 0.978997 0
M  V30 3186 H 290.694 3.65862 3.45186 0
M  V30 3187 H 290.394 5.23265 2.67335 0
M  V30 3188 H 291.918 4.95771 3.56432 0
M  V30 3189 H 293.332 5.56549 1.37571 0
M  V30 3190 H 291.729 5.96114 0.690551 0
M  V30 3191 H 292.799 4.84574 -0.177782 0
M  V30 3192 N 294.142 -0.090211 1.57342 0
M  V30 3193 C 295.09 -1.12792 2.03422 0
M  V30 3194 C 296.084 -1.41182 0.936166 0
M  V30 3195 O 297.29 -1.40805 1.12133 0
M  V30 3196 H 293.665 -0.380986 0.648347 0
M  V30 3197 H 295.636 -0.71299 2.89757 0
M  V30 3198 C 294.385 -2.43855 2.47851 0
M  V30 3199 H 293.708 -2.22855 3.31927 0
M  V30 3200 H 295.148 -3.14955 2.83865 0
M  V30 3201 C 293.607 -3.08503 1.3538 0
M  V30 3202 O 294.137 -3.95805 0.685641 0
M  V30 3203 N 292.343 -2.68831 1.10355 0
M  V30 3204 H 291.89 -1.97929 1.64869 0
M  V30 3205 H 291.848 -3.12412 0.353031 0
M  V30 3206 N 295.62 -1.53406 -0.361157 0
M  V30 3207 C 297.031 -1.61442 -0.937728 0
M  V30 3208 C 297.382 -0.48461 -1.90121 0
M  V30 3209 O 296.507 0.388312 -2.12888 0
M  V30 3210 C 297.102 -2.92624 -1.70753 0
M  V30 3211 C 295.661 -3.02981 -2.23337 0
M  V30 3212 C 294.808 -2.5677 -1.04712 0
M  V30 3213 H 297.759 -1.58083 -0.139816 0
M  V30 3214 H 297.78 -2.80675 -2.56908 0
M  V30 3215 H 297.292 -3.74834 -1.00604 0
M  V30 3216 H 295.393 -2.25368 -2.96715 0
M  V30 3217 H 295.506 -4.0814 -2.50916 0
M  V30 3218 H 293.87 -2.11752 -1.41539 0
M  V30 3219 H 294.653 -3.41402 -0.360539 0
M  V30 3220 N 297.098 0.621204 -1.44841 0
M  V30 3221 C 298.008 1.7612 -1.5498 0
M  V30 3222 C 299.024 1.68477 -0.434927 0
M  V30 3223 O 300.2 1.89076 -0.693693 0
M  V30 3224 C 297.265 3.1254 -1.50065 0
M  V30 3225 C 296.326 3.31741 -2.72482 0
M  V30 3226 C 295.559 4.61653 -2.67792 0
M  V30 3227 O 295.782 5.431 -1.74352 0
M  V30 3228 O 294.716 4.83271 -3.58794 0
M  V30 3229 H 298.542 1.70518 -2.51311 0
M  V30 3230 H 296.127 0.783643 -1.27198 0
M  V30 3231 H 298.009 3.93844 -1.49882 0
M  V30 3232 H 296.684 3.18663 -0.568806 0
M  V30 3233 H 295.591 2.50077 -2.7823 0
M  V30 3234 H 296.924 3.30486 -3.64746 0
M  V30 3235 N 298.576 1.31904 0.862503 0
M  V30 3236 C 299.801 1.25135 1.65397 0
M  V30 3237 C 300.226 -0.179 1.87246 0
M  V30 3238 O 299.584 -1.1277 1.4196 0
M  V30 3239 C 299.632 2.00832 2.99498 0
M  V30 3240 O 298.736 1.35075 3.89652 0
M  V30 3241 H 298.077 0.431655 0.504549 0
M  V30 3242 H 300.607 1.74094 1.07483 0
M  V30 3243 H 300.617 2.10709 3.49379 0
M  V30 3244 H 299.292 3.04847 2.82916 0
M  V30 3245 H 297.869 1.33696 3.48109 0
M  V30 3246 N 300.054 -1.07777 1.14986 0
M  V30 3247 C 301.279 -1.84558 0.946213 0
M  V30 3248 C 301.704 -1.81323 -0.500362 0
M  V30 3249 O 301.062 -1.20301 -1.35637 0
M  V30 3250 C 301.11 -3.29736 1.45968 0
M  V30 3251 O 300.214 -4.07149 0.65601 0
M  V30 3252 H 299.555 -0.571641 0.33782 0
M  V30 3253 H 302.085 -1.35991 1.52865 0
M  V30 3254 H 302.095 -3.80574 1.47063 0
M  V30 3255 H 300.77 -3.31406 2.51283 0
M  V30 3256 H 299.347 -3.65994 0.714322 0
M  V30 3257 N 301.532 -0.945985 -1.26051 0
M  V30 3258 C 302.462 -0.477172 -2.28572 0
M  V30 3259 C 303.443 0.472032 -1.63419 0
M  V30 3260 O 304.628 0.372853 -1.90587 0
M  V30 3261 C 301.758 0.253975 -3.4637 0
M  V30 3262 C 300.712 -0.609135 -4.23643 0
M  V30 3263 C 300.038 0.252252 -5.34105 0
M  V30 3264 C 301.338 -1.8829 -4.8718 0
M  V30 3265 H 303.032 -1.33402 -2.68038 0
M  V30 3266 H 300.578 -0.642904 -1.28852 0
M  V30 3267 H 302.531 0.593016 -4.17207 0
M  V30 3268 H 301.255 1.145 -3.05871 0
M  V30 3269 H 299.914 -0.931138 -3.54578 0
M  V30 3270 H 299.562 1.14278 -4.89846 0
M  V30 3271 H 299.262 -0.32188 -5.86718 0
M  V30 3272 H 300.786 0.586454 -6.07777 0
M  V30 3273 H 302.2 -1.61081 -5.50205 0
M  V30 3274 H 300.597 -2.40199 -5.49931 0
M  V30 3275 H 301.667 -2.59134 -4.09851 0
M  V30 3276 N 303.011 1.40521 -0.713556 0
M  V30 3277 C 304.258 2.00923 -0.25219 0
M  V30 3278 C 304.586 1.56571 1.15395 0
M  V30 3279 O 303.841 0.775874 1.79663 0
M  V30 3280 C 304.14 3.56317 -0.278 0
M  V30 3281 C 303.806 4.20246 -1.63415 0
M  V30 3282 C 302.468 4.37422 -2.00538 0
M  V30 3283 C 304.82 4.55923 -2.52554 0
M  V30 3284 C 302.148 4.87558 -3.2635 0
M  V30 3285 C 304.5 5.07458 -3.77716 0
M  V30 3286 C 303.164 5.22843 -4.14959 0
M  V30 3287 H 302.434 0.735231 -0.0922829 0
M  V30 3288 H 305.081 1.68161 -0.916188 0
M  V30 3289 H 303.386 3.88976 0.469567 0
M  V30 3290 H 305.083 4.00883 0.0967819 0
M  V30 3291 H 301.673 4.07263 -1.33546 0
M  V30 3292 H 305.857 4.42291 -2.25149 0
M  V30 3293 H 301.113 4.97654 -3.55176 0
M  V30 3294 H 305.287 5.34041 -4.4696 0
M  V30 3295 H 302.914 5.61454 -5.12516 0
M  V30 3296 N 304.489 0.459591 1.5075 0
M  V30 3297 C 305.738 -0.100971 2.01447 0
M  V30 3298 C 306.051 -1.41816 1.34713 0
M  V30 3299 O 307.257 -2.06299 1.76502 0
M  V30 3300 C 305.713 -0.23047 3.59161 0
M  V30 3301 C 305.321 1.0776 4.34847 0
M  V30 3302 C 307.065 -0.743608 4.17936 0
M  V30 3303 C 304.972 0.91253 5.84317 0
M  V30 3304 H 303.902 -0.0415102 0.752856 0
M  V30 3305 H 306.553 0.592742 1.73663 0
M  V30 3306 H 304.935 -0.987703 3.83485 0
M  V30 3307 H 306.109 1.8449 4.22256 0
M  V30 3308 H 304.424 1.52097 3.87628 0
M  V30 3309 H 307.021 -0.883959 5.27343 0
M  V30 3310 H 307.364 -1.73196 3.78562 0
M  V30 3311 H 307.897 -0.04408 3.97776 0
M  V30 3312 H 304.636 1.87391 6.28144 0
M  V30 3313 H 304.156 0.185422 5.99513 0
M  V30 3314 H 305.835 0.574547 6.44444 0
M  V30 3315 N 305.967 -1.56429 0.191757 0
M  V30 3316 C 307.216 -1.9666 -0.448088 0
M  V30 3317 C 307.529 -1.08136 -1.62991 0
M  V30 3318 O 308.735 -1.38135 -2.33733 0
M  V30 3319 C 307.191 -3.49753 -0.848585 0
M  V30 3320 C 306.799 -4.46935 0.308764 0
M  V30 3321 C 308.543 -3.9876 -1.4557 0
M  V30 3322 C 306.45 -5.91293 -0.112506 0
M  V30 3323 H 305.38 -0.734312 -0.171179 0
M  V30 3324 H 308.031 -1.81301 0.283242 0
M  V30 3325 H 306.413 -3.60604 -1.63649 0
M  V30 3326 H 307.587 -4.47813 1.08627 0
M  V30 3327 H 305.902 -4.08102 0.827158 0
M  V30 3328 H 308.499 -5.04086 -1.78328 0
M  V30 3329 H 308.842 -3.42875 -2.36099 0
M  V30 3330 H 309.375 -3.9101 -0.731836 0
M  V30 3331 H 306.114 -6.51097 0.758514 0
M  V30 3332 H 305.634 -5.93676 -0.854941 0
M  V30 3333 H 307.313 -6.44663 -0.549448 0
M  V30 3334 N 307.445 0.0818655 -1.57387 0
M  V30 3335 C 308.408 1.08265 -2.02018 0
M  V30 3336 C 309.408 1.32183 -0.915664 0
M  V30 3337 O 310.598 1.28073 -1.18081 0
M  V30 3338 C 307.73 2.42871 -2.39221 0
M  V30 3339 H 308.923 0.698204 -2.91659 0
M  V30 3340 H 306.476 0.327303 -1.52835 0
M  V30 3341 H 307.211 2.86167 -1.52575 0
M  V30 3342 H 306.996 2.26855 -3.19811 0
M  V30 3343 H 308.486 3.14826 -2.74362 0
M  V30 3344 N 308.923 1.53595 0.353017 0
M  V30 3345 C 310.148 1.7462 1.11904 0
M  V30 3346 C 310.573 0.479721 1.8188 0
M  V30 3347 O 309.931 -0.567066 1.72204 0
M  V30 3348 C 309.979 2.92029 2.11545 0
M  V30 3349 O 309.083 2.61516 3.18878 0
M  V30 3350 H 308.424 0.579531 0.324099 0
M  V30 3351 H 310.954 2.00525 0.406301 0
M  V30 3352 H 310.964 3.18551 2.5493 0
M  V30 3353 H 309.639 3.83888 1.60008 0
M  V30 3354 H 308.216 2.45852 2.80377 0
M  V30 3355 N 310.401 -0.613514 1.45168 0
M  V30 3356 C 311.348 -1.72456 1.53387 0
M  V30 3357 C 312.318 -1.6169 0.380191 0
M  V30 3358 O 313.503 -1.81356 0.592836 0
M  V30 3359 C 310.643 -3.10753 1.50088 0
M  V30 3360 C 309.756 -3.32368 2.75963 0
M  V30 3361 C 308.891 -4.60737 2.64376 0
M  V30 3362 C 307.93 -4.7559 3.85332 0
M  V30 3363 N 307.067 -5.95253 3.72315 0
M  V30 3364 H 311.907 -1.64768 2.48305 0
M  V30 3365 H 309.444 -0.803503 1.23216 0
M  V30 3366 H 311.402 -3.90758 1.46164 0
M  V30 3367 H 310.032 -3.17413 0.587243 0
M  V30 3368 H 309.084 -2.4618 2.89999 0
M  V30 3369 H 310.396 -3.39218 3.65695 0
M  V30 3370 H 309.55 -5.48928 2.58385 0
M  V30 3371 H 308.289 -4.56275 1.72233 0
M  V30 3372 H 307.294 -3.85824 3.91688 0
M  V30 3373 H 308.519 -4.81854 4.78533 0
M  V30 3374 H 306.465 -5.91847 2.82937 0
M  V30 3375 H 306.382 -6.03236 4.55677 0
M  V30 3376 H 307.65 -6.85958 3.70246 0
M  V30 3377 N 311.879 -1.3236 -0.855495 0
M  V30 3378 C 313.107 -1.2587 -1.64208 0
M  V30 3379 C 313.522 0.173457 -1.88002 0
M  V30 3380 O 312.879 1.11027 -1.44842 0
M  V30 3381 C 312.93 -2.01424 -3.00184 0
M  V30 3382 O 312.651 -3.39051 -2.77445 0
M  V30 3383 C 314.152 -2.01948 -3.94629 0
M  V30 3384 H 311.372 -0.434318 -0.511477 0
M  V30 3385 H 313.916 -1.74469 -1.0668 0
M  V30 3386 H 312.071 -1.56549 -3.5436 0
M  V30 3387 H 312.485 -3.77711 -3.63916 0
M  V30 3388 H 313.959 -2.59297 -4.87308 0
M  V30 3389 H 314.436 -1.00554 -4.27534 0
M  V30 3390 H 315.042 -2.46767 -3.4639 0
M  V30 3391 N 313.357 1.07166 -1.15556 0
M  V30 3392 C 314.604 1.79798 -0.931604 0
M  V30 3393 C 314.932 1.8682 0.54115 0
M  V30 3394 O 314.187 1.34942 1.41736 0
M  V30 3395 C 314.486 3.24707 -1.49332 0
M  V30 3396 C 314.152 3.37781 -2.98688 0
M  V30 3397 C 312.814 3.41057 -3.39461 0
M  V30 3398 C 315.166 3.40424 -3.94665 0
M  V30 3399 C 312.494 3.4458 -4.74849 0
M  V30 3400 C 314.846 3.45485 -5.29927 0
M  V30 3401 C 313.51 3.47039 -5.70193 0
M  V30 3402 H 312.78 0.657928 -0.340898 0
M  V30 3403 H 315.427 1.26091 -1.44129 0
M  V30 3404 H 313.732 3.81208 -0.904859 0
M  V30 3405 H 315.429 3.79486 -1.29582 0
M  V30 3406 H 312.019 3.35932 -2.66172 0
M  V30 3407 H 316.203 3.37113 -3.64237 0
M  V30 3408 H 311.459 3.44083 -5.05388 0
M  V30 3409 H 315.633 3.46476 -6.04092 0
M  V30 3410 H 313.26 3.49522 -6.75084 0
M  V30 3411 N 314.835 0.952656 1.25548 0
M  V30 3412 C 316.063 0.623496 1.97282 0
M  V30 3413 C 316.478 -0.803987 1.70826 0
M  V30 3414 O 315.835 -1.53755 0.983147 0
M  V30 3415 C 315.886 0.870209 3.5087 0
M  V30 3416 O 315.607 2.24156 3.76412 0
M  V30 3417 C 317.108 0.553164 4.39835 0
M  V30 3418 H 314.328 0.233931 0.628902 0
M  V30 3419 H 316.872 1.27649 1.59768 0
M  V30 3420 H 315.027 0.263652 3.86502 0
M  V30 3421 H 315.441 2.31021 4.70882 0
M  V30 3422 H 316.915 0.776342 5.46513 0
M  V30 3423 H 317.392 -0.512215 4.36203 0
M  V30 3424 H 317.998 1.13896 4.09766 0
M  V30 3425 N 316.313 -1.40141 0.720998 0
M  V30 3426 C 317.541 -2.05096 0.272656 0
M  V30 3427 C 317.956 -1.54334 -1.0875 0
M  V30 3428 O 317.313 -0.702211 -1.6845 0
M  V30 3429 C 317.364 -3.60636 0.249835 0
M  V30 3430 O 317.085 -4.09526 1.55629 0
M  V30 3431 C 318.586 -4.42772 -0.216396 0
M  V30 3432 H 315.806 -0.659897 0.121558 0
M  V30 3433 H 318.35 -1.79449 0.980723 0
M  V30 3434 H 316.505 -3.85232 -0.409237 0
M  V30 3435 H 316.919 -5.03758 1.4604 0
M  V30 3436 H 318.393 -5.51702 -0.181212 0
M  V30 3437 H 318.87 -4.20756 -1.25941 0
M  V30 3438 H 319.476 -4.23294 0.412596 0
M  V30 3439 N 317.792 -0.46758 -1.50504 0
M  V30 3440 C 318.724 0.364655 -2.26281 0
M  V30 3441 C 319.737 0.960151 -1.31472 0
M  V30 3442 O 320.926 0.849153 -1.57008 0
M  V30 3443 C 318.026 1.52509 -3.02645 0
M  V30 3444 C 317.199 1.04302 -4.24782 0
M  V30 3445 C 316.258 2.07709 -4.8347 0
M  V30 3446 O 315.284 1.65913 -5.44483 0
M  V30 3447 N 316.486 3.40485 -4.70159 0
M  V30 3448 H 319.251 -0.28495 -2.98342 0
M  V30 3449 H 316.812 -0.298163 -1.59131 0
M  V30 3450 H 318.804 2.21371 -3.38787 0
M  V30 3451 H 317.374 2.07945 -2.33404 0
M  V30 3452 H 316.594 0.180393 -3.93787 0
M  V30 3453 H 317.882 0.698798 -5.03978 0
M  V30 3454 H 317.28 3.77155 -4.21629 0
M  V30 3455 H 315.837 4.05156 -5.1058 0
M  V30 3456 N 319.27 1.56325 -0.20005 0
M  V30 3457 C 320.18 2.22931 0.730668 0
M  V30 3458 C 321.196 1.22997 1.23076 0
M  V30 3459 O 322.372 1.55748 1.27689 0
M  V30 3460 C 319.437 2.87948 1.93098 0
M  V30 3461 C 318.498 4.03166 1.47497 0
M  V30 3462 C 317.731 4.65073 2.61807 0
M  V30 3463 O 317.954 4.25913 3.79413 0
M  V30 3464 O 316.888 5.54452 2.34237 0
M  V30 3465 H 320.714 3.03084 0.193391 0
M  V30 3466 H 318.299 1.49371 0.0294621 0
M  V30 3467 H 320.181 3.29063 2.6324 0
M  V30 3468 H 318.856 2.10771 2.45677 0
M  V30 3469 H 317.763 3.66664 0.742201 0
M  V30 3470 H 319.096 4.82022 0.995796 0
M  V30 3471 N 320.748 -0.0735177 1.57428 0
M  V30 3472 C 321.976 -0.785969 1.9139 0
M  V30 3473 C 322.391 -1.71207 0.795847 0
M  V30 3474 O 321.748 -1.81033 -0.230915 0
M  V30 3475 C 321.799 -1.58107 3.25091 0
M  V30 3476 O 321.52 -0.6922 4.32597 0
M  V30 3477 C 323.021 -2.39467 3.73055 0
M  V30 3478 H 320.241 -0.223558 0.632663 0
M  V30 3479 H 322.785 -0.044302 2.04452 0
M  V30 3480 H 320.94 -2.27503 3.13562 0
M  V30 3481 H 321.354 -1.24504 5.09508 0
M  V30 3482 H 322.828 -2.90716 4.69242 0
M  V30 3483 H 323.305 -3.18913 3.01979 0
M  V30 3484 H 323.911 -1.7523 3.87523 0
M  V30 3485 N 322.226 -1.5378 -0.344866 0
M  V30 3486 C 323.475 -1.7018 -1.08267 0
M  V30 3487 C 323.788 -0.471 -1.89845 0
M  V30 3488 O 324.994 -0.515917 -2.66553 0
M  V30 3489 C 323.45 -3.00923 -1.97417 0
M  V30 3490 C 323.058 -4.31335 -1.21053 0
M  V30 3491 C 324.802 -3.26688 -2.71063 0
M  V30 3492 C 322.709 -5.53153 -2.09225 0
M  V30 3493 H 321.639 -0.634138 -0.407903 0
M  V30 3494 H 324.29 -1.8028 -0.342246 0
M  V30 3495 H 322.672 -2.84676 -2.75274 0
M  V30 3496 H 323.846 -4.58281 -0.481159 0
M  V30 3497 H 322.161 -4.12173 -0.591813 0
M  V30 3498 H 324.758 -4.1489 -3.37299 0
M  V30 3499 H 325.101 -2.43639 -3.37558 0
M  V30 3500 H 325.634 -3.43705 -2.0028 0
M  V30 3501 H 322.373 -6.38741 -1.47274 0
M  V30 3502 H 321.893 -5.30458 -2.79955 0
M  V30 3503 H 323.572 -5.88744 -2.68308 0
M  V30 3504 N 323.704 0.605807 -1.45491 0
M  V30 3505 C 324.932 1.39136 -1.5313 0
M  V30 3506 C 325.347 1.88082 -0.164507 0
M  V30 3507 O 324.704 1.62316 0.834247 0
M  V30 3508 C 324.755 2.59463 -2.51716 0
M  V30 3509 O 324.476 2.12551 -3.83084 0
M  V30 3510 C 325.977 3.52301 -2.6907 0
M  V30 3511 H 323.197 0.425849 -0.51855 0
M  V30 3512 H 325.741 0.73865 -1.90694 0
M  V30 3513 H 323.896 3.20772 -2.17219 0
M  V30 3514 H 324.31 2.90744 -4.36541 0
M  V30 3515 H 325.784 4.33271 -3.42024 0
M  V30 3516 H 326.261 4.02757 -1.75167 0
M  V30 3517 H 326.867 2.96845 -3.04571 0
M  V30 3518 N 325.182 1.32811 0.848464 0
M  V30 3519 C 326.13 1.22231 1.97895 0
M  V30 3520 C 327.124 0.125749 1.68933 0
M  V30 3521 O 328.33 0.289083 1.77663 0
M  V30 3522 H 324.705 0.379058 0.649476 0
M  V30 3523 H 326.676 2.17828 2.03945 0
M  V30 3524 C 325.425 0.968572 3.33937 0
M  V30 3525 H 324.748 1.80458 3.56756 0
M  V30 3526 H 326.188 0.934808 4.13567 0
M  V30 3527 C 324.647 -0.328628 3.35293 0
M  V30 3528 O 325.177 -1.33848 3.78745 0
M  V30 3529 N 323.383 -0.352788 2.88451 0
M  V30 3530 H 322.93 0.469541 2.53285 0
M  V30 3531 H 322.888 -1.22057 2.89741 0
M  V30 3532 N 326.66 -1.06551 1.16123 0
M  V30 3533 C 327.623 -2.12132 0.867906 0
M  V30 3534 C 328.623 -1.60224 -0.135944 0
M  V30 3535 O 329.813 -1.73943 0.0946422 0
M  V30 3536 C 326.945 -3.396 0.297419 0
M  V30 3537 H 328.138 -2.39586 1.80385 0
M  V30 3538 H 325.691 -1.22574 0.969812 0
M  V30 3539 H 326.426 -3.17794 -0.64633 0
M  V30 3540 H 326.211 -3.78581 1.02073 0
M  V30 3541 H 327.701 -4.17455 0.110052 0
M  V30 3542 N 328.138 -0.959301 -1.25041 0
M  V30 3543 C 329.048 -0.489994 -2.29426 0
M  V30 3544 C 330.064 0.444944 -1.68215 0
M  V30 3545 O 331.24 0.320046 -1.98841 0
M  V30 3546 C 328.305 0.220309 -3.45999 0
M  V30 3547 C 327.366 -0.753418 -4.22637 0
M  V30 3548 C 326.599 -0.076918 -5.33645 0
M  V30 3549 O 326.822 1.13649 -5.58963 0
M  V30 3550 O 325.756 -0.764824 -5.97021 0
M  V30 3551 H 329.582 -1.35755 -2.71669 0
M  V30 3552 H 327.167 -0.725961 -1.30576 0
M  V30 3553 H 329.049 0.619677 -4.16819 0
M  V30 3554 H 327.724 1.06296 -3.0575 0
M  V30 3555 H 326.631 -1.20308 -3.54227 0
M  V30 3556 H 327.964 -1.56423 -4.66683 0
M  V30 3557 N 329.616 1.39756 -0.72842 0
M  V30 3558 C 330.844 2.04948 -0.283528 0
M  V30 3559 C 331.259 1.54908 1.0793 0
M  V30 3560 O 330.616 0.711135 1.68075 0
M  V30 3561 C 330.667 3.60498 -0.268957 0
M  V30 3562 O 330.388 4.08695 -1.57798 0
M  V30 3563 C 331.889 4.4288 0.192912 0
M  V30 3564 H 329.109 0.659243 -0.125056 0
M  V30 3565 H 331.653 1.78927 -0.990226 0
M  V30 3566 H 329.808 3.85444 0.388801 0
M  V30 3567 H 330.222 5.02977 -1.48709 0
M  V30 3568 H 331.696 5.51791 0.151952 0
M  V30 3569 H 332.173 4.21418 1.23708 0
M  V30 3570 H 332.779 4.23069 -0.435039 0
M  V30 3571 N 331.094 0.475555 1.50254 0
M  V30 3572 C 332.057 -0.305016 2.27161 0
M  V30 3573 C 333.057 -0.916519 1.32123 0
M  V30 3574 O 334.247 -0.785003 1.5551 0
M  V30 3575 C 331.379 -1.43496 3.09227 0
M  V30 3576 H 332.572 0.369511 2.97615 0
M  V30 3577 H 330.125 0.229747 1.54602 0
M  V30 3578 H 330.86 -2.14441 2.43281 0
M  V30 3579 H 330.645 -1.00223 3.79075 0
M  V30 3580 H 332.135 -1.98548 3.67381 0
M  V30 3581 N 332.573 -1.56217 0.208337 0
M  V30 3582 C 333.52 -2.19699 -0.707192 0
M  V30 3583 C 334.49 -1.14836 -1.20008 0
M  V30 3584 O 335.675 -1.4314 -1.26157 0
M  V30 3585 C 332.815 -2.87061 -1.91546 0
M  V30 3586 C 331.928 -4.06483 -1.46271 0
M  V30 3587 C 331.063 -4.61665 -2.62752 0
M  V30 3588 C 330.102 -5.73417 -2.14147 0
M  V30 3589 N 329.239 -6.22948 -3.23853 0
M  V30 3590 H 334.079 -2.97575 -0.159111 0
M  V30 3591 H 331.616 -1.46948 -0.0667874 0
M  V30 3592 H 333.574 -3.24294 -2.62468 0
M  V30 3593 H 332.204 -2.11725 -2.43664 0
M  V30 3594 H 331.256 -3.74825 -0.648886 0
M  V30 3595 H 332.568 -4.87271 -1.06622 0
M  V30 3596 H 331.722 -5.01272 -3.41776 0
M  V30 3597 H 330.461 -3.80013 -3.05682 0
M  V30 3598 H 329.466 -5.33326 -1.33581 0
M  V30 3599 H 330.691 -6.56897 -1.72232 0
M  V30 3600 H 328.637 -5.44213 -3.6629 0
M  V30 3601 H 328.554 -6.98823 -2.88414 0
M  V30 3602 H 329.822 -6.6721 -4.03052 0
M  V30 3603 N 334.051 0.0651679 -1.57465 0
M  V30 3604 C 334.961 1.09448 -2.07505 0
M  V30 3605 C 335.977 1.41974 -1.00595 0
M  V30 3606 O 337.153 1.52018 -1.32107 0
M  V30 3607 C 334.218 2.38689 -2.51453 0
M  V30 3608 C 333.279 2.13073 -3.72691 0
M  V30 3609 C 332.512 3.36152 -4.14533 0
M  V30 3610 O 332.735 4.45517 -3.56189 0
M  V30 3611 O 331.669 3.23974 -5.07272 0
M  V30 3612 H 335.495 0.69935 -2.95538 0
M  V30 3613 H 333.08 0.279752 -1.46757 0
M  V30 3614 H 334.962 3.14736 -2.80212 0
M  V30 3615 H 333.637 2.77568 -1.66546 0
M  V30 3616 H 332.544 1.34709 -3.49005 0
M  V30 3617 H 333.877 1.79071 -4.5847 0
M  V30 3618 N 335.529 1.53961 0.336706 0
M  V30 3619 C 336.775 1.7273 1.07406 0
M  V30 3620 C 337.13 0.488095 1.86106 0
M  V30 3621 O 336.423 -0.519379 1.84426 0
M  V30 3622 C 336.617 2.93493 2.03953 0
M  V30 3623 C 336.446 4.29039 1.34744 0
M  V30 3624 C 335.216 4.93416 1.08942 0
M  V30 3625 C 337.414 5.08501 0.770115 0
M  V30 3626 N 335.396 6.12821 0.363864 0
M  V30 3627 C 336.767 6.19752 0.175472 0
M  V30 3628 C 338.822 4.93349 0.671633 0
M  V30 3629 C 337.525 7.17503 -0.508081 0
M  V30 3630 C 339.551 5.914 0.0018076 0
M  V30 3631 C 338.913 7.01993 -0.581835 0
M  V30 3632 H 335.012 0.685026 0.377177 0
M  V30 3633 H 337.596 1.91403 0.356815 0
M  V30 3634 H 335.767 2.76308 2.72962 0
M  V30 3635 H 337.499 3.00949 2.70577 0
M  V30 3636 H 334.254 4.53099 1.37833 0
M  V30 3637 H 334.678 6.76998 0.0156092 0
M  V30 3638 H 339.32 4.08007 1.1086 0
M  V30 3639 H 337.038 8.02414 -0.956918 0
M  V30 3640 H 340.624 5.81753 -0.0738538 0
M  V30 3641 H 339.504 7.76561 -1.09192 0
M  V30 3642 N 337.007 -0.598083 1.45811 0
M  V30 3643 C 338.254 -1.35681 1.50323 0
M  V30 3644 C 338.582 -1.9393 0.148739 0
M  V30 3645 O 337.837 -1.76094 -0.853787 0
M  V30 3646 C 338.136 -2.51669 2.53766 0
M  V30 3647 C 337.802 -2.11508 3.98215 0
M  V30 3648 C 336.464 -2.0027 4.37545 0
M  V30 3649 C 338.816 -1.80308 4.89018 0
M  V30 3650 C 336.144 -1.56067 5.65562 0
M  V30 3651 C 338.496 -1.37589 6.17456 0
M  V30 3652 C 337.16 -1.24916 6.55708 0
M  V30 3653 H 336.43 -0.496492 0.550069 0
M  V30 3654 H 339.077 -0.675052 1.79207 0
M  V30 3655 H 337.382 -3.25225 2.18486 0
M  V30 3656 H 339.079 -3.09895 2.54492 0
M  V30 3657 H 335.669 -2.21185 3.67117 0
M  V30 3658 H 339.853 -1.87884 4.59362 0
M  V30 3659 H 335.109 -1.44886 5.93985 0
M  V30 3660 H 339.283 -1.12495 6.87254 0
M  V30 3661 H 336.91 -0.904386 7.54801 0
M  V30 3662 N 338.485 -1.33259 -0.841409 0
M  V30 3663 C 339.415 -1.25926 -1.96634 0
M  V30 3664 C 340.396 -0.140349 -1.6952 0
M  V30 3665 O 341.581 -0.329707 -1.91381 0
M  V30 3666 C 338.711 -0.99512 -3.32738 0
M  V30 3667 C 337.665 -2.0767 -3.74242 0
M  V30 3668 C 336.991 -1.66474 -5.08125 0
M  V30 3669 C 338.291 -3.49318 -3.88297 0
M  V30 3670 H 339.985 -2.20046 -2.03027 0
M  V30 3671 H 337.531 -1.05931 -0.975425 0
M  V30 3672 H 339.484 -0.930323 -4.11002 0
M  V30 3673 H 338.208 -0.0183004 -3.26595 0
M  V30 3674 H 336.867 -2.13187 -2.98239 0
M  V30 3675 H 336.515 -0.675012 -4.9845 0
M  V30 3676 H 336.215 -2.3885 -5.36865 0
M  V30 3677 H 337.739 -1.61455 -5.88867 0
M  V30 3678 H 339.153 -3.46316 -4.56879 0
M  V30 3679 H 337.55 -4.20158 -4.28471 0
M  V30 3680 H 338.62 -3.8801 -2.9082 0
M  V30 3681 N 339.963 1.05934 -1.16686 0
M  V30 3682 C 340.895 2.13468 -0.834503 0
M  V30 3683 C 341.908 1.62013 0.15984 0
M  V30 3684 O 343.097 1.7838 -0.0654228 0
M  V30 3685 C 340.197 3.3817 -0.222361 0
M  V30 3686 C 339.37 4.18928 -1.25771 0
M  V30 3687 C 338.429 5.21985 -0.664703 0
M  V30 3688 O 337.455 5.53334 -1.33453 0
M  V30 3689 N 338.657 5.77919 0.546834 0
M  V30 3690 H 341.422 2.42578 -1.75999 0
M  V30 3691 H 338.983 1.21967 -1.06469 0
M  V30 3692 H 340.975 4.04266 0.187472 0
M  V30 3693 H 339.545 3.06655 0.606758 0
M  V30 3694 H 338.765 3.48433 -1.84358 0
M  V30 3695 H 340.053 4.69687 -1.95631 0
M  V30 3696 H 339.451 5.54721 1.10912 0
M  V30 3697 H 338.008 6.45573 0.898829 0
M  V30 3698 N 341.441 0.965919 1.2453 0
M  V30 3699 C 342.404 0.499547 2.2369 0
M  V30 3700 C 343.404 -0.40294 1.5567 0
M  V30 3701 O 344.594 -0.19865 1.73064 0
M  V30 3702 C 341.726 -0.276792 3.39774 0
M  V30 3703 H 342.919 1.37613 2.66463 0
M  V30 3704 H 340.472 0.750324 1.37112 0
M  V30 3705 H 341.207 -1.17055 3.02438 0
M  V30 3706 H 340.992 0.370826 3.90343 0
M  V30 3707 H 342.482 -0.592175 4.1338 0
M  V30 3708 N 342.919 -1.39368 0.735821 0
M  V30 3709 C 343.882 -2.2896 0.104874 0
M  V30 3710 C 344.882 -1.46347 -0.666274 0
M  V30 3711 O 346.072 -1.67014 -0.49517 0
M  V30 3712 C 343.204 -3.29857 -0.860656 0
M  V30 3713 H 344.397 -2.86259 0.894205 0
M  V30 3714 H 341.95 -1.48029 0.501704 0
M  V30 3715 H 342.685 -2.77615 -1.67631 0
M  V30 3716 H 342.47 -3.9087 -0.310327 0
M  V30 3717 H 343.96 -3.96893 -1.29867 0
M  V30 3718 N 344.397 -0.483516 -1.5 0
M  V30 3719 C 345.344 0.304164 -2.28787 0
M  V30 3720 C 346.314 0.976114 -1.34392 0
M  V30 3721 O 347.499 0.986156 -1.63339 0
M  V30 3722 C 344.639 1.37298 -3.16612 0
M  V30 3723 C 343.752 0.714561 -4.26049 0
M  V30 3724 C 342.887 1.76232 -5.01114 0
M  V30 3725 C 341.926 1.08483 -6.0241 0
M  V30 3726 N 341.063 2.076 -6.70706 0
M  V30 3727 H 345.903 -0.373981 -2.95644 0
M  V30 3728 H 343.44 -0.196275 -1.45785 0
M  V30 3729 H 345.398 2.00445 -3.65893 0
M  V30 3730 H 344.028 2.02012 -2.51776 0
M  V30 3731 H 343.08 -0.0297798 -3.80388 0
M  V30 3732 H 344.392 0.180383 -4.98474 0
M  V30 3733 H 343.546 2.46929 -5.54176 0
M  V30 3734 H 342.285 2.33033 -4.28424 0
M  V30 3735 H 341.29 0.363545 -5.48597 0
M  V30 3736 H 342.515 0.523551 -6.77079 0
M  V30 3737 H 340.461 2.63394 -6.00799 0
M  V30 3738 H 340.378 1.59201 -7.39047 0
M  V30 3739 H 341.646 2.77639 -7.2838 0
M  V30 3740 N 345.875 1.56104 -0.216619 0
M  V30 3741 C 347.152 1.89988 0.465165 0
M  V30 3742 C 347.532 1.13326 1.78102 0
M  V30 3743 O 346.88 0.241033 2.27225 0
M  V30 3744 C 347.09 3.42646 0.662939 0
M  V30 3745 C 348.438 4.13311 0.972602 0
M  V30 3746 O 349.462 3.48217 0.749901 0
M  V30 3747 O 348.321 5.28396 1.39499 0
M  V30 3748 H 345.415 0.78979 0.245276 0
M  V30 3749 H 347.961 1.67721 -0.258436 0
M  V30 3750 H 346.733 3.90399 -0.26543 0
M  V30 3751 H 346.356 3.70677 1.43821 0
M  V30 3752 N 347.353 -0.0568162 1.57498 0
M  V30 3753 C 348.764 -0.606858 1.76562 0
M  V30 3754 C 349.115 -1.77114 0.844094 0
M  V30 3755 O 348.24 -2.16376 0.0318911 0
M  V30 3756 C 348.835 -1.10766 3.20182 0
M  V30 3757 C 347.394 -1.60344 3.40539 0
M  V30 3758 C 346.541 -0.529311 2.72201 0
M  V30 3759 H 349.492 0.169393 1.57793 0
M  V30 3760 H 349.513 -1.97602 3.25167 0
M  V30 3761 H 349.025 -0.26006 3.87228 0
M  V30 3762 H 347.126 -2.47379 2.78629 0
M  V30 3763 H 347.239 -1.67006 4.4905 0
M  V30 3764 H 345.603 -0.977893 2.35179 0
M  V30 3765 H 346.386 0.308352 3.41912 0
M  V30 3766 N 348.832 -1.54138 -0.328536 0
M  V30 3767 C 350.057 -1.76378 -1.09112 0
M  V30 3768 C 350.482 -0.508596 -1.81094 0
M  V30 3769 O 349.84 0.539598 -1.73084 0
M  V30 3770 C 349.888 -2.95358 -2.06872 0
M  V30 3771 O 348.992 -2.66556 -3.14677 0
M  V30 3772 H 348.333 -0.584614 -0.314838 0
M  V30 3773 H 350.863 -2.01146 -0.374348 0
M  V30 3774 H 350.873 -3.22566 -2.4983 0
M  V30 3775 H 349.548 -3.86385 -1.5388 0
M  V30 3776 H 348.125 -2.50282 -2.7643 0
M  V30 3777 N 350.31 0.590341 -1.46126 0
M  V30 3778 C 351.273 1.68194 -1.55703 0
M  V30 3779 C 352.273 1.54808 -0.434868 0
M  V30 3780 O 353.463 1.59564 -0.698928 0
M  V30 3781 C 350.595 3.07575 -1.47005 0
M  V30 3782 H 351.788 1.61064 -2.52979 0
M  V30 3783 H 349.341 0.807541 -1.33823 0
M  V30 3784 H 350.076 3.20268 -0.509785 0
M  V30 3785 H 349.861 3.187 -2.28414 0
M  V30 3786 H 351.351 3.87055 -1.56776 0
M  V30 3787 N 351.788 1.33704 0.83433 0
M  V30 3788 C 353.034 1.25603 1.59222 0
M  V30 3789 C 353.367 -0.176659 1.93395 0
M  V30 3790 O 352.642 -1.11915 1.59076 0
M  V30 3791 C 352.925 2.13576 2.89926 0
M  V30 3792 C 352.778 3.65326 2.62406 0
M  V30 3793 C 354.097 2.01238 3.91397 0
M  V30 3794 H 351.216 0.457613 0.577719 0
M  V30 3795 H 353.858 1.63848 0.961972 0
M  V30 3796 H 352.008 1.8109 3.43713 0
M  V30 3797 H 353.68 4.08124 2.15017 0
M  V30 3798 H 351.923 3.8698 1.96033 0
M  V30 3799 H 352.594 4.22232 3.55562 0
M  V30 3800 H 355.07 2.29738 3.46929 0
M  V30 3801 H 353.946 2.65036 4.80673 0
M  V30 3802 H 354.207 0.985951 4.30966 0
M  V30 3803 N 353.266 -1.05314 1.17247 0
M  V30 3804 C 354.229 -2.112 0.890357 0
M  V30 3805 C 355.229 -1.60359 -0.118943 0
M  V30 3806 O 356.419 -1.73833 0.113086 0
M  V30 3807 C 353.551 -3.39266 0.333422 0
M  V30 3808 H 354.744 -2.37659 1.82916 0
M  V30 3809 H 352.297 -1.21538 0.982758 0
M  V30 3810 H 353.032 -3.18462 -0.612587 0
M  V30 3811 H 352.817 -3.77477 1.06082 0
M  V30 3812 H 354.307 -4.17315 0.154322 0
M  V30 3813 N 354.744 -0.972509 -1.24016 0
M  V30 3814 C 355.691 -0.505969 -2.25186 0
M  V30 3815 C 356.661 0.451009 -1.5986 0
M  V30 3816 O 357.846 0.360307 -1.87367 0
M  V30 3817 C 354.986 0.193089 -3.44559 0
M  V30 3818 C 354.099 -0.803222 -4.24467 0
M  V30 3819 C 353.234 -0.0797793 -5.3114 0
M  V30 3820 C 352.273 -1.06583 -6.02749 0
M  V30 3821 N 351.41 -0.372074 -7.01113 0
M  V30 3822 H 356.25 -1.37351 -2.64459 0
M  V30 3823 H 353.787 -0.688419 -1.29997 0
M  V30 3824 H 355.745 0.615125 -4.1264 0
M  V30 3825 H 354.375 1.02455 -3.06109 0
M  V30 3826 H 353.427 -1.34368 -3.55878 0
M  V30 3827 H 354.739 -1.55494 -4.73944 0
M  V30 3828 H 353.893 0.400015 -6.0538 0
M  V30 3829 H 352.632 0.704597 -4.82583 0
M  V30 3830 H 351.637 -1.55645 -5.27309 0
M  V30 3831 H 352.862 -1.85074 -6.53395 0
M  V30 3832 H 350.808 0.393238 -6.5482 0
M  V30 3833 H 350.725 -1.06258 -7.48495 0
M  V30 3834 H 351.993 0.0855932 -7.79453 0
M  V30 3835 N 356.222 1.38976 -0.743202 0
M  V30 3836 C 357.172 2.27843 -0.084513 0
M  V30 3837 C 358.156 1.44677 0.704094 0
M  V30 3838 O 359.348 1.67511 0.571755 0
M  V30 3839 C 356.477 3.33466 0.815781 0
M  V30 3840 C 355.563 4.24095 0.0208844 0
M  V30 3841 N 355.954 4.95609 -1.0102 0
M  V30 3842 C 354.252 4.45303 0.249293 0
M  V30 3843 C 354.953 5.62287 -1.49024 0
M  V30 3844 N 353.929 5.37571 -0.807377 0
M  V30 3845 H 357.731 2.80593 -0.87436 0
M  V30 3846 H 355.245 1.51755 -0.578283 0
M  V30 3847 H 357.242 3.96008 1.30321 0
M  V30 3848 H 355.902 2.82276 1.6047 0
M  V30 3849 H 356.913 4.98849 -1.39176 0
M  V30 3850 H 353.59 4.0504 1.01237 0
M  V30 3851 H 354.98 6.29519 -2.34853 0
M  V30 3852 N 357.7 0.491464 1.49741 0
M  V30 3853 C 358.947 -0.0564256 2.02421 0
M  V30 3854 C 359.275 -1.37872 1.37192 0
M  V30 3855 O 358.53 -1.89375 0.493508 0
M  V30 3856 C 358.829 -0.267329 3.56399 0
M  V30 3857 C 358.495 0.975775 4.40215 0
M  V30 3858 C 357.157 1.31655 4.62839 0
M  V30 3859 C 359.509 1.80251 4.89039 0
M  V30 3860 C 356.837 2.48375 5.31532 0
M  V30 3861 C 359.189 2.96116 5.59015 0
M  V30 3862 C 357.853 3.30585 5.79888 0
M  V30 3863 H 357.123 -0.0206476 0.740712 0
M  V30 3864 H 359.77 0.649686 1.80143 0
M  V30 3865 H 358.075 -1.05588 3.77304 0
M  V30 3866 H 359.772 -0.705549 3.94744 0
M  V30 3867 H 356.362 0.700315 4.2284 0
M  V30 3868 H 360.546 1.55239 4.71396 0
M  V30 3869 H 355.802 2.7533 5.45897 0
M  V30 3870 H 359.976 3.60509 5.95824 0
M  V30 3871 H 357.603 4.21132 6.32892 0
M  V30 3872 N 359.178 -1.55987 0.224894 0
M  V30 3873 C 360.424 -1.98684 -0.406502 0
M  V30 3874 C 360.757 -1.11248 -1.59177 0
M  V30 3875 O 360.032 -0.170909 -1.93748 0
M  V30 3876 C 360.315 -3.50218 -0.837808 0
M  V30 3877 C 360.168 -4.48426 0.351332 0
M  V30 3878 C 361.487 -4.06243 -1.69278 0
M  V30 3879 H 358.606 -0.722337 -0.146283 0
M  V30 3880 H 361.248 -1.87255 0.321799 0
M  V30 3881 H 359.398 -3.60089 -1.45837 0
M  V30 3882 H 361.07 -4.50562 0.989526 0
M  V30 3883 H 359.313 -4.22159 0.998207 0
M  V30 3884 H 359.984 -5.52 0.00655905 0
M  V30 3885 H 362.46 -3.99337 -1.16914 0
M  V30 3886 H 361.336 -5.12581 -1.96346 0
M  V30 3887 H 361.597 -3.53332 -2.65723 0
M  V30 3888 N 360.656 0.0484629 -1.57525 0
M  V30 3889 C 361.619 1.03956 -2.04269 0
M  V30 3890 C 362.619 1.30211 -0.943496 0
M  V30 3891 O 363.809 1.25539 -1.20771 0
M  V30 3892 C 360.941 2.37742 -2.44319 0
M  V30 3893 H 362.134 0.636182 -2.93075 0
M  V30 3894 H 359.687 0.294811 -1.53494 0
M  V30 3895 H 360.422 2.82866 -1.5861 0
M  V30 3896 H 360.207 2.20021 -3.24551 0
M  V30 3897 H 361.697 3.08936 -2.80978 0
M  V30 3898 N 362.134 1.5431 0.320358 0
M  V30 3899 C 363.064 1.86912 1.3995 0
M  V30 3900 C 364.045 0.726211 1.53819 0
M  V30 3901 O 365.23 0.980233 1.67646 0
M  V30 3902 C 362.36 2.09932 2.7667 0
M  V30 3903 C 361.314 3.25776 2.77586 0
M  V30 3904 C 360.64 3.34173 4.17412 0
M  V30 3905 C 361.94 4.6335 2.41048 0
M  V30 3906 H 363.634 2.77292 1.12914 0
M  V30 3907 H 361.18 1.33421 0.541738 0
M  V30 3908 H 363.133 2.31324 3.52232 0
M  V30 3909 H 361.857 1.16304 3.0519 0
M  V30 3910 H 360.516 3.04276 2.04479 0
M  V30 3911 H 360.164 2.38098 4.43078 0
M  V30 3912 H 359.864 4.12033 4.18931 0
M  V30 3913 H 361.388 3.57803 4.94782 0
M  V30 3914 H 362.802 4.84602 3.06324 0
M  V30 3915 H 361.199 5.43782 2.53813 0
M  V30 3916 H 362.269 4.65381 1.36193 0
M  V30 3917 N 363.613 -0.582584 1.46437 0
M  V30 3918 C 364.838 -1.37168 1.55563 0
M  V30 3919 C 365.263 -1.87061 0.19743 0
M  V30 3920 O 364.621 -1.61572 -0.822451 0
M  V30 3921 C 364.669 -2.53511 2.56446 0
M  V30 3922 O 363.773 -3.54953 2.09958 0
M  V30 3923 H 363.114 -0.408494 0.523477 0
M  V30 3924 H 365.644 -0.706646 1.9201 0
M  V30 3925 H 365.654 -3.00426 2.76058 0
M  V30 3926 H 364.329 -2.16549 3.55076 0
M  V30 3927 H 362.906 -3.14516 2.00334 0
M  V30 3928 N 365.091 -1.34144 -0.827227 0
M  V30 3929 C 366.319 -1.29325 -1.61501 0
M  V30 3930 C 366.734 0.13354 -1.88327 0
M  V30 3931 O 366.091 1.0793 -1.47164 0
M  V30 3932 C 366.142 -2.07746 -2.95844 0
M  V30 3933 O 365.863 -3.4486 -2.70191 0
M  V30 3934 C 367.364 -2.10273 -3.90256 0
M  V30 3935 H 364.584 -0.445069 -0.50215 0
M  V30 3936 H 367.128 -1.76693 -1.02955 0
M  V30 3937 H 365.283 -1.6403 -3.5096 0
M  V30 3938 H 365.697 -3.85345 -3.55822 0
M  V30 3939 H 367.171 -2.69575 -4.81698 0
M  V30 3940 H 367.648 -1.096 -4.25305 0
M  V30 3941 H 368.254 -2.54059 -3.41078 0
M  V30 3942 N 366.569 1.04691 -1.17803 0
M  V30 3943 C 367.517 2.14665 -0.895635 0
M  V30 3944 C 368.511 1.68806 0.141679 0
M  V30 3945 O 369.717 1.79999 -0.00587914 0
M  V30 3946 H 366.092 0.701038 -0.272121 0
M  V30 3947 H 368.063 2.35685 -1.83017 0
M  V30 3948 C 366.812 3.45019 -0.430962 0
M  V30 3949 H 366.135 3.8071 -1.22064 0
M  V30 3950 H 367.575 4.23125 -0.272301 0
M  V30 3951 C 366.034 3.25943 0.852207 0
M  V30 3952 O 366.564 3.5296 1.91786 0
M  V30 3953 N 364.77 2.79304 0.802346 0
M  V30 3954 H 364.317 2.57518 -0.0650788 0
M  V30 3955 H 364.275 2.66921 1.66134 0
M  V30 3956 N 368.047 0.979072 1.23499 0
M  V30 3957 C 369.275 0.665202 1.95915 0
M  V30 3958 C 369.69 -0.767571 1.72493 0
M  V30 3959 O 369.047 -1.51635 1.01554 0
M  V30 3960 C 369.098 0.944438 3.48945 0
M  V30 3961 O 368.819 2.3209 3.71572 0
M  V30 3962 C 370.32 0.646336 4.38563 0
M  V30 3963 H 367.54 0.247218 0.623798 0
M  V30 3964 H 370.084 1.31009 1.57025 0
M  V30 3965 H 368.239 0.345575 3.85856 0
M  V30 3966 H 368.653 2.40957 4.65876 0
M  V30 3967 H 370.127 0.892091 5.44744 0
M  V30 3968 H 370.604 -0.419575 4.37191 0
M  V30 3969 H 371.21 1.22562 4.07258 0
M  V30 3970 N 369.525 -1.3858 0.750561 0
M  V30 3971 C 370.753 -2.04471 0.316098 0
M  V30 3972 C 371.168 -1.56606 -1.05452 0
M  V30 3973 O 370.525 -0.737784 -1.66922 0
M  V30 3974 C 370.576 -3.60025 0.326275 0
M  V30 3975 O 370.297 -4.06133 1.6428 0
M  V30 3976 C 371.798 -4.43131 -0.122429 0
M  V30 3977 H 369.018 -0.65717 0.135528 0
M  V30 3978 H 371.562 -1.77329 1.01857 0
M  V30 3979 H 369.717 -3.86014 -0.327431 0
M  V30 3980 H 370.131 -5.00547 1.56693 0
M  V30 3981 H 371.605 -5.51963 -0.0641473 0
M  V30 3982 H 372.082 -4.23333 -1.16988 0
M  V30 3983 H 372.688 -4.22323 0.50229 0
M  V30 3984 N 371.003 -0.499398 -1.49478 0
M  V30 3985 C 371.95 0.279881 -2.29097 0
M  V30 3986 C 372.92 0.961805 -1.3542 0
M  V30 3987 O 374.105 0.968777 -1.64376 0
M  V30 3988 C 371.245 1.33932 -3.18051 0
M  V30 3989 C 370.358 0.669333 -4.26783 0
M  V30 3990 C 369.493 1.70907 -5.02955 0
M  V30 3991 C 368.532 1.02087 -6.03527 0
M  V30 3992 N 367.669 2.00474 -6.7287 0
M  V30 3993 H 372.509 -0.405317 -2.95231 0
M  V30 3994 H 370.046 -0.211726 -1.45568 0
M  V30 3995 H 372.004 1.96553 -3.67998 0
M  V30 3996 H 370.634 1.9933 -2.53904 0
M  V30 3997 H 369.686 -0.0701234 -3.80335 0
M  V30 3998 H 370.998 0.127503 -4.98637 0
M  V30 3999 H 370.152 2.41037 -5.56764 0
M  V30 4000 H 368.891 2.28476 -4.30871 0
M  V30 4001 H 367.896 0.305338 -5.48951 0
M  V30 4002 H 369.121 0.451708 -6.77596 0
M  V30 4003 H 367.067 2.57007 -6.03559 0
M  V30 4004 H 366.984 1.51353 -7.40694 0
M  V30 4005 H 368.252 2.69897 -7.31284 0
M  V30 4006 N 372.481 1.55866 -0.233164 0
M  V30 4007 C 373.727 1.98897 0.395959 0
M  V30 4008 C 374.06 1.12091 1.58585 0
M  V30 4009 O 373.335 0.181182 1.93654 0
M  V30 4010 C 373.618 3.50658 0.819224 0
M  V30 4011 C 373.471 4.48233 -0.375109 0
M  V30 4012 C 374.79 4.07135 1.67121 0
M  V30 4013 H 371.909 0.723102 0.142451 0
M  V30 4014 H 374.551 1.87082 -0.331725 0
M  V30 4015 H 372.701 3.60857 1.43925 0
M  V30 4016 H 374.373 4.50031 -1.01341 0
M  V30 4017 H 372.616 4.21624 -1.02058 0
M  V30 4018 H 373.287 5.51988 -0.0358328 0
M  V30 4019 H 375.763 3.99952 1.14795 0
M  V30 4020 H 374.639 5.13615 1.93625 0
M  V30 4021 H 374.9 3.54736 2.63846 0
M  V30 4022 N 373.959 -0.0401083 1.57549 0
M  V30 4023 C 374.906 -1.04413 2.05831 0
M  V30 4024 C 375.876 -1.36585 0.945184 0
M  V30 4025 O 377.061 -1.47112 1.21502 0
M  V30 4026 C 374.201 -2.34336 2.53339 0
M  V30 4027 C 373.314 -2.08419 3.78398 0
M  V30 4028 C 372.449 -3.32133 4.14561 0
M  V30 4029 C 371.488 -3.01721 5.3257 0
M  V30 4030 N 370.625 -4.17855 5.64218 0
M  V30 4031 H 375.465 -0.625442 2.91363 0
M  V30 4032 H 373.002 -0.297218 1.44066 0
M  V30 4033 H 374.96 -3.10234 2.78946 0
M  V30 4034 H 373.59 -2.73948 1.7074 0
M  V30 4035 H 372.642 -1.23069 3.59942 0
M  V30 4036 H 373.954 -1.81978 4.64419 0
M  V30 4037 H 373.108 -4.16406 4.41238 0
M  V30 4038 H 371.847 -3.61678 3.2717 0
M  V30 4039 H 370.852 -2.15849 5.05657 0
M  V30 4040 H 372.077 -2.73466 6.21605 0
M  V30 4041 H 370.023 -4.47372 4.79786 0
M  V30 4042 H 369.94 -3.94798 6.44725 0
M  V30 4043 H 371.208 -5.03033 5.95465 0
M  V30 4044 N 375.437 -1.54477 -0.31217 0
M  V30 4045 C 376.347 -1.87695 -1.4074 0
M  V30 4046 C 377.363 -0.769975 -1.56036 0
M  V30 4047 O 378.539 -1.06537 -1.70915 0
M  V30 4048 C 375.604 -2.10755 -2.75287 0
M  V30 4049 C 374.665 -3.34514 -2.69071 0
M  V30 4050 C 373.898 -3.56465 -3.97201 0
M  V30 4051 O 374.121 -2.81637 -4.96021 0
M  V30 4052 O 373.055 -4.49964 -3.9977 0
M  V30 4053 H 376.881 -2.80849 -1.15574 0
M  V30 4054 H 374.466 -1.40526 -0.507228 0
M  V30 4055 H 376.348 -2.27188 -3.54913 0
M  V30 4056 H 375.023 -1.20788 -3.0032 0
M  V30 4057 H 373.93 -3.23456 -1.87955 0
M  V30 4058 H 375.263 -4.24575 -2.48992 0
M  V30 4059 N 376.915 0.57481 -1.46744 0
M  V30 4060 C 378.162 1.33272 -1.52462 0
M  V30 4061 C 378.49 1.93669 -0.179572 0
M  V30 4062 O 377.745 1.7743 0.825664 0
M  V30 4063 C 378.044 2.476 -2.57738 0
M  V30 4064 C 377.71 2.05146 -4.01529 0
M  V30 4065 C 376.372 1.93284 -4.40676 0
M  V30 4066 C 378.724 1.72506 -4.91824 0
M  V30 4067 C 376.052 1.47049 -5.67973 0
M  V30 4068 C 378.404 1.27748 -6.19567 0
M  V30 4069 C 377.068 1.14468 -6.57612 0
M  V30 4070 H 376.338 0.487678 -0.557899 0
M  V30 4071 H 378.985 0.646456 -1.80259 0
M  V30 4072 H 377.29 3.21708 -2.23632 0
M  V30 4073 H 378.987 3.05807 -2.5939 0
M  V30 4074 H 375.577 2.15316 -3.7059 0
M  V30 4075 H 379.761 1.80552 -4.62293 0
M  V30 4076 H 375.017 1.35417 -5.96215 0
M  V30 4077 H 379.191 1.01547 -6.88957 0
M  V30 4078 H 376.818 0.78419 -7.56145 0
M  V30 4079 N 378.394 1.34581 0.820102 0
M  V30 4080 C 379.642 1.26845 1.57336 0
M  V30 4081 C 379.963 -0.160667 1.94337 0
M  V30 4082 O 379.233 -1.09396 1.6251 0
M  V30 4083 H 377.813 0.466514 0.583415 0
M  V30 4084 H 380.475 1.68526 0.979027 0
M  V30 4085 H 379.571 1.87513 2.4949 0
M  V30 4086 N 379.872 -1.04064 1.18357 0
M  V30 4087 C 381.121 -1.76662 0.973313 0
M  V30 4088 C 381.434 -1.89154 -0.497991 0
M  V30 4089 O 382.64 -2.58606 -0.826762 0
M  V30 4090 C 381.096 -3.17624 1.69242 0
M  V30 4091 C 380.704 -3.13225 3.20303 0
M  V30 4092 C 382.448 -3.946 1.56497 0
M  V30 4093 C 380.355 -4.49046 3.84853 0
M  V30 4094 H 379.285 -0.662214 0.36054 0
M  V30 4095 H 381.936 -1.16553 1.41731 0
M  V30 4096 H 380.318 -3.78129 1.1762 0
M  V30 4097 H 381.492 -2.62172 3.78949 0
M  V30 4098 H 379.807 -2.49749 3.33189 0
M  V30 4099 H 382.404 -4.95042 2.02084 0
M  V30 4100 H 382.747 -4.13074 0.517243 0
M  V30 4101 H 383.28 -3.4067 2.05399 0
M  V30 4102 H 380.019 -4.35777 4.89672 0
M  V30 4103 H 379.539 -5.00203 3.30994 0
M  V30 4104 H 381.218 -5.17961 3.87718 0
M  V30 4105 N 381.35 -0.985608 -1.22978 0
M  V30 4106 C 382.627 -0.573599 -1.87001 0
M  V30 4107 C 383.007 0.949213 -1.88555 0
M  V30 4108 O 382.355 1.82811 -1.37086 0
M  V30 4109 C 382.565 -1.18564 -3.28243 0
M  V30 4110 C 383.913 -1.28163 -4.04796 0
M  V30 4111 O 384.937 -1.13949 -3.37482 0
M  V30 4112 O 383.796 -1.50832 -5.25273 0
M  V30 4113 H 380.89 -0.193868 -0.803955 0
M  V30 4114 H 383.436 -1.08102 -1.30813 0
M  V30 4115 H 382.208 -2.22758 -3.21706 0
M  V30 4116 H 381.831 -0.663363 -3.92027 0
M  V30 4117 N 382.828 1.3818 -0.7579 0
M  V30 4118 C 384.239 1.82726 -0.383134 0
M  V30 4119 C 384.59 1.63214 1.08884 0
M  V30 4120 O 383.715 1.13566 1.84205 0
M  V30 4121 C 384.31 3.31728 -0.688631 0
M  V30 4122 C 382.869 3.74606 -0.367091 0
M  V30 4123 C 382.016 2.60896 -0.939599 0
M  V30 4124 H 384.967 1.26847 -0.953699 0
M  V30 4125 H 384.988 3.80487 0.0316492 0
M  V30 4126 H 384.5 3.45898 -1.76001 0
M  V30 4127 H 382.601 3.66013 0.697532 0
M  V30 4128 H 382.714 4.71215 -0.865658 0
M  V30 4129 H 381.078 2.52075 -0.3647 0
M  V30 4130 H 381.861 2.77864 -2.0161 0
M  V30 4131 N 384.306 0.507319 1.49211 0
M  V30 4132 C 385.238 -0.304532 2.27168 0
M  V30 4133 C 386.251 -0.924956 1.33972 0
M  V30 4134 O 387.44 -0.807227 1.59205 0
M  V30 4135 C 384.54 -1.44431 3.06583 0
M  V30 4136 C 383.713 -0.930026 4.27398 0
M  V30 4137 C 382.772 -1.94817 4.88807 0
M  V30 4138 O 381.798 -1.51418 5.4869 0
M  V30 4139 N 383 -3.279 4.79022 0
M  V30 4140 H 385.765 0.36395 2.97482 0
M  V30 4141 H 383.326 0.340249 1.58284 0
M  V30 4142 H 385.318 -2.12311 3.44537 0
M  V30 4143 H 383.888 -2.01684 2.38835 0
M  V30 4144 H 383.108 -0.0759244 3.94127 0
M  V30 4145 H 384.396 -0.564932 5.05654 0
M  V30 4146 H 383.794 -3.65843 4.3148 0
M  V30 4147 H 382.351 -3.91476 5.21142 0
M  V30 4148 N 385.784 -1.5574 0.241426 0
M  V30 4149 C 386.732 -2.22538 -0.676718 0
M  V30 4150 C 387.726 -1.21117 -1.18436 0
M  V30 4151 O 388.932 -1.39144 -1.14188 0
M  V30 4152 H 385.307 -0.713776 -0.236701 0
M  V30 4153 H 387.278 -2.98264 -0.0901187 0
M  V30 4154 C 386.027 -2.93439 -1.86518 0
M  V30 4155 H 385.35 -3.7125 -1.4837 0
M  V30 4156 H 386.79 -3.43549 -2.48495 0
M  V30 4157 C 385.249 -1.97008 -2.73294 0
M  V30 4158 O 385.779 -1.49965 -3.72657 0
M  V30 4159 N 383.985 -1.64227 -2.39745 0
M  V30 4160 H 383.532 -2.02677 -1.58996 0
M  V30 4161 H 383.49 -0.999708 -2.98083 0
M  V30 4162 N 387.262 0.0317525 -1.57568 0
M  V30 4163 C 388.195 1.06621 -2.0176 0
M  V30 4164 C 389.173 1.35323 -0.901462 0
M  V30 4165 O 390.357 1.48025 -1.16708 0
M  V30 4166 C 387.484 2.40155 -2.38837 0
M  V30 4167 C 386.53 2.27327 -3.60867 0
M  V30 4168 S 387.363 1.62925 -5.10113 0
M  V30 4169 C 388.519 2.97955 -5.5043 0
M  V30 4170 H 388.752 0.689781 -2.89187 0
M  V30 4171 H 386.285 0.24164 -1.52497 0
M  V30 4172 H 388.243 3.1695 -2.6087 0
M  V30 4173 H 386.904 2.74946 -1.51867 0
M  V30 4174 H 386.097 3.25898 -3.84456 0
M  V30 4175 H 385.699 1.58675 -3.38671 0
M  V30 4176 H 387.991 3.94285 -5.5095 0
M  V30 4177 H 388.934 2.79102 -6.50775 0
M  V30 4178 H 389.342 3.00404 -4.77931 0
M  V30 4179 N 388.74 1.54641 0.303973 0
M  V30 4180 C 389.987 1.7378 1.03955 0
M  V30 4181 C 390.315 0.521986 1.87365 0
M  V30 4182 O 389.57 -0.496099 1.89308 0
M  V30 4183 C 389.869 2.97753 1.97681 0
M  V30 4184 C 389.535 4.31671 1.30271 0
M  V30 4185 C 388.197 4.68075 1.11619 0
M  V30 4186 C 390.549 5.147 0.82055 0
M  V30 4187 C 387.877 5.8509 0.434304 0
M  V30 4188 C 390.229 6.32416 0.152395 0
M  V30 4189 C 388.893 6.67484 -0.0461067 0
M  V30 4190 H 388.163 0.635908 0.380398 0
M  V30 4191 H 390.81 1.88896 0.314718 0
M  V30 4192 H 389.115 2.77406 2.76682 0
M  V30 4193 H 390.812 3.09756 2.54661 0
M  V30 4194 H 387.402 4.03041 1.45795 0
M  V30 4195 H 391.586 4.87077 0.952374 0
M  V30 4196 H 386.842 6.10806 0.269495 0
M  V30 4197 H 391.016 6.96023 -0.229126 0
M  V30 4198 H 388.643 7.58011 -0.576494 0
M  V30 4199 N 390.218 -0.567019 1.47046 0
M  V30 4200 C 391.128 -1.70247 1.6141 0
M  V30 4201 C 392.144 -1.66746 0.497157 0
M  V30 4202 O 393.32 -1.86371 0.763389 0
M  V30 4203 C 390.385 -3.06756 1.61561 0
M  V30 4204 C 389.446 -3.21399 2.84607 0
M  V30 4205 C 388.679 -4.51396 2.84741 0
M  V30 4206 O 388.902 -5.36255 1.94388 0
M  V30 4207 O 387.836 -4.69621 3.76483 0
M  V30 4208 H 391.662 -1.61073 2.57467 0
M  V30 4209 H 389.247 -0.735894 1.30019 0
M  V30 4210 H 391.129 -3.8801 1.64396 0
M  V30 4211 H 389.804 -3.16333 0.686684 0
M  V30 4212 H 388.711 -2.39579 2.8732 0
M  V30 4213 H 390.044 -3.16721 3.76761 0
M  V30 4214 N 391.696 -1.35014 -0.812953 0
M  V30 4215 C 392.943 -1.27931 -1.56971 0
M  V30 4216 C 393.271 0.148034 -1.93936 0
M  V30 4217 O 392.526 1.11175 -1.61054 0
M  V30 4218 C 392.825 -2.12524 -2.87347 0
M  V30 4219 C 392.491 -3.61401 -2.6963 0
M  V30 4220 C 391.153 -4.01983 -2.64506 0
M  V30 4221 C 393.505 -4.55894 -2.52607 0
M  V30 4222 C 390.833 -5.35235 -2.40293 0
M  V30 4223 C 393.185 -5.89336 -2.29925 0
M  V30 4224 C 391.849 -6.2907 -2.23219 0
M  V30 4225 H 391.119 -0.468131 -0.574399 0
M  V30 4226 H 393.766 -1.66851 -0.939836 0
M  V30 4227 H 392.071 -1.66463 -3.54679 0
M  V30 4228 H 393.768 -2.04383 -3.45005 0
M  V30 4229 H 390.358 -3.29193 -2.74463 0
M  V30 4230 H 394.542 -4.25431 -2.55583 0
M  V30 4231 H 389.798 -5.65028 -2.33566 0
M  V30 4232 H 393.972 -6.62139 -2.15743 0
M  V30 4233 H 391.599 -7.32256 -2.04219 0
M  V30 4234 N 393.175 1.03435 -1.18907 0
M  V30 4235 C 394.421 1.7713 -0.99982 0
M  V30 4236 C 394.776 1.86695 0.465049 0
M  V30 4237 O 394.069 1.36866 1.34083 0
M  V30 4238 C 394.263 3.19792 -1.59586 0
M  V30 4239 C 394.092 3.24134 -3.11717 0
M  V30 4240 C 392.862 3.32398 -3.80578 0
M  V30 4241 C 395.06 3.11625 -4.09138 0
M  V30 4242 N 393.042 3.26055 -5.20155 0
M  V30 4243 C 394.413 3.12855 -5.35277 0
M  V30 4244 C 396.468 2.95713 -4.00572 0
M  V30 4245 C 395.171 2.99805 -6.53842 0
M  V30 4246 C 397.197 2.84011 -5.1874 0
M  V30 4247 C 396.559 2.8589 -6.43775 0
M  V30 4248 H 392.658 0.659683 -0.419931 0
M  V30 4249 H 395.242 1.2317 -1.50789 0
M  V30 4250 H 393.413 3.72085 -1.11389 0
M  V30 4251 H 395.145 3.81819 -1.3415 0
M  V30 4252 H 391.9 3.38392 -3.31342 0
M  V30 4253 H 392.324 3.26307 -5.93172 0
M  V30 4254 H 396.966 2.93086 -3.0473 0
M  V30 4255 H 394.684 3.01184 -7.49876 0
M  V30 4256 H 398.27 2.72744 -5.13909 0
M  V30 4257 H 397.15 2.76931 -7.33675 0
M  V30 4258 N 394.653 0.992116 1.22453 0
M  V30 4259 C 395.93 0.583508 1.86694 0
M  V30 4260 C 396.31 -0.9392 1.89056 0
M  V30 4261 O 395.658 -1.82081 1.38053 0
M  V30 4262 C 395.868 1.20304 3.2761 0
M  V30 4263 C 397.216 1.30308 4.0411 0
M  V30 4264 O 398.24 1.15737 3.36873 0
M  V30 4265 O 397.099 1.53615 5.24466 0
M  V30 4266 H 394.193 0.198129 0.802916 0
M  V30 4267 H 396.739 1.08794 1.30238 0
M  V30 4268 H 395.511 2.24461 3.2052 0
M  V30 4269 H 395.134 0.684144 3.9167 0
M  V30 4270 N 396.131 -1.37776 0.765217 0
M  V30 4271 C 397.377 -2.00604 0.336066 0
M  V30 4272 C 397.732 -1.59657 -1.07366 0
M  V30 4273 O 397.025 -0.829565 -1.7271 0
M  V30 4274 C 397.219 -3.5504 0.410053 0
M  V30 4275 C 397.048 -4.10985 1.82542 0
M  V30 4276 C 395.818 -4.42229 2.44461 0
M  V30 4277 C 398.016 -4.32438 2.78392 0
M  V30 4278 N 395.998 -4.8385 3.77839 0
M  V30 4279 C 397.369 -4.76596 3.96556 0
M  V30 4280 C 399.424 -4.14559 2.75764 0
M  V30 4281 C 398.127 -5.04748 5.12466 0
M  V30 4282 C 400.153 -4.43843 3.90842 0
M  V30 4283 C 399.515 -4.88235 5.07746 0
M  V30 4284 H 395.614 -0.763325 0.169881 0
M  V30 4285 H 398.198 -1.67197 0.997656 0
M  V30 4286 H 396.369 -3.87769 -0.221325 0
M  V30 4287 H 398.101 -4.0468 -0.0405285 0
M  V30 4288 H 394.856 -4.31079 1.96131 0
M  V30 4289 H 395.28 -5.08979 4.46396 0
M  V30 4290 H 399.922 -3.79415 1.86558 0
M  V30 4291 H 397.64 -5.38783 6.02277 0
M  V30 4292 H 401.226 -4.31603 3.90141 0
M  V30 4293 H 400.106 -5.10461 5.95315 0
M  V30 4294 N 397.609 -0.515225 -1.4894 0
M  V30 4295 C 398.855 0.0242508 -2.02785 0
M  V30 4296 C 399.188 1.35323 -1.39289 0
M  V30 4297 O 398.463 1.87041 -0.533469 0
M  V30 4298 C 398.746 0.16184 -3.59736 0
M  V30 4299 C 398.599 -1.19127 -4.33738 0
M  V30 4300 C 399.918 0.895719 -4.30888 0
M  V30 4301 H 397.037 0.00733914 -0.736963 0
M  V30 4302 H 399.679 -0.669395 -1.77818 0
M  V30 4303 H 397.829 0.752624 -3.8114 0
M  V30 4304 H 399.501 -1.82202 -4.23792 0
M  V30 4305 H 397.744 -1.77695 -3.95736 0
M  V30 4306 H 398.415 -1.04815 -5.41957 0
M  V30 4307 H 400.891 0.394528 -4.14225 0
M  V30 4308 H 399.767 0.960859 -5.40425 0
M  V30 4309 H 400.028 1.9427 -3.97129 0
M  V30 4310 N 399.087 1.5561 -0.249682 0
M  V30 4311 C 400.335 1.98618 0.373548 0
M  V30 4312 C 400.656 1.13919 1.58264 0
M  V30 4313 O 399.926 0.222637 1.94631 0
M  V30 4314 H 398.506 0.733571 0.141006 0
M  V30 4315 H 401.168 1.91748 -0.349117 0
M  V30 4316 H 400.264 3.04584 0.680796 0
M  V30 4317 N 400.565 -0.0233959 1.57583 0
M  V30 4318 C 401.813 -0.711654 1.89156 0
M  V30 4319 C 402.134 -1.75591 0.848096 0
M  V30 4320 O 401.404 -1.95547 -0.117566 0
M  V30 4321 H 399.984 -0.265835 0.698098 0
M  V30 4322 H 402.646 0.0119948 1.94896 0
M  V30 4323 H 401.742 -1.19766 2.88206 0
M  V30 4324 N 402.043 -1.548 -0.295768 0
M  V30 4325 C 403.459 -1.4613 -0.641722 0
M  V30 4326 C 403.659 -0.656771 -1.90496 0
M  V30 4327 O 402.715 -0.166547 -2.5195 0
M  V30 4328 C 404.028 -2.90141 -0.789852 0
M  V30 4329 C 405.576 -3.00216 -0.885396 0
M  V30 4330 C 406.051 -4.45434 -1.06548 0
M  V30 4331 N 407.542 -4.49166 -1.13156 0
M  V30 4332 C 408.277 -5.58717 -1.28929 0
M  V30 4333 N 407.773 -6.78182 -1.41567 0
M  V30 4334 N 409.566 -5.46415 -1.31859 0
M  V30 4335 H 401.717 -2.05574 0.534147 0
M  V30 4336 H 403.98 -0.931259 0.177372 0
M  V30 4337 H 403.686 -3.51635 0.0675598 0
M  V30 4338 H 403.56 -3.37859 -1.67724 0
M  V30 4339 H 405.947 -2.38833 -1.73329 0
M  V30 4340 H 406.028 -2.55787 0.0261185 0
M  V30 4341 H 405.672 -5.07413 -0.222335 0
M  V30 4342 H 405.602 -4.87499 -1.9913 0
M  V30 4343 H 408.093 -3.631 -1.04721 0
M  V30 4344 H 408.406 -7.57428 -1.53372 0
M  V30 4345 H 406.751 -6.81037 -1.38613 0
M  V30 4346 H 409.942 -4.5203 -1.21601 0
M  V30 4347 H 410.115 -6.31841 -1.43808 0
M  V30 4348 N 403.521 0.559213 -1.47345 0
M  V30 4349 C 404.751 1.33999 -1.57251 0
M  V30 4350 C 405.159 1.87905 -0.220978 0
M  V30 4351 O 404.502 1.65577 0.795617 0
M  V30 4352 C 404.564 2.54798 -2.53611 0
M  V30 4353 C 404.228 2.22192 -3.99349 0
M  V30 4354 C 405.225 1.79607 -4.87891 0
M  V30 4355 C 402.91 2.33613 -4.44669 0
M  V30 4356 C 404.904 1.48868 -6.19772 0
M  V30 4357 C 402.591 2.02487 -5.76578 0
M  V30 4358 C 403.589 1.60183 -6.63951 0
M  V30 4359 O 403.277 1.29451 -7.93409 0
M  V30 4360 H 403.009 0.414858 -0.533731 0
M  V30 4361 H 405.563 0.684465 -1.9366 0
M  V30 4362 H 403.793 3.23235 -2.12265 0
M  V30 4363 H 405.482 3.16873 -2.53666 0
M  V30 4364 H 406.248 1.70278 -4.54126 0
M  V30 4365 H 402.127 2.65501 -3.76869 0
M  V30 4366 H 405.671 1.15775 -6.87926 0
M  V30 4367 H 401.568 2.11448 -6.09885 0
M  V30 4368 H 402.336 1.43098 -8.05894 0
M  V30 4369 N 404.999 1.35443 0.805782 0
M  V30 4370 C 406.224 1.32037 1.59941 0
M  V30 4371 C 406.649 -0.0994215 1.87837 0
M  V30 4372 O 406.007 -1.06648 1.46615 0
M  V30 4373 C 406.055 2.13354 2.90711 0
M  V30 4374 O 405.159 1.5148 3.83572 0
M  V30 4375 H 404.5 0.452666 0.485787 0
M  V30 4376 H 407.03 1.78496 1.00002 0
M  V30 4377 H 407.04 2.25338 3.40128 0
M  V30 4378 H 405.715 3.16572 2.69732 0
M  V30 4379 H 404.292 1.4834 3.42125 0
M  V30 4380 N 406.477 -1.02803 1.19454 0
M  V30 4381 C 407.407 -2.12999 0.956758 0
M  V30 4382 C 408.388 -1.69743 -0.110188 0
M  V30 4383 O 409.573 -1.94148 0.0450038 0
M  V30 4384 C 406.703 -3.43746 0.495553 0
M  V30 4385 C 405.657 -4.00688 1.50443 0
M  V30 4386 C 404.983 -5.27067 0.900275 0
M  V30 4387 C 406.283 -4.35397 2.8849 0
M  V30 4388 H 407.977 -2.33148 1.87836 0
M  V30 4389 H 405.523 -1.12045 0.904539 0
M  V30 4390 H 407.476 -4.2021 0.316493 0
M  V30 4391 H 406.2 -3.23321 -0.461646 0
M  V30 4392 H 404.859 -3.2632 1.67065 0
M  V30 4393 H 404.507 -5.02959 -0.064503 0
M  V30 4394 H 404.207 -5.66127 1.57397 0
M  V30 4395 H 405.731 -6.06196 0.73203 0
M  V30 4396 H 407.145 -5.02795 2.75446 0
M  V30 4397 H 405.542 -4.85541 3.52661 0
M  V30 4398 H 406.612 -3.44662 3.41081 0
M  V30 4399 N 407.956 -0.998596 -1.21925 0
M  V30 4400 C 409.202 -0.688337 -1.91399 0
M  V30 4401 C 409.557 0.771805 -1.76241 0
M  V30 4402 O 408.85 1.55153 -1.1242 0
M  V30 4403 C 409.044 -1.03648 -3.42041 0
M  V30 4404 C 408.873 -2.52892 -3.71855 0
M  V30 4405 C 407.643 -3.19389 -3.91559 0
M  V30 4406 C 409.841 -3.5103 -3.75875 0
M  V30 4407 N 407.823 -4.5805 -4.08734 0
M  V30 4408 C 409.194 -4.75174 -3.98259 0
M  V30 4409 C 411.249 -3.45257 -3.58751 0
M  V30 4410 C 409.952 -5.94247 -4.05294 0
M  V30 4411 C 411.978 -4.63712 -3.67049 0
M  V30 4412 C 411.34 -5.86658 -3.89887 0
M  V30 4413 H 407.439 -0.303251 -0.720807 0
M  V30 4414 H 410.023 -1.27977 -1.46731 0
M  V30 4415 H 408.194 -0.473569 -3.85502 0
M  V30 4416 H 409.926 -0.681619 -3.98919 0
M  V30 4417 H 406.681 -2.69846 -3.89205 0
M  V30 4418 H 407.105 -5.29989 -4.21237 0
M  V30 4419 H 411.747 -2.51215 -3.40075 0
M  V30 4420 H 409.465 -6.88687 -4.22772 0
M  V30 4421 H 413.051 -4.6084 -3.5513 0
M  V30 4422 H 411.931 -6.76786 -3.96144 0
M  V30 4423 N 409.434 1.37368 -0.772513 0
M  V30 4424 C 410.659 2.0447 -0.347386 0
M  V30 4425 C 411.084 1.57882 1.0225 0
M  V30 4426 O 410.442 0.73941 1.65537 0
M  V30 4427 C 410.49 3.58369 -0.400479 0
M  V30 4428 O 409.594 4.0803 0.598789 0
M  V30 4429 H 408.935 0.646773 -0.15027 0
M  V30 4430 H 411.465 1.75667 -1.04892 0
M  V30 4431 H 411.475 4.07183 -0.258045 0
M  V30 4432 H 410.15 3.91633 -1.39986 0
M  V30 4433 H 408.727 3.70534 0.419411 0
M  V30 4434 N 410.912 0.523116 1.48665 0
M  V30 4435 C 411.875 -0.232592 2.28017 0
M  V30 4436 C 412.875 -0.874021 1.34972 0
M  V30 4437 O 414.065 -0.735132 1.57929 0
M  V30 4438 C 411.197 -1.33586 3.13636 0
M  V30 4439 H 412.39 0.464008 2.96289 0
M  V30 4440 H 409.943 0.278816 1.53793 0
M  V30 4441 H 410.678 -2.06593 2.4998 0
M  V30 4442 H 410.463 -0.881125 3.82071 0
M  V30 4443 H 411.953 -1.86759 3.73511 0
M  V30 4444 N 412.39 -1.55475 0.257931 0
M  V30 4445 C 413.639 -1.98383 -0.364275 0
M  V30 4446 C 413.952 -1.14952 -1.58258 0
M  V30 4447 O 415.158 -1.47924 -2.27664 0
M  V30 4448 C 413.614 -3.53037 -0.699479 0
M  V30 4449 C 413.222 -4.45223 0.498046 0
M  V30 4450 C 414.966 -4.04575 -1.28526 0
M  V30 4451 C 412.873 -5.91238 0.138383 0
M  V30 4452 H 411.803 -0.740911 -0.13988 0
M  V30 4453 H 414.454 -1.79936 0.359883 0
M  V30 4454 H 412.836 -3.6722 -1.48207 0
M  V30 4455 H 414.01 -4.42803 1.27522 0
M  V30 4456 H 412.325 -4.04226 0.999503 0
M  V30 4457 H 414.922 -5.11196 -1.56788 0
M  V30 4458 H 415.265 -3.5258 -2.21344 0
M  V30 4459 H 415.798 -3.93762 -0.565337 0
M  V30 4460 H 412.537 -6.47294 1.03398 0
M  V30 4461 H 412.057 -5.96768 -0.602374 0
M  V30 4462 H 413.736 -6.46413 -0.27553 0
M  V30 4463 N 413.868 0.0150385 -1.57593 0
M  V30 4464 C 415.116 0.701613 -1.8953 0
M  V30 4465 C 415.437 1.75139 -0.857396 0
M  V30 4466 O 414.707 1.95607 0.107194 0
M  V30 4467 H 413.287 0.26213 -0.699498 0
M  V30 4468 H 415.949 -0.0223304 -1.94887 0
M  V30 4469 H 415.045 1.18236 -2.88837 0
M  V30 4470 N 415.346 1.54954 0.287554 0
M  V30 4471 C 416.276 1.89839 1.35954 0
M  V30 4472 C 417.257 0.758675 1.52244 0
M  V30 4473 O 418.442 1.01557 1.65529 0
M  V30 4474 C 415.572 2.15753 2.72154 0
M  V30 4475 C 414.526 3.3159 2.70614 0
M  V30 4476 C 413.852 3.42952 4.10229 0
M  V30 4477 C 415.152 4.68359 2.31165 0
M  V30 4478 H 416.846 2.79625 1.07007 0
M  V30 4479 H 414.392 1.3454 0.513316 0
M  V30 4480 H 416.345 2.38743 3.47246 0
M  V30 4481 H 415.069 1.22752 3.02654 0
M  V30 4482 H 413.728 3.08545 1.97979 0
M  V30 4483 H 413.376 2.47443 4.37928 0
M  V30 4484 H 413.076 4.20826 4.10097 0
M  V30 4485 H 414.6 3.68218 4.87081 0
M  V30 4486 H 416.014 4.9099 2.95976 0
M  V30 4487 H 414.411 5.49044 2.42221 0
M  V30 4488 H 415.481 4.68165 1.26291 0
M  V30 4489 N 416.824 -0.551391 1.4764 0
M  V30 4490 C 418.049 -1.33837 1.58437 0
M  V30 4491 C 418.474 -1.866 0.237063 0
M  V30 4492 O 417.832 -1.6328 -0.787994 0
M  V30 4493 C 417.88 -2.48014 2.61766 0
M  V30 4494 O 416.984 -3.50419 2.1744 0
M  V30 4495 H 416.325 -0.397299 0.532024 0
M  V30 4496 H 418.855 -0.665759 1.93465 0
M  V30 4497 H 418.865 -2.94503 2.82369 0
M  V30 4498 H 417.54 -2.08969 3.5959 0
M  V30 4499 H 416.117 -3.10196 2.06961 0
M  V30 4500 N 418.302 -1.35869 -0.798587 0
M  V30 4501 C 419.551 -1.28921 -1.5512 0
M  V30 4502 C 419.864 0.13208 -1.95154 0
M  V30 4503 O 421.07 0.323879 -2.69561 0
M  V30 4504 C 419.526 -2.26141 -2.79979 0
M  V30 4505 C 419.134 -3.73658 -2.47151 0
M  V30 4506 C 420.878 -2.28152 -3.57976 0
M  V30 4507 C 418.785 -4.62679 -3.6835 0
M  V30 4508 H 417.715 -0.479031 -0.582276 0
M  V30 4509 H 420.366 -1.61179 -0.877125 0
M  V30 4510 H 418.748 -1.86865 -3.49138 0
M  V30 4511 H 419.922 -4.21616 -1.85947 0
M  V30 4512 H 418.237 -3.74333 -1.82383 0
M  V30 4513 H 420.834 -2.91875 -4.4801 0
M  V30 4514 H 421.177 -1.28748 -3.95891 0
M  V30 4515 H 421.71 -2.65998 -2.95787 0
M  V30 4516 H 418.449 -5.63111 -3.35538 0
M  V30 4517 H 417.969 -4.19442 -4.28752 0
M  V30 4518 H 419.648 -4.78498 -4.35487 0
M  V30 4519 N 419.78 1.02168 -1.19998 0
M  V30 4520 C 420.743 2.08765 -0.94604 0
M  V30 4521 C 421.743 1.60618 0.0763846 0
M  V30 4522 O 422.933 1.73472 -0.159135 0
M  V30 4523 C 420.065 3.38262 -0.423255 0
M  V30 4524 H 421.258 2.32726 -1.89153 0
M  V30 4525 H 418.811 1.1889 -1.01464 0
M  V30 4526 H 419.546 3.19974 0.527938 0
M  V30 4527 H 419.331 3.74532 -1.16053 0
M  V30 4528 H 420.821 4.16759 -0.264911 0
M  V30 4529 N 421.258 1.00505 1.21394 0
M  V30 4530 C 422.188 0.585684 2.26035 0
M  V30 4531 C 423.169 -0.393525 1.65485 0
M  V30 4532 O 424.354 -0.281497 1.92149 0
M  V30 4533 C 421.484 -0.0884283 3.47187 0
M  V30 4534 C 420.438 0.810567 4.20254 0
M  V30 4535 C 419.764 0.00286382 5.347 0
M  V30 4536 C 421.064 2.1132 4.77641 0
M  V30 4537 H 422.758 1.46039 2.61368 0
M  V30 4538 H 420.304 0.703648 1.25638 0
M  V30 4539 H 422.257 -0.393286 4.19561 0
M  V30 4540 H 420.981 -0.997766 3.10986 0
M  V30 4541 H 419.64 1.09925 3.49731 0
M  V30 4542 H 419.288 -0.907765 4.94741 0
M  V30 4543 H 418.988 0.601444 5.84514 0
M  V30 4544 H 420.512 -0.295808 6.09883 0
M  V30 4545 H 421.926 1.87148 5.41893 0
M  V30 4546 H 420.323 2.66164 5.37845 0
M  V30 4547 H 421.393 2.78393 3.9702 0
M  V30 4548 N 422.737 -1.36956 0.779787 0
M  V30 4549 C 423.687 -2.27539 0.144892 0
M  V30 4550 C 424.671 -1.46493 -0.665488 0
M  V30 4551 O 425.863 -1.68968 -0.527141 0
M  V30 4552 C 422.992 -3.35512 -0.727082 0
M  V30 4553 C 422.078 -4.24001 0.0915642 0
M  V30 4554 N 422.469 -4.92757 1.14125 0
M  V30 4555 C 420.767 -4.45807 -0.131141 0
M  V30 4556 C 421.468 -5.58138 1.6388 0
M  V30 4557 N 420.444 -5.35241 0.94962 0
M  V30 4558 H 424.246 -2.78176 0.948446 0
M  V30 4559 H 421.76 -1.50169 0.618315 0
M  V30 4560 H 423.757 -3.99324 -1.19776 0
M  V30 4561 H 422.417 -2.86431 -1.52929 0
M  V30 4562 H 423.428 -4.94984 1.52353 0
M  V30 4563 H 420.105 -4.07582 -0.904621 0
M  V30 4564 H 421.495 -6.23071 2.51461 0
M  V30 4565 N 424.215 -0.530993 -1.48385 0
M  V30 4566 C 425.461 0.00274135 -2.028 0
M  V30 4567 C 425.794 1.33838 -1.40716 0
M  V30 4568 O 425.069 1.86465 -0.553277 0
M  V30 4569 C 425.352 0.123676 -3.59888 0
M  V30 4570 C 425.205 -1.2372 -4.3245 0
M  V30 4571 C 426.524 0.849967 -4.31814 0
M  V30 4572 H 423.643 -0.000477758 -0.737 0
M  V30 4573 H 426.285 -0.688217 -1.77098 0
M  V30 4574 H 424.435 0.712157 -3.81917 0
M  V30 4575 H 426.107 -1.86687 -4.21836 0
M  V30 4576 H 424.35 -1.81882 -3.93829 0
M  V30 4577 H 425.021 -1.10557 -5.40815 0
M  V30 4578 H 427.497 0.350572 -4.14621 0
M  V30 4579 H 426.373 0.903486 -5.41413 0
M  V30 4580 H 426.634 1.90047 -3.99167 0
M  V30 4581 N 425.693 1.55336 -0.266172 0
M  V30 4582 C 426.941 1.99003 0.35246 0
M  V30 4583 C 427.262 1.15591 1.57047 0
M  V30 4584 O 426.532 0.243268 1.94384 0
M  V30 4585 H 425.112 0.735025 0.133217 0
M  V30 4586 H 427.774 1.91367 -0.369434 0
M  V30 4587 H 426.87 3.05289 0.648453 0
M  V30 4588 N 427.171 -0.0066808 1.57599 0
M  V30 4589 C 428.418 -0.69292 1.90276 0
M  V30 4590 C 428.746 -1.74148 0.866192 0
M  V30 4591 O 428.001 -1.95268 -0.129933 0
M  V30 4592 C 428.3 -1.37939 3.29708 0
M  V30 4593 C 427.966 -0.464679 4.48499 0
M  V30 4594 C 426.628 -0.212809 4.80729 0
M  V30 4595 C 428.98 0.16551 5.20937 0
M  V30 4596 C 426.308 0.677653 5.82773 0
M  V30 4597 C 428.66 1.04381 6.23929 0
M  V30 4598 C 427.324 1.30492 6.54621 0
M  V30 4599 H 426.594 -0.253558 0.696268 0
M  V30 4600 H 429.241 0.0474123 1.91441 0
M  V30 4601 H 427.546 -2.1936 3.24636 0
M  V30 4602 H 429.243 -1.9163 3.52249 0
M  V30 4603 H 425.833 -0.671153 4.23313 0
M  V30 4604 H 430.017 -0.0160756 4.96297 0
M  V30 4605 H 425.273 0.88803 6.04917 0
M  V30 4606 H 429.447 1.53851 6.79193 0
M  V30 4607 H 427.074 1.99662 7.33512 0
M  V30 4608 N 428.649 -1.55105 -0.279332 0
M  V30 4609 C 429.926 -1.66119 -1.03267 0
M  V30 4610 C 430.306 -0.523525 -2.04505 0
M  V30 4611 O 429.654 0.477194 -2.23462 0
M  V30 4612 C 429.864 -3.05067 -1.69515 0
M  V30 4613 C 431.212 -3.62606 -2.20912 0
M  V30 4614 O 432.236 -3.07659 -1.79512 0
M  V30 4615 O 431.095 -4.58861 -2.96831 0
M  V30 4616 H 428.189 -0.674429 -0.478618 0
M  V30 4617 H 430.735 -1.67446 -0.275694 0
M  V30 4618 H 429.507 -3.79311 -0.9612 0
M  V30 4619 H 429.13 -3.07611 -2.51915 0
M  V30 4620 N 430.127 0.543554 -1.4793 0
M  V30 4621 C 431.075 1.67039 -1.61866 0
M  V30 4622 C 432.069 1.62294 -0.48549 0
M  V30 4623 O 433.275 1.67315 -0.66376 0
M  V30 4624 H 429.65 0.552954 -0.509652 0
M  V30 4625 H 431.621 1.52426 -2.56533 0
M  V30 4626 C 430.37 3.05357 -1.6629 0
M  V30 4627 H 429.693 3.09696 -2.5284 0
M  V30 4628 H 431.133 3.83855 -1.80088 0
M  V30 4629 C 429.592 3.34531 -0.398861 0
M  V30 4630 O 430.122 3.98649 0.494162 0
M  V30 4631 N 428.328 2.89299 -0.2747 0
M  V30 4632 H 427.875 2.37298 -1.00236 0
M  V30 4633 H 427.833 3.09188 0.570075 0
M  V30 4634 N 431.605 1.3629 0.791371 0
M  V30 4635 C 432.852 1.30412 1.54916 0
M  V30 4636 C 433.18 -0.117162 1.94147 0
M  V30 4637 O 432.435 -1.08599 1.62803 0
M  V30 4638 C 432.734 2.17068 2.8393 0
M  V30 4639 C 432.4 3.65645 2.63846 0
M  V30 4640 C 431.062 4.0614 2.58077 0
M  V30 4641 C 433.414 4.59855 2.45322 0
M  V30 4642 C 430.742 5.3899 2.31748 0
M  V30 4643 C 433.094 5.9292 2.2052 0
M  V30 4644 C 431.758 6.32542 2.13183 0
M  V30 4645 H 431.028 0.47721 0.566879 0
M  V30 4646 H 433.675 1.68325 0.913172 0
M  V30 4647 H 431.98 1.72085 3.51986 0
M  V30 4648 H 433.677 2.09846 3.4171 0
M  V30 4649 H 430.267 3.33518 2.69191 0
M  V30 4650 H 434.451 4.29443 2.48782 0
M  V30 4651 H 429.707 5.68672 2.24548 0
M  V30 4652 H 433.881 6.65487 2.05182 0
M  V30 4653 H 431.508 7.35412 1.92544 0
M  V30 4654 N 433.083 -1.0153 1.20538 0
M  V30 4655 C 433.993 -2.13557 0.971113 0
M  V30 4656 C 435.009 -1.73845 -0.0734366 0
M  V30 4657 O 436.185 -2.01075 0.114299 0
M  V30 4658 C 433.25 -3.42661 0.527639 0
M  V30 4659 C 432.311 -3.96608 1.64319 0
M  V30 4660 C 431.544 -5.1955 1.22078 0
M  V30 4661 O 431.767 -5.70329 0.0900198 0
M  V30 4662 O 430.701 -5.66681 2.02871 0
M  V30 4663 H 434.527 -2.3619 1.90913 0
M  V30 4664 H 432.112 -1.11946 0.989362 0
M  V30 4665 H 433.994 -4.20404 0.289621 0
M  V30 4666 H 432.669 -3.21441 -0.381779 0
M  V30 4667 H 431.576 -3.20139 1.93551 0
M  V30 4668 H 432.909 -4.22219 2.52966 0
M  V30 4669 N 434.561 -1.01147 -1.20859 0
M  V30 4670 C 435.493 -0.535546 -2.22855 0
M  V30 4671 C 436.506 0.379323 -1.58319 0
M  V30 4672 O 437.695 0.178489 -1.77605 0
M  V30 4673 C 434.795 0.240962 -3.38042 0
M  V30 4674 C 433.968 -0.674562 -4.32167 0
M  V30 4675 C 433.027 0.053467 -5.26173 0
M  V30 4676 O 432.053 -0.567339 -5.66366 0
M  V30 4677 N 433.255 1.32997 -5.65059 0
M  V30 4678 H 436.02 -1.41268 -2.64317 0
M  V30 4679 H 433.581 -0.888386 -1.35349 0
M  V30 4680 H 435.573 0.737115 -3.97931 0
M  V30 4681 H 434.143 1.01935 -2.95513 0
M  V30 4682 H 433.363 -1.35111 -3.70322 0
M  V30 4683 H 434.651 -1.2974 -4.91981 0
M  V30 4684 H 434.049 1.85536 -5.34409 0
M  V30 4685 H 432.606 1.77095 -6.2728 0
M  V30 4686 N 436.039 1.36541 -0.78704 0
M  V30 4687 C 436.969 2.32659 -0.197992 0
M  V30 4688 C 437.95 1.56533 0.665697 0
M  V30 4689 O 439.135 1.84698 0.60001 0
M  V30 4690 C 436.265 3.40778 0.669901 0
M  V30 4691 C 435.219 4.27897 -0.0937039 0
M  V30 4692 C 434.545 5.27163 0.894629 0
M  V30 4693 C 435.845 5.06334 -1.28154 0
M  V30 4694 H 437.539 2.82171 -1.00099 0
M  V30 4695 H 435.085 1.35665 -0.482793 0
M  V30 4696 H 437.038 4.07008 1.09191 0
M  V30 4697 H 435.762 2.89827 1.50558 0
M  V30 4698 H 434.421 3.6322 -0.49666 0
M  V30 4699 H 434.069 4.72486 1.72527 0
M  V30 4700 H 433.769 5.86317 0.388149 0
M  V30 4701 H 435.293 5.96266 1.31525 0
M  V30 4702 H 436.707 5.65617 -0.93541 0
M  V30 4703 H 435.104 5.74888 -1.72115 0
M  V30 4704 H 436.174 4.38114 -2.07807 0
M  V30 4705 N 437.518 0.538854 1.48102 0
M  V30 4706 C 438.448 -0.207654 2.32575 0
M  V30 4707 C 439.429 -0.926559 1.4265 0
M  V30 4708 O 440.614 -0.91061 1.71527 0
M  V30 4709 C 437.744 -1.24957 3.24042 0
M  V30 4710 C 436.698 -0.648263 4.23062 0
M  V30 4711 C 436.024 -1.79348 5.03725 0
M  V30 4712 C 437.324 0.385897 5.20872 0
M  V30 4713 H 439.018 0.497534 2.95237 0
M  V30 4714 H 436.564 0.240715 1.41974 0
M  V30 4715 H 438.517 -1.77983 3.81969 0
M  V30 4716 H 437.241 -1.98446 2.59397 0
M  V30 4717 H 435.9 -0.139452 3.66335 0
M  V30 4718 H 435.548 -2.51696 4.35498 0
M  V30 4719 H 435.248 -1.39702 5.70751 0
M  V30 4720 H 436.772 -2.32735 5.64506 0
M  V30 4721 H 438.186 -0.057607 5.73271 0
M  V30 4722 H 436.583 0.700227 5.96001 0
M  V30 4723 H 437.653 1.28848 4.67468 0
M  V30 4724 N 438.996 -1.55193 0.274407 0
M  V30 4725 C 440.221 -2.04446 -0.348824 0
M  V30 4726 C 440.646 -1.15149 -1.48735 0
M  V30 4727 O 440.004 -0.149952 -1.80679 0
M  V30 4728 C 440.052 -3.51431 -0.808009 0
M  V30 4729 O 439.156 -3.65225 -1.91531 0
M  V30 4730 H 438.497 -0.66006 -0.0722276 0
M  V30 4731 H 441.027 -2.00481 0.408498 0
M  V30 4732 H 441.037 -3.92781 -1.10395 0
M  V30 4733 H 439.712 -4.15892 0.0249865 0
M  V30 4734 H 438.289 -3.35778 -1.62196 0
M  V30 4735 N 440.474 -0.00167713 -1.576 0
M  V30 4736 C 441.722 0.681471 -1.90264 0
M  V30 4737 C 442.043 1.7422 -0.875924 0
M  V30 4738 O 441.313 1.95709 0.0864412 0
M  V30 4739 H 439.893 0.254696 -0.702239 0
M  V30 4740 H 442.555 -0.0429996 -1.94853 0
M  V30 4741 H 441.651 1.15166 -2.90075 0
M  V30 4742 N 441.952 1.55251 0.271103 0
M  V30 4743 C 442.915 1.87484 1.31842 0
M  V30 4744 C 443.915 0.749545 1.42262 0
M  V30 4745 O 445.105 1.01771 1.4138 0
M  V30 4746 C 442.237 2.0818 2.69951 0
M  V30 4747 H 443.43 2.81108 1.0449 0
M  V30 4748 H 440.983 1.47771 0.509258 0
M  V30 4749 H 441.718 1.16944 3.02481 0
M  V30 4750 H 441.503 2.90114 2.63774 0
M  V30 4751 H 442.993 2.34385 3.4562 0
M  V30 4752 N 443.43 -0.535701 1.48216 0
M  V30 4753 C 444.38 -1.63688 1.58714 0
M  V30 4754 C 445.364 -1.54635 0.444615 0
M  V30 4755 O 446.556 -1.62753 0.695742 0
M  V30 4756 C 443.685 -3.02423 1.62466 0
M  V30 4757 C 442.771 -3.16601 2.82178 0
M  V30 4758 N 443.162 -3.00771 4.06658 0
M  V30 4759 C 441.46 -3.47645 2.79391 0
M  V30 4760 C 442.161 -3.18213 4.86945 0
M  V30 4761 N 441.137 -3.45528 4.19656 0
M  V30 4762 H 444.939 -1.5005 2.5271 0
M  V30 4763 H 442.453 -0.741018 1.44508 0
M  V30 4764 H 444.45 -3.81517 1.6808 0
M  V30 4765 H 443.11 -3.17157 0.695826 0
M  V30 4766 H 444.121 -2.77652 4.37184 0
M  V30 4767 H 440.798 -3.68771 1.95739 0
M  V30 4768 H 442.188 -3.1076 5.95716 0
M  V30 4769 N 444.908 -1.36708 -0.784132 0
M  V30 4770 C 446.154 -1.32433 -1.54379 0
M  V30 4771 C 446.509 0.0941816 -1.92169 0
M  V30 4772 O 445.802 1.04997 -1.60269 0
M  V30 4773 C 445.996 -2.18571 -2.82774 0
M  V30 4774 C 445.825 -3.68656 -2.57533 0
M  V30 4775 C 444.595 -4.37813 -2.52286 0
M  V30 4776 C 446.793 -4.61802 -2.2637 0
M  V30 4777 N 444.775 -5.7351 -2.18997 0
M  V30 4778 C 446.146 -5.85785 -2.03115 0
M  V30 4779 C 448.201 -4.50313 -2.12421 0
M  V30 4780 C 446.904 -6.99569 -1.67321 0
M  V30 4781 C 448.93 -5.63969 -1.78026 0
M  V30 4782 C 448.292 -6.86994 -1.55622 0
M  V30 4783 H 444.391 -0.539886 -0.565727 0
M  V30 4784 H 446.975 -1.71812 -0.915908 0
M  V30 4785 H 445.146 -1.81429 -3.43421 0
M  V30 4786 H 446.878 -2.05646 -3.48557 0
M  V30 4787 H 443.633 -3.90674 -2.67714 0
M  V30 4788 H 444.057 -6.45189 -2.05084 0
M  V30 4789 H 448.699 -3.55781 -2.28429 0
M  V30 4790 H 446.417 -7.94047 -1.5005 0
M  V30 4791 H 450.003 -5.57044 -1.67909 0
M  V30 4792 H 448.883 -7.7345 -1.294 0
M  V30 4793 N 446.386 1.0089 -1.21074 0
M  V30 4794 C 447.319 2.09279 -0.909806 0
M  V30 4795 C 448.297 1.61986 0.141145 0
M  V30 4796 O 449.481 1.88495 0.0130332 0
M  V30 4797 C 446.608 3.36723 -0.365374 0
M  V30 4798 C 445.654 4.02919 -1.39852 0
M  V30 4799 S 446.487 4.45835 -2.96633 0
M  V30 4800 C 447.643 5.76471 -2.43786 0
M  V30 4801 H 447.876 2.34484 -1.82769 0
M  V30 4802 H 445.409 1.14115 -1.04006 0
M  V30 4803 H 447.367 4.10459 -0.0578203 0
M  V30 4804 H 446.028 3.09577 0.531136 0
M  V30 4805 H 445.221 4.94634 -0.967117 0
M  V30 4806 H 444.823 3.35441 -1.65395 0
M  V30 4807 H 447.115 6.52027 -1.84029 0
M  V30 4808 H 448.058 6.24418 -3.33928 0
M  V30 4809 H 448.466 5.33104 -1.85636 0
M  V30 4810 N 447.864 1.01787 1.20321 0
M  V30 4811 C 449.141 0.622978 1.85414 0
M  V30 4812 C 449.521 -0.898887 1.91006 0
M  V30 4813 O 448.869 -1.79112 1.41884 0
M  V30 4814 C 449.079 1.27226 3.24984 0
M  V30 4815 C 450.427 1.3885 4.01255 0
M  V30 4816 O 451.451 1.22857 3.34342 0
M  V30 4817 O 450.31 1.64705 5.2109 0
M  V30 4818 H 447.404 0.215116 0.798533 0
M  V30 4819 H 449.95 1.11533 1.27901 0
M  V30 4820 H 448.722 2.31209 3.15687 0
M  V30 4821 H 448.345 0.767069 3.90131 0
M  V30 4822 N 449.342 -1.36122 0.79427 0
M  V30 4823 C 450.274 -2.28683 0.153903 0
M  V30 4824 C 451.287 -1.49707 -0.639669 0
M  V30 4825 O 452.476 -1.7209 -0.474054 0
M  V30 4826 C 449.576 -3.29202 -0.804921 0
M  V30 4827 C 448.749 -4.37358 -0.060366 0
M  V30 4828 C 447.808 -5.17811 -0.935849 0
M  V30 4829 O 446.834 -5.67853 -0.391309 0
M  V30 4830 N 448.036 -5.34721 -2.25951 0
M  V30 4831 H 450.801 -2.84278 0.949008 0
M  V30 4832 H 448.362 -1.4834 0.648611 0
M  V30 4833 H 450.354 -3.79914 -1.39455 0
M  V30 4834 H 448.924 -2.74212 -1.50088 0
M  V30 4835 H 448.144 -3.87746 0.710382 0
M  V30 4836 H 449.432 -5.06777 0.45324 0
M  V30 4837 H 448.83 -4.95687 -2.72601 0
M  V30 4838 H 447.387 -5.88657 -2.79867 0
M  V30 4839 N 450.82 -0.546701 -1.47814 0
M  V30 4840 C 451.77 0.227042 -2.26867 0
M  V30 4841 C 452.754 0.894844 -1.33721 0
M  V30 4842 O 453.946 0.794887 -1.58147 0
M  V30 4843 C 451.075 1.26299 -3.19223 0
M  V30 4844 C 450.161 0.59913 -4.19847 0
M  V30 4845 N 450.552 -0.324777 -5.04756 0
M  V30 4846 C 448.85 0.854331 -4.37741 0
M  V30 4847 C 449.551 -0.709386 -5.77358 0
M  V30 4848 N 448.527 -0.0666153 -5.43559 0
M  V30 4849 H 452.329 -0.483476 -2.89896 0
M  V30 4850 H 449.843 -0.365893 -1.58224 0
M  V30 4851 H 451.84 1.83116 -3.74532 0
M  V30 4852 H 450.5 1.97471 -2.57751 0
M  V30 4853 H 451.511 -0.698351 -5.1317 0
M  V30 4854 H 448.188 1.55536 -3.87447 0
M  V30 4855 H 449.578 -1.46796 -6.55668 0
M  V30 4856 N 452.299 1.55045 -0.282633 0
M  V30 4857 C 453.546 1.9976 0.33199 0
M  V30 4858 C 453.874 1.17105 1.55295 0
M  V30 4859 O 453.129 0.230599 1.94337 0
M  V30 4860 C 453.428 3.49422 0.750938 0
M  V30 4861 C 453.094 4.4941 -0.366228 0
M  V30 4862 C 451.756 4.76471 -0.672964 0
M  V30 4863 C 454.108 5.09054 -1.11864 0
M  V30 4864 C 451.436 5.60442 -1.73556 0
M  V30 4865 C 453.788 5.9418 -2.17102 0
M  V30 4866 C 452.452 6.19558 -2.48402 0
M  V30 4867 H 451.722 0.730974 0.121484 0
M  V30 4868 H 454.369 1.8732 -0.39791 0
M  V30 4869 H 452.674 3.59377 1.56063 0
M  V30 4870 H 454.371 3.81432 1.23736 0
M  V30 4871 H 450.961 4.2844 -0.117041 0
M  V30 4872 H 455.145 4.88165 -0.894925 0
M  V30 4873 H 450.401 5.78349 -1.983 0
M  V30 4874 H 454.575 6.39427 -2.75873 0
M  V30 4875 H 452.202 6.84417 -3.30874 0
M  V30 4876 N 453.777 0.010035 1.57597 0
M  V30 4877 C 455.193 -0.346164 1.55801 0
M  V30 4878 C 455.393 -1.74144 1.01371 0
M  V30 4879 O 454.449 -2.43938 0.651968 0
M  V30 4880 C 455.762 -0.212216 2.9995 0
M  V30 4881 C 457.31 -0.286409 3.11687 0
M  V30 4882 C 457.785 -0.18147 4.5764 0
M  V30 4883 N 459.276 -0.239056 4.62583 0
M  V30 4884 C 460.011 -0.181351 5.73113 0
M  V30 4885 N 459.507 -0.073661 6.92761 0
M  V30 4886 N 461.3 -0.233949 5.61613 0
M  V30 4887 H 453.451 0.922657 1.91313 0
M  V30 4888 H 455.714 0.354595 0.879185 0
M  V30 4889 H 455.42 0.748169 3.4365 0
M  V30 4890 H 455.294 -0.990224 3.6397 0
M  V30 4891 H 457.681 -1.23724 2.67911 0
M  V30 4892 H 457.762 0.521645 2.50425 0
M  V30 4893 H 457.406 0.765863 5.02093 0
M  V30 4894 H 457.336 -1.00814 5.1686 0
M  V30 4895 H 459.827 -0.32321 3.76515 0
M  V30 4896 H 460.14 -0.0358003 7.72792 0
M  V30 4897 H 458.485 -0.0391461 6.94989 0
M  V30 4898 H 461.676 -0.316347 4.6703 0
M  V30 4899 H 461.849 -0.185514 6.47734 0
M  V30 4900 N 455.255 -1.55392 -0.262866 0
M  V30 4901 C 456.483 -1.80513 -1.01108 0
M  V30 4902 C 456.898 -0.583533 -1.79556 0
M  V30 4903 O 456.255 0.447585 -1.76926 0
M  V30 4904 C 456.306 -3.03648 -1.96164 0
M  V30 4905 O 456.027 -4.2109 -1.20893 0
M  V30 4906 C 457.528 -3.41448 -2.82715 0
M  V30 4907 H 454.748 -0.601079 -0.298236 0
M  V30 4908 H 457.292 -2.02425 -0.290582 0
M  V30 4909 H 455.447 -2.83832 -2.63663 0
M  V30 4910 H 455.861 -4.90771 -1.85051 0
M  V30 4911 H 457.335 -4.30751 -3.45192 0
M  V30 4912 H 457.812 -2.61308 -3.53008 0
M  V30 4913 H 458.418 -3.63559 -2.20693 0
M  V30 4914 N 456.733 0.527833 -1.48498 0
M  V30 4915 C 457.961 1.30823 -1.6029 0
M  V30 4916 C 458.376 1.86945 -0.263974 0
M  V30 4917 O 457.733 1.6651 0.747034 0
M  V30 4918 C 457.784 2.45756 -2.65116 0
M  V30 4919 O 457.505 1.91946 -3.93813 0
M  V30 4920 C 459.006 3.37543 -2.87367 0
M  V30 4921 H 456.226 0.397763 -0.540394 0
M  V30 4922 H 458.77 0.636529 -1.94341 0
M  V30 4923 H 456.925 3.08806 -2.33917 0
M  V30 4924 H 457.339 2.67195 -4.51339 0
M  V30 4925 H 458.813 4.14532 -3.6451 0
M  V30 4926 H 459.29 3.92905 -1.9627 0
M  V30 4927 H 459.896 2.80283 -3.19878 0
M  V30 4928 N 458.211 1.37122 0.776871 0
M  V30 4929 C 459.622 1.28667 1.35284 0
M  V30 4930 C 459.973 -0.0680035 1.96082 0
M  V30 4931 O 459.098 -0.969743 1.93455 0
M  V30 4932 C 459.693 2.32997 2.45963 0
M  V30 4933 C 458.252 2.28191 2.99342 0
M  V30 4934 C 457.399 2.17101 1.72517 0
M  V30 4935 H 460.35 1.47819 0.577527 0
M  V30 4936 H 460.371 1.97366 3.2531 0
M  V30 4937 H 459.883 3.3158 2.01684 0
M  V30 4938 H 457.984 1.33115 3.4801 0
M  V30 4939 H 458.097 3.21397 3.55304 0
M  V30 4940 H 456.461 1.63562 1.95242 0
M  V30 4941 H 457.244 3.17591 1.30348 0
M  V30 4942 N 459.689 -1.00246 1.21608 0
M  V30 4943 C 460.619 -2.10921 1.00172 0
M  V30 4944 C 461.6 -1.69938 -0.0741587 0
M  V30 4945 O 462.785 -1.94009 0.0861753 0
M  V30 4946 C 459.915 -3.42618 0.568355 0
M  V30 4947 C 458.869 -3.97407 1.58909 0
M  V30 4948 C 458.195 -5.25038 1.01187 0
M  V30 4949 C 459.495 -4.2918 2.97661 0
M  V30 4950 H 461.189 -2.29112 1.92739 0
M  V30 4951 H 458.735 -1.10101 0.928102 0
M  V30 4952 H 460.688 -4.19444 0.405555 0
M  V30 4953 H 459.412 -3.24227 -0.392961 0
M  V30 4954 H 458.071 -3.22703 1.73949 0
M  V30 4955 H 457.719 -5.02982 0.0421965 0
M  V30 4956 H 457.419 -5.62661 1.6937 0
M  V30 4957 H 458.943 -6.04507 0.860448 0
M  V30 4958 H 460.357 -4.96839 2.86049 0
M  V30 4959 H 458.754 -4.77952 3.6288 0
M  V30 4960 H 459.824 -3.3735 3.48315 0
M  V30 4961 N 461.167 -1.02423 -1.1978 0
M  V30 4962 C 462.077 -0.610919 -2.26506 0
M  V30 4963 C 463.093 0.355152 -1.70337 0
M  V30 4964 O 464.269 0.214195 -2.00258 0
M  V30 4965 C 461.334 0.0365921 -3.46681 0
M  V30 4966 C 460.395 -0.976389 -4.18049 0
M  V30 4967 C 459.628 -0.359683 -5.32487 0
M  V30 4968 O 459.851 0.838601 -5.64202 0
M  V30 4969 O 458.785 -1.08022 -5.92127 0
M  V30 4970 H 462.611 -1.49965 -2.64091 0
M  V30 4971 H 460.196 -0.794156 -1.26545 0
M  V30 4972 H 462.078 0.39786 -4.19518 0
M  V30 4973 H 460.753 0.899398 -3.10954 0
M  V30 4974 H 459.66 -1.38916 -3.47352 0
M  V30 4975 H 460.993 -1.80941 -4.57735 0
M  V30 4976 N 462.645 1.35699 -0.801477 0
M  V30 4977 C 463.592 2.29876 -0.206294 0
M  V30 4978 C 464.562 1.52565 0.656752 0
M  V30 4979 O 465.747 1.81024 0.602906 0
M  V30 4980 C 462.887 3.39052 0.643272 0
M  V30 4981 C 462 4.31335 -0.239644 0
M  V30 4982 C 461.135 5.27599 0.61744 0
M  V30 4983 C 460.174 6.11521 -0.26619 0
M  V30 4984 N 459.311 6.99938 0.550571 0
M  V30 4985 H 464.151 2.80187 -1.01484 0
M  V30 4986 H 461.688 1.37902 -0.511997 0
M  V30 4987 H 463.646 4.0101 1.15094 0
M  V30 4988 H 462.276 2.9003 1.41713 0
M  V30 4989 H 461.328 3.70426 -0.865381 0
M  V30 4990 H 462.64 4.90243 -0.919985 0
M  V30 4991 H 461.794 5.94906 1.19045 0
M  V30 4992 H 460.533 4.69176 1.33137 0
M  V30 4993 H 459.538 5.43166 -0.851507 0
M  V30 4994 H 460.763 6.72022 -0.9779 0
M  V30 4995 H 458.709 6.44008 1.24856 0
M  V30 4996 H 458.626 7.55966 -0.071832 0
M  V30 4997 H 459.894 7.71599 1.10702 0
M  V30 4998 N 464.123 0.554532 1.47522 0
M  V30 4999 C 465.071 -0.207765 2.3167 0
M  V30 5000 C 466.065 -0.911914 1.4276 0
M  V30 5001 O 467.271 -0.833504 1.59539 0
M  V30 5002 H 463.646 -0.0858726 0.747081 0
M  V30 5003 H 465.617 0.521178 2.93813 0
M  V30 5004 C 464.366 -1.2263 3.25357 0
M  V30 5005 H 463.689 -0.693887 3.93732 0
M  V30 5006 H 465.129 -1.73062 3.87073 0
M  V30 5007 C 463.588 -2.27278 2.4869 0
M  V30 5008 O 464.118 -3.34156 2.22941 0
M  V30 5009 N 462.324 -2.01134 2.09746 0
M  V30 5010 H 461.871 -1.14232 2.30887 0
M  V30 5011 H 461.829 -2.71369 1.58765 0
M  V30 5012 N 465.601 -1.54893 0.290851 0
M  V30 5013 C 466.564 -2.21824 -0.576784 0
M  V30 5014 C 467.564 -1.20104 -1.06919 0
M  V30 5015 O 468.754 -1.44906 -0.966843 0
M  V30 5016 C 465.886 -2.89662 -1.79747 0
M  V30 5017 H 467.079 -2.99899 0.00784051 0
M  V30 5018 H 464.632 -1.56245 0.0415934 0
M  V30 5019 H 465.367 -2.15639 -2.42219 0
M  V30 5020 H 465.152 -3.64219 -1.45214 0
M  V30 5021 H 466.642 -3.4075 -2.4141 0
M  V30 5022 N 467.08 -0.0183926 -1.57589 0
M  V30 5023 C 468.491 0.521927 -1.79256 0
M  V30 5024 C 468.842 1.72885 -0.927636 0
M  V30 5025 O 467.967 2.15978 -0.135091 0
M  V30 5026 C 468.562 0.953632 -3.25102 0
M  V30 5027 C 467.121 1.43913 -3.47801 0
M  V30 5028 C 466.268 0.398837 -2.74417 0
M  V30 5029 H 469.219 -0.244485 -1.56805 0
M  V30 5030 H 469.24 1.81863 -3.34224 0
M  V30 5031 H 468.752 0.0750123 -3.88028 0
M  V30 5032 H 466.853 2.33804 -2.90115 0
M  V30 5033 H 466.966 1.45391 -4.56507 0
M  V30 5034 H 465.33 0.864572 -2.39577 0
M  V30 5035 H 466.113 -0.471132 -3.40052 0
M  V30 5036 N 468.558 1.5553 0.254621 0
M  V30 5037 C 469.804 1.77262 0.985193 0
M  V30 5038 C 470.137 0.582286 1.85265 0
M  V30 5039 O 469.412 -0.419666 1.89919 0
M  V30 5040 C 469.695 3.0881 1.85225 0
M  V30 5041 C 469.548 4.38233 1.0135 0
M  V30 5042 C 470.867 3.3653 2.83612 0
M  V30 5043 H 467.986 0.644906 0.356742 0
M  V30 5044 H 470.628 1.88264 0.256236 0
M  V30 5045 H 468.778 2.99562 2.47376 0
M  V30 5046 H 470.45 4.59463 0.411269 0
M  V30 5047 H 468.693 4.32636 0.317574 0
M  V30 5048 H 469.364 5.26644 1.65379 0
M  V30 5049 H 471.84 3.45691 2.31596 0
M  V30 5050 H 470.716 4.29805 3.41407 0
M  V30 5051 H 470.977 2.57064 3.59681 0
M  V30 5052 N 470.036 -0.519951 1.48776 0
M  V30 5053 C 470.966 -1.63253 1.66945 0
M  V30 5054 C 471.947 -1.62014 0.518224 0
M  V30 5055 O 473.132 -1.79053 0.751919 0
M  V30 5056 C 470.262 -3.0181 1.71836 0
M  V30 5057 C 469.216 -3.17911 2.8656 0
M  V30 5058 C 468.542 -4.5763 2.76548 0
M  V30 5059 C 469.842 -2.99729 4.27738 0
M  V30 5060 H 471.536 -1.48302 2.6009 0
M  V30 5061 H 469.082 -0.712026 1.25165 0
M  V30 5062 H 471.035 -3.79525 1.83135 0
M  V30 5063 H 469.759 -3.17806 0.752775 0
M  V30 5064 H 468.418 -2.42616 2.74833 0
M  V30 5065 H 468.066 -4.70476 1.77937 0
M  V30 5066 H 467.766 -4.69346 3.53536 0
M  V30 5067 H 469.29 -5.37431 2.89828 0
M  V30 5068 H 470.704 -3.67228 4.40246 0
M  V30 5069 H 469.101 -3.22932 5.05801 0
M  V30 5070 H 470.171 -1.96047 4.43502 0
M  V30 5071 N 471.514 -1.37532 -0.769588 0
M  V30 5072 C 472.444 -1.36172 -1.89682 0
M  V30 5073 C 473.425 -0.23001 -1.68538 0
M  V30 5074 O 474.61 -0.43069 -1.89364 0
M  V30 5075 C 471.74 -1.1701 -3.26995 0
M  V30 5076 C 470.694 -2.27216 -3.62708 0
M  V30 5077 C 470.02 -1.93174 -4.98586 0
M  V30 5078 C 471.32 -3.6941 -3.69234 0
M  V30 5079 H 473.014 -2.30499 -1.91078 0
M  V30 5080 H 470.56 -1.10953 -0.917902 0
M  V30 5081 H 472.513 -1.14688 -4.05493 0
M  V30 5082 H 471.237 -0.191395 -3.26039 0
M  V30 5083 H 469.896 -2.28697 -2.86519 0
M  V30 5084 H 469.544 -0.938281 -4.94171 0
M  V30 5085 H 469.244 -2.66973 -5.23449 0
M  V30 5086 H 470.768 -1.92443 -5.79481 0
M  V30 5087 H 472.182 -3.70047 -4.37879 0
M  V30 5088 H 470.579 -4.4228 -4.05597 0
M  V30 5089 H 471.649 -4.0288 -2.69844 0
M  V30 5090 N 472.992 0.995999 -1.22138 0
M  V30 5091 C 473.955 2.06711 -0.990109 0
M  V30 5092 C 474.955 1.60744 0.0422978 0
M  V30 5093 O 476.145 1.73095 -0.195895 0
M  V30 5094 C 473.277 3.37288 -0.49491 0
M  V30 5095 H 474.47 2.28661 -1.94047 0
M  V30 5096 H 472.023 1.16711 -1.03963 0
M  V30 5097 H 472.758 3.21022 0.459948 0
M  V30 5098 H 472.543 3.71986 -1.23971 0
M  V30 5099 H 474.033 4.16103 -0.353253 0
M  V30 5100 N 474.47 1.03057 1.19235 0
M  V30 5101 C 475.4 0.633497 2.24742 0
M  V30 5102 C 476.381 -0.358335 1.66283 0
M  V30 5103 O 477.566 -0.240676 1.92703 0
M  V30 5104 C 474.696 -0.0147648 3.47297 0
M  V30 5105 C 473.65 0.899527 4.18441 0
M  V30 5106 C 472.976 0.116281 5.34574 0
M  V30 5107 C 474.276 2.21404 4.73051 0
M  V30 5108 H 475.97 1.5155 2.58211 0
M  V30 5109 H 473.516 0.73014 1.24117 0
M  V30 5110 H 475.469 -0.304202 4.20301 0
M  V30 5111 H 474.193 -0.931577 3.13032 0
M  V30 5112 H 472.852 1.17319 3.47321 0
M  V30 5113 H 472.5 -0.802619 4.96555 0
M  V30 5114 H 472.2 0.725293 5.83107 0
M  V30 5115 H 473.724 -0.166376 6.10373 0
M  V30 5116 H 475.138 1.98601 5.37802 0
M  V30 5117 H 473.535 2.77512 5.32078 0
M  V30 5118 H 474.605 2.86752 3.91026 0
M  V30 5119 N 475.948 -1.35272 0.808662 0
M  V30 5120 C 476.878 -2.32315 0.234981 0
M  V30 5121 C 477.859 -1.57572 -0.64071 0
M  V30 5122 O 479.044 -1.8563 -0.570551 0
M  V30 5123 C 476.174 -3.41801 -0.615601 0
M  V30 5124 C 475.128 -4.27694 0.161767 0
M  V30 5125 C 474.454 -5.28519 -0.810649 0
M  V30 5126 C 475.754 -5.04231 1.36193 0
M  V30 5127 H 477.448 -2.80543 1.04575 0
M  V30 5128 H 474.994 -1.3488 0.504315 0
M  V30 5129 H 476.947 -4.08693 -1.02702 0
M  V30 5130 H 475.671 -2.92186 -1.45928 0
M  V30 5131 H 474.33 -3.62384 0.554382 0
M  V30 5132 H 473.978 -4.75171 -1.64988 0
M  V30 5133 H 473.678 -5.8686 -0.294822 0
M  V30 5134 H 475.202 -5.98283 -1.22023 0
M  V30 5135 H 476.616 -5.64058 1.02528 0
M  V30 5136 H 475.013 -5.72077 1.81239 0
M  V30 5137 H 476.083 -4.34753 2.14751 0
M  V30 5138 N 477.426 -0.562348 -1.47226 0
M  V30 5139 C 478.674 -0.0401371 -2.0206 0
M  V30 5140 C 478.995 1.3165 -1.43852 0
M  V30 5141 O 478.265 1.85976 -0.615599 0
M  V30 5142 H 476.845 -0.0118479 -0.746906 0
M  V30 5143 H 479.507 -0.73352 -1.8057 0
M  V30 5144 H 478.603 0.0441254 -3.12069 0
M  V30 5145 N 478.904 1.54736 -0.299062 0
M  V30 5146 C 480.153 1.99279 0.311549 0
M  V30 5147 C 480.466 1.19107 1.55154 0
M  V30 5148 O 481.672 1.53908 2.23662 0
M  V30 5149 C 480.128 3.54768 0.605632 0
M  V30 5150 C 479.736 4.43746 -0.615914 0
M  V30 5151 C 481.48 4.07841 1.17754 0
M  V30 5152 C 479.387 5.90663 -0.29509 0
M  V30 5153 H 478.317 0.744359 0.120187 0
M  V30 5154 H 480.968 1.78919 -0.407464 0
M  V30 5155 H 479.35 3.71021 1.38419 0
M  V30 5156 H 480.524 4.39267 -1.39218 0
M  V30 5157 H 478.839 4.01434 -1.10633 0
M  V30 5158 H 481.436 5.15174 1.43179 0
M  V30 5159 H 481.779 3.58324 2.11918 0
M  V30 5160 H 482.312 3.95123 0.460739 0
M  V30 5161 H 479.051 6.44325 -1.20524 0
M  V30 5162 H 478.571 5.98155 0.44394 0
M  V30 5163 H 480.25 6.46916 0.104048 0
M  V30 5164 N 480.382 0.0267497 1.57577 0
M  V30 5165 C 481.628 -0.647596 1.92815 0
M  V30 5166 C 481.983 -1.69872 0.903396 0
M  V30 5167 O 481.276 -1.91429 -0.0808881 0
M  V30 5168 C 481.47 -1.30914 3.3256 0
M  V30 5169 C 481.299 -0.323621 4.48534 0
M  V30 5170 C 480.069 0.0756607 5.05243 0
M  V30 5171 C 482.267 0.42112 5.12573 0
M  V30 5172 N 480.249 1.0566 6.04739 0
M  V30 5173 C 481.62 1.25589 6.07147 0
M  V30 5174 C 483.675 0.482077 4.95561 0
M  V30 5175 C 482.378 2.1461 6.86538 0
M  V30 5176 C 484.404 1.35962 5.75559 0
M  V30 5177 C 483.766 2.18217 6.69747 0
M  V30 5178 H 479.865 -0.209357 0.753454 0
M  V30 5179 H 482.449 0.0933695 1.94476 0
M  V30 5180 H 480.62 -2.02026 3.31723 0
M  V30 5181 H 482.352 -1.94033 3.55153 0
M  V30 5182 H 479.107 -0.298294 4.7266 0
M  V30 5183 H 479.531 1.54324 6.59176 0
M  V30 5184 H 484.173 -0.139609 4.22569 0
M  V30 5185 H 481.891 2.77835 7.58837 0
M  V30 5186 H 485.477 1.41105 5.6443 0
M  V30 5187 H 484.357 2.85022 7.3057 0
M  V30 5188 N 481.861 -1.55662 -0.24637 0
M  V30 5189 C 483.091 -1.81312 -0.990438 0
M  V30 5190 C 483.499 -0.600234 -1.79426 0
M  V30 5191 O 482.842 0.440537 -1.78339 0
M  V30 5192 C 482.904 -3.0032 -1.97607 0
M  V30 5193 C 482.568 -4.36322 -1.35912 0
M  V30 5194 C 483.565 -5.14295 -0.761348 0
M  V30 5195 C 481.25 -4.83019 -1.37833 0
M  V30 5196 C 483.244 -6.37114 -0.190998 0
M  V30 5197 C 480.931 -6.05786 -0.804128 0
M  V30 5198 C 481.929 -6.82672 -0.211489 0
M  V30 5199 O 481.617 -8.03121 0.353845 0
M  V30 5200 H 481.349 -0.607233 -0.297058 0
M  V30 5201 H 483.903 -2.0356 -0.274351 0
M  V30 5202 H 482.133 -2.73829 -2.73047 0
M  V30 5203 H 483.822 -3.13057 -2.58361 0
M  V30 5204 H 484.588 -4.79337 -0.739013 0
M  V30 5205 H 480.467 -4.23165 -1.829 0
M  V30 5206 H 484.011 -6.97069 0.272206 0
M  V30 5207 H 479.908 -6.40222 -0.823792 0
M  V30 5208 H 480.676 -8.18131 0.245761 0
M  V30 5209 N 483.339 0.512053 -1.4905 0
M  V30 5210 C 484.588 1.26343 -1.57227 0
M  V30 5211 C 484.901 1.93876 -0.259155 0
M  V30 5212 O 486.107 2.70612 -0.219358 0
M  V30 5213 C 484.563 2.29343 -2.77362 0
M  V30 5214 C 484.171 1.67799 -4.15388 0
M  V30 5215 C 485.915 3.05378 -2.94864 0
M  V30 5216 C 483.822 2.68845 -5.2676 0
M  V30 5217 H 482.752 0.475231 -0.585382 0
M  V30 5218 H 485.403 0.53862 -1.75417 0
M  V30 5219 H 483.785 3.04938 -2.52643 0
M  V30 5220 H 484.959 0.982715 -4.50199 0
M  V30 5221 H 483.274 1.04194 -4.03153 0
M  V30 5222 H 485.871 3.80921 -3.75238 0
M  V30 5223 H 486.214 3.62327 -2.05 0
M  V30 5224 H 486.747 2.36898 -3.19569 0
M  V30 5225 H 483.486 2.16692 -6.18647 0
M  V30 5226 H 483.006 3.36647 -4.96416 0
M  V30 5227 H 484.685 3.31487 -5.5563 0
M  V30 5228 N 484.817 1.37938 0.762283 0
M  V30 5229 C 485.765 1.34569 1.89721 0
M  V30 5230 C 486.759 0.232929 1.67791 0
M  V30 5231 O 487.965 0.401485 1.75465 0
M  V30 5232 H 484.34 0.419594 0.624055 0
M  V30 5233 H 486.311 2.30357 1.8968 0
M  V30 5234 C 485.06 1.17898 3.27101 0
M  V30 5235 H 484.383 2.02781 3.44558 0
M  V30 5236 H 485.823 1.19593 4.06784 0
M  V30 5237 C 484.282 -0.114728 3.36705 0
M  V30 5238 O 484.812 -1.0949 3.8649 0
M  V30 5239 N 483.018 -0.16863 2.9011 0
M  V30 5240 H 482.565 0.62967 2.49786 0
M  V30 5241 H 482.523 -1.03383 2.96916 0
M  V30 5242 N 486.295 -0.989507 1.22664 0
M  V30 5243 C 487.535 -1.7447 1.06488 0
M  V30 5244 C 487.899 -1.8794 -0.392737 0
M  V30 5245 O 489.1 -2.60175 -0.675446 0
M  V30 5246 C 487.371 -3.11043 1.76031 0
M  V30 5247 S 488.93 -4.02258 1.7531 0
M  V30 5248 H 485.748 -0.600123 0.381278 0
M  V30 5249 H 488.35 -1.18283 1.55658 0
M  V30 5250 H 487.054 -2.98884 2.81241 0
M  V30 5251 H 486.585 -3.72301 1.27105 0
M  V30 5252 H 488.6 -4.89623 0.805208 0
M  V30 5253 N 487.773 -1.03688 -1.18687 0
M  V30 5254 C 489.02 -0.73803 -1.88572 0
M  V30 5255 C 489.348 0.733973 -1.8012 0
M  V30 5256 O 488.603 1.55098 -1.19344 0
M  V30 5257 C 488.902 -1.14477 -3.3857 0
M  V30 5258 C 488.568 -2.61641 -3.67226 0
M  V30 5259 C 487.23 -3.01846 -3.74757 0
M  V30 5260 C 489.582 -3.56812 -3.79914 0
M  V30 5261 C 486.91 -4.36118 -3.92451 0
M  V30 5262 C 489.262 -4.90799 -3.99123 0
M  V30 5263 C 487.926 -5.3068 -4.04888 0
M  V30 5264 H 487.196 -0.270064 -0.690034 0
M  V30 5265 H 489.843 -1.3012 -1.40503 0
M  V30 5266 H 488.148 -0.500337 -3.88592 0
M  V30 5267 H 489.845 -0.89095 -3.90977 0
M  V30 5268 H 486.435 -2.29498 -3.61979 0
M  V30 5269 H 490.619 -3.26899 -3.73431 0
M  V30 5270 H 485.875 -4.66542 -3.95157 0
M  V30 5271 H 490.049 -5.64451 -4.07882 0
M  V30 5272 H 487.676 -6.34733 -4.18351 0
M  V30 5273 N 489.251 1.34841 -0.815825 0
M  V30 5274 C 490.499 1.98107 -0.399744 0
M  V30 5275 C 490.82 1.65019 1.03894 0
M  V30 5276 O 490.09 0.937311 1.72021 0
M  V30 5277 H 488.67 0.732827 -0.144823 0
M  V30 5278 H 491.332 1.64599 -1.0437 0
M  V30 5279 H 490.428 3.07856 -0.512965 0
M  V30 5280 N 490.729 0.570148 1.46925 0
M  V30 5281 C 491.969 0.0534743 2.0433 0
M  V30 5282 C 492.333 -1.27729 1.4335 0
M  V30 5283 O 493.534 -1.88244 1.91879 0
M  V30 5284 C 491.805 -0.0244296 3.57392 0
M  V30 5285 S 493.364 -0.485351 4.36108 0
M  V30 5286 H 490.182 0.0313908 0.710307 0
M  V30 5287 H 492.784 0.759808 1.80131 0
M  V30 5288 H 491.488 0.948261 3.99295 0
M  V30 5289 H 491.019 -0.753922 3.86108 0
M  V30 5290 H 493.034 -1.74258 4.64595 0
M  V30 5291 N 492.207 -1.54576 0.307264 0
M  V30 5292 C 493.117 -2.27435 -0.57536 0
M  V30 5293 C 494.133 -1.31183 -1.14311 0
M  V30 5294 O 495.309 -1.64175 -1.16656 0
M  V30 5295 C 492.374 -3.00566 -1.72803 0
M  V30 5296 C 491.435 -4.12369 -1.19373 0
M  V30 5297 C 490.668 -4.82003 -2.29147 0
M  V30 5298 O 490.891 -4.51038 -3.49171 0
M  V30 5299 O 489.825 -5.69271 -1.95485 0
M  V30 5300 H 493.651 -3.03696 0.0158558 0
M  V30 5301 H 491.236 -1.49219 0.0735064 0
M  V30 5302 H 493.118 -3.46416 -2.39946 0
M  V30 5303 H 491.793 -2.27195 -2.30574 0
M  V30 5304 H 490.7 -3.70905 -0.487851 0
M  V30 5305 H 492.033 -4.87736 -0.661376 0
M  V30 5306 N 493.685 -0.035106 -1.57561 0
M  V30 5307 C 494.913 0.652258 -1.9635 0
M  V30 5308 C 495.328 1.65317 -0.911897 0
M  V30 5309 O 494.685 1.82194 0.105657 0
M  V30 5310 C 494.736 1.35337 -3.35211 0
M  V30 5311 O 494.457 0.392548 -4.36338 0
M  V30 5312 C 495.958 2.13199 -3.88666 0
M  V30 5313 H 493.178 0.179444 -0.646561 0
M  V30 5314 H 495.722 -0.0966459 -2.04271 0
M  V30 5315 H 493.877 2.05362 -3.28489 0
M  V30 5316 H 494.291 0.891097 -5.16875 0
M  V30 5317 H 495.765 2.577 -4.88154 0
M  V30 5318 H 496.242 2.97353 -3.23231 0
M  V30 5319 H 496.848 1.48118 -3.98674 0
M  V30 5320 N 495.163 1.55791 0.238111 0
M  V30 5321 C 496.113 1.87444 1.29803 0
M  V30 5322 C 497.097 0.736043 1.43078 0
M  V30 5323 O 498.289 0.998146 1.46171 0
M  V30 5324 C 495.418 2.18028 2.65177 0
M  V30 5325 C 494.504 3.38217 2.55871 0
M  V30 5326 N 494.895 4.57264 2.16202 0
M  V30 5327 C 493.193 3.41502 2.86866 0
M  V30 5328 C 493.894 5.3941 2.17744 0
M  V30 5329 N 492.87 4.78695 2.57589 0
M  V30 5330 H 496.672 2.7701 0.981965 0
M  V30 5331 H 494.186 1.56135 0.44672 0
M  V30 5332 H 496.183 2.38873 3.4168 0
M  V30 5333 H 494.843 1.29765 2.97643 0
M  V30 5334 H 495.854 4.82727 1.87602 0
M  V30 5335 H 492.531 2.63536 3.23813 0
M  V30 5336 H 493.921 6.44671 1.89339 0
M  V30 5337 N 496.642 -0.504142 1.49319 0
M  V30 5338 C 497.605 -1.5883 1.65244 0
M  V30 5339 C 498.605 -1.52009 0.524386 0
M  V30 5340 O 499.795 -1.55218 0.79077 0
M  V30 5341 C 496.927 -2.98481 1.64687 0
M  V30 5342 H 498.12 -1.4604 2.61939 0
M  V30 5343 H 495.673 -0.728144 1.38303 0
M  V30 5344 H 496.408 -3.16751 0.695644 0
M  V30 5345 H 496.193 -3.0484 2.46607 0
M  V30 5346 H 497.683 -3.77256 1.79075 0
M  V30 5347 N 498.12 -1.38341 -0.754957 0
M  V30 5348 C 499.053 -1.29837 -1.87663 0
M  V30 5349 C 500.031 -0.175659 -1.61648 0
M  V30 5350 O 501.215 -0.352745 -1.8517 0
M  V30 5351 C 498.342 -1.01141 -3.23246 0
M  V30 5352 C 497.388 -2.15331 -3.6815 0
M  V30 5353 S 498.221 -3.77459 -3.79849 0
M  V30 5354 C 499.377 -3.50948 -5.18253 0
M  V30 5355 H 499.61 -2.24771 -1.9459 0
M  V30 5356 H 497.143 -1.24161 -0.917796 0
M  V30 5357 H 499.101 -0.852687 -4.01546 0
M  V30 5358 H 497.762 -0.0792784 -3.14 0
M  V30 5359 H 496.955 -1.90795 -4.6649 0
M  V30 5360 H 496.557 -2.27304 -2.97 0
M  V30 5361 H 498.849 -3.06977 -6.03963 0
M  V30 5362 H 499.792 -4.48677 -5.47809 0
M  V30 5363 H 500.2 -2.85492 -4.86985 0
M  V30 5364 N 499.598 0.982988 -1.23187 0
M  V30 5365 C 500.528 2.09301 -1.03515 0
M  V30 5366 C 501.509 1.70035 0.0471136 0
M  V30 5367 O 502.694 1.93847 -0.117029 0
M  V30 5368 C 499.824 3.4167 -0.622791 0
M  V30 5369 C 498.778 3.94828 -1.65211 0
M  V30 5370 C 498.104 5.23362 -1.09527 0
M  V30 5371 C 499.404 4.2439 -3.04451 0
M  V30 5372 H 501.098 2.26016 -1.96359 0
M  V30 5373 H 498.644 1.08611 -0.945501 0
M  V30 5374 H 500.597 4.18746 -0.472233 0
M  V30 5375 H 499.321 3.24811 0.341329 0
M  V30 5376 H 497.98 3.19895 -1.79061 0
M  V30 5377 H 497.628 5.02852 -0.122211 0
M  V30 5378 H 497.328 5.59895 -1.783 0
M  V30 5379 H 498.852 6.03062 -0.956511 0
M  V30 5380 H 500.266 4.92225 -2.93917 0
M  V30 5381 H 498.663 4.72118 -3.70438 0
M  V30 5382 H 499.733 3.31765 -3.53638 0
M  V30 5383 N 501.076 1.04316 1.18135 0
M  V30 5384 C 502.487 0.775505 1.69832 0
M  V30 5385 C 502.838 -0.703348 1.8316 0
M  V30 5386 O 501.963 -1.54729 1.51287 0
M  V30 5387 C 502.558 1.40112 3.0847 0
M  V30 5388 C 501.117 1.18172 3.57368 0
M  V30 5389 C 500.264 1.49022 2.33854 0
M  V30 5390 H 503.215 1.20925 1.02775 0
M  V30 5391 H 503.236 0.805672 3.71873 0
M  V30 5392 H 502.748 2.47744 2.98738 0
M  V30 5393 H 500.849 0.124258 3.72393 0
M  V30 5394 H 500.962 1.8805 4.40652 0
M  V30 5395 H 499.326 0.909995 2.37889 0
M  V30 5396 H 500.109 2.57768 2.26738 0
M  V30 5397 N 502.554 -1.34406 0.822964 0
M  V30 5398 C 503.784 -2.02214 0.423424 0
M  V30 5399 C 504.192 -1.62124 -0.975322 0
M  V30 5400 O 503.535 -0.822452 -1.6426 0
M  V30 5401 C 503.597 -3.56721 0.446107 0
M  V30 5402 C 503.261 -4.20136 1.79819 0
M  V30 5403 C 504.258 -4.4065 2.75904 0
M  V30 5404 C 501.943 -4.56906 2.08669 0
M  V30 5405 C 503.937 -4.9706 3.99012 0
M  V30 5406 C 501.624 -5.13026 3.32036 0
M  V30 5407 C 502.622 -5.33047 4.27024 0
M  V30 5408 O 502.31 -5.87979 5.48211 0
M  V30 5409 H 502.042 -0.654748 0.168169 0
M  V30 5410 H 504.596 -1.72659 1.11257 0
M  V30 5411 H 502.826 -3.85537 -0.299734 0
M  V30 5412 H 504.515 -4.05845 0.0666114 0
M  V30 5413 H 505.281 -4.12607 2.54912 0
M  V30 5414 H 501.16 -4.40626 1.35535 0
M  V30 5415 H 504.704 -5.12603 4.73164 0
M  V30 5416 H 500.601 -5.40498 3.52891 0
M  V30 5417 H 501.369 -6.06413 5.49732 0
M  V30 5418 N 504.032 -0.577932 -1.46621 0
M  V30 5419 C 505.309 0.00495287 -1.95599 0
M  V30 5420 C 505.689 1.46428 -1.5206 0
M  V30 5421 O 505.037 2.1517 -0.769046 0
M  V30 5422 C 505.247 -0.162114 -3.48623 0
M  V30 5423 C 506.595 -0.0274623 -4.24591 0
M  V30 5424 O 507.619 -0.0907067 -3.56084 0
M  V30 5425 O 506.478 0.1122 -5.46385 0
M  V30 5426 H 503.572 0.0525057 -0.825332 0
M  V30 5427 H 506.118 -0.645914 -1.56927 0
M  V30 5428 H 504.89 -1.17679 -3.73185 0
M  V30 5429 H 504.513 0.525407 -3.94113 0
M  V30 5430 N 505.51 1.54411 -0.315457 0
M  V30 5431 C 506.442 2.21527 0.588067 0
M  V30 5432 C 507.455 1.21263 1.08624 0
M  V30 5433 O 508.644 1.47777 1.00121 0
M  V30 5434 C 505.744 2.85963 1.81875 0
M  V30 5435 C 504.917 4.12291 1.46063 0
M  V30 5436 C 503.976 4.60396 2.54799 0
M  V30 5437 O 503.002 5.25265 2.19283 0
M  V30 5438 N 504.204 4.33935 3.85591 0
M  V30 5439 H 506.969 2.99697 0.013414 0
M  V30 5440 H 504.53 1.61308 -0.138295 0
M  V30 5441 H 506.522 3.15071 2.53993 0
M  V30 5442 H 505.092 2.11548 2.30144 0
M  V30 5443 H 504.312 3.90036 0.571445 0
M  V30 5444 H 505.6 4.9452 1.19695 0
M  V30 5445 H 504.998 3.81996 4.17248 0
M  V30 5446 H 503.555 4.67718 4.53964 0
M  V30 5447 N 506.988 0.0434614 1.5754 0
M  V30 5448 C 508.218 -0.640905 1.96408 0
M  V30 5449 C 508.626 -1.65365 0.919297 0
M  V30 5450 O 507.969 -1.83395 -0.105795 0
M  V30 5451 C 508.031 -1.39141 3.31482 0
M  V30 5452 C 507.695 -0.535375 4.53853 0
M  V30 5453 C 508.692 0.195335 5.19533 0
M  V30 5454 C 506.377 -0.468564 5.0011 0
M  V30 5455 C 508.371 0.981377 6.298 0
M  V30 5456 C 506.058 0.321171 6.10255 0
M  V30 5457 C 507.056 1.04484 6.74961 0
M  V30 5458 O 506.744 1.8216 7.8299 0
M  V30 5459 H 506.476 -0.180584 0.651433 0
M  V30 5460 H 509.03 0.103848 2.05137 0
M  V30 5461 H 507.26 -2.18162 3.19284 0
M  V30 5462 H 508.949 -1.96526 3.55151 0
M  V30 5463 H 509.715 0.15314 4.84758 0
M  V30 5464 H 505.594 -1.02142 4.49542 0
M  V30 5465 H 509.138 1.54674 6.80237 0
M  V30 5466 H 505.035 0.365032 6.44467 0
M  V30 5467 H 505.803 1.74289 7.99728 0
M  V30 5468 N 508.466 -1.55915 -0.229846 0
M  V30 5469 C 509.396 -1.94754 -1.28815 0
M  V30 5470 C 510.377 -0.814657 -1.49323 0
M  V30 5471 O 511.562 -1.07631 -1.61645 0
M  V30 5472 C 508.692 -2.25705 -2.63959 0
M  V30 5473 C 507.646 -3.41406 -2.5812 0
M  V30 5474 C 506.972 -3.57941 -3.97218 0
M  V30 5475 C 508.272 -4.76616 -2.13623 0
M  V30 5476 H 509.966 -2.83404 -0.965547 0
M  V30 5477 H 507.512 -1.36353 -0.463028 0
M  V30 5478 H 509.465 -2.51467 -3.38146 0
M  V30 5479 H 508.189 -1.339 -2.9789 0
M  V30 5480 H 506.848 -3.1568 -1.86391 0
M  V30 5481 H 506.496 -2.63526 -4.28443 0
M  V30 5482 H 506.196 -4.35757 -3.94195 0
M  V30 5483 H 507.72 -3.86042 -4.73079 0
M  V30 5484 H 509.134 -5.01637 -2.77549 0
M  V30 5485 H 507.531 -5.57655 -2.21677 0
M  V30 5486 H 508.601 -4.7253 -1.08829 0
M  V30 5487 N 509.944 0.496216 -1.49584 0
M  V30 5488 C 510.894 1.59422 -1.62999 0
M  V30 5489 C 511.878 1.53402 -0.485457 0
M  V30 5490 O 513.07 1.60851 -0.738649 0
M  V30 5491 C 510.199 2.98009 -1.70427 0
M  V30 5492 C 509.285 3.09008 -2.90473 0
M  V30 5493 N 509.676 2.89884 -4.14489 0
M  V30 5494 C 507.974 3.40115 -2.8851 0
M  V30 5495 C 508.675 3.0519 -4.95211 0
M  V30 5496 N 507.651 3.3428 -4.2867 0
M  V30 5497 H 511.453 1.43297 -2.56599 0
M  V30 5498 H 508.967 0.702443 -1.46422 0
M  V30 5499 H 510.964 3.76926 -1.78136 0
M  V30 5500 H 509.624 3.152 -0.77967 0
M  V30 5501 H 510.635 2.65963 -4.44392 0
M  V30 5502 H 507.312 3.63452 -2.05448 0
M  V30 5503 H 508.702 2.94856 -6.03746 0
M  V30 5504 N 511.423 1.38739 0.74761 0
M  V30 5505 C 512.839 1.20067 1.05148 0
M  V30 5506 C 513.039 0.0534835 2.01429 0
M  V30 5507 O 512.095 -0.59886 2.45296 0
M  V30 5508 C 513.408 2.52957 1.62584 0
M  V30 5509 C 514.956 2.59692 1.74726 0
M  V30 5510 C 515.431 3.92772 2.35573 0
M  V30 5511 N 516.922 3.94343 2.42997 0
M  V30 5512 C 517.657 4.9408 2.90985 0
M  V30 5513 N 517.153 6.04214 3.38965 0
M  V30 5514 N 518.946 4.81466 2.9008 0
M  V30 5515 H 511.097 2.12121 0.108808 0
M  V30 5516 H 513.36 0.941491 0.110899 0
M  V30 5517 H 513.066 3.37389 0.993051 0
M  V30 5518 H 512.94 2.71779 2.61565 0
M  V30 5519 H 515.327 1.75651 2.3713 0
M  V30 5520 H 515.408 2.44731 0.744326 0
M  V30 5521 H 515.052 4.77238 1.738 0
M  V30 5522 H 514.982 4.05046 3.36519 0
M  V30 5523 H 517.473 3.14799 2.0907 0
M  V30 5524 H 517.786 6.76241 3.74056 0
M  V30 5525 H 516.131 6.07825 3.37007 0
M  V30 5526 H 519.322 3.94535 2.51912 0
M  V30 5527 H 519.495 5.59344 3.27166 0
M  V30 5528 N 512.901 -0.976442 1.23707 0
M  V30 5529 C 514.148 -1.71827 1.07153 0
M  V30 5530 C 514.476 -1.9053 -0.390982 0
M  V30 5531 O 513.731 -1.45779 -1.30564 0
M  V30 5532 C 514.03 -3.11814 1.74662 0
M  V30 5533 C 513.696 -3.12978 3.24585 0
M  V30 5534 C 512.358 -3.13003 3.6549 0
M  V30 5535 C 514.71 -3.07986 4.20469 0
M  V30 5536 C 512.038 -3.05757 5.00729 0
M  V30 5537 C 514.39 -3.02282 5.55705 0
M  V30 5538 C 513.054 -3.00631 5.95968 0
M  V30 5539 H 512.324 -0.628758 0.392102 0
M  V30 5540 H 514.971 -1.14239 1.53693 0
M  V30 5541 H 513.276 -3.72812 1.20492 0
M  V30 5542 H 514.973 -3.67989 1.59328 0
M  V30 5543 H 511.563 -3.13718 2.92026 0
M  V30 5544 H 515.747 -3.07103 3.89874 0
M  V30 5545 H 511.003 -3.02834 5.31132 0
M  V30 5546 H 515.177 -2.97376 6.29714 0
M  V30 5547 H 512.804 -2.94771 7.00724 0
M  V30 5548 N 514.379 -1.04941 -1.1758 0
M  V30 5549 C 515.342 -0.652456 -2.19717 0
M  V30 5550 C 516.342 0.294745 -1.58076 0
M  V30 5551 O 517.532 0.0789579 -1.74021 0
M  V30 5552 C 514.664 0.0420712 -3.40874 0
M  V30 5553 H 515.857 -1.55642 -2.5635 0
M  V30 5554 H 513.41 -0.842995 -1.31618 0
M  V30 5555 H 514.145 0.95943 -3.09783 0
M  V30 5556 H 513.93 -0.638844 -3.86861 0
M  V30 5557 H 515.42 0.306 -4.16477 0
M  V30 5558 N 515.857 1.33968 -0.830081 0
M  V30 5559 C 516.82 2.27694 -0.26235 0
M  V30 5560 C 517.82 1.50589 0.563876 0
M  V30 5561 O 519.01 1.70028 0.378941 0
M  V30 5562 C 516.142 3.35002 0.63138 0
M  V30 5563 H 517.335 2.79419 -1.08928 0
M  V30 5564 H 514.888 1.44221 -0.602486 0
M  V30 5565 H 515.623 2.88504 1.48109 0
M  V30 5566 H 515.408 3.92079 0.0403276 0
M  V30 5567 H 516.898 4.04897 1.02217 0
M  V30 5568 N 517.335 0.585699 1.46312 0
M  V30 5569 C 518.565 0.0780166 2.06453 0
M  V30 5570 C 518.973 -1.2336 1.43454 0
M  V30 5571 O 518.316 -1.75734 0.535086 0
M  V30 5572 C 518.378 -0.158951 3.59148 0
M  V30 5573 C 518.042 1.06752 4.44357 0
M  V30 5574 C 519.039 1.98031 4.80708 0
M  V30 5575 C 516.724 1.2902 4.85447 0
M  V30 5576 C 518.718 3.09924 5.5698 0
M  V30 5577 C 516.405 2.41218 5.61478 0
M  V30 5578 C 517.403 3.31499 5.97158 0
M  V30 5579 O 517.091 4.41747 6.71651 0
M  V30 5580 H 516.823 0.0558894 0.673686 0
M  V30 5581 H 519.377 0.806994 1.88883 0
M  V30 5582 H 517.607 -0.942575 3.75037 0
M  V30 5583 H 519.296 -0.615513 4.01206 0
M  V30 5584 H 520.062 1.82043 4.49539 0
M  V30 5585 H 515.941 0.596567 4.57124 0
M  V30 5586 H 519.485 3.80415 5.84748 0
M  V30 5587 H 515.382 2.57167 5.9206 0
M  V30 5588 H 516.15 4.40152 6.90079 0
M  V30 5589 N 518.813 -1.54241 0.323641 0
M  V30 5590 C 520.06 -2.0057 -0.27891 0
M  V30 5591 C 520.388 -1.21181 -1.52136 0
M  V30 5592 O 519.643 -0.282043 -1.93657 0
M  V30 5593 C 519.942 -3.5129 -0.658031 0
M  V30 5594 C 519.608 -4.48281 0.485252 0
M  V30 5595 C 518.27 -4.74519 0.799055 0
M  V30 5596 C 520.622 -5.05909 1.25322 0
M  V30 5597 C 517.95 -5.55643 1.88354 0
M  V30 5598 C 520.302 -5.88215 2.32779 0
M  V30 5599 C 518.966 -6.12755 2.64741 0
M  V30 5600 H 518.236 -0.733938 -0.10206 0
M  V30 5601 H 520.883 -1.862 0.447435 0
M  V30 5602 H 519.188 -3.63388 -1.4648 0
M  V30 5603 H 520.885 -3.84578 -1.1358 0
M  V30 5604 H 517.475 -4.27979 0.230593 0
M  V30 5605 H 521.659 -4.8562 1.02404 0
M  V30 5606 H 516.915 -5.72888 2.13564 0
M  V30 5607 H 521.089 -6.31888 2.92729 0
M  V30 5608 H 518.716 -6.75404 3.48904 0
M  V30 5609 N 520.291 -0.0518155 -1.57515 0
M  V30 5610 C 521.223 0.951542 -2.08515 0
M  V30 5611 C 522.236 1.27436 -1.01311 0
M  V30 5612 O 523.425 1.23504 -1.28876 0
M  V30 5613 C 520.525 2.27291 -2.5138 0
M  V30 5614 C 519.698 2.13191 -3.81927 0
M  V30 5615 C 518.757 3.28458 -4.11098 0
M  V30 5616 O 517.783 3.04334 -4.81009 0
M  V30 5617 N 518.985 4.52954 -3.63061 0
M  V30 5618 H 521.75 0.516242 -2.9522 0
M  V30 5619 H 519.311 0.13441 -1.61341 0
M  V30 5620 H 521.303 3.03272 -2.67971 0
M  V30 5621 H 519.873 2.62386 -1.69919 0
M  V30 5622 H 519.093 1.21798 -3.74912 0
M  V30 5623 H 520.381 2.00999 -4.67415 0
M  V30 5624 H 519.779 4.75444 -3.06545 0
M  V30 5625 H 518.336 5.26026 -3.84889 0
M  V30 5626 N 521.769 1.56035 0.221574 0
M  V30 5627 C 522.701 1.889 1.29805 0
M  V30 5628 C 523.714 0.777269 1.43047 0
M  V30 5629 O 524.903 1.05557 1.43945 0
M  V30 5630 C 522.003 2.0825 2.67367 0
M  V30 5631 C 521.176 3.39267 2.76073 0
M  V30 5632 C 520.235 3.48049 3.94649 0
M  V30 5633 O 519.261 4.2108 3.82988 0
M  V30 5634 N 520.463 2.79191 5.08953 0
M  V30 5635 H 523.228 2.81831 1.01938 0
M  V30 5636 H 520.789 1.5658 0.411612 0
M  V30 5637 H 522.781 2.11441 3.45072 0
M  V30 5638 H 521.351 1.21944 2.87834 0
M  V30 5639 H 520.571 3.48175 1.84846 0
M  V30 5640 H 521.859 4.25575 2.7886 0
M  V30 5641 H 521.257 2.19635 5.21322 0
M  V30 5642 H 519.814 2.88043 5.84701 0
M  V30 5643 N 523.247 -0.488276 1.49845 0
M  V30 5644 C 524.495 -1.23911 1.59657 0
M  V30 5645 C 524.816 -1.92816 0.291005 0
M  V30 5646 O 524.086 -1.83328 -0.690485 0
M  V30 5647 H 522.666 -0.460357 0.588286 0
M  V30 5648 H 525.328 -0.564794 1.86537 0
M  V30 5649 H 524.424 -1.99625 2.39909 0
M  V30 5650 N 524.725 -1.39134 -0.740242 0
M  V30 5651 C 526.002 -1.26584 -1.49117 0
M  V30 5652 C 526.382 0.126902 -2.10718 0
M  V30 5653 O 525.73 1.13765 -1.98166 0
M  V30 5654 C 525.94 -2.38619 -2.54681 0
M  V30 5655 C 527.288 -2.77685 -3.21211 0
M  V30 5656 O 528.312 -2.38029 -2.64991 0
M  V30 5657 O 527.171 -3.46115 -4.22926 0
M  V30 5658 H 524.265 -0.495769 -0.661923 0
M  V30 5659 H 526.811 -1.50995 -0.774514 0
M  V30 5660 H 525.583 -3.3175 -2.07504 0
M  V30 5661 H 525.206 -2.15845 -3.33911 0
M  V30 5662 N 526.204 0.969867 -1.24223 0
M  V30 5663 C 527.137 2.06279 -0.975926 0
M  V30 5664 C 528.115 1.62353 0.0895385 0
M  V30 5665 O 529.299 1.88442 -0.0469418 0
M  V30 5666 C 526.426 3.35391 -0.472315 0
M  V30 5667 C 525.472 3.98266 -1.526 0
M  V30 5668 S 526.305 4.36172 -3.10667 0
M  V30 5669 C 527.461 5.68423 -2.62003 0
M  V30 5670 H 527.694 2.28551 -1.90137 0
M  V30 5671 H 525.227 1.10748 -1.07584 0
M  V30 5672 H 527.185 4.10068 -0.188376 0
M  V30 5673 H 525.846 3.1111 0.432378 0
M  V30 5674 H 525.039 4.91307 -1.12399 0
M  V30 5675 H 524.641 3.30009 -1.75983 0
M  V30 5676 H 526.933 6.45842 -2.0468 0
M  V30 5677 H 527.876 6.13478 -3.53625 0
M  V30 5678 H 528.284 5.26928 -2.02502 0
M  V30 5679 N 527.682 1.05563 1.17022 0
M  V30 5680 C 528.592 0.670758 2.24807 0
M  V30 5681 C 529.608 -0.309865 1.71219 0
M  V30 5682 O 530.784 -0.161025 2.00755 0
M  V30 5683 C 527.849 0.055337 3.46656 0
M  V30 5684 C 526.91 1.08688 4.15314 0
M  V30 5685 C 526.143 0.500736 5.31346 0
M  V30 5686 O 526.366 -0.688718 5.66227 0
M  V30 5687 O 525.3 1.23683 5.89055 0
M  V30 5688 H 529.126 1.56914 2.60023 0
M  V30 5689 H 526.711 0.827428 1.24395 0
M  V30 5690 H 528.593 -0.286492 4.20425 0
M  V30 5691 H 527.268 -0.816638 3.13229 0
M  V30 5692 H 526.175 1.48077 3.43546 0
M  V30 5693 H 527.508 1.93014 4.52777 0
M  V30 5694 N 529.16 -1.33526 0.837174 0
M  V30 5695 C 530.385 -2.0258 0.444545 0
M  V30 5696 C 530.81 -1.6258 -0.946006 0
M  V30 5697 O 530.168 -0.817548 -1.6182 0
M  V30 5698 C 530.216 -3.5605 0.571006 0
M  V30 5699 O 529.32 -4.10422 -0.403431 0
M  V30 5700 H 528.661 -0.638866 0.180958 0
M  V30 5701 H 531.191 -1.70462 1.13154 0
M  V30 5702 H 531.201 -4.05488 0.452024 0
M  V30 5703 H 529.876 -3.84509 1.58512 0
M  V30 5704 H 528.453 -3.72113 -0.242147 0
M  V30 5705 N 530.638 -0.59345 -1.46 0
M  V30 5706 C 531.586 0.146268 -2.3214 0
M  V30 5707 C 532.58 0.873743 -1.45128 0
M  V30 5708 O 533.786 0.790912 -1.61693 0
M  V30 5709 H 530.161 0.0660349 -0.749095 0
M  V30 5710 H 532.132 -0.598895 -2.92328 0
M  V30 5711 C 530.881 1.1396 -3.28494 0
M  V30 5712 H 530.204 0.589252 -3.95434 0
M  V30 5713 H 531.644 1.62738 -3.91526 0
M  V30 5714 C 530.103 2.20604 -2.54628 0
M  V30 5715 O 530.633 3.28128 -2.31722 0
M  V30 5716 N 528.839 1.95502 -2.15005 0
M  V30 5717 H 528.386 1.0807 -2.33834 0
M  V30 5718 H 528.344 2.67064 -1.65904 0
M  V30 5719 N 532.116 1.54067 -0.331816 0
M  V30 5720 C 533.364 2.00319 0.267739 0
M  V30 5721 C 533.685 1.22148 1.52003 0
M  V30 5722 O 532.955 0.325494 1.93177 0
M  V30 5723 H 531.535 0.740014 0.101922 0
M  V30 5724 H 534.197 1.89628 -0.450267 0
M  V30 5725 H 533.293 3.07765 0.518385 0
M  V30 5726 N 533.594 0.0601682 1.57485 0
M  V30 5727 C 534.541 -0.91112 2.12055 0
M  V30 5728 C 535.511 -1.30298 1.03013 0
M  V30 5729 O 536.696 -1.39087 1.30612 0
M  V30 5730 C 533.836 -2.1775 2.67729 0
M  V30 5731 C 532.949 -1.83933 3.90887 0
M  V30 5732 C 532.084 -3.05096 4.34845 0
M  V30 5733 C 531.123 -2.67241 5.5068 0
M  V30 5734 N 530.26 -3.81127 5.8965 0
M  V30 5735 H 535.1 -0.43888 2.9475 0
M  V30 5736 H 532.637 -0.204995 1.45665 0
M  V30 5737 H 534.595 -2.91866 2.98111 0
M  V30 5738 H 533.225 -2.62535 1.87816 0
M  V30 5739 H 532.277 -0.999287 3.6704 0
M  V30 5740 H 533.589 -1.52074 4.75052 0
M  V30 5741 H 532.743 -3.87502 4.66827 0
M  V30 5742 H 531.482 -3.40139 3.49509 0
M  V30 5743 H 530.487 -1.83254 5.18361 0
M  V30 5744 H 531.712 -2.3338 6.37738 0
M  V30 5745 H 529.658 -4.15954 5.07266 0
M  V30 5746 H 529.575 -3.52997 6.68528 0
M  V30 5747 H 530.843 -4.64145 6.2625 0
M  V30 5748 N 535.072 -1.5615 -0.213296 0
M  V30 5749 C 536.302 -1.83372 -0.951757 0
M  V30 5750 C 536.71 -0.638158 -1.78113 0
M  V30 5751 O 536.053 0.402609 -1.79234 0
M  V30 5752 C 536.115 -3.04444 -1.91192 0
M  V30 5753 C 535.779 -4.39107 -1.26627 0
M  V30 5754 C 536.776 -5.15794 -0.652087 0
M  V30 5755 C 534.461 -4.85834 -1.27556 0
M  V30 5756 C 536.455 -6.37376 -0.055814 0
M  V30 5757 C 534.142 -6.07356 -0.675451 0
M  V30 5758 C 535.14 -6.82967 -0.0666367 0
M  V30 5759 O 534.828 -8.0219 0.524119 0
M  V30 5760 H 534.56 -0.613398 -0.284111 0
M  V30 5761 H 537.114 -2.04096 -0.231112 0
M  V30 5762 H 535.344 -2.79559 -2.67178 0
M  V30 5763 H 537.033 -3.18466 -2.51662 0
M  V30 5764 H 537.799 -4.80796 -0.637172 0
M  V30 5765 H 533.678 -4.26949 -1.73883 0
M  V30 5766 H 537.222 -6.96334 0.420004 0
M  V30 5767 H 533.119 -6.41825 -0.687806 0
M  V30 5768 H 533.887 -8.17426 0.419243 0
M  V30 5769 N 536.55 0.480323 -1.50102 0
M  V30 5770 C 537.799 1.22979 -1.59872 0
M  V30 5771 C 538.112 1.93282 -0.30022 0
M  V30 5772 O 539.318 2.70086 -0.276709 0
M  V30 5773 C 537.774 2.23408 -2.82164 0
M  V30 5774 C 537.382 1.5895 -4.18854 0
M  V30 5775 C 539.126 2.99055 -3.01275 0
M  V30 5776 C 537.033 2.57611 -5.32344 0
M  V30 5777 H 535.963 0.462707 -0.59533 0
M  V30 5778 H 538.614 0.501291 -1.7652 0
M  V30 5779 H 536.996 2.99511 -2.59055 0
M  V30 5780 H 538.17 0.887 -4.52182 0
M  V30 5781 H 536.485 0.956191 -4.05273 0
M  V30 5782 H 539.082 3.72876 -3.83233 0
M  V30 5783 H 539.425 3.57897 -2.12639 0
M  V30 5784 H 539.958 2.30066 -3.24522 0
M  V30 5785 H 536.697 2.03521 -6.23105 0
M  V30 5786 H 536.217 3.26041 -5.03445 0
M  V30 5787 H 537.896 3.19627 -5.62537 0
M  V30 5788 N 538.028 1.39524 0.732853 0
M  V30 5789 C 539.256 1.40143 1.52209 0
M  V30 5790 C 539.671 -0.00348836 1.888 0
M  V30 5791 O 539.028 -0.975357 1.5425 0
M  V30 5792 C 539.079 2.27632 2.8083 0
M  V30 5793 O 538.8 3.62654 2.45792 0
M  V30 5794 C 540.301 2.36658 3.74844 0
M  V30 5795 H 537.521 0.478604 0.470297 0
M  V30 5796 H 540.065 1.83366 0.905388 0
M  V30 5797 H 538.22 1.87818 3.38826 0
M  V30 5798 H 538.634 4.08941 3.28431 0
M  V30 5799 H 540.108 3.02118 4.61984 0
M  V30 5800 H 540.585 1.38638 4.16745 0
M  V30 5801 H 541.191 2.76951 3.22766 0
M  V30 5802 N 539.506 -0.963266 1.24736 0
M  V30 5803 C 540.453 -2.05857 1.04363 0
M  V30 5804 C 541.423 -1.6604 -0.0444951 0
M  V30 5805 O 542.608 -1.90477 0.110999 0
M  V30 5806 C 539.748 -3.38745 0.659235 0
M  V30 5807 C 538.861 -3.9173 1.82131 0
M  V30 5808 C 537.996 -5.12906 1.38208 0
M  V30 5809 C 537.035 -5.58098 2.51382 0
M  V30 5810 N 536.172 -6.7049 2.08295 0
M  V30 5811 H 541.012 -2.22616 1.98107 0
M  V30 5812 H 538.549 -1.09103 0.986661 0
M  V30 5813 H 540.507 -4.15107 0.417371 0
M  V30 5814 H 539.137 -3.21898 -0.241201 0
M  V30 5815 H 538.189 -3.11966 2.17672 0
M  V30 5816 H 539.501 -4.21225 2.67153 0
M  V30 5817 H 538.655 -5.96657 1.09935 0
M  V30 5818 H 537.394 -4.85105 0.502456 0
M  V30 5819 H 536.399 -4.72917 2.80409 0
M  V30 5820 H 537.624 -5.87911 3.39909 0
M  V30 5821 H 535.57 -6.44416 1.22737 0
M  V30 5822 H 535.487 -6.99458 2.86869 0
M  V30 5823 H 536.755 -7.57672 1.83175 0
M  V30 5824 N 540.985 -1.06182 -1.16461 0
M  V30 5825 C 542.21 -0.798599 -1.91408 0
M  V30 5826 C 542.635 0.640987 -1.76842 0
M  V30 5827 O 541.993 1.44652 -1.09296 0
M  V30 5828 C 542.041 -1.19665 -3.40165 0
M  V30 5829 O 541.145 -0.334768 -4.11039 0
M  V30 5830 H 540.486 -0.291961 -0.596368 0
M  V30 5831 H 543.016 -1.41732 -1.47557 0
M  V30 5832 H 543.026 -1.16772 -3.90933 0
M  V30 5833 H 541.701 -2.24526 -3.50087 0
M  V30 5834 H 540.278 -0.425168 -3.70468 0
M  V30 5835 N 542.463 1.3308 -0.844243 0
M  V30 5836 C 543.711 1.97215 -0.441676 0
M  V30 5837 C 544.032 1.67185 1.0037 0
M  V30 5838 O 543.302 0.973588 1.69994 0
M  V30 5839 H 541.882 0.72959 -0.160335 0
M  V30 5840 H 544.544 1.62348 -1.07838 0
M  V30 5841 H 543.64 3.06698 -0.57815 0
M  V30 5842 N 543.941 0.601185 1.45683 0
M  V30 5843 C 545.169 0.100054 2.06658 0
M  V30 5844 C 545.584 -1.21285 1.44691 0
M  V30 5845 O 544.941 -1.73735 0.558772 0
M  V30 5846 C 544.992 -0.0528579 3.61461 0
M  V30 5847 O 544.713 1.20809 4.21114 0
M  V30 5848 C 546.214 -0.586193 4.39407 0
M  V30 5849 H 543.434 0.065905 0.667756 0
M  V30 5850 H 545.978 0.827101 1.87028 0
M  V30 5851 H 544.133 -0.730203 3.80456 0
M  V30 5852 H 544.547 1.03368 5.14213 0
M  V30 5853 H 546.021 -0.642297 5.4825 0
M  V30 5854 H 546.498 -1.60713 4.0874 0
M  V30 5855 H 547.104 0.0568935 4.25262 0
M  V30 5856 N 545.419 -1.53889 0.339982 0
M  V30 5857 C 546.835 -1.59595 -0.0120752 0
M  V30 5858 C 547.035 -1.35605 -1.49042 0
M  V30 5859 O 546.091 -1.14856 -2.24865 0
M  V30 5860 C 547.404 -2.9774 0.420898 0
M  V30 5861 C 548.952 -3.1077 0.37294 0
M  V30 5862 C 549.427 -4.51286 0.781327 0
M  V30 5863 N 550.918 -4.57325 0.735374 0
M  V30 5864 C 551.653 -5.64194 1.02336 0
M  V30 5865 N 551.149 -6.7893 1.37933 0
M  V30 5866 N 552.942 -5.54051 0.947838 0
M  V30 5867 H 545.093 -1.67738 1.30299 0
M  V30 5868 H 547.356 -0.785385 0.530918 0
M  V30 5869 H 547.062 -3.20349 1.45152 0
M  V30 5870 H 546.936 -3.76639 -0.205721 0
M  V30 5871 H 549.323 -2.87886 -0.648505 0
M  V30 5872 H 549.404 -2.33939 1.03472 0
M  V30 5873 H 549.048 -4.74905 1.80077 0
M  V30 5874 H 548.978 -5.26511 0.0970679 0
M  V30 5875 H 551.469 -3.74931 0.472773 0
M  V30 5876 H 551.782 -7.56392 1.58402 0
M  V30 5877 H 550.127 -6.80386 1.41774 0
M  V30 5878 H 553.318 -4.63293 0.669115 0
M  V30 5879 H 553.491 -6.37246 1.17563 0
M  V30 5880 N 546.897 -0.0685191 -1.57451 0
M  V30 5881 C 548.143 0.602239 -1.93652 0
M  V30 5882 C 548.476 1.6946 -0.948526 0
M  V30 5883 O 547.751 1.94487 0.022782 0
M  V30 5884 C 548.034 1.18223 -3.4014 0
M  V30 5885 C 547.887 0.0967431 -4.49696 0
M  V30 5886 C 549.206 2.08872 -3.87377 0
M  V30 5887 H 546.325 0.217453 -0.70419 0
M  V30 5888 H 548.967 -0.133821 -1.89528 0
M  V30 5889 H 547.117 1.80953 -3.43785 0
M  V30 5890 H 548.789 -0.536155 -4.58174 0
M  V30 5891 H 547.032 -0.573063 -4.29998 0
M  V30 5892 H 547.703 0.542894 -5.49324 0
M  V30 5893 H 550.179 1.56081 -3.85717 0
M  V30 5894 H 549.055 2.46389 -4.90493 0
M  V30 5895 H 549.316 2.99572 -3.25129 0
M  V30 5896 N 548.375 1.56261 0.205012 0
M  V30 5897 C 549.652 1.70856 0.952233 0
M  V30 5898 C 550.032 0.620501 2.01775 0
M  V30 5899 O 549.38 -0.370035 2.25484 0
M  V30 5900 C 549.59 3.12807 1.54767 0
M  V30 5901 C 550.938 3.72733 2.0336 0
M  V30 5902 O 551.962 3.15873 1.64629 0
M  V30 5903 O 550.821 4.72501 2.746 0
M  V30 5904 H 547.915 0.696496 0.445895 0
M  V30 5905 H 550.461 1.6857 0.195489 0
M  V30 5906 H 549.233 3.83465 0.779132 0
M  V30 5907 H 548.856 3.1928 2.36951 0
M  V30 5908 N 549.853 -0.472356 1.50355 0
M  V30 5909 C 550.803 -1.56809 1.65514 0
M  V30 5910 C 551.787 -1.5261 0.509801 0
M  V30 5911 O 552.979 -1.59655 0.764145 0
M  V30 5912 C 550.108 -2.9526 1.75146 0
M  V30 5913 C 549.194 -3.04348 2.95353 0
M  V30 5914 N 549.585 -2.83253 4.19048 0
M  V30 5915 C 547.883 -3.35482 2.93884 0
M  V30 5916 C 548.584 -2.97273 5.00003 0
M  V30 5917 N 547.56 -3.27418 4.33934 0
M  V30 5918 H 551.362 -1.39197 2.58846 0
M  V30 5919 H 548.876 -0.67906 1.47521 0
M  V30 5920 H 550.873 -3.74044 1.8411 0
M  V30 5921 H 549.533 -3.1392 0.829717 0
M  V30 5922 H 550.544 -2.5886 4.48567 0
M  V30 5923 H 547.221 -3.60138 2.11204 0
M  V30 5924 H 548.611 -2.85214 6.08361 0
M  V30 5925 N 551.331 -1.39911 -0.725443 0
M  V30 5926 C 552.263 -1.35301 -1.85003 0
M  V30 5927 C 553.276 -0.260102 -1.60709 0
M  V30 5928 O 554.465 -0.519749 -1.70766 0
M  V30 5929 C 551.565 -1.08039 -3.21218 0
M  V30 5930 C 550.738 -2.28793 -3.7279 0
M  V30 5931 C 549.797 -1.97841 -4.87591 0
M  V30 5932 O 548.823 -2.70616 -5.00755 0
M  V30 5933 N 550.025 -0.950367 -5.72668 0
M  V30 5934 H 552.79 -2.32218 -1.89459 0
M  V30 5935 H 550.351 -1.34137 -0.90658 0
M  V30 5936 H 552.343 -0.853354 -3.95601 0
M  V30 5937 H 550.913 -0.198229 -3.11971 0
M  V30 5938 H 550.133 -2.67388 -2.8965 0
M  V30 5939 H 551.421 -3.09317 -4.03981 0
M  V30 5940 H 550.819 -0.347436 -5.64632 0
M  V30 5941 H 549.376 -0.783232 -6.47077 0
M  V30 5942 N 552.809 0.956637 -1.25245 0
M  V30 5943 C 554.037 1.73571 -1.12608 0
M  V30 5944 C 554.452 1.86063 0.320324 0
M  V30 5945 O 553.809 1.35691 1.22042 0
M  V30 5946 C 553.86 3.15053 -1.77268 0
M  V30 5947 O 553.581 3.03174 -3.16255 0
M  V30 5948 C 555.082 4.09248 -1.70386 0
M  V30 5949 H 552.302 0.543955 -0.392879 0
M  V30 5950 H 554.846 1.20031 -1.65568 0
M  V30 5951 H 553.001 3.65543 -1.28284 0
M  V30 5952 H 553.415 3.9241 -3.48015 0
M  V30 5953 H 554.889 5.06138 -2.20291 0
M  V30 5954 H 555.366 4.34102 -0.667239 0
M  V30 5955 H 555.972 3.64672 -2.18849 0
M  V30 5956 N 554.287 1.06798 1.15896 0
M  V30 5957 C 555.535 0.786211 1.8618 0
M  V30 5958 C 555.856 -0.689547 1.82401 0
M  V30 5959 O 555.126 -1.49913 1.26107 0
M  V30 5960 H 553.706 0.287843 0.689315 0
M  V30 5961 H 556.368 1.35055 1.40521 0
M  V30 5962 H 555.464 1.1157 2.91477 0
M  V30 5963 N 555.766 -1.3263 0.851289 0
M  V30 5964 C 557.177 -1.79653 0.5081 0
M  V30 5965 C 557.528 -1.70327 -0.973815 0
M  V30 5966 O 556.653 -1.25986 -1.75944 0
M  V30 5967 C 557.248 -3.26196 0.915515 0
M  V30 5968 C 555.807 -3.71187 0.624277 0
M  V30 5969 C 554.954 -2.53804 1.11709 0
M  V30 5970 H 557.905 -1.19976 1.03882 0
M  V30 5971 H 557.926 -3.79801 0.230535 0
M  V30 5972 H 557.438 -3.32952 1.99411 0
M  V30 5973 H 555.539 -3.69948 -0.443737 0
M  V30 5974 H 555.652 -4.64132 1.18821 0
M  V30 5975 H 554.016 -2.48964 0.537484 0
M  V30 5976 H 554.799 -2.63315 2.20272 0
M  V30 5977 N 557.244 -0.608902 -1.45362 0
M  V30 5978 C 558.493 -0.10218 -2.01441 0
M  V30 5979 C 558.806 1.27546 -1.48295 0
M  V30 5980 O 560.012 1.87498 -1.96359 0
M  V30 5981 C 558.468 -0.131985 -3.59658 0
M  V30 5982 C 558.076 -1.50956 -4.21801 0
M  V30 5983 C 559.82 0.319427 -4.23296 0
M  V30 5984 C 557.727 -1.49568 -5.72174 0
M  V30 5985 H 556.657 -0.0344314 -0.753213 0
M  V30 5986 H 559.308 -0.764426 -1.6682 0
M  V30 5987 H 557.69 0.596939 -3.91475 0
M  V30 5988 H 558.864 -2.26029 -4.01556 0
M  V30 5989 H 557.179 -1.90318 -3.70362 0
M  V30 5990 H 559.776 0.349013 -5.3356 0
M  V30 5991 H 560.119 1.34237 -3.94064 0
M  V30 5992 H 560.652 -0.356273 -3.96201 0
M  V30 5993 H 557.391 -2.49626 -6.06108 0
M  V30 5994 H 556.911 -0.787542 -5.94607 0
M  V30 5995 H 558.59 -1.21989 -6.35396 0
M  V30 5996 N 558.722 1.53707 -0.348139 0
M  V30 5997 C 559.968 2.01286 0.247332 0
M  V30 5998 C 560.301 1.23546 1.49834 0
M  V30 5999 O 559.576 0.324331 1.91777 0
M  V30 6000 C 559.859 3.55768 0.556858 0
M  V30 6001 C 559.712 4.44216 -0.706564 0
M  V30 6002 C 561.031 4.1841 1.3646 0
M  V30 6003 H 558.15 0.731677 0.0884201 0
M  V30 6004 H 560.792 1.84106 -0.469584 0
M  V30 6005 H 558.942 3.70539 1.16761 0
M  V30 6006 H 560.614 4.41274 -1.34444 0
M  V30 6007 H 558.857 4.12892 -1.33052 0
M  V30 6008 H 559.528 5.50202 -0.445186 0
M  V30 6009 H 562.004 4.07365 0.848113 0
M  V30 6010 H 560.88 5.26563 1.54992 0
M  V30 6011 H 561.141 3.7333 2.36805 0
M  V30 6012 N 560.2 0.0768682 1.57412 0
M  V30 6013 C 561.446 -0.585926 1.94778 0
M  V30 6014 C 561.801 -1.66912 0.956982 0
M  V30 6015 O 561.094 -1.9159 -0.0199454 0
M  V30 6016 C 561.288 -1.20268 3.36557 0
M  V30 6017 C 561.117 -0.18076 4.49337 0
M  V30 6018 C 559.887 0.236362 5.04747 0
M  V30 6019 C 562.085 0.583978 5.10974 0
M  V30 6020 N 560.067 1.24846 6.01071 0
M  V30 6021 C 561.438 1.44841 6.02844 0
M  V30 6022 C 563.493 0.639492 4.93776 0
M  V30 6023 C 562.196 2.36343 6.79363 0
M  V30 6024 C 564.222 1.54204 5.70942 0
M  V30 6025 C 563.584 2.39414 6.62465 0
M  V30 6026 H 559.683 -0.185281 0.759734 0
M  V30 6027 H 562.267 0.155193 1.9408 0
M  V30 6028 H 560.438 -1.9137 3.37982 0
M  V30 6029 H 562.17 -1.82636 3.61146 0
M  V30 6030 H 558.925 -0.14777 4.73369 0
M  V30 6031 H 559.349 1.75217 6.53933 0
M  V30 6032 H 563.991 -0.00510074 4.228 0
M  V30 6033 H 561.709 3.01836 7.49614 0
M  V30 6034 H 565.295 1.5899 5.59655 0
M  V30 6035 H 564.175 3.0812 7.21132 0
M  V30 6036 N 561.678 -1.56367 -0.196722 0
M  V30 6037 C 562.926 -1.80172 -0.915554 0
M  V30 6038 C 563.247 -0.649649 -1.8386 0
M  V30 6039 O 562.517 0.332111 -1.93064 0
M  V30 6040 H 561.097 -0.664592 -0.341067 0
M  V30 6041 H 563.759 -1.93844 -0.202622 0
M  V30 6042 H 562.855 -2.7327 -1.50764 0
M  V30 6043 N 563.156 0.464375 -1.50603 0
M  V30 6044 C 564.066 1.58723 -1.72754 0
M  V30 6045 C 565.082 1.62925 -0.610844 0
M  V30 6046 O 566.258 1.8067 -0.889963 0
M  V30 6047 C 563.323 2.94897 -1.82309 0
M  V30 6048 C 562.384 3.0103 -3.06071 0
M  V30 6049 C 561.617 4.30708 -3.1516 0
M  V30 6050 O 561.84 5.2159 -2.30868 0
M  V30 6051 O 560.774 4.42571 -4.0794 0
M  V30 6052 H 564.6 1.42954 -2.67951 0
M  V30 6053 H 562.185 0.644579 -1.3478 0
M  V30 6054 H 564.067 3.75764 -1.90735 0
M  V30 6055 H 562.742 3.10851 -0.902967 0
M  V30 6056 H 561.649 2.19217 -3.03142 0
M  V30 6057 H 562.982 2.90014 -3.97684 0
M  V30 6058 N 564.634 1.40294 0.718013 0
M  V30 6059 C 566.045 1.34289 1.29705 0
M  V30 6060 C 566.396 0.0152228 1.96194 0
M  V30 6061 O 565.521 -0.88682 1.97394 0
M  V30 6062 C 566.116 2.43219 2.3586 0
M  V30 6063 C 564.675 2.40682 2.89394 0
M  V30 6064 C 563.822 2.24223 1.63154 0
M  V30 6065 H 566.773 1.50135 0.514312 0
M  V30 6066 H 566.794 2.10986 3.16647 0
M  V30 6067 H 566.306 3.39836 1.87439 0
M  V30 6068 H 564.407 1.47756 3.42051 0
M  V30 6069 H 564.52 3.36177 3.41353 0
M  V30 6070 H 562.884 1.71696 1.88129 0
M  V30 6071 H 563.667 3.22834 1.16761 0
M  V30 6072 N 566.112 -0.949982 1.2575 0
M  V30 6073 C 567.36 -1.6918 1.10555 0
M  V30 6074 C 567.681 -1.91773 -0.353298 0
M  V30 6075 O 566.951 -1.50814 -1.25027 0
M  V30 6076 H 565.531 -0.626952 0.406129 0
M  V30 6077 H 568.193 -1.1419 1.57945 0
M  V30 6078 H 567.289 -2.66915 1.61749 0
M  V30 6079 N 567.59 -1.07411 -1.15328 0
M  V30 6080 C 568.818 -0.818782 -1.90009 0
M  V30 6081 C 569.233 0.628072 -1.78047 0
M  V30 6082 O 568.59 1.43085 -1.13282 0
M  V30 6083 C 568.641 -1.21874 -3.40337 0
M  V30 6084 O 568.362 -2.60883 -3.51954 0
M  V30 6085 C 569.863 -0.992796 -4.3204 0
M  V30 6086 H 567.083 -0.296007 -0.60218 0
M  V30 6087 H 569.627 -1.43073 -1.46117 0
M  V30 6088 H 567.782 -0.651103 -3.81889 0
M  V30 6089 H 568.196 -2.77216 -4.45255 0
M  V30 6090 H 569.67 -1.32215 -5.35932 0
M  V30 6091 H 570.147 0.0708331 -4.39143 0
M  V30 6092 H 570.753 -1.54537 -3.9623 0
M  V30 6093 N 569.068 1.32177 -0.85831 0
M  V30 6094 C 570.016 2.30729 -0.294442 0
M  V30 6095 C 571.01 1.59009 0.584165 0
M  V30 6096 O 572.216 1.73713 0.471562 0
M  V30 6097 H 568.591 0.748097 -0.0765171 0
M  V30 6098 H 570.562 2.75774 -1.1398 0
M  V30 6099 C 569.311 3.44098 0.499208 0
M  V30 6100 H 568.634 3.99449 -0.167579 0
M  V30 6101 H 570.074 4.15202 0.859273 0
M  V30 6102 C 568.533 2.91684 1.68588 0
M  V30 6103 O 569.063 2.89481 2.78503 0
M  V30 6104 N 567.269 2.48036 1.51415 0
M  V30 6105 H 566.816 2.50027 0.620006 0
M  V30 6106 H 566.774 2.13322 2.30957 0
M  V30 6107 N 570.547 0.616602 1.45037 0
M  V30 6108 C 571.795 0.115103 2.01772 0
M  V30 6109 C 572.116 -1.2622 1.48639 0
M  V30 6110 O 571.386 -1.83563 0.684199 0
M  V30 6111 H 569.966 0.0395607 0.745952 0
M  V30 6112 H 572.628 0.800032 1.77723 0
M  V30 6113 H 571.724 0.0717274 3.12018 0
M  V30 6114 N 572.025 -1.5352 0.356285 0
M  V30 6115 C 572.957 -2.23009 -0.529127 0
M  V30 6116 C 573.97 -1.241 -1.05371 0
M  V30 6117 O 575.159 -1.50379 -0.961679 0
M  V30 6118 C 572.259 -2.90685 -1.74229 0
M  V30 6119 C 571.432 -4.16019 -1.35081 0
M  V30 6120 C 570.491 -4.66989 -2.42502 0
M  V30 6121 O 569.517 -5.30895 -2.05279 0
M  V30 6122 N 570.719 -4.44006 -3.7395 0
M  V30 6123 H 573.484 -2.99627 0.0660501 0
M  V30 6124 H 571.045 -1.60885 0.181014 0
M  V30 6125 H 573.037 -3.21695 -2.4555 0
M  V30 6126 H 571.607 -2.17575 -2.24454 0
M  V30 6127 H 570.827 -3.91414 -0.467833 0
M  V30 6128 H 572.115 -4.9752 -1.06542 0
M  V30 6129 H 571.513 -3.92924 -4.06973 0
M  V30 6130 H 570.07 -4.7959 -4.41403 0
M  V30 6131 N 573.503 -0.0852151 -1.57369 0
M  V30 6132 C 574.453 0.88767 -2.10011 0
M  V30 6133 C 575.437 1.25021 -1.01285 0
M  V30 6134 O 576.629 1.22694 -1.27574 0
M  V30 6135 C 573.758 2.15037 -2.67608 0
M  V30 6136 C 572.844 1.81371 -3.83361 0
M  V30 6137 N 573.235 1.18216 -4.91791 0
M  V30 6138 C 571.533 2.11041 -3.92909 0
M  V30 6139 C 572.234 1.02941 -5.72519 0
M  V30 6140 N 571.21 1.54351 -5.21226 0
M  V30 6141 H 575.012 0.395279 -2.9123 0
M  V30 6142 H 572.526 0.11829 -1.61969 0
M  V30 6143 H 574.523 2.85667 -3.03644 0
M  V30 6144 H 573.183 2.64851 -1.8784 0
M  V30 6145 H 574.194 0.850168 -5.10874 0
M  V30 6146 H 570.871 2.63138 -3.24136 0
M  V30 6147 H 572.261 0.536298 -6.69756 0
M  V30 6148 N 574.981 1.5647 0.188427 0
M  V30 6149 C 575.944 1.9421 1.21718 0
M  V30 6150 C 576.944 0.823901 1.38089 0
M  V30 6151 O 578.134 1.09122 1.35787 0
M  V30 6152 C 575.266 2.22197 2.58537 0
M  V30 6153 H 576.459 2.86252 0.894418 0
M  V30 6154 H 574.012 1.50263 0.430211 0
M  V30 6155 H 574.747 1.32814 2.95856 0
M  V30 6156 H 574.532 3.03688 2.48025 0
M  V30 6157 H 576.022 2.52376 3.3271 0
M  V30 6158 N 576.459 -0.456382 1.50847 0
M  V30 6159 C 577.706 -1.20736 1.62571 0
M  V30 6160 C 578.034 -1.9163 0.332904 0
M  V30 6161 O 577.289 -1.8343 -0.682058 0
M  V30 6162 C 577.588 -2.26336 2.76599 0
M  V30 6163 C 577.254 -1.7259 4.16562 0
M  V30 6164 C 575.916 -1.57654 4.54641 0
M  V30 6165 C 578.268 -1.32877 5.03977 0
M  V30 6166 C 575.596 -1.0145 5.77862 0
M  V30 6167 C 577.948 -0.7811 6.27759 0
M  V30 6168 C 576.612 -0.618488 6.64628 0
M  V30 6169 H 575.882 -0.441803 0.594888 0
M  V30 6170 H 578.529 -0.501169 1.84826 0
M  V30 6171 H 576.834 -3.0292 2.48489 0
M  V30 6172 H 578.531 -2.84227 2.82871 0
M  V30 6173 H 575.121 -1.85187 3.86528 0
M  V30 6174 H 579.305 -1.43245 4.75179 0
M  V30 6175 H 574.561 -0.876109 6.0509 0
M  V30 6176 H 578.735 -0.464783 6.94847 0
M  V30 6177 H 576.362 -0.180838 7.59985 0
M  V30 6178 N 577.937 -1.40673 -0.710563 0
M  V30 6179 C 579.167 -1.4234 -1.49742 0
M  V30 6180 C 579.575 -0.022821 -1.89186 0
M  V30 6181 O 578.918 0.964773 -1.56326 0
M  V30 6182 C 578.98 -2.25509 -2.79975 0
M  V30 6183 C 578.644 -3.73862 -2.62824 0
M  V30 6184 C 579.641 -4.66379 -2.29752 0
M  V30 6185 C 577.326 -4.17735 -2.78932 0
M  V30 6186 C 579.32 -6.00756 -2.13006 0
M  V30 6187 C 577.007 -5.5218 -2.61802 0
M  V30 6188 C 578.005 -6.43505 -2.28888 0
M  V30 6189 O 577.693 -7.75472 -2.11894 0
M  V30 6190 H 577.425 -0.487311 -0.468513 0
M  V30 6191 H 579.979 -1.8542 -0.883668 0
M  V30 6192 H 578.209 -1.77218 -3.43701 0
M  V30 6193 H 579.898 -2.19058 -3.41714 0
M  V30 6194 H 580.664 -4.33778 -2.16936 0
M  V30 6195 H 576.543 -3.46967 -3.03537 0
M  V30 6196 H 580.087 -6.72003 -1.87237 0
M  V30 6197 H 575.984 -5.84365 -2.74204 0
M  V30 6198 H 576.752 -7.86458 -2.26775 0
M  V30 6199 N 579.415 0.9433 -1.26252 0
M  V30 6200 C 580.347 2.04542 -1.03417 0
M  V30 6201 C 581.36 1.62799 0.0046911 0
M  V30 6202 O 582.549 1.76944 -0.235146 0
M  V30 6203 C 579.649 3.34511 -0.543671 0
M  V30 6204 C 578.822 4.05033 -1.65128 0
M  V30 6205 C 577.881 5.13273 -1.1592 0
M  V30 6206 O 576.907 5.38095 -1.85586 0
M  V30 6207 N 578.109 5.805 -0.00649279 0
M  V30 6208 H 580.874 2.24699 -1.98319 0
M  V30 6209 H 578.435 1.11264 -1.1761 0
M  V30 6210 H 580.427 4.04212 -0.198703 0
M  V30 6211 H 578.997 3.11042 0.311711 0
M  V30 6212 H 578.217 3.29275 -2.16729 0
M  V30 6213 H 579.505 4.48903 -2.39508 0
M  V30 6214 H 578.903 5.62767 0.575347 0
M  V30 6215 H 577.46 6.51201 0.279416 0
M  V30 6216 N 580.893 1.08022 1.14757 0
M  V30 6217 C 581.823 0.728248 2.21853 0
M  V30 6218 C 582.804 -0.287486 1.67653 0
M  V30 6219 O 583.989 -0.158727 1.9355 0
M  V30 6220 C 581.119 0.132549 3.47047 0
M  V30 6221 C 580.073 1.07619 4.14249 0
M  V30 6222 C 579.399 0.342907 5.33599 0
M  V30 6223 C 580.699 2.41268 4.63235 0
M  V30 6224 H 582.393 1.62365 2.51551 0
M  V30 6225 H 579.939 0.782125 1.20908 0
M  V30 6226 H 581.892 -0.125665 4.21213 0
M  V30 6227 H 580.616 -0.797971 3.16702 0
M  V30 6228 H 579.275 1.31944 3.42033 0
M  V30 6229 H 578.923 -0.59129 4.99513 0
M  V30 6230 H 578.623 0.971955 5.79506 0
M  V30 6231 H 580.147 0.0926538 6.1053 0
M  V30 6232 H 581.561 2.21232 5.28894 0
M  V30 6233 H 579.958 2.9983 5.19829 0
M  V30 6234 H 581.028 3.03079 3.78512 0
M  V30 6235 N 582.371 -1.3172 0.865308 0
M  V30 6236 C 583.62 -1.96145 0.470098 0
M  V30 6237 C 583.933 -1.69182 -0.981674 0
M  V30 6238 O 585.139 -2.27431 -1.48281 0
M  V30 6239 C 583.595 -3.51129 0.789732 0
M  V30 6240 C 583.203 -3.86938 2.25795 0
M  V30 6241 C 584.947 -4.2197 0.462765 0
M  V30 6242 C 582.854 -5.35012 2.52024 0
M  V30 6243 H 581.784 -0.734105 0.172065 0
M  V30 6244 H 584.435 -1.49959 1.05757 0
M  V30 6245 H 582.817 -3.95781 0.131571 0
M  V30 6246 H 583.991 -3.5326 2.95879 0
M  V30 6247 H 582.306 -3.29149 2.55049 0
M  V30 6248 H 584.903 -5.30904 0.636019 0
M  V30 6249 H 585.246 -4.12005 -0.59645 0
M  V30 6250 H 585.779 -3.82936 1.07727 0
M  V30 6251 H 582.518 -5.50008 3.56611 0
M  V30 6252 H 582.038 -5.70058 1.8653 0
M  V30 6253 H 583.717 -6.0222 2.36515 0
M  V30 6254 N 583.85 -0.624285 -1.44708 0
M  V30 6255 C 584.8 0.106466 -2.27751 0
M  V30 6256 C 585.784 0.822703 -1.38277 0
M  V30 6257 O 586.976 0.709939 -1.62138 0
M  V30 6258 C 584.105 1.092 -3.25469 0
M  V30 6259 C 583.191 0.375737 -4.22432 0
M  V30 6260 N 583.582 -0.591881 -5.02325 0
M  V30 6261 C 581.88 0.621093 -4.41654 0
M  V30 6262 C 582.581 -1.01443 -5.72786 0
M  V30 6263 N 581.557 -0.354651 -5.42442 0
M  V30 6264 H 585.359 -0.636464 -2.86926 0
M  V30 6265 H 582.873 -0.44925 -1.56062 0
M  V30 6266 H 584.87 1.63006 -3.83712 0
M  V30 6267 H 583.529 1.8353 -2.67856 0
M  V30 6268 H 584.541 -0.969389 -5.08747 0
M  V30 6269 H 581.218 1.34779 -3.95147 0
M  V30 6270 H 582.608 -1.81345 -6.46965 0
M  V30 6271 N 585.328 1.53329 -0.364422 0
M  V30 6272 C 586.26 2.23286 0.517293 0
M  V30 6273 C 587.273 1.24657 1.04711 0
M  V30 6274 O 588.462 1.50887 0.95369 0
M  V30 6275 C 585.562 2.91604 1.72685 0
M  V30 6276 C 584.735 4.1673 1.32873 0
M  V30 6277 C 583.794 4.68269 2.40022 0
M  V30 6278 O 582.82 5.31976 2.02461 0
M  V30 6279 N 584.022 4.45983 3.7159 0
M  V30 6280 H 586.787 2.99588 -0.0819391 0
M  V30 6281 H 584.348 1.60787 -0.189544 0
M  V30 6282 H 586.34 3.22992 2.4384 0
M  V30 6283 H 584.91 2.18763 2.23297 0
M  V30 6284 H 584.13 3.91657 0.447069 0
M  V30 6285 H 585.418 4.98078 1.03902 0
M  V30 6286 H 584.816 3.95077 4.04883 0
M  V30 6287 H 583.373 4.81924 4.38854 0
M  V30 6288 N 586.806 0.0935595 1.57322 0
M  V30 6289 C 588.054 -0.569383 1.93913 0
M  V30 6290 C 588.375 -1.68817 0.976009 0
M  V30 6291 O 587.645 -1.9588 0.0278099 0
M  V30 6292 H 586.225 -0.21332 0.715894 0
M  V30 6293 H 588.887 0.156531 1.9427 0
M  V30 6294 H 587.983 -0.980577 2.96296 0
M  V30 6295 N 588.284 -1.56567 -0.180126 0
M  V30 6296 C 589.512 -1.85618 -0.913972 0
M  V30 6297 C 589.927 -0.677892 -1.7621 0
M  V30 6298 O 589.284 0.353171 -1.7905 0
M  V30 6299 C 589.335 -3.13619 -1.79793 0
M  V30 6300 O 589.056 -4.26906 -0.98402 0
M  V30 6301 C 590.557 -3.55954 -2.64219 0
M  V30 6302 H 587.777 -0.616043 -0.265954 0
M  V30 6303 H 590.321 -2.03681 -0.182872 0
M  V30 6304 H 588.476 -2.97409 -2.48247 0
M  V30 6305 H 588.89 -4.9989 -1.58776 0
M  V30 6306 H 590.364 -4.48444 -3.21873 0
M  V30 6307 H 590.841 -2.79653 -3.38661 0
M  V30 6308 H 591.447 -3.74746 -2.01111 0
M  V30 6309 N 589.762 0.448376 -1.51087 0
M  V30 6310 C 590.709 1.54341 -1.71603 0
M  V30 6311 C 591.679 1.56463 -0.557536 0
M  V30 6312 O 592.864 1.73644 -0.79072 0
M  V30 6313 C 590.004 2.92148 -1.83695 0
M  V30 6314 C 589.117 2.99639 -3.11192 0
M  V30 6315 C 588.252 4.285 -3.13944 0
M  V30 6316 C 587.291 4.29819 -4.35801 0
M  V30 6317 N 586.428 5.50186 -4.36164 0
M  V30 6318 H 591.268 1.36151 -2.65079 0
M  V30 6319 H 588.805 0.661585 -1.31383 0
M  V30 6320 H 590.763 3.72093 -1.88687 0
M  V30 6321 H 589.393 3.0892 -0.936374 0
M  V30 6322 H 588.445 2.12425 -3.15562 0
M  V30 6323 H 589.757 2.96474 -4.01129 0
M  V30 6324 H 588.911 5.16811 -3.17791 0
M  V30 6325 H 587.65 4.34307 -2.21876 0
M  V30 6326 H 586.655 3.39902 -4.32142 0
M  V30 6327 H 587.88 4.25685 -5.29121 0
M  V30 6328 H 585.826 5.56735 -3.46961 0
M  V30 6329 H 585.743 5.48856 -5.19897 0
M  V30 6330 H 587.011 6.40559 -4.44189 0
M  V30 6331 N 591.24 1.41047 0.703093 0
M  V30 6332 C 592.173 1.36713 1.82715 0
M  V30 6333 C 593.151 0.235533 1.60885 0
M  V30 6334 O 594.335 0.421227 1.83733 0
M  V30 6335 C 591.462 1.13069 3.1927 0
M  V30 6336 C 590.508 2.28846 3.59905 0
M  V30 6337 S 591.341 3.91297 3.65578 0
M  V30 6338 C 592.497 3.69941 5.04871 0
M  V30 6339 H 592.73 2.31838 1.86114 0
M  V30 6340 H 590.263 1.27481 0.871083 0
M  V30 6341 H 592.221 1.00113 3.98105 0
M  V30 6342 H 590.882 0.195763 3.13489 0
M  V30 6343 H 590.075 2.07977 4.59088 0
M  V30 6344 H 589.677 2.3817 2.88359 0
M  V30 6345 H 591.969 3.29181 5.92154 0
M  V30 6346 H 592.912 4.68699 5.30779 0
M  V30 6347 H 593.32 3.03369 4.76054 0
M  V30 6348 N 592.718 -0.936591 1.26751 0
M  V30 6349 C 593.967 -1.67778 1.11953 0
M  V30 6350 C 594.28 -1.92694 -0.33589 0
M  V30 6351 O 595.486 -2.64682 -0.604618 0
M  V30 6352 C 593.942 -3.02138 1.95551 0
M  V30 6353 C 593.55 -2.84953 3.45696 0
M  V30 6354 C 595.294 -3.79917 1.89377 0
M  V30 6355 C 593.201 -4.14814 4.21525 0
M  V30 6356 H 592.131 -0.629275 0.415366 0
M  V30 6357 H 594.782 -1.04122 1.51099 0
M  V30 6358 H 593.164 -3.668 1.49243 0
M  V30 6359 H 594.338 -2.29112 3.99805 0
M  V30 6360 H 592.653 -2.20612 3.53156 0
M  V30 6361 H 595.25 -4.76134 2.43312 0
M  V30 6362 H 595.593 -4.07204 0.865464 0
M  V30 6363 H 596.126 -3.22037 2.33532 0
M  V30 6364 H 592.865 -3.92709 5.24843 0
M  V30 6365 H 592.385 -4.70352 3.72195 0
M  V30 6366 H 594.064 -4.83239 4.3022 0
M  V30 6367 N 594.196 -1.08629 -1.14182 0
M  V30 6368 C 595.607 -0.838003 -1.66836 0
M  V30 6369 C 595.958 0.634885 -1.85644 0
M  V30 6370 O 595.083 1.49008 -1.56926 0
M  V30 6371 C 595.678 -1.51465 -3.03058 0
M  V30 6372 C 594.237 -1.31355 -3.52736 0
M  V30 6373 C 593.384 -1.57599 -2.28162 0
M  V30 6374 H 596.335 -1.24656 -0.982165 0
M  V30 6375 H 596.356 -0.943134 -3.68626 0
M  V30 6376 H 595.868 -2.58661 -2.89337 0
M  V30 6377 H 593.969 -0.262384 -3.71675 0
M  V30 6378 H 594.082 -2.04275 -4.33369 0
M  V30 6379 H 592.446 -0.997659 -2.34348 0
M  V30 6380 H 593.229 -2.66006 -2.17015 0
M  V30 6381 N 595.674 1.31259 -0.872281 0
M  V30 6382 C 596.914 1.98418 -0.490894 0
M  V30 6383 C 597.278 1.67429 0.939755 0
M  V30 6384 O 598.479 2.27818 1.42661 0
M  V30 6385 C 596.75 3.49583 -0.743408 0
M  V30 6386 S 598.309 4.36359 -0.462226 0
M  V30 6387 H 595.127 0.687005 -0.183151 0
M  V30 6388 H 597.729 1.59619 -1.12881 0
M  V30 6389 H 596.433 3.69627 -1.78338 0
M  V30 6390 H 595.964 3.93291 -0.0925758 0
M  V30 6391 H 597.979 4.91173 0.704525 0
M  V30 6392 N 597.152 0.631951 1.44375 0
M  V30 6393 C 598.429 0.067646 1.95483 0
M  V30 6394 C 598.809 -1.40683 1.57389 0
M  V30 6395 O 598.157 -2.12167 0.848375 0
M  V30 6396 C 598.367 0.291392 3.47781 0
M  V30 6397 C 599.715 0.185028 4.24197 0
M  V30 6398 O 600.739 0.222803 3.55503 0
M  V30 6399 O 599.598 0.0906642 5.46425 0
M  V30 6400 H 596.692 -0.0218379 0.826712 0
M  V30 6401 H 599.238 0.703711 1.54421 0
M  V30 6402 H 598.01 1.31449 3.68561 0
M  V30 6403 H 597.633 -0.378772 3.95792 0
M  V30 6404 N 598.631 -1.53133 0.372548 0
M  V30 6405 C 599.878 -2.01356 -0.214959 0
M  V30 6406 C 600.206 -1.2596 -1.48204 0
M  V30 6407 O 599.461 -0.343511 -1.92662 0
M  V30 6408 C 599.76 -3.53206 -0.545938 0
M  V30 6409 C 599.426 -4.46511 0.627624 0
M  V30 6410 C 598.088 -4.71737 0.949615 0
M  V30 6411 C 600.44 -5.01666 1.41353 0
M  V30 6412 C 597.768 -5.4937 2.05936 0
M  V30 6413 C 600.12 -5.80511 2.51375 0
M  V30 6414 C 598.784 -6.04022 2.84101 0
M  V30 6415 H 598.054 -0.736813 -0.078659 0
M  V30 6416 H 600.701 -1.84682 0.506447 0
M  V30 6417 H 599.006 -3.67864 -1.34845 0
M  V30 6418 H 600.703 -3.87997 -1.01287 0
M  V30 6419 H 597.293 -4.27029 0.366635 0
M  V30 6420 H 601.477 -4.82117 1.17802 0
M  V30 6421 H 596.733 -5.65803 2.31682 0
M  V30 6422 H 600.907 -6.22255 3.12684 0
M  V30 6423 H 598.534 -6.63962 3.70214 0
M  V30 6424 N 600.109 -0.101901 -1.5727 0
M  V30 6425 C 601.039 0.851544 -2.17419 0
M  V30 6426 C 602.02 1.28942 -1.10941 0
M  V30 6427 O 603.205 1.35509 -1.39107 0
M  V30 6428 C 600.335 2.10816 -2.75996 0
M  V30 6429 C 599.289 1.80867 -3.87906 0
M  V30 6430 C 598.615 3.13413 -4.33216 0
M  V30 6431 C 599.915 1.0903 -5.10793 0
M  V30 6432 H 601.609 0.350381 -2.97343 0
M  V30 6433 H 599.155 0.16709 -1.43027 0
M  V30 6434 H 601.108 2.77959 -3.16729 0
M  V30 6435 H 599.832 2.63227 -1.93337 0
M  V30 6436 H 598.491 1.16119 -3.47724 0
M  V30 6437 H 598.139 3.63725 -3.47438 0
M  V30 6438 H 597.839 2.94155 -5.08671 0
M  V30 6439 H 599.363 3.81704 -4.76586 0
M  V30 6440 H 600.777 1.66295 -5.48652 0
M  V30 6441 H 599.174 0.99927 -5.91722 0
M  V30 6442 H 600.244 0.0741704 -4.84843 0
M  V30 6443 N 601.587 1.56661 0.17182 0
M  V30 6444 C 602.836 1.81158 0.886831 0
M  V30 6445 C 603.149 0.679072 1.83434 0
M  V30 6446 O 604.355 0.808964 2.59168 0
M  V30 6447 C 602.811 3.20999 1.6275 0
M  V30 6448 C 602.419 4.42117 0.723652 0
M  V30 6449 C 604.163 3.5479 2.33076 0
M  V30 6450 C 602.07 5.7298 1.46452 0
M  V30 6451 H 601 0.675543 0.334899 0
M  V30 6452 H 603.651 1.82967 0.139765 0
M  V30 6453 H 602.033 3.13506 2.4193 0
M  V30 6454 H 603.207 4.60789 -0.0311485 0
M  V30 6455 H 601.522 4.16197 0.130063 0
M  V30 6456 H 604.119 4.49806 2.89099 0
M  V30 6457 H 604.462 2.79646 3.08389 0
M  V30 6458 H 604.995 3.63834 1.6084 0
M  V30 6459 H 601.734 6.51152 0.753729 0
M  V30 6460 H 601.254 5.58285 2.19266 0
M  V30 6461 H 602.933 6.14916 2.01214 0
M  V30 6462 N 603.065 -0.440357 1.51323 0
M  V30 6463 C 604.476 -1.02032 1.56353 0
M  V30 6464 C 604.827 -1.92382 0.385197 0
M  V30 6465 O 603.952 -2.10583 -0.498373 0
M  V30 6466 C 604.547 -1.85723 2.83359 0
M  V30 6467 C 603.106 -2.38774 2.90971 0
M  V30 6468 C 602.253 -1.17908 2.50984 0
M  V30 6469 H 605.204 -0.221744 1.57143 0
M  V30 6470 H 605.225 -2.71141 2.66951 0
M  V30 6471 H 604.737 -1.19939 3.69102 0
M  V30 6472 H 602.838 -3.08021 2.09651 0
M  V30 6473 H 602.951 -2.71778 3.94555 0
M  V30 6474 H 601.315 -1.52347 2.04114 0
M  V30 6475 H 602.098 -0.537393 3.39068 0
M  V30 6476 N 604.543 -1.41418 -0.695603 0
M  V30 6477 C 605.789 -1.40982 -1.4578 0
M  V30 6478 C 606.122 -0.0187763 -1.94191 0
M  V30 6479 O 605.397 0.95346 -1.69527 0
M  V30 6480 C 605.68 -2.41657 -2.66972 0
M  V30 6481 C 605.533 -3.89869 -2.24327 0
M  V30 6482 C 606.852 -2.39589 -3.69168 0
M  V30 6483 H 603.971 -0.513405 -0.528757 0
M  V30 6484 H 606.613 -1.72693 -0.792275 0
M  V30 6485 H 604.763 -2.14746 -3.23754 0
M  V30 6486 H 606.435 -4.27683 -1.72872 0
M  V30 6487 H 604.678 -4.04737 -1.56111 0
M  V30 6488 H 605.349 -4.55857 -3.11285 0
M  V30 6489 H 607.825 -2.63471 -3.2206 0
M  V30 6490 H 606.701 -3.12044 -4.51575 0
M  V30 6491 H 606.962 -1.41447 -4.18862 0
M  V30 6492 N 606.021 0.929856 -1.27246 0
M  V30 6493 C 606.953 2.03434 -1.0558 0
M  V30 6494 C 607.966 1.62795 -0.0125762 0
M  V30 6495 O 609.155 1.76685 -0.2539 0
M  V30 6496 C 606.255 3.33915 -0.57912 0
M  V30 6497 C 605.428 4.03259 -1.69415 0
M  V30 6498 C 604.487 5.12014 -1.21357 0
M  V30 6499 O 603.513 5.36097 -1.91282 0
M  V30 6500 N 604.715 5.8046 -0.0680622 0
M  V30 6501 H 607.48 2.22583 -2.00691 0
M  V30 6502 H 605.041 1.1001 -1.18783 0
M  V30 6503 H 607.033 4.03978 -0.241563 0
M  V30 6504 H 605.603 3.11355 0.278703 0
M  V30 6505 H 604.823 3.26958 -2.20209 0
M  V30 6506 H 606.111 4.46337 -2.44255 0
M  V30 6507 H 605.509 5.63345 0.515626 0
M  V30 6508 H 604.066 6.51461 0.210332 0
M  V30 6509 N 607.499 1.09233 1.13605 0
M  V30 6510 C 608.727 0.848908 1.88683 0
M  V30 6511 C 609.142 -0.599667 1.79024 0
M  V30 6512 O 608.499 -1.41265 1.15544 0
M  V30 6513 C 608.55 1.27273 3.38355 0
M  V30 6514 O 608.271 2.66449 3.47759 0
M  V30 6515 C 609.772 1.0614 4.30406 0
M  V30 6516 H 606.992 0.305549 0.597395 0
M  V30 6517 H 609.536 1.4538 1.43823 0
M  V30 6518 H 607.691 0.711776 3.80805 0
M  V30 6519 H 608.105 2.84264 4.40788 0
M  V30 6520 H 609.579 1.40725 5.33761 0
M  V30 6521 H 610.056 -0.000960332 4.392 0
M  V30 6522 H 610.662 1.60821 3.93722 0
M  V30 6523 N 608.977 -1.30795 0.87923 0
M  V30 6524 C 609.909 -2.27241 0.299025 0
M  V30 6525 C 610.922 -1.53472 -0.543166 0
M  V30 6526 O 612.111 -1.74756 -0.363651 0
M  V30 6527 C 609.211 -3.33655 -0.593931 0
M  V30 6528 C 608.384 -4.36857 0.2179 0
M  V30 6529 C 607.443 -5.22715 -0.604646 0
M  V30 6530 O 606.469 -5.69192 -0.0293838 0
M  V30 6531 N 607.671 -5.48008 -1.91488 0
M  V30 6532 H 610.436 -2.77667 1.12788 0
M  V30 6533 H 607.997 -1.43914 0.741637 0
M  V30 6534 H 609.989 -3.88013 -1.15012 0
M  V30 6535 H 608.559 -2.83202 -1.32346 0
M  V30 6536 H 607.779 -3.82444 0.955536 0
M  V30 6537 H 609.067 -5.02869 0.774614 0
M  V30 6538 H 608.465 -5.1202 -2.40525 0
M  V30 6539 H 607.022 -6.05264 -2.41864 0
M  V30 6540 N 610.455 -0.639598 -1.44038 0
M  V30 6541 C 611.405 0.0823038 -2.27851 0
M  V30 6542 C 612.389 0.807991 -1.39141 0
M  V30 6543 O 613.581 0.692702 -1.62882 0
M  V30 6544 C 610.71 1.05742 -3.26609 0
M  V30 6545 C 609.796 0.330911 -4.22807 0
M  V30 6546 N 610.187 -0.645126 -5.01669 0
M  V30 6547 C 608.485 0.574214 -4.42288 0
M  V30 6548 C 609.186 -1.07513 -5.71678 0
M  V30 6549 N 608.162 -0.412164 -5.42035 0
M  V30 6550 H 611.964 -0.666861 -2.86234 0
M  V30 6551 H 609.478 -0.465777 -1.55577 0
M  V30 6552 H 611.475 1.58927 -3.85419 0
M  V30 6553 H 610.135 1.80679 -2.69787 0
M  V30 6554 H 611.146 -1.02329 -5.0769 0
M  V30 6555 H 607.823 1.30581 -3.96554 0
M  V30 6556 H 609.213 -1.88196 -6.45005 0
M  V30 6557 N 611.933 1.52934 -0.380664 0
M  V30 6558 C 613.344 1.86457 0.0952684 0
M  V30 6559 C 613.695 1.3007 1.46889 0
M  V30 6560 O 612.82 0.628636 2.07068 0
M  V30 6561 C 613.415 3.38323 0.179648 0
M  V30 6562 C 611.974 3.71589 0.599858 0
M  V30 6563 C 611.121 2.76228 -0.243572 0
M  V30 6564 H 614.072 1.46966 -0.59888 0
M  V30 6565 H 614.093 3.67113 1.00042 0
M  V30 6566 H 613.605 3.79333 -0.820228 0
M  V30 6567 H 611.706 3.36144 1.60742 0
M  V30 6568 H 611.819 4.77715 0.364003 0
M  V30 6569 H 610.183 2.53045 0.289855 0
M  V30 6570 H 610.966 3.20074 -1.24127 0
M  V30 6571 N 613.412 0.11024 1.57214 0
M  V30 6572 C 614.661 -0.549638 1.94067 0
M  V30 6573 C 614.974 -1.68388 0.995234 0
M  V30 6574 O 616.18 -2.40593 1.25807 0
M  V30 6575 C 614.636 -1.02912 3.44873 0
M  V30 6576 C 614.244 0.0761861 4.47935 0
M  V30 6577 C 615.988 -1.66087 3.9066 0
M  V30 6578 C 613.895 -0.419502 5.8991 0
M  V30 6579 H 612.825 -0.209092 0.724428 0
M  V30 6580 H 615.476 0.188683 1.82527 0
M  V30 6581 H 613.858 -1.82159 3.51616 0
M  V30 6582 H 615.032 0.852185 4.52851 0
M  V30 6583 H 613.347 0.614052 4.11847 0
M  V30 6584 H 615.944 -2.04272 4.94143 0
M  V30 6585 H 616.287 -2.53591 3.30148 0
M  V30 6586 H 616.82 -0.933959 3.86681 0
M  V30 6587 H 613.559 0.419277 6.54158 0
M  V30 6588 H 613.079 -1.16217 5.88433 0
M  V30 6589 H 614.758 -0.883577 6.40938 0
M  V30 6590 N 614.89 -1.56749 -0.16351 0
M  V30 6591 C 616.306 -1.51043 -0.515567 0
M  V30 6592 C 616.506 -0.815855 -1.84245 0
M  V30 6593 O 615.562 -0.379477 -2.49632 0
M  V30 6594 C 616.875 -2.95791 -0.541114 0
M  V30 6595 C 618.423 -3.0664 -0.627776 0
M  V30 6596 C 618.898 -4.52861 -0.684141 0
M  V30 6597 N 620.389 -4.5714 -0.746818 0
M  V30 6598 C 621.124 -5.67634 -0.811137 0
M  V30 6599 N 620.62 -6.8774 -0.835811 0
M  V30 6600 N 622.413 -5.55624 -0.850756 0
M  V30 6601 H 614.564 -2.00307 0.70645 0
M  V30 6602 H 616.827 -0.912876 0.255659 0
M  V30 6603 H 616.533 -3.49797 0.365329 0
M  V30 6604 H 616.407 -3.50858 -1.38487 0
M  V30 6605 H 618.794 -2.52663 -1.52464 0
M  V30 6606 H 618.875 -2.54645 0.242805 0
M  V30 6607 H 618.519 -5.07472 0.2085 0
M  V30 6608 H 618.449 -5.02621 -1.57098 0
M  V30 6609 H 620.94 -3.70669 -0.735717 0
M  V30 6610 H 621.253 -7.67701 -0.886279 0
M  V30 6611 H 619.598 -6.90334 -0.803958 0
M  V30 6612 H 622.789 -4.60709 -0.828535 0
M  V30 6613 H 622.962 -6.41756 -0.897418 0
M  V30 6614 N 616.368 0.432326 -1.51554 0
M  V30 6615 C 617.315 1.52512 -1.7323 0
M  V30 6616 C 618.285 1.55863 -0.5741 0
M  V30 6617 O 619.47 1.72796 -0.809093 0
M  V30 6618 C 616.61 2.90183 -1.86783 0
M  V30 6619 C 615.723 2.96322 -3.14352 0
M  V30 6620 C 614.858 4.25147 -3.18471 0
M  V30 6621 C 613.897 4.25172 -4.40335 0
M  V30 6622 N 613.034 5.45529 -4.41975 0
M  V30 6623 H 617.874 1.33332 -2.66508 0
M  V30 6624 H 615.411 0.647613 -1.32077 0
M  V30 6625 H 617.369 3.70071 -1.92623 0
M  V30 6626 H 615.999 3.0791 -0.969087 0
M  V30 6627 H 615.051 2.09066 -3.17798 0
M  V30 6628 H 616.363 2.92203 -4.04251 0
M  V30 6629 H 615.517 5.13411 -3.23255 0
M  V30 6630 H 614.256 4.31929 -2.2647 0
M  V30 6631 H 613.261 3.353 -4.35723 0
M  V30 6632 H 614.486 4.20049 -5.33606 0
M  V30 6633 H 612.432 5.53024 -3.52847 0
M  V30 6634 H 612.349 5.43311 -5.25689 0
M  V30 6635 H 613.617 6.35812 -4.50958 0
M  V30 6636 N 617.846 1.41785 0.688094 0
M  V30 6637 C 619.094 1.41264 1.4453 0
M  V30 6638 C 619.415 0.0252946 1.94984 0
M  V30 6639 O 618.685 -0.934081 1.72197 0
M  V30 6640 H 617.265 0.519998 0.536294 0
M  V30 6641 H 619.927 1.7709 0.813941 0
M  V30 6642 H 619.023 2.10439 2.30482 0
M  V30 6643 N 619.324 -0.923095 1.27737 0
M  V30 6644 C 620.254 -2.04124 1.13383 0
M  V30 6645 C 621.235 -1.70066 0.0340658 0
M  V30 6646 O 622.42 -1.93068 0.209383 0
M  V30 6647 C 619.55 -3.3831 0.785097 0
M  V30 6648 C 618.504 -3.86496 1.8386 0
M  V30 6649 C 617.83 -5.1754 1.34373 0
M  V30 6650 C 619.13 -4.09381 3.24353 0
M  V30 6651 H 620.824 -2.1639 2.06919 0
M  V30 6652 H 618.37 -1.03976 0.996243 0
M  V30 6653 H 620.323 -4.16016 0.671485 0
M  V30 6654 H 619.047 -3.2607 -0.185969 0
M  V30 6655 H 617.706 -3.10987 1.9412 0
M  V30 6656 H 617.354 -5.01696 0.361989 0
M  V30 6657 H 617.054 -5.50751 2.04811 0
M  V30 6658 H 618.578 -5.97811 1.24315 0
M  V30 6659 H 619.992 -4.77641 3.17067 0
M  V30 6660 H 618.389 -4.53906 3.92542 0
M  V30 6661 H 619.459 -3.14515 3.69064 0
M  V30 6662 N 620.802 -1.09834 -1.13024 0
M  V30 6663 C 621.752 -0.710899 -2.16634 0
M  V30 6664 C 622.736 0.276836 -1.58501 0
M  V30 6665 O 623.928 0.0865457 -1.76788 0
M  V30 6666 C 621.057 -0.137574 -3.43024 0
M  V30 6667 C 620.143 -1.15198 -4.08155 0
M  V30 6668 N 620.534 -2.34054 -4.48388 0
M  V30 6669 C 618.832 -0.991074 -4.34849 0
M  V30 6670 C 619.533 -2.98616 -4.99203 0
M  V30 6671 N 618.509 -2.26159 -4.94321 0
M  V30 6672 H 622.311 -1.61576 -2.455 0
M  V30 6673 H 619.825 -0.975158 -1.29863 0
M  V30 6674 H 621.822 0.158031 -4.166 0
M  V30 6675 H 620.482 0.762088 -3.1563 0
M  V30 6676 H 621.493 -2.7162 -4.40957 0
M  V30 6677 H 618.17 -0.146448 -4.17243 0
M  V30 6678 H 619.56 -3.99683 -5.40096 0
M  V30 6679 N 622.28 1.30327 -0.886154 0
M  V30 6680 C 623.23 2.25668 -0.325248 0
M  V30 6681 C 624.214 1.51318 0.546972 0
M  V30 6682 O 625.406 1.72623 0.391203 0
M  V30 6683 C 622.535 3.40229 0.458167 0
M  V30 6684 C 621.621 4.21933 -0.428208 0
M  V30 6685 N 622.012 4.82129 -1.52921 0
M  V30 6686 C 620.31 4.45439 -0.223535 0
M  V30 6687 C 621.011 5.43351 -2.07714 0
M  V30 6688 N 619.987 5.26002 -1.37195 0
M  V30 6689 H 623.789 2.69759 -1.1665 0
M  V30 6690 H 621.303 1.4478 -0.735691 0
M  V30 6691 H 623.3 4.07579 0.876648 0
M  V30 6692 H 621.96 2.97678 1.29684 0
M  V30 6693 H 622.971 4.81312 -1.91205 0
M  V30 6694 H 619.648 4.13481 0.577875 0
M  V30 6695 H 621.038 6.01118 -3.00178 0
M  V30 6696 N 623.758 0.647228 1.43697 0
M  V30 6697 C 624.705 -0.0480092 2.3075 0
M  V30 6698 C 625.675 -0.820705 1.44408 0
M  V30 6699 O 626.86 -0.798515 1.73287 0
M  V30 6700 C 624 -1.01259 3.2991 0
M  V30 6701 C 623.113 -0.236629 4.31351 0
M  V30 6702 C 622.248 -1.19447 5.17596 0
M  V30 6703 C 621.287 -0.408595 6.10735 0
M  V30 6704 N 620.424 -1.31772 6.89623 0
M  V30 6705 H 625.264 0.700238 2.89656 0
M  V30 6706 H 622.801 0.357082 1.427 0
M  V30 6707 H 624.759 -1.58538 3.85903 0
M  V30 6708 H 623.389 -1.72778 2.72667 0
M  V30 6709 H 622.441 0.452353 3.77701 0
M  V30 6710 H 623.753 0.374731 4.9739 0
M  V30 6711 H 622.907 -1.83809 5.78186 0
M  V30 6712 H 621.646 -1.83975 4.51669 0
M  V30 6713 H 620.651 0.24841 5.49239 0
M  V30 6714 H 621.876 0.232188 6.78703 0
M  V30 6715 H 619.822 -1.94991 6.2635 0
M  V30 6716 H 619.739 -0.760779 7.52162 0
M  V30 6717 H 621.007 -1.94967 7.54724 0
M  V30 6718 N 625.236 -1.5273 0.388769 0
M  V30 6719 C 626.485 -2.00757 -0.194833 0
M  V30 6720 C 626.798 -1.27951 -1.47946 0
M  V30 6721 O 628.004 -1.66686 -2.14308 0
M  V30 6722 C 626.46 -3.57695 -0.397762 0
M  V30 6723 C 626.068 -4.394 0.873583 0
M  V30 6724 C 627.812 -4.14012 -0.937759 0
M  V30 6725 C 625.719 -5.87938 0.638962 0
M  V30 6726 H 624.649 -0.750101 -0.0765845 0
M  V30 6727 H 627.3 -1.76239 0.511086 0
M  V30 6728 H 625.682 -3.7846 -1.16552 0
M  V30 6729 H 626.856 -4.30403 1.64591 0
M  V30 6730 H 625.171 -3.94301 1.33849 0
M  V30 6731 H 627.768 -5.22645 -1.12899 0
M  V30 6732 H 628.111 -3.7007 -1.90666 0
M  V30 6733 H 628.644 -3.97137 -0.229588 0
M  V30 6734 H 625.383 -6.36202 1.57885 0
M  V30 6735 H 624.903 -5.99726 -0.094443 0
M  V30 6736 H 626.582 -6.46423 0.273299 0
M  V30 6737 N 626.714 -0.118576 -1.57153 0
M  V30 6738 C 627.644 0.828436 -2.1831 0
M  V30 6739 C 628.625 1.27758 -1.12303 0
M  V30 6740 O 629.81 1.34026 -1.40537 0
M  V30 6741 C 626.94 2.07876 -2.78217 0
M  V30 6742 C 625.894 1.76742 -3.89803 0
M  V30 6743 C 625.22 3.08801 -4.36516 0
M  V30 6744 C 626.52 1.03606 -5.11921 0
M  V30 6745 H 628.214 0.318824 -2.97698 0
M  V30 6746 H 625.76 0.151911 -1.43196 0
M  V30 6747 H 627.713 2.74584 -3.19659 0
M  V30 6748 H 626.437 2.61161 -1.96118 0
M  V30 6749 H 625.096 1.12424 -3.48936 0
M  V30 6750 H 624.744 3.6002 -3.51276 0
M  V30 6751 H 624.444 2.88743 -5.11763 0
M  V30 6752 H 625.968 3.76627 -4.80608 0
M  V30 6753 H 627.382 1.60467 -5.50385 0
M  V30 6754 H 625.779 0.936454 -5.92748 0
M  V30 6755 H 626.849 0.0227421 -4.84895 0
M  V30 6756 N 628.193 1.56834 0.155195 0
M  V30 6757 C 629.123 2.00678 1.19376 0
M  V30 6758 C 630.104 0.884973 1.45266 0
M  V30 6759 O 631.289 1.1522 1.56326 0
M  V30 6760 C 628.419 2.38042 2.5289 0
M  V30 6761 C 627.373 3.53332 2.41538 0
M  V30 6762 C 626.699 3.76485 3.79688 0
M  V30 6763 C 627.999 4.86265 1.9064 0
M  V30 6764 H 629.693 2.87688 0.829232 0
M  V30 6765 H 627.239 1.38407 0.397445 0
M  V30 6766 H 629.192 2.67314 3.25763 0
M  V30 6767 H 627.916 1.4796 2.91162 0
M  V30 6768 H 626.575 3.24213 1.71117 0
M  V30 6769 H 626.223 2.83667 4.15382 0
M  V30 6770 H 625.923 4.54068 3.72956 0
M  V30 6771 H 627.447 4.08174 4.54122 0
M  V30 6772 H 628.861 5.14308 2.53299 0
M  V30 6773 H 627.258 5.67597 1.94818 0
M  V30 6774 H 628.328 4.77184 0.861596 0
M  V30 6775 N 629.671 -0.424282 1.51781 0
M  V30 6776 C 630.634 -1.49848 1.73431 0
M  V30 6777 C 631.634 -1.49016 0.604225 0
M  V30 6778 O 632.824 -1.50808 0.871935 0
M  V30 6779 C 629.956 -2.89332 1.80277 0
M  V30 6780 H 631.149 -1.3195 2.69312 0
M  V30 6781 H 628.702 -0.653809 1.41968 0
M  V30 6782 H 629.437 -3.12618 0.862568 0
M  V30 6783 H 629.222 -2.9134 2.62419 0
M  V30 6784 H 630.712 -3.67233 1.98821 0
M  V30 6785 N 631.149 -1.42148 -0.680565 0
M  V30 6786 C 632.097 -1.45401 -1.81552 0
M  V30 6787 C 633.091 -0.33036 -1.66147 0
M  V30 6788 O 634.297 -0.503103 -1.72826 0
M  V30 6789 H 630.672 -0.455265 -0.59853 0
M  V30 6790 H 632.643 -2.41024 -1.75926 0
M  V30 6791 C 631.392 -1.36769 -3.19671 0
M  V30 6792 H 630.715 -2.22525 -3.32149 0
M  V30 6793 H 632.155 -1.43106 -3.9912 0
M  V30 6794 C 630.614 -0.0817752 -3.36801 0
M  V30 6795 O 631.144 0.867707 -3.92216 0
M  V30 6796 N 629.35 -0.000799811 -2.906 0
M  V30 6797 H 628.897 -0.774231 -2.4569 0
M  V30 6798 H 628.855 0.858961 -3.02439 0
M  V30 6799 N 632.627 0.916307 -1.28225 0
M  V30 6800 C 633.874 1.66518 -1.1523 0
M  V30 6801 C 634.202 1.92178 0.299632 0
M  V30 6802 O 633.457 1.51842 1.2346 0
M  V30 6803 C 633.756 3.03125 -1.8934 0
M  V30 6804 C 633.422 2.97135 -3.39148 0
M  V30 6805 C 632.084 2.95208 -3.80007 0
M  V30 6806 C 634.436 2.87574 -4.34685 0
M  V30 6807 C 631.764 2.81518 -5.14747 0
M  V30 6808 C 634.116 2.75424 -5.69495 0
M  V30 6809 C 632.78 2.71854 -6.09632 0
M  V30 6810 H 632.05 0.609334 -0.421655 0
M  V30 6811 H 634.697 1.06776 -1.58969 0
M  V30 6812 H 633.002 3.66639 -1.38143 0
M  V30 6813 H 634.699 3.59968 -1.76704 0
M  V30 6814 H 631.289 2.99428 -3.06661 0
M  V30 6815 H 635.473 2.88152 -4.04082 0
M  V30 6816 H 630.729 2.77148 -5.44976 0
M  V30 6817 H 634.903 2.66993 -6.43185 0
M  V30 6818 H 632.53 2.61003 -7.1399 0
M  V30 6819 N 634.105 1.10431 1.1244 0
M  V30 6820 C 635.035 0.775143 2.20258 0
M  V30 6821 C 636.016 -0.25186 1.68225 0
M  V30 6822 O 637.201 -0.117637 1.93843 0
M  V30 6823 C 634.331 0.206133 3.46688 0
M  V30 6824 C 633.285 1.16382 4.11873 0
M  V30 6825 C 632.611 0.456014 5.32752 0
M  V30 6826 C 633.911 2.5104 4.58013 0
M  V30 6827 H 635.605 1.67665 2.4805 0
M  V30 6828 H 633.151 0.807595 1.19222 0
M  V30 6829 H 635.104 -0.036291 4.21384 0
M  V30 6830 H 633.828 -0.730614 3.18323 0
M  V30 6831 H 632.487 1.39169 3.39157 0
M  V30 6832 H 632.135 -0.485203 5.00654 0
M  V30 6833 H 631.835 1.09466 5.77314 0
M  V30 6834 H 633.359 0.222135 6.10196 0
M  V30 6835 H 634.773 2.32401 5.24083 0
M  V30 6836 H 633.17 3.10789 5.13352 0
M  V30 6837 H 634.24 3.11039 3.71998 0
M  V30 6838 N 635.583 -1.29855 0.893053 0
M  V30 6839 C 636.546 -2.26183 0.370687 0
M  V30 6840 C 637.546 -1.53108 -0.491385 0
M  V30 6841 O 638.736 -1.71643 -0.297386 0
M  V30 6842 C 635.868 -3.37633 -0.470827 0
M  V30 6843 H 637.061 -2.73903 1.22135 0
M  V30 6844 H 634.614 -1.41183 0.67061 0
M  V30 6845 H 635.349 -2.95241 -1.34175 0
M  V30 6846 H 635.134 -3.91825 0.146784 0
M  V30 6847 H 636.624 -4.09313 -0.827825 0
M  V30 6848 N 637.061 -0.65484 -1.43351 0
M  V30 6849 C 637.993 0.0744757 -2.29079 0
M  V30 6850 C 639.006 0.7855 -1.42596 0
M  V30 6851 O 640.195 0.642986 -1.66517 0
M  V30 6852 C 637.295 1.12859 -3.19556 0
M  V30 6853 C 636.468 0.495381 -4.34586 0
M  V30 6854 C 635.527 1.44659 -5.05925 0
M  V30 6855 O 634.553 0.954567 -5.61139 0
M  V30 6856 N 635.755 2.78051 -5.09576 0
M  V30 6857 H 638.52 -0.661346 -2.92312 0
M  V30 6858 H 636.081 -0.497744 -1.54059 0
M  V30 6859 H 638.073 1.76577 -3.64147 0
M  V30 6860 H 636.643 1.76636 -2.57912 0
M  V30 6861 H 635.863 -0.32092 -3.92892 0
M  V30 6862 H 637.151 0.0534203 -5.08772 0
M  V30 6863 H 636.549 3.20584 -4.66093 0
M  V30 6864 H 635.106 3.37068 -5.57878 0
M  V30 6865 N 638.539 1.52521 -0.396863 0
M  V30 6866 C 639.767 2.06091 0.18275 0
M  V30 6867 C 640.182 1.26796 1.39886 0
M  V30 6868 O 639.539 0.316585 1.79733 0
M  V30 6869 C 639.59 3.57362 0.545377 0
M  V30 6870 O 639.311 4.33656 -0.622428 0
M  V30 6871 C 640.812 4.27305 1.18004 0
M  V30 6872 H 638.032 0.670504 0.025789 0
M  V30 6873 H 640.576 1.96561 -0.564276 0
M  V30 6874 H 638.731 3.66941 1.2423 0
M  V30 6875 H 639.145 5.23507 -0.322662 0
M  V30 6876 H 640.619 5.34366 1.38408 0
M  V30 6877 H 641.096 3.83 2.1496 0
M  V30 6878 H 641.702 4.22064 0.523671 0
M  V30 6879 N 640.017 0.126909 1.57088 0
M  V30 6880 C 640.927 -0.833867 2.1928 0
M  V30 6881 C 641.943 -1.2868 1.17122 0
M  V30 6882 O 643.119 -1.34815 1.49622 0
M  V30 6883 C 640.184 -2.0632 2.78627 0
M  V30 6884 C 639.245 -1.66143 3.95847 0
M  V30 6885 C 638.478 -2.83217 4.52354 0
M  V30 6886 O 638.701 -3.98868 4.0775 0
M  V30 6887 O 637.635 -2.59846 5.42922 0
M  V30 6888 H 641.461 -0.334564 3.01852 0
M  V30 6889 H 639.046 -0.0991091 1.49071 0
M  V30 6890 H 640.928 -2.78304 3.16425 0
M  V30 6891 H 639.603 -2.55242 1.99082 0
M  V30 6892 H 638.51 -0.912435 3.62802 0
M  V30 6893 H 639.843 -1.21957 4.76852 0
M  V30 6894 N 641.495 -1.56914 -0.146875 0
M  V30 6895 C 642.458 -1.97368 -1.16526 0
M  V30 6896 C 643.458 -0.860223 -1.35856 0
M  V30 6897 O 644.648 -1.12684 -1.32846 0
M  V30 6898 C 641.78 -2.28974 -2.52555 0
M  V30 6899 H 642.973 -2.88523 -0.818209 0
M  V30 6900 H 640.526 -1.5135 -0.390221 0
M  V30 6901 H 641.261 -1.40611 -2.92231 0
M  V30 6902 H 641.046 -3.10157 -2.39886 0
M  V30 6903 H 642.536 -2.61109 -3.25902 0
M  V30 6904 N 642.974 0.416227 -1.52004 0
M  V30 6905 C 643.904 1.51365 -1.77795 0
M  V30 6906 C 644.885 1.58059 -0.628601 0
M  V30 6907 O 646.07 1.73447 -0.873478 0
M  V30 6908 C 643.2 2.89256 -1.92219 0
M  V30 6909 C 642.154 2.97415 -3.0778 0
M  V30 6910 C 641.48 4.37492 -3.07417 0
M  V30 6911 C 642.78 2.69551 -4.47369 0
M  V30 6912 H 644.474 1.30033 -2.69688 0
M  V30 6913 H 642.02 0.624112 -1.29772 0
M  V30 6914 H 643.973 3.66008 -2.08845 0
M  V30 6915 H 642.697 3.11866 -0.969917 0
M  V30 6916 H 641.356 2.23107 -2.90893 0
M  V30 6917 H 641.004 4.571 -2.09925 0
M  V30 6918 H 640.704 4.43877 -3.85029 0
M  V30 6919 H 642.228 5.16188 -3.26162 0
M  V30 6920 H 643.642 3.36028 -4.64497 0
M  V30 6921 H 642.039 2.87321 -5.26846 0
M  V30 6922 H 643.109 1.65029 -4.55953 0
M  V30 6923 N 644.452 1.42507 0.673017 0
M  V30 6924 C 645.385 1.40557 1.79774 0
M  V30 6925 C 646.363 0.269606 1.60349 0
M  V30 6926 O 647.547 0.460105 1.82798 0
M  V30 6927 C 644.674 1.19815 3.168 0
M  V30 6928 C 643.72 2.36429 3.5497 0
M  V30 6929 S 644.553 3.98963 3.57196 0
M  V30 6930 C 645.709 3.80567 4.9691 0
M  V30 6931 H 645.942 2.35734 1.81154 0
M  V30 6932 H 643.475 1.293 0.843846 0
M  V30 6933 H 645.433 1.08535 3.95892 0
M  V30 6934 H 644.094 0.262215 3.13004 0
M  V30 6935 H 643.287 2.17669 4.54573 0
M  V30 6936 H 642.889 2.44233 2.83242 0
M  V30 6937 H 645.181 3.41668 5.85038 0
M  V30 6938 H 646.124 4.79852 5.20718 0
M  V30 6939 H 646.532 3.13399 4.69512 0
M  V30 6940 N 645.93 -0.909495 1.28709 0
M  V30 6941 C 647.346 -1.18862 1.06508 0
M  V30 6942 C 647.546 -2.00604 -0.189864 0
M  V30 6943 O 646.602 -2.36281 -0.890355 0
M  V30 6944 C 647.915 -1.91908 2.31499 0
M  V30 6945 C 649.463 -2.04773 2.36721 0
M  V30 6946 C 649.938 -2.81228 3.6149 0
M  V30 6947 N 651.429 -2.88787 3.62155 0
M  V30 6948 C 652.164 -3.48455 4.55375 0
M  V30 6949 N 651.66 -4.09369 5.58918 0
M  V30 6950 N 653.453 -3.46035 4.42963 0
M  V30 6951 H 645.604 -0.363867 2.0926 0
M  V30 6952 H 647.867 -0.223649 0.921241 0
M  V30 6953 H 647.573 -1.39275 3.22948 0
M  V30 6954 H 647.447 -2.92436 2.38245 0
M  V30 6955 H 649.834 -2.56585 1.45767 0
M  V30 6956 H 649.915 -1.03408 2.33967 0
M  V30 6957 H 649.559 -2.30094 4.5279 0
M  V30 6958 H 649.489 -3.82917 3.61499 0
M  V30 6959 H 651.98 -2.45514 2.87283 0
M  V30 6960 H 652.293 -4.52891 6.26187 0
M  V30 6961 H 650.638 -4.0786 5.62739 0
M  V30 6962 H 653.829 -2.9766 3.6127 0
M  V30 6963 H 654.002 -3.92244 5.15799 0
M  V30 6964 N 647.408 -1.11026 -1.11852 0
M  V30 6965 C 648.656 -0.854769 -1.83134 0
M  V30 6966 C 648.977 0.621375 -1.84835 0
M  V30 6967 O 648.247 1.45129 -1.31584 0
M  V30 6968 H 646.827 -0.313229 -0.678157 0
M  V30 6969 H 649.489 -1.40178 -1.35411 0
M  V30 6970 H 648.585 -1.22311 -2.87135 0
M  V30 6971 N 648.886 1.2938 -0.899927 0
M  V30 6972 C 649.833 2.27713 -0.376243 0
M  V30 6973 C 650.803 1.57016 0.541774 0
M  V30 6974 O 651.988 1.84997 0.466966 0
M  V30 6975 C 649.128 3.42889 0.39 0
M  V30 6976 C 648.241 4.28369 -0.558938 0
M  V30 6977 C 647.376 5.30726 0.224379 0
M  V30 6978 C 646.415 6.07862 -0.719068 0
M  V30 6979 N 645.552 7.02094 0.0298569 0
M  V30 6980 H 650.392 2.71888 -1.21988 0
M  V30 6981 H 647.929 1.33724 -0.612879 0
M  V30 6982 H 649.887 4.08443 0.850314 0
M  V30 6983 H 648.517 2.99743 1.19809 0
M  V30 6984 H 647.569 3.62986 -1.13777 0
M  V30 6985 H 648.881 4.82068 -1.2811 0
M  V30 6986 H 648.035 6.02098 0.745881 0
M  V30 6987 H 646.774 4.77759 0.979674 0
M  V30 6988 H 645.779 5.35353 -1.25207 0
M  V30 6989 H 647.004 6.62917 -1.4737 0
M  V30 6990 H 644.95 6.51496 0.767415 0
M  V30 6991 H 644.867 7.5335 -0.632391 0
M  V30 6992 H 646.135 7.77685 0.531615 0
M  V30 6993 N 650.364 0.662433 1.43002 0
M  V30 6994 C 651.589 0.186003 2.06564 0
M  V30 6995 C 652.014 -1.14314 1.49379 0
M  V30 6996 O 651.372 -1.70824 0.607346 0
M  V30 6997 C 651.42 0.118269 3.60406 0
M  V30 6998 O 650.524 -0.916859 4.02079 0
M  V30 6999 H 649.865 0.0990981 0.656563 0
M  V30 7000 H 652.395 0.907958 1.8335 0
M  V30 7001 H 652.405 -0.0619981 4.07953 0
M  V30 7002 H 651.08 1.08849 4.01403 0
M  V30 7003 H 649.657 -0.708635 3.66105 0
M  V30 7004 N 651.842 -1.52309 0.404946 0
M  V30 7005 C 653.07 -2.06185 -0.171818 0
M  V30 7006 C 653.485 -1.27536 -1.39212 0
M  V30 7007 O 652.842 -0.326112 -1.79563 0
M  V30 7008 C 652.893 -3.57647 -0.526417 0
M  V30 7009 O 652.614 -4.3332 0.645417 0
M  V30 7010 C 654.115 -4.27925 -1.15736 0
M  V30 7011 H 651.335 -0.670632 -0.0222328 0
M  V30 7012 H 653.879 -1.96259 0.574692 0
M  V30 7013 H 652.034 -3.67595 -1.22282 0
M  V30 7014 H 652.448 -5.23328 0.35042 0
M  V30 7015 H 653.922 -5.35093 -1.35572 0
M  V30 7016 H 654.399 -3.84134 -2.12926 0
M  V30 7017 H 655.005 -4.22335 -0.501281 0
M  V30 7018 N 653.32 -0.135238 -1.57019 0
M  V30 7019 C 654.23 0.822226 -2.19719 0
M  V30 7020 C 655.246 1.28057 -1.17802 0
M  V30 7021 O 656.422 1.3402 -1.50335 0
M  V30 7022 C 653.487 2.0484 -2.79717 0
M  V30 7023 C 652.548 1.64042 -3.96723 0
M  V30 7024 C 651.781 2.80814 -4.53849 0
M  V30 7025 O 652.004 3.967 -4.0986 0
M  V30 7026 O 650.938 2.56963 -5.44292 0
M  V30 7027 H 654.764 0.318552 -3.02025 0
M  V30 7028 H 652.349 0.0912021 -1.49121 0
M  V30 7029 H 654.231 2.76622 -3.17897 0
M  V30 7030 H 652.906 2.54182 -2.00432 0
M  V30 7031 H 651.813 0.893182 -3.63281 0
M  V30 7032 H 653.146 1.19426 -4.77492 0
M  V30 7033 N 654.798 1.5699 0.138552 0
M  V30 7034 C 655.708 2.02174 1.19008 0
M  V30 7035 C 656.724 0.938622 1.46512 0
M  V30 7036 O 657.9 1.24872 1.58016 0
M  V30 7037 C 654.965 2.40045 2.50159 0
M  V30 7038 C 654.026 3.62346 2.30226 0
M  V30 7039 C 653.259 3.98401 3.55123 0
M  V30 7040 O 653.482 3.35019 4.61647 0
M  V30 7041 O 652.416 4.91606 3.47285 0
M  V30 7042 H 656.242 2.91954 0.836452 0
M  V30 7043 H 653.827 1.45293 0.347907 0
M  V30 7044 H 655.709 2.65225 3.27465 0
M  V30 7045 H 654.384 1.53417 2.85035 0
M  V30 7046 H 653.291 3.42341 1.50843 0
M  V30 7047 H 654.624 4.49617 2.00262 0
M  V30 7048 N 656.276 -0.40816 1.52223 0
M  V30 7049 C 657.239 -1.48 1.7501 0
M  V30 7050 C 658.239 -1.48367 0.619996 0
M  V30 7051 O 659.429 -1.49874 0.887881 0
M  V30 7052 C 656.561 -2.87403 1.83336 0
M  V30 7053 H 657.754 -1.29086 2.70697 0
M  V30 7054 H 655.307 -0.638715 1.42654 0
M  V30 7055 H 656.042 -3.11686 0.895677 0
M  V30 7056 H 655.827 -2.8854 2.65494 0
M  V30 7057 H 657.317 -3.65103 2.02705 0
M  V30 7058 N 657.755 -1.42862 -0.66545 0
M  V30 7059 C 659.171 -1.25993 -0.979687 0
M  V30 7060 C 659.371 -0.170831 -2.00775 0
M  V30 7061 O 658.427 0.454827 -2.4837 0
M  V30 7062 C 659.74 -2.62005 -1.47559 0
M  V30 7063 C 661.288 -2.69437 -1.59288 0
M  V30 7064 C 661.763 -4.05838 -2.12272 0
M  V30 7065 N 663.254 -4.0784 -2.19592 0
M  V30 7066 C 663.989 -5.10205 -2.61684 0
M  V30 7067 N 663.485 -6.22949 -3.03161 0
M  V30 7068 N 665.278 -4.9756 -2.61516 0
M  V30 7069 H 657.429 -2.12395 0.0150493 0
M  V30 7070 H 659.692 -0.946355 -0.0558187 0
M  V30 7071 H 659.398 -3.42605 -0.794654 0
M  V30 7072 H 659.272 -2.86566 -2.45275 0
M  V30 7073 H 661.659 -1.89178 -2.26486 0
M  V30 7074 H 661.74 -2.48655 -0.600374 0
M  V30 7075 H 661.384 -4.86559 -1.4568 0
M  V30 7076 H 661.314 -4.23977 -3.12331 0
M  V30 7077 H 663.805 -3.26452 -1.90361 0
M  V30 7078 H 664.118 -6.96899 -3.33993 0
M  V30 7079 H 662.463 -6.2644 -3.00995 0
M  V30 7080 H 665.654 -4.08551 -2.28481 0
M  V30 7081 H 665.827 -5.77468 -2.93999 0
M  V30 7082 N 659.233 0.902656 -1.29189 0
M  V30 7083 C 660.18 2.00643 -1.14066 0
M  V30 7084 C 661.15 1.66064 -0.0347756 0
M  V30 7085 O 662.335 1.8973 -0.201752 0
M  V30 7086 C 659.475 3.35214 -0.820104 0
M  V30 7087 C 658.588 3.82594 -2.00614 0
M  V30 7088 C 657.723 5.05727 -1.62522 0
M  V30 7089 C 656.762 5.45469 -2.77724 0
M  V30 7090 N 655.899 6.59789 -2.40048 0
M  V30 7091 H 660.739 2.1291 -2.08502 0
M  V30 7092 H 658.276 1.04271 -1.03759 0
M  V30 7093 H 660.234 4.12643 -0.614949 0
M  V30 7094 H 658.864 3.22682 0.0873452 0
M  V30 7095 H 657.916 3.01226 -2.32308 0
M  V30 7096 H 659.228 4.07999 -2.86946 0
M  V30 7097 H 658.382 5.90732 -1.38277 0
M  V30 7098 H 657.121 4.82155 -0.733333 0
M  V30 7099 H 656.126 4.59 -3.02653 0
M  V30 7100 H 657.351 5.71024 -3.67572 0
M  V30 7101 H 655.297 6.37826 -1.53343 0
M  V30 7102 H 655.214 6.84975 -3.19914 0
M  V30 7103 H 656.482 7.4807 -2.19116 0
M  V30 7104 N 660.711 1.11618 1.11262 0
M  V30 7105 C 661.621 0.78898 2.20935 0
M  V30 7106 C 662.637 -0.21867 1.7262 0
M  V30 7107 O 663.813 -0.0543826 2.01327 0
M  V30 7108 C 660.878 0.239014 3.45875 0
M  V30 7109 C 659.939 1.3055 4.08968 0
M  V30 7110 C 659.172 0.781687 5.27944 0
M  V30 7111 O 659.395 -0.387605 5.69082 0
M  V30 7112 O 658.329 1.54734 5.81671 0
M  V30 7113 H 662.155 1.70477 2.51339 0
M  V30 7114 H 659.74 0.892203 1.19834 0
M  V30 7115 H 661.622 -0.0632312 4.21353 0
M  V30 7116 H 660.297 -0.649454 3.17118 0
M  V30 7117 H 659.204 1.66079 3.35214 0
M  V30 7118 H 660.537 2.16743 4.41909 0
M  V30 7119 N 662.189 -1.289 0.906776 0
M  V30 7120 C 663.119 -2.29932 0.406659 0
M  V30 7121 C 664.1 -1.6189 -0.522061 0
M  V30 7122 O 665.285 -1.8935 -0.431283 0
M  V30 7123 C 662.415 -3.45425 -0.360366 0
M  V30 7124 C 661.369 -4.25316 0.478574 0
M  V30 7125 C 660.695 -5.33076 -0.416373 0
M  V30 7126 C 661.995 -4.92739 1.7322 0
M  V30 7127 H 663.689 -2.72013 1.25097 0
M  V30 7128 H 661.235 -1.30768 0.602977 0
M  V30 7129 H 663.188 -4.15186 -0.721029 0
M  V30 7130 H 661.912 -3.02206 -1.23852 0
M  V30 7131 H 660.571 -3.57273 0.821662 0
M  V30 7132 H 660.219 -4.86101 -1.29287 0
M  V30 7133 H 659.919 -5.8743 0.141309 0
M  V30 7134 H 661.443 -6.05686 -0.773072 0
M  V30 7135 H 662.857 -5.54898 1.44086 0
M  V30 7136 H 661.254 -5.57057 2.23175 0
M  V30 7137 H 662.324 -4.17625 2.46408 0
M  V30 7138 N 663.667 -0.670007 -1.42649 0
M  V30 7139 C 664.599 0.0501746 -2.29145 0
M  V30 7140 C 665.612 0.770331 -1.43422 0
M  V30 7141 O 666.801 0.625288 -1.6719 0
M  V30 7142 C 663.901 1.09463 -3.20735 0
M  V30 7143 C 663.074 0.44926 -4.35087 0
M  V30 7144 C 662.133 1.39285 -5.07431 0
M  V30 7145 O 661.159 0.894997 -5.6212 0
M  V30 7146 N 662.361 2.72631 -5.12496 0
M  V30 7147 H 665.126 -0.692312 -2.91594 0
M  V30 7148 H 662.687 -0.514056 -1.53522 0
M  V30 7149 H 664.679 1.72705 -3.65999 0
M  V30 7150 H 663.249 1.73891 -2.59771 0
M  V30 7151 H 662.469 -0.362573 -3.92529 0
M  V30 7152 H 663.757 -0.000544776 -5.088 0
M  V30 7153 H 663.155 3.15623 -4.69467 0
M  V30 7154 H 661.712 3.31132 -5.61422 0
M  V30 7155 N 665.145 1.52092 -0.413018 0
M  V30 7156 C 666.108 2.25706 0.398687 0
M  V30 7157 C 667.108 1.28221 0.970368 0
M  V30 7158 O 668.298 1.52131 0.848635 0
M  V30 7159 C 665.43 3.03029 1.5616 0
M  V30 7160 H 666.623 2.98888 -0.246131 0
M  V30 7161 H 664.176 1.5542 -0.165622 0
M  V30 7162 H 664.911 2.34205 2.24317 0
M  V30 7163 H 664.696 3.74606 1.15812 0
M  V30 7164 H 666.186 3.58857 2.13569 0
M  V30 7165 N 666.623 0.143563 1.56945 0
M  V30 7166 C 667.586 -0.783295 2.154 0
M  V30 7167 C 668.586 -1.17763 1.09492 0
M  V30 7168 O 669.776 -1.09912 1.35148 0
M  V30 7169 C 666.908 -2.06248 2.7143 0
M  V30 7170 H 668.101 -0.274863 2.98638 0
M  V30 7171 H 665.654 -0.105859 1.55941 0
M  V30 7172 H 666.389 -2.61466 1.91849 0
M  V30 7173 H 666.174 -1.78897 3.4891 0
M  V30 7174 H 667.664 -2.72453 3.16479 0
M  V30 7175 N 668.101 -1.57061 -0.130224 0
M  V30 7176 C 669.349 -1.83893 -0.838313 0
M  V30 7177 C 669.67 -0.727046 -1.80939 0
M  V30 7178 O 668.94 0.249927 -1.94299 0
M  V30 7179 H 667.52 -0.67846 -0.312573 0
M  V30 7180 H 670.182 -1.94529 -0.120224 0
M  V30 7181 H 669.278 -2.79419 -1.39038 0
M  V30 7182 N 669.579 0.400081 -1.52437 0
M  V30 7183 C 670.526 1.48803 -1.76426 0
M  V30 7184 C 671.496 1.5461 -0.607032 0
M  V30 7185 O 672.681 1.71041 -0.845563 0
M  V30 7186 C 669.821 2.86156 -1.92896 0
M  V30 7187 C 668.934 2.89587 -3.20567 0
M  V30 7188 C 668.069 4.18296 -3.27417 0
M  V30 7189 C 667.108 4.15736 -4.49255 0
M  V30 7190 N 666.245 5.36032 -4.53447 0
M  V30 7191 H 671.085 1.27649 -2.69276 0
M  V30 7192 H 668.622 0.619451 -1.33421 0
M  V30 7193 H 670.58 3.65901 -2.00429 0
M  V30 7194 H 669.21 3.05785 -1.03418 0
M  V30 7195 H 668.262 2.02278 -3.22161 0
M  V30 7196 H 669.574 2.83562 -4.10358 0
M  V30 7197 H 668.728 5.06439 -3.34072 0
M  V30 7198 H 667.467 4.27028 -2.35581 0
M  V30 7199 H 666.472 3.25982 -4.42737 0
M  V30 7200 H 667.697 4.08636 -5.42396 0
M  V30 7201 H 665.643 5.45415 -3.64498 0
M  V30 7202 H 665.56 5.32038 -5.37096 0
M  V30 7203 H 666.828 6.26104 -4.64343 0
M  V30 7204 N 671.057 1.43213 0.657864 0
M  V30 7205 C 672.282 1.48227 1.45064 0
M  V30 7206 C 672.707 0.0999939 1.87834 0
M  V30 7207 O 672.065 -0.905269 1.57081 0
M  V30 7208 C 672.113 2.42931 2.6649 0
M  V30 7209 O 671.217 1.91237 3.6538 0
M  V30 7210 H 670.558 0.501551 0.435135 0
M  V30 7211 H 673.088 1.8808 0.805431 0
M  V30 7212 H 673.098 2.6008 3.1436 0
M  V30 7213 H 671.773 3.43348 2.34701 0
M  V30 7214 H 670.35 1.83726 3.24498 0
M  V30 7215 N 672.536 -0.895792 1.29666 0
M  V30 7216 C 673.947 -1.46195 1.1612 0
M  V30 7217 C 674.298 -1.94699 -0.242195 0
M  V30 7218 O 673.423 -1.8406 -1.13802 0
M  V30 7219 C 674.018 -2.65718 2.10189 0
M  V30 7220 C 672.577 -3.18458 2.00653 0
M  V30 7221 C 671.724 -1.91149 2.00891 0
M  V30 7222 H 674.675 -0.706756 1.42094 0
M  V30 7223 H 674.696 -3.4158 1.6764 0
M  V30 7224 H 674.208 -2.30386 3.12321 0
M  V30 7225 H 672.309 -3.58474 1.01623 0
M  V30 7226 H 672.422 -3.82491 2.88509 0
M  V30 7227 H 670.786 -2.09021 1.45542 0
M  V30 7228 H 671.569 -1.58089 3.04734 0
M  V30 7229 N 674.014 -1.12206 -1.10668 0
M  V30 7230 C 674.924 -0.800686 -2.20513 0
M  V30 7231 C 675.94 0.209512 -1.72734 0
M  V30 7232 O 677.116 0.043705 -2.01353 0
M  V30 7233 C 674.181 -0.257353 -3.45744 0
M  V30 7234 C 673.242 -1.32718 -4.0827 0
M  V30 7235 C 672.475 -0.809674 -5.27522 0
M  V30 7236 O 672.698 0.35742 -5.69279 0
M  V30 7237 O 671.632 -1.57816 -5.80842 0
M  V30 7238 H 675.458 -1.71807 -2.50432 0
M  V30 7239 H 673.043 -0.898546 -1.19359 0
M  V30 7240 H 674.925 0.0408849 -4.2138 0
M  V30 7241 H 673.6 0.632627 -3.17458 0
M  V30 7242 H 672.507 -1.67855 -3.34329 0
M  V30 7243 H 673.84 -2.19083 -4.40753 0
M  V30 7244 N 675.492 1.28418 -0.913599 0
M  V30 7245 C 676.769 1.89977 -0.465619 0
M  V30 7246 C 677.149 1.82813 1.05559 0
M  V30 7247 O 676.497 1.26397 1.90358 0
M  V30 7248 C 676.707 3.34492 -0.995813 0
M  V30 7249 C 678.055 4.11468 -1.04782 0
M  V30 7250 O 679.079 3.43451 -0.944445 0
M  V30 7251 O 677.938 5.33046 -1.20518 0
M  V30 7252 H 675.032 0.813734 -0.147532 0
M  V30 7253 H 677.578 1.36786 -1.00437 0
M  V30 7254 H 676.35 3.33929 -2.03978 0
M  V30 7255 H 675.973 3.95181 -0.437878 0
M  V30 7256 N 676.97 0.677563 1.42291 0
M  V30 7257 C 677.9 0.014968 2.33495 0
M  V30 7258 C 678.881 -0.786376 1.50831 0
M  V30 7259 O 680.066 -0.742975 1.79426 0
M  V30 7260 C 677.196 -0.935023 3.34477 0
M  V30 7261 C 676.15 -0.242074 4.27315 0
M  V30 7262 C 675.476 -1.30519 5.18526 0
M  V30 7263 C 676.776 0.880604 5.14823 0
M  V30 7264 H 678.47 0.776671 2.89151 0
M  V30 7265 H 676.016 0.37494 1.39033 0
M  V30 7266 H 677.969 -1.40766 3.97194 0
M  V30 7267 H 676.693 -1.72818 2.77131 0
M  V30 7268 H 675.352 0.210351 3.65996 0
M  V30 7269 H 675 -2.09041 4.57505 0
M  V30 7270 H 674.7 -0.846652 5.81468 0
M  V30 7271 H 676.224 -1.7787 5.84119 0
M  V30 7272 H 677.638 0.489062 5.7121 0
M  V30 7273 H 676.035 1.26511 5.86613 0
M  V30 7274 H 677.105 1.72818 4.53059 0
M  V30 7275 N 678.448 -1.51871 0.421078 0
M  V30 7276 C 679.358 -2.31077 -0.405069 0
M  V30 7277 C 680.374 -1.39301 -1.04265 0
M  V30 7278 O 681.55 -1.72376 -1.04157 0
M  V30 7279 C 678.615 -3.12556 -1.50032 0
M  V30 7280 C 677.676 -4.20088 -0.884559 0
M  V30 7281 C 676.909 -4.97673 -1.92762 0
M  V30 7282 O 677.132 -4.75696 -3.14753 0
M  V30 7283 O 676.066 -5.82203 -1.52719 0
M  V30 7284 H 679.892 -3.02742 0.241086 0
M  V30 7285 H 677.477 -1.48263 0.183991 0
M  V30 7286 H 679.359 -3.6326 -2.13589 0
M  V30 7287 H 678.034 -2.43672 -2.13086 0
M  V30 7288 H 676.941 -3.73502 -0.211379 0
M  V30 7289 H 678.274 -4.91298 -0.297763 0
M  V30 7290 N 679.926 -0.151884 -1.56866 0
M  V30 7291 C 681.342 0.204486 -1.58285 0
M  V30 7292 C 681.542 1.6431 -1.16639 0
M  V30 7293 O 680.598 2.37077 -0.868946 0
M  V30 7294 C 681.911 -0.0587019 -3.00643 0
M  V30 7295 C 683.459 0.00462303 -3.13 0
M  V30 7296 C 683.934 -0.231297 -4.57416 0
M  V30 7297 N 685.425 -0.178394 -4.62856 0
M  V30 7298 C 686.16 -0.335379 -5.72418 0
M  V30 7299 N 685.656 -0.550355 -6.90611 0
M  V30 7300 N 687.449 -0.272641 -5.61438 0
M  V30 7301 H 679.6 -1.09116 -1.82229 0
M  V30 7302 H 681.863 -0.432311 -0.843689 0
M  V30 7303 H 681.569 -1.05453 -3.35518 0
M  V30 7304 H 681.443 0.658508 -3.71407 0
M  V30 7305 H 683.83 0.991009 -2.77962 0
M  V30 7306 H 683.911 -0.744992 -2.44711 0
M  V30 7307 H 683.555 -1.2148 -4.93158 0
M  V30 7308 H 683.485 0.5387 -5.23837 0
M  V30 7309 H 685.976 -0.0170923 -3.77896 0
M  V30 7310 H 686.289 -0.660116 -7.69976 0
M  V30 7311 H 684.634 -0.586736 -6.92519 0
M  V30 7312 H 687.825 -0.105421 -4.67981 0
M  V30 7313 H 687.998 -0.398418 -6.46774 0
M  V30 7314 N 681.404 1.57128 0.121893 0
M  V30 7315 C 682.334 2.03165 1.15092 0
M  V30 7316 C 683.315 0.915587 1.43356 0
M  V30 7317 O 684.5 1.1851 1.53847 0
M  V30 7318 C 681.63 2.43352 2.47784 0
M  V30 7319 C 680.584 3.58376 2.33989 0
M  V30 7320 C 679.91 3.84454 3.71617 0
M  V30 7321 C 681.21 4.90199 1.80283 0
M  V30 7322 H 682.904 2.89382 0.768023 0
M  V30 7323 H 680.45 1.39218 0.367998 0
M  V30 7324 H 682.403 2.74163 3.20019 0
M  V30 7325 H 681.127 1.54103 2.87958 0
M  V30 7326 H 679.786 3.2777 1.64202 0
M  V30 7327 H 679.434 2.92414 4.09271 0
M  V30 7328 H 679.134 4.61877 3.6324 0
M  V30 7329 H 680.658 4.17714 4.45362 0
M  V30 7330 H 682.072 5.19565 2.42333 0
M  V30 7331 H 680.469 5.71601 1.82735 0
M  V30 7332 H 681.539 4.78904 0.760184 0
M  V30 7333 N 682.882 -0.391992 1.52647 0
M  V30 7334 C 683.812 -1.48517 1.8018 0
M  V30 7335 C 684.793 -1.57039 0.653667 0
M  V30 7336 O 685.978 -1.72036 0.900962 0
M  V30 7337 C 683.108 -2.86161 1.96797 0
M  V30 7338 C 682.062 -2.92481 3.12472 0
M  V30 7339 C 681.388 -4.32546 3.14338 0
M  V30 7340 C 682.688 -2.624 4.51601 0
M  V30 7341 H 684.382 -1.25726 2.71723 0
M  V30 7342 H 681.928 -0.603387 1.30749 0
M  V30 7343 H 683.881 -3.62639 2.14641 0
M  V30 7344 H 682.605 -3.10283 1.01941 0
M  V30 7345 H 681.264 -2.18451 2.94406 0
M  V30 7346 H 680.912 -4.53703 2.1717 0
M  V30 7347 H 680.612 -4.37695 3.92042 0
M  V30 7348 H 682.136 -5.10934 3.34333 0
M  V30 7349 H 683.55 -3.28596 4.69785 0
M  V30 7350 H 681.947 -2.78903 5.3135 0
M  V30 7351 H 683.017 -1.57754 4.58521 0
M  V30 7352 N 684.36 -1.4356 -0.65026 0
M  V30 7353 C 685.771 -1.40324 -1.2315 0
M  V30 7354 C 686.122 -0.108812 -1.95898 0
M  V30 7355 O 685.247 0.79163 -2.01401 0
M  V30 7356 C 685.842 -2.54195 -2.23987 0
M  V30 7357 C 684.401 -2.54215 -2.77582 0
M  V30 7358 C 683.548 -2.31752 -1.5227 0
M  V30 7359 H 686.499 -1.52418 -0.442095 0
M  V30 7360 H 686.52 -2.25854 -3.0622 0
M  V30 7361 H 686.032 -3.48392 -1.71011 0
M  V30 7362 H 684.133 -1.63907 -3.34612 0
M  V30 7363 H 684.246 -3.52081 -3.24925 0
M  V30 7364 H 682.61 -1.80476 -1.79723 0
M  V30 7365 H 683.393 -3.28037 -1.01225 0
M  V30 7366 N 685.838 0.888903 -1.30139 0
M  V30 7367 C 686.788 1.9814 -1.12803 0
M  V30 7368 C 687.772 1.60839 -0.0443137 0
M  V30 7369 O 688.964 1.74971 -0.267208 0
M  V30 7370 C 686.093 3.33416 -0.817849 0
M  V30 7371 C 685.179 3.77043 -1.94163 0
M  V30 7372 N 685.57 3.92805 -3.18651 0
M  V30 7373 C 683.868 4.06407 -1.8371 0
M  V30 7374 C 684.569 4.29746 -3.92038 0
M  V30 7375 N 683.545 4.3939 -3.20059 0
M  V30 7376 H 687.347 2.08411 -2.07225 0
M  V30 7377 H 684.861 1.07845 -1.21421 0
M  V30 7378 H 686.858 4.11405 -0.674668 0
M  V30 7379 H 685.518 3.24484 0.118344 0
M  V30 7380 H 686.529 3.78042 -3.53984 0
M  V30 7381 H 683.206 4.05972 -0.974331 0
M  V30 7382 H 684.596 4.49695 -4.99223 0
M  V30 7383 N 687.317 1.12792 1.10072 0
M  V30 7384 C 688.264 0.79921 2.16521 0
M  V30 7385 C 689.234 -0.235726 1.64419 0
M  V30 7386 O 690.419 -0.109457 1.90486 0
M  V30 7387 C 687.559 0.264091 3.44088 0
M  V30 7388 C 686.672 1.35729 4.10124 0
M  V30 7389 C 685.807 0.781212 5.25424 0
M  V30 7390 C 684.846 1.85327 5.8337 0
M  V30 7391 N 683.983 1.29564 6.90042 0
M  V30 7392 H 688.823 1.71105 2.43981 0
M  V30 7393 H 686.36 0.854225 1.19756 0
M  V30 7394 H 688.318 -0.0642423 4.17151 0
M  V30 7395 H 686.948 -0.610901 3.16967 0
M  V30 7396 H 686 1.80234 3.34993 0
M  V30 7397 H 687.312 2.16782 4.4923 0
M  V30 7398 H 686.466 0.403769 6.05355 0
M  V30 7399 H 685.205 -0.0604686 4.87663 0
M  V30 7400 H 684.21 2.23986 5.02106 0
M  V30 7401 H 685.435 2.69824 6.23195 0
M  V30 7402 H 683.381 0.475844 6.54272 0
M  V30 7403 H 683.298 2.04271 7.2788 0
M  V30 7404 H 684.566 0.945545 7.73744 0
M  V30 7405 N 688.795 -1.27931 0.920396 0
M  V30 7406 C 690.041 -1.94977 0.557832 0
M  V30 7407 C 690.374 -1.72224 -0.897365 0
M  V30 7408 O 689.649 -1.04705 -1.63912 0
M  V30 7409 C 689.932 -3.49289 0.875741 0
M  V30 7410 C 689.785 -3.81416 2.38416 0
M  V30 7411 C 691.104 -4.38486 0.376517 0
M  V30 7412 H 688.223 -0.708164 0.20414 0
M  V30 7413 H 690.865 -1.5118 1.15085 0
M  V30 7414 H 689.015 -3.86724 0.371062 0
M  V30 7415 H 690.687 -3.53813 2.95997 0
M  V30 7416 H 688.93 -3.28225 2.83639 0
M  V30 7417 H 689.601 -4.89198 2.55713 0
M  V30 7418 H 692.077 -4.08161 0.808945 0
M  V30 7419 H 690.953 -5.45296 0.627976 0
M  V30 7420 H 691.214 -4.36143 -0.723293 0
M  V30 7421 N 690.273 -0.685099 -1.4193 0
M  V30 7422 C 691.52 -0.211658 -2.01391 0
M  V30 7423 C 691.848 1.18526 -1.54214 0
M  V30 7424 O 691.103 1.81189 -0.739519 0
M  V30 7425 C 691.402 -0.206154 -3.56805 0
M  V30 7426 C 691.068 -1.54915 -4.23453 0
M  V30 7427 C 689.73 -1.91684 -4.41373 0
M  V30 7428 C 692.082 -2.43317 -4.60919 0
M  V30 7429 C 689.41 -3.16461 -4.94034 0
M  V30 7430 C 691.762 -3.67415 -5.14965 0
M  V30 7431 C 690.426 -4.04341 -5.31098 0
M  V30 7432 H 689.696 -0.0774511 -0.736941 0
M  V30 7433 H 692.343 -0.882121 -1.69973 0
M  V30 7434 H 690.648 0.547841 -3.87951 0
M  V30 7435 H 692.345 0.17753 -4.00607 0
M  V30 7436 H 688.935 -1.25314 -4.09871 0
M  V30 7437 H 693.119 -2.16192 -4.46738 0
M  V30 7438 H 688.375 -3.45078 -5.04709 0
M  V30 7439 H 692.549 -4.3611 -5.42938 0
M  V30 7440 H 690.176 -5.01101 -5.71666 0
M  V30 7441 N 691.751 1.51645 -0.429126 0
M  V30 7442 C 692.661 2.31288 0.392809 0
M  V30 7443 C 693.677 1.39852 1.03525 0
M  V30 7444 O 694.853 1.72926 1.03241 0
M  V30 7445 C 691.918 3.13347 1.48372 0
M  V30 7446 C 690.979 4.20551 0.862268 0
M  V30 7447 C 690.212 4.98688 1.9012 0
M  V30 7448 O 690.435 4.77359 3.12225 0
M  V30 7449 O 689.369 5.83005 1.4963 0
M  V30 7450 H 693.195 3.02609 -0.257138 0
M  V30 7451 H 690.78 1.48163 -0.191851 0
M  V30 7452 H 692.662 3.64387 2.1166 0
M  V30 7453 H 691.337 2.44799 2.1179 0
M  V30 7454 H 690.244 3.73609 0.191568 0
M  V30 7455 H 691.577 4.91449 0.271704 0
M  V30 7456 N 693.229 0.160201 1.56784 0
M  V30 7457 C 694.477 -0.486625 1.96154 0
M  V30 7458 C 694.798 -1.64525 1.04673 0
M  V30 7459 O 694.068 -1.95586 0.110864 0
M  V30 7460 H 692.648 -0.182764 0.724297 0
M  V30 7461 H 695.31 0.238787 1.93432 0
M  V30 7462 H 694.406 -0.854025 3.00188 0
M  V30 7463 N 694.707 -1.5719 -0.113559 0
M  V30 7464 C 695.655 -2.01725 -1.158 0
M  V30 7465 C 696.649 -0.915105 -1.42556 0
M  V30 7466 O 697.855 -1.10031 -1.42454 0
M  V30 7467 H 694.23 -0.64262 -0.390569 0
M  V30 7468 H 696.201 -2.88666 -0.755926 0
M  V30 7469 C 694.95 -2.44203 -2.47507 0
M  V30 7470 H 694.273 -3.28582 -2.27758 0
M  V30 7471 H 695.713 -2.79158 -3.19135 0
M  V30 7472 C 694.172 -1.30785 -3.10478 0
M  V30 7473 O 694.702 -0.626807 -3.9678 0
M  V30 7474 N 692.908 -1.06352 -2.7044 0
M  V30 7475 H 692.455 -1.61913 -2.00355 0
M  V30 7476 H 692.413 -0.306614 -3.12901 0
M  V30 7477 N 696.185 0.383891 -1.52853 0
M  V30 7478 C 697.601 0.724316 -1.42218 0
M  V30 7479 C 697.801 1.93943 -0.546654 0
M  V30 7480 O 696.857 2.5249 -0.0220562 0
M  V30 7481 C 698.17 0.954635 -2.85144 0
M  V30 7482 C 699.718 1.05579 -2.94656 0
M  V30 7483 C 700.193 1.3187 -4.38605 0
M  V30 7484 N 701.684 1.38681 -4.41952 0
M  V30 7485 C 702.419 1.60699 -5.50421 0
M  V30 7486 N 701.915 1.80154 -6.68967 0
M  V30 7487 N 703.708 1.6292 -5.37972 0
M  V30 7488 H 695.859 -0.4156 -2.08294 0
M  V30 7489 H 698.122 -0.123776 -0.939885 0
M  V30 7490 H 697.828 0.133829 -3.51445 0
M  V30 7491 H 697.702 1.86788 -3.27704 0
M  V30 7492 H 700.089 1.86716 -2.2852 0
M  V30 7493 H 700.17 0.120338 -2.55517 0
M  V30 7494 H 699.814 0.512416 -5.05309 0
M  V30 7495 H 699.744 2.26708 -4.75301 0
M  V30 7496 H 702.235 1.25334 -3.56511 0
M  V30 7497 H 702.548 1.96476 -7.47407 0
M  V30 7498 H 700.893 1.77368 -6.71986 0
M  V30 7499 H 704.084 1.47276 -4.44328 0
M  V30 7500 H 704.257 1.79739 -6.22574 0
M  V30 7501 N 697.663 1.43903 0.642637 0
M  V30 7502 C 699.074 1.40975 1.22404 0
M  V30 7503 C 699.425 0.1192 1.95838 0
M  V30 7504 O 698.55 -0.780939 2.01818 0
M  V30 7505 C 699.145 2.5538 2.22636 0
M  V30 7506 C 697.704 2.55684 2.76229 0
M  V30 7507 C 696.851 2.32556 1.51039 0
M  V30 7508 H 699.802 1.5265 0.434006 0
M  V30 7509 H 699.823 2.27474 3.05017 0
M  V30 7510 H 699.335 3.49294 1.69161 0
M  V30 7511 H 697.436 1.65679 3.33738 0
M  V30 7512 H 697.549 3.53799 3.23053 0
M  V30 7513 H 695.913 1.81427 1.78764 0
M  V30 7514 H 696.696 3.28569 0.99484 0
M  V30 7515 N 699.141 -0.881989 1.30609 0
M  V30 7516 C 700.369 -1.66711 1.22536 0
M  V30 7517 C 700.784 -1.87614 -0.2113 0
M  V30 7518 O 700.141 -1.42576 -1.13923 0
M  V30 7519 C 700.192 -3.04182 1.95335 0
M  V30 7520 O 699.913 -2.8422 3.33393 0
M  V30 7521 C 701.414 -3.98617 1.93956 0
M  V30 7522 H 698.634 -0.520124 0.423925 0
M  V30 7523 H 701.178 -1.10174 1.72285 0
M  V30 7524 H 699.333 -3.57442 1.49378 0
M  V30 7525 H 699.747 -3.71452 3.70302 0
M  V30 7526 H 701.221 -4.92433 2.49426 0
M  V30 7527 H 701.698 -4.29473 0.919198 0
M  V30 7528 H 702.304 -3.51292 2.39738 0
M  V30 7529 N 700.619 -1.13374 -1.09472 0
M  V30 7530 C 701.567 -0.806105 -2.18185 0
M  V30 7531 C 702.561 0.21136 -1.68076 0
M  V30 7532 O 703.767 0.0685558 -1.79869 0
M  V30 7533 H 700.142 -0.242901 -0.71169 0
M  V30 7534 H 702.113 -1.73115 -2.43051 0
M  V30 7535 C 700.862 -0.287928 -3.46506 0
M  V30 7536 H 700.185 -1.06217 -3.85432 0
M  V30 7537 H 701.625 -0.0971054 -4.23889 0
M  V30 7538 C 700.084 0.986256 -3.22141 0
M  V30 7539 O 700.614 2.06217 -3.44728 0
M  V30 7540 N 698.82 0.917153 -2.75747 0
M  V30 7541 H 698.367 0.0414609 -2.57567 0
M  V30 7542 H 698.325 1.77029 -2.59823 0
M  V30 7543 N 702.098 1.27442 -0.927168 0
M  V30 7544 C 703.323 1.99036 -0.583042 0
M  V30 7545 C 703.748 1.68711 0.83176 0
M  V30 7546 O 703.106 0.927081 1.55804 0
M  V30 7547 C 703.154 3.51271 -0.814925 0
M  V30 7548 O 702.258 4.12226 0.119742 0
M  V30 7549 H 701.599 0.624883 -0.224538 0
M  V30 7550 H 704.129 1.62263 -1.24628 0
M  V30 7551 H 704.139 4.01411 -0.730282 0
M  V30 7552 H 702.814 3.72676 -1.84623 0
M  V30 7553 H 701.391 3.72897 -0.0147688 0
M  V30 7554 N 703.576 0.692616 1.41565 0
M  V30 7555 C 704.825 0.219452 2.00503 0
M  V30 7556 C 705.138 -1.18683 1.55479 0
M  V30 7557 O 706.344 -1.75731 2.06956 0
M  V30 7558 C 704.8 0.341451 3.58277 0
M  V30 7559 C 704.408 1.75291 4.12283 0
M  V30 7560 C 706.152 -0.0720899 4.24439 0
M  V30 7561 C 704.059 1.82673 5.62481 0
M  V30 7562 H 702.989 0.0782874 0.749925 0
M  V30 7563 H 705.64 0.860386 1.62079 0
M  V30 7564 H 704.022 -0.367683 3.94289 0
M  V30 7565 H 705.196 2.49057 3.87695 0
M  V30 7566 H 703.511 2.11587 3.58636 0
M  V30 7567 H 706.108 -0.0373385 5.34687 0
M  V30 7568 H 706.451 -1.11034 4.0122 0
M  V30 7569 H 706.984 0.586663 3.9345 0
M  V30 7570 H 703.723 2.84539 5.90523 0
M  V30 7571 H 703.243 1.13288 5.89004 0
M  V30 7572 H 704.922 1.58827 6.27203 0
M  V30 7573 N 705.054 -1.51416 0.437162 0
M  V30 7574 C 706.3 -2.02386 -0.129555 0
M  V30 7575 C 706.633 -1.32071 -1.42376 0
M  V30 7576 O 705.908 -0.43559 -1.8956 0
M  V30 7577 C 706.191 -3.5841 -0.348487 0
M  V30 7578 C 706.044 -4.39341 0.964352 0
M  V30 7579 C 707.363 -4.25654 -1.11834 0
M  V30 7580 H 704.482 -0.735587 -0.0456109 0
M  V30 7581 H 707.124 -1.81055 0.576124 0
M  V30 7582 H 705.274 -3.76716 -0.949592 0
M  V30 7583 H 706.946 -4.32685 1.59942 0
M  V30 7584 H 705.189 -4.04432 1.56898 0
M  V30 7585 H 705.86 -5.4667 0.765212 0
M  V30 7586 H 708.336 -4.11617 -0.609165 0
M  V30 7587 H 707.212 -5.34704 -1.24029 0
M  V30 7588 H 707.473 -3.86502 -2.14636 0
M  V30 7589 N 706.532 -0.168513 -1.56696 0
M  V30 7590 C 707.779 0.477158 -1.96798 0
M  V30 7591 C 708.107 1.63442 -1.05437 0
M  V30 7592 O 707.362 1.95503 -0.0878903 0
M  V30 7593 C 707.661 1.00441 -3.42996 0
M  V30 7594 C 707.327 -0.0366556 -4.50885 0
M  V30 7595 C 705.989 -0.322785 -4.80116 0
M  V30 7596 C 708.341 -0.743447 -5.1587 0
M  V30 7597 C 705.669 -1.32114 -5.71632 0
M  V30 7598 C 708.021 -1.73077 -6.08463 0
M  V30 7599 C 706.685 -2.02437 -6.36062 0
M  V30 7600 H 705.955 0.174604 -0.720135 0
M  V30 7601 H 708.602 -0.259884 -1.89728 0
M  V30 7602 H 706.907 1.81922 -3.47004 0
M  V30 7603 H 708.604 1.51294 -3.71364 0
M  V30 7604 H 705.194 0.196532 -4.28149 0
M  V30 7605 H 709.378 -0.535602 -4.93401 0
M  V30 7606 H 704.634 -1.55482 -5.913 0
M  V30 7607 H 708.808 -2.28382 -6.57886 0
M  V30 7608 H 706.435 -2.79946 -7.06777 0
M  V30 7609 N 708.01 1.57248 0.105221 0
M  V30 7610 C 709.238 1.89768 0.82437 0
M  V30 7611 C 709.653 0.761192 1.72775 0
M  V30 7612 O 709.01 -0.267342 1.80531 0
M  V30 7613 C 709.061 3.2184 1.64625 0
M  V30 7614 O 708.782 4.31115 0.779217 0
M  V30 7615 C 710.283 3.68155 2.46935 0
M  V30 7616 H 707.503 0.628031 0.236259 0
M  V30 7617 H 710.047 2.04321 0.085485 0
M  V30 7618 H 708.202 3.08915 2.33775 0
M  V30 7619 H 708.616 5.06897 1.34745 0
M  V30 7620 H 710.09 4.6329 3.00111 0
M  V30 7621 H 710.567 2.95492 3.24932 0
M  V30 7622 H 711.173 3.83914 1.83002 0
M  V30 7623 N 709.488 -0.375779 1.53054 0
M  V30 7624 C 710.435 -1.45978 1.78771 0
M  V30 7625 C 711.405 -1.53625 0.631552 0
M  V30 7626 O 712.59 -1.69674 0.872667 0
M  V30 7627 C 709.73 -2.8305 1.97425 0
M  V30 7628 C 708.843 -2.84451 3.25134 0
M  V30 7629 C 707.978 -4.13034 3.34031 0
M  V30 7630 C 707.017 -4.08536 4.55812 0
M  V30 7631 N 706.154 -5.2875 4.61918 0
M  V30 7632 H 710.994 -1.23349 2.71273 0
M  V30 7633 H 708.531 -0.598147 1.3439 0
M  V30 7634 H 710.489 -3.62666 2.06225 0
M  V30 7635 H 709.119 -3.04101 1.0827 0
M  V30 7636 H 708.171 -1.97127 3.25338 0
M  V30 7637 H 709.483 -2.76998 4.14818 0
M  V30 7638 H 708.637 -5.0106 3.42087 0
M  V30 7639 H 707.376 -4.23226 2.42345 0
M  V30 7640 H 706.381 -3.18897 4.47867 0
M  V30 7641 H 707.606 -3.99955 5.48828 0
M  V30 7642 H 705.552 -5.39547 3.73129 0
M  V30 7643 H 705.469 -5.23426 5.45492 0
M  V30 7644 H 706.737 -6.18637 4.74245 0
M  V30 7645 N 710.966 -1.44241 -0.634997 0
M  V30 7646 C 711.896 -1.53632 -1.7584 0
M  V30 7647 C 712.877 -0.389603 -1.65578 0
M  V30 7648 O 714.062 -0.609219 -1.84397 0
M  V30 7649 C 711.192 -1.47644 -3.14354 0
M  V30 7650 C 710.146 -2.60752 -3.394 0
M  V30 7651 C 709.472 -2.39817 -4.77904 0
M  V30 7652 C 710.772 -4.02921 -3.32343 0
M  V30 7653 H 712.466 -2.47662 -1.68238 0
M  V30 7654 H 710.012 -1.19197 -0.807969 0
M  V30 7655 H 711.965 -1.52815 -3.92716 0
M  V30 7656 H 710.689 -0.501284 -3.2273 0
M  V30 7657 H 709.348 -2.54965 -2.63417 0
M  V30 7658 H 708.996 -1.40502 -4.82978 0
M  V30 7659 H 708.696 -3.15649 -4.9562 0
M  V30 7660 H 710.22 -2.46799 -5.585 0
M  V30 7661 H 711.634 -4.10098 -4.00615 0
M  V30 7662 H 710.031 -4.78925 -3.61595 0
M  V30 7663 H 711.101 -4.26766 -2.30215 0
M  V30 7664 N 712.444 0.87505 -1.31075 0
M  V30 7665 C 713.672 1.66058 -1.23419 0
M  V30 7666 C 714.087 1.87723 0.201347 0
M  V30 7667 O 713.444 1.43178 1.13165 0
M  V30 7668 C 713.495 3.03142 -1.96945 0
M  V30 7669 O 713.216 2.82448 -3.34895 0
M  V30 7670 C 714.717 3.97583 -1.96067 0
M  V30 7671 H 711.937 0.517868 -0.426677 0
M  V30 7672 H 714.481 1.09258 -1.72867 0
M  V30 7673 H 712.636 3.56645 -1.51271 0
M  V30 7674 H 713.05 3.69483 -3.72267 0
M  V30 7675 H 714.524 4.91104 -2.52034 0
M  V30 7676 H 715.001 4.2898 -0.941961 0
M  V30 7677 H 715.607 3.50015 -2.41597 0
M  V30 7678 N 713.922 1.13953 1.08869 0
M  V30 7679 C 715.333 0.916649 1.62648 0
M  V30 7680 C 715.684 -0.545589 1.88462 0
M  V30 7681 O 714.809 -1.41351 1.63856 0
M  V30 7682 C 715.404 1.65751 2.95486 0
M  V30 7683 C 713.963 1.48034 3.46068 0
M  V30 7684 C 713.11 1.68305 2.20383 0
M  V30 7685 H 716.061 1.292 0.921572 0
M  V30 7686 H 716.082 1.11794 3.63707 0
M  V30 7687 H 715.594 2.72171 2.76667 0
M  V30 7688 H 713.695 0.439416 3.7 0
M  V30 7689 H 713.808 2.24719 4.23129 0
M  V30 7690 H 712.172 1.10833 2.29321 0
M  V30 7691 H 712.955 2.76057 2.04077 0
M  V30 7692 N 715.4 -1.26948 0.933913 0
M  V30 7693 C 716.647 -1.94087 0.577625 0
M  V30 7694 C 716.975 -1.73345 -0.88214 0
M  V30 7695 O 716.23 -1.05945 -1.64542 0
M  V30 7696 C 716.529 -3.46963 0.857406 0
M  V30 7697 C 716.195 -3.87834 2.2999 0
M  V30 7698 C 714.857 -3.98704 2.69423 0
M  V30 7699 C 717.209 -4.08442 3.23766 0
M  V30 7700 C 714.537 -4.27573 4.01744 0
M  V30 7701 C 716.889 -4.38798 4.55675 0
M  V30 7702 C 715.553 -4.47881 4.94934 0
M  V30 7703 H 714.823 -0.710215 0.211368 0
M  V30 7704 H 717.47 -1.50899 1.17905 0
M  V30 7705 H 715.775 -3.91416 0.173369 0
M  V30 7706 H 717.472 -3.97062 0.560615 0
M  V30 7707 H 714.062 -3.79916 1.98399 0
M  V30 7708 H 718.246 -3.99479 2.94499 0
M  V30 7709 H 713.502 -4.32815 4.31834 0
M  V30 7710 H 717.676 -4.5369 5.28335 0
M  V30 7711 H 715.303 -4.70005 5.97495 0
M  V30 7712 N 716.879 -0.700114 -1.41195 0
M  V30 7713 C 717.812 0.0129614 -2.28196 0
M  V30 7714 C 718.79 0.783367 -1.42486 0
M  V30 7715 O 719.974 0.773238 -1.71911 0
M  V30 7716 C 717.101 1.02575 -3.22794 0
M  V30 7717 C 716.147 0.347977 -4.25078 0
M  V30 7718 S 716.98 -0.912938 -5.27661 0
M  V30 7719 C 718.136 0.0981362 -6.25823 0
M  V30 7720 H 718.369 -0.724927 -2.88326 0
M  V30 7721 H 715.902 -0.490554 -1.464 0
M  V30 7722 H 717.86 1.60491 -3.77826 0
M  V30 7723 H 716.521 1.73624 -2.61751 0
M  V30 7724 H 715.714 1.11305 -4.91556 0
M  V30 7725 H 715.316 -0.15823 -3.73665 0
M  V30 7726 H 717.608 0.949965 -6.70807 0
M  V30 7727 H 718.551 -0.532838 -7.06092 0
M  V30 7728 H 718.959 0.454944 -5.62664 0
M  V30 7729 N 718.357 1.51182 -0.445186 0
M  V30 7730 C 719.287 2.30821 0.352686 0
M  V30 7731 C 720.268 1.36576 1.01395 0
M  V30 7732 O 721.453 1.65497 1.01609 0
M  V30 7733 C 718.583 3.15593 1.44976 0
M  V30 7734 C 717.537 4.1818 0.911553 0
M  V30 7735 C 716.863 4.91523 2.10497 0
M  V30 7736 C 718.163 5.22266 -0.059418 0
M  V30 7737 H 719.857 2.97771 -0.311936 0
M  V30 7738 H 717.403 1.43201 -0.151461 0
M  V30 7739 H 719.356 3.70091 2.01521 0
M  V30 7740 H 718.08 2.4648 2.14278 0
M  V30 7741 H 716.739 3.64746 0.368264 0
M  V30 7742 H 716.387 4.18906 2.78437 0
M  V30 7743 H 716.087 5.60898 1.7512 0
M  V30 7744 H 717.611 5.48847 2.6758 0
M  V30 7745 H 719.025 5.71789 0.415985 0
M  V30 7746 H 717.422 5.99213 -0.326152 0
M  V30 7747 H 718.492 4.7461 -0.993631 0
M  V30 7748 N 719.835 0.176821 1.56605 0
M  V30 7749 C 721.083 -0.465793 1.96659 0
M  V30 7750 C 721.404 -1.63406 1.06412 0
M  V30 7751 O 720.674 -1.95457 0.131603 0
M  V30 7752 H 719.254 -0.175072 0.726195 0
M  V30 7753 H 721.916 0.25929 1.93168 0
M  V30 7754 H 721.012 -0.822138 3.01077 0
M  V30 7755 N 721.313 -1.57302 -0.09688 0
M  V30 7756 C 722.276 -2.00976 -1.10188 0
M  V30 7757 C 723.276 -0.903009 -1.3305 0
M  V30 7758 O 724.466 -1.16853 -1.29194 0
M  V30 7759 C 721.598 -2.36893 -2.45142 0
M  V30 7760 H 722.791 -2.9098 -0.726003 0
M  V30 7761 H 720.344 -1.52515 -0.341872 0
M  V30 7762 H 721.079 -1.49837 -2.8761 0
M  V30 7763 H 720.864 -3.17632 -2.29897 0
M  V30 7764 H 722.354 -2.71345 -3.1743 0
M  V30 7765 N 722.791 0.367657 -1.53252 0
M  V30 7766 C 723.721 1.45632 -1.8252 0
M  V30 7767 C 724.702 1.55979 -0.678568 0
M  V30 7768 O 725.887 1.70581 -0.928217 0
M  V30 7769 C 723.017 2.82994 -2.01325 0
M  V30 7770 C 721.971 2.87473 -3.17086 0
M  V30 7771 C 721.297 4.2749 -3.21179 0
M  V30 7772 C 722.597 2.55182 -4.55719 0
M  V30 7773 H 724.291 1.21387 -2.73689 0
M  V30 7774 H 721.837 0.58251 -1.31692 0
M  V30 7775 H 723.79 3.59179 -2.20383 0
M  V30 7776 H 722.514 3.08622 -1.06864 0
M  V30 7777 H 721.173 2.13739 -2.97844 0
M  V30 7778 H 720.821 4.5019 -2.24361 0
M  V30 7779 H 720.521 4.31403 -3.98955 0
M  V30 7780 H 722.045 5.0555 -3.42419 0
M  V30 7781 H 723.459 3.21081 -4.74953 0
M  V30 7782 H 721.856 2.70414 -5.3572 0
M  V30 7783 H 722.926 1.5044 -4.60973 0
M  V30 7784 N 724.269 1.44576 0.627338 0
M  V30 7785 C 725.515 1.47777 1.38888 0
M  V30 7786 C 725.848 0.111406 1.9388 0
M  V30 7787 O 725.123 -0.87149 1.73883 0
M  V30 7788 C 725.406 2.54119 2.55138 0
M  V30 7789 C 725.259 4.00128 2.0547 0
M  V30 7790 C 726.578 2.56929 3.57317 0
M  V30 7791 H 723.697 0.538048 0.50366 0
M  V30 7792 H 726.339 1.76277 0.708978 0
M  V30 7793 H 724.489 2.29948 3.13139 0
M  V30 7794 H 726.161 4.35444 1.5227 0
M  V30 7795 H 724.404 4.11724 1.36623 0
M  V30 7796 H 725.075 4.7019 2.89181 0
M  V30 7797 H 727.551 2.78536 3.09122 0
M  V30 7798 H 726.427 3.33234 4.36173 0
M  V30 7799 H 726.688 1.6127 4.11636 0
M  V30 7800 N 725.747 -0.868086 1.31537 0
M  V30 7801 C 726.71 -1.95703 1.19302 0
M  V30 7802 C 727.71 -1.60355 0.119612 0
M  V30 7803 O 728.9 -1.70247 0.36902 0
M  V30 7804 C 726.032 -3.30599 0.831684 0
M  V30 7805 H 727.225 -2.07982 2.16064 0
M  V30 7806 H 724.778 -1.05661 1.15176 0
M  V30 7807 H 725.513 -3.2402 -0.134694 0
M  V30 7808 H 725.298 -3.57629 1.60761 0
M  V30 7809 H 726.788 -4.10439 0.770026 0
M  V30 7810 N 727.225 -1.14528 -1.08264 0
M  V30 7811 C 728.158 -0.777154 -2.14559 0
M  V30 7812 C 729.136 0.242165 -1.60787 0
M  V30 7813 O 730.32 0.130882 -1.88045 0
M  V30 7814 C 727.447 -0.154092 -3.38349 0
M  V30 7815 C 726.493 -1.14382 -4.10876 0
M  V30 7816 S 727.326 -2.68173 -4.63512 0
M  V30 7817 C 728.482 -2.0726 -5.90588 0
M  V30 7818 H 728.715 -1.67748 -2.45454 0
M  V30 7819 H 726.248 -0.966661 -1.20395 0
M  V30 7820 H 728.206 0.19897 -4.10018 0
M  V30 7821 H 726.867 0.723688 -3.05649 0
M  V30 7822 H 726.06 -0.655908 -4.99714 0
M  V30 7823 H 725.662 -1.44095 -3.45127 0
M  V30 7824 H 727.954 -1.42895 -6.62259 0
M  V30 7825 H 728.897 -2.94227 -6.44078 0
M  V30 7826 H 729.305 -1.51935 -5.43669 0
M  V30 7827 N 728.703 1.26451 -0.940633 0
M  V30 7828 C 729.933 1.97581 -0.603766 0
M  V30 7829 C 730.341 1.70246 0.825395 0
M  V30 7830 O 729.684 0.967001 1.56188 0
M  V30 7831 C 729.746 3.51256 -0.765463 0
M  V30 7832 C 729.41 4.0224 -2.16915 0
M  V30 7833 C 730.407 4.1402 -3.14457 0
M  V30 7834 C 728.092 4.36263 -2.48958 0
M  V30 7835 C 730.086 4.59117 -4.42143 0
M  V30 7836 C 727.773 4.81048 -3.76877 0
M  V30 7837 C 728.771 4.92436 -4.73282 0
M  V30 7838 O 728.459 5.36234 -5.98923 0
M  V30 7839 H 728.191 0.636948 -0.226436 0
M  V30 7840 H 730.745 1.61941 -1.2635 0
M  V30 7841 H 728.975 3.86669 -0.0485956 0
M  V30 7842 H 730.664 4.03597 -0.431738 0
M  V30 7843 H 731.43 3.87981 -2.91026 0
M  V30 7844 H 727.309 4.26634 -1.74656 0
M  V30 7845 H 730.853 4.6792 -5.17394 0
M  V30 7846 H 726.75 5.06531 -4.00121 0
M  V30 7847 H 727.518 5.54456 -6.02097 0
M  V30 7848 N 730.181 0.707592 1.40822 0
M  V30 7849 C 731.091 0.0507246 2.34545 0
M  V30 7850 C 732.107 -0.752727 1.56876 0
M  V30 7851 O 733.283 -0.687524 1.89302 0
M  V30 7852 C 730.348 -0.865731 3.35717 0
M  V30 7853 C 729.409 -0.0531313 4.29267 0
M  V30 7854 C 728.642 -0.925939 5.25606 0
M  V30 7855 O 728.865 -2.16531 5.27703 0
M  V30 7856 O 727.799 -0.369194 6.00767 0
M  V30 7857 H 731.625 0.823587 2.9232 0
M  V30 7858 H 729.21 0.46801 1.4188 0
M  V30 7859 H 731.092 -1.39091 3.97783 0
M  V30 7860 H 729.767 -1.61788 2.80368 0
M  V30 7861 H 728.674 0.516931 3.70511 0
M  V30 7862 H 730.007 0.660617 4.87747 0
M  V30 7863 N 731.66 -1.50943 0.453197 0
M  V30 7864 C 732.61 -2.25003 -0.368467 0
M  V30 7865 C 733.594 -1.27864 -0.976714 0
M  V30 7866 O 734.786 -1.52867 -0.892228 0
M  V30 7867 C 731.915 -3.10701 -1.46014 0
M  V30 7868 C 731.001 -4.15278 -0.860506 0
M  V30 7869 N 731.392 -5.05799 0.00849611 0
M  V30 7870 C 729.69 -4.31542 -1.1264 0
M  V30 7871 C 730.391 -5.80664 0.346951 0
M  V30 7872 N 729.367 -5.42912 -0.273426 0
M  V30 7873 H 733.169 -2.92352 0.301246 0
M  V30 7874 H 730.683 -1.60203 0.266233 0
M  V30 7875 H 732.68 -3.62348 -2.06179 0
M  V30 7876 H 731.34 -2.44898 -2.13202 0
M  V30 7877 H 732.351 -5.16533 0.376077 0
M  V30 7878 H 729.028 -3.76962 -1.7946 0
M  V30 7879 H 730.418 -6.63565 1.05507 0
M  V30 7880 N 733.138 -0.185124 -1.56509 0
M  V30 7881 C 734.085 0.739729 -2.18624 0
M  V30 7882 C 735.055 1.217 -1.13042 0
M  V30 7883 O 736.24 1.28268 -1.41251 0
M  V30 7884 C 733.38 1.95787 -2.84186 0
M  V30 7885 C 732.493 1.52289 -4.04267 0
M  V30 7886 C 731.628 2.69576 -4.57714 0
M  V30 7887 C 730.667 2.22636 -5.70175 0
M  V30 7888 N 729.804 3.33065 -6.18071 0
M  V30 7889 H 734.644 0.203269 -2.97306 0
M  V30 7890 H 732.181 0.0885946 -1.46833 0
M  V30 7891 H 734.139 2.67253 -3.20361 0
M  V30 7892 H 732.769 2.4678 -2.08085 0
M  V30 7893 H 731.821 0.704458 -3.7382 0
M  V30 7894 H 733.133 1.13843 -4.85635 0
M  V30 7895 H 732.287 3.4918 -4.96143 0
M  V30 7896 H 731.026 3.1129 -3.75433 0
M  V30 7897 H 730.031 1.41483 -5.31284 0
M  V30 7898 H 731.256 1.81964 -6.54267 0
M  V30 7899 H 729.202 3.74328 -5.38715 0
M  V30 7900 H 729.119 2.98756 -6.94464 0
M  V30 7901 H 730.387 4.12912 -6.61153 0
M  V30 7902 N 734.616 1.57351 0.0885366 0
M  V30 7903 C 735.865 1.85604 0.789556 0
M  V30 7904 C 736.178 0.775352 1.79576 0
M  V30 7905 O 737.384 0.945206 2.54515 0
M  V30 7906 C 735.84 3.29175 1.45506 0
M  V30 7907 C 735.448 4.45331 0.488278 0
M  V30 7908 C 737.192 3.66646 2.13942 0
M  V30 7909 C 735.099 5.79937 1.15874 0
M  V30 7910 H 734.029 0.692346 0.298619 0
M  V30 7911 H 736.68 1.83451 0.0425821 0
M  V30 7912 H 735.062 3.25889 2.24972 0
M  V30 7913 H 736.236 4.59977 -0.275359 0
M  V30 7914 H 734.551 4.16301 -0.0907363 0
M  V30 7915 H 737.148 4.64498 2.6485 0
M  V30 7916 H 737.491 2.956 2.93132 0
M  V30 7917 H 738.024 3.71848 1.41328 0
M  V30 7918 H 734.763 6.54232 0.407508 0
M  V30 7919 H 734.283 5.69123 1.89364 0
M  V30 7920 H 735.962 6.24718 1.68336 0
M  V30 7921 N 736.094 -0.359525 1.53444 0
M  V30 7922 C 737.341 -1.10152 1.6992 0
M  V30 7923 C 737.669 -1.89125 0.4541 0
M  V30 7924 O 736.924 -1.87396 -0.564023 0
M  V30 7925 C 737.223 -2.08287 2.90433 0
M  V30 7926 C 736.889 -1.45749 4.26694 0
M  V30 7927 C 735.551 -1.28421 4.63747 0
M  V30 7928 C 737.903 -1.00557 5.11408 0
M  V30 7929 C 735.231 -0.644951 5.83144 0
M  V30 7930 C 737.583 -0.380288 6.31456 0
M  V30 7931 C 736.247 -0.194557 6.67216 0
M  V30 7932 H 735.517 -0.403076 0.621781 0
M  V30 7933 H 738.164 -0.382612 1.87639 0
M  V30 7934 H 736.469 -2.86503 2.67251 0
M  V30 7935 H 738.166 -2.65662 3.00374 0
M  V30 7936 H 734.756 -1.6023 3.97523 0
M  V30 7937 H 738.94 -1.12735 4.83326 0
M  V30 7938 H 734.196 -0.48952 6.09437 0
M  V30 7939 H 738.37 -0.0219455 6.96397 0
M  V30 7940 H 735.997 0.30285 7.59597 0
M  V30 7941 N 737.572 -1.44907 -0.619662 0
M  V30 7942 C 738.818 -1.48512 -1.38102 0
M  V30 7943 C 739.151 -0.121686 -1.93818 0
M  V30 7944 O 738.426 0.862256 -1.74343 0
M  V30 7945 C 738.709 -2.55469 -2.53787 0
M  V30 7946 C 738.562 -4.01212 -2.03345 0
M  V30 7947 C 739.881 -2.58821 -3.55949 0
M  V30 7948 H 737 -0.540712 -0.500799 0
M  V30 7949 H 739.642 -1.7665 -0.69962 0
M  V30 7950 H 737.792 -2.31606 -3.11915 0
M  V30 7951 H 739.464 -4.36245 -1.49959 0
M  V30 7952 H 737.707 -4.12443 -1.34438 0
M  V30 7953 H 738.378 -4.71717 -2.86683 0
M  V30 7954 H 740.854 -2.80172 -3.07641 0
M  V30 7955 H 739.73 -3.35542 -4.34399 0
M  V30 7956 H 739.991 -1.63451 -4.10775 0
M  V30 7957 N 739.05 0.861098 -1.31996 0
M  V30 7958 C 739.982 1.97551 -1.16216 0
M  V30 7959 C 740.995 1.625 -0.0988527 0
M  V30 7960 O 742.184 1.75091 -0.3472 0
M  V30 7961 C 739.284 3.30376 -0.755307 0
M  V30 7962 C 738.457 3.93711 -1.90552 0
M  V30 7963 C 737.516 5.04862 -1.48328 0
M  V30 7964 O 736.542 5.25204 -2.19431 0
M  V30 7965 N 737.744 5.79283 -0.375656 0
M  V30 7966 H 740.509 2.11632 -2.12208 0
M  V30 7967 H 738.07 1.03559 -1.24448 0
M  V30 7968 H 740.062 4.0213 -0.455364 0
M  V30 7969 H 738.632 3.12395 0.113269 0
M  V30 7970 H 737.852 3.14825 -2.37231 0
M  V30 7971 H 739.14 4.32762 -2.67571 0
M  V30 7972 H 738.538 5.65286 0.216284 0
M  V30 7973 H 737.095 6.5166 -0.135289 0
M  V30 7974 N 740.528 1.15101 1.07655 0
M  V30 7975 C 741.776 0.922149 1.79836 0
M  V30 7976 C 742.097 -0.552346 1.87014 0
M  V30 7977 O 741.367 -1.40145 1.3688 0
M  V30 7978 H 739.947 0.338182 0.666064 0
M  V30 7979 H 742.609 1.45107 1.30115 0
M  V30 7980 H 741.705 1.32883 2.82398 0
M  V30 7981 N 742.006 -1.2595 0.947325 0
M  V30 7982 C 743.255 -1.92759 0.593887 0
M  V30 7983 C 743.568 -1.75083 -0.872093 0
M  V30 7984 O 744.774 -2.36401 -1.33518 0
M  V30 7985 C 743.23 -3.45395 1.01144 0
M  V30 7986 C 742.838 -3.71795 2.49946 0
M  V30 7987 C 744.582 -4.18173 0.730185 0
M  V30 7988 C 742.489 -5.17901 2.85539 0
M  V30 7989 H 741.419 -0.721676 0.218403 0
M  V30 7990 H 744.07 -1.4293 1.15079 0
M  V30 7991 H 742.452 -3.94143 0.383007 0
M  V30 7992 H 743.626 -3.33728 3.17746 0
M  V30 7993 H 741.941 -3.12263 2.75465 0
M  V30 7994 H 744.538 -5.25784 0.972367 0
M  V30 7995 H 744.881 -4.14964 -0.333223 0
M  V30 7996 H 745.414 -3.75309 1.31862 0
M  V30 7997 H 742.153 -5.26216 3.90867 0
M  V30 7998 H 741.673 -5.57042 2.22406 0
M  V30 7999 H 743.352 -5.8596 2.74336 0
M  V30 8000 N 743.484 -0.715051 -1.40445 0
M  V30 8001 C 744.733 -0.251322 -2.00128 0
M  V30 8002 C 745.046 1.16194 -1.57347 0
M  V30 8003 O 746.252 1.72416 -2.09726 0
M  V30 8004 C 744.708 -0.398407 -3.57688 0
M  V30 8005 C 744.316 -1.81828 -4.09442 0
M  V30 8006 C 746.06 0.00455625 -4.245 0
M  V30 8007 C 743.967 -1.91598 -5.59503 0
M  V30 8008 H 742.897 -0.0902081 -0.748584 0
M  V30 8009 H 745.548 -0.886062 -1.6069 0
M  V30 8010 H 743.93 0.304908 -3.94824 0
M  V30 8011 H 745.104 -2.55193 -3.83684 0
M  V30 8012 H 743.419 -2.17266 -3.55225 0
M  V30 8013 H 746.016 -0.0477303 -5.34679 0
M  V30 8014 H 746.359 1.04636 -4.02935 0
M  V30 8015 H 746.892 -0.649184 -3.92467 0
M  V30 8016 H 743.631 -2.93898 -5.85922 0
M  V30 8017 H 743.151 -1.22644 -5.87127 0
M  V30 8018 H 744.83 -1.68785 -6.24596 0
M  V30 8019 N 744.962 1.50701 -0.461195 0
M  V30 8020 C 746.208 2.03203 0.0895017 0
M  V30 8021 C 746.563 1.33768 1.38289 0
M  V30 8022 O 745.856 0.451304 1.86209 0
M  V30 8023 C 746.05 3.55788 0.33908 0
M  V30 8024 C 745.879 4.40009 -0.928571 0
M  V30 8025 C 744.649 4.83475 -1.46903 0
M  V30 8026 C 746.847 4.80972 -1.82129 0
M  V30 8027 N 744.829 5.51985 -2.68673 0
M  V30 8028 C 746.2 5.48792 -2.88491 0
M  V30 8029 C 748.255 4.62937 -1.83285 0
M  V30 8030 C 746.958 6.00489 -3.95987 0
M  V30 8031 C 748.984 5.15568 -2.89731 0
M  V30 8032 C 748.346 5.83355 -3.94812 0
M  V30 8033 H 744.445 0.781968 -0.00702462 0
M  V30 8034 H 747.029 1.84321 -0.627195 0
M  V30 8035 H 745.2 3.74636 1.02481 0
M  V30 8036 H 746.932 3.94944 0.883242 0
M  V30 8037 H 743.687 4.62495 -1.01959 0
M  V30 8038 H 744.111 5.90854 -3.30486 0
M  V30 8039 H 748.753 4.0997 -1.03366 0
M  V30 8040 H 746.471 6.52499 -4.7673 0
M  V30 8041 H 750.057 5.0345 -2.91597 0
M  V30 8042 H 748.937 6.23347 -4.75824 0
M  V30 8043 N 746.441 0.193421 1.56409 0
M  V30 8044 C 747.718 -0.493318 1.89277 0
M  V30 8045 C 748.098 -1.79765 1.10669 0
M  V30 8046 O 747.446 -2.27558 0.207274 0
M  V30 8047 C 747.656 -0.713732 3.41624 0
M  V30 8048 C 749.004 -1.03385 4.11821 0
M  V30 8049 O 750.028 -0.801511 3.47065 0
M  V30 8050 O 748.887 -1.47327 5.26267 0
M  V30 8051 H 745.981 -0.256973 0.786062 0
M  V30 8052 H 748.527 0.23351 1.68086 0
M  V30 8053 H 747.299 0.207446 3.9075 0
M  V30 8054 H 746.922 -1.49308 3.68501 0
M  V30 8055 N 747.919 -1.57396 -0.0801906 0
M  V30 8056 C 749.168 -1.8602 -0.779702 0
M  V30 8057 C 749.481 -0.784864 -1.79163 0
M  V30 8058 O 750.687 -0.958691 -2.54011 0
M  V30 8059 C 749.143 -3.29942 -1.43758 0
M  V30 8060 C 748.751 -4.45584 -0.464654 0
M  V30 8061 C 750.495 -3.67775 -2.11995 0
M  V30 8062 C 748.402 -5.80544 -1.12797 0
M  V30 8063 H 747.332 -0.69392 -0.294943 0
M  V30 8064 H 749.983 -1.83471 -0.0328527 0
M  V30 8065 H 748.365 -3.27078 -2.2324 0
M  V30 8066 H 749.539 -4.59824 0.299749 0
M  V30 8067 H 747.854 -4.16247 0.112813 0
M  V30 8068 H 750.451 -4.65896 -2.62383 0
M  V30 8069 H 750.794 -2.9715 -2.91561 0
M  V30 8070 H 751.327 -3.72593 -1.39354 0
M  V30 8071 H 748.066 -6.54439 -0.372807 0
M  V30 8072 H 747.586 -5.70119 -1.86344 0
M  V30 8073 H 749.265 -6.25602 -1.6502 0
M  V30 8074 N 749.397 0.351382 -1.53633 0
M  V30 8075 C 750.345 1.45142 -1.8176 0
M  V30 8076 C 751.339 1.54819 -0.687571 0
M  V30 8077 O 752.545 1.57536 -0.870772 0
M  V30 8078 H 748.92 0.483789 -0.575719 0
M  V30 8079 H 750.891 1.1863 -2.73806 0
M  V30 8080 C 749.64 2.81779 -2.03706 0
M  V30 8081 H 748.963 2.75097 -2.90107 0
M  V30 8082 H 750.403 3.5789 -2.27356 0
M  V30 8083 C 748.862 3.26762 -0.820271 0
M  V30 8084 O 749.392 4.01697 -0.0158603 0
M  V30 8085 N 747.598 2.83472 -0.639699 0
M  V30 8086 H 747.145 2.22655 -1.29547 0
M  V30 8087 H 747.103 3.13924 0.172995 0
M  V30 8088 N 750.875 1.45233 0.611969 0
M  V30 8089 C 752.1 1.52767 1.40274 0
M  V30 8090 C 752.525 0.159701 1.87421 0
M  V30 8091 O 751.883 -0.854837 1.59882 0
M  V30 8092 C 751.931 2.51286 2.58626 0
M  V30 8093 O 751.035 2.02764 3.59111 0
M  V30 8094 H 750.376 0.515141 0.418958 0
M  V30 8095 H 752.906 1.90547 0.745188 0
M  V30 8096 H 752.916 2.69949 3.05927 0
M  V30 8097 H 751.591 3.50641 2.23659 0
M  V30 8098 H 750.168 1.93957 3.18489 0
M  V30 8099 N 752.353 -0.854086 1.3245 0
M  V30 8100 C 753.6 -1.60831 1.23043 0
M  V30 8101 C 753.928 -1.93389 -0.2076 0
M  V30 8102 O 753.183 -1.5756 -1.16075 0
M  V30 8103 C 753.482 -2.93746 2.03587 0
M  V30 8104 C 753.148 -2.80615 3.52939 0
M  V30 8105 C 751.81 -2.76742 3.93659 0
M  V30 8106 C 754.162 -2.66507 4.4791 0
M  V30 8107 C 751.49 -2.56638 5.27592 0
M  V30 8108 C 753.842 -2.47939 5.81987 0
M  V30 8109 C 752.506 -2.42458 6.21909 0
M  V30 8110 H 751.776 -0.588523 0.450247 0
M  V30 8111 H 754.423 -0.990699 1.63882 0
M  V30 8112 H 752.728 -3.5963 1.55478 0
M  V30 8113 H 754.425 -3.51127 1.93677 0
M  V30 8114 H 751.015 -2.84456 3.20598 0
M  V30 8115 H 755.199 -2.68544 4.1737 0
M  V30 8116 H 750.455 -2.50831 5.57579 0
M  V30 8117 H 754.629 -2.36002 6.55192 0
M  V30 8118 H 752.256 -2.2664 7.2563 0
M  V30 8119 N 753.831 -1.1567 -1.07043 0
M  V30 8120 C 755.108 -0.843948 -1.76456 0
M  V30 8121 C 755.488 0.659806 -2.00524 0
M  V30 8122 O 754.836 1.60518 -1.62623 0
M  V30 8123 C 755.046 -1.65822 -3.0709 0
M  V30 8124 C 756.394 -1.8664 -3.8138 0
M  V30 8125 O 757.418 -1.62624 -3.1691 0
M  V30 8126 O 756.277 -2.26884 -4.97178 0
M  V30 8127 H 753.371 -0.310677 -0.766426 0
M  V30 8128 H 755.917 -1.26266 -1.1338 0
M  V30 8129 H 754.689 -2.67902 -2.85209 0
M  V30 8130 H 754.312 -1.23605 -3.77899 0
M  V30 8131 N 755.309 1.25446 -0.953992 0
M  V30 8132 C 756.241 2.25111 -0.431004 0
M  V30 8133 C 757.254 1.56377 0.452764 0
M  V30 8134 O 758.443 1.76579 0.261144 0
M  V30 8135 C 755.543 3.3655 0.39839 0
M  V30 8136 C 754.716 4.34843 -0.472229 0
M  V30 8137 C 753.775 5.25351 0.29886 0
M  V30 8138 O 752.801 5.68396 -0.302522 0
M  V30 8139 N 754.003 5.5824 1.59211 0
M  V30 8140 H 756.768 2.70619 -1.28785 0
M  V30 8141 H 754.329 1.39346 -0.824281 0
M  V30 8142 H 756.321 3.94059 0.921941 0
M  V30 8143 H 754.891 2.90436 1.15609 0
M  V30 8144 H 754.111 3.76222 -1.17689 0
M  V30 8145 H 755.399 4.97497 -1.06648 0
M  V30 8146 H 754.797 5.25172 2.10264 0
M  V30 8147 H 753.354 6.18336 2.06164 0
M  V30 8148 N 756.787 0.722489 1.40064 0
M  V30 8149 C 758.033 0.27422 2.01543 0
M  V30 8150 C 758.388 -1.12224 1.5628 0
M  V30 8151 O 757.681 -1.75179 0.776063 0
M  V30 8152 C 757.875 0.300682 3.56133 0
M  V30 8153 C 757.704 1.69818 4.16404 0
M  V30 8154 C 756.474 2.30747 4.49537 0
M  V30 8155 C 758.672 2.64962 4.40794 0
M  V30 8156 N 756.654 3.62781 4.9524 0
M  V30 8157 C 758.025 3.81712 4.88565 0
M  V30 8158 C 760.08 2.62885 4.22842 0
M  V30 8159 C 758.783 4.96703 5.20268 0
M  V30 8160 C 760.809 3.77009 4.55652 0
M  V30 8161 C 760.171 4.92492 5.03618 0
M  V30 8162 H 756.27 0.146328 0.768188 0
M  V30 8163 H 758.854 0.94577 1.70186 0
M  V30 8164 H 757.025 -0.340461 3.86905 0
M  V30 8165 H 758.757 -0.164951 4.04364 0
M  V30 8166 H 755.512 1.82783 4.36907 0
M  V30 8167 H 755.936 4.30533 5.22465 0
M  V30 8168 H 760.578 1.74803 3.84972 0
M  V30 8169 H 758.296 5.85425 5.57049 0
M  V30 8170 H 761.882 3.76685 4.43396 0
M  V30 8171 H 760.762 5.79336 5.28525 0
M  V30 8172 N 758.265 -1.50454 0.469181 0
M  V30 8173 C 759.513 -2.01916 -0.0862982 0
M  V30 8174 C 759.834 -1.35337 -1.40388 0
M  V30 8175 O 759.104 -0.498096 -1.89462 0
M  V30 8176 H 757.684 -0.746185 -0.0348825 0
M  V30 8177 H 760.346 -1.84804 0.619167 0
M  V30 8178 H 759.442 -3.11182 -0.239189 0
M  V30 8179 N 759.743 -0.201713 -1.56304 0
M  V30 8180 C 760.989 0.435952 -1.98059 0
M  V30 8181 C 761.322 1.60811 -1.08873 0
M  V30 8182 O 760.597 1.9398 -0.142128 0
M  V30 8183 C 760.88 0.889706 -3.48936 0
M  V30 8184 C 760.733 -0.284725 -4.48898 0
M  V30 8185 C 762.052 1.7529 -4.03685 0
M  V30 8186 H 759.171 0.15699 -0.720085 0
M  V30 8187 H 761.813 -0.293965 -1.87712 0
M  V30 8188 H 759.963 1.51166 -3.57884 0
M  V30 8189 H 761.635 -0.922531 -4.51981 0
M  V30 8190 H 759.878 -0.935427 -4.23594 0
M  V30 8191 H 760.549 0.0753865 -5.51949 0
M  V30 8192 H 763.025 1.2283 -3.97558 0
M  V30 8193 H 761.901 2.03933 -5.0961 0
M  V30 8194 H 762.162 2.70939 -3.49348 0
M  V30 8195 N 761.222 1.57436 0.0718424 0
M  V30 8196 C 762.132 2.07039 1.10326 0
M  V30 8197 C 763.148 0.999918 1.424 0
M  V30 8198 O 764.324 1.31462 1.52577 0
M  V30 8199 C 761.389 2.50439 2.39752 0
M  V30 8200 C 760.45 3.71784 2.14651 0
M  V30 8201 C 759.683 4.13104 3.37906 0
M  V30 8202 O 759.906 3.54298 4.47023 0
M  V30 8203 O 758.84 5.05894 3.26121 0
M  V30 8204 H 762.666 2.95239 0.711872 0
M  V30 8205 H 760.251 1.46638 0.28597 0
M  V30 8206 H 762.133 2.78876 3.15921 0
M  V30 8207 H 760.808 1.65368 2.78271 0
M  V30 8208 H 759.715 3.48431 1.36187 0
M  V30 8209 H 761.048 4.57707 1.81012 0
M  V30 8210 N 762.7 -0.34323 1.53817 0
M  V30 8211 C 763.63 -1.42709 1.84814 0
M  V30 8212 C 764.611 -1.5488 0.703297 0
M  V30 8213 O 765.796 -1.69082 0.955237 0
M  V30 8214 C 762.926 -2.79756 2.05801 0
M  V30 8215 C 761.88 -2.82392 3.21619 0
M  V30 8216 C 761.206 -4.22326 3.2794 0
M  V30 8217 C 762.506 -2.479 4.59721 0
M  V30 8218 H 764.2 -1.17018 2.75585 0
M  V30 8219 H 761.746 -0.561485 1.32602 0
M  V30 8220 H 763.699 -3.55627 2.26069 0
M  V30 8221 H 762.423 -3.06883 1.11761 0
M  V30 8222 H 761.082 -2.08974 3.01207 0
M  V30 8223 H 760.73 -4.46564 2.31494 0
M  V30 8224 H 760.43 -4.25001 4.05768 0
M  V30 8225 H 761.954 -5.00039 3.50419 0
M  V30 8226 H 763.368 -3.13484 4.80001 0
M  V30 8227 H 761.765 -2.61857 5.39954 0
M  V30 8228 H 762.835 -1.43087 4.63308 0
M  V30 8229 N 764.178 -1.45556 -0.604258 0
M  V30 8230 C 765.426 -1.4945 -1.36048 0
M  V30 8231 C 765.747 -0.138933 -1.94504 0
M  V30 8232 O 765.017 0.832097 -1.7735 0
M  V30 8233 H 763.597 -0.550381 -0.505064 0
M  V30 8234 H 766.259 -1.81535 -0.709308 0
M  V30 8235 H 765.355 -2.23519 -2.17821 0
M  V30 8236 N 765.656 0.84705 -1.32902 0
M  V30 8237 C 766.603 1.95624 -1.22473 0
M  V30 8238 C 767.573 1.65767 -0.105178 0
M  V30 8239 O 768.758 1.88704 -0.282042 0
M  V30 8240 C 765.898 3.31434 -0.961542 0
M  V30 8241 C 765.011 3.73741 -2.1666 0
M  V30 8242 C 764.146 4.98379 -1.83825 0
M  V30 8243 C 763.185 5.33199 -3.00609 0
M  V30 8244 N 762.322 6.49014 -2.67816 0
M  V30 8245 H 767.162 2.03875 -2.17345 0
M  V30 8246 H 764.699 0.997764 -1.08088 0
M  V30 8247 H 766.657 4.09663 -0.789411 0
M  V30 8248 H 765.287 3.22762 -0.0495938 0
M  V30 8249 H 764.339 2.91102 -2.44875 0
M  V30 8250 H 765.651 3.95462 -3.03993 0
M  V30 8251 H 764.805 5.84336 -1.63208 0
M  V30 8252 H 763.544 4.78611 -0.937172 0
M  V30 8253 H 762.549 4.4575 -3.21849 0
M  V30 8254 H 763.774 5.5492 -3.9146 0
M  V30 8255 H 761.72 6.30748 -1.80258 0
M  V30 8256 H 761.637 6.7079 -3.48679 0
M  V30 8257 H 762.905 7.38103 -2.50647 0
M  V30 8258 N 767.134 1.16236 1.06428 0
M  V30 8259 C 768.066 0.825446 2.1382 0
M  V30 8260 C 769.079 -0.166707 1.61944 0
M  V30 8261 O 770.268 0.0578606 1.78406 0
M  V30 8262 C 767.368 0.208023 3.38261 0
M  V30 8263 C 766.541 1.23994 4.19457 0
M  V30 8264 C 765.6 0.642569 5.22262 0
M  V30 8265 O 764.626 1.31106 5.53895 0
M  V30 8266 N 765.828 -0.571327 5.77682 0
M  V30 8267 H 768.593 1.7497 2.43322 0
M  V30 8268 H 766.154 1.05951 1.22417 0
M  V30 8269 H 768.146 -0.204608 4.04182 0
M  V30 8270 H 766.716 -0.619752 3.06395 0
M  V30 8271 H 765.936 1.82879 3.49212 0
M  V30 8272 H 767.224 1.93638 4.70512 0
M  V30 8273 H 766.622 -1.13263 5.54245 0
M  V30 8274 H 765.179 -0.926187 6.45186 0
M  V30 8275 N 768.612 -1.24939 0.960631 0
M  V30 8276 C 769.542 -2.28 0.503815 0
M  V30 8277 C 770.523 -1.63959 -0.452928 0
M  V30 8278 O 771.708 -1.91009 -0.350585 0
M  V30 8279 C 768.838 -3.46643 -0.213535 0
M  V30 8280 C 767.792 -4.22903 0.658535 0
M  V30 8281 C 767.118 -5.34363 -0.189902 0
M  V30 8282 C 768.418 -4.84949 1.93963 0
M  V30 8283 H 770.112 -2.66462 1.36521 0
M  V30 8284 H 767.658 -1.28093 0.657897 0
M  V30 8285 H 769.611 -4.1787 -0.544286 0
M  V30 8286 H 768.335 -3.07187 -1.10923 0
M  V30 8287 H 766.994 -3.53467 0.972455 0
M  V30 8288 H 766.642 -4.91147 -1.08553 0
M  V30 8289 H 766.342 -5.86302 0.390331 0
M  V30 8290 H 767.866 -6.0842 -0.515484 0
M  V30 8291 H 769.28 -5.48288 1.67491 0
M  V30 8292 H 767.677 -5.47091 2.46601 0
M  V30 8293 H 768.747 -4.06799 2.639 0
M  V30 8294 N 770.09 -0.729906 -1.39679 0
M  V30 8295 C 771.053 -0.0951668 -2.29002 0
M  V30 8296 C 772.053 0.672471 -1.46063 0
M  V30 8297 O 773.243 0.502245 -1.66803 0
M  V30 8298 C 770.375 0.874631 -3.29489 0
M  V30 8299 H 771.568 -0.882062 -2.86635 0
M  V30 8300 H 769.121 -0.495424 -1.4824 0
M  V30 8301 H 769.856 1.68807 -2.76902 0
M  V30 8302 H 769.641 0.326893 -3.90735 0
M  V30 8303 H 771.131 1.31548 -3.96339 0
M  V30 8304 N 771.568 1.50203 -0.477153 0
M  V30 8305 C 772.515 2.28656 0.31386 0
M  V30 8306 C 773.485 1.33977 0.981802 0
M  V30 8307 O 774.67 1.62919 0.993072 0
M  V30 8308 C 771.81 3.16027 1.38639 0
M  V30 8309 C 770.923 4.25743 0.732615 0
M  V30 8310 C 770.058 5.00363 1.78355 0
M  V30 8311 C 769.097 6.01945 1.11035 0
M  V30 8312 N 768.234 6.6982 2.10441 0
M  V30 8313 H 773.074 2.958 -0.361445 0
M  V30 8314 H 770.611 1.45867 -0.190093 0
M  V30 8315 H 772.569 3.6504 2.01994 0
M  V30 8316 H 771.199 2.50917 2.03077 0
M  V30 8317 H 770.251 3.80398 -0.0136546 0
M  V30 8318 H 771.563 4.98393 0.201513 0
M  V30 8319 H 770.717 5.53124 2.49276 0
M  V30 8320 H 769.456 4.27432 2.34847 0
M  V30 8321 H 768.461 5.48438 0.386797 0
M  V30 8322 H 769.686 6.76851 0.552248 0
M  V30 8323 H 767.632 5.99677 2.65939 0
M  V30 8324 H 767.549 7.38366 1.62332 0
M  V30 8325 H 768.817 7.27196 2.80724 0
M  V30 8326 N 773.046 0.209999 1.56195 0
M  V30 8327 C 773.993 -0.704854 2.19774 0
M  V30 8328 C 774.963 -1.19886 1.14964 0
M  V30 8329 O 776.148 -1.26005 1.43274 0
M  V30 8330 C 773.288 -1.91241 2.87265 0
M  V30 8331 C 772.401 -1.45838 4.06639 0
M  V30 8332 C 771.536 -2.6226 4.61945 0
M  V30 8333 C 770.575 -2.13537 5.73645 0
M  V30 8334 N 769.712 -3.2319 6.23292 0
M  V30 8335 H 774.552 -0.155944 2.97592 0
M  V30 8336 H 772.089 -0.0652235 1.46955 0
M  V30 8337 H 774.047 -2.62123 3.24573 0
M  V30 8338 H 772.677 -2.43439 2.11985 0
M  V30 8339 H 771.729 -0.644897 3.74894 0
M  V30 8340 H 773.041 -1.06103 4.87384 0
M  V30 8341 H 772.195 -3.41243 5.01636 0
M  V30 8342 H 770.934 -3.05278 3.80338 0
M  V30 8343 H 769.939 -1.33013 5.33468 0
M  V30 8344 H 771.164 -1.71533 6.57079 0
M  V30 8345 H 769.11 -3.65711 5.44602 0
M  V30 8346 H 769.027 -2.8767 6.99129 0
M  V30 8347 H 770.295 -4.02342 6.67639 0
M  V30 8348 N 774.524 -1.57472 -0.0634922 0
M  V30 8349 C 775.773 -1.86837 -0.759928 0
M  V30 8350 C 776.086 -0.803823 -1.7832 0
M  V30 8351 O 777.292 -0.985578 -2.52979 0
M  V30 8352 C 775.748 -3.31448 -1.4025 0
M  V30 8353 C 775.356 -4.46052 -0.417368 0
M  V30 8354 C 777.1 -3.70003 -2.08082 0
M  V30 8355 C 775.007 -5.81707 -1.06633 0
M  V30 8356 H 773.937 -0.697009 -0.287567 0
M  V30 8357 H 776.588 -1.83495 -0.0133914 0
M  V30 8358 H 774.97 -3.29427 -2.19759 0
M  V30 8359 H 776.144 -4.5948 0.348503 0
M  V30 8360 H 774.459 -4.16104 0.156955 0
M  V30 8361 H 777.056 -4.68653 -2.57426 0
M  V30 8362 H 777.399 -3.00226 -2.88393 0
M  V30 8363 H 777.932 -3.7405 -1.35394 0
M  V30 8364 H 774.671 -6.54798 -0.303374 0
M  V30 8365 H 774.191 -5.72064 -1.80286 0
M  V30 8366 H 775.87 -6.27317 -1.58376 0
M  V30 8367 N 776.003 0.335068 -1.53997 0
M  V30 8368 C 776.913 1.43511 -1.85585 0
M  V30 8369 C 777.929 1.57162 -0.746726 0
M  V30 8370 O 779.105 1.72477 -1.03988 0
M  V30 8371 C 776.17 2.78386 -2.06646 0
M  V30 8372 C 775.231 2.74007 -3.30483 0
M  V30 8373 C 774.464 4.02449 -3.50529 0
M  V30 8374 O 774.687 5.00147 -2.74242 0
M  V30 8375 O 773.621 4.06405 -4.4398 0
M  V30 8376 H 777.447 1.19731 -2.79102 0
M  V30 8377 H 775.032 0.528033 -1.39758 0
M  V30 8378 H 776.914 3.58247 -2.21894 0
M  V30 8379 H 775.589 3.0208 -1.16317 0
M  V30 8380 H 774.496 1.92736 -3.2063 0
M  V30 8381 H 775.829 2.55267 -4.20832 0
M  V30 8382 N 777.481 1.45874 0.596531 0
M  V30 8383 C 778.892 1.44798 1.17857 0
M  V30 8384 C 779.243 0.181443 1.95359 0
M  V30 8385 O 778.368 -0.716336 2.042 0
M  V30 8386 C 778.963 2.62333 2.14398 0
M  V30 8387 C 777.522 2.64342 2.67955 0
M  V30 8388 C 776.669 2.37244 1.43564 0
M  V30 8389 H 779.62 1.53954 0.385222 0
M  V30 8390 H 779.641 2.37063 2.97626 0
M  V30 8391 H 779.153 3.54499 1.57963 0
M  V30 8392 H 777.254 1.76213 3.28298 0
M  V30 8393 H 777.367 3.63897 3.11634 0
M  V30 8394 H 775.731 1.87022 1.72901 0
M  V30 8395 H 776.514 3.31568 0.889805 0
M  V30 8396 N 778.959 -0.83999 1.33349 0
M  V30 8397 C 779.869 -1.98182 1.25543 0
M  V30 8398 C 780.885 -1.73204 0.166208 0
M  V30 8399 O 782.061 -1.97596 0.389589 0
M  V30 8400 C 779.126 -3.32157 0.993614 0
M  V30 8401 C 778.187 -3.70258 2.17273 0
M  V30 8402 C 777.42 -4.9784 1.92331 0
M  V30 8403 O 777.643 -5.63679 0.873074 0
M  V30 8404 O 776.577 -5.33418 2.78835 0
M  V30 8405 H 780.403 -2.07708 2.21565 0
M  V30 8406 H 777.988 -0.972852 1.13384 0
M  V30 8407 H 779.87 -4.12433 0.864711 0
M  V30 8408 H 778.545 -3.23637 0.0636596 0
M  V30 8409 H 777.452 -2.90497 2.35716 0
M  V30 8410 H 778.785 -3.83442 3.08598 0
M  V30 8411 N 780.437 -1.16799 -1.0581 0
M  V30 8412 C 781.367 -0.902241 -2.15364 0
M  V30 8413 C 782.348 0.153351 -1.69407 0
M  V30 8414 O 783.533 0.00442032 -1.94199 0
M  V30 8415 C 780.663 -0.407911 -3.44896 0
M  V30 8416 C 779.617 -1.40197 -4.04387 0
M  V30 8417 C 778.943 -0.765848 -5.29187 0
M  V30 8418 C 780.243 -2.77316 -4.42598 0
M  V30 8419 H 781.937 -1.81841 -2.37853 0
M  V30 8420 H 779.483 -0.875731 -1.14311 0
M  V30 8421 H 781.436 -0.20945 -4.20879 0
M  V30 8422 H 780.16 0.54378 -3.22041 0
M  V30 8423 H 778.819 -1.58707 -3.30466 0
M  V30 8424 H 778.467 0.192482 -5.02632 0
M  V30 8425 H 778.167 -1.42939 -5.69949 0
M  V30 8426 H 779.691 -0.577519 -6.07863 0
M  V30 8427 H 781.105 -2.62561 -5.09642 0
M  V30 8428 H 779.502 -3.4019 -4.94359 0
M  V30 8429 H 780.572 -3.32199 -3.53231 0
M  V30 8430 N 781.915 1.24427 -0.967243 0
M  V30 8431 C 783.192 1.87831 -0.545776 0
M  V30 8432 C 783.572 1.87126 0.977099 0
M  V30 8433 O 782.92 1.34357 1.84826 0
M  V30 8434 C 783.13 3.29967 -1.13679 0
M  V30 8435 C 784.478 4.06654 -1.22139 0
M  V30 8436 O 785.502 3.39136 -1.08926 0
M  V30 8437 O 784.361 5.27455 -1.43017 0
M  V30 8438 H 781.455 0.806745 -0.181912 0
M  V30 8439 H 784.001 1.32403 -1.06148 0
M  V30 8440 H 782.773 3.24977 -2.17958 0
M  V30 8441 H 782.396 3.92969 -0.605093 0
M  V30 8442 N 783.393 0.737304 1.3929 0
M  V30 8443 C 784.641 0.285691 2.00071 0
M  V30 8444 C 784.962 -1.13169 1.58801 0
M  V30 8445 O 784.232 -1.77104 0.837308 0
M  V30 8446 H 782.812 0.102638 0.739915 0
M  V30 8447 H 785.474 0.947775 1.70303 0
M  V30 8448 H 784.57 0.335906 3.10287 0
M  V30 8449 N 784.871 -1.49948 0.485112 0
M  V30 8450 C 786.096 -2.073 -0.0645059 0
M  V30 8451 C 786.521 -1.345 -1.31497 0
M  V30 8452 O 785.879 -0.39687 -1.76903 0
M  V30 8453 C 785.927 -3.59201 -0.317304 0
M  V30 8454 O 785.031 -3.88085 -1.39514 0
M  V30 8455 H 784.372 -0.663723 0.0191822 0
M  V30 8456 H 786.902 -1.92963 0.680179 0
M  V30 8457 H 786.912 -4.04227 -0.553604 0
M  V30 8458 H 785.587 -4.11602 0.596387 0
M  V30 8459 H 784.164 -3.54885 -1.14504 0
M  V30 8460 N 786.349 -0.21828 -1.56081 0
M  V30 8461 C 787.312 0.679633 -2.18892 0
M  V30 8462 C 788.312 1.12405 -1.14986 0
M  V30 8463 O 789.502 1.03339 -1.40238 0
M  V30 8464 C 786.634 1.93063 -2.80962 0
M  V30 8465 H 787.827 0.132066 -2.99609 0
M  V30 8466 H 785.38 0.0313374 -1.56269 0
M  V30 8467 H 786.115 2.52015 -2.04106 0
M  V30 8468 H 785.9 1.62046 -3.57048 0
M  V30 8469 H 787.39 2.57043 -3.29118 0
M  V30 8470 N 787.827 1.57504 0.0551401 0
M  V30 8471 C 788.759 2.0158 1.09078 0
M  V30 8472 C 789.772 0.92434 1.34014 0
M  V30 8473 O 790.961 1.20202 1.31961 0
M  V30 8474 C 788.061 2.35385 2.43818 0
M  V30 8475 C 787.234 3.66588 2.38605 0
M  V30 8476 C 786.293 3.87874 3.55585 0
M  V30 8477 O 785.319 4.59259 3.36258 0
M  V30 8478 N 786.521 3.31503 4.76536 0
M  V30 8479 H 789.286 2.91039 0.71529 0
M  V30 8480 H 786.847 1.60058 0.243532 0
M  V30 8481 H 788.839 2.46784 3.20749 0
M  V30 8482 H 787.409 1.51731 2.73307 0
M  V30 8483 H 786.629 3.65787 1.46947 0
M  V30 8484 H 787.917 4.52706 2.32239 0
M  V30 8485 H 787.315 2.73592 4.9514 0
M  V30 8486 H 785.872 3.48324 5.50921 0
M  V30 8487 N 789.305 -0.326896 1.54172 0
M  V30 8488 C 790.551 -1.06681 1.72473 0
M  V30 8489 C 790.884 -1.87779 0.49523 0
M  V30 8490 O 790.159 -1.87754 -0.507803 0
M  V30 8491 C 790.442 -1.99429 2.99834 0
M  V30 8492 C 790.295 -1.21682 4.33028 0
M  V30 8493 C 791.614 -2.99002 3.22933 0
M  V30 8494 H 788.733 -0.386438 0.627563 0
M  V30 8495 H 791.375 -0.343779 1.86864 0
M  V30 8496 H 789.525 -2.61081 2.87696 0
M  V30 8497 H 791.197 -0.625153 4.57044 0
M  V30 8498 H 789.44 -0.519045 4.30684 0
M  V30 8499 H 790.111 -1.89766 5.18356 0
M  V30 8500 H 792.587 -2.4747 3.34511 0
M  V30 8501 H 791.463 -3.61085 4.13412 0
M  V30 8502 H 791.724 -3.71281 2.40006 0
M  V30 8503 N 790.784 -1.46188 -0.588786 0
M  V30 8504 C 792.012 -1.54743 -1.37339 0
M  V30 8505 C 792.427 -0.186446 -1.87877 0
M  V30 8506 O 791.784 0.815247 -1.63279 0
M  V30 8507 C 791.835 -2.54727 -2.56508 0
M  V30 8508 O 791.556 -3.85539 -2.08066 0
M  V30 8509 C 793.057 -2.73163 -3.49137 0
M  V30 8510 H 790.277 -0.523484 -0.419768 0
M  V30 8511 H 792.821 -1.91543 -0.716345 0
M  V30 8512 H 790.976 -2.20948 -3.18215 0
M  V30 8513 H 791.39 -4.39905 -2.85629 0
M  V30 8514 H 792.864 -3.47057 -4.2925 0
M  V30 8515 H 793.341 -1.79856 -4.00685 0
M  V30 8516 H 793.947 -3.08014 -2.9327 0
M  V30 8517 N 792.262 0.832906 -1.33792 0
M  V30 8518 C 793.487 1.62568 -1.28788 0
M  V30 8519 C 793.912 1.87599 0.137246 0
M  V30 8520 O 793.27 1.44436 1.0958 0
M  V30 8521 C 793.318 2.9495 -2.07453 0
M  V30 8522 O 792.422 3.86546 -1.43722 0
M  V30 8523 H 791.763 0.494809 -0.442787 0
M  V30 8524 H 794.293 1.03578 -1.76445 0
M  V30 8525 H 794.303 3.44599 -2.1844 0
M  V30 8526 H 792.978 2.76055 -3.11073 0
M  V30 8527 H 791.555 3.45044 -1.41417 0
M  V30 8528 N 793.74 1.17359 1.05189 0
M  V30 8529 C 794.69 0.858445 2.11222 0
M  V30 8530 C 795.674 -0.166991 1.60031 0
M  V30 8531 O 796.866 0.0354456 1.76965 0
M  V30 8532 C 793.995 0.373549 3.41262 0
M  V30 8533 C 793.081 1.43041 3.99249 0
M  V30 8534 N 793.472 2.64387 4.312 0
M  V30 8535 C 791.77 1.28828 4.26989 0
M  V30 8536 C 792.471 3.32296 4.77446 0
M  V30 8537 N 791.447 2.59674 4.77567 0
M  V30 8538 H 795.249 1.78104 2.33786 0
M  V30 8539 H 792.763 1.0623 1.22837 0
M  V30 8540 H 794.76 0.129331 4.16699 0
M  V30 8541 H 793.42 -0.542847 3.2013 0
M  V30 8542 H 794.431 3.01351 4.21198 0
M  V30 8543 H 791.108 0.43353 4.15243 0
M  V30 8544 H 792.498 4.35939 5.11279 0
M  V30 8545 N 795.218 -1.23913 0.973828 0
M  V30 8546 C 796.495 -1.87539 0.555729 0
M  V30 8547 C 796.875 -1.87641 -0.967162 0
M  V30 8548 O 796.223 -1.35335 -1.84111 0
M  V30 8549 C 796.433 -3.29359 1.15427 0
M  V30 8550 C 797.781 -4.06 1.24294 0
M  V30 8551 O 798.805 -3.38554 1.10723 0
M  V30 8552 O 797.664 -5.26689 1.45813 0
M  V30 8553 H 794.758 -0.805769 0.186188 0
M  V30 8554 H 797.304 -1.31838 1.06849 0
M  V30 8555 H 796.076 -3.23817 2.19678 0
M  V30 8556 H 795.699 -3.92642 0.625925 0
M  V30 8557 N 796.696 -0.74468 -1.38897 0
M  V30 8558 C 797.659 -0.11945 -2.28889 0
M  V30 8559 C 798.659 0.656942 -1.46768 0
M  V30 8560 O 799.849 0.484525 -1.67326 0
M  V30 8561 C 796.981 0.839635 -3.30398 0
M  V30 8562 H 798.174 -0.912414 -2.85683 0
M  V30 8563 H 795.727 -0.511119 -1.47707 0
M  V30 8564 H 796.462 1.6586 -2.78677 0
M  V30 8565 H 796.247 0.285432 -3.9106 0
M  V30 8566 H 797.737 1.27337 -3.97712 0
M  V30 8567 N 798.174 1.49689 -0.493057 0
M  V30 8568 C 799.399 2.07331 0.0535114 0
M  V30 8569 C 799.824 1.35196 1.30781 0
M  V30 8570 O 799.182 0.406246 1.7669 0
M  V30 8571 C 799.23 3.59364 0.29825 0
M  V30 8572 O 798.334 3.88819 1.37454 0
M  V30 8573 H 797.675 0.663612 -0.0227018 0
M  V30 8574 H 800.205 1.926 -0.690402 0
M  V30 8575 H 800.215 4.04515 0.532159 0
M  V30 8576 H 798.89 4.1128 -0.618207 0
M  V30 8577 H 797.467 3.55487 1.12621 0
M  V30 8578 N 799.652 0.226554 1.55963 0
M  V30 8579 C 800.88 -0.408507 2.02827 0
M  V30 8580 C 801.295 -1.52994 1.10627 0
M  V30 8581 O 800.652 -1.82126 0.116809 0
M  V30 8582 C 800.703 -0.93545 3.49187 0
M  V30 8583 O 800.424 0.141273 4.37872 0
M  V30 8584 C 801.925 -1.64325 4.11719 0
M  V30 8585 H 799.145 -0.099442 0.66359 0
M  V30 8586 H 801.689 0.344471 2.01578 0
M  V30 8587 H 799.844 -1.63868 3.51036 0
M  V30 8588 H 800.258 -0.25558 5.23877 0
M  V30 8589 H 801.732 -1.9639 5.15883 0
M  V30 8590 H 802.209 -2.55815 3.57009 0
M  V30 8591 H 802.815 -0.9851 4.13734 0
M  V30 8592 N 801.13 -1.57531 -0.0467866 0
M  V30 8593 C 802.078 -2.06455 -1.0714 0
M  V30 8594 C 803.072 -0.974744 -1.38546 0
M  V30 8595 O 804.278 -1.15974 -1.37659 0
M  V30 8596 H 800.653 -0.658607 -0.362962 0
M  V30 8597 H 802.624 -2.91613 -0.632813 0
M  V30 8598 C 801.373 -2.54481 -2.36927 0
M  V30 8599 H 800.696 -3.37946 -2.13617 0
M  V30 8600 H 802.136 -2.92442 -3.07007 0
M  V30 8601 C 800.595 -1.43836 -3.04652 0
M  V30 8602 O 801.125 -0.794531 -3.93764 0
M  V30 8603 N 799.331 -1.17727 -2.65686 0
M  V30 8604 H 798.878 -1.70265 -1.93307 0
M  V30 8605 H 798.836 -0.439051 -3.11319 0
M  V30 8606 N 802.608 0.318715 -1.54344 0
M  V30 8607 C 803.856 1.054 -1.72439 0
M  V30 8608 C 804.177 1.88388 -0.503495 0
M  V30 8609 O 803.447 1.89866 0.48246 0
M  V30 8610 H 802.027 0.392124 -0.635805 0
M  V30 8611 H 804.689 0.35398 -1.91659 0
M  V30 8612 H 803.785 1.71726 -2.60608 0
M  V30 8613 N 804.086 1.46499 0.581025 0
M  V30 8614 C 805.016 1.60052 1.70017 0
M  V30 8615 C 805.997 0.450788 1.64018 0
M  V30 8616 O 807.182 0.677237 1.82009 0
M  V30 8617 C 804.312 1.5921 3.08658 0
M  V30 8618 C 803.266 2.73169 3.29488 0
M  V30 8619 C 802.592 2.57389 4.68674 0
M  V30 8620 C 803.892 4.14978 3.1716 0
M  V30 8621 H 805.586 2.53735 1.5893 0
M  V30 8622 H 803.132 1.22113 0.763173 0
M  V30 8623 H 805.085 1.67285 3.86773 0
M  V30 8624 H 803.809 0.620718 3.20647 0
M  V30 8625 H 802.468 2.64566 2.53773 0
M  V30 8626 H 802.116 1.58331 4.77431 0
M  V30 8627 H 801.816 3.33826 4.83564 0
M  V30 8628 H 803.34 2.67358 5.48956 0
M  V30 8629 H 804.754 4.24684 3.85119 0
M  V30 8630 H 803.151 4.92016 3.4357 0
M  V30 8631 H 804.221 4.35016 2.14218 0
M  V30 8632 N 805.565 -0.825799 1.34232 0
M  V30 8633 C 806.814 -1.57686 1.2577 0
M  V30 8634 C 807.127 -1.94848 -0.171372 0
M  V30 8635 O 808.333 -2.68854 -0.378123 0
M  V30 8636 C 806.789 -2.84478 2.20454 0
M  V30 8637 C 806.397 -2.54629 3.68603 0
M  V30 8638 C 808.141 -3.625 2.20893 0
M  V30 8639 C 806.048 -3.77597 4.55164 0
M  V30 8640 H 804.978 -0.591809 0.467203 0
M  V30 8641 H 807.629 -0.909421 1.59379 0
M  V30 8642 H 806.011 -3.52832 1.79793 0
M  V30 8643 H 807.185 -1.94404 4.17784 0
M  V30 8644 H 805.5 -1.89888 3.70582 0
M  V30 8645 H 808.097 -4.538 2.82789 0
M  V30 8646 H 808.44 -3.98404 1.20746 0
M  V30 8647 H 808.973 -3.01086 2.59985 0
M  V30 8648 H 805.712 -3.46815 5.56237 0
M  V30 8649 H 805.232 -4.37116 4.10719 0
M  V30 8650 H 806.911 -4.45039 4.69627 0
M  V30 8651 N 807.043 -1.17915 -1.04565 0
M  V30 8652 C 807.991 -0.897919 -2.1457 0
M  V30 8653 C 808.985 0.139883 -1.68821 0
M  V30 8654 O 810.191 -0.00779463 -1.79998 0
M  V30 8655 H 806.566 -0.272867 -0.700748 0
M  V30 8656 H 808.537 -1.83268 -2.3549 0
M  V30 8657 C 807.286 -0.434634 -3.44973 0
M  V30 8658 H 806.609 -1.22469 -3.8058 0
M  V30 8659 H 808.049 -0.276804 -4.23095 0
M  V30 8660 C 806.508 0.848738 -3.26034 0
M  V30 8661 O 807.038 1.9141 -3.53164 0
M  V30 8662 N 805.244 0.799373 -2.79389 0
M  V30 8663 H 804.791 -0.0678192 -2.57511 0
M  V30 8664 H 804.749 1.6585 -2.67098 0
M  V30 8665 N 808.521 1.23394 -0.980386 0
M  V30 8666 C 809.768 1.91809 -0.649261 0
M  V30 8667 C 810.096 1.765 0.817197 0
M  V30 8668 O 809.351 1.11979 1.60497 0
M  V30 8669 C 809.65 3.43542 -0.985588 0
M  V30 8670 C 809.316 3.79031 -2.44225 0
M  V30 8671 C 807.978 3.88429 -2.84035 0
M  V30 8672 C 810.33 3.96145 -3.38702 0
M  V30 8673 C 807.658 4.12368 -4.17336 0
M  V30 8674 C 810.01 4.21583 -4.71646 0
M  V30 8675 C 808.674 4.29203 -5.11215 0
M  V30 8676 H 807.944 0.70188 -0.237581 0
M  V30 8677 H 810.591 1.4642 -1.23424 0
M  V30 8678 H 808.896 3.90503 -0.318521 0
M  V30 8679 H 810.593 3.94708 -0.707596 0
M  V30 8680 H 807.183 3.7229 -2.12362 0
M  V30 8681 H 811.367 3.88274 -3.09123 0
M  V30 8682 H 806.623 4.1649 -4.47601 0
M  V30 8683 H 810.797 4.33769 -5.4481 0
M  V30 8684 H 808.424 4.47505 -6.14527 0
M  V30 8685 N 809.999 0.752036 1.385 0
M  V30 8686 C 811.248 0.304294 1.99391 0
M  V30 8687 C 811.561 -1.11982 1.60373 0
M  V30 8688 O 812.767 -1.66795 2.14223 0
M  V30 8689 C 811.223 0.493101 3.56506 0
M  V30 8690 C 810.831 1.9262 4.04477 0
M  V30 8691 C 812.575 0.107994 4.24363 0
M  V30 8692 C 810.482 2.06365 5.54227 0
M  V30 8693 H 809.412 0.110024 0.745929 0
M  V30 8694 H 812.063 0.928355 1.58284 0
M  V30 8695 H 810.445 -0.20012 3.95494 0
M  V30 8696 H 811.619 2.65276 3.76783 0
M  V30 8697 H 809.934 2.26608 3.49339 0
M  V30 8698 H 812.531 0.189474 5.34364 0
M  V30 8699 H 812.874 -0.939165 4.05568 0
M  V30 8700 H 813.407 0.753011 3.90608 0
M  V30 8701 H 810.146 3.0933 5.77923 0
M  V30 8702 H 809.666 1.38167 5.83669 0
M  V30 8703 H 811.345 1.85286 6.19902 0
M  V30 8704 N 811.477 -1.49425 0.500989 0
M  V30 8705 C 812.424 -2.29126 -0.277443 0
M  V30 8706 C 813.394 -1.35522 -0.960363 0
M  V30 8707 O 814.579 -1.64479 -0.967027 0
M  V30 8708 C 811.719 -3.18193 -1.33593 0
M  V30 8709 C 810.832 -4.26854 -0.664791 0
M  V30 8710 C 809.967 -5.03137 -1.70372 0
M  V30 8711 C 809.006 -6.03635 -1.01445 0
M  V30 8712 N 808.143 -6.73083 -1.99758 0
M  V30 8713 H 812.983 -2.95187 0.408458 0
M  V30 8714 H 810.52 -1.45546 0.213275 0
M  V30 8715 H 812.478 -3.68207 -1.96161 0
M  V30 8716 H 811.108 -2.54116 -1.9906 0
M  V30 8717 H 810.16 -3.80328 0.0741708 0
M  V30 8718 H 811.472 -4.9865 -0.122197 0
M  V30 8719 H 810.626 -5.5702 -2.40445 0
M  V30 8720 H 809.365 -4.31114 -2.28017 0
M  V30 8721 H 808.37 -5.48984 -0.299496 0
M  V30 8722 H 809.595 -6.77644 -0.444497 0
M  V30 8723 H 807.541 -6.03832 -2.56365 0
M  V30 8724 H 807.458 -7.40855 -1.50565 0
M  V30 8725 H 808.726 -7.3157 -2.69119 0
M  V30 8726 N 812.955 -0.234822 -1.55841 0
M  V30 8727 C 813.887 0.702346 -2.18174 0
M  V30 8728 C 814.9 1.14776 -1.15457 0
M  V30 8729 O 816.089 1.07662 -1.42377 0
M  V30 8730 C 813.189 1.96483 -2.76129 0
M  V30 8731 C 812.362 1.67283 -4.04148 0
M  V30 8732 C 811.421 2.7837 -4.46539 0
M  V30 8733 O 810.447 2.46272 -5.13166 0
M  V30 8734 N 811.649 4.07611 -4.1332 0
M  V30 8735 H 814.414 0.169074 -2.99223 0
M  V30 8736 H 811.975 -0.0543164 -1.61809 0
M  V30 8737 H 813.967 2.70016 -3.01452 0
M  V30 8738 H 812.537 2.40822 -1.99307 0
M  V30 8739 H 811.757 0.773278 -3.86541 0
M  V30 8740 H 813.045 1.45222 -4.87635 0
M  V30 8741 H 812.443 4.36527 -3.59806 0
M  V30 8742 H 811 4.77646 -4.43506 0
M  V30 8743 N 814.433 1.57553 0.0384317 0
M  V30 8744 C 815.365 2.02726 1.06934 0
M  V30 8745 C 816.378 0.938502 1.33026 0
M  V30 8746 O 817.567 1.21595 1.30678 0
M  V30 8747 C 814.667 2.37958 2.41308 0
M  V30 8748 C 813.84 3.69098 2.34703 0
M  V30 8749 C 812.899 3.91623 3.51451 0
M  V30 8750 O 811.925 4.628 3.31368 0
M  V30 8751 N 813.127 3.36538 4.72993 0
M  V30 8752 H 815.892 2.91781 0.684381 0
M  V30 8753 H 813.453 1.60307 0.226542 0
M  V30 8754 H 815.445 2.50172 3.18113 0
M  V30 8755 H 814.015 1.54621 2.71682 0
M  V30 8756 H 813.235 3.67325 1.43059 0
M  V30 8757 H 814.523 4.55144 2.27424 0
M  V30 8758 H 813.921 2.78828 4.92211 0
M  V30 8759 H 812.478 3.54148 5.47195 0
M  V30 8760 N 815.911 -0.310526 1.54511 0
M  V30 8761 C 817.327 -0.655637 1.45511 0
M  V30 8762 C 817.527 -1.91114 0.638564 0
M  V30 8763 O 816.583 -2.52098 0.142497 0
M  V30 8764 C 817.896 -0.817501 2.89374 0
M  V30 8765 C 819.444 -0.914003 2.99358 0
M  V30 8766 C 819.919 -1.10794 4.44397 0
M  V30 8767 N 821.41 -1.17437 4.48066 0
M  V30 8768 C 822.145 -1.34255 5.57461 0
M  V30 8769 N 821.641 -1.48032 6.768 0
M  V30 8770 N 823.434 -1.37067 5.45132 0
M  V30 8771 H 815.585 0.514506 2.06074 0
M  V30 8772 H 817.848 0.168478 0.932909 0
M  V30 8773 H 817.554 0.034003 3.51684 0
M  V30 8774 H 817.428 -1.7094 3.36243 0
M  V30 8775 H 819.815 -1.756 2.37168 0
M  V30 8776 H 819.896 0.00170958 2.558 0
M  V30 8777 H 819.54 -0.270743 5.07178 0
M  V30 8778 H 819.47 -2.03773 4.85576 0
M  V30 8779 H 821.961 -1.08181 3.62084 0
M  V30 8780 H 822.274 -1.60593 7.5593 0
M  V30 8781 H 820.619 -1.45105 6.79683 0
M  V30 8782 H 823.81 -1.25909 4.50849 0
M  V30 8783 H 823.983 -1.49831 6.3044 0
M  V30 8784 N 817.389 -1.46805 -0.573248 0
M  V30 8785 C 818.299 -1.60687 -1.70929 0
M  V30 8786 C 819.315 -0.490084 -1.66956 0
M  V30 8787 O 820.491 -0.755482 -1.86693 0
M  V30 8788 C 817.556 -1.60259 -3.07438 0
M  V30 8789 C 816.617 -2.83242 -3.22603 0
M  V30 8790 C 815.85 -2.82825 -4.52599 0
M  V30 8791 O 816.073 -1.92113 -5.37074 0
M  V30 8792 O 815.007 -3.74489 -4.71213 0
M  V30 8793 H 818.833 -2.56782 -1.62163 0
M  V30 8794 H 816.418 -1.29706 -0.741399 0
M  V30 8795 H 818.3 -1.6275 -3.88704 0
M  V30 8796 H 816.975 -0.673268 -3.16621 0
M  V30 8797 H 815.882 -2.86302 -2.40794 0
M  V30 8798 H 817.215 -3.75415 -3.18315 0
M  V30 8799 N 818.867 0.818669 -1.34668 0
M  V30 8800 C 819.83 1.9114 -1.26483 0
M  V30 8801 C 820.83 1.598 -0.179044 0
M  V30 8802 O 822.02 1.6876 -0.431952 0
M  V30 8803 C 819.152 3.27285 -0.95381 0
M  V30 8804 H 820.345 1.9982 -2.23634 0
M  V30 8805 H 817.898 1.01314 -1.19018 0
M  V30 8806 H 818.633 3.24297 0.0143428 0
M  V30 8807 H 818.418 3.51416 -1.73924 0
M  V30 8808 H 819.908 4.07299 -0.921827 0
M  V30 8809 N 820.346 1.18468 1.03938 0
M  V30 8810 C 821.762 0.934635 1.29371 0
M  V30 8811 C 821.962 -0.399067 1.97509 0
M  V30 8812 O 821.018 -1.13309 2.25648 0
M  V30 8813 C 822.331 2.10111 2.15114 0
M  V30 8814 C 823.879 2.13955 2.28456 0
M  V30 8815 C 824.354 3.30024 3.17566 0
M  V30 8816 N 825.845 3.29893 3.25153 0
M  V30 8817 C 826.58 4.16346 3.94263 0
M  V30 8818 N 826.076 5.12934 4.65693 0
M  V30 8819 N 827.869 4.04256 3.90556 0
M  V30 8820 H 820.02 2.04294 0.581185 0
M  V30 8821 H 822.283 0.892727 0.318971 0
M  V30 8822 H 821.989 3.06572 1.72355 0
M  V30 8823 H 821.863 2.06283 3.15796 0
M  V30 8824 H 824.25 1.18072 2.7045 0
M  V30 8825 H 824.331 2.2184 1.2736 0
M  V30 8826 H 823.975 4.26181 2.76283 0
M  V30 8827 H 823.905 3.19376 4.18697 0
M  V30 8828 H 826.396 2.59969 2.74271 0
M  V30 8829 H 826.709 5.75271 5.16026 0
M  V30 8830 H 825.054 5.16893 4.64593 0
M  V30 8831 H 828.245 3.28083 3.33885 0
M  V30 8832 H 828.418 4.71848 4.44144 0
M  V30 8833 N 821.824 -1.22873 0.986916 0
M  V30 8834 C 823.07 -1.91746 0.660401 0
M  V30 8835 C 823.403 -1.76738 -0.804812 0
M  V30 8836 O 822.678 -1.13246 -1.58131 0
M  V30 8837 C 822.961 -3.44156 1.05966 0
M  V30 8838 C 822.814 -3.68242 2.58298 0
M  V30 8839 C 824.133 -4.35874 0.60842 0
M  V30 8840 H 821.252 -0.696347 0.241391 0
M  V30 8841 H 823.894 -1.44867 1.22937 0
M  V30 8842 H 822.044 -3.84213 0.575534 0
M  V30 8843 H 823.716 -3.37626 3.14335 0
M  V30 8844 H 821.959 -3.12728 3.00638 0
M  V30 8845 H 822.63 -4.74956 2.81285 0
M  V30 8846 H 825.106 -4.03299 1.02417 0
M  V30 8847 H 823.982 -5.41201 0.916142 0
M  V30 8848 H 824.243 -4.39364 -0.491086 0
M  V30 8849 N 823.302 -0.75937 -1.38099 0
M  V30 8850 C 824.234 -0.0956547 -2.29 0
M  V30 8851 C 825.247 0.677561 -1.4803 0
M  V30 8852 O 826.436 0.517696 -1.70828 0
M  V30 8853 C 823.536 0.88844 -3.27047 0
M  V30 8854 C 822.709 0.171652 -4.37063 0
M  V30 8855 C 821.768 1.06733 -5.15262 0
M  V30 8856 O 820.794 0.535698 -5.66674 0
M  V30 8857 N 821.996 2.39486 -5.28797 0
M  V30 8858 H 824.761 -0.876354 -2.86601 0
M  V30 8859 H 822.322 -0.61065 -1.49942 0
M  V30 8860 H 824.314 1.49079 -3.76241 0
M  V30 8861 H 822.884 1.57018 -2.70304 0
M  V30 8862 H 822.104 -0.611473 -3.89429 0
M  V30 8863 H 823.392 -0.324121 -5.07767 0
M  V30 8864 H 822.79 2.85127 -4.88589 0
M  V30 8865 H 821.347 2.94758 -5.81344 0
M  V30 8866 O 824.819 1.47821 -0.650476 0
M  V30 8867 H 825.51 1.92907 -0.175142 0
M  V30 END ATOM
M  V30 BEGIN BOND
M  V30 END BOND
M  V30 END CTAB
M  END
$$$$
