drugbank_target|O15169 Axin-1 (DB04447)
 OpenBabel12092120303D

  0  0  0     0  0            999 V3000
M  V30 BEGIN CTAB
M  V30 COUNTS 13263 13428 0 0 0
M  V30 BEGIN ATOM
M  V30 1 H -0.908 1.98254 -0.117106 0
M  V30 2 N 0 1.576 0 0
M  V30 3 C 0.933 2.03868 1.02534 0
M  V30 4 C 1.911 0.928543 1.3348 0
M  V30 5 O 3.095 1.19667 1.45644 0
M  V30 6 C 0.222 2.43627 2.35294 0
M  V30 7 C -0.732 3.65373 2.2001 0
M  V30 8 S 0.101 5.13292 1.52614 0
M  V30 9 C 1.257 5.56322 2.86805 0
M  V30 10 H 1.49 2.90518 0.631377 0
M  V30 11 H -0.977 1.52953 0.210867 0
M  V30 12 H 0.981 2.67203 3.11629 0
M  V30 13 H -0.358 1.57376 2.7183 0
M  V30 14 H -1.165 3.90944 3.18086 0
M  V30 15 H -1.563 3.418 1.51819 0
M  V30 16 H 0.729 5.58782 3.83104 0
M  V30 17 H 1.672 6.56266 2.65933 0
M  V30 18 H 2.08 4.83886 2.90714 0
M  V30 19 N 1.4781 -0.272755 1.55222 0
M  V30 20 C 2.4261 -1.35705 1.88909 0
M  V30 21 C 3.4201 -1.5112 0.765456 0
M  V30 22 O 4.6261 -1.52901 0.949802 0
M  V30 23 H 1.0011 -0.453868 0.59959 0
M  V30 24 H 2.9721 -1.04544 2.79487 0
M  V30 25 C 1.7211 -2.71049 2.17779 0
M  V30 26 H 1.0441 -2.59979 3.03728 0
M  V30 27 H 2.4841 -3.45858 2.45272 0
M  V30 28 C 0.9431 -3.22165 0.985473 0
M  V30 29 O 1.4731 -4.01096 0.220233 0
M  V30 30 N -0.3209 -2.7985 0.783108 0
M  V30 31 H -0.7739 -2.15775 1.40708 0
M  V30 32 H -0.8159 -3.14397 -0.0130392 0
M  V30 33 N 2.9562 -1.48159 -0.537278 0
M  V30 34 C 4.2052 -1.5506 -1.28993 0
M  V30 35 C 4.5182 -0.226211 -1.94288 0
M  V30 36 O 5.7242 -0.173395 -2.70946 0
M  V30 37 C 4.1802 -2.73429 -2.34018 0
M  V30 38 C 3.7882 -4.1248 -1.74825 0
M  V30 39 C 5.5322 -2.89638 -3.10339 0
M  V30 40 C 3.4392 -5.22121 -2.77747 0
M  V30 41 H 2.3692 -0.577231 -0.485098 0
M  V30 42 H 5.0202 -1.74478 -0.568317 0
M  V30 43 H 3.4022 -2.47431 -3.09182 0
M  V30 44 H 4.5762 -4.48466 -1.05899 0
M  V30 45 H 2.8912 -4.01327 -1.11022 0
M  V30 46 H 5.4882 -3.68718 -3.87235 0
M  V30 47 H 5.8312 -1.9882 -3.65754 0
M  V30 48 H 6.3642 -3.15502 -2.42288 0
M  V30 49 H 3.1032 -6.1488 -2.27161 0
M  V30 50 H 2.6232 -4.90631 -3.45024 0
M  V30 51 H 4.3022 -5.49924 -3.4087 0
M  V30 52 N 4.4343 0.785586 -1.36625 0
M  V30 53 C 5.3663 1.90711 -1.2713 0
M  V30 54 C 6.3793 1.61688 -0.189986 0
M  V30 55 O 7.5683 1.72864 -0.445014 0
M  V30 56 C 4.6683 3.25611 -0.939713 0
M  V30 57 C 3.8413 3.82385 -2.12369 0
M  V30 58 C 2.9003 4.95732 -1.76456 0
M  V30 59 O 1.9263 5.12047 -2.48589 0
M  V30 60 N 3.1283 5.76258 -0.700492 0
M  V30 61 H 5.8933 1.99376 -2.23762 0
M  V30 62 H 3.4543 0.964041 -1.30069 0
M  V30 63 H 5.4463 3.98937 -0.680554 0
M  V30 64 H 4.0163 3.12538 -0.0624074 0
M  V30 65 H 3.2363 3.01001 -2.54543 0
M  V30 66 H 4.5243 4.17047 -2.9146 0
M  V30 67 H 3.9223 5.65609 -0.101624 0
M  V30 68 H 2.4793 6.4987 -0.501165 0
M  V30 69 N 5.9124 1.20967 1.01018 0
M  V30 70 C 6.8224 0.980157 2.13143 0
M  V30 71 C 7.8384 -0.0660665 1.73875 0
M  V30 72 O 9.0144 0.122821 2.01025 0
M  V30 73 C 6.0794 0.54216 3.42435 0
M  V30 74 C 5.1404 1.65999 3.95908 0
M  V30 75 C 4.3734 1.2428 5.19028 0
M  V30 76 O 4.5964 0.114196 5.70286 0
M  V30 77 O 3.5304 2.05271 5.65816 0
M  V30 78 H 7.3564 1.91913 2.35379 0
M  V30 79 H 4.9414 0.994099 1.11526 0
M  V30 80 H 6.8234 0.30744 4.20277 0
M  V30 81 H 5.4984 -0.36815 3.216 0
M  V30 82 H 4.4054 1.94906 3.19316 0
M  V30 83 H 5.7384 2.54753 4.21143 0
M  V30 84 N 7.3905 -1.2043 1.01659 0
M  V30 85 C 8.3225 -2.22626 0.544988 0
M  V30 86 C 9.3355 -1.58479 -0.372609 0
M  V30 87 O 10.5245 -1.77679 -0.170958 0
M  V30 88 C 7.6245 -3.38141 -0.22663 0
M  V30 89 C 6.7975 -4.31877 0.692876 0
M  V30 90 C 5.8565 -5.26191 -0.0311616 0
M  V30 91 O 4.8825 -5.6612 0.591343 0
M  V30 92 N 6.0845 -5.65618 -1.30601 0
M  V30 93 H 8.8495 -2.63716 1.42388 0
M  V30 94 H 6.4105 -1.34971 0.894116 0
M  V30 95 H 8.4025 -3.98239 -0.72024 0
M  V30 96 H 6.9725 -2.95943 -1.00681 0
M  V30 97 H 6.1925 -3.69746 1.36679 0
M  V30 98 H 7.4805 -4.91426 1.31824 0
M  V30 99 H 6.8785 -5.3519 -1.83269 0
M  V30 100 H 5.4355 -6.28025 -1.74435 0
M  V30 101 N 8.8686 -0.792821 -1.36206 0
M  V30 102 C 10.1166 -0.366062 -1.98757 0
M  V30 103 C 10.4376 1.0668 -1.63231 0
M  V30 104 O 9.7076 1.73587 -0.907978 0
M  V30 105 H 8.2876 -0.132364 -0.735179 0
M  V30 106 H 10.9496 -1.01562 -1.66347 0
M  V30 107 H 10.0456 -0.460638 -3.08682 0
M  V30 108 N 10.3467 1.47872 -0.545128 0
M  V30 109 C 11.5937 2.02493 -0.0165858 0
M  V30 110 C 11.9217 1.42073 1.32836 0
M  V30 111 O 11.1767 0.561459 1.87473 0
M  V30 112 C 11.4757 3.57131 0.13867 0
M  V30 113 C 11.1417 4.36411 -1.13384 0
M  V30 114 C 9.8037 4.57792 -1.48256 0
M  V30 115 C 12.1557 4.82223 -1.97764 0
M  V30 116 C 9.4837 5.22233 -2.67376 0
M  V30 117 C 11.8357 5.47977 -3.16076 0
M  V30 118 C 10.4997 5.67593 -3.51275 0
M  V30 119 H 9.7697 0.740975 -0.00606918 0
M  V30 120 H 12.4167 1.77683 -0.714207 0
M  V30 121 H 10.7217 3.80865 0.919172 0
M  V30 122 H 12.4187 3.97031 0.562782 0
M  V30 123 H 9.0087 4.2004 -0.852297 0
M  V30 124 H 13.1927 4.65493 -1.72132 0
M  V30 125 H 8.4487 5.35616 -2.94831 0
M  V30 126 H 12.6227 5.8244 -3.81755 0
M  V30 127 H 10.2497 6.17298 -4.43675 0
M  V30 128 N 11.8248 0.280983 1.55075 0
M  V30 129 C 13.2358 -0.215629 1.85451 0
M  V30 130 C 13.5868 -1.54991 1.203 0
M  V30 131 O 12.7118 -2.10699 0.493435 0
M  V30 132 C 13.3068 -0.398026 3.36454 0
M  V30 133 C 11.8658 -0.838866 3.66933 0
M  V30 134 C 11.0128 0.064458 2.77225 0
M  V30 135 H 13.9638 0.502601 1.50531 0
M  V30 136 H 13.9848 -1.23569 3.59876 0
M  V30 137 H 13.4968 0.573241 3.83843 0
M  V30 138 H 11.5978 -1.8214 3.25048 0
M  V30 139 H 11.7108 -0.672123 4.74362 0
M  V30 140 H 10.0748 -0.452863 2.50642 0
M  V30 141 H 10.8578 1.03172 3.2743 0
M  V30 142 N 13.3029 -1.57598 0.00835791 0
M  V30 143 C 14.2329 -2.1198 -0.979113 0
M  V30 144 C 15.2139 -1.03091 -1.35301 0
M  V30 145 O 16.3989 -1.30818 -1.43528 0
M  V30 146 C 13.5289 -2.62995 -2.26828 0
M  V30 147 C 12.4829 -3.76485 -2.03576 0
M  V30 148 C 11.8089 -4.13846 -3.38579 0
M  V30 149 C 13.1089 -5.0342 -1.39161 0
M  V30 150 H 14.8029 -2.94738 -0.526281 0
M  V30 151 H 12.3489 -1.41783 -0.251704 0
M  V30 152 H 14.3019 -2.99669 -2.96271 0
M  V30 153 H 13.0259 -1.7737 -2.7424 0
M  V30 154 H 11.6849 -3.40217 -1.36557 0
M  V30 155 H 11.3329 -3.25232 -3.83709 0
M  V30 156 H 11.0329 -4.90312 -3.23834 0
M  V30 157 H 12.5569 -4.53086 -4.09323 0
M  V30 158 H 13.9709 -5.37812 -1.98573 0
M  V30 159 H 12.3679 -5.84746 -1.34878 0
M  V30 160 H 13.4379 -4.83548 -0.361868 0
M  V30 161 N 14.781 0.264519 -1.55364 0
M  V30 162 C 16.058 1.01677 -1.67096 0
M  V30 163 C 16.438 2.03996 -0.543015 0
M  V30 164 O 15.786 2.23907 0.45585 0
M  V30 165 C 15.996 1.66596 -3.0667 0
M  V30 166 C 17.344 2.17442 -3.64697 0
M  V30 167 O 18.368 1.76568 -3.09358 0
M  V30 168 O 17.227 2.92439 -4.61673 0
M  V30 169 H 14.321 0.472161 -0.678965 0
M  V30 170 H 16.867 0.259703 -1.67701 0
M  V30 171 H 15.639 0.924962 -3.80211 0
M  V30 172 H 15.262 2.48968 -3.10001 0
M  V30 173 N 16.2591 1.48442 0.529413 0
M  V30 174 C 17.1891 1.65902 1.64313 0
M  V30 175 C 18.1701 0.507897 1.6234 0
M  V30 176 O 19.3551 0.740503 1.79528 0
M  V30 177 C 16.4851 1.69911 3.02898 0
M  V30 178 C 15.4391 2.8453 3.19729 0
M  V30 179 C 14.7651 2.73629 4.59381 0
M  V30 180 C 16.0651 4.25821 3.02447 0
M  V30 181 H 17.7591 2.5914 1.49955 0
M  V30 182 H 15.3051 1.24709 0.719982 0
M  V30 183 H 17.2581 1.80715 3.80684 0
M  V30 184 H 15.9821 0.732524 3.18279 0
M  V30 185 H 14.6411 2.73283 2.44361 0
M  V30 186 H 14.2891 1.74938 4.71599 0
M  V30 187 H 13.9891 3.50541 4.71588 0
M  V30 188 H 15.5131 2.86401 5.39265 0
M  V30 189 H 16.9271 4.37898 3.70024 0
M  V30 190 H 15.3241 5.03735 3.26146 0
M  V30 191 H 16.3941 4.42244 1.98867 0
M  V30 192 N 17.7372 -0.778329 1.37039 0
M  V30 193 C 18.9852 -1.53361 1.31623 0
M  V30 194 C 19.3062 -1.94739 -0.100831 0
M  V30 195 O 18.5762 -1.65797 -1.04347 0
M  V30 196 H 17.1562 -0.568794 0.484234 0
M  V30 197 H 19.8182 -0.926742 1.71457 0
M  V30 198 H 18.9142 -2.43606 1.95096 0
M  V30 199 N 19.2153 -1.21501 -1.00376 0
M  V30 200 C 20.1783 -0.976927 -2.07337 0
M  V30 201 C 21.1783 0.0525322 -1.60714 0
M  V30 202 O 22.3683 -0.184869 -1.73216 0
M  V30 203 C 19.5003 -0.473423 -3.37597 0
M  V30 204 H 20.6933 -1.92587 -2.29892 0
M  V30 205 H 18.2463 -1.03217 -1.17371 0
M  V30 206 H 18.9813 0.480379 -3.20722 0
M  V30 207 H 18.7663 -1.216 -3.72768 0
M  V30 208 H 20.2563 -0.32675 -4.1632 0
M  V30 209 N 20.6934 1.19889 -1.02296 0
M  V30 210 C 21.9184 1.9393 -0.735237 0
M  V30 211 C 22.3434 1.74639 0.698782 0
M  V30 212 O 21.7014 1.04481 1.48167 0
M  V30 213 C 21.7494 3.43916 -1.08417 0
M  V30 214 O 20.8534 4.11917 -0.199446 0
M  V30 215 H 20.1944 0.605645 -0.272196 0
M  V30 216 H 22.7244 1.52137 -1.36804 0
M  V30 217 H 22.7344 3.9456 -1.03856 0
M  V30 218 H 21.4094 3.5728 -2.12894 0
M  V30 219 H 19.9864 3.71666 -0.303136 0
M  V30 220 N 22.1715 0.800033 1.35784 0
M  V30 221 C 23.4185 0.377342 1.98953 0
M  V30 222 C 23.7465 -1.05378 1.6348 0
M  V30 223 O 23.0015 -1.74459 0.886707 0
M  V30 224 C 23.3005 0.500276 3.53881 0
M  V30 225 C 22.9665 1.89375 4.09204 0
M  V30 226 C 21.6285 2.27499 4.24025 0
M  V30 227 C 23.9805 2.8057 4.39238 0
M  V30 228 C 21.3085 3.562 4.66195 0
M  V30 229 C 23.6605 4.0871 4.82844 0
M  V30 230 C 22.3245 4.46843 4.95871 0
M  V30 231 H 21.5945 0.138079 0.728021 0
M  V30 232 H 24.2415 1.01955 1.62103 0
M  V30 233 H 22.5465 -0.225405 3.91151 0
M  V30 234 H 24.2435 0.154097 4.00704 0
M  V30 235 H 20.8335 1.58753 3.98115 0
M  V30 236 H 25.0175 2.52367 4.27346 0
M  V30 237 H 20.2735 3.85602 4.74469 0
M  V30 238 H 24.4475 4.79481 5.05046 0
M  V30 239 H 22.0745 5.46623 5.28306 0
M  V30 240 N 23.6496 -1.47581 0.552962 0
M  V30 241 C 24.8776 -2.06875 0.0320556 0
M  V30 242 C 25.2926 -1.40625 -1.25976 0
M  V30 243 O 24.6496 -0.501349 -1.75479 0
M  V30 244 C 24.7006 -3.61092 -0.17167 0
M  V30 245 O 24.4216 -4.24858 1.06899 0
M  V30 246 C 25.9226 -4.37242 -0.730344 0
M  V30 247 H 23.1426 -0.669561 0.043915 0
M  V30 248 H 25.6866 -1.89646 0.765163 0
M  V30 249 H 23.8416 -3.7785 -0.854894 0
M  V30 250 H 24.2556 -5.17334 0.864059 0
M  V30 251 H 25.7296 -5.45842 -0.822203 0
M  V30 252 H 26.2066 -4.03235 -1.74064 0
M  V30 253 H 26.8126 -4.25219 -0.0829543 0
M  V30 254 N 25.1277 -0.289203 -1.54924 0
M  V30 255 C 26.0377 0.601863 -2.26748 0
M  V30 256 C 27.0537 1.15834 -1.2984 0
M  V30 257 O 28.2297 1.18564 -1.62802 0
M  V30 258 C 25.2947 1.76299 -2.98529 0
M  V30 259 C 24.3557 1.24178 -4.10948 0
M  V30 260 C 23.5887 2.34757 -4.79296 0
M  V30 261 O 23.8117 3.54411 -4.46933 0
M  V30 262 O 22.7457 2.02115 -5.66951 0
M  V30 263 H 26.5717 0.0195879 -3.03694 0
M  V30 264 H 24.1567 -0.0560868 -1.49295 0
M  V30 265 H 26.0387 2.43973 -3.43592 0
M  V30 266 H 24.7137 2.33209 -2.24488 0
M  V30 267 H 23.6207 0.531104 -3.70311 0
M  V30 268 H 24.9537 0.718252 -4.86931 0
M  V30 269 N 26.6058 1.57591 -0.0167156 0
M  V30 270 C 27.8828 1.82547 0.702564 0
M  V30 271 C 28.2628 0.898018 1.91047 0
M  V30 272 O 27.6108 -0.0493456 2.28447 0
M  V30 273 C 27.8208 3.31459 1.09251 0
M  V30 274 C 29.1688 3.97622 1.48937 0
M  V30 275 O 30.1928 3.35881 1.18584 0
M  V30 276 O 29.0518 5.06415 2.05442 0
M  V30 277 H 26.1458 0.752268 0.343544 0
M  V30 278 H 28.6918 1.69644 -0.0434495 0
M  V30 279 H 27.4638 3.9061 0.23227 0
M  V30 280 H 27.0868 3.49422 1.89709 0
M  V30 281 N 28.0839 -0.256276 1.55502 0
M  V30 282 C 29.0469 -1.30047 1.88734 0
M  V30 283 C 30.0469 -1.4154 0.763086 0
M  V30 284 O 31.2369 -1.40403 1.03115 0
M  V30 285 C 28.3689 -2.67953 2.10747 0
M  V30 286 H 29.5619 -1.01802 2.82093 0
M  V30 287 H 27.1149 -0.495134 1.4825 0
M  V30 288 H 27.8499 -3.01351 1.19825 0
M  V30 289 H 27.6349 -2.60993 2.92617 0
M  V30 290 H 29.1249 -3.43368 2.37673 0
M  V30 291 N 29.562 -1.4872 -0.521534 0
M  V30 292 C 30.973 -1.50607 -1.10337 0
M  V30 293 C 31.324 -0.280612 -1.94183 0
M  V30 294 O 30.449 0.611507 -2.0758 0
M  V30 295 C 31.044 -2.72903 -2.00772 0
M  V30 296 C 29.603 -2.77634 -2.54158 0
M  V30 297 C 28.75 -2.44241 -1.31307 0
M  V30 298 H 31.701 -1.55714 -0.306388 0
M  V30 299 H 31.722 -2.519 -2.85178 0
M  V30 300 H 31.234 -3.62077 -1.39721 0
M  V30 301 H 29.335 -1.92689 -3.18907 0
M  V30 302 H 29.448 -3.79283 -2.92714 0
M  V30 303 H 27.812 -1.95577 -1.63161 0
M  V30 304 H 28.595 -3.35666 -0.719943 0
M  V30 305 N 31.0401 0.771051 -1.3745 0
M  V30 306 C 32.4561 1.07171 -1.18265 0
M  V30 307 C 32.6561 2.01491 -0.019287 0
M  V30 308 O 31.7121 2.44244 0.640408 0
M  V30 309 C 33.0251 1.66854 -2.50161 0
M  V30 310 C 34.5731 1.79109 -2.56689 0
M  V30 311 C 35.0481 2.42205 -3.88717 0
M  V30 312 N 36.5391 2.49655 -3.90162 0
M  V30 313 C 37.2741 2.9933 -4.8907 0
M  V30 314 N 36.7701 3.49172 -5.98374 0
M  V30 315 N 38.5631 2.9821 -4.76474 0
M  V30 316 H 30.7141 0.144796 -2.11906 0
M  V30 317 H 32.9771 0.126863 -0.939473 0
M  V30 318 H 32.6831 1.05017 -3.35655 0
M  V30 319 H 32.5571 2.6614 -2.673 0
M  V30 320 H 34.9441 2.40077 -1.71601 0
M  V30 321 H 35.0251 0.785757 -2.43433 0
M  V30 322 H 34.6691 1.81875 -4.74219 0
M  V30 323 H 34.5991 3.43345 -3.99276 0
M  V30 324 H 37.0901 2.14383 -3.11205 0
M  V30 325 H 37.4031 3.8548 -6.69795 0
M  V30 326 H 35.7481 3.47275 -6.02018 0
M  V30 327 H 38.9391 2.58572 -3.90203 0
M  V30 328 H 39.1121 3.36613 -5.53711 0
M  V30 329 N 32.5182 1.22032 0.997298 0
M  V30 330 C 33.9292 1.0397 1.55071 0
M  V30 331 C 34.2802 -0.398192 1.92117 0
M  V30 332 O 33.4052 -1.28254 1.74298 0
M  V30 333 C 34.0002 1.88109 2.81781 0
M  V30 334 C 32.5592 1.74357 3.33581 0
M  V30 335 C 31.7062 1.84846 2.06706 0
M  V30 336 H 34.6572 1.35941 0.818883 0
M  V30 337 H 34.6782 1.39589 3.53971 0
M  V30 338 H 34.1902 2.92754 2.54787 0
M  V30 339 H 32.2912 0.72427 3.65493 0
M  V30 340 H 32.4042 2.56772 4.04481 0
M  V30 341 H 30.7682 1.28238 2.20062 0
M  V30 342 H 31.5512 2.91014 1.82114 0
M  V30 343 N 33.9963 -1.19345 1.0293 0
M  V30 344 C 35.4073 -1.70725 0.755633 0
M  V30 345 C 35.7583 -1.82326 -0.724676 0
M  V30 346 O 34.8833 -1.49471 -1.56484 0
M  V30 347 C 35.4783 -3.10084 1.36503 0
M  V30 348 C 34.0373 -3.58723 1.13994 0
M  V30 349 C 33.1843 -2.35577 1.46283 0
M  V30 350 H 36.1353 -1.0418 1.19718 0
M  V30 351 H 36.1563 -3.72787 0.762217 0
M  V30 352 H 35.6683 -3.01609 2.44241 0
M  V30 353 H 33.7693 -3.72512 0.0807901 0
M  V30 354 H 33.8823 -4.42816 1.82894 0
M  V30 355 H 32.2463 -2.38935 0.88217 0
M  V30 356 H 33.0293 -2.29731 2.55105 0
M  V30 357 N 35.4744 -0.807222 -1.35358 0
M  V30 358 C 36.7204 -0.388463 -1.99045 0
M  V30 359 C 37.0534 1.04184 -1.63888 0
M  V30 360 O 36.3284 1.72292 -0.902535 0
M  V30 361 C 36.6114 -0.572783 -3.55515 0
M  V30 362 C 36.4644 -2.04807 -4.00468 0
M  V30 363 C 37.7834 0.00114064 -4.401 0
M  V30 364 H 34.9024 -0.142619 -0.723069 0
M  V30 365 H 37.5444 -1.01687 -1.60498 0
M  V30 366 H 35.6944 -0.0378425 -3.88482 0
M  V30 367 H 37.3664 -2.64544 -3.77908 0
M  V30 368 H 35.6094 -2.54427 -3.51353 0
M  V30 369 H 36.2804 -2.12792 -5.09337 0
M  V30 370 H 38.7564 -0.455716 -4.13597 0
M  V30 371 H 37.6324 -0.157737 -5.48673 0
M  V30 372 H 37.8934 1.09488 -4.28328 0
M  V30 373 N 36.9525 1.47285 -0.560781 0
M  V30 374 C 38.3635 1.86258 -0.128343 0
M  V30 375 C 38.7145 1.46699 1.30284 0
M  V30 376 O 37.8395 0.871698 1.98067 0
M  V30 377 C 38.4345 3.38044 -0.22614 0
M  V30 378 C 36.9935 3.76096 0.151283 0
M  V30 379 C 36.1405 2.71335 -0.572084 0
M  V30 380 H 39.0915 1.38752 -0.770297 0
M  V30 381 H 39.1125 3.76441 0.554322 0
M  V30 382 H 38.6245 3.66806 -1.26788 0
M  V30 383 H 36.7255 3.52951 1.19399 0
M  V30 384 H 36.8385 4.78641 -0.209765 0
M  V30 385 H 35.2025 2.54696 -0.0147653 0
M  V30 386 H 35.9855 3.02938 -1.61504 0
M  V30 387 N 38.4306 0.297415 1.54768 0
M  V30 388 C 39.6786 -0.312295 1.99673 0
M  V30 389 C 39.9996 -1.54686 1.18732 0
M  V30 390 O 39.2696 -1.93854 0.282382 0
M  V30 391 H 37.8496 -0.118381 0.73756 0
M  V30 392 H 40.5116 0.407915 1.90583 0
M  V30 393 H 39.6076 -0.586813 3.06534 0
M  V30 394 N 39.9087 -1.5758 0.0250728 0
M  V30 395 C 40.8187 -2.1343 -0.973905 0
M  V30 396 C 41.8347 -1.08556 -1.35984 0
M  V30 397 O 43.0107 -1.40592 -1.44207 0
M  V30 398 C 40.0757 -2.64703 -2.23904 0
M  V30 399 C 39.1367 -3.84276 -1.91391 0
M  V30 400 C 38.3697 -4.33095 -3.11873 0
M  V30 401 O 38.5927 -3.81107 -4.24398 0
M  V30 402 O 37.5267 -5.24984 -2.94406 0
M  V30 403 H 41.3527 -2.99057 -0.529036 0
M  V30 404 H 38.9377 -1.48118 -0.195288 0
M  V30 405 H 40.8197 -2.97769 -2.98181 0
M  V30 406 H 39.4947 -1.82161 -2.6758 0
M  V30 407 H 38.4017 -3.56143 -1.14511 0
M  V30 408 H 39.7347 -4.67968 -1.52534 0
M  V30 409 N 41.3868 0.248026 -1.55636 0
M  V30 410 C 42.2968 1.32859 -1.93354 0
M  V30 411 C 43.3128 1.52719 -0.833838 0
M  V30 412 O 44.4888 1.66363 -1.13513 0
M  V30 413 C 41.5538 2.66337 -2.21958 0
M  V30 414 C 40.6148 2.55008 -3.45354 0
M  V30 415 C 39.8478 3.82121 -3.72584 0
M  V30 416 O 40.0708 4.83951 -3.01907 0
M  V30 417 O 39.0048 3.80822 -4.6611 0
M  V30 418 H 42.8308 1.03862 -2.85388 0
M  V30 419 H 40.4158 0.448686 -1.42503 0
M  V30 420 H 42.2978 3.45216 -2.4167 0
M  V30 421 H 40.9728 2.95068 -1.33103 0
M  V30 422 H 39.8798 1.7442 -3.30951 0
M  V30 423 H 41.2128 2.31222 -4.34508 0
M  V30 424 N 42.8649 1.48995 0.513639 0
M  V30 425 C 44.1129 1.57531 1.26604 0
M  V30 426 C 44.4339 0.258236 1.93283 0
M  V30 427 O 43.7039 -0.721502 1.8213 0
M  V30 428 H 42.2839 0.580387 0.470276 0
M  V30 429 H 44.9459 1.85552 0.596373 0
M  V30 430 H 44.0419 2.36486 2.03669 0
M  V30 431 N 44.343 -0.763751 1.37857 0
M  V30 432 C 45.253 -1.90817 1.36478 0
M  V30 433 C 46.269 -1.71997 0.263248 0
M  V30 434 O 47.445 -1.95095 0.499979 0
M  V30 435 C 44.51 -3.2605 1.17864 0
M  V30 436 C 43.571 -3.57467 2.3773 0
M  V30 437 C 42.804 -4.86249 2.19995 0
M  V30 438 O 43.027 -5.57884 1.18836 0
M  V30 439 O 41.961 -5.16911 3.08361 0
M  V30 440 H 45.787 -1.94933 2.32884 0
M  V30 441 H 43.372 -0.907619 1.1867 0
M  V30 442 H 45.254 -4.06924 1.09504 0
M  V30 443 H 43.929 -3.22769 0.245372 0
M  V30 444 H 42.836 -2.76796 2.51664 0
M  V30 445 H 44.169 -3.655 3.29652 0
M  V30 446 N 45.8211 -1.22559 -0.990812 0
M  V30 447 C 46.7511 -1.0218 -2.09956 0
M  V30 448 C 47.7321 0.0579394 -1.70001 0
M  V30 449 O 48.9171 -0.104684 -1.93918 0
M  V30 450 C 46.0471 -0.601023 -3.4206 0
M  V30 451 C 45.0011 -1.62694 -3.95872 0
M  V30 452 C 44.3271 -1.06193 -5.24049 0
M  V30 453 C 45.6271 -3.01743 -4.2632 0
M  V30 454 H 47.3211 -1.94916 -2.27262 0
M  V30 455 H 44.8671 -0.938566 -1.09211 0
M  V30 456 H 46.8201 -0.445561 -4.19038 0
M  V30 457 H 45.5441 0.362005 -3.24588 0
M  V30 458 H 44.2031 -1.77021 -3.21028 0
M  V30 459 H 43.8511 -0.0901903 -5.02919 0
M  V30 460 H 43.5511 -1.74732 -5.61019 0
M  V30 461 H 45.0751 -0.918092 -6.03658 0
M  V30 462 H 46.4891 -2.90777 -4.94087 0
M  V30 463 H 44.8861 -3.67425 -4.74467 0
M  V30 464 H 45.9561 -3.51518 -3.34011 0
M  V30 465 N 47.2992 1.18797 -1.03562 0
M  V30 466 C 48.5452 1.8893 -0.737113 0
M  V30 467 C 48.8782 1.79837 0.732956 0
M  V30 468 O 48.1532 1.19525 1.5344 0
M  V30 469 C 48.4362 3.39607 -1.19745 0
M  V30 470 C 48.2892 3.57537 -2.72924 0
M  V30 471 C 49.6082 4.33069 -0.783526 0
M  V30 472 H 46.7272 0.686057 -0.269249 0
M  V30 473 H 49.3692 1.39797 -1.28673 0
M  V30 474 H 47.5192 3.81583 -0.729855 0
M  V30 475 H 49.1912 3.24688 -3.27682 0
M  V30 476 H 47.4342 3.00363 -3.12993 0
M  V30 477 H 48.1052 4.63238 -3.00191 0
M  V30 478 H 50.5812 3.98846 -1.18581 0
M  V30 479 H 49.4572 5.3707 -1.13343 0
M  V30 480 H 49.7182 4.40986 0.313681 0
M  V30 481 N 48.7773 0.814389 1.34928 0
M  V30 482 C 50.0023 0.410097 2.03305 0
M  V30 483 C 50.4273 -0.973464 1.60951 0
M  V30 484 O 49.7853 -1.63185 0.789964 0
M  V30 485 C 49.8333 0.51049 3.56968 0
M  V30 486 O 48.9373 -0.473035 4.09678 0
M  V30 487 H 48.2783 0.170088 0.641846 0
M  V30 488 H 50.8083 1.10244 1.72358 0
M  V30 489 H 50.8183 0.383135 4.06197 0
M  V30 490 H 49.4933 1.51963 3.87144 0
M  V30 491 H 48.0703 -0.305272 3.71648 0
M  V30 492 N 50.2554 -1.46986 0.568584 0
M  V30 493 C 51.4834 -2.0683 0.0539956 0
M  V30 494 C 51.8984 -1.41953 -1.24478 0
M  V30 495 O 51.2554 -0.519933 -1.74937 0
M  V30 496 C 51.3064 -3.61254 -0.133362 0
M  V30 497 O 51.0274 -4.237 1.11399 0
M  V30 498 C 52.5284 -4.37992 -0.683927 0
M  V30 499 H 49.7484 -0.669058 0.0510141 0
M  V30 500 H 52.2924 -1.88824 0.785234 0
M  V30 501 H 50.4474 -3.78735 -0.81477 0
M  V30 502 H 50.8614 -5.16388 0.91888 0
M  V30 503 H 52.3354 -5.46684 -0.764263 0
M  V30 504 H 52.8124 -4.05058 -1.69778 0
M  V30 505 H 53.4184 -4.25283 -0.0378494 0
M  V30 506 N 51.7335 -0.305618 -1.54608 0
M  V30 507 C 53.0105 0.355652 -1.92339 0
M  V30 508 C 53.3905 1.71324 -1.23335 0
M  V30 509 O 52.7385 2.25473 -0.370702 0
M  V30 510 C 52.9485 0.46572 -3.45879 0
M  V30 511 C 54.2965 0.734426 -4.182 0
M  V30 512 O 55.3205 0.54935 -3.51938 0
M  V30 513 O 54.1795 1.09024 -5.35515 0
M  V30 514 H 51.2735 0.199666 -0.802535 0
M  V30 515 H 53.8195 -0.354017 -1.65966 0
M  V30 516 H 52.5915 -0.488461 -3.88239 0
M  V30 517 H 52.2145 1.22367 -3.78301 0
M  V30 518 N 53.2116 1.57565 -0.0334293 0
M  V30 519 C 54.6226 1.79746 0.504798 0
M  V30 520 C 54.9736 0.944091 1.71992 0
M  V30 521 O 54.0986 0.155694 2.15839 0
M  V30 522 C 54.6936 3.25997 0.922567 0
M  V30 523 C 53.2526 3.49159 1.40588 0
M  V30 524 C 52.3996 2.74785 0.372633 0
M  V30 525 H 55.3506 1.56565 -0.259436 0
M  V30 526 H 55.3716 3.35945 1.78666 0
M  V30 527 H 54.8836 3.88081 0.0379825 0
M  V30 528 H 52.9846 2.92332 2.31025 0
M  V30 529 H 53.0976 4.57873 1.41028 0
M  V30 530 H 51.4616 2.40391 0.841672 0
M  V30 531 H 52.2446 3.39587 -0.503559 0
M  V30 532 N 54.6897 -0.239769 1.55765 0
M  V30 533 C 56.1057 -0.588624 1.48349 0
M  V30 534 C 56.3057 -1.88005 0.72502 0
M  V30 535 O 55.3617 -2.51186 0.257269 0
M  V30 536 C 56.6747 -0.68474 2.928 0
M  V30 537 C 58.2227 -0.77659 3.03213 0
M  V30 538 C 58.6977 -0.904207 4.48986 0
M  V30 539 N 60.1887 -0.968896 4.52953 0
M  V30 540 C 60.9237 -1.08703 5.63002 0
M  V30 541 N 60.4197 -1.17026 6.82845 0
M  V30 542 N 62.2127 -1.12074 5.50814 0
M  V30 543 H 54.3637 0.607911 2.03515 0
M  V30 544 H 56.6267 0.21083 0.924259 0
M  V30 545 H 56.3327 0.194284 3.51163 0
M  V30 546 H 56.2067 -1.55435 3.43686 0
M  V30 547 H 58.5937 -1.64606 2.44926 0
M  V30 548 H 58.6747 0.118315 2.55526 0
M  V30 549 H 58.3187 -0.0392633 5.07885 0
M  V30 550 H 58.2487 -1.81426 4.9436 0
M  V30 551 H 60.7397 -0.915633 3.6664 0
M  V30 552 H 61.0527 -1.25966 7.62465 0
M  V30 553 H 59.3977 -1.13971 6.85591 0
M  V30 554 H 62.5887 -1.05226 4.5612 0
M  V30 555 H 62.7617 -1.20936 6.36615 0
M  V30 556 N 56.1678 -1.49265 -0.50573 0
M  V30 557 C 57.5788 -1.51769 -1.08734 0
M  V30 558 C 57.9298 -0.301192 -1.93874 0
M  V30 559 O 57.0548 0.589456 -2.08217 0
M  V30 560 C 57.6498 -2.75017 -1.97867 0
M  V30 561 C 56.2088 -2.80314 -2.51199 0
M  V30 562 C 55.3558 -2.4562 -1.28709 0
M  V30 563 H 58.3068 -1.56031 -0.289855 0
M  V30 564 H 58.3278 -2.5491 -2.82491 0
M  V30 565 H 57.8398 -3.63539 -1.35873 0
M  V30 566 H 55.9408 -1.96061 -3.16845 0
M  V30 567 H 56.0538 -3.82366 -2.88675 0
M  V30 568 H 54.4178 -1.97297 -1.61078 0
M  V30 569 H 55.2008 -3.36411 -0.6843 0
M  V30 570 N 57.6459 0.756429 -1.3826 0
M  V30 571 C 58.6089 1.85176 -1.35065 0
M  V30 572 C 59.6089 1.58818 -0.251703 0
M  V30 573 O 60.7989 1.66615 -0.508433 0
M  V30 574 C 57.9309 3.22596 -1.10201 0
M  V30 575 H 59.1239 1.89417 -2.3251 0
M  V30 576 H 56.6769 0.95783 -1.23512 0
M  V30 577 H 57.4119 3.24025 -0.133504 0
M  V30 578 H 57.1969 3.43122 -1.89762 0
M  V30 579 H 58.6869 4.02673 -1.10654 0
M  V30 580 N 59.124 1.23083 0.984299 0
M  V30 581 C 60.349 1.088 1.76571 0
M  V30 582 C 60.774 -0.356657 1.84688 0
M  V30 583 O 60.132 -1.25788 1.30565 0
M  V30 584 C 60.18 1.71371 3.17277 0
M  V30 585 O 59.284 0.973213 4.00752 0
M  V30 586 H 58.625 0.381599 0.543395 0
M  V30 587 H 61.155 1.63057 1.23587 0
M  V30 588 H 61.165 1.76449 3.67872 0
M  V30 589 H 59.84 2.76493 3.10684 0
M  V30 590 H 58.417 0.999078 3.59267 0
M  V30 591 N 60.6021 -1.18246 1.0419 0
M  V30 592 C 61.8321 -1.91916 0.764961 0
M  V30 593 C 62.2401 -1.76485 -0.681898 0
M  V30 594 O 61.5831 -1.09275 -1.47664 0
M  V30 595 C 61.6451 -3.4373 1.05309 0
M  V30 596 C 61.3091 -3.8294 2.4941 0
M  V30 597 C 62.3061 -3.86621 3.47592 0
M  V30 598 C 59.9911 -4.142 2.84155 0
M  V30 599 C 61.9851 -4.21013 4.78568 0
M  V30 600 C 59.6721 -4.48262 4.15337 0
M  V30 601 C 60.6701 -4.51645 5.12353 0
M  V30 602 O 60.3581 -4.84911 6.41183 0
M  V30 603 H 60.0901 -0.61606 0.278292 0
M  V30 604 H 62.6441 -1.50947 1.39299 0
M  V30 605 H 60.8741 -3.84946 0.367933 0
M  V30 606 H 62.5631 -3.9865 0.763752 0
M  V30 607 H 63.3291 -3.62607 3.22089 0
M  V30 608 H 59.2081 -4.10743 2.09311 0
M  V30 609 H 62.7521 -4.23568 5.54289 0
M  V30 610 H 58.6491 -4.71737 4.40607 0
M  V30 611 H 59.4171 -5.02809 6.45852 0
M  V30 612 N 62.0802 -0.821533 -1.34494 0
M  V30 613 C 63.3052 -0.420873 -2.03085 0
M  V30 614 C 63.7302 0.964915 -1.61465 0
M  V30 615 O 63.0882 1.62763 -0.798607 0
M  V30 616 C 63.1362 -0.529414 -3.56693 0
M  V30 617 O 62.2402 0.451302 -4.09923 0
M  V30 618 H 61.5812 -0.173489 -0.640935 0
M  V30 619 H 64.1112 -1.11157 -1.71771 0
M  V30 620 H 64.1212 -0.404671 -4.05988 0
M  V30 621 H 62.7962 -1.54014 -3.86332 0
M  V30 622 H 61.3732 0.285558 -3.71805 0
M  V30 623 N 63.5583 1.46682 -0.576371 0
M  V30 624 C 64.8053 2.02412 -0.0595339 0
M  V30 625 C 65.1333 1.44859 1.29793 0
M  V30 626 O 64.3883 0.601099 1.8624 0
M  V30 627 C 64.6873 3.57345 0.062886 0
M  V30 628 C 64.3533 4.33908 -1.22616 0
M  V30 629 C 63.0153 4.54544 -1.57933 0
M  V30 630 C 65.3673 4.77919 -2.07948 0
M  V30 631 C 62.6953 5.16444 -2.78393 0
M  V30 632 C 65.0473 5.41149 -3.27629 0
M  V30 633 C 63.7113 5.60014 -3.63236 0
M  V30 634 H 62.9813 0.74068 -0.021785 0
M  V30 635 H 65.6283 1.76128 -0.751735 0
M  V30 636 H 63.9333 3.82729 0.838178 0
M  V30 637 H 65.6303 3.98136 0.478439 0
M  V30 638 H 62.2203 4.18138 -0.941202 0
M  V30 639 H 66.4043 4.61738 -1.81967 0
M  V30 640 H 61.6603 5.29242 -3.06126 0
M  V30 641 H 65.8343 5.74211 -3.94023 0
M  V30 642 H 63.4613 6.07748 -4.56669 0
M  V30 643 N 65.0364 0.313813 1.54444 0
M  V30 644 C 66.2764 -0.292389 2.02298 0
M  V30 645 C 66.6404 -1.50105 1.19719 0
M  V30 646 O 67.8414 -2.17947 1.5733 0
M  V30 647 C 66.1124 -0.627682 3.51845 0
M  V30 648 S 67.6714 -1.21493 4.21646 0
M  V30 649 H 64.4894 -0.0890247 0.705405 0
M  V30 650 H 67.0914 0.444668 1.90376 0
M  V30 651 H 65.7954 0.260265 4.09574 0
M  V30 652 H 65.3264 -1.39519 3.67829 0
M  V30 653 H 67.3414 -2.5022 4.28491 0
M  V30 654 N 66.5145 -1.57545 0.0417849 0
M  V30 655 C 67.7395 -1.97035 -0.647455 0
M  V30 656 C 68.1645 -0.918775 -1.64135 0
M  V30 657 O 67.5225 0.119006 -1.80909 0
M  V30 658 C 67.5705 -3.35609 -1.31905 0
M  V30 659 O 66.6745 -3.3287 -2.43457 0
M  V30 660 H 66.0155 -0.64211 -0.169086 0
M  V30 661 H 68.5455 -2.04318 0.107399 0
M  V30 662 H 68.5555 -3.72126 -1.67291 0
M  V30 663 H 67.2305 -4.11685 -0.590586 0
M  V30 664 H 65.8075 -3.08087 -2.10088 0
M  V30 665 N 67.9926 0.231505 -1.5589 0
M  V30 666 C 69.2406 0.955461 -1.78088 0
M  V30 667 C 69.5616 1.85262 -0.608533 0
M  V30 668 O 68.8316 1.92277 0.375035 0
M  V30 669 H 67.4116 0.355787 -0.656829 0
M  V30 670 H 70.0736 0.245751 -1.93344 0
M  V30 671 H 69.1696 1.56814 -2.69844 0
M  V30 672 N 69.4707 1.49531 0.497807 0
M  V30 673 C 70.4177 1.66436 1.59899 0
M  V30 674 C 71.3877 0.505793 1.58212 0
M  V30 675 O 72.5727 0.733202 1.7615 0
M  V30 676 C 69.7127 1.7399 2.98029 0
M  V30 677 C 68.8257 3.01172 3.09708 0
M  V30 678 C 67.9607 2.99686 4.38591 0
M  V30 679 C 66.9997 4.21434 4.43914 0
M  V30 680 N 66.1367 4.1784 5.64229 0
M  V30 681 H 70.9767 2.60459 1.44793 0
M  V30 682 H 68.5137 1.29137 0.704423 0
M  V30 683 H 70.4717 1.76352 3.78095 0
M  V30 684 H 69.1017 0.834301 3.11832 0
M  V30 685 H 68.1537 3.08408 2.22685 0
M  V30 686 H 69.4657 3.91165 3.09502 0
M  V30 687 H 68.6197 3.00628 5.2698 0
M  V30 688 H 67.3587 2.07477 4.41367 0
M  V30 689 H 66.3637 4.20733 3.53926 0
M  V30 690 H 67.5887 5.14839 4.42851 0
M  V30 691 H 65.5347 3.28469 5.67841 0
M  V30 692 H 65.4517 5.01571 5.65652 0
M  V30 693 H 66.7197 4.22889 6.54817 0
M  V30 694 N 70.9488 -0.749086 1.3866 0
M  V30 695 C 72.1968 -1.50535 1.34847 0
M  V30 696 C 72.5178 -1.94909 -0.0595016 0
M  V30 697 O 71.7878 -1.67973 -1.00806 0
M  V30 698 H 70.3678 -0.558395 0.49619 0
M  V30 699 H 73.0298 -0.890165 1.73384 0
M  V30 700 H 72.1258 -2.39413 2.00219 0
M  V30 701 N 72.4269 -1.23603 -0.977757 0
M  V30 702 C 73.6729 -1.07129 -1.72195 0
M  V30 703 C 74.0059 0.390501 -1.90233 0
M  V30 704 O 73.2809 1.28902 -1.45653 0
M  V30 705 C 73.5639 -1.80031 -3.11867 0
M  V30 706 C 73.4169 -3.33899 -3.01383 0
M  V30 707 C 74.7359 -1.56492 -4.11337 0
M  V30 708 H 71.8549 -0.390571 -0.624999 0
M  V30 709 H 74.4969 -1.52142 -1.13811 0
M  V30 710 H 72.6469 -1.41768 -3.6171 0
M  V30 711 H 74.3189 -3.81699 -2.59043 0
M  V30 712 H 72.5619 -3.62796 -2.37827 0
M  V30 713 H 73.2329 -3.801 -4.00285 0
M  V30 714 H 75.7089 -1.89757 -3.70313 0
M  V30 715 H 74.5849 -2.09973 -5.07151 0
M  V30 716 H 74.8459 -0.500874 -4.39254 0
M  V30 717 N 73.905 1.17692 -1.04816 0
M  V30 718 C 75.153 1.87488 -0.754497 0
M  V30 719 C 75.474 1.81205 0.720407 0
M  V30 720 O 74.744 1.23544 1.52032 0
M  V30 721 H 73.324 0.694101 -0.276102 0
M  V30 722 H 75.986 1.42793 -1.32651 0
M  V30 723 H 75.082 2.93328 -1.06606 0
M  V30 724 N 75.3831 0.828654 1.34056 0
M  V30 725 C 76.6321 0.415828 1.97367 0
M  V30 726 C 76.9451 -1.02796 1.6641 0
M  V30 727 O 78.1511 -1.54497 2.23255 0
M  V30 728 C 76.6071 0.692601 3.53173 0
M  V30 729 C 76.2151 2.15038 3.93017 0
M  V30 730 C 77.9591 0.346222 4.23086 0
M  V30 731 C 75.8661 2.37174 5.41758 0
M  V30 732 H 74.7961 0.151755 0.738571 0
M  V30 733 H 77.4471 1.01581 1.52819 0
M  V30 734 H 75.8291 0.0223764 3.95994 0
M  V30 735 H 77.0031 2.86024 3.61285 0
M  V30 736 H 75.3181 2.45875 3.36057 0
M  V30 737 H 77.9151 0.48937 5.32456 0
M  V30 738 H 78.2581 -0.709842 4.10204 0
M  V30 739 H 78.7911 0.971258 3.85761 0
M  V30 740 H 75.5301 3.41308 5.59633 0
M  V30 741 H 75.0501 1.70738 5.74986 0
M  V30 742 H 76.7291 2.19818 6.08514 0
M  V30 743 N 76.8612 -1.46375 0.584142 0
M  V30 744 C 77.8082 -2.30323 -0.148286 0
M  V30 745 C 78.7782 -1.40703 -0.882713 0
M  V30 746 O 79.9632 -1.69651 -0.873099 0
M  V30 747 C 77.1032 -3.25196 -1.15507 0
M  V30 748 C 76.2162 -4.29915 -0.423943 0
M  V30 749 C 75.3512 -5.11914 -1.41838 0
M  V30 750 C 74.3902 -6.08381 -0.673736 0
M  V30 751 N 73.5272 -6.83242 -1.6163 0
M  V30 752 H 78.3672 -2.92427 0.573644 0
M  V30 753 H 75.9042 -1.44118 0.294703 0
M  V30 754 H 77.8622 -3.78646 -1.75166 0
M  V30 755 H 76.4922 -2.64898 -1.8447 0
M  V30 756 H 75.5442 -3.7931 0.287714 0
M  V30 757 H 76.8562 -4.98549 0.158128 0
M  V30 758 H 76.0102 -5.69648 -2.08773 0
M  V30 759 H 74.7492 -4.43243 -2.03438 0
M  V30 760 H 73.7542 -5.49799 0.00938483 0
M  V30 761 H 74.9792 -6.79071 -0.0631082 0
M  V30 762 H 72.9252 -6.1728 -2.22038 0
M  V30 763 H 72.8422 -7.48144 -1.08707 0
M  V30 764 H 74.1102 -7.45534 -2.27596 0
M  V30 765 N 78.3393 -0.321999 -1.54275 0
M  V30 766 C 79.5873 0.280489 -2.00144 0
M  V30 767 C 79.9083 1.52777 -1.21178 0
M  V30 768 O 79.1783 1.9338 -0.313187 0
M  V30 769 H 77.7583 0.106632 -0.73935 0
M  V30 770 H 80.4203 -0.438184 -1.8991 0
M  V30 771 H 79.5163 0.537972 -3.07428 0
M  V30 772 N 79.8174 1.5752 -0.0501392 0
M  V30 773 C 80.7274 2.14952 0.939827 0
M  V30 774 C 81.7434 1.10706 1.34239 0
M  V30 775 O 82.9194 1.42869 1.41952 0
M  V30 776 C 79.9844 2.68232 2.19665 0
M  V30 777 C 79.0454 3.87272 1.85253 0
M  V30 778 C 78.2784 4.38002 3.04943 0
M  V30 779 O 78.5014 3.87811 4.18281 0
M  V30 780 O 77.4354 5.29602 2.86017 0
M  V30 781 H 81.2614 2.9986 0.481392 0
M  V30 782 H 78.8464 1.4841 0.171699 0
M  V30 783 H 80.7284 3.02475 2.93406 0
M  V30 784 H 79.4034 1.86395 2.64648 0
M  V30 785 H 78.3104 3.5792 1.0883 0
M  V30 786 H 79.6434 4.70336 1.4507 0
M  V30 787 N 81.2955 -0.223234 1.56011 0
M  V30 788 C 82.5235 -0.964812 1.83027 0
M  V30 789 C 82.9385 -1.78013 0.62904 0
M  V30 790 O 82.2955 -1.78008 -0.402414 0
M  V30 791 C 82.3465 -1.88373 3.08542 0
M  V30 792 O 82.0675 -1.10137 4.2403 0
M  V30 793 C 83.5685 -2.73934 3.48533 0
M  V30 794 H 80.7885 -0.282842 0.608475 0
M  V30 795 H 83.3325 -0.238971 2.03099 0
M  V30 796 H 81.4875 -2.56354 2.9045 0
M  V30 797 H 81.9015 -1.72501 4.95322 0
M  V30 798 H 83.3755 -3.34117 4.39397 0
M  V30 799 H 83.8525 -3.46244 2.70207 0
M  V30 800 H 84.4585 -2.11369 3.69057 0
M  V30 801 N 82.7736 -1.49793 -0.48987 0
M  V30 802 C 83.9986 -1.63836 -1.27172 0
M  V30 803 C 84.4236 -0.31402 -1.8546 0
M  V30 804 O 83.7816 0.719803 -1.66399 0
M  V30 805 C 83.8296 -2.71797 -2.36978 0
M  V30 806 O 82.9336 -2.31744 -3.41128 0
M  V30 807 H 82.2746 -0.547997 -0.37496 0
M  V30 808 H 84.8046 -1.96053 -0.585191 0
M  V30 809 H 84.8146 -2.94305 -2.82575 0
M  V30 810 H 83.4896 -3.67923 -1.93921 0
M  V30 811 H 82.0666 -2.1961 -3.01373 0
M  V30 812 N 84.2517 0.741722 -1.39055 0
M  V30 813 C 85.4797 1.53098 -1.39171 0
M  V30 814 C 85.8947 1.88794 0.0155099 0
M  V30 815 O 85.2517 1.53626 0.985159 0
M  V30 816 C 85.3027 2.82274 -2.2584 0
M  V30 817 O 85.0237 2.48097 -3.61081 0
M  V30 818 C 86.5247 3.76343 -2.34266 0
M  V30 819 H 83.7447 0.473335 -0.4756 0
M  V30 820 H 86.2887 0.917045 -1.82785 0
M  V30 821 H 84.4437 3.40015 -1.85656 0
M  V30 822 H 84.8577 3.31029 -4.06842 0
M  V30 823 H 86.3317 4.63898 -2.9917 0
M  V30 824 H 86.8087 4.17619 -1.35982 0
M  V30 825 H 87.4147 3.24523 -2.74891 0
M  V30 826 N 85.7298 1.2412 0.971189 0
M  V30 827 C 86.6928 1.03156 2.04674 0
M  V30 828 C 87.6928 -0.00990322 1.60797 0
M  V30 829 O 88.8828 0.230729 1.72665 0
M  V30 830 C 86.0148 0.562765 3.36223 0
M  V30 831 H 87.2078 1.98614 2.24705 0
M  V30 832 H 84.7608 1.06293 1.14593 0
M  V30 833 H 85.4958 -0.395176 3.21883 0
M  V30 834 H 85.2808 1.31441 3.69413 0
M  V30 835 H 86.7708 0.437015 4.15307 0
M  V30 836 N 87.2079 -1.17134 1.05439 0
M  V30 837 C 88.4359 -1.91372 0.786414 0
M  V30 838 C 88.8509 -1.76955 -0.658202 0
M  V30 839 O 88.2079 -1.10838 -1.44987 0
M  V30 840 C 88.2589 -3.42356 1.1608 0
M  V30 841 O 87.9799 -3.56332 2.54871 0
M  V30 842 C 89.4809 -4.33663 0.919322 0
M  V30 843 H 86.7009 -0.607118 0.285743 0
M  V30 844 H 89.2449 -1.48525 1.40572 0
M  V30 845 H 87.3999 -3.82939 0.586191 0
M  V30 846 H 87.8139 -4.49896 2.69618 0
M  V30 847 H 89.2879 -5.38099 1.231 0
M  V30 848 H 89.7649 -4.38959 -0.145359 0
M  V30 849 H 90.3709 -3.98796 1.47789 0
M  V30 850 N 88.686 -0.835752 -1.33615 0
M  V30 851 C 90.097 -0.487099 -1.80234 0
M  V30 852 C 90.448 0.993627 -1.69179 0
M  V30 853 O 89.573 1.77403 -1.23924 0
M  V30 854 C 90.168 -0.877385 -3.27242 0
M  V30 855 C 88.727 -0.580915 -3.7189 0
M  V30 856 C 87.874 -1.0874 -2.5509 0
M  V30 857 H 90.825 -1.02474 -1.2118 0
M  V30 858 H 90.846 -0.186195 -3.80044 0
M  V30 859 H 90.358 -1.95512 -3.35256 0
M  V30 860 H 88.459 0.486881 -3.69405 0
M  V30 861 H 88.572 -1.13396 -4.65487 0
M  V30 862 H 86.936 -0.508392 -2.49575 0
M  V30 863 H 87.719 -2.17184 -2.65868 0
M  V30 864 N 90.1641 1.46063 -0.591896 0
M  V30 865 C 91.5801 1.57561 -0.254288 0
M  V30 866 C 91.7801 1.58565 1.24336 0
M  V30 867 O 90.8361 1.50753 2.02558 0
M  V30 868 C 92.1491 2.86549 -0.911611 0
M  V30 869 C 93.6971 3.00197 -0.886059 0
M  V30 870 C 94.1721 4.31933 -1.5231 0
M  V30 871 N 95.6631 4.38654 -1.48786 0
M  V30 872 C 96.3981 5.39222 -1.95006 0
M  V30 873 N 95.8941 6.46414 -2.49241 0
M  V30 874 N 97.6871 5.3048 -1.85868 0
M  V30 875 H 89.8381 1.43655 -1.56451 0
M  V30 876 H 92.1011 0.68583 -0.654478 0
M  V30 877 H 91.8071 2.91651 -1.96551 0
M  V30 878 H 91.6811 3.74794 -0.425368 0
M  V30 879 H 94.0681 2.9467 0.159246 0
M  V30 880 H 94.1491 2.13403 -1.41041 0
M  V30 881 H 93.7931 4.38217 -2.56765 0
M  V30 882 H 93.7231 5.17516 -0.973891 0
M  V30 883 H 96.2141 3.61793 -1.09151 0
M  V30 884 H 96.5271 7.19376 -2.82344 0
M  V30 885 H 94.8721 6.47208 -2.53272 0
M  V30 886 H 98.0631 4.45643 -1.43248 0
M  V30 887 H 98.2361 6.08711 -2.22204 0
M  V30 888 N 91.6422 0.330177 1.54103 0
M  V30 889 C 93.0582 -0.0222371 1.59585 0
M  V30 890 C 93.2582 -1.49902 1.34654 0
M  V30 891 O 92.3142 -2.25592 1.13421 0
M  V30 892 C 93.6272 0.401932 2.98002 0
M  V30 893 C 95.1752 0.353145 3.11001 0
M  V30 894 C 95.6502 0.752576 4.51775 0
M  V30 895 N 97.1412 0.706239 4.57784 0
M  V30 896 C 97.8762 0.987417 5.64834 0
M  V30 897 N 97.3722 1.33607 6.79795 0
M  V30 898 N 99.1652 0.91254 5.54643 0
M  V30 899 H 91.3162 1.29228 1.68564 0
M  V30 900 H 93.5792 0.525906 0.78875 0
M  V30 901 H 93.2852 1.4311 3.21267 0
M  V30 902 H 93.1592 -0.229699 3.765 0
M  V30 903 H 95.5462 -0.666822 2.87467 0
M  V30 904 H 95.6272 1.0198 2.34593 0
M  V30 905 H 95.2712 1.77049 4.76042 0
M  V30 906 H 95.2012 0.0635409 5.26562 0
M  V30 907 H 97.6922 0.44889 3.75224 0
M  V30 908 H 98.0052 1.53582 7.57385 0
M  V30 909 H 96.3502 1.37439 6.81275 0
M  V30 910 H 99.5412 0.639601 4.6371 0
M  V30 911 H 99.7142 1.13503 6.37982 0
M  V30 912 N 93.1203 -1.57491 0.0584922 0
M  V30 913 C 94.3453 -1.97711 -0.62652 0
M  V30 914 C 94.7703 -0.936132 -1.63151 0
M  V30 915 O 94.1283 0.099811 -1.81025 0
M  V30 916 C 94.1763 -3.36989 -1.28338 0
M  V30 917 O 93.2803 -3.35433 -2.39913 0
M  V30 918 H 92.6213 -0.643868 -0.162266 0
M  V30 919 H 95.1513 -2.04193 0.129064 0
M  V30 920 H 95.1613 -3.73879 -1.63335 0
M  V30 921 H 93.8363 -4.12289 -0.546889 0
M  V30 922 H 92.4133 -3.10298 -2.06809 0
M  V30 923 N 94.5984 0.214957 -1.56127 0
M  V30 924 C 95.8754 0.963093 -1.70247 0
M  V30 925 C 96.2554 2.02166 -0.60764 0
M  V30 926 O 95.6034 2.25244 0.384385 0
M  V30 927 C 95.8134 1.56756 -3.11815 0
M  V30 928 C 97.1614 2.0573 -3.7143 0
M  V30 929 O 98.1854 1.66637 -3.14818 0
M  V30 930 O 97.0444 2.77603 -4.70743 0
M  V30 931 H 94.1384 0.450321 -0.693643 0
M  V30 932 H 96.6844 0.206219 -1.68442 0
M  V30 933 H 95.4564 0.803533 -3.82961 0
M  V30 934 H 95.0794 2.3898 -3.17765 0
M  V30 935 N 96.0765 1.50051 0.48192 0
M  V30 936 C 97.0065 1.71046 1.58951 0
M  V30 937 C 97.9875 0.559288 1.60642 0
M  V30 938 O 99.1725 0.797243 1.77081 0
M  V30 939 C 96.3025 1.79462 2.97339 0
M  V30 940 C 95.2565 2.94558 3.10515 0
M  V30 941 C 94.5825 2.88105 4.50444 0
M  V30 942 C 95.8825 4.35227 2.88747 0
M  V30 943 H 97.5765 2.6378 1.41635 0
M  V30 944 H 95.1225 1.26936 0.679942 0
M  V30 945 H 97.0755 1.92734 3.74742 0
M  V30 946 H 95.7995 0.833412 3.15788 0
M  V30 947 H 94.4585 2.80918 2.35543 0
M  V30 948 H 94.1065 1.89853 4.65795 0
M  V30 949 H 93.8065 3.65366 4.60197 0
M  V30 950 H 95.3305 3.03412 5.29881 0
M  V30 951 H 96.7445 4.49449 3.55905 0
M  V30 952 H 95.1415 5.13856 3.09955 0
M  V30 953 H 96.2115 4.48347 1.84696 0
M  V30 954 N 97.5546 -0.734337 1.39446 0
M  V30 955 C 98.8316 -1.48579 1.27215 0
M  V30 956 C 99.2116 -2.1077 -0.117968 0
M  V30 957 O 98.5596 -1.98646 -1.12924 0
M  V30 958 C 98.7696 -2.53667 2.39696 0
M  V30 959 C 100.118 -3.20031 2.79044 0
M  V30 960 O 101.142 -2.6398 2.39151 0
M  V30 961 O 100.001 -4.21455 3.47905 0
M  V30 962 H 97.0946 -0.659816 0.49857 0
M  V30 963 H 99.6406 -0.768106 1.51322 0
M  V30 964 H 98.4126 -2.06096 3.32626 0
M  V30 965 H 98.0356 -3.32994 2.17258 0
M  V30 966 N 99.0327 -1.24633 -0.964593 0
M  V30 967 C 99.9627 -1.06611 -2.07741 0
M  V30 968 C 100.944 0.0218666 -1.70086 0
M  V30 969 O 102.129 -0.145793 -1.93652 0
M  V30 970 C 99.2587 -0.673444 -3.40708 0
M  V30 971 C 98.2127 -1.71054 -3.92332 0
M  V30 972 C 97.5387 -1.17285 -5.21678 0
M  V30 973 C 98.8387 -3.10718 -4.19824 0
M  V30 974 H 100.533 -1.99693 -2.23076 0
M  V30 975 H 98.0787 -0.96152 -1.07195 0
M  V30 976 H 100.032 -0.534345 -4.17998 0
M  V30 977 H 98.7557 0.293073 -3.25282 0
M  V30 978 H 97.4147 -1.83791 -3.17201 0
M  V30 979 H 97.0627 -0.196847 -5.02615 0
M  V30 980 H 96.7627 -1.86592 -5.57187 0
M  V30 981 H 98.2867 -1.04593 -6.01575 0
M  V30 982 H 99.7007 -3.01192 -4.87808 0
M  V30 983 H 98.0977 -3.77406 -4.66567 0
M  V30 984 H 99.1677 -3.58524 -3.26479 0
M  V30 985 N 100.511 1.16574 -1.06058 0
M  V30 986 C 101.759 1.86677 -0.77434 0
M  V30 987 C 102.08 1.81959 0.701147 0
M  V30 988 O 101.35 1.2515 1.50713 0
M  V30 989 H 99.9298 0.691134 -0.283449 0
M  V30 990 H 102.592 1.41378 -1.34158 0
M  V30 991 H 101.688 2.92181 -1.09711 0
M  V30 992 N 101.989 0.842826 1.3317 0
M  V30 993 C 103.219 0.453397 2.01564 0
M  V30 994 C 103.627 -0.951147 1.63554 0
M  V30 995 O 102.97 -1.63021 0.846746 0
M  V30 996 C 103.032 0.499013 3.5602 0
M  V30 997 C 102.696 1.86037 4.1742 0
M  V30 998 C 103.693 2.82416 4.36506 0
M  V30 999 C 101.378 2.15428 4.53757 0
M  V30 1000 C 103.372 4.06346 4.91082 0
M  V30 1001 C 101.059 3.39615 5.0804 0
M  V30 1002 C 102.057 4.3489 5.26649 0
M  V30 1003 O 101.745 5.5688 5.79776 0
M  V30 1004 H 101.477 0.177871 0.652179 0
M  V30 1005 H 104.031 1.13808 1.70988 0
M  V30 1006 H 102.261 -0.242467 3.85939 0
M  V30 1007 H 103.95 0.126852 4.05702 0
M  V30 1008 H 104.716 2.6101 4.08777 0
M  V30 1009 H 100.595 1.42061 4.38565 0
M  V30 1010 H 104.139 4.80722 5.05522 0
M  V30 1011 H 100.036 3.60876 5.352 0
M  V30 1012 H 100.804 5.58674 5.98185 0
M  V30 1013 N 103.467 -1.45747 0.599634 0
M  V30 1014 C 104.377 -2.34262 -0.125888 0
M  V30 1015 C 105.393 -1.50768 -0.868625 0
M  V30 1016 O 106.569 -1.83592 -0.828003 0
M  V30 1017 C 103.634 -3.28252 -1.11587 0
M  V30 1018 C 102.695 -4.27651 -0.375956 0
M  V30 1019 C 101.928 -5.1715 -1.31877 0
M  V30 1020 O 102.151 -5.09916 -2.55621 0
M  V30 1021 O 101.085 -5.96286 -0.820157 0
M  V30 1022 H 104.911 -2.97688 0.601315 0
M  V30 1023 H 102.496 -1.44999 0.359934 0
M  V30 1024 H 104.378 -3.86191 -1.68626 0
M  V30 1025 H 103.053 -2.67401 -1.82424 0
M  V30 1026 H 101.96 -3.7335 0.236698 0
M  V30 1027 H 103.293 -4.91334 0.29177 0
M  V30 1028 N 104.945 -0.338344 -1.53925 0
M  V30 1029 C 106.356 0.146651 -1.86123 0
M  V30 1030 C 106.707 1.5042 -1.2597 0
M  V30 1031 O 105.832 2.08723 -0.571294 0
M  V30 1032 C 106.427 0.272879 -3.37699 0
M  V30 1033 C 104.986 0.702103 -3.69794 0
M  V30 1034 C 104.133 -0.167304 -2.76795 0
M  V30 1035 H 107.084 -0.558123 -1.48562 0
M  V30 1036 H 107.105 1.10128 -3.64214 0
M  V30 1037 H 106.617 -0.715307 -3.81451 0
M  V30 1038 H 104.718 1.6995 -3.31584 0
M  V30 1039 H 104.831 0.495604 -4.7653 0
M  V30 1040 H 103.195 0.359527 -2.5215 0
M  V30 1041 H 103.978 -1.15253 -3.23375 0
M  V30 1042 N 106.423 1.57458 -0.0668435 0
M  V30 1043 C 107.333 2.15937 0.916975 0
M  V30 1044 C 108.349 1.12123 1.33058 0
M  V30 1045 O 109.525 1.44366 1.40429 0
M  V30 1046 C 106.59 2.70547 2.16807 0
M  V30 1047 C 105.651 3.89215 1.81135 0
M  V30 1048 C 104.884 4.41211 3.0028 0
M  V30 1049 O 105.107 3.92225 4.14144 0
M  V30 1050 O 104.041 5.32605 2.80384 0
M  V30 1051 H 107.867 3.00354 0.449561 0
M  V30 1052 H 105.452 1.48584 0.155949 0
M  V30 1053 H 107.334 3.0557 2.90181 0
M  V30 1054 H 106.009 1.89192 2.62656 0
M  V30 1055 H 104.916 3.59054 1.05028 0
M  V30 1056 H 106.249 4.71848 1.40073 0
M  V30 1057 N 107.901 -0.206675 1.56239 0
M  V30 1058 C 109.149 -0.927007 1.79586 0
M  V30 1059 C 109.47 -1.8427 0.637929 0
M  V30 1060 O 108.74 -1.92849 -0.344398 0
M  V30 1061 H 107.32 -0.345292 0.662407 0
M  V30 1062 H 109.982 -0.21496 1.93711 0
M  V30 1063 H 109.078 -1.52501 2.72305 0
M  V30 1064 N 109.379 -1.50304 -0.473955 0
M  V30 1065 C 110.604 -1.65175 -1.25427 0
M  V30 1066 C 111.029 -0.333673 -1.85117 0
M  V30 1067 O 110.387 0.702114 -1.67153 0
M  V30 1068 C 110.435 -2.74295 -2.34082 0
M  V30 1069 O 109.539 -2.35349 -3.38651 0
M  V30 1070 H 108.88 -0.551944 -0.369126 0
M  V30 1071 H 111.41 -1.96662 -0.564364 0
M  V30 1072 H 111.42 -2.97285 -2.79438 0
M  V30 1073 H 110.095 -3.69959 -1.90008 0
M  V30 1074 H 108.672 -2.22794 -2.99027 0
M  V30 1075 N 110.857 0.726932 -1.39834 0
M  V30 1076 C 111.82 1.82269 -1.38962 0
M  V30 1077 C 112.82 1.58248 -0.285334 0
M  V30 1078 O 114.01 1.65499 -0.54366 0
M  V30 1079 C 111.142 3.20186 -1.17019 0
M  V30 1080 H 112.335 1.84443 -2.36476 0
M  V30 1081 H 109.888 0.931416 -1.25516 0
M  V30 1082 H 110.623 3.23669 -0.202204 0
M  V30 1083 H 110.408 3.3902 -1.96998 0
M  V30 1084 H 111.898 4.00235 -1.1917 0
M  V30 1085 N 112.336 1.25143 0.95797 0
M  V30 1086 C 113.561 1.12521 1.74223 0
M  V30 1087 C 113.986 -0.317402 1.85403 0
M  V30 1088 O 113.344 -1.2299 1.33204 0
M  V30 1089 C 113.392 1.78062 3.1357 0
M  V30 1090 O 112.496 1.058 3.98598 0
M  V30 1091 H 111.837 0.39304 0.535178 0
M  V30 1092 H 114.367 1.65641 1.201 0
M  V30 1093 H 114.377 1.84213 3.64046 0
M  V30 1094 H 113.052 2.83021 3.04749 0
M  V30 1095 H 111.629 1.07506 3.57067 0
M  V30 1096 N 113.814 -1.1601 1.06675 0
M  V30 1097 C 115.225 -1.68235 0.809565 0
M  V30 1098 C 115.576 -1.8454 -0.666303 0
M  V30 1099 O 114.701 -1.54374 -1.5165 0
M  V30 1100 C 115.296 -3.05585 1.46299 0
M  V30 1101 C 113.855 -3.54915 1.25349 0
M  V30 1102 C 113.002 -2.30804 1.53703 0
M  V30 1103 H 115.953 -1.00318 1.22971 0
M  V30 1104 H 115.974 -3.70174 0.880431 0
M  V30 1105 H 115.486 -2.93686 2.53713 0
M  V30 1106 H 113.587 -3.72067 0.199261 0
M  V30 1107 H 113.7 -4.36774 1.9689 0
M  V30 1108 H 112.064 -2.36007 0.957739 0
M  V30 1109 H 112.847 -2.21499 2.62284 0
M  V30 1110 N 115.292 -0.849877 -1.32721 0
M  V30 1111 C 116.52 -0.464754 -2.01613 0
M  V30 1112 C 116.935 0.937191 -1.63897 0
M  V30 1113 O 116.292 1.61081 -0.857856 0
M  V30 1114 C 116.343 -0.588638 -3.56675 0
M  V30 1115 O 116.064 -1.93535 -3.93034 0
M  V30 1116 C 117.565 -0.2019 -4.4284 0
M  V30 1117 H 114.785 -0.183215 -0.645502 0
M  V30 1118 H 117.329 -1.1455 -1.69407 0
M  V30 1119 H 115.484 0.0443159 -3.87375 0
M  V30 1120 H 115.898 -1.92871 -4.87751 0
M  V30 1121 H 117.372 -0.339599 -5.50954 0
M  V30 1122 H 117.849 0.857224 -4.30753 0
M  V30 1123 H 118.455 -0.809733 -4.17521 0
M  V30 1124 N 116.77 1.45427 -0.607355 0
M  V30 1125 C 118.181 1.85756 -0.187535 0
M  V30 1126 C 118.532 1.5077 1.25551 0
M  V30 1127 O 117.657 0.93427 1.95193 0
M  V30 1128 C 118.252 3.37154 -0.333572 0
M  V30 1129 C 116.811 3.76387 0.0315542 0
M  V30 1130 C 115.958 2.69377 -0.658117 0
M  V30 1131 H 118.909 1.36231 -0.81405 0
M  V30 1132 H 118.93 3.78014 0.43428 0
M  V30 1133 H 118.442 3.62586 -1.38393 0
M  V30 1134 H 116.543 3.56571 1.0811 0
M  V30 1135 H 116.656 4.77731 -0.361935 0
M  V30 1136 H 115.02 2.5452 -0.0957873 0
M  V30 1137 H 115.803 2.97646 -1.7106 0
M  V30 1138 N 118.248 0.346503 1.53744 0
M  V30 1139 C 119.659 -0.136779 1.86198 0
M  V30 1140 C 120.01 -1.49749 1.26766 0
M  V30 1141 O 119.135 -2.08417 0.582355 0
M  V30 1142 C 119.73 -0.254966 3.37839 0
M  V30 1143 C 118.289 -0.682482 3.70161 0
M  V30 1144 C 117.436 0.181981 2.76702 0
M  V30 1145 H 120.387 0.565994 1.48264 0
M  V30 1146 H 120.408 -1.08195 3.64793 0
M  V30 1147 H 119.92 0.735526 3.81066 0
M  V30 1148 H 118.021 -1.68189 3.3248 0
M  V30 1149 H 118.134 -0.470326 4.76786 0
M  V30 1150 H 116.498 -0.34615 2.52337 0
M  V30 1151 H 117.281 1.16966 3.2276 0
M  V30 1152 N 119.726 -1.57421 0.075193 0
M  V30 1153 C 120.956 -1.97659 -0.601203 0
M  V30 1154 C 121.364 -0.952427 -1.63479 0
M  V30 1155 O 120.707 0.0688241 -1.83571 0
M  V30 1156 C 120.769 -3.34218 -1.32434 0
M  V30 1157 C 120.433 -4.5484 -0.443826 0
M  V30 1158 C 121.43 -5.19034 0.299969 0
M  V30 1159 C 119.115 -5.00952 -0.367709 0
M  V30 1160 C 121.109 -6.27695 1.10807 0
M  V30 1161 C 118.796 -6.09484 0.444058 0
M  V30 1162 C 119.794 -6.72719 1.18061 0
M  V30 1163 O 119.482 -7.79161 1.97898 0
M  V30 1164 H 119.214 -0.65494 -0.167422 0
M  V30 1165 H 121.768 -2.04886 0.145157 0
M  V30 1166 H 119.998 -3.23615 -2.11685 0
M  V30 1167 H 121.687 -3.59038 -1.89331 0
M  V30 1168 H 122.453 -4.84351 0.250776 0
M  V30 1169 H 118.332 -4.51509 -0.930638 0
M  V30 1170 H 121.876 -6.76982 1.68347 0
M  V30 1171 H 117.773 -6.43601 0.494803 0
M  V30 1172 H 118.541 -7.96055 1.90367 0
M  V30 1173 N 121.204 0.198386 -1.56346 0
M  V30 1174 C 122.134 1.24865 -1.9731 0
M  V30 1175 C 123.115 1.47651 -0.844576 0
M  V30 1176 O 124.3 1.59444 -1.10866 0
M  V30 1177 C 121.43 2.59358 -2.30977 0
M  V30 1178 C 120.384 2.5119 -3.46537 0
M  V30 1179 C 119.71 3.89926 -3.65871 0
M  V30 1180 C 121.01 2.03977 -4.80823 0
M  V30 1181 H 122.704 0.908252 -2.85291 0
M  V30 1182 H 120.25 0.435462 -1.37258 0
M  V30 1183 H 122.203 3.33011 -2.58228 0
M  V30 1184 H 120.927 2.95132 -1.39874 0
M  V30 1185 H 119.586 1.79993 -3.19371 0
M  V30 1186 H 119.234 4.23046 -2.72105 0
M  V30 1187 H 118.934 3.85336 -4.4361 0
M  V30 1188 H 120.458 4.65205 -3.95495 0
M  V30 1189 H 121.872 2.67386 -5.07127 0
M  V30 1190 H 120.269 2.10397 -5.62008 0
M  V30 1191 H 121.339 0.992861 -4.74626 0
M  V30 1192 N 122.682 1.50554 0.465978 0
M  V30 1193 C 123.629 1.6979 1.56333 0
M  V30 1194 C 124.599 0.539239 1.57103 0
M  V30 1195 O 125.784 0.770401 1.74555 0
M  V30 1196 C 122.924 1.80273 2.94271 0
M  V30 1197 C 122.037 3.07674 3.0325 0
M  V30 1198 C 121.172 3.08922 4.32135 0
M  V30 1199 C 120.211 4.30755 4.34875 0
M  V30 1200 N 119.348 4.29714 5.55239 0
M  V30 1201 H 124.188 2.63472 1.39235 0
M  V30 1202 H 121.725 1.30602 0.676873 0
M  V30 1203 H 123.683 1.84332 3.74269 0
M  V30 1204 H 122.313 0.900258 3.09992 0
M  V30 1205 H 121.365 3.13062 2.16094 0
M  V30 1206 H 122.677 3.97642 3.01135 0
M  V30 1207 H 121.831 3.11738 5.20485 0
M  V30 1208 H 120.57 2.16792 4.36866 0
M  V30 1209 H 119.575 4.28146 3.44922 0
M  V30 1210 H 120.8 5.24117 4.31831 0
M  V30 1211 H 118.746 3.4044 5.60746 0
M  V30 1212 H 118.663 5.13456 5.54886 0
M  V30 1213 H 119.931 4.36683 6.457 0
M  V30 1214 N 124.16 -0.719506 1.40217 0
M  V30 1215 C 125.406 -1.48034 1.39491 0
M  V30 1216 C 125.761 -1.92399 -0.00443536 0
M  V30 1217 O 125.054 -1.64993 -0.974061 0
M  V30 1218 C 125.248 -2.72271 2.31524 0
M  V30 1219 C 125.077 -2.40055 3.80268 0
M  V30 1220 C 123.847 -2.31588 4.49105 0
M  V30 1221 C 126.045 -2.04581 4.71859 0
M  V30 1222 N 124.027 -1.92006 5.83101 0
M  V30 1223 C 125.398 -1.75568 5.94623 0
M  V30 1224 C 127.453 -1.91183 4.59732 0
M  V30 1225 C 126.156 -1.34505 7.06612 0
M  V30 1226 C 128.182 -1.51524 5.71659 0
M  V30 1227 C 127.544 -1.23406 6.93506 0
M  V30 1228 H 123.643 -0.539927 0.565688 0
M  V30 1229 H 126.227 -0.834764 1.75897 0
M  V30 1230 H 124.398 -3.34584 1.97251 0
M  V30 1231 H 126.13 -3.38584 2.21682 0
M  V30 1232 H 122.885 -2.49199 4.02737 0
M  V30 1233 H 123.309 -1.74764 6.54054 0
M  V30 1234 H 127.951 -2.11584 3.66049 0
M  V30 1235 H 125.669 -1.12846 8.00182 0
M  V30 1236 H 129.255 -1.41741 5.6427 0
M  V30 1237 H 128.135 -0.931788 7.78645 0
M  V30 1238 N 125.638 -1.25649 -0.95132 0
M  V30 1239 C 126.601 -1.06399 -2.03007 0
M  V30 1240 C 127.601 -0.0156794 -1.60792 0
M  V30 1241 O 128.791 -0.25817 -1.72276 0
M  V30 1242 C 125.923 -0.616184 -3.35285 0
M  V30 1243 H 127.116 -2.02164 -2.21517 0
M  V30 1244 H 124.669 -1.08103 -1.12887 0
M  V30 1245 H 125.404 0.343917 -3.22471 0
M  V30 1246 H 125.189 -1.37301 -3.67275 0
M  V30 1247 H 126.679 -0.503032 -4.14559 0
M  V30 1248 N 127.117 1.15442 -1.07289 0
M  V30 1249 C 128.027 2.23786 -0.704057 0
M  V30 1250 C 129.043 1.7166 0.284413 0
M  V30 1251 O 130.219 2.00972 0.131205 0
M  V30 1252 C 127.284 3.46535 -0.106792 0
M  V30 1253 C 126.345 4.13654 -1.14842 0
M  V30 1254 C 125.578 5.30544 -0.57956 0
M  V30 1255 O 125.801 5.67187 0.604585 0
M  V30 1256 O 124.735 5.87154 -1.32414 0
M  V30 1257 H 128.561 2.57664 -1.60757 0
M  V30 1258 H 126.146 1.23152 -0.845803 0
M  V30 1259 H 128.028 4.20804 0.224048 0
M  V30 1260 H 126.703 3.14407 0.770049 0
M  V30 1261 H 125.61 3.4131 -1.5316 0
M  V30 1262 H 126.943 4.49861 -1.99714 0
M  V30 1263 N 128.595 0.856903 1.32268 0
M  V30 1264 C 129.82 0.474569 2.01897 0
M  V30 1265 C 130.245 -0.921766 1.63967 0
M  V30 1266 O 129.603 -1.60589 0.84148 0
M  V30 1267 C 129.651 0.623799 3.55164 0
M  V30 1268 O 128.755 -0.342459 4.10976 0
M  V30 1269 H 128.096 0.190422 0.63611 0
M  V30 1270 H 130.626 1.15672 1.68764 0
M  V30 1271 H 130.636 0.512169 4.04773 0
M  V30 1272 H 129.311 1.64202 3.82113 0
M  V30 1273 H 127.888 -0.18688 3.72431 0
M  V30 1274 N 130.073 -1.45103 0.615059 0
M  V30 1275 C 131.003 -2.33339 -0.0865619 0
M  V30 1276 C 131.984 -1.4727 -0.851209 0
M  V30 1277 O 133.169 -1.76026 -0.820281 0
M  V30 1278 C 130.299 -3.30095 -1.07956 0
M  V30 1279 C 129.253 -4.25858 -0.427628 0
M  V30 1280 C 128.579 -5.12361 -1.5294 0
M  V30 1281 C 129.879 -5.18165 0.655944 0
M  V30 1282 H 131.573 -2.92254 0.650224 0
M  V30 1283 H 129.119 -1.40532 0.314138 0
M  V30 1284 H 131.072 -3.90698 -1.57901 0
M  V30 1285 H 129.796 -2.69355 -1.84703 0
M  V30 1286 H 128.455 -3.66564 0.0510292 0
M  V30 1287 H 128.103 -4.47984 -2.28734 0
M  V30 1288 H 127.803 -5.77238 -1.09865 0
M  V30 1289 H 129.327 -5.75833 -2.03098 0
M  V30 1290 H 130.741 -5.72796 0.240257 0
M  V30 1291 H 129.138 -5.91559 1.00888 0
M  V30 1292 H 130.208 -4.60144 1.52957 0
M  V30 1293 N 131.551 -0.354651 -1.53558 0
M  V30 1294 C 132.501 0.513179 -2.2215 0
M  V30 1295 C 133.485 1.05734 -1.21281 0
M  V30 1296 O 134.677 0.989202 -1.46778 0
M  V30 1297 C 131.806 1.65798 -3.00609 0
M  V30 1298 C 130.892 1.12722 -4.08845 0
M  V30 1299 N 131.283 0.318563 -5.04796 0
M  V30 1300 C 129.581 1.40307 -4.23356 0
M  V30 1301 C 130.282 0.0292224 -5.81693 0
M  V30 1302 N 129.258 0.623891 -5.40008 0
M  V30 1303 H 133.06 -0.111586 -2.93688 0
M  V30 1304 H 130.574 -0.162091 -1.61589 0
M  V30 1305 H 132.571 2.29176 -3.48258 0
M  V30 1306 H 131.231 2.28591 -2.306 0
M  V30 1307 H 132.242 -0.0413091 -5.17884 0
M  V30 1308 H 128.919 2.03458 -3.6457 0
M  V30 1309 H 130.309 -0.623808 -6.68998 0
M  V30 1310 N 133.029 1.57378 -0.0835403 0
M  V30 1311 C 134.254 1.98682 0.594987 0
M  V30 1312 C 134.679 0.961969 1.61641 0
M  V30 1313 O 134.037 -0.0709989 1.81161 0
M  V30 1314 C 134.085 3.38988 1.2296 0
M  V30 1315 O 133.189 3.39208 2.34546 0
M  V30 1316 H 132.53 0.646368 0.152002 0
M  V30 1317 H 135.06 2.03961 -0.161533 0
M  V30 1318 H 135.07 3.76431 1.57366 0
M  V30 1319 H 133.745 4.13107 0.481228 0
M  V30 1320 H 132.322 3.13548 2.01846 0
M  V30 1321 N 134.507 -0.190092 1.56449 0
M  V30 1322 C 135.437 -1.23816 1.97969 0
M  V30 1323 C 136.418 -1.47201 0.852395 0
M  V30 1324 O 137.603 -1.58854 1.1171 0
M  V30 1325 C 134.733 -2.5813 2.3235 0
M  V30 1326 C 133.687 -2.49348 3.47864 0
M  V30 1327 C 133.013 -3.8798 3.67934 0
M  V30 1328 C 134.313 -2.01424 4.81898 0
M  V30 1329 H 136.007 -0.89311 2.85769 0
M  V30 1330 H 133.553 -0.428177 1.37487 0
M  V30 1331 H 135.506 -3.31637 2.59991 0
M  V30 1332 H 134.23 -2.94386 1.41438 0
M  V30 1333 H 132.889 -1.78297 3.20321 0
M  V30 1334 H 132.537 -4.21597 2.74344 0
M  V30 1335 H 132.237 -3.82978 4.45648 0
M  V30 1336 H 133.761 -4.63101 3.97957 0
M  V30 1337 H 135.175 -2.64693 5.08538 0
M  V30 1338 H 133.572 -2.07413 5.63116 0
M  V30 1339 H 134.642 -0.967677 4.75146 0
M  V30 1340 N 135.985 -1.50799 -0.457987 0
M  V30 1341 C 136.915 -1.73553 -1.5621 0
M  V30 1342 C 137.896 -0.584774 -1.59732 0
M  V30 1343 O 139.081 -0.825314 -1.7579 0
M  V30 1344 C 136.211 -1.84169 -2.94447 0
M  V30 1345 C 135.165 -2.99461 -3.0579 0
M  V30 1346 C 134.491 -2.95235 -4.45803 0
M  V30 1347 C 135.791 -4.39766 -2.81786 0
M  V30 1348 H 137.485 -2.66 -1.37421 0
M  V30 1349 H 135.031 -1.28002 -0.659662 0
M  V30 1350 H 136.984 -1.98672 -3.71628 0
M  V30 1351 H 135.708 -0.883545 -3.14422 0
M  V30 1352 H 134.367 -2.8463 -2.31044 0
M  V30 1353 H 134.015 -1.97239 -4.62715 0
M  V30 1354 H 133.715 -3.72642 -4.54326 0
M  V30 1355 H 135.239 -3.11803 -5.24987 0
M  V30 1356 H 136.653 -4.55054 -3.4871 0
M  V30 1357 H 135.05 -5.18722 -3.0174 0
M  V30 1358 H 136.12 -4.51229 -1.7754 0
M  V30 1359 N 137.463 0.71206 -1.40597 0
M  V30 1360 C 138.74 1.46536 -1.29563 0
M  V30 1361 C 139.12 2.10931 0.0844217 0
M  V30 1362 O 138.468 2.00418 1.0975 0
M  V30 1363 C 138.678 2.49821 -2.43701 0
M  V30 1364 C 140.026 3.15551 -2.841 0
M  V30 1365 O 141.05 2.60142 -2.4332 0
M  V30 1366 O 139.909 4.15867 -3.54566 0
M  V30 1367 H 137.003 0.651801 -0.509004 0
M  V30 1368 H 139.549 0.743935 -1.52524 0
M  V30 1369 H 138.321 2.00778 -3.35863 0
M  V30 1370 H 137.944 3.29495 -2.22528 0
M  V30 1371 N 138.941 1.26152 0.944643 0
M  V30 1372 C 140.218 1.02247 1.66748 0
M  V30 1373 C 140.598 -0.448202 2.06287 0
M  V30 1374 O 139.946 -1.42779 1.78399 0
M  V30 1375 C 140.156 1.96788 2.88228 0
M  V30 1376 C 141.504 2.25201 3.59958 0
M  V30 1377 O 142.528 1.94626 2.98327 0
M  V30 1378 O 141.387 2.77242 4.70956 0
M  V30 1379 H 138.481 0.388517 0.730057 0
M  V30 1380 H 141.027 1.37348 0.99668 0
M  V30 1381 H 139.799 2.96047 2.55875 0
M  V30 1382 H 139.422 1.62145 3.63035 0
M  V30 1383 N 140.419 -1.14872 1.07899 0
M  V30 1384 C 141.351 -2.19425 0.662231 0
M  V30 1385 C 142.364 -1.60231 -0.288079 0
M  V30 1386 O 143.553 -1.78336 -0.076534 0
M  V30 1387 C 140.653 -3.38867 -0.0470695 0
M  V30 1388 C 139.826 -4.27597 0.920831 0
M  V30 1389 C 138.885 -5.25616 0.247805 0
M  V30 1390 O 137.911 -5.62189 0.890599 0
M  V30 1391 N 139.113 -5.71746 -1.00435 0
M  V30 1392 H 141.878 -2.55797 1.56166 0
M  V30 1393 H 139.439 -1.30042 0.964404 0
M  V30 1394 H 141.431 -4.01497 -0.50813 0
M  V30 1395 H 140.001 -3.00864 -0.848523 0
M  V30 1396 H 139.221 -3.61982 1.56087 0
M  V30 1397 H 140.509 -4.83748 1.57688 0
M  V30 1398 H 139.907 -5.44153 -1.54642 0
M  V30 1399 H 138.464 -6.36389 -1.40899 0
M  V30 1400 N 141.898 -0.863906 -1.31812 0
M  V30 1401 C 143.175 -0.39275 -1.91616 0
M  V30 1402 C 143.555 1.12461 -1.7865 0
M  V30 1403 O 142.903 1.95045 -1.19037 0
M  V30 1404 C 143.113 -0.867385 -3.38049 0
M  V30 1405 C 144.461 -0.889966 -4.15168 0
M  V30 1406 O 145.485 -0.812635 -3.46806 0
M  V30 1407 O 144.344 -1.00079 -5.37258 0
M  V30 1408 H 141.438 -0.116358 -0.818773 0
M  V30 1409 H 143.984 -0.951418 -1.40521 0
M  V30 1410 H 142.756 -1.91081 -3.41473 0
M  V30 1411 H 142.379 -0.286687 -3.96565 0
M  V30 1412 N 143.376 1.44774 -0.622745 0
M  V30 1413 C 144.624 2.01721 -0.123655 0
M  V30 1414 C 144.945 1.49172 1.25589 0
M  V30 1415 O 144.215 0.691974 1.83272 0
M  V30 1416 H 142.795 0.745777 -0.0427225 0
M  V30 1417 H 145.457 1.77382 -0.807559 0
M  V30 1418 H 144.553 3.11984 -0.0849534 0
M  V30 1419 N 144.854 0.36279 1.53368 0
M  V30 1420 C 146.103 -0.22888 2.00397 0
M  V30 1421 C 146.416 -1.50096 1.25421 0
M  V30 1422 O 147.622 -2.17106 1.63025 0
M  V30 1423 C 146.078 -0.458417 3.56969 0
M  V30 1424 C 145.686 0.798877 4.4082 0
M  V30 1425 C 147.43 -1.00789 4.12361 0
M  V30 1426 C 145.337 0.539078 5.88938 0
M  V30 1427 H 144.267 -0.089305 0.748693 0
M  V30 1428 H 146.918 0.481099 1.77081 0
M  V30 1429 H 145.3 -1.22959 3.76427 0
M  V30 1430 H 146.474 1.57262 4.33134 0
M  V30 1431 H 144.789 1.27137 3.96516 0
M  V30 1432 H 147.386 -1.21754 5.20653 0
M  V30 1433 H 147.729 -1.9692 3.66781 0
M  V30 1434 H 148.262 -0.296961 3.9669 0
M  V30 1435 H 145.001 1.47064 6.3879 0
M  V30 1436 H 144.521 -0.196222 5.99479 0
M  V30 1437 H 146.2 0.163542 6.46793 0
M  V30 1438 N 146.332 -1.57332 0.0918853 0
M  V30 1439 C 147.557 -1.98995 -0.584442 0
M  V30 1440 C 147.982 -0.970528 -1.61128 0
M  V30 1441 O 147.34 0.0613904 -1.81196 0
M  V30 1442 C 147.388 -3.39636 -1.21161 0
M  V30 1443 O 146.492 -3.40447 -2.32744 0
M  V30 1444 H 145.833 -0.647165 -0.148572 0
M  V30 1445 H 148.363 -2.03873 0.172347 0
M  V30 1446 H 148.373 -3.7726 -1.55367 0
M  V30 1447 H 147.048 -4.13356 -0.459313 0
M  V30 1448 H 145.625 -3.14614 -2.0018 0
M  V30 1449 N 147.81 0.181792 -1.56548 0
M  V30 1450 C 148.74 1.22765 -1.98623 0
M  V30 1451 C 149.721 1.46747 -0.860189 0
M  V30 1452 O 150.906 1.58259 -1.12551 0
M  V30 1453 C 148.036 2.56894 -2.33715 0
M  V30 1454 C 146.99 2.475 -3.49182 0
M  V30 1455 C 146.316 3.86023 -3.69986 0
M  V30 1456 C 147.616 1.98866 -4.82959 0
M  V30 1457 H 149.31 0.877942 -2.86239 0
M  V30 1458 H 146.856 0.42088 -1.37712 0
M  V30 1459 H 148.809 3.30253 -2.61746 0
M  V30 1460 H 147.533 2.93632 -1.42997 0
M  V30 1461 H 146.192 1.76596 -3.21262 0
M  V30 1462 H 145.84 4.20136 -2.76576 0
M  V30 1463 H 145.54 3.80609 -4.47672 0
M  V30 1464 H 147.064 4.60984 -4.00407 0
M  V30 1465 H 148.478 2.61992 -5.09934 0
M  V30 1466 H 146.875 2.04424 -5.64208 0
M  V30 1467 H 147.945 0.942465 -4.75653 0
M  V30 1468 N 149.288 1.51039 0.449983 0
M  V30 1469 C 150.535 1.63081 1.20045 0
M  V30 1470 C 150.863 0.341024 1.91487 0
M  V30 1471 O 150.118 -0.674276 1.83717 0
M  V30 1472 C 150.417 2.77556 2.25161 0
M  V30 1473 C 150.083 4.17289 1.70823 0
M  V30 1474 C 148.745 4.55305 1.55725 0
M  V30 1475 C 151.097 5.04536 1.3074 0
M  V30 1476 C 148.425 5.78287 0.989999 0
M  V30 1477 C 150.777 6.28085 0.754482 0
M  V30 1478 C 149.441 6.64885 0.590308 0
M  V30 1479 H 148.711 0.596755 0.439277 0
M  V30 1480 H 151.358 1.85037 0.49333 0
M  V30 1481 H 149.663 2.49771 3.01863 0
M  V30 1482 H 151.36 2.84073 2.83026 0
M  V30 1483 H 147.95 3.8731 1.83546 0
M  V30 1484 H 152.134 4.75782 1.41229 0
M  V30 1485 H 147.39 6.05456 0.850451 0
M  V30 1486 H 151.564 6.95038 0.435324 0
M  V30 1487 H 149.191 7.60055 0.14862 0
M  V30 1488 N 150.766 -0.704594 1.40972 0
M  V30 1489 C 152.182 -1.01406 1.23244 0
M  V30 1490 C 152.382 -2.01169 0.115399 0
M  V30 1491 O 151.438 -2.47021 -0.523147 0
M  V30 1492 C 152.751 -1.54728 2.57836 0
M  V30 1493 C 154.299 -1.66658 2.64942 0
M  V30 1494 C 154.774 -2.23383 3.9983 0
M  V30 1495 N 156.265 -2.30756 4.01629 0
M  V30 1496 C 157 -2.75655 5.02794 0
M  V30 1497 N 156.496 -3.20225 6.14352 0
M  V30 1498 N 158.289 -2.75138 4.90159 0
M  V30 1499 H 150.44 -0.0435285 2.12355 0
M  V30 1500 H 152.703 -0.0818951 0.944456 0
M  V30 1501 H 152.409 -0.888832 3.40283 0
M  V30 1502 H 152.283 -2.53084 2.79693 0
M  V30 1503 H 154.67 -2.31617 1.8286 0
M  V30 1504 H 154.751 -0.668717 2.46904 0
M  V30 1505 H 154.395 -1.59043 4.82357 0
M  V30 1506 H 154.325 -3.23904 4.15203 0
M  V30 1507 H 156.816 -1.99291 3.21079 0
M  V30 1508 H 157.129 -3.53084 6.87424 0
M  V30 1509 H 155.474 -3.18156 6.17901 0
M  V30 1510 H 158.665 -2.39661 4.02095 0
M  V30 1511 H 158.838 -3.09812 5.6914 0
M  V30 1512 N 152.244 -1.26651 -0.937939 0
M  V30 1513 C 153.472 -1.15173 -1.7188 0
M  V30 1514 C 153.887 0.292668 -1.86518 0
M  V30 1515 O 153.244 1.20014 -1.37488 0
M  V30 1516 C 153.295 -1.81925 -3.12387 0
M  V30 1517 O 153.016 -3.2072 -2.98446 0
M  V30 1518 C 154.517 -1.76442 -4.06673 0
M  V30 1519 H 151.737 -0.400911 -0.538063 0
M  V30 1520 H 154.281 -1.67332 -1.1756 0
M  V30 1521 H 152.436 -1.33696 -3.63599 0
M  V30 1522 H 152.85 -3.53802 -3.872 0
M  V30 1523 H 154.324 -2.27781 -5.02812 0
M  V30 1524 H 154.801 -0.731608 -4.33064 0
M  V30 1525 H 155.407 -2.24238 -3.61382 0
M  V30 1526 N 153.722 1.14298 -1.08507 0
M  V30 1527 C 154.969 1.85359 -0.815373 0
M  V30 1528 C 155.297 1.83001 0.658865 0
M  V30 1529 O 154.552 1.25655 1.50031 0
M  V30 1530 C 154.851 3.33547 -1.28379 0
M  V30 1531 C 154.517 3.56093 -2.76602 0
M  V30 1532 C 153.179 3.61955 -3.17084 0
M  V30 1533 C 155.531 3.64834 -3.72217 0
M  V30 1534 C 152.859 3.74082 -4.51973 0
M  V30 1535 C 155.211 3.78487 -5.06883 0
M  V30 1536 C 153.875 3.82598 -5.46969 0
M  V30 1537 H 153.145 0.678276 -0.298366 0
M  V30 1538 H 155.792 1.35002 -1.35819 0
M  V30 1539 H 154.097 3.86191 -0.660593 0
M  V30 1540 H 155.794 3.86959 -1.05186 0
M  V30 1541 H 152.384 3.52179 -2.4427 0
M  V30 1542 H 156.568 3.59595 -3.42061 0
M  V30 1543 H 151.824 3.75527 -4.82483 0
M  V30 1544 H 155.998 3.84193 -5.80834 0
M  V30 1545 H 153.625 3.91747 -6.51489 0
M  V30 1546 N 155.201 0.870884 1.31352 0
M  V30 1547 C 156.131 0.343096 2.30966 0
M  V30 1548 C 157.112 -0.566507 1.60389 0
M  V30 1549 O 158.297 -0.483336 1.88089 0
M  V30 1550 C 155.427 -0.455487 3.443 0
M  V30 1551 C 154.381 0.361103 4.26474 0
M  V30 1552 C 153.707 -0.563221 5.31725 0
M  V30 1553 C 155.007 1.59566 4.97329 0
M  V30 1554 H 156.701 1.17548 2.75359 0
M  V30 1555 H 154.247 0.566686 1.32381 0
M  V30 1556 H 156.2 -0.83525 4.13039 0
M  V30 1557 H 154.924 -1.32139 2.98675 0
M  V30 1558 H 153.583 0.722825 3.59403 0
M  V30 1559 H 153.231 -1.42643 4.82351 0
M  V30 1560 H 152.931 -0.0207409 5.87596 0
M  V30 1561 H 154.455 -0.939808 6.03324 0
M  V30 1562 H 155.869 1.28728 5.58661 0
M  V30 1563 H 154.266 2.07728 5.63 0
M  V30 1564 H 155.336 2.34798 4.24262 0
M  V30 1565 N 156.679 -1.44442 0.630414 0
M  V30 1566 C 157.626 -2.30678 -0.0749355 0
M  V30 1567 C 158.596 -1.4344 -0.837502 0
M  V30 1568 O 159.781 -1.72343 -0.818684 0
M  V30 1569 C 156.921 -3.28706 -1.05103 0
M  V30 1570 C 156.034 -4.31046 -0.286954 0
M  V30 1571 C 155.169 -5.16167 -1.2548 0
M  V30 1572 C 154.208 -6.10216 -0.479843 0
M  V30 1573 N 153.345 -6.88039 -1.39811 0
M  V30 1574 H 158.185 -2.90454 0.666386 0
M  V30 1575 H 155.722 -1.43107 0.340404 0
M  V30 1576 H 157.68 -3.84027 -1.63031 0
M  V30 1577 H 156.31 -2.70632 -1.75949 0
M  V30 1578 H 155.362 -3.78203 0.408243 0
M  V30 1579 H 156.674 -4.97794 0.316657 0
M  V30 1580 H 155.828 -5.76002 -1.90544 0
M  V30 1581 H 154.567 -4.49491 -1.89233 0
M  V30 1582 H 153.572 -5.49491 0.184295 0
M  V30 1583 H 154.797 -6.78928 0.152965 0
M  V30 1584 H 152.743 -6.24032 -2.02287 0
M  V30 1585 H 152.66 -7.51223 -0.848508 0
M  V30 1586 H 153.928 -7.52397 -2.03762 0
M  V30 1587 N 158.157 -0.370918 -1.53173 0
M  V30 1588 C 159.089 0.507823 -2.23503 0
M  V30 1589 C 160.102 1.04182 -1.251 0
M  V30 1590 O 161.291 0.947286 -1.5129 0
M  V30 1591 C 158.391 1.71447 -2.92334 0
M  V30 1592 C 157.564 1.31105 -4.17289 0
M  V30 1593 C 156.623 2.38035 -4.69282 0
M  V30 1594 O 155.649 2.00204 -5.32829 0
M  V30 1595 N 156.851 3.69697 -4.47554 0
M  V30 1596 H 159.616 -0.0946382 -2.99551 0
M  V30 1597 H 157.177 -0.196358 -1.60705 0
M  V30 1598 H 159.169 2.42469 -3.24023 0
M  V30 1599 H 157.739 2.22368 -2.19707 0
M  V30 1600 H 156.959 0.430462 -3.91843 0
M  V30 1601 H 158.247 1.0179 -4.98514 0
M  V30 1602 H 157.645 4.03205 -3.9679 0
M  V30 1603 H 156.202 4.36807 -4.8378 0
M  V30 1604 N 159.635 1.57281 -0.100228 0
M  V30 1605 C 160.545 2.17833 0.870965 0
M  V30 1606 C 161.561 1.14921 1.30649 0
M  V30 1607 O 162.737 1.47313 1.37335 0
M  V30 1608 C 159.802 2.75085 2.1102 0
M  V30 1609 C 158.863 3.9297 1.72838 0
M  V30 1610 C 158.096 4.47482 2.90854 0
M  V30 1611 O 158.319 4.00922 4.05731 0
M  V30 1612 O 157.253 5.38433 2.69023 0
M  V30 1613 H 161.079 3.0124 0.38575 0
M  V30 1614 H 158.664 1.48881 0.124397 0
M  V30 1615 H 160.546 3.11656 2.83634 0
M  V30 1616 H 159.221 1.94721 2.58584 0
M  V30 1617 H 158.128 3.61201 0.973883 0
M  V30 1618 H 159.461 4.74713 1.30033 0
M  V30 1619 N 161.113 -0.173488 1.56642 0
M  V30 1620 C 162.361 -0.888706 1.81512 0
M  V30 1621 C 162.682 -1.82875 0.676872 0
M  V30 1622 O 161.952 -1.93536 -0.303414 0
M  V30 1623 H 160.532 -0.331164 0.669582 0
M  V30 1624 H 163.194 -0.173823 1.94123 0
M  V30 1625 H 162.29 -1.46691 2.75478 0
M  V30 1626 N 162.591 -1.51276 -0.441967 0
M  V30 1627 C 163.831 -1.65372 -1.20132 0
M  V30 1628 C 164.195 -0.359871 -1.88597 0
M  V30 1629 O 165.396 -0.376551 -2.66149 0
M  V30 1630 C 163.667 -2.8207 -2.1948 0
M  V30 1631 S 165.226 -3.16467 -3.03964 0
M  V30 1632 H 162.044 -0.582669 -0.407453 0
M  V30 1633 H 164.646 -1.89166 -0.493609 0
M  V30 1634 H 163.35 -3.74523 -1.67812 0
M  V30 1635 H 162.881 -2.6045 -2.94838 0
M  V30 1636 H 164.896 -2.62543 -4.21053 0
M  V30 1637 N 164.069 0.697108 -1.41344 0
M  V30 1638 C 165.032 1.79281 -1.42797 0
M  V30 1639 C 166.032 1.57607 -0.318837 0
M  V30 1640 O 167.222 1.64309 -0.578642 0
M  V30 1641 C 164.354 3.17632 -1.23785 0
M  V30 1642 H 165.547 1.79385 -2.40335 0
M  V30 1643 H 163.1 0.904582 -1.27464 0
M  V30 1644 H 163.835 3.23167 -0.270814 0
M  V30 1645 H 163.62 3.34765 -2.04144 0
M  V30 1646 H 165.11 3.97617 -1.27633 0
M  V30 1647 N 165.547 1.27147 0.931209 0
M  V30 1648 C 166.824 1.0401 1.65654 0
M  V30 1649 C 167.204 -0.426297 2.06751 0
M  V30 1650 O 166.552 -1.40879 1.79904 0
M  V30 1651 C 166.762 1.99834 2.86125 0
M  V30 1652 C 168.11 2.29007 3.57549 0
M  V30 1653 O 169.134 1.97779 2.96246 0
M  V30 1654 O 167.993 2.82222 4.67989 0
M  V30 1655 H 165.087 0.396239 0.725895 0
M  V30 1656 H 167.633 1.38397 0.982056 0
M  V30 1657 H 166.405 2.98744 2.52721 0
M  V30 1658 H 166.028 1.65987 3.61295 0
M  V30 1659 N 167.025 -1.13721 1.09112 0
M  V30 1660 C 167.955 -2.21148 0.749385 0
M  V30 1661 C 168.936 -1.6792 -0.271475 0
M  V30 1662 O 170.121 -1.93693 -0.140251 0
M  V30 1663 C 167.251 -3.46905 0.165659 0
M  V30 1664 C 166.205 -4.13203 1.11567 0
M  V30 1665 C 165.531 -5.33248 0.393809 0
M  V30 1666 C 166.831 -4.60912 2.45678 0
M  V30 1667 H 168.525 -2.4999 1.64758 0
M  V30 1668 H 166.071 -1.20156 0.793626 0
M  V30 1669 H 168.024 -4.21313 -0.085466 0
M  V30 1670 H 166.748 -3.17449 -0.767714 0
M  V30 1671 H 165.407 -3.40758 1.35202 0
M  V30 1672 H 165.055 -5.00054 -0.543599 0
M  V30 1673 H 164.755 -5.78552 1.02721 0
M  V30 1674 H 166.279 -6.10413 0.150908 0
M  V30 1675 H 167.693 -5.26759 2.26269 0
M  V30 1676 H 166.09 -5.16944 3.04776 0
M  V30 1677 H 167.16 -3.75603 3.06677 0
M  V30 1678 N 168.503 -0.877838 -1.30888 0
M  V30 1679 C 169.433 -0.35534 -2.3078 0
M  V30 1680 C 170.414 0.557994 -1.60687 0
M  V30 1681 O 171.599 0.473355 -1.88343 0
M  V30 1682 C 168.729 0.437221 -3.44537 0
M  V30 1683 C 167.683 -0.383715 -4.26276 0
M  V30 1684 C 167.009 0.535014 -5.32017 0
M  V30 1685 C 168.309 -1.62201 -4.96476 0
M  V30 1686 H 170.003 -1.19007 -2.74732 0
M  V30 1687 H 167.549 -0.573698 -1.32078 0
M  V30 1688 H 169.502 0.813334 -4.13477 0
M  V30 1689 H 168.226 1.30553 -2.99372 0
M  V30 1690 H 166.885 -0.741874 -3.59015 0
M  V30 1691 H 166.533 1.40083 -4.831 0
M  V30 1692 H 166.233 -0.0104211 -5.87599 0
M  V30 1693 H 167.757 0.907799 -6.03814 0
M  V30 1694 H 169.171 -1.31689 -5.5797 0
M  V30 1695 H 167.568 -2.10711 -5.61891 0
M  V30 1696 H 168.638 -2.37044 -4.23011 0
M  V30 1697 N 169.982 1.44106 -0.638065 0
M  V30 1698 C 171.259 1.95453 -0.0759321 0
M  V30 1699 C 171.639 1.57984 1.40015 0
M  V30 1700 O 170.987 0.857361 2.11806 0
M  V30 1701 C 171.197 3.47655 -0.306132 0
M  V30 1702 C 172.545 4.24114 -0.203008 0
M  V30 1703 O 173.569 3.55405 -0.237871 0
M  V30 1704 O 172.428 5.46381 -0.113827 0
M  V30 1705 H 169.522 0.826797 0.0183332 0
M  V30 1706 H 172.068 1.54122 -0.710251 0
M  V30 1707 H 170.84 3.68 -1.3301 0
M  V30 1708 H 170.463 3.95949 0.361991 0
M  V30 1709 N 171.46 0.379036 1.52974 0
M  V30 1710 C 172.707 -0.206421 2.01445 0
M  V30 1711 C 173.035 -1.47668 1.26587 0
M  V30 1712 O 172.29 -1.92514 0.351675 0
M  V30 1713 C 172.589 -0.53096 3.53434 0
M  V30 1714 C 172.255 0.646546 4.46241 0
M  V30 1715 C 170.917 0.969604 4.7133 0
M  V30 1716 C 173.269 1.43479 5.01062 0
M  V30 1717 C 170.597 2.08263 5.48492 0
M  V30 1718 C 172.949 2.53834 5.7944 0
M  V30 1719 C 171.613 2.86659 6.02812 0
M  V30 1720 H 170.883 -0.0755349 0.73714 0
M  V30 1721 H 173.53 0.514271 1.84465 0
M  V30 1722 H 171.835 -1.33285 3.68432 0
M  V30 1723 H 173.532 -0.996417 3.88423 0
M  V30 1724 H 170.122 0.384734 4.2687 0
M  V30 1725 H 174.306 1.19844 4.81613 0
M  V30 1726 H 169.562 2.34078 5.64816 0
M  V30 1727 H 173.736 3.15319 6.20924 0
M  V30 1728 H 171.363 3.73026 6.62387 0
M  V30 1729 N 172.938 -1.57226 0.108567 0
M  V30 1730 C 174.184 -1.95919 -0.546564 0
M  V30 1731 C 174.539 -0.990417 -1.6495 0
M  V30 1732 O 173.832 -0.0186593 -1.91591 0
M  V30 1733 C 174.026 -3.38911 -1.13463 0
M  V30 1734 C 173.855 -4.4961 -0.0901926 0
M  V30 1735 C 172.625 -5.04168 0.338008 0
M  V30 1736 C 174.823 -5.09693 0.686808 0
M  V30 1737 N 172.805 -5.98434 1.36931 0
M  V30 1738 C 174.176 -5.99804 1.56958 0
M  V30 1739 C 176.231 -4.92388 0.738846 0
M  V30 1740 C 174.934 -6.74463 2.49983 0
M  V30 1741 C 176.96 -5.67719 1.65676 0
M  V30 1742 C 176.322 -6.57507 2.52713 0
M  V30 1743 H 172.421 -0.763312 -0.169936 0
M  V30 1744 H 175.005 -1.93728 0.194264 0
M  V30 1745 H 173.176 -3.41769 -1.84522 0
M  V30 1746 H 174.908 -3.64752 -1.75322 0
M  V30 1747 H 171.663 -4.73571 -0.0523673 0
M  V30 1748 H 172.087 -6.5027 1.88356 0
M  V30 1749 H 176.729 -4.22724 0.080084 0
M  V30 1750 H 174.447 -7.4338 3.16878 0
M  V30 1751 H 178.033 -5.56338 1.70233 0
M  V30 1752 H 176.913 -7.14778 3.22586 0
M  V30 1753 N 174.416 0.165178 -1.56732 0
M  V30 1754 C 175.663 0.880807 -1.8234 0
M  V30 1755 C 175.991 1.81977 -0.686621 0
M  V30 1756 O 175.246 1.92971 0.325697 0
M  V30 1757 C 175.545 1.70405 -3.1416 0
M  V30 1758 C 175.211 0.913475 -4.4155 0
M  V30 1759 C 173.873 0.695303 -4.7615 0
M  V30 1760 C 176.225 0.359349 -5.1996 0
M  V30 1761 C 173.553 -0.0879947 -5.86634 0
M  V30 1762 C 175.905 -0.410893 -6.31264 0
M  V30 1763 C 174.569 -0.639808 -6.64427 0
M  V30 1764 H 173.839 0.32231 -0.667231 0
M  V30 1765 H 176.486 0.145402 -1.90947 0
M  V30 1766 H 174.791 2.50903 -3.00923 0
M  V30 1767 H 176.488 2.26091 -3.31186 0
M  V30 1768 H 173.078 1.09357 -4.14414 0
M  V30 1769 H 177.262 0.515228 -4.93618 0
M  V30 1770 H 172.518 -0.27503 -6.10781 0
M  V30 1771 H 176.692 -0.847494 -6.91224 0
M  V30 1772 H 174.319 -1.24864 -7.49875 0
M  V30 1773 N 175.894 1.51508 0.433938 0
M  V30 1774 C 176.857 1.72473 1.50949 0
M  V30 1775 C 177.857 0.594725 1.49398 0
M  V30 1776 O 179.047 0.862315 1.5136 0
M  V30 1777 C 176.179 1.78431 2.90474 0
M  V30 1778 H 177.372 2.68467 1.33662 0
M  V30 1779 H 174.925 1.41549 0.662836 0
M  V30 1780 H 175.66 0.842645 3.13161 0
M  V30 1781 H 175.445 2.60558 2.93005 0
M  V30 1782 H 176.935 1.96479 3.68491 0
M  V30 1783 N 177.372 -0.689602 1.41712 0
M  V30 1784 C 178.612 -1.46184 1.42862 0
M  V30 1785 C 178.976 -1.91962 0.0382204 0
M  V30 1786 O 180.177 -2.68694 -0.0755019 0
M  V30 1787 C 178.448 -2.6371 2.4123 0
M  V30 1788 S 180.007 -3.52768 2.6096 0
M  V30 1789 H 176.825 -0.49947 0.506015 0
M  V30 1790 H 179.427 -0.804107 1.78198 0
M  V30 1791 H 178.131 -2.28293 3.41044 0
M  V30 1792 H 177.662 -3.3437 2.07269 0
M  V30 1793 H 179.677 -4.59146 1.88148 0
M  V30 1794 N 178.85 -1.27639 -0.924453 0
M  V30 1795 C 180.078 -1.16989 -1.70649 0
M  V30 1796 C 180.493 0.272869 -1.86818 0
M  V30 1797 O 179.85 1.18549 -1.38753 0
M  V30 1798 C 179.901 -1.85229 -3.10439 0
M  V30 1799 O 179.622 -3.23868 -2.95028 0
M  V30 1800 C 181.123 -1.80746 -4.04779 0
M  V30 1801 H 178.343 -0.406595 -0.53378 0
M  V30 1802 H 180.887 -1.68569 -1.15778 0
M  V30 1803 H 179.042 -1.37545 -3.6216 0
M  V30 1804 H 179.456 -3.57889 -3.83426 0
M  V30 1805 H 180.93 -2.33101 -5.00368 0
M  V30 1806 H 181.407 -0.777499 -4.32263 0
M  V30 1807 H 182.013 -2.28059 -3.58984 0
M  V30 1808 N 180.328 1.1314 -1.09713 0
M  V30 1809 C 181.576 1.84119 -0.833338 0
M  V30 1810 C 181.897 1.84097 0.642904 0
M  V30 1811 O 181.167 1.29881 1.46655 0
M  V30 1812 H 179.747 0.681766 -0.305293 0
M  V30 1813 H 182.409 1.37038 -1.38588 0
M  V30 1814 H 181.505 2.88543 -1.18951 0
M  V30 1815 N 181.806 0.884767 1.30421 0
M  V30 1816 C 183.053 0.503105 1.96151 0
M  V30 1817 C 183.381 -0.947676 1.69851 0
M  V30 1818 O 182.636 -1.68467 0.995861 0
M  V30 1819 C 182.935 0.724318 3.49983 0
M  V30 1820 C 182.601 2.15015 3.96332 0
M  V30 1821 C 181.263 2.54005 4.08699 0
M  V30 1822 C 183.615 3.07936 4.20505 0
M  V30 1823 C 180.943 3.85128 4.42599 0
M  V30 1824 C 183.295 4.3859 4.55874 0
M  V30 1825 C 181.959 4.77474 4.66449 0
M  V30 1826 H 181.229 0.184099 0.717766 0
M  V30 1827 H 183.876 1.12058 1.55291 0
M  V30 1828 H 182.181 0.0238086 3.91793 0
M  V30 1829 H 183.878 0.408617 3.98913 0
M  V30 1830 H 180.468 1.8375 3.87213 0
M  V30 1831 H 184.652 2.79033 4.10431 0
M  V30 1832 H 179.908 4.14996 4.48986 0
M  V30 1833 H 184.082 5.10629 4.7353 0
M  V30 1834 H 181.709 5.79115 4.92473 0
M  V30 1835 N 183.284 -1.43765 0.645699 0
M  V30 1836 C 184.7 -1.56509 0.312591 0
M  V30 1837 C 184.9 -1.6307 -1.18365 0
M  V30 1838 O 183.956 -1.58167 -1.96824 0
M  V30 1839 C 185.269 -2.82968 1.01733 0
M  V30 1840 C 186.817 -2.96701 0.996865 0
M  V30 1841 C 187.292 -4.25982 1.68236 0
M  V30 1842 N 188.783 -4.32829 1.64964 0
M  V30 1843 C 189.518 -5.31613 2.14885 0
M  V30 1844 N 189.014 -6.36718 2.73061 0
M  V30 1845 N 190.807 -5.23217 2.05428 0
M  V30 1846 H 182.958 -1.3775 1.61675 0
M  V30 1847 H 185.221 -0.661067 0.679481 0
M  V30 1848 H 184.927 -2.84156 2.0724 0
M  V30 1849 H 184.801 -3.72957 0.564177 0
M  V30 1850 H 187.188 -2.95058 -0.0497719 0
M  V30 1851 H 187.269 -2.08022 1.48865 0
M  V30 1852 H 186.913 -4.28386 2.72852 0
M  V30 1853 H 186.843 -5.13545 1.16529 0
M  V30 1854 H 189.334 -3.57493 1.22503 0
M  V30 1855 H 189.647 -7.08401 3.08848 0
M  V30 1856 H 187.992 -6.37362 2.77118 0
M  V30 1857 H 191.183 -4.40019 1.59689 0
M  V30 1858 H 191.356 -6.00045 2.44643 0
M  V30 1859 N 184.763 -0.387143 -1.52771 0
M  V30 1860 C 185.71 0.449048 -2.26389 0
M  V30 1861 C 186.68 1.05961 -1.27912 0
M  V30 1862 O 187.865 1.08804 -1.56737 0
M  V30 1863 C 185.005 1.57155 -3.0724 0
M  V30 1864 C 184.118 0.984066 -4.20643 0
M  V30 1865 C 183.253 2.07745 -4.88892 0
M  V30 1866 C 182.292 1.46574 -5.94292 0
M  V30 1867 N 181.429 2.49834 -6.56146 0
M  V30 1868 H 186.269 -0.185205 -2.97424 0
M  V30 1869 H 183.806 -0.103164 -1.46738 0
M  V30 1870 H 185.764 2.23309 -3.52405 0
M  V30 1871 H 184.394 2.17615 -2.38419 0
M  V30 1872 H 183.446 0.212193 -3.79808 0
M  V30 1873 H 184.758 0.497029 -4.96318 0
M  V30 1874 H 183.912 2.81673 -5.3735 0
M  V30 1875 H 182.651 2.59807 -4.12737 0
M  V30 1876 H 181.656 0.711696 -5.45174 0
M  V30 1877 H 182.881 0.953088 -6.72379 0
M  V30 1878 H 180.827 3.0107 -5.82832 0
M  V30 1879 H 180.744 2.05879 -7.27427 0
M  V30 1880 H 182.012 3.23399 -7.09249 0
M  V30 1881 N 186.241 1.57166 -0.116904 0
M  V30 1882 C 187.171 2.18222 0.830759 0
M  V30 1883 C 188.152 1.12167 1.27877 0
M  V30 1884 O 189.337 1.40394 1.34176 0
M  V30 1885 C 186.467 2.77996 2.08172 0
M  V30 1886 C 185.421 3.89614 1.77157 0
M  V30 1887 C 184.747 4.36187 3.09265 0
M  V30 1888 C 186.047 5.1181 1.04151 0
M  V30 1889 H 187.741 2.97664 0.321992 0
M  V30 1890 H 185.287 1.4318 0.153434 0
M  V30 1891 H 187.24 3.19366 2.74924 0
M  V30 1892 H 185.964 1.9584 2.6137 0
M  V30 1893 H 184.623 3.48816 1.12796 0
M  V30 1894 H 184.271 3.50893 3.60393 0
M  V30 1895 H 183.971 5.11455 2.89288 0
M  V30 1896 H 185.495 4.80207 3.77139 0
M  V30 1897 H 186.909 5.50214 1.61052 0
M  V30 1898 H 185.306 5.92648 0.942762 0
M  V30 1899 H 186.376 4.84892 0.0279022 0
M  V30 1900 N 187.719 -0.156864 1.56817 0
M  V30 1901 C 188.629 -1.2136 2.00771 0
M  V30 1902 C 189.645 -1.47598 0.921459 0
M  V30 1903 O 190.821 -1.59462 1.2302 0
M  V30 1904 C 187.886 -2.52943 2.37109 0
M  V30 1905 C 186.947 -2.34439 3.59634 0
M  V30 1906 C 186.18 -3.59748 3.94229 0
M  V30 1907 O 186.403 -4.65526 3.29609 0
M  V30 1908 O 185.337 -3.52998 4.8752 0
M  V30 1909 H 189.163 -0.870468 2.90958 0
M  V30 1910 H 186.748 -0.36484 1.44877 0
M  V30 1911 H 188.63 -3.30538 2.61386 0
M  V30 1912 H 187.305 -2.86806 1.5008 0
M  V30 1913 H 186.212 -1.54828 3.40557 0
M  V30 1914 H 187.545 -2.05496 4.4725 0
M  V30 1915 N 189.197 -1.51736 -0.425897 0
M  V30 1916 C 190.608 -1.5732 -1.00536 0
M  V30 1917 C 190.959 -0.403537 -1.92005 0
M  V30 1918 O 190.084 0.478256 -2.11049 0
M  V30 1919 C 190.679 -2.85119 -1.8301 0
M  V30 1920 C 189.238 -2.93236 -2.35987 0
M  V30 1921 C 188.385 -2.52098 -1.15508 0
M  V30 1922 H 191.336 -1.57348 -0.206739 0
M  V30 1923 H 191.357 -2.69526 -2.68581 0
M  V30 1924 H 190.869 -3.7023 -1.16411 0
M  V30 1925 H 188.97 -2.12581 -3.06007 0
M  V30 1926 H 189.083 -3.9713 -2.68001 0
M  V30 1927 H 187.447 -2.05558 -1.50393 0
M  V30 1928 H 188.23 -3.39565 -0.505014 0
M  V30 1929 N 190.675 0.682077 -1.42076 0
M  V30 1930 C 191.915 1.45424 -1.43636 0
M  V30 1931 C 192.279 1.91939 -0.0484001 0
M  V30 1932 O 193.48 2.6873 0.0612514 0
M  V30 1933 C 191.751 2.62427 -2.42625 0
M  V30 1934 S 193.31 3.51379 -2.62827 0
M  V30 1935 H 190.128 0.496779 -0.508657 0
M  V30 1936 H 192.73 0.794645 -1.78621 0
M  V30 1937 H 191.434 2.26481 -3.42249 0
M  V30 1938 H 190.965 3.33266 -2.09039 0
M  V30 1939 H 192.98 4.58141 -1.9058 0
M  V30 1940 N 192.153 1.28127 0.917671 0
M  V30 1941 C 193.43 1.05761 1.64542 0
M  V30 1942 C 193.81 -0.404344 2.07191 0
M  V30 1943 O 193.158 -1.38963 1.81388 0
M  V30 1944 C 193.368 2.02857 2.83989 0
M  V30 1945 C 194.716 2.32786 3.551 0
M  V30 1946 O 195.74 2.0091 2.94132 0
M  V30 1947 O 194.599 2.87169 4.64969 0
M  V30 1948 H 191.693 0.403916 0.721652 0
M  V30 1949 H 194.239 1.39431 0.967322 0
M  V30 1950 H 193.011 3.01407 2.49538 0
M  V30 1951 H 192.634 1.69809 3.59514 0
M  V30 1952 N 193.631 -1.12557 1.10312 0
M  V30 1953 C 194.856 -1.88405 0.867085 0
M  V30 1954 C 195.281 -1.79038 -0.576817 0
M  V30 1955 O 194.639 -1.14439 -1.40618 0
M  V30 1956 C 194.687 -3.3563 1.31851 0
M  V30 1957 O 193.791 -4.09565 0.482734 0
M  V30 1958 H 193.132 -0.585455 0.313271 0
M  V30 1959 H 195.662 -1.42352 1.4696 0
M  V30 1960 H 195.672 -3.86469 1.3079 0
M  V30 1961 H 194.347 -3.41765 2.37001 0
M  V30 1962 H 192.924 -3.68695 0.558448 0
M  V30 1963 N 195.109 -0.891671 -1.2995 0
M  V30 1964 C 196.057 -0.353066 -2.29905 0
M  V30 1965 C 197.051 0.543509 -1.60444 0
M  V30 1966 O 198.257 0.4272 -1.74857 0
M  V30 1967 H 194.632 -0.095531 -0.745907 0
M  V30 1968 H 196.603 -1.20961 -2.72784 0
M  V30 1969 C 195.352 0.411475 -3.45257 0
M  V30 1970 H 194.675 -0.269182 -3.98893 0
M  V30 1971 H 196.115 0.753328 -4.17254 0
M  V30 1972 C 194.574 1.6111 -2.9588 0
M  V30 1973 O 195.104 2.71045 -2.96475 0
M  V30 1974 N 193.31 1.45054 -2.51809 0
M  V30 1975 H 192.857 0.556175 -2.51524 0
M  V30 1976 H 192.815 2.25453 -2.1913 0
M  V30 1977 N 196.587 1.43421 -0.653314 0
M  V30 1978 C 197.497 2.34568 0.0388565 0
M  V30 1979 C 198.513 1.53888 0.81207 0
M  V30 1980 O 199.689 1.86539 0.759294 0
M  V30 1981 C 196.754 3.32167 0.993269 0
M  V30 1982 C 195.815 4.28751 0.216977 0
M  V30 1983 C 195.048 5.21688 1.12593 0
M  V30 1984 O 195.271 5.19052 2.36519 0
M  V30 1985 O 194.205 5.98919 0.598284 0
M  V30 1986 H 198.031 2.95251 -0.711386 0
M  V30 1987 H 195.616 1.43564 -0.413502 0
M  V30 1988 H 197.498 3.92183 1.54176 0
M  V30 1989 H 196.173 2.73987 1.72374 0
M  V30 1990 H 195.08 3.72215 -0.375101 0
M  V30 1991 H 196.413 4.89913 -0.473924 0
M  V30 1992 N 198.065 0.39524 1.52563 0
M  V30 1993 C 198.975 -0.444232 2.30356 0
M  V30 1994 C 199.991 -1.06615 1.37511 0
M  V30 1995 O 201.167 -1.07067 1.70583 0
M  V30 1996 C 198.232 -1.55315 3.09964 0
M  V30 1997 C 197.293 -0.955734 4.18526 0
M  V30 1998 C 196.526 -2.01181 4.9433 0
M  V30 1999 O 196.749 -3.22781 4.70285 0
M  V30 2000 O 195.683 -1.62579 5.79527 0
M  V30 2001 H 199.509 0.189667 3.03107 0
M  V30 2002 H 197.094 0.1588 1.48554 0
M  V30 2003 H 198.976 -2.19724 3.59582 0
M  V30 2004 H 197.651 -2.17191 2.4002 0
M  V30 2005 H 196.558 -0.274743 3.7309 0
M  V30 2006 H 197.891 -0.381109 4.90722 0
M  V30 2007 N 199.544 -1.57102 0.125237 0
M  V30 2008 C 200.491 -2.15641 -0.822655 0
M  V30 2009 C 201.461 -1.08313 -1.25927 0
M  V30 2010 O 202.646 -1.36251 -1.33567 0
M  V30 2011 C 199.786 -2.76504 -2.06494 0
M  V30 2012 C 198.899 -3.98158 -1.67612 0
M  V30 2013 C 198.034 -4.47088 -2.86854 0
M  V30 2014 C 197.073 -5.6126 -2.44242 0
M  V30 2015 N 196.21 -6.04905 -3.56419 0
M  V30 2016 H 201.05 -2.96313 -0.316625 0
M  V30 2017 H 198.587 -1.46388 -0.144588 0
M  V30 2018 H 200.545 -3.09925 -2.79289 0
M  V30 2019 H 199.175 -1.98512 -2.54545 0
M  V30 2020 H 198.227 -3.70858 -0.846661 0
M  V30 2021 H 199.539 -4.80934 -1.32301 0
M  V30 2022 H 198.693 -4.82451 -3.67867 0
M  V30 2023 H 197.432 -3.63275 -3.25396 0
M  V30 2024 H 196.437 -5.25495 -1.61663 0
M  V30 2025 H 197.662 -6.46843 -2.0681 0
M  V30 2026 H 195.608 -5.24032 -3.94623 0
M  V30 2027 H 195.525 -6.82552 -3.25051 0
M  V30 2028 H 196.793 -6.44907 -4.37853 0
M  V30 2029 N 201.022 0.148545 -1.56898 0
M  V30 2030 C 202.438 0.501131 -1.51528 0
M  V30 2031 C 202.638 1.83458 -0.833399 0
M  V30 2032 O 201.694 2.49259 -0.40328 0
M  V30 2033 C 203.007 0.512864 -2.96294 0
M  V30 2034 C 204.555 0.598487 -3.07225 0
M  V30 2035 C 205.03 0.640897 -4.53494 0
M  V30 2036 N 206.521 0.703163 -4.57832 0
M  V30 2037 C 207.256 0.756935 -5.68382 0
M  V30 2038 N 206.752 0.770147 -6.88506 0
M  V30 2039 N 208.545 0.797698 -5.56411 0
M  V30 2040 H 200.696 -0.725532 -1.99624 0
M  V30 2041 H 202.959 -0.264358 -0.910395 0
M  V30 2042 H 202.665 -0.398691 -3.49433 0
M  V30 2043 H 202.539 1.35133 -3.52163 0
M  V30 2044 H 204.926 1.50046 -2.54106 0
M  V30 2045 H 205.007 -0.267093 -2.54402 0
M  V30 2046 H 204.651 -0.256915 -5.0725 0
M  V30 2047 H 204.581 1.52295 -5.04097 0
M  V30 2048 H 207.072 0.700314 -3.71354 0
M  V30 2049 H 207.385 0.812983 -7.68512 0
M  V30 2050 H 205.73 0.738049 -6.9107 0
M  V30 2051 H 208.921 0.784535 -4.61479 0
M  V30 2052 H 209.094 0.83614 -6.42583 0
M  V30 2053 N 202.5 1.5196 0.417844 0
M  V30 2054 C 203.43 1.77634 1.51554 0
M  V30 2055 C 204.411 0.626918 1.58126 0
M  V30 2056 O 205.596 0.871632 1.7354 0
M  V30 2057 C 202.726 1.91911 2.8946 0
M  V30 2058 C 201.68 3.07463 2.97743 0
M  V30 2059 C 201.006 3.06951 4.37819 0
M  V30 2060 C 202.306 4.47082 2.70027 0
M  V30 2061 H 204 2.6955 1.3032 0
M  V30 2062 H 201.546 1.29706 0.625492 0
M  V30 2063 H 203.499 2.08455 3.6623 0
M  V30 2064 H 202.223 0.966598 3.11969 0
M  V30 2065 H 200.882 2.90656 2.23416 0
M  V30 2066 H 200.53 2.09438 4.57323 0
M  V30 2067 H 200.23 3.84556 4.44286 0
M  V30 2068 H 201.754 3.25613 5.16535 0
M  V30 2069 H 203.168 4.6414 3.36522 0
M  V30 2070 H 201.565 5.2654 2.87881 0
M  V30 2071 H 202.635 4.55777 1.65514 0
M  V30 2072 N 203.978 -0.674533 1.42435 0
M  V30 2073 C 204.925 -1.78807 1.45934 0
M  V30 2074 C 205.895 -1.63157 0.311271 0
M  V30 2075 O 207.08 -1.83707 0.515383 0
M  V30 2076 C 204.22 -3.16839 1.36773 0
M  V30 2077 C 203.333 -3.43774 2.61617 0
M  V30 2078 C 202.468 -4.71536 2.44597 0
M  V30 2079 C 201.507 -4.91505 3.64814 0
M  V30 2080 N 200.644 -6.10508 3.46734 0
M  V30 2081 H 205.484 -1.75151 2.41093 0
M  V30 2082 H 203.021 -0.85504 1.19697 0
M  V30 2083 H 204.979 -3.96606 1.29459 0
M  V30 2084 H 203.609 -3.19619 0.452089 0
M  V30 2085 H 202.661 -2.58259 2.79297 0
M  V30 2086 H 203.973 -3.54423 3.50978 0
M  V30 2087 H 203.127 -5.59393 2.3487 0
M  V30 2088 H 201.866 -4.6317 1.52726 0
M  V30 2089 H 200.871 -4.0209 3.74972 0
M  V30 2090 H 202.096 -5.01716 4.57665 0
M  V30 2091 H 200.042 -6.03315 2.5758 0
M  V30 2092 H 199.959 -6.2202 4.29682 0
M  V30 2093 H 201.227 -7.01044 3.40819 0
M  V30 2094 N 205.456 -1.28612 -0.910864 0
M  V30 2095 C 206.386 -1.15326 -2.03032 0
M  V30 2096 C 207.367 -0.0502924 -1.70026 0
M  V30 2097 O 208.552 -0.227797 -1.92859 0
M  V30 2098 C 205.682 -0.817343 -3.37545 0
M  V30 2099 C 204.636 -1.8754 -3.84724 0
M  V30 2100 C 203.962 -1.39305 -5.16235 0
M  V30 2101 C 205.262 -3.28244 -4.06267 0
M  V30 2102 H 206.956 -2.08975 -2.14406 0
M  V30 2103 H 204.502 -1.00612 -1.03021 0
M  V30 2104 H 206.455 -0.711151 -4.15356 0
M  V30 2105 H 205.179 0.154846 -3.26233 0
M  V30 2106 H 203.838 -1.97079 -3.09121 0
M  V30 2107 H 203.486 -0.409846 -5.01328 0
M  V30 2108 H 203.186 -2.10057 -5.48771 0
M  V30 2109 H 204.71 -1.30014 -5.96598 0
M  V30 2110 H 206.124 -3.21611 -4.74594 0
M  V30 2111 H 204.521 -3.96855 -4.5014 0
M  V30 2112 H 205.591 -3.72048 -3.10979 0
M  V30 2113 N 206.934 1.1197 -1.10907 0
M  V30 2114 C 207.897 2.16031 -0.765707 0
M  V30 2115 C 208.897 1.59393 0.212235 0
M  V30 2116 O 210.087 1.74196 -0.0115441 0
M  V30 2117 C 207.219 3.40632 -0.135053 0
M  V30 2118 H 208.412 2.47919 -1.68748 0
M  V30 2119 H 205.965 1.27061 -0.910226 0
M  V30 2120 H 206.7 3.14348 0.797218 0
M  V30 2121 H 206.485 3.8302 -0.838937 0
M  V30 2122 H 207.975 4.17505 0.0892469 0
M  V30 2123 N 208.412 0.89855 1.29475 0
M  V30 2124 C 209.828 0.594483 1.48115 0
M  V30 2125 C 210.028 -0.86431 1.82022 0
M  V30 2126 O 209.084 -1.64457 1.91599 0
M  V30 2127 C 210.397 1.51932 2.59494 0
M  V30 2128 C 211.945 1.5244 2.7337 0
M  V30 2129 C 212.42 2.43548 3.87877 0
M  V30 2130 N 213.911 2.41589 3.95208 0
M  V30 2131 C 214.646 3.08789 4.83153 0
M  V30 2132 N 214.142 3.85265 5.75798 0
M  V30 2133 N 215.935 2.97952 4.76635 0
M  V30 2134 H 208.086 1.84207 1.05742 0
M  V30 2135 H 210.349 0.789251 0.525154 0
M  V30 2136 H 210.055 2.55865 2.41301 0
M  V30 2137 H 209.929 1.23899 3.56271 0
M  V30 2138 H 212.316 0.492518 2.90961 0
M  V30 2139 H 212.397 1.8451 1.77172 0
M  V30 2140 H 212.041 3.46829 3.71041 0
M  V30 2141 H 211.971 2.08788 4.83441 0
M  V30 2142 H 214.462 1.86025 3.28943 0
M  V30 2143 H 214.775 4.33598 6.39697 0
M  V30 2144 H 213.12 3.89371 5.75687 0
M  V30 2145 H 216.311 2.37723 4.03244 0
M  V30 2146 H 216.484 3.50599 5.44962 0
M  V30 2147 N 209.89 -1.43072 0.660911 0
M  V30 2148 C 210.853 -2.29194 -0.0166406 0
M  V30 2149 C 211.853 -1.42609 -0.742912 0
M  V30 2150 O 213.043 -1.64155 -0.583004 0
M  V30 2151 C 210.175 -3.24831 -1.0343 0
M  V30 2152 H 211.368 -2.90596 0.741208 0
M  V30 2153 H 208.921 -1.5048 0.422532 0
M  V30 2154 H 209.656 -2.68339 -1.82111 0
M  V30 2155 H 209.441 -3.88676 -0.517082 0
M  V30 2156 H 210.931 -3.89451 -1.50723 0
M  V30 2157 N 211.368 -0.403325 -1.52352 0
M  V30 2158 C 212.617 0.175668 -2.00934 0
M  V30 2159 C 212.93 1.46718 -1.29356 0
M  V30 2160 O 214.136 2.12708 -1.68724 0
M  V30 2161 C 212.592 0.363612 -3.58058 0
M  V30 2162 C 212.2 -0.915472 -4.38547 0
M  V30 2163 C 213.944 0.89821 -4.14888 0
M  V30 2164 C 211.851 -0.695035 -5.87302 0
M  V30 2165 H 210.781 0.0694234 -0.750797 0
M  V30 2166 H 213.432 -0.527879 -1.75743 0
M  V30 2167 H 211.814 1.12935 -3.79555 0
M  V30 2168 H 212.988 -1.68691 -4.28812 0
M  V30 2169 H 211.303 -1.37606 -3.93006 0
M  V30 2170 H 213.9 1.07907 -5.23699 0
M  V30 2171 H 214.243 1.87126 -3.71873 0
M  V30 2172 H 214.776 0.191681 -3.97338 0
M  V30 2173 H 211.515 -1.63948 -6.34666 0
M  V30 2174 H 211.035 0.0372116 -5.99788 0
M  V30 2175 H 212.714 -0.33497 -6.46132 0
M  V30 2176 N 212.846 1.57033 -0.133567 0
M  V30 2177 C 214.076 1.99754 0.527429 0
M  V30 2178 C 214.484 1.01245 1.59832 0
M  V30 2179 O 213.827 -0.000645496 1.837 0
M  V30 2180 C 213.889 3.38903 1.19939 0
M  V30 2181 C 213.553 4.56174 0.274709 0
M  V30 2182 C 214.55 5.17563 -0.492398 0
M  V30 2183 C 212.235 5.01972 0.18153 0
M  V30 2184 C 214.229 6.2315 -1.34027 0
M  V30 2185 C 211.916 6.07416 -0.669958 0
M  V30 2186 C 212.914 6.67874 -1.42947 0
M  V30 2187 O 212.602 7.71279 -2.2668 0
M  V30 2188 H 212.334 0.660702 0.142999 0
M  V30 2189 H 214.888 2.04207 -0.221099 0
M  V30 2190 H 213.118 3.31248 1.99528 0
M  V30 2191 H 214.807 3.65818 1.75875 0
M  V30 2192 H 215.573 4.83087 -0.430367 0
M  V30 2193 H 211.452 4.54652 0.762422 0
M  V30 2194 H 214.996 6.70268 -1.93357 0
M  V30 2195 H 210.893 6.41321 -0.73333 0
M  V30 2196 H 211.661 7.88441 -2.1978 0
M  V30 2197 N 214.325 -0.140222 1.56975 0
M  V30 2198 C 215.741 -0.493088 1.51792 0
M  V30 2199 C 215.941 -1.83013 0.843116 0
M  V30 2200 O 214.997 -2.49041 0.416493 0
M  V30 2201 C 216.31 -0.497144 2.96562 0
M  V30 2202 C 217.858 -0.582186 3.07538 0
M  V30 2203 C 218.333 -0.616838 4.53827 0
M  V30 2204 N 219.824 -0.678873 4.58198 0
M  V30 2205 C 220.559 -0.726782 5.68775 0
M  V30 2206 N 220.055 -0.733623 6.88905 0
M  V30 2207 N 221.848 -0.768179 5.56826 0
M  V30 2208 H 213.999 0.736108 1.99237 0
M  V30 2209 H 216.262 0.269182 0.90898 0
M  V30 2210 H 215.968 0.417217 3.49217 0
M  V30 2211 H 215.842 -1.33263 3.52875 0
M  V30 2212 H 218.229 -1.48697 2.54899 0
M  V30 2213 H 218.31 0.280581 2.54257 0
M  V30 2214 H 217.954 0.283812 5.07106 0
M  V30 2215 H 217.884 -1.49619 5.04898 0
M  V30 2216 H 220.375 -0.68061 3.7172 0
M  V30 2217 H 220.688 -0.772215 7.68932 0
M  V30 2218 H 219.033 -0.701389 6.91452 0
M  V30 2219 H 222.224 -0.760051 4.61888 0
M  V30 2220 H 222.397 -0.80205 6.43017 0
M  V30 2221 N 215.803 -1.52179 -0.40978 0
M  V30 2222 C 216.75 -1.75475 -1.49924 0
M  V30 2223 C 217.72 -0.597175 -1.54994 0
M  V30 2224 O 218.905 -0.834655 -1.71575 0
M  V30 2225 C 216.045 -1.9107 -2.87378 0
M  V30 2226 C 215.158 -3.18717 -2.91622 0
M  V30 2227 C 214.293 -3.24747 -4.20372 0
M  V30 2228 C 213.332 -4.46598 -4.18588 0
M  V30 2229 N 212.469 -4.50025 -5.38908 0
M  V30 2230 H 217.309 -2.68458 -1.29361 0
M  V30 2231 H 214.846 -1.33024 -0.627934 0
M  V30 2232 H 216.804 -1.98096 -3.6717 0
M  V30 2233 H 215.434 -1.01469 -3.06437 0
M  V30 2234 H 214.486 -3.20866 -2.04326 0
M  V30 2235 H 215.798 -4.08544 -2.86169 0
M  V30 2236 H 214.952 -3.30841 -5.08556 0
M  V30 2237 H 213.691 -2.32857 -4.28519 0
M  V30 2238 H 212.696 -4.40652 -3.28794 0
M  V30 2239 H 213.921 -5.39783 -4.12081 0
M  V30 2240 H 211.867 -3.61017 -5.47725 0
M  V30 2241 H 211.784 -5.33697 -5.35447 0
M  V30 2242 H 213.052 -4.60347 -6.29048 0
M  V30 2243 N 217.281 0.66697 -1.42791 0
M  V30 2244 C 218.511 1.45294 -1.46878 0
M  V30 2245 C 218.919 1.89027 -0.0809861 0
M  V30 2246 O 218.262 1.59219 0.916246 0
M  V30 2247 C 218.324 2.72908 -2.34012 0
M  V30 2248 C 217.988 2.51203 -3.81767 0
M  V30 2249 C 218.985 2.15302 -4.73224 0
M  V30 2250 C 216.67 2.65954 -4.26115 0
M  V30 2251 C 218.664 1.94431 -6.07022 0
M  V30 2252 C 216.351 2.44699 -5.59969 0
M  V30 2253 C 217.349 2.08992 -6.5024 0
M  V30 2254 O 217.037 1.87948 -7.81621 0
M  V30 2255 H 216.769 0.453306 -0.501487 0
M  V30 2256 H 219.323 0.826232 -1.88049 0
M  V30 2257 H 217.553 3.38089 -1.87703 0
M  V30 2258 H 219.242 3.34816 -2.29462 0
M  V30 2259 H 220.008 2.03495 -4.40244 0
M  V30 2260 H 215.887 2.92724 -3.56137 0
M  V30 2261 H 219.431 1.66484 -6.77443 0
M  V30 2262 H 215.328 2.56105 -5.9252 0
M  V30 2263 H 216.096 2.02483 -7.93059 0
M  V30 2264 N 218.759 1.29093 0.90403 0
M  V30 2265 C 220.008 1.16187 1.64874 0
M  V30 2266 C 220.321 -0.286742 1.93487 0
M  V30 2267 O 221.527 -0.537062 2.66135 0
M  V30 2268 C 219.983 2.03177 2.97064 0
M  V30 2269 C 219.591 3.52836 2.76062 0
M  V30 2270 C 221.335 1.98984 3.74974 0
M  V30 2271 C 219.242 4.31945 4.03952 0
M  V30 2272 H 218.172 0.431246 0.618501 0
M  V30 2273 H 220.823 1.53699 1.00243 0
M  V30 2274 H 219.205 1.5853 3.62883 0
M  V30 2275 H 220.379 4.05507 2.18863 0
M  V30 2276 H 218.694 3.58656 2.11553 0
M  V30 2277 H 221.291 2.55351 4.69787 0
M  V30 2278 H 221.634 0.968815 4.0487 0
M  V30 2279 H 222.167 2.41652 3.15989 0
M  V30 2280 H 218.906 5.34667 3.79225 0
M  V30 2281 H 218.426 3.84045 4.60727 0
M  V30 2282 H 220.105 4.42379 4.72133 0
M  V30 2283 N 220.237 -1.11381 1.11499 0
M  V30 2284 C 221.167 -2.19509 0.796125 0
M  V30 2285 C 222.148 -1.68458 -0.235796 0
M  V30 2286 O 223.333 -1.93947 -0.0991344 0
M  V30 2287 C 220.463 -3.46475 0.239205 0
M  V30 2288 C 219.417 -4.10744 1.20307 0
M  V30 2289 C 218.743 -5.32293 0.50683 0
M  V30 2290 C 220.043 -4.55597 2.55399 0
M  V30 2291 H 221.737 -2.46439 1.70024 0
M  V30 2292 H 219.283 -1.18446 0.818935 0
M  V30 2293 H 221.236 -4.214 0.00392006 0
M  V30 2294 H 219.96 -3.19006 -0.700206 0
M  V30 2295 H 218.619 -3.37813 1.42399 0
M  V30 2296 H 218.267 -5.01095 -0.437408 0
M  V30 2297 H 217.967 -5.76243 1.1497 0
M  V30 2298 H 219.491 -6.09956 0.280351 0
M  V30 2299 H 220.905 -5.21841 2.37391 0
M  V30 2300 H 219.302 -5.10363 3.15673 0
M  V30 2301 H 220.372 -3.69013 3.14575 0
M  V30 2302 N 221.715 -0.905404 -1.28997 0
M  V30 2303 C 222.992 -0.453513 -1.9027 0
M  V30 2304 C 223.372 1.06721 -1.82137 0
M  V30 2305 O 222.72 1.91159 -1.25182 0
M  V30 2306 C 222.93 -0.974494 -3.35119 0
M  V30 2307 C 224.278 -1.0216 -4.12127 0
M  V30 2308 O 225.302 -0.922557 -3.44046 0
M  V30 2309 O 224.161 -1.17121 -5.33802 0
M  V30 2310 H 221.255 -0.142347 -0.814657 0
M  V30 2311 H 223.801 -0.995642 -1.37423 0
M  V30 2312 H 222.573 -2.01848 -3.35221 0
M  V30 2313 H 222.196 -0.412706 -3.95452 0
M  V30 2314 N 223.193 1.4272 -0.668489 0
M  V30 2315 C 224.141 2.32586 0.0254857 0
M  V30 2316 C 225.135 1.49471 0.797176 0
M  V30 2317 O 226.341 1.65583 0.705853 0
M  V30 2318 H 222.716 0.751514 0.0270339 0
M  V30 2319 H 224.687 2.88823 -0.749936 0
M  V30 2320 C 223.436 3.3397 0.967427 0
M  V30 2321 H 222.759 3.97961 0.383048 0
M  V30 2322 H 224.199 3.9945 1.42181 0
M  V30 2323 C 222.658 2.65744 2.0708 0
M  V30 2324 O 223.188 2.48454 3.15648 0
M  V30 2325 N 221.394 2.2487 1.8407 0
M  V30 2326 H 220.941 2.39132 0.95778 0
M  V30 2327 H 220.899 1.79552 2.58086 0
M  V30 2328 N 224.671 0.411399 1.52136 0
M  V30 2329 C 225.619 -0.427633 2.28635 0
M  V30 2330 C 226.613 -1.04383 1.33419 0
M  V30 2331 O 227.819 -0.981772 1.50868 0
M  V30 2332 H 224.194 -0.156689 0.735495 0
M  V30 2333 H 226.165 0.238761 2.97443 0
M  V30 2334 C 224.914 -1.53082 3.12188 0
M  V30 2335 H 224.237 -1.06601 3.85326 0
M  V30 2336 H 225.677 -2.09167 3.68816 0
M  V30 2337 C 224.136 -2.49946 2.25895 0
M  V30 2338 O 224.666 -3.53884 1.90076 0
M  V30 2339 N 222.872 -2.2021 1.8962 0
M  V30 2340 H 222.419 -1.35719 2.18948 0
M  V30 2341 H 222.377 -2.85266 1.32176 0
M  V30 2342 N 226.149 -1.5696 0.141893 0
M  V30 2343 C 227.397 -1.95573 -0.509484 0
M  V30 2344 C 227.718 -1.02746 -1.65736 0
M  V30 2345 O 226.988 -0.0880311 -1.95702 0
M  V30 2346 H 225.568 -0.722115 -0.191205 0
M  V30 2347 H 228.23 -1.93697 0.216196 0
M  V30 2348 H 227.326 -2.99171 -0.889 0
M  V30 2349 N 227.627 0.131896 -1.57047 0
M  V30 2350 C 228.876 0.84044 -1.83356 0
M  V30 2351 C 229.189 1.81646 -0.725535 0
M  V30 2352 O 230.395 2.57025 -0.874659 0
M  V30 2353 C 228.851 1.54528 -3.25037 0
M  V30 2354 C 228.459 0.610902 -4.43815 0
M  V30 2355 C 230.203 2.23972 -3.60606 0
M  V30 2356 C 228.11 1.31823 -5.76521 0
M  V30 2357 H 227.04 0.317599 -0.683847 0
M  V30 2358 H 229.691 0.0931561 -1.83263 0
M  V30 2359 H 228.073 2.33873 -3.19561 0
M  V30 2360 H 229.247 -0.148407 -4.60561 0
M  V30 2361 H 227.562 0.0241016 -4.16393 0
M  V30 2362 H 230.159 2.77558 -4.57018 0
M  V30 2363 H 230.502 3.01173 -2.87403 0
M  V30 2364 H 231.035 1.51529 -3.6781 0
M  V30 2365 H 227.774 0.587771 -6.52859 0
M  V30 2366 H 227.294 2.04987 -5.63685 0
M  V30 2367 H 228.973 1.855 -6.19838 0
M  V30 2368 N 229.106 1.52395 0.401703 0
M  V30 2369 C 230.352 1.67065 1.14966 0
M  V30 2370 C 230.685 0.403052 1.89971 0
M  V30 2371 O 229.96 -0.598774 1.85054 0
M  V30 2372 C 230.243 2.8975 2.13815 0
M  V30 2373 C 230.096 4.26578 1.42658 0
M  V30 2374 C 231.415 3.07965 3.14397 0
M  V30 2375 H 228.534 0.607968 0.416587 0
M  V30 2376 H 231.176 1.84965 0.434511 0
M  V30 2377 H 229.326 2.74619 2.74803 0
M  V30 2378 H 230.998 4.53451 0.847329 0
M  V30 2379 H 229.241 4.27639 0.72849 0
M  V30 2380 H 229.912 5.08483 2.14823 0
M  V30 2381 H 232.388 3.22043 2.63491 0
M  V30 2382 H 231.264 3.95308 3.80819 0
M  V30 2383 H 231.525 2.21611 3.82545 0
M  V30 2384 N 230.584 -0.659388 1.43143 0
M  V30 2385 C 231.809 -1.45221 1.48073 0
M  V30 2386 C 232.234 -1.87845 0.097995 0
M  V30 2387 O 231.592 -1.56985 -0.90694 0
M  V30 2388 C 231.64 -2.66748 2.42647 0
M  V30 2389 O 230.744 -3.65583 1.90848 0
M  V30 2390 H 230.085 -0.435669 0.501088 0
M  V30 2391 H 232.615 -0.807432 1.87994 0
M  V30 2392 H 232.625 -3.14637 2.59745 0
M  V30 2393 H 231.3 -2.35067 3.43098 0
M  V30 2394 H 229.877 -3.24693 1.83381 0
M  V30 2395 N 232.062 -1.29571 -0.897171 0
M  V30 2396 C 233.478 -1.07637 -1.17841 0
M  V30 2397 C 233.678 0.170713 -2.00776 0
M  V30 2398 O 232.734 0.867768 -2.3712 0
M  V30 2399 C 234.047 -2.3332 -1.8969 0
M  V30 2400 C 235.595 -2.38664 -2.02505 0
M  V30 2401 C 236.07 -3.64157 -2.77765 0
M  V30 2402 N 237.561 -3.64894 -2.85318 0
M  V30 2403 C 238.296 -4.58679 -3.44094 0
M  V30 2404 N 237.792 -5.62799 -4.04017 0
M  V30 2405 N 239.585 -4.46245 -3.41793 0
M  V30 2406 H 231.736 -2.09598 -0.343883 0
M  V30 2407 H 233.999 -0.923333 -0.214848 0
M  V30 2408 H 233.705 -3.24262 -1.36187 0
M  V30 2409 H 233.579 -2.41025 -2.9015 0
M  V30 2410 H 235.966 -1.48208 -2.55183 0
M  V30 2411 H 236.047 -2.34943 -1.01171 0
M  V30 2412 H 235.691 -4.54965 -2.25763 0
M  V30 2413 H 235.621 -3.65137 -3.7945 0
M  V30 2414 H 238.112 -2.89613 -2.42761 0
M  V30 2415 H 238.425 -6.3048 -4.46895 0
M  V30 2416 H 236.77 -5.66605 -4.02472 0
M  V30 2417 H 239.961 -3.64094 -2.94199 0
M  V30 2418 H 240.134 -5.19518 -3.87304 0
M  V30 2419 N 233.54 1.10788 -1.12088 0
M  V30 2420 C 234.472 2.16816 -0.743213 0
M  V30 2421 C 235.485 1.6119 0.228412 0
M  V30 2422 O 236.674 1.78497 0.0102931 0
M  V30 2423 C 233.774 3.38809 -0.0787313 0
M  V30 2424 C 232.947 4.23885 -1.0789 0
M  V30 2425 C 232.006 5.24334 -0.442713 0
M  V30 2426 O 231.032 5.58497 -1.09864 0
M  V30 2427 N 232.234 5.75079 0.791457 0
M  V30 2428 H 234.999 2.49825 -1.65552 0
M  V30 2429 H 232.56 1.26373 -1.012 0
M  V30 2430 H 234.552 4.03107 0.358766 0
M  V30 2431 H 233.122 3.03805 0.736275 0
M  V30 2432 H 232.342 3.55939 -1.69414 0
M  V30 2433 H 233.63 4.77562 -1.75533 0
M  V30 2434 H 233.028 5.49517 1.3434 0
M  V30 2435 H 231.585 6.4118 1.17183 0
M  V30 2436 N 235.018 0.912232 1.28515 0
M  V30 2437 C 236.246 0.560416 1.99166 0
M  V30 2438 C 236.661 -0.857927 1.68182 0
M  V30 2439 O 236.018 -1.56805 0.933733 0
M  V30 2440 C 236.069 0.758142 3.53461 0
M  V30 2441 O 235.79 2.12067 3.83352 0
M  V30 2442 C 237.291 0.412954 4.41372 0
M  V30 2443 H 234.511 0.213805 0.636026 0
M  V30 2444 H 237.055 1.22502 1.63749 0
M  V30 2445 H 235.21 0.140556 3.87145 0
M  V30 2446 H 235.624 2.15923 4.77993 0
M  V30 2447 H 237.098 0.60208 5.48707 0
M  V30 2448 H 237.575 -0.65073 4.34353 0
M  V30 2449 H 238.181 1.00802 4.13182 0
M  V30 2450 N 236.496 -1.42363 0.676048 0
M  V30 2451 C 237.443 -2.308 -0.00150904 0
M  V30 2452 C 238.413 -1.46032 -0.791444 0
M  V30 2453 O 239.598 -1.74861 -0.76344 0
M  V30 2454 C 236.738 -3.31883 -0.945919 0
M  V30 2455 C 235.851 -4.31741 -0.149675 0
M  V30 2456 C 234.986 -5.19898 -1.08995 0
M  V30 2457 C 234.025 -6.11434 -0.285465 0
M  V30 2458 N 233.162 -6.92138 -1.17851 0
M  V30 2459 H 238.002 -2.88187 0.758455 0
M  V30 2460 H 235.539 -1.41952 0.38576 0
M  V30 2461 H 237.497 -3.89019 -1.50731 0
M  V30 2462 H 236.127 -2.76093 -1.6725 0
M  V30 2463 H 235.179 -3.76713 0.528359 0
M  V30 2464 H 236.491 -4.96534 0.474866 0
M  V30 2465 H 235.645 -5.81772 -1.72123 0
M  V30 2466 H 234.384 -4.55284 -1.74837 0
M  V30 2467 H 233.389 -5.48627 0.359018 0
M  V30 2468 H 234.614 -6.78097 0.368883 0
M  V30 2469 H 232.56 -6.30152 -1.82332 0
M  V30 2470 H 232.477 -7.53542 -0.609082 0
M  V30 2471 H 233.745 -7.58499 -1.79722 0
M  V30 2472 N 237.974 -0.419461 -1.51915 0
M  V30 2473 C 239.385 0.0477853 -1.86639 0
M  V30 2474 C 239.736 1.43531 -1.33766 0
M  V30 2475 O 238.861 2.05401 -0.68113 0
M  V30 2476 C 239.456 0.0934885 -3.38671 0
M  V30 2477 C 238.015 0.505097 -3.72996 0
M  V30 2478 C 237.162 -0.313792 -2.75519 0
M  V30 2479 H 240.113 -0.636088 -1.45395 0
M  V30 2480 H 240.134 0.906667 -3.6954 0
M  V30 2481 H 239.646 -0.916501 -3.77123 0
M  V30 2482 H 237.747 1.52135 -3.40126 0
M  V30 2483 H 237.86 0.242309 -4.78487 0
M  V30 2484 H 236.224 0.225363 -2.53701 0
M  V30 2485 H 237.007 -1.32232 -3.16812 0
M  V30 2486 N 239.452 1.56882 -0.150215 0
M  V30 2487 C 240.415 2.1573 0.774157 0
M  V30 2488 C 241.415 1.0999 1.17298 0
M  V30 2489 O 242.605 1.35613 1.09338 0
M  V30 2490 C 239.737 2.72302 2.05096 0
M  V30 2491 H 240.93 2.98752 0.262201 0
M  V30 2492 H 238.483 1.55985 0.099248 0
M  V30 2493 H 239.218 1.92956 2.6065 0
M  V30 2494 H 239.003 3.49665 1.77416 0
M  V30 2495 H 240.493 3.17632 2.71109 0
M  V30 2496 N 240.93 -0.123565 1.57115 0
M  V30 2497 C 242.158 -0.846461 1.88793 0
M  V30 2498 C 242.573 -1.73652 0.740976 0
M  V30 2499 O 241.93 -1.80207 -0.288393 0
M  V30 2500 C 241.981 -1.6837 3.19897 0
M  V30 2501 O 241.702 -0.829477 4.30176 0
M  V30 2502 C 243.203 -2.51214 3.65248 0
M  V30 2503 H 240.423 -0.243573 0.625231 0
M  V30 2504 H 242.967 -0.109324 2.04208 0
M  V30 2505 H 241.122 -2.37364 3.06165 0
M  V30 2506 H 241.536 -1.40651 5.0529 0
M  V30 2507 H 243.01 -3.05497 4.59756 0
M  V30 2508 H 243.487 -3.28359 2.9168 0
M  V30 2509 H 244.093 -1.8747 3.81752 0
M  V30 2510 N 242.408 -1.52605 -0.393616 0
M  V30 2511 C 243.355 -1.77055 -1.48054 0
M  V30 2512 C 244.325 -0.61358 -1.54352 0
M  V30 2513 O 245.51 -0.852806 -1.70681 0
M  V30 2514 C 242.65 -1.94108 -2.85335 0
M  V30 2515 C 241.763 -3.21792 -2.88226 0
M  V30 2516 C 240.898 -3.29188 -4.16904 0
M  V30 2517 C 239.937 -4.51013 -4.13828 0
M  V30 2518 N 239.074 -4.55716 -5.34105 0
M  V30 2519 H 243.914 -2.69815 -1.26506 0
M  V30 2520 H 241.451 -1.33683 -0.61379 0
M  V30 2521 H 243.409 -2.01979 -3.65049 0
M  V30 2522 H 242.039 -1.04713 -3.05344 0
M  V30 2523 H 241.091 -3.23015 -2.00911 0
M  V30 2524 H 242.403 -4.11557 -2.8182 0
M  V30 2525 H 241.557 -3.36216 -5.05018 0
M  V30 2526 H 240.296 -2.37389 -4.26026 0
M  V30 2527 H 239.301 -4.44115 -3.24102 0
M  V30 2528 H 240.526 -5.44123 -4.06333 0
M  V30 2529 H 238.472 -3.66807 -5.43865 0
M  V30 2530 H 238.389 -5.39346 -5.29756 0
M  V30 2531 H 239.657 -4.66993 -6.2413 0
M  V30 2532 N 243.887 0.651787 -1.4349 0
M  V30 2533 C 245.112 1.44434 -1.48841 0
M  V30 2534 C 245.537 1.8779 -0.107955 0
M  V30 2535 O 244.895 1.57464 0.898602 0
M  V30 2536 C 244.943 2.65458 -2.44059 0
M  V30 2537 O 244.047 3.64566 -1.92784 0
M  V30 2538 H 243.388 0.433005 -0.503391 0
M  V30 2539 H 245.918 0.797451 -1.88419 0
M  V30 2540 H 245.928 3.13255 -2.6141 0
M  V30 2541 H 244.603 2.33244 -3.4434 0
M  V30 2542 H 243.18 3.23716 -1.851 0
M  V30 2543 N 245.365 1.30045 0.890287 0
M  V30 2544 C 246.612 1.18561 1.64163 0
M  V30 2545 C 246.94 -0.260852 1.92743 0
M  V30 2546 O 246.195 -1.20376 1.54299 0
M  V30 2547 C 246.494 1.95409 2.99249 0
M  V30 2548 C 246.16 3.45066 2.90242 0
M  V30 2549 C 244.822 3.85878 2.87492 0
M  V30 2550 C 247.174 4.4039 2.78758 0
M  V30 2551 C 244.502 5.20314 2.7109 0
M  V30 2552 C 246.854 5.74928 2.63894 0
M  V30 2553 C 245.518 6.14986 2.59516 0
M  V30 2554 H 244.788 0.433846 0.600715 0
M  V30 2555 H 247.435 1.61088 1.03552 0
M  V30 2556 H 245.74 1.45501 3.63781 0
M  V30 2557 H 247.437 1.8392 3.56334 0
M  V30 2558 H 244.027 3.12631 2.93189 0
M  V30 2559 H 248.211 4.09806 2.79952 0
M  V30 2560 H 243.467 5.50449 2.66112 0
M  V30 2561 H 247.641 6.48434 2.53981 0
M  V30 2562 H 245.268 7.19104 2.46565 0
M  V30 2563 N 246.843 -1.10192 1.12674 0
M  V30 2564 C 248.092 -1.81573 0.8783 0
M  V30 2565 C 248.405 -1.86249 -0.597557 0
M  V30 2566 O 249.611 -2.5386 -0.962681 0
M  V30 2567 C 248.067 -3.26149 1.52167 0
M  V30 2568 C 247.675 -3.29763 3.03249 0
M  V30 2569 C 249.419 -4.0234 1.3536 0
M  V30 2570 C 247.326 -4.68815 3.60508 0
M  V30 2571 H 246.256 -0.680394 0.324931 0
M  V30 2572 H 248.907 -1.23902 1.35353 0
M  V30 2573 H 247.289 -3.83832 0.974104 0
M  V30 2574 H 248.463 -2.8189 3.6452 0
M  V30 2575 H 246.778 -2.67059 3.19481 0
M  V30 2576 H 249.375 -5.05058 1.75559 0
M  V30 2577 H 249.718 -4.15235 0.297554 0
M  V30 2578 H 250.251 -3.51079 1.87052 0
M  V30 2579 H 246.99 -4.61121 4.65884 0
M  V30 2580 H 246.51 -5.17045 3.04014 0
M  V30 2581 H 248.189 -5.37785 3.59717 0
M  V30 2582 N 248.321 -0.919034 -1.28029 0
M  V30 2583 C 249.268 -0.410005 -2.27129 0
M  V30 2584 C 250.238 0.518405 -1.57803 0
M  V30 2585 O 251.423 0.439451 -1.8567 0
M  V30 2586 C 248.563 0.339054 -3.4343 0
M  V30 2587 C 247.676 -0.622468 -4.27492 0
M  V30 2588 C 246.811 0.145567 -5.31001 0
M  V30 2589 C 245.85 -0.809226 -6.06727 0
M  V30 2590 N 244.987 -0.0743728 -7.02061 0
M  V30 2591 H 249.827 -1.26011 -2.70047 0
M  V30 2592 H 247.364 -0.632663 -1.328 0
M  V30 2593 H 249.322 0.789586 -4.0966 0
M  V30 2594 H 247.952 1.15346 -3.01488 0
M  V30 2595 H 247.004 -1.19153 -3.61257 0
M  V30 2596 H 248.316 -1.35252 -4.80113 0
M  V30 2597 H 247.47 0.656417 -6.03139 0
M  V30 2598 H 246.209 0.908643 -4.79161 0
M  V30 2599 H 245.214 -1.3314 -5.33436 0
M  V30 2600 H 246.439 -1.57194 -6.60656 0
M  V30 2601 H 244.385 0.670616 -6.52563 0
M  V30 2602 H 244.302 -0.744157 -7.52329 0
M  V30 2603 H 245.57 0.416109 -7.78389 0
M  V30 2604 N 249.799 1.42003 -0.683588 0
M  V30 2605 C 251.047 2.01015 -0.209101 0
M  V30 2606 C 251.368 1.54365 1.19149 0
M  V30 2607 O 250.638 0.769083 1.80172 0
M  V30 2608 H 249.218 0.743294 -0.074315 0
M  V30 2609 H 251.88 1.73798 -0.882066 0
M  V30 2610 H 250.976 3.11343 -0.2172 0
M  V30 2611 N 251.277 0.427512 1.51691 0
M  V30 2612 C 252.517 -0.141524 2.03909 0
M  V30 2613 C 252.881 -1.40811 1.30523 0
M  V30 2614 O 254.082 -2.05676 1.73063 0
M  V30 2615 C 252.353 -0.364962 3.55532 0
M  V30 2616 S 253.912 -0.898812 4.29496 0
M  V30 2617 H 250.73 -0.0364542 0.710065 0
M  V30 2618 H 253.332 0.584659 1.86553 0
M  V30 2619 H 252.036 0.56336 4.06515 0
M  V30 2620 H 251.567 -1.1185 3.77164 0
M  V30 2621 H 253.582 -2.17747 4.45871 0
M  V30 2622 N 252.755 -1.56801 0.158532 0
M  V30 2623 C 254.004 -1.95665 -0.489702 0
M  V30 2624 C 254.317 -1.04654 -1.65248 0
M  V30 2625 O 255.523 -1.33146 -2.3661 0
M  V30 2626 C 253.979 -3.47874 -0.922582 0
M  V30 2627 C 253.587 -4.47489 0.213893 0
M  V30 2628 C 255.331 -3.95583 -1.53996 0
M  V30 2629 C 253.238 -5.90921 -0.237903 0
M  V30 2630 H 252.168 -0.730516 -0.186716 0
M  V30 2631 H 254.819 -1.81861 0.244722 0
M  V30 2632 H 253.201 -3.57051 -1.71261 0
M  V30 2633 H 254.375 -4.50017 0.991036 0
M  V30 2634 H 252.69 -4.09764 0.740407 0
M  V30 2635 H 255.287 -5.0019 -1.8898 0
M  V30 2636 H 255.63 -3.37789 -2.43319 0
M  V30 2637 H 256.163 -3.8937 -0.814611 0
M  V30 2638 H 252.902 -6.52559 0.620236 0
M  V30 2639 H 252.422 -5.91729 -0.980676 0
M  V30 2640 H 254.101 -6.43352 -0.686067 0
M  V30 2641 N 254.233 0.115231 -1.57178 0
M  V30 2642 C 255.166 1.17166 -1.95825 0
M  V30 2643 C 256.144 1.39912 -0.828463 0
M  V30 2644 O 257.328 1.54004 -1.08697 0
M  V30 2645 C 254.455 2.52478 -2.25771 0
M  V30 2646 C 253.501 2.46136 -3.48309 0
M  V30 2647 S 254.334 1.89736 -5.0076 0
M  V30 2648 C 255.49 3.26713 -5.33863 0
M  V30 2649 H 255.723 0.842103 -2.85124 0
M  V30 2650 H 253.256 0.322136 -1.51002 0
M  V30 2651 H 255.214 3.30332 -2.43702 0
M  V30 2652 H 253.875 2.82609 -1.37079 0
M  V30 2653 H 253.068 3.45819 -3.66641 0
M  V30 2654 H 252.67 1.76404 -3.29784 0
M  V30 2655 H 254.962 4.22935 -5.29275 0
M  V30 2656 H 255.905 3.13205 -6.35065 0
M  V30 2657 H 256.313 3.25316 -4.61335 0
M  V30 2658 N 255.711 1.52812 0.385517 0
M  V30 2659 C 256.658 1.77838 1.47113 0
M  V30 2660 C 257.628 0.621757 1.54024 0
M  V30 2661 O 258.813 0.861846 1.70226 0
M  V30 2662 C 255.953 1.95618 2.84302 0
M  V30 2663 C 255.066 3.23316 2.86515 0
M  V30 2664 C 254.201 3.31394 4.15152 0
M  V30 2665 C 253.24 4.53201 4.1143 0
M  V30 2666 N 252.377 4.58542 5.3168 0
M  V30 2667 H 257.217 2.70482 1.25073 0
M  V30 2668 H 254.754 1.34006 0.606692 0
M  V30 2669 H 256.712 2.03912 3.63972 0
M  V30 2670 H 255.342 1.06331 3.04784 0
M  V30 2671 H 254.394 3.24076 1.99195 0
M  V30 2672 H 255.706 4.13045 2.79634 0
M  V30 2673 H 254.86 3.3889 5.03228 0
M  V30 2674 H 253.599 2.39645 4.24761 0
M  V30 2675 H 252.604 4.45827 3.21742 0
M  V30 2676 H 253.829 5.46271 4.03442 0
M  V30 2677 H 251.775 3.69686 5.41912 0
M  V30 2678 H 251.692 5.42148 5.26889 0
M  V30 2679 H 252.96 4.70296 6.21644 0
M  V30 2680 N 257.189 -0.644168 1.43834 0
M  V30 2681 C 258.121 -1.76955 1.45669 0
M  V30 2682 C 259.134 -1.58956 0.351666 0
M  V30 2683 O 260.323 -1.6751 0.616644 0
M  V30 2684 C 257.423 -3.14507 1.26248 0
M  V30 2685 C 256.596 -3.59083 2.49757 0
M  V30 2686 C 255.655 -4.75467 2.25427 0
M  V30 2687 O 254.681 -4.84444 2.98836 0
M  V30 2688 N 255.883 -5.66289 1.27661 0
M  V30 2689 H 258.648 -1.75856 2.42682 0
M  V30 2690 H 256.209 -0.828312 1.39106 0
M  V30 2691 H 258.201 -3.90067 1.0784 0
M  V30 2692 H 256.771 -3.10325 0.376478 0
M  V30 2693 H 255.991 -2.7387 2.8353 0
M  V30 2694 H 257.279 -3.85613 3.31934 0
M  V30 2695 H 256.677 -5.61718 0.670064 0
M  V30 2696 H 255.234 -6.41533 1.15234 0
M  V30 2697 N 258.668 -1.30515 -0.883378 0
M  V30 2698 C 259.598 -1.19607 -2.00541 0
M  V30 2699 C 260.579 -0.086346 -1.69881 0
M  V30 2700 O 261.764 -0.268654 -1.92333 0
M  V30 2701 C 258.894 -0.888758 -3.35736 0
M  V30 2702 C 257.848 -1.95659 -3.8066 0
M  V30 2703 C 257.174 -1.50224 -5.13164 0
M  V30 2704 C 258.474 -3.36788 -3.99213 0
M  V30 2705 H 260.168 -2.13476 -2.09925 0
M  V30 2706 H 257.714 -1.02775 -1.00863 0
M  V30 2707 H 259.667 -0.799094 -4.13754 0
M  V30 2708 H 258.391 0.0856125 -3.26488 0
M  V30 2709 H 257.05 -2.03591 -3.04871 0
M  V30 2710 H 256.698 -0.516092 -5.00345 0
M  V30 2711 H 256.398 -2.2165 -5.44192 0
M  V30 2712 H 257.922 -1.42639 -5.93706 0
M  V30 2713 H 259.336 -3.31605 -4.67665 0
M  V30 2714 H 257.733 -4.06314 -4.41621 0
M  V30 2715 H 258.803 -3.78561 -3.03017 0
M  V30 2716 N 260.146 1.09593 -1.13257 0
M  V30 2717 C 261.395 1.81105 -0.887917 0
M  V30 2718 C 261.708 1.86563 0.587672 0
M  V30 2719 O 262.914 2.54367 0.949204 0
M  V30 2720 C 261.37 3.25338 -1.53895 0
M  V30 2721 C 260.978 3.28151 -3.04994 0
M  V30 2722 C 262.722 4.01617 -1.37492 0
M  V30 2723 C 260.629 4.66897 -3.6299 0
M  V30 2724 H 259.559 0.678661 -0.328534 0
M  V30 2725 H 262.21 1.23183 -1.36008 0
M  V30 2726 H 260.592 3.8331 -0.994446 0
M  V30 2727 H 261.766 2.79953 -3.66009 0
M  V30 2728 H 260.081 2.65361 -3.20893 0
M  V30 2729 H 262.678 5.04119 -1.78235 0
M  V30 2730 H 263.021 4.15072 -0.31957 0
M  V30 2731 H 263.554 3.50082 -1.88912 0
M  V30 2732 H 260.293 4.58643 -4.68323 0
M  V30 2733 H 259.813 5.15426 -3.06752 0
M  V30 2734 H 261.492 5.3587 -3.62563 0
M  V30 2735 N 261.624 0.925811 1.2754 0
M  V30 2736 C 262.901 0.483726 1.89524 0
M  V30 2737 C 263.281 -1.03809 1.83812 0
M  V30 2738 O 262.629 -1.89143 1.28207 0
M  V30 2739 C 262.839 1.02769 3.33526 0
M  V30 2740 C 264.187 1.08703 4.10449 0
M  V30 2741 O 265.211 0.977175 3.42534 0
M  V30 2742 O 264.07 1.25599 5.31871 0
M  V30 2743 H 261.164 0.15529 0.812289 0
M  V30 2744 H 263.71 1.01738 1.35822 0
M  V30 2745 H 262.482 2.07155 3.31967 0
M  V30 2746 H 262.105 0.475567 3.94746 0
M  V30 2747 N 263.102 -1.41638 0.69111 0
M  V30 2748 C 264.513 -1.84346 0.295517 0
M  V30 2749 C 264.864 -1.57833 -1.16547 0
M  V30 2750 O 263.989 -1.04648 -1.89414 0
M  V30 2751 C 264.584 -3.34636 0.529575 0
M  V30 2752 C 263.143 -3.7593 0.187944 0
M  V30 2753 C 262.29 -2.65082 0.814052 0
M  V30 2754 H 265.241 -1.31253 0.892092 0
M  V30 2755 H 265.262 -3.79903 -0.213148 0
M  V30 2756 H 264.774 -3.53901 1.59297 0
M  V30 2757 H 262.875 -3.62268 -0.871367 0
M  V30 2758 H 262.988 -4.74808 0.63985 0
M  V30 2759 H 261.352 -2.53528 0.244017 0
M  V30 2760 H 262.135 -2.87167 1.88123 0
M  V30 2761 N 264.58 -0.43555 -1.51462 0
M  V30 2762 C 265.543 0.365137 -2.26273 0
M  V30 2763 C 266.543 0.951227 -1.29647 0
M  V30 2764 O 267.733 0.825958 -1.53374 0
M  V30 2765 C 264.865 1.51645 -3.05314 0
M  V30 2766 H 266.058 -0.290474 -2.9849 0
M  V30 2767 H 263.611 -0.188676 -1.55157 0
M  V30 2768 H 264.346 2.20816 -2.3751 0
M  V30 2769 H 264.131 1.10238 -3.76284 0
M  V30 2770 H 265.621 2.08218 -3.61987 0
M  V30 2771 N 266.058 1.56714 -0.166846 0
M  V30 2772 C 266.991 2.13577 0.80375 0
M  V30 2773 C 267.969 1.06464 1.22899 0
M  V30 2774 O 269.153 1.34413 1.32157 0
M  V30 2775 C 266.28 2.67168 2.0818 0
M  V30 2776 C 265.326 3.86612 1.80093 0
M  V30 2777 S 266.159 5.26565 0.97416 0
M  V30 2778 C 267.315 5.83558 2.26297 0
M  V30 2779 H 267.548 2.9557 0.320267 0
M  V30 2780 H 265.081 1.54326 0.0477555 0
M  V30 2781 H 267.039 2.98692 2.8159 0
M  V30 2782 H 265.7 1.85269 2.53642 0
M  V30 2783 H 264.893 4.22422 2.7491 0
M  V30 2784 H 264.495 3.55951 1.14781 0
M  V30 2785 H 266.787 5.962 3.21795 0
M  V30 2786 H 267.73 6.80731 1.94962 0
M  V30 2787 H 268.138 5.11944 2.37853 0
M  V30 2788 N 267.536 -0.106894 1.57237 0
M  V30 2789 C 268.783 -0.812526 1.85484 0
M  V30 2790 C 269.111 -1.79304 0.753687 0
M  V30 2791 O 268.366 -1.94047 -0.253853 0
M  V30 2792 C 268.665 -1.58628 3.20268 0
M  V30 2793 C 268.331 -0.748967 4.44636 0
M  V30 2794 C 266.993 -0.518104 4.78403 0
M  V30 2795 C 269.345 -0.166122 5.20935 0
M  V30 2796 C 266.673 0.305659 5.85903 0
M  V30 2797 C 269.025 0.644899 6.29304 0
M  V30 2798 C 267.689 0.885965 6.61594 0
M  V30 2799 H 266.959 -0.297324 0.678734 0
M  V30 2800 H 269.606 -0.0744332 1.91355 0
M  V30 2801 H 267.911 -2.39562 3.10028 0
M  V30 2802 H 269.608 -2.13643 3.39349 0
M  V30 2803 H 266.198 -0.939006 4.18187 0
M  V30 2804 H 270.382 -0.33167 4.95191 0
M  V30 2805 H 265.638 0.501528 6.0934 0
M  V30 2806 H 269.812 1.10345 6.87602 0
M  V30 2807 H 267.439 1.52609 7.44725 0
M  V30 2808 N 269.014 -1.53014 -0.377408 0
M  V30 2809 C 270.291 -1.59215 -1.13622 0
M  V30 2810 C 270.671 -0.392407 -2.07421 0
M  V30 2811 O 270.019 0.618342 -2.19975 0
M  V30 2812 C 270.229 -2.93669 -1.88573 0
M  V30 2813 C 271.577 -3.47822 -2.43526 0
M  V30 2814 O 272.601 -2.9562 -1.98715 0
M  V30 2815 O 271.46 -4.39055 -3.25412 0
M  V30 2816 H 268.554 -0.642625 -0.52054 0
M  V30 2817 H 271.1 -1.65353 -0.381625 0
M  V30 2818 H 269.872 -3.7243 -1.20048 0
M  V30 2819 H 269.495 -2.90968 -2.70968 0
M  V30 2820 N 270.492 0.636531 -1.44174 0
M  V30 2821 C 271.424 1.7618 -1.46606 0
M  V30 2822 C 272.437 1.58768 -0.360091 0
M  V30 2823 O 273.626 1.67181 -0.625518 0
M  V30 2824 C 270.726 3.13833 -1.27915 0
M  V30 2825 C 269.899 3.57753 -2.51658 0
M  V30 2826 C 268.958 4.74265 -2.27945 0
M  V30 2827 O 267.984 4.82852 -3.01401 0
M  V30 2828 N 269.186 5.65604 -1.30662 0
M  V30 2829 H 271.951 1.74567 -2.43612 0
M  V30 2830 H 269.512 0.820924 -1.39544 0
M  V30 2831 H 271.504 3.8949 -1.09907 0
M  V30 2832 H 270.074 3.10121 -0.39293 0
M  V30 2833 H 269.294 2.72362 -2.84978 0
M  V30 2834 H 270.582 3.83847 -3.33974 0
M  V30 2835 H 269.98 5.61354 -0.699844 0
M  V30 2836 H 268.537 6.40913 -1.18634 0
M  V30 2837 N 271.97 1.30982 0.876444 0
M  V30 2838 C 272.933 1.18054 1.96459 0
M  V30 2839 C 273.933 0.109399 1.60427 0
M  V30 2840 O 275.123 0.358173 1.70478 0
M  V30 2841 C 272.255 0.810616 3.31122 0
M  V30 2842 H 273.448 2.14735 2.09354 0
M  V30 2843 H 271.001 1.145 1.06392 0
M  V30 2844 H 271.736 -0.155322 3.23928 0
M  V30 2845 H 271.521 1.58481 3.58645 0
M  V30 2846 H 273.011 0.743876 4.10921 0
M  V30 2847 N 273.449 -1.08991 1.13837 0
M  V30 2848 C 274.381 -2.15606 0.777612 0
M  V30 2849 C 275.394 -1.61533 -0.202739 0
M  V30 2850 O 276.583 -1.78491 0.0181055 0
M  V30 2851 C 273.683 -3.3864 0.132623 0
M  V30 2852 C 272.856 -4.22115 1.1462 0
M  V30 2853 C 271.915 -5.23564 0.526074 0
M  V30 2854 O 270.941 -5.56678 1.18735 0
M  V30 2855 N 272.143 -5.76266 -0.699866 0
M  V30 2856 H 274.908 -2.47159 1.69506 0
M  V30 2857 H 272.469 -1.24747 1.03198 0
M  V30 2858 H 274.461 -4.03626 -0.29459 0
M  V30 2859 H 273.031 -3.04938 -0.687849 0
M  V30 2860 H 272.251 -3.53199 1.75055 0
M  V30 2861 H 273.539 -4.74709 1.83109 0
M  V30 2862 H 272.937 -5.51585 -1.25581 0
M  V30 2863 H 271.494 -6.42963 -1.06968 0
M  V30 2864 N 274.927 -0.932562 -1.27047 0
M  V30 2865 C 276.155 -0.592031 -1.98249 0
M  V30 2866 C 276.57 0.831062 -1.69525 0
M  V30 2867 O 275.927 1.55299 -0.958561 0
M  V30 2868 C 275.978 -0.814279 -3.5221 0
M  V30 2869 O 275.699 -2.18139 -3.7993 0
M  V30 2870 C 277.2 -0.483121 -4.4066 0
M  V30 2871 H 274.42 -0.223896 -0.632544 0
M  V30 2872 H 276.964 -1.25091 -1.61779 0
M  V30 2873 H 275.119 -0.20213 -3.86872 0
M  V30 2874 H 275.533 -2.235 -4.74498 0
M  V30 2875 H 277.007 -0.689298 -5.47679 0
M  V30 2876 H 277.484 0.581546 -4.35333 0
M  V30 2877 H 278.09 -1.07362 -4.11526 0
M  V30 2878 N 276.405 1.4127 -0.698611 0
M  V30 2879 C 277.315 2.34573 -0.0357891 0
M  V30 2880 C 278.331 1.56393 0.762701 0
M  V30 2881 O 279.507 1.8886 0.699564 0
M  V30 2882 C 276.572 3.35159 0.887089 0
M  V30 2883 C 275.633 4.29225 0.0804634 0
M  V30 2884 C 274.866 5.25006 0.959387 0
M  V30 2885 O 275.089 5.26314 2.19886 0
M  V30 2886 O 274.023 6.00519 0.407439 0
M  V30 2887 H 277.849 2.92838 -0.804957 0
M  V30 2888 H 275.434 1.42175 -0.458966 0
M  V30 2889 H 277.316 3.9689 1.41621 0
M  V30 2890 H 275.991 2.79333 1.6357 0
M  V30 2891 H 274.898 3.70833 -0.493328 0
M  V30 2892 H 276.231 4.88157 -0.629547 0
M  V30 2893 N 277.883 0.443576 1.51229 0
M  V30 2894 C 279.132 -0.122332 2.01329 0
M  V30 2895 C 279.445 -1.43237 1.33201 0
M  V30 2896 O 280.651 -2.0816 1.74304 0
M  V30 2897 C 279.107 -0.268551 3.58897 0
M  V30 2898 C 278.715 1.03142 4.35965 0
M  V30 2899 C 280.459 -0.787894 4.17124 0
M  V30 2900 C 278.366 0.850504 5.85252 0
M  V30 2901 H 277.296 -0.0494929 0.752374 0
M  V30 2902 H 279.947 0.574289 1.74282 0
M  V30 2903 H 278.329 -1.02832 3.82415 0
M  V30 2904 H 279.503 1.80001 4.24189 0
M  V30 2905 H 277.818 1.47977 3.89219 0
M  V30 2906 H 280.415 -0.939841 5.26375 0
M  V30 2907 H 280.758 -1.77201 3.76703 0
M  V30 2908 H 281.291 -0.0862669 3.97706 0
M  V30 2909 H 278.03 1.80718 6.30096 0
M  V30 2910 H 277.55 0.121825 5.99676 0
M  V30 2911 H 279.229 0.506163 6.45017 0
M  V30 2912 N 279.361 -1.56624 0.175154 0
M  V30 2913 C 280.293 -2.15333 -0.785128 0
M  V30 2914 C 281.306 -1.1099 -1.19101 0
M  V30 2915 O 282.495 -1.38162 -1.13019 0
M  V30 2916 C 279.595 -2.68427 -2.06882 0
M  V30 2917 C 278.768 -3.97466 -1.8259 0
M  V30 2918 C 277.827 -4.35585 -2.95215 0
M  V30 2919 O 276.853 -5.03389 -2.65684 0
M  V30 2920 N 278.055 -3.97457 -4.23094 0
M  V30 2921 H 280.82 -2.98359 -0.283187 0
M  V30 2922 H 278.381 -1.61898 -0.00749817 0
M  V30 2923 H 280.373 -2.90924 -2.81328 0
M  V30 2924 H 278.943 -1.89968 -2.48256 0
M  V30 2925 H 278.163 -3.83307 -0.920287 0
M  V30 2926 H 279.451 -4.81736 -1.63733 0
M  V30 2927 H 278.849 -3.42878 -4.49945 0
M  V30 2928 H 277.406 -4.24947 -4.9423 0
M  V30 2929 N 280.839 0.0985539 -1.57292 0
M  V30 2930 C 281.802 1.10402 -2.00858 0
M  V30 2931 C 282.802 1.33146 -0.901593 0
M  V30 2932 O 283.992 1.29318 -1.16716 0
M  V30 2933 C 281.124 2.45394 -2.36632 0
M  V30 2934 H 282.317 0.729099 -2.90902 0
M  V30 2935 H 279.87 0.343495 -1.52479 0
M  V30 2936 H 280.605 2.87769 -1.49531 0
M  V30 2937 H 280.39 2.30235 -3.17387 0
M  V30 2938 H 281.88 3.17718 -2.71007 0
M  V30 2939 N 282.317 1.53212 0.369288 0
M  V30 2940 C 283.545 1.73119 1.13303 0
M  V30 2941 C 283.96 0.458455 1.83149 0
M  V30 2942 O 283.317 -0.568403 1.73423 0
M  V30 2943 C 283.368 2.89413 2.16616 0
M  V30 2944 O 283.089 4.11761 1.49614 0
M  V30 2945 C 284.59 3.21161 3.05566 0
M  V30 2946 H 281.81 0.579107 0.338934 0
M  V30 2947 H 284.354 1.99942 0.429338 0
M  V30 2948 H 282.509 2.64994 2.82589 0
M  V30 2949 H 282.923 4.76858 2.18419 0
M  V30 2950 H 284.397 4.05949 3.74045 0
M  V30 2951 H 284.874 2.36369 3.70171 0
M  V30 2952 H 285.48 3.47492 2.45213 0
M  V30 2953 N 283.795 -0.628877 1.44509 0
M  V30 2954 C 284.728 -1.75367 1.46019 0
M  V30 2955 C 285.706 -1.59444 0.318787 0
M  V30 2956 O 286.89 -1.81297 0.516099 0
M  V30 2957 C 284.017 -3.12965 1.29501 0
M  V30 2958 C 283.063 -3.47532 2.47233 0
M  V30 2959 S 283.896 -3.44758 4.09758 0
M  V30 2960 C 285.052 -4.84973 3.95667 0
M  V30 2961 H 285.285 -1.7382 2.41193 0
M  V30 2962 H 282.818 -0.803686 1.31834 0
M  V30 2963 H 284.776 -3.92367 1.20658 0
M  V30 2964 H 283.437 -3.12049 0.358341 0
M  V30 2965 H 282.63 -4.47664 2.31544 0
M  V30 2966 H 282.232 -2.75598 2.52828 0
M  V30 2967 H 284.524 -5.74255 3.59496 0
M  V30 2968 H 285.467 -5.05716 4.95638 0
M  V30 2969 H 285.875 -4.59653 3.27688 0
M  V30 2970 N 285.273 -1.31445 -0.869486 0
M  V30 2971 C 286.183 -1.21097 -2.0093 0
M  V30 2972 C 287.199 -0.127584 -1.73532 0
M  V30 2973 O 288.375 -0.345477 -1.98415 0
M  V30 2974 C 285.44 -0.919378 -3.34288 0
M  V30 2975 C 284.501 -2.08971 -3.75006 0
M  V30 2976 C 283.734 -1.81194 -5.02001 0
M  V30 2977 O 283.957 -0.747296 -5.65484 0
M  V30 2978 O 282.891 -2.66883 -5.39497 0
M  V30 2979 H 286.717 -2.16883 -2.12592 0
M  V30 2980 H 284.302 -1.11189 -0.997868 0
M  V30 2981 H 286.184 -0.772625 -4.14257 0
M  V30 2982 H 284.859 0.00844772 -3.23699 0
M  V30 2983 H 283.766 -2.29187 -2.95676 0
M  V30 2984 H 285.099 -2.9998 -3.90221 0
M  V30 2985 N 286.751 1.08385 -1.14413 0
M  V30 2986 C 287.661 2.18856 -0.844951 0
M  V30 2987 C 288.677 1.73121 0.174668 0
M  V30 2988 O 289.853 2.014 0.00312857 0
M  V30 2989 C 286.918 3.45155 -0.32696 0
M  V30 2990 C 285.979 4.05513 -1.40916 0
M  V30 2991 C 285.212 5.25784 -0.915793 0
M  V30 2992 O 285.435 5.69884 0.242651 0
M  V30 2993 O 284.369 5.77545 -1.69487 0
M  V30 2994 H 288.195 2.46919 -1.76818 0
M  V30 2995 H 285.78 1.17524 -0.922411 0
M  V30 2996 H 287.662 4.21377 -0.0440211 0
M  V30 2997 H 286.337 3.18668 0.568539 0
M  V30 2998 H 285.244 3.30879 -1.74556 0
M  V30 2999 H 286.577 4.3625 -2.27919 0
M  V30 3000 N 288.23 0.939286 1.26551 0
M  V30 3001 C 289.178 0.43815 2.28436 0
M  V30 3002 C 290.172 -0.483587 1.62351 0
M  V30 3003 O 291.378 -0.362009 1.76322 0
M  V30 3004 H 287.753 0.123149 0.741848 0
M  V30 3005 H 289.724 1.31002 2.68106 0
M  V30 3006 C 288.473 -0.283052 3.46546 0
M  V30 3007 H 287.796 0.417043 3.97619 0
M  V30 3008 H 289.236 -0.597948 4.19763 0
M  V30 3009 C 287.695 -1.50018 3.01656 0
M  V30 3010 O 288.225 -2.59855 3.0633 0
M  V30 3011 N 286.431 -1.35608 2.57019 0
M  V30 3012 H 285.978 -0.46244 2.53415 0
M  V30 3013 H 285.936 -2.17165 2.27347 0
M  V30 3014 N 289.708 -1.40897 0.706093 0
M  V30 3015 C 290.936 -2.05373 0.250887 0
M  V30 3016 C 291.351 -1.53172 -1.10381 0
M  V30 3017 O 290.708 -0.684305 -1.69185 0
M  V30 3018 C 290.759 -3.6088 0.211571 0
M  V30 3019 O 290.48 -4.11153 1.51276 0
M  V30 3020 C 291.981 -4.42517 -0.263346 0
M  V30 3021 H 289.201 -0.66115 0.114552 0
M  V30 3022 H 291.745 -1.80479 0.961635 0
M  V30 3023 H 289.9 -3.84777 -0.450073 0
M  V30 3024 H 290.314 -5.05279 1.40689 0
M  V30 3025 H 291.788 -5.51479 -0.239718 0
M  V30 3026 H 292.265 -4.19396 -1.30397 0
M  V30 3027 H 292.871 -4.23708 0.367677 0
M  V30 3028 N 291.186 -0.45159 -1.50991 0
M  V30 3029 C 292.416 0.108177 -2.06317 0
M  V30 3030 C 292.824 1.35774 -1.31765 0
M  V30 3031 O 292.167 1.79838 -0.374694 0
M  V30 3032 C 292.229 0.481659 -3.56259 0
M  V30 3033 C 291.893 -0.663114 -4.52163 0
M  V30 3034 C 292.89 -1.53947 -4.96585 0
M  V30 3035 C 290.575 -0.8479 -4.95092 0
M  V30 3036 C 292.569 -2.58518 -5.82621 0
M  V30 3037 C 290.256 -1.89686 -5.80915 0
M  V30 3038 C 291.254 -2.76388 -6.24579 0
M  V30 3039 O 290.942 -3.79482 -7.08695 0
M  V30 3040 H 290.674 0.00499183 -0.675982 0
M  V30 3041 H 293.228 -0.633659 -1.95381 0
M  V30 3042 H 291.458 1.27641 -3.65027 0
M  V30 3043 H 293.147 0.974233 -3.94035 0
M  V30 3044 H 293.913 -1.4083 -4.64103 0
M  V30 3045 H 289.792 -0.18258 -4.60638 0
M  V30 3046 H 293.336 -3.26224 -6.16623 0
M  V30 3047 H 289.233 -2.02817 -6.12809 0
M  V30 3048 H 290.001 -3.76234 -7.26905 0
M  V30 3049 N 292.664 1.56529 -0.183458 0
M  V30 3050 C 294.075 1.83739 0.331177 0
M  V30 3051 C 294.426 1.10373 1.62211 0
M  V30 3052 O 293.551 0.36071 2.13373 0
M  V30 3053 C 294.146 3.33306 0.607646 0
M  V30 3054 C 292.705 3.60969 1.06668 0
M  V30 3055 C 291.852 2.77086 0.109029 0
M  V30 3056 H 294.803 1.53379 -0.407484 0
M  V30 3057 H 294.824 3.51444 1.45832 0
M  V30 3058 H 294.336 3.86677 -0.332086 0
M  V30 3059 H 292.437 3.13021 2.0211 0
M  V30 3060 H 292.55 4.69231 0.967447 0
M  V30 3061 H 290.914 2.47319 0.608714 0
M  V30 3062 H 291.697 3.33241 -0.82494 0
M  V30 3063 N 294.142 -0.090211 1.57342 0
M  V30 3064 C 295.367 -0.810082 1.90925 0
M  V30 3065 C 295.792 -1.71248 0.778187 0
M  V30 3066 O 295.15 -1.79278 -0.269991 0
M  V30 3067 C 295.198 -1.59529 3.23393 0
M  V30 3068 O 294.302 -2.70461 3.11327 0
M  V30 3069 H 293.643 -0.222231 0.625707 0
M  V30 3070 H 296.173 -0.0639716 2.045 0
M  V30 3071 H 296.183 -1.97847 3.5682 0
M  V30 3072 H 294.858 -0.933055 4.05299 0
M  V30 3073 H 293.435 -2.35135 2.89423 0
M  V30 3074 N 295.62 -1.53406 -0.361157 0
M  V30 3075 C 296.867 -1.69802 -1.10333 0
M  V30 3076 C 297.195 -0.452087 -1.89173 0
M  V30 3077 O 296.45 0.566017 -1.87336 0
M  V30 3078 C 296.749 -2.90211 -2.08596 0
M  V30 3079 C 296.415 -4.26539 -1.46203 0
M  V30 3080 C 295.077 -4.6361 -1.28915 0
M  V30 3081 C 297.429 -5.113 -1.01101 0
M  V30 3082 C 294.757 -5.83075 -0.651157 0
M  V30 3083 C 297.109 -6.31415 -0.387007 0
M  V30 3084 C 295.773 -6.67195 -0.201657 0
M  V30 3085 H 295.043 -0.621351 -0.403737 0
M  V30 3086 H 297.69 -1.87598 -0.384609 0
M  V30 3087 H 295.995 -2.66946 -2.86788 0
M  V30 3088 H 297.692 -3.00091 -2.65982 0
M  V30 3089 H 294.282 -3.97352 -1.60653 0
M  V30 3090 H 298.466 -4.83206 -1.13249 0
M  V30 3091 H 293.722 -6.09385 -0.496006 0
M  V30 3092 H 297.896 -6.96394 -0.0293563 0
M  V30 3093 H 295.523 -7.59628 0.294766 0
M  V30 3094 N 297.098 0.621204 -1.44841 0
M  V30 3095 C 298.028 1.74366 -1.55303 0
M  V30 3096 C 299.009 1.65199 -0.405385 0
M  V30 3097 O 300.194 1.83807 -0.626787 0
M  V30 3098 C 297.324 3.12931 -1.50637 0
M  V30 3099 C 296.278 3.36896 -2.63979 0
M  V30 3100 C 295.604 4.75594 -2.44366 0
M  V30 3101 C 296.904 3.28483 -4.06074 0
M  V30 3102 H 298.598 1.65867 -2.49256 0
M  V30 3103 H 296.144 0.796558 -1.19962 0
M  V30 3104 H 298.097 3.9124 -1.56555 0
M  V30 3105 H 296.821 3.22237 -0.532057 0
M  V30 3106 H 295.48 2.60972 -2.57467 0
M  V30 3107 H 295.128 4.81616 -1.45105 0
M  V30 3108 H 294.828 4.92586 -3.20364 0
M  V30 3109 H 296.352 5.5612 -2.52117 0
M  V30 3110 H 297.766 3.96684 -4.13902 0
M  V30 3111 H 296.163 3.57008 -4.82354 0
M  V30 3112 H 297.233 2.26133 -4.28943 0
M  V30 3113 N 298.576 1.31904 0.862503 0
M  V30 3114 C 299.523 1.20182 1.9704 0
M  V30 3115 C 300.493 0.0858247 1.65878 0
M  V30 3116 O 301.678 0.26 1.8902 0
M  V30 3117 C 298.818 0.922797 3.32533 0
M  V30 3118 C 297.931 2.12284 3.76244 0
M  V30 3119 C 297.066 1.77996 5.00491 0
M  V30 3120 C 296.105 2.94366 5.36671 0
M  V30 3121 N 295.242 2.60223 6.52095 0
M  V30 3122 H 300.082 2.14951 2.06398 0
M  V30 3123 H 297.619 1.06917 1.01031 0
M  V30 3124 H 299.577 0.741548 4.10557 0
M  V30 3125 H 298.207 0.0119227 3.22798 0
M  V30 3126 H 297.259 2.41461 2.9394 0
M  V30 3127 H 298.571 2.99357 3.98982 0
M  V30 3128 H 297.725 1.56377 5.862 0
M  V30 3129 H 296.464 0.881252 4.79672 0
M  V30 3130 H 295.469 3.16625 4.49476 0
M  V30 3131 H 296.694 3.84957 5.59451 0
M  V30 3132 H 294.64 1.72884 6.32809 0
M  V30 3133 H 294.557 3.40827 6.74814 0
M  V30 3134 H 295.825 2.42016 7.40978 0
M  V30 3135 N 300.054 -1.07777 1.14986 0
M  V30 3136 C 301.279 -1.84558 0.946213 0
M  V30 3137 C 301.704 -1.81323 -0.500362 0
M  V30 3138 O 301.062 -1.20301 -1.35637 0
M  V30 3139 C 301.11 -3.29736 1.45968 0
M  V30 3140 O 300.214 -4.07149 0.65601 0
M  V30 3141 H 299.555 -0.571641 0.33782 0
M  V30 3142 H 302.085 -1.35991 1.52865 0
M  V30 3143 H 302.095 -3.80574 1.47063 0
M  V30 3144 H 300.77 -3.31406 2.51283 0
M  V30 3145 H 299.347 -3.65994 0.714322 0
M  V30 3146 N 301.532 -0.945985 -1.26051 0
M  V30 3147 C 302.809 -0.513816 -1.88731 0
M  V30 3148 C 303.189 1.00872 -1.8544 0
M  V30 3149 O 302.537 1.8708 -1.312 0
M  V30 3150 C 302.747 -1.08062 -3.31849 0
M  V30 3151 C 304.095 -1.1522 -4.08668 0
M  V30 3152 O 305.119 -1.03155 -3.40936 0
M  V30 3153 O 303.978 -1.34044 -5.29806 0
M  V30 3154 H 301.072 -0.168193 -0.809716 0
M  V30 3155 H 303.618 -1.03886 -1.34186 0
M  V30 3156 H 302.39 -2.1241 -3.2863 0
M  V30 3157 H 302.013 -0.538307 -3.93939 0
M  V30 3158 N 303.011 1.40521 -0.713556 0
M  V30 3159 C 304.26 2.00155 -0.249192 0
M  V30 3160 C 304.573 1.57224 1.16362 0
M  V30 3161 O 305.779 2.09542 1.72639 0
M  V30 3162 C 304.235 3.5773 -0.3946 0
M  V30 3163 C 303.843 4.09635 -1.81392 0
M  V30 3164 C 305.587 4.24499 0.00907364 0
M  V30 3165 C 303.494 5.59707 -1.91003 0
M  V30 3166 H 302.424 0.74868 -0.0894114 0
M  V30 3167 H 305.075 1.60784 -0.884352 0
M  V30 3168 H 303.457 3.94792 0.30911 0
M  V30 3169 H 304.631 3.83955 -2.54785 0
M  V30 3170 H 302.946 3.55456 -2.16888 0
M  V30 3171 H 305.543 5.34683 -0.0420404 0
M  V30 3172 H 305.886 4.02824 1.05065 0
M  V30 3173 H 306.419 3.92536 -0.645007 0
M  V30 3174 H 303.158 5.86234 -2.93275 0
M  V30 3175 H 302.678 5.87258 -1.22019 0
M  V30 3176 H 304.357 6.24776 -1.6812 0
M  V30 3177 N 304.489 0.459591 1.5075 0
M  V30 3178 C 305.719 -0.0972338 2.06371 0
M  V30 3179 C 306.127 -1.35074 1.32483 0
M  V30 3180 O 305.47 -1.79637 0.384226 0
M  V30 3181 C 305.532 -0.462759 3.56509 0
M  V30 3182 C 305.196 0.687084 4.51805 0
M  V30 3183 C 306.193 1.56578 4.95761 0
M  V30 3184 C 303.878 0.874144 4.94635 0
M  V30 3185 C 305.872 2.61604 5.81242 0
M  V30 3186 C 303.559 1.92765 5.79901 0
M  V30 3187 C 304.557 2.79697 6.23104 0
M  V30 3188 O 304.245 3.83235 7.06673 0
M  V30 3189 H 303.977 -0.00140687 0.675999 0
M  V30 3190 H 306.531 0.644011 1.95043 0
M  V30 3191 H 304.761 -1.25703 3.65699 0
M  V30 3192 H 306.45 -0.953323 3.94546 0
M  V30 3193 H 307.216 1.4329 4.6335 0
M  V30 3194 H 303.095 0.207006 4.60535 0
M  V30 3195 H 306.639 3.29489 6.14884 0
M  V30 3196 H 302.536 2.06064 6.11725 0
M  V30 3197 H 303.304 3.80084 7.24899 0
M  V30 3198 N 305.967 -1.56429 0.191757 0
M  V30 3199 C 306.897 -2.21937 -0.725696 0
M  V30 3200 C 307.878 -1.1814 -1.2238 0
M  V30 3201 O 309.063 -1.46636 -1.27325 0
M  V30 3202 C 306.193 -2.87611 -1.94672 0
M  V30 3203 C 305.147 -3.97623 -1.58366 0
M  V30 3204 C 304.473 -4.50446 -2.88102 0
M  V30 3205 C 305.773 -5.16197 -0.796133 0
M  V30 3206 H 307.467 -2.98861 -0.179606 0
M  V30 3207 H 305.013 -1.43749 -0.0849464 0
M  V30 3208 H 306.966 -3.3212 -2.59373 0
M  V30 3209 H 305.69 -2.08087 -2.51728 0
M  V30 3210 H 304.349 -3.53801 -0.960247 0
M  V30 3211 H 303.997 -3.67688 -3.43241 0
M  V30 3212 H 303.697 -5.24675 -2.64556 0
M  V30 3213 H 305.221 -4.97654 -3.53798 0
M  V30 3214 H 306.635 -5.57271 -1.34618 0
M  V30 3215 H 305.032 -5.96471 -0.658928 0
M  V30 3216 H 306.102 -4.84473 0.203478 0
M  V30 3217 N 307.445 0.0818655 -1.57387 0
M  V30 3218 C 308.355 1.11642 -2.06333 0
M  V30 3219 C 309.371 1.43033 -0.99083 0
M  V30 3220 O 310.547 1.53411 -1.30488 0
M  V30 3221 C 307.612 2.41342 -2.48907 0
M  V30 3222 C 306.673 2.17014 -3.7041 0
M  V30 3223 C 305.906 3.4053 -4.10944 0
M  V30 3224 O 306.129 4.4927 -3.51444 0
M  V30 3225 O 305.063 3.29336 -5.03807 0
M  V30 3226 H 308.889 0.730657 -2.9478 0
M  V30 3227 H 306.474 0.295301 -1.46452 0
M  V30 3228 H 308.356 3.17691 -2.76858 0
M  V30 3229 H 307.031 2.79319 -1.63593 0
M  V30 3230 H 305.938 1.38403 -3.47556 0
M  V30 3231 H 307.271 1.83923 -4.56545 0
M  V30 3232 N 308.923 1.53595 0.353017 0
M  V30 3233 C 310.153 1.74058 1.11299 0
M  V30 3234 C 310.561 0.475205 1.83135 0
M  V30 3235 O 309.904 -0.562344 1.74881 0
M  V30 3236 C 309.966 2.85994 2.17825 0
M  V30 3237 C 309.63 4.25923 1.65647 0
M  V30 3238 C 310.627 5.07829 1.11383 0
M  V30 3239 C 308.312 4.72377 1.7078 0
M  V30 3240 C 310.306 6.34285 0.629439 0
M  V30 3241 C 307.993 5.98808 1.21953 0
M  V30 3242 C 308.991 6.79594 0.681265 0
M  V30 3243 O 308.679 8.03651 0.200248 0
M  V30 3244 H 308.411 0.585327 0.338183 0
M  V30 3245 H 310.965 2.01186 0.413927 0
M  V30 3246 H 309.195 2.54368 2.91262 0
M  V30 3247 H 310.884 2.94515 2.79313 0
M  V30 3248 H 311.65 4.73107 1.06746 0
M  V30 3249 H 307.529 4.0956 2.11617 0
M  V30 3250 H 311.073 6.97288 0.208636 0
M  V30 3251 H 306.97 6.33026 1.26287 0
M  V30 3252 H 307.738 8.1788 0.318416 0
M  V30 3253 N 310.401 -0.613514 1.45168 0
M  V30 3254 C 311.629 -1.39946 1.5239 0
M  V30 3255 C 312.044 -1.88167 0.154531 0
M  V30 3256 O 311.401 -1.61872 -0.842843 0
M  V30 3257 C 311.452 -2.60795 2.50337 0
M  V30 3258 O 311.173 -2.1458 3.81952 0
M  V30 3259 C 312.674 -3.53723 2.67198 0
M  V30 3260 H 309.894 -0.428593 0.516284 0
M  V30 3261 H 312.438 -0.748753 1.903 0
M  V30 3262 H 310.593 -3.21919 2.15515 0
M  V30 3263 H 311.007 -2.93055 4.34993 0
M  V30 3264 H 312.481 -4.35079 3.39721 0
M  V30 3265 H 312.958 -4.0368 1.73029 0
M  V30 3266 H 313.564 -2.98456 3.02992 0
M  V30 3267 N 311.879 -1.3236 -0.855495 0
M  V30 3268 C 313.295 -1.11332 -1.14356 0
M  V30 3269 C 313.495 0.106751 -2.01217 0
M  V30 3270 O 312.551 0.791891 -2.39761 0
M  V30 3271 C 313.864 -2.39237 -1.82171 0
M  V30 3272 C 315.412 -2.44986 -1.9481 0
M  V30 3273 C 315.887 -3.7281 -2.66039 0
M  V30 3274 N 317.378 -3.73787 -2.73565 0
M  V30 3275 C 318.113 -4.69394 -3.29327 0
M  V30 3276 N 317.609 -5.75367 -3.85907 0
M  V30 3277 N 319.402 -4.56893 -3.27423 0
M  V30 3278 H 311.553 -2.10586 -0.277027 0
M  V30 3279 H 313.816 -0.929701 -0.185364 0
M  V30 3280 H 313.522 -3.28431 -1.25802 0
M  V30 3281 H 313.396 -2.50134 -2.82335 0
M  V30 3282 H 315.783 -1.56252 -2.50338 0
M  V30 3283 H 315.864 -2.38043 -0.936448 0
M  V30 3284 H 315.508 -4.61918 -2.11174 0
M  V30 3285 H 315.438 -3.77024 -3.67642 0
M  V30 3286 H 317.929 -2.97189 -2.33424 0
M  V30 3287 H 318.242 -6.44378 -4.26611 0
M  V30 3288 H 316.587 -5.79123 -3.84242 0
M  V30 3289 H 319.778 -3.73269 -2.82467 0
M  V30 3290 H 319.951 -5.31577 -3.7058 0
M  V30 3291 N 313.357 1.07166 -1.15556 0
M  V30 3292 C 314.585 1.83514 -0.955519 0
M  V30 3293 C 315 1.82163 0.49621 0
M  V30 3294 O 314.357 1.23441 1.34419 0
M  V30 3295 C 314.408 3.30515 -1.46432 0
M  V30 3296 O 314.129 3.31937 -2.85918 0
M  V30 3297 C 315.63 4.23625 -1.30603 0
M  V30 3298 H 312.85 0.578926 -0.339244 0
M  V30 3299 H 315.394 1.35265 -1.53374 0
M  V30 3300 H 313.549 3.76106 -0.928584 0
M  V30 3301 H 313.963 4.23794 -3.09029 0
M  V30 3302 H 315.437 5.24831 -1.71047 0
M  V30 3303 H 315.914 4.38485 -0.250441 0
M  V30 3304 H 316.52 3.83871 -1.83094 0
M  V30 3305 N 314.835 0.952656 1.25548 0
M  V30 3306 C 316.083 0.605176 1.92826 0
M  V30 3307 C 316.404 -0.860261 1.74999 0
M  V30 3308 O 315.674 -1.6125 1.11244 0
M  V30 3309 H 314.254 0.220832 0.713612 0
M  V30 3310 H 316.916 1.21047 1.52754 0
M  V30 3311 H 316.012 0.832798 3.00784 0
M  V30 3312 N 316.313 -1.40141 0.720998 0
M  V30 3313 C 317.538 -2.05618 0.271258 0
M  V30 3314 C 317.963 -1.53978 -1.08039 0
M  V30 3315 O 317.321 -0.677463 -1.68167 0
M  V30 3316 C 317.369 -3.59609 0.267197 0
M  V30 3317 O 316.473 -4.05526 -0.749814 0
M  V30 3318 H 315.814 -0.651904 0.126162 0
M  V30 3319 H 318.344 -1.79439 0.982997 0
M  V30 3320 H 318.354 -4.0786 0.106744 0
M  V30 3321 H 317.029 -3.96559 1.25354 0
M  V30 3322 H 315.606 -3.68722 -0.556644 0
M  V30 3323 N 317.792 -0.46758 -1.50504 0
M  V30 3324 C 318.702 0.33382 -2.32213 0
M  V30 3325 C 319.718 0.999323 -1.42441 0
M  V30 3326 O 320.894 0.988068 -1.75497 0
M  V30 3327 C 317.959 1.4035 -3.17022 0
M  V30 3328 C 317.02 0.754961 -4.2261 0
M  V30 3329 C 316.253 1.77367 -5.03365 0
M  V30 3330 O 316.476 2.99976 -4.8515 0
M  V30 3331 O 315.41 1.34744 -5.86624 0
M  V30 3332 H 319.236 -0.334067 -3.01857 0
M  V30 3333 H 316.821 -0.229496 -1.47627 0
M  V30 3334 H 318.703 2.02318 -3.69656 0
M  V30 3335 H 317.378 2.05492 -2.5011 0
M  V30 3336 H 316.285 0.0964244 -3.73976 0
M  V30 3337 H 317.618 0.146545 -4.91982 0
M  V30 3338 N 319.27 1.56325 -0.20005 0
M  V30 3339 C 320.495 2.02548 0.44597 0
M  V30 3340 C 320.92 1.07922 1.5406 0
M  V30 3341 O 320.278 0.0635775 1.81188 0
M  V30 3342 C 320.326 3.47175 0.974761 0
M  V30 3343 O 319.43 3.55671 2.08739 0
M  V30 3344 H 318.771 0.655862 0.103638 0
M  V30 3345 H 321.301 2.02201 -0.312381 0
M  V30 3346 H 321.311 3.87067 1.2901 0
M  V30 3347 H 319.986 4.15538 0.17347 0
M  V30 3348 H 318.563 3.27657 1.78032 0
M  V30 3349 N 320.748 -0.0735177 1.57428 0
M  V30 3350 C 322.159 -0.625551 1.75908 0
M  V30 3351 C 322.51 -1.78 0.825261 0
M  V30 3352 O 321.635 -2.16398 0.00893964 0
M  V30 3353 C 322.23 -1.14155 3.18989 0
M  V30 3354 C 320.789 -1.63946 3.38819 0
M  V30 3355 C 319.936 -0.558151 2.71625 0
M  V30 3356 H 322.887 0.152647 1.57964 0
M  V30 3357 H 322.908 -2.0104 3.23053 0
M  V30 3358 H 322.42 -0.301116 3.8693 0
M  V30 3359 H 320.521 -2.50321 2.7599 0
M  V30 3360 H 320.634 -1.71759 4.47253 0
M  V30 3361 H 318.998 -1.00278 2.34129 0
M  V30 3362 H 319.781 0.272071 3.4222 0
M  V30 3363 N 322.226 -1.5378 -0.344866 0
M  V30 3364 C 323.173 -1.81676 -1.42346 0
M  V30 3365 C 324.143 -0.662376 -1.52321 0
M  V30 3366 O 325.328 -0.906675 -1.67881 0
M  V30 3367 C 322.468 -2.03087 -2.79015 0
M  V30 3368 C 321.581 -3.30799 -2.77842 0
M  V30 3369 C 320.716 -3.42285 -4.0622 0
M  V30 3370 C 319.755 -4.6395 -3.9927 0
M  V30 3371 N 318.892 -4.72477 -5.19336 0
M  V30 3372 H 323.732 -2.73703 -1.17858 0
M  V30 3373 H 321.269 -1.35568 -0.570949 0
M  V30 3374 H 323.227 -2.1349 -3.58438 0
M  V30 3375 H 321.857 -1.14375 -3.01858 0
M  V30 3376 H 320.909 -3.29244 -1.90533 0
M  V30 3377 H 322.221 -4.20314 -2.68584 0
M  V30 3378 H 321.375 -3.52113 -4.94066 0
M  V30 3379 H 320.114 -2.50823 -4.18258 0
M  V30 3380 H 319.119 -4.54201 -3.09809 0
M  V30 3381 H 320.344 -5.56775 -3.88817 0
M  V30 3382 H 318.29 -3.83924 -5.3192 0
M  V30 3383 H 318.207 -5.55927 -5.12329 0
M  V30 3384 H 319.475 -4.86613 -6.08957 0
M  V30 3385 N 323.704 0.605807 -1.45491 0
M  V30 3386 C 324.95 1.36679 -1.49823 0
M  V30 3387 C 325.283 1.93693 -0.140175 0
M  V30 3388 O 324.558 1.75158 0.845581 0
M  V30 3389 C 324.841 2.51337 -2.57879 0
M  V30 3390 C 324.694 1.99508 -4.03134 0
M  V30 3391 C 326.013 3.53463 -2.62205 0
M  V30 3392 H 323.132 0.495617 -0.545466 0
M  V30 3393 H 325.774 0.682732 -1.7731 0
M  V30 3394 H 323.924 3.09691 -2.34571 0
M  V30 3395 H 325.596 1.45789 -4.37656 0
M  V30 3396 H 323.839 1.30496 -4.13707 0
M  V30 3397 H 324.51 2.82169 -4.74431 0
M  V30 3398 H 326.986 3.04953 -2.83095 0
M  V30 3399 H 325.862 4.31178 -3.39672 0
M  V30 3400 H 326.123 4.09197 -1.67363 0
M  V30 3401 N 325.182 1.32811 0.848464 0
M  V30 3402 C 326.422 1.25046 1.61687 0
M  V30 3403 C 326.786 -0.183464 1.91121 0
M  V30 3404 O 327.987 -0.384937 2.66029 0
M  V30 3405 C 326.258 2.09201 2.89775 0
M  V30 3406 S 327.817 2.18526 3.80515 0
M  V30 3407 H 324.635 0.445023 0.554505 0
M  V30 3408 H 327.237 1.67733 1.00429 0
M  V30 3409 H 325.941 3.12433 2.66108 0
M  V30 3410 H 325.472 1.67315 3.56047 0
M  V30 3411 H 327.487 1.3393 4.77784 0
M  V30 3412 N 326.66 -1.06551 1.16123 0
M  V30 3413 C 327.885 -1.83544 0.965735 0
M  V30 3414 C 328.31 -1.81843 -0.481102 0
M  V30 3415 O 327.668 -1.21732 -1.34354 0
M  V30 3416 C 327.716 -3.28169 1.49457 0
M  V30 3417 O 326.82 -4.0643 0.699157 0
M  V30 3418 H 326.161 -0.568026 0.343864 0
M  V30 3419 H 328.691 -1.34362 1.54299 0
M  V30 3420 H 328.701 -3.78992 1.51092 0
M  V30 3421 H 327.376 -3.28722 2.54784 0
M  V30 3422 H 325.953 -3.65216 0.7531 0
M  V30 3423 N 328.138 -0.959301 -1.25041 0
M  V30 3424 C 329.415 -0.533805 -1.88175 0
M  V30 3425 C 329.795 0.988994 -1.865 0
M  V30 3426 O 329.143 1.85677 -1.33177 0
M  V30 3427 C 329.353 -1.11575 -3.30684 0
M  V30 3428 C 330.701 -1.19548 -4.07423 0
M  V30 3429 O 331.725 -1.06765 -3.39823 0
M  V30 3430 O 330.584 -1.39656 -5.28354 0
M  V30 3431 H 327.678 -0.176772 -0.807887 0
M  V30 3432 H 330.224 -1.05303 -1.33076 0
M  V30 3433 H 328.996 -2.15884 -3.26358 0
M  V30 3434 H 328.619 -0.580059 -3.93346 0
M  V30 3435 N 329.616 1.39756 -0.72842 0
M  V30 3436 C 330.548 2.29157 -0.0446202 0
M  V30 3437 C 331.561 1.46484 0.710367 0
M  V30 3438 O 332.75 1.69632 0.55562 0
M  V30 3439 C 329.85 3.24987 0.961071 0
M  V30 3440 C 329.023 4.36572 0.268967 0
M  V30 3441 C 328.082 5.12756 1.18184 0
M  V30 3442 O 327.108 5.6534 0.661794 0
M  V30 3443 N 328.31 5.23331 2.51206 0
M  V30 3444 H 331.075 2.88482 -0.812295 0
M  V30 3445 H 328.636 1.51265 -0.577098 0
M  V30 3446 H 330.628 3.72827 1.57423 0
M  V30 3447 H 329.198 2.66739 1.63 0
M  V30 3448 H 328.418 3.90694 -0.524574 0
M  V30 3449 H 329.706 5.08363 -0.210934 0
M  V30 3450 H 329.104 4.82116 2.9594 0
M  V30 3451 H 327.661 5.74634 3.07634 0
M  V30 3452 N 331.094 0.475555 1.50254 0
M  V30 3453 C 332.319 -0.0777042 2.07254 0
M  V30 3454 C 332.744 -1.3235 1.3366 0
M  V30 3455 O 332.102 -1.77152 0.385597 0
M  V30 3456 C 332.15 -0.340169 3.58992 0
M  V30 3457 O 331.254 -1.41982 3.87188 0
M  V30 3458 H 330.595 0.0149556 0.663832 0
M  V30 3459 H 333.125 0.667878 1.93392 0
M  V30 3460 H 333.135 -0.579332 4.03866 0
M  V30 3461 H 331.81 0.570167 4.11973 0
M  V30 3462 H 330.387 -1.16762 3.54148 0
M  V30 3463 N 332.573 -1.56217 0.208337 0
M  V30 3464 C 333.798 -2.02782 -0.435222 0
M  V30 3465 C 334.223 -1.08738 -1.53485 0
M  V30 3466 O 333.581 -0.0731855 -1.81152 0
M  V30 3467 C 333.629 -3.47687 -0.956335 0
M  V30 3468 O 332.733 -3.56773 -2.06849 0
M  V30 3469 H 332.074 -0.656403 -0.100158 0
M  V30 3470 H 334.604 -2.02033 0.3231 0
M  V30 3471 H 334.614 -3.87745 -1.26955 0
M  V30 3472 H 333.289 -4.15624 -0.15143 0
M  V30 3473 H 331.866 -3.28597 -1.76292 0
M  V30 3474 N 334.051 0.0651679 -1.57465 0
M  V30 3475 C 335.299 0.761555 -1.87202 0
M  V30 3476 C 335.62 1.77778 -0.801243 0
M  V30 3477 O 334.89 1.95166 0.16937 0
M  V30 3478 H 333.47 0.284251 -0.690804 0
M  V30 3479 H 336.132 0.0396827 -1.9486 0
M  V30 3480 H 335.228 1.27365 -2.84929 0
M  V30 3481 N 335.529 1.53961 0.336706 0
M  V30 3482 C 336.754 1.75797 1.10046 0
M  V30 3483 C 337.179 0.498985 1.81361 0
M  V30 3484 O 336.537 -0.548769 1.72795 0
M  V30 3485 C 336.585 2.94257 2.08436 0
M  V30 3486 O 335.689 2.64883 3.16087 0
M  V30 3487 H 335.03 0.582936 0.317934 0
M  V30 3488 H 337.56 2.00945 0.38501 0
M  V30 3489 H 337.57 3.21237 2.51537 0
M  V30 3490 H 336.245 3.85564 1.55927 0
M  V30 3491 H 334.822 2.48812 2.77753 0
M  V30 3492 N 337.007 -0.598083 1.45811 0
M  V30 3493 C 338.255 -1.35413 1.50026 0
M  V30 3494 C 338.576 -1.94444 0.147177 0
M  V30 3495 O 337.846 -1.77701 -0.824571 0
M  V30 3496 H 336.426 -0.502727 0.552517 0
M  V30 3497 H 339.088 -0.701606 1.81834 0
M  V30 3498 H 338.184 -2.16871 2.2444 0
M  V30 3499 N 338.485 -1.33259 -0.841409 0
M  V30 3500 C 339.713 -1.27605 -1.62864 0
M  V30 3501 C 340.128 0.153507 -1.88175 0
M  V30 3502 O 339.485 1.09485 -1.46011 0
M  V30 3503 C 339.536 -2.04596 -2.98031 0
M  V30 3504 O 339.257 -3.41975 -2.73834 0
M  V30 3505 C 340.758 -2.06122 -3.92465 0
M  V30 3506 H 337.978 -0.439718 -0.506842 0
M  V30 3507 H 340.522 -1.75591 -1.04824 0
M  V30 3508 H 338.677 -1.60299 -3.5268 0
M  V30 3509 H 339.091 -3.81549 -3.59889 0
M  V30 3510 H 340.565 -2.64451 -4.84531 0
M  V30 3511 H 341.042 -1.05083 -4.26444 0
M  V30 3512 H 341.648 -2.50427 -3.43753 0
M  V30 3513 N 339.963 1.05934 -1.16686 0
M  V30 3514 C 341.211 1.78447 -0.948744 0
M  V30 3515 C 341.532 1.87813 0.524523 0
M  V30 3516 O 340.802 1.38945 1.38098 0
M  V30 3517 H 339.382 0.660971 -0.348033 0
M  V30 3518 H 342.044 1.27947 -1.47022 0
M  V30 3519 H 341.14 2.80394 -1.37061 0
M  V30 3520 N 341.441 0.965919 1.2453 0
M  V30 3521 C 342.388 0.49402 2.25451 0
M  V30 3522 C 343.358 -0.45948 1.59618 0
M  V30 3523 O 344.543 -0.370238 1.87173 0
M  V30 3524 C 341.683 -0.211359 3.44452 0
M  V30 3525 C 340.796 0.7807 4.24887 0
M  V30 3526 C 339.931 0.0516105 5.31175 0
M  V30 3527 C 338.97 1.03385 6.03306 0
M  V30 3528 N 338.107 0.334887 7.01301 0
M  V30 3529 H 342.947 1.35946 2.65184 0
M  V30 3530 H 340.484 0.681515 1.3036 0
M  V30 3531 H 342.442 -0.637 4.12308 0
M  V30 3532 H 341.072 -1.04077 3.05562 0
M  V30 3533 H 340.124 1.32479 3.56586 0
M  V30 3534 H 341.436 1.52978 4.74762 0
M  V30 3535 H 340.59 -0.432114 6.05159 0
M  V30 3536 H 339.329 -0.730179 4.82203 0
M  V30 3537 H 338.334 1.52847 5.28127 0
M  V30 3538 H 339.559 1.81606 6.54367 0
M  V30 3539 H 337.505 -0.427959 6.54603 0
M  V30 3540 H 337.422 1.02287 7.49048 0
M  V30 3541 H 338.69 -0.126928 7.79397 0
M  V30 3542 N 342.919 -1.39368 0.735821 0
M  V30 3543 C 344.167 -2.00101 0.283562 0
M  V30 3544 C 344.488 -1.5868 -1.13338 0
M  V30 3545 O 343.758 -0.835423 -1.77193 0
M  V30 3546 H 342.338 -0.740024 0.101851 0
M  V30 3547 H 345 -1.70404 0.945962 0
M  V30 3548 H 344.096 -3.10323 0.332604 0
M  V30 3549 N 344.397 -0.483516 -1.5 0
M  V30 3550 C 345.646 0.0689102 -2.01582 0
M  V30 3551 C 345.959 1.39655 -1.36952 0
M  V30 3552 O 347.165 2.03465 -1.79762 0
M  V30 3553 C 345.621 0.173302 -3.59483 0
M  V30 3554 C 345.229 -1.14665 -4.33077 0
M  V30 3555 C 346.973 0.677024 -4.19066 0
M  V30 3556 C 344.88 -1.00537 -5.82792 0
M  V30 3557 H 343.81 0.0295277 -0.753422 0
M  V30 3558 H 346.461 -0.620295 -1.72698 0
M  V30 3559 H 344.843 0.926569 -3.85007 0
M  V30 3560 H 346.017 -1.91184 -4.19268 0
M  V30 3561 H 344.332 -1.58244 -3.85159 0
M  V30 3562 H 346.929 0.799952 -5.28682 0
M  V30 3563 H 347.272 1.67151 -3.81269 0
M  V30 3564 H 347.805 -0.0192083 -3.97795 0
M  V30 3565 H 344.544 -1.9736 -6.25083 0
M  V30 3566 H 344.064 -0.280776 -5.99142 0
M  V30 3567 H 345.743 -0.677 -6.43448 0
M  V30 3568 N 345.875 1.56104 -0.216619 0
M  V30 3569 C 347.1 2.0301 0.424462 0
M  V30 3570 C 347.525 1.0955 1.52907 0
M  V30 3571 O 346.883 0.0827914 1.81111 0
M  V30 3572 C 346.931 3.4819 0.937883 0
M  V30 3573 O 346.035 3.57865 2.04955 0
M  V30 3574 H 345.376 0.656925 0.0966755 0
M  V30 3575 H 347.906 2.01859 -0.33381 0
M  V30 3576 H 347.916 3.88413 1.24897 0
M  V30 3577 H 346.591 4.15699 0.129387 0
M  V30 3578 H 345.168 3.29527 1.74546 0
M  V30 3579 N 347.353 -0.0568162 1.57498 0
M  V30 3580 C 348.601 -0.751617 1.87604 0
M  V30 3581 C 348.922 -1.77351 0.81066 0
M  V30 3582 O 348.192 -1.95254 -0.159018 0
M  V30 3583 H 346.772 -0.280583 0.692302 0
M  V30 3584 H 349.434 -0.0293483 1.94878 0
M  V30 3585 H 348.53 -1.25852 2.856 0
M  V30 3586 N 348.832 -1.54138 -0.328536 0
M  V30 3587 C 350.062 -1.75807 -1.08516 0
M  V30 3588 C 350.47 -0.50428 -1.82356 0
M  V30 3589 O 349.813 0.534451 -1.75754 0
M  V30 3590 C 349.875 -2.89423 -2.13248 0
M  V30 3591 C 349.539 -4.28504 -1.5885 0
M  V30 3592 C 350.536 -5.09536 -1.03289 0
M  V30 3593 C 348.221 -4.75034 -1.63243 0
M  V30 3594 C 350.215 -6.35206 -0.52845 0
M  V30 3595 C 347.902 -6.00672 -1.12411 0
M  V30 3596 C 348.9 -6.80592 -0.573062 0
M  V30 3597 O 348.588 -8.03867 -0.0723692 0
M  V30 3598 H 348.32 -0.590633 -0.328829 0
M  V30 3599 H 350.874 -2.01819 -0.381868 0
M  V30 3600 H 349.104 -2.5897 -2.87178 0
M  V30 3601 H 350.793 -2.98921 -2.74592 0
M  V30 3602 H 351.559 -4.74745 -0.99206 0
M  V30 3603 H 347.438 -4.12875 -2.05074 0
M  V30 3604 H 350.982 -6.97532 -0.0976774 0
M  V30 3605 H 346.879 -6.34955 -1.162 0
M  V30 3606 H 347.647 -8.18283 -0.188258 0
M  V30 3607 N 350.31 0.590341 -1.46126 0
M  V30 3608 C 351.24 1.71032 -1.58966 0
M  V30 3609 C 352.221 1.64302 -0.440335 0
M  V30 3610 O 353.406 1.82436 -0.665634 0
M  V30 3611 C 350.536 3.09665 -1.57241 0
M  V30 3612 C 349.49 3.31221 -2.71066 0
M  V30 3613 C 348.816 4.70303 -2.54399 0
M  V30 3614 C 350.116 3.19796 -4.1295 0
M  V30 3615 H 351.81 1.60543 -2.52718 0
M  V30 3616 H 349.356 0.770933 -1.21625 0
M  V30 3617 H 351.309 3.87831 -1.64819 0
M  V30 3618 H 350.033 3.21036 -0.600289 0
M  V30 3619 H 348.692 2.55452 -2.62944 0
M  V30 3620 H 348.34 4.78429 -1.55288 0
M  V30 3621 H 348.04 4.85679 -3.30741 0
M  V30 3622 H 349.564 5.50647 -2.63857 0
M  V30 3623 H 350.978 3.87815 -4.22223 0
M  V30 3624 H 349.375 3.46696 -4.89818 0
M  V30 3625 H 350.445 2.16983 -4.33643 0
M  V30 3626 N 351.788 1.33704 0.83433 0
M  V30 3627 C 353.199 1.22813 1.4062 0
M  V30 3628 C 353.55 -0.151107 1.95617 0
M  V30 3629 O 352.675 -1.05092 1.89168 0
M  V30 3630 C 353.27 2.22355 2.55624 0
M  V30 3631 C 351.829 2.1529 3.08751 0
M  V30 3632 C 350.976 2.09589 1.8157 0
M  V30 3633 H 353.927 1.45236 0.639702 0
M  V30 3634 H 353.948 1.83391 3.33389 0
M  V30 3635 H 353.46 3.22728 2.15566 0
M  V30 3636 H 351.561 1.18235 3.53343 0
M  V30 3637 H 351.674 3.06038 3.68616 0
M  V30 3638 H 350.038 1.55134 2.02004 0
M  V30 3639 H 350.821 3.11777 1.43701 0
M  V30 3640 N 353.266 -1.05314 1.17247 0
M  V30 3641 C 354.494 -1.81971 0.984593 0
M  V30 3642 C 354.909 -1.82929 -0.467166 0
M  V30 3643 O 354.266 -1.25564 -1.32438 0
M  V30 3644 C 354.317 -3.28143 1.51672 0
M  V30 3645 O 354.038 -3.27347 2.91163 0
M  V30 3646 C 355.539 -4.21493 1.37326 0
M  V30 3647 H 352.759 -0.573455 0.348411 0
M  V30 3648 H 355.303 -1.32808 1.55506 0
M  V30 3649 H 353.458 -3.74582 0.988302 0
M  V30 3650 H 353.872 -4.18824 3.15732 0
M  V30 3651 H 355.346 -5.22043 1.79375 0
M  V30 3652 H 355.823 -4.38031 0.320169 0
M  V30 3653 H 356.429 -3.80909 1.89178 0
M  V30 3654 N 354.744 -0.972509 -1.24016 0
M  V30 3655 C 355.674 -0.525548 -2.27509 0
M  V30 3656 C 356.655 0.437262 -1.64384 0
M  V30 3657 O 357.84 0.332343 -1.91335 0
M  V30 3658 C 354.97 0.180448 -3.46831 0
M  V30 3659 C 353.924 -0.698859 -4.22256 0
M  V30 3660 C 353.25 0.138903 -5.3452 0
M  V30 3661 C 354.55 -1.98582 -4.83076 0
M  V30 3662 H 356.244 -1.39058 -2.65148 0
M  V30 3663 H 353.79 -0.67009 -1.27459 0
M  V30 3664 H 355.743 0.504387 -4.18371 0
M  V30 3665 H 354.467 1.07987 -3.08231 0
M  V30 3666 H 353.126 -1.00614 -3.52523 0
M  V30 3667 H 352.774 1.03862 -4.9216 0
M  V30 3668 H 352.474 -0.446259 -5.85903 0
M  V30 3669 H 353.998 0.457404 -6.08884 0
M  V30 3670 H 355.412 -1.72715 -5.46665 0
M  V30 3671 H 353.809 -2.5181 -5.44713 0
M  V30 3672 H 354.879 -2.67769 -4.04262 0
M  V30 3673 N 356.222 1.38976 -0.743202 0
M  V30 3674 C 357.17 2.32394 -0.0978389 0
M  V30 3675 C 358.164 1.53486 0.716824 0
M  V30 3676 O 359.37 1.69092 0.617088 0
M  V30 3677 H 355.745 0.75189 -0.0128402 0
M  V30 3678 H 357.716 2.84441 -0.901981 0
M  V30 3679 C 356.465 3.38629 0.789036 0
M  V30 3680 H 355.788 3.99432 0.171559 0
M  V30 3681 H 357.228 4.06426 1.20807 0
M  V30 3682 C 355.687 2.76347 1.92702 0
M  V30 3683 O 356.217 2.64836 3.02034 0
M  V30 3684 N 354.423 2.34311 1.71891 0
M  V30 3685 H 353.97 2.43873 0.829675 0
M  V30 3686 H 353.928 1.9298 2.48205 0
M  V30 3687 N 357.7 0.491464 1.49741 0
M  V30 3688 C 358.61 -0.296835 2.32715 0
M  V30 3689 C 359.626 -0.976536 1.44013 0
M  V30 3690 O 360.802 -0.960023 1.77047 0
M  V30 3691 C 357.867 -1.35288 3.19215 0
M  V30 3692 C 356.928 -0.687632 4.23757 0
M  V30 3693 C 356.161 -1.69336 5.06123 0
M  V30 3694 O 356.384 -2.92219 4.89861 0
M  V30 3695 O 355.318 -1.25394 5.88693 0
M  V30 3696 H 359.144 0.382048 3.01287 0
M  V30 3697 H 356.729 0.252953 1.47243 0
M  V30 3698 H 358.611 -1.96411 3.72828 0
M  V30 3699 H 357.286 -2.01487 2.53347 0
M  V30 3700 H 356.193 -0.0369159 3.74082 0
M  V30 3701 H 357.526 -0.0682566 4.92153 0
M  V30 3702 N 359.178 -1.55987 0.224894 0
M  V30 3703 C 360.455 -1.90232 -0.455083 0
M  V30 3704 C 360.835 -1.14269 -1.77499 0
M  V30 3705 O 360.183 -0.253079 -2.27094 0
M  V30 3706 C 360.393 -3.42993 -0.644758 0
M  V30 3707 C 361.741 -4.13821 -0.950669 0
M  V30 3708 O 362.765 -3.4861 -0.731423 0
M  V30 3709 O 361.624 -5.29128 -1.36695 0
M  V30 3710 H 358.718 -0.79108 -0.241084 0
M  V30 3711 H 361.264 -1.67581 0.267327 0
M  V30 3712 H 360.036 -3.90252 0.28613 0
M  V30 3713 H 359.659 -3.71434 -1.41853 0
M  V30 3714 N 360.656 0.0484629 -1.57525 0
M  V30 3715 C 361.566 1.07241 -2.08654 0
M  V30 3716 C 362.582 1.409 -1.02095 0
M  V30 3717 O 363.758 1.50609 -1.33712 0
M  V30 3718 C 360.823 2.36008 -2.5397 0
M  V30 3719 C 359.884 2.09108 -3.7493 0
M  V30 3720 C 359.117 3.31736 -4.18075 0
M  V30 3721 O 359.34 4.41714 -3.60895 0
M  V30 3722 O 358.274 3.18576 -5.10679 0
M  V30 3723 H 362.1 0.667965 -2.96263 0
M  V30 3724 H 359.685 0.26417 -1.47046 0
M  V30 3725 H 361.567 3.11747 -2.83535 0
M  V30 3726 H 360.242 2.75786 -1.69481 0
M  V30 3727 H 359.149 1.31 -3.50414 0
M  V30 3728 H 360.482 1.74198 -4.60343 0
M  V30 3729 N 362.134 1.5431 0.320358 0
M  V30 3730 C 363.044 1.86946 1.41734 0
M  V30 3731 C 364.06 0.761689 1.56443 0
M  V30 3732 O 365.236 1.05629 1.71477 0
M  V30 3733 C 362.301 2.09293 2.76401 0
M  V30 3734 C 361.362 3.33082 2.70841 0
M  V30 3735 C 360.595 3.54353 3.99086 0
M  V30 3736 O 360.818 2.79002 4.97508 0
M  V30 3737 O 359.752 4.47838 4.0215 0
M  V30 3738 H 363.578 2.80232 1.17062 0
M  V30 3739 H 361.163 1.40255 0.514673 0
M  V30 3740 H 363.045 2.25303 3.56113 0
M  V30 3741 H 361.72 1.19194 3.00956 0
M  V30 3742 H 360.627 3.22454 1.89668 0
M  V30 3743 H 361.96 4.23249 2.5124 0
M  V30 3744 N 363.613 -0.582584 1.46437 0
M  V30 3745 C 364.859 -1.34064 1.52965 0
M  V30 3746 C 365.214 -1.91566 0.178968 0
M  V30 3747 O 364.507 -1.73526 -0.812365 0
M  V30 3748 C 364.701 -2.48964 2.56421 0
M  V30 3749 C 364.53 -2.02717 4.01417 0
M  V30 3750 C 363.3 -1.87728 4.69134 0
M  V30 3751 C 365.498 -1.58675 4.8921 0
M  V30 3752 N 363.48 -1.35554 5.98747 0
M  V30 3753 C 364.851 -1.18093 6.08649 0
M  V30 3754 C 366.906 -1.46494 4.75861 0
M  V30 3755 C 365.609 -0.665427 7.16215 0
M  V30 3756 C 367.635 -0.96347 5.83499 0
M  V30 3757 C 366.997 -0.567432 7.02111 0
M  V30 3758 H 363.096 -0.483551 0.614575 0
M  V30 3759 H 365.68 -0.663309 1.83053 0
M  V30 3760 H 363.851 -3.1426 2.28244 0
M  V30 3761 H 365.583 -3.15913 2.52944 0
M  V30 3762 H 362.338 -2.09678 4.24655 0
M  V30 3763 H 362.762 -1.11628 6.67734 0
M  V30 3764 H 367.404 -1.75731 3.8455 0
M  V30 3765 H 365.122 -0.360639 8.07295 0
M  V30 3766 H 368.708 -0.873129 5.75211 0
M  V30 3767 H 367.588 -0.185389 7.83981 0
M  V30 3768 N 365.091 -1.34144 -0.827227 0
M  V30 3769 C 366.038 -1.25364 -1.93785 0
M  V30 3770 C 367.008 -0.129774 -1.65592 0
M  V30 3771 O 368.193 -0.310024 -1.88264 0
M  V30 3772 C 365.333 -1.01064 -3.2997 0
M  V30 3773 C 364.446 -2.22185 -3.70484 0
M  V30 3774 C 363.581 -1.91203 -4.95595 0
M  V30 3775 C 362.62 -3.08491 -5.28677 0
M  V30 3776 N 361.757 -2.77421 -6.44967 0
M  V30 3777 H 366.597 -2.20347 -2.00627 0
M  V30 3778 H 364.134 -1.09558 -0.981608 0
M  V30 3779 H 366.092 -0.850139 -4.08446 0
M  V30 3780 H 364.722 -0.0975026 -3.22653 0
M  V30 3781 H 363.774 -2.4917 -2.87434 0
M  V30 3782 H 365.086 -3.0983 -3.90905 0
M  V30 3783 H 364.24 -1.71864 -5.81848 0
M  V30 3784 H 362.979 -1.00812 -4.77167 0
M  V30 3785 H 361.984 -3.28431 -4.40923 0
M  V30 3786 H 363.209 -3.99655 -5.49047 0
M  V30 3787 H 361.155 -1.89601 -6.28003 0
M  V30 3788 H 361.072 -3.58598 -6.6554 0
M  V30 3789 H 362.34 -2.61577 -7.34301 0
M  V30 3790 N 366.569 1.04691 -1.17803 0
M  V30 3791 C 367.809 1.79352 -0.980423 0
M  V30 3792 C 368.173 1.85853 0.481958 0
M  V30 3793 O 369.374 2.56656 0.798809 0
M  V30 3794 C 367.645 3.19088 -1.6099 0
M  V30 3795 S 369.204 4.10164 -1.55918 0
M  V30 3796 H 366.022 0.617631 -0.352211 0
M  V30 3797 H 368.624 1.25575 -1.49837 0
M  V30 3798 H 367.328 3.11962 -2.66661 0
M  V30 3799 H 366.859 3.77941 -1.09197 0
M  V30 3800 H 368.874 4.92907 -0.570685 0
M  V30 3801 N 368.047 0.979072 1.23499 0
M  V30 3802 C 369.324 0.563674 1.87302 0
M  V30 3803 C 369.704 -0.959199 1.88049 0
M  V30 3804 O 369.052 -1.83535 1.36114 0
M  V30 3805 C 369.262 1.16822 3.28867 0
M  V30 3806 C 370.61 1.26014 4.0547 0
M  V30 3807 O 371.634 1.12158 3.38082 0
M  V30 3808 O 370.493 1.48044 5.26066 0
M  V30 3809 H 367.587 0.189602 0.804972 0
M  V30 3810 H 370.133 1.07407 1.31384 0
M  V30 3811 H 368.905 2.21049 3.22883 0
M  V30 3812 H 368.528 0.642564 3.92373 0
M  V30 3813 N 369.525 -1.3858 0.750561 0
M  V30 3814 C 370.457 -2.29057 0.0810714 0
M  V30 3815 C 371.47 -1.47596 -0.686973 0
M  V30 3816 O 372.659 -1.70495 -0.528563 0
M  V30 3817 C 369.759 -3.26475 -0.909247 0
M  V30 3818 C 368.932 -4.36945 -0.199478 0
M  V30 3819 C 367.991 -5.14572 -1.10011 0
M  V30 3820 O 367.017 -5.66321 -0.57177 0
M  V30 3821 N 368.219 -5.27262 -2.42849 0
M  V30 3822 H 370.984 -2.87153 0.858087 0
M  V30 3823 H 368.545 -1.50328 0.60109 0
M  V30 3824 H 370.537 -3.75285 -1.51471 0
M  V30 3825 H 369.107 -2.69298 -1.58736 0
M  V30 3826 H 368.327 -3.8981 0.586664 0
M  V30 3827 H 369.615 -5.07963 0.291783 0
M  V30 3828 H 369.013 -4.86763 -2.88233 0
M  V30 3829 H 367.57 -5.79456 -2.98453 0
M  V30 3830 N 371.003 -0.499398 -1.49478 0
M  V30 3831 C 372.28 0.108629 -1.95298 0
M  V30 3832 C 372.66 1.54282 -1.44084 0
M  V30 3833 O 372.008 2.18944 -0.653908 0
M  V30 3834 C 372.218 0.0229111 -3.48992 0
M  V30 3835 C 373.566 0.197643 -4.2414 0
M  V30 3836 O 374.59 0.0981735 -3.56065 0
M  V30 3837 O 373.449 0.401669 -5.45022 0
M  V30 3838 H 370.543 0.096181 -0.821388 0
M  V30 3839 H 373.089 -0.561822 -1.6013 0
M  V30 3840 H 371.861 -0.977321 -3.78899 0
M  V30 3841 H 371.484 0.733579 -3.90774 0
M  V30 3842 N 372.481 1.55866 -0.233164 0
M  V30 3843 C 373.414 2.16794 0.712442 0
M  V30 3844 C 374.392 1.1158 1.18273 0
M  V30 3845 O 375.576 1.39897 1.26337 0
M  V30 3846 C 372.703 2.75757 1.96661 0
M  V30 3847 C 371.749 3.93902 1.63533 0
M  V30 3848 S 372.582 5.30223 0.74995 0
M  V30 3849 C 373.738 5.92631 2.01343 0
M  V30 3850 H 373.971 2.96662 0.194617 0
M  V30 3851 H 371.504 1.5439 -0.0177425 0
M  V30 3852 H 373.462 3.10367 2.68668 0
M  V30 3853 H 372.123 1.9586 2.45556 0
M  V30 3854 H 371.316 4.33702 2.56747 0
M  V30 3855 H 370.918 3.60499 0.995804 0
M  V30 3856 H 373.21 6.09312 2.96219 0
M  V30 3857 H 374.153 6.88388 1.65915 0
M  V30 3858 H 374.561 5.21571 2.15925 0
M  V30 3859 N 373.959 -0.0401083 1.57549 0
M  V30 3860 C 375.236 -0.767917 1.79896 0
M  V30 3861 C 375.616 -1.9416 0.82856 0
M  V30 3862 O 374.964 -2.2812 -0.131671 0
M  V30 3863 C 375.174 -1.2113 3.27305 0
M  V30 3864 C 376.522 -1.63175 3.91994 0
M  V30 3865 O 377.546 -1.30616 3.31388 0
M  V30 3866 O 376.405 -2.23565 4.98679 0
M  V30 3867 H 373.499 -0.370441 0.739393 0
M  V30 3868 H 376.045 -0.017737 1.69691 0
M  V30 3869 H 374.817 -0.372937 3.89519 0
M  V30 3870 H 374.44 -2.02183 3.42356 0
M  V30 3871 N 375.437 -1.54477 -0.31217 0
M  V30 3872 C 376.347 -1.87695 -1.4074 0
M  V30 3873 C 377.363 -0.769975 -1.56036 0
M  V30 3874 O 378.539 -1.06537 -1.70915 0
M  V30 3875 C 375.604 -2.10755 -2.75287 0
M  V30 3876 C 374.665 -3.34514 -2.69071 0
M  V30 3877 C 373.898 -3.56465 -3.97201 0
M  V30 3878 O 374.121 -2.81637 -4.96021 0
M  V30 3879 O 373.055 -4.49964 -3.9977 0
M  V30 3880 H 376.881 -2.80849 -1.15574 0
M  V30 3881 H 374.466 -1.40526 -0.507228 0
M  V30 3882 H 376.348 -2.27188 -3.54913 0
M  V30 3883 H 375.023 -1.20788 -3.0032 0
M  V30 3884 H 373.93 -3.23456 -1.87955 0
M  V30 3885 H 375.263 -4.24575 -2.48992 0
M  V30 3886 N 376.915 0.57481 -1.46744 0
M  V30 3887 C 378.192 1.3352 -1.4294 0
M  V30 3888 C 378.572 2.10775 -0.117009 0
M  V30 3889 O 377.92 2.09966 0.901474 0
M  V30 3890 C 378.13 2.25456 -2.66403 0
M  V30 3891 C 379.478 2.87035 -3.12883 0
M  V30 3892 O 380.502 2.35766 -2.67007 0
M  V30 3893 O 379.361 3.80179 -3.92589 0
M  V30 3894 H 376.455 0.600318 -0.568812 0
M  V30 3895 H 379.001 0.595171 -1.58921 0
M  V30 3896 H 377.773 1.67851 -3.53471 0
M  V30 3897 H 377.396 3.06785 -2.52921 0
M  V30 3898 N 378.394 1.34581 0.820102 0
M  V30 3899 C 379.671 1.17675 1.56244 0
M  V30 3900 C 380.051 -0.249541 2.0962 0
M  V30 3901 O 379.399 -1.25125 1.91196 0
M  V30 3902 C 379.609 2.23364 2.6816 0
M  V30 3903 C 380.957 2.58485 3.36854 0
M  V30 3904 O 381.981 2.22175 2.78418 0
M  V30 3905 O 380.84 3.20868 4.42386 0
M  V30 3906 H 377.934 0.456333 0.689702 0
M  V30 3907 H 380.48 1.46222 0.861231 0
M  V30 3908 H 379.252 3.19087 2.26493 0
M  V30 3909 H 378.875 1.96009 3.45928 0
M  V30 3910 N 379.872 -1.04064 1.18357 0
M  V30 3911 C 381.12 -1.76915 0.977013 0
M  V30 3912 C 381.441 -1.88624 -0.494577 0
M  V30 3913 O 380.711 -1.41125 -1.3587 0
M  V30 3914 H 379.291 -0.65535 0.358504 0
M  V30 3915 H 381.953 -1.25592 1.49039 0
M  V30 3916 H 381.049 -2.78178 1.41504 0
M  V30 3917 N 381.35 -0.985608 -1.22978 0
M  V30 3918 C 382.766 -0.695104 -1.43668 0
M  V30 3919 C 382.966 0.736866 -1.87543 0
M  V30 3920 O 382.022 1.50868 -2.02473 0
M  V30 3921 C 383.335 -1.69447 -2.48412 0
M  V30 3922 C 384.883 -1.70909 -2.62219 0
M  V30 3923 C 385.358 -2.6969 -3.70178 0
M  V30 3924 N 386.849 -2.6824 -3.77626 0
M  V30 3925 C 387.584 -3.41339 -4.60733 0
M  V30 3926 N 387.08 -4.24015 -5.4789 0
M  V30 3927 N 388.873 -3.30079 -4.54977 0
M  V30 3928 H 381.024 -1.91054 -0.928016 0
M  V30 3929 H 383.287 -0.823553 -0.469536 0
M  V30 3930 H 382.993 -2.7188 -2.23102 0
M  V30 3931 H 382.867 -1.48147 -3.46889 0
M  V30 3932 H 385.254 -0.691785 -2.86877 0
M  V30 3933 H 385.335 -1.96276 -1.6404 0
M  V30 3934 H 384.979 -3.71566 -3.46268 0
M  V30 3935 H 384.909 -2.41595 -4.67909 0
M  V30 3936 H 387.4 -2.08243 -3.15346 0
M  V30 3937 H 387.713 -4.76636 -6.08308 0
M  V30 3938 H 386.058 -4.28104 -5.47496 0
M  V30 3939 H 389.249 -2.64937 -3.85909 0
M  V30 3940 H 389.422 -3.87308 -5.19516 0
M  V30 3941 N 382.828 1.3818 -0.7579 0
M  V30 3942 C 384.105 1.94106 -0.241306 0
M  V30 3943 C 384.485 1.69282 1.26122 0
M  V30 3944 O 383.833 1.03378 2.03777 0
M  V30 3945 C 384.043 3.43809 -0.59967 0
M  V30 3946 C 385.391 4.20868 -0.561717 0
M  V30 3947 O 386.415 3.5211 -0.538222 0
M  V30 3948 O 385.274 5.43451 -0.576478 0
M  V30 3949 H 382.368 0.825376 -0.0518042 0
M  V30 3950 H 384.914 1.47548 -0.838315 0
M  V30 3951 H 383.686 3.55403 -1.6372 0
M  V30 3952 H 383.309 3.97592 0.0251197 0
M  V30 3953 N 384.306 0.507319 1.49211 0
M  V30 3954 C 385.269 -0.256763 2.27757 0
M  V30 3955 C 386.269 -0.888287 1.34038 0
M  V30 3956 O 387.459 -0.751841 1.5714 0
M  V30 3957 C 384.591 -1.36905 3.12202 0
M  V30 3958 H 385.784 0.432557 2.96764 0
M  V30 3959 H 383.337 0.262488 1.5408 0
M  V30 3960 H 384.072 -2.09233 2.47775 0
M  V30 3961 H 383.857 -0.921599 3.81115 0
M  V30 3962 H 385.347 -1.9071 3.7151 0
M  V30 3963 N 385.784 -1.5574 0.241426 0
M  V30 3964 C 386.747 -2.19877 -0.647063 0
M  V30 3965 C 387.747 -1.16642 -1.10686 0
M  V30 3966 O 388.937 -1.41757 -1.01245 0
M  V30 3967 C 386.069 -2.83797 -1.88871 0
M  V30 3968 H 387.262 -2.99772 -0.087574 0
M  V30 3969 H 384.815 -1.56298 -0.00813574 0
M  V30 3970 H 385.55 -2.07824 -2.48957 0
M  V30 3971 H 385.335 -3.59414 -1.56728 0
M  V30 3972 H 386.825 -3.32898 -2.52129 0
M  V30 3973 N 387.262 0.0317525 -1.57568 0
M  V30 3974 C 388.673 0.578692 -1.77505 0
M  V30 3975 C 389.024 1.75749 -0.872164 0
M  V30 3976 O 388.149 2.16298 -0.0663106 0
M  V30 3977 C 388.744 1.05658 -3.21904 0
M  V30 3978 C 387.303 1.54906 -3.43047 0
M  V30 3979 C 386.45 0.485939 -2.73009 0
M  V30 3980 H 389.401 -0.194475 -1.57504 0
M  V30 3981 H 389.422 1.92404 -3.28269 0
M  V30 3982 H 388.934 0.198422 -3.87592 0
M  V30 3983 H 387.035 2.42915 -2.82529 0
M  V30 3984 H 387.148 1.59841 -4.5165 0
M  V30 3985 H 385.512 0.940354 -2.36705 0
M  V30 3986 H 386.295 -0.362709 -3.41379 0
M  V30 3987 N 388.74 1.54641 0.303973 0
M  V30 3988 C 390.151 1.64811 0.877163 0
M  V30 3989 C 390.502 0.554838 1.88191 0
M  V30 3990 O 389.627 -0.309033 2.14182 0
M  V30 3991 C 390.222 2.9876 1.59775 0
M  V30 3992 C 388.781 3.11061 2.11938 0
M  V30 3993 C 387.928 2.60479 0.951097 0
M  V30 3994 H 390.879 1.58493 0.0810486 0
M  V30 3995 H 390.9 2.90017 2.46314 0
M  V30 3996 H 390.412 3.7831 0.866226 0
M  V30 3997 H 388.513 2.36225 2.88146 0
M  V30 3998 H 388.626 4.17171 2.35595 0
M  V30 3999 H 386.99 2.16859 1.33583 0
M  V30 4000 H 387.773 3.42504 0.233581 0
M  V30 4001 N 390.218 -0.567019 1.47046 0
M  V30 4002 C 391.466 -1.322 1.52864 0
M  V30 4003 C 391.787 -1.94088 0.188388 0
M  V30 4004 O 391.057 -1.7941 -0.786693 0
M  V30 4005 H 389.637 -0.490894 0.563056 0
M  V30 4006 H 392.299 -0.662879 1.83281 0
M  V30 4007 H 391.395 -2.12062 2.2899 0
M  V30 4008 N 391.696 -1.35014 -0.812953 0
M  V30 4009 C 393.112 -1.14914 -1.10757 0
M  V30 4010 C 393.312 0.0426818 -2.01455 0
M  V30 4011 O 392.368 0.715212 -2.42159 0
M  V30 4012 C 393.681 -2.44911 -1.74468 0
M  V30 4013 C 395.229 -2.5106 -1.86917 0
M  V30 4014 C 395.704 -3.81085 -2.54044 0
M  V30 4015 N 397.195 -3.82301 -2.61535 0
M  V30 4016 C 397.93 -4.79634 -3.14227 0
M  V30 4017 N 397.426 -5.87353 -3.67407 0
M  V30 4018 N 399.219 -4.67078 -3.12721 0
M  V30 4019 H 391.37 -2.1136 -0.20989 0
M  V30 4020 H 393.633 -0.935128 -0.155692 0
M  V30 4021 H 393.339 -3.32267 -1.15289 0
M  V30 4022 H 393.213 -2.58989 -2.74234 0
M  V30 4023 H 395.6 -1.64137 -2.45241 0
M  V30 4024 H 395.681 -2.40901 -0.860242 0
M  V30 4025 H 395.325 -4.68402 -1.96372 0
M  V30 4026 H 395.255 -3.88529 -3.55461 0
M  V30 4027 H 397.746 -3.04465 -2.23851 0
M  V30 4028 H 398.059 -6.57624 -4.05894 0
M  V30 4029 H 396.404 -5.91054 -3.65623 0
M  V30 4030 H 399.595 -3.82067 -2.70449 0
M  V30 4031 H 399.768 -5.43098 -3.53481 0
M  V30 4032 N 393.175 1.03435 -1.18907 0
M  V30 4033 C 394.105 2.13503 -0.945448 0
M  V30 4034 C 395.086 1.69682 0.119189 0
M  V30 4035 O 396.271 1.94169 -0.034707 0
M  V30 4036 C 393.401 3.44004 -0.477316 0
M  V30 4037 C 392.355 4.0148 -1.48316 0
M  V30 4038 C 391.681 5.27537 -0.872311 0
M  V30 4039 C 392.981 4.36921 -2.86177 0
M  V30 4040 H 394.675 2.34141 -1.86597 0
M  V30 4041 H 392.221 1.12523 -0.898584 0
M  V30 4042 H 394.174 4.20372 -0.294204 0
M  V30 4043 H 392.898 3.23072 0.478786 0
M  V30 4044 H 391.557 3.27201 -1.65332 0
M  V30 4045 H 391.205 5.02917 0.0911752 0
M  V30 4046 H 390.905 5.66954 -1.54393 0
M  V30 4047 H 392.429 6.06576 -0.699871 0
M  V30 4048 H 393.843 5.04248 -2.72776 0
M  V30 4049 H 392.24 4.87405 -3.50081 0
M  V30 4050 H 393.31 3.46466 -3.39248 0
M  V30 4051 N 394.653 0.992116 1.22453 0
M  V30 4052 C 396.064 0.702776 1.72968 0
M  V30 4053 C 396.415 -0.780399 1.80012 0
M  V30 4054 O 395.54 -1.61007 1.44589 0
M  V30 4055 C 396.135 1.26903 3.14135 0
M  V30 4056 C 394.694 1.02909 3.62059 0
M  V30 4057 C 393.841 1.38969 2.39964 0
M  V30 4058 H 396.792 1.16457 1.07812 0
M  V30 4059 H 396.813 0.647223 3.74955 0
M  V30 4060 H 396.325 2.34851 3.08977 0
M  V30 4061 H 394.426 -0.0337979 3.72585 0
M  V30 4062 H 394.539 1.69191 4.48231 0
M  V30 4063 H 392.903 0.808279 2.41535 0
M  V30 4064 H 393.686 2.4792 2.37467 0
M  V30 4065 N 396.131 -1.37776 0.765217 0
M  V30 4066 C 397.063 -2.28958 0.105361 0
M  V30 4067 C 398.076 -1.48316 -0.67128 0
M  V30 4068 O 399.265 -1.71046 -0.51045 0
M  V30 4069 C 396.365 -3.27421 -0.874569 0
M  V30 4070 C 395.538 -4.37132 -0.153123 0
M  V30 4071 C 394.597 -5.1571 -1.04547 0
M  V30 4072 O 393.623 -5.66896 -0.511672 0
M  V30 4073 N 394.825 -5.29808 -2.37243 0
M  V30 4074 H 397.59 -2.86227 0.888495 0
M  V30 4075 H 395.151 -1.49682 0.617 0
M  V30 4076 H 397.143 -3.7687 -1.47483 0
M  V30 4077 H 395.713 -2.70967 -1.55871 0
M  V30 4078 H 394.933 -3.89166 0.627975 0
M  V30 4079 H 396.221 -5.07625 0.345643 0
M  V30 4080 H 395.619 -4.89793 -2.83054 0
M  V30 4081 H 394.176 -5.82589 -2.9229 0
M  V30 4082 N 397.609 -0.515225 -1.4894 0
M  V30 4083 C 398.556 0.255567 -2.29381 0
M  V30 4084 C 399.526 0.947387 -1.36432 0
M  V30 4085 O 400.711 0.951288 -1.65394 0
M  V30 4086 C 397.851 1.30551 -3.19453 0
M  V30 4087 C 396.964 0.624029 -4.27469 0
M  V30 4088 C 396.099 1.65563 -5.0474 0
M  V30 4089 C 395.138 0.956802 -6.04576 0
M  V30 4090 N 394.275 1.93326 -6.74959 0
M  V30 4091 H 399.115 -0.436607 -2.94784 0
M  V30 4092 H 396.652 -0.227154 -1.45336 0
M  V30 4093 H 398.61 1.92639 -3.70062 0
M  V30 4094 H 397.24 1.96626 -2.56004 0
M  V30 4095 H 396.292 -0.110459 -3.8024 0
M  V30 4096 H 397.604 0.0746092 -4.98744 0
M  V30 4097 H 396.758 2.35119 -5.59289 0
M  V30 4098 H 395.497 2.23893 -4.3327 0
M  V30 4099 H 394.502 0.247097 -5.49244 0
M  V30 4100 H 395.727 0.379814 -6.78037 0
M  V30 4101 H 393.673 2.50591 -6.06251 0
M  V30 4102 H 393.59 1.43489 -7.42258 0
M  V30 4103 H 394.858 2.62126 -7.34105 0
M  V30 4104 N 399.087 1.5561 -0.249682 0
M  V30 4105 C 400.017 2.24477 0.642826 0
M  V30 4106 C 400.998 1.22601 1.17911 0
M  V30 4107 O 402.183 1.5126 1.21795 0
M  V30 4108 C 399.313 2.94638 1.83863 0
M  V30 4109 C 398.267 4.03227 1.435 0
M  V30 4110 C 397.593 4.60828 2.71186 0
M  V30 4111 C 398.893 5.18796 0.604002 0
M  V30 4112 H 400.587 2.99321 0.0685625 0
M  V30 4113 H 398.133 1.43965 0.0315363 0
M  V30 4114 H 400.086 3.41517 2.46868 0
M  V30 4115 H 398.81 2.17287 2.43832 0
M  V30 4116 H 397.469 3.57121 0.828275 0
M  V30 4117 H 397.117 3.80174 3.29358 0
M  V30 4118 H 396.817 5.34132 2.44901 0
M  V30 4119 H 398.341 5.10442 3.35084 0
M  V30 4120 H 399.755 5.61883 1.13842 0
M  V30 4121 H 398.152 5.98506 0.437097 0
M  V30 4122 H 399.222 4.83384 -0.383147 0
M  V30 4123 N 400.565 -0.0233959 1.57583 0
M  V30 4124 C 401.495 -1.02162 2.09965 0
M  V30 4125 C 402.476 -1.3735 1.00344 0
M  V30 4126 O 403.661 -1.46135 1.27899 0
M  V30 4127 C 400.791 -2.32081 2.58371 0
M  V30 4128 C 399.745 -2.1112 3.72307 0
M  V30 4129 C 399.071 -3.46848 4.06941 0
M  V30 4130 C 400.371 -1.49276 5.00514 0
M  V30 4131 H 402.065 -0.585557 2.93618 0
M  V30 4132 H 399.611 -0.280218 1.41247 0
M  V30 4133 H 401.564 -3.02249 2.93639 0
M  V30 4134 H 400.288 -2.77758 1.71808 0
M  V30 4135 H 398.947 -1.43384 3.37397 0
M  V30 4136 H 398.595 -3.90184 3.17436 0
M  V30 4137 H 398.295 -3.33646 4.83688 0
M  V30 4138 H 399.819 -4.18369 4.44747 0
M  V30 4139 H 401.233 -2.09368 5.33702 0
M  V30 4140 H 399.63 -1.46632 5.8191 0
M  V30 4141 H 400.7 -0.459217 4.82721 0
M  V30 4142 N 402.043 -1.548 -0.295768 0
M  V30 4143 C 402.973 -1.89115 -1.36959 0
M  V30 4144 C 403.954 -0.75059 -1.52644 0
M  V30 4145 O 405.139 -1.00678 -1.66065 0
M  V30 4146 C 402.269 -2.14307 -2.73295 0
M  V30 4147 C 401.223 -3.30151 -2.72368 0
M  V30 4148 C 400.549 -3.40772 -4.12042 0
M  V30 4149 C 401.849 -4.67126 -2.33646 0
M  V30 4150 H 403.543 -2.79053 -1.08488 0
M  V30 4151 H 401.089 -1.34266 -0.520443 0
M  V30 4152 H 403.042 -2.36898 -3.48507 0
M  V30 4153 H 401.766 -1.21145 -3.03301 0
M  V30 4154 H 400.425 -3.0749 -1.99613 0
M  V30 4155 H 400.073 -2.45117 -4.39234 0
M  V30 4156 H 399.773 -4.18645 -4.12322 0
M  V30 4157 H 401.297 -3.6563 -4.89027 0
M  V30 4158 H 402.711 -4.89414 -2.98575 0
M  V30 4159 H 401.108 -5.47751 -2.45129 0
M  V30 4160 H 402.178 -4.67489 -1.28772 0
M  V30 4161 N 403.521 0.559213 -1.47345 0
M  V30 4162 C 404.431 1.69388 -1.62311 0
M  V30 4163 C 405.447 1.6648 -0.505993 0
M  V30 4164 O 406.623 1.85964 -0.773262 0
M  V30 4165 C 403.688 3.05894 -1.63185 0
M  V30 4166 C 402.749 3.19885 -2.86307 0
M  V30 4167 C 401.982 4.49879 -2.87131 0
M  V30 4168 O 402.205 5.35217 -1.97229 0
M  V30 4169 O 401.139 4.67618 -3.78968 0
M  V30 4170 H 404.965 1.59706 -2.58317 0
M  V30 4171 H 402.55 0.728989 -1.30407 0
M  V30 4172 H 404.432 3.87133 -1.66451 0
M  V30 4173 H 403.107 3.15964 -0.70345 0
M  V30 4174 H 402.014 2.38052 -2.88587 0
M  V30 4175 H 403.347 3.14718 -3.78435 0
M  V30 4176 N 404.999 1.35443 0.805782 0
M  V30 4177 C 406.227 1.31878 1.59423 0
M  V30 4178 C 406.642 -0.103562 1.88516 0
M  V30 4179 O 405.999 -1.05575 1.48863 0
M  V30 4180 C 406.05 2.12426 2.92502 0
M  V30 4181 O 405.771 3.49115 2.6467 0
M  V30 4182 C 407.272 2.16455 3.86862 0
M  V30 4183 H 404.492 0.453002 0.495005 0
M  V30 4184 H 407.036 1.78309 1.00131 0
M  V30 4185 H 405.191 1.69593 3.48306 0
M  V30 4186 H 405.605 3.90957 3.49647 0
M  V30 4187 H 407.079 2.77204 4.77349 0
M  V30 4188 H 407.556 1.16352 4.23508 0
M  V30 4189 H 408.162 2.59453 3.36993 0
M  V30 4190 N 406.477 -1.02803 1.19454 0
M  V30 4191 C 407.44 -2.09264 0.934955 0
M  V30 4192 C 408.44 -1.60576 -0.0849015 0
M  V30 4193 O 409.63 -1.73554 0.149933 0
M  V30 4194 C 406.762 -3.38482 0.40531 0
M  V30 4195 H 407.955 -2.33726 1.87916 0
M  V30 4196 H 405.508 -1.19426 1.00832 0
M  V30 4197 H 406.243 -3.19689 -0.544899 0
M  V30 4198 H 406.028 -3.75142 1.14065 0
M  V30 4199 H 407.518 -4.16894 0.242806 0
M  V30 4200 N 407.956 -0.998596 -1.21925 0
M  V30 4201 C 408.919 -0.558679 -2.22287 0
M  V30 4202 C 409.919 0.361525 -1.56683 0
M  V30 4203 O 411.109 0.152695 -1.73529 0
M  V30 4204 C 408.241 0.18661 -3.40389 0
M  V30 4205 H 409.434 -1.4463 -2.62721 0
M  V30 4206 H 406.987 -0.786413 -1.35075 0
M  V30 4207 H 407.722 1.08996 -3.05435 0
M  V30 4208 H 407.507 -0.474188 -3.89222 0
M  V30 4209 H 408.997 0.482367 -4.14805 0
M  V30 4210 N 409.434 1.37368 -0.772513 0
M  V30 4211 C 410.845 1.8231 -0.402493 0
M  V30 4212 C 411.196 1.6436 1.07146 0
M  V30 4213 O 410.321 1.15514 1.82991 0
M  V30 4214 C 410.916 3.30979 -0.723776 0
M  V30 4215 C 409.475 3.74195 -0.406802 0
M  V30 4216 C 408.622 2.59885 -0.967218 0
M  V30 4217 H 411.573 1.25829 -0.967099 0
M  V30 4218 H 411.594 3.80499 -0.00870832 0
M  V30 4219 H 411.106 3.44011 -1.7966 0
M  V30 4220 H 409.207 3.66732 0.658673 0
M  V30 4221 H 409.32 4.7027 -0.915588 0
M  V30 4222 H 407.684 2.51674 -0.391416 0
M  V30 4223 H 408.467 2.7571 -2.04546 0
M  V30 4224 N 410.912 0.523116 1.48665 0
M  V30 4225 C 412.328 0.180511 1.58576 0
M  V30 4226 C 412.528 -1.31597 1.52592 0
M  V30 4227 O 411.584 -2.0937 1.4114 0
M  V30 4228 C 412.897 0.776949 2.90489 0
M  V30 4229 C 414.445 0.745058 3.04003 0
M  V30 4230 C 414.92 1.31995 4.38567 0
M  V30 4231 N 416.411 1.28162 4.45117 0
M  V30 4232 C 417.146 1.6964 5.47731 0
M  V30 4233 N 416.642 2.18816 6.57337 0
M  V30 4234 N 418.435 1.6092 5.38573 0
M  V30 4235 H 410.586 1.4958 1.50797 0
M  V30 4236 H 412.849 0.621772 0.715614 0
M  V30 4237 H 412.555 1.82732 3.00503 0
M  V30 4238 H 412.429 0.25007 3.7637 0
M  V30 4239 H 414.816 -0.296532 2.93606 0
M  V30 4240 H 414.897 1.30933 2.1975 0
M  V30 4241 H 414.541 2.36043 4.49718 0
M  V30 4242 H 414.471 0.731418 5.21496 0
M  V30 4243 H 416.962 0.92155 3.66491 0
M  V30 4244 H 417.275 2.48478 7.31764 0
M  V30 4245 H 415.62 2.22805 6.58318 0
M  V30 4246 H 418.811 1.22304 4.5184 0
M  V30 4247 H 418.984 1.93567 6.18414 0
M  V30 4248 N 412.39 -1.55475 0.257931 0
M  V30 4249 C 413.636 -1.99502 -0.364266 0
M  V30 4250 C 413.969 -1.146 -1.56782 0
M  V30 4251 O 413.244 -0.211968 -1.93342 0
M  V30 4252 C 413.527 -3.51917 -0.763333 0
M  V30 4253 C 413.38 -4.4758 0.446371 0
M  V30 4254 C 414.699 -4.09742 -1.60623 0
M  V30 4255 H 411.818 -0.725277 -0.130929 0
M  V30 4256 H 414.46 -1.8653 0.361446 0
M  V30 4257 H 412.61 -3.63101 -1.38166 0
M  V30 4258 H 414.282 -4.48362 1.08487 0
M  V30 4259 H 412.525 -4.19947 1.08753 0
M  V30 4260 H 413.196 -5.51862 0.123645 0
M  V30 4261 H 415.672 -4.01727 -1.08418 0
M  V30 4262 H 414.548 -5.16631 -1.85429 0
M  V30 4263 H 414.809 -3.58889 -2.58169 0
M  V30 4264 N 413.868 0.0150385 -1.57593 0
M  V30 4265 C 415.093 0.718067 -1.94573 0
M  V30 4266 C 415.518 1.6734 -0.859005 0
M  V30 4267 O 414.876 1.80362 0.184147 0
M  V30 4268 C 414.924 1.43918 -3.30636 0
M  V30 4269 O 414.028 2.55299 -3.23876 0
M  V30 4270 H 413.369 0.192125 -0.635597 0
M  V30 4271 H 415.899 -0.0336708 -2.04572 0
M  V30 4272 H 415.909 1.80598 -3.65853 0
M  V30 4273 H 414.584 0.738619 -4.09289 0
M  V30 4274 H 413.161 2.21058 -3.00312 0
M  V30 4275 N 415.346 1.54954 0.287554 0
M  V30 4276 C 416.571 1.79209 1.04397 0
M  V30 4277 C 416.996 0.556431 1.79682 0
M  V30 4278 O 416.354 -0.493518 1.74454 0
M  V30 4279 C 416.402 3.00739 1.98969 0
M  V30 4280 O 415.506 2.74805 3.075 0
M  V30 4281 H 414.847 0.592755 0.299227 0
M  V30 4282 H 417.377 2.02068 0.320886 0
M  V30 4283 H 417.387 3.29077 2.4119 0
M  V30 4284 H 416.062 3.90329 1.43582 0
M  V30 4285 H 414.639 2.57523 2.69697 0
M  V30 4286 N 416.824 -0.551391 1.4764 0
M  V30 4287 C 418.049 -1.33837 1.58437 0
M  V30 4288 C 418.474 -1.866 0.237063 0
M  V30 4289 O 417.832 -1.6328 -0.787994 0
M  V30 4290 C 417.88 -2.48014 2.61766 0
M  V30 4291 O 416.984 -3.50419 2.1744 0
M  V30 4292 H 416.325 -0.397299 0.532024 0
M  V30 4293 H 418.855 -0.665759 1.93465 0
M  V30 4294 H 418.865 -2.94503 2.82369 0
M  V30 4295 H 417.54 -2.08969 3.5959 0
M  V30 4296 H 416.117 -3.10196 2.06961 0
M  V30 4297 N 418.302 -1.35869 -0.798587 0
M  V30 4298 C 419.718 -1.16082 -1.09532 0
M  V30 4299 C 419.918 0.0213124 -2.01489 0
M  V30 4300 O 418.974 0.689488 -2.42904 0
M  V30 4301 C 420.287 -2.46748 -1.7186 0
M  V30 4302 C 421.835 -2.53028 -1.84244 0
M  V30 4303 C 422.31 -3.83758 -2.49988 0
M  V30 4304 N 423.801 -3.85053 -2.57465 0
M  V30 4305 C 424.536 -4.8294 -3.09122 0
M  V30 4306 N 424.032 -5.91217 -3.61157 0
M  V30 4307 N 425.825 -4.70369 -3.0775 0
M  V30 4308 H 417.976 -2.11571 -0.187461 0
M  V30 4309 H 420.239 -0.936726 -0.145765 0
M  V30 4310 H 419.945 -3.33471 -1.11759 0
M  V30 4311 H 419.819 -2.61883 -2.71472 0
M  V30 4312 H 422.206 -1.66729 -2.43486 0
M  V30 4313 H 422.287 -2.418 -0.834643 0
M  V30 4314 H 421.931 -4.70459 -1.91393 0
M  V30 4315 H 421.861 -3.92278 -3.5132 0
M  V30 4316 H 424.352 -3.06822 -2.20609 0
M  V30 4317 H 424.665 -6.61892 -3.98896 0
M  V30 4318 H 423.01 -5.94899 -3.59333 0
M  V30 4319 H 426.201 -3.84914 -2.66381 0
M  V30 4320 H 426.374 -5.46816 -3.47701 0
M  V30 4321 N 419.78 1.02168 -1.19998 0
M  V30 4322 C 421.196 1.27969 -0.953737 0
M  V30 4323 C 421.396 1.98079 0.369703 0
M  V30 4324 O 420.452 2.27306 1.09947 0
M  V30 4325 C 421.765 2.11971 -2.13281 0
M  V30 4326 C 423.313 2.25255 -2.17323 0
M  V30 4327 C 423.788 3.12632 -3.34702 0
M  V30 4328 N 425.279 3.2022 -3.34684 0
M  V30 4329 C 426.014 3.88039 -4.22153 0
M  V30 4330 N 425.51 4.58027 -5.19791 0
M  V30 4331 N 427.303 3.84511 -4.10009 0
M  V30 4332 H 419.454 0.550794 -2.05134 0
M  V30 4333 H 421.717 0.305683 -0.897364 0
M  V30 4334 H 421.423 1.67785 -3.09097 0
M  V30 4335 H 421.297 3.12699 -2.10949 0
M  V30 4336 H 423.684 2.68667 -1.22073 0
M  V30 4337 H 423.765 1.24053 -2.23706 0
M  V30 4338 H 423.409 2.69926 -4.30235 0
M  V30 4339 H 423.339 4.13909 -3.25556 0
M  V30 4340 H 425.83 2.70382 -2.64012 0
M  V30 4341 H 426.143 5.07429 -5.82868 0
M  V30 4342 H 424.488 4.56869 -5.23733 0
M  V30 4343 H 427.679 3.28978 -3.33003 0
M  V30 4344 H 427.852 4.3709 -4.78389 0
M  V30 4345 N 421.258 1.00505 1.21394 0
M  V30 4346 C 422.488 0.705584 1.94178 0
M  V30 4347 C 422.896 -0.735846 1.74304 0
M  V30 4348 O 422.239 -1.50954 1.04683 0
M  V30 4349 C 422.301 0.94689 3.46806 0
M  V30 4350 C 421.965 2.37517 3.90429 0
M  V30 4351 C 422.962 3.35539 3.97127 0
M  V30 4352 C 420.647 2.71284 4.22742 0
M  V30 4353 C 422.641 4.65395 4.3553 0
M  V30 4354 C 420.328 4.01356 4.60822 0
M  V30 4355 C 421.326 4.98223 4.67186 0
M  V30 4356 O 421.014 6.25969 5.04399 0
M  V30 4357 H 420.746 0.259216 0.624326 0
M  V30 4358 H 423.3 1.34592 1.55159 0
M  V30 4359 H 421.53 0.249386 3.85895 0
M  V30 4360 H 423.219 0.640804 4.0081 0
M  V30 4361 H 423.985 3.10786 3.7234 0
M  V30 4362 H 419.864 1.96581 4.16985 0
M  V30 4363 H 423.408 5.41002 4.40412 0
M  V30 4364 H 419.305 4.25893 4.85063 0
M  V30 4365 H 420.073 6.30085 5.22431 0
M  V30 4366 N 422.737 -1.36956 0.779787 0
M  V30 4367 C 423.962 -2.04283 0.358224 0
M  V30 4368 C 424.387 -1.58422 -1.01411 0
M  V30 4369 O 423.745 -0.748179 -1.65142 0
M  V30 4370 C 423.793 -3.58152 0.419479 0
M  V30 4371 O 422.897 -4.08342 -0.577142 0
M  V30 4372 H 422.238 -0.645967 0.153698 0
M  V30 4373 H 424.768 -1.75108 1.05822 0
M  V30 4374 H 424.778 -4.07041 0.279636 0
M  V30 4375 H 423.453 -3.90886 1.42061 0
M  V30 4376 H 422.03 -3.70751 -0.399755 0
M  V30 4377 N 424.215 -0.530993 -1.48385 0
M  V30 4378 C 425.125 0.23503 -2.3342 0
M  V30 4379 C 426.141 0.93801 -1.46552 0
M  V30 4380 O 427.317 0.912745 -1.7953 0
M  V30 4381 C 424.382 1.26778 -3.22689 0
M  V30 4382 C 423.443 0.575038 -4.25431 0
M  V30 4383 C 422.676 1.55858 -5.10435 0
M  V30 4384 O 422.899 2.79129 -4.97437 0
M  V30 4385 O 421.833 1.09742 -5.91811 0
M  V30 4386 H 425.659 -0.461794 -3.00169 0
M  V30 4387 H 423.244 -0.291903 -1.46521 0
M  V30 4388 H 425.126 1.86457 -3.77904 0
M  V30 4389 H 423.801 1.94699 -2.586 0
M  V30 4390 H 422.708 -0.0622782 -3.74048 0
M  V30 4391 H 424.041 -0.062253 -4.92161 0
M  V30 4392 N 425.693 1.55336 -0.266172 0
M  V30 4393 C 426.941 1.99003 0.35246 0
M  V30 4394 C 427.262 1.15591 1.57047 0
M  V30 4395 O 426.532 0.243268 1.94384 0
M  V30 4396 H 425.112 0.735025 0.133217 0
M  V30 4397 H 427.774 1.91367 -0.369434 0
M  V30 4398 H 426.87 3.05289 0.648453 0
M  V30 4399 N 427.171 -0.0066808 1.57599 0
M  V30 4400 C 428.587 -0.36267 1.55425 0
M  V30 4401 C 428.787 -1.75209 0.995187 0
M  V30 4402 O 427.843 -2.44616 0.626058 0
M  V30 4403 C 429.156 -0.244017 2.99708 0
M  V30 4404 C 430.704 -0.319451 3.11366 0
M  V30 4405 C 431.179 -0.229998 4.57422 0
M  V30 4406 N 432.67 -0.288105 4.62303 0
M  V30 4407 C 433.405 -0.242127 5.72889 0
M  V30 4408 N 432.901 -0.147133 6.92644 0
M  V30 4409 N 434.694 -0.293502 5.61333 0
M  V30 4410 H 426.845 0.902314 1.92281 0
M  V30 4411 H 429.108 0.34525 0.882896 0
M  V30 4412 H 428.814 0.711678 3.44424 0
M  V30 4413 H 428.688 -1.02877 3.629 0
M  V30 4414 H 431.075 -1.26559 2.66584 0
M  V30 4415 H 431.156 0.495055 2.50964 0
M  V30 4416 H 430.8 0.712566 5.02877 0
M  V30 4417 H 430.73 -1.0629 5.15761 0
M  V30 4418 H 433.221 -0.363126 3.76151 0
M  V30 4419 H 433.534 -0.117763 7.7271 0
M  V30 4420 H 431.879 -0.112857 6.94908 0
M  V30 4421 H 435.07 -0.365864 4.66668 0
M  V30 4422 H 435.243 -0.254204 6.47501 0
M  V30 4423 N 428.649 -1.55105 -0.279332 0
M  V30 4424 C 429.559 -1.90638 -1.36727 0
M  V30 4425 C 430.575 -0.802899 -1.54368 0
M  V30 4426 O 431.751 -1.10138 -1.68616 0
M  V30 4427 C 428.816 -2.16547 -2.70755 0
M  V30 4428 C 427.877 -3.40146 -2.61915 0
M  V30 4429 C 427.11 -3.6481 -3.8955 0
M  V30 4430 O 427.333 -2.92095 -4.89935 0
M  V30 4431 O 426.267 -4.58343 -3.90135 0
M  V30 4432 H 430.093 -2.83237 -1.09591 0
M  V30 4433 H 427.678 -1.4157 -0.477306 0
M  V30 4434 H 429.56 -2.34665 -3.50014 0
M  V30 4435 H 428.235 -1.27131 -2.9769 0
M  V30 4436 H 427.142 -3.2737 -1.81052 0
M  V30 4437 H 428.475 -4.29761 -2.3993 0
M  V30 4438 N 430.127 0.543554 -1.4793 0
M  V30 4439 C 431.374 1.30008 -1.55255 0
M  V30 4440 C 431.702 1.93245 -0.220612 0
M  V30 4441 O 430.957 1.79141 0.787843 0
M  V30 4442 C 431.256 2.42078 -2.62932 0
M  V30 4443 C 430.922 1.96583 -4.0579 0
M  V30 4444 C 429.584 1.83893 -4.44676 0
M  V30 4445 C 431.936 1.62034 -4.95373 0
M  V30 4446 C 429.264 1.34969 -5.70964 0
M  V30 4447 C 431.616 1.14577 -6.22137 0
M  V30 4448 C 430.28 1.00493 -6.59892 0
M  V30 4449 H 429.55 0.475735 -0.568117 0
M  V30 4450 H 432.197 0.608075 -1.81589 0
M  V30 4451 H 430.502 3.16892 -2.30406 0
M  V30 4452 H 432.199 3.00236 -2.65818 0
M  V30 4453 H 428.789 2.07407 -3.75074 0
M  V30 4454 H 432.973 1.70705 -4.66019 0
M  V30 4455 H 428.229 1.2274 -5.98953 0
M  V30 4456 H 432.403 0.869109 -6.90955 0
M  V30 4457 H 430.03 0.623624 -7.57638 0
M  V30 4458 N 431.605 1.3629 0.791371 0
M  V30 4459 C 433.021 1.16661 1.08914 0
M  V30 4460 C 433.221 -0.0106266 2.01497 0
M  V30 4461 O 432.277 -0.676596 2.43266 0
M  V30 4462 C 433.59 2.47656 1.70549 0
M  V30 4463 C 435.138 2.54002 1.82899 0
M  V30 4464 C 435.613 3.85078 2.47949 0
M  V30 4465 N 437.104 3.86413 2.5542 0
M  V30 4466 C 437.839 4.84572 3.06557 0
M  V30 4467 N 437.335 5.93124 3.58016 0
M  V30 4468 N 439.128 4.71994 3.05251 0
M  V30 4469 H 431.279 2.11668 0.176238 0
M  V30 4470 H 433.542 0.937486 0.140796 0
M  V30 4471 H 433.248 3.34059 1.09989 0
M  V30 4472 H 433.122 2.63319 2.70079 0
M  V30 4473 H 435.509 1.68018 2.42598 0
M  V30 4474 H 435.59 2.42239 0.821808 0
M  V30 4475 H 435.234 4.71467 1.88895 0
M  V30 4476 H 435.164 3.94135 3.49235 0
M  V30 4477 H 437.655 3.07988 2.18979 0
M  V30 4478 H 437.968 6.63999 3.95381 0
M  V30 4479 H 436.313 5.96796 3.56173 0
M  V30 4480 H 439.504 3.86321 2.64336 0
M  V30 4481 H 439.677 5.48653 3.44796 0
M  V30 4482 N 433.083 -1.0153 1.20538 0
M  V30 4483 C 434.313 -1.78487 1.04048 0
M  V30 4484 C 434.721 -1.84631 -0.413292 0
M  V30 4485 O 434.064 -1.29919 -1.29872 0
M  V30 4486 C 434.126 -3.24367 1.55003 0
M  V30 4487 C 433.79 -3.41827 3.0332 0
M  V30 4488 C 434.787 -3.30941 4.00966 0
M  V30 4489 C 432.472 -3.67602 3.42307 0
M  V30 4490 C 434.466 -3.45577 5.35589 0
M  V30 4491 C 432.153 -3.81881 4.77085 0
M  V30 4492 C 433.151 -3.70874 5.73534 0
M  V30 4493 O 432.839 -3.84714 7.05868 0
M  V30 4494 H 432.571 -0.568108 0.366373 0
M  V30 4495 H 435.125 -1.28677 1.60098 0
M  V30 4496 H 433.355 -3.75266 0.933397 0
M  V30 4497 H 435.044 -3.82963 1.34514 0
M  V30 4498 H 435.81 -3.10964 3.72191 0
M  V30 4499 H 431.689 -3.75256 2.67776 0
M  V30 4500 H 435.233 -3.36902 6.10854 0
M  V30 4501 H 431.13 -4.01359 5.0555 0
M  V30 4502 H 431.898 -4.01724 7.13134 0
M  V30 4503 N 434.561 -1.01147 -1.20859 0
M  V30 4504 C 435.809 -0.696486 -1.89719 0
M  V30 4505 C 436.13 0.775788 -1.78904 0
M  V30 4506 O 435.4 1.55759 -1.18811 0
M  V30 4507 H 433.98 -0.254628 -0.702263 0
M  V30 4508 H 436.642 -1.28197 -1.46804 0
M  V30 4509 H 435.738 -0.975357 -2.96468 0
M  V30 4510 N 436.039 1.36541 -0.78704 0
M  V30 4511 C 437.264 2.0409 -0.369053 0
M  V30 4512 C 437.689 1.58957 1.00569 0
M  V30 4513 O 437.047 0.756926 1.64743 0
M  V30 4514 C 437.095 3.57924 -0.438466 0
M  V30 4515 O 436.199 4.08642 0.555479 0
M  V30 4516 H 435.54 0.645142 -0.157122 0
M  V30 4517 H 438.07 1.74545 -1.06749 0
M  V30 4518 H 438.08 4.06887 -0.301218 0
M  V30 4519 H 436.755 3.90127 -1.44132 0
M  V30 4520 H 435.332 3.70958 0.380088 0
M  V30 4521 N 437.518 0.538854 1.48102 0
M  V30 4522 C 438.764 0.0161732 2.03394 0
M  V30 4523 C 439.119 -1.31154 1.40771 0
M  V30 4524 O 438.412 -1.83613 0.547421 0
M  V30 4525 C 438.606 -0.153808 3.57069 0
M  V30 4526 C 438.435 1.15588 4.34591 0
M  V30 4527 C 437.205 1.71818 4.75191 0
M  V30 4528 C 439.403 2.06867 4.70861 0
M  V30 4529 N 437.385 2.96983 5.37284 0
M  V30 4530 C 438.756 3.16609 5.33066 0
M  V30 4531 C 440.811 2.07085 4.52791 0
M  V30 4532 C 439.514 4.26645 5.79109 0
M  V30 4533 C 441.54 3.16121 4.99821 0
M  V30 4534 C 440.902 4.24582 5.62058 0
M  V30 4535 H 437.001 0.0476346 0.780548 0
M  V30 4536 H 439.585 0.722094 1.80815 0
M  V30 4537 H 437.756 -0.828825 3.79454 0
M  V30 4538 H 439.488 -0.676896 3.98999 0
M  V30 4539 H 436.243 1.25845 4.56574 0
M  V30 4540 H 436.667 3.60732 5.72889 0
M  V30 4541 H 441.309 1.24522 4.04047 0
M  V30 4542 H 439.027 5.0998 6.26854 0
M  V30 4543 H 442.613 3.17355 4.87624 0
M  V30 4544 H 441.493 5.07562 5.97788 0
M  V30 4545 N 438.996 -1.55193 0.274407 0
M  V30 4546 C 440.412 -1.59401 -0.0797543 0
M  V30 4547 C 440.612 -1.29162 -1.54659 0
M  V30 4548 O 439.668 -1.05215 -2.29534 0
M  V30 4549 C 440.981 -2.99257 0.294238 0
M  V30 4550 C 442.529 -3.12072 0.240796 0
M  V30 4551 C 443.004 -4.54194 0.589218 0
M  V30 4552 N 444.495 -4.60033 0.540744 0
M  V30 4553 C 445.23 -5.68027 0.783147 0
M  V30 4554 N 444.726 -6.8417 1.09013 0
M  V30 4555 N 446.519 -5.57572 0.711993 0
M  V30 4556 H 438.67 -1.73113 1.23067 0
M  V30 4557 H 440.933 -0.807197 0.497129 0
M  V30 4558 H 440.639 -3.26217 1.31435 0
M  V30 4559 H 440.513 -3.75427 -0.365281 0
M  V30 4560 H 442.9 -2.84877 -0.770024 0
M  V30 4561 H 442.981 -2.38117 0.934563 0
M  V30 4562 H 442.625 -4.82115 1.59772 0
M  V30 4563 H 442.555 -5.26448 -0.126331 0
M  V30 4564 H 445.046 -3.76599 0.313327 0
M  V30 4565 H 445.359 -7.6243 1.26178 0
M  V30 4566 H 443.704 -6.85787 1.12789 0
M  V30 4567 H 446.895 -4.65714 0.472014 0
M  V30 4568 H 447.068 -6.41659 0.90429 0
M  V30 4569 N 440.474 -0.00167713 -1.576 0
M  V30 4570 C 441.384 1.00548 -2.1196 0
M  V30 4571 C 442.4 1.3758 -1.06526 0
M  V30 4572 O 443.576 1.46278 -1.38436 0
M  V30 4573 C 440.641 2.27809 -2.6135 0
M  V30 4574 C 439.702 1.97074 -3.81393 0
M  V30 4575 C 438.935 3.18267 -4.28417 0
M  V30 4576 O 439.158 4.30009 -3.74765 0
M  V30 4577 O 438.092 3.02167 -5.20556 0
M  V30 4578 H 441.918 0.573373 -2.98238 0
M  V30 4579 H 439.503 0.217255 -1.47812 0
M  V30 4580 H 441.385 3.02568 -2.93309 0
M  V30 4581 H 440.06 2.70254 -1.78169 0
M  V30 4582 H 438.967 1.19785 -3.54404 0
M  V30 4583 H 440.3 1.59464 -4.65652 0
M  V30 4584 N 441.952 1.55251 0.271103 0
M  V30 4585 C 443.363 1.66635 0.842007 0
M  V30 4586 C 443.714 0.594631 1.86972 0
M  V30 4587 O 442.839 -0.263532 2.14789 0
M  V30 4588 C 443.434 3.02082 1.53401 0
M  V30 4589 C 441.993 3.15487 2.05293 0
M  V30 4590 C 441.14 2.62438 0.895631 0
M  V30 4591 H 444.091 1.58629 0.0474117 0
M  V30 4592 H 444.112 2.95176 2.40107 0
M  V30 4593 H 443.624 3.80062 0.785786 0
M  V30 4594 H 441.725 2.42284 2.83071 0
M  V30 4595 H 441.838 4.22075 2.26693 0
M  V30 4596 H 440.202 2.19644 1.28953 0
M  V30 4597 H 440.985 3.42923 0.160878 0
M  V30 4598 N 443.43 -0.535701 1.48216 0
M  V30 4599 C 444.676 -1.29375 1.56173 0
M  V30 4600 C 445.009 -1.92804 0.232429 0
M  V30 4601 O 444.284 -1.78992 -0.761048 0
M  V30 4602 C 444.567 -2.38747 2.69577 0
M  V30 4603 C 444.42 -1.80046 4.12193 0
M  V30 4604 C 445.739 -3.40551 2.78771 0
M  V30 4605 H 442.858 -0.469027 0.568491 0
M  V30 4606 H 445.5 -0.597358 1.80365 0
M  V30 4607 H 443.65 -2.98147 2.4908 0
M  V30 4608 H 445.322 -1.24742 4.44114 0
M  V30 4609 H 443.565 -1.10609 4.19462 0
M  V30 4610 H 444.236 -2.59212 4.87353 0
M  V30 4611 H 446.712 -2.91099 2.97322 0
M  V30 4612 H 445.588 -4.1448 3.59857 0
M  V30 4613 H 445.849 -4.00746 1.86696 0
M  V30 4614 N 444.908 -1.36708 -0.784132 0
M  V30 4615 C 445.856 -1.31533 -1.91838 0
M  V30 4616 C 446.85 -0.206205 -1.6814 0
M  V30 4617 O 448.056 -0.373519 -1.76082 0
M  V30 4618 H 444.431 -0.409613 -0.630651 0
M  V30 4619 H 446.402 -2.2731 -1.9332 0
M  V30 4620 C 445.151 -1.12679 -3.28936 0
M  V30 4621 H 444.474 -1.97274 -3.4774 0
M  V30 4622 H 445.914 -1.13106 -4.08636 0
M  V30 4623 C 444.373 0.168281 -3.36479 0
M  V30 4624 O 444.903 1.15625 -3.84699 0
M  V30 4625 N 443.109 0.214762 -2.89805 0
M  V30 4626 H 442.656 -0.589852 -2.50756 0
M  V30 4627 H 442.614 1.08094 -2.95234 0
M  V30 4628 N 446.386 1.0089 -1.21074 0
M  V30 4629 C 447.797 1.56056 -1.02486 0
M  V30 4630 C 448.148 1.91728 0.416506 0
M  V30 4631 O 447.273 1.73066 1.29912 0
M  V30 4632 C 447.868 2.83563 -1.85411 0
M  V30 4633 C 446.427 3.3523 -1.71166 0
M  V30 4634 C 445.574 2.0846 -1.82865 0
M  V30 4635 H 448.525 0.831818 -1.35154 0
M  V30 4636 H 448.546 3.55286 -1.36205 0
M  V30 4637 H 448.058 2.57569 -2.9031 0
M  V30 4638 H 446.159 3.66167 -0.689361 0
M  V30 4639 H 446.272 4.06913 -2.52901 0
M  V30 4640 H 444.636 2.21275 -1.26132 0
M  V30 4641 H 445.419 1.84883 -2.89263 0
M  V30 4642 N 447.864 1.01787 1.20321 0
M  V30 4643 C 449.094 0.72614 1.93419 0
M  V30 4644 C 449.502 -0.717317 1.75075 0
M  V30 4645 O 448.845 -1.49836 1.06278 0
M  V30 4646 C 448.907 0.983621 3.45782 0
M  V30 4647 C 448.571 2.41645 3.87888 0
M  V30 4648 C 449.568 3.39732 3.93545 0
M  V30 4649 C 447.253 2.75752 4.19841 0
M  V30 4650 C 449.247 4.69988 4.30569 0
M  V30 4651 C 446.934 4.06221 4.56539 0
M  V30 4652 C 447.932 5.0315 4.61876 0
M  V30 4653 O 447.62 6.31284 4.97731 0
M  V30 4654 H 447.352 0.265824 0.621541 0
M  V30 4655 H 449.906 1.3623 1.53722 0
M  V30 4656 H 448.136 0.290301 3.85609 0
M  V30 4657 H 449.825 0.683279 4.00108 0
M  V30 4658 H 450.591 3.14718 3.69022 0
M  V30 4659 H 446.47 2.00993 4.14877 0
M  V30 4660 H 450.014 5.45642 4.3465 0
M  V30 4661 H 445.911 4.31013 4.80518 0
M  V30 4662 H 446.679 6.35591 5.15719 0
M  V30 4663 N 449.342 -1.36122 0.79427 0
M  V30 4664 C 450.572 -2.03067 0.380437 0
M  V30 4665 C 450.98 -1.60018 -1.00949 0
M  V30 4666 O 450.323 -0.787425 -1.65968 0
M  V30 4667 C 450.385 -3.57587 0.37034 0
M  V30 4668 C 450.049 -4.23855 1.70867 0
M  V30 4669 C 451.046 -4.46404 2.66496 0
M  V30 4670 C 448.731 -4.61229 1.9893 0
M  V30 4671 C 450.725 -5.05412 3.88378 0
M  V30 4672 C 448.412 -5.19953 3.21079 0
M  V30 4673 C 449.41 -5.41985 4.15621 0
M  V30 4674 O 449.098 -5.99475 5.35616 0
M  V30 4675 H 448.83 -0.658168 0.154243 0
M  V30 4676 H 451.384 -1.7498 1.0757 0
M  V30 4677 H 449.614 -3.84814 -0.381444 0
M  V30 4678 H 451.303 -4.05895 -0.0194894 0
M  V30 4679 H 452.069 -4.17921 2.46103 0
M  V30 4680 H 447.948 -4.43402 1.26158 0
M  V30 4681 H 451.492 -5.22524 4.62185 0
M  V30 4682 H 447.389 -5.47862 3.41347 0
M  V30 4683 H 448.157 -6.17937 5.36745 0
M  V30 4684 N 450.82 -0.546701 -1.47814 0
M  V30 4685 C 452.066 -0.0187684 -2.02791 0
M  V30 4686 C 452.399 1.32338 -1.42128 0
M  V30 4687 O 451.674 1.85867 -0.573023 0
M  V30 4688 C 451.957 0.0854985 -3.59998 0
M  V30 4689 C 451.81 -1.283 -4.31114 0
M  V30 4690 C 453.129 0.80412 -4.32691 0
M  V30 4691 H 450.248 -0.0082946 -0.736953 0
M  V30 4692 H 452.89 -0.706962 -1.76358 0
M  V30 4693 H 451.04 0.671609 -3.82651 0
M  V30 4694 H 452.712 -1.91151 -4.19832 0
M  V30 4695 H 450.955 -1.86049 -3.91878 0
M  V30 4696 H 451.626 -1.16287 -5.39612 0
M  V30 4697 H 454.102 0.306576 -4.14969 0
M  V30 4698 H 452.978 0.846011 -5.42341 0
M  V30 4699 H 453.239 1.85802 -4.01161 0
M  V30 4700 N 452.299 1.55045 -0.282633 0
M  V30 4701 C 453.247 2.24254 0.617478 0
M  V30 4702 C 454.241 1.24215 1.15183 0
M  V30 4703 O 455.447 1.42123 1.10459 0
M  V30 4704 H 451.822 0.719801 0.217693 0
M  V30 4705 H 453.793 2.98398 0.0110076 0
M  V30 4706 C 452.542 2.98281 1.78672 0
M  V30 4707 H 451.865 3.75053 1.38475 0
M  V30 4708 H 453.305 3.50017 2.393 0
M  V30 4709 C 451.764 2.04184 2.67975 0
M  V30 4710 O 452.294 1.59792 3.6855 0
M  V30 4711 N 450.5 1.70526 2.35307 0
M  V30 4712 H 450.047 2.06821 1.53567 0
M  V30 4713 H 450.005 1.07839 2.95327 0
M  V30 4714 N 453.777 0.010035 1.57597 0
M  V30 4715 C 454.74 -0.963029 2.07986 0
M  V30 4716 C 455.74 -1.26619 0.991173 0
M  V30 4717 O 456.93 -1.2097 1.25347 0
M  V30 4718 C 454.062 -2.2851 2.52974 0
M  V30 4719 H 455.255 -0.526971 2.95234 0
M  V30 4720 H 452.808 -0.237639 1.54483 0
M  V30 4721 H 453.543 -2.76784 1.69 0
M  V30 4722 H 453.328 -2.07824 3.32493 0
M  V30 4723 H 454.818 -2.98294 2.9225 0
M  V30 4724 N 455.255 -1.55392 -0.262866 0
M  V30 4725 C 456.503 -1.76127 -0.991147 0
M  V30 4726 C 456.824 -0.571083 -1.8645 0
M  V30 4727 O 456.094 0.413698 -1.91482 0
M  V30 4728 H 454.674 -0.649528 -0.368948 0
M  V30 4729 H 457.336 -1.9281 -0.284655 0
M  V30 4730 H 456.432 -2.6663 -1.62219 0
M  V30 4731 N 456.733 0.527833 -1.48498 0
M  V30 4732 C 457.963 1.30633 -1.60058 0
M  V30 4733 C 458.371 1.87394 -0.260786 0
M  V30 4734 O 457.714 1.67227 0.760317 0
M  V30 4735 C 457.776 2.49361 -2.58958 0
M  V30 4736 C 457.44 2.13671 -4.03972 0
M  V30 4737 C 458.437 1.69217 -4.91591 0
M  V30 4738 C 456.122 2.24129 -4.49524 0
M  V30 4739 C 458.116 1.35689 -6.2279 0
M  V30 4740 C 455.803 1.90212 -5.80743 0
M  V30 4741 C 456.801 1.46063 -6.67199 0
M  V30 4742 O 456.489 1.12593 -7.95976 0
M  V30 4743 H 456.221 0.403444 -0.54241 0
M  V30 4744 H 458.775 0.643233 -1.95068 0
M  V30 4745 H 457.005 3.18659 -2.19073 0
M  V30 4746 H 458.694 3.11421 -2.6033 0
M  V30 4747 H 459.46 1.60607 -4.57636 0
M  V30 4748 H 455.339 2.57447 -3.82416 0
M  V30 4749 H 458.883 1.01157 -6.90227 0
M  V30 4750 H 454.78 1.98464 -6.14233 0
M  V30 4751 H 455.548 1.25972 -8.08748 0
M  V30 4752 N 458.211 1.37122 0.776871 0
M  V30 4753 C 459.174 1.32301 1.8716 0
M  V30 4754 C 460.174 0.228099 1.59174 0
M  V30 4755 O 461.364 0.483642 1.67352 0
M  V30 4756 C 458.496 1.054 3.24197 0
M  V30 4757 H 459.689 2.29673 1.92848 0
M  V30 4758 H 457.242 1.22077 0.97606 0
M  V30 4759 H 457.977 0.0853872 3.24188 0
M  V30 4760 H 457.762 1.84648 3.45901 0
M  V30 4761 H 459.252 1.04664 4.04271 0
M  V30 4762 N 459.689 -1.00246 1.21608 0
M  V30 4763 C 460.619 -2.10921 1.00172 0
M  V30 4764 C 461.6 -1.69938 -0.0741587 0
M  V30 4765 O 462.785 -1.94009 0.0861753 0
M  V30 4766 C 459.915 -3.42618 0.568355 0
M  V30 4767 C 458.869 -3.97407 1.58909 0
M  V30 4768 C 458.195 -5.25038 1.01187 0
M  V30 4769 C 459.495 -4.2918 2.97661 0
M  V30 4770 H 461.189 -2.29112 1.92739 0
M  V30 4771 H 458.735 -1.10101 0.928102 0
M  V30 4772 H 460.688 -4.19444 0.405555 0
M  V30 4773 H 459.412 -3.24227 -0.392961 0
M  V30 4774 H 458.071 -3.22703 1.73949 0
M  V30 4775 H 457.719 -5.02982 0.0421965 0
M  V30 4776 H 457.419 -5.62661 1.6937 0
M  V30 4777 H 458.943 -6.04507 0.860448 0
M  V30 4778 H 460.357 -4.96839 2.86049 0
M  V30 4779 H 458.754 -4.77952 3.6288 0
M  V30 4780 H 459.824 -3.3735 3.48315 0
M  V30 4781 N 461.167 -1.02423 -1.1978 0
M  V30 4782 C 462.13 -0.605703 -2.21052 0
M  V30 4783 C 463.13 0.328209 -1.57415 0
M  V30 4784 O 464.32 0.115853 -1.73814 0
M  V30 4785 C 461.452 0.114366 -3.40708 0
M  V30 4786 H 462.645 -1.5017 -2.59594 0
M  V30 4787 H 460.198 -0.814888 -1.33376 0
M  V30 4788 H 460.933 1.02492 -3.07678 0
M  V30 4789 H 460.718 -0.556641 -3.88129 0
M  V30 4790 H 462.208 0.394272 -4.15735 0
M  V30 4791 N 462.645 1.35699 -0.801477 0
M  V30 4792 C 464.056 1.81415 -0.441073 0
M  V30 4793 C 464.407 1.66595 1.03636 0
M  V30 4794 O 463.532 1.19369 1.80499 0
M  V30 4795 C 464.127 3.29369 -0.793819 0
M  V30 4796 C 462.686 3.73248 -0.486083 0
M  V30 4797 C 461.833 2.57775 -1.02213 0
M  V30 4798 H 464.784 1.23749 -0.993572 0
M  V30 4799 H 464.805 3.80395 -0.0894158 0
M  V30 4800 H 464.317 3.40123 -1.86917 0
M  V30 4801 H 462.418 3.68046 0.580735 0
M  V30 4802 H 462.531 4.68222 -1.01513 0
M  V30 4803 H 460.895 2.50788 -0.444712 0
M  V30 4804 H 461.678 2.71309 -2.10348 0
M  V30 4805 N 464.123 0.554532 1.47522 0
M  V30 4806 C 465.086 -0.184174 2.28459 0
M  V30 4807 C 466.086 -0.845195 1.36796 0
M  V30 4808 O 467.276 -0.701467 1.59452 0
M  V30 4809 C 464.408 -1.26903 3.16399 0
M  V30 4810 H 465.601 0.526751 2.95238 0
M  V30 4811 H 463.154 0.311375 1.53167 0
M  V30 4812 H 463.889 -2.01244 2.54306 0
M  V30 4813 H 463.674 -0.799883 3.83854 0
M  V30 4814 H 465.164 -1.78794 3.77389 0
M  V30 4815 N 465.601 -1.54893 0.290851 0
M  V30 4816 C 466.829 -2.04343 -0.324288 0
M  V30 4817 C 467.244 -1.16859 -1.48289 0
M  V30 4818 O 466.601 -0.192018 -1.81487 0
M  V30 4819 C 466.652 -3.52756 -0.79026 0
M  V30 4820 O 466.373 -4.36913 0.322213 0
M  V30 4821 C 467.874 -4.18161 -1.4716 0
M  V30 4822 H 465.094 -0.667135 -0.0719173 0
M  V30 4823 H 467.638 -1.99981 0.427529 0
M  V30 4824 H 465.793 -3.57511 -1.49213 0
M  V30 4825 H 466.207 -5.24486 -0.0387372 0
M  V30 4826 H 467.681 -5.23562 -1.7489 0
M  V30 4827 H 468.158 -3.67282 -2.40834 0
M  V30 4828 H 468.764 -4.17454 -0.813178 0
M  V30 4829 N 467.08 -0.0183926 -1.57589 0
M  V30 4830 C 468.305 0.676634 -1.96052 0
M  V30 4831 C 468.73 1.6548 -0.894307 0
M  V30 4832 O 468.088 1.80712 0.145849 0
M  V30 4833 C 468.136 1.36872 -3.33614 0
M  V30 4834 O 467.24 2.48372 -3.29219 0
M  V30 4835 H 466.581 0.1786 -0.63953 0
M  V30 4836 H 469.111 -0.077056 -2.04455 0
M  V30 4837 H 469.121 1.72797 -3.69601 0
M  V30 4838 H 467.796 0.651636 -4.10763 0
M  V30 4839 H 466.373 2.14639 -3.04934 0
M  V30 4840 N 468.558 1.5553 0.254621 0
M  V30 4841 C 469.521 1.88872 1.29846 0
M  V30 4842 C 470.521 0.764591 1.41459 0
M  V30 4843 O 471.711 1.03265 1.40293 0
M  V30 4844 C 468.843 2.11032 2.67728 0
M  V30 4845 H 470.036 2.82201 1.01502 0
M  V30 4846 H 467.589 1.48303 0.493556 0
M  V30 4847 H 468.324 1.20146 3.01223 0
M  V30 4848 H 468.109 2.92895 2.60682 0
M  V30 4849 H 469.599 2.38038 3.43115 0
M  V30 4850 N 470.036 -0.519951 1.48776 0
M  V30 4851 C 470.984 -1.64443 1.64503 0
M  V30 4852 C 471.978 -1.61501 0.511248 0
M  V30 4853 O 473.184 -1.66238 0.690294 0
M  V30 4854 H 469.559 -0.544776 0.518385 0
M  V30 4855 H 471.53 -1.48325 2.58925 0
M  V30 4856 C 470.279 -3.02673 1.71127 0
M  V30 4857 H 469.602 -3.05635 2.57735 0
M  V30 4858 H 471.042 -3.80941 1.86172 0
M  V30 4859 C 469.501 -3.33854 0.452032 0
M  V30 4860 O 470.031 -3.99385 -0.430678 0
M  V30 4861 N 468.237 -2.88825 0.32069 0
M  V30 4862 H 467.784 -2.35674 1.03998 0
M  V30 4863 H 467.742 -3.10056 -0.520814 0
M  V30 4864 N 471.514 -1.37532 -0.769588 0
M  V30 4865 C 472.791 -1.23392 -1.51768 0
M  V30 4866 C 473.171 0.17157 -2.10402 0
M  V30 4867 O 472.519 1.17943 -1.95708 0
M  V30 4868 C 472.729 -2.33163 -2.59685 0
M  V30 4869 C 474.077 -2.70809 -3.27028 0
M  V30 4870 O 475.101 -2.32355 -2.69981 0
M  V30 4871 O 473.96 -3.37066 -4.30173 0
M  V30 4872 H 471.054 -0.481617 -0.67229 0
M  V30 4873 H 473.6 -1.49318 -0.806368 0
M  V30 4874 H 472.372 -3.27273 -2.14494 0
M  V30 4875 H 471.995 -2.08713 -3.38415 0
M  V30 4876 N 472.992 0.995999 -1.22138 0
M  V30 4877 C 474.217 1.77601 -1.0711 0
M  V30 4878 C 474.642 1.84339 0.374264 0
M  V30 4879 O 474 1.29359 1.27028 0
M  V30 4880 C 474.048 3.18897 -1.68336 0
M  V30 4881 O 473.152 4.01663 -0.934928 0
M  V30 4882 H 472.493 0.547011 -0.376397 0
M  V30 4883 H 475.023 1.25137 -1.6187 0
M  V30 4884 H 475.033 3.69539 -1.72931 0
M  V30 4885 H 473.708 3.13308 -2.73516 0
M  V30 4886 H 472.285 3.60204 -0.964751 0
M  V30 4887 N 474.47 1.03057 1.19235 0
M  V30 4888 C 475.38 0.622922 2.26179 0
M  V30 4889 C 476.396 -0.346113 1.70523 0
M  V30 4890 O 477.572 -0.203572 2.00369 0
M  V30 4891 C 474.637 -0.0182063 3.46695 0
M  V30 4892 C 473.698 0.998546 4.17526 0
M  V30 4893 C 472.931 0.387917 5.32288 0
M  V30 4894 O 473.154 -0.808668 5.64639 0
M  V30 4895 O 472.088 1.1116 5.91546 0
M  V30 4896 H 475.914 1.51363 2.63292 0
M  V30 4897 H 473.499 0.800856 1.26122 0
M  V30 4898 H 475.381 -0.375606 4.19723 0
M  V30 4899 H 474.056 -0.882895 3.11427 0
M  V30 4900 H 472.963 1.40756 3.4661 0
M  V30 4901 H 474.296 1.83366 4.56769 0
M  V30 4902 N 475.948 -1.35272 0.808662 0
M  V30 4903 C 476.88 -2.28507 0.178149 0
M  V30 4904 C 477.893 -1.50377 -0.623754 0
M  V30 4905 O 479.082 -1.72583 -0.455774 0
M  V30 4906 C 476.182 -3.30038 -0.769959 0
M  V30 4907 C 475.355 -4.37398 -0.0139749 0
M  V30 4908 C 474.414 -5.18775 -0.880875 0
M  V30 4909 O 473.44 -5.68236 -0.331059 0
M  V30 4910 N 474.642 -5.37087 -2.20267 0
M  V30 4911 H 477.407 -2.83255 0.979106 0
M  V30 4912 H 474.968 -1.47643 0.664308 0
M  V30 4913 H 476.96 -3.81371 -1.35418 0
M  V30 4914 H 475.53 -2.75789 -1.47171 0
M  V30 4915 H 474.75 -3.86971 0.751468 0
M  V30 4916 H 476.038 -5.06268 0.506965 0
M  V30 4917 H 475.436 -4.9855 -2.67328 0
M  V30 4918 H 473.993 -5.91593 -2.73608 0
M  V30 4919 N 477.426 -0.562348 -1.47226 0
M  V30 4920 C 478.358 0.220011 -2.28142 0
M  V30 4921 C 479.371 0.874596 -1.37312 0
M  V30 4922 O 480.56 0.747583 -1.62091 0
M  V30 4923 C 477.66 1.32953 -3.11732 0
M  V30 4924 C 476.833 0.770759 -4.30556 0
M  V30 4925 C 475.892 1.76541 -4.95701 0
M  V30 4926 O 474.918 1.3095 -5.53932 0
M  V30 4927 N 476.12 3.09896 -4.90861 0
M  V30 4928 H 478.885 -0.474107 -2.95926 0
M  V30 4929 H 476.446 -0.398761 -1.56912 0
M  V30 4930 H 478.438 1.99378 -3.5218 0
M  V30 4931 H 477.008 1.92681 -2.46156 0
M  V30 4932 H 476.228 -0.0704056 -3.94137 0
M  V30 4933 H 477.516 0.376872 -5.07402 0
M  V30 4934 H 476.914 3.49577 -4.44761 0
M  V30 4935 H 475.471 3.71865 -5.35313 0
M  V30 4936 N 478.904 1.54736 -0.299062 0
M  V30 4937 C 480.129 2.04975 0.316254 0
M  V30 4938 C 480.554 1.17501 1.46885 0
M  V30 4939 O 479.912 0.178678 1.80417 0
M  V30 4940 C 479.96 3.52672 0.751997 0
M  V30 4941 O 479.064 3.68226 1.85697 0
M  V30 4942 H 478.405 0.661126 0.0617175 0
M  V30 4943 H 480.935 1.99805 -0.440341 0
M  V30 4944 H 480.945 3.94488 1.04133 0
M  V30 4945 H 479.62 4.158 -0.0911482 0
M  V30 4946 H 478.197 3.38316 1.56834 0
M  V30 4947 N 480.382 0.0267497 1.57577 0
M  V30 4948 C 481.312 -0.954308 2.13108 0
M  V30 4949 C 482.293 -1.34088 1.04663 0
M  V30 4950 O 483.478 -1.41992 1.32484 0
M  V30 4951 C 480.608 -2.23744 2.65624 0
M  V30 4952 C 479.562 -1.99168 3.78835 0
M  V30 4953 C 478.888 -3.33726 4.17769 0
M  V30 4954 C 480.188 -1.33277 5.0501 0
M  V30 4955 H 481.882 -0.491848 2.95332 0
M  V30 4956 H 479.428 -0.23514 1.42067 0
M  V30 4957 H 481.381 -2.92754 3.03106 0
M  V30 4958 H 480.105 -2.72151 1.80558 0
M  V30 4959 H 478.764 -1.32577 3.41788 0
M  V30 4960 H 478.412 -3.79888 3.29688 0
M  V30 4961 H 478.112 -3.18089 4.94058 0
M  V30 4962 H 479.636 -4.04008 4.57832 0
M  V30 4963 H 481.05 -1.92283 5.40093 0
M  V30 4964 H 479.447 -1.28045 5.8628 0
M  V30 4965 H 480.517 -0.305411 4.83937 0
M  V30 4966 N 481.861 -1.55662 -0.24637 0
M  V30 4967 C 483.086 -1.81914 -0.996093 0
M  V30 4968 C 483.511 -0.603875 -1.78143 0
M  V30 4969 O 482.869 0.447091 -1.75701 0
M  V30 4970 C 482.917 -3.05908 -1.90925 0
M  V30 4971 O 482.021 -2.82861 -3.00105 0
M  V30 4972 H 481.362 -0.600481 -0.283406 0
M  V30 4973 H 483.892 -2.02848 -0.267199 0
M  V30 4974 H 483.902 -3.35356 -2.3238 0
M  V30 4975 H 482.577 -3.93999 -1.33183 0
M  V30 4976 H 481.154 -2.64583 -2.62775 0
M  V30 4977 N 483.339 0.512053 -1.4905 0
M  V30 4978 C 484.564 1.2959 -1.6193 0
M  V30 4979 C 484.989 1.85906 -0.286454 0
M  V30 4980 O 484.347 1.65312 0.744426 0
M  V30 4981 C 484.395 2.40987 -2.68249 0
M  V30 4982 O 483.499 3.44531 -2.26654 0
M  V30 4983 H 482.84 0.383053 -0.542371 0
M  V30 4984 H 485.37 0.614231 -1.95162 0
M  V30 4985 H 485.38 2.86913 -2.90078 0
M  V30 4986 H 484.055 1.99361 -3.65004 0
M  V30 4987 H 482.632 3.046 -2.15112 0
M  V30 4988 N 484.817 1.37938 0.762283 0
M  V30 4989 C 486.094 1.24196 1.51112 0
M  V30 4990 C 486.474 -0.160409 2.1049 0
M  V30 4991 O 485.822 -1.16904 1.96331 0
M  V30 4992 C 486.032 2.34537 2.58445 0
M  V30 4993 C 487.38 2.7254 3.25588 0
M  V30 4994 O 488.404 2.33783 2.68745 0
M  V30 4995 O 487.263 3.39343 4.28379 0
M  V30 4996 H 484.357 0.485175 0.669727 0
M  V30 4997 H 486.903 1.49743 0.798438 0
M  V30 4998 H 485.675 3.28406 2.12756 0
M  V30 4999 H 485.298 2.10505 3.37303 0
M  V30 5000 N 486.295 -0.989507 1.22664 0
M  V30 5001 C 487.258 -2.06183 1.00106 0
M  V30 5002 C 488.258 -1.60765 -0.0337726 0
M  V30 5003 O 489.448 -1.72989 0.205072 0
M  V30 5004 C 486.58 -3.37021 0.51279 0
M  V30 5005 H 487.773 -2.27629 1.95256 0
M  V30 5006 H 485.326 -1.16158 1.0458 0
M  V30 5007 H 486.061 -3.21261 -0.442917 0
M  V30 5008 H 485.846 -3.71323 1.25942 0
M  V30 5009 H 487.336 -4.1591 0.375315 0
M  V30 5010 N 487.773 -1.03688 -1.18687 0
M  V30 5011 C 489.05 -0.652397 -1.84399 0
M  V30 5012 C 489.43 0.868386 -1.92412 0
M  V30 5013 O 488.778 1.76832 -1.44716 0
M  V30 5014 C 488.988 -1.3238 -3.22919 0
M  V30 5015 C 490.336 -1.45216 -3.98996 0
M  V30 5016 O 491.36 -1.2816 -3.32345 0
M  V30 5017 O 490.219 -1.72975 -5.18403 0
M  V30 5018 H 487.313 -0.227793 -0.795009 0
M  V30 5019 H 489.859 -1.13553 -1.2611 0
M  V30 5020 H 488.631 -2.36202 -3.11968 0
M  V30 5021 H 488.254 -0.829039 -3.88861 0
M  V30 5022 N 489.251 1.34841 -0.815825 0
M  V30 5023 C 490.479 2.0273 -0.413294 0
M  V30 5024 C 490.894 1.61459 0.978599 0
M  V30 5025 O 490.251 0.816584 1.63212 0
M  V30 5026 C 490.302 3.58058 -0.497676 0
M  V30 5027 O 490.023 3.97832 -1.8347 0
M  V30 5028 C 491.524 4.4321 -0.0891339 0
M  V30 5029 H 488.744 0.649956 -0.166728 0
M  V30 5030 H 491.288 1.72267 -1.10201 0
M  V30 5031 H 489.443 3.87136 0.142886 0
M  V30 5032 H 489.857 4.92501 -1.80396 0
M  V30 5033 H 491.331 5.5164 -0.199274 0
M  V30 5034 H 491.808 4.28432 0.966571 0
M  V30 5035 H 492.414 4.19446 -0.703214 0
M  V30 5036 N 490.729 0.570148 1.46925 0
M  V30 5037 C 491.659 -0.158274 2.32963 0
M  V30 5038 C 492.64 -0.896093 1.44583 0
M  V30 5039 O 493.825 -0.874022 1.7342 0
M  V30 5040 C 490.955 -1.18055 3.26619 0
M  V30 5041 C 489.909 -0.558379 4.24342 0
M  V30 5042 C 489.235 -1.68623 5.07415 0
M  V30 5043 C 490.535 0.496295 5.19937 0
M  V30 5044 H 492.229 0.560046 2.94115 0
M  V30 5045 H 489.775 0.270775 1.41431 0
M  V30 5046 H 491.728 -1.69841 3.85658 0
M  V30 5047 H 490.452 -1.92899 2.63548 0
M  V30 5048 H 489.111 -0.0617157 3.66548 0
M  V30 5049 H 488.759 -2.42402 4.40738 0
M  V30 5050 H 488.459 -1.27564 5.73586 0
M  V30 5051 H 489.983 -2.20709 5.69315 0
M  V30 5052 H 491.397 0.0640052 5.73264 0
M  V30 5053 H 489.794 0.82649 5.94381 0
M  V30 5054 H 490.864 1.38735 4.6463 0
M  V30 5055 N 492.207 -1.54576 0.307264 0
M  V30 5056 C 493.432 -2.05139 -0.305379 0
M  V30 5057 C 493.857 -1.18278 -1.46259 0
M  V30 5058 O 493.215 -0.188243 -1.8032 0
M  V30 5059 C 493.263 -3.53066 -0.733283 0
M  V30 5060 O 492.367 -3.69206 -1.83741 0
M  V30 5061 H 491.708 -0.661444 -0.0582105 0
M  V30 5062 H 494.238 -1.99569 0.450931 0
M  V30 5063 H 494.248 -3.95034 -1.02039 0
M  V30 5064 H 492.923 -4.15746 0.113198 0
M  V30 5065 H 491.5 -3.39143 -1.55037 0
M  V30 5066 N 493.685 -0.035106 -1.57561 0
M  V30 5067 C 494.615 0.942993 -2.13612 0
M  V30 5068 C 495.596 1.33531 -1.05373 0
M  V30 5069 O 496.781 1.41287 -1.33235 0
M  V30 5070 C 493.911 2.22332 -2.66807 0
M  V30 5071 C 492.865 1.97156 -3.79886 0
M  V30 5072 C 492.191 3.31506 -4.19533 0
M  V30 5073 C 493.491 1.30596 -5.05709 0
M  V30 5074 H 495.185 0.476179 -2.95589 0
M  V30 5075 H 492.731 0.227602 -1.4219 0
M  V30 5076 H 494.684 2.91142 -3.04654 0
M  V30 5077 H 493.408 2.7119 -1.81999 0
M  V30 5078 H 492.067 1.30763 -3.42486 0
M  V30 5079 H 491.715 3.78134 -3.31698 0
M  V30 5080 H 491.415 3.15465 -4.95738 0
M  V30 5081 H 492.939 4.01574 -4.59968 0
M  V30 5082 H 494.353 1.89416 -5.41105 0
M  V30 5083 H 492.75 1.24934 -5.86951 0
M  V30 5084 H 493.82 0.279742 -4.84092 0
M  V30 5085 N 495.163 1.55791 0.238111 0
M  V30 5086 C 496.391 1.82098 0.982233 0
M  V30 5087 C 496.806 0.612025 1.78605 0
M  V30 5088 O 496.163 -0.419381 1.77616 0
M  V30 5089 C 496.214 3.0673 1.91309 0
M  V30 5090 O 495.935 4.2296 1.14179 0
M  V30 5091 C 497.436 3.45903 2.77248 0
M  V30 5092 H 494.656 0.605748 0.288635 0
M  V30 5093 H 497.2 2.02862 0.258341 0
M  V30 5094 H 495.355 2.87991 2.59114 0
M  V30 5095 H 495.769 4.93653 1.7722 0
M  V30 5096 H 497.243 4.36189 3.38295 0
M  V30 5097 H 497.72 2.66891 3.48806 0
M  V30 5098 H 498.326 3.67024 2.14881 0
M  V30 5099 N 496.642 -0.504142 1.49319 0
M  V30 5100 C 497.919 -1.26548 1.49147 0
M  V30 5101 C 498.299 -2.09977 0.21744 0
M  V30 5102 O 497.647 -2.14028 -0.800269 0
M  V30 5103 C 497.857 -2.12489 2.76857 0
M  V30 5104 C 499.205 -2.7178 3.26222 0
M  V30 5105 O 500.229 -2.22758 2.77952 0
M  V30 5106 O 499.088 -3.61015 4.10281 0
M  V30 5107 H 496.182 -0.572495 0.596806 0
M  V30 5108 H 498.728 -0.51867 1.61579 0
M  V30 5109 H 497.5 -1.50796 3.61077 0
M  V30 5110 H 497.123 -2.94368 2.6727 0
M  V30 5111 N 498.12 -1.38341 -0.754957 0
M  V30 5112 C 499.345 -1.37882 -1.5493 0
M  V30 5113 C 499.77 0.0296385 -1.88077 0
M  V30 5114 O 499.128 1.01133 -1.50472 0
M  V30 5115 C 499.176 -2.23996 -2.82592 0
M  V30 5116 O 498.28 -1.65612 -3.77686 0
M  V30 5117 H 497.621 -0.470384 -0.468652 0
M  V30 5118 H 500.151 -1.82084 -0.933082 0
M  V30 5119 H 500.161 -2.37806 -3.3153 0
M  V30 5120 H 498.836 -3.26365 -2.57796 0
M  V30 5121 H 497.413 -1.60936 -3.36384 0
M  V30 5122 N 499.598 0.982988 -1.23187 0
M  V30 5123 C 500.823 1.76455 -1.08988 0
M  V30 5124 C 501.248 1.84726 0.354691 0
M  V30 5125 O 500.606 1.30699 1.25649 0
M  V30 5126 C 500.654 3.17094 -1.71708 0
M  V30 5127 O 499.758 4.00648 -0.977477 0
M  V30 5128 H 499.099 0.542988 -0.382177 0
M  V30 5129 H 501.629 1.23413 -1.63188 0
M  V30 5130 H 501.639 3.67684 -1.76841 0
M  V30 5131 H 500.314 3.10389 -2.76823 0
M  V30 5132 H 498.891 3.59161 -1.0029 0
M  V30 5133 N 501.076 1.04316 1.18135 0
M  V30 5134 C 502.322 0.749128 1.88457 0
M  V30 5135 C 502.655 -0.72149 1.803 0
M  V30 5136 O 501.93 -1.52676 1.205 0
M  V30 5137 C 502.213 1.21905 3.38838 0
M  V30 5138 C 502.066 2.75195 3.55792 0
M  V30 5139 C 503.385 0.811085 4.32561 0
M  V30 5140 H 500.504 0.273611 0.684329 0
M  V30 5141 H 503.146 1.29561 1.38975 0
M  V30 5142 H 501.296 0.754137 3.8111 0
M  V30 5143 H 502.968 3.29743 3.22595 0
M  V30 5144 H 501.211 3.14899 2.98364 0
M  V30 5145 H 501.882 3.03135 4.61317 0
M  V30 5146 H 504.358 1.21118 3.98082 0
M  V30 5147 H 503.234 1.16761 5.36338 0
M  V30 5148 H 503.495 -0.285596 4.41177 0
M  V30 5149 N 502.554 -1.34406 0.822964 0
M  V30 5150 C 503.831 -1.92733 0.333641 0
M  V30 5151 C 504.211 -1.75107 -1.17901 0
M  V30 5152 O 503.559 -1.12983 -1.98613 0
M  V30 5153 C 503.769 -3.40557 0.763023 0
M  V30 5154 C 505.117 -4.17709 0.761879 0
M  V30 5155 O 506.141 -3.49141 0.705606 0
M  V30 5156 O 505 -5.40082 0.835109 0
M  V30 5157 H 502.094 -0.821964 0.0911249 0
M  V30 5158 H 504.64 -1.4338 0.907757 0
M  V30 5159 H 503.412 -3.47187 1.8049 0
M  V30 5160 H 503.035 -3.97259 0.164605 0
M  V30 5161 N 504.032 -0.577932 -1.46621 0
M  V30 5162 C 505.28 -0.061566 -2.02006 0
M  V30 5163 C 505.601 1.30117 -1.4524 0
M  V30 5164 O 504.871 1.85313 -0.63529 0
M  V30 5165 H 503.451 -0.0197692 -0.746738 0
M  V30 5166 H 506.113 -0.752631 -1.79782 0
M  V30 5167 H 505.209 0.0110238 -3.12098 0
M  V30 5168 N 505.51 1.54411 -0.315457 0
M  V30 5169 C 506.759 1.99599 0.290395 0
M  V30 5170 C 507.072 1.20746 1.53882 0
M  V30 5171 O 508.278 1.56272 2.22017 0
M  V30 5172 C 506.734 3.5539 0.56797 0
M  V30 5173 C 506.342 4.43068 -0.662945 0
M  V30 5174 C 508.086 4.09067 1.13422 0
M  V30 5175 C 505.993 5.90317 -0.357722 0
M  V30 5176 H 504.923 0.745592 0.112286 0
M  V30 5177 H 507.574 1.78477 -0.426418 0
M  V30 5178 H 505.956 3.72468 1.34476 0
M  V30 5179 H 507.13 4.37765 -1.43869 0
M  V30 5180 H 505.445 4.00238 -1.14884 0
M  V30 5181 H 508.042 5.16663 1.37707 0
M  V30 5182 H 508.385 3.60552 2.08106 0
M  V30 5183 H 508.918 3.95589 0.418805 0
M  V30 5184 H 505.657 6.4301 -1.27351 0
M  V30 5185 H 505.177 5.98592 0.380472 0
M  V30 5186 H 506.856 6.4699 0.0354284 0
M  V30 5187 N 506.988 0.0434614 1.5754 0
M  V30 5188 C 508.399 -0.493343 1.80064 0
M  V30 5189 C 508.75 -1.71388 0.955023 0
M  V30 5190 O 507.875 -2.15736 0.169434 0
M  V30 5191 C 508.47 -0.90179 3.26578 0
M  V30 5192 C 507.029 -1.38362 3.50047 0
M  V30 5193 C 506.176 -0.355129 2.75017 0
M  V30 5194 H 509.127 0.2694 1.56397 0
M  V30 5195 H 509.148 -1.76523 3.37075 0
M  V30 5196 H 508.66 -0.013271 3.88098 0
M  V30 5197 H 506.761 -2.29159 2.93798 0
M  V30 5198 H 506.874 -1.3811 4.58762 0
M  V30 5199 H 505.238 -0.826348 2.40922 0
M  V30 5200 H 506.021 0.525172 3.39259 0
M  V30 5201 N 508.466 -1.55915 -0.229846 0
M  V30 5202 C 509.877 -1.68809 -0.797531 0
M  V30 5203 C 510.228 -0.643995 -1.8533 0
M  V30 5204 O 509.353 0.206492 -2.15413 0
M  V30 5205 C 509.948 -3.06043 -1.45338 0
M  V30 5206 C 508.507 -3.20819 -1.96856 0
M  V30 5207 C 507.654 -2.6472 -0.825736 0
M  V30 5208 H 510.605 -1.58699 -0.00533733 0
M  V30 5209 H 510.626 -3.01438 -2.32196 0
M  V30 5210 H 510.138 -3.82012 -0.684743 0
M  V30 5211 H 508.239 -2.49704 -2.76548 0
M  V30 5212 H 508.352 -4.27937 -2.15423 0
M  V30 5213 H 506.716 -2.22985 -1.23084 0
M  V30 5214 H 507.499 -3.43229 -0.0699019 0
M  V30 5215 N 509.944 0.496216 -1.49584 0
M  V30 5216 C 511.174 1.27209 -1.62793 0
M  V30 5217 C 511.582 1.86799 -0.300476 0
M  V30 5218 O 510.925 1.68802 0.724674 0
M  V30 5219 C 510.987 2.43812 -2.64189 0
M  V30 5220 C 510.651 2.05055 -4.08414 0
M  V30 5221 C 511.648 1.58752 -4.9507 0
M  V30 5222 C 509.333 2.14543 -4.54177 0
M  V30 5223 C 511.327 1.22448 -6.25528 0
M  V30 5224 C 509.014 1.77851 -5.84647 0
M  V30 5225 C 510.012 1.31878 -6.70147 0
M  V30 5226 O 509.7 0.956834 -7.98185 0
M  V30 5227 H 509.432 0.391848 -0.550846 0
M  V30 5228 H 511.986 0.601712 -1.96389 0
M  V30 5229 H 510.216 3.13941 -2.25783 0
M  V30 5230 H 511.905 3.05829 -2.66877 0
M  V30 5231 H 512.671 1.50863 -4.60939 0
M  V30 5232 H 508.55 2.49277 -3.87791 0
M  V30 5233 H 512.094 0.864933 -6.92217 0
M  V30 5234 H 507.991 1.8539 -6.18305 0
M  V30 5235 H 508.759 1.08789 -8.11238 0
M  V30 5236 N 511.423 1.38739 0.74761 0
M  V30 5237 C 512.839 1.20067 1.05148 0
M  V30 5238 C 513.039 0.0534835 2.01429 0
M  V30 5239 O 512.095 -0.59886 2.45296 0
M  V30 5240 C 513.408 2.52957 1.62584 0
M  V30 5241 C 514.956 2.59692 1.74726 0
M  V30 5242 C 515.431 3.92772 2.35573 0
M  V30 5243 N 516.922 3.94343 2.42997 0
M  V30 5244 C 517.657 4.9408 2.90985 0
M  V30 5245 N 517.153 6.04214 3.38965 0
M  V30 5246 N 518.946 4.81466 2.9008 0
M  V30 5247 H 511.097 2.12121 0.108808 0
M  V30 5248 H 513.36 0.941491 0.110899 0
M  V30 5249 H 513.066 3.37389 0.993051 0
M  V30 5250 H 512.94 2.71779 2.61565 0
M  V30 5251 H 515.327 1.75651 2.3713 0
M  V30 5252 H 515.408 2.44731 0.744326 0
M  V30 5253 H 515.052 4.77238 1.738 0
M  V30 5254 H 514.982 4.05046 3.36519 0
M  V30 5255 H 517.473 3.14799 2.0907 0
M  V30 5256 H 517.786 6.76241 3.74056 0
M  V30 5257 H 516.131 6.07825 3.37007 0
M  V30 5258 H 519.322 3.94535 2.51912 0
M  V30 5259 H 519.495 5.59344 3.27166 0
M  V30 5260 N 512.901 -0.976442 1.23707 0
M  V30 5261 C 514.15 -1.71254 1.06559 0
M  V30 5262 C 514.463 -1.91528 -0.397024 0
M  V30 5263 O 515.669 -2.62625 -0.688518 0
M  V30 5264 C 514.125 -3.08207 1.8584 0
M  V30 5265 C 513.733 -2.95806 3.36456 0
M  V30 5266 C 515.477 -3.85749 1.77194 0
M  V30 5267 C 513.384 -4.28015 4.08114 0
M  V30 5268 H 512.314 -0.642171 0.395136 0
M  V30 5269 H 514.965 -1.08877 1.4771 0
M  V30 5270 H 513.347 -3.71363 1.37498 0
M  V30 5271 H 514.521 -2.41716 3.92314 0
M  V30 5272 H 512.836 -2.31736 3.45959 0
M  V30 5273 H 515.433 -4.83633 2.28041 0
M  V30 5274 H 515.776 -4.09752 0.735477 0
M  V30 5275 H 516.309 -3.29303 2.23169 0
M  V30 5276 H 513.048 -4.09208 5.12083 0
M  V30 5277 H 512.568 -4.81955 3.57043 0
M  V30 5278 H 514.247 -4.96681 4.14629 0
M  V30 5279 N 514.379 -1.04941 -1.1758 0
M  V30 5280 C 515.795 -0.770282 -1.39781 0
M  V30 5281 C 515.995 0.636417 -1.91186 0
M  V30 5282 O 515.051 1.39923 -2.10185 0
M  V30 5283 C 516.364 -1.82376 -2.3908 0
M  V30 5284 C 517.912 -1.84569 -2.52791 0
M  V30 5285 C 518.387 -2.88933 -3.55361 0
M  V30 5286 N 519.878 -2.8788 -3.62877 0
M  V30 5287 C 520.613 -3.65282 -4.41992 0
M  V30 5288 N 520.109 -4.52461 -5.24643 0
M  V30 5289 N 521.902 -3.53732 -4.36841 0
M  V30 5290 H 514.053 -1.95705 -0.825438 0
M  V30 5291 H 516.316 -0.847284 -0.425222 0
M  V30 5292 H 516.022 -2.83323 -2.08376 0
M  V30 5293 H 515.896 -1.66327 -3.38549 0
M  V30 5294 H 518.283 -0.842879 -2.82807 0
M  V30 5295 H 518.364 -2.04696 -1.53406 0
M  V30 5296 H 518.008 -3.89398 -3.26085 0
M  V30 5297 H 517.938 -2.66059 -4.54445 0
M  V30 5298 H 520.429 -2.24666 -3.03864 0
M  V30 5299 H 520.742 -5.08211 -5.82187 0
M  V30 5300 H 519.087 -4.56524 -5.24033 0
M  V30 5301 H 522.278 -2.85021 -3.71323 0
M  V30 5302 H 522.451 -4.14302 -4.98255 0
M  V30 5303 N 515.857 1.33968 -0.830081 0
M  V30 5304 C 516.804 2.29387 -0.255008 0
M  V30 5305 C 517.774 1.53923 0.624243 0
M  V30 5306 O 518.959 1.82262 0.564372 0
M  V30 5307 C 516.099 3.4034 0.571209 0
M  V30 5308 C 515.212 4.30729 -0.331083 0
M  V30 5309 C 514.347 5.2879 0.505389 0
M  V30 5310 C 513.386 6.10819 -0.395843 0
M  V30 5311 N 512.523 7.00948 0.401979 0
M  V30 5312 H 517.363 2.77972 -1.07404 0
M  V30 5313 H 514.9 1.36785 -0.541133 0
M  V30 5314 H 516.858 4.03361 1.06562 0
M  V30 5315 H 515.488 2.9297 1.35529 0
M  V30 5316 H 514.54 3.68507 -0.943759 0
M  V30 5317 H 515.852 4.88181 -1.02377 0
M  V30 5318 H 515.006 5.97297 1.06399 0
M  V30 5319 H 513.745 4.71894 1.23155 0
M  V30 5320 H 512.75 5.41238 -0.966529 0
M  V30 5321 H 513.975 6.69797 -1.12023 0
M  V30 5322 H 511.921 6.46512 1.11168 0
M  V30 5323 H 511.838 7.55643 -0.232167 0
M  V30 5324 H 513.106 7.73774 0.943102 0
M  V30 5325 N 517.335 0.585699 1.46312 0
M  V30 5326 C 518.267 -0.183687 2.28463 0
M  V30 5327 C 519.28 -0.85264 1.38686 0
M  V30 5328 O 520.469 -0.721701 1.6326 0
M  V30 5329 C 517.569 -1.27977 3.13808 0
M  V30 5330 C 516.742 -0.702164 4.31727 0
M  V30 5331 C 515.801 -1.68633 4.98447 0
M  V30 5332 O 514.827 -1.22121 5.55945 0
M  V30 5333 N 516.029 -3.02047 4.95729 0
M  V30 5334 H 518.794 0.521127 2.95134 0
M  V30 5335 H 516.355 0.423673 1.56258 0
M  V30 5336 H 518.347 -1.9375 3.55307 0
M  V30 5337 H 516.917 -1.8874 2.4919 0
M  V30 5338 H 516.137 0.1331 3.93975 0
M  V30 5339 H 517.425 -0.296101 5.07938 0
M  V30 5340 H 516.823 -3.42457 4.50266 0
M  V30 5341 H 515.38 -3.63301 5.41161 0
M  V30 5342 N 518.813 -1.54241 0.323641 0
M  V30 5343 C 519.763 -2.21071 -0.557833 0
M  V30 5344 C 520.747 -1.19126 -1.08157 0
M  V30 5345 O 521.939 -1.44755 -1.01857 0
M  V30 5346 C 519.068 -2.97208 -1.71821 0
M  V30 5347 C 518.154 -4.06491 -1.20936 0
M  V30 5348 N 518.545 -5.04052 -0.420202 0
M  V30 5349 C 516.843 -4.20443 -1.48808 0
M  V30 5350 C 517.544 -5.81516 -0.146413 0
M  V30 5351 N 516.52 -5.38641 -0.732562 0
M  V30 5352 H 520.322 -2.93853 0.0523921 0
M  V30 5353 H 517.836 -1.61883 0.129502 0
M  V30 5354 H 519.833 -3.4357 -2.36146 0
M  V30 5355 H 518.493 -2.25947 -2.33191 0
M  V30 5356 H 519.504 -5.17862 -0.0630401 0
M  V30 5357 H 516.181 -3.60396 -2.10762 0
M  V30 5358 H 517.571 -6.70119 0.488895 0
M  V30 5359 N 520.291 -0.0518155 -1.57515 0
M  V30 5360 C 521.707 0.304735 -1.56664 0
M  V30 5361 C 521.907 1.71395 -1.05953 0
M  V30 5362 O 520.963 2.42123 -0.716414 0
M  V30 5363 C 522.276 0.132614 -3.00407 0
M  V30 5364 C 523.824 0.20367 -3.12337 0
M  V30 5365 C 524.299 0.0600706 -4.57961 0
M  V30 5366 N 525.79 0.116326 -4.63054 0
M  V30 5367 C 526.525 0.0293363 -5.73392 0
M  V30 5368 N 526.021 -0.110038 -6.92713 0
M  V30 5369 N 527.814 0.0849651 -5.62036 0
M  V30 5370 H 519.965 -0.973056 -1.888 0
M  V30 5371 H 522.228 -0.377781 -0.869474 0
M  V30 5372 H 521.934 -0.839019 -3.41546 0
M  V30 5373 H 521.808 0.893376 -3.66468 0
M  V30 5374 H 524.195 1.16578 -2.71097 0
M  V30 5375 H 524.276 -0.587857 -2.48954 0
M  V30 5376 H 523.92 -0.898715 -4.99886 0
M  V30 5377 H 523.85 0.87075 -5.19351 0
M  V30 5378 H 526.341 0.22327 -3.7724 0
M  V30 5379 H 526.654 -0.169104 -7.72615 0
M  V30 5380 H 524.999 -0.145132 -6.94848 0
M  V30 5381 H 528.19 0.192411 -4.67704 0
M  V30 5382 H 528.363 0.0137131 -6.47999 0
M  V30 5383 N 521.769 1.56035 0.221574 0
M  V30 5384 C 523.185 1.49026 0.571271 0
M  V30 5385 C 523.385 0.746912 1.87146 0
M  V30 5386 O 522.441 0.286566 2.50869 0
M  V30 5387 C 523.754 2.93579 0.650522 0
M  V30 5388 C 525.302 3.04099 0.741151 0
M  V30 5389 C 525.777 4.5001 0.851747 0
M  V30 5390 N 527.268 4.54053 0.915968 0
M  V30 5391 C 528.003 5.64232 1.02125 0
M  V30 5392 N 527.499 6.84164 1.09049 0
M  V30 5393 N 529.292 5.52084 1.05639 0
M  V30 5394 H 521.443 2.02791 -0.63162 0
M  V30 5395 H 523.706 0.921736 -0.221602 0
M  V30 5396 H 523.412 3.50912 -0.235253 0
M  V30 5397 H 523.286 3.45476 1.51413 0
M  V30 5398 H 525.673 2.4683 1.61737 0
M  V30 5399 H 525.754 2.55371 -0.148128 0
M  V30 5400 H 525.398 5.07896 -0.0200117 0
M  V30 5401 H 525.328 4.96444 1.75644 0
M  V30 5402 H 527.819 3.67683 0.872782 0
M  V30 5403 H 528.132 7.63883 1.1706 0
M  V30 5404 H 526.477 6.86875 1.05962 0
M  V30 5405 H 529.668 4.57317 0.998953 0
M  V30 5406 H 529.841 6.37983 1.13498 0
M  V30 5407 N 523.247 -0.488276 1.49845 0
M  V30 5408 C 524.157 -1.61451 1.70207 0
M  V30 5409 C 525.173 -1.63877 0.584846 0
M  V30 5410 O 526.349 -1.82063 0.861107 0
M  V30 5411 C 523.414 -2.9776 1.77594 0
M  V30 5412 C 522.475 -3.05861 3.01243 0
M  V30 5413 C 521.708 -4.35668 3.08268 0
M  V30 5414 O 521.931 -5.25197 2.22541 0
M  V30 5415 O 520.865 -4.49005 4.00847 0
M  V30 5416 H 524.691 -1.47199 2.65643 0
M  V30 5417 H 522.276 -0.665939 1.33737 0
M  V30 5418 H 524.158 -3.7875 1.84732 0
M  V30 5419 H 522.833 -3.12248 0.8534 0
M  V30 5420 H 521.74 -2.24012 2.99616 0
M  V30 5421 H 523.073 -2.96304 3.9302 0
M  V30 5422 N 524.725 -1.39134 -0.740242 0
M  V30 5423 C 525.658 -1.3182 -1.86276 0
M  V30 5424 C 526.636 -0.192794 -1.61453 0
M  V30 5425 O 527.82 -0.372365 -1.84786 0
M  V30 5426 C 524.947 -1.04564 -3.22155 0
M  V30 5427 C 523.993 -2.19224 -3.65846 0
M  V30 5428 S 524.826 -3.81466 -3.75824 0
M  V30 5429 C 525.982 -3.56425 -5.14502 0
M  V30 5430 H 526.215 -2.26822 -1.92195 0
M  V30 5431 H 523.748 -1.25127 -0.904576 0
M  V30 5432 H 525.706 -0.895228 -4.00619 0
M  V30 5433 H 524.367 -0.112578 -3.13898 0
M  V30 5434 H 523.56 -1.95732 -4.6444 0
M  V30 5435 H 523.162 -2.30441 -2.94572 0
M  V30 5436 H 525.454 -3.13366 -6.00673 0
M  V30 5437 H 526.397 -4.54462 -5.43019 0
M  V30 5438 H 526.805 -2.90641 -4.8393 0
M  V30 5439 N 526.204 0.969867 -1.24223 0
M  V30 5440 C 527.136 2.0669 -0.99055 0
M  V30 5441 C 528.149 1.62753 0.0392222 0
M  V30 5442 O 529.338 1.77403 -0.197561 0
M  V30 5443 C 526.438 3.35589 -0.472594 0
M  V30 5444 C 525.611 4.08444 -1.56499 0
M  V30 5445 C 524.67 5.15616 -1.05007 0
M  V30 5446 O 523.696 5.41911 -1.7413 0
M  V30 5447 N 524.898 5.80383 0.116641 0
M  V30 5448 H 527.663 2.28855 -1.93508 0
M  V30 5449 H 525.224 1.13733 -1.15223 0
M  V30 5450 H 527.216 4.04542 -0.112919 0
M  V30 5451 H 525.786 3.10311 0.377617 0
M  V30 5452 H 525.006 3.33798 -2.09696 0
M  V30 5453 H 526.294 4.53882 -2.29932 0
M  V30 5454 H 525.692 5.6142 0.694589 0
M  V30 5455 H 524.249 6.50462 0.417483 0
M  V30 5456 N 527.682 1.05563 1.17022 0
M  V30 5457 C 528.592 0.670758 2.24807 0
M  V30 5458 C 529.608 -0.309865 1.71219 0
M  V30 5459 O 530.784 -0.161025 2.00755 0
M  V30 5460 C 527.849 0.055337 3.46656 0
M  V30 5461 C 526.91 1.08688 4.15314 0
M  V30 5462 C 526.143 0.500736 5.31346 0
M  V30 5463 O 526.366 -0.688718 5.66227 0
M  V30 5464 O 525.3 1.23683 5.89055 0
M  V30 5465 H 529.126 1.56914 2.60023 0
M  V30 5466 H 526.711 0.827428 1.24395 0
M  V30 5467 H 528.593 -0.286492 4.20425 0
M  V30 5468 H 527.268 -0.816638 3.13229 0
M  V30 5469 H 526.175 1.48077 3.43546 0
M  V30 5470 H 527.508 1.93014 4.52777 0
M  V30 5471 N 529.16 -1.33526 0.837174 0
M  V30 5472 C 530.385 -2.0258 0.444545 0
M  V30 5473 C 530.81 -1.6258 -0.946006 0
M  V30 5474 O 530.168 -0.817548 -1.6182 0
M  V30 5475 C 530.216 -3.5605 0.571006 0
M  V30 5476 O 529.32 -4.10422 -0.403431 0
M  V30 5477 H 528.661 -0.638866 0.180958 0
M  V30 5478 H 531.191 -1.70462 1.13154 0
M  V30 5479 H 531.201 -4.05488 0.452024 0
M  V30 5480 H 529.876 -3.84509 1.58512 0
M  V30 5481 H 528.453 -3.72113 -0.242147 0
M  V30 5482 N 530.638 -0.59345 -1.46 0
M  V30 5483 C 531.884 -0.0832754 -2.02629 0
M  V30 5484 C 532.217 1.27749 -1.46266 0
M  V30 5485 O 531.492 1.8395 -0.631866 0
M  V30 5486 C 531.775 -0.0290756 -3.60088 0
M  V30 5487 C 531.628 -1.41951 -4.26814 0
M  V30 5488 C 532.947 0.666055 -4.35031 0
M  V30 5489 H 530.066 -0.031736 -0.736316 0
M  V30 5490 H 532.708 -0.762711 -1.74019 0
M  V30 5491 H 530.858 0.549532 -3.84594 0
M  V30 5492 H 532.53 -2.04411 -4.13538 0
M  V30 5493 H 530.773 -1.98422 -3.8576 0
M  V30 5494 H 531.444 -1.33395 -5.3564 0
M  V30 5495 H 533.92 0.174401 -4.15734 0
M  V30 5496 H 532.796 0.673041 -5.44758 0
M  V30 5497 H 533.057 1.72946 -4.06869 0
M  V30 5498 N 532.116 1.54067 -0.331816 0
M  V30 5499 C 533.048 2.22139 0.564538 0
M  V30 5500 C 534.061 1.22408 1.07332 0
M  V30 5501 O 535.25 1.4883 0.985481 0
M  V30 5502 C 532.35 2.87876 1.78831 0
M  V30 5503 C 531.523 4.13817 1.41682 0
M  V30 5504 C 530.582 4.63072 2.49901 0
M  V30 5505 O 529.608 5.27562 2.13699 0
M  V30 5506 N 530.81 4.38001 3.80967 0
M  V30 5507 H 533.575 2.99694 -0.0183736 0
M  V30 5508 H 531.136 1.61153 -0.155396 0
M  V30 5509 H 533.128 3.17747 2.50637 0
M  V30 5510 H 531.698 2.13977 2.27887 0
M  V30 5511 H 530.918 3.9062 0.530044 0
M  V30 5512 H 532.206 4.95762 1.14443 0
M  V30 5513 H 531.604 3.864 4.13173 0
M  V30 5514 H 530.161 4.72507 4.48977 0
M  V30 5515 N 533.594 0.0601682 1.57485 0
M  V30 5516 C 534.84 -0.612501 1.93329 0
M  V30 5517 C 535.173 -1.6996 0.939526 0
M  V30 5518 O 534.448 -1.94472 -0.0330957 0
M  V30 5519 C 534.731 -1.20025 3.39508 0
M  V30 5520 C 534.584 -0.12059 4.49638 0
M  V30 5521 C 535.903 -2.10923 3.86264 0
M  V30 5522 H 533.022 -0.221185 0.703027 0
M  V30 5523 H 535.664 0.123768 1.89596 0
M  V30 5524 H 533.814 -1.82774 3.42821 0
M  V30 5525 H 535.486 0.51185 4.58452 0
M  V30 5526 H 533.729 0.550251 4.30296 0
M  V30 5527 H 534.4 -0.572019 5.49028 0
M  V30 5528 H 536.876 -1.58124 3.84884 0
M  V30 5529 H 535.752 -2.48987 4.8918 0
M  V30 5530 H 536.013 -3.01292 3.23536 0
M  V30 5531 N 535.072 -1.5615 -0.213296 0
M  V30 5532 C 536.02 -1.93953 -1.28394 0
M  V30 5533 C 537.014 -0.822592 -1.48087 0
M  V30 5534 O 538.22 -1.00748 -1.49164 0
M  V30 5535 H 534.595 -0.61648 -0.430646 0
M  V30 5536 H 536.566 -2.83275 -0.937977 0
M  V30 5537 C 535.315 -2.27969 -2.62537 0
M  V30 5538 H 534.638 -3.13432 -2.48194 0
M  V30 5539 H 536.078 -2.58297 -3.36242 0
M  V30 5540 C 534.537 -1.10775 -3.18167 0
M  V30 5541 O 535.067 -0.373201 -3.99963 0
M  V30 5542 N 533.273 -0.889377 -2.76656 0
M  V30 5543 H 532.82 -1.48843 -2.10246 0
M  V30 5544 H 532.778 -0.107 -3.14218 0
M  V30 5545 N 536.55 0.480323 -1.50102 0
M  V30 5546 C 537.798 1.23063 -1.60312 0
M  V30 5547 C 538.119 1.92659 -0.301226 0
M  V30 5548 O 537.389 1.83691 0.680753 0
M  V30 5549 H 535.969 0.457231 -0.590719 0
M  V30 5550 H 538.631 0.554893 -1.86834 0
M  V30 5551 H 537.727 1.9835 -2.40964 0
M  V30 5552 N 538.028 1.39524 0.732853 0
M  V30 5553 C 539.444 1.21176 1.03868 0
M  V30 5554 C 539.644 0.0748448 2.01361 0
M  V30 5555 O 538.7 -0.57281 2.45917 0
M  V30 5556 C 540.013 2.54667 1.59892 0
M  V30 5557 C 541.561 2.6153 1.71962 0
M  V30 5558 C 542.036 3.95248 2.31394 0
M  V30 5559 N 543.527 3.96899 2.38801 0
M  V30 5560 C 544.262 4.97138 2.85729 0
M  V30 5561 N 543.758 6.07775 3.32537 0
M  V30 5562 N 545.551 4.84516 2.84957 0
M  V30 5563 H 537.702 2.12225 0.086304 0
M  V30 5564 H 539.965 0.942614 0.100907 0
M  V30 5565 H 539.671 3.38423 0.95721 0
M  V30 5566 H 539.545 2.74538 2.58668 0
M  V30 5567 H 541.932 1.78156 2.35254 0
M  V30 5568 H 542.013 2.45507 0.718327 0
M  V30 5569 H 541.657 4.79054 1.68729 0
M  V30 5570 H 541.587 4.08593 3.32204 0
M  V30 5571 H 544.078 3.16998 2.05719 0
M  V30 5572 H 544.391 6.8017 3.66862 0
M  V30 5573 H 542.736 6.11366 3.30541 0
M  V30 5574 H 545.927 3.97185 2.47713 0
M  V30 5575 H 546.1 5.62783 3.21215 0
M  V30 5576 N 539.506 -0.963266 1.24736 0
M  V30 5577 C 540.752 -1.70933 1.09131 0
M  V30 5578 C 541.085 -1.90676 -0.368273 0
M  V30 5579 O 540.36 -1.47147 -1.27193 0
M  V30 5580 C 540.643 -3.09744 1.83658 0
M  V30 5581 C 540.496 -2.97465 3.37394 0
M  V30 5582 C 541.815 -4.09483 1.61282 0
M  V30 5583 H 538.934 -0.620398 0.397838 0
M  V30 5584 H 541.576 -1.12028 1.53459 0
M  V30 5585 H 539.726 -3.60031 1.4598 0
M  V30 5586 H 541.398 -2.54571 3.84696 0
M  V30 5587 H 539.641 -2.33576 3.65547 0
M  V30 5588 H 540.312 -3.95822 3.84745 0
M  V30 5589 H 542.788 -3.68073 1.94066 0
M  V30 5590 H 541.664 -5.04666 2.15878 0
M  V30 5591 H 541.925 -4.38639 0.552102 0
M  V30 5592 N 540.985 -1.06182 -1.16461 0
M  V30 5593 C 542.396 -0.802426 -1.68576 0
M  V30 5594 C 542.747 0.67412 -1.84255 0
M  V30 5595 O 541.872 1.52303 -1.5373 0
M  V30 5596 C 542.467 -1.45002 -3.06202 0
M  V30 5597 C 541.026 -1.23843 -3.55443 0
M  V30 5598 C 540.173 -1.52724 -2.31454 0
M  V30 5599 H 543.124 -1.22545 -1.00839 0
M  V30 5600 H 543.145 -0.864731 -3.70544 0
M  V30 5601 H 542.657 -2.52466 -2.94759 0
M  V30 5602 H 540.758 -0.183487 -3.72148 0
M  V30 5603 H 540.871 -1.95036 -4.37604 0
M  V30 5604 H 539.235 -0.947726 -2.36411 0
M  V30 5605 H 540.018 -2.61343 -2.22609 0
M  V30 5606 N 542.463 1.3308 -0.844243 0
M  V30 5607 C 543.393 2.3161 -0.296493 0
M  V30 5608 C 544.374 1.59215 0.598707 0
M  V30 5609 O 545.559 1.87077 0.521134 0
M  V30 5610 C 542.689 3.43313 0.524762 0
M  V30 5611 C 541.643 4.27115 -0.275106 0
M  V30 5612 C 540.969 5.30483 0.670236 0
M  V30 5613 C 542.269 5.00443 -1.49514 0
M  V30 5614 H 543.963 2.77672 -1.11976 0
M  V30 5615 H 541.509 1.33496 -0.539899 0
M  V30 5616 H 543.462 4.11273 0.918298 0
M  V30 5617 H 542.186 2.95952 1.3813 0
M  V30 5618 H 540.845 3.60787 -0.650267 0
M  V30 5619 H 540.493 4.79379 1.52332 0
M  V30 5620 H 540.193 5.87435 0.139123 0
M  V30 5621 H 541.717 6.01308 1.06117 0
M  V30 5622 H 543.131 5.61141 -1.17447 0
M  V30 5623 H 541.528 5.67071 -1.96343 0
M  V30 5624 H 542.598 4.28906 -2.26202 0
M  V30 5625 N 543.941 0.601185 1.45683 0
M  V30 5626 C 545.352 0.179659 1.85834 0
M  V30 5627 C 545.703 -1.26189 1.50236 0
M  V30 5628 O 544.828 -1.95587 0.925987 0
M  V30 5629 C 545.423 0.319277 3.37292 0
M  V30 5630 C 543.982 -0.0475092 3.7637 0
M  V30 5631 C 543.129 0.646692 2.69654 0
M  V30 5632 H 546.08 0.808268 1.36575 0
M  V30 5633 H 546.101 -0.4503 3.77826 0
M  V30 5634 H 545.613 1.36855 3.6317 0
M  V30 5635 H 543.714 -1.0962 3.5611 0
M  V30 5636 H 543.827 0.34168 4.7788 0
M  V30 5637 H 542.191 0.0849971 2.54558 0
M  V30 5638 H 542.974 1.69797 2.98369 0
M  V30 5639 N 545.419 -1.53889 0.339982 0
M  V30 5640 C 546.369 -2.2165 -0.534354 0
M  V30 5641 C 547.353 -1.20266 -1.06887 0
M  V30 5642 O 548.545 -1.45827 -1.00316 0
M  V30 5643 C 545.674 -2.99014 -1.68659 0
M  V30 5644 C 544.76 -4.07751 -1.16618 0
M  V30 5645 N 545.151 -5.04469 -0.366717 0
M  V30 5646 C 543.449 -4.21998 -1.4434 0
M  V30 5647 C 544.15 -5.81638 -0.0847275 0
M  V30 5648 N 543.126 -5.39388 -0.675391 0
M  V30 5649 H 546.928 -2.93781 0.0835562 0
M  V30 5650 H 544.442 -1.61736 0.146665 0
M  V30 5651 H 546.439 -3.46056 -2.32489 0
M  V30 5652 H 545.099 -2.28408 -2.30781 0
M  V30 5653 H 546.11 -5.17899 -0.00811038 0
M  V30 5654 H 542.787 -3.62612 -2.06928 0
M  V30 5655 H 544.177 -6.69563 0.559943 0
M  V30 5656 N 546.897 -0.0685191 -1.57451 0
M  V30 5657 C 548.146 0.600898 -1.92541 0
M  V30 5658 C 548.459 1.70967 -0.950239 0
M  V30 5659 O 549.665 2.43844 -1.19384 0
M  V30 5660 C 548.121 1.12019 -3.42023 0
M  V30 5661 C 547.729 0.0426028 -4.4798 0
M  V30 5662 C 549.473 1.76386 -3.86119 0
M  V30 5663 C 547.38 0.575759 -5.88591 0
M  V30 5664 H 546.31 0.228225 -0.71863 0
M  V30 5665 H 548.961 -0.140223 -1.82963 0
M  V30 5666 H 547.343 1.91418 -3.46663 0
M  V30 5667 H 548.517 -0.73182 -4.54952 0
M  V30 5668 H 546.832 -0.504642 -4.13331 0
M  V30 5669 H 549.429 2.17302 -4.88553 0
M  V30 5670 H 549.772 2.62255 -3.23308 0
M  V30 5671 H 550.305 1.03615 -3.84069 0
M  V30 5672 H 547.044 -0.245691 -6.55039 0
M  V30 5673 H 546.564 1.31778 -5.85145 0
M  V30 5674 H 548.243 1.0532 -6.3837 0
M  V30 5675 N 548.375 1.56261 0.205012 0
M  V30 5676 C 549.786 1.70056 0.770574 0
M  V30 5677 C 550.137 0.673398 1.84282 0
M  V30 5678 O 549.262 -0.172196 2.15714 0
M  V30 5679 C 549.857 3.08316 1.40451 0
M  V30 5680 C 548.416 3.2391 1.91727 0
M  V30 5681 C 547.563 2.66001 0.783516 0
M  V30 5682 H 550.514 1.58688 -0.019911 0
M  V30 5683 H 550.535 3.05094 2.27371 0
M  V30 5684 H 550.047 3.83053 0.623882 0
M  V30 5685 H 548.148 2.54072 2.7254 0
M  V30 5686 H 548.261 4.3131 2.08588 0
M  V30 5687 H 546.625 2.24915 1.19521 0
M  V30 5688 H 547.408 3.43297 0.0152883 0
M  V30 5689 N 549.853 -0.472356 1.50355 0
M  V30 5690 C 551.269 -0.806001 1.37753 0
M  V30 5691 C 551.469 -1.968 0.432649 0
M  V30 5692 O 550.525 -2.52189 -0.12519 0
M  V30 5693 C 551.838 -1.11926 2.79093 0
M  V30 5694 C 553.386 -1.22579 2.87999 0
M  V30 5695 C 553.861 -1.57218 4.3017 0
M  V30 5696 N 555.352 -1.64212 4.33115 0
M  V30 5697 C 556.087 -1.92517 5.40116 0
M  V30 5698 N 555.583 -2.1885 6.57325 0
M  V30 5699 N 557.376 -1.94008 5.27558 0
M  V30 5700 H 549.527 0.293451 2.10363 0
M  V30 5701 H 551.79 0.0687672 0.945503 0
M  V30 5702 H 551.496 -0.338504 3.50067 0
M  V30 5703 H 551.37 -2.05577 3.16256 0
M  V30 5704 H 553.757 -1.99722 2.17245 0
M  V30 5705 H 553.838 -0.269107 2.54381 0
M  V30 5706 H 553.482 -0.806154 5.01461 0
M  V30 5707 H 553.412 -2.54034 4.61275 0
M  V30 5708 H 555.903 -1.45906 3.48597 0
M  V30 5709 H 556.216 -2.39718 7.3468 0
M  V30 5710 H 554.561 -2.16245 6.60502 0
M  V30 5711 H 557.752 -1.72931 4.34986 0
M  V30 5712 H 557.925 -2.15731 6.11035 0
M  V30 5713 N 551.331 -1.39911 -0.725443 0
M  V30 5714 C 552.559 -1.40949 -1.51463 0
M  V30 5715 C 552.974 -0.0065242 -1.88799 0
M  V30 5716 O 552.331 0.967163 -1.54765 0
M  V30 5717 C 552.382 -2.29119 -2.79619 0
M  V30 5718 O 552.103 -3.63952 -2.43866 0
M  V30 5719 C 553.604 -2.38642 -3.73584 0
M  V30 5720 H 550.824 -0.481091 -0.467752 0
M  V30 5721 H 553.368 -1.83843 -0.895651 0
M  V30 5722 H 551.523 -1.89612 -3.37826 0
M  V30 5723 H 551.937 -4.10677 -3.26258 0
M  V30 5724 H 553.411 -3.04563 -4.60375 0
M  V30 5725 H 553.888 -1.40846 -4.16004 0
M  V30 5726 H 554.494 -2.78659 -3.21293 0
M  V30 5727 N 552.809 0.956637 -1.25245 0
M  V30 5728 C 554.039 1.7332 -1.12445 0
M  V30 5729 C 554.447 1.86392 0.324732 0
M  V30 5730 O 553.79 1.35967 1.23526 0
M  V30 5731 C 553.852 3.16603 -1.70303 0
M  V30 5732 C 553.516 3.26966 -3.19284 0
M  V30 5733 C 554.513 3.11434 -4.16299 0
M  V30 5734 C 552.198 3.50851 -3.59456 0
M  V30 5735 C 554.192 3.1963 -5.51467 0
M  V30 5736 C 551.879 3.58684 -4.94761 0
M  V30 5737 C 552.877 3.43087 -5.90576 0
M  V30 5738 O 552.565 3.50598 -7.2342 0
M  V30 5739 H 552.297 0.549981 -0.393061 0
M  V30 5740 H 554.851 1.20892 -1.66055 0
M  V30 5741 H 553.081 3.70385 -1.11138 0
M  V30 5742 H 554.77 3.76109 -1.52632 0
M  V30 5743 H 555.536 2.92853 -3.86604 0
M  V30 5744 H 551.415 3.62053 -2.85375 0
M  V30 5745 H 554.959 3.07373 -6.26233 0
M  V30 5746 H 550.856 3.76782 -5.24124 0
M  V30 5747 H 551.624 3.67242 -7.31489 0
M  V30 5748 N 554.287 1.06798 1.15896 0
M  V30 5749 C 555.703 0.792423 1.38538 0
M  V30 5750 C 555.903 -0.60592 1.92174 0
M  V30 5751 O 554.959 -1.36561 2.12385 0
M  V30 5752 C 556.272 1.86157 2.36149 0
M  V30 5753 C 557.82 1.88567 2.49823 0
M  V30 5754 C 558.295 2.9455 3.5072 0
M  V30 5755 N 559.786 2.93616 3.58251 0
M  V30 5756 C 560.521 3.72267 4.36125 0
M  V30 5757 N 560.017 4.60751 5.17379 0
M  V30 5758 N 561.81 3.60637 4.31158 0
M  V30 5759 H 553.961 1.96993 0.794198 0
M  V30 5760 H 556.224 0.853942 0.411688 0
M  V30 5761 H 555.93 2.86603 2.03843 0
M  V30 5762 H 555.804 1.71692 3.3586 0
M  V30 5763 H 558.191 0.887765 2.8143 0
M  V30 5764 H 558.272 2.0711 1.5013 0
M  V30 5765 H 557.916 3.94537 3.19849 0
M  V30 5766 H 557.846 2.73255 4.50155 0
M  V30 5767 H 560.337 2.29472 3.00252 0
M  V30 5768 H 560.65 5.17408 5.74028 0
M  V30 5769 H 558.995 4.64803 5.16704 0
M  V30 5770 H 562.186 2.90892 3.66742 0
M  V30 5771 H 562.359 4.22176 4.91601 0
M  V30 5772 N 555.766 -1.3263 0.851289 0
M  V30 5773 C 557.012 -1.9766 0.453694 0
M  V30 5774 C 557.345 -1.67225 -0.987396 0
M  V30 5775 O 556.62 -0.958693 -1.69232 0
M  V30 5776 C 556.903 -3.5344 0.68936 0
M  V30 5777 C 556.756 -3.93517 2.17862 0
M  V30 5778 C 558.075 -4.39866 0.143555 0
M  V30 5779 H 555.194 -0.717989 0.166314 0
M  V30 5780 H 557.836 -1.57068 1.06909 0
M  V30 5781 H 555.986 -3.88147 0.165546 0
M  V30 5782 H 557.658 -3.69006 2.76826 0
M  V30 5783 H 555.901 -3.42798 2.65841 0
M  V30 5784 H 556.572 -5.02065 2.29422 0
M  V30 5785 H 559.048 -4.11875 0.591451 0
M  V30 5786 H 557.924 -5.47858 0.338043 0
M  V30 5787 H 558.185 -4.31696 -0.953466 0
M  V30 5788 N 557.244 -0.608902 -1.45362 0
M  V30 5789 C 558.655 -0.189511 -1.85736 0
M  V30 5790 C 559.006 1.2539 -1.50903 0
M  V30 5791 O 558.131 1.95094 -0.936347 0
M  V30 5792 C 558.726 -0.33716 -3.37118 0
M  V30 5793 C 557.285 0.0275487 -3.7639 0
M  V30 5794 C 556.432 -0.660983 -2.69307 0
M  V30 5795 H 559.383 -0.815499 -1.36144 0
M  V30 5796 H 559.404 0.430257 -3.7806 0
M  V30 5797 H 558.916 -1.38779 -3.62439 0
M  V30 5798 H 557.017 1.0773 -3.56686 0
M  V30 5799 H 557.13 -0.367018 -4.77692 0
M  V30 5800 H 555.494 -0.0984958 -2.54509 0
M  V30 5801 H 556.277 -1.71377 -2.97464 0
M  V30 5802 N 558.722 1.53707 -0.348139 0
M  V30 5803 C 559.669 2.25173 0.506518 0
M  V30 5804 C 560.639 1.25174 1.09182 0
M  V30 5805 O 561.824 1.53917 1.12757 0
M  V30 5806 C 558.964 3.03141 1.64923 0
M  V30 5807 C 558.077 4.18002 1.0908 0
M  V30 5808 C 557.212 4.83447 2.20119 0
M  V30 5809 C 556.251 5.90369 1.61651 0
M  V30 5810 N 555.388 6.49575 2.66451 0
M  V30 5811 H 560.228 2.97799 -0.109452 0
M  V30 5812 H 557.765 1.46953 -0.0657866 0
M  V30 5813 H 559.723 3.46607 2.32205 0
M  V30 5814 H 558.353 2.32803 2.23612 0
M  V30 5815 H 557.405 3.79145 0.308783 0
M  V30 5816 H 558.717 4.94892 0.623178 0
M  V30 5817 H 557.871 5.30008 2.95257 0
M  V30 5818 H 556.61 4.05991 2.70227 0
M  V30 5819 H 555.615 5.43186 0.850209 0
M  V30 5820 H 556.84 6.69735 1.1239 0
M  V30 5821 H 554.786 5.74981 3.15805 0
M  V30 5822 H 554.703 7.21952 2.24325 0
M  V30 5823 H 555.971 7.00789 3.41344 0
M  V30 5824 N 560.2 0.0768682 1.57412 0
M  V30 5825 C 561.11 -0.903207 2.16516 0
M  V30 5826 C 562.126 -1.32341 1.12968 0
M  V30 5827 O 563.302 -1.39507 1.45258 0
M  V30 5828 C 560.367 -2.1508 2.71922 0
M  V30 5829 C 559.428 -1.78653 3.90361 0
M  V30 5830 C 558.661 -2.97465 4.43114 0
M  V30 5831 O 558.884 -4.11638 3.94854 0
M  V30 5832 O 557.818 -2.76987 5.3438 0
M  V30 5833 H 561.644 -0.430427 3.00634 0
M  V30 5834 H 559.229 -0.146485 1.4868 0
M  V30 5835 H 561.111 -2.8823 3.07411 0
M  V30 5836 H 559.786 -2.61446 1.9086 0
M  V30 5837 H 558.693 -1.0274 3.59716 0
M  V30 5838 H 560.026 -1.37066 4.7273 0
M  V30 5839 N 561.678 -1.56367 -0.196722 0
M  V30 5840 C 562.924 -1.80796 -0.918725 0
M  V30 5841 C 563.257 -0.650645 -1.82976 0
M  V30 5842 O 562.532 0.348889 -1.91345 0
M  V30 5843 C 562.815 -3.15472 -1.73636 0
M  V30 5844 C 562.668 -4.41693 -0.85015 0
M  V30 5845 C 563.987 -3.46824 -2.70927 0
M  V30 5846 H 561.106 -0.657702 -0.332561 0
M  V30 5847 H 563.748 -1.89086 -0.186186 0
M  V30 5848 H 561.898 -3.08536 -2.36088 0
M  V30 5849 H 563.57 -4.60673 -0.240459 0
M  V30 5850 H 561.813 -4.33517 -0.156785 0
M  V30 5851 H 562.484 -5.32419 -1.45719 0
M  V30 5852 H 564.96 -3.54049 -2.18607 0
M  V30 5853 H 563.836 -4.4218 -3.25219 0
M  V30 5854 H 564.097 -2.70236 -3.49893 0
M  V30 5855 N 563.156 0.464375 -1.50603 0
M  V30 5856 C 564.572 0.798684 -1.38178 0
M  V30 5857 C 564.772 1.96568 -0.44308 0
M  V30 5858 O 563.828 2.52252 0.111814 0
M  V30 5859 C 565.141 1.10444 -2.79683 0
M  V30 5860 C 566.689 1.2105 -2.88645 0
M  V30 5861 C 567.164 1.54934 -4.30998 0
M  V30 5862 N 568.655 1.61913 -4.3398 0
M  V30 5863 C 569.39 1.8965 -5.41129 0
M  V30 5864 N 568.886 2.15361 -6.58477 0
M  V30 5865 N 570.679 1.91207 -5.28579 0
M  V30 5866 H 562.83 -0.304603 -2.10204 0
M  V30 5867 H 565.093 -0.0737804 -0.945125 0
M  V30 5868 H 564.799 0.319934 -3.50242 0
M  V30 5869 H 564.673 2.03896 -3.17342 0
M  V30 5870 H 567.06 1.98567 -2.18301 0
M  V30 5871 H 567.141 0.255613 -2.5452 0
M  V30 5872 H 566.785 0.779549 -5.01882 0
M  V30 5873 H 566.715 2.51584 -4.62615 0
M  V30 5874 H 569.206 1.44055 -3.49366 0
M  V30 5875 H 569.519 2.35818 -7.35941 0
M  V30 5876 H 567.864 2.1274 -6.6164 0
M  V30 5877 H 571.055 1.70622 -4.35897 0
M  V30 5878 H 571.228 2.12488 -6.12171 0
M  V30 5879 N 564.634 1.40294 0.718013 0
M  V30 5880 C 565.88 1.38645 1.48005 0
M  V30 5881 C 566.213 -0.0121202 1.94196 0
M  V30 5882 O 565.488 -0.980309 1.67989 0
M  V30 5883 C 565.771 2.37379 2.70782 0
M  V30 5884 C 565.624 3.8625 2.30501 0
M  V30 5885 C 566.943 2.33685 3.72933 0
M  V30 5886 H 564.062 0.504928 0.536858 0
M  V30 5887 H 566.704 1.71411 0.819649 0
M  V30 5888 H 564.854 2.09568 3.27129 0
M  V30 5889 H 566.526 4.24879 1.79655 0
M  V30 5890 H 564.769 4.02202 1.6253 0
M  V30 5891 H 565.44 4.50847 3.18498 0
M  V30 5892 H 567.916 2.58314 3.2621 0
M  V30 5893 H 566.792 3.0482 4.56482 0
M  V30 5894 H 567.053 1.34765 4.21059 0
M  V30 5895 N 566.112 -0.949982 1.2575 0
M  V30 5896 C 567.022 -2.08109 1.08295 0
M  V30 5897 C 568.038 -1.7399 0.0188181 0
M  V30 5898 O 569.214 -2.00187 0.220724 0
M  V30 5899 C 566.279 -3.39383 0.708534 0
M  V30 5900 C 565.34 -3.8734 1.85111 0
M  V30 5901 C 564.573 -5.12349 1.49447 0
M  V30 5902 O 564.796 -5.6905 0.392212 0
M  V30 5903 O 563.73 -5.5513 2.32624 0
M  V30 5904 H 567.556 -2.25738 2.03165 0
M  V30 5905 H 565.141 -1.06545 1.04731 0
M  V30 5906 H 567.023 -4.18277 0.512061 0
M  V30 5907 H 565.698 -3.23013 -0.210854 0
M  V30 5908 H 564.605 -3.09429 2.10248 0
M  V30 5909 H 565.938 -4.08216 2.74991 0
M  V30 5910 N 567.59 -1.07411 -1.15328 0
M  V30 5911 C 569.001 -0.820261 -1.67716 0
M  V30 5912 C 569.352 0.654539 -1.8496 0
M  V30 5913 O 568.477 1.50664 -1.55337 0
M  V30 5914 C 569.072 -1.48242 -3.04647 0
M  V30 5915 C 567.631 -1.27606 -3.5411 0
M  V30 5916 C 566.778 -1.5517 -2.29821 0
M  V30 5917 H 569.729 -1.23608 -0.995332 0
M  V30 5918 H 569.75 -0.903984 -3.69606 0
M  V30 5919 H 569.262 -2.55578 -2.92064 0
M  V30 5920 H 567.363 -0.222948 -3.71932 0
M  V30 5921 H 567.476 -1.99667 -4.35511 0
M  V30 5922 H 565.84 -0.972747 -2.35393 0
M  V30 5923 H 566.623 -2.63689 -2.19824 0
M  V30 5924 N 569.068 1.32177 -0.85831 0
M  V30 5925 C 570 2.27688 -0.262835 0
M  V30 5926 C 571.013 1.52588 0.567513 0
M  V30 5927 O 572.202 1.74156 0.391407 0
M  V30 5928 C 569.302 3.32668 0.646937 0
M  V30 5929 C 568.475 4.37148 -0.148372 0
M  V30 5930 C 567.534 5.21686 0.687728 0
M  V30 5931 O 566.56 5.69074 0.119934 0
M  V30 5932 N 567.762 5.44892 2.00182 0
M  V30 5933 H 570.527 2.79426 -1.08356 0
M  V30 5934 H 568.088 1.45076 -0.718647 0
M  V30 5935 H 570.08 3.86134 1.2117 0
M  V30 5936 H 568.65 2.81061 1.36834 0
M  V30 5937 H 567.87 3.83915 -0.894572 0
M  V30 5938 H 569.158 5.04038 -0.694514 0
M  V30 5939 H 568.556 5.08128 2.4864 0
M  V30 5940 H 567.113 6.0134 2.51463 0
M  V30 5941 N 570.547 0.616602 1.45037 0
M  V30 5942 C 571.494 -0.0969439 2.30596 0
M  V30 5943 C 572.464 -0.851151 1.42635 0
M  V30 5944 O 573.649 -0.835092 1.71554 0
M  V30 5945 C 570.789 -1.08234 3.27688 0
M  V30 5946 C 569.902 -0.328072 4.30752 0
M  V30 5947 C 569.037 -1.30399 5.14946 0
M  V30 5948 C 568.076 -0.538049 6.09731 0
M  V30 5949 N 567.213 -1.46371 6.86673 0
M  V30 5950 H 572.053 0.63864 2.91076 0
M  V30 5951 H 569.59 0.326733 1.43425 0
M  V30 5952 H 571.548 -1.66688 3.82454 0
M  V30 5953 H 570.178 -1.78523 2.68941 0
M  V30 5954 H 569.23 0.372136 3.78575 0
M  V30 5955 H 570.542 0.269142 4.98073 0
M  V30 5956 H 569.696 -1.96032 5.74157 0
M  V30 5957 H 568.435 -1.93514 4.47665 0
M  V30 5958 H 567.44 0.131852 5.49642 0
M  V30 5959 H 568.665 0.0881732 6.79043 0
M  V30 5960 H 566.611 -2.08233 6.22073 0
M  V30 5961 H 566.528 -0.920152 7.50379 0
M  V30 5962 H 567.796 -2.10932 7.50418 0
M  V30 5963 N 572.025 -1.5352 0.356285 0
M  V30 5964 C 573.272 -2.01117 -0.236303 0
M  V30 5965 C 573.6 -1.24381 -1.49531 0
M  V30 5966 O 572.855 -0.323057 -1.93015 0
M  V30 5967 C 573.154 -3.52607 -0.583369 0
M  V30 5968 C 572.82 -4.47151 0.58023 0
M  V30 5969 C 571.482 -4.72718 0.899528 0
M  V30 5970 C 573.834 -5.03137 1.36024 0
M  V30 5971 C 571.162 -5.51523 2.00098 0
M  V30 5972 C 573.514 -5.83145 2.45204 0
M  V30 5973 C 572.178 -6.07001 2.77679 0
M  V30 5974 H 571.448 -0.735938 -0.0864695 0
M  V30 5975 H 574.095 -1.85209 0.48683 0
M  V30 5976 H 572.4 -3.66413 -1.38739 0
M  V30 5977 H 574.097 -3.86901 -1.05397 0
M  V30 5978 H 570.687 -4.27394 0.321322 0
M  V30 5979 H 574.871 -4.83339 1.12682 0
M  V30 5980 H 570.127 -5.68229 2.25668 0
M  V30 5981 H 574.301 -6.25537 3.06067 0
M  V30 5982 H 571.928 -6.67851 3.63151 0
M  V30 5983 N 573.503 -0.0852151 -1.57369 0
M  V30 5984 C 574.466 0.8627 -2.12344 0
M  V30 5985 C 575.466 1.21746 -1.05046 0
M  V30 5986 O 576.656 1.14852 -1.30976 0
M  V30 5987 C 573.788 2.1618 -2.63589 0
M  V30 5988 H 574.981 0.385511 -2.97412 0
M  V30 5989 H 572.534 0.163663 -1.55441 0
M  V30 5990 H 573.269 2.68406 -1.82013 0
M  V30 5991 H 573.054 1.91723 -3.4203 0
M  V30 5992 H 574.544 2.84011 -3.06149 0
M  V30 5993 N 574.981 1.5647 0.188427 0
M  V30 5994 C 575.891 1.98285 1.2538 0
M  V30 5995 C 576.907 0.891535 1.49424 0
M  V30 5996 O 578.083 1.19782 1.61908 0
M  V30 5997 C 575.148 2.31965 2.57669 0
M  V30 5998 C 574.209 3.54838 2.41638 0
M  V30 5999 C 573.442 3.86901 3.67618 0
M  V30 6000 O 573.665 3.20163 4.72072 0
M  V30 6001 O 572.599 4.80309 3.62749 0
M  V30 6002 H 576.425 2.89145 0.928912 0
M  V30 6003 H 574.01 1.44112 0.393955 0
M  V30 6004 H 575.892 2.54673 3.35737 0
M  V30 6005 H 574.567 1.44271 2.89771 0
M  V30 6006 H 573.474 3.37369 1.61658 0
M  V30 6007 H 574.807 4.43019 2.14465 0
M  V30 6008 N 576.459 -0.456382 1.50847 0
M  V30 6009 C 577.369 -1.57805 1.73594 0
M  V30 6010 C 578.385 -1.62599 0.619476 0
M  V30 6011 O 579.561 -1.80195 0.899532 0
M  V30 6012 C 576.626 -2.93926 1.8387 0
M  V30 6013 C 575.687 -2.99402 3.07663 0
M  V30 6014 C 574.92 -4.29031 3.1744 0
M  V30 6015 O 575.143 -5.20358 2.33631 0
M  V30 6016 O 574.077 -4.40401 4.10281 0
M  V30 6017 H 577.903 -1.41531 2.68705 0
M  V30 6018 H 575.488 -0.637422 1.3512 0
M  V30 6019 H 577.37 -3.74747 1.92725 0
M  V30 6020 H 576.045 -3.10368 0.91944 0
M  V30 6021 H 574.952 -2.17606 3.043 0
M  V30 6022 H 576.285 -2.87901 3.99216 0
M  V30 6023 N 577.937 -1.40673 -0.710563 0
M  V30 6024 C 578.867 -1.44095 -1.83736 0
M  V30 6025 C 579.848 -0.301286 -1.67411 0
M  V30 6026 O 581.033 -0.510618 -1.87367 0
M  V30 6027 C 578.163 -1.30773 -3.21738 0
M  V30 6028 C 577.117 -2.42395 -3.52745 0
M  V30 6029 C 576.443 -2.14147 -4.89944 0
M  V30 6030 C 577.743 -3.84738 -3.53234 0
M  V30 6031 H 579.437 -2.38396 -1.81129 0
M  V30 6032 H 576.983 -1.14746 -0.870017 0
M  V30 6033 H 578.936 -1.31783 -4.00264 0
M  V30 6034 H 577.66 -0.329507 -3.24934 0
M  V30 6035 H 576.319 -2.40643 -2.76562 0
M  V30 6036 H 575.967 -1.14703 -4.89747 0
M  V30 6037 H 575.667 -2.88934 -5.11655 0
M  V30 6038 H 577.191 -2.16848 -5.70797 0
M  V30 6039 H 578.605 -3.88286 -4.2179 0
M  V30 6040 H 577.002 -4.59085 -3.86473 0
M  V30 6041 H 578.072 -4.13962 -2.52514 0
M  V30 6042 N 579.415 0.9433 -1.26252 0
M  V30 6043 C 580.664 1.68369 -1.11062 0
M  V30 6044 C 580.977 1.92514 0.346104 0
M  V30 6045 O 582.183 2.64358 0.618646 0
M  V30 6046 C 580.639 3.03171 -1.93946 0
M  V30 6047 C 580.247 2.86782 -3.4418 0
M  V30 6048 C 581.991 3.80916 -1.87359 0
M  V30 6049 C 579.898 4.17044 -4.19319 0
M  V30 6050 H 578.828 0.631469 -0.412023 0
M  V30 6051 H 581.479 1.04922 -1.50544 0
M  V30 6052 H 579.861 3.67587 -1.47296 0
M  V30 6053 H 581.035 2.31229 -3.98585 0
M  V30 6054 H 579.35 2.22482 -3.51981 0
M  V30 6055 H 581.947 4.77417 -2.40784 0
M  V30 6056 H 582.29 4.07658 -0.843857 0
M  V30 6057 H 582.823 3.2327 -2.31821 0
M  V30 6058 H 579.562 3.95487 -5.22753 0
M  V30 6059 H 579.082 4.72319 -3.69696 0
M  V30 6060 H 580.761 4.85513 -4.27651 0
M  V30 6061 N 580.893 1.08022 1.14757 0
M  V30 6062 C 581.843 0.676345 2.17737 0
M  V30 6063 C 582.827 -0.302018 1.5804 0
M  V30 6064 O 584.019 -0.11466 1.76628 0
M  V30 6065 C 581.148 0.082984 3.432 0
M  V30 6066 C 580.234 1.0869 4.09936 0
M  V30 6067 N 580.625 2.26891 4.52055 0
M  V30 6068 C 578.923 0.921768 4.36371 0
M  V30 6069 C 579.624 2.90636 5.0389 0
M  V30 6070 N 578.6 2.18266 4.97856 0
M  V30 6071 H 582.402 1.5765 2.4804 0
M  V30 6072 H 579.916 0.954374 1.31398 0
M  V30 6073 H 581.913 -0.224289 4.16296 0
M  V30 6074 H 580.573 -0.812206 3.14378 0
M  V30 6075 H 581.584 2.6457 4.45223 0
M  V30 6076 H 578.261 0.0800499 4.17423 0
M  V30 6077 H 579.651 3.9104 5.46386 0
M  V30 6078 N 582.371 -1.3172 0.865308 0
M  V30 6079 C 583.787 -1.4958 0.556596 0
M  V30 6080 C 583.987 -1.79763 -0.910353 0
M  V30 6081 O 583.043 -1.87351 -1.6928 0
M  V30 6082 C 584.356 -2.63277 1.45279 0
M  V30 6083 C 585.904 -2.77161 1.45433 0
M  V30 6084 C 586.379 -3.93949 2.33598 0
M  V30 6085 N 587.87 -4.01228 2.31453 0
M  V30 6086 C 588.605 -4.90855 2.96393 0
M  V30 6087 N 588.101 -5.85416 3.70486 0
M  V30 6088 N 589.894 -4.84063 2.85726 0
M  V30 6089 H 582.045 -1.10396 1.81456 0
M  V30 6090 H 584.308 -0.54507 0.775631 0
M  V30 6091 H 584.014 -2.47734 2.49641 0
M  V30 6092 H 583.888 -3.59309 1.14792 0
M  V30 6093 H 586.275 -2.9212 0.41831 0
M  V30 6094 H 586.356 -1.8181 1.79941 0
M  V30 6095 H 586 -3.79748 3.37274 0
M  V30 6096 H 585.93 -4.88598 1.96417 0
M  V30 6097 H 588.421 -3.3357 1.77593 0
M  V30 6098 H 588.734 -6.50525 4.17178 0
M  V30 6099 H 587.079 -5.85409 3.74594 0
M  V30 6100 H 590.27 -4.09163 2.27384 0
M  V30 6101 H 590.443 -5.53708 3.36617 0
M  V30 6102 N 583.85 -0.624285 -1.44708 0
M  V30 6103 C 584.779 0.0717025 -2.3339 0
M  V30 6104 C 585.76 0.841814 -1.47809 0
M  V30 6105 O 586.946 0.809056 -1.76544 0
M  V30 6106 C 584.076 1.05852 -3.30776 0
M  V30 6107 C 583.029 0.400503 -4.26122 0
M  V30 6108 C 582.356 1.49674 -5.13324 0
M  V30 6109 C 583.656 -0.688924 -5.17737 0
M  V30 6110 H 585.35 -0.668819 -2.91834 0
M  V30 6111 H 582.896 -0.32308 -1.40329 0
M  V30 6112 H 584.849 1.5541 -3.91696 0
M  V30 6113 H 583.572 1.82984 -2.70526 0
M  V30 6114 H 582.231 -0.0743687 -3.66525 0
M  V30 6115 H 581.88 2.25877 -4.49431 0
M  V30 6116 H 581.58 1.06188 -5.77926 0
M  V30 6117 H 583.104 1.99427 -5.77115 0
M  V30 6118 H 584.518 -0.276724 -5.72632 0
M  V30 6119 H 582.915 -1.04652 -5.90904 0
M  V30 6120 H 583.985 -1.55884 -4.5916 0
M  V30 6121 N 585.328 1.53329 -0.364422 0
M  V30 6122 C 586.238 2.29414 0.490552 0
M  V30 6123 C 587.254 1.35335 1.09363 0
M  V30 6124 O 588.43 1.68391 1.10483 0
M  V30 6125 C 585.495 3.06772 1.61529 0
M  V30 6126 C 584.556 4.16516 1.03986 0
M  V30 6127 C 583.789 4.90176 2.111 0
M  V30 6128 O 584.012 4.63687 3.32191 0
M  V30 6129 O 582.946 5.76134 1.74222 0
M  V30 6130 H 586.772 3.03428 -0.12856 0
M  V30 6131 H 584.357 1.48843 -0.128837 0
M  V30 6132 H 586.239 3.55082 2.26924 0
M  V30 6133 H 584.914 2.35596 2.21983 0
M  V30 6134 H 583.821 3.7246 0.349856 0
M  V30 6135 H 585.154 4.89855 0.4799 0
M  V30 6136 N 586.806 0.0935595 1.57322 0
M  V30 6137 C 587.769 -0.851426 2.12799 0
M  V30 6138 C 588.769 -1.21187 1.0569 0
M  V30 6139 O 589.959 -1.14156 1.31583 0
M  V30 6140 C 587.091 -2.14779 2.64731 0
M  V30 6141 H 588.284 -0.369733 2.97612 0
M  V30 6142 H 585.837 -0.155417 1.55525 0
M  V30 6143 H 586.572 -2.67437 1.83434 0
M  V30 6144 H 586.357 -1.89907 3.43042 0
M  V30 6145 H 587.847 -2.82383 3.07651 0
M  V30 6146 N 588.284 -1.56567 -0.180126 0
M  V30 6147 C 589.53 -1.81761 -0.899497 0
M  V30 6148 C 589.863 -0.670015 -1.82276 0
M  V30 6149 O 589.138 0.328575 -1.91705 0
M  V30 6150 C 589.421 -3.17296 -1.7028 0
M  V30 6151 C 589.274 -4.4257 -0.803255 0
M  V30 6152 C 590.593 -3.49678 -2.67233 0
M  V30 6153 H 587.712 -0.661192 -0.325567 0
M  V30 6154 H 590.354 -1.89272 -0.16612 0
M  V30 6155 H 588.504 -3.11023 -2.32802 0
M  V30 6156 H 590.176 -4.60902 -0.191585 0
M  V30 6157 H 588.419 -4.33658 -0.110796 0
M  V30 6158 H 589.09 -5.33935 -1.40064 0
M  V30 6159 H 591.566 -3.56347 -2.14839 0
M  V30 6160 H 590.442 -4.45605 -3.20511 0
M  V30 6161 H 590.703 -2.73932 -3.47007 0
M  V30 6162 N 589.762 0.448376 -1.51087 0
M  V30 6163 C 590.694 1.56146 -1.67783 0
M  V30 6164 C 591.707 1.52913 -0.55871 0
M  V30 6165 O 592.896 1.57889 -0.83267 0
M  V30 6166 C 589.996 2.95057 -1.66716 0
M  V30 6167 C 589.169 3.22915 -2.95033 0
M  V30 6168 C 588.228 4.41495 -2.86302 0
M  V30 6169 O 587.254 4.40688 -3.60254 0
M  V30 6170 N 588.456 5.44443 -2.014 0
M  V30 6171 H 591.221 1.42232 -2.638 0
M  V30 6172 H 588.782 0.637153 -1.48835 0
M  V30 6173 H 590.774 3.72388 -1.58458 0
M  V30 6174 H 589.344 3.02624 -0.783403 0
M  V30 6175 H 588.564 2.33985 -3.17245 0
M  V30 6176 H 589.852 3.38349 -3.79996 0
M  V30 6177 H 589.25 5.4793 -1.40674 0
M  V30 6178 H 587.807 6.2067 -1.99029 0
M  V30 6179 N 591.24 1.41047 0.703093 0
M  V30 6180 C 592.656 1.23351 1.01275 0
M  V30 6181 C 592.856 0.11754 2.01157 0
M  V30 6182 O 591.912 -0.520518 2.47077 0
M  V30 6183 C 593.225 2.58001 1.54454 0
M  V30 6184 C 594.773 2.65119 1.66376 0
M  V30 6185 C 595.248 4.00067 2.22958 0
M  V30 6186 N 596.739 4.01875 2.30328 0
M  V30 6187 C 597.474 5.03087 2.75119 0
M  V30 6188 N 596.97 6.14692 3.19571 0
M  V30 6189 N 598.763 4.90451 2.74616 0
M  V30 6190 H 590.914 2.1236 0.0412686 0
M  V30 6191 H 593.177 0.944543 0.08089 0
M  V30 6192 H 592.883 3.40378 0.88521 0
M  V30 6193 H 592.757 2.79962 2.52786 0
M  V30 6194 H 595.144 1.83106 2.31422 0
M  V30 6195 H 595.225 2.46975 0.666089 0
M  V30 6196 H 594.869 4.82526 1.58529 0
M  V30 6197 H 594.799 4.15547 3.23462 0
M  V30 6198 H 597.29 3.21291 1.98949 0
M  V30 6199 H 597.603 6.87799 3.52352 0
M  V30 6200 H 595.948 6.18239 3.17498 0
M  V30 6201 H 599.139 4.0235 2.39233 0
M  V30 6202 H 599.312 5.6947 3.09206 0
M  V30 6203 N 592.718 -0.936591 1.26751 0
M  V30 6204 C 593.946 -1.71758 1.15355 0
M  V30 6205 C 594.361 -1.86549 -0.290683 0
M  V30 6206 O 593.718 -1.37616 -1.19868 0
M  V30 6207 C 593.769 -3.12193 1.82258 0
M  V30 6208 O 593.49 -2.98105 3.21038 0
M  V30 6209 C 594.991 -4.06485 1.76875 0
M  V30 6210 H 592.211 -0.537636 0.401483 0
M  V30 6211 H 594.755 -1.17382 1.67457 0
M  V30 6212 H 592.91 -3.63456 1.34083 0
M  V30 6213 H 593.324 -3.86824 3.54214 0
M  V30 6214 H 594.798 -5.02569 2.28316 0
M  V30 6215 H 595.275 -4.32986 0.736216 0
M  V30 6216 H 595.881 -3.61144 2.24623 0
M  V30 6217 N 594.196 -1.08629 -1.14182 0
M  V30 6218 C 595.612 -0.814363 -1.3726 0
M  V30 6219 C 595.812 0.575271 -1.93114 0
M  V30 6220 O 594.868 1.33165 -2.1453 0
M  V30 6221 C 596.181 -1.8989 -2.33157 0
M  V30 6222 C 597.729 -1.92518 -2.46791 0
M  V30 6223 C 598.204 -3.00092 -3.45989 0
M  V30 6224 N 599.695 -2.99279 -3.53534 0
M  V30 6225 C 600.43 -3.79158 -4.30147 0
M  V30 6226 N 599.926 -4.68923 -5.09983 0
M  V30 6227 N 601.719 -3.67451 -4.25366 0
M  V30 6228 H 593.87 -1.98232 -0.762758 0
M  V30 6229 H 596.133 -0.860383 -0.398051 0
M  V30 6230 H 595.839 -2.89809 -1.99257 0
M  V30 6231 H 595.713 -1.77013 -3.33086 0
M  V30 6232 H 598.1 -0.932425 -2.79982 0
M  V30 6233 H 598.181 -2.09473 -1.46816 0
M  V30 6234 H 597.825 -3.99575 -3.13532 0
M  V30 6235 H 597.755 -2.80382 -4.45751 0
M  V30 6236 H 600.246 -2.3422 -2.96563 0
M  V30 6237 H 600.559 -5.26475 -5.65724 0
M  V30 6238 H 598.904 -4.72964 -5.09244 0
M  V30 6239 H 602.095 -2.9669 -3.62067 0
M  V30 6240 H 602.268 -4.29944 -4.84822 0
M  V30 6241 N 595.674 1.31259 -0.872281 0
M  V30 6242 C 596.584 2.32221 -0.333255 0
M  V30 6243 C 597.6 1.6481 0.558013 0
M  V30 6244 O 598.776 1.96212 0.454175 0
M  V30 6245 C 595.841 3.43708 0.454479 0
M  V30 6246 C 594.902 4.26774 -0.465024 0
M  V30 6247 C 594.135 5.32937 0.28521 0
M  V30 6248 O 594.358 5.49968 1.513 0
M  V30 6249 O 593.292 6.00834 -0.358126 0
M  V30 6250 H 597.118 2.80252 -1.17016 0
M  V30 6251 H 594.703 1.352 -0.635724 0
M  V30 6252 H 596.585 4.11656 0.900963 0
M  V30 6253 H 595.26 2.97836 1.26789 0
M  V30 6254 H 594.167 3.61571 -0.960055 0
M  V30 6255 H 595.5 4.76217 -1.2441 0
M  V30 6256 N 597.152 0.631951 1.44375 0
M  V30 6257 C 598.115 -0.0628142 2.29114 0
M  V30 6258 C 599.115 -0.771494 1.41084 0
M  V30 6259 O 600.305 -0.615959 1.62947 0
M  V30 6260 C 597.437 -1.09953 3.22681 0
M  V30 6261 H 598.63 0.682509 2.92031 0
M  V30 6262 H 596.183 0.392128 1.51301 0
M  V30 6263 H 596.918 -1.87481 2.64616 0
M  V30 6264 H 596.703 -0.595286 3.87555 0
M  V30 6265 H 598.193 -1.58538 3.86336 0
M  V30 6266 N 598.631 -1.53133 0.372548 0
M  V30 6267 C 599.541 -2.29671 -0.478379 0
M  V30 6268 C 600.557 -1.35913 -1.08644 0
M  V30 6269 O 601.733 -1.68975 -1.09588 0
M  V30 6270 C 598.798 -3.07625 -1.599 0
M  V30 6271 C 597.859 -4.17061 -1.01776 0
M  V30 6272 C 597.092 -4.91289 -2.08497 0
M  V30 6273 O 597.315 -4.65442 -3.29727 0
M  V30 6274 O 596.249 -5.7705 -1.71164 0
M  V30 6275 H 600.075 -3.03355 0.144649 0
M  V30 6276 H 597.66 -1.48773 0.136729 0
M  V30 6277 H 599.542 -3.56281 -2.25038 0
M  V30 6278 H 598.217 -2.3677 -2.2073 0
M  V30 6279 H 597.124 -3.72641 -0.330098 0
M  V30 6280 H 598.457 -4.90102 -0.453915 0
M  V30 6281 N 600.109 -0.101901 -1.5727 0
M  V30 6282 C 601.019 0.868647 -2.17926 0
M  V30 6283 C 602.035 1.30527 -1.1506 0
M  V30 6284 O 603.211 1.37178 -1.47459 0
M  V30 6285 C 600.276 2.10727 -2.75309 0
M  V30 6286 C 599.337 1.7242 -3.93154 0
M  V30 6287 C 598.57 2.90377 -4.47791 0
M  V30 6288 O 598.793 4.05305 -4.01353 0
M  V30 6289 O 597.727 2.6845 -5.38719 0
M  V30 6290 H 601.553 0.382544 -3.01281 0
M  V30 6291 H 599.138 0.122812 -1.48894 0
M  V30 6292 H 601.02 2.83303 -3.11958 0
M  V30 6293 H 599.695 2.58376 -1.94996 0
M  V30 6294 H 598.602 0.970039 -3.61305 0
M  V30 6295 H 599.935 1.29528 -4.74851 0
M  V30 6296 N 601.587 1.56661 0.17182 0
M  V30 6297 C 602.534 1.96371 1.21273 0
M  V30 6298 C 603.504 0.82756 1.44016 0
M  V30 6299 O 604.689 1.08764 1.56764 0
M  V30 6300 C 601.829 2.32838 2.54716 0
M  V30 6301 C 600.942 3.59628 2.39356 0
M  V30 6302 C 600.077 3.85311 3.65662 0
M  V30 6303 C 599.116 5.0545 3.45234 0
M  V30 6304 N 598.253 5.27268 4.63608 0
M  V30 6305 H 603.093 2.85106 0.86709 0
M  V30 6306 H 600.63 1.41073 0.416744 0
M  V30 6307 H 602.588 2.52004 3.3249 0
M  V30 6308 H 601.218 1.47214 2.87277 0
M  V30 6309 H 600.27 3.4838 1.52761 0
M  V30 6310 H 601.582 4.4756 2.20207 0
M  V30 6311 H 600.736 4.04841 4.51872 0
M  V30 6312 H 599.475 2.95753 3.8779 0
M  V30 6313 H 598.48 4.85819 2.5741 0
M  V30 6314 H 599.705 5.96538 3.24529 0
M  V30 6315 H 597.651 4.40662 4.85956 0
M  V30 6316 H 597.568 6.09422 4.4737 0
M  V30 6317 H 598.836 5.51277 5.51103 0
M  V30 6318 N 603.065 -0.440357 1.51323 0
M  V30 6319 C 603.995 -1.54174 1.75364 0
M  V30 6320 C 604.976 -1.59039 0.603375 0
M  V30 6321 O 606.161 -1.74815 0.845774 0
M  V30 6322 C 603.291 -2.92277 1.87593 0
M  V30 6323 C 602.245 -3.02274 3.03009 0
M  V30 6324 C 601.571 -4.42327 3.00418 0
M  V30 6325 C 602.871 -2.76634 4.43024 0
M  V30 6326 H 604.565 -1.34307 2.67585 0
M  V30 6327 H 602.111 -0.644678 1.28763 0
M  V30 6328 H 604.064 -3.69284 2.02995 0
M  V30 6329 H 602.788 -3.13369 0.920179 0
M  V30 6330 H 601.447 -2.27706 2.87307 0
M  V30 6331 H 601.095 -4.60382 2.02626 0
M  V30 6332 H 600.795 -4.49946 3.77918 0
M  V30 6333 H 602.319 -5.21312 3.17909 0
M  V30 6334 H 603.733 -3.43376 4.59093 0
M  V30 6335 H 602.13 -2.95666 5.22208 0
M  V30 6336 H 603.2 -1.72262 4.5327 0
M  V30 6337 N 604.543 -1.41418 -0.695603 0
M  V30 6338 C 605.453 -1.45622 -1.83933 0
M  V30 6339 C 606.469 -0.346825 -1.70508 0
M  V30 6340 O 607.645 -0.59454 -1.92424 0
M  V30 6341 C 604.71 -1.33627 -3.19914 0
M  V30 6342 C 603.771 -2.54882 -3.45447 0
M  V30 6343 C 603.004 -2.43449 -4.7494 0
M  V30 6344 O 603.227 -1.45905 -5.51424 0
M  V30 6345 O 602.161 -3.33206 -5.01256 0
M  V30 6346 H 605.987 -2.42114 -1.83342 0
M  V30 6347 H 603.572 -1.22956 -0.848658 0
M  V30 6348 H 605.454 -1.29221 -4.01098 0
M  V30 6349 H 604.129 -0.402508 -3.21188 0
M  V30 6350 H 603.036 -2.64865 -2.64192 0
M  V30 6351 H 604.369 -3.47087 -3.48987 0
M  V30 6352 N 606.021 0.929856 -1.27246 0
M  V30 6353 C 606.931 2.0636 -1.11592 0
M  V30 6354 C 607.947 1.73938 -0.046496 0
M  V30 6355 O 609.123 1.9981 -0.252544 0
M  V30 6356 C 606.188 3.38213 -0.762437 0
M  V30 6357 C 605.249 3.84346 -1.9125 0
M  V30 6358 C 604.482 5.09906 -1.57579 0
M  V30 6359 O 604.705 5.68354 -0.482694 0
M  V30 6360 O 603.639 5.51359 -2.41426 0
M  V30 6361 H 607.465 2.22478 -2.0673 0
M  V30 6362 H 605.05 1.04865 -1.06413 0
M  V30 6363 H 606.932 4.1741 -0.57854 0
M  V30 6364 H 605.607 3.23307 0.159439 0
M  V30 6365 H 604.514 3.06045 -2.15144 0
M  V30 6366 H 605.847 4.0379 -2.81451 0
M  V30 6367 N 607.499 1.09233 1.13605 0
M  V30 6368 C 608.915 0.82163 1.36826 0
M  V30 6369 C 609.115 -0.565021 1.93416 0
M  V30 6370 O 608.171 -1.32026 2.15234 0
M  V30 6371 C 609.484 1.91124 2.32147 0
M  V30 6372 C 611.032 1.93824 2.45767 0
M  V30 6373 C 611.507 3.01923 3.44393 0
M  V30 6374 N 612.998 3.01149 3.51942 0
M  V30 6375 C 613.733 3.81434 4.2813 0
M  V30 6376 N 613.229 4.71621 5.07489 0
M  V30 6377 N 615.022 3.69702 4.23411 0
M  V30 6378 H 607.173 1.98633 0.752234 0
M  V30 6379 H 609.436 0.862482 0.393482 0
M  V30 6380 H 609.142 2.90862 1.97717 0
M  V30 6381 H 609.016 1.78777 3.32142 0
M  V30 6382 H 611.403 0.94726 2.79483 0
M  V30 6383 H 611.484 2.10248 1.45703 0
M  V30 6384 H 611.128 4.01232 3.11408 0
M  V30 6385 H 611.058 2.82742 4.44257 0
M  V30 6386 H 613.549 2.35789 2.95317 0
M  V30 6387 H 613.862 5.29468 5.62924 0
M  V30 6388 H 612.207 4.75658 5.06729 0
M  V30 6389 H 615.398 2.98606 3.60489 0
M  V30 6390 H 615.571 4.32509 4.82535 0
M  V30 6391 N 608.977 -1.30795 0.87923 0
M  V30 6392 C 609.907 -2.30742 0.357796 0
M  V30 6393 C 610.888 -1.60747 -0.556283 0
M  V30 6394 O 612.073 -1.88393 -0.47135 0
M  V30 6395 C 609.203 -3.44583 -0.433555 0
M  V30 6396 C 608.157 -4.26235 0.388251 0
M  V30 6397 C 607.483 -5.32073 -0.529352 0
M  V30 6398 C 608.783 -4.96303 1.62729 0
M  V30 6399 H 610.477 -2.74605 1.19299 0
M  V30 6400 H 608.023 -1.32017 0.575104 0
M  V30 6401 H 609.976 -4.13563 -0.808934 0
M  V30 6402 H 608.7 -2.99511 -1.30234 0
M  V30 6403 H 607.359 -3.58936 0.745695 0
M  V30 6404 H 607.007 -4.83249 -1.39569 0
M  V30 6405 H 606.707 -5.87598 0.0166741 0
M  V30 6406 H 608.231 -6.0391 -0.901373 0
M  V30 6407 H 609.645 -5.5783 1.32283 0
M  V30 6408 H 608.042 -5.61666 2.11309 0
M  V30 6409 H 609.112 -4.22758 2.37494 0
M  V30 6410 N 610.455 -0.639598 -1.44038 0
M  V30 6411 C 611.402 0.0602458 -2.30721 0
M  V30 6412 C 612.372 0.828352 -1.43971 0
M  V30 6413 O 613.557 0.807693 -1.72861 0
M  V30 6414 C 610.697 1.03008 -3.29368 0
M  V30 6415 C 609.81 0.259502 -4.3122 0
M  V30 6416 C 608.945 1.22191 -5.16955 0
M  V30 6417 C 607.984 0.440978 -6.10509 0
M  V30 6418 N 607.121 1.35428 -6.88915 0
M  V30 6419 H 611.961 -0.684867 -2.90023 0
M  V30 6420 H 609.498 -0.349509 -1.42888 0
M  V30 6421 H 611.456 1.60583 -3.85057 0
M  V30 6422 H 610.086 1.74222 -2.71747 0
M  V30 6423 H 609.138 -0.432317 -3.77935 0
M  V30 6424 H 610.45 -0.348347 -4.97582 0
M  V30 6425 H 609.604 1.86873 -5.77203 0
M  V30 6426 H 608.343 1.86367 -4.50687 0
M  V30 6427 H 607.348 -0.219279 -5.49363 0
M  V30 6428 H 608.573 -0.196192 -6.78817 0
M  V30 6429 H 606.519 1.9831 -6.25307 0
M  V30 6430 H 606.436 0.800657 -7.51748 0
M  V30 6431 H 607.704 1.98967 -7.53679 0
M  V30 6432 N 611.933 1.52934 -0.380664 0
M  V30 6433 C 613.349 1.59571 -0.0302429 0
M  V30 6434 C 613.549 1.39509 1.45394 0
M  V30 6435 O 612.605 1.20777 2.21741 0
M  V30 6436 C 613.918 2.96519 -0.499691 0
M  V30 6437 C 615.466 3.09672 -0.455204 0
M  V30 6438 C 615.941 4.49056 -0.900703 0
M  V30 6439 N 617.432 4.55215 -0.856367 0
M  V30 6440 C 618.167 5.61282 -1.17259 0
M  V30 6441 N 617.663 6.75035 -1.55885 0
M  V30 6442 N 619.456 5.51343 -1.0944 0
M  V30 6443 H 611.607 1.64224 -1.347 0
M  V30 6444 H 613.87 0.771033 -0.551554 0
M  V30 6445 H 613.576 3.16388 -1.53595 0
M  V30 6446 H 613.45 3.77052 0.105789 0
M  V30 6447 H 615.837 2.89504 0.571949 0
M  V30 6448 H 615.918 2.31113 -1.09638 0
M  V30 6449 H 615.562 4.69964 -1.92604 0
M  V30 6450 H 615.492 5.26068 -0.236629 0
M  V30 6451 H 617.983 3.73546 -0.572013 0
M  V30 6452 H 618.296 7.51926 -1.784 0
M  V30 6453 H 616.641 6.76388 -1.59764 0
M  V30 6454 H 619.832 4.61356 -0.791713 0
M  V30 6455 H 620.005 6.33905 -1.34417 0
M  V30 6456 N 613.412 0.11024 1.57214 0
M  V30 6457 C 614.658 -0.550684 1.9518 0
M  V30 6458 C 614.991 -1.66885 0.993122 0
M  V30 6459 O 614.266 -1.94479 0.0287907 0
M  V30 6460 C 614.549 -1.09163 3.43155 0
M  V30 6461 C 614.402 0.0225198 4.49794 0
M  V30 6462 C 615.721 -1.98527 3.92778 0
M  V30 6463 H 612.84 -0.198706 0.709708 0
M  V30 6464 H 615.482 0.184024 1.89107 0
M  V30 6465 H 613.632 -1.71775 3.48462 0
M  V30 6466 H 615.304 0.657443 4.56591 0
M  V30 6467 H 613.547 0.686868 4.28328 0
M  V30 6468 H 614.218 -0.39706 5.5057 0
M  V30 6469 H 616.694 -1.458 3.8972 0
M  V30 6470 H 615.57 -2.33298 4.96853 0
M  V30 6471 H 615.831 -2.90846 3.32958 0
M  V30 6472 N 614.89 -1.56749 -0.16351 0
M  V30 6473 C 616.306 -1.51043 -0.515567 0
M  V30 6474 C 616.506 -0.815855 -1.84245 0
M  V30 6475 O 615.562 -0.379477 -2.49632 0
M  V30 6476 C 616.875 -2.95791 -0.541114 0
M  V30 6477 C 618.423 -3.0664 -0.627776 0
M  V30 6478 C 618.898 -4.52861 -0.684141 0
M  V30 6479 N 620.389 -4.5714 -0.746818 0
M  V30 6480 C 621.124 -5.67634 -0.811137 0
M  V30 6481 N 620.62 -6.8774 -0.835811 0
M  V30 6482 N 622.413 -5.55624 -0.850756 0
M  V30 6483 H 614.564 -2.00307 0.70645 0
M  V30 6484 H 616.827 -0.912876 0.255659 0
M  V30 6485 H 616.533 -3.49797 0.365329 0
M  V30 6486 H 616.407 -3.50858 -1.38487 0
M  V30 6487 H 618.794 -2.52663 -1.52464 0
M  V30 6488 H 618.875 -2.54645 0.242805 0
M  V30 6489 H 618.519 -5.07472 0.2085 0
M  V30 6490 H 618.449 -5.02621 -1.57098 0
M  V30 6491 H 620.94 -3.70669 -0.735717 0
M  V30 6492 H 621.253 -7.67701 -0.886279 0
M  V30 6493 H 619.598 -6.90334 -0.803958 0
M  V30 6494 H 622.789 -4.60709 -0.828535 0
M  V30 6495 H 622.962 -6.41756 -0.897418 0
M  V30 6496 N 616.368 0.432326 -1.51554 0
M  V30 6497 C 617.301 1.54525 -1.6792 0
M  V30 6498 C 618.279 1.53831 -0.526764 0
M  V30 6499 O 619.463 1.72884 -0.751233 0
M  V30 6500 C 616.59 2.931 -1.69736 0
M  V30 6501 C 615.636 3.11799 -2.91005 0
M  V30 6502 S 616.469 2.87565 -4.51737 0
M  V30 6503 C 617.625 4.28412 -4.56305 0
M  V30 6504 H 617.858 1.4041 -2.62054 0
M  V30 6505 H 615.391 0.622357 -1.41301 0
M  V30 6506 H 617.349 3.72974 -1.71467 0
M  V30 6507 H 616.01 3.04574 -0.767705 0
M  V30 6508 H 615.203 4.13127 -2.8869 0
M  V30 6509 H 614.805 2.39757 -2.87041 0
M  V30 6510 H 617.097 5.21692 -4.32254 0
M  V30 6511 H 618.04 4.35758 -5.58141 0
M  V30 6512 H 618.448 4.12301 -3.85576 0
M  V30 6513 N 617.846 1.41785 0.688094 0
M  V30 6514 C 618.756 1.46596 1.83158 0
M  V30 6515 C 619.772 0.355862 1.70322 0
M  V30 6516 O 620.948 0.604737 1.92106 0
M  V30 6517 C 618.013 1.35322 3.192 0
M  V30 6518 C 617.074 2.56711 3.4409 0
M  V30 6519 C 616.307 2.45965 4.73642 0
M  V30 6520 O 616.53 1.48827 5.50642 0
M  V30 6521 O 615.464 3.35859 4.99482 0
M  V30 6522 H 619.29 2.43083 1.82056 0
M  V30 6523 H 616.875 1.23404 0.842126 0
M  V30 6524 H 618.757 1.31347 4.00407 0
M  V30 6525 H 617.432 0.419536 3.2097 0
M  V30 6526 H 616.339 2.66262 2.62784 0
M  V30 6527 H 617.672 3.48933 3.47141 0
M  V30 6528 N 619.324 -0.923095 1.27737 0
M  V30 6529 C 620.234 -2.05765 1.12685 0
M  V30 6530 C 621.25 -1.73911 0.0557197 0
M  V30 6531 O 622.426 -1.99674 0.263137 0
M  V30 6532 C 619.491 -3.37804 0.780363 0
M  V30 6533 C 618.552 -3.83326 1.93286 0
M  V30 6534 C 617.785 -5.09064 1.60281 0
M  V30 6535 O 618.008 -5.6809 0.512828 0
M  V30 6536 O 616.942 -5.50071 2.44347 0
M  V30 6537 H 620.768 -2.21378 2.07907 0
M  V30 6538 H 618.353 -1.04299 1.06968 0
M  V30 6539 H 620.235 -4.17097 0.600668 0
M  V30 6540 H 618.91 -3.23387 -0.142291 0
M  V30 6541 H 617.817 -3.049 2.16764 0
M  V30 6542 H 619.15 -4.02292 2.83588 0
M  V30 6543 N 620.802 -1.09834 -1.13024 0
M  V30 6544 C 621.712 -0.753731 -2.22162 0
M  V30 6545 C 622.728 0.246105 -1.72251 0
M  V30 6546 O 623.904 0.0864051 -2.01215 0
M  V30 6547 C 620.969 -0.183958 -3.46212 0
M  V30 6548 C 620.03 -1.24028 -4.10993 0
M  V30 6549 C 619.263 -0.697597 -5.29121 0
M  V30 6550 O 619.486 0.478092 -5.68393 0
M  V30 6551 O 618.42 -1.4546 -5.84059 0
M  V30 6552 H 622.246 -1.66456 -2.5402 0
M  V30 6553 H 619.831 -0.873026 -1.21238 0
M  V30 6554 H 621.713 0.130257 -4.21199 0
M  V30 6555 H 620.388 0.699823 -3.16045 0
M  V30 6556 H 619.295 -1.60725 -3.37814 0
M  V30 6557 H 620.628 -2.09685 -4.45301 0
M  V30 6558 N 622.28 1.30327 -0.886154 0
M  V30 6559 C 623.528 1.9571 -0.504195 0
M  V30 6560 C 623.849 1.70294 0.950003 0
M  V30 6561 O 623.119 1.02718 1.66811 0
M  V30 6562 H 621.699 0.72412 -0.183465 0
M  V30 6563 H 624.361 1.58835 -1.12949 0
M  V30 6564 H 623.457 3.04704 -0.675431 0
M  V30 6565 N 623.758 0.647228 1.43697 0
M  V30 6566 C 624.668 -0.0487997 2.34549 0
M  V30 6567 C 625.684 -0.818586 1.53542 0
M  V30 6568 O 626.86 -0.767195 1.86215 0
M  V30 6569 C 623.925 -1.00734 3.31743 0
M  V30 6570 C 622.986 -0.23515 4.28655 0
M  V30 6571 C 622.219 -1.14803 5.21206 0
M  V30 6572 O 622.442 -2.38717 5.18045 0
M  V30 6573 O 621.376 -0.623667 5.9866 0
M  V30 6574 H 625.202 0.698863 2.9555 0
M  V30 6575 H 622.787 0.407412 1.43738 0
M  V30 6576 H 624.669 -1.55837 3.91526 0
M  V30 6577 H 623.344 -1.73534 2.73254 0
M  V30 6578 H 622.251 0.359319 3.7237 0
M  V30 6579 H 623.584 0.453152 4.9011 0
M  V30 6580 N 625.236 -1.5273 0.388769 0
M  V30 6581 C 626.513 -1.93981 -0.251133 0
M  V30 6582 C 626.893 -1.32418 -1.64404 0
M  V30 6583 O 626.241 -0.492074 -2.23139 0
M  V30 6584 C 626.451 -3.47891 -0.27802 0
M  V30 6585 C 627.799 -4.21559 -0.507229 0
M  V30 6586 O 628.823 -3.54394 -0.358252 0
M  V30 6587 O 627.682 -5.40626 -0.799094 0
M  V30 6588 H 624.776 -0.812157 -0.15598 0
M  V30 6589 H 627.322 -1.63809 0.443237 0
M  V30 6590 H 626.094 -3.8503 0.697669 0
M  V30 6591 H 625.717 -3.84364 -1.01733 0
M  V30 6592 N 626.714 -0.118576 -1.57153 0
M  V30 6593 C 627.962 0.538461 -1.94795 0
M  V30 6594 C 628.283 1.67243 -1.00274 0
M  V30 6595 O 627.553 1.95811 -0.0589692 0
M  V30 6596 H 626.133 0.201904 -0.719197 0
M  V30 6597 H 628.795 -0.187418 -1.93997 0
M  V30 6598 H 627.891 0.933315 -2.97818 0
M  V30 6599 N 628.193 1.56834 0.155195 0
M  V30 6600 C 629.47 1.73799 0.897395 0
M  V30 6601 C 629.85 0.684379 1.99698 0
M  V30 6602 O 629.198 -0.298111 2.26547 0
M  V30 6603 C 629.408 3.17572 1.44737 0
M  V30 6604 C 630.756 3.79014 1.91399 0
M  V30 6605 O 631.78 3.20951 1.54496 0
M  V30 6606 O 630.639 4.80998 2.59429 0
M  V30 6607 H 627.733 0.710329 0.423511 0
M  V30 6608 H 630.279 1.69107 0.141761 0
M  V30 6609 H 629.051 3.85749 0.656741 0
M  V30 6610 H 628.674 3.26657 2.26674 0
M  V30 6611 N 629.671 -0.424282 1.51781 0
M  V30 6612 C 631.082 -1.00368 1.57427 0
M  V30 6613 C 631.433 -1.91962 0.40558 0
M  V30 6614 O 630.558 -2.111 -0.47601 0
M  V30 6615 C 631.153 -1.82707 2.85313 0
M  V30 6616 C 629.712 -2.35675 2.93487 0
M  V30 6617 C 628.859 -1.1524 2.5222 0
M  V30 6618 H 631.81 -0.205064 1.5737 0
M  V30 6619 H 631.831 -2.68294 2.69812 0
M  V30 6620 H 631.343 -1.16017 3.70353 0
M  V30 6621 H 629.444 -3.05781 2.12906 0
M  V30 6622 H 629.557 -2.67578 3.97415 0
M  V30 6623 H 627.921 -1.50174 2.05718 0
M  V30 6624 H 628.704 -0.5014 3.39619 0
M  V30 6625 N 631.149 -1.42148 -0.680565 0
M  V30 6626 C 632.374 -1.45901 -1.47403 0
M  V30 6627 C 632.799 -0.0700985 -1.87969 0
M  V30 6628 O 632.157 0.930145 -1.55621 0
M  V30 6629 C 632.205 -2.38661 -2.70321 0
M  V30 6630 O 631.309 -1.85399 -3.68376 0
M  V30 6631 H 630.65 -0.494565 -0.443059 0
M  V30 6632 H 633.18 -1.86774 -0.835251 0
M  V30 6633 H 633.19 -2.55046 -3.18458 0
M  V30 6634 H 631.865 -3.39571 -2.40134 0
M  V30 6635 H 630.442 -1.78541 -3.2738 0
M  V30 6636 N 632.627 0.916307 -1.28225 0
M  V30 6637 C 633.852 1.7043 -1.18188 0
M  V30 6638 C 634.277 1.86346 0.256274 0
M  V30 6639 O 633.635 1.37175 1.18544 0
M  V30 6640 C 633.683 3.07546 -1.88275 0
M  V30 6641 O 632.787 3.94904 -1.18848 0
M  V30 6642 H 632.128 0.521967 -0.410423 0
M  V30 6643 H 634.658 1.14589 -1.69501 0
M  V30 6644 H 634.668 3.57793 -1.96082 0
M  V30 6645 H 633.343 2.95279 -2.92887 0
M  V30 6646 H 631.92 3.53339 -1.19187 0
M  V30 6647 N 634.105 1.10431 1.1244 0
M  V30 6648 C 635.353 0.845045 1.83585 0
M  V30 6649 C 635.674 -0.631168 1.84503 0
M  V30 6650 O 634.944 -1.45825 1.30813 0
M  V30 6651 H 633.524 0.309628 0.679809 0
M  V30 6652 H 636.186 1.39458 1.36153 0
M  V30 6653 H 635.282 1.20786 2.8778 0
M  V30 6654 N 635.583 -1.29855 0.893053 0
M  V30 6655 C 636.994 -1.77946 0.564998 0
M  V30 6656 C 637.345 -1.73339 -0.919134 0
M  V30 6657 O 636.47 -1.3152 -1.71847 0
M  V30 6658 C 637.065 -3.23118 1.01883 0
M  V30 6659 C 635.624 -3.69013 0.742051 0
M  V30 6660 C 634.771 -2.50121 1.19727 0
M  V30 6661 H 637.722 -1.16611 1.07646 0
M  V30 6662 H 637.743 -3.78875 0.351249 0
M  V30 6663 H 637.255 -3.26439 2.09903 0
M  V30 6664 H 635.356 -3.71173 -0.325816 0
M  V30 6665 H 635.469 -4.60117 1.33527 0
M  V30 6666 H 633.833 -2.47128 0.616418 0
M  V30 6667 H 634.616 -2.56174 2.28538 0
M  V30 6668 N 637.061 -0.65484 -1.43351 0
M  V30 6669 C 638.472 -0.248506 -1.85039 0
M  V30 6670 C 638.823 1.20526 -1.54816 0
M  V30 6671 O 637.948 1.92016 -0.99794 0
M  V30 6672 C 638.543 -0.444241 -3.35875 0
M  V30 6673 C 637.102 -0.0922108 -3.76287 0
M  V30 6674 C 636.249 -0.746327 -2.67068 0
M  V30 6675 H 639.2 -0.8584 -1.33481 0
M  V30 6676 H 639.221 0.309762 -3.79237 0
M  V30 6677 H 638.733 -1.50239 -3.5784 0
M  V30 6678 H 636.834 0.96328 -3.59933 0
M  V30 6679 H 636.947 -0.518807 -4.76283 0
M  V30 6680 H 635.311 -0.179416 -2.54067 0
M  V30 6681 H 636.094 -1.80754 -2.91861 0
M  V30 6682 N 638.539 1.52521 -0.396863 0
M  V30 6683 C 639.787 2.01274 0.182536 0
M  V30 6684 C 640.108 1.28485 1.46685 0
M  V30 6685 O 639.378 0.407134 1.91623 0
M  V30 6686 H 637.958 0.743671 0.0704442 0
M  V30 6687 H 640.62 1.87547 -0.530289 0
M  V30 6688 H 639.716 3.09687 0.387385 0
M  V30 6689 N 640.017 0.126909 1.57088 0
M  V30 6690 C 641.428 -0.397201 1.82426 0
M  V30 6691 C 641.779 -1.66084 1.04453 0
M  V30 6692 O 640.904 -2.14534 0.283552 0
M  V30 6693 C 641.499 -0.727411 3.30899 0
M  V30 6694 C 640.058 -1.19612 3.56889 0
M  V30 6695 C 639.205 -0.20885 2.76512 0
M  V30 6696 H 642.156 0.351924 1.54749 0
M  V30 6697 H 642.177 -1.58407 3.45959 0
M  V30 6698 H 641.689 0.19247 3.87622 0
M  V30 6699 H 639.79 -2.13263 3.05532 0
M  V30 6700 H 639.903 -1.13598 4.65438 0
M  V30 6701 H 638.267 -0.697479 2.44964 0
M  V30 6702 H 639.05 0.704267 3.35998 0
M  V30 6703 N 641.495 -1.56914 -0.146875 0
M  V30 6704 C 642.735 -1.85163 -0.86568 0
M  V30 6705 C 643.099 -0.711215 -1.78342 0
M  V30 6706 O 644.3 -0.874754 -2.54168 0
M  V30 6707 C 642.571 -3.18593 -1.61967 0
M  V30 6708 S 644.13 -3.68397 -2.38388 0
M  V30 6709 H 640.948 -0.6494 -0.289483 0
M  V30 6710 H 643.55 -1.95096 -0.125679 0
M  V30 6711 H 642.254 -3.99562 -0.93694 0
M  V30 6712 H 641.785 -3.11666 -2.40058 0
M  V30 6713 H 643.8 -3.37672 -3.63582 0
M  V30 6714 N 642.974 0.416227 -1.52004 0
M  V30 6715 C 643.924 1.50558 -1.7122 0
M  V30 6716 C 644.908 1.50613 -0.56609 0
M  V30 6717 O 646.1 1.56709 -0.822874 0
M  V30 6718 C 643.229 2.88556 -1.85984 0
M  V30 6719 C 642.315 2.93177 -3.06445 0
M  V30 6720 N 642.706 2.67505 -4.29272 0
M  V30 6721 C 641.004 3.24343 -3.06133 0
M  V30 6722 C 641.705 2.78511 -5.10692 0
M  V30 6723 N 640.681 3.11087 -4.45787 0
M  V30 6724 H 644.483 1.29494 -2.63834 0
M  V30 6725 H 641.997 0.62384 -1.4994 0
M  V30 6726 H 643.994 3.66954 -1.97865 0
M  V30 6727 H 642.654 3.10624 -0.945654 0
M  V30 6728 H 643.665 2.42033 -4.57865 0
M  V30 6729 H 640.342 3.52051 -2.24425 0
M  V30 6730 H 641.732 2.62438 -6.18527 0
M  V30 6731 N 644.452 1.42507 0.673017 0
M  V30 6732 C 645.399 1.46124 1.78651 0
M  V30 6733 C 646.369 0.313007 1.63124 0
M  V30 6734 O 647.554 0.517337 1.83653 0
M  V30 6735 C 644.694 1.3711 3.16694 0
M  V30 6736 C 643.807 2.61983 3.43495 0
M  V30 6737 C 642.942 2.45098 4.71275 0
M  V30 6738 C 641.981 3.65336 4.91117 0
M  V30 6739 N 641.118 3.47383 6.10139 0
M  V30 6740 H 645.958 2.4128 1.74895 0
M  V30 6741 H 643.495 1.19788 0.853766 0
M  V30 6742 H 645.453 1.29881 3.96468 0
M  V30 6743 H 644.083 0.45549 3.1957 0
M  V30 6744 H 643.135 2.79571 2.57961 0
M  V30 6745 H 644.447 3.51355 3.5405 0
M  V30 6746 H 643.601 2.35466 5.59143 0
M  V30 6747 H 642.34 1.53219 4.63007 0
M  V30 6748 H 641.345 3.754 4.0169 0
M  V30 6749 H 642.57 4.58199 5.01229 0
M  V30 6750 H 640.516 2.58222 6.0304 0
M  V30 6751 H 640.433 4.30344 6.21563 0
M  V30 6752 H 641.701 3.41565 7.00681 0
M  V30 6753 N 645.93 -0.909495 1.28709 0
M  V30 6754 C 646.86 -2.0291 1.15542 0
M  V30 6755 C 647.841 -1.7002 0.0521017 0
M  V30 6756 O 649.026 -1.92835 0.229849 0
M  V30 6757 C 646.156 -3.37458 0.820935 0
M  V30 6758 C 645.11 -3.84524 1.87949 0
M  V30 6759 C 644.436 -5.16086 1.39854 0
M  V30 6760 C 645.736 -4.05918 3.28676 0
M  V30 6761 H 647.43 -2.14183 2.09203 0
M  V30 6762 H 644.976 -1.02913 1.00722 0
M  V30 6763 H 646.929 -4.1528 0.715571 0
M  V30 6764 H 645.653 -3.26249 -0.151374 0
M  V30 6765 H 644.312 -3.08911 1.97408 0
M  V30 6766 H 643.96 -5.01284 0.41518 0
M  V30 6767 H 643.66 -5.48547 2.1064 0
M  V30 6768 H 645.184 -5.96459 1.30649 0
M  V30 6769 H 646.598 -4.74252 3.22115 0
M  V30 6770 H 644.995 -4.49717 3.97334 0
M  V30 6771 H 646.065 -3.10583 3.72379 0
M  V30 6772 N 647.408 -1.11026 -1.11852 0
M  V30 6773 C 648.819 -0.873203 -1.65021 0
M  V30 6774 C 649.17 0.595364 -1.86949 0
M  V30 6775 O 648.295 1.45645 -1.60051 0
M  V30 6776 C 648.89 -1.57859 -2.99777 0
M  V30 6777 C 647.449 -1.38807 -3.49871 0
M  V30 6778 C 646.596 -1.62403 -2.24768 0
M  V30 6779 H 649.547 -1.26712 -0.955503 0
M  V30 6780 H 649.568 -1.02111 -3.66543 0
M  V30 6781 H 649.08 -2.6474 -2.83786 0
M  V30 6782 H 647.181 -0.341163 -3.71035 0
M  V30 6783 H 647.294 -2.13421 -4.28938 0
M  V30 6784 H 645.658 -1.04714 -2.32179 0
M  V30 6785 H 646.441 -2.70549 -2.11324 0
M  V30 6786 N 648.886 1.2938 -0.899927 0
M  V30 6787 C 650.297 1.77644 -0.574427 0
M  V30 6788 C 650.648 1.73824 0.909928 0
M  V30 6789 O 649.773 1.32429 1.71147 0
M  V30 6790 C 650.368 3.22573 -1.03595 0
M  V30 6791 C 648.927 3.68614 -0.76161 0
M  V30 6792 C 648.074 2.49483 -1.21052 0
M  V30 6793 H 651.025 1.16038 -1.08263 0
M  V30 6794 H 651.046 3.78684 -0.371337 0
M  V30 6795 H 650.558 3.25321 -2.11631 0
M  V30 6796 H 648.659 3.7134 0.306127 0
M  V30 6797 H 648.772 4.59402 -1.35965 0
M  V30 6798 H 647.136 2.46798 -0.629515 0
M  V30 6799 H 647.919 2.54959 -2.29893 0
M  V30 6800 N 650.364 0.662433 1.43002 0
M  V30 6801 C 651.327 -0.0142016 2.29196 0
M  V30 6802 C 652.327 -0.741394 1.42688 0
M  V30 6803 O 653.517 -0.581257 1.64216 0
M  V30 6804 C 650.649 -1.03084 3.24941 0
M  V30 6805 H 651.842 0.7443 2.90517 0
M  V30 6806 H 649.395 0.424133 1.50435 0
M  V30 6807 H 650.13 -1.81826 2.68533 0
M  V30 6808 H 649.915 -0.512946 3.8873 0
M  V30 6809 H 651.405 -1.50308 3.89612 0
M  V30 6810 N 651.842 -1.52309 0.404946 0
M  V30 6811 C 653.253 -1.86585 -0.0655926 0
M  V30 6812 C 653.604 -1.3239 -1.44801 0
M  V30 6813 O 652.729 -0.6615 -2.06042 0
M  V30 6814 C 653.324 -3.38566 -0.125801 0
M  V30 6815 C 651.883 -3.72497 -0.540666 0
M  V30 6816 C 651.03 -2.75806 0.287487 0
M  V30 6817 H 653.981 -1.45995 0.622185 0
M  V30 6818 H 654.002 -3.68658 -0.941888 0
M  V30 6819 H 653.514 -3.77981 0.880473 0
M  V30 6820 H 651.615 -3.38659 -1.55373 0
M  V30 6821 H 651.728 -4.78234 -0.287956 0
M  V30 6822 H 650.092 -2.53474 -0.249561 0
M  V30 6823 H 650.875 -3.18059 1.29203 0
M  V30 6824 N 653.32 -0.135238 -1.57019 0
M  V30 6825 C 654.283 0.794707 -2.14981 0
M  V30 6826 C 655.283 1.18342 -1.08866 0
M  V30 6827 O 656.473 1.10627 -1.34563 0
M  V30 6828 C 653.605 2.07685 -2.70333 0
M  V30 6829 H 654.798 0.290696 -2.98488 0
M  V30 6830 H 652.351 0.114128 -1.55883 0
M  V30 6831 H 653.086 2.6248 -1.9046 0
M  V30 6832 H 652.871 1.80745 -3.47957 0
M  V30 6833 H 654.361 2.74127 -3.1503 0
M  V30 6834 N 654.798 1.5699 0.138552 0
M  V30 6835 C 656.044 1.84966 0.846116 0
M  V30 6836 C 656.399 0.72038 1.78405 0
M  V30 6837 O 655.692 -0.281076 1.89527 0
M  V30 6838 C 655.886 3.17007 1.65049 0
M  V30 6839 C 655.715 4.42672 0.79194 0
M  V30 6840 C 654.485 5.03254 0.454293 0
M  V30 6841 C 656.683 5.14164 0.118419 0
M  V30 6842 N 654.665 6.12482 -0.416964 0
M  V30 6843 C 656.036 6.16966 -0.61263 0
M  V30 6844 C 658.091 4.97884 0.0399671 0
M  V30 6845 C 656.794 7.0525 -1.41473 0
M  V30 6846 C 658.82 5.86639 -0.748901 0
M  V30 6847 C 658.182 6.88929 -1.4682 0
M  V30 6848 H 654.281 0.727362 0.287172 0
M  V30 6849 H 656.865 1.94383 0.110972 0
M  V30 6850 H 655.036 3.08722 2.35681 0
M  V30 6851 H 656.768 3.3286 2.30187 0
M  V30 6852 H 653.523 4.6693 0.792038 0
M  V30 6853 H 653.947 6.7172 -0.843865 0
M  V30 6854 H 658.589 4.18779 0.581728 0
M  V30 6855 H 656.307 7.83777 -1.96772 0
M  V30 6856 H 659.893 5.7611 -0.811705 0
M  V30 6857 H 658.773 7.56419 -2.06882 0
M  V30 6858 N 656.276 -0.40816 1.52223 0
M  V30 6859 C 657.226 -1.49648 1.72016 0
M  V30 6860 C 658.21 -1.50311 0.574069 0
M  V30 6861 O 659.402 -1.56271 0.831173 0
M  V30 6862 C 656.531 -2.87566 1.87512 0
M  V30 6863 C 655.617 -2.91547 3.07995 0
M  V30 6864 N 656.008 -2.65225 4.30685 0
M  V30 6865 C 654.306 -3.22715 3.07849 0
M  V30 6866 C 655.007 -2.75799 5.12162 0
M  V30 6867 N 653.983 -3.08719 4.4743 0
M  V30 6868 H 657.785 -1.28093 2.64517 0
M  V30 6869 H 655.299 -0.61588 1.50269 0
M  V30 6870 H 657.296 -3.65899 1.99809 0
M  V30 6871 H 655.956 -3.10118 0.962114 0
M  V30 6872 H 656.967 -2.39601 4.59142 0
M  V30 6873 H 653.644 -3.50856 2.26289 0
M  V30 6874 H 655.034 -2.59155 6.1991 0
M  V30 6875 N 657.755 -1.42862 -0.66545 0
M  V30 6876 C 658.705 -1.43521 -1.7716 0
M  V30 6877 C 659.689 -0.305267 -1.57978 0
M  V30 6878 O 660.881 -0.548176 -1.68297 0
M  V30 6879 C 658.01 -1.34914 -3.15679 0
M  V30 6880 C 657.096 -2.5289 -3.40452 0
M  V30 6881 N 657.487 -3.78284 -3.3576 0
M  V30 6882 C 655.785 -2.47351 -3.71124 0
M  V30 6883 C 656.486 -4.56701 -3.60276 0
M  V30 6884 N 655.462 -3.87249 -3.81496 0
M  V30 6885 H 659.264 -2.38357 -1.7194 0
M  V30 6886 H 656.778 -1.37342 -0.866653 0
M  V30 6887 H 658.775 -1.33468 -3.94958 0
M  V30 6888 H 657.435 -0.410881 -3.2209 0
M  V30 6889 H 658.446 -4.10746 -3.15448 0
M  V30 6890 H 655.123 -1.62152 -3.84725 0
M  V30 6891 H 656.513 -5.65704 -3.6253 0
M  V30 6892 N 659.233 0.902656 -1.29189 0
M  V30 6893 C 660.48 1.65287 -1.16989 0
M  V30 6894 C 660.808 1.92485 0.279232 0
M  V30 6895 O 660.063 1.53143 1.21843 0
M  V30 6896 C 660.362 3.011 -1.92545 0
M  V30 6897 C 660.028 2.93521 -3.42281 0
M  V30 6898 C 658.69 2.91161 -3.83117 0
M  V30 6899 C 661.042 2.82947 -4.3771 0
M  V30 6900 C 658.37 2.76043 -5.17704 0
M  V30 6901 C 660.722 2.69368 -5.72384 0
M  V30 6902 C 659.386 2.65373 -6.12482 0
M  V30 6903 H 658.656 0.604828 -0.428094 0
M  V30 6904 H 661.303 1.05084 -1.60092 0
M  V30 6905 H 659.608 3.65153 -1.42024 0
M  V30 6906 H 661.305 3.58073 -1.80512 0
M  V30 6907 H 657.895 2.96158 -3.09819 0
M  V30 6908 H 662.079 2.83849 -4.07116 0
M  V30 6909 H 657.335 2.71352 -5.47885 0
M  V30 6910 H 661.509 2.60156 -6.45981 0
M  V30 6911 H 659.136 2.53415 -7.16718 0
M  V30 6912 N 660.711 1.11618 1.11262 0
M  V30 6913 C 662.122 0.881942 1.64556 0
M  V30 6914 C 662.473 -0.585442 1.87262 0
M  V30 6915 O 661.598 -1.44795 1.60821 0
M  V30 6916 C 662.193 1.59446 2.98935 0
M  V30 6917 C 660.752 1.40661 3.4913 0
M  V30 6918 C 659.899 1.63593 2.23903 0
M  V30 6919 H 662.85 1.27217 0.94877 0
M  V30 6920 H 662.871 1.04054 3.65996 0
M  V30 6921 H 662.383 2.66241 2.82378 0
M  V30 6922 H 660.484 0.360835 3.70849 0
M  V30 6923 H 660.597 2.15693 4.27801 0
M  V30 6924 H 658.961 1.05944 2.3162 0
M  V30 6925 H 659.744 2.71666 2.09886 0
M  V30 6926 N 662.189 -1.289 0.906776 0
M  V30 6927 C 663.6 -1.77336 0.58384 0
M  V30 6928 C 663.951 -1.74304 -0.900697 0
M  V30 6929 O 663.076 -1.33335 -1.70443 0
M  V30 6930 C 663.671 -3.22019 1.05304 0
M  V30 6931 C 662.23 -3.68205 0.781148 0
M  V30 6932 C 661.377 -2.48837 1.22373 0
M  V30 6933 H 664.328 -1.15462 1.08877 0
M  V30 6934 H 664.349 -3.78481 0.391414 0
M  V30 6935 H 663.861 -3.24194 2.13353 0
M  V30 6936 H 661.962 -3.71497 -0.28643 0
M  V30 6937 H 662.075 -4.58675 1.384 0
M  V30 6938 H 660.439 -2.46461 0.642594 0
M  V30 6939 H 661.222 -2.53736 2.31242 0
M  V30 6940 N 663.667 -0.670007 -1.42649 0
M  V30 6941 C 665.083 -0.33911 -1.55956 0
M  V30 6942 C 665.283 1.1558 -1.65056 0
M  V30 6943 O 664.339 1.94111 -1.61485 0
M  V30 6944 C 665.652 -1.06522 -2.812 0
M  V30 6945 C 667.2 -1.04708 -2.94966 0
M  V30 6946 C 667.675 -1.75442 -4.23065 0
M  V30 6947 N 669.166 -1.72286 -4.29967 0
M  V30 6948 C 669.901 -2.23877 -5.27889 0
M  V30 6949 N 669.397 -2.83829 -6.31991 0
M  V30 6950 N 671.19 -2.14279 -5.19654 0
M  V30 6951 H 663.341 -1.6399 -1.34986 0
M  V30 6952 H 665.604 -0.690603 -0.649439 0
M  V30 6953 H 665.31 -2.12033 -2.80597 0
M  V30 6954 H 665.184 -0.627398 -3.71946 0
M  V30 6955 H 667.571 -0.000315966 -2.951 0
M  V30 6956 H 667.652 -1.52374 -2.05465 0
M  V30 6957 H 667.296 -2.80084 -4.23693 0
M  V30 6958 H 667.226 -1.25229 -5.11493 0
M  V30 6959 H 669.717 -1.28554 -3.55362 0
M  V30 6960 H 670.03 -3.20827 -7.03057 0
M  V30 6961 H 668.375 -2.87896 -6.32567 0
M  V30 6962 H 671.566 -1.67135 -4.37245 0
M  V30 6963 H 671.739 -2.54792 -5.95806 0
M  V30 6964 N 665.145 1.52092 -0.413018 0
M  V30 6965 C 666.385 2.03765 0.160975 0
M  V30 6966 C 666.749 1.29174 1.4205 0
M  V30 6967 O 667.95 1.71093 2.07318 0
M  V30 6968 C 666.221 3.55167 0.398871 0
M  V30 6969 S 667.78 4.28619 0.939755 0
M  V30 6970 H 664.598 0.709685 0.0432281 0
M  V30 6971 H 667.2 1.87102 -0.566831 0
M  V30 6972 H 665.904 4.07034 -0.524544 0
M  V30 6973 H 665.435 3.7608 1.15444 0
M  V30 6974 H 667.45 4.43773 2.21991 0
M  V30 6975 N 666.623 0.143563 1.56945 0
M  V30 6976 C 667.869 -0.50916 1.96304 0
M  V30 6977 C 668.202 -1.64741 1.0283 0
M  V30 6978 O 667.477 -1.94374 0.0700361 0
M  V30 6979 C 667.76 -1.0186 3.45393 0
M  V30 6980 C 667.613 0.117923 4.49645 0
M  V30 6981 C 668.932 -1.90151 3.96901 0
M  V30 6982 H 666.051 -0.183608 0.713763 0
M  V30 6983 H 668.693 0.224095 1.88674 0
M  V30 6984 H 666.843 -1.64345 3.52027 0
M  V30 6985 H 668.515 0.754145 4.55094 0
M  V30 6986 H 666.758 0.777568 4.26774 0
M  V30 6987 H 667.429 -0.280187 5.51288 0
M  V30 6988 H 669.905 -1.375 3.92725 0
M  V30 6989 H 668.781 -2.22707 5.0169 0
M  V30 6990 H 669.042 -2.83718 3.39052 0
M  V30 6991 N 668.101 -1.57061 -0.130224 0
M  V30 6992 C 669.378 -1.75205 -0.869631 0
M  V30 6993 C 669.758 -0.716063 -1.98584 0
M  V30 6994 O 669.106 0.262032 -2.26993 0
M  V30 6995 C 669.316 -3.19835 -1.39666 0
M  V30 6996 C 670.664 -3.82011 -1.85345 0
M  V30 6997 O 671.688 -3.23368 -1.49371 0
M  V30 6998 O 670.547 -4.85064 -2.51744 0
M  V30 6999 H 667.641 -0.716977 -0.412157 0
M  V30 7000 H 670.187 -1.69311 -0.11484 0
M  V30 7001 H 668.959 -3.86745 -0.595288 0
M  V30 7002 H 668.582 -3.30222 -2.21448 0
M  V30 7003 N 669.579 0.400081 -1.52437 0
M  V30 7004 C 670.512 1.50929 -1.7116 0
M  V30 7005 C 671.49 1.52679 -0.559275 0
M  V30 7006 O 672.674 1.71251 -0.787735 0
M  V30 7007 C 669.801 2.89433 -1.75915 0
M  V30 7008 C 668.847 3.05556 -2.97553 0
M  V30 7009 S 669.68 2.77919 -4.57735 0
M  V30 7010 C 670.836 4.18636 -4.6529 0
M  V30 7011 H 671.069 1.3482 -2.64973 0
M  V30 7012 H 668.602 0.592245 -1.4259 0
M  V30 7013 H 670.56 3.69253 -1.7934 0
M  V30 7014 H 669.221 3.02877 -0.832137 0
M  V30 7015 H 668.414 4.0691 -2.97388 0
M  V30 7016 H 668.016 2.33615 -2.92062 0
M  V30 7017 H 670.308 5.12406 -4.43223 0
M  V30 7018 H 671.251 4.23821 -5.67258 0
M  V30 7019 H 671.659 4.04029 -3.94234 0
M  V30 7020 N 671.057 1.43213 0.657864 0
M  V30 7021 C 672.305 1.44298 1.41501 0
M  V30 7022 C 672.626 0.0666478 1.94886 0
M  V30 7023 O 671.896 -0.897345 1.74139 0
M  V30 7024 H 670.476 0.531257 0.525143 0
M  V30 7025 H 673.138 1.78777 0.776195 0
M  V30 7026 H 672.234 2.1528 2.25966 0
M  V30 7027 N 672.536 -0.895792 1.29666 0
M  V30 7028 C 673.776 -1.6609 1.19136 0
M  V30 7029 C 674.14 -1.90336 -0.252245 0
M  V30 7030 O 675.341 -2.64469 -0.480593 0
M  V30 7031 C 673.612 -2.97129 1.98618 0
M  V30 7032 S 675.171 -3.88146 2.04666 0
M  V30 7033 H 671.989 -0.570188 0.424744 0
M  V30 7034 H 674.591 -1.06411 1.64003 0
M  V30 7035 H 673.295 -2.77199 3.02637 0
M  V30 7036 H 672.826 -3.61847 1.54371 0
M  V30 7037 H 674.841 -4.82301 1.16618 0
M  V30 7038 N 674.014 -1.12206 -1.10668 0
M  V30 7039 C 674.977 -0.790867 -2.15123 0
M  V30 7040 C 675.977 0.193618 -1.5963 0
M  V30 7041 O 677.167 -0.0318728 -1.74171 0
M  V30 7042 C 674.299 -0.174797 -3.40452 0
M  V30 7043 H 675.492 -1.7163 -2.45933 0
M  V30 7044 H 673.045 -0.924993 -1.2599 0
M  V30 7045 H 673.78 0.760478 -3.15257 0
M  V30 7046 H 673.565 -0.88358 -3.82015 0
M  V30 7047 H 675.055 0.0405162 -4.1758 0
M  V30 7048 N 675.492 1.28418 -0.913599 0
M  V30 7049 C 676.74 1.94596 -0.545594 0
M  V30 7050 C 677.061 1.7227 0.913668 0
M  V30 7051 O 676.331 1.06233 1.64595 0
M  V30 7052 H 674.911 0.720065 -0.198783 0
M  V30 7053 H 677.573 1.56404 -1.16292 0
M  V30 7054 H 676.669 3.03202 -0.739911 0
M  V30 7055 N 676.97 0.677563 1.42291 0
M  V30 7056 C 677.9 0.014968 2.33495 0
M  V30 7057 C 678.881 -0.786376 1.50831 0
M  V30 7058 O 680.066 -0.742975 1.79426 0
M  V30 7059 C 677.196 -0.935023 3.34477 0
M  V30 7060 C 676.15 -0.242074 4.27315 0
M  V30 7061 C 675.476 -1.30519 5.18526 0
M  V30 7062 C 676.776 0.880604 5.14823 0
M  V30 7063 H 678.47 0.776671 2.89151 0
M  V30 7064 H 676.016 0.37494 1.39033 0
M  V30 7065 H 677.969 -1.40766 3.97194 0
M  V30 7066 H 676.693 -1.72818 2.77131 0
M  V30 7067 H 675.352 0.210351 3.65996 0
M  V30 7068 H 675 -2.09041 4.57505 0
M  V30 7069 H 674.7 -0.846652 5.81468 0
M  V30 7070 H 676.224 -1.7787 5.84119 0
M  V30 7071 H 677.638 0.489062 5.7121 0
M  V30 7072 H 676.035 1.26511 5.86613 0
M  V30 7073 H 677.105 1.72818 4.53059 0
M  V30 7074 N 678.448 -1.51871 0.421078 0
M  V30 7075 C 679.864 -1.59435 0.0725398 0
M  V30 7076 C 680.064 -1.43315 -1.41644 0
M  V30 7077 O 679.12 -1.26614 -2.18461 0
M  V30 7078 C 680.433 -2.9509 0.578132 0
M  V30 7079 C 681.981 -3.08356 0.537149 0
M  V30 7080 C 682.456 -4.4651 1.01945 0
M  V30 7081 N 683.947 -4.52784 0.976758 0
M  V30 7082 C 684.682 -5.57976 1.32099 0
M  V30 7083 N 684.178 -6.70664 1.73727 0
M  V30 7084 N 685.971 -5.48248 1.2402 0
M  V30 7085 H 678.122 -1.60595 1.39007 0
M  V30 7086 H 680.385 -0.756138 0.571803 0
M  V30 7087 H 680.091 -3.12205 1.61929 0
M  V30 7088 H 679.965 -3.772 -0.00578374 0
M  V30 7089 H 682.352 -2.90919 -0.494991 0
M  V30 7090 H 682.433 -2.28125 1.15727 0
M  V30 7091 H 682.077 -4.64692 2.04997 0
M  V30 7092 H 682.007 -5.25256 0.376023 0
M  V30 7093 H 684.498 -3.71898 0.670851 0
M  V30 7094 H 684.811 -7.46932 1.98274 0
M  V30 7095 H 683.156 -6.71914 1.77641 0
M  V30 7096 H 686.347 -4.59095 0.913756 0
M  V30 7097 H 686.52 -6.30119 1.51176 0
M  V30 7098 N 679.926 -0.151884 -1.56866 0
M  V30 7099 C 681.203 0.543328 -1.87902 0
M  V30 7100 C 681.583 1.82636 -1.05864 0
M  V30 7101 O 680.931 2.28028 -0.146868 0
M  V30 7102 C 681.141 0.804056 -3.39611 0
M  V30 7103 C 682.489 1.14267 -4.08935 0
M  V30 7104 O 683.513 0.893248 -3.44818 0
M  V30 7105 O 682.372 1.61229 -5.22176 0
M  V30 7106 H 679.466 0.277724 -0.778973 0
M  V30 7107 H 682.012 -0.188862 -1.68646 0
M  V30 7108 H 680.784 -0.103772 -3.91162 0
M  V30 7109 H 680.407 1.59025 -3.64413 0
M  V30 7110 N 681.404 1.57128 0.121893 0
M  V30 7111 C 682.367 1.99197 1.13372 0
M  V30 7112 C 683.367 0.881728 1.3447 0
M  V30 7113 O 684.557 1.14783 1.31036 0
M  V30 7114 C 681.689 2.32963 2.4888 0
M  V30 7115 H 682.882 2.89788 0.772204 0
M  V30 7116 H 680.435 1.51952 0.366093 0
M  V30 7117 H 681.17 1.45243 2.89957 0
M  V30 7118 H 680.955 3.13934 2.34921 0
M  V30 7119 H 682.445 2.66261 3.21706 0
M  V30 7120 N 682.882 -0.391992 1.52647 0
M  V30 7121 C 683.832 -1.47815 1.73594 0
M  V30 7122 C 684.816 -1.49693 0.589979 0
M  V30 7123 O 686.008 -1.5538 0.847701 0
M  V30 7124 C 683.137 -2.85561 1.90551 0
M  V30 7125 C 682.223 -2.88264 3.1107 0
M  V30 7126 N 682.614 -2.60642 4.33474 0
M  V30 7127 C 680.912 -3.19432 3.11254 0
M  V30 7128 C 681.613 -2.70351 5.15058 0
M  V30 7129 N 680.589 -3.03956 4.50679 0
M  V30 7130 H 684.391 -1.2528 2.65861 0
M  V30 7131 H 681.905 -0.599907 1.50913 0
M  V30 7132 H 683.902 -3.63759 2.03678 0
M  V30 7133 H 682.562 -3.09081 0.994952 0
M  V30 7134 H 683.573 -2.34718 4.61658 0
M  V30 7135 H 680.25 -3.48436 2.29997 0
M  V30 7136 H 681.64 -2.52565 6.22624 0
M  V30 7137 N 684.36 -1.4356 -0.65026 0
M  V30 7138 C 685.27 -1.514 -1.79207 0
M  V30 7139 C 686.286 -0.400895 -1.69319 0
M  V30 7140 O 687.462 -0.655458 -1.90436 0
M  V30 7141 C 684.527 -1.43737 -3.155 0
M  V30 7142 C 683.588 -2.65743 -3.37163 0
M  V30 7143 C 682.821 -2.58436 -4.66954 0
M  V30 7144 O 683.044 -1.63374 -5.46503 0
M  V30 7145 O 681.978 -3.48984 -4.90402 0
M  V30 7146 H 685.804 -2.47825 -1.75547 0
M  V30 7147 H 683.389 -1.25594 -0.809111 0
M  V30 7148 H 685.271 -1.41916 -3.96784 0
M  V30 7149 H 683.946 -0.504488 -3.19745 0
M  V30 7150 H 682.853 -2.73136 -2.55632 0
M  V30 7151 H 684.186 -3.58014 -3.37768 0
M  V30 7152 N 685.838 0.888903 -1.30139 0
M  V30 7153 C 686.748 2.02705 -1.18101 0
M  V30 7154 C 687.764 1.73702 -0.101809 0
M  V30 7155 O 688.94 1.98906 -0.315984 0
M  V30 7156 C 686.005 3.35616 -0.869651 0
M  V30 7157 C 685.066 3.78067 -2.03381 0
M  V30 7158 C 684.299 5.04635 -1.73721 0
M  V30 7159 O 684.522 5.66531 -0.663267 0
M  V30 7160 O 683.456 5.43399 -2.58845 0
M  V30 7161 H 687.282 2.15788 -2.13704 0
M  V30 7162 H 684.867 1.01426 -1.09695 0
M  V30 7163 H 686.749 4.15358 -0.711043 0
M  V30 7164 H 685.424 3.23651 0.0565002 0
M  V30 7165 H 684.331 2.99046 -2.24772 0
M  V30 7166 H 685.664 3.94631 -2.94155 0
M  V30 7167 N 687.317 1.12792 1.10072 0
M  V30 7168 C 688.265 0.794523 2.18609 0
M  V30 7169 C 689.259 -0.220271 1.67962 0
M  V30 7170 O 690.465 -0.0780938 1.79831 0
M  V30 7171 H 686.84 0.239123 0.712969 0
M  V30 7172 H 688.811 1.71823 2.43966 0
M  V30 7173 C 687.56 0.269548 3.46654 0
M  V30 7174 H 686.883 1.04171 3.8599 0
M  V30 7175 H 688.323 0.0746242 4.23934 0
M  V30 7176 C 686.782 -1.00333 3.21613 0
M  V30 7177 O 687.312 -2.08042 3.4363 0
M  V30 7178 N 685.518 -0.931763 2.75257 0
M  V30 7179 H 685.065 -0.0551197 2.57541 0
M  V30 7180 H 685.023 -1.78405 2.58881 0
M  V30 7181 N 688.795 -1.27931 0.920396 0
M  V30 7182 C 690.206 -1.76707 0.602616 0
M  V30 7183 C 690.557 -1.75249 -0.882159 0
M  V30 7184 O 689.682 -1.35135 -1.69019 0
M  V30 7185 C 690.277 -3.20884 1.08714 0
M  V30 7186 C 688.836 -3.67356 0.820157 0
M  V30 7187 C 687.983 -2.47525 1.25006 0
M  V30 7188 H 690.934 -1.14301 1.10095 0
M  V30 7189 H 690.955 -3.78045 0.431535 0
M  V30 7190 H 690.467 -3.21913 2.1678 0
M  V30 7191 H 688.568 -3.7178 -0.247012 0
M  V30 7192 H 688.681 -4.57181 1.43257 0
M  V30 7193 H 687.045 -2.45765 0.668698 0
M  V30 7194 H 687.828 -2.51269 2.3392 0
M  V30 7195 N 690.273 -0.685099 -1.4193 0
M  V30 7196 C 691.183 -0.013404 -2.34596 0
M  V30 7197 C 692.199 0.777589 -1.55658 0
M  V30 7198 O 693.375 0.717553 -1.88184 0
M  V30 7199 C 690.44 0.919031 -3.34297 0
M  V30 7200 C 689.501 0.121417 -4.29128 0
M  V30 7201 C 688.734 1.00944 -5.24067 0
M  V30 7202 O 688.957 2.24898 -5.24192 0
M  V30 7203 O 687.891 0.464724 -6.00103 0
M  V30 7204 H 691.717 -0.776978 -2.93593 0
M  V30 7205 H 689.302 -0.445379 -1.42607 0
M  V30 7206 H 691.184 1.45402 -3.9552 0
M  V30 7207 H 689.859 1.66228 -2.77759 0
M  V30 7208 H 688.766 -0.45792 -3.71287 0
M  V30 7209 H 690.099 -0.582937 -4.88736 0
M  V30 7210 N 691.751 1.51645 -0.429126 0
M  V30 7211 C 692.976 2.06917 0.141399 0
M  V30 7212 C 693.401 1.29527 1.36398 0
M  V30 7213 O 692.759 0.33094 1.78254 0
M  V30 7214 C 692.807 3.57776 0.4504 0
M  V30 7215 O 691.911 3.82639 1.53821 0
M  V30 7216 H 691.252 0.663978 0.0054647 0
M  V30 7217 H 693.782 1.95355 -0.608093 0
M  V30 7218 H 693.792 4.01894 0.703249 0
M  V30 7219 H 692.467 4.13532 -0.443213 0
M  V30 7220 H 691.044 3.5039 1.27597 0
M  V30 7221 N 693.229 0.160201 1.56784 0
M  V30 7222 C 694.478 -0.487619 1.95717 0
M  V30 7223 C 694.791 -1.65136 1.0483 0
M  V30 7224 O 695.997 -2.36468 1.33398 0
M  V30 7225 C 694.453 -0.91888 3.47972 0
M  V30 7226 C 694.061 0.218655 4.47466 0
M  V30 7227 C 695.805 -1.53575 3.95746 0
M  V30 7228 C 693.712 -0.231614 5.90946 0
M  V30 7229 H 692.642 -0.185939 0.730714 0
M  V30 7230 H 695.293 0.246657 1.81835 0
M  V30 7231 H 693.675 -1.70881 3.57234 0
M  V30 7232 H 694.849 0.995825 4.49911 0
M  V30 7233 H 693.164 0.744767 4.09685 0
M  V30 7234 H 695.761 -1.88448 5.00391 0
M  V30 7235 H 696.104 -2.42959 3.38048 0
M  V30 7236 H 696.637 -0.810467 3.89456 0
M  V30 7237 H 693.376 0.62718 6.52493 0
M  V30 7238 H 692.896 -0.974379 5.91833 0
M  V30 7239 H 694.575 -0.67922 6.43425 0
M  V30 7240 N 694.707 -1.5719 -0.113559 0
M  V30 7241 C 695.637 -2.03772 -1.14013 0
M  V30 7242 C 696.618 -0.923176 -1.42869 0
M  V30 7243 O 697.803 -1.19325 -1.53216 0
M  V30 7244 C 694.933 -2.44663 -2.4649 0
M  V30 7245 C 693.887 -3.59612 -2.32085 0
M  V30 7246 C 693.213 -3.8642 -3.69573 0
M  V30 7247 C 694.513 -4.91149 -1.7768 0
M  V30 7248 H 696.207 -2.89785 -0.752665 0
M  V30 7249 H 693.753 -1.39412 -0.360609 0
M  V30 7250 H 695.706 -2.75857 -3.18561 0
M  V30 7251 H 694.43 -1.55628 -2.87137 0
M  V30 7252 H 693.089 -3.28636 -1.62461 0
M  V30 7253 H 692.737 -2.94581 -4.07715 0
M  V30 7254 H 692.437 -4.63797 -3.60786 0
M  V30 7255 H 693.961 -4.2007 -4.4314 0
M  V30 7256 H 695.375 -5.20843 -2.39574 0
M  V30 7257 H 693.772 -5.72562 -1.79701 0
M  V30 7258 H 694.842 -4.79301 -0.734776 0
M  V30 7259 N 696.185 0.383891 -1.52853 0
M  V30 7260 C 697.462 1.14296 -1.58732 0
M  V30 7261 C 697.842 2.07585 -0.383611 0
M  V30 7262 O 697.19 2.1971 0.627661 0
M  V30 7263 C 697.4 1.89816 -2.92867 0
M  V30 7264 C 698.748 2.44998 -3.46787 0
M  V30 7265 O 699.772 1.99966 -2.94774 0
M  V30 7266 O 698.631 3.2727 -4.37672 0
M  V30 7267 H 695.725 0.52326 -0.640413 0
M  V30 7268 H 698.271 0.388631 -1.6519 0
M  V30 7269 H 697.043 1.21626 -3.71918 0
M  V30 7270 H 696.666 2.72199 -2.89816 0
M  V30 7271 N 697.663 1.43903 0.642637 0
M  V30 7272 C 698.573 1.52349 1.78401 0
M  V30 7273 C 699.589 0.409869 1.69104 0
M  V30 7274 O 700.765 0.665548 1.90085 0
M  V30 7275 C 697.83 1.45408 3.14734 0
M  V30 7276 C 696.891 2.67528 3.35749 0
M  V30 7277 C 696.124 2.60909 4.65577 0
M  V30 7278 O 696.347 1.6627 5.45628 0
M  V30 7279 O 695.281 3.5158 4.88544 0
M  V30 7280 H 699.107 2.48752 1.7423 0
M  V30 7281 H 696.692 1.26021 0.802439 0
M  V30 7282 H 698.574 1.44019 3.96026 0
M  V30 7283 H 697.249 0.521437 3.19473 0
M  V30 7284 H 696.156 2.74487 2.5418 0
M  V30 7285 H 697.489 3.598 3.35864 0
M  V30 7286 N 699.141 -0.881989 1.30609 0
M  V30 7287 C 700.091 -1.97539 1.13852 0
M  V30 7288 C 701.075 -1.60813 0.0528428 0
M  V30 7289 O 702.267 -1.74827 0.276484 0
M  V30 7290 C 699.396 -3.32977 0.835519 0
M  V30 7291 C 698.482 -3.76008 1.96159 0
M  V30 7292 N 698.873 -3.91109 3.20729 0
M  V30 7293 C 697.171 -4.05427 1.85863 0
M  V30 7294 C 697.872 -4.27661 3.94311 0
M  V30 7295 N 696.848 -4.37686 3.22385 0
M  V30 7296 H 700.65 -2.07309 2.08327 0
M  V30 7297 H 698.164 -1.072 1.21992 0
M  V30 7298 H 700.161 -4.11041 0.696477 0
M  V30 7299 H 698.821 -3.24542 -0.101135 0
M  V30 7300 H 699.832 -3.7616 3.55984 0
M  V30 7301 H 696.509 -4.05449 0.995847 0
M  V30 7302 H 697.899 -4.47042 5.01601 0
M  V30 7303 N 700.619 -1.13374 -1.09472 0
M  V30 7304 C 701.865 -0.896516 -1.81908 0
M  V30 7305 C 702.198 0.575933 -1.85463 0
M  V30 7306 O 701.473 1.42618 -1.32251 0
M  V30 7307 C 701.756 -1.48445 -3.28079 0
M  V30 7308 C 701.609 -3.02598 -3.32798 0
M  V30 7309 C 702.928 -1.15226 -4.24748 0
M  V30 7310 H 700.047 -0.327127 -0.660422 0
M  V30 7311 H 702.689 -1.40195 -1.2824 0
M  V30 7312 H 700.839 -1.0546 -3.73912 0
M  V30 7313 H 702.511 -3.54335 -2.95372 0
M  V30 7314 H 700.754 -3.37613 -2.72397 0
M  V30 7315 H 701.425 -3.38835 -4.3577 0
M  V30 7316 H 703.901 -1.52369 -3.87199 0
M  V30 7317 H 702.777 -1.59012 -5.25363 0
M  V30 7318 H 703.038 -0.0658891 -4.42051 0
M  V30 7319 N 702.098 1.27442 -0.927168 0
M  V30 7320 C 703.03 2.25975 -0.383158 0
M  V30 7321 C 704.043 1.55382 0.485832 0
M  V30 7322 O 705.232 1.75986 0.298541 0
M  V30 7323 C 702.332 3.35629 0.469688 0
M  V30 7324 C 701.505 4.35747 -0.379886 0
M  V30 7325 C 700.564 5.24598 0.410227 0
M  V30 7326 O 699.59 5.68909 -0.181888 0
M  V30 7327 N 700.792 5.54737 1.71017 0
M  V30 7328 H 703.557 2.7329 -1.23015 0
M  V30 7329 H 701.118 1.41063 -0.794539 0
M  V30 7330 H 703.11 3.92015 1.00532 0
M  V30 7331 H 701.68 2.87919 1.21744 0
M  V30 7332 H 700.9 3.78634 -1.09682 0
M  V30 7333 H 702.188 4.99648 -0.960717 0
M  V30 7334 H 701.586 5.20594 2.21356 0
M  V30 7335 H 700.143 6.13824 2.19234 0
M  V30 7336 N 703.576 0.692616 1.41565 0
M  V30 7337 C 704.992 0.363878 1.55397 0
M  V30 7338 C 705.192 -1.1294 1.66874 0
M  V30 7339 O 704.248 -1.91517 1.64552 0
M  V30 7340 C 705.561 1.10982 2.7947 0
M  V30 7341 C 707.109 1.09387 2.93263 0
M  V30 7342 C 707.584 1.8215 4.20221 0
M  V30 7343 N 709.075 1.79105 4.27172 0
M  V30 7344 C 709.81 2.32247 5.2426 0
M  V30 7345 N 709.306 2.93847 6.27396 0
M  V30 7346 N 711.099 2.22519 5.1618 0
M  V30 7347 H 703.25 1.66116 1.3236 0
M  V30 7348 H 705.513 0.700848 0.63837 0
M  V30 7349 H 705.219 2.1647 2.77188 0
M  V30 7350 H 705.093 0.686492 3.709 0
M  V30 7351 H 707.48 0.0472638 2.95062 0
M  V30 7352 H 707.561 1.55623 2.03015 0
M  V30 7353 H 707.205 2.86789 4.19183 0
M  V30 7354 H 707.135 1.33351 5.09436 0
M  V30 7355 H 709.626 1.34191 3.53272 0
M  V30 7356 H 709.939 3.31972 6.97864 0
M  V30 7357 H 708.284 2.97924 6.27906 0
M  V30 7358 H 711.475 1.7407 4.34531 0
M  V30 7359 H 711.648 2.64239 5.91677 0
M  V30 7360 N 705.054 -1.51416 0.437162 0
M  V30 7361 C 706.3 -2.02386 -0.129555 0
M  V30 7362 C 706.633 -1.32071 -1.42376 0
M  V30 7363 O 705.908 -0.43559 -1.8956 0
M  V30 7364 C 706.191 -3.5841 -0.348487 0
M  V30 7365 C 706.044 -4.39341 0.964352 0
M  V30 7366 C 707.363 -4.25654 -1.11834 0
M  V30 7367 H 704.482 -0.735587 -0.0456109 0
M  V30 7368 H 707.124 -1.81055 0.576124 0
M  V30 7369 H 705.274 -3.76716 -0.949592 0
M  V30 7370 H 706.946 -4.32685 1.59942 0
M  V30 7371 H 705.189 -4.04432 1.56898 0
M  V30 7372 H 705.86 -5.4667 0.765212 0
M  V30 7373 H 708.336 -4.11617 -0.609165 0
M  V30 7374 H 707.212 -5.34704 -1.24029 0
M  V30 7375 H 707.473 -3.86502 -2.14636 0
M  V30 7376 N 706.532 -0.168513 -1.56696 0
M  V30 7377 C 707.462 0.758563 -2.20835 0
M  V30 7378 C 708.443 1.24121 -1.1631 0
M  V30 7379 O 709.628 1.29487 -1.4473 0
M  V30 7380 C 706.758 1.9892 -2.8469 0
M  V30 7381 C 705.712 1.64252 -3.95228 0
M  V30 7382 C 705.038 2.94757 -4.46119 0
M  V30 7383 C 706.338 0.872675 -5.14958 0
M  V30 7384 H 708.032 0.223953 -2.98561 0
M  V30 7385 H 705.578 0.106277 -1.43607 0
M  V30 7386 H 707.531 2.64275 -3.28233 0
M  V30 7387 H 706.255 2.5479 -2.04327 0
M  V30 7388 H 704.914 1.01266 -3.52336 0
M  V30 7389 H 704.562 3.48662 -3.62552 0
M  V30 7390 H 704.262 2.72316 -5.2069 0
M  V30 7391 H 705.786 3.61147 -4.92347 0
M  V30 7392 H 707.2 1.42875 -5.55211 0
M  V30 7393 H 705.597 0.747402 -5.95428 0
M  V30 7394 H 706.667 -0.131535 -4.84722 0
M  V30 7395 N 708.01 1.57248 0.105221 0
M  V30 7396 C 709.426 1.52853 0.459153 0
M  V30 7397 C 709.626 0.883674 1.8109 0
M  V30 7398 O 708.682 0.471864 2.48052 0
M  V30 7399 C 709.995 2.97596 0.43096 0
M  V30 7400 C 711.543 3.08758 0.513536 0
M  V30 7401 C 712.018 4.55089 0.515593 0
M  V30 7402 N 713.509 4.59597 0.576639 0
M  V30 7403 C 714.244 5.70253 0.599904 0
M  V30 7404 N 713.74 6.90368 0.579985 0
M  V30 7405 N 715.533 5.58399 0.643953 0
M  V30 7406 H 707.684 1.97547 -0.780306 0
M  V30 7407 H 709.947 0.902758 -0.289363 0
M  V30 7408 H 709.653 3.48201 -0.494903 0
M  V30 7409 H 709.527 3.55756 1.2537 0
M  V30 7410 H 711.914 2.58148 1.42982 0
M  V30 7411 H 711.995 2.53568 -0.337148 0
M  V30 7412 H 711.639 5.06348 -0.396701 0
M  V30 7413 H 711.569 5.08105 1.38335 0
M  V30 7414 H 714.06 3.73144 0.597639 0
M  V30 7415 H 714.373 7.70462 0.600741 0
M  V30 7416 H 712.718 6.92843 0.547191 0
M  V30 7417 H 715.909 4.63467 0.656975 0
M  V30 7418 H 716.082 6.44644 0.658616 0
M  V30 7419 N 709.488 -0.375779 1.53054 0
M  V30 7420 C 710.716 -1.14036 1.72637 0
M  V30 7421 C 711.131 -1.83342 0.450687 0
M  V30 7422 O 710.488 -1.7318 -0.575749 0
M  V30 7423 C 710.539 -2.17841 2.88492 0
M  V30 7424 O 710.26 -1.51358 4.11123 0
M  V30 7425 C 711.761 -3.06924 3.19863 0
M  V30 7426 H 708.981 -0.341386 0.577665 0
M  V30 7427 H 711.525 -0.437809 1.99759 0
M  V30 7428 H 709.68 -2.8371 2.63794 0
M  V30 7429 H 710.094 -2.20439 4.75928 0
M  V30 7430 H 711.568 -3.75763 4.04359 0
M  V30 7431 H 712.045 -3.71169 2.34798 0
M  V30 7432 H 712.651 -2.46684 3.46449 0
M  V30 7433 N 710.966 -1.44241 -0.634997 0
M  V30 7434 C 712.377 -1.41622 -1.21655 0
M  V30 7435 C 712.728 -0.129584 -1.95772 0
M  V30 7436 O 711.853 0.770225 -2.02229 0
M  V30 7437 C 712.448 -2.56557 -2.21278 0
M  V30 7438 C 711.007 -2.57145 -2.7487 0
M  V30 7439 C 710.154 -2.33354 -1.49804 0
M  V30 7440 H 713.105 -1.52878 -0.425905 0
M  V30 7441 H 713.126 -2.29089 -3.03807 0
M  V30 7442 H 712.638 -3.50186 -1.67306 0
M  V30 7443 H 710.739 -1.67447 -3.32855 0
M  V30 7444 H 710.852 -3.55507 -3.21172 0
M  V30 7445 H 709.216 -1.82372 -1.77799 0
M  V30 7446 H 709.999 -3.29092 -0.977402 0
M  V30 7447 N 712.444 0.87505 -1.31075 0
M  V30 7448 C 713.692 1.62447 -1.20231 0
M  V30 7449 C 714.013 1.93506 0.240888 0
M  V30 7450 O 713.283 1.57847 1.16022 0
M  V30 7451 H 711.863 0.602207 -0.441991 0
M  V30 7452 H 714.525 1.04788 -1.64334 0
M  V30 7453 H 713.621 2.57031 -1.77036 0
M  V30 7454 N 713.922 1.13953 1.08869 0
M  V30 7455 C 715.338 0.878924 1.33218 0
M  V30 7456 C 715.538 -0.482478 1.95638 0
M  V30 7457 O 714.594 -1.22778 2.2064 0
M  V30 7458 C 715.907 2.00798 2.23832 0
M  V30 7459 C 717.455 2.04073 2.37325 0
M  V30 7460 C 717.93 3.16258 3.31278 0
M  V30 7461 N 719.421 3.15805 3.38853 0
M  V30 7462 C 720.156 3.99249 4.11567 0
M  V30 7463 N 719.652 4.92721 4.87029 0
M  V30 7464 N 721.445 3.87327 4.0735 0
M  V30 7465 H 713.596 2.01645 0.66731 0
M  V30 7466 H 715.859 0.878395 0.356547 0
M  V30 7467 H 715.565 2.98986 1.85203 0
M  V30 7468 H 715.439 1.92704 3.24261 0
M  V30 7469 H 717.826 1.06495 2.75214 0
M  V30 7470 H 717.907 2.16239 1.36654 0
M  V30 7471 H 717.551 4.14079 2.9411 0
M  V30 7472 H 717.481 3.0133 4.31866 0
M  V30 7473 H 719.972 2.48102 2.8505 0
M  V30 7474 H 720.285 5.52867 5.39961 0
M  V30 7475 H 718.63 4.96723 4.86098 0
M  V30 7476 H 721.821 3.13627 3.475 0
M  V30 7477 H 721.994 4.52585 4.63757 0
M  V30 7478 N 715.4 -1.26948 0.933913 0
M  V30 7479 C 716.332 -2.25768 0.395137 0
M  V30 7480 C 717.345 -1.55637 -0.477585 0
M  V30 7481 O 718.534 -1.76142 -0.289204 0
M  V30 7482 C 715.634 -3.35874 -0.451882 0
M  V30 7483 C 714.807 -4.3554 0.40299 0
M  V30 7484 C 713.866 -5.24809 -0.3824 0
M  V30 7485 O 712.892 -5.68805 0.212057 0
M  V30 7486 N 714.094 -5.55636 -1.68072 0
M  V30 7487 H 716.859 -2.72634 1.24463 0
M  V30 7488 H 714.42 -1.40639 0.802008 0
M  V30 7489 H 716.412 -3.92542 -0.984516 0
M  V30 7490 H 714.982 -2.8856 -1.20215 0
M  V30 7491 H 714.202 -3.78047 1.11688 0
M  V30 7492 H 715.49 -4.99131 0.987201 0
M  V30 7493 H 714.888 -5.2176 -2.18592 0
M  V30 7494 H 713.445 -6.14978 -2.15975 0
M  V30 7495 N 716.879 -0.700114 -1.41195 0
M  V30 7496 C 718.104 -0.240704 -2.05998 0
M  V30 7497 C 718.529 1.10313 -1.52357 0
M  V30 7498 O 717.887 1.69154 -0.652424 0
M  V30 7499 C 717.935 -0.213783 -3.59966 0
M  V30 7500 O 717.039 0.809933 -4.04368 0
M  V30 7501 H 716.38 -0.116471 -0.653705 0
M  V30 7502 H 718.91 -0.956251 -1.80878 0
M  V30 7503 H 718.92 -0.0461852 -4.07974 0
M  V30 7504 H 717.595 -1.19454 -3.98376 0
M  V30 7505 H 716.172 0.611319 -3.67855 0
M  V30 7506 N 718.357 1.51182 -0.445186 0
M  V30 7507 C 719.768 1.86693 0.0160999 0
M  V30 7508 C 720.119 1.36183 1.4124 0
M  V30 7509 O 719.244 0.715895 2.04215 0
M  V30 7510 C 719.839 3.38781 0.0359918 0
M  V30 7511 C 718.398 3.73799 0.441715 0
M  V30 7512 C 717.545 2.74947 -0.360511 0
M  V30 7513 H 720.496 1.44294 -0.660674 0
M  V30 7514 H 720.517 3.71026 0.843813 0
M  V30 7515 H 720.029 3.75513 -0.980378 0
M  V30 7516 H 718.13 3.42659 1.4634 0
M  V30 7517 H 718.243 4.78829 0.16106 0
M  V30 7518 H 716.607 2.54047 0.182269 0
M  V30 7519 H 717.39 3.14521 -1.3759 0
M  V30 7520 N 719.835 0.176821 1.56605 0
M  V30 7521 C 721.083 -0.465793 1.96659 0
M  V30 7522 C 721.404 -1.63406 1.06412 0
M  V30 7523 O 720.674 -1.95457 0.131603 0
M  V30 7524 H 719.254 -0.175072 0.726195 0
M  V30 7525 H 721.916 0.25929 1.93168 0
M  V30 7526 H 721.012 -0.822138 3.01077 0
M  V30 7527 N 721.313 -1.57302 -0.09688 0
M  V30 7528 C 722.724 -1.7496 -0.651595 0
M  V30 7529 C 723.075 -0.798746 -1.79205 0
M  V30 7530 O 722.2 0.0231858 -2.16388 0
M  V30 7531 C 722.795 -3.17259 -1.18878 0
M  V30 7532 C 721.354 -3.36348 -1.68958 0
M  V30 7533 C 720.501 -2.70766 -0.598413 0
M  V30 7534 H 723.452 -1.58173 0.12918 0
M  V30 7535 H 723.473 -3.20033 -2.05814 0
M  V30 7536 H 722.985 -3.8644 -0.358523 0
M  V30 7537 H 721.086 -2.72243 -2.5439 0
M  V30 7538 H 721.199 -4.44654 -1.7838 0
M  V30 7539 H 719.563 -2.32615 -1.03743 0
M  V30 7540 H 720.346 -3.42586 0.221238 0
M  V30 7541 N 722.791 0.367657 -1.53252 0
M  V30 7542 C 724.039 1.10832 -1.68999 0
M  V30 7543 C 724.36 1.89894 -0.443306 0
M  V30 7544 O 723.63 1.88235 0.54262 0
M  V30 7545 H 722.21 0.412153 -0.623008 0
M  V30 7546 H 724.872 0.414775 -1.90435 0
M  V30 7547 H 723.968 1.7993 -2.55013 0
M  V30 7548 N 724.269 1.44576 0.627338 0
M  V30 7549 C 725.219 1.48168 1.73293 0
M  V30 7550 C 726.203 0.347045 1.57113 0
M  V30 7551 O 727.395 0.592605 1.66785 0
M  V30 7552 C 724.524 1.43236 3.11991 0
M  V30 7553 C 723.61 2.61828 3.33627 0
M  V30 7554 N 724.001 3.87053 3.25612 0
M  V30 7555 C 722.299 2.57104 3.64436 0
M  V30 7556 C 723 4.66093 3.48041 0
M  V30 7557 N 721.976 3.97228 3.71095 0
M  V30 7558 H 725.778 2.42832 1.6556 0
M  V30 7559 H 723.292 1.39592 0.829934 0
M  V30 7560 H 725.289 1.43893 3.91281 0
M  V30 7561 H 723.949 0.496133 3.20887 0
M  V30 7562 H 724.96 4.18966 3.04447 0
M  V30 7563 H 721.637 1.72295 3.8029 0
M  V30 7564 H 723.027 5.75117 3.47404 0
M  V30 7565 N 725.747 -0.868086 1.31537 0
M  V30 7566 C 727.163 -1.15414 1.10235 0
M  V30 7567 C 727.363 -2.01106 -0.125947 0
M  V30 7568 O 726.419 -2.38994 -0.814734 0
M  V30 7569 C 727.732 -1.84445 2.37488 0
M  V30 7570 C 729.28 -1.97139 2.43116 0
M  V30 7571 C 729.755 -2.69585 3.70254 0
M  V30 7572 N 731.246 -2.77119 3.71159 0
M  V30 7573 C 731.981 -3.33791 4.6623 0
M  V30 7574 N 731.477 -3.9138 5.71659 0
M  V30 7575 N 733.27 -3.31767 4.53747 0
M  V30 7576 H 725.421 -0.297109 2.10312 0
M  V30 7577 H 727.684 -0.194227 0.92789 0
M  V30 7578 H 727.39 -1.2893 3.27215 0
M  V30 7579 H 727.264 -2.84709 2.47428 0
M  V30 7580 H 729.651 -2.51818 1.53856 0
M  V30 7581 H 729.732 -0.95912 2.37138 0
M  V30 7582 H 729.376 -2.15572 4.59881 0
M  V30 7583 H 729.306 -3.71223 3.73499 0
M  V30 7584 H 731.797 -2.3625 2.94948 0
M  V30 7585 H 732.11 -4.3274 6.40278 0
M  V30 7586 H 730.455 -3.8975 5.7543 0
M  V30 7587 H 733.646 -2.86016 3.70557 0
M  V30 7588 H 733.819 -3.75636 5.28017 0
M  V30 7589 N 727.225 -1.14528 -1.08264 0
M  V30 7590 C 728.45 -0.938381 -1.84957 0
M  V30 7591 C 728.875 0.508044 -1.81109 0
M  V30 7592 O 728.233 1.36146 -1.19724 0
M  V30 7593 C 728.281 -1.44568 -3.30352 0
M  V30 7594 O 727.385 -0.638745 -4.07423 0
M  V30 7595 H 726.726 -0.335394 -0.573068 0
M  V30 7596 H 729.256 -1.52287 -1.36637 0
M  V30 7597 H 729.266 -1.45449 -3.81194 0
M  V30 7598 H 727.941 -2.49876 -3.32468 0
M  V30 7599 H 726.518 -0.698801 -3.66294 0
M  V30 7600 N 728.703 1.26451 -0.940633 0
M  V30 7601 C 730.114 1.75726 -0.630653 0
M  V30 7602 C 730.465 1.76631 0.854167 0
M  V30 7603 O 729.59 1.37807 1.66848 0
M  V30 7604 C 730.185 3.19114 -1.13805 0
M  V30 7605 C 728.744 3.66005 -0.878497 0
M  V30 7606 C 727.891 2.45505 -1.28928 0
M  V30 7607 H 730.842 1.12535 -1.119 0
M  V30 7608 H 730.863 3.77311 -0.491625 0
M  V30 7609 H 730.375 3.18424 -2.21874 0
M  V30 7610 H 728.476 3.72126 0.187833 0
M  V30 7611 H 728.589 4.54844 -1.50512 0
M  V30 7612 H 726.953 2.4467 -0.707713 0
M  V30 7613 H 727.736 2.47516 -2.37888 0
M  V30 7614 N 730.181 0.707592 1.40822 0
M  V30 7615 C 731.458 0.171172 1.9485 0
M  V30 7616 C 731.838 -1.32143 1.64625 0
M  V30 7617 O 731.186 -2.07372 0.959647 0
M  V30 7618 C 731.396 0.475334 3.45748 0
M  V30 7619 C 732.744 0.409625 4.22619 0
M  V30 7620 O 733.768 0.410934 3.53822 0
M  V30 7621 O 732.627 0.380185 5.45176 0
M  V30 7622 H 729.721 0.022015 0.826707 0
M  V30 7623 H 732.267 0.784577 1.50474 0
M  V30 7624 H 731.039 1.50801 3.61075 0
M  V30 7625 H 730.662 -0.168439 3.97243 0
M  V30 7626 N 731.66 -1.50943 0.453197 0
M  V30 7627 C 732.885 -2.07116 -0.108463 0
M  V30 7628 C 733.31 -1.31681 -1.3432 0
M  V30 7629 O 732.668 -0.359256 -1.77705 0
M  V30 7630 C 732.716 -3.58447 -0.393424 0
M  V30 7631 O 731.82 -3.85038 -1.47714 0
M  V30 7632 H 731.161 -0.66398 0.0050993 0
M  V30 7633 H 733.691 -1.94362 0.639095 0
M  V30 7634 H 733.701 -4.02961 -0.639222 0
M  V30 7635 H 732.376 -4.12774 0.508946 0
M  V30 7636 H 730.953 -3.52376 -1.22006 0
M  V30 7637 N 733.138 -0.185124 -1.56509 0
M  V30 7638 C 734.386 0.455357 -1.96903 0
M  V30 7639 C 734.707 1.62839 -1.07277 0
M  V30 7640 O 733.977 1.95385 -0.141966 0
M  V30 7641 H 732.557 0.171218 -0.727113 0
M  V30 7642 H 735.219 -0.26953 -1.93027 0
M  V30 7643 H 734.315 0.80616 -3.01509 0
M  V30 7644 N 734.616 1.57351 0.0885366 0
M  V30 7645 C 735.566 1.98963 1.11346 0
M  V30 7646 C 736.55 0.869065 1.35411 0
M  V30 7647 O 737.742 1.13292 1.35992 0
M  V30 7648 C 734.871 2.4231 2.43189 0
M  V30 7649 C 733.957 3.61065 2.22469 0
M  V30 7650 N 734.348 4.75789 1.71635 0
M  V30 7651 C 732.646 3.6729 2.5301 0
M  V30 7652 C 733.347 5.57708 1.65339 0
M  V30 7653 N 732.323 5.01067 2.1079 0
M  V30 7654 H 736.125 2.85109 0.713465 0
M  V30 7655 H 733.639 1.59682 0.295868 0
M  V30 7656 H 735.636 2.70352 3.17357 0
M  V30 7657 H 734.296 1.57544 2.83919 0
M  V30 7658 H 735.307 4.98411 1.40738 0
M  V30 7659 H 731.984 2.932 2.9722 0
M  V30 7660 H 733.374 6.59782 1.27031 0
M  V30 7661 N 736.094 -0.359525 1.53444 0
M  V30 7662 C 737.34 -1.10315 1.70172 0
M  V30 7663 C 737.673 -1.88788 0.455287 0
M  V30 7664 O 736.948 -1.86635 -0.547514 0
M  V30 7665 C 737.231 -2.05744 2.95536 0
M  V30 7666 C 737.084 -1.3084 4.3035 0
M  V30 7667 C 738.403 -3.05784 3.16518 0
M  V30 7668 H 735.522 -0.399662 0.619225 0
M  V30 7669 H 738.164 -0.383338 1.86093 0
M  V30 7670 H 736.314 -2.67125 2.82093 0
M  V30 7671 H 737.986 -0.721959 4.55615 0
M  V30 7672 H 736.229 -0.610283 4.29486 0
M  V30 7673 H 736.9 -2.00718 5.14214 0
M  V30 7674 H 739.376 -2.5451 3.29187 0
M  V30 7675 H 738.252 -3.69772 4.05659 0
M  V30 7676 H 738.513 -3.76289 2.32076 0
M  V30 7677 N 737.572 -1.44907 -0.619662 0
M  V30 7678 C 738.535 -1.52282 -1.71297 0
M  V30 7679 C 739.535 -0.40359 -1.55653 0
M  V30 7680 O 740.725 -0.666638 -1.6094 0
M  V30 7681 C 737.857 -1.40778 -3.10474 0
M  V30 7682 H 739.05 -2.49683 -1.66128 0
M  V30 7683 H 736.603 -1.32168 -0.834339 0
M  V30 7684 H 737.338 -0.445156 -3.2123 0
M  V30 7685 H 737.123 -2.21947 -3.23237 0
M  V30 7686 H 738.613 -1.48946 -3.90135 0
M  V30 7687 N 739.05 0.861098 -1.31996 0
M  V30 7688 C 739.997 1.96912 -1.20392 0
M  V30 7689 C 740.967 1.65869 -0.0875899 0
M  V30 7690 O 742.152 1.88992 -0.262011 0
M  V30 7691 C 739.292 3.32435 -0.926335 0
M  V30 7692 C 738.405 3.76018 -2.12684 0
M  V30 7693 C 737.54 5.00301 -1.78529 0
M  V30 7694 C 736.579 5.36357 -2.94937 0
M  V30 7695 N 735.716 6.51818 -2.60917 0
M  V30 7696 H 740.556 2.06169 -2.1517 0
M  V30 7697 H 738.093 1.00917 -1.07024 0
M  V30 7698 H 740.051 4.10478 -0.745917 0
M  V30 7699 H 738.681 3.22796 -0.0153578 0
M  V30 7700 H 737.733 2.93683 -2.41774 0
M  V30 7701 H 739.045 3.98664 -2.99781 0
M  V30 7702 H 738.199 5.86034 -1.57001 0
M  V30 7703 H 736.938 4.79578 -0.886356 0
M  V30 7704 H 735.943 4.49139 -3.17103 0
M  V30 7705 H 737.168 5.59041 -3.85552 0
M  V30 7706 H 735.114 6.32624 -1.73558 0
M  V30 7707 H 735.031 6.7445 -3.41544 0
M  V30 7708 H 736.299 7.4072 -2.42804 0
M  V30 7709 N 740.528 1.15101 1.07655 0
M  V30 7710 C 741.461 0.788522 2.14144 0
M  V30 7711 C 742.439 -0.233635 1.60913 0
M  V30 7712 O 743.623 -0.120908 1.88112 0
M  V30 7713 C 740.75 0.172033 3.38263 0
M  V30 7714 C 739.796 1.16559 4.10264 0
M  V30 7715 S 740.629 2.70627 4.62084 0
M  V30 7716 C 741.785 2.10389 5.8948 0
M  V30 7717 H 742.018 1.69047 2.44561 0
M  V30 7718 H 739.551 0.973033 1.19881 0
M  V30 7719 H 741.509 -0.177223 4.10117 0
M  V30 7720 H 740.17 -0.707468 3.06029 0
M  V30 7721 H 739.363 0.6824 4.99359 0
M  V30 7722 H 738.965 1.45923 3.44358 0
M  V30 7723 H 741.257 1.46405 6.61492 0
M  V30 7724 H 742.2 2.97639 6.42508 0
M  V30 7725 H 742.608 1.54816 5.42856 0
M  V30 7726 N 742.006 -1.2595 0.947325 0
M  V30 7727 C 743.417 -1.75389 0.639963 0
M  V30 7728 C 743.768 -1.77081 -0.844788 0
M  V30 7729 O 742.893 -1.3869 -1.66114 0
M  V30 7730 C 743.488 -3.18506 1.15496 0
M  V30 7731 C 742.047 -3.65534 0.897894 0
M  V30 7732 C 741.194 -2.44818 1.30228 0
M  V30 7733 H 744.145 -1.1194 1.12495 0
M  V30 7734 H 744.166 -3.77045 0.511627 0
M  V30 7735 H 743.678 -3.17243 2.23559 0
M  V30 7736 H 741.779 -3.72221 -0.168096 0
M  V30 7737 H 741.892 -4.54039 1.52922 0
M  V30 7738 H 740.256 -2.44291 0.720678 0
M  V30 7739 H 741.039 -2.46251 2.39198 0
M  V30 7740 N 743.484 -0.715051 -1.40445 0
M  V30 7741 C 744.73 -0.254705 -2.01194 0
M  V30 7742 C 745.063 1.14894 -1.56567 0
M  V30 7743 O 744.338 1.77933 -0.785491 0
M  V30 7744 C 744.621 -0.334148 -3.58546 0
M  V30 7745 C 744.474 -1.77613 -4.13248 0
M  V30 7746 C 745.793 0.294968 -4.3911 0
M  V30 7747 H 742.912 -0.094025 -0.730978 0
M  V30 7748 H 745.554 -0.907449 -1.66929 0
M  V30 7749 H 743.704 0.221609 -3.87867 0
M  V30 7750 H 745.376 -2.38723 -3.94727 0
M  V30 7751 H 743.619 -2.30402 -3.67556 0
M  V30 7752 H 744.29 -1.78311 -5.22407 0
M  V30 7753 H 746.766 -0.178563 -4.15717 0
M  V30 7754 H 745.642 0.208934 -5.48502 0
M  V30 7755 H 745.903 1.37841 -4.20062 0
M  V30 7756 N 744.962 1.50701 -0.461195 0
M  V30 7757 C 745.925 2.2686 0.326679 0
M  V30 7758 C 746.925 1.31243 0.929085 0
M  V30 7759 O 748.115 1.54754 0.799807 0
M  V30 7760 C 745.247 3.07844 1.46441 0
M  V30 7761 H 746.44 2.97954 -0.341095 0
M  V30 7762 H 743.993 1.54814 -0.214984 0
M  V30 7763 H 744.728 2.41223 2.16753 0
M  V30 7764 H 744.513 3.78101 1.03836 0
M  V30 7765 H 746.003 3.65469 2.02044 0
M  V30 7766 N 746.441 0.193421 1.56409 0
M  V30 7767 C 747.371 -0.723334 2.22014 0
M  V30 7768 C 748.352 -1.22254 1.1827 0
M  V30 7769 O 749.537 -1.27168 1.46771 0
M  V30 7770 C 746.667 -1.94366 2.87818 0
M  V30 7771 C 745.621 -1.57943 3.97791 0
M  V30 7772 C 744.947 -2.87623 4.50752 0
M  V30 7773 C 746.247 -0.790639 5.16281 0
M  V30 7774 H 747.941 -0.176426 2.9888 0
M  V30 7775 H 745.487 -0.0834166 1.43758 0
M  V30 7776 H 747.44 -2.5902 3.32396 0
M  V30 7777 H 746.164 -2.51507 2.08355 0
M  V30 7778 H 744.823 -0.956482 3.53903 0
M  V30 7779 H 744.471 -3.4285 3.68053 0
M  V30 7780 H 744.171 -2.63998 5.24956 0
M  V30 7781 H 745.695 -3.53268 4.9803 0
M  V30 7782 H 747.109 -1.34024 5.57414 0
M  V30 7783 H 745.506 -0.65258 5.96541 0
M  V30 7784 H 746.576 0.208633 4.84451 0
M  V30 7785 N 747.919 -1.57396 -0.0801906 0
M  V30 7786 C 749.167 -1.86467 -0.779384 0
M  V30 7787 C 749.488 -0.784243 -1.78535 0
M  V30 7788 O 748.758 0.187986 -1.94996 0
M  V30 7789 H 747.338 -0.68806 -0.29083 0
M  V30 7790 H 750 -1.94813 -0.0582749 0
M  V30 7791 H 749.096 -2.83701 -1.30078 0
M  V30 7792 N 749.397 0.351382 -1.53633 0
M  V30 7793 C 750.645 1.09034 -1.70165 0
M  V30 7794 C 750.966 1.89413 -0.463422 0
M  V30 7795 O 750.236 1.888 0.522624 0
M  V30 7796 H 748.816 0.405522 -0.627344 0
M  V30 7797 H 751.478 0.394554 -1.90865 0
M  V30 7798 H 750.574 1.77215 -2.56907 0
M  V30 7799 N 750.875 1.45233 0.611969 0
M  V30 7800 C 751.838 1.53189 1.70487 0
M  V30 7801 C 752.838 0.411839 1.55437 0
M  V30 7802 O 754.028 0.675164 1.60584 0
M  V30 7803 C 751.16 1.42422 3.09723 0
M  V30 7804 H 752.353 2.5056 1.64802 0
M  V30 7805 H 749.906 1.32609 0.827318 0
M  V30 7806 H 750.641 0.462185 3.2099 0
M  V30 7807 H 750.426 2.23658 3.22055 0
M  V30 7808 H 751.916 1.51012 3.89339 0
M  V30 7809 N 752.353 -0.854086 1.3245 0
M  V30 7810 C 753.316 -1.94427 1.21371 0
M  V30 7811 C 754.316 -1.60219 0.136613 0
M  V30 7812 O 755.506 -1.69846 0.387057 0
M  V30 7813 C 752.638 -3.29698 0.866701 0
M  V30 7814 H 753.831 -2.05679 2.18257 0
M  V30 7815 H 751.384 -1.04434 1.1629 0
M  V30 7816 H 752.119 -3.24145 -0.100319 0
M  V30 7817 H 751.904 -3.55903 1.64545 0
M  V30 7818 H 753.394 -4.09599 0.813515 0
M  V30 7819 N 753.831 -1.1567 -1.07043 0
M  V30 7820 C 755.056 -0.957946 -1.83952 0
M  V30 7821 C 755.481 0.488807 -1.81638 0
M  V30 7822 O 754.839 1.34869 -1.21162 0
M  V30 7823 C 754.887 -1.48064 -3.288 0
M  V30 7824 O 753.991 -0.681921 -4.06723 0
M  V30 7825 H 753.332 -0.341453 -0.569479 0
M  V30 7826 H 755.862 -1.53728 -1.35015 0
M  V30 7827 H 755.872 -1.49484 -3.7963 0
M  V30 7828 H 754.547 -2.53388 -3.29799 0
M  V30 7829 H 753.124 -0.737612 -3.65532 0
M  V30 7830 N 755.309 1.25446 -0.953992 0
M  V30 7831 C 756.557 1.92762 -0.607227 0
M  V30 7832 C 756.878 1.7509 0.858399 0
M  V30 7833 O 756.148 1.11416 1.61132 0
M  V30 7834 H 754.728 0.713377 -0.221591 0
M  V30 7835 H 757.39 1.52625 -1.21209 0
M  V30 7836 H 756.486 3.00695 -0.835998 0
M  V30 7837 N 756.787 0.722489 1.40064 0
M  V30 7838 C 757.737 0.0506801 2.27944 0
M  V30 7839 C 758.721 -0.725493 1.43615 0
M  V30 7840 O 759.913 -0.596559 1.66644 0
M  V30 7841 C 757.042 -0.865195 3.32219 0
M  V30 7842 C 756.128 -0.0838393 4.24017 0
M  V30 7843 N 756.519 0.936516 4.97054 0
M  V30 7844 C 754.817 -0.315371 4.44884 0
M  V30 7845 C 755.518 1.4066 5.64437 0
M  V30 7846 N 754.494 0.727485 5.3871 0
M  V30 7847 H 758.296 0.832609 2.8186 0
M  V30 7848 H 755.81 0.555691 1.52597 0
M  V30 7849 H 757.807 -1.36186 3.94029 0
M  V30 7850 H 756.467 -1.64642 2.79862 0
M  V30 7851 H 757.478 1.31755 5.0086 0
M  V30 7852 H 754.155 -1.07238 4.03492 0
M  V30 7853 H 755.545 2.25482 6.32936 0
M  V30 7854 N 758.265 -1.50454 0.469181 0
M  V30 7855 C 759.513 -2.01916 -0.0862982 0
M  V30 7856 C 759.834 -1.35337 -1.40388 0
M  V30 7857 O 759.104 -0.498096 -1.89462 0
M  V30 7858 H 757.684 -0.746185 -0.0348825 0
M  V30 7859 H 760.346 -1.84804 0.619167 0
M  V30 7860 H 759.442 -3.11182 -0.239189 0
M  V30 7861 N 759.743 -0.201713 -1.56304 0
M  V30 7862 C 760.69 0.716499 -2.19397 0
M  V30 7863 C 761.66 1.20494 -1.14326 0
M  V30 7864 O 762.845 1.26763 -1.42604 0
M  V30 7865 C 759.985 1.92762 -2.86246 0
M  V30 7866 C 759.098 1.47993 -4.0586 0
M  V30 7867 C 758.233 2.64706 -4.60547 0
M  V30 7868 C 757.272 2.16576 -5.72504 0
M  V30 7869 N 756.409 3.26491 -6.21569 0
M  V30 7870 H 761.249 0.171724 -2.97505 0
M  V30 7871 H 758.786 0.073016 -1.46919 0
M  V30 7872 H 760.744 2.6384 -3.23178 0
M  V30 7873 H 759.374 2.44559 -2.10691 0
M  V30 7874 H 758.426 0.66477 -3.74546 0
M  V30 7875 H 759.738 1.08686 -4.86815 0
M  V30 7876 H 758.892 3.43898 -4.99819 0
M  V30 7877 H 757.631 3.0729 -3.78713 0
M  V30 7878 H 756.636 1.3584 -5.32755 0
M  V30 7879 H 757.861 1.75015 -6.56161 0
M  V30 7880 H 755.807 3.68594 -5.42655 0
M  V30 7881 H 755.724 2.91374 -6.97594 0
M  V30 7882 H 756.992 4.05877 -6.65495 0
M  V30 7883 N 761.222 1.57436 0.0718424 0
M  V30 7884 C 762.172 2.00132 1.09229 0
M  V30 7885 C 763.156 0.883379 1.34481 0
M  V30 7886 O 764.348 1.14728 1.34783 0
M  V30 7887 C 761.477 2.44876 2.40605 0
M  V30 7888 C 760.563 3.63405 2.18627 0
M  V30 7889 N 760.954 4.77583 1.66579 0
M  V30 7890 C 759.252 3.69953 2.491 0
M  V30 7891 C 759.953 5.5943 1.59415 0
M  V30 7892 N 758.929 5.03275 2.05464 0
M  V30 7893 H 762.731 2.85849 0.683185 0
M  V30 7894 H 760.245 1.59987 0.278914 0
M  V30 7895 H 762.242 2.73703 3.14471 0
M  V30 7896 H 760.902 1.60546 2.82232 0
M  V30 7897 H 761.913 4.99875 1.35443 0
M  V30 7898 H 758.59 2.96336 2.94094 0
M  V30 7899 H 759.98 6.61093 1.20026 0
M  V30 7900 N 762.7 -0.34323 1.53817 0
M  V30 7901 C 763.946 -1.08504 1.71332 0
M  V30 7902 C 764.279 -1.88294 0.475285 0
M  V30 7903 O 763.554 -1.87205 -0.527688 0
M  V30 7904 C 763.837 -2.02597 2.97702 0
M  V30 7905 C 763.69 -1.26268 4.31713 0
M  V30 7906 C 765.009 -3.0241 3.19744 0
M  V30 7907 H 762.128 -0.393072 0.623429 0
M  V30 7908 H 764.77 -0.363579 1.86489 0
M  V30 7909 H 762.92 -2.64118 2.8491 0
M  V30 7910 H 764.592 -0.673594 4.56356 0
M  V30 7911 H 762.835 -0.564696 4.30109 0
M  V30 7912 H 763.506 -1.95253 5.16314 0
M  V30 7913 H 765.982 -2.51004 3.31868 0
M  V30 7914 H 764.858 -3.65449 4.09558 0
M  V30 7915 H 765.119 -3.73806 2.36054 0
M  V30 7916 N 764.178 -1.45556 -0.604258 0
M  V30 7917 C 765.589 -1.44171 -1.18624 0
M  V30 7918 C 765.94 -0.171081 -1.95453 0
M  V30 7919 O 765.065 0.727156 -2.03817 0
M  V30 7920 C 765.66 -2.61193 -2.15786 0
M  V30 7921 C 764.219 -2.62918 -2.69353 0
M  V30 7922 C 763.366 -2.36479 -1.4482 0
M  V30 7923 H 766.317 -1.53747 -0.393381 0
M  V30 7924 H 766.338 -2.35481 -2.98879 0
M  V30 7925 H 765.85 -3.53656 -1.59841 0
M  V30 7926 H 763.951 -1.7447 -3.29228 0
M  V30 7927 H 764.064 -3.6224 -3.13559 0
M  V30 7928 H 762.428 -1.86103 -1.73891 0
M  V30 7929 H 763.211 -3.31091 -0.907376 0
M  V30 7930 N 765.656 0.84705 -1.32902 0
M  V30 7931 C 766.603 1.95624 -1.22473 0
M  V30 7932 C 767.573 1.65767 -0.105178 0
M  V30 7933 O 768.758 1.88704 -0.282042 0
M  V30 7934 C 765.898 3.31434 -0.961542 0
M  V30 7935 C 765.011 3.73741 -2.1666 0
M  V30 7936 C 764.146 4.98379 -1.83825 0
M  V30 7937 C 763.185 5.33199 -3.00609 0
M  V30 7938 N 762.322 6.49014 -2.67816 0
M  V30 7939 H 767.162 2.03875 -2.17345 0
M  V30 7940 H 764.699 0.997764 -1.08088 0
M  V30 7941 H 766.657 4.09663 -0.789411 0
M  V30 7942 H 765.287 3.22762 -0.0495938 0
M  V30 7943 H 764.339 2.91102 -2.44875 0
M  V30 7944 H 765.651 3.95462 -3.03993 0
M  V30 7945 H 764.805 5.84336 -1.63208 0
M  V30 7946 H 763.544 4.78611 -0.937172 0
M  V30 7947 H 762.549 4.4575 -3.21849 0
M  V30 7948 H 763.774 5.5492 -3.9146 0
M  V30 7949 H 761.72 6.30748 -1.80258 0
M  V30 7950 H 761.637 6.7079 -3.48679 0
M  V30 7951 H 762.905 7.38103 -2.50647 0
M  V30 7952 N 767.134 1.16236 1.06428 0
M  V30 7953 C 768.359 0.967688 1.83441 0
M  V30 7954 C 768.784 -0.479167 1.81894 0
M  V30 7955 O 768.142 -1.34224 1.21875 0
M  V30 7956 C 768.19 1.49806 3.2801 0
M  V30 7957 O 767.294 0.703481 4.06356 0
M  V30 7958 H 766.635 0.344468 0.56766 0
M  V30 7959 H 769.165 1.54442 1.34197 0
M  V30 7960 H 769.175 1.51495 3.78831 0
M  V30 7961 H 767.85 2.55133 3.2845 0
M  V30 7962 H 766.427 0.756986 3.65136 0
M  V30 7963 N 768.612 -1.24939 0.960631 0
M  V30 7964 C 769.86 -1.92437 0.617441 0
M  V30 7965 C 770.181 -1.75543 -0.849101 0
M  V30 7966 O 769.451 -1.12269 -1.60538 0
M  V30 7967 H 768.031 -0.712192 0.225371 0
M  V30 7968 H 770.693 -1.5198 1.22017 0
M  V30 7969 H 769.789 -3.00247 0.851933 0
M  V30 7970 N 770.09 -0.729906 -1.39679 0
M  V30 7971 C 771.053 -0.0951668 -2.29002 0
M  V30 7972 C 772.053 0.672471 -1.46063 0
M  V30 7973 O 773.243 0.502245 -1.66803 0
M  V30 7974 C 770.375 0.874631 -3.29489 0
M  V30 7975 H 771.568 -0.882062 -2.86635 0
M  V30 7976 H 769.121 -0.495424 -1.4824 0
M  V30 7977 H 769.856 1.68807 -2.76902 0
M  V30 7978 H 769.641 0.326893 -3.90735 0
M  V30 7979 H 771.131 1.31548 -3.96339 0
M  V30 7980 N 771.568 1.50203 -0.477153 0
M  V30 7981 C 772.515 2.28656 0.31386 0
M  V30 7982 C 773.485 1.33977 0.981802 0
M  V30 7983 O 774.67 1.62919 0.993072 0
M  V30 7984 C 771.81 3.16027 1.38639 0
M  V30 7985 C 770.923 4.25743 0.732615 0
M  V30 7986 C 770.058 5.00363 1.78355 0
M  V30 7987 C 769.097 6.01945 1.11035 0
M  V30 7988 N 768.234 6.6982 2.10441 0
M  V30 7989 H 773.074 2.958 -0.361445 0
M  V30 7990 H 770.611 1.45867 -0.190093 0
M  V30 7991 H 772.569 3.6504 2.01994 0
M  V30 7992 H 771.199 2.50917 2.03077 0
M  V30 7993 H 770.251 3.80398 -0.0136546 0
M  V30 7994 H 771.563 4.98393 0.201513 0
M  V30 7995 H 770.717 5.53124 2.49276 0
M  V30 7996 H 769.456 4.27432 2.34847 0
M  V30 7997 H 768.461 5.48438 0.386797 0
M  V30 7998 H 769.686 6.76851 0.552248 0
M  V30 7999 H 767.632 5.99677 2.65939 0
M  V30 8000 H 767.549 7.38366 1.62332 0
M  V30 8001 H 768.817 7.27196 2.80724 0
M  V30 8002 N 773.046 0.209999 1.56195 0
M  V30 8003 C 773.976 -0.699746 2.22769 0
M  V30 8004 C 774.957 -1.20993 1.1956 0
M  V30 8005 O 776.142 -1.25605 1.48112 0
M  V30 8006 C 773.272 -1.91302 2.89863 0
M  V30 8007 C 772.226 -1.53715 3.99444 0
M  V30 8008 C 771.552 -2.82826 4.53777 0
M  V30 8009 C 772.852 -0.735836 5.17091 0
M  V30 8010 H 774.546 -0.144716 2.9905 0
M  V30 8011 H 772.092 -0.0681645 1.43839 0
M  V30 8012 H 774.045 -2.5548 3.35124 0
M  V30 8013 H 772.769 -2.49283 2.11011 0
M  V30 8014 H 771.428 -0.918892 3.54897 0
M  V30 8015 H 771.076 -3.38927 3.71669 0
M  V30 8016 H 770.776 -2.58415 5.27727 0
M  V30 8017 H 772.3 -3.47966 5.01749 0
M  V30 8018 H 773.714 -1.28105 5.58804 0
M  V30 8019 H 772.111 -0.589272 5.972 0
M  V30 8020 H 773.181 0.260004 4.84202 0
M  V30 8021 N 774.524 -1.57472 -0.0634922 0
M  V30 8022 C 775.801 -1.78736 -0.794538 0
M  V30 8023 C 776.181 -0.799645 -1.95369 0
M  V30 8024 O 775.529 0.165521 -2.279 0
M  V30 8025 C 775.739 -3.25471 -1.25975 0
M  V30 8026 C 777.087 -3.89528 -1.68976 0
M  V30 8027 O 778.111 -3.29412 -1.35521 0
M  V30 8028 O 776.97 -4.95305 -2.30944 0
M  V30 8029 H 774.064 -0.733813 -0.381376 0
M  V30 8030 H 776.61 -1.69646 -0.0429258 0
M  V30 8031 H 775.382 -3.88922 -0.430721 0
M  V30 8032 H 775.005 -3.39317 -2.07243 0
M  V30 8033 N 776.003 0.335068 -1.53997 0
M  V30 8034 C 776.966 1.39481 -1.81872 0
M  V30 8035 C 777.966 1.4524 -0.690078 0
M  V30 8036 O 779.156 1.45467 -0.958377 0
M  V30 8037 C 776.288 2.78329 -1.9684 0
M  V30 8038 H 777.481 1.16024 -2.76547 0
M  V30 8039 H 775.034 0.569926 -1.45539 0
M  V30 8040 H 775.769 3.07058 -1.04337 0
M  V30 8041 H 775.554 2.75544 -2.78958 0
M  V30 8042 H 777.044 3.55016 -2.19894 0
M  V30 8043 N 777.481 1.45874 0.596531 0
M  V30 8044 C 778.444 1.54988 1.68853 0
M  V30 8045 C 779.444 0.428302 1.54991 0
M  V30 8046 O 780.634 0.692158 1.59859 0
M  V30 8047 C 777.766 1.457 3.08195 0
M  V30 8048 H 778.959 2.52294 1.62135 0
M  V30 8049 H 776.512 1.33479 0.813206 0
M  V30 8050 H 777.247 0.496204 3.20481 0
M  V30 8051 H 777.032 2.27061 3.19665 0
M  V30 8052 H 778.522 1.55133 3.87716 0
M  V30 8053 N 778.959 -0.83999 1.33349 0
M  V30 8054 C 780.207 -1.59202 1.24496 0
M  V30 8055 C 780.528 -1.94077 -0.189499 0
M  V30 8056 O 779.798 -1.60868 -1.11796 0
M  V30 8057 H 778.378 -0.590276 0.457802 0
M  V30 8058 H 781.04 -1.00394 1.67054 0
M  V30 8059 H 780.136 -2.52247 1.83788 0
M  V30 8060 N 780.437 -1.16799 -1.0581 0
M  V30 8061 C 781.367 -0.902241 -2.15364 0
M  V30 8062 C 782.348 0.153351 -1.69407 0
M  V30 8063 O 783.533 0.00442032 -1.94199 0
M  V30 8064 C 780.663 -0.407911 -3.44896 0
M  V30 8065 C 779.617 -1.40197 -4.04387 0
M  V30 8066 C 778.943 -0.765848 -5.29187 0
M  V30 8067 C 780.243 -2.77316 -4.42598 0
M  V30 8068 H 781.937 -1.81841 -2.37853 0
M  V30 8069 H 779.483 -0.875731 -1.14311 0
M  V30 8070 H 781.436 -0.20945 -4.20879 0
M  V30 8071 H 780.16 0.54378 -3.22041 0
M  V30 8072 H 778.819 -1.58707 -3.30466 0
M  V30 8073 H 778.467 0.192482 -5.02632 0
M  V30 8074 H 778.167 -1.42939 -5.69949 0
M  V30 8075 H 779.691 -0.577519 -6.07863 0
M  V30 8076 H 781.105 -2.62561 -5.09642 0
M  V30 8077 H 779.502 -3.4019 -4.94359 0
M  V30 8078 H 780.572 -3.32199 -3.53231 0
M  V30 8079 N 781.915 1.24427 -0.967243 0
M  V30 8080 C 782.865 2.23143 -0.468106 0
M  V30 8081 C 783.849 1.5449 0.449633 0
M  V30 8082 O 785.041 1.74761 0.28063 0
M  V30 8083 C 782.17 3.42454 0.240867 0
M  V30 8084 C 781.256 4.18355 -0.695674 0
M  V30 8085 N 781.647 4.71428 -1.83273 0
M  V30 8086 C 779.945 4.43116 -0.506365 0
M  V30 8087 C 780.646 5.29041 -2.41849 0
M  V30 8088 N 779.622 5.16213 -1.70369 0
M  V30 8089 H 783.424 2.61795 -1.3357 0
M  V30 8090 H 780.938 1.39809 -0.826277 0
M  V30 8091 H 782.935 4.12329 0.615668 0
M  V30 8092 H 781.595 3.05323 1.10491 0
M  V30 8093 H 782.606 4.68177 -2.21428 0
M  V30 8094 H 779.283 4.16319 0.313747 0
M  V30 8095 H 780.673 5.80811 -3.37799 0
M  V30 8096 N 783.393 0.737304 1.3929 0
M  V30 8097 C 784.343 0.0748537 2.27877 0
M  V30 8098 C 785.327 -0.71022 1.44377 0
M  V30 8099 O 786.519 -0.578851 1.67267 0
M  V30 8100 C 783.648 -0.82991 3.33118 0
M  V30 8101 C 782.734 -0.0388619 4.24082 0
M  V30 8102 N 783.125 0.989182 4.96033 0
M  V30 8103 C 781.423 -0.268167 4.45193 0
M  V30 8104 C 782.124 1.46639 5.62914 0
M  V30 8105 N 781.1 0.784581 5.37908 0
M  V30 8106 H 784.902 0.862457 2.80961 0
M  V30 8107 H 782.416 0.571845 1.51999 0
M  V30 8108 H 784.413 -1.31999 3.95452 0
M  V30 8109 H 783.073 -1.61665 2.81593 0
M  V30 8110 H 784.084 1.3706 4.99435 0
M  V30 8111 H 780.761 -1.02953 4.04607 0
M  V30 8112 H 782.151 2.32182 6.30508 0
M  V30 8113 N 784.871 -1.49948 0.485112 0
M  V30 8114 C 785.821 -2.25734 -0.320658 0
M  V30 8115 C 786.805 -1.29907 -0.949373 0
M  V30 8116 O 787.997 -1.54725 -0.859601 0
M  V30 8117 C 785.126 -3.13728 -1.39391 0
M  V30 8118 C 784.212 -4.1701 -0.772225 0
M  V30 8119 N 784.603 -5.05667 0.115782 0
M  V30 8120 C 782.901 -4.33834 -1.03461 0
M  V30 8121 C 783.602 -5.79798 0.47004 0
M  V30 8122 N 782.578 -5.4337 -0.158204 0
M  V30 8123 H 786.38 -2.91647 0.36319 0
M  V30 8124 H 783.894 -1.59602 0.300154 0
M  V30 8125 H 785.891 -3.66639 -1.98447 0
M  V30 8126 H 784.551 -2.49365 -2.0796 0
M  V30 8127 H 785.562 -5.15619 0.485557 0
M  V30 8128 H 782.239 -3.80684 -1.71424 0
M  V30 8129 H 783.629 -6.61177 1.19558 0
M  V30 8130 N 786.349 -0.21828 -1.56081 0
M  V30 8131 C 787.765 0.137168 -1.59009 0
M  V30 8132 C 787.965 1.59215 -1.23503 0
M  V30 8133 O 787.021 2.33178 -0.968716 0
M  V30 8134 C 788.334 -0.186162 -3.00123 0
M  V30 8135 C 789.882 -0.128135 -3.12738 0
M  V30 8136 C 790.357 -0.425094 -4.56023 0
M  V30 8137 N 791.848 -0.374547 -4.61683 0
M  V30 8138 C 792.583 -0.57786 -5.70481 0
M  V30 8139 N 792.079 -0.842771 -6.87655 0
M  V30 8140 N 793.872 -0.510521 -5.59777 0
M  V30 8141 H 786.023 -1.16746 -1.77437 0
M  V30 8142 H 788.286 -0.467706 -0.824594 0
M  V30 8143 H 787.992 -1.19589 -3.30744 0
M  V30 8144 H 787.866 0.500388 -3.73866 0
M  V30 8145 H 790.253 0.872224 -2.81915 0
M  V30 8146 H 790.334 -0.848112 -2.41331 0
M  V30 8147 H 789.978 -1.42288 -4.87562 0
M  V30 8148 H 789.908 0.316038 -5.25651 0
M  V30 8149 H 792.399 -0.177356 -3.77484 0
M  V30 8150 H 792.712 -0.986095 -7.66483 0
M  V30 8151 H 791.057 -0.879929 -6.89407 0
M  V30 8152 H 794.248 -0.303813 -4.67113 0
M  V30 8153 H 794.421 -0.672378 -6.44502 0
M  V30 8154 N 787.827 1.57504 0.0551401 0
M  V30 8155 C 788.777 2.0128 1.071 0
M  V30 8156 C 789.761 0.897592 1.33537 0
M  V30 8157 O 790.953 1.16151 1.33558 0
M  V30 8158 C 788.082 2.47414 2.37994 0
M  V30 8159 C 787.168 3.65703 2.14761 0
M  V30 8160 N 787.559 4.79323 1.61504 0
M  V30 8161 C 785.857 3.72574 2.45162 0
M  V30 8162 C 786.558 5.61089 1.53472 0
M  V30 8163 N 785.534 5.05426 2.00114 0
M  V30 8164 H 789.336 2.86558 0.652829 0
M  V30 8165 H 786.85 1.60274 0.26193 0
M  V30 8166 H 788.847 2.77023 3.11551 0
M  V30 8167 H 787.507 1.6353 2.80514 0
M  V30 8168 H 788.518 5.01284 1.30134 0
M  V30 8169 H 785.195 2.99439 2.90934 0
M  V30 8170 H 786.585 6.62328 1.13008 0
M  V30 8171 N 789.305 -0.326896 1.54172 0
M  V30 8172 C 790.551 -1.06681 1.72473 0
M  V30 8173 C 790.884 -1.87779 0.49523 0
M  V30 8174 O 790.159 -1.87754 -0.507803 0
M  V30 8175 C 790.442 -1.99429 2.99834 0
M  V30 8176 C 790.295 -1.21682 4.33028 0
M  V30 8177 C 791.614 -2.99002 3.22933 0
M  V30 8178 H 788.733 -0.386438 0.627563 0
M  V30 8179 H 791.375 -0.343779 1.86864 0
M  V30 8180 H 789.525 -2.61081 2.87696 0
M  V30 8181 H 791.197 -0.625153 4.57044 0
M  V30 8182 H 789.44 -0.519045 4.30684 0
M  V30 8183 H 790.111 -1.89766 5.18356 0
M  V30 8184 H 792.587 -2.4747 3.34511 0
M  V30 8185 H 791.463 -3.61085 4.13412 0
M  V30 8186 H 791.724 -3.71281 2.40006 0
M  V30 8187 N 790.784 -1.46188 -0.588786 0
M  V30 8188 C 791.734 -1.5271 -1.69303 0
M  V30 8189 C 792.718 -0.388578 -1.56137 0
M  V30 8190 O 793.91 -0.636616 -1.65155 0
M  V30 8191 C 791.039 -1.51457 -3.08084 0
M  V30 8192 C 790.125 -2.70581 -3.26568 0
M  V30 8193 N 790.516 -3.9555 -3.15236 0
M  V30 8194 C 788.814 -2.66676 -3.57491 0
M  V30 8195 C 789.515 -4.75157 -3.35561 0
M  V30 8196 N 788.491 -4.06927 -3.60432 0
M  V30 8197 H 792.293 -2.47136 -1.59063 0
M  V30 8198 H 789.807 -1.41743 -0.792632 0
M  V30 8199 H 791.804 -1.54216 -3.87328 0
M  V30 8200 H 790.464 -0.581036 -3.19459 0
M  V30 8201 H 791.475 -4.2689 -2.93232 0
M  V30 8202 H 788.152 -1.82317 -3.75588 0
M  V30 8203 H 789.542 -5.84126 -3.32034 0
M  V30 8204 N 792.262 0.832906 -1.33792 0
M  V30 8205 C 793.212 1.93178 -1.21105 0
M  V30 8206 C 794.196 1.60506 -0.112491 0
M  V30 8207 O 795.388 1.73681 -0.341179 0
M  V30 8208 C 792.517 3.29647 -0.958526 0
M  V30 8209 C 791.603 3.68469 -2.0998 0
M  V30 8210 N 791.994 3.78936 -3.35024 0
M  V30 8211 C 790.292 3.98249 -2.00782 0
M  V30 8212 C 790.993 4.12731 -4.09912 0
M  V30 8213 N 789.969 4.25419 -3.38407 0
M  V30 8214 H 793.771 1.99434 -2.15878 0
M  V30 8215 H 791.285 1.02598 -1.25886 0
M  V30 8216 H 793.282 4.08173 -0.848552 0
M  V30 8217 H 791.942 3.24694 -0.019387 0
M  V30 8218 H 792.953 3.62688 -3.69699 0
M  V30 8219 H 789.63 4.01474 -1.14564 0
M  V30 8220 H 791.02 4.28117 -5.17847 0
M  V30 8221 N 793.74 1.17359 1.05189 0
M  V30 8222 C 794.69 0.858445 2.11222 0
M  V30 8223 C 795.674 -0.166991 1.60031 0
M  V30 8224 O 796.866 0.0354456 1.76965 0
M  V30 8225 C 793.995 0.373549 3.41262 0
M  V30 8226 C 793.081 1.43041 3.99249 0
M  V30 8227 N 793.472 2.64387 4.312 0
M  V30 8228 C 791.77 1.28828 4.26989 0
M  V30 8229 C 792.471 3.32296 4.77446 0
M  V30 8230 N 791.447 2.59674 4.77567 0
M  V30 8231 H 795.249 1.78104 2.33786 0
M  V30 8232 H 792.763 1.0623 1.22837 0
M  V30 8233 H 794.76 0.129331 4.16699 0
M  V30 8234 H 793.42 -0.542847 3.2013 0
M  V30 8235 H 794.431 3.01351 4.21198 0
M  V30 8236 H 791.108 0.43353 4.15243 0
M  V30 8237 H 792.498 4.35939 5.11279 0
M  V30 8238 N 795.218 -1.23913 0.973828 0
M  V30 8239 C 796.464 -1.92436 0.640026 0
M  V30 8240 C 796.797 -1.75875 -0.823512 0
M  V30 8241 O 796.072 -1.11563 -1.59323 0
M  V30 8242 C 796.355 -3.4526 1.0231 0
M  V30 8243 C 796.208 -3.70961 2.54378 0
M  V30 8244 C 797.527 -4.36495 0.562155 0
M  V30 8245 H 794.646 -0.698868 0.233992 0
M  V30 8246 H 797.288 -1.46163 1.21393 0
M  V30 8247 H 795.438 -3.84802 0.534751 0
M  V30 8248 H 797.11 -3.40941 3.10737 0
M  V30 8249 H 795.353 -3.15899 2.97305 0
M  V30 8250 H 796.024 -4.77912 2.76232 0
M  V30 8251 H 798.5 -4.04363 0.981333 0
M  V30 8252 H 797.376 -5.42142 0.858689 0
M  V30 8253 H 797.637 -4.38818 -0.537659 0
M  V30 8254 N 796.696 -0.74468 -1.38897 0
M  V30 8255 C 797.646 -0.0869375 -2.27834 0
M  V30 8256 C 798.63 0.702553 -1.44751 0
M  V30 8257 O 799.822 0.569972 -1.67572 0
M  V30 8258 C 796.951 0.812232 -3.33553 0
M  V30 8259 C 796.037 0.0163713 -4.24097 0
M  V30 8260 N 796.428 -1.01547 -4.95502 0
M  V30 8261 C 794.726 0.244554 -4.45329 0
M  V30 8262 C 795.427 -1.49622 -5.62128 0
M  V30 8263 N 794.403 -0.813097 -5.37485 0
M  V30 8264 H 798.205 -0.877345 -2.80499 0
M  V30 8265 H 795.719 -0.579898 -1.51694 0
M  V30 8266 H 797.716 1.299 -3.96146 0
M  V30 8267 H 796.376 1.60169 -2.82446 0
M  V30 8268 H 797.387 -1.39707 -4.98701 0
M  V30 8269 H 794.064 1.00806 -4.05147 0
M  V30 8270 H 795.454 -2.35523 -6.29268 0
M  V30 8271 N 798.174 1.49689 -0.493057 0
M  V30 8272 C 799.124 2.25901 0.308682 0
M  V30 8273 C 800.108 1.30408 0.94247 0
M  V30 8274 O 801.3 1.55179 0.851384 0
M  V30 8275 C 798.429 3.14463 1.37725 0
M  V30 8276 C 797.515 4.17414 0.7501 0
M  V30 8277 N 797.906 5.05599 -0.142597 0
M  V30 8278 C 796.204 4.34377 1.01159 0
M  V30 8279 C 796.905 5.7954 -0.500782 0
M  V30 8280 N 795.881 5.43446 0.129386 0
M  V30 8281 H 799.683 2.91451 -0.378652 0
M  V30 8282 H 797.197 1.59441 -0.308614 0
M  V30 8283 H 799.194 3.67687 1.965 0
M  V30 8284 H 797.854 2.50464 2.06635 0
M  V30 8285 H 798.865 5.15354 -0.512894 0
M  V30 8286 H 795.542 3.81588 1.69402 0
M  V30 8287 H 796.932 6.60534 -1.23063 0
M  V30 8288 N 799.652 0.226554 1.55963 0
M  V30 8289 C 800.877 -0.411527 2.03276 0
M  V30 8290 C 801.302 -1.52206 1.10521 0
M  V30 8291 O 800.66 -1.81054 0.0943217 0
M  V30 8292 C 800.708 -0.915694 3.4878 0
M  V30 8293 O 799.812 -2.02672 3.59163 0
M  V30 8294 H 799.153 -0.0924907 0.657527 0
M  V30 8295 H 801.683 0.346656 2.01642 0
M  V30 8296 H 801.693 -1.22421 3.892 0
M  V30 8297 H 800.368 -0.102915 4.15773 0
M  V30 8298 H 798.945 -1.72445 3.30632 0
M  V30 8299 N 801.13 -1.57531 -0.0467866 0
M  V30 8300 C 802.358 -1.92696 -0.753371 0
M  V30 8301 C 802.773 -0.824792 -1.69831 0
M  V30 8302 O 802.13 0.200155 -1.81399 0
M  V30 8303 C 802.181 -3.27728 -1.52566 0
M  V30 8304 O 801.902 -4.3371 -0.618674 0
M  V30 8305 C 803.403 -3.77066 -2.33101 0
M  V30 8306 H 800.623 -0.636367 -0.212788 0
M  V30 8307 H 803.167 -2.04498 -0.00959361 0
M  V30 8308 H 801.322 -3.17378 -2.22148 0
M  V30 8309 H 801.736 -5.11548 -1.15839 0
M  V30 8310 H 803.21 -4.74109 -2.82709 0
M  V30 8311 H 803.687 -3.07348 -3.13741 0
M  V30 8312 H 804.293 -3.90442 -1.68628 0
M  V30 8313 N 802.608 0.318715 -1.54344 0
M  V30 8314 C 803.571 1.37545 -1.83342 0
M  V30 8315 C 804.571 1.445 -0.705444 0
M  V30 8316 O 805.761 1.44443 -0.973752 0
M  V30 8317 C 802.893 2.76225 -1.99781 0
M  V30 8318 H 804.086 1.13084 -2.77762 0
M  V30 8319 H 801.639 0.554457 -1.46135 0
M  V30 8320 H 802.374 3.05934 -1.07588 0
M  V30 8321 H 802.159 2.7257 -2.81865 0
M  V30 8322 H 803.649 3.52664 -2.23647 0
M  V30 8323 N 804.086 1.46499 0.581025 0
M  V30 8324 C 805.502 1.31491 0.904563 0
M  V30 8325 C 805.702 0.287598 1.99437 0
M  V30 8326 O 804.758 -0.309247 2.50599 0
M  V30 8327 C 806.071 2.70163 1.32032 0
M  V30 8328 C 807.619 2.78266 1.43308 0
M  V30 8329 C 808.094 4.17524 1.8825 0
M  V30 8330 N 809.585 4.19949 1.9544 0
M  V30 8331 C 810.32 5.24594 2.31493 0
M  V30 8332 N 809.816 6.39564 2.66326 0
M  V30 8333 N 811.609 5.11961 2.32062 0
M  V30 8334 H 803.76 2.11946 -0.138856 0
M  V30 8335 H 806.023 0.948 0.000548528 0
M  V30 8336 H 805.729 3.46655 0.593554 0
M  V30 8337 H 805.603 3.00379 2.2815 0
M  V30 8338 H 807.99 2.02061 2.15071 0
M  V30 8339 H 808.071 2.51732 0.45438 0
M  V30 8340 H 807.715 4.94225 1.17065 0
M  V30 8341 H 807.645 4.41466 2.87081 0
M  V30 8342 H 810.136 3.36996 1.71004 0
M  V30 8343 H 810.449 7.15187 2.92793 0
M  V30 8344 H 808.794 6.42923 2.6396 0
M  V30 8345 H 811.985 4.21177 2.04272 0
M  V30 8346 H 812.158 5.93626 2.5983 0
M  V30 8347 N 805.565 -0.825799 1.34232 0
M  V30 8348 C 806.976 -1.39835 1.23706 0
M  V30 8349 C 807.327 -1.95709 -0.138649 0
M  V30 8350 O 806.452 -1.89833 -1.03886 0
M  V30 8351 C 807.047 -2.54203 2.23978 0
M  V30 8352 C 805.606 -3.07374 2.17251 0
M  V30 8353 C 804.753 -1.80232 2.10741 0
M  V30 8354 H 807.704 -0.630442 1.4564 0
M  V30 8355 H 807.725 -3.32214 1.8551 0
M  V30 8356 H 807.237 -2.13506 3.24094 0
M  V30 8357 H 805.338 -3.52583 1.20483 0
M  V30 8358 H 805.451 -3.6666 3.08379 0
M  V30 8359 H 803.815 -2.01012 1.56417 0
M  V30 8360 H 804.598 -1.41713 3.12686 0
M  V30 8361 N 807.043 -1.17915 -1.04565 0
M  V30 8362 C 807.99 -0.901605 -2.12461 0
M  V30 8363 C 808.96 0.157011 -1.65356 0
M  V30 8364 O 810.145 0.0184494 -1.90791 0
M  V30 8365 C 807.285 -0.42796 -3.42436 0
M  V30 8366 C 806.398 -1.55142 -4.03181 0
M  V30 8367 C 805.533 -1.03101 -5.21098 0
M  V30 8368 C 804.572 -2.1295 -5.73863 0
M  V30 8369 N 803.709 -1.62339 -6.83074 0
M  V30 8370 H 808.549 -1.82551 -2.3554 0
M  V30 8371 H 806.086 -0.910389 -1.15544 0
M  V30 8372 H 808.044 -0.134859 -4.16982 0
M  V30 8373 H 806.674 0.458977 -3.1952 0
M  V30 8374 H 805.726 -1.96011 -3.26012 0
M  V30 8375 H 807.038 -2.37968 -4.38375 0
M  V30 8376 H 806.192 -0.692132 -6.02739 0
M  V30 8377 H 804.931 -0.17227 -4.87396 0
M  V30 8378 H 803.936 -2.47687 -4.90847 0
M  V30 8379 H 805.161 -2.9925 -6.09611 0
M  V30 8380 H 803.107 -0.787464 -6.51256 0
M  V30 8381 H 803.024 -2.38767 -7.17305 0
M  V30 8382 H 804.292 -1.31363 -7.68351 0
M  V30 8383 N 808.521 1.23394 -0.980386 0
M  V30 8384 C 809.431 2.28561 -0.528864 0
M  V30 8385 C 810.447 1.68946 0.416329 0
M  V30 8386 O 811.623 1.99355 0.286251 0
M  V30 8387 C 808.688 3.46323 0.16155 0
M  V30 8388 C 807.749 4.21297 -0.825044 0
M  V30 8389 C 806.982 5.33437 -0.167483 0
M  V30 8390 O 807.205 5.60812 1.04146 0
M  V30 8391 O 806.139 5.95637 -0.866047 0
M  V30 8392 H 809.965 2.69326 -1.40346 0
M  V30 8393 H 807.55 1.29325 -0.748019 0
M  V30 8394 H 809.432 4.17811 0.548841 0
M  V30 8395 H 808.107 3.0751 1.01092 0
M  V30 8396 H 807.014 3.52134 -1.26303 0
M  V30 8397 H 808.347 4.6396 -1.64322 0
M  V30 8398 N 809.999 0.752036 1.385 0
M  V30 8399 C 810.931 0.0835089 2.29048 0
M  V30 8400 C 811.944 -0.685402 1.47669 0
M  V30 8401 O 813.133 -0.526748 1.70551 0
M  V30 8402 C 810.233 -0.905772 3.26572 0
M  V30 8403 C 809.406 -0.194828 4.36966 0
M  V30 8404 C 808.465 -1.09464 5.14688 0
M  V30 8405 O 807.491 -0.565743 5.66381 0
M  V30 8406 N 808.693 -2.42287 5.2752 0
M  V30 8407 H 811.458 0.861142 2.87062 0
M  V30 8408 H 809.019 0.602689 1.50264 0
M  V30 8409 H 811.011 -1.51072 3.75446 0
M  V30 8410 H 809.581 -1.58449 2.69467 0
M  V30 8411 H 808.801 0.590812 3.89747 0
M  V30 8412 H 810.089 0.297189 5.07931 0
M  V30 8413 H 809.487 -2.87715 4.8707 0
M  V30 8414 H 808.044 -2.97836 5.79773 0
M  V30 8415 N 811.477 -1.49425 0.500989 0
M  V30 8416 C 812.723 -2.02753 -0.0436 0
M  V30 8417 C 813.056 -1.37991 -1.36646 0
M  V30 8418 O 812.331 -0.515597 -1.87542 0
M  V30 8419 C 812.614 -3.59565 -0.19616 0
M  V30 8420 C 812.467 -4.34855 1.14982 0
M  V30 8421 C 813.786 -4.30014 -0.936795 0
M  V30 8422 H 810.905 -0.73686 -0.0143711 0
M  V30 8423 H 813.547 -1.78448 0.652397 0
M  V30 8424 H 811.697 -3.80405 -0.788959 0
M  V30 8425 H 813.369 -4.25512 1.7815 0
M  V30 8426 H 811.612 -3.97414 1.73911 0
M  V30 8427 H 812.283 -5.42933 0.996385 0
M  V30 8428 H 814.759 -4.1383 -0.434036 0
M  V30 8429 H 813.635 -5.39483 -1.01238 0
M  V30 8430 H 813.896 -3.95257 -1.9805 0
M  V30 8431 N 812.955 -0.234822 -1.55841 0
M  V30 8432 C 813.865 0.680828 -2.24504 0
M  V30 8433 C 814.881 1.20306 -1.25708 0
M  V30 8434 O 816.057 1.24188 -1.58554 0
M  V30 8435 C 813.122 1.86636 -2.92178 0
M  V30 8436 C 812.183 1.3848 -4.06352 0
M  V30 8437 C 811.416 2.51382 -4.70789 0
M  V30 8438 O 811.639 3.69831 -4.34259 0
M  V30 8439 O 810.573 2.21828 -5.59532 0
M  V30 8440 H 814.399 0.12583 -3.03439 0
M  V30 8441 H 811.984 -0.00381817 -1.494 0
M  V30 8442 H 813.866 2.55845 -3.34845 0
M  V30 8443 H 812.541 2.40921 -2.16192 0
M  V30 8444 H 811.448 0.660341 -3.68226 0
M  V30 8445 H 812.781 0.888177 -4.8412 0
M  V30 8446 N 814.433 1.57553 0.0384317 0
M  V30 8447 C 815.396 2.04927 1.02653 0
M  V30 8448 C 816.396 0.951768 1.29607 0
M  V30 8449 O 817.586 1.21568 1.24768 0
M  V30 8450 C 814.718 2.45828 2.36181 0
M  V30 8451 H 815.911 2.93474 0.617508 0
M  V30 8452 H 813.464 1.53679 0.285031 0
M  V30 8453 H 814.199 1.60408 2.8185 0
M  V30 8454 H 813.984 3.25945 2.1795 0
M  V30 8455 H 815.474 2.82939 3.0714 0
M  V30 8456 N 815.911 -0.310526 1.54511 0
M  V30 8457 C 816.821 -1.4054 1.87844 0
M  V30 8458 C 817.837 -1.55954 0.771635 0
M  V30 8459 O 819.013 -1.70801 1.06719 0
M  V30 8460 C 816.078 -2.75063 2.11048 0
M  V30 8461 C 815.139 -2.68715 3.348 0
M  V30 8462 C 814.372 -3.96821 3.56887 0
M  V30 8463 O 814.595 -4.95721 2.82165 0
M  V30 8464 O 813.529 -3.99291 4.50389 0
M  V30 8465 H 817.355 -1.15275 2.80972 0
M  V30 8466 H 814.94 -0.505732 1.4058 0
M  V30 8467 H 816.822 -3.54671 2.27566 0
M  V30 8468 H 815.497 -3.00191 1.21108 0
M  V30 8469 H 814.404 -1.87611 3.23655 0
M  V30 8470 H 815.737 -2.4854 4.2484 0
M  V30 8471 N 817.389 -1.46805 -0.573248 0
M  V30 8472 C 818.352 -1.57655 -1.66366 0
M  V30 8473 C 819.352 -0.452905 -1.5429 0
M  V30 8474 O 820.542 -0.717502 -1.58737 0
M  V30 8475 C 817.674 -1.50584 -3.05839 0
M  V30 8476 H 818.867 -2.54842 -1.581 0
M  V30 8477 H 816.42 -1.34756 -0.791868 0
M  V30 8478 H 817.155 -0.547127 -3.19651 0
M  V30 8479 H 816.94 -2.32118 -3.16012 0
M  V30 8480 H 818.43 -1.61282 -3.85199 0
M  V30 8481 N 818.867 0.818669 -1.34668 0
M  V30 8482 C 820.095 1.60674 -1.30351 0
M  V30 8483 C 820.51 1.88408 0.121546 0
M  V30 8484 O 819.867 1.47849 1.06991 0
M  V30 8485 C 819.918 2.94516 -2.09625 0
M  V30 8486 O 819.639 2.6799 -3.46573 0
M  V30 8487 C 821.14 3.8891 -2.12754 0
M  V30 8488 H 818.36 0.499306 -0.448258 0
M  V30 8489 H 820.904 1.01828 -1.77345 0
M  V30 8490 H 819.059 3.49908 -1.66262 0
M  V30 8491 H 819.473 3.53361 -3.87603 0
M  V30 8492 H 820.947 4.79972 -2.72637 0
M  V30 8493 H 821.424 4.24599 -1.12306 0
M  V30 8494 H 822.03 3.39453 -2.56225 0
M  V30 8495 N 820.346 1.18468 1.03938 0
M  V30 8496 C 821.762 0.934635 1.29371 0
M  V30 8497 C 821.962 -0.399067 1.97509 0
M  V30 8498 O 821.018 -1.13309 2.25648 0
M  V30 8499 C 822.331 2.10111 2.15114 0
M  V30 8500 C 823.879 2.13955 2.28456 0
M  V30 8501 C 824.354 3.30024 3.17566 0
M  V30 8502 N 825.845 3.29893 3.25153 0
M  V30 8503 C 826.58 4.16346 3.94263 0
M  V30 8504 N 826.076 5.12934 4.65693 0
M  V30 8505 N 827.869 4.04256 3.90556 0
M  V30 8506 H 820.02 2.04294 0.581185 0
M  V30 8507 H 822.283 0.892727 0.318971 0
M  V30 8508 H 821.989 3.06572 1.72355 0
M  V30 8509 H 821.863 2.06283 3.15796 0
M  V30 8510 H 824.25 1.18072 2.7045 0
M  V30 8511 H 824.331 2.2184 1.2736 0
M  V30 8512 H 823.975 4.26181 2.76283 0
M  V30 8513 H 823.905 3.19376 4.18697 0
M  V30 8514 H 826.396 2.59969 2.74271 0
M  V30 8515 H 826.709 5.75271 5.16026 0
M  V30 8516 H 825.054 5.16893 4.64593 0
M  V30 8517 H 828.245 3.28083 3.33885 0
M  V30 8518 H 828.418 4.71848 4.44144 0
M  V30 8519 N 821.824 -1.22873 0.986916 0
M  V30 8520 C 823.24 -1.43594 0.696633 0
M  V30 8521 C 823.44 -1.87622 -0.734869 0
M  V30 8522 O 822.496 -2.02633 -1.50652 0
M  V30 8523 C 823.809 -2.48231 1.69711 0
M  V30 8524 C 825.357 -2.62037 1.71188 0
M  V30 8525 C 825.832 -3.6989 2.70084 0
M  V30 8526 N 827.323 -3.77341 2.68641 0
M  V30 8527 C 828.058 -4.6037 3.41829 0
M  V30 8528 N 827.554 -5.47438 4.24598 0
M  V30 8529 N 829.347 -4.54626 3.30563 0
M  V30 8530 H 821.498 -0.925982 1.91153 0
M  V30 8531 H 823.761 -0.46866 0.824052 0
M  V30 8532 H 823.467 -2.22812 2.72117 0
M  V30 8533 H 823.341 -3.46731 1.48516 0
M  V30 8534 H 825.728 -2.86803 0.694837 0
M  V30 8535 H 825.809 -1.63831 1.96451 0
M  V30 8536 H 825.453 -3.45872 3.71934 0
M  V30 8537 H 825.383 -4.67652 2.42093 0
M  V30 8538 H 827.874 -3.15124 2.08578 0
M  V30 8539 H 828.187 -6.078 4.77283 0
M  V30 8540 H 826.532 -5.4704 4.28687 0
M  V30 8541 H 829.723 -3.85627 2.65347 0
M  V30 8542 H 829.896 -5.19103 3.8786 0
M  V30 8543 N 823.302 -0.75937 -1.38099 0
M  V30 8544 C 824.265 -0.14372 -2.28749 0
M  V30 8545 C 825.265 0.641338 -1.47457 0
M  V30 8546 O 826.455 0.466751 -1.67831 0
M  V30 8547 C 823.587 0.804545 -3.3127 0
M  V30 8548 H 824.78 -0.942663 -2.847 0
M  V30 8549 H 822.333 -0.526757 -1.47156 0
M  V30 8550 H 823.068 1.62895 -2.80421 0
M  V30 8551 H 822.853 0.243939 -3.9134 0
M  V30 8552 H 824.343 1.23111 -3.99041 0
M  V30 8553 N 824.78 1.49157 -0.508906 0
M  V30 8554 C 825.712 2.272 0.302115 0
M  V30 8555 C 826.725 1.3407 0.923529 0
M  V30 8556 O 827.914 1.5929 0.805532 0
M  V30 8557 C 825.014 3.06736 1.44105 0
M  V30 8558 C 824.187 4.27497 0.925477 0
M  V30 8559 C 823.246 4.89014 1.94297 0
M  V30 8560 O 822.272 5.48851 1.50834 0
M  V30 8561 N 823.474 4.7937 3.2739 0
M  V30 8562 H 826.239 2.97443 -0.367115 0
M  V30 8563 H 823.8 1.58248 -0.341933 0
M  V30 8564 H 825.792 3.44763 2.11944 0
M  V30 8565 H 824.362 2.3905 2.0143 0
M  V30 8566 H 823.582 3.94135 0.0717301 0
M  V30 8567 H 824.87 5.05714 0.55955 0
M  V30 8568 H 824.268 4.31869 3.65384 0
M  V30 8569 H 822.825 5.21559 3.90922 0
M  V30 8570 N 826.258 0.243083 1.55714 0
M  V30 8571 C 827.483 -0.389944 2.03701 0
M  V30 8572 C 827.908 -1.51025 1.12129 0
M  V30 8573 O 827.266 -1.80944 0.11352 0
M  V30 8574 C 827.314 -0.878649 3.49731 0
M  V30 8575 O 826.418 -1.98851 3.61292 0
M  V30 8576 H 825.759 -0.0855115 0.658471 0
M  V30 8577 H 828.289 0.368023 2.01263 0
M  V30 8578 H 828.299 -1.18287 3.90477 0
M  V30 8579 H 826.974 -0.0588107 4.15858 0
M  V30 8580 H 825.551 -1.68928 3.32442 0
M  V30 8581 N 827.736 -1.57571 -0.0300757 0
M  V30 8582 C 828.961 -1.93879 -0.736601 0
M  V30 8583 C 829.386 -0.842998 -1.68152 0
M  V30 8584 O 828.744 0.20135 -1.80178 0
M  V30 8585 C 828.792 -3.29247 -1.47066 0
M  V30 8586 O 827.896 -3.21426 -2.58378 0
M  V30 8587 H 827.237 -0.633735 -0.198181 0
M  V30 8588 H 829.767 -2.04595 0.0141485 0
M  V30 8589 H 829.777 -3.64113 -1.84081 0
M  V30 8590 H 828.452 -4.08565 -0.77764 0
M  V30 8591 H 827.029 -2.98189 -2.23914 0
M  V30 8592 N 829.214 0.302327 -1.54673 0
M  V30 8593 C 830.461 1.0377 -1.73891 0
M  V30 8594 C 830.789 1.87309 -0.523979 0
M  V30 8595 O 830.044 1.8936 0.494084 0
M  V30 8596 C 830.343 1.97365 -2.97963 0
M  V30 8597 C 830.009 1.29812 -4.3181 0
M  V30 8598 C 828.671 1.11121 -4.68194 0
M  V30 8599 C 831.023 0.815073 -5.14787 0
M  V30 8600 C 828.351 0.428077 -5.85136 0
M  V30 8601 C 830.703 0.145665 -6.32432 0
M  V30 8602 C 829.367 -0.0532098 -6.67479 0
M  V30 8603 H 828.637 0.379721 -0.636312 0
M  V30 8604 H 831.284 0.312708 -1.8893 0
M  V30 8605 H 829.589 2.76387 -2.777 0
M  V30 8606 H 831.286 2.54331 -3.10027 0
M  V30 8607 H 827.876 1.45366 -4.03196 0
M  V30 8608 H 832.06 0.947191 -4.87178 0
M  V30 8609 H 827.316 0.262995 -6.10834 0
M  V30 8610 H 831.49 -0.236533 -6.95998 0
M  V30 8611 H 829.117 -0.58456 -7.57949 0
M  V30 8612 N 830.692 1.47107 0.565454 0
M  V30 8613 C 831.655 1.58535 1.65527 0
M  V30 8614 C 832.655 0.461081 1.54048 0
M  V30 8615 O 833.845 0.725911 1.58355 0
M  V30 8616 C 830.977 1.52204 3.05036 0
M  V30 8617 H 832.17 2.55676 1.56747 0
M  V30 8618 H 829.723 1.35174 0.78471 0
M  V30 8619 H 830.458 0.564071 3.19357 0
M  V30 8620 H 830.243 2.3379 3.14777 0
M  V30 8621 H 831.733 1.63322 3.84338 0
M  V30 8622 N 832.17 -0.811516 1.35101 0
M  V30 8623 C 833.416 -1.57016 1.29296 0
M  V30 8624 C 833.771 -1.91941 -0.13288 0
M  V30 8625 O 833.064 -1.58121 -1.08204 0
M  V30 8626 C 833.258 -2.87121 2.1283 0
M  V30 8627 C 833.087 -2.64908 3.63392 0
M  V30 8628 C 831.857 -2.61055 4.32641 0
M  V30 8629 C 834.055 -2.35628 4.57148 0
M  V30 8630 N 832.037 -2.30508 5.68981 0
M  V30 8631 C 833.408 -2.14876 5.81574 0
M  V30 8632 C 835.463 -2.2145 4.45942 0
M  V30 8633 C 834.166 -1.81381 6.96055 0
M  V30 8634 C 836.192 -1.89352 5.60267 0
M  V30 8635 C 835.554 -1.69432 6.83719 0
M  V30 8636 H 831.653 -0.57649 0.528378 0
M  V30 8637 H 834.237 -0.950338 1.69931 0
M  V30 8638 H 832.408 -3.47007 1.74473 0
M  V30 8639 H 834.14 -3.52629 1.98582 0
M  V30 8640 H 830.895 -2.75531 3.85201 0
M  V30 8641 H 831.319 -2.18042 6.40927 0
M  V30 8642 H 835.961 -2.35551 3.51106 0
M  V30 8643 H 833.679 -1.66018 7.90863 0
M  V30 8644 H 837.265 -1.79098 5.53548 0
M  V30 8645 H 836.145 -1.44957 7.70686 0
M  V30 8646 N 833.648 -1.19017 -1.03309 0
M  V30 8647 C 834.896 -0.988258 -1.76289 0
M  V30 8648 C 835.217 0.482557 -1.88935 0
M  V30 8649 O 834.487 1.34969 -1.41987 0
M  V30 8650 H 833.067 -0.36267 -0.653054 0
M  V30 8651 H 835.729 -1.49836 -1.2464 0
M  V30 8652 H 834.825 -1.43273 -2.77271 0
M  V30 8653 N 835.127 1.22348 -0.993418 0
M  V30 8654 C 836.057 2.26584 -0.564088 0
M  V30 8655 C 837.038 1.65102 0.409298 0
M  V30 8656 O 838.223 1.91872 0.299819 0
M  V30 8657 C 835.353 3.47087 0.121554 0
M  V30 8658 C 834.307 4.21009 -0.770429 0
M  V30 8659 C 833.633 5.34678 0.0481586 0
M  V30 8660 C 834.933 4.79636 -2.06752 0
M  V30 8661 H 836.627 2.62749 -1.43538 0
M  V30 8662 H 834.173 1.26303 -0.691628 0
M  V30 8663 H 836.126 4.19166 0.433303 0
M  V30 8664 H 834.85 3.1002 1.0274 0
M  V30 8665 H 833.509 3.50764 -1.06583 0
M  V30 8666 H 833.157 4.93852 0.954933 0
M  V30 8667 H 832.857 5.85061 -0.545641 0
M  V30 8668 H 834.381 6.09573 0.353991 0
M  V30 8669 H 835.795 5.43654 -1.81969 0
M  V30 8670 H 834.192 5.4036 -2.61019 0
M  V30 8671 H 835.262 3.99659 -2.74592 0
M  V30 8672 N 836.605 0.766683 1.37694 0
M  V30 8673 C 837.515 0.150158 2.34119 0
M  V30 8674 C 838.531 -0.685513 1.59927 0
M  V30 8675 O 839.707 -0.606616 1.92047 0
M  V30 8676 C 836.772 -0.722562 3.39087 0
M  V30 8677 C 835.833 0.128983 4.29106 0
M  V30 8678 C 835.066 -0.702178 5.29061 0
M  V30 8679 O 835.289 -1.93954 5.36412 0
M  V30 8680 O 834.223 -0.114056 6.01792 0
M  V30 8681 H 838.049 0.946829 2.88563 0
M  V30 8682 H 835.634 0.527765 1.39768 0
M  V30 8683 H 837.516 -1.22095 4.03325 0
M  V30 8684 H 836.191 -1.49751 2.86978 0
M  V30 8685 H 835.098 0.673612 3.67985 0
M  V30 8686 H 836.431 0.866892 4.84506 0
M  V30 8687 N 838.083 -1.48885 0.516809 0
M  V30 8688 C 839.494 -1.86557 0.0729921 0
M  V30 8689 C 839.845 -1.42767 -1.34581 0
M  V30 8690 O 838.97 -0.812514 -2.00567 0
M  V30 8691 C 839.565 -3.38567 0.125686 0
M  V30 8692 C 838.124 -3.75481 -0.262867 0
M  V30 8693 C 837.271 -2.72913 0.491281 0
M  V30 8694 H 840.222 -1.40978 0.728767 0
M  V30 8695 H 840.243 -3.74629 -0.665831 0
M  V30 8696 H 839.755 -3.70408 1.15842 0
M  V30 8697 H 837.856 -3.49251 -1.29824 0
M  V30 8698 H 837.969 -4.79052 0.067579 0
M  V30 8699 H 836.333 -2.54627 -0.0608525 0
M  V30 8700 H 837.116 -3.07599 1.5244 0
M  V30 8701 N 839.561 -0.251338 -1.55583 0
M  V30 8702 C 840.511 0.660351 -2.18228 0
M  V30 8703 C 841.495 1.13596 -1.13951 0
M  V30 8704 O 842.687 1.08499 -1.39846 0
M  V30 8705 C 839.816 1.85498 -2.88869 0
M  V30 8706 C 838.902 1.39767 -4.00407 0
M  V30 8707 N 839.293 0.654876 -5.01543 0
M  V30 8708 C 837.591 1.68259 -4.13044 0
M  V30 8709 C 838.292 0.417521 -5.802 0
M  V30 8710 N 837.268 0.983032 -5.34638 0
M  V30 8711 H 841.07 0.0847425 -2.93778 0
M  V30 8712 H 838.584 -0.0538456 -1.62311 0
M  V30 8713 H 840.581 2.51916 -3.3218 0
M  V30 8714 H 839.241 2.43477 -2.14823 0
M  V30 8715 H 840.252 0.304545 -5.17004 0
M  V30 8716 H 836.929 2.27344 -3.50172 0
M  V30 8717 H 838.319 -0.175764 -6.7167 0
M  V30 8718 N 841.039 1.57585 0.0217189 0
M  V30 8719 C 842.264 1.94267 0.726309 0
M  V30 8720 C 842.689 0.851904 1.67703 0
M  V30 8721 O 842.047 -0.191792 1.80283 0
M  V30 8722 C 842.095 3.30023 1.45318 0
M  V30 8723 O 841.199 3.22791 2.5667 0
M  V30 8724 H 840.54 0.634777 0.194818 0
M  V30 8725 H 843.07 2.04585 -0.0249985 0
M  V30 8726 H 843.08 3.65084 1.82147 0
M  V30 8727 H 841.755 4.08972 0.755962 0
M  V30 8728 H 840.332 2.99373 2.2233 0
M  V30 8729 N 842.517 -0.29412 1.54831 0
M  V30 8730 C 843.467 -1.36476 1.82643 0
M  V30 8731 C 844.451 -1.45638 0.683984 0
M  V30 8732 O 845.643 -1.49675 0.944801 0
M  V30 8733 C 842.772 -2.72865 2.08326 0
M  V30 8734 C 841.858 -2.67898 3.28773 0
M  V30 8735 N 842.249 -2.32547 4.49172 0
M  V30 8736 C 840.547 -2.98991 3.30939 0
M  V30 8737 C 841.248 -2.37048 5.31209 0
M  V30 8738 N 840.224 -2.74679 4.69097 0
M  V30 8739 H 844.026 -1.08119 2.7329 0
M  V30 8740 H 841.54 -0.502718 1.54423 0
M  V30 8741 H 843.537 -3.5007 2.264 0
M  V30 8742 H 842.197 -3.02127 1.1895 0
M  V30 8743 H 843.208 -2.04883 4.7565 0
M  V30 8744 H 839.885 -3.33104 2.51691 0
M  V30 8745 H 841.275 -2.12457 6.37426 0
M  V30 8746 N 843.995 -1.47404 -0.557645 0
M  V30 8747 C 845.243 -1.53703 -1.31224 0
M  V30 8748 C 845.564 -0.200742 -1.93964 0
M  V30 8749 O 844.834 0.775253 -1.79907 0
M  V30 8750 H 843.414 -0.566171 -0.487299 0
M  V30 8751 H 846.076 -1.83699 -0.651195 0
M  V30 8752 H 845.172 -2.30335 -2.10599 0
M  V30 8753 N 845.473 0.80434 -1.35529 0
M  V30 8754 C 846.436 1.89788 -1.28503 0
M  V30 8755 C 847.436 1.59601 -0.195983 0
M  V30 8756 O 848.626 1.68292 -0.449827 0
M  V30 8757 C 845.758 3.26255 -0.98847 0
M  V30 8758 H 846.951 1.97436 -2.25741 0
M  V30 8759 H 844.504 1.00046 -1.20086 0
M  V30 8760 H 845.239 3.24294 -0.0200541 0
M  V30 8761 H 845.024 3.49551 -1.77641 0
M  V30 8762 H 846.514 4.06298 -0.964975 0
M  V30 8763 N 846.951 1.19563 1.02676 0
M  V30 8764 C 848.367 0.948304 1.28372 0
M  V30 8765 C 848.567 -0.378096 1.97921 0
M  V30 8766 O 847.623 -1.1091 2.26838 0
M  V30 8767 C 848.936 2.12381 2.12873 0
M  V30 8768 C 850.484 2.16366 2.26174 0
M  V30 8769 C 850.959 3.33374 3.14048 0
M  V30 8770 N 852.45 3.33323 3.21636 0
M  V30 8771 C 853.185 4.20504 3.89825 0
M  V30 8772 N 852.681 5.17845 4.60227 0
M  V30 8773 N 854.474 4.08375 3.86246 0
M  V30 8774 H 846.625 2.04899 0.559485 0
M  V30 8775 H 848.888 0.89606 0.309484 0
M  V30 8776 H 848.594 3.08383 1.69094 0
M  V30 8777 H 848.468 2.09621 3.1359 0
M  V30 8778 H 850.855 1.20933 2.69182 0
M  V30 8779 H 850.936 2.23179 1.25 0
M  V30 8780 H 850.58 4.29087 2.71747 0
M  V30 8781 H 850.51 3.23798 4.15286 0
M  V30 8782 H 853.001 2.62863 2.71498 0
M  V30 8783 H 853.314 5.80712 5.09896 0
M  V30 8784 H 851.659 5.21791 4.59085 0
M  V30 8785 H 854.85 3.31606 3.30386 0
M  V30 8786 H 855.023 4.76532 4.39114 0
M  V30 8787 N 848.429 -1.21819 0.999893 0
M  V30 8788 C 849.654 -1.95298 0.698094 0
M  V30 8789 C 850.079 -1.73273 -0.731982 0
M  V30 8790 O 849.437 -1.01634 -1.50134 0
M  V30 8791 C 849.485 -3.45922 1.01834 0
M  V30 8792 O 848.589 -4.12223 0.120801 0
M  V30 8793 H 847.93 -0.610729 0.260588 0
M  V30 8794 H 850.46 -1.5472 1.33876 0
M  V30 8795 H 850.47 -3.96471 0.963074 0
M  V30 8796 H 849.145 -3.61278 2.06037 0
M  V30 8797 H 847.722 -3.72177 0.232153 0
M  V30 8798 N 849.908 -0.773975 -1.37286 0
M  V30 8799 C 851.324 -0.45386 -1.53011 0
M  V30 8800 C 851.524 1.03018 -1.73175 0
M  V30 8801 O 850.58 1.81597 -1.75438 0
M  V30 8802 C 851.893 -1.27087 -2.72524 0
M  V30 8803 C 853.441 -1.26299 -2.86387 0
M  V30 8804 C 853.916 -2.0634 -4.08886 0
M  V30 8805 N 855.407 -2.03706 -4.16003 0
M  V30 8806 C 856.142 -2.62418 -5.09828 0
M  V30 8807 N 855.638 -3.29926 -6.09197 0
M  V30 8808 N 857.431 -2.52236 -5.02328 0
M  V30 8809 H 849.582 -1.73551 -1.22449 0
M  V30 8810 H 851.845 -0.736874 -0.596423 0
M  V30 8811 H 851.551 -2.32263 -2.64096 0
M  V30 8812 H 851.425 -0.90157 -3.66267 0
M  V30 8813 H 853.812 -0.219213 -2.94285 0
M  V30 8814 H 853.893 -1.67195 -1.93596 0
M  V30 8815 H 853.537 -3.10741 -4.01749 0
M  V30 8816 H 853.467 -1.62825 -5.00795 0
M  V30 8817 H 855.958 -1.54559 -3.44848 0
M  V30 8818 H 856.271 -3.72095 -6.77322 0
M  V30 8819 H 854.616 -3.34026 -6.09469 0
M  V30 8820 H 857.807 -1.99108 -4.23643 0
M  V30 8821 H 857.98 -2.98286 -5.75265 0
M  V30 8822 N 851.386 1.48609 -0.524698 0
M  V30 8823 C 852.634 2.02097 0.0112991 0
M  V30 8824 C 852.955 1.40455 1.35268 0
M  V30 8825 O 852.225 0.56807 1.87483 0
M  V30 8826 H 850.805 0.746966 0.00716426 0
M  V30 8827 H 853.467 1.82378 -0.687329 0
M  V30 8828 H 852.563 3.11855 0.123531 0
M  V30 8829 N 852.864 0.259585 1.55447 0
M  V30 8830 C 854.094 -0.364863 2.03353 0
M  V30 8831 C 854.502 -1.5116 1.13786 0
M  V30 8832 O 853.845 -1.83109 0.147283 0
M  V30 8833 C 853.907 -0.922587 3.4746 0
M  V30 8834 C 853.571 0.0935207 4.56904 0
M  V30 8835 C 854.568 0.907571 5.11917 0
M  V30 8836 C 852.253 0.223276 5.01804 0
M  V30 8837 C 854.247 1.83771 6.10333 0
M  V30 8838 C 851.934 1.15691 6.00049 0
M  V30 8839 C 852.932 1.96264 6.54194 0
M  V30 8840 O 852.62 2.88052 7.50521 0
M  V30 8841 H 852.352 -0.0893313 0.670072 0
M  V30 8842 H 854.906 0.384821 2.01763 0
M  V30 8843 H 853.136 -1.72206 3.4624 0
M  V30 8844 H 854.825 -1.45846 3.78792 0
M  V30 8845 H 855.591 0.817979 4.78052 0
M  V30 8846 H 851.47 -0.393834 4.59315 0
M  V30 8847 H 855.014 2.46703 6.52521 0
M  V30 8848 H 850.911 1.24738 6.33333 0
M  V30 8849 H 851.679 2.82557 7.68182 0
M  V30 8850 N 854.342 -1.57594 -0.0133615 0
M  V30 8851 C 855.567 -1.94649 -0.715996 0
M  V30 8852 C 855.992 -0.860786 -1.67249 0
M  V30 8853 O 855.35 0.182228 -1.80382 0
M  V30 8854 C 855.398 -3.30789 -1.43566 0
M  V30 8855 O 854.502 -3.24148 -2.54955 0
M  V30 8856 H 853.843 -0.635801 -0.191449 0
M  V30 8857 H 856.373 -2.04569 0.0358478 0
M  V30 8858 H 856.383 -3.66045 -1.80208 0
M  V30 8859 H 855.058 -4.09367 -0.734263 0
M  V30 8860 H 853.635 -3.00548 -2.20739 0
M  V30 8861 N 855.82 0.285905 -1.54985 0
M  V30 8862 C 856.73 1.37534 -1.90057 0
M  V30 8863 C 857.746 1.54707 -0.796348 0
M  V30 8864 O 858.922 1.69082 -1.09423 0
M  V30 8865 C 855.987 2.7167 -2.15398 0
M  V30 8866 C 855.048 2.63354 -3.39033 0
M  V30 8867 C 854.281 3.91093 -3.63155 0
M  V30 8868 O 854.504 4.91169 -2.90015 0
M  V30 8869 O 853.438 3.92075 -4.56685 0
M  V30 8870 H 857.264 1.10791 -2.8277 0
M  V30 8871 H 854.849 0.483303 -1.41367 0
M  V30 8872 H 856.731 3.51006 -2.33179 0
M  V30 8873 H 855.406 2.98226 -1.25868 0
M  V30 8874 H 854.313 1.82438 -3.26599 0
M  V30 8875 H 855.646 2.41749 -4.2874 0
M  V30 8876 N 857.298 1.47698 0.54982 0
M  V30 8877 C 858.523 1.58579 1.33669 0
M  V30 8878 C 858.948 0.239049 1.86575 0
M  V30 8879 O 858.306 -0.786256 1.63364 0
M  V30 8880 C 858.354 2.62029 2.47736 0
M  V30 8881 O 857.458 2.17813 3.50188 0
M  V30 8882 H 856.799 0.532447 0.396732 0
M  V30 8883 H 859.329 1.93536 0.6637 0
M  V30 8884 H 859.339 2.82682 2.94202 0
M  V30 8885 H 858.014 3.59812 2.08586 0
M  V30 8886 H 856.591 2.07291 3.09976 0
M  V30 8887 N 858.776 -0.797141 1.35954 0
M  V30 8888 C 860.022 -1.55698 1.29946 0
M  V30 8889 C 860.355 -1.93808 -0.123259 0
M  V30 8890 O 859.63 -1.62102 -1.07486 0
M  V30 8891 C 859.913 -2.83926 2.2149 0
M  V30 8892 C 859.766 -2.52232 3.72423 0
M  V30 8893 C 861.085 -3.85698 2.11955 0
M  V30 8894 H 858.204 -0.56488 0.47337 0
M  V30 8895 H 860.846 -0.916421 1.66438 0
M  V30 8896 H 858.996 -3.38588 1.905 0
M  V30 8897 H 860.668 -2.0368 4.13899 0
M  V30 8898 H 858.911 -1.85286 3.92239 0
M  V30 8899 H 859.582 -3.43782 4.31877 0
M  V30 8900 H 862.058 -3.40462 2.39218 0
M  V30 8901 H 860.934 -4.73182 2.78191 0
M  V30 8902 H 861.195 -4.28083 1.10442 0
M  V30 8903 N 860.254 -1.20106 -1.0204 0
M  V30 8904 C 861.502 -1.0069 -1.75231 0
M  V30 8905 C 861.823 0.462491 -1.89436 0
M  V30 8906 O 861.093 1.33455 -1.4341 0
M  V30 8907 H 859.673 -0.369576 -0.649171 0
M  V30 8908 H 862.335 -1.51149 -1.23044 0
M  V30 8909 H 861.431 -1.46205 -2.75736 0
M  V30 8910 N 861.732 1.21287 -1.00634 0
M  V30 8911 C 862.695 2.21927 -0.572821 0
M  V30 8912 C 863.695 1.5691 0.351541 0
M  V30 8913 O 864.885 1.73623 0.141643 0
M  V30 8914 C 862.017 3.40501 0.164932 0
M  V30 8915 H 863.21 2.61795 -1.463 0
M  V30 8916 H 860.763 1.34571 -0.794998 0
M  V30 8917 H 861.498 3.06123 1.07049 0
M  V30 8918 H 861.283 3.88912 -0.498962 0
M  V30 8919 H 862.773 4.15103 0.455945 0
M  V30 8920 N 863.21 0.781244 1.36873 0
M  V30 8921 C 864.173 0.180094 2.28491 0
M  V30 8922 C 865.173 -0.617798 1.48458 0
M  V30 8923 O 866.363 -0.439991 1.68552 0
M  V30 8924 C 863.495 -0.751741 3.32508 0
M  V30 8925 H 864.688 0.987837 2.83164 0
M  V30 8926 H 862.241 0.550102 1.463 0
M  V30 8927 H 862.976 -1.58413 2.82977 0
M  V30 8928 H 862.761 -0.181649 3.91679 0
M  V30 8929 H 864.251 -1.16748 4.00949 0
M  V30 8930 N 864.689 -1.48329 0.532571 0
M  V30 8931 C 866.1 -1.86469 0.0927749 0
M  V30 8932 C 866.451 -1.44186 -1.3306 0
M  V30 8933 O 865.576 -0.833741 -1.99694 0
M  V30 8934 C 866.171 -3.38414 0.161588 0
M  V30 8935 C 864.73 -3.75739 -0.223028 0
M  V30 8936 C 863.877 -2.72377 0.520199 0
M  V30 8937 H 866.828 -1.40197 0.743678 0
M  V30 8938 H 866.849 -3.75314 -0.626059 0
M  V30 8939 H 866.361 -3.69159 1.19765 0
M  V30 8940 H 864.462 -3.50608 -1.26113 0
M  V30 8941 H 864.575 -4.78954 0.118385 0
M  V30 8942 H 862.939 -2.54678 -0.0338425 0
M  V30 8943 H 863.722 -3.05965 1.55694 0
M  V30 8944 N 866.167 -0.267825 -1.55308 0
M  V30 8945 C 867.115 0.638848 -2.23655 0
M  V30 8946 C 868.109 1.16363 -1.2311 0
M  V30 8947 O 869.315 1.1181 -1.41062 0
M  V30 8948 H 865.69 0.224551 -0.717691 0
M  V30 8949 H 867.661 0.0394809 -2.98374 0
M  V30 8950 C 866.41 1.8151 -2.96562 0
M  V30 8951 H 865.733 1.42048 -3.73715 0
M  V30 8952 H 867.173 2.42629 -3.47717 0
M  V30 8953 C 865.632 2.69911 -2.01618 0
M  V30 8954 O 866.162 3.70058 -1.56268 0
M  V30 8955 N 864.368 2.36924 -1.68272 0
M  V30 8956 H 863.915 1.55533 -2.05347 0
M  V30 8957 H 863.873 2.96343 -1.05016 0
M  V30 8958 N 867.645 1.57599 0.00500368 0
M  V30 8959 C 868.608 2.07058 0.982832 0
M  V30 8960 C 869.608 0.979045 1.27559 0
M  V30 8961 O 870.798 1.24187 1.22161 0
M  V30 8962 C 867.93 2.50782 2.30914 0
M  V30 8963 H 869.123 2.94718 0.555119 0
M  V30 8964 H 866.676 1.54249 0.25237 0
M  V30 8965 H 867.411 1.66351 2.78385 0
M  V30 8966 H 867.196 3.30495 2.10987 0
M  V30 8967 H 868.686 2.89391 3.0107 0
M  V30 8968 N 869.123 -0.277682 1.55134 0
M  V30 8969 C 870.348 -1.03254 1.7987 0
M  V30 8970 C 870.773 -1.79324 0.567861 0
M  V30 8971 O 870.131 -1.74764 -0.4824 0
M  V30 8972 C 870.179 -1.9705 3.02 0
M  V30 8973 O 869.283 -3.05744 2.76757 0
M  V30 8974 H 868.624 -0.295447 0.594649 0
M  V30 8975 H 871.154 -0.308013 2.02268 0
M  V30 8976 H 871.164 -2.3909 3.30606 0
M  V30 8977 H 869.839 -1.41094 3.91236 0
M  V30 8978 H 868.416 -2.68052 2.59235 0
M  V30 8979 N 870.601 -1.47988 -0.541979 0
M  V30 8980 C 871.878 -1.45878 -1.30303 0
M  V30 8981 C 872.258 -0.163931 -2.10463 0
M  V30 8982 O 871.606 0.854479 -2.11922 0
M  V30 8983 C 871.816 -2.71359 -2.19466 0
M  V30 8984 C 873.164 -3.19199 -2.79995 0
M  V30 8985 O 874.188 -2.72193 -2.2976 0
M  V30 8986 O 873.047 -4.00961 -3.71339 0
M  V30 8987 H 870.141 -0.582043 -0.587498 0
M  V30 8988 H 872.687 -1.60207 -0.559623 0
M  V30 8989 H 871.459 -3.57122 -1.59936 0
M  V30 8990 H 871.082 -2.59692 -3.01075 0
M  V30 8991 N 872.079 0.78992 -1.36375 0
M  V30 8992 C 873.327 1.54472 -1.30319 0
M  V30 8993 C 873.648 1.94647 0.117338 0
M  V30 8994 O 872.918 1.64906 1.05748 0
M  V30 8995 H 871.498 0.572879 -0.479394 0
M  V30 8996 H 874.16 0.941245 -1.70665 0
M  V30 8997 H 873.256 2.45252 -1.93024 0
M  V30 8998 N 873.557 1.20646 1.01402 0
M  V30 8999 C 874.487 0.98155 2.11867 0
M  V30 9000 C 875.468 -0.0903712 1.6986 0
M  V30 9001 O 876.653 0.0676586 1.94082 0
M  V30 9002 C 873.783 0.535636 3.43145 0
M  V30 9003 C 872.737 1.55109 3.98905 0
M  V30 9004 C 872.063 0.961725 5.2598 0
M  V30 9005 C 873.363 2.93552 4.32001 0
M  V30 9006 H 875.057 1.90544 2.3094 0
M  V30 9007 H 872.603 0.917554 1.10982 0
M  V30 9008 H 874.556 0.365512 4.19812 0
M  V30 9009 H 873.28 -0.423882 3.23838 0
M  V30 9010 H 871.939 1.70862 3.24348 0
M  V30 9011 H 871.587 -0.00580108 5.03 0
M  V30 9012 H 871.287 1.63993 5.64252 0
M  V30 9013 H 872.811 0.802726 6.053 0
M  V30 9014 H 874.225 2.81295 4.99546 0
M  V30 9015 H 872.622 3.58303 4.81393 0
M  V30 9016 H 873.692 3.4508 3.40658 0
M  V30 9017 N 875.035 -1.20752 1.01276 0
M  V30 9018 C 875.998 -2.2162 0.584583 0
M  V30 9019 C 876.998 -1.57094 -0.343215 0
M  V30 9020 O 878.188 -1.73696 -0.132433 0
M  V30 9021 C 875.32 -3.40583 -0.146872 0
M  V30 9022 H 876.513 -2.61015 1.47686 0
M  V30 9023 H 874.066 -1.34148 0.802123 0
M  V30 9024 H 874.801 -3.06686 -1.05424 0
M  V30 9025 H 874.586 -3.88642 0.51958 0
M  V30 9026 H 876.076 -4.15339 -0.433924 0
M  V30 9027 N 876.513 -0.788492 -1.36457 0
M  V30 9028 C 877.463 -0.159377 -2.27442 0
M  V30 9029 C 878.447 0.656146 -1.46913 0
M  V30 9030 O 879.639 0.516372 -1.693 0
M  V30 9031 C 876.768 0.705703 -3.35968 0
M  V30 9032 C 875.854 -0.11856 -4.23934 0
M  V30 9033 N 876.245 -1.1726 -4.9202 0
M  V30 9034 C 874.543 0.102752 -4.45882 0
M  V30 9035 C 875.244 -1.6743 -5.57083 0
M  V30 9036 N 874.22 -0.983682 -5.34626 0
M  V30 9037 H 878.022 -0.96614 -2.77566 0
M  V30 9038 H 875.536 -0.627864 -1.49772 0
M  V30 9039 H 877.533 1.17231 -4.00078 0
M  V30 9040 H 876.193 1.51102 -2.87399 0
M  V30 9041 H 877.204 -1.55502 -4.94004 0
M  V30 9042 H 873.881 0.878651 -4.08149 0
M  V30 9043 H 875.271 -2.55423 -6.21457 0
M  V30 9044 N 877.991 1.48044 -0.54043 0
M  V30 9045 C 879.216 2.07396 -0.0124765 0
M  V30 9046 C 879.641 1.39288 1.26414 0
M  V30 9047 O 878.999 0.462252 1.75308 0
M  V30 9048 C 879.047 3.60131 0.18377 0
M  V30 9049 O 878.151 3.92995 1.25014 0
M  V30 9050 H 877.492 0.662554 -0.0438026 0
M  V30 9051 H 880.022 1.90306 -0.751327 0
M  V30 9052 H 880.032 4.06003 0.403197 0
M  V30 9053 H 878.707 4.09105 -0.74874 0
M  V30 9054 H 877.284 3.5889 1.01254 0
M  V30 9055 N 879.47 0.276058 1.55163 0
M  V30 9056 C 880.718 -0.339782 1.99223 0
M  V30 9057 C 881.039 -1.56307 1.16589 0
M  V30 9058 O 880.309 -1.94225 0.25564 0
M  V30 9059 H 878.889 -0.128534 0.735859 0
M  V30 9060 H 881.551 0.381612 1.91128 0
M  V30 9061 H 880.647 -0.629 3.05696 0
M  V30 9062 N 880.948 -1.576 0.00335426 0
M  V30 9063 C 881.895 -2.08632 -0.986975 0
M  V30 9064 C 882.865 -0.982491 -1.33927 0
M  V30 9065 O 884.05 -1.25513 -1.43705 0
M  V30 9066 C 881.19 -2.59705 -2.27261 0
M  V30 9067 C 880.303 -3.84002 -1.97905 0
M  V30 9068 C 879.438 -4.23563 -3.20574 0
M  V30 9069 C 878.477 -5.40688 -2.8692 0
M  V30 9070 N 877.614 -5.75526 -4.02136 0
M  V30 9071 H 882.454 -2.92977 -0.544855 0
M  V30 9072 H 879.991 -1.44831 -0.257376 0
M  V30 9073 H 881.949 -2.87395 -3.02423 0
M  V30 9074 H 880.579 -1.7823 -2.69136 0
M  V30 9075 H 879.631 -3.63199 -1.13096 0
M  V30 9076 H 880.943 -4.69261 -1.69102 0
M  V30 9077 H 880.097 -4.52554 -4.04079 0
M  V30 9078 H 878.836 -3.37019 -3.52518 0
M  V30 9079 H 877.841 -5.11417 -2.01822 0
M  V30 9080 H 879.066 -6.2891 -2.5622 0
M  V30 9081 H 877.012 -4.9194 -4.33971 0
M  V30 9082 H 876.929 -6.55367 -3.76869 0
M  V30 9083 H 878.197 -6.0911 -4.8642 0
M  V30 9084 N 882.426 0.269451 -1.5528 0
M  V30 9085 C 883.672 1.00206 -1.76314 0
M  V30 9086 C 884.005 1.85812 -0.564581 0
M  V30 9087 O 883.28 1.89509 0.437769 0
M  V30 9088 C 883.563 1.88163 -3.07029 0
M  V30 9089 C 883.416 1.05527 -4.37246 0
M  V30 9090 C 884.735 2.8681 -3.33808 0
M  V30 9091 H 881.854 0.36288 -0.641473 0
M  V30 9092 H 884.496 0.274188 -1.88011 0
M  V30 9093 H 882.646 2.50224 -2.97187 0
M  V30 9094 H 884.318 0.455094 -4.5905 0
M  V30 9095 H 882.561 0.358842 -4.32313 0
M  V30 9096 H 883.232 1.70397 -5.25042 0
M  V30 9097 H 885.708 2.34884 -3.43466 0
M  V30 9098 H 884.584 3.45492 -4.26528 0
M  V30 9099 H 884.845 3.62118 -2.5362 0
M  V30 9100 N 883.904 1.48273 0.534124 0
M  V30 9101 C 885.152 1.55771 1.28762 0
M  V30 9102 C 885.473 0.231575 1.9362 0
M  V30 9103 O 884.743 -0.746533 1.81118 0
M  V30 9104 H 883.323 0.573851 0.47823 0
M  V30 9105 H 885.985 1.84712 0.621888 0
M  V30 9106 H 885.081 2.33657 2.06908 0
M  V30 9107 N 885.382 -0.782676 1.36792 0
M  V30 9108 C 886.628 -1.54311 1.3159 0
M  V30 9109 C 886.961 -1.93928 -0.102696 0
M  V30 9110 O 886.236 -1.63233 -1.05761 0
M  V30 9111 C 886.519 -2.81561 2.24489 0
M  V30 9112 C 886.372 -2.48268 3.75078 0
M  V30 9113 C 887.691 -3.83428 2.16034 0
M  V30 9114 H 884.81 -0.559828 0.479335 0
M  V30 9115 H 887.452 -0.898717 1.67401 0
M  V30 9116 H 885.602 -3.36549 1.9408 0
M  V30 9117 H 887.274 -1.99279 4.16036 0
M  V30 9118 H 885.517 -1.81116 3.94182 0
M  V30 9119 H 886.188 -3.39183 4.35499 0
M  V30 9120 H 888.664 -3.37905 2.42815 0
M  V30 9121 H 887.54 -4.70204 2.83194 0
M  V30 9122 H 887.801 -4.26887 1.14976 0
M  V30 9123 N 886.86 -1.21182 -1.00761 0
M  V30 9124 C 887.823 -0.970339 -2.07646 0
M  V30 9125 C 888.823 0.0576345 -1.60697 0
M  V30 9126 O 890.013 -0.179369 -1.73274 0
M  V30 9127 C 887.145 -0.462703 -3.37745 0
M  V30 9128 H 888.338 -1.91856 -2.30502 0
M  V30 9129 H 885.891 -1.02844 -1.17698 0
M  V30 9130 H 886.626 0.490559 -3.20568 0
M  V30 9131 H 886.411 -1.20416 -3.73152 0
M  V30 9132 H 887.901 -0.313531 -4.16421 0
M  V30 9133 N 888.338 1.20213 -1.01915 0
M  V30 9134 C 889.578 1.91354 -0.71853 0
M  V30 9135 C 889.942 1.77231 0.738466 0
M  V30 9136 O 891.143 2.42876 1.15172 0
M  V30 9137 C 889.414 3.38552 -1.14529 0
M  V30 9138 S 890.973 4.28011 -0.967037 0
M  V30 9139 H 887.791 0.661015 -0.261879 0
M  V30 9140 H 890.393 1.45394 -1.30694 0
M  V30 9141 H 889.097 3.46354 -2.20153 0
M  V30 9142 H 888.628 3.8954 -0.549766 0
M  V30 9143 H 890.643 4.96035 0.127974 0
M  V30 9144 N 889.816 0.795718 1.36037 0
M  V30 9145 C 890.763 0.196548 2.29962 0
M  V30 9146 C 891.733 -0.663213 1.52285 0
M  V30 9147 O 892.918 -0.610574 1.80767 0
M  V30 9148 C 890.058 -0.657639 3.38776 0
M  V30 9149 C 889.171 0.221358 4.31433 0
M  V30 9150 C 888.306 -0.6398 5.27333 0
M  V30 9151 C 887.345 0.240265 6.11628 0
M  V30 9152 N 886.482 -0.580237 6.99698 0
M  V30 9153 H 891.322 1.00295 2.80615 0
M  V30 9154 H 888.859 0.506147 1.38118 0
M  V30 9155 H 890.817 -1.16793 4.00519 0
M  V30 9156 H 889.447 -1.42941 2.89426 0
M  V30 9157 H 888.499 0.84967 3.70789 0
M  V30 9158 H 889.811 0.899195 4.90628 0
M  V30 9159 H 888.965 -1.21566 5.94396 0
M  V30 9160 H 887.704 -1.35124 4.68607 0
M  V30 9161 H 886.709 0.828474 5.43522 0
M  V30 9162 H 887.934 0.949403 6.72431 0
M  V30 9163 H 885.88 -1.27585 6.43473 0
M  V30 9164 H 885.797 0.0397853 7.5599 0
M  V30 9165 H 887.065 -1.13972 7.71123 0
M  V30 9166 N 891.294 -1.47756 0.548274 0
M  V30 9167 C 892.71 -1.58247 0.207401 0
M  V30 9168 C 892.91 -1.54804 -1.28988 0
M  V30 9169 O 891.966 -1.44673 -2.06944 0
M  V30 9170 C 893.279 -2.89129 0.826142 0
M  V30 9171 C 894.827 -3.02695 0.79655 0
M  V30 9172 C 895.302 -4.36264 1.3942 0
M  V30 9173 N 896.793 -4.42877 1.35698 0
M  V30 9174 C 897.528 -5.44773 1.78913 0
M  V30 9175 N 897.024 -6.53528 2.29942 0
M  V30 9176 N 898.817 -5.35765 1.70038 0
M  V30 9177 H 890.968 -1.48236 1.52117 0
M  V30 9178 H 893.231 -0.704957 0.633829 0
M  V30 9179 H 892.937 -2.97358 1.87806 0
M  V30 9180 H 892.811 -3.75891 0.313916 0
M  V30 9181 H 895.198 -2.94067 -0.246655 0
M  V30 9182 H 895.279 -2.17496 1.34644 0
M  V30 9183 H 894.923 -4.45646 2.43642 0
M  V30 9184 H 894.853 -5.20179 0.819827 0
M  V30 9185 H 897.344 -3.64874 0.983623 0
M  V30 9186 H 897.657 -7.27441 2.60863 0
M  V30 9187 H 896.002 -6.54442 2.33947 0
M  V30 9188 H 899.193 -4.49699 1.29955 0
M  V30 9189 H 899.366 -6.1504 2.04035 0
M  V30 9190 N 892.772 -0.284283 -1.55015 0
M  V30 9191 C 893.72 0.615091 -2.2432 0
M  V30 9192 C 894.714 1.15051 -1.24337 0
M  V30 9193 O 895.92 1.10308 -1.4224 0
M  V30 9194 H 892.295 0.216927 -0.720033 0
M  V30 9195 H 894.266 0.00783216 -2.98399 0
M  V30 9196 C 893.015 1.78355 -2.98471 0
M  V30 9197 H 892.338 1.38076 -3.752 0
M  V30 9198 H 893.778 2.38927 -3.50271 0
M  V30 9199 C 892.237 2.67757 -2.04469 0
M  V30 9200 O 892.767 3.6838 -1.60185 0
M  V30 9201 N 890.973 2.35125 -1.70776 0
M  V30 9202 H 890.52 1.53346 -2.06985 0
M  V30 9203 H 890.478 2.95212 -1.08153 0
M  V30 9204 N 894.251 1.57596 -0.0117121 0
M  V30 9205 C 895.214 2.08089 0.960816 0
M  V30 9206 C 896.214 0.992519 1.26514 0
M  V30 9207 O 897.404 1.25475 1.20837 0
M  V30 9208 C 894.536 2.53217 2.28241 0
M  V30 9209 H 895.729 2.9529 0.523829 0
M  V30 9210 H 893.282 1.54508 0.235995 0
M  V30 9211 H 894.017 1.69294 2.76604 0
M  V30 9212 H 893.802 3.32714 2.0747 0
M  V30 9213 H 895.292 2.92568 2.97983 0
M  V30 9214 N 895.729 -0.261212 1.5542 0
M  V30 9215 C 896.676 -1.32315 1.89107 0
M  V30 9216 C 897.646 -1.48517 0.743767 0
M  V30 9217 O 898.831 -1.62733 0.996123 0
M  V30 9218 C 895.971 -2.67626 2.17877 0
M  V30 9219 C 895.084 -2.59549 3.45338 0
M  V30 9220 C 894.219 -3.87118 3.63748 0
M  V30 9221 C 893.258 -3.736 4.8486 0
M  V30 9222 N 892.395 -4.93029 4.99867 0
M  V30 9223 H 897.235 -1.02886 2.79675 0
M  V30 9224 H 894.772 -0.496812 1.38456 0
M  V30 9225 H 896.73 -3.4637 2.32559 0
M  V30 9226 H 895.36 -2.95232 1.30529 0
M  V30 9227 H 894.412 -1.72452 3.39064 0
M  V30 9228 H 895.724 -2.45465 4.34222 0
M  V30 9229 H 894.878 -4.74305 3.78312 0
M  V30 9230 H 893.617 -4.04084 2.73071 0
M  V30 9231 H 892.622 -2.84797 4.70288 0
M  V30 9232 H 893.847 -3.58143 5.76984 0
M  V30 9233 H 891.793 -5.10383 4.12123 0
M  V30 9234 H 891.71 -4.81521 5.82815 0
M  V30 9235 H 892.978 -5.81754 5.18828 0
M  V30 9236 N 897.207 -1.48554 -0.526253 0
M  V30 9237 C 898.154 -1.63354 -1.63046 0
M  V30 9238 C 899.124 -0.475509 -1.59148 0
M  V30 9239 O 900.309 -0.699453 -1.77517 0
M  V30 9240 C 897.449 -1.68271 -3.01295 0
M  V30 9241 C 896.562 -2.95207 -3.15399 0
M  V30 9242 C 895.697 -2.91262 -4.4423 0
M  V30 9243 C 894.736 -4.12886 -4.51876 0
M  V30 9244 N 893.873 -4.06996 -5.721 0
M  V30 9245 H 898.713 -2.57649 -1.49737 0
M  V30 9246 H 896.25 -1.27769 -0.728938 0
M  V30 9247 H 898.208 -1.69104 -3.81392 0
M  V30 9248 H 896.838 -0.774641 -3.13367 0
M  V30 9249 H 895.89 -3.04102 -2.2853 0
M  V30 9250 H 897.202 -3.85187 -3.1691 0
M  V30 9251 H 896.356 -2.90516 -5.32621 0
M  V30 9252 H 895.095 -1.99016 -4.45246 0
M  V30 9253 H 894.1 -4.13902 -3.61891 0
M  V30 9254 H 895.325 -5.06294 -4.52596 0
M  V30 9255 H 893.271 -3.17573 -5.74006 0
M  V30 9256 H 893.188 -4.90685 -5.75121 0
M  V30 9257 H 894.456 -4.10315 -6.62768 0
M  V30 9258 N 898.685 0.775411 -1.37205 0
M  V30 9259 C 899.648 1.8702 -1.325 0
M  V30 9260 C 900.648 1.5915 -0.229793 0
M  V30 9261 O 901.838 1.673 -0.485423 0
M  V30 9262 C 898.97 3.24085 -1.05745 0
M  V30 9263 H 900.163 1.92604 -2.29878 0
M  V30 9264 H 897.716 0.97476 -1.22181 0
M  V30 9265 H 898.451 3.24178 -0.0888371 0
M  V30 9266 H 898.236 3.45705 -1.85016 0
M  V30 9267 H 899.726 4.0416 -1.05094 0
M  V30 9268 N 900.163 1.21714 1.00117 0
M  V30 9269 C 901.073 0.99597 2.12409 0
M  V30 9270 C 902.089 -0.0531431 1.73919 0
M  V30 9271 O 903.265 0.137757 2.00928 0
M  V30 9272 C 900.33 0.567593 3.42022 0
M  V30 9273 C 899.391 1.68936 3.94663 0
M  V30 9274 C 898.624 1.28133 5.1809 0
M  V30 9275 O 898.847 0.156574 5.70185 0
M  V30 9276 O 897.781 2.0947 5.64275 0
M  V30 9277 H 901.607 1.93657 2.33946 0
M  V30 9278 H 899.192 1.00236 1.10784 0
M  V30 9279 H 901.074 0.338664 4.20037 0
M  V30 9280 H 899.749 -0.34424 3.21864 0
M  V30 9281 H 898.656 1.97274 3.17858 0
M  V30 9282 H 899.989 2.57876 4.19238 0
M  V30 9283 N 901.641 -1.19671 1.02551 0
M  V30 9284 C 902.866 -1.93774 0.739363 0
M  V30 9285 C 903.291 -1.74787 -0.695064 0
M  V30 9286 O 902.649 -1.04796 -1.47944 0
M  V30 9287 C 902.697 -3.43684 1.09149 0
M  V30 9288 O 901.801 -4.11874 0.208213 0
M  V30 9289 H 901.142 -0.605064 0.273484 0
M  V30 9290 H 903.672 -1.51846 1.37128 0
M  V30 9291 H 903.682 -3.94339 1.04695 0
M  V30 9292 H 902.357 -3.56826 2.13654 0
M  V30 9293 H 900.934 -3.716 0.311045 0
M  V30 9294 N 903.119 -0.802921 -1.35613 0
M  V30 9295 C 904.367 -0.380822 -1.9848 0
M  V30 9296 C 904.688 1.05464 -1.6402 0
M  V30 9297 O 903.958 1.72908 -0.920854 0
M  V30 9298 H 902.538 -0.137824 -0.734176 0
M  V30 9299 H 905.2 -1.02795 -1.65587 0
M  V30 9300 H 904.296 -0.483565 -3.08331 0
M  V30 9301 N 904.597 1.47463 -0.556102 0
M  V30 9302 C 905.544 2.29998 0.192213 0
M  V30 9303 C 906.514 1.38993 0.909403 0
M  V30 9304 O 907.699 1.67954 0.905316 0
M  V30 9305 C 904.839 3.22932 1.21692 0
M  V30 9306 C 903.952 4.29027 0.505908 0
M  V30 9307 C 903.087 5.09114 1.51581 0
M  V30 9308 C 902.126 6.06984 0.789714 0
M  V30 9309 N 901.263 6.80033 1.74639 0
M  V30 9310 H 906.103 2.93468 -0.517734 0
M  V30 9311 H 903.64 1.44654 -0.267147 0
M  V30 9312 H 905.598 3.75234 1.8236 0
M  V30 9313 H 904.228 2.61329 1.89491 0
M  V30 9314 H 903.28 3.7979 -0.215276 0
M  V30 9315 H 904.592 4.9876 -0.062958 0
M  V30 9316 H 903.746 5.6556 2.19606 0
M  V30 9317 H 902.485 4.3928 2.11859 0
M  V30 9318 H 901.49 5.49717 0.0955382 0
M  V30 9319 H 902.715 6.78827 0.192688 0
M  V30 9320 H 900.661 6.12931 2.33777 0
M  V30 9321 H 900.578 7.45933 1.22965 0
M  V30 9322 H 901.846 7.41054 2.41782 0
M  V30 9323 N 906.075 0.2925 1.54862 0
M  V30 9324 C 907.3 -0.32494 2.04839 0
M  V30 9325 C 907.725 -1.47381 1.16877 0
M  V30 9326 O 907.083 -1.80492 0.171028 0
M  V30 9327 C 907.131 -0.76694 3.5235 0
M  V30 9328 O 906.235 -1.87256 3.67436 0
M  V30 9329 H 905.576 -0.0645195 0.660858 0
M  V30 9330 H 908.106 0.431867 1.9999 0
M  V30 9331 H 908.116 -1.05804 3.94043 0
M  V30 9332 H 906.791 0.0735212 4.15835 0
M  V30 9333 H 905.368 -1.58266 3.37648 0
M  V30 9334 N 907.553 -1.57587 0.0200696 0
M  V30 9335 C 908.516 -2.08595 -0.949767 0
M  V30 9336 C 909.516 -0.999215 -1.25985 0
M  V30 9337 O 910.706 -1.26115 -1.2017 0
M  V30 9338 C 907.838 -2.54424 -2.26895 0
M  V30 9339 H 909.031 -2.95563 -0.508161 0
M  V30 9340 H 906.584 -1.54631 -0.227798 0
M  V30 9341 H 907.319 -1.70758 -2.75703 0
M  V30 9342 H 907.104 -3.3381 -2.05702 0
M  V30 9343 H 908.594 -2.94144 -2.96427 0
M  V30 9344 N 909.032 0.252966 -1.55557 0
M  V30 9345 C 910.257 1.0038 -1.8149 0
M  V30 9346 C 910.682 1.78397 -0.596318 0
M  V30 9347 O 910.04 1.7551 0.454535 0
M  V30 9348 C 910.088 1.9222 -3.05096 0
M  V30 9349 O 909.192 3.01302 -2.81587 0
M  V30 9350 H 908.533 0.285949 -0.599274 0
M  V30 9351 H 911.063 0.275795 -2.02733 0
M  V30 9352 H 911.073 2.338 -3.34368 0
M  V30 9353 H 909.748 1.34852 -3.93431 0
M  V30 9354 H 908.325 2.63894 -2.63466 0
M  V30 9355 N 910.51 1.48831 0.518367 0
M  V30 9356 C 911.738 1.6112 1.298 0
M  V30 9357 C 912.153 0.275872 1.86774 0
M  V30 9358 O 911.51 -0.736416 1.66983 0
M  V30 9359 C 911.561 2.66675 2.44063 0
M  V30 9360 O 911.282 3.95027 1.89434 0
M  V30 9361 C 912.783 2.8951 3.35706 0
M  V30 9362 H 910.003 0.542916 0.394314 0
M  V30 9363 H 912.547 1.94743 0.624142 0
M  V30 9364 H 910.702 2.35879 3.07311 0
M  V30 9365 H 911.116 4.53031 2.64316 0
M  V30 9366 H 912.59 3.67142 4.12202 0
M  V30 9367 H 913.067 1.98768 3.91648 0
M  V30 9368 H 913.673 3.21656 2.7824 0
M  V30 9369 N 911.988 -0.768124 1.37614 0
M  V30 9370 C 912.898 -1.91249 1.35871 0
M  V30 9371 C 913.914 -1.7208 0.257786 0
M  V30 9372 O 915.09 -1.95253 0.493782 0
M  V30 9373 C 912.155 -3.26423 1.16829 0
M  V30 9374 C 911.216 -3.5822 2.36594 0
M  V30 9375 C 910.449 -4.86945 2.1845 0
M  V30 9376 O 910.672 -5.58258 1.17064 0
M  V30 9377 O 909.606 -5.17888 3.06718 0
M  V30 9378 H 913.432 -1.95671 2.32264 0
M  V30 9379 H 911.017 -0.911382 1.18382 0
M  V30 9380 H 912.899 -4.07269 1.08212 0
M  V30 9381 H 911.574 -3.22845 0.235123 0
M  V30 9382 H 910.481 -2.77594 2.50783 0
M  V30 9383 H 911.814 -3.66545 3.2849 0
M  V30 9384 N 913.466 -1.22244 -0.994698 0
M  V30 9385 C 914.712 -1.04746 -1.73655 0
M  V30 9386 C 915.045 0.41668 -1.89677 0
M  V30 9387 O 914.32 1.30897 -1.43862 0
M  V30 9388 C 914.603 -1.75716 -3.14318 0
M  V30 9389 C 914.456 -3.29714 -3.05955 0
M  V30 9390 C 915.775 -1.50809 -4.13455 0
M  V30 9391 H 912.894 -0.381921 -0.630322 0
M  V30 9392 H 915.536 -1.50559 -1.15897 0
M  V30 9393 H 913.686 -1.3677 -3.63629 0
M  V30 9394 H 915.358 -3.78093 -2.64279 0
M  V30 9395 H 913.601 -3.59484 -2.42804 0
M  V30 9396 H 914.272 -3.74547 -4.05485 0
M  V30 9397 H 916.748 -1.84636 -3.72892 0
M  V30 9398 H 915.624 -2.02964 -5.09997 0
M  V30 9399 H 915.885 -0.440292 -4.39902 0
M  V30 9400 N 914.944 1.19125 -1.03184 0
M  V30 9401 C 916.355 1.70564 -0.759264 0
M  V30 9402 C 916.706 1.8248 0.720794 0
M  V30 9403 O 915.831 1.49804 1.56166 0
M  V30 9404 C 916.426 3.09793 -1.37163 0
M  V30 9405 C 914.985 3.5848 -1.14757 0
M  V30 9406 C 914.132 2.35265 -1.46784 0
M  V30 9407 H 917.083 1.03925 -1.19939 0
M  V30 9408 H 917.104 3.72624 -0.77015 0
M  V30 9409 H 916.616 3.01088 -2.44882 0
M  V30 9410 H 914.717 3.72494 -0.0887182 0
M  V30 9411 H 914.83 4.42426 -1.83836 0
M  V30 9412 H 913.194 2.38747 -0.887254 0
M  V30 9413 H 913.977 2.29188 -2.55593 0
M  V30 9414 N 916.422 0.810101 1.35185 0
M  V30 9415 C 917.67 0.391343 1.98275 0
M  V30 9416 C 917.991 -1.04592 1.64577 0
M  V30 9417 O 917.261 -1.72417 0.93001 0
M  V30 9418 H 915.841 0.141715 0.733434 0
M  V30 9419 H 918.503 1.03672 1.6504 0
M  V30 9420 H 917.599 0.49991 3.0807 0
M  V30 9421 N 917.9 -1.47166 0.563914 0
M  V30 9422 C 918.863 -2.28571 -0.169624 0
M  V30 9423 C 919.863 -1.37331 -0.836467 0
M  V30 9424 O 921.053 -1.59896 -0.6913 0
M  V30 9425 C 918.185 -3.17201 -1.24886 0
M  V30 9426 H 919.378 -2.94896 0.545539 0
M  V30 9427 H 916.931 -1.52966 0.321121 0
M  V30 9428 H 917.666 -2.55582 -1.99621 0
M  V30 9429 H 917.451 -3.84356 -0.775426 0
M  V30 9430 H 918.941 -3.7852 -1.76388 0
M  V30 9431 N 919.378 -0.300708 -1.54705 0
M  V30 9432 C 920.603 0.314073 -2.05008 0
M  V30 9433 C 921.028 1.46759 -1.17657 0
M  V30 9434 O 920.386 1.80398 -0.180598 0
M  V30 9435 C 920.434 0.748243 -3.52752 0
M  V30 9436 O 919.538 1.85305 -3.68424 0
M  V30 9437 H 918.879 0.0610139 -0.661191 0
M  V30 9438 H 921.409 -0.442467 -1.99758 0
M  V30 9439 H 921.419 1.03713 -3.94598 0
M  V30 9440 H 920.094 -0.095573 -4.1579 0
M  V30 9441 H 918.671 1.56473 -3.38483 0
M  V30 9442 N 920.856 1.57574 -0.0284266 0
M  V30 9443 C 921.766 2.13637 0.96936 0
M  V30 9444 C 922.782 1.08845 1.35752 0
M  V30 9445 O 923.958 1.40899 1.43908 0
M  V30 9446 C 921.023 2.65179 2.2334 0
M  V30 9447 C 920.084 3.84683 1.90572 0
M  V30 9448 C 919.317 4.33758 3.1095 0
M  V30 9449 O 919.54 3.82009 4.23586 0
M  V30 9450 O 918.474 5.2561 2.93288 0
M  V30 9451 H 922.3 2.99169 0.52267 0
M  V30 9452 H 919.885 1.48159 0.192135 0
M  V30 9453 H 921.767 2.98402 2.97547 0
M  V30 9454 H 920.442 1.82731 2.67191 0
M  V30 9455 H 919.349 3.56386 1.13753 0
M  V30 9456 H 920.682 4.68292 1.51538 0
M  V30 9457 N 922.334 -0.244713 1.55689 0
M  V30 9458 C 923.611 -0.995407 1.68378 0
M  V30 9459 C 923.991 -2.03288 0.568949 0
M  V30 9460 O 923.339 -2.24469 -0.427299 0
M  V30 9461 C 923.549 -1.62678 3.08767 0
M  V30 9462 C 924.897 -2.1278 3.67437 0
M  V30 9463 O 925.921 -1.72614 3.11581 0
M  V30 9464 O 924.78 -2.86536 4.65359 0
M  V30 9465 H 921.874 -0.463476 0.684923 0
M  V30 9466 H 924.42 -0.238326 1.68018 0
M  V30 9467 H 923.192 -0.876469 3.81358 0
M  V30 9468 H 922.815 -2.45 3.13146 0
M  V30 9469 N 923.813 -1.49104 -0.510467 0
M  V30 9470 C 924.776 -1.64569 -1.59529 0
M  V30 9471 C 925.776 -0.517937 -1.5223 0
M  V30 9472 O 926.966 -0.784183 -1.55551 0
M  V30 9473 C 924.098 -1.6342 -2.99177 0
M  V30 9474 H 925.291 -2.61318 -1.4715 0
M  V30 9475 H 922.844 -1.37993 -0.734001 0
M  V30 9476 H 923.579 -0.68221 -3.17043 0
M  V30 9477 H 923.364 -2.45312 -3.05883 0
M  V30 9478 H 924.854 -1.77474 -3.78011 0
M  V30 9479 N 925.291 0.760815 -1.38019 0
M  V30 9480 C 926.201 1.90526 -1.36884 0
M  V30 9481 C 927.217 1.71941 -0.266908 0
M  V30 9482 O 928.393 1.94988 -0.50413 0
M  V30 9483 C 925.458 3.25799 -1.18558 0
M  V30 9484 C 924.519 3.56961 -2.3849 0
M  V30 9485 C 923.752 4.8578 -2.21029 0
M  V30 9486 O 923.975 5.57629 -1.20023 0
M  V30 9487 O 922.909 5.16254 -3.0946 0
M  V30 9488 H 926.735 1.94437 -2.33298 0
M  V30 9489 H 924.32 0.905091 -1.18863 0
M  V30 9490 H 926.202 4.0669 -1.1037 0
M  V30 9491 H 924.877 3.22716 -0.252241 0
M  V30 9492 H 923.784 2.7626 -2.52252 0
M  V30 9493 H 925.117 3.64798 -3.30429 0
M  V30 9494 N 926.769 1.22769 0.988202 0
M  V30 9495 C 927.716 1.00195 2.07917 0
M  V30 9496 C 928.686 -0.0779391 1.65917 0
M  V30 9497 O 929.871 0.0726005 1.90662 0
M  V30 9498 C 927.011 0.590853 3.40004 0
M  V30 9499 C 926.124 1.74202 3.9532 0
M  V30 9500 C 925.259 1.27846 5.15586 0
M  V30 9501 C 924.298 2.40087 5.63049 0
M  V30 9502 N 923.435 1.94744 6.74551 0
M  V30 9503 H 928.275 1.93581 2.26562 0
M  V30 9504 H 925.812 0.96448 1.11068 0
M  V30 9505 H 927.77 0.333653 4.15864 0
M  V30 9506 H 926.4 -0.306007 3.21346 0
M  V30 9507 H 925.452 2.11342 3.16289 0
M  V30 9508 H 926.764 2.58612 4.26522 0
M  V30 9509 H 925.918 0.978919 5.9875 0
M  V30 9510 H 924.657 0.404617 4.86019 0
M  V30 9511 H 923.662 2.70824 4.78471 0
M  V30 9512 H 924.887 3.27995 5.9464 0
M  V30 9513 H 922.833 1.09729 6.46758 0
M  V30 9514 H 922.75 2.72718 7.05096 0
M  V30 9515 H 924.018 1.67873 7.61209 0
M  V30 9516 N 928.247 -1.18576 1.03814 0
M  V30 9517 C 929.195 -2.24166 0.620678 0
M  V30 9518 C 930.189 -1.65718 -0.351282 0
M  V30 9519 O 931.395 -1.78665 -0.218848 0
M  V30 9520 H 927.77 -0.729522 0.182487 0
M  V30 9521 H 929.741 -2.56686 1.52166 0
M  V30 9522 C 928.49 -3.477 -0.00307331 0
M  V30 9523 H 927.813 -3.92969 0.735874 0
M  V30 9524 H 929.253 -4.23214 -0.257988 0
M  V30 9525 C 927.712 -3.12757 -1.2524 0
M  V30 9526 O 928.242 -3.26261 -2.34344 0
M  V30 9527 N 926.448 -2.67104 -1.14471 0
M  V30 9528 H 925.995 -2.56316 -0.256873 0
M  V30 9529 H 925.953 -2.44096 -1.98153 0
M  V30 9530 N 929.725 -0.817259 -1.34754 0
M  V30 9531 C 930.657 -0.192695 -2.28389 0
M  V30 9532 C 931.67 0.614167 -1.50771 0
M  V30 9533 O 932.859 0.444776 -1.7287 0
M  V30 9534 C 929.959 0.748929 -3.30521 0
M  V30 9535 C 929.132 -0.0138762 -4.37398 0
M  V30 9536 C 928.191 0.847825 -5.19325 0
M  V30 9537 O 927.217 0.29487 -5.68436 0
M  V30 9538 N 928.419 2.16843 -5.38479 0
M  V30 9539 H 931.184 -0.997122 -2.82626 0
M  V30 9540 H 928.745 -0.673696 -1.47217 0
M  V30 9541 H 930.737 1.32987 -3.82226 0
M  V30 9542 H 929.307 1.45412 -2.7672 0
M  V30 9543 H 928.527 -0.776093 -3.86485 0
M  V30 9544 H 929.815 -0.539191 -5.05935 0
M  V30 9545 H 929.213 2.64148 -5.00242 0
M  V30 9546 H 927.77 2.69835 -5.93323 0
M  V30 9547 N 931.203 1.46865 -0.571711 0
M  V30 9548 C 932.15 2.30189 0.167808 0
M  V30 9549 C 933.12 1.3995 0.89461 0
M  V30 9550 O 934.305 1.68905 0.887451 0
M  V30 9551 C 931.445 3.24205 1.1826 0
M  V30 9552 C 930.558 4.2954 0.460376 0
M  V30 9553 C 929.693 5.10693 1.46173 0
M  V30 9554 C 928.732 6.07788 0.725291 0
M  V30 9555 N 927.869 6.81847 1.67417 0
M  V30 9556 H 932.709 2.92902 -0.548831 0
M  V30 9557 H 930.246 1.44362 -0.282474 0
M  V30 9558 H 932.204 3.77147 1.7837 0
M  V30 9559 H 930.834 2.63324 1.86709 0
M  V30 9560 H 929.886 3.79541 -0.255546 0
M  V30 9561 H 931.198 4.98665 -0.115855 0
M  V30 9562 H 930.352 5.67857 2.13595 0
M  V30 9563 H 929.091 4.41502 2.07188 0
M  V30 9564 H 928.096 5.49787 0.037228 0
M  V30 9565 H 929.321 6.78993 0.120678 0
M  V30 9566 H 927.267 6.15376 2.27263 0
M  V30 9567 H 927.184 7.47195 1.15046 0
M  V30 9568 H 928.452 7.43577 2.33908 0
M  V30 9569 N 932.681 0.308908 1.54543 0
M  V30 9570 C 933.93 -0.298854 1.99474 0
M  V30 9571 C 934.243 -1.54393 1.20093 0
M  V30 9572 O 935.449 -2.22677 1.55329 0
M  V30 9573 C 933.905 -0.58303 3.55146 0
M  V30 9574 C 933.513 0.644157 4.43345 0
M  V30 9575 C 935.257 -1.15155 4.08582 0
M  V30 9576 C 933.164 0.332694 5.90463 0
M  V30 9577 H 932.094 -0.115445 0.74511 0
M  V30 9578 H 934.745 0.418848 1.78656 0
M  V30 9579 H 933.127 -1.36053 3.71894 0
M  V30 9580 H 934.301 1.42012 4.38371 0
M  V30 9581 H 932.616 1.13186 4.00722 0
M  V30 9582 H 935.213 -1.39896 5.16075 0
M  V30 9583 H 935.556 -2.09632 3.59667 0
M  V30 9584 H 936.089 -0.435571 3.95408 0
M  V30 9585 H 932.828 1.24624 6.43544 0
M  V30 9586 H 932.348 -0.405844 5.98425 0
M  V30 9587 H 934.027 -0.0628545 6.46969 0
M  V30 9588 N 934.159 -1.57557 0.0367827 0
M  V30 9589 C 935.092 -2.06205 -0.977479 0
M  V30 9590 C 936.07 -0.959444 -1.31276 0
M  V30 9591 O 937.254 -1.23033 -1.42811 0
M  V30 9592 C 934.381 -2.49053 -2.29544 0
M  V30 9593 C 933.427 -3.70409 -2.11423 0
M  V30 9594 S 934.26 -5.16715 -1.40593 0
M  V30 9595 C 935.416 -5.62864 -2.73742 0
M  V30 9596 H 935.649 -2.91913 -0.5634 0
M  V30 9597 H 933.182 -1.53404 -0.175111 0
M  V30 9598 H 935.14 -2.74403 -3.05308 0
M  V30 9599 H 933.801 -1.63677 -2.68083 0
M  V30 9600 H 932.994 -3.98262 -3.08875 0
M  V30 9601 H 932.596 -3.4525 -1.438 0
M  V30 9602 H 934.888 -5.67571 -3.69958 0
M  V30 9603 H 935.831 -6.62294 -2.50544 0
M  V30 9604 H 936.239 -4.90539 -2.79341 0
M  V30 9605 N 935.637 0.236453 -1.55816 0
M  V30 9606 C 936.569 1.31602 -1.87653 0
M  V30 9607 C 937.582 1.43782 -0.763584 0
M  V30 9608 O 938.771 1.44945 -1.04178 0
M  V30 9609 C 935.871 2.69342 -2.05689 0
M  V30 9610 C 935.044 2.79298 -3.36617 0
M  V30 9611 C 934.103 3.97952 -3.44268 0
M  V30 9612 O 933.129 3.86989 -4.17406 0
M  V30 9613 N 934.331 5.11594 -2.74321 0
M  V30 9614 H 937.096 1.04623 -2.80845 0
M  V30 9615 H 934.657 0.426534 -1.5618 0
M  V30 9616 H 936.649 3.47074 -2.08138 0
M  V30 9617 H 935.219 2.88984 -1.19192 0
M  V30 9618 H 934.439 1.8816 -3.46395 0
M  V30 9619 H 935.727 2.82908 -4.22895 0
M  V30 9620 H 935.125 5.23394 -2.14651 0
M  V30 9621 H 933.682 5.87422 -2.8245 0
M  V30 9622 N 937.115 1.49373 0.502552 0
M  V30 9623 C 938.361 1.5999 1.25597 0
M  V30 9624 C 938.716 0.282287 1.90318 0
M  V30 9625 O 938.009 -0.71735 1.77664 0
M  V30 9626 C 938.203 2.69508 2.34735 0
M  V30 9627 C 938.032 4.11791 1.80716 0
M  V30 9628 C 936.802 4.78598 1.62087 0
M  V30 9629 C 939 4.97074 1.31991 0
M  V30 9630 N 936.982 6.05201 1.02981 0
M  V30 9631 C 938.353 6.14144 0.850098 0
M  V30 9632 C 940.408 4.83086 1.20549 0
M  V30 9633 C 939.111 7.18766 0.277192 0
M  V30 9634 C 941.137 5.87855 0.64656 0
M  V30 9635 C 940.499 7.04152 0.186968 0
M  V30 9636 H 936.598 0.639822 0.449613 0
M  V30 9637 H 939.182 1.86371 0.563361 0
M  V30 9638 H 937.353 2.44902 3.01459 0
M  V30 9639 H 939.085 2.69656 3.01774 0
M  V30 9640 H 935.84 4.35372 1.8641 0
M  V30 9641 H 936.264 6.72793 0.753601 0
M  V30 9642 H 940.906 3.93489 1.54681 0
M  V30 9643 H 938.624 8.08064 -0.0763971 0
M  V30 9644 H 942.21 5.79091 0.560832 0
M  V30 9645 H 941.09 7.83836 -0.238784 0
M  V30 9646 N 938.594 -0.753485 1.38421 0
M  V30 9647 C 939.843 -1.50797 1.33952 0
M  V30 9648 C 940.156 -1.95482 -0.0678464 0
M  V30 9649 O 941.362 -2.7048 -0.235078 0
M  V30 9650 C 939.818 -2.72393 2.35224 0
M  V30 9651 C 939.426 -2.34733 3.81582 0
M  V30 9652 C 941.17 -3.50281 2.39798 0
M  V30 9653 C 939.077 -3.52939 4.7454 0
M  V30 9654 H 938.007 -0.566211 0.497916 0
M  V30 9655 H 940.658 -0.823659 1.63976 0
M  V30 9656 H 939.04 -3.42806 1.98243 0
M  V30 9657 H 940.214 -1.71985 4.27502 0
M  V30 9658 H 938.529 -1.69978 3.80127 0
M  V30 9659 H 941.126 -4.38172 3.06447 0
M  V30 9660 H 941.469 -3.91444 1.41695 0
M  V30 9661 H 942.002 -2.86881 2.75579 0
M  V30 9662 H 938.741 -3.16843 5.73839 0
M  V30 9663 H 938.261 -4.1473 4.33312 0
M  V30 9664 H 939.94 -4.19519 4.92557 0
M  V30 9665 N 940.072 -1.23292 -0.981677 0
M  V30 9666 C 941.321 -1.05832 -1.71705 0
M  V30 9667 C 941.634 0.40514 -1.91358 0
M  V30 9668 O 942.84 0.699645 -2.6233 0
M  V30 9669 C 941.296 -1.84532 -3.08992 0
M  V30 9670 C 940.904 -3.35199 -2.9723 0
M  V30 9671 C 942.648 -1.75557 -3.86497 0
M  V30 9672 C 940.555 -4.06296 -4.29741 0
M  V30 9673 H 939.485 -0.39241 -0.64384 0
M  V30 9674 H 942.136 -1.47247 -1.09502 0
M  V30 9675 H 940.518 -1.35923 -3.71942 0
M  V30 9676 H 941.692 -3.91286 -2.43377 0
M  V30 9677 H 940.007 -3.44973 -2.332 0
M  V30 9678 H 942.604 -2.25989 -4.84596 0
M  V30 9679 H 942.947 -0.718101 -4.1006 0
M  V30 9680 H 943.48 -2.21771 -3.30246 0
M  V30 9681 H 940.219 -5.10344 -4.11375 0
M  V30 9682 H 939.739 -3.54997 -4.83464 0
M  V30 9683 H 941.418 -4.12519 -4.98434 0
M  V30 9684 N 941.55 1.18024 -1.04442 0
M  V30 9685 C 942.46 2.25436 -0.649276 0
M  V30 9686 C 943.476 1.70915 0.326189 0
M  V30 9687 O 944.652 2.00592 0.180174 0
M  V30 9688 C 941.717 3.46693 -0.0222558 0
M  V30 9689 C 940.778 4.16332 -1.0472 0
M  V30 9690 C 940.011 5.31799 -0.450011 0
M  V30 9691 O 940.234 5.65544 0.742717 0
M  V30 9692 O 939.168 5.90209 -1.18056 0
M  V30 9693 H 942.994 2.61508 -1.54426 0
M  V30 9694 H 940.579 1.25178 -0.81552 0
M  V30 9695 H 942.461 4.20132 0.326597 0
M  V30 9696 H 941.136 3.12436 0.84649 0
M  V30 9697 H 940.043 3.44944 -1.44792 0
M  V30 9698 H 941.376 4.54598 -1.88684 0
M  V30 9699 N 943.028 0.824394 1.34319 0
M  V30 9700 C 944.276 0.41235 1.97849 0
M  V30 9701 C 944.597 -1.02841 1.65677 0
M  V30 9702 O 943.867 -1.71421 0.948245 0
M  V30 9703 H 942.447 0.149486 0.73189 0
M  V30 9704 H 945.109 1.05416 1.63931 0
M  V30 9705 H 944.205 0.532557 3.07523 0
M  V30 9706 N 944.506 -1.46559 0.579492 0
M  V30 9707 C 945.416 -2.34066 -0.15816 0
M  V30 9708 C 946.432 -1.49556 -0.88932 0
M  V30 9709 O 947.608 -1.82434 -0.853226 0
M  V30 9710 C 944.673 -3.26683 -1.161 0
M  V30 9711 C 943.734 -4.27092 -0.434855 0
M  V30 9712 C 942.967 -5.15283 -1.38992 0
M  V30 9713 O 943.19 -5.06345 -2.62623 0
M  V30 9714 O 942.124 -5.95099 -0.902253 0
M  V30 9715 H 945.95 -2.98488 0.560234 0
M  V30 9716 H 943.535 -1.45482 0.339918 0
M  V30 9717 H 945.417 -3.8383 -1.73932 0
M  V30 9718 H 944.092 -2.64862 -1.86091 0
M  V30 9719 H 942.999 -3.73641 0.185224 0
M  V30 9720 H 944.332 -4.9169 0.224031 0
M  V30 9721 N 945.984 -0.3171 -1.54377 0
M  V30 9722 C 946.931 0.551782 -2.24107 0
M  V30 9723 C 947.901 1.11681 -1.22949 0
M  V30 9724 O 949.086 1.15836 -1.51614 0
M  V30 9725 C 946.226 1.70997 -2.99756 0
M  V30 9726 C 945.339 1.17479 -4.15719 0
M  V30 9727 C 944.474 2.29815 -4.78914 0
M  V30 9728 C 943.513 1.73513 -5.86992 0
M  V30 9729 N 942.65 2.79485 -6.44075 0
M  V30 9730 H 947.49 -0.049431 -2.97959 0
M  V30 9731 H 945.027 -0.0361658 -1.47056 0
M  V30 9732 H 946.985 2.39141 -3.41859 0
M  V30 9733 H 945.615 2.28257 -2.28251 0
M  V30 9734 H 944.667 0.385109 -3.78446 0
M  V30 9735 H 945.979 0.72276 -4.93536 0
M  V30 9736 H 945.133 3.05875 -5.23952 0
M  V30 9737 H 943.872 2.78352 -4.00464 0
M  V30 9738 H 942.877 0.959475 -5.41363 0
M  V30 9739 H 944.102 1.2586 -6.67335 0
M  V30 9740 H 942.048 3.27325 -5.68502 0
M  V30 9741 H 941.965 2.38825 -7.17286 0
M  V30 9742 H 943.233 3.55394 -6.93769 0
M  V30 9743 N 947.462 1.57535 -0.0451378 0
M  V30 9744 C 948.372 2.14653 0.946646 0
M  V30 9745 C 949.388 1.10279 1.3459 0
M  V30 9746 O 950.564 1.42417 1.42405 0
M  V30 9747 C 947.629 2.67533 2.20515 0
M  V30 9748 C 946.69 3.86682 1.86481 0
M  V30 9749 C 945.923 4.37031 3.06332 0
M  V30 9750 O 946.146 3.86481 4.1951 0
M  V30 9751 O 945.08 5.28691 2.87697 0
M  V30 9752 H 948.906 2.99706 0.49091 0
M  V30 9753 H 946.491 1.48355 0.17641 0
M  V30 9754 H 948.373 3.01542 2.94365 0
M  V30 9755 H 947.048 1.85554 2.65238 0
M  V30 9756 H 945.955 3.57573 1.09966 0
M  V30 9757 H 947.288 4.69873 1.46562 0
M  V30 9758 N 948.94 -0.228186 1.55939 0
M  V30 9759 C 950.189 -0.951563 1.77843 0
M  V30 9760 C 950.502 -1.85763 0.612501 0
M  V30 9761 O 951.708 -2.61916 0.715006 0
M  V30 9762 C 950.164 -1.74216 3.14923 0
M  V30 9763 C 949.772 -0.882569 4.39221 0
M  V30 9764 C 951.516 -2.45715 3.46156 0
M  V30 9765 C 949.423 -1.67014 5.67327 0
M  V30 9766 H 948.353 -0.359035 0.663031 0
M  V30 9767 H 951.004 -0.205636 1.82344 0
M  V30 9768 H 949.386 -2.53075 3.0458 0
M  V30 9769 H 950.56 -0.13499 4.60602 0
M  V30 9770 H 948.875 -0.280022 4.15457 0
M  V30 9771 H 951.472 -3.05127 4.39092 0
M  V30 9772 H 951.815 -3.1827 2.68346 0
M  V30 9773 H 952.348 -1.73852 3.57799 0
M  V30 9774 H 949.087 -0.987985 6.48012 0
M  V30 9775 H 948.607 -2.3925 5.50018 0
M  V30 9776 H 950.286 -2.23252 6.07262 0
M  V30 9777 N 950.418 -1.49637 -0.494624 0
M  V30 9778 C 951.643 -1.63431 -1.27691 0
M  V30 9779 C 952.068 -0.30813 -1.85559 0
M  V30 9780 O 951.426 0.725083 -1.66169 0
M  V30 9781 C 951.474 -2.71043 -2.3784 0
M  V30 9782 O 950.578 -2.3066 -3.41862 0
M  V30 9783 H 949.919 -0.546804 -0.376698 0
M  V30 9784 H 952.449 -1.95866 -0.591413 0
M  V30 9785 H 952.459 -2.93406 -2.83508 0
M  V30 9786 H 951.134 -3.67306 -1.95088 0
M  V30 9787 H 949.711 -2.18652 -3.02069 0
M  V30 9788 N 951.896 0.746133 -1.38819 0
M  V30 9789 C 953.312 1.0502 -1.20179 0
M  V30 9790 C 953.512 2.01423 -0.0556271 0
M  V30 9791 O 952.568 2.45359 0.59625 0
M  V30 9792 C 953.881 1.62315 -2.53129 0
M  V30 9793 C 955.429 1.74449 -2.59878 0
M  V30 9794 C 955.904 2.35155 -3.93022 0
M  V30 9795 N 957.395 2.42577 -3.94602 0
M  V30 9796 C 958.13 2.9046 -4.94389 0
M  V30 9797 N 957.626 3.38322 -6.04574 0
M  V30 9798 N 959.419 2.89568 -4.81775 0
M  V30 9799 H 951.57 0.106551 -2.12133 0
M  V30 9800 H 953.833 0.109897 -0.941609 0
M  V30 9801 H 953.539 0.98946 -3.37495 0
M  V30 9802 H 953.413 2.61276 -2.72057 0
M  V30 9803 H 955.8 2.36943 -1.75903 0
M  V30 9804 H 955.881 0.741721 -2.4481 0
M  V30 9805 H 955.525 1.73292 -4.77422 0
M  V30 9806 H 955.455 3.36088 -4.05404 0
M  V30 9807 H 957.946 2.08735 -3.15021 0
M  V30 9808 H 958.259 3.73336 -6.76639 0
M  V30 9809 H 956.604 3.3636 -6.08184 0
M  V30 9810 H 959.795 2.51492 -3.94803 0
M  V30 9811 H 959.968 3.26571 -5.59692 0
M  V30 9812 N 953.375 1.23811 0.975125 0
M  V30 9813 C 954.325 0.991036 2.05335 0
M  V30 9814 C 955.309 -0.0648793 1.60769 0
M  V30 9815 O 956.501 0.147917 1.76381 0
M  V30 9816 C 953.63 0.589822 3.38195 0
M  V30 9817 C 952.716 1.68142 3.89344 0
M  V30 9818 N 953.107 2.91274 4.13513 0
M  V30 9819 C 951.405 1.55722 4.17931 0
M  V30 9820 C 952.106 3.61987 4.55347 0
M  V30 9821 N 951.082 2.8952 4.60086 0
M  V30 9822 H 954.884 1.92612 2.21986 0
M  V30 9823 H 952.398 1.13827 1.15832 0
M  V30 9824 H 954.395 0.394075 4.15033 0
M  V30 9825 H 953.055 -0.338157 3.22934 0
M  V30 9826 H 954.066 3.27528 4.01181 0
M  V30 9827 H 950.743 0.696732 4.11645 0
M  V30 9828 H 952.133 4.67572 4.8252 0
M  V30 9829 N 954.853 -1.17469 1.05066 0
M  V30 9830 C 956.269 -1.39699 0.771769 0
M  V30 9831 C 956.469 -1.91253 -0.634382 0
M  V30 9832 O 955.525 -2.10334 -1.39699 0
M  V30 9833 C 956.838 -2.38886 1.82631 0
M  V30 9834 C 958.386 -2.52595 1.84838 0
M  V30 9835 C 958.861 -3.55054 2.89311 0
M  V30 9836 N 960.352 -3.6257 2.88266 0
M  V30 9837 C 961.087 -4.41603 3.65752 0
M  V30 9838 N 960.583 -5.24162 4.53019 0
M  V30 9839 N 962.376 -4.36464 3.54197 0
M  V30 9840 H 954.527 -0.823355 1.95792 0
M  V30 9841 H 956.79 -0.42432 0.847736 0
M  V30 9842 H 956.496 -2.08075 2.83545 0
M  V30 9843 H 956.37 -3.38371 1.66687 0
M  V30 9844 H 958.757 -2.82717 0.845888 0
M  V30 9845 H 958.838 -1.53188 2.04859 0
M  V30 9846 H 958.482 -3.2567 3.89745 0
M  V30 9847 H 958.412 -4.54162 2.66542 0
M  V30 9848 H 960.903 -3.03625 2.24989 0
M  V30 9849 H 961.216 -5.81646 5.0883 0
M  V30 9850 H 959.561 -5.23547 4.57081 0
M  V30 9851 H 962.752 -3.7102 2.85416 0
M  V30 9852 H 962.925 -4.97814 4.14832 0
M  V30 9853 N 956.331 -0.831506 -1.3388 0
M  V30 9854 C 957.747 -0.518349 -1.50948 0
M  V30 9855 C 957.947 0.955807 -1.77388 0
M  V30 9856 O 957.003 1.73993 -1.82983 0
M  V30 9857 C 958.316 -1.38531 -2.66889 0
M  V30 9858 C 959.864 -1.38332 -2.80772 0
M  V30 9859 C 960.339 -2.23497 -3.99766 0
M  V30 9860 N 961.83 -2.21167 -4.06988 0
M  V30 9861 C 962.565 -2.83805 -4.98239 0
M  V30 9862 N 962.061 -3.55468 -5.94655 0
M  V30 9863 N 963.854 -2.73314 -4.91178 0
M  V30 9864 H 956.005 -1.78588 -1.14978 0
M  V30 9865 H 958.268 -0.761508 -0.564633 0
M  V30 9866 H 957.974 -2.43255 -2.54007 0
M  V30 9867 H 957.848 -1.05611 -3.62114 0
M  V30 9868 H 960.235 -0.343832 -2.9309 0
M  V30 9869 H 960.316 -1.75256 -1.86331 0
M  V30 9870 H 959.96 -3.27501 -3.88208 0
M  V30 9871 H 959.89 -1.83919 -4.93438 0
M  V30 9872 H 962.381 -1.69046 -3.37982 0
M  V30 9873 H 962.694 -4.00487 -6.60931 0
M  V30 9874 H 961.039 -3.59575 -5.94753 0
M  V30 9875 H 964.23 -2.16897 -4.14817 0
M  V30 9876 H 964.403 -3.22416 -5.62096 0
M  V30 9877 N 957.809 1.4625 -0.587256 0
M  V30 9878 C 959.037 2.06744 -0.08033 0
M  V30 9879 C 959.452 1.43527 1.2266 0
M  V30 9880 O 958.809 0.542168 1.74261 0
M  V30 9881 C 958.86 3.61394 0.0873469 0
M  V30 9882 O 958.581 4.22247 -1.16785 0
M  V30 9883 C 960.082 4.38828 0.628095 0
M  V30 9884 H 957.302 0.668354 -0.0595301 0
M  V30 9885 H 959.846 1.87808 -0.809217 0
M  V30 9886 H 958.001 3.79742 0.766473 0
M  V30 9887 H 958.415 5.15176 -0.984565 0
M  V30 9888 H 959.889 5.47613 0.694583 0
M  V30 9889 H 960.366 4.07188 1.64606 0
M  V30 9890 H 960.972 4.25297 -0.0163115 0
M  V30 9891 N 959.287 0.325282 1.54207 0
M  V30 9892 C 960.535 -0.276229 2.00203 0
M  V30 9893 C 960.856 -1.52519 1.21503 0
M  V30 9894 O 960.126 -1.93313 0.317302 0
M  V30 9895 H 958.706 -0.105059 0.739575 0
M  V30 9896 H 961.368 0.442225 1.89817 0
M  V30 9897 H 960.464 -0.531427 3.07542 0
M  V30 9898 N 960.765 -1.57509 0.0534917 0
M  V30 9899 C 961.715 -2.08179 -0.929802 0
M  V30 9900 C 962.699 -0.987451 -1.27036 0
M  V30 9901 O 963.891 -1.25076 -1.2524 0
M  V30 9902 C 961.02 -2.63221 -2.20385 0
M  V30 9903 C 960.106 -3.79629 -1.89058 0
M  V30 9904 N 960.497 -4.8931 -1.28101 0
M  V30 9905 C 958.795 -3.88578 -2.18914 0
M  V30 9906 C 959.496 -5.70329 -1.14455 0
M  V30 9907 N 958.472 -5.18011 -1.64821 0
M  V30 9908 H 962.274 -2.90374 -0.453874 0
M  V30 9909 H 959.788 -1.61697 -0.150899 0
M  V30 9910 H 961.785 -2.97827 -2.91727 0
M  V30 9911 H 960.445 -1.82466 -2.68582 0
M  V30 9912 H 961.456 -5.09058 -0.952924 0
M  V30 9913 H 958.133 -3.18769 -2.69616 0
M  V30 9914 H 959.523 -6.6854 -0.671129 0
M  V30 9915 N 962.243 0.219913 -1.56058 0
M  V30 9916 C 963.491 0.942199 -1.78793 0
M  V30 9917 C 963.812 1.84804 -0.622284 0
M  V30 9918 O 963.082 1.9255 0.360735 0
M  V30 9919 H 961.662 0.350895 -0.659455 0
M  V30 9920 H 964.324 0.231376 -1.93522 0
M  V30 9921 H 963.42 1.54804 -2.71002 0
M  V30 9922 N 963.721 1.49897 0.486681 0
M  V30 9923 C 964.946 1.64106 1.26823 0
M  V30 9924 C 965.371 0.317967 1.85393 0
M  V30 9925 O 964.729 -0.71626 1.66551 0
M  V30 9926 C 964.777 2.72301 2.36399 0
M  V30 9927 O 963.881 2.32469 3.40634 0
M  V30 9928 H 963.222 0.548794 0.373793 0
M  V30 9929 H 965.752 1.96177 0.581017 0
M  V30 9930 H 965.762 2.94906 2.81948 0
M  V30 9931 H 964.437 3.68335 1.93137 0
M  V30 9932 H 963.014 2.20251 3.00905 0
M  V30 9933 N 965.199 -0.738761 1.39212 0
M  V30 9934 C 966.424 -1.5331 1.39681 0
M  V30 9935 C 966.849 -1.88098 -0.00768715 0
M  V30 9936 O 966.207 -1.51642 -0.993699 0
M  V30 9937 C 966.255 -2.79958 2.27279 0
M  V30 9938 O 965.359 -3.75727 1.70008 0
M  V30 9939 H 964.7 -0.463131 0.475821 0
M  V30 9940 H 967.23 -0.911768 1.83161 0
M  V30 9941 H 967.24 -3.28732 2.41659 0
M  V30 9942 H 965.915 -2.5397 3.29351 0
M  V30 9943 H 964.492 -3.34483 1.64851 0
M  V30 9944 N 966.677 -1.24326 -0.968545 0
M  V30 9945 C 967.925 -1.08032 -1.70803 0
M  V30 9946 C 968.246 0.381728 -1.91227 0
M  V30 9947 O 967.516 1.27253 -1.48942 0
M  V30 9948 H 966.096 -0.396777 -0.632912 0
M  V30 9949 H 968.758 -1.56232 -1.16523 0
M  V30 9950 H 967.854 -1.57769 -2.69287 0
M  V30 9951 N 968.156 1.1691 -1.05688 0
M  V30 9952 C 969.384 1.91204 -0.790485 0
M  V30 9953 C 969.799 1.77095 0.654434 0
M  V30 9954 O 969.156 1.11146 1.44751 0
M  V30 9955 C 969.207 3.42108 -1.16808 0
M  V30 9956 O 968.928 3.55788 -2.55629 0
M  V30 9957 C 970.429 4.33466 -0.92855 0
M  V30 9958 H 967.649 0.606508 -0.287035 0
M  V30 9959 H 970.193 1.48225 -1.40888 0
M  V30 9960 H 968.348 3.82814 -0.59434 0
M  V30 9961 H 968.762 4.49321 -2.70575 0
M  V30 9962 H 970.236 5.37836 -1.24245 0
M  V30 9963 H 970.713 4.38989 0.136016 0
M  V30 9964 H 971.319 3.98481 -1.48638 0
M  V30 9965 N 969.634 0.838594 1.33437 0
M  V30 9966 C 971.05 0.526347 1.50671 0
M  V30 9967 C 971.25 -0.946387 1.77893 0
M  V30 9968 O 970.306 -1.7302 1.83903 0
M  V30 9969 C 971.619 1.39945 2.6615 0
M  V30 9970 C 973.167 1.3982 2.80035 0
M  V30 9971 C 973.642 2.25614 3.98576 0
M  V30 9972 N 975.133 2.23322 4.0581 0
M  V30 9973 C 975.868 2.86443 4.96727 0
M  V30 9974 N 975.364 3.58616 5.92762 0
M  V30 9975 N 977.157 2.75915 4.89722 0
M  V30 9976 H 969.308 1.79195 1.1403 0
M  V30 9977 H 971.571 0.764491 0.560586 0
M  V30 9978 H 971.277 2.44599 2.52714 0
M  V30 9979 H 971.151 1.07529 3.61548 0
M  V30 9980 H 973.538 0.35937 2.92904 0
M  V30 9981 H 973.619 1.76241 1.85399 0
M  V30 9982 H 973.263 3.29555 3.86466 0
M  V30 9983 H 973.193 1.86533 4.92456 0
M  V30 9984 H 975.684 1.70836 3.37081 0
M  V30 9985 H 975.997 4.03987 6.58798 0
M  V30 9986 H 974.342 3.62724 5.92838 0
M  V30 9987 H 977.533 2.19094 4.13661 0
M  V30 9988 H 977.706 3.25393 5.60378 0
M  V30 9989 N 971.112 -1.45937 0.595003 0
M  V30 9990 C 972.059 -2.30427 -0.131165 0
M  V30 9991 C 973.029 -1.41355 -0.872232 0
M  V30 9992 O 974.214 -1.70296 -0.860467 0
M  V30 9993 C 971.354 -3.26045 -1.13087 0
M  V30 9994 C 970.467 -4.30218 -0.391982 0
M  V30 9995 C 969.602 -5.12953 -1.3803 0
M  V30 9996 C 968.641 -6.08865 -0.628505 0
M  V30 9997 N 967.778 -6.84425 -1.56548 0
M  V30 9998 H 972.618 -2.91992 0.595359 0
M  V30 9999 H 970.155 -1.43895 0.305405 0
M  V30 10000 H 972.113 -3.79937 -1.72348 0
M  V30 10001 H 970.743 -2.66261 -1.82496 0
M  V30 10002 H 969.795 -3.79086 0.315895 0
M  V30 10003 H 971.107 -4.98418 0.195173 0
M  V30 10004 H 970.261 -5.71184 -2.04534 0
M  V30 10005 H 969 -4.44743 -2.00138 0
M  V30 10006 H 968.005 -5.49777 0.0502431 0
M  V30 10007 H 969.23 -6.79099 -0.012641 0
M  V30 10008 H 967.176 -6.18913 -2.17444 0
M  V30 10009 H 967.093 -7.48931 -1.03145 0
M  V30 10010 H 968.361 -7.47204 -2.22049 0
M  V30 10011 N 972.59 -0.333456 -1.54032 0
M  V30 10012 C 974.001 0.15256 -1.86076 0
M  V30 10013 C 974.352 1.50819 -1.25492 0
M  V30 10014 O 973.477 2.08903 -0.564665 0
M  V30 10015 C 974.072 0.283599 -3.37611 0
M  V30 10016 C 972.631 0.713841 -3.69569 0
M  V30 10017 C 971.778 -0.158515 -2.76847 0
M  V30 10018 H 974.729 -0.553404 -1.48738 0
M  V30 10019 H 974.75 1.11284 -3.63863 0
M  V30 10020 H 974.262 -0.703193 -3.81676 0
M  V30 10021 H 972.363 1.71002 -3.31042 0
M  V30 10022 H 972.476 0.510731 -4.7637 0
M  V30 10023 H 970.84 0.367531 -2.52034 0
M  V30 10024 H 971.623 -1.14226 -3.2374 0
M  V30 10025 N 974.068 1.57479 -0.061844 0
M  V30 10026 C 975 2.09116 0.938245 0
M  V30 10027 C 976.013 1.0212 1.26788 0
M  V30 10028 O 977.202 1.2966 1.22681 0
M  V30 10029 C 974.302 2.52822 2.25686 0
M  V30 10030 C 973.475 3.83277 2.10755 0
M  V30 10031 C 972.534 4.13182 3.25833 0
M  V30 10032 O 971.56 4.82937 3.01265 0
M  V30 10033 N 972.762 3.65938 4.50633 0
M  V30 10034 H 975.527 2.95543 0.497433 0
M  V30 10035 H 973.088 1.61423 0.124134 0
M  V30 10036 H 975.08 2.69896 3.01559 0
M  V30 10037 H 973.65 1.71586 2.61299 0
M  V30 10038 H 972.87 3.7568 1.19409 0
M  V30 10039 H 974.158 4.68686 1.98018 0
M  V30 10040 H 973.556 3.09566 4.73482 0
M  V30 10041 H 972.113 3.8823 5.23565 0
M  V30 10042 N 975.546 -0.211634 1.56173 0
M  V30 10043 C 976.957 -0.777776 1.69728 0
M  V30 10044 C 977.308 -1.84566 0.66558 0
M  V30 10045 O 976.433 -2.15639 -0.181338 0
M  V30 10046 C 977.028 -1.41757 3.07718 0
M  V30 10047 C 975.587 -1.93098 3.23094 0
M  V30 10048 C 974.734 -0.794785 2.65666 0
M  V30 10049 H 977.685 0.0131839 1.58695 0
M  V30 10050 H 977.706 -2.28662 3.04128 0
M  V30 10051 H 977.218 -0.640114 3.82785 0
M  V30 10052 H 975.319 -2.73615 2.52914 0
M  V30 10053 H 975.432 -2.10414 4.30422 0
M  V30 10054 H 973.796 -1.20473 2.24407 0
M  V30 10055 H 974.579 -0.0298408 3.43287 0
M  V30 10056 N 977.024 -1.50153 -0.478725 0
M  V30 10057 C 977.974 -1.64848 -1.57509 0
M  V30 10058 C 978.958 -0.503327 -1.52825 0
M  V30 10059 O 980.15 -0.75737 -1.59978 0
M  V30 10060 C 977.279 -1.73893 -2.96 0
M  V30 10061 C 976.365 -2.9406 -3.05597 0
M  V30 10062 N 976.756 -4.17844 -2.85027 0
M  V30 10063 C 975.054 -2.92459 -3.36725 0
M  V30 10064 C 975.755 -4.98739 -2.9939 0
M  V30 10065 N 974.731 -4.32542 -3.29255 0
M  V30 10066 H 978.533 -2.58254 -1.40293 0
M  V30 10067 H 976.047 -1.47232 -0.685307 0
M  V30 10068 H 978.044 -1.82523 -3.74821 0
M  V30 10069 H 976.704 -0.816402 -3.14269 0
M  V30 10070 H 977.715 -4.47465 -2.60759 0
M  V30 10071 H 974.392 -2.09675 -3.6103 0
M  V30 10072 H 975.782 -6.07146 -2.8779 0
M  V30 10073 N 978.502 0.731368 -1.39602 0
M  V30 10074 C 979.412 1.87579 -1.40894 0
M  V30 10075 C 980.428 1.71336 -0.303319 0
M  V30 10076 O 981.604 1.93875 -0.545377 0
M  V30 10077 C 978.669 3.23211 -1.25442 0
M  V30 10078 C 977.73 3.51822 -2.46008 0
M  V30 10079 C 976.963 4.80982 -2.31284 0
M  V30 10080 O 977.186 5.54958 -1.31824 0
M  V30 10081 O 976.12 5.09574 -3.20341 0
M  V30 10082 H 979.946 1.89444 -2.3737 0
M  V30 10083 H 977.531 0.879675 -1.20756 0
M  V30 10084 H 979.413 4.04257 -1.18972 0
M  V30 10085 H 978.088 3.22108 -0.320637 0
M  V30 10086 H 976.995 2.70847 -2.58055 0
M  V30 10087 H 978.328 3.57707 -3.38093 0
M  V30 10088 N 979.98 1.24838 0.961938 0
M  V30 10089 C 980.928 1.0436 2.07874 0
M  V30 10090 C 981.922 -0.0232531 1.69384 0
M  V30 10091 O 983.128 0.131773 1.79517 0
M  V30 10092 H 979.503 0.320492 0.680286 0
M  V30 10093 H 981.474 1.99055 2.22306 0
M  V30 10094 C 980.223 0.671246 3.41159 0
M  V30 10095 H 979.546 1.48395 3.7124 0
M  V30 10096 H 980.986 0.567608 4.20184 0
M  V30 10097 C 979.445 -0.622124 3.31106 0
M  V30 10098 O 979.975 -1.66627 3.65511 0
M  V30 10099 N 978.181 -0.605009 2.84232 0
M  V30 10100 H 977.728 0.245052 2.56432 0
M  V30 10101 H 977.686 -1.47056 2.77888 0
M  V30 10102 N 981.458 -1.16348 1.06306 0
M  V30 10103 C 982.683 -1.91323 0.800636 0
M  V30 10104 C 983.108 -1.7691 -0.639105 0
M  V30 10105 O 982.466 -1.0945 -1.44535 0
M  V30 10106 C 982.514 -3.40038 1.20027 0
M  V30 10107 O 981.618 -4.11003 0.339142 0
M  V30 10108 H 980.959 -0.596057 0.292595 0
M  V30 10109 H 983.489 -1.47406 1.41889 0
M  V30 10110 H 983.499 -3.90808 1.17188 0
M  V30 10111 H 982.174 -3.49848 2.24898 0
M  V30 10112 H 980.751 -3.70423 0.42911 0
M  V30 10113 N 982.937 -0.845659 -1.3299 0
M  V30 10114 C 984.353 -0.53433 -1.5039 0
M  V30 10115 C 984.553 0.936939 -1.78392 0
M  V30 10116 O 983.609 1.72043 -1.84818 0
M  V30 10117 C 984.922 -1.41354 -2.65404 0
M  V30 10118 C 986.47 -1.41303 -2.79289 0
M  V30 10119 C 986.945 -2.27724 -3.97373 0
M  V30 10120 N 988.436 -2.25471 -4.0462 0
M  V30 10121 C 989.171 -2.89074 -4.95201 0
M  V30 10122 N 988.667 -3.61755 -5.90851 0
M  V30 10123 N 990.46 -2.78508 -4.88251 0
M  V30 10124 H 982.611 -1.79798 -1.13078 0
M  V30 10125 H 984.874 -0.767454 -0.556524 0
M  V30 10126 H 984.58 -2.45936 -2.51413 0
M  V30 10127 H 984.454 -1.09445 -3.60973 0
M  V30 10128 H 986.841 -0.374899 -2.92709 0
M  V30 10129 H 986.922 -1.77222 -1.84461 0
M  V30 10130 H 986.566 -3.316 -3.84713 0
M  V30 10131 H 986.496 -1.89142 -4.9146 0
M  V30 10132 H 988.987 -1.72622 -3.3617 0
M  V30 10133 H 989.3 -4.07475 -6.56646 0
M  V30 10134 H 987.645 -3.65863 -5.90906 0
M  V30 10135 H 990.836 -2.21285 -4.12493 0
M  V30 10136 H 991.009 -3.2836 -5.58645 0
M  V30 10137 N 984.415 1.45619 -0.602734 0
M  V30 10138 C 985.826 1.85814 -0.181636 0
M  V30 10139 C 986.177 1.5037 1.26029 0
M  V30 10140 O 985.302 0.928068 1.95489 0
M  V30 10141 C 985.897 3.37258 -0.322866 0
M  V30 10142 C 984.456 3.76375 0.043504 0
M  V30 10143 C 983.603 2.69585 -0.649561 0
M  V30 10144 H 986.554 1.36489 -0.809721 0
M  V30 10145 H 986.575 3.77874 0.446279 0
M  V30 10146 H 986.087 3.63024 -1.37241 0
M  V30 10147 H 984.188 3.56226 1.09241 0
M  V30 10148 H 984.301 4.77843 -0.346765 0
M  V30 10149 H 982.665 2.54549 -0.087706 0
M  V30 10150 H 983.448 2.98188 -1.70115 0
M  V30 10151 N 985.893 0.34162 1.53853 0
M  V30 10152 C 986.823 -0.508431 2.27897 0
M  V30 10153 C 987.804 -1.10425 1.29384 0
M  V30 10154 O 988.989 -1.126 1.58224 0
M  V30 10155 C 986.119 -1.66048 3.05034 0
M  V30 10156 C 985.073 -1.19309 4.11035 0
M  V30 10157 C 984.399 -2.4335 4.76114 0
M  V30 10158 C 985.699 -0.294952 5.21467 0
M  V30 10159 H 987.393 0.109251 2.99201 0
M  V30 10160 H 984.939 0.0539847 1.43899 0
M  V30 10161 H 986.892 -2.26158 3.5557 0
M  V30 10162 H 985.616 -2.30503 2.31379 0
M  V30 10163 H 984.275 -0.614809 3.61408 0
M  V30 10164 H 983.923 -3.06208 3.99056 0
M  V30 10165 H 983.623 -2.1276 5.47729 0
M  V30 10166 H 985.147 -3.0419 5.29434 0
M  V30 10167 H 986.561 -0.80285 5.67651 0
M  V30 10168 H 984.958 -0.0810221 6.00045 0
M  V30 10169 H 986.028 0.669433 4.80257 0
M  V30 10170 N 987.371 -1.57444 0.0701946 0
M  V30 10171 C 988.596 -1.98171 -0.61181 0
M  V30 10172 C 989.021 -0.94823 -1.62451 0
M  V30 10173 O 988.379 0.0863553 -1.81094 0
M  V30 10174 C 988.427 -3.37934 -1.2583 0
M  V30 10175 O 987.531 -3.37207 -2.37414 0
M  V30 10176 H 986.872 -0.645056 -0.157477 0
M  V30 10177 H 989.402 -2.04091 0.144235 0
M  V30 10178 H 989.412 -3.75083 -1.60552 0
M  V30 10179 H 988.087 -4.12684 -0.516234 0
M  V30 10180 H 986.664 -3.11826 -2.04497 0
M  V30 10181 N 988.849 0.203349 -1.56283 0
M  V30 10182 C 989.779 1.2549 -1.96912 0
M  V30 10183 C 990.76 1.47919 -0.839884 0
M  V30 10184 O 991.945 1.59795 -1.10359 0
M  V30 10185 C 989.075 2.6009 -2.30153 0
M  V30 10186 C 988.029 2.52289 -3.45738 0
M  V30 10187 C 987.355 3.91086 -3.64632 0
M  V30 10188 C 988.655 2.05503 -4.80173 0
M  V30 10189 H 990.349 0.917306 -2.85002 0
M  V30 10190 H 987.895 0.439818 -1.37119 0
M  V30 10191 H 989.848 3.33829 -2.5717 0
M  V30 10192 H 988.572 2.95574 -1.38937 0
M  V30 10193 H 987.231 1.81006 -3.18798 0
M  V30 10194 H 986.879 4.23908 -2.7076 0
M  V30 10195 H 986.579 3.86742 -4.42385 0
M  V30 10196 H 988.103 4.66459 -3.94016 0
M  V30 10197 H 989.517 2.68995 -5.06275 0
M  V30 10198 H 987.914 2.1218 -5.61337 0
M  V30 10199 H 988.984 1.00793 -4.74309 0
M  V30 10200 N 990.327 1.50405 0.470755 0
M  V30 10201 C 991.237 1.7208 1.59454 0
M  V30 10202 C 992.253 0.603932 1.63183 0
M  V30 10203 O 993.429 0.882296 1.81046 0
M  V30 10204 C 990.494 1.81057 2.95667 0
M  V30 10205 C 989.555 3.04792 3.02324 0
M  V30 10206 C 988.788 3.13332 4.3204 0
M  V30 10207 O 989.011 2.28655 5.22564 0
M  V30 10208 O 987.945 4.0606 4.44296 0
M  V30 10209 H 991.771 2.67343 1.44089 0
M  V30 10210 H 989.356 1.34505 0.650286 0
M  V30 10211 H 991.238 1.8914 3.76569 0
M  V30 10212 H 989.913 0.889782 3.11231 0
M  V30 10213 H 988.82 3.0221 2.205 0
M  V30 10214 H 990.153 3.96451 2.91698 0
M  V30 10215 N 991.805 -0.723954 1.39988 0
M  V30 10216 C 992.755 -1.82943 1.36073 0
M  V30 10217 C 993.739 -1.59105 0.239682 0
M  V30 10218 O 994.931 -1.7042 0.478116 0
M  V30 10219 C 992.06 -3.20988 1.21745 0
M  V30 10220 C 991.146 -3.50618 2.38596 0
M  V30 10221 N 991.537 -3.51115 3.64077 0
M  V30 10222 C 989.835 -3.81035 2.31794 0
M  V30 10223 C 990.536 -3.78852 4.41413 0
M  V30 10224 N 989.512 -3.97182 3.71143 0
M  V30 10225 H 993.314 -1.81649 2.31043 0
M  V30 10226 H 990.828 -0.922703 1.33641 0
M  V30 10227 H 992.825 -4.00139 1.17022 0
M  V30 10228 H 991.485 -3.23513 0.277344 0
M  V30 10229 H 992.496 -3.32163 3.97351 0
M  V30 10230 H 989.173 -3.911 1.46105 0
M  V30 10231 H 990.563 -3.85612 5.5023 0
M  V30 10232 N 993.283 -1.25346 -0.955304 0
M  V30 10233 C 994.694 -1.09173 -1.51453 0
M  V30 10234 C 995.045 0.332755 -1.93358 0
M  V30 10235 O 994.17 1.22264 -1.78551 0
M  V30 10236 C 994.765 -1.97564 -2.75234 0
M  V30 10237 C 993.324 -1.85579 -3.27471 0
M  V30 10238 C 992.471 -1.91755 -2.00313 0
M  V30 10239 H 995.422 -1.38642 -0.772271 0
M  V30 10240 H 995.443 -1.51523 -3.49029 0
M  V30 10241 H 994.955 -3.01233 -2.44704 0
M  V30 10242 H 993.056 -0.847906 -3.62824 0
M  V30 10243 H 993.169 -2.70353 -3.95533 0
M  V30 10244 H 991.533 -1.35633 -2.15582 0
M  V30 10245 H 992.316 -2.97028 -1.72132 0
M  V30 10246 N 994.761 1.15782 -1.06922 0
M  V30 10247 C 996.007 1.86975 -0.800747 0
M  V30 10248 C 996.362 1.80512 0.665818 0
M  V30 10249 O 995.655 1.21432 1.48205 0
M  V30 10250 C 995.849 3.35284 -1.2377 0
M  V30 10251 C 995.678 3.56186 -2.74521 0
M  V30 10252 C 994.448 3.71908 -3.42071 0
M  V30 10253 C 996.646 3.54373 -3.72725 0
M  V30 10254 N 994.628 3.80821 -4.81507 0
M  V30 10255 C 995.999 3.69347 -4.97978 0
M  V30 10256 C 998.054 3.37622 -3.65945 0
M  V30 10257 C 996.757 3.69302 -6.17259 0
M  V30 10258 C 998.783 3.38873 -4.84684 0
M  V30 10259 C 998.145 3.54373 -6.08769 0
M  V30 10260 H 994.244 0.701533 -0.345507 0
M  V30 10261 H 996.828 1.38875 -1.36462 0
M  V30 10262 H 994.999 3.82011 -0.701588 0
M  V30 10263 H 996.731 3.94169 -0.917235 0
M  V30 10264 H 993.486 3.72499 -2.92475 0
M  V30 10265 H 993.91 3.89031 -5.54061 0
M  V30 10266 H 998.552 3.24562 -2.7096 0
M  V30 10267 H 996.27 3.81142 -7.1257 0
M  V30 10268 H 999.856 3.27146 -4.8111 0
M  V30 10269 H 998.736 3.55268 -6.9911 0
M  V30 10270 N 996.239 0.8527 1.3254 0
M  V30 10271 C 997.202 0.300959 2.27215 0
M  V30 10272 C 998.202 -0.538235 1.51525 0
M  V30 10273 O 999.392 -0.350027 1.70647 0
M  V30 10274 C 996.524 -0.574428 3.36025 0
M  V30 10275 H 997.717 1.13655 2.77529 0
M  V30 10276 H 995.27 0.626878 1.43178 0
M  V30 10277 H 996.005 -1.43191 2.90976 0
M  V30 10278 H 995.79 0.0262265 3.92091 0
M  V30 10279 H 997.28 -0.9533 4.06573 0
M  V30 10280 N 997.718 -1.45297 0.610449 0
M  V30 10281 C 998.966 -2.01819 0.106548 0
M  V30 10282 C 999.287 -1.48102 -1.26849 0
M  V30 10283 O 998.557 -0.676411 -1.83852 0
M  V30 10284 H 997.137 -0.746113 0.0363982 0
M  V30 10285 H 999.799 -1.78061 0.792491 0
M  V30 10286 H 998.895 -3.12045 0.0585 0
M  V30 10287 N 999.196 -0.349774 -1.5367 0
M  V30 10288 C 1000.61 0.132815 -1.86227 0
M  V30 10289 C 1000.96 1.49479 -1.27084 0
M  V30 10290 O 1000.08 2.08292 -0.58679 0
M  V30 10291 C 1000.68 0.247775 -3.37893 0
M  V30 10292 C 999.237 0.674603 -3.70305 0
M  V30 10293 C 998.384 -0.187869 -2.76663 0
M  V30 10294 H 1001.33 -0.569148 -1.48143 0
M  V30 10295 H 1001.36 1.07418 -3.65023 0
M  V30 10296 H 1000.87 -0.743635 -3.80909 0
M  V30 10297 H 998.969 1.67481 -3.32837 0
M  V30 10298 H 999.082 0.460177 -4.76885 0
M  V30 10299 H 997.446 0.340779 -2.5241 0
M  V30 10300 H 998.229 -1.17653 -3.2251 0
M  V30 10301 N 1000.67 1.57404 -0.0785433 0
M  V30 10302 C 1001.61 2.101 0.916013 0
M  V30 10303 C 1002.62 1.03459 1.25698 0
M  V30 10304 O 1003.81 1.30954 1.21299 0
M  V30 10305 C 1000.91 2.55202 2.22992 0
M  V30 10306 C 1000.08 3.85491 2.06678 0
M  V30 10307 C 999.14 4.16614 3.21433 0
M  V30 10308 O 998.166 4.86105 2.96126 0
M  V30 10309 N 999.368 3.70697 4.46726 0
M  V30 10310 H 1002.13 2.96054 0.466059 0
M  V30 10311 H 999.694 1.61546 0.107006 0
M  V30 10312 H 1001.69 2.7308 2.9868 0
M  V30 10313 H 1000.26 1.74348 2.59464 0
M  V30 10314 H 999.476 3.76925 1.15417 0
M  V30 10315 H 1000.76 4.70759 1.93036 0
M  V30 10316 H 1000.16 3.14571 4.70172 0
M  V30 10317 H 998.719 3.93762 5.19418 0
M  V30 10318 N 1002.15 -0.195058 1.56388 0
M  V30 10319 C 1003.08 -1.24444 1.97575 0
M  V30 10320 C 1004.06 -1.47471 0.847717 0
M  V30 10321 O 1005.25 -1.59208 1.11205 0
M  V30 10322 C 1002.38 -2.58866 2.31529 0
M  V30 10323 C 1001.33 -2.50451 3.47071 0
M  V30 10324 C 1000.66 -3.89146 3.667 0
M  V30 10325 C 1001.96 -2.02953 4.81256 0
M  V30 10326 H 1003.65 -0.902178 2.85484 0
M  V30 10327 H 1001.2 -0.43254 1.3735 0
M  V30 10328 H 1003.15 -3.3246 2.58936 0
M  V30 10329 H 1001.87 -2.94833 1.40502 0
M  V30 10330 H 1000.53 -1.79313 3.19754 0
M  V30 10331 H 1000.18 -4.22466 2.73004 0
M  V30 10332 H 999.882 -3.84391 4.44429 0
M  V30 10333 H 1001.41 -4.64363 3.96484 0
M  V30 10334 H 1002.82 -2.66306 5.07695 0
M  V30 10335 H 1001.22 -2.092 5.62455 0
M  V30 10336 H 1002.29 -0.982757 4.74837 0
M  V30 10337 N 1003.63 -1.50653 -0.462772 0
M  V30 10338 C 1005.05 -1.38263 -0.797213 0
M  V30 10339 C 1005.25 -0.445172 -1.96521 0
M  V30 10340 O 1004.3 0.10913 -2.52264 0
M  V30 10341 C 1005.61 -2.798 -1.10146 0
M  V30 10342 C 1007.16 -2.88774 -1.20742 0
M  V30 10343 C 1007.64 -4.31163 -1.54476 0
M  V30 10344 N 1009.13 -4.34152 -1.61451 0
M  V30 10345 C 1009.86 -5.4133 -1.89074 0
M  V30 10346 N 1009.36 -6.58705 -2.1466 0
M  V30 10347 N 1011.15 -5.28783 -1.90645 0
M  V30 10348 H 1003.3 -2.10172 0.30684 0
M  V30 10349 H 1005.57 -0.945046 0.0747862 0
M  V30 10350 H 1005.27 -3.50276 -0.316207 0
M  V30 10351 H 1005.15 -3.17559 -2.03559 0
M  V30 10352 H 1007.53 -2.18512 -1.98334 0
M  V30 10353 H 1007.61 -2.54547 -0.252904 0
M  V30 10354 H 1007.26 -5.01965 -0.774207 0
M  V30 10355 H 1007.19 -4.62883 -2.51092 0
M  V30 10356 H 1009.68 -3.49519 -1.43684 0
M  V30 10357 H 1009.99 -7.36192 -2.35035 0
M  V30 10358 H 1008.34 -6.61866 -2.12035 0
M  V30 10359 H 1011.53 -4.36078 -1.70158 0
M  V30 10360 H 1011.7 -6.12396 -2.11836 0
M  V30 10361 N 1005.11 0.71652 -1.4037 0
M  V30 10362 C 1006.34 1.50563 -1.4191 0
M  V30 10363 C 1006.75 1.88791 -0.0185456 0
M  V30 10364 O 1006.11 1.55378 0.957289 0
M  V30 10365 C 1006.16 2.78155 -2.30894 0
M  V30 10366 O 1005.88 2.41543 -3.65497 0
M  V30 10367 C 1007.38 3.72057 -2.41016 0
M  V30 10368 H 1004.6 0.464679 -0.48406 0
M  V30 10369 H 1007.15 0.883927 -1.8441 0
M  V30 10370 H 1005.3 3.36611 -1.91759 0
M  V30 10371 H 1005.71 3.23636 -4.12747 0
M  V30 10372 H 1007.19 4.58426 -3.07489 0
M  V30 10373 H 1007.67 4.15098 -1.43492 0
M  V30 10374 H 1008.27 3.19512 -2.80699 0
M  V30 10375 N 1006.59 1.25851 0.948643 0
M  V30 10376 C 1007.81 1.13813 1.73382 0
M  V30 10377 C 1008.24 -0.303615 1.85633 0
M  V30 10378 O 1007.59 -1.21997 1.34114 0
M  V30 10379 C 1007.64 1.80388 3.12238 0
M  V30 10380 O 1006.75 1.08759 3.978 0
M  V30 10381 H 1006.09 0.397006 0.532243 0
M  V30 10382 H 1008.62 1.66529 1.18866 0
M  V30 10383 H 1008.63 1.86913 3.62667 0
M  V30 10384 H 1007.3 2.85278 3.02637 0
M  V30 10385 H 1005.88 1.10157 3.56258 0
M  V30 10386 N 1008.06 -1.15214 1.07534 0
M  V30 10387 C 1009.31 -1.86319 0.800814 0
M  V30 10388 C 1009.64 -1.82221 -0.671494 0
M  V30 10389 O 1008.92 -1.24664 -1.49295 0
M  V30 10390 C 1009.2 -3.35347 1.31203 0
M  V30 10391 C 1009.05 -3.48067 2.84902 0
M  V30 10392 C 1010.37 -4.3016 0.930064 0
M  V30 10393 H 1007.49 -0.676523 0.292379 0
M  V30 10394 H 1010.13 -1.35349 1.33344 0
M  V30 10395 H 1008.28 -3.78886 0.858949 0
M  V30 10396 H 1009.96 -3.13379 3.38514 0
M  V30 10397 H 1008.2 -2.89566 3.23008 0
M  V30 10398 H 1008.87 -4.52782 3.15741 0
M  V30 10399 H 1011.35 -3.94591 1.3205 0
M  V30 10400 H 1010.22 -5.32914 1.31507 0
M  V30 10401 H 1010.48 -4.41796 -0.163824 0
M  V30 10402 N 1009.54 -0.859717 -1.32086 0
M  V30 10403 C 1010.47 -0.265258 -2.2766 0
M  V30 10404 C 1011.49 0.565889 -1.52648 0
M  V30 10405 O 1012.68 0.389554 -1.74197 0
M  V30 10406 C 1009.78 0.643397 -3.32737 0
M  V30 10407 C 1008.95 -0.153024 -4.37132 0
M  V30 10408 C 1008.01 0.682176 -5.21759 0
M  V30 10409 O 1007.03 0.113878 -5.69086 0
M  V30 10410 N 1008.24 1.99602 -5.45105 0
M  V30 10411 H 1011 -1.08653 -2.79311 0
M  V30 10412 H 1008.56 -0.720191 -1.45 0
M  V30 10413 H 1010.55 1.20759 -3.86263 0
M  V30 10414 H 1009.12 1.36535 -2.81206 0
M  V30 10415 H 1008.34 -0.898657 -3.8382 0
M  V30 10416 H 1009.63 -0.699877 -5.03963 0
M  V30 10417 H 1009.03 2.481 -5.08393 0
M  V30 10418 H 1007.59 2.50823 -6.01607 0
M  V30 10419 N 1011.02 1.44971 -0.618145 0
M  V30 10420 C 1012.43 1.85611 -0.201334 0
M  V30 10421 C 1012.78 1.51698 1.24427 0
M  V30 10422 O 1011.91 0.94875 1.94493 0
M  V30 10423 C 1012.5 3.36897 -0.358619 0
M  V30 10424 C 1011.06 3.764 0.00358196 0
M  V30 10425 C 1010.21 2.68881 -0.678118 0
M  V30 10426 H 1013.16 1.35622 -0.824152 0
M  V30 10427 H 1013.18 3.78326 0.406176 0
M  V30 10428 H 1012.69 3.61548 -1.41084 0
M  V30 10429 H 1010.79 3.57365 1.05457 0
M  V30 10430 H 1010.91 4.77449 -0.397427 0
M  V30 10431 H 1009.27 2.54442 -0.114699 0
M  V30 10432 H 1010.05 2.96367 -1.73268 0
M  V30 10433 N 1012.5 0.357919 1.53482 0
M  V30 10434 C 1013.72 -0.237769 2.06033 0
M  V30 10435 C 1014.15 -1.42292 1.23023 0
M  V30 10436 O 1013.51 -1.79604 0.247427 0
M  V30 10437 C 1013.55 -0.616806 3.55286 0
M  V30 10438 O 1012.66 -1.71503 3.75047 0
M  V30 10439 H 1012 -0.0364322 0.663 0
M  V30 10440 H 1014.53 0.516301 1.97979 0
M  V30 10441 H 1014.54 -0.88996 3.98175 0
M  V30 10442 H 1013.21 0.249825 4.15149 0
M  V30 10443 H 1011.79 -1.43803 3.44057 0
M  V30 10444 N 1013.98 -1.5736 0.0868897 0
M  V30 10445 C 1014.93 -2.10105 -0.885435 0
M  V30 10446 C 1015.91 -1.01417 -1.24913 0
M  V30 10447 O 1017.1 -1.27704 -1.22558 0
M  V30 10448 C 1014.23 -2.67837 -2.14752 0
M  V30 10449 C 1013.32 -3.83553 -1.80963 0
M  V30 10450 N 1013.71 -4.91917 -1.17693 0
M  V30 10451 C 1012.01 -3.93134 -2.10622 0
M  V30 10452 C 1012.71 -5.72628 -1.02332 0
M  V30 10453 N 1011.68 -5.2139 -1.53796 0
M  V30 10454 H 1015.49 -2.91272 -0.392179 0
M  V30 10455 H 1013 -1.61981 -0.116566 0
M  V30 10456 H 1015 -3.03948 -2.85344 0
M  V30 10457 H 1013.66 -1.88122 -2.64651 0
M  V30 10458 H 1014.67 -5.10964 -0.844731 0
M  V30 10459 H 1011.34 -3.24416 -2.62793 0
M  V30 10460 H 1012.73 -6.69813 -0.529171 0
M  V30 10461 N 1015.45 0.186762 -1.56489 0
M  V30 10462 C 1016.38 1.23395 -1.98232 0
M  V30 10463 C 1017.37 1.4702 -0.855526 0
M  V30 10464 O 1018.55 1.58616 -1.12048 0
M  V30 10465 C 1015.68 2.57635 -2.32898 0
M  V30 10466 C 1014.63 2.48607 -3.48394 0
M  V30 10467 C 1013.96 3.87196 -3.68759 0
M  V30 10468 C 1015.26 2.00398 -4.82325 0
M  V30 10469 H 1016.95 0.887026 -2.85958 0
M  V30 10470 H 1014.5 0.42525 -1.37578 0
M  V30 10471 H 1016.45 3.31082 -2.60696 0
M  V30 10472 H 1015.18 2.94084 -1.42064 0
M  V30 10473 H 1013.84 1.77615 -3.207 0
M  V30 10474 H 1013.48 4.21012 -2.75241 0
M  V30 10475 H 1013.18 3.82029 -4.46462 0
M  V30 10476 H 1014.71 4.62253 -3.98941 0
M  V30 10477 H 1016.12 2.6361 -5.091 0
M  V30 10478 H 1014.52 2.06214 -5.63556 0
M  V30 10479 H 1015.59 0.957562 -4.75351 0
M  V30 10480 N 1016.93 1.50896 0.454776 0
M  V30 10481 C 1018.18 1.62699 1.20562 0
M  V30 10482 C 1018.51 0.334943 1.91594 0
M  V30 10483 O 1017.76 -0.680106 1.83502 0
M  V30 10484 C 1018.06 2.76839 2.26042 0
M  V30 10485 C 1017.73 4.16745 1.72147 0
M  V30 10486 C 1016.39 4.54809 1.5717 0
M  V30 10487 C 1018.74 5.04118 1.32341 0
M  V30 10488 C 1016.07 5.7797 1.00835 0
M  V30 10489 C 1018.42 6.27842 0.774419 0
M  V30 10490 C 1017.09 6.64694 0.611415 0
M  V30 10491 H 1016.36 0.595358 0.441169 0
M  V30 10492 H 1019 1.84879 0.499202 0
M  V30 10493 H 1017.31 2.48812 3.02655 0
M  V30 10494 H 1019 2.83173 2.83926 0
M  V30 10495 H 1015.59 3.86725 1.84775 0
M  V30 10496 H 1019.78 4.75331 1.42739 0
M  V30 10497 H 1015.03 6.05183 0.869669 0
M  V30 10498 H 1019.21 6.94896 0.457389 0
M  V30 10499 H 1016.84 7.60004 0.172751 0
M  V30 10500 N 1018.41 -0.709066 1.40748 0
M  V30 10501 C 1019.66 -1.4646 1.38681 0
M  V30 10502 C 1019.97 -1.95599 -0.0056209 0
M  V30 10503 O 1021.18 -2.71091 -0.148907 0
M  V30 10504 C 1019.63 -2.64771 2.43771 0
M  V30 10505 C 1019.24 -2.22474 3.88856 0
M  V30 10506 C 1020.99 -3.42475 2.50821 0
M  V30 10507 C 1018.89 -3.37663 4.85528 0
M  V30 10508 H 1017.82 -0.550084 0.515678 0
M  V30 10509 H 1020.47 -0.771074 1.66513 0
M  V30 10510 H 1018.86 -3.36325 2.09048 0
M  V30 10511 H 1020.03 -1.58297 4.32757 0
M  V30 10512 H 1018.35 -1.57798 3.85342 0
M  V30 10513 H 1020.94 -4.28201 3.20232 0
M  V30 10514 H 1021.29 -3.86738 1.54076 0
M  V30 10515 H 1021.82 -2.77969 2.84567 0
M  V30 10516 H 1018.56 -2.98426 5.83628 0
M  V30 10517 H 1018.08 -4.00734 4.46287 0
M  V30 10518 H 1019.76 -4.03636 5.05655 0
M  V30 10519 N 1019.89 -1.26353 -0.941956 0
M  V30 10520 C 1020.82 -1.03634 -2.04432 0
M  V30 10521 C 1021.83 0.00295864 -1.628 0
M  V30 10522 O 1023.02 -0.237029 -1.76919 0
M  V30 10523 C 1020.12 -0.547231 -3.34453 0
M  V30 10524 C 1019.3 -1.65559 -4.04857 0
M  V30 10525 C 1018.36 -1.16466 -5.13149 0
M  V30 10526 O 1017.38 -1.86158 -5.37898 0
M  V30 10527 N 1018.58 -0.0126703 -5.80499 0
M  V30 10528 H 1021.35 -1.98558 -2.24488 0
M  V30 10529 H 1018.91 -1.17728 -1.11138 0
M  V30 10530 H 1020.9 -0.203004 -4.04191 0
M  V30 10531 H 1019.47 0.308401 -3.11075 0
M  V30 10532 H 1018.69 -2.17079 -3.29044 0
M  V30 10533 H 1019.98 -2.39985 -4.48647 0
M  V30 10534 H 1019.38 0.569358 -5.62828 0
M  V30 10535 H 1017.93 0.272486 -6.5123 0
M  V30 10536 N 1021.37 1.14642 -1.08144 0
M  V30 10537 C 1022.64 1.81774 -0.72232 0
M  V30 10538 C 1023.02 1.95587 0.794294 0
M  V30 10539 O 1022.37 1.51361 1.71178 0
M  V30 10540 C 1022.58 3.1763 -1.44611 0
M  V30 10541 C 1023.93 3.93161 -1.60343 0
M  V30 10542 O 1024.95 3.2721 -1.40755 0
M  V30 10543 O 1023.81 5.11422 -1.9264 0
M  V30 10544 H 1020.91 0.785733 -0.257978 0
M  V30 10545 H 1023.45 1.21683 -1.18285 0
M  V30 10546 H 1022.23 3.02723 -2.4794 0
M  V30 10547 H 1021.85 3.85412 -0.976892 0
M  V30 10548 N 1022.85 0.866709 1.31628 0
M  V30 10549 C 1024.26 0.529032 1.79048 0
M  V30 10550 C 1024.61 -0.953871 1.71452 0
M  V30 10551 O 1023.73 -1.74462 1.28031 0
M  V30 10552 C 1024.33 0.953522 3.25105 0
M  V30 10553 C 1022.89 0.667554 3.70433 0
M  V30 10554 C 1022.03 1.14664 2.52483 0
M  V30 10555 H 1024.98 1.05275 1.18756 0
M  V30 10556 H 1025.01 0.274844 3.79506 0
M  V30 10557 H 1024.52 2.03283 3.30602 0
M  V30 10558 H 1022.62 -0.400532 3.70441 0
M  V30 10559 H 1022.73 1.2423 4.62714 0
M  V30 10560 H 1021.1 0.566502 2.4832 0
M  V30 10561 H 1021.88 2.2333 2.60727 0
M  V30 10562 N 1024.32 -1.44642 0.625825 0
M  V30 10563 C 1025.55 -2.06458 0.135116 0
M  V30 10564 C 1025.97 -1.46729 -1.18811 0
M  V30 10565 O 1025.32 -0.58818 -1.72762 0
M  V30 10566 C 1025.37 -3.61499 0.00850114 0
M  V30 10567 O 1025.1 -4.19002 1.2794 0
M  V30 10568 C 1026.6 -4.40339 -0.511527 0
M  V30 10569 H 1023.82 -0.666541 0.0772294 0
M  V30 10570 H 1026.36 -1.85597 0.858726 0
M  V30 10571 H 1024.52 -3.81641 -0.665522 0
M  V30 10572 H 1024.93 -5.12385 1.12081 0
M  V30 10573 H 1026.4 -5.49262 -0.549149 0
M  V30 10574 H 1026.88 -4.11409 -1.53752 0
M  V30 10575 H 1027.49 -4.25104 0.129066 0
M  V30 10576 N 1025.8 -0.366053 -1.5329 0
M  V30 10577 C 1026.73 0.523781 -2.22108 0
M  V30 10578 C 1027.71 1.08262 -1.21318 0
M  V30 10579 O 1028.9 1.13866 -1.50222 0
M  V30 10580 C 1026.02 1.72273 -2.91616 0
M  V30 10581 C 1025.07 1.29129 -4.06482 0
M  V30 10582 S 1025.9 0.292195 -5.34702 0
M  V30 10583 C 1027.06 1.49746 -6.07723 0
M  V30 10584 H 1027.29 -0.0606687 -2.97238 0
M  V30 10585 H 1024.82 -0.15016 -1.53668 0
M  V30 10586 H 1026.78 2.41045 -3.32277 0
M  V30 10587 H 1025.44 2.27843 -2.16209 0
M  V30 10588 H 1024.64 2.18583 -4.54134 0
M  V30 10589 H 1024.24 0.682783 -3.67715 0
M  V30 10590 H 1026.53 2.4284 -6.32483 0
M  V30 10591 H 1027.47 1.06232 -7.00086 0
M  V30 10592 H 1027.88 1.70373 -5.38176 0
M  V30 10593 N 1027.28 1.57312 -0.0952337 0
M  V30 10594 C 1028.69 1.81589 0.433875 0
M  V30 10595 C 1029.04 1.01086 1.68155 0
M  V30 10596 O 1028.17 0.240272 2.15062 0
M  V30 10597 C 1028.76 3.29366 0.793931 0
M  V30 10598 C 1027.32 3.54407 1.26778 0
M  V30 10599 C 1026.47 2.76035 0.264518 0
M  V30 10600 H 1029.42 1.55426 -0.320675 0
M  V30 10601 H 1029.44 3.42697 1.65345 0
M  V30 10602 H 1028.95 3.87932 -0.114334 0
M  V30 10603 H 1027.05 3.01173 2.19376 0
M  V30 10604 H 1027.17 4.63055 1.22952 0
M  V30 10605 H 1025.53 2.43509 0.746691 0
M  V30 10606 H 1026.31 3.37349 -0.636429 0
M  V30 10607 N 1028.76 -0.17846 1.56586 0
M  V30 10608 C 1030.17 -0.741599 1.71339 0
M  V30 10609 C 1030.52 -1.83112 0.704579 0
M  V30 10610 O 1029.64 -2.15975 -0.135557 0
M  V30 10611 C 1030.24 -1.35198 3.10656 0
M  V30 10612 C 1028.8 -1.86202 3.27118 0
M  V30 10613 C 1027.95 -0.738255 2.67292 0
M  V30 10614 H 1030.9 0.0468424 1.58631 0
M  V30 10615 H 1030.92 -2.2216 3.0891 0
M  V30 10616 H 1030.43 -0.558776 3.84056 0
M  V30 10617 H 1028.53 -2.68188 2.58661 0
M  V30 10618 H 1028.64 -2.01237 4.34788 0
M  V30 10619 H 1027.01 -1.15686 2.26912 0
M  V30 10620 H 1027.79 0.0429821 3.43273 0
M  V30 10621 N 1030.24 -1.51135 -0.446768 0
M  V30 10622 C 1031.19 -1.68152 -1.53977 0
M  V30 10623 C 1032.17 -0.53563 -1.51723 0
M  V30 10624 O 1033.36 -0.791134 -1.58335 0
M  V30 10625 C 1030.49 -1.80133 -2.92245 0
M  V30 10626 C 1029.58 -3.00476 -2.99291 0
M  V30 10627 N 1029.97 -4.23796 -2.76099 0
M  V30 10628 C 1028.27 -2.99536 -3.30445 0
M  V30 10629 C 1028.97 -5.04977 -2.88744 0
M  V30 10630 N 1027.94 -4.39428 -3.20006 0
M  V30 10631 H 1031.74 -2.61172 -1.34784 0
M  V30 10632 H 1029.26 -1.48653 -0.653923 0
M  V30 10633 H 1031.26 -1.90432 -3.70866 0
M  V30 10634 H 1029.92 -0.882879 -3.12467 0
M  V30 10635 H 1030.93 -4.52896 -2.51209 0
M  V30 10636 H 1027.6 -2.17286 -3.56501 0
M  V30 10637 H 1028.99 -6.13114 -2.74847 0
M  V30 10638 N 1031.71 0.701592 -1.41122 0
M  V30 10639 C 1033.12 1.28129 -1.35793 0
M  V30 10640 C 1033.48 1.96163 -0.0381185 0
M  V30 10641 O 1032.6 1.98416 0.863723 0
M  V30 10642 C 1033.2 2.33005 -2.45955 0
M  V30 10643 C 1031.75 2.86566 -2.44043 0
M  V30 10644 C 1030.9 1.60526 -2.26112 0
M  V30 10645 H 1033.85 0.496756 -1.50725 0
M  V30 10646 H 1033.87 3.14163 -2.14667 0
M  V30 10647 H 1033.39 1.8346 -3.42 0
M  V30 10648 H 1031.49 3.40304 -1.51737 0
M  V30 10649 H 1031.6 3.37406 -3.40138 0
M  V30 10650 H 1029.96 1.86113 -1.7388 0
M  V30 10651 H 1030.75 1.12985 -3.24175 0
M  V30 10652 N 1033.19 1.2685 0.935242 0
M  V30 10653 C 1034.15 1.08975 2.01636 0
M  V30 10654 C 1035.15 0.0361543 1.60759 0
M  V30 10655 O 1036.34 0.280087 1.71934 0
M  V30 10656 C 1033.48 0.658831 3.34473 0
M  V30 10657 H 1034.67 2.04968 2.18925 0
M  V30 10658 H 1032.22 1.09531 1.11501 0
M  V30 10659 H 1032.96 -0.302824 3.22883 0
M  V30 10660 H 1032.74 1.41967 3.65497 0
M  V30 10661 H 1034.23 0.555783 4.13885 0
M  V30 10662 N 1034.67 -1.14067 1.0875 0
M  V30 10663 C 1036.08 -1.66747 0.839778 0
M  V30 10664 C 1036.43 -1.85711 -0.632909 0
M  V30 10665 O 1035.56 -1.57084 -1.48841 0
M  V30 10666 C 1036.15 -3.02896 1.51787 0
M  V30 10667 C 1034.71 -3.52596 1.3173 0
M  V30 10668 C 1033.86 -2.27994 1.57841 0
M  V30 10669 H 1036.81 -0.980838 1.24761 0
M  V30 10670 H 1036.83 -3.68526 0.947057 0
M  V30 10671 H 1036.34 -2.89062 2.58969 0
M  V30 10672 H 1034.44 -3.71647 0.266339 0
M  V30 10673 H 1034.56 -4.33151 2.04736 0
M  V30 10674 H 1032.92 -2.34241 1.00015 0
M  V30 10675 H 1033.7 -2.16732 2.66237 0
M  V30 10676 N 1036.15 -0.873678 -1.31166 0
M  V30 10677 C 1037.1 -0.321349 -2.3037 0
M  V30 10678 C 1038.09 0.565568 -1.5968 0
M  V30 10679 O 1039.3 0.451257 -1.74252 0
M  V30 10680 H 1035.67 -0.0852425 -0.747153 0
M  V30 10681 H 1037.64 -1.17191 -2.74425 0
M  V30 10682 C 1036.39 0.459016 -3.44657 0
M  V30 10683 H 1035.71 -0.214185 -3.99226 0
M  V30 10684 H 1037.15 0.810758 -4.16176 0
M  V30 10685 C 1035.61 1.65173 -2.93632 0
M  V30 10686 O 1036.14 2.75105 -2.92711 0
M  V30 10687 N 1034.35 1.4851 -2.49786 0
M  V30 10688 H 1033.9 0.590785 -2.50734 0
M  V30 10689 H 1033.85 2.28452 -2.16002 0
M  V30 10690 N 1037.63 1.44308 -0.633487 0
M  V30 10691 C 1039.04 1.85387 -0.221009 0
M  V30 10692 C 1039.39 1.5301 1.22811 0
M  V30 10693 O 1038.51 0.969325 1.93476 0
M  V30 10694 C 1039.11 3.36497 -0.394331 0
M  V30 10695 C 1037.67 3.76382 -0.0363405 0
M  V30 10696 C 1036.81 2.68146 -0.706598 0
M  V30 10697 H 1039.77 1.34741 -0.83849 0
M  V30 10698 H 1039.79 3.78735 0.366026 0
M  V30 10699 H 1039.3 3.60031 -1.44911 0
M  V30 10700 H 1037.4 3.58463 1.01661 0
M  V30 10701 H 1037.51 4.77 -0.448045 0
M  V30 10702 H 1035.88 2.54306 -0.14168 0
M  V30 10703 H 1036.66 2.94512 -1.76401 0
M  V30 10704 N 1039.1 0.374177 1.53094 0
M  V30 10705 C 1040.03 -0.459976 2.28925 0
M  V30 10706 C 1041.02 -1.07656 1.31698 0
M  V30 10707 O 1042.2 -1.09219 1.60577 0
M  V30 10708 C 1039.33 -1.5954 3.08487 0
M  V30 10709 C 1038.28 -1.10563 4.13473 0
M  V30 10710 C 1037.61 -2.33196 4.81169 0
M  V30 10711 C 1038.91 -0.184275 5.21975 0
M  V30 10712 H 1040.6 0.172692 2.98902 0
M  V30 10713 H 1038.15 0.0844956 1.43752 0
M  V30 10714 H 1040.1 -2.18565 3.60288 0
M  V30 10715 H 1038.83 -2.25543 2.36216 0
M  V30 10716 H 1037.49 -0.53801 3.62631 0
M  V30 10717 H 1037.13 -2.97675 4.05461 0
M  V30 10718 H 1036.83 -2.01094 5.52119 0
M  V30 10719 H 1038.36 -2.92892 5.35767 0
M  V30 10720 H 1039.77 -0.682262 5.69226 0
M  V30 10721 H 1038.17 0.0462746 6.00082 0
M  V30 10722 H 1039.24 0.771152 4.78729 0
M  V30 10723 N 1040.58 -1.57259 0.103575 0
M  V30 10724 C 1041.81 -1.99 -0.566275 0
M  V30 10725 C 1042.23 -0.982909 -1.61197 0
M  V30 10726 O 1041.58 0.026345 -1.82481 0
M  V30 10727 C 1041.63 -3.40778 -1.20635 0
M  V30 10728 O 1041.35 -4.37632 -0.202472 0
M  V30 10729 C 1042.86 -3.97567 -1.961 0
M  V30 10730 H 1040.08 -0.653751 -0.151164 0
M  V30 10731 H 1042.62 -2.03658 0.185365 0
M  V30 10732 H 1040.77 -3.37107 -1.90886 0
M  V30 10733 H 1041.19 -5.2026 -0.665535 0
M  V30 10734 H 1042.66 -4.98897 -2.36233 0
M  V30 10735 H 1043.14 -3.35853 -2.83018 0
M  V30 10736 H 1043.75 -4.04737 -1.30645 0
M  V30 10737 N 1042.06 0.170153 -1.56679 0
M  V30 10738 C 1042.99 1.23525 -1.93066 0
M  V30 10739 C 1044.01 1.40414 -0.823879 0
M  V30 10740 O 1045.19 1.40396 -1.10232 0
M  V30 10741 C 1042.29 2.60376 -2.16928 0
M  V30 10742 C 1041.47 2.6477 -3.4816 0
M  V30 10743 C 1040.53 3.82993 -3.60837 0
M  V30 10744 O 1039.55 3.68937 -4.33444 0
M  V30 10745 N 1040.75 4.99498 -2.95773 0
M  V30 10746 H 1043.52 0.926172 -2.8503 0
M  V30 10747 H 1041.08 0.359909 -1.57849 0
M  V30 10748 H 1043.07 3.37934 -2.22672 0
M  V30 10749 H 1041.64 2.83669 -1.31342 0
M  V30 10750 H 1040.86 1.73298 -3.54064 0
M  V30 10751 H 1042.15 2.64717 -4.34514 0
M  V30 10752 H 1041.55 5.13819 -2.36657 0
M  V30 10753 H 1040.11 5.74914 -3.07111 0
M  V30 10754 N 1043.54 1.5137 0.438746 0
M  V30 10755 C 1044.47 1.75528 1.53987 0
M  V30 10756 C 1045.45 0.605067 1.58975 0
M  V30 10757 O 1046.63 0.847634 1.74725 0
M  V30 10758 C 1043.76 1.87904 2.92078 0
M  V30 10759 C 1042.72 3.0333 3.01951 0
M  V30 10760 C 1042.04 3.00888 4.42007 0
M  V30 10761 C 1043.34 4.43319 2.76163 0
M  V30 10762 H 1045.04 2.67728 1.34022 0
M  V30 10763 H 1042.58 1.28831 0.643308 0
M  V30 10764 H 1044.54 2.03388 3.69068 0
M  V30 10765 H 1043.26 0.923514 3.13271 0
M  V30 10766 H 1041.92 2.87549 2.274 0
M  V30 10767 H 1041.57 2.03116 4.60166 0
M  V30 10768 H 1041.27 3.78397 4.49544 0
M  V30 10769 H 1042.79 3.18464 5.20973 0
M  V30 10770 H 1044.21 4.59458 3.42887 0
M  V30 10771 H 1042.6 5.22523 2.9511 0
M  V30 10772 H 1043.67 4.53453 1.71779 0
M  V30 10773 N 1045.02 -0.694098 1.41492 0
M  V30 10774 C 1045.93 -1.83778 1.45818 0
M  V30 10775 C 1046.94 -1.70471 0.348639 0
M  V30 10776 O 1048.12 -1.92361 0.596588 0
M  V30 10777 C 1045.18 -3.19771 1.33967 0
M  V30 10778 C 1044.24 -3.45175 2.5525 0
M  V30 10779 C 1043.48 -4.74681 2.43955 0
M  V30 10780 O 1043.7 -5.51268 1.46491 0
M  V30 10781 O 1042.63 -5.00901 3.33739 0
M  V30 10782 H 1046.46 -1.83084 2.42309 0
M  V30 10783 H 1044.05 -0.847349 1.23046 0
M  V30 10784 H 1045.93 -4.00961 1.29648 0
M  V30 10785 H 1044.6 -3.21145 0.405926 0
M  V30 10786 H 1043.51 -2.6391 2.65146 0
M  V30 10787 H 1044.84 -3.48617 3.47458 0
M  V30 10788 N 1046.49 -1.27344 -0.928501 0
M  V30 10789 C 1047.4 -1.11812 -2.06241 0
M  V30 10790 C 1048.42 -0.048347 -1.73933 0
M  V30 10791 O 1049.6 -0.25467 -1.99783 0
M  V30 10792 C 1046.66 -0.766036 -3.38131 0
M  V30 10793 C 1045.72 -1.91659 -3.84142 0
M  V30 10794 C 1044.96 -1.58121 -5.09738 0
M  V30 10795 O 1045.18 -0.488742 -5.68302 0
M  V30 10796 O 1044.11 -2.42013 -5.51102 0
M  V30 10797 H 1047.94 -2.06967 -2.22258 0
M  V30 10798 H 1045.52 -1.06524 -1.04752 0
M  V30 10799 H 1047.41 -0.582982 -4.17348 0
M  V30 10800 H 1046.08 0.155998 -3.23324 0
M  V30 10801 H 1044.99 -2.1547 -3.05816 0
M  V30 10802 H 1046.32 -2.8188 -4.0349 0
M  V30 10803 N 1047.97 1.13488 -1.09353 0
M  V30 10804 C 1048.94 2.17066 -0.735863 0
M  V30 10805 C 1049.94 1.59086 0.234181 0
M  V30 10806 O 1051.13 1.74196 0.012463 0
M  V30 10807 C 1048.26 3.40786 -0.0880975 0
M  V30 10808 H 1049.45 2.50221 -1.65316 0
M  V30 10809 H 1047 1.28304 -0.89263 0
M  V30 10810 H 1047.74 3.1322 0.840462 0
M  V30 10811 H 1047.52 3.8414 -0.786073 0
M  V30 10812 H 1049.01 4.17342 0.146775 0
M  V30 10813 N 1049.45 0.880621 1.30701 0
M  V30 10814 C 1050.87 0.574015 1.4892 0
M  V30 10815 C 1051.07 -0.889312 1.80813 0
M  V30 10816 O 1050.12 -1.67082 1.89314 0
M  V30 10817 C 1051.44 1.48341 2.61563 0
M  V30 10818 C 1052.98 1.48658 2.75445 0
M  V30 10819 C 1053.46 2.3818 3.91196 0
M  V30 10820 N 1054.95 2.36119 3.985 0
M  V30 10821 C 1055.69 3.02101 4.87363 0
M  V30 10822 N 1055.18 3.77293 5.81052 0
M  V30 10823 N 1056.97 2.91356 4.80696 0
M  V30 10824 H 1049.13 1.82732 1.08271 0
M  V30 10825 H 1051.39 0.781939 0.535981 0
M  V30 10826 H 1051.09 2.52515 2.44804 0
M  V30 10827 H 1050.97 1.18977 3.57944 0
M  V30 10828 H 1053.36 0.452374 2.91612 0
M  V30 10829 H 1053.44 1.8205 1.79698 0
M  V30 10830 H 1053.08 3.41683 3.75786 0
M  V30 10831 H 1053.01 2.02106 4.86272 0
M  V30 10832 H 1055.5 1.81474 3.31475 0
M  V30 10833 H 1055.81 4.24742 6.45612 0
M  V30 10834 H 1054.16 3.81401 5.80998 0
M  V30 10835 H 1057.35 2.32143 4.06481 0
M  V30 10836 H 1057.52 3.43056 5.49742 0
M  V30 10837 N 1050.93 -1.4397 0.641131 0
M  V30 10838 C 1052.35 -1.56607 0.30762 0
M  V30 10839 C 1052.55 -1.62694 -1.18882 0
M  V30 10840 O 1051.6 -1.57541 -1.97325 0
M  V30 10841 C 1052.91 -2.83289 1.00834 0
M  V30 10842 C 1054.46 -2.97016 0.98744 0
M  V30 10843 C 1054.94 -4.26514 1.66882 0
M  V30 10844 N 1056.43 -4.33351 1.63589 0
M  V30 10845 C 1057.16 -5.32292 2.13196 0
M  V30 10846 N 1056.66 -6.37582 2.71038 0
M  V30 10847 N 1058.45 -5.23866 2.03766 0
M  V30 10848 H 1050.6 -1.38262 1.61237 0
M  V30 10849 H 1052.87 -0.663221 0.677378 0
M  V30 10850 H 1052.57 -2.84812 2.06337 0
M  V30 10851 H 1052.45 -3.73134 0.552333 0
M  V30 10852 H 1054.83 -2.95041 -0.0591395 0
M  V30 10853 H 1054.91 -2.08493 1.48203 0
M  V30 10854 H 1054.56 -4.2925 2.71491 0
M  V30 10855 H 1054.49 -5.13912 1.14898 0
M  V30 10856 H 1056.98 -3.5788 1.21368 0
M  V30 10857 H 1057.29 -7.09378 3.06597 0
M  V30 10858 H 1055.64 -6.38239 2.75093 0
M  V30 10859 H 1058.83 -4.40524 1.58291 0
M  V30 10860 H 1059 -6.00819 2.42737 0
M  V30 10861 N 1052.41 -0.382291 -1.52893 0
M  V30 10862 C 1053.82 -0.031941 -1.59568 0
M  V30 10863 C 1054.02 1.45245 -1.39664 0
M  V30 10864 O 1053.08 2.21612 -1.21013 0
M  V30 10865 C 1054.39 -0.502846 -2.96466 0
M  V30 10866 C 1055.94 -0.4585 -3.09624 0
M  V30 10867 C 1056.42 -0.905481 -4.4896 0
M  V30 10868 N 1057.91 -0.861211 -4.55124 0
M  V30 10869 C 1058.64 -1.17856 -5.61157 0
M  V30 10870 N 1058.14 -1.56603 -6.74868 0
M  V30 10871 N 1059.93 -1.10027 -5.51226 0
M  V30 10872 H 1052.08 -1.34875 -1.64081 0
M  V30 10873 H 1054.34 -0.552375 -0.770446 0
M  V30 10874 H 1054.05 -1.53931 -3.16225 0
M  V30 10875 H 1053.92 0.101777 -3.77063 0
M  V30 10876 H 1056.31 0.568868 -2.89565 0
M  V30 10877 H 1056.39 -1.09884 -2.30996 0
M  V30 10878 H 1056.04 -1.93105 -4.69759 0
M  V30 10879 H 1055.97 -0.242227 -5.26043 0
M  V30 10880 H 1058.46 -0.575988 -3.73485 0
M  V30 10881 H 1058.77 -1.792 -7.51736 0
M  V30 10882 H 1057.12 -1.60484 -6.76217 0
M  V30 10883 H 1060.31 -0.796623 -4.61272 0
M  V30 10884 H 1060.48 -1.35091 -6.33762 0
M  V30 10885 N 1053.89 1.57202 -0.111913 0
M  V30 10886 C 1054.82 2.17957 0.837683 0
M  V30 10887 C 1055.8 1.1176 1.28233 0
M  V30 10888 O 1056.98 1.39967 1.34621 0
M  V30 10889 C 1054.11 2.77333 2.09054 0
M  V30 10890 C 1053.07 3.8905 1.78393 0
M  V30 10891 C 1052.39 4.35203 3.10649 0
M  V30 10892 C 1053.69 5.11477 1.05775 0
M  V30 10893 H 1055.39 2.9756 0.331441 0
M  V30 10894 H 1052.93 1.43131 0.157979 0
M  V30 10895 H 1054.88 3.18492 2.75936 0
M  V30 10896 H 1053.61 1.95009 2.6199 0
M  V30 10897 H 1052.27 3.48456 1.13903 0
M  V30 10898 H 1051.92 3.49747 3.61506 0
M  V30 10899 H 1051.62 5.10534 2.9091 0
M  V30 10900 H 1053.14 4.79007 3.78661 0
M  V30 10901 H 1054.55 5.497 1.62798 0
M  V30 10902 H 1052.95 5.92346 0.961573 0
M  V30 10903 H 1054.02 4.84881 0.043297 0
M  V30 10904 N 1055.36 -0.161842 1.56767 0
M  V30 10905 C 1056.27 -1.21996 2.00385 0
M  V30 10906 C 1057.29 -1.4789 0.916768 0
M  V30 10907 O 1058.47 -1.59852 1.22513 0
M  V30 10908 C 1055.53 -2.53695 2.36305 0
M  V30 10909 C 1054.59 -2.3558 3.58888 0
M  V30 10910 C 1053.82 -3.60998 3.93085 0
M  V30 10911 O 1054.05 -4.6657 3.28129 0
M  V30 10912 O 1052.98 -3.54544 4.86397 0
M  V30 10913 H 1056.81 -0.879701 2.9068 0
M  V30 10914 H 1054.39 -0.369437 1.4476 0
M  V30 10915 H 1056.27 -3.31366 2.60335 0
M  V30 10916 H 1054.95 -2.87281 1.49169 0
M  V30 10917 H 1053.86 -1.55908 3.40064 0
M  V30 10918 H 1055.19 -2.06915 4.46595 0
M  V30 10919 N 1056.84 -1.516 -0.430713 0
M  V30 10920 C 1057.75 -1.76247 -1.54836 0
M  V30 10921 C 1058.77 -0.646985 -1.61524 0
M  V30 10922 O 1059.94 -0.929987 -1.78643 0
M  V30 10923 C 1057.01 -1.88833 -2.90763 0
M  V30 10924 C 1056.07 -3.12701 -2.94137 0
M  V30 10925 C 1055.3 -3.24676 -4.23581 0
M  V30 10926 O 1055.53 -2.42429 -5.16318 0
M  V30 10927 O 1054.46 -4.17697 -4.33374 0
M  V30 10928 H 1058.29 -2.71069 -1.3695 0
M  V30 10929 H 1055.87 -1.36182 -0.614396 0
M  V30 10930 H 1057.75 -1.99057 -3.71422 0
M  V30 10931 H 1056.43 -0.971987 -3.08762 0
M  V30 10932 H 1055.33 -3.0795 -2.1241 0
M  V30 10933 H 1056.67 -4.04045 -2.81084 0
M  V30 10934 N 1058.32 0.686584 -1.41858 0
M  V30 10935 C 1059.23 1.83002 -1.46791 0
M  V30 10936 C 1060.25 1.70284 -0.357675 0
M  V30 10937 O 1061.42 1.92042 -0.606781 0
M  V30 10938 C 1058.49 3.19056 -1.35661 0
M  V30 10939 C 1057.55 3.43817 -2.57077 0
M  V30 10940 C 1056.78 4.7338 -2.46469 0
M  V30 10941 O 1057 5.50483 -1.49413 0
M  V30 10942 O 1055.94 4.99124 -3.36391 0
M  V30 10943 H 1059.76 1.81797 -2.43277 0
M  V30 10944 H 1057.35 0.840812 -1.23494 0
M  V30 10945 H 1059.23 4.00267 -1.31773 0
M  V30 10946 H 1057.91 3.20925 -0.422951 0
M  V30 10947 H 1056.81 2.625 -2.66541 0
M  V30 10948 H 1058.15 3.4677 -3.49302 0
M  V30 10949 N 1059.8 1.27835 0.921735 0
M  V30 10950 C 1060.71 1.12904 2.05645 0
M  V30 10951 C 1061.72 0.0575704 1.73905 0
M  V30 10952 O 1062.9 0.265261 1.99645 0
M  V30 10953 C 1059.96 0.783957 3.3772 0
M  V30 10954 C 1059.03 1.93694 3.8312 0
M  V30 10955 C 1058.26 1.60823 5.08893 0
M  V30 10956 O 1058.48 0.518873 5.68035 0
M  V30 10957 O 1057.42 2.44932 5.49811 0
M  V30 10958 H 1061.24 2.08143 2.21157 0
M  V30 10959 H 1058.83 1.07078 1.04185 0
M  V30 10960 H 1060.71 0.605107 4.17033 0
M  V30 10961 H 1059.38 -0.138849 3.23402 0
M  V30 10962 H 1058.29 2.17089 3.04669 0
M  V30 10963 H 1059.62 2.84016 4.0199 0
M  V30 10964 N 1061.28 -1.12907 1.09954 0
M  V30 10965 C 1062.22 -2.18485 0.743848 0
M  V30 10966 C 1063.19 -1.63766 -0.277494 0
M  V30 10967 O 1064.38 -1.90146 -0.157899 0
M  V30 10968 C 1061.52 -3.44649 0.176437 0
M  V30 10969 C 1060.63 -4.13445 1.25248 0
M  V30 10970 C 1059.77 -5.27242 0.647242 0
M  V30 10971 C 1058.8 -5.87897 1.70421 0
M  V30 10972 N 1057.94 -6.93116 1.1196 0
M  V30 10973 H 1062.78 -2.48257 1.64841 0
M  V30 10974 H 1060.32 -1.21891 0.823471 0
M  V30 10975 H 1062.28 -4.16852 -0.170384 0
M  V30 10976 H 1060.91 -3.15309 -0.69137 0
M  V30 10977 H 1059.96 -3.39471 1.7165 0
M  V30 10978 H 1061.27 -4.54601 2.05279 0
M  V30 10979 H 1060.42 -6.06186 0.249579 0
M  V30 10980 H 1059.16 -4.87351 -0.184556 0
M  V30 10981 H 1058.17 -5.07643 2.11136 0
M  V30 10982 H 1059.39 -6.2986 2.53877 0
M  V30 10983 H 1057.34 -6.55271 0.309181 0
M  V30 10984 H 1057.26 -7.32843 1.85681 0
M  V30 10985 H 1058.52 -7.759 0.748326 0
M  V30 10986 N 1062.75 -0.88754 -1.30232 0
M  V30 10987 C 1064.17 -0.581904 -1.48614 0
M  V30 10988 C 1064.37 0.879711 -1.81282 0
M  V30 10989 O 1063.43 1.66076 -1.90198 0
M  V30 10990 C 1064.74 -1.49726 -2.60773 0
M  V30 10991 C 1066.29 -1.50117 -2.74653 0
M  V30 10992 C 1066.76 -2.40251 -3.89927 0
M  V30 10993 N 1068.25 -2.38229 -3.97242 0
M  V30 10994 C 1068.99 -3.04682 -4.85754 0
M  V30 10995 N 1068.48 -3.80369 -5.79043 0
M  V30 10996 N 1070.28 -2.93901 -4.79144 0
M  V30 10997 H 1062.43 -1.83304 -1.073 0
M  V30 10998 H 1064.69 -0.78477 -0.531826 0
M  V30 10999 H 1064.4 -2.5381 -2.43462 0
M  V30 11000 H 1064.27 -1.20874 -3.57308 0
M  V30 11001 H 1066.66 -0.467832 -2.91368 0
M  V30 11002 H 1066.74 -1.83001 -1.7873 0
M  V30 11003 H 1066.38 -3.43671 -3.73969 0
M  V30 11004 H 1066.31 -2.04682 -4.85194 0
M  V30 11005 H 1068.8 -1.83229 -3.30508 0
M  V30 11006 H 1069.12 -4.28159 -6.4335 0
M  V30 11007 H 1067.46 -3.84477 -5.78967 0
M  V30 11008 H 1070.65 -2.34296 -4.05245 0
M  V30 11009 H 1070.83 -3.45967 -5.47915 0
M  V30 11010 N 1064.23 1.43628 -0.648757 0
M  V30 11011 C 1065.2 2.29172 0.0360713 0
M  V30 11012 C 1066.2 1.41974 0.754976 0
M  V30 11013 O 1067.39 1.63654 0.5969 0
M  V30 11014 C 1064.52 3.23942 1.0618 0
M  V30 11015 H 1065.71 2.91214 -0.716544 0
M  V30 11016 H 1063.26 1.50833 -0.409759 0
M  V30 11017 H 1064 2.66786 1.8438 0
M  V30 11018 H 1063.78 3.88223 0.550016 0
M  V30 11019 H 1065.27 3.8816 1.54019 0
M  V30 11020 N 1065.71 0.390394 1.52688 0
M  V30 11021 C 1066.94 -0.194013 2.06491 0
M  V30 11022 C 1067.36 -1.3965 1.26014 0
M  V30 11023 O 1066.72 -1.79038 0.285468 0
M  V30 11024 C 1066.77 -0.541306 3.56514 0
M  V30 11025 O 1065.87 -1.63509 3.78601 0
M  V30 11026 H 1065.21 -0.0223608 0.663623 0
M  V30 11027 H 1067.74 0.558179 1.96839 0
M  V30 11028 H 1067.75 -0.805301 3.99974 0
M  V30 11029 H 1066.43 0.337828 4.14526 0
M  V30 11030 H 1065 -1.36473 3.4703 0
M  V30 11031 N 1067.19 -1.57141 0.120249 0
M  V30 11032 C 1068.6 -1.5784 -0.236335 0
M  V30 11033 C 1068.8 -1.13304 -1.66626 0
M  V30 11034 O 1067.86 -0.821004 -2.3878 0
M  V30 11035 C 1069.17 -3.007 -0.00188211 0
M  V30 11036 C 1070.72 -3.12927 -0.0676838 0
M  V30 11037 C 1071.2 -4.57789 0.139092 0
M  V30 11038 N 1072.69 -4.63122 0.085104 0
M  V30 11039 C 1073.42 -5.72978 0.219983 0
M  V30 11040 N 1072.92 -6.91579 0.411102 0
M  V30 11041 N 1074.71 -5.61874 0.159469 0
M  V30 11042 H 1066.86 -1.84391 1.05422 0
M  V30 11043 H 1069.13 -0.852228 0.415225 0
M  V30 11044 H 1068.83 -3.37575 0.986718 0
M  V30 11045 H 1068.71 -3.70005 -0.733203 0
M  V30 11046 H 1071.09 -2.75909 -1.04681 0
M  V30 11047 H 1071.17 -2.46162 0.695538 0
M  V30 11048 H 1070.82 -4.95506 1.1152 0
M  V30 11049 H 1070.75 -5.22646 -0.644131 0
M  V30 11050 H 1073.24 -3.77854 -0.0590479 0
M  V30 11051 H 1073.55 -7.71149 0.504851 0
M  V30 11052 H 1071.9 -6.9356 0.447091 0
M  V30 11053 H 1075.09 -4.68099 0.0111131 0
M  V30 11054 H 1075.26 -6.47445 0.268028 0
M  V30 11055 N 1068.67 0.153526 -1.5685 0
M  V30 11056 C 1069.63 1.17362 -1.96873 0
M  V30 11057 C 1070.63 1.36219 -0.854456 0
M  V30 11058 O 1071.82 1.33322 -1.1212 0
M  V30 11059 C 1068.95 2.53523 -2.27901 0
M  V30 11060 H 1070.14 0.830432 -2.88173 0
M  V30 11061 H 1067.7 0.396633 -1.51184 0
M  V30 11062 H 1068.43 2.92824 -1.39371 0
M  V30 11063 H 1068.22 2.41198 -3.09137 0
M  V30 11064 H 1069.71 3.27006 -2.59725 0
M  V30 11065 N 1070.14 1.51827 0.422667 0
M  V30 11066 C 1071.56 1.57533 1.00201 0
M  V30 11067 C 1071.91 0.407623 1.91919 0
M  V30 11068 O 1071.03 -0.473763 2.1115 0
M  V30 11069 C 1071.63 2.85508 1.82403 0
M  V30 11070 C 1070.19 2.93737 2.35362 0
M  V30 11071 C 1069.33 2.52343 1.14971 0
M  V30 11072 H 1072.28 1.57391 0.20339 0
M  V30 11073 H 1072.3 2.70097 2.68007 0
M  V30 11074 H 1071.82 3.70477 1.15623 0
M  V30 11075 H 1069.92 2.13231 3.05554 0
M  V30 11076 H 1070.03 3.977 2.67155 0
M  V30 11077 H 1068.39 2.05878 1.49955 0
M  V30 11078 H 1069.18 3.39672 0.497786 0
M  V30 11079 N 1071.62 -0.679052 1.4222 0
M  V30 11080 C 1072.85 -1.47248 1.46058 0
M  V30 11081 C 1073.27 -1.87962 0.0720987 0
M  V30 11082 O 1072.63 -1.5572 -0.928488 0
M  V30 11083 C 1072.68 -2.70067 2.38948 0
M  V30 11084 O 1071.78 -3.68178 1.85791 0
M  V30 11085 H 1071.12 -0.442533 0.495036 0
M  V30 11086 H 1073.65 -0.833263 1.86863 0
M  V30 11087 H 1073.66 -3.18187 2.55385 0
M  V30 11088 H 1072.34 -2.39773 3.39826 0
M  V30 11089 H 1070.92 -3.2719 1.78889 0
M  V30 11090 N 1073.1 -1.28322 -0.914942 0
M  V30 11091 C 1074.05 -1.12146 -2.01722 0
M  V30 11092 C 1075.02 -0.0189279 -1.66089 0
M  V30 11093 O 1076.2 -0.183638 -1.89914 0
M  V30 11094 C 1073.34 -0.78808 -3.35981 0
M  V30 11095 C 1072.46 -1.96954 -3.84491 0
M  V30 11096 C 1071.59 -1.57688 -5.07255 0
M  V30 11097 C 1070.63 -2.72506 -5.48094 0
M  V30 11098 N 1069.77 -2.33741 -6.62049 0
M  V30 11099 H 1074.61 -2.06461 -2.1489 0
M  V30 11100 H 1072.14 -1.0276 -1.05256 0
M  V30 11101 H 1074.1 -0.575546 -4.13211 0
M  V30 11102 H 1072.73 0.118132 -3.22584 0
M  V30 11103 H 1071.78 -2.29423 -3.03429 0
M  V30 11104 H 1073.1 -2.8304 -4.10719 0
M  V30 11105 H 1072.25 -1.32634 -5.92025 0
M  V30 11106 H 1070.99 -0.687291 -4.82833 0
M  V30 11107 H 1069.99 -2.9826 -4.61867 0
M  V30 11108 H 1071.22 -3.62106 -5.74505 0
M  V30 11109 H 1069.16 -1.4725 -6.3926 0
M  V30 11110 H 1069.08 -3.13364 -6.87997 0
M  V30 11111 H 1070.35 -2.11968 -7.50127 0
M  V30 11112 N 1074.58 1.12322 -1.10551 0
M  V30 11113 C 1075.51 2.17819 -0.713263 0
M  V30 11114 C 1076.52 1.6086 0.250604 0
M  V30 11115 O 1077.71 1.78466 0.0348909 0
M  V30 11116 C 1074.81 3.38885 -0.0320325 0
M  V30 11117 C 1073.99 4.25332 -1.02038 0
M  V30 11118 C 1073.04 5.24895 -0.370412 0
M  V30 11119 O 1072.07 5.59958 -1.02157 0
M  V30 11120 N 1073.27 5.73934 0.870633 0
M  V30 11121 H 1076.04 2.52083 -1.62094 0
M  V30 11122 H 1073.6 1.27755 -0.994492 0
M  V30 11123 H 1075.59 4.02574 0.414285 0
M  V30 11124 H 1074.16 3.02762 0.778072 0
M  V30 11125 H 1073.38 3.5824 -1.64492 0
M  V30 11126 H 1074.67 4.79936 -1.68936 0
M  V30 11127 H 1074.07 5.47614 1.419 0
M  V30 11128 H 1072.62 6.39504 1.26008 0
M  V30 11129 N 1076.06 0.894434 1.2976 0
M  V30 11130 C 1077.47 0.589778 1.48303 0
M  V30 11131 C 1077.67 -0.870085 1.81746 0
M  V30 11132 O 1076.73 -1.65065 1.91076 0
M  V30 11133 C 1078.04 1.51107 2.59975 0
M  V30 11134 C 1079.59 1.51571 2.73853 0
M  V30 11135 C 1080.06 2.42316 3.88648 0
M  V30 11136 N 1081.56 2.40333 3.95973 0
M  V30 11137 C 1082.29 3.07254 4.84131 0
M  V30 11138 N 1081.79 3.83435 5.77018 0
M  V30 11139 N 1083.58 2.96438 4.77578 0
M  V30 11140 H 1075.73 1.83871 1.06327 0
M  V30 11141 H 1077.99 0.78758 0.527657 0
M  V30 11142 H 1077.7 2.55097 2.42112 0
M  V30 11143 H 1077.57 1.22767 3.56662 0
M  V30 11144 H 1079.96 0.483277 2.91116 0
M  V30 11145 H 1080.04 1.83946 1.77757 0
M  V30 11146 H 1079.69 3.4565 3.72141 0
M  V30 11147 H 1079.62 2.07252 4.84101 0
M  V30 11148 H 1082.11 1.84979 3.29532 0
M  V30 11149 H 1082.42 4.31565 6.4107 0
M  V30 11150 H 1080.76 3.87542 5.7692 0
M  V30 11151 H 1083.96 2.36442 4.03996 0
M  V30 11152 H 1084.13 3.48867 5.46073 0
M  V30 11153 N 1077.53 -1.43282 0.656365 0
M  V30 11154 C 1078.76 -2.05826 0.178619 0
M  V30 11155 C 1079.17 -1.493 -1.16216 0
M  V30 11156 O 1078.52 -0.620163 -1.72915 0
M  V30 11157 C 1078.58 -3.59496 0.0164101 0
M  V30 11158 C 1078.24 -4.38621 1.28298 0
M  V30 11159 C 1079.24 -4.70477 2.21241 0
M  V30 11160 C 1076.92 -4.78577 1.52544 0
M  V30 11161 C 1078.92 -5.412 3.36721 0
M  V30 11162 C 1076.6 -5.49044 2.68316 0
M  V30 11163 C 1077.6 -5.80279 3.6023 0
M  V30 11164 O 1077.29 -6.49306 4.7398 0
M  V30 11165 H 1077.02 -0.670158 0.0886814 0
M  V30 11166 H 1079.58 -1.84722 0.89816 0
M  V30 11167 H 1077.81 -3.79188 -0.758532 0
M  V30 11168 H 1079.5 -4.03731 -0.419096 0
M  V30 11169 H 1080.26 -4.40125 2.03753 0
M  V30 11170 H 1076.14 -4.5367 0.818816 0
M  V30 11171 H 1079.68 -5.65497 4.08483 0
M  V30 11172 H 1075.58 -5.78813 2.85738 0
M  V30 11173 H 1076.35 -6.67789 4.73286 0
M  V30 11174 N 1079.01 -0.398486 -1.52479 0
M  V30 11175 C 1080.26 0.181019 -2.0199 0
M  V30 11176 C 1080.59 1.45691 -1.28405 0
M  V30 11177 O 1079.87 1.90607 -0.387207 0
M  V30 11178 C 1080.15 0.439587 -3.57407 0
M  V30 11179 C 1080 -0.85223 -4.41653 0
M  V30 11180 C 1081.32 1.2263 -4.2267 0
M  V30 11181 H 1078.44 0.0643164 -0.734188 0
M  V30 11182 H 1081.08 -0.52986 -1.82462 0
M  V30 11183 H 1079.23 1.04516 -3.74177 0
M  V30 11184 H 1080.91 -1.48879 -4.36615 0
M  V30 11185 H 1079.15 -1.46555 -4.08294 0
M  V30 11186 H 1079.82 -0.625839 -5.48441 0
M  V30 11187 H 1082.3 0.713722 -4.09933 0
M  V30 11188 H 1081.17 1.37596 -5.31374 0
M  V30 11189 H 1081.43 2.24403 -3.80914 0
M  V30 11190 N 1080.49 1.57075 -0.12858 0
M  V30 11191 C 1081.42 2.12907 0.848708 0
M  V30 11192 C 1082.44 1.07406 1.22343 0
M  V30 11193 O 1083.63 1.34746 1.17071 0
M  V30 11194 C 1080.73 2.62167 2.1476 0
M  V30 11195 C 1079.9 3.91871 1.94309 0
M  V30 11196 C 1078.96 4.26629 3.08016 0
M  V30 11197 O 1077.98 4.9528 2.80511 0
M  V30 11198 N 1079.19 3.84721 4.34706 0
M  V30 11199 H 1081.95 2.97387 0.371636 0
M  V30 11200 H 1079.51 1.61805 0.0555574 0
M  V30 11201 H 1081.5 2.82444 2.89841 0
M  V30 11202 H 1080.07 1.82514 2.53786 0
M  V30 11203 H 1079.29 3.80406 1.03367 0
M  V30 11204 H 1080.58 4.76662 1.77962 0
M  V30 11205 H 1079.98 3.2937 4.59926 0
M  V30 11206 H 1078.54 4.10087 5.06628 0
M  V30 11207 N 1081.97 -0.145205 1.5693 0
M  V30 11208 C 1082.88 -1.19864 2.01667 0
M  V30 11209 C 1083.9 -1.46909 0.932402 0
M  V30 11210 O 1085.07 -1.58543 1.24201 0
M  V30 11211 C 1082.14 -2.51174 2.38982 0
M  V30 11212 C 1081.2 -2.3176 3.61366 0
M  V30 11213 C 1080.43 -3.56809 3.96892 0
M  V30 11214 O 1080.65 -4.63063 3.33059 0
M  V30 11215 O 1079.59 -3.49366 4.9013 0
M  V30 11216 H 1083.41 -0.848821 2.91597 0
M  V30 11217 H 1081 -0.354063 1.45144 0
M  V30 11218 H 1082.88 -3.28587 2.63835 0
M  V30 11219 H 1081.56 -2.85683 1.52207 0
M  V30 11220 H 1080.46 -1.52293 3.41698 0
M  V30 11221 H 1081.8 -2.02167 4.48764 0
M  V30 11222 N 1083.45 -1.52049 -0.414609 0
M  V30 11223 C 1084.69 -1.66084 -1.16379 0
M  V30 11224 C 1085.03 -0.386932 -1.90306 0
M  V30 11225 O 1084.3 0.614441 -1.8454 0
M  V30 11226 C 1084.58 -2.87927 -2.16264 0
M  V30 11227 C 1084.44 -4.25353 -1.46269 0
M  V30 11228 C 1085.76 -3.05289 -3.16996 0
M  V30 11229 H 1082.88 -0.604414 -0.421726 0
M  V30 11230 H 1085.52 -1.8459 -0.450177 0
M  V30 11231 H 1083.67 -2.7228 -2.77121 0
M  V30 11232 H 1085.34 -4.52717 -0.885743 0
M  V30 11233 H 1083.58 -4.27006 -0.76472 0
M  V30 11234 H 1084.25 -5.06644 -2.19126 0
M  V30 11235 H 1086.73 -3.19798 -2.66212 0
M  V30 11236 H 1085.61 -3.92065 -3.84156 0
M  V30 11237 H 1085.87 -2.1836 -3.84411 0
M  V30 11238 N 1084.93 0.6715 -1.42579 0
M  V30 11239 C 1085.86 1.79625 -1.40749 0
M  V30 11240 C 1086.84 1.6032 -0.271312 0
M  V30 11241 O 1088.02 1.82749 -0.46205 0
M  V30 11242 C 1085.15 3.16672 -1.20153 0
M  V30 11243 C 1084.19 3.54718 -2.36807 0
M  V30 11244 S 1085.03 3.56771 -3.99343 0
M  V30 11245 C 1086.18 4.96505 -3.81095 0
M  V30 11246 H 1086.42 1.80903 -2.35926 0
M  V30 11247 H 1083.95 0.842469 -1.2939 0
M  V30 11248 H 1085.91 3.95776 -1.08956 0
M  V30 11249 H 1084.57 3.12976 -0.265545 0
M  V30 11250 H 1083.76 4.54341 -2.18152 0
M  V30 11251 H 1083.36 2.82982 -2.44535 0
M  V30 11252 H 1085.65 5.84674 -3.4229 0
M  V30 11253 H 1086.6 5.20207 -4.80406 0
M  V30 11254 H 1087.01 4.69178 -3.13898 0
M  V30 11255 N 1086.4 1.28806 0.908124 0
M  V30 11256 C 1087.82 1.06634 1.18749 0
M  V30 11257 C 1088.02 -0.187729 2.00624 0
M  V30 11258 O 1087.08 -0.88784 2.36376 0
M  V30 11259 C 1088.39 2.31703 1.91661 0
M  V30 11260 C 1089.94 2.36939 2.04521 0
M  V30 11261 C 1090.41 3.61789 2.80843 0
M  V30 11262 N 1091.9 3.62462 2.88402 0
M  V30 11263 C 1092.64 4.55746 3.47971 0
M  V30 11264 N 1092.13 5.59353 4.08774 0
M  V30 11265 N 1093.93 4.43331 3.45564 0
M  V30 11266 H 1086.08 2.09299 0.36164 0
M  V30 11267 H 1088.34 0.921479 0.222668 0
M  V30 11268 H 1088.05 3.23096 1.38931 0
M  V30 11269 H 1087.92 2.38556 2.92183 0
M  V30 11270 H 1090.31 1.4604 2.5643 0
M  V30 11271 H 1090.39 2.34077 1.03159 0
M  V30 11272 H 1090.03 4.53035 2.29612 0
M  V30 11273 H 1089.96 3.61907 3.82532 0
M  V30 11274 H 1092.45 2.87544 2.45208 0
M  V30 11275 H 1092.77 6.26668 4.52224 0
M  V30 11276 H 1091.11 5.63173 4.07261 0
M  V30 11277 H 1094.3 3.61587 2.97276 0
M  V30 11278 H 1094.48 5.16216 3.91695 0
M  V30 11279 N 1087.88 -1.11734 1.11145 0
M  V30 11280 C 1089.3 -1.35412 0.844736 0
M  V30 11281 C 1089.5 -1.94347 -0.532111 0
M  V30 11282 O 1088.55 -2.17443 -1.28353 0
M  V30 11283 C 1089.87 -2.28869 1.95037 0
M  V30 11284 C 1091.41 -2.42442 1.97967 0
M  V30 11285 C 1091.89 -3.39219 3.07725 0
M  V30 11286 N 1093.38 -3.4678 3.07079 0
M  V30 11287 C 1094.12 -4.21595 3.88646 0
M  V30 11288 N 1093.61 -4.99411 4.80167 0
M  V30 11289 N 1095.4 -4.17075 3.76835 0
M  V30 11290 H 1087.56 -0.718412 1.99881 0
M  V30 11291 H 1089.82 -0.378787 0.869037 0
M  V30 11292 H 1089.52 -1.92752 2.94176 0
M  V30 11293 H 1089.4 -3.2906 1.84389 0
M  V30 11294 H 1091.79 -2.77835 0.994561 0
M  V30 11295 H 1091.87 -1.42113 2.12691 0
M  V30 11296 H 1091.51 -3.04553 4.0646 0
M  V30 11297 H 1091.44 -4.39394 2.90242 0
M  V30 11298 H 1093.93 -2.91272 2.40767 0
M  V30 11299 H 1094.24 -5.53856 5.38946 0
M  V30 11300 H 1092.59 -4.98582 4.84191 0
M  V30 11301 H 1095.78 -3.55369 3.04681 0
M  V30 11302 H 1095.95 -4.75125 4.40637 0
M  V30 11303 N 1089.36 -0.901303 -1.29284 0
M  V30 11304 C 1090.61 -0.527 -1.95108 0
M  V30 11305 C 1090.93 0.930065 -1.71391 0
M  V30 11306 O 1090.2 1.65601 -1.04658 0
M  V30 11307 H 1088.78 -0.191903 -0.721929 0
M  V30 11308 H 1091.44 -1.14795 -1.57506 0
M  V30 11309 H 1090.54 -0.710945 -3.03895 0
M  V30 11310 N 1090.84 1.42931 -0.663954 0
M  V30 11311 C 1092.25 1.56098 -0.332496 0
M  V30 11312 C 1092.45 1.64564 1.16279 0
M  V30 11313 O 1091.51 1.6066 1.94794 0
M  V30 11314 C 1092.82 2.81649 -1.05329 0
M  V30 11315 C 1094.37 2.95408 -1.03457 0
M  V30 11316 C 1094.85 4.23805 -1.73647 0
M  V30 11317 N 1096.34 4.30693 -1.70462 0
M  V30 11318 C 1097.07 5.28833 -2.21637 0
M  V30 11319 N 1096.57 6.33189 -2.81147 0
M  V30 11320 N 1098.36 5.20558 -2.12075 0
M  V30 11321 H 1090.51 1.3568 -1.63416 0
M  V30 11322 H 1092.77 0.652361 -0.687844 0
M  V30 11323 H 1092.48 2.81494 -2.10842 0
M  V30 11324 H 1092.35 3.72208 -0.611626 0
M  V30 11325 H 1094.74 2.95097 0.0121936 0
M  V30 11326 H 1094.82 2.06109 -1.51502 0
M  V30 11327 H 1094.47 4.24876 -2.78285 0
M  V30 11328 H 1094.4 5.12019 -1.2306 0
M  V30 11329 H 1096.89 3.55904 -1.27046 0
M  V30 11330 H 1097.2 7.04411 -3.17844 0
M  V30 11331 H 1095.55 6.33781 -2.85212 0
M  V30 11332 H 1098.74 4.3795 -1.6528 0
M  V30 11333 H 1098.91 5.96881 -2.52264 0
M  V30 11334 N 1092.32 0.406567 1.52266 0
M  V30 11335 C 1093.28 -0.408251 2.25535 0
M  V30 11336 C 1094.28 -0.975795 1.27808 0
M  V30 11337 O 1095.47 -0.855077 1.5177 0
M  V30 11338 C 1092.6 -1.57443 3.02365 0
M  V30 11339 H 1093.79 0.233459 2.9899 0
M  V30 11340 H 1091.35 0.159032 1.55489 0
M  V30 11341 H 1092.08 -2.25308 2.33252 0
M  V30 11342 H 1091.87 -1.17399 3.74112 0
M  V30 11343 H 1093.36 -2.15088 3.57948 0
M  V30 11344 N 1093.79 -1.57004 0.136909 0
M  V30 11345 C 1095.03 -1.97686 -0.519583 0
M  V30 11346 C 1095.4 -1.01951 -1.62696 0
M  V30 11347 O 1096.6 -1.31639 -2.3436 0
M  V30 11348 C 1094.87 -3.42474 -1.02206 0
M  V30 11349 S 1096.43 -4.05176 -1.68457 0
M  V30 11350 H 1093.25 -0.690787 -0.168329 0
M  V30 11351 H 1095.85 -1.94187 0.226234 0
M  V30 11352 H 1094.55 -4.09887 -0.205194 0
M  V30 11353 H 1094.08 -3.49664 -1.80273 0
M  V30 11354 H 1096.1 -3.97401 -2.97131 0
M  V30 11355 N 1095.27 0.136881 -1.57004 0
M  V30 11356 C 1096.52 0.849031 -1.84172 0
M  V30 11357 C 1096.85 1.80359 -0.720027 0
M  V30 11358 O 1096.13 1.92538 0.275584 0
M  V30 11359 C 1096.41 1.61465 -3.21871 0
M  V30 11360 C 1096.26 0.680902 -4.44616 0
M  V30 11361 C 1097.58 2.57488 -3.56914 0
M  V30 11362 H 1094.7 0.307209 -0.669919 0
M  V30 11363 H 1097.34 0.113862 -1.89659 0
M  V30 11364 H 1095.49 2.24137 -3.17325 0
M  V30 11365 H 1097.16 0.0644094 -4.61255 0
M  V30 11366 H 1095.41 -0.00883629 -4.33799 0
M  V30 11367 H 1096.08 1.25286 -5.37594 0
M  V30 11368 H 1098.55 2.0493 -3.62136 0
M  V30 11369 H 1097.43 3.08101 -4.54274 0
M  V30 11370 H 1097.69 3.39321 -2.83397 0
M  V30 11371 N 1096.75 1.52266 0.40654 0
M  V30 11372 C 1098.17 1.41127 0.745348 0
M  V30 11373 C 1098.37 0.517802 1.94733 0
M  V30 11374 O 1097.42 -0.0154286 2.52495 0
M  V30 11375 C 1098.74 2.83696 0.996859 0
M  V30 11376 C 1100.28 2.93056 1.09942 0
M  V30 11377 C 1100.76 4.36599 1.38367 0
M  V30 11378 N 1102.25 4.39845 1.45226 0
M  V30 11379 C 1102.98 5.47975 1.68852 0
M  V30 11380 N 1102.48 6.66219 1.90065 0
M  V30 11381 N 1104.27 5.35494 1.70888 0
M  V30 11382 H 1096.42 2.08888 -0.384632 0
M  V30 11383 H 1098.69 0.941619 -0.109809 0
M  V30 11384 H 1098.39 3.51208 0.185986 0
M  V30 11385 H 1098.27 3.24895 1.91632 0
M  V30 11386 H 1100.65 2.25723 1.90088 0
M  V30 11387 H 1100.74 2.5531 0.158256 0
M  V30 11388 H 1100.38 5.04492 0.587373 0
M  V30 11389 H 1100.31 4.71883 2.33739 0
M  V30 11390 H 1102.8 3.54611 1.30612 0
M  V30 11391 H 1103.11 7.44408 2.0755 0
M  V30 11392 H 1101.46 6.69279 1.87325 0
M  V30 11393 H 1104.65 4.42093 1.53856 0
M  V30 11394 H 1104.82 6.19837 1.88962 0
M  V30 11395 N 1098.23 -0.663929 1.42933 0
M  V30 11396 C 1099.64 -1.24484 1.39143 0
M  V30 11397 C 1099.99 -1.95993 0.0901142 0
M  V30 11398 O 1099.12 -2.00636 -0.810812 0
M  V30 11399 C 1099.71 -2.26402 2.52047 0
M  V30 11400 C 1098.27 -2.79995 2.51555 0
M  V30 11401 C 1097.42 -1.54475 2.30289 0
M  V30 11402 H 1100.37 -0.456619 1.51989 0
M  V30 11403 H 1100.39 -3.08361 2.22921 0
M  V30 11404 H 1099.9 -1.74328 3.46744 0
M  V30 11405 H 1098 -3.36161 1.60707 0
M  V30 11406 H 1098.11 -3.2827 3.48964 0
M  V30 11407 H 1096.48 -1.81437 1.78753 0
M  V30 11408 H 1097.26 -1.04351 3.27056 0
M  V30 11409 N 1099.71 -1.29285 -0.901281 0
M  V30 11410 C 1100.67 -1.14283 -1.98676 0
M  V30 11411 C 1101.67 -0.0787641 -1.60607 0
M  V30 11412 O 1102.86 -0.325574 -1.71131 0
M  V30 11413 C 1099.99 -0.747279 -3.32609 0
M  V30 11414 H 1101.18 -2.10701 -2.13413 0
M  V30 11415 H 1098.74 -1.12449 -1.08558 0
M  V30 11416 H 1099.47 0.217111 -3.23572 0
M  V30 11417 H 1099.26 -1.51608 -3.61604 0
M  V30 11418 H 1100.75 -0.665322 -4.12266 0
M  V30 11419 N 1101.18 1.11143 -1.11736 0
M  V30 11420 C 1102.42 1.84576 -0.878119 0
M  V30 11421 C 1102.79 1.82851 0.585605 0
M  V30 11422 O 1103.99 2.51763 0.941732 0
M  V30 11423 C 1102.26 3.27628 -1.4281 0
M  V30 11424 S 1103.82 4.18276 -1.3263 0
M  V30 11425 H 1100.64 0.636442 -0.316958 0
M  V30 11426 H 1103.24 1.33794 -1.42546 0
M  V30 11427 H 1101.94 3.2645 -2.48714 0
M  V30 11428 H 1101.47 3.83479 -0.877925 0
M  V30 11429 H 1103.49 4.95335 -0.292878 0
M  V30 11430 N 1102.66 0.908147 1.28804 0
M  V30 11431 C 1103.63 0.397058 2.25735 0
M  V30 11432 C 1104.63 -0.473483 1.53671 0
M  V30 11433 O 1105.82 -0.277335 1.71978 0
M  V30 11434 C 1102.95 -0.431392 3.38159 0
M  V30 11435 H 1104.14 1.25323 2.72459 0
M  V30 11436 H 1101.69 0.687041 1.4039 0
M  V30 11437 H 1102.43 -1.3072 2.96787 0
M  V30 11438 H 1102.21 0.192502 3.91627 0
M  V30 11439 H 1103.7 -0.78 4.10251 0
M  V30 11440 N 1104.14 -1.42577 0.671525 0
M  V30 11441 C 1105.55 -1.84736 0.270084 0
M  V30 11442 C 1105.9 -1.56212 -1.18711 0
M  V30 11443 O 1105.03 -1.02028 -1.90838 0
M  V30 11444 C 1105.62 -3.35334 0.483409 0
M  V30 11445 C 1104.18 -3.76154 0.136119 0
M  V30 11446 C 1103.33 -2.66179 0.777444 0
M  V30 11447 H 1106.28 -1.3247 0.873919 0
M  V30 11448 H 1106.3 -3.79573 -0.265483 0
M  V30 11449 H 1105.81 -3.56063 1.54405 0
M  V30 11450 H 1103.91 -3.61033 -0.921209 0
M  V30 11451 H 1104.03 -4.75645 0.574356 0
M  V30 11452 H 1102.39 -2.53841 0.209055 0
M  V30 11453 H 1103.17 -2.89732 1.84148 0
M  V30 11454 N 1105.62 -0.414636 -1.52048 0
M  V30 11455 C 1106.86 0.159585 -2.02171 0
M  V30 11456 C 1107.2 1.44321 -1.29943 0
M  V30 11457 O 1106.47 1.90185 -0.407402 0
M  V30 11458 C 1106.76 0.401655 -3.57853 0
M  V30 11459 C 1106.61 -0.899026 -4.40724 0
M  V30 11460 C 1107.93 1.1814 -4.23947 0
M  V30 11461 H 1105.05 0.0565257 -0.734829 0
M  V30 11462 H 1107.69 -0.549183 -1.8189 0
M  V30 11463 H 1105.84 1.00541 -3.75265 0
M  V30 11464 H 1107.51 -1.53502 -4.35011 0
M  V30 11465 H 1105.75 -1.50877 -4.06717 0
M  V30 11466 H 1106.42 -0.683974 -5.47746 0
M  V30 11467 H 1108.9 0.670203 -4.10667 0
M  V30 11468 H 1107.78 1.31953 -5.32804 0
M  V30 11469 H 1108.04 2.2035 -3.83273 0
M  V30 11470 N 1107.1 1.56929 -0.145233 0
M  V30 11471 C 1108.03 2.19685 0.791263 0
M  V30 11472 C 1109.01 1.14455 1.25833 0
M  V30 11473 O 1110.19 1.42791 1.31622 0
M  V30 11474 C 1107.32 2.81705 2.03124 0
M  V30 11475 C 1106.28 3.92746 1.70101 0
M  V30 11476 C 1105.6 4.41694 3.01347 0
M  V30 11477 C 1106.9 5.13606 0.949025 0
M  V30 11478 H 1108.6 2.98196 0.26825 0
M  V30 11479 H 1106.14 1.43434 0.127584 0
M  V30 11480 H 1108.1 3.24273 2.69119 0
M  V30 11481 H 1106.82 2.00523 2.57795 0
M  V30 11482 H 1105.48 3.50794 1.06486 0
M  V30 11483 H 1105.13 3.57336 3.54006 0
M  V30 11484 H 1104.83 5.1659 2.80016 0
M  V30 11485 H 1106.35 4.86931 3.68416 0
M  V30 11486 H 1107.76 5.53029 1.51102 0
M  V30 11487 H 1106.16 5.94252 0.835711 0
M  V30 11488 H 1107.23 4.84863 -0.0595631 0
M  V30 11489 N 1108.58 -0.128553 1.57075 0
M  V30 11490 C 1109.53 -1.16373 1.96065 0
M  V30 11491 C 1110.51 -1.37579 0.834323 0
M  V30 11492 O 1111.7 -1.38831 1.09795 0
M  V30 11493 C 1108.83 -2.49276 2.36043 0
M  V30 11494 C 1107.92 -2.31586 3.55287 0
M  V30 11495 N 1108.31 -1.83688 4.71267 0
M  V30 11496 C 1106.61 -2.62275 3.60732 0
M  V30 11497 C 1107.31 -1.79479 5.53319 0
M  V30 11498 N 1106.28 -2.23474 4.95541 0
M  V30 11499 H 1110.08 -0.785792 2.832 0
M  V30 11500 H 1107.6 -0.33641 1.58877 0
M  V30 11501 H 1109.6 -3.24134 2.62188 0
M  V30 11502 H 1108.26 -2.87837 1.50267 0
M  V30 11503 H 1109.27 -1.53376 4.94668 0
M  V30 11504 H 1105.94 -3.04586 2.85541 0
M  V30 11505 H 1107.33 -1.43781 6.56336 0
M  V30 11506 N 1110.05 -1.5248 -0.398459 0
M  V30 11507 C 1111.3 -1.67309 -1.1461 0
M  V30 11508 C 1111.63 -0.407095 -1.89885 0
M  V30 11509 O 1110.91 0.594834 -1.85181 0
M  V30 11510 C 1111.19 -2.90204 -2.13198 0
M  V30 11511 C 1111.04 -4.26881 -1.4175 0
M  V30 11512 C 1112.36 -3.08634 -3.13741 0
M  V30 11513 H 1109.48 -0.608853 -0.415292 0
M  V30 11514 H 1112.12 -1.85057 -0.430573 0
M  V30 11515 H 1110.27 -2.75204 -2.74218 0
M  V30 11516 H 1111.95 -4.53631 -0.837676 0
M  V30 11517 H 1110.19 -4.27793 -0.719387 0
M  V30 11518 H 1110.86 -5.08939 -2.1374 0
M  V30 11519 H 1113.34 -3.22603 -2.62805 0
M  V30 11520 H 1112.21 -3.96117 -3.79977 0
M  V30 11521 H 1112.47 -2.22425 -3.82073 0
M  V30 11522 N 1111.53 0.65634 -1.43283 0
M  V30 11523 C 1112.78 1.41837 -1.44949 0
M  V30 11524 C 1113.11 1.94065 -0.0723212 0
M  V30 11525 O 1112.39 1.72092 0.906346 0
M  V30 11526 C 1112.67 2.60206 -2.48927 0
M  V30 11527 C 1112.52 2.1349 -3.95907 0
M  V30 11528 C 1113.84 3.62421 -2.49678 0
M  V30 11529 H 1110.96 0.514398 -0.527792 0
M  V30 11530 H 1113.6 0.74435 -1.74813 0
M  V30 11531 H 1111.75 3.17708 -2.23592 0
M  V30 11532 H 1113.42 1.61012 -4.32288 0
M  V30 11533 H 1111.67 1.4489 -4.08888 0
M  V30 11534 H 1112.34 2.98596 -4.64268 0
M  V30 11535 H 1114.81 3.14671 -2.72252 0
M  V30 11536 H 1113.69 4.42798 -3.24378 0
M  V30 11537 H 1113.95 4.14802 -1.52944 0
M  V30 11538 N 1113.01 1.29761 0.894412 0
M  V30 11539 C 1114.42 1.16275 1.46072 0
M  V30 11540 C 1114.77 -0.240123 1.94725 0
M  V30 11541 O 1113.9 -1.13606 1.84181 0
M  V30 11542 C 1114.49 2.10471 2.65494 0
M  V30 11543 C 1113.05 2.00992 3.18244 0
M  V30 11544 C 1112.2 2.01094 1.90936 0
M  V30 11545 H 1115.15 1.42169 0.705243 0
M  V30 11546 H 1115.17 1.68003 3.41402 0
M  V30 11547 H 1114.68 3.12566 2.30053 0
M  V30 11548 H 1112.78 1.02005 3.58365 0
M  V30 11549 H 1112.9 2.88916 3.82184 0
M  V30 11550 H 1111.26 1.45764 2.08866 0
M  V30 11551 H 1112.04 3.04902 1.57764 0
M  V30 11552 N 1114.49 -1.10549 1.12324 0
M  V30 11553 C 1115.45 -2.15039 0.793156 0
M  V30 11554 C 1116.45 -1.59651 -0.19192 0
M  V30 11555 O 1117.64 -1.74167 0.0337262 0
M  V30 11556 C 1114.77 -3.40433 0.17842 0
M  V30 11557 H 1115.97 -2.4575 1.71892 0
M  V30 11558 H 1113.52 -1.25892 0.926333 0
M  V30 11559 H 1114.25 -3.15338 -0.757122 0
M  V30 11560 H 1114.04 -3.81921 0.887645 0
M  V30 11561 H 1115.53 -4.17584 -0.0360724 0
M  V30 11562 N 1115.97 -0.914965 -1.28321 0
M  V30 11563 C 1117.21 -0.549562 -1.95212 0
M  V30 11564 C 1117.54 0.904658 -1.71842 0
M  V30 11565 O 1116.82 1.64354 -1.04009 0
M  V30 11566 C 1117.1 -0.860927 -3.49657 0
M  V30 11567 C 1116.96 -2.36797 -3.82423 0
M  V30 11568 C 1118.27 -0.357926 -4.38642 0
M  V30 11569 H 1115.39 -0.201136 -0.709023 0
M  V30 11570 H 1118.04 -1.14443 -1.51667 0
M  V30 11571 H 1116.19 -0.354665 -3.86878 0
M  V30 11572 H 1117.86 -2.94494 -3.55065 0
M  V30 11573 H 1116.1 -2.82245 -3.29424 0
M  V30 11574 H 1116.77 -2.53637 -4.90278 0
M  V30 11575 H 1119.25 -0.791636 -4.085 0
M  V30 11576 H 1118.12 -0.604855 -5.45557 0
M  V30 11577 H 1118.38 0.741775 -4.35833 0
M  V30 11578 N 1117.44 1.42219 -0.679077 0
M  V30 11579 C 1118.67 2.06333 -0.210097 0
M  V30 11580 C 1119.09 1.50703 1.12562 0
M  V30 11581 O 1118.45 0.627241 1.70104 0
M  V30 11582 C 1118.5 3.60243 -0.160322 0
M  V30 11583 O 1117.6 4.03122 0.869872 0
M  V30 11584 H 1116.94 0.655362 -0.106754 0
M  V30 11585 H 1119.47 1.82278 -0.929294 0
M  V30 11586 H 1119.48 4.07997 0.014384 0
M  V30 11587 H 1118.16 4.00106 -1.13526 0
M  V30 11588 H 1116.74 3.66907 0.66586 0
M  V30 11589 N 1118.92 0.422693 1.51826 0
M  V30 11590 C 1120.2 -0.20786 1.94492 0
M  V30 11591 C 1120.58 -1.61414 1.36047 0
M  V30 11592 O 1119.93 -2.21987 0.541657 0
M  V30 11593 C 1120.14 -0.200457 3.48424 0
M  V30 11594 C 1121.48 -0.413199 4.22585 0
M  V30 11595 O 1122.51 -0.27922 3.55104 0
M  V30 11596 O 1121.37 -0.678469 5.42272 0
M  V30 11597 H 1118.46 -0.137851 0.81543 0
M  V30 11598 H 1121.01 0.479617 1.62781 0
M  V30 11599 H 1119.78 0.783263 3.83381 0
M  V30 11600 H 1119.4 -0.931464 3.86535 0
M  V30 11601 N 1120.4 -1.5685 0.153553 0
M  V30 11602 C 1121.33 -2.12888 -0.821829 0
M  V30 11603 C 1122.31 -1.05418 -1.23798 0
M  V30 11604 O 1123.49 -1.33288 -1.33292 0
M  V30 11605 C 1120.62 -2.65394 -2.10438 0
M  V30 11606 C 1119.67 -3.85071 -1.83364 0
M  V30 11607 S 1120.5 -5.2572 -1.01877 0
M  V30 11608 C 1121.66 -5.81619 -2.31236 0
M  V30 11609 H 1121.89 -2.95288 -0.345314 0
M  V30 11610 H 1119.42 -1.5428 -0.0608377 0
M  V30 11611 H 1121.38 -2.96294 -2.84113 0
M  V30 11612 H 1120.04 -1.83112 -2.55204 0
M  V30 11613 H 1119.23 -4.20076 -2.78482 0
M  V30 11614 H 1118.84 -3.54965 -1.17794 0
M  V30 11615 H 1121.13 -5.9345 -3.26838 0
M  V30 11616 H 1122.07 -6.79054 -2.00727 0
M  V30 11617 H 1122.48 -5.09909 -2.42184 0
M  V30 11618 N 1121.88 0.120221 -1.57141 0
M  V30 11619 C 1122.79 1.16641 -2.03549 0
M  V30 11620 C 1123.8 1.45407 -0.955656 0
M  V30 11621 O 1124.98 1.56547 -1.26708 0
M  V30 11622 C 1122.04 2.4734 -2.42948 0
M  V30 11623 C 1121.11 2.25982 -3.65008 0
M  V30 11624 C 1120.34 3.50449 -4.02518 0
M  V30 11625 O 1120.56 4.57706 -3.40384 0
M  V30 11626 O 1119.5 3.41524 -4.95626 0
M  V30 11627 H 1123.32 0.802323 -2.9291 0
M  V30 11628 H 1120.91 0.330927 -1.45689 0
M  V30 11629 H 1122.79 3.24348 -2.69029 0
M  V30 11630 H 1121.46 2.83225 -1.56733 0
M  V30 11631 H 1120.37 1.46837 -3.44078 0
M  V30 11632 H 1121.7 1.95002 -4.51924 0
M  V30 11633 N 1123.36 1.52689 0.390367 0
M  V30 11634 C 1124.29 1.80338 1.48325 0
M  V30 11635 C 1125.27 0.655338 1.56969 0
M  V30 11636 O 1126.45 0.902792 1.7194 0
M  V30 11637 C 1123.58 1.97101 2.85952 0
M  V30 11638 C 1122.54 3.12783 2.92148 0
M  V30 11639 C 1121.86 3.14798 4.32211 0
M  V30 11640 C 1123.16 4.5188 2.61919 0
M  V30 11641 H 1124.86 2.71857 1.25437 0
M  V30 11642 H 1122.4 1.30813 0.601995 0
M  V30 11643 H 1124.36 2.15027 3.62411 0
M  V30 11644 H 1123.08 1.02271 3.10174 0
M  V30 11645 H 1121.74 2.94638 2.18137 0
M  V30 11646 H 1121.39 2.17653 4.53471 0
M  V30 11647 H 1121.09 3.92507 4.37278 0
M  V30 11648 H 1122.61 3.34877 5.10578 0
M  V30 11649 H 1124.02 4.70134 3.28096 0
M  V30 11650 H 1122.42 5.31647 2.78337 0
M  V30 11651 H 1123.49 4.58689 1.57266 0
M  V30 11652 N 1124.83 -0.648732 1.43629 0
M  V30 11653 C 1126.06 -1.44117 1.49148 0
M  V30 11654 C 1126.48 -1.87767 0.111952 0
M  V30 11655 O 1125.84 -1.57655 -0.895249 0
M  V30 11656 C 1125.89 -2.64938 2.44623 0
M  V30 11657 O 1124.99 -3.64155 1.93559 0
M  V30 11658 H 1124.34 -0.431933 0.504312 0
M  V30 11659 H 1126.87 -0.793439 1.88589 0
M  V30 11660 H 1126.88 -3.12698 2.62076 0
M  V30 11661 H 1125.55 -2.3251 3.44836 0
M  V30 11662 H 1124.13 -3.23322 1.85789 0
M  V30 11663 N 1126.31 -1.30234 -0.887518 0
M  V30 11664 C 1127.22 -1.18316 -2.02579 0
M  V30 11665 C 1128.24 -0.103658 -1.73691 0
M  V30 11666 O 1129.41 -0.3181 -1.98872 0
M  V30 11667 C 1126.48 -0.873222 -3.35523 0
M  V30 11668 C 1125.54 -2.03783 -3.7785 0
M  V30 11669 C 1124.77 -1.74258 -5.0445 0
M  V30 11670 O 1125 -0.669295 -5.6646 0
M  V30 11671 O 1123.93 -2.59423 -5.43124 0
M  V30 11672 H 1127.76 -2.13933 -2.15561 0
M  V30 11673 H 1125.34 -1.09803 -1.0131 0
M  V30 11674 H 1127.22 -0.715463 -4.15282 0
M  V30 11675 H 1125.9 0.053056 -3.23657 0
M  V30 11676 H 1124.81 -2.2509 -2.98806 0
M  V30 11677 H 1126.14 -2.94574 -3.94318 0
M  V30 11678 N 1127.79 1.09952 -1.12909 0
M  V30 11679 C 1129.02 1.8579 -0.910483 0
M  V30 11680 C 1129.43 1.80898 0.540484 0
M  V30 11681 O 1128.79 1.20126 1.3739 0
M  V30 11682 C 1128.84 3.33987 -1.38329 0
M  V30 11683 O 1128.56 3.38811 -2.77739 0
M  V30 11684 C 1130.06 4.26683 -1.20234 0
M  V30 11685 H 1127.28 0.587026 -0.325025 0
M  V30 11686 H 1129.83 1.38965 -1.5003 0
M  V30 11687 H 1127.98 3.78259 -0.836592 0
M  V30 11688 H 1128.4 4.31204 -2.98603 0
M  V30 11689 H 1129.87 5.28846 -1.58197 0
M  V30 11690 H 1130.35 4.38966 -0.14344 0
M  V30 11691 H 1130.95 3.88221 -1.73679 0
M  V30 11692 N 1129.27 0.921757 1.27833 0
M  V30 11693 C 1130.18 0.421668 2.30779 0
M  V30 11694 C 1131.19 -0.494686 1.6682 0
M  V30 11695 O 1132.37 -0.378935 1.97803 0
M  V30 11696 C 1129.44 -0.322928 3.45193 0
M  V30 11697 C 1128.5 0.627618 4.24687 0
M  V30 11698 C 1127.73 -0.0815385 5.33638 0
M  V30 11699 O 1127.95 -1.30193 5.55343 0
M  V30 11700 O 1126.89 0.58725 5.99028 0
M  V30 11701 H 1130.71 1.2763 2.7558 0
M  V30 11702 H 1128.3 0.686877 1.32674 0
M  V30 11703 H 1130.18 -0.743145 4.14796 0
M  V30 11704 H 1128.85 -1.15326 3.02459 0
M  V30 11705 H 1127.76 1.09739 3.57642 0
M  V30 11706 H 1129.09 1.425 4.71121 0
M  V30 11707 N 1130.75 -1.41857 0.686609 0
M  V30 11708 C 1131.97 -2.05699 0.222561 0
M  V30 11709 C 1132.39 -1.51636 -1.12481 0
M  V30 11710 O 1131.75 -0.660925 -1.70112 0
M  V30 11711 C 1131.8 -3.61138 0.161818 0
M  V30 11712 O 1131.52 -4.13199 1.45596 0
M  V30 11713 C 1133.02 -4.42112 -0.324304 0
M  V30 11714 H 1130.24 -0.662665 0.10543 0
M  V30 11715 H 1132.78 -1.81788 0.936671 0
M  V30 11716 H 1130.94 -3.8412 -0.503056 0
M  V30 11717 H 1131.35 -5.0717 1.33712 0
M  V30 11718 H 1132.83 -5.51097 -0.315694 0
M  V30 11719 H 1133.3 -4.1756 -1.36164 0
M  V30 11720 H 1133.91 -4.24174 0.309251 0
M  V30 11721 N 1132.22 -0.430739 -1.51599 0
M  V30 11722 C 1133.64 -0.0826902 -1.59386 0
M  V30 11723 C 1133.84 1.40729 -1.44214 0
M  V30 11724 O 1132.9 2.1765 -1.28002 0
M  V30 11725 C 1134.21 -0.59691 -2.94716 0
M  V30 11726 C 1135.76 -0.556772 -3.08008 0
M  V30 11727 C 1136.23 -1.04786 -4.45852 0
M  V30 11728 N 1137.72 -1.00557 -4.52153 0
M  V30 11729 C 1138.46 -1.35649 -5.57124 0
M  V30 11730 N 1137.95 -1.77994 -6.69545 0
M  V30 11731 N 1139.75 -1.27508 -5.47447 0
M  V30 11732 H 1131.9 -1.40027 -1.59707 0
M  V30 11733 H 1134.16 -0.576606 -0.752482 0
M  V30 11734 H 1133.87 -1.63914 -3.11167 0
M  V30 11735 H 1133.74 -0.0182342 -3.77196 0
M  V30 11736 H 1136.13 0.476457 -2.91228 0
M  V30 11737 H 1136.21 -1.17177 -2.27383 0
M  V30 11738 H 1135.85 -2.07952 -4.63377 0
M  V30 11739 H 1135.78 -0.409461 -5.25006 0
M  V30 11740 H 1138.27 -0.694518 -3.71463 0
M  V30 11741 H 1138.59 -2.03026 -7.45654 0
M  V30 11742 H 1136.93 -1.81916 -6.70769 0
M  V30 11743 H 1140.12 -0.942969 -4.58504 0
M  V30 11744 H 1140.3 -1.55185 -6.29143 0
M  V30 11745 N 1133.7 1.56767 -0.161869 0
M  V30 11746 C 1134.93 2.01401 0.49523 0
M  V30 11747 C 1135.35 1.04133 1.56646 0
M  V30 11748 O 1134.71 0.0193747 1.8129 0
M  V30 11749 C 1134.76 3.44695 1.05913 0
M  V30 11750 O 1133.86 3.50475 2.1735 0
M  V30 11751 H 1133.2 0.65314 0.1196 0
M  V30 11752 H 1135.73 2.02903 -0.26298 0
M  V30 11753 H 1135.74 3.83805 1.3841 0
M  V30 11754 H 1134.42 4.14991 0.274749 0
M  V30 11755 H 1133 3.23218 1.85969 0
M  V30 11756 N 1135.18 -0.111886 1.57202 0
M  V30 11757 C 1136.11 -1.16274 1.97517 0
M  V30 11758 C 1137.13 -1.37259 0.875425 0
M  V30 11759 O 1138.31 -1.36208 1.15367 0
M  V30 11760 C 1135.41 -2.52145 2.26442 0
M  V30 11761 C 1134.59 -2.51666 3.57747 0
M  V30 11762 C 1133.65 -3.69337 3.74802 0
M  V30 11763 O 1132.67 -3.52596 4.46839 0
M  V30 11764 N 1133.87 -4.88177 3.14108 0
M  V30 11765 H 1136.64 -0.819747 2.88271 0
M  V30 11766 H 1134.2 -0.301076 1.59076 0
M  V30 11767 H 1136.19 -3.29437 2.3506 0
M  V30 11768 H 1134.76 -2.78599 1.41779 0
M  V30 11769 H 1133.98 -1.60038 3.60252 0
M  V30 11770 H 1135.27 -2.48408 4.44039 0
M  V30 11771 H 1134.67 -5.04682 2.55564 0
M  V30 11772 H 1133.23 -5.6312 3.28237 0
M  V30 11773 N 1136.66 -1.52894 -0.382264 0
M  V30 11774 C 1138.07 -1.42295 -0.722802 0
M  V30 11775 C 1138.27 -0.548717 -1.93885 0
M  V30 11776 O 1137.33 -0.0247431 -2.52488 0
M  V30 11777 C 1138.64 -2.85246 -0.9516 0
M  V30 11778 C 1140.19 -2.94768 -1.05265 0
M  V30 11779 C 1140.67 -4.38745 -1.31404 0
M  V30 11780 N 1142.16 -4.421 -1.38211 0
M  V30 11781 C 1142.89 -5.50592 -1.60113 0
M  V30 11782 N 1142.39 -6.69158 -1.79442 0
M  V30 11783 N 1144.18 -5.38145 -1.62347 0
M  V30 11784 H 1136.33 -2.0825 0.417816 0
M  V30 11785 H 1138.6 -0.939753 0.124776 0
M  V30 11786 H 1138.3 -3.51459 -0.130088 0
M  V30 11787 H 1138.18 -3.27903 -1.86439 0
M  V30 11788 H 1140.56 -2.28718 -1.86472 0
M  V30 11789 H 1140.64 -2.55529 -0.117619 0
M  V30 11790 H 1140.29 -5.05363 -0.507038 0
M  V30 11791 H 1140.22 -4.75542 -2.26202 0
M  V30 11792 H 1142.71 -3.56644 -1.24954 0
M  V30 11793 H 1143.02 -7.47615 -1.95681 0
M  V30 11794 H 1141.37 -6.72175 -1.76653 0
M  V30 11795 H 1144.56 -4.44485 -1.46803 0
M  V30 11796 H 1144.73 -6.22764 -1.79077 0
M  V30 11797 N 1138.14 0.641106 -1.43971 0
M  V30 11798 C 1139.08 1.75352 -1.50068 0
M  V30 11799 C 1140.05 1.62386 -0.349266 0
M  V30 11800 O 1141.24 1.82455 -0.558118 0
M  V30 11801 C 1138.38 3.13561 -1.4413 0
M  V30 11802 C 1137.49 3.37574 -2.6957 0
M  V30 11803 C 1136.63 4.65698 -2.55535 0
M  V30 11804 C 1135.67 4.82857 -3.76186 0
M  V30 11805 N 1134.8 6.02249 -3.60888 0
M  V30 11806 H 1139.64 1.69477 -2.45116 0
M  V30 11807 H 1137.18 0.826871 -1.2166 0
M  V30 11808 H 1139.14 3.93476 -1.38681 0
M  V30 11809 H 1137.77 3.18476 -0.526563 0
M  V30 11810 H 1136.82 2.5167 -2.85248 0
M  V30 11811 H 1138.13 3.46135 -3.59154 0
M  V30 11812 H 1137.29 5.53759 -2.47862 0
M  V30 11813 H 1136.03 4.59479 -1.63495 0
M  V30 11814 H 1135.03 3.93229 -3.84254 0
M  V30 11815 H 1136.26 4.90898 -4.6925 0
M  V30 11816 H 1134.2 5.97138 -2.71591 0
M  V30 11817 H 1134.12 6.11822 -4.44083 0
M  V30 11818 H 1135.39 6.92898 -3.57088 0
M  V30 11819 N 1139.62 1.30703 0.880598 0
M  V30 11820 C 1140.86 1.19955 1.63519 0
M  V30 11821 C 1141.19 -0.244214 1.92658 0
M  V30 11822 O 1140.47 -1.17412 1.55063 0
M  V30 11823 C 1140.75 2.03302 2.97221 0
M  V30 11824 C 1140.61 3.55921 2.75028 0
M  V30 11825 C 1141.92 1.87421 3.98198 0
M  V30 11826 H 1139.04 0.43712 0.593376 0
M  V30 11827 H 1141.69 1.60382 1.01871 0
M  V30 11828 H 1139.84 1.68953 3.49839 0
M  V30 11829 H 1141.51 4.00352 2.29164 0
M  V30 11830 H 1139.75 3.79885 2.09452 0
M  V30 11831 H 1140.42 4.09533 3.70117 0
M  V30 11832 H 1142.9 2.17459 3.54755 0
M  V30 11833 H 1141.77 2.48057 4.89652 0
M  V30 11834 H 1142.03 0.834563 4.34151 0
M  V30 11835 N 1141.09 -1.09351 1.1349 0
M  V30 11836 C 1142.34 -1.81185 0.89535 0
M  V30 11837 C 1142.66 -1.86173 -0.580048 0
M  V30 11838 O 1141.93 -1.34784 -1.42162 0
M  V30 11839 H 1140.51 -0.671011 0.328257 0
M  V30 11840 H 1143.17 -1.32255 1.43159 0
M  V30 11841 H 1142.27 -2.84339 1.28676 0
M  V30 11842 N 1142.57 -0.928524 -1.27343 0
M  V30 11843 C 1143.82 -0.568267 -1.93946 0
M  V30 11844 C 1144.14 0.893501 -1.73325 0
M  V30 11845 O 1143.41 1.63344 -1.08147 0
M  V30 11846 H 1141.99 -0.207173 -0.717696 0
M  V30 11847 H 1144.65 -1.1811 -1.55036 0
M  V30 11848 H 1143.75 -0.775246 -3.02318 0
M  V30 11849 N 1144.05 1.41491 -0.694123 0
M  V30 11850 C 1145.3 2.00854 -0.224033 0
M  V30 11851 C 1145.62 1.55246 1.17999 0
M  V30 11852 O 1144.89 0.782452 1.79595 0
M  V30 11853 H 1143.47 0.742721 -0.0798368 0
M  V30 11854 H 1146.13 1.73137 -0.894958 0
M  V30 11855 H 1145.23 3.11173 -0.240332 0
M  V30 11856 N 1145.53 0.438773 1.51369 0
M  V30 11857 C 1146.75 -0.128221 2.07003 0
M  V30 11858 C 1147.18 -1.3557 1.30393 0
M  V30 11859 O 1146.54 -1.7804 0.342283 0
M  V30 11860 C 1146.58 -0.42761 3.58056 0
M  V30 11861 O 1145.69 -1.51382 3.83611 0
M  V30 11862 H 1145.03 -0.00123679 0.663999 0
M  V30 11863 H 1147.56 0.62052 1.94963 0
M  V30 11864 H 1147.57 -0.677645 4.02333 0
M  V30 11865 H 1146.24 0.469535 4.13241 0
M  V30 11866 H 1144.82 -1.25363 3.51196 0
M  V30 11867 N 1147.01 -1.56678 0.170181 0
M  V30 11868 C 1147.97 -2.16698 -0.746622 0
M  V30 11869 C 1148.97 -1.11475 -1.15888 0
M  V30 11870 O 1150.16 -1.36994 -1.07602 0
M  V30 11871 C 1147.29 -2.74892 -2.01612 0
M  V30 11872 H 1148.48 -2.99061 -0.224135 0
M  V30 11873 H 1146.04 -1.56098 -0.0793761 0
M  V30 11874 H 1146.77 -1.96259 -2.58172 0
M  V30 11875 H 1146.56 -3.51896 -1.72949 0
M  V30 11876 H 1148.05 -3.21058 -2.67042 0
M  V30 11877 N 1148.48 0.103547 -1.57259 0
M  V30 11878 C 1149.42 1.15225 -1.98131 0
M  V30 11879 C 1150.43 1.36793 -0.882692 0
M  V30 11880 O 1151.62 1.35595 -1.16088 0
M  V30 11881 C 1148.72 2.50941 -2.27776 0
M  V30 11882 C 1147.89 2.49765 -3.59077 0
M  V30 11883 C 1146.95 3.67344 -3.76756 0
M  V30 11884 O 1145.98 3.50221 -4.48702 0
M  V30 11885 N 1147.18 4.86504 -3.16692 0
M  V30 11886 H 1149.94 0.804448 -2.88702 0
M  V30 11887 H 1147.5 0.292636 -1.59233 0
M  V30 11888 H 1149.5 3.28186 -2.36804 0
M  V30 11889 H 1148.07 2.77843 -1.43255 0
M  V30 11890 H 1147.29 1.58125 -3.61096 0
M  V30 11891 H 1148.57 2.4605 -4.4535 0
M  V30 11892 H 1147.97 5.03319 -2.58236 0
M  V30 11893 H 1146.53 5.61371 -3.31218 0
M  V30 11894 N 1149.96 1.53094 0.37415 0
M  V30 11895 C 1151.37 1.60641 0.951381 0
M  V30 11896 C 1151.72 0.468474 1.90525 0
M  V30 11897 O 1150.85 -0.406347 2.12551 0
M  V30 11898 C 1151.44 2.91166 1.73228 0
M  V30 11899 C 1150 3.01077 2.25898 0
M  V30 11900 C 1149.15 2.55873 1.06885 0
M  V30 11901 H 1152.1 1.57959 0.153214 0
M  V30 11902 H 1152.12 2.78487 2.59278 0
M  V30 11903 H 1151.63 3.73968 1.03778 0
M  V30 11904 H 1149.73 2.22844 2.98615 0
M  V30 11905 H 1149.85 4.05998 2.54367 0
M  V30 11906 H 1148.21 2.10544 1.43329 0
M  V30 11907 H 1148.99 3.41084 0.38947 0
M  V30 11908 N 1151.44 -0.633461 1.44309 0
M  V30 11909 C 1152.68 -1.40465 1.48489 0
M  V30 11910 C 1153.04 -1.91664 0.113519 0
M  V30 11911 O 1154.24 -2.68783 0.0299948 0
M  V30 11912 C 1152.52 -2.54041 2.51392 0
M  V30 11913 S 1154.07 -3.42256 2.74602 0
M  V30 11914 H 1150.89 -0.479228 0.525225 0
M  V30 11915 H 1153.49 -0.733561 1.81216 0
M  V30 11916 H 1152.2 -2.14734 3.49739 0
M  V30 11917 H 1151.73 -3.25979 2.2023 0
M  V30 11918 H 1153.74 -4.51409 2.06021 0
M  V30 11919 N 1152.92 -1.31168 -0.873655 0
M  V30 11920 C 1154.2 -1.11285 -1.60857 0
M  V30 11921 C 1154.58 0.333788 -2.08444 0
M  V30 11922 O 1153.92 1.32726 -1.86 0
M  V30 11923 C 1154.13 -2.12379 -2.7694 0
M  V30 11924 C 1155.48 -2.44704 -3.46994 0
M  V30 11925 O 1156.51 -2.10778 -2.87143 0
M  V30 11926 O 1155.36 -3.02786 -4.54954 0
M  V30 11927 H 1152.46 -0.428177 -0.707526 0
M  V30 11928 H 1155 -1.42634 -0.91944 0
M  V30 11929 H 1153.78 -3.09703 -2.39164 0
M  V30 11930 H 1153.4 -1.81914 -3.53544 0
M  V30 11931 N 1154.4 1.08748 -1.14068 0
M  V30 11932 C 1155.62 1.85353 -0.930532 0
M  V30 11933 C 1156.05 1.80892 0.515717 0
M  V30 11934 O 1155.4 1.19146 1.36652 0
M  V30 11935 C 1155.45 3.30962 -1.43167 0
M  V30 11936 O 1154.56 4.0769 -0.621468 0
M  V30 11937 H 1153.9 0.574485 -0.332962 0
M  V30 11938 H 1156.43 1.37282 -1.51707 0
M  V30 11939 H 1156.44 3.81807 -1.43832 0
M  V30 11940 H 1155.11 3.33524 -2.48464 0
M  V30 11941 H 1153.69 3.66587 -0.683267 0
M  V30 11942 N 1155.87 0.935264 1.26849 0
M  V30 11943 C 1157.12 0.575467 1.93317 0
M  V30 11944 C 1157.44 -0.88876 1.74242 0
M  V30 11945 O 1158.64 -1.35767 2.35116 0
M  V30 11946 C 1157.1 0.978433 3.46345 0
M  V30 11947 C 1156.71 2.46386 3.74163 0
M  V30 11948 C 1158.45 0.690249 4.18851 0
M  V30 11949 C 1156.36 2.80584 5.20602 0
M  V30 11950 H 1155.29 0.211506 0.723727 0
M  V30 11951 H 1157.94 1.1371 1.44022 0
M  V30 11952 H 1156.32 0.345379 3.94491 0
M  V30 11953 H 1157.49 3.14547 3.36745 0
M  V30 11954 H 1155.81 2.72473 3.14877 0
M  V30 11955 H 1158.41 0.922151 5.26688 0
M  V30 11956 H 1158.75 -0.372805 4.14627 0
M  V30 11957 H 1159.28 1.28275 3.76551 0
M  V30 11958 H 1156.02 3.85828 5.29921 0
M  V30 11959 H 1155.54 2.1708 5.59139 0
M  V30 11960 H 1157.22 2.68732 5.88551 0
M  V30 11961 N 1157.35 -1.41121 0.701616 0
M  V30 11962 C 1158.6 -2.01428 0.235495 0
M  V30 11963 C 1158.93 -1.55463 -1.16382 0
M  V30 11964 O 1158.21 -0.768477 -1.78675 0
M  V30 11965 C 1158.49 -3.58849 0.299919 0
M  V30 11966 C 1158.34 -4.14924 1.73661 0
M  V30 11967 C 1159.66 -4.38809 -0.336856 0
M  V30 11968 H 1156.78 -0.731842 0.0870456 0
M  V30 11969 H 1159.42 -1.67787 0.891479 0
M  V30 11970 H 1157.57 -3.87638 -0.258611 0
M  V30 11971 H 1159.24 -3.96987 2.34945 0
M  V30 11972 H 1157.49 -3.69738 2.26884 0
M  V30 11973 H 1158.16 -5.24085 1.73318 0
M  V30 11974 H 1160.63 -4.15868 0.138886 0
M  V30 11975 H 1159.51 -5.48278 -0.261264 0
M  V30 11976 H 1159.77 -4.18728 -1.41843 0
M  V30 11977 N 1158.83 -0.446794 -1.51134 0
M  V30 11978 C 1160.08 0.116666 -2.02464 0
M  V30 11979 C 1160.41 1.41532 -1.32975 0
M  V30 11980 O 1159.68 1.89278 -0.447651 0
M  V30 11981 C 1159.97 0.325659 -3.58624 0
M  V30 11982 C 1159.82 -0.992307 -4.38718 0
M  V30 11983 C 1161.14 1.09121 -4.26357 0
M  V30 11984 H 1158.26 0.0409262 -0.735863 0
M  V30 11985 H 1160.9 -0.587641 -1.80684 0
M  V30 11986 H 1159.05 0.925585 -3.77313 0
M  V30 11987 H 1160.72 -1.62694 -4.31658 0
M  V30 11988 H 1158.97 -1.5947 -4.03425 0
M  V30 11989 H 1159.64 -0.800005 -5.46172 0
M  V30 11990 H 1162.11 0.582944 -4.11996 0
M  V30 11991 H 1160.99 1.20621 -5.35483 0
M  V30 11992 H 1161.25 2.12171 -3.87861 0
M  V30 11993 N 1160.31 1.56586 -0.178487 0
M  V30 11994 C 1161.27 2.17091 0.73512 0
M  V30 11995 C 1162.27 1.12088 1.15295 0
M  V30 11996 O 1163.46 1.37563 1.06874 0
M  V30 11997 C 1160.59 2.75957 2.00151 0
M  V30 11998 H 1161.79 2.99176 0.208272 0
M  V30 11999 H 1159.34 1.56138 0.0710967 0
M  V30 12000 H 1160.07 1.97626 2.57127 0
M  V30 12001 H 1159.86 3.52809 1.7108 0
M  V30 12002 H 1161.35 3.2247 2.65335 0
M  V30 12003 N 1161.79 -0.095206 1.57312 0
M  V30 12004 C 1163.02 -0.811092 1.90013 0
M  V30 12005 C 1163.42 -1.72807 0.770359 0
M  V30 12006 O 1162.77 -1.81755 -0.266615 0
M  V30 12007 C 1162.83 -1.67744 3.17966 0
M  V30 12008 C 1162.49 -0.932301 4.47389 0
M  V30 12009 C 1163.49 -0.262161 5.19239 0
M  V30 12010 C 1161.18 -0.906414 4.94054 0
M  V30 12011 C 1163.17 0.423898 6.35989 0
M  V30 12012 C 1160.86 -0.216569 6.10716 0
M  V30 12013 C 1161.85 0.447408 6.81533 0
M  V30 12014 O 1161.54 1.12619 7.95972 0
M  V30 12015 H 1161.27 -0.237154 0.633035 0
M  V30 12016 H 1163.83 -0.0768976 2.05256 0
M  V30 12017 H 1162.06 -2.45387 2.98868 0
M  V30 12018 H 1163.75 -2.26988 3.36498 0
M  V30 12019 H 1164.51 -0.273621 4.84228 0
M  V30 12020 H 1160.39 -1.41267 4.38822 0
M  V30 12021 H 1163.94 0.942727 6.91201 0
M  V30 12022 H 1159.83 -0.202955 6.45181 0
M  V30 12023 H 1160.6 1.03308 8.11954 0
M  V30 12024 N 1163.26 -1.53291 -0.366026 0
M  V30 12025 C 1164.49 -1.73108 -1.1277 0
M  V30 12026 C 1164.9 -0.459662 -1.83531 0
M  V30 12027 O 1164.25 0.577151 -1.74398 0
M  V30 12028 C 1164.31 -2.84137 -2.20242 0
M  V30 12029 C 1163.97 -4.24503 -1.69252 0
M  V30 12030 C 1164.97 -5.06866 -1.15684 0
M  V30 12031 C 1162.65 -4.70912 -1.74778 0
M  V30 12032 C 1164.65 -6.33728 -0.683191 0
M  V30 12033 C 1162.33 -5.97752 -1.27025 0
M  V30 12034 C 1163.33 -6.78992 -0.738858 0
M  V30 12035 O 1163.02 -8.03452 -0.268375 0
M  V30 12036 H 1162.75 -0.582439 -0.343134 0
M  V30 12037 H 1165.31 -2.00828 -0.430969 0
M  V30 12038 H 1163.54 -2.5189 -2.93408 0
M  V30 12039 H 1165.23 -2.92136 -2.818 0
M  V30 12040 H 1165.99 -4.72185 -1.10753 0
M  V30 12041 H 1161.87 -4.07751 -2.15081 0
M  V30 12042 H 1165.41 -6.97086 -0.267746 0
M  V30 12043 H 1161.31 -6.31933 -1.31649 0
M  V30 12044 H 1162.08 -8.17581 -0.387745 0
M  V30 12045 N 1164.74 0.6258 -1.44643 0
M  V30 12046 C 1165.99 1.38525 -1.47706 0
M  V30 12047 C 1166.32 1.94179 -0.111703 0
M  V30 12048 O 1165.57 1.74432 0.887237 0
M  V30 12049 C 1165.87 2.56466 -2.48917 0
M  V30 12050 C 1165.54 2.19069 -3.94106 0
M  V30 12051 C 1164.2 2.08583 -4.33643 0
M  V30 12052 C 1166.55 1.89608 -4.85488 0
M  V30 12053 C 1163.88 1.66831 -5.6248 0
M  V30 12054 C 1166.23 1.49347 -6.14718 0
M  V30 12055 C 1164.9 1.37406 -6.53204 0
M  V30 12056 H 1164.17 0.506899 -0.540494 0
M  V30 12057 H 1166.81 0.709128 -1.77887 0
M  V30 12058 H 1165.12 3.29335 -2.12239 0
M  V30 12059 H 1166.81 3.14695 -2.48532 0
M  V30 12060 H 1163.4 2.28151 -3.62829 0
M  V30 12061 H 1167.59 1.96616 -4.55693 0
M  V30 12062 H 1162.84 1.56195 -5.91112 0
M  V30 12063 H 1167.02 1.2559 -6.84982 0
M  V30 12064 H 1164.65 1.04826 -7.52938 0
M  V30 12065 N 1166.22 1.31629 0.866686 0
M  V30 12066 C 1167.46 1.22806 1.63395 0
M  V30 12067 C 1167.82 -0.209785 1.9085 0
M  V30 12068 O 1169.03 -0.421562 2.65474 0
M  V30 12069 C 1167.3 2.05187 2.92631 0
M  V30 12070 S 1168.86 2.13261 3.83491 0
M  V30 12071 H 1165.67 0.437339 0.560585 0
M  V30 12072 H 1168.28 1.66333 1.02731 0
M  V30 12073 H 1166.98 3.08736 2.70389 0
M  V30 12074 H 1166.51 1.62393 3.58318 0
M  V30 12075 H 1168.53 1.27333 4.79584 0
M  V30 12076 N 1167.7 -1.08142 1.14644 0
M  V30 12077 C 1168.95 -1.80225 0.914517 0
M  V30 12078 C 1169.27 -1.86778 -0.560269 0
M  V30 12079 O 1168.54 -1.36284 -1.40724 0
M  V30 12080 H 1167.12 -0.667492 0.335356 0
M  V30 12081 H 1169.78 -1.30729 1.44554 0
M  V30 12082 H 1168.88 -2.82958 1.31685 0
M  V30 12083 N 1169.18 -0.941978 -1.26351 0
M  V30 12084 C 1170.09 -0.45833 -2.30079 0
M  V30 12085 C 1171.1 0.468084 -1.67586 0
M  V30 12086 O 1172.28 0.347418 -1.98381 0
M  V30 12087 C 1169.34 0.26797 -3.45663 0
M  V30 12088 C 1168.41 -0.695102 -4.23635 0
M  V30 12089 C 1167.64 -0.003369 -5.337 0
M  V30 12090 O 1167.86 1.21342 -5.57344 0
M  V30 12091 O 1166.8 -0.682476 -5.98018 0
M  V30 12092 H 1170.62 -1.31998 -2.73514 0
M  V30 12093 H 1168.21 -0.707897 -1.31564 0
M  V30 12094 H 1170.09 0.677061 -4.15925 0
M  V30 12095 H 1168.76 1.105 -3.04256 0
M  V30 12096 H 1167.67 -1.15415 -3.55851 0
M  V30 12097 H 1169 -1.49977 -4.68794 0
M  V30 12098 N 1170.66 1.40747 -0.709091 0
M  V30 12099 C 1172.07 1.83955 -0.318968 0
M  V30 12100 C 1172.42 1.59304 1.14527 0
M  V30 12101 O 1171.54 1.07052 1.88066 0
M  V30 12102 C 1172.14 3.33934 -0.572147 0
M  V30 12103 C 1170.7 3.75661 -0.235802 0
M  V30 12104 C 1169.84 2.64024 -0.847743 0
M  V30 12105 H 1172.79 1.30107 -0.908734 0
M  V30 12106 H 1172.82 3.80143 0.164752 0
M  V30 12107 H 1172.33 3.51844 -1.63791 0
M  V30 12108 H 1170.43 3.63348 0.825164 0
M  V30 12109 H 1170.54 4.73955 -0.700263 0
M  V30 12110 H 1168.91 2.53197 -0.276283 0
M  V30 12111 H 1169.69 2.84748 -1.91765 0
M  V30 12112 N 1172.13 0.454803 1.50895 0
M  V30 12113 C 1173.38 -0.107367 2.01414 0
M  V30 12114 C 1173.7 -1.42243 1.34262 0
M  V30 12115 O 1174.9 -2.06858 1.75846 0
M  V30 12116 C 1173.36 -0.241872 3.59086 0
M  V30 12117 C 1172.97 1.06379 4.35187 0
M  V30 12118 C 1174.71 -0.756873 4.17698 0
M  V30 12119 C 1172.62 0.893973 5.84604 0
M  V30 12120 H 1171.55 -0.0439003 0.752721 0
M  V30 12121 H 1174.2 0.587225 1.7385 0
M  V30 12122 H 1172.58 -0.999873 3.83169 0
M  V30 12123 H 1173.75 1.83148 4.2284 0
M  V30 12124 H 1172.07 1.50865 3.88109 0
M  V30 12125 H 1174.67 -0.900697 5.27059 0
M  V30 12126 H 1175.01 -1.74397 3.7801 0
M  V30 12127 H 1175.54 -0.0567088 3.9776 0
M  V30 12128 H 1172.28 1.85395 6.28736 0
M  V30 12129 H 1171.8 0.166387 5.99569 0
M  V30 12130 H 1173.48 0.554084 6.44623 0
M  V30 12131 N 1173.61 -1.56489 0.186789 0
M  V30 12132 C 1175.02 -1.83809 -0.327265 0
M  V30 12133 C 1175.37 -1.10718 -1.61976 0
M  V30 12134 O 1174.5 -0.36525 -2.13295 0
M  V30 12135 C 1175.09 -3.33435 -0.600551 0
M  V30 12136 C 1173.65 -3.61195 -1.059 0
M  V30 12137 C 1172.8 -2.77108 -0.103131 0
M  V30 12138 H 1175.75 -1.53292 0.410747 0
M  V30 12139 H 1175.77 -3.51754 -1.45084 0
M  V30 12140 H 1175.28 -3.86605 0.340315 0
M  V30 12141 H 1173.38 -3.13451 -2.01443 0
M  V30 12142 H 1173.5 -4.69435 -0.957458 0
M  V30 12143 H 1171.86 -2.47448 -0.603449 0
M  V30 12144 H 1172.64 -3.33065 0.832031 0
M  V30 12145 N 1175.09 0.086862 -1.5736 0
M  V30 12146 C 1176.32 0.801004 -1.9044 0
M  V30 12147 C 1176.73 1.72396 -0.779513 0
M  V30 12148 O 1176.07 1.81894 0.256972 0
M  V30 12149 C 1176.13 1.66055 -3.18851 0
M  V30 12150 C 1175.8 0.908561 -4.47877 0
M  V30 12151 C 1176.79 0.234621 -5.1937 0
M  V30 12152 C 1174.48 0.8802 -4.94528 0
M  V30 12153 C 1176.47 -0.45762 -6.35755 0
M  V30 12154 C 1174.16 0.184179 -6.10822 0
M  V30 12155 C 1175.16 -0.483545 -6.81286 0
M  V30 12156 O 1174.85 -1.16839 -7.95364 0
M  V30 12157 H 1174.58 0.233794 -0.634284 0
M  V30 12158 H 1177.13 0.0660113 -2.05294 0
M  V30 12159 H 1175.36 2.43798 -3.00165 0
M  V30 12160 H 1177.05 2.252 -3.37698 0
M  V30 12161 H 1177.82 0.247938 -4.84366 0
M  V30 12162 H 1173.7 1.38938 -4.39565 0
M  V30 12163 H 1177.24 -0.979369 -6.90691 0
M  V30 12164 H 1173.14 0.168737 -6.45279 0
M  V30 12165 H 1173.9 -1.07612 -8.11395 0
M  V30 12166 N 1176.57 1.53483 0.357892 0
M  V30 12167 C 1177.98 1.43426 0.700073 0
M  V30 12168 C 1178.18 0.579493 1.92987 0
M  V30 12169 O 1177.24 0.0649086 2.52417 0
M  V30 12170 C 1178.55 2.86723 0.906099 0
M  V30 12171 C 1180.1 2.96405 1.00563 0
M  V30 12172 C 1180.58 4.4078 1.24407 0
M  V30 12173 N 1182.07 4.44243 1.3116 0
M  V30 12174 C 1182.8 5.53069 1.51333 0
M  V30 12175 N 1182.3 6.71928 1.68774 0
M  V30 12176 N 1184.09 5.40659 1.53765 0
M  V30 12177 H 1176.24 2.07559 -0.450894 0
M  V30 12178 H 1178.5 0.937649 -0.139711 0
M  V30 12179 H 1178.21 3.51622 0.0741579 0
M  V30 12180 H 1178.08 3.30827 1.81199 0
M  V30 12181 H 1180.47 2.31656 1.8281 0
M  V30 12182 H 1180.55 2.55684 0.0769512 0
M  V30 12183 H 1180.2 5.06105 0.426575 0
M  V30 12184 H 1180.13 4.7908 2.18608 0
M  V30 12185 H 1182.62 3.58587 1.19265 0
M  V30 12186 H 1182.93 7.50634 1.83762 0
M  V30 12187 H 1181.28 6.749 1.65937 0
M  V30 12188 H 1184.47 4.46764 1.39713 0
M  V30 12189 H 1184.64 6.25535 1.69146 0
M  V30 12190 N 1178.05 -0.61812 1.44973 0
M  V30 12191 C 1179.27 -1.40429 1.51945 0
M  V30 12192 C 1179.69 -1.88215 0.148556 0
M  V30 12193 O 1179.05 -1.61603 -0.847978 0
M  V30 12194 C 1179.1 -2.61588 2.49507 0
M  V30 12195 O 1178.82 -2.15791 3.81269 0
M  V30 12196 C 1180.32 -3.5457 2.66074 0
M  V30 12197 H 1177.54 -0.43023 0.514921 0
M  V30 12198 H 1180.08 -0.754791 1.90061 0
M  V30 12199 H 1178.24 -3.22602 2.14492 0
M  V30 12200 H 1178.65 -2.94434 4.34061 0
M  V30 12201 H 1180.13 -4.36155 3.38338 0
M  V30 12202 H 1180.6 -4.04227 1.71746 0
M  V30 12203 H 1181.21 -2.99416 3.02043 0
M  V30 12204 N 1179.52 -1.32087 -0.859693 0
M  V30 12205 C 1180.45 -1.23204 -1.98351 0
M  V30 12206 C 1181.43 -0.116974 -1.69697 0
M  V30 12207 O 1182.62 -0.303301 -1.91817 0
M  V30 12208 C 1179.75 -0.949171 -3.34078 0
M  V30 12209 C 1178.7 -2.02493 -3.77069 0
M  V30 12210 C 1178.03 -1.59455 -5.1037 0
M  V30 12211 C 1179.33 -3.43934 -3.93074 0
M  V30 12212 H 1181.02 -2.17227 -2.0604 0
M  V30 12213 H 1178.57 -1.04577 -0.989931 0
M  V30 12214 H 1180.52 -0.873594 -4.12245 0
M  V30 12215 H 1179.25 0.0267095 -3.26589 0
M  V30 12216 H 1177.91 -2.09057 -3.01149 0
M  V30 12217 H 1177.55 -0.606256 -4.99333 0
M  V30 12218 H 1177.25 -2.31429 -5.40106 0
M  V30 12219 H 1178.78 -1.53325 -5.91036 0
M  V30 12220 H 1180.19 -3.39986 -4.61608 0
M  V30 12221 H 1178.59 -4.14214 -4.3422 0
M  V30 12222 H 1179.66 -3.83965 -2.9614 0
M  V30 12223 N 1181 1.07532 -1.15215 0
M  V30 12224 C 1182.25 1.8036 -0.927263 0
M  V30 12225 C 1182.58 1.86414 0.544371 0
M  V30 12226 O 1181.86 1.34653 1.40353 0
M  V30 12227 C 1182.14 3.25512 -1.53992 0
M  V30 12228 C 1181.99 3.27614 -3.08203 0
M  V30 12229 C 1183.31 4.22731 -1.22418 0
M  V30 12230 H 1180.43 0.654775 -0.338289 0
M  V30 12231 H 1183.07 1.25842 -1.42351 0
M  V30 12232 H 1181.22 3.72068 -1.11791 0
M  V30 12233 H 1182.89 2.89315 -3.59297 0
M  V30 12234 H 1181.14 2.66627 -3.42188 0
M  V30 12235 H 1181.81 4.29956 -3.46182 0
M  V30 12236 H 1184.28 3.84557 -1.58919 0
M  V30 12237 H 1183.16 5.22589 -1.67906 0
M  V30 12238 H 1183.42 4.41875 -0.14091 0
M  V30 12239 N 1182.48 0.948665 1.2585 0
M  V30 12240 C 1183.9 0.652147 1.45668 0
M  V30 12241 C 1184.1 -0.792217 1.85273 0
M  V30 12242 O 1183.15 -1.56812 1.97905 0
M  V30 12243 C 1184.47 1.61998 2.53332 0
M  V30 12244 C 1186.01 1.6305 2.67178 0
M  V30 12245 C 1186.49 2.58582 3.78021 0
M  V30 12246 N 1187.98 2.56911 3.85423 0
M  V30 12247 C 1188.71 3.27511 4.70664 0
M  V30 12248 N 1188.21 4.07563 5.60236 0
M  V30 12249 N 1190 3.16427 4.64576 0
M  V30 12250 H 1182.15 1.88215 0.984325 0
M  V30 12251 H 1184.42 0.809251 0.493778 0
M  V30 12252 H 1184.12 2.65137 2.31075 0
M  V30 12253 H 1184 1.37784 3.51134 0
M  V30 12254 H 1186.38 0.606315 2.88804 0
M  V30 12255 H 1186.47 1.9132 1.69795 0
M  V30 12256 H 1186.11 3.61122 3.57146 0
M  V30 12257 H 1186.04 2.27598 4.74875 0
M  V30 12258 H 1188.53 1.9879 3.21389 0
M  V30 12259 H 1188.84 4.58367 6.22189 0
M  V30 12260 H 1187.19 4.11662 5.59964 0
M  V30 12261 H 1190.38 2.53364 3.93604 0
M  V30 12262 H 1190.55 3.71714 5.30785 0
M  V30 12263 N 1183.96 -1.40369 0.716545 0
M  V30 12264 C 1185.21 -2.00473 0.255959 0
M  V30 12265 C 1185.53 -1.57104 -1.15514 0
M  V30 12266 O 1184.8 -0.810925 -1.78328 0
M  V30 12267 H 1183.38 -0.741357 0.0916427 0
M  V30 12268 H 1186.04 -1.71692 0.922389 0
M  V30 12269 H 1185.14 -3.10752 0.289806 0
M  V30 12270 N 1185.44 -0.462799 -1.50652 0
M  V30 12271 C 1186.85 -0.11648 -1.59174 0
M  V30 12272 C 1187.05 1.37638 -1.47167 0
M  V30 12273 O 1186.11 2.14886 -1.3259 0
M  V30 12274 C 1187.42 -0.659289 -2.93383 0
M  V30 12275 C 1188.97 -0.62198 -3.06758 0
M  V30 12276 C 1189.44 -1.14219 -4.43529 0
M  V30 12277 N 1190.94 -1.10125 -4.49919 0
M  V30 12278 C 1191.67 -1.47436 -5.54121 0
M  V30 12279 N 1191.17 -1.92156 -6.65618 0
M  V30 12280 N 1192.96 -1.39091 -5.44619 0
M  V30 12281 H 1185.11 -1.43383 -1.56701 0
M  V30 12282 H 1187.37 -0.592438 -0.740082 0
M  V30 12283 H 1187.08 -1.70477 -3.07621 0
M  V30 12284 H 1186.95 -0.0982388 -3.77072 0
M  V30 12285 H 1189.34 0.414576 -2.92173 0
M  V30 12286 H 1189.42 -1.21974 -2.24847 0
M  V30 12287 H 1189.07 -2.17734 -4.58862 0
M  V30 12288 H 1189 -0.52073 -5.24019 0
M  V30 12289 H 1191.49 -0.773154 -3.69906 0
M  V30 12290 H 1191.8 -2.18796 -7.4118 0
M  V30 12291 H 1190.14 -1.96103 -6.6676 0
M  V30 12292 H 1193.34 -1.04001 -4.564 0
M  V30 12293 H 1193.51 -1.68496 -6.2571 0
M  V30 12294 N 1186.91 1.56388 -0.195085 0
M  V30 12295 C 1187.88 2.17859 0.712053 0
M  V30 12296 C 1188.88 1.13304 1.141 0
M  V30 12297 O 1190.07 1.38689 1.05409 0
M  V30 12298 C 1187.2 2.78065 1.97213 0
M  V30 12299 H 1188.39 2.9938 0.176529 0
M  V30 12300 H 1185.95 1.56205 0.0545322 0
M  V30 12301 H 1186.68 2.00342 2.55017 0
M  V30 12302 H 1186.47 3.54603 1.67329 0
M  V30 12303 H 1187.96 3.25266 2.619 0
M  V30 12304 N 1188.39 -0.0785156 1.57404 0
M  V30 12305 C 1189.64 -0.780092 1.87196 0
M  V30 12306 C 1189.97 -1.77562 0.78647 0
M  V30 12307 O 1189.25 -1.93428 -0.203935 0
M  V30 12308 C 1189.53 -1.49408 3.27642 0
M  V30 12309 C 1189.38 -0.515416 4.46837 0
M  V30 12310 C 1190.7 -2.44064 3.66225 0
M  V30 12311 H 1187.82 -0.282134 0.680859 0
M  V30 12312 H 1190.46 -0.0433926 1.8995 0
M  V30 12313 H 1188.61 -2.12205 3.25425 0
M  V30 12314 H 1190.28 0.106827 4.61176 0
M  V30 12315 H 1188.53 0.169832 4.33467 0
M  V30 12316 H 1189.2 -1.05247 5.41874 0
M  V30 12317 H 1191.67 -1.91349 3.69493 0
M  V30 12318 H 1190.55 -2.91029 4.65396 0
M  V30 12319 H 1190.81 -3.28569 2.95796 0
M  V30 12320 N 1189.87 -1.5367 -0.349747 0
M  V30 12321 C 1191.1 -1.74547 -1.11089 0
M  V30 12322 C 1191.51 -0.481741 -1.82551 0
M  V30 12323 O 1190.87 0.546272 -1.74132 0
M  V30 12324 C 1190.92 -2.92148 -2.12913 0
M  V30 12325 O 1190.64 -4.13633 -1.44358 0
M  V30 12326 C 1192.14 -3.25027 -3.01451 0
M  V30 12327 H 1189.36 -0.583376 -0.331532 0
M  V30 12328 H 1191.91 -2.00473 -0.403841 0
M  V30 12329 H 1190.06 -2.68572 -2.79192 0
M  V30 12330 H 1190.48 -4.79601 -2.12329 0
M  V30 12331 H 1191.95 -4.10679 -3.68845 0
M  V30 12332 H 1192.43 -2.41064 -3.67131 0
M  V30 12333 H 1193.03 -3.50586 -2.40768 0
M  V30 12334 N 1191.35 0.610423 -1.45298 0
M  V30 12335 C 1192.28 1.73207 -1.56594 0
M  V30 12336 C 1193.26 1.64893 -0.417651 0
M  V30 12337 O 1194.44 1.83336 -0.64043 0
M  V30 12338 C 1191.57 3.11803 -1.52959 0
M  V30 12339 C 1190.53 3.34925 -2.66475 0
M  V30 12340 C 1189.85 4.73764 -2.47894 0
M  V30 12341 C 1191.15 3.25456 -4.08504 0
M  V30 12342 H 1192.85 1.6401 -2.50482 0
M  V30 12343 H 1190.39 0.787621 -1.20551 0
M  V30 12344 H 1192.35 3.90065 -1.59458 0
M  V30 12345 H 1191.07 3.21833 -0.55599 0
M  V30 12346 H 1189.73 2.59051 -2.59399 0
M  V30 12347 H 1189.38 4.80524 -1.4868 0
M  V30 12348 H 1189.08 4.90191 -3.24016 0
M  V30 12349 H 1190.6 5.54231 -2.56243 0
M  V30 12350 H 1192.02 3.93597 -4.16839 0
M  V30 12351 H 1190.41 3.53414 -4.84994 0
M  V30 12352 H 1191.48 2.22939 -4.30612 0
M  V30 12353 N 1192.83 1.32541 0.852676 0
M  V30 12354 C 1194.07 1.22971 1.60383 0
M  V30 12355 C 1194.4 -0.208009 1.93887 0
M  V30 12356 O 1193.67 -1.13326 1.59794 0
M  V30 12357 H 1192.25 0.452149 0.594618 0
M  V30 12358 H 1194.91 1.66089 1.01983 0
M  V30 12359 H 1194 1.81373 2.53989 0
M  V30 12360 N 1194.3 -1.0692 1.15784 0
M  V30 12361 C 1195.24 -2.14168 0.816375 0
M  V30 12362 C 1196.25 -1.61872 -0.17357 0
M  V30 12363 O 1197.44 -1.78429 0.0502973 0
M  V30 12364 C 1194.54 -3.38346 0.193682 0
M  V30 12365 C 1193.71 -4.19979 1.22215 0
M  V30 12366 C 1192.77 -5.2253 0.620424 0
M  V30 12367 O 1191.8 -5.54446 1.28757 0
M  V30 12368 N 1193 -5.77434 -0.595811 0
M  V30 12369 H 1195.76 -2.44062 1.73937 0
M  V30 12370 H 1193.32 -1.22865 1.05431 0
M  V30 12371 H 1195.32 -4.04092 -0.22174 0
M  V30 12372 H 1193.89 -3.06129 -0.632735 0
M  V30 12373 H 1193.11 -3.49984 1.81397 0
M  V30 12374 H 1194.39 -4.71329 1.91641 0
M  V30 12375 H 1193.79 -5.5376 -1.15611 0
M  V30 12376 H 1192.35 -6.44788 -0.953529 0
M  V30 12377 N 1195.78 -0.955326 -1.25345 0
M  V30 12378 C 1197.03 -0.610484 -1.93079 0
M  V30 12379 C 1197.36 0.852591 -1.74817 0
M  V30 12380 O 1196.61 1.6272 -1.08723 0
M  V30 12381 C 1196.91 -0.916173 -3.45458 0
M  V30 12382 C 1196.58 -2.36539 -3.83875 0
M  V30 12383 C 1195.24 -2.76152 -3.94073 0
M  V30 12384 C 1197.59 -3.30652 -4.02888 0
M  V30 12385 C 1194.92 -4.08944 -4.20692 0
M  V30 12386 C 1197.27 -4.63057 -4.31 0
M  V30 12387 C 1195.94 -5.02464 -4.39415 0
M  V30 12388 H 1195.21 -0.223392 -0.706525 0
M  V30 12389 H 1197.85 -1.20449 -1.48877 0
M  V30 12390 H 1196.16 -0.23978 -3.91066 0
M  V30 12391 H 1197.85 -0.627929 -3.96053 0
M  V30 12392 H 1194.44 -2.04819 -3.76493 0
M  V30 12393 H 1198.63 -3.01237 -3.94423 0
M  V30 12394 H 1193.88 -4.39118 -4.25423 0
M  V30 12395 H 1198.06 -5.3596 -4.44657 0
M  V30 12396 H 1195.69 -6.05386 -4.59795 0
M  V30 12397 N 1197.26 1.39987 -0.723979 0
M  V30 12398 C 1198.21 2.30672 -0.0768286 0
M  V30 12399 C 1199.18 1.48634 0.741422 0
M  V30 12400 O 1200.36 1.77351 0.703649 0
M  V30 12401 C 1197.5 3.34902 0.832729 0
M  V30 12402 C 1196.62 4.32 0.00304942 0
M  V30 12403 C 1195.75 5.23298 0.91286 0
M  V30 12404 C 1194.79 6.12051 0.0777706 0
M  V30 12405 N 1193.93 6.9574 0.942912 0
M  V30 12406 H 1198.77 2.85446 -0.855832 0
M  V30 12407 H 1196.3 1.40561 -0.433718 0
M  V30 12408 H 1198.26 3.93911 1.37441 0
M  V30 12409 H 1196.89 2.81611 1.57782 0
M  V30 12410 H 1195.94 3.74702 -0.655916 0
M  V30 12411 H 1197.26 4.94637 -0.643124 0
M  V30 12412 H 1196.41 5.87279 1.52277 0
M  V30 12413 H 1195.15 4.60956 1.59284 0
M  V30 12414 H 1194.15 5.47092 -0.545022 0
M  V30 12415 H 1195.38 6.76455 -0.598827 0
M  V30 12416 H 1193.33 6.35977 1.60838 0
M  V30 12417 H 1193.24 7.55176 0.352968 0
M  V30 12418 H 1194.51 7.64162 1.53874 0
M  V30 12419 N 1198.74 0.470782 1.50404 0
M  V30 12420 C 1199.65 -0.328877 2.32283 0
M  V30 12421 C 1200.67 -0.99629 1.42654 0
M  V30 12422 O 1201.84 -0.984331 1.75707 0
M  V30 12423 C 1198.91 -1.39675 3.1732 0
M  V30 12424 C 1197.97 -0.745965 4.22769 0
M  V30 12425 C 1197.2 -1.76295 5.03742 0
M  V30 12426 O 1197.42 -2.98943 4.85788 0
M  V30 12427 O 1196.36 -1.33495 5.86909 0
M  V30 12428 H 1200.18 0.340491 3.01785 0
M  V30 12429 H 1197.77 0.232637 1.47578 0
M  V30 12430 H 1199.65 -2.0153 3.70086 0
M  V30 12431 H 1198.33 -2.04959 2.50546 0
M  V30 12432 H 1197.23 -0.0884647 3.73995 0
M  V30 12433 H 1198.57 -0.136074 4.92012 0
M  V30 12434 N 1200.22 -1.56282 0.203376 0
M  V30 12435 C 1201.15 -2.2247 -0.709183 0
M  V30 12436 C 1202.13 -1.19046 -1.21499 0
M  V30 12437 O 1203.31 -1.47578 -1.26231 0
M  V30 12438 C 1200.44 -2.8905 -1.92529 0
M  V30 12439 C 1199.4 -3.98789 -1.55407 0
M  V30 12440 C 1198.72 -4.52574 -2.84747 0
M  V30 12441 C 1200.02 -5.16774 -0.75775 0
M  V30 12442 H 1201.72 -2.98986 -0.157392 0
M  V30 12443 H 1199.26 -1.43808 -0.0742613 0
M  V30 12444 H 1201.22 -3.34038 -2.56898 0
M  V30 12445 H 1199.94 -2.09952 -2.50175 0
M  V30 12446 H 1198.6 -3.54504 -0.933928 0
M  V30 12447 H 1198.25 -3.70229 -3.40499 0
M  V30 12448 H 1197.95 -5.26627 -2.6065 0
M  V30 12449 H 1199.47 -5.00269 -3.5009 0
M  V30 12450 H 1200.89 -5.58256 -1.30472 0
M  V30 12451 H 1199.28 -5.96945 -0.614583 0
M  V30 12452 H 1200.35 -4.84308 0.239476 0
M  V30 12453 N 1201.7 0.070167 -1.57444 0
M  V30 12454 C 1202.63 1.08351 -2.06839 0
M  V30 12455 C 1203.61 1.40269 -0.962224 0
M  V30 12456 O 1204.79 1.49867 -1.23505 0
M  V30 12457 C 1201.92 2.39649 -2.51368 0
M  V30 12458 C 1200.88 2.22079 -3.65875 0
M  V30 12459 C 1200.2 3.58776 -3.96464 0
M  V30 12460 C 1201.5 1.64069 -4.95862 0
M  V30 12461 H 1203.2 0.672465 -2.9175 0
M  V30 12462 H 1200.74 0.322027 -1.40353 0
M  V30 12463 H 1202.69 3.10833 -2.84537 0
M  V30 12464 H 1201.42 2.82736 -1.63487 0
M  V30 12465 H 1200.08 1.53337 -3.32992 0
M  V30 12466 H 1199.73 3.99436 -3.05712 0
M  V30 12467 H 1199.43 3.47859 -4.7357 0
M  V30 12468 H 1200.95 4.31387 -4.32131 0
M  V30 12469 H 1202.36 2.2512 -5.27251 0
M  V30 12470 H 1200.76 1.63843 -5.773 0
M  V30 12471 H 1201.83 0.60232 -4.81145 0
M  V30 12472 N 1203.17 1.53854 0.341593 0
M  V30 12473 C 1204.4 1.75134 1.10162 0
M  V30 12474 C 1204.82 0.491415 1.82292 0
M  V30 12475 O 1204.17 -0.53703 1.7442 0
M  V30 12476 C 1204.22 2.93273 2.1136 0
M  V30 12477 O 1203.95 4.14393 1.42162 0
M  V30 12478 C 1205.45 3.26621 2.99723 0
M  V30 12479 H 1202.67 0.585126 0.328434 0
M  V30 12480 H 1205.21 2.00684 0.393204 0
M  V30 12481 H 1203.37 2.70048 2.77764 0
M  V30 12482 H 1203.78 4.8072 2.09783 0
M  V30 12483 H 1205.25 4.12629 3.66662 0
M  V30 12484 H 1205.73 2.43008 3.65847 0
M  V30 12485 H 1206.34 3.51858 2.38906 0
M  V30 12486 N 1204.65 -0.602709 1.4562 0
M  V30 12487 C 1205.6 -1.71312 1.54664 0
M  V30 12488 C 1206.57 -1.61403 0.392197 0
M  V30 12489 O 1207.75 -1.80911 0.606297 0
M  V30 12490 C 1204.89 -3.09629 1.52393 0
M  V30 12491 C 1204.01 -3.30308 2.78425 0
M  V30 12492 C 1203.14 -4.5876 2.67793 0
M  V30 12493 C 1202.18 -4.72713 3.88855 0
M  V30 12494 N 1201.32 -5.92469 3.76729 0
M  V30 12495 H 1206.16 -1.62918 2.49523 0
M  V30 12496 H 1203.69 -0.794324 1.2381 0
M  V30 12497 H 1205.65 -3.89661 1.49064 0
M  V30 12498 H 1204.28 -3.16968 0.610816 0
M  V30 12499 H 1203.33 -2.44018 2.9182 0
M  V30 12500 H 1204.65 -3.36491 3.68205 0
M  V30 12501 H 1203.8 -5.46993 2.62457 0
M  V30 12502 H 1202.54 -4.54983 1.75619 0
M  V30 12503 H 1201.54 -3.82903 3.94545 0
M  V30 12504 H 1202.77 -4.78284 4.82101 0
M  V30 12505 H 1200.72 -5.89728 2.87328 0
M  V30 12506 H 1200.63 -5.99833 4.60148 0
M  V30 12507 H 1201.9 -6.83187 3.75334 0
M  V30 12508 N 1206.13 -1.32992 -0.845635 0
M  V30 12509 C 1207.08 -1.22682 -1.95494 0
M  V30 12510 C 1208.05 -0.106942 -1.65755 0
M  V30 12511 O 1209.23 -0.28405 -1.88674 0
M  V30 12512 C 1206.37 -0.965068 -3.31331 0
M  V30 12513 C 1205.48 -2.17058 -3.7351 0
M  V30 12514 C 1204.62 -1.84355 -4.98183 0
M  V30 12515 C 1203.66 -3.01176 -5.32878 0
M  V30 12516 N 1202.8 -2.68506 -6.48729 0
M  V30 12517 H 1207.64 -2.17562 -2.03644 0
M  V30 12518 H 1205.17 -1.08194 -0.996613 0
M  V30 12519 H 1207.13 -0.793771 -4.09579 0
M  V30 12520 H 1205.76 -0.0530285 -3.22756 0
M  V30 12521 H 1204.81 -2.45185 -2.90841 0
M  V30 12522 H 1206.12 -3.04413 -3.95138 0
M  V30 12523 H 1205.28 -1.6383 -5.84162 0
M  V30 12524 H 1204.02 -0.942264 -4.78511 0
M  V30 12525 H 1203.02 -3.22323 -4.45408 0
M  V30 12526 H 1204.25 -3.9205 -5.54503 0
M  V30 12527 H 1202.19 -1.80929 -6.30556 0
M  V30 12528 H 1202.11 -3.49392 -6.70419 0
M  V30 12529 H 1203.38 -2.51432 -7.37836 0
M  V30 12530 N 1207.61 1.06304 -1.1635 0
M  V30 12531 C 1208.86 1.78747 -0.943074 0
M  V30 12532 C 1209.18 1.87646 0.530483 0
M  V30 12533 O 1208.45 1.38506 1.38538 0
M  V30 12534 H 1207.03 0.662072 -0.345932 0
M  V30 12535 H 1209.69 1.28413 -1.46615 0
M  V30 12536 H 1208.78 2.80828 -1.3617 0
M  V30 12537 N 1209.09 0.96196 1.24836 0
M  V30 12538 C 1210.31 0.637709 1.97353 0
M  V30 12539 C 1210.74 -0.784919 1.7094 0
M  V30 12540 O 1210.09 -1.53188 0.969694 0
M  V30 12541 C 1210.14 0.911485 3.4889 0
M  V30 12542 O 1209.25 -0.00601668 4.124 0
M  V30 12543 H 1208.59 0.241685 0.618453 0
M  V30 12544 H 1211.12 1.29055 1.58764 0
M  V30 12545 H 1211.13 0.840702 3.99245 0
M  V30 12546 H 1209.8 1.9483 3.67442 0
M  V30 12547 H 1208.38 0.117597 3.72715 0
M  V30 12548 N 1210.56 -1.39601 0.731392 0
M  V30 12549 C 1211.79 -2.0459 0.287472 0
M  V30 12550 C 1212.2 -1.5525 -1.08139 0
M  V30 12551 O 1211.54 -0.710949 -1.69385 0
M  V30 12552 C 1211.61 -3.58904 0.206948 0
M  V30 12553 C 1211.27 -4.31204 1.51368 0
M  V30 12554 C 1212.27 -4.58088 2.45869 0
M  V30 12555 C 1209.95 -4.69818 1.77698 0
M  V30 12556 C 1211.95 -5.22591 3.64935 0
M  V30 12557 C 1209.63 -5.34049 2.97043 0
M  V30 12558 C 1210.63 -5.60368 3.90483 0
M  V30 12559 O 1210.32 -6.23268 5.07732 0
M  V30 12560 H 1210.05 -0.664515 0.12408 0
M  V30 12561 H 1212.61 -1.79701 0.994814 0
M  V30 12562 H 1210.84 -3.82675 -0.556466 0
M  V30 12563 H 1212.52 -4.05385 -0.204498 0
M  V30 12564 H 1213.29 -4.28706 2.26796 0
M  V30 12565 H 1209.17 -4.48692 1.05815 0
M  V30 12566 H 1212.71 -5.43049 4.37885 0
M  V30 12567 H 1208.61 -5.62852 3.16018 0
M  V30 12568 H 1209.38 -6.41763 5.08019 0
M  V30 12569 N 1212.04 -0.478751 -1.50152 0
M  V30 12570 C 1213.46 -0.133356 -1.59042 0
M  V30 12571 C 1213.66 1.36069 -1.48618 0
M  V30 12572 O 1212.71 2.13468 -1.34862 0
M  V30 12573 C 1214.03 -0.690369 -2.92668 0
M  V30 12574 C 1215.58 -0.654481 -3.06081 0
M  V30 12575 C 1216.05 -1.18917 -4.42293 0
M  V30 12576 N 1217.54 -1.14891 -4.48725 0
M  V30 12577 C 1218.28 -1.53305 -5.52526 0
M  V30 12578 N 1217.77 -1.99205 -6.63543 0
M  V30 12579 N 1219.57 -1.4486 -5.43113 0
M  V30 12580 H 1211.72 -1.45037 -1.55171 0
M  V30 12581 H 1213.98 -0.600254 -0.733757 0
M  V30 12582 H 1213.69 -1.7373 -3.05795 0
M  V30 12583 H 1213.56 -0.138227 -3.76947 0
M  V30 12584 H 1215.95 0.383564 -2.92597 0
M  V30 12585 H 1216.03 -1.24352 -2.2354 0
M  V30 12586 H 1215.67 -2.22588 -4.56527 0
M  V30 12587 H 1215.6 -0.57628 -5.23437 0
M  V30 12588 H 1218.09 -0.812344 -3.69066 0
M  V30 12589 H 1218.41 -2.26645 -7.38818 0
M  V30 12590 H 1216.75 -2.03164 -6.64642 0
M  V30 12591 H 1219.94 -1.08836 -4.55272 0
M  V30 12592 H 1220.11 -1.75123 -6.23888 0
M  V30 12593 N 1213.52 1.56172 -0.211661 0
M  V30 12594 C 1214.75 2.02135 0.427222 0
M  V30 12595 C 1215.16 1.09084 1.54587 0
M  V30 12596 O 1214.5 0.090906 1.83475 0
M  V30 12597 C 1214.56 3.44459 1.029 0
M  V30 12598 C 1214.23 4.56976 0.0470243 0
M  V30 12599 C 1215.22 5.14466 -0.749724 0
M  V30 12600 C 1212.91 5.02253 -0.0688634 0
M  V30 12601 C 1214.9 6.15696 -1.64916 0
M  V30 12602 C 1212.59 6.03323 -0.971844 0
M  V30 12603 C 1213.59 6.5992 -1.76055 0
M  V30 12604 O 1213.28 7.59024 -2.64837 0
M  V30 12605 H 1213.01 0.667008 0.109894 0
M  V30 12606 H 1215.56 2.02851 -0.322595 0
M  V30 12607 H 1213.79 3.4078 1.82772 0
M  V30 12608 H 1215.48 3.74128 1.57425 0
M  V30 12609 H 1216.25 4.80342 -0.670588 0
M  V30 12610 H 1212.13 4.57886 0.534889 0
M  V30 12611 H 1215.67 6.59798 -2.26521 0
M  V30 12612 H 1211.57 6.36869 -1.05203 0
M  V30 12613 H 1212.34 7.76508 -2.58801 0
M  V30 12614 N 1215 -0.0618163 1.57479 0
M  V30 12615 C 1216.23 -0.770605 1.9169 0
M  V30 12616 C 1216.64 -1.71134 0.806841 0
M  V30 12617 O 1215.98 -1.8228 -0.228002 0
M  V30 12618 C 1216.04 -1.60962 3.21452 0
M  V30 12619 C 1215.71 -0.837193 4.49266 0
M  V30 12620 C 1216.7 -0.151964 5.19678 0
M  V30 12621 C 1214.39 -0.801414 4.95866 0
M  V30 12622 C 1216.38 0.558705 6.34947 0
M  V30 12623 C 1214.07 -0.0869788 6.11038 0
M  V30 12624 C 1215.07 0.591871 6.80431 0
M  V30 12625 O 1214.75 1.29478 7.93405 0
M  V30 12626 H 1214.49 -0.223673 0.637923 0
M  V30 12627 H 1217.04 -0.0333424 2.05373 0
M  V30 12628 H 1215.27 -2.38992 3.04006 0
M  V30 12629 H 1216.96 -2.19799 3.41238 0
M  V30 12630 H 1217.73 -0.170848 4.84699 0
M  V30 12631 H 1213.6 -1.31927 4.4172 0
M  V30 12632 H 1217.15 1.08913 6.89046 0
M  V30 12633 H 1213.05 -0.066057 6.45466 0
M  V30 12634 H 1213.81 1.20507 8.0958 0
M  V30 12635 N 1216.48 -1.54033 -0.333429 0
M  V30 12636 C 1217.72 -1.71765 -1.07252 0
M  V30 12637 C 1218.05 -0.486135 -1.88327 0
M  V30 12638 O 1217.31 0.532135 -1.88326 0
M  V30 12639 C 1217.61 -2.93926 -2.03328 0
M  V30 12640 C 1217.27 -4.29107 -1.38486 0
M  V30 12641 C 1215.93 -4.6586 -1.20532 0
M  V30 12642 C 1218.29 -5.13041 -0.918624 0
M  V30 12643 C 1215.61 -5.84155 -0.545881 0
M  V30 12644 C 1217.97 -6.3201 -0.273055 0
M  V30 12645 C 1216.63 -6.67451 -0.0812815 0
M  V30 12646 H 1215.9 -0.628532 -0.392464 0
M  V30 12647 H 1218.55 -1.88261 -0.350709 0
M  V30 12648 H 1216.85 -2.72075 -2.81926 0
M  V30 12649 H 1218.55 -3.0484 -2.60526 0
M  V30 12650 H 1215.14 -4.00185 -1.5346 0
M  V30 12651 H 1219.32 -4.8517 -1.04515 0
M  V30 12652 H 1214.58 -6.1018 -0.386009 0
M  V30 12653 H 1218.75 -6.96333 0.0962582 0
M  V30 12654 H 1216.38 -7.58973 0.431734 0
M  V30 12655 N 1217.95 0.594978 -1.45938 0
M  V30 12656 C 1218.9 1.70489 -1.5557 0
M  V30 12657 C 1219.87 1.61193 -0.400751 0
M  V30 12658 O 1221.06 1.80587 -0.615882 0
M  V30 12659 C 1218.2 3.08817 -1.54033 0
M  V30 12660 C 1217.31 3.28827 -2.80173 0
M  V30 12661 C 1216.44 4.57333 -2.70222 0
M  V30 12662 C 1215.48 4.70644 -3.91357 0
M  V30 12663 N 1214.62 5.90463 -3.79865 0
M  V30 12664 H 1219.46 1.61593 -2.50383 0
M  V30 12665 H 1217 0.787747 -1.24229 0
M  V30 12666 H 1218.96 3.88865 -1.51129 0
M  V30 12667 H 1217.59 3.1664 -0.627617 0
M  V30 12668 H 1216.64 2.42467 -2.9311 0
M  V30 12669 H 1217.95 3.34534 -3.69985 0
M  V30 12670 H 1217.1 5.45593 -2.65354 0
M  V30 12671 H 1215.84 4.54045 -1.7803 0
M  V30 12672 H 1214.85 3.80805 -3.9657 0
M  V30 12673 H 1216.07 4.75721 -4.8463 0
M  V30 12674 H 1214.02 5.88196 -2.90451 0
M  V30 12675 H 1213.94 5.97385 -4.63322 0
M  V30 12676 H 1215.2 6.81187 -3.78952 0
M  V30 12677 N 1219.43 1.33438 0.838571 0
M  V30 12678 C 1220.38 1.23717 1.94841 0
M  V30 12679 C 1221.35 0.11573 1.65696 0
M  V30 12680 O 1222.53 0.294051 1.8852 0
M  V30 12681 C 1219.67 0.982626 3.30815 0
M  V30 12682 C 1218.79 2.19036 3.72354 0
M  V30 12683 C 1217.92 1.86995 4.97199 0
M  V30 12684 C 1216.96 3.03998 5.31274 0
M  V30 12685 N 1216.1 2.71943 6.47295 0
M  V30 12686 H 1220.94 2.18639 2.02487 0
M  V30 12687 H 1218.48 1.08721 0.990861 0
M  V30 12688 H 1220.43 0.81548 4.09152 0
M  V30 12689 H 1219.06 0.0701443 3.22724 0
M  V30 12690 H 1218.12 2.46724 2.89537 0
M  V30 12691 H 1219.43 3.06505 3.93518 0
M  V30 12692 H 1218.58 1.66925 5.83285 0
M  V30 12693 H 1217.32 0.967628 4.78004 0
M  V30 12694 H 1216.33 3.24681 4.43692 0
M  V30 12695 H 1217.55 3.94985 5.52416 0
M  V30 12696 H 1215.5 1.8427 6.29588 0
M  V30 12697 H 1215.41 3.52943 6.68556 0
M  V30 12698 H 1216.68 2.55342 7.36492 0
M  V30 12699 N 1220.91 -1.05686 1.16912 0
M  V30 12700 C 1222.16 -1.78862 0.955839 0
M  V30 12701 C 1222.49 -1.87257 -0.514645 0
M  V30 12702 O 1221.76 -1.36869 -1.38193 0
M  V30 12703 C 1222.05 -3.23021 1.59152 0
M  V30 12704 C 1221.9 -3.22669 3.13376 0
M  V30 12705 C 1223.22 -4.2073 1.29128 0
M  V30 12706 H 1220.34 -0.64931 0.348663 0
M  V30 12707 H 1222.98 -1.23561 1.44335 0
M  V30 12708 H 1221.13 -3.70243 1.17697 0
M  V30 12709 H 1222.8 -2.83562 3.63855 0
M  V30 12710 H 1221.05 -2.61149 3.46386 0
M  V30 12711 H 1221.72 -4.24394 3.52979 0
M  V30 12712 H 1224.19 -3.8198 1.65017 0
M  V30 12713 H 1223.07 -5.19851 1.76198 0
M  V30 12714 H 1223.33 -4.41595 0.21119 0
M  V30 12715 N 1222.39 -0.968567 -1.24324 0
M  V30 12716 C 1223.61 -0.648166 -1.97012 0
M  V30 12717 C 1224.04 0.775842 -1.71354 0
M  V30 12718 O 1223.4 1.52672 -0.977804 0
M  V30 12719 C 1223.44 -0.929974 -3.48402 0
M  V30 12720 O 1222.55 -0.015854 -4.12397 0
M  V30 12721 H 1221.89 -0.244961 -0.617163 0
M  V30 12722 H 1224.42 -1.29895 -1.58077 0
M  V30 12723 H 1224.43 -0.861863 -3.98793 0
M  V30 12724 H 1223.1 -1.96776 -3.66404 0
M  V30 12725 H 1221.68 -0.137361 -3.72647 0
M  V30 12726 N 1223.87 1.39211 -0.738786 0
M  V30 12727 C 1225.14 1.9442 -0.214533 0
M  V30 12728 C 1225.52 1.67528 1.28443 0
M  V30 12729 O 1224.87 1.0056 2.05183 0
M  V30 12730 C 1225.08 3.44603 -0.552232 0
M  V30 12731 C 1226.43 4.21602 -0.503663 0
M  V30 12732 O 1227.45 3.52819 -0.489647 0
M  V30 12733 O 1226.31 5.44194 -0.50153 0
M  V30 12734 H 1223.41 0.826011 -0.0404247 0
M  V30 12735 H 1225.95 1.48689 -0.817902 0
M  V30 12736 H 1224.72 3.57626 -1.58806 0
M  V30 12737 H 1224.35 3.9752 0.0799096 0
M  V30 12738 N 1225.34 0.486708 1.49896 0
M  V30 12739 C 1226.25 -0.304222 2.32619 0
M  V30 12740 C 1227.27 -0.981103 1.43702 0
M  V30 12741 O 1228.45 -0.965639 1.76741 0
M  V30 12742 C 1225.51 -1.36301 3.18783 0
M  V30 12743 C 1224.57 -0.701082 4.23537 0
M  V30 12744 C 1223.81 -1.70943 5.05583 0
M  V30 12745 O 1224.03 -2.93773 4.88931 0
M  V30 12746 O 1222.96 -1.27263 5.88292 0
M  V30 12747 H 1226.79 0.37248 3.01407 0
M  V30 12748 H 1224.37 0.248277 1.47323 0
M  V30 12749 H 1226.26 -1.97594 3.72202 0
M  V30 12750 H 1224.93 -2.0229 2.52706 0
M  V30 12751 H 1223.84 -0.0487926 3.74068 0
M  V30 12752 H 1225.17 -0.0838817 4.92129 0
M  V30 12753 N 1226.82 -1.56058 0.219941 0
M  V30 12754 C 1228.07 -1.9826 -0.412197 0
M  V30 12755 C 1228.4 -1.10754 -1.59887 0
M  V30 12756 O 1227.65 -0.15212 -1.95108 0
M  V30 12757 C 1227.95 -3.46113 -0.8911 0
M  V30 12758 C 1227.62 -4.50521 0.184877 0
M  V30 12759 C 1226.28 -4.78795 0.480462 0
M  V30 12760 C 1228.63 -5.13147 0.912652 0
M  V30 12761 C 1225.96 -5.66979 1.50837 0
M  V30 12762 C 1228.31 -6.02444 1.92988 0
M  V30 12763 C 1226.98 -6.29063 2.2324 0
M  V30 12764 H 1226.25 -0.725486 -0.150834 0
M  V30 12765 H 1228.89 -1.88771 0.322122 0
M  V30 12766 H 1227.2 -3.52797 -1.70415 0
M  V30 12767 H 1228.9 -3.76137 -1.39003 0
M  V30 12768 H 1225.49 -4.28564 -0.0556594 0
M  V30 12769 H 1229.67 -4.91374 0.697532 0
M  V30 12770 H 1224.93 -5.85868 1.74839 0
M  V30 12771 H 1229.1 -6.50022 2.49889 0
M  V30 12772 H 1226.73 -6.97191 3.03032 0
M  V30 12773 N 1228.3 0.053464 -1.57509 0
M  V30 12774 C 1229.58 0.783141 -1.79238 0
M  V30 12775 C 1229.96 1.94855 -0.812069 0
M  V30 12776 O 1229.31 2.28 0.151006 0
M  V30 12777 C 1229.52 1.239 -3.26266 0
M  V30 12778 C 1230.86 1.66492 -3.90596 0
M  V30 12779 O 1231.89 1.33421 -3.30269 0
M  V30 12780 O 1230.75 2.27785 -4.96766 0
M  V30 12781 H 1227.84 0.376696 -0.736226 0
M  V30 12782 H 1230.39 0.0321229 -1.6967 0
M  V30 12783 H 1229.16 0.405948 -3.89189 0
M  V30 12784 H 1228.78 2.05078 -3.4063 0
M  V30 12785 N 1229.78 1.54207 0.325255 0
M  V30 12786 C 1231.02 1.74055 1.07164 0
M  V30 12787 C 1231.38 0.502722 1.85302 0
M  V30 12788 O 1232.58 0.578525 2.62501 0
M  V30 12789 C 1230.86 2.97994 1.97319 0
M  V30 12790 S 1232.41 3.38737 2.78931 0
M  V30 12791 H 1229.23 0.612059 0.361808 0
M  V30 12792 H 1231.83 1.92381 0.347837 0
M  V30 12793 H 1230.54 3.86235 1.38747 0
M  V30 12794 H 1230.07 2.82187 2.74106 0
M  V30 12795 H 1232.08 2.93904 3.99794 0
M  V30 12796 N 1231.26 -0.58723 1.46251 0
M  V30 12797 C 1232.51 -1.34294 1.51028 0
M  V30 12798 C 1232.83 -1.94329 0.161623 0
M  V30 12799 O 1232.1 -1.78309 -0.811342 0
M  V30 12800 H 1230.68 -0.498607 0.556238 0
M  V30 12801 H 1233.34 -0.688074 1.8235 0
M  V30 12802 H 1232.43 -2.15197 2.26045 0
M  V30 12803 N 1232.74 -1.33881 -0.831482 0
M  V30 12804 C 1233.98 -1.25942 -1.58955 0
M  V30 12805 C 1234.31 0.172542 -1.93432 0
M  V30 12806 O 1233.59 1.11577 -1.59314 0
M  V30 12807 C 1233.87 -2.14193 -2.89471 0
M  V30 12808 C 1233.73 -3.65883 -2.61628 0
M  V30 12809 C 1235.04 -2.02071 -3.90967 0
M  V30 12810 H 1232.16 -0.458841 -0.576744 0
M  V30 12811 H 1234.81 -1.64052 -0.958482 0
M  V30 12812 H 1232.96 -1.81821 -3.43327 0
M  V30 12813 H 1234.63 -4.08581 -2.14148 0
M  V30 12814 H 1232.87 -3.87397 -1.95208 0
M  V30 12815 H 1233.54 -4.22988 -3.54662 0
M  V30 12816 H 1236.02 -2.30476 -3.46439 0
M  V30 12817 H 1234.89 -2.66059 -4.80108 0
M  V30 12818 H 1235.15 -0.995121 -4.30755 0
M  V30 12819 N 1234.21 1.05064 -1.1747 0
M  V30 12820 C 1235.46 1.78352 -0.965311 0
M  V30 12821 C 1235.79 1.87527 0.504707 0
M  V30 12822 O 1235.07 1.376 1.37465 0
M  V30 12823 C 1235.35 3.22173 -1.60862 0
M  V30 12824 C 1235.2 3.21003 -3.15083 0
M  V30 12825 C 1236.52 4.2004 -1.31358 0
M  V30 12826 H 1233.64 0.647452 -0.352101 0
M  V30 12827 H 1236.28 1.22794 -1.44988 0
M  V30 12828 H 1234.43 3.69613 -1.19658 0
M  V30 12829 H 1236.11 2.81629 -3.65353 0
M  V30 12830 H 1234.35 2.59309 -3.47766 0
M  V30 12831 H 1235.02 4.22516 -3.55224 0
M  V30 12832 H 1237.5 3.81099 -1.6704 0
M  V30 12833 H 1236.37 5.1891 -1.78953 0
M  V30 12834 H 1236.63 4.41477 -0.234606 0
M  V30 12835 N 1235.69 0.975146 1.23809 0
M  V30 12836 C 1236.94 0.641124 1.92083 0
M  V30 12837 C 1237.27 -0.824671 1.76152 0
M  V30 12838 O 1236.52 -1.6097 1.11298 0
M  V30 12839 C 1236.82 0.971016 3.43956 0
M  V30 12840 C 1236.49 2.42616 3.80063 0
M  V30 12841 C 1235.15 2.82386 3.8963 0
M  V30 12842 C 1237.5 3.37019 3.97577 0
M  V30 12843 C 1234.83 4.15585 4.14133 0
M  V30 12844 C 1237.18 4.69855 4.23579 0
M  V30 12845 C 1235.84 5.09391 4.31366 0
M  V30 12846 H 1235.11 0.234604 0.702881 0
M  V30 12847 H 1237.76 1.22803 1.46941 0
M  V30 12848 H 1236.07 0.301965 3.90635 0
M  V30 12849 H 1237.76 0.690858 3.95004 0
M  V30 12850 H 1234.35 2.10782 3.73187 0
M  V30 12851 H 1238.54 3.07474 3.89581 0
M  V30 12852 H 1233.79 4.45831 4.18383 0
M  V30 12853 H 1237.97 5.42966 4.36074 0
M  V30 12854 H 1235.59 6.12624 4.50106 0
M  V30 12855 N 1237.17 -1.38817 0.746158 0
M  V30 12856 C 1238.08 -2.34316 0.115386 0
M  V30 12857 C 1239.1 -1.58892 -0.709179 0
M  V30 12858 O 1240.27 -1.91126 -0.635059 0
M  V30 12859 C 1237.34 -3.37977 -0.772821 0
M  V30 12860 C 1236.4 -4.2925 0.0652679 0
M  V30 12861 C 1235.63 -5.2796 -0.78064 0
M  V30 12862 O 1235.85 -5.33474 -2.01896 0
M  V30 12863 O 1234.79 -6.01556 -0.20338 0
M  V30 12864 H 1238.61 -2.89937 0.903887 0
M  V30 12865 H 1236.2 -1.40536 0.506958 0
M  V30 12866 H 1238.08 -4.01468 -1.28068 0
M  V30 12867 H 1236.76 -2.84723 -1.53994 0
M  V30 12868 H 1235.66 -3.68945 0.61891 0
M  V30 12869 H 1237 -4.85739 0.794871 0
M  V30 12870 N 1238.65 -0.49465 -1.49636 0
M  V30 12871 C 1239.56 0.291881 -2.32777 0
M  V30 12872 C 1240.57 0.973468 -1.44221 0
M  V30 12873 O 1241.75 0.956252 -1.77251 0
M  V30 12874 C 1238.81 1.34609 -3.19502 0
M  V30 12875 C 1237.88 0.678611 -4.23903 0
M  V30 12876 C 1237.11 1.68259 -5.06483 0
M  V30 12877 O 1237.33 2.91176 -4.90482 0
M  V30 12878 O 1236.27 1.24141 -5.88959 0
M  V30 12879 H 1240.09 -0.388459 -3.01205 0
M  V30 12880 H 1237.68 -0.256086 -1.47189 0
M  V30 12881 H 1239.56 1.95617 -3.73245 0
M  V30 12882 H 1238.23 2.00947 -2.53775 0
M  V30 12883 H 1237.14 0.0289541 -3.74089 0
M  V30 12884 H 1238.47 0.0577817 -4.92166 0
M  V30 12885 N 1240.13 1.55939 -0.228214 0
M  V30 12886 C 1241.37 1.9877 0.402272 0
M  V30 12887 C 1241.7 1.11587 1.5894 0
M  V30 12888 O 1240.98 0.175032 1.93711 0
M  V30 12889 C 1241.26 3.50396 0.830353 0
M  V30 12890 C 1241.12 4.4835 -0.360876 0
M  V30 12891 C 1242.43 4.06602 1.68413 0
M  V30 12892 H 1239.55 0.722646 0.144746 0
M  V30 12893 H 1242.2 1.87186 -0.325784 0
M  V30 12894 H 1240.35 3.60398 1.4507 0
M  V30 12895 H 1242.02 4.5035 -0.999113 0
M  V30 12896 H 1240.26 4.21946 -1.00719 0
M  V30 12897 H 1240.93 5.51997 -0.0183074 0
M  V30 12898 H 1243.41 3.99585 1.16064 0
M  V30 12899 H 1242.28 5.12998 1.95254 0
M  V30 12900 H 1242.54 3.53897 2.64971 0
M  V30 12901 N 1241.6 -0.0451101 1.57535 0
M  V30 12902 C 1243.02 -0.400463 1.54494 0
M  V30 12903 C 1243.22 -1.77584 0.952166 0
M  V30 12904 O 1242.28 -2.46069 0.566221 0
M  V30 12905 C 1243.59 -0.31703 2.99024 0
M  V30 12906 C 1245.14 -0.395284 3.10494 0
M  V30 12907 C 1245.61 -0.341475 4.56725 0
M  V30 12908 N 1247.1 -0.400755 4.61463 0
M  V30 12909 C 1247.84 -0.381757 5.72128 0
M  V30 12910 N 1247.33 -0.315995 6.92079 0
M  V30 12911 N 1249.13 -0.4303 5.60451 0
M  V30 12912 H 1241.28 0.855156 1.94424 0
M  V30 12913 H 1243.54 0.323618 0.891053 0
M  V30 12914 H 1243.25 0.627477 3.46057 0
M  V30 12915 H 1243.12 -1.11696 3.60283 0
M  V30 12916 H 1245.51 -1.33022 2.63418 0
M  V30 12917 H 1245.59 0.433709 2.52096 0
M  V30 12918 H 1245.23 0.589725 5.04465 0
M  V30 12919 H 1245.16 -1.18836 5.13016 0
M  V30 12920 H 1247.65 -0.454745 3.75154 0
M  V30 12921 H 1247.97 -0.306158 7.72193 0
M  V30 12922 H 1246.31 -0.282281 6.94427 0
M  V30 12923 H 1249.5 -0.479555 4.65637 0
M  V30 12924 H 1249.68 -0.412025 6.46689 0
M  V30 12925 N 1243.08 -1.54377 -0.317073 0
M  V30 12926 C 1243.99 -1.87247 -1.41335 0
M  V30 12927 C 1245.01 -0.765017 -1.5628 0
M  V30 12928 O 1246.18 -1.05994 -1.71252 0
M  V30 12929 C 1243.25 -2.0988 -2.75955 0
M  V30 12930 C 1242.31 -3.33658 -2.70131 0
M  V30 12931 C 1241.54 -3.55202 -3.9833 0
M  V30 12932 O 1241.77 -2.80061 -4.96913 0
M  V30 12933 O 1240.7 -4.48693 -4.01196 0
M  V30 12934 H 1244.53 -2.80481 -1.16465 0
M  V30 12935 H 1242.11 -1.40364 -0.511687 0
M  V30 12936 H 1243.99 -2.2606 -3.55633 0
M  V30 12937 H 1242.67 -1.19834 -3.00702 0
M  V30 12938 H 1241.58 -3.22857 -1.88981 0
M  V30 12939 H 1242.91 -4.23782 -2.50338 0
M  V30 12940 N 1244.56 0.579466 -1.4656 0
M  V30 12941 C 1245.84 1.33973 -1.42515 0
M  V30 12942 C 1246.22 2.10812 -0.110317 0
M  V30 12943 O 1245.57 2.09679 0.908135 0
M  V30 12944 C 1245.78 2.26301 -2.65686 0
M  V30 12945 C 1247.12 2.88027 -3.1197 0
M  V30 12946 O 1248.15 2.36612 -2.66257 0
M  V30 12947 O 1247.01 3.81423 -3.9138 0
M  V30 12948 H 1244.1 0.602121 -0.566903 0
M  V30 12949 H 1246.65 0.600214 -1.58731 0
M  V30 12950 H 1245.42 1.68973 -3.52936 0
M  V30 12951 H 1245.04 3.07586 -2.51945 0
M  V30 12952 N 1246.04 1.3432 0.824371 0
M  V30 12953 C 1246.95 1.27847 1.96704 0
M  V30 12954 C 1247.96 0.18641 1.72999 0
M  V30 12955 O 1249.14 0.412623 1.97128 0
M  V30 12956 C 1246.21 1.03231 3.30975 0
M  V30 12957 C 1245.27 2.21579 3.67697 0
M  V30 12958 C 1244.5 1.98128 4.95561 0
M  V30 12959 O 1244.72 0.938798 5.62621 0
M  V30 12960 O 1243.66 2.85041 5.30128 0
M  V30 12961 H 1247.48 2.23974 2.05108 0
M  V30 12962 H 1245.07 1.14512 0.959554 0
M  V30 12963 H 1246.95 0.912784 4.11395 0
M  V30 12964 H 1245.62 0.101425 3.23541 0
M  V30 12965 H 1244.53 2.3909 2.87727 0
M  V30 12966 H 1245.86 3.13052 3.79815 0
M  V30 12967 N 1247.52 -1.0444 1.18026 0
M  V30 12968 C 1248.48 -2.10532 0.906028 0
M  V30 12969 C 1249.48 -1.60443 -0.107022 0
M  V30 12970 O 1250.67 -1.73744 0.126001 0
M  V30 12971 C 1247.8 -3.39008 0.358625 0
M  V30 12972 H 1248.99 -2.36293 1.84677 0
M  V30 12973 H 1246.55 -1.20805 0.991763 0
M  V30 12974 H 1247.28 -3.18908 -0.588904 0
M  V30 12975 H 1247.07 -3.76678 1.08884 0
M  V30 12976 H 1248.56 -4.17189 0.185331 0
M  V30 12977 N 1248.99 -0.981699 -1.2329 0
M  V30 12978 C 1250.24 -0.652266 -1.92024 0
M  V30 12979 C 1250.57 0.812297 -1.76396 0
M  V30 12980 O 1249.85 1.5861 -1.12575 0
M  V30 12981 C 1250.13 -1.04506 -3.44602 0
M  V30 12982 C 1249.98 -2.56735 -3.69333 0
M  V30 12983 C 1251.3 -0.589937 -4.36128 0
M  V30 12984 H 1248.42 -0.238437 -0.697364 0
M  V30 12985 H 1251.06 -1.22322 -1.45387 0
M  V30 12986 H 1249.21 -0.559242 -3.84454 0
M  V30 12987 H 1250.89 -3.12901 -3.38955 0
M  V30 12988 H 1249.13 -2.9931 -3.14 0
M  V30 12989 H 1249.8 -2.79269 -4.76144 0
M  V30 12990 H 1252.28 -1.00706 -4.0373 0
M  V30 12991 H 1251.15 -0.893192 -5.41584 0
M  V30 12992 H 1251.41 0.509707 -4.39152 0
M  V30 12993 N 1250.47 1.3842 -0.753509 0
M  V30 12994 C 1251.4 2.33073 -0.141198 0
M  V30 12995 C 1252.38 1.54863 0.70367 0
M  V30 12996 O 1253.57 1.8318 0.644872 0
M  V30 12997 C 1250.7 3.39043 0.752802 0
M  V30 12998 C 1249.65 4.27999 0.0106692 0
M  V30 12999 C 1248.98 5.24824 1.02291 0
M  V30 13000 C 1250.28 5.09308 -1.15768 0
M  V30 13001 H 1251.97 2.84528 -0.93188 0
M  V30 13002 H 1249.52 1.36802 -0.449567 0
M  V30 13003 H 1251.47 4.04224 1.19083 0
M  V30 13004 H 1250.2 2.8607 1.57581 0
M  V30 13005 H 1248.85 3.64323 -0.407939 0
M  V30 13006 H 1248.5 4.68139 1.83998 0
M  V30 13007 H 1248.2 5.85196 0.53101 0
M  V30 13008 H 1249.73 5.92882 1.46026 0
M  V30 13009 H 1251.14 5.6773 -0.797203 0
M  V30 13010 H 1249.54 5.78914 -1.58044 0
M  V30 13011 H 1250.61 4.43051 -1.97062 0
M  V30 13012 N 1251.95 0.502579 1.49372 0
M  V30 13013 C 1253.36 0.055187 1.86618 0
M  V30 13014 C 1253.71 -1.35938 1.41476 0
M  V30 13015 O 1252.84 -2.01333 0.793338 0
M  V30 13016 C 1253.43 0.0933734 3.38671 0
M  V30 13017 C 1251.99 -0.298685 3.75213 0
M  V30 13018 C 1251.14 0.465216 2.7337 0
M  V30 13019 H 1254.09 0.715281 1.41667 0
M  V30 13020 H 1254.11 -0.701549 3.73977 0
M  V30 13021 H 1253.62 1.12303 3.71497 0
M  V30 13022 H 1251.72 -1.33151 3.47996 0
M  V30 13023 H 1251.84 0.0218637 4.79095 0
M  V30 13024 H 1250.2 -0.0851469 2.54558 0
M  V30 13025 H 1250.98 1.49498 3.09039 0
M  V30 13026 N 1253.43 -1.55816 0.23648 0
M  V30 13027 C 1254.67 -1.98981 -0.391725 0
M  V30 13028 C 1255.01 -1.12428 -1.58346 0
M  V30 13029 O 1254.28 -0.185303 -1.93615 0
M  V30 13030 C 1254.57 -3.50831 -0.811759 0
M  V30 13031 C 1254.42 -4.48152 0.384648 0
M  V30 13032 C 1255.74 -4.07489 -1.66254 0
M  V30 13033 H 1252.86 -0.723404 -0.140911 0
M  V30 13034 H 1255.5 -1.87011 0.335706 0
M  V30 13035 H 1253.65 -3.61162 -1.43157 0
M  V30 13036 H 1255.32 -4.49814 1.02298 0
M  V30 13037 H 1253.56 -4.21406 1.02955 0
M  V30 13038 H 1254.23 -5.51979 0.0475809 0
M  V30 13039 H 1256.71 -4.00195 -1.13944 0
M  V30 13040 H 1255.59 -5.14026 -1.92531 0
M  V30 13041 H 1255.85 -3.55297 -2.6309 0
M  V30 13042 N 1254.91 0.036755 -1.57557 0
M  V30 13043 C 1256.15 0.729106 -1.88919 0
M  V30 13044 C 1256.48 1.75769 -0.832801 0
M  V30 13045 O 1255.74 1.94985 0.167173 0
M  V30 13046 C 1256.04 1.44206 -3.27016 0
M  V30 13047 C 1255.7 0.550184 -4.47531 0
M  V30 13048 C 1254.36 0.304511 -4.80236 0
M  V30 13049 C 1256.72 -0.0660664 -5.21158 0
M  V30 13050 C 1254.04 -0.566316 -5.8396 0
M  V30 13051 C 1256.4 -0.92455 -6.25807 0
M  V30 13052 C 1255.06 -1.17976 -6.56992 0
M  V30 13053 H 1254.33 0.266799 -0.691303 0
M  V30 13054 H 1256.98 -0.0108698 -1.91497 0
M  V30 13055 H 1255.28 2.25516 -3.2039 0
M  V30 13056 H 1256.98 1.98317 -3.48527 0
M  V30 13057 H 1253.57 0.751814 -4.21955 0
M  V30 13058 H 1257.75 0.110784 -4.96176 0
M  V30 13059 H 1253.01 -0.772428 -6.06501 0
M  V30 13060 H 1257.18 -1.40861 -6.82005 0
M  V30 13061 H 1254.81 -1.85627 -7.37188 0
M  V30 13062 N 1256.39 1.54543 0.308881 0
M  V30 13063 C 1257.3 1.87994 1.4034 0
M  V30 13064 C 1258.31 0.773294 1.55872 0
M  V30 13065 O 1259.49 1.069 1.70688 0
M  V30 13066 C 1256.55 2.11341 2.74838 0
M  V30 13067 C 1255.61 3.35086 2.68358 0
M  V30 13068 C 1254.85 3.5731 3.96441 0
M  V30 13069 O 1255.07 2.82692 4.9542 0
M  V30 13070 O 1254 4.50814 3.98811 0
M  V30 13071 H 1257.83 2.81094 1.14976 0
M  V30 13072 H 1255.41 1.40634 0.504236 0
M  V30 13073 H 1257.3 2.27943 3.54429 0
M  V30 13074 H 1255.97 1.21427 3.00062 0
M  V30 13075 H 1254.88 3.23855 1.87267 0
M  V30 13076 H 1256.21 4.25104 2.48087 0
M  V30 13077 N 1257.86 -0.571685 1.46866 0
M  V30 13078 C 1258.77 -1.70758 1.60869 0
M  V30 13079 C 1259.79 -1.66903 0.49186 0
M  V30 13080 O 1260.97 -1.86613 0.757468 0
M  V30 13081 C 1258.03 -3.07267 1.60586 0
M  V30 13082 C 1257.09 -3.22301 2.83585 0
M  V30 13083 C 1256.32 -4.52298 2.83306 0
M  V30 13084 O 1256.55 -5.36869 1.92685 0
M  V30 13085 O 1255.48 -4.70814 3.7499 0
M  V30 13086 H 1259.31 -1.6189 2.56954 0
M  V30 13087 H 1256.89 -0.740018 1.29785 0
M  V30 13088 H 1258.77 -3.8853 1.63163 0
M  V30 13089 H 1257.45 -3.16549 0.676637 0
M  V30 13090 H 1256.36 -2.4049 2.86558 0
M  V30 13091 H 1257.69 -3.17916 3.75753 0
M  V30 13092 N 1259.34 -1.34755 -0.817236 0
M  V30 13093 C 1260.29 -1.26801 -1.92848 0
M  V30 13094 C 1261.26 -0.142077 -1.65491 0
M  V30 13095 O 1262.44 -0.324006 -1.88029 0
M  V30 13096 C 1259.58 -1.03513 -3.2921 0
M  V30 13097 C 1258.7 -2.24932 -3.68822 0
M  V30 13098 C 1257.83 -1.94881 -4.94161 0
M  V30 13099 C 1256.87 -3.12411 -5.2637 0
M  V30 13100 N 1256.01 -2.82207 -6.42887 0
M  V30 13101 H 1260.85 -2.21832 -1.98983 0
M  V30 13102 H 1258.38 -1.10284 -0.973439 0
M  V30 13103 H 1260.34 -0.88047 -4.07803 0
M  V30 13104 H 1258.97 -0.121478 -3.22571 0
M  V30 13105 H 1258.02 -2.51299 -2.85575 0
M  V30 13106 H 1259.34 -3.12726 -3.88592 0
M  V30 13107 H 1258.49 -1.76184 -5.80555 0
M  V30 13108 H 1257.23 -1.04355 -4.76405 0
M  V30 13109 H 1256.23 -3.31698 -4.3847 0
M  V30 13110 H 1257.46 -4.03724 -5.46062 0
M  V30 13111 H 1255.41 -1.94263 -6.26576 0
M  V30 13112 H 1255.32 -3.63534 -6.62857 0
M  V30 13113 H 1256.59 -2.67026 -7.32337 0
M  V30 13114 N 1260.82 1.03812 -1.18578 0
M  V30 13115 C 1262.07 1.76455 -0.977071 0
M  V30 13116 C 1262.38 1.8926 0.493964 0
M  V30 13117 O 1263.59 2.58781 0.821256 0
M  V30 13118 C 1262.04 3.17264 -1.69917 0
M  V30 13119 C 1261.65 3.12543 -3.20969 0
M  V30 13120 C 1263.4 3.94266 -1.57337 0
M  V30 13121 C 1261.3 4.48226 -3.85807 0
M  V30 13122 H 1260.23 0.661445 -0.361949 0
M  V30 13123 H 1262.88 1.16252 -1.41978 0
M  V30 13124 H 1261.27 3.77878 -1.18424 0
M  V30 13125 H 1262.44 2.61364 -3.79507 0
M  V30 13126 H 1260.75 2.49039 -3.33719 0
M  V30 13127 H 1263.35 4.9461 -2.03137 0
M  V30 13128 H 1263.69 4.12963 -0.526033 0
M  V30 13129 H 1264.23 3.40232 -2.06124 0
M  V30 13130 H 1260.97 4.34734 -4.90599 0
M  V30 13131 H 1260.49 4.99497 -3.32058 0
M  V30 13132 H 1262.17 5.17135 -3.88819 0
M  V30 13133 N 1262.3 0.988223 1.22768 0
M  V30 13134 C 1263.55 0.656941 1.90702 0
M  V30 13135 C 1263.86 -0.814058 1.77855 0
M  V30 13136 O 1265.07 -1.25673 2.40663 0
M  V30 13137 C 1263.52 1.12445 3.41883 0
M  V30 13138 C 1263.13 2.62034 3.63376 0
M  V30 13139 C 1264.87 0.867277 4.15546 0
M  V30 13140 C 1262.78 3.02412 5.08233 0
M  V30 13141 H 1261.71 0.242012 0.714105 0
M  V30 13142 H 1264.36 1.19716 1.39069 0
M  V30 13143 H 1262.74 0.512386 3.92671 0
M  V30 13144 H 1263.92 3.28546 3.23101 0
M  V30 13145 H 1262.23 2.85583 3.03037 0
M  V30 13146 H 1264.83 1.14471 5.22303 0
M  V30 13147 H 1265.17 -0.196611 4.15835 0
M  V30 13148 H 1265.71 1.4413 3.70771 0
M  V30 13149 H 1262.44 4.07957 5.1308 0
M  V30 13150 H 1261.96 2.406 5.49429 0
M  V30 13151 H 1263.64 2.93452 5.76624 0
M  V30 13152 N 1263.78 -1.38018 0.760839 0
M  V30 13153 C 1265.02 -1.99557 0.319609 0
M  V30 13154 C 1265.34 -1.60699 -1.10457 0
M  V30 13155 O 1264.61 -0.867248 -1.75658 0
M  V30 13156 H 1263.19 -0.738066 0.115182 0
M  V30 13157 H 1265.86 -1.6867 0.976544 0
M  V30 13158 H 1264.95 -3.09672 0.388523 0
M  V30 13159 N 1265.25 -0.510493 -1.49103 0
M  V30 13160 C 1266.2 0.262848 -2.29298 0
M  V30 13161 C 1267.17 0.951714 -1.36131 0
M  V30 13162 O 1268.36 0.956534 -1.65091 0
M  V30 13163 C 1265.5 1.31565 -3.19037 0
M  V30 13164 C 1264.61 0.637598 -4.27269 0
M  V30 13165 C 1263.74 1.67165 -5.04212 0
M  V30 13166 C 1262.78 0.975992 -6.04269 0
M  V30 13167 N 1261.92 1.95468 -6.74342 0
M  V30 13168 H 1266.76 -0.427246 -2.94921 0
M  V30 13169 H 1264.3 -0.222538 -1.45407 0
M  V30 13170 H 1266.25 1.93813 -3.69449 0
M  V30 13171 H 1264.88 1.97438 -2.55379 0
M  V30 13172 H 1263.94 -0.0983863 -3.80273 0
M  V30 13173 H 1265.25 0.0904435 -4.98718 0
M  V30 13174 H 1264.4 2.36893 -5.5854 0
M  V30 13175 H 1263.14 2.25267 -4.32557 0
M  V30 13176 H 1262.15 0.264534 -5.49163 0
M  V30 13177 H 1263.37 0.40134 -6.77913 0
M  V30 13178 H 1261.32 2.52515 -6.05452 0
M  V30 13179 H 1261.23 1.45845 -7.41799 0
M  V30 13180 H 1262.5 2.64455 -7.33269 0
M  V30 13181 N 1266.73 1.55688 -0.24474 0
M  V30 13182 C 1267.98 1.99186 0.381167 0
M  V30 13183 C 1268.31 1.13266 1.57748 0
M  V30 13184 O 1267.59 0.195568 1.93514 0
M  V30 13185 C 1267.87 3.51257 0.793142 0
M  V30 13186 C 1267.72 4.47942 -0.408409 0
M  V30 13187 C 1269.04 4.08365 1.64091 0
M  V30 13188 H 1266.16 0.724141 0.137073 0
M  V30 13189 H 1268.8 1.8683 -0.345619 0
M  V30 13190 H 1266.95 3.61917 1.4124 0
M  V30 13191 H 1268.62 4.49265 -1.04682 0
M  V30 13192 H 1266.87 4.20854 -1.05189 0
M  V30 13193 H 1267.54 5.51946 -0.0768531 0
M  V30 13194 H 1270.01 4.00794 1.1182 0
M  V30 13195 H 1268.89 5.1504 1.89802 0
M  V30 13196 H 1269.15 3.56687 2.61202 0
M  V30 13197 N 1268.21 -0.0283989 1.57574 0
M  V30 13198 C 1269.12 -1.04575 2.10003 0
M  V30 13199 C 1270.14 -1.39588 1.03881 0
M  V30 13200 O 1271.31 -1.48894 1.35619 0
M  V30 13201 C 1268.38 -2.32755 2.56955 0
M  V30 13202 C 1267.44 -2.04317 3.77562 0
M  V30 13203 C 1266.67 -3.26385 4.22266 0
M  V30 13204 O 1266.89 -4.37082 3.66491 0
M  V30 13205 O 1265.83 -3.12046 5.14695 0
M  V30 13206 H 1269.65 -0.630183 2.9709 0
M  V30 13207 H 1267.24 -0.245423 1.4737 0
M  V30 13208 H 1269.12 -3.08111 2.87482 0
M  V30 13209 H 1267.8 -2.73605 1.72979 0
M  V30 13210 H 1266.7 -1.26527 3.52054 0
M  V30 13211 H 1268.04 -1.68321 4.62524 0
M  V30 13212 N 1269.69 -1.54705 -0.300681 0
M  V30 13213 C 1270.63 -1.85678 -1.37084 0
M  V30 13214 C 1271.6 -0.70573 -1.50362 0
M  V30 13215 O 1272.79 -0.954385 -1.65215 0
M  V30 13216 C 1269.93 -2.10995 -2.73084 0
M  V30 13217 C 1269.04 -3.38621 -2.68254 0
M  V30 13218 C 1268.18 -3.53779 -3.9625 0
M  V30 13219 C 1267.22 -4.75195 -3.85818 0
M  V30 13220 N 1266.35 -4.87157 -5.05591 0
M  V30 13221 H 1271.19 -2.76967 -1.09971 0
M  V30 13222 H 1268.73 -1.37147 -0.531887 0
M  V30 13223 H 1270.69 -2.23669 -3.52176 0
M  V30 13224 H 1269.32 -1.22973 -2.98458 0
M  V30 13225 H 1268.37 -3.34566 -1.81025 0
M  V30 13226 H 1269.68 -4.27834 -2.56436 0
M  V30 13227 H 1268.84 -3.66119 -4.83779 0
M  V30 13228 H 1267.58 -2.62699 -4.10902 0
M  V30 13229 H 1266.58 -4.62888 -2.96673 0
M  V30 13230 H 1267.81 -5.67683 -3.72711 0
M  V30 13231 H 1265.75 -3.99001 -5.20706 0
M  V30 13232 H 1265.67 -5.70372 -4.96197 0
M  V30 13233 H 1266.94 -5.03854 -5.9477 0
M  V30 13234 N 1271.17 0.563888 -1.47167 0
M  V30 13235 C 1272.41 1.32331 -1.53676 0
M  V30 13236 C 1272.75 1.93213 -0.195593 0
M  V30 13237 O 1272.02 1.77508 0.795068 0
M  V30 13238 C 1272.3 2.43848 -2.64972 0
M  V30 13239 C 1272.16 1.8788 -4.08682 0
M  V30 13240 C 1273.48 3.45809 -2.72221 0
M  V30 13241 H 1270.59 0.479791 -0.559437 0
M  V30 13242 H 1273.24 0.631669 -1.79192 0
M  V30 13243 H 1271.39 3.02846 -2.43345 0
M  V30 13244 H 1273.06 1.33195 -4.41652 0
M  V30 13245 H 1271.3 1.18593 -4.17275 0
M  V30 13246 H 1271.97 2.68465 -4.82318 0
M  V30 13247 H 1274.45 2.9672 -2.91713 0
M  V30 13248 H 1273.32 4.21272 -3.51882 0
M  V30 13249 H 1273.59 4.04236 -1.79014 0
M  V30 13250 N 1272.64 1.35187 0.810078 0
M  V30 13251 C 1273.92 1.18832 1.55365 0
M  V30 13252 C 1274.3 -0.233956 2.098 0
M  V30 13253 O 1273.65 -1.23701 1.92121 0
M  V30 13254 C 1273.86 2.25351 2.66492 0
M  V30 13255 C 1275.21 2.60981 3.34924 0
M  V30 13256 O 1276.23 2.24238 2.7676 0
M  V30 13257 O 1275.09 3.24147 4.3999 0
M  V30 13258 H 1272.18 0.461446 0.686292 0
M  V30 13259 H 1274.73 1.46858 0.850341 0
M  V30 13260 H 1273.5 3.20762 2.24115 0
M  V30 13261 H 1273.13 1.98575 3.44462 0
M  V30 13262 O 1274.16 -0.948929 1.30681 0
M  V30 13263 H 1274.85 -1.5779 1.12348 0
M  V30 END ATOM
M  V30 BEGIN BOND
M  V30 END BOND
M  V30 END CTAB
M  END
$$$$
