drugbank_target|P23560 Brain-derived neurotrophic factor (DB05047; DB09130; DB09301; DB11823)
 OpenBabel12092120313D

  0  0  0     0  0            999 V3000
M  V30 BEGIN CTAB
M  V30 COUNTS 3901 3935 0 0 0
M  V30 BEGIN ATOM
M  V30 1 H -0.908 1.98254 -0.117106 0
M  V30 2 N 0 1.576 0 0
M  V30 3 C 0.933 2.03868 1.02534 0
M  V30 4 C 1.911 0.928543 1.3348 0
M  V30 5 O 3.095 1.19667 1.45644 0
M  V30 6 C 0.222 2.43627 2.35294 0
M  V30 7 C -0.732 3.65373 2.2001 0
M  V30 8 S 0.101 5.13292 1.52614 0
M  V30 9 C 1.257 5.56322 2.86805 0
M  V30 10 H 1.49 2.90518 0.631377 0
M  V30 11 H -0.977 1.52953 0.210867 0
M  V30 12 H 0.981 2.67203 3.11629 0
M  V30 13 H -0.358 1.57376 2.7183 0
M  V30 14 H -1.165 3.90944 3.18086 0
M  V30 15 H -1.563 3.418 1.51819 0
M  V30 16 H 0.729 5.58782 3.83104 0
M  V30 17 H 1.672 6.56266 2.65933 0
M  V30 18 H 2.08 4.83886 2.90714 0
M  V30 19 N 1.4781 -0.272755 1.55222 0
M  V30 20 C 2.7061 -1.02255 1.79865 0
M  V30 21 C 3.1211 -1.79924 0.572088 0
M  V30 22 O 2.4781 -1.76638 -0.458842 0
M  V30 23 C 2.5291 -1.98094 3.02392 0
M  V30 24 O 2.2501 -1.23572 4.20311 0
M  V30 25 C 3.7511 -2.84884 3.39641 0
M  V30 26 H 0.9711 -0.302057 0.599168 0
M  V30 27 H 3.5151 -0.303465 2.02236 0
M  V30 28 H 1.6701 -2.65465 2.82147 0
M  V30 29 H 2.0841 -1.88172 4.89583 0
M  V30 30 H 3.5581 -3.47927 4.28545 0
M  V30 31 H 4.0351 -3.54665 2.59055 0
M  V30 32 H 4.6411 -2.23003 3.62146 0
M  V30 33 N 2.9562 -1.48159 -0.537278 0
M  V30 34 C 4.2052 -1.5506 -1.28993 0
M  V30 35 C 4.5182 -0.226211 -1.94288 0
M  V30 36 O 5.7242 -0.173395 -2.70946 0
M  V30 37 C 4.1802 -2.73429 -2.34018 0
M  V30 38 C 3.7882 -4.1248 -1.74825 0
M  V30 39 C 5.5322 -2.89638 -3.10339 0
M  V30 40 C 3.4392 -5.22121 -2.77747 0
M  V30 41 H 2.3692 -0.577231 -0.485098 0
M  V30 42 H 5.0202 -1.74478 -0.568317 0
M  V30 43 H 3.4022 -2.47431 -3.09182 0
M  V30 44 H 4.5762 -4.48466 -1.05899 0
M  V30 45 H 2.8912 -4.01327 -1.11022 0
M  V30 46 H 5.4882 -3.68718 -3.87235 0
M  V30 47 H 5.8312 -1.9882 -3.65754 0
M  V30 48 H 6.3642 -3.15502 -2.42288 0
M  V30 49 H 3.1032 -6.1488 -2.27161 0
M  V30 50 H 2.6232 -4.90631 -3.45024 0
M  V30 51 H 4.3022 -5.49924 -3.4087 0
M  V30 52 N 4.4343 0.785586 -1.36625 0
M  V30 53 C 5.3643 1.91259 -1.33949 0
M  V30 54 C 6.3453 1.68795 -0.210325 0
M  V30 55 O 7.5303 1.89854 -0.408561 0
M  V30 56 C 4.6603 3.28339 -1.13186 0
M  V30 57 C 3.6143 3.65335 -2.22967 0
M  V30 58 C 2.9403 5.00806 -1.87342 0
M  V30 59 C 4.2403 3.7352 -3.65075 0
M  V30 60 H 5.9343 1.93755 -2.28253 0
M  V30 61 H 3.4803 0.930788 -1.09874 0
M  V30 62 H 5.4333 4.06804 -1.09948 0
M  V30 63 H 4.1573 3.2624 -0.153332 0
M  V30 64 H 2.8163 2.89169 -2.25337 0
M  V30 65 H 2.4643 4.95233 -0.880545 0
M  V30 66 H 2.1643 5.26529 -2.60846 0
M  V30 67 H 3.6883 5.81687 -1.85667 0
M  V30 68 H 5.1023 4.42168 -3.64911 0
M  V30 69 H 3.4993 4.10731 -4.37516 0
M  V30 70 H 4.5693 2.74527 -3.99703 0
M  V30 71 N 5.9124 1.20967 1.01018 0
M  V30 72 C 7.1594 1.02374 1.74716 0
M  V30 73 C 7.4874 -0.443375 1.89379 0
M  V30 74 O 6.7424 -1.34535 1.42123 0
M  V30 75 C 7.0414 1.65997 3.16512 0
M  V30 76 C 6.7074 3.15831 3.2181 0
M  V30 77 C 5.3694 3.56719 3.22963 0
M  V30 78 C 7.7214 4.11816 3.19464 0
M  V30 79 C 5.0494 4.92107 3.19449 0
M  V30 80 C 7.4014 5.47158 3.17491 0
M  V30 81 C 6.0654 5.87451 3.16951 0
M  V30 82 H 5.3354 0.374614 0.639332 0
M  V30 83 H 7.9824 1.50485 1.18434 0
M  V30 84 H 6.2874 1.10166 3.75993 0
M  V30 85 H 7.9844 1.49119 3.72242 0
M  V30 86 H 4.5744 2.83263 3.21652 0
M  V30 87 H 8.7584 3.81257 3.17737 0
M  V30 88 H 4.0144 5.22579 3.17366 0
M  V30 89 H 8.1884 6.21274 3.14629 0
M  V30 90 H 5.8154 6.92329 3.13983 0
M  V30 91 N 7.3905 -1.2043 1.01659 0
M  V30 92 C 8.3205 -2.25466 0.607226 0
M  V30 93 C 9.3015 -1.65853 -0.377716 0
M  V30 94 O 10.4865 -1.92409 -0.263149 0
M  V30 95 C 7.6165 -3.47256 -0.0552949 0
M  V30 96 C 6.5705 -4.19462 0.850632 0
M  V30 97 C 5.8965 -5.34673 0.0538859 0
M  V30 98 C 7.1965 -4.75603 2.15868 0
M  V30 99 H 8.8905 -2.59962 1.48526 0
M  V30 100 H 6.4365 -1.2496 0.715605 0
M  V30 101 H 8.3895 -4.19917 -0.353233 0
M  V30 102 H 7.1135 -3.11924 -0.968045 0
M  V30 103 H 5.7725 -3.48667 1.13257 0
M  V30 104 H 5.4205 -4.95585 -0.860514 0
M  V30 105 H 5.1205 -5.83913 0.657192 0
M  V30 106 H 6.6445 -6.10138 -0.237598 0
M  V30 107 H 8.0585 -5.40083 1.92311 0
M  V30 108 H 6.4555 -5.3528 2.71284 0
M  V30 109 H 7.5255 -3.94346 2.82169 0
M  V30 110 N 8.8686 -0.792821 -1.36206 0
M  V30 111 C 10.0966 -0.378825 -2.03402 0
M  V30 112 C 10.5116 1.00586 -1.59774 0
M  V30 113 O 9.8686 1.64574 -0.788764 0
M  V30 114 C 9.9196 -0.43683 -3.58851 0
M  V30 115 O 9.6406 -1.76691 -4.00889 0
M  V30 116 C 11.1416 -0.0138943 -4.43298 0
M  V30 117 H 8.3616 -0.155673 -0.652692 0
M  V30 118 H 10.9056 -1.07261 -1.74113 0
M  V30 119 H 9.0606 0.208575 -3.86838 0
M  V30 120 H 9.4746 -1.72011 -4.95492 0
M  V30 121 H 10.9486 -0.105615 -5.51899 0
M  V30 122 H 11.4256 1.03915 -4.2673 0
M  V30 123 H 12.0316 -0.63192 -4.20579 0
M  V30 124 N 10.3467 1.47872 -0.545128 0
M  V30 125 C 11.2797 2.2675 0.256885 0
M  V30 126 C 12.2577 1.33293 0.931228 0
M  V30 127 O 13.4417 1.62657 0.95262 0
M  V30 128 C 10.5687 3.09976 1.36501 0
M  V30 129 C 9.6147 4.1892 0.800496 0
M  V30 130 S 10.4477 5.34397 -0.343505 0
M  V30 131 C 11.6037 6.21186 0.766733 0
M  V30 132 H 11.8367 2.94425 -0.412479 0
M  V30 133 H 9.3697 1.50806 -0.331204 0
M  V30 134 H 11.3277 3.585 1.9997 0
M  V30 135 H 9.9887 2.41686 2.00616 0
M  V30 136 H 9.1817 4.76836 1.63227 0
M  V30 137 H 8.7837 3.73215 0.242217 0
M  V30 138 H 11.0757 6.56804 1.66178 0
M  V30 139 H 12.0187 7.07742 0.225204 0
M  V30 140 H 12.4267 5.54574 1.05396 0
M  V30 141 N 11.8248 0.280983 1.55075 0
M  V30 142 C 13.0708 -0.33461 2.00021 0
M  V30 143 C 13.4038 -1.55063 1.16915 0
M  V30 144 O 12.6788 -1.93006 0.240646 0
M  V30 145 C 12.9618 -0.711007 3.53011 0
M  V30 146 C 12.8148 0.512766 4.46868 0
M  V30 147 C 14.1338 -1.54522 4.12081 0
M  V30 148 H 11.2528 -0.120147 0.727141 0
M  V30 149 H 13.8948 0.389097 1.85973 0
M  V30 150 H 12.0448 -1.32761 3.65112 0
M  V30 151 H 13.7168 1.15131 4.46702 0
M  V30 152 H 11.9598 1.14975 4.18286 0
M  V30 153 H 12.6308 0.205556 5.51617 0
M  V30 154 H 15.1068 -1.02442 4.03293 0
M  V30 155 H 13.9828 -1.77739 5.19327 0
M  V30 156 H 14.2438 -2.52813 3.62682 0
M  V30 157 N 13.3029 -1.57598 0.00835791 0
M  V30 158 C 14.5519 -1.90107 -0.673968 0
M  V30 159 C 14.8649 -0.884275 -1.7447 0
M  V30 160 O 16.0709 -1.09987 -2.48224 0
M  V30 161 C 14.5269 -3.37497 -1.24995 0
M  V30 162 C 14.1349 -4.47491 -0.2136 0
M  V30 163 C 15.8789 -3.79104 -1.90999 0
M  V30 164 C 13.7859 -5.85963 -0.80005 0
M  V30 165 H 12.7159 -0.709393 -0.255495 0
M  V30 166 H 15.3669 -1.83365 0.0702693 0
M  V30 167 H 13.7489 -3.39102 -2.04513 0
M  V30 168 H 14.9229 -4.57414 0.557596 0
M  V30 169 H 13.2379 -4.14956 0.346474 0
M  V30 170 H 15.8349 -4.79901 -2.35795 0
M  V30 171 H 16.1779 -3.1306 -2.74407 0
M  V30 172 H 16.7109 -3.79833 -1.18203 0
M  V30 173 H 13.4499 -6.555 -0.00456708 0
M  V30 174 H 12.9699 -5.79687 -1.54021 0
M  V30 175 H 14.6489 -6.33884 -1.29615 0
M  V30 176 N 14.781 0.264519 -1.55364 0
M  V30 177 C 16.006 1.01726 -1.80739 0
M  V30 178 C 16.431 1.78836 -0.583044 0
M  V30 179 O 15.789 1.75167 0.467566 0
M  V30 180 C 15.837 1.94482 -3.03659 0
M  V30 181 O 14.941 3.03386 -2.7934 0
M  V30 182 H 14.282 0.290395 -0.597132 0
M  V30 183 H 16.812 0.290854 -2.02522 0
M  V30 184 H 16.822 2.36278 -3.32621 0
M  V30 185 H 15.497 1.37772 -3.92418 0
M  V30 186 H 14.074 2.65844 -2.61498 0
M  V30 187 N 16.2591 1.48442 0.529413 0
M  V30 188 C 17.4891 1.59919 1.30804 0
M  V30 189 C 17.8971 0.258792 1.87422 0
M  V30 190 O 17.2401 -0.762096 1.67146 0
M  V30 191 C 17.3021 2.58693 2.49636 0
M  V30 192 C 16.9661 4.03745 2.14101 0
M  V30 193 C 17.9631 4.9141 1.6974 0
M  V30 194 C 15.6481 4.49285 2.24607 0
M  V30 195 C 17.6421 6.22645 1.36351 0
M  V30 196 C 15.3291 5.8054 1.9083 0
M  V30 197 C 16.3271 6.67043 1.46773 0
M  V30 198 O 16.0151 7.95856 1.1344 0
M  V30 199 H 15.7471 0.541981 0.404021 0
M  V30 200 H 18.3011 1.95 0.645309 0
M  V30 201 H 16.5311 2.18734 3.18892 0
M  V30 202 H 18.2201 2.59999 3.11698 0
M  V30 203 H 18.9861 4.57465 1.61094 0
M  V30 204 H 14.8651 3.82142 2.57854 0
M  V30 205 H 18.4091 6.90119 1.01891 0
M  V30 206 H 14.3061 6.14022 1.99117 0
M  V30 207 H 15.0741 8.08613 1.26832 0
M  V30 208 N 17.7372 -0.778329 1.37039 0
M  V30 209 C 18.9842 -1.53665 1.31884 0
M  V30 210 C 19.3122 -1.9425 -0.0986303 0
M  V30 211 O 18.5672 -1.63832 -1.07041 0
M  V30 212 C 18.8662 -2.81845 2.19768 0
M  V30 213 C 18.5322 -2.60345 3.68146 0
M  V30 214 C 17.1942 -2.5419 4.08584 0
M  V30 215 C 19.5462 -2.40923 4.62175 0
M  V30 216 C 16.8742 -2.26594 5.41177 0
M  V30 217 C 19.2262 -2.14852 5.94997 0
M  V30 218 C 17.8902 -2.07137 6.34547 0
M  V30 219 H 17.1602 -0.562299 0.482598 0
M  V30 220 H 19.8072 -0.897069 1.69189 0
M  V30 221 H 18.1122 -3.50328 1.75436 0
M  V30 222 H 19.8092 -3.39692 2.13097 0
M  V30 223 H 16.3992 -2.65996 3.36072 0
M  V30 224 H 20.5832 -2.44673 4.31797 0
M  V30 225 H 15.8392 -2.19111 5.70789 0
M  V30 226 H 20.0132 -1.98822 6.67415 0
M  V30 227 H 17.6402 -1.85518 7.37216 0
M  V30 228 N 19.2153 -1.21501 -1.00376 0
M  V30 229 C 20.4633 -1.03095 -1.73827 0
M  V30 230 C 20.7843 0.436341 -1.90055 0
M  V30 231 O 20.0543 1.31466 -1.45236 0
M  V30 232 H 18.6343 -0.378487 -0.644016 0
M  V30 233 H 21.2963 -1.52831 -1.20949 0
M  V30 234 H 20.3923 -1.49991 -2.73695 0
M  V30 235 N 20.6934 1.19889 -1.02296 0
M  V30 236 C 21.9334 1.91125 -0.724602 0
M  V30 237 C 22.2974 1.77464 0.732835 0
M  V30 238 O 23.4984 2.43241 1.144 0
M  V30 239 C 21.7694 3.38187 -1.15604 0
M  V30 240 S 23.3284 4.27702 -0.980621 0
M  V30 241 H 20.1464 0.66018 -0.263976 0
M  V30 242 H 22.7484 1.44978 -1.31155 0
M  V30 243 H 21.4524 3.45653 -2.21251 0
M  V30 244 H 20.9834 3.89363 -0.562131 0
M  V30 245 H 22.9984 4.96073 0.112225 0
M  V30 246 N 22.1715 0.800033 1.35784 0
M  V30 247 C 23.1045 0.151499 2.27697 0
M  V30 248 C 24.0825 -0.678663 1.4776 0
M  V30 249 O 25.2665 -0.647358 1.77035 0
M  V30 250 C 22.3935 -0.790492 3.29346 0
M  V30 251 C 21.4395 -0.0407832 4.26481 0
M  V30 252 S 22.2725 1.29077 5.19711 0
M  V30 253 C 23.4285 0.353055 6.24903 0
M  V30 254 H 23.6615 0.930796 2.82353 0
M  V30 255 H 21.1945 0.594767 1.42485 0
M  V30 256 H 23.1525 -1.3285 3.88409 0
M  V30 257 H 21.8135 -1.54312 2.73581 0
M  V30 258 H 21.0065 -0.755971 4.98298 0
M  V30 259 H 20.6085 0.427063 3.71554 0
M  V30 260 H 22.9005 -0.464147 6.75908 0
M  V30 261 H 23.8435 1.04023 7.00418 0
M  V30 262 H 24.2515 -0.0483344 5.64479 0
M  V30 263 N 23.6496 -1.47581 0.552962 0
M  V30 264 C 24.5966 -2.29957 -0.197108 0
M  V30 265 C 25.5666 -1.38799 -0.912359 0
M  V30 266 O 26.7516 -1.67761 -0.908888 0
M  V30 267 C 23.8916 -3.22672 -1.22379 0
M  V30 268 C 23.0046 -4.28919 -0.515038 0
M  V30 269 C 22.1396 -5.0879 -1.52664 0
M  V30 270 C 21.1786 -6.06815 -0.802631 0
M  V30 271 N 20.3156 -6.7966 -1.76086 0
M  V30 272 H 25.1556 -2.93578 0.511486 0
M  V30 273 H 22.6926 -1.4471 0.264067 0
M  V30 274 H 24.6506 -3.74845 -1.83159 0
M  V30 275 H 23.2806 -2.60925 -1.90047 0
M  V30 276 H 22.3326 -3.79835 0.207192 0
M  V30 277 H 23.6446 -4.98773 0.0523425 0
M  V30 278 H 22.7986 -5.65091 -2.20809 0
M  V30 279 H 21.5376 -4.38828 -2.12794 0
M  V30 280 H 20.5426 -5.49695 -0.107238 0
M  V30 281 H 21.7676 -6.78784 -0.207135 0
M  V30 282 H 19.7136 -6.12432 -2.35081 0
M  V30 283 H 19.6306 -7.45669 -1.24552 0
M  V30 284 H 20.8986 -7.40538 -2.43359 0
M  V30 285 N 25.1277 -0.289203 -1.54924 0
M  V30 286 C 26.0907 0.579144 -2.21762 0
M  V30 287 C 27.0907 1.07047 -1.1999 0
M  V30 288 O 28.2807 0.968384 -1.44803 0
M  V30 289 C 25.4127 1.80055 -2.8947 0
M  V30 290 H 26.6057 -0.00464908 -2.999 0
M  V30 291 H 24.1587 -0.0399306 -1.56249 0
M  V30 292 H 24.8937 2.42449 -2.15381 0
M  V30 293 H 24.6787 1.45602 -3.64064 0
M  V30 294 H 26.1687 2.41773 -3.40493 0
M  V30 295 N 26.6058 1.57591 -0.0167156 0
M  V30 296 C 27.5688 2.08393 0.954204 0
M  V30 297 C 28.5688 0.996531 1.26198 0
M  V30 298 O 29.7588 1.25858 1.20438 0
M  V30 299 C 26.8908 2.5394 2.27436 0
M  V30 300 H 28.0838 2.95455 0.514451 0
M  V30 301 H 25.6368 1.54582 0.231089 0
M  V30 302 H 26.3718 1.70171 2.76066 0
M  V30 303 H 26.1568 3.33371 2.06412 0
M  V30 304 H 27.6468 2.93512 2.97053 0
M  V30 305 N 28.0839 -0.256276 1.55502 0
M  V30 306 C 29.4949 -0.826068 1.67431 0
M  V30 307 C 29.8459 -1.86396 0.612446 0
M  V30 308 O 28.9709 -2.15031 -0.243025 0
M  V30 309 C 29.5659 -1.50512 3.03532 0
M  V30 310 C 28.1249 -2.02273 3.17431 0
M  V30 311 C 27.2719 -0.870548 2.63281 0
M  V30 312 H 30.2229 -0.0322728 1.58667 0
M  V30 313 H 30.2439 -2.37279 2.97454 0
M  V30 314 H 29.7559 -0.749484 3.80794 0
M  V30 315 H 27.8569 -2.80746 2.44974 0
M  V30 316 H 27.9699 -2.22655 4.24219 0
M  V30 317 H 26.3339 -1.26851 2.20864 0
M  V30 318 H 27.1169 -0.128149 3.43061 0
M  V30 319 N 29.562 -1.4872 -0.521534 0
M  V30 320 C 30.495 -1.58451 -1.64221 0
M  V30 321 C 31.473 -0.434513 -1.56687 0
M  V30 322 O 32.657 -0.647275 -1.77038 0
M  V30 323 C 29.784 -1.52037 -3.02659 0
M  V30 324 C 28.83 -2.71981 -3.28525 0
M  V30 325 S 29.663 -4.33869 -3.13876 0
M  V30 326 C 30.819 -4.30067 -4.54745 0
M  V30 327 H 31.052 -2.53256 -1.55719 0
M  V30 328 H 28.585 -1.37358 -0.705143 0
M  V30 329 H 30.543 -1.49023 -3.82495 0
M  V30 330 H 29.204 -0.585541 -3.08594 0
M  V30 331 H 28.397 -2.63656 -4.29536 0
M  V30 332 H 27.999 -2.72302 -2.56374 0
M  V30 333 H 30.291 -4.00521 -5.46433 0
M  V30 334 H 31.234 -5.31287 -4.68123 0
M  V30 335 H 31.642 -3.60419 -4.34463 0
M  V30 336 N 31.0401 0.771051 -1.3745 0
M  V30 337 C 31.9871 1.88435 -1.3327 0
M  V30 338 C 32.9571 1.64914 -0.198136 0
M  V30 339 O 34.1421 1.86821 -0.387606 0
M  V30 340 C 31.2821 3.25509 -1.14622 0
M  V30 341 C 30.3951 3.60979 -2.37314 0
M  V30 342 C 29.5301 4.87265 -2.11533 0
M  V30 343 C 28.5691 5.15469 -3.30088 0
M  V30 344 N 27.7061 6.32944 -3.03853 0
M  V30 345 H 32.5461 1.91344 -2.28455 0
M  V30 346 H 30.0831 0.935466 -1.13523 0
M  V30 347 H 32.0411 4.04582 -1.01831 0
M  V30 348 H 30.6711 3.21974 -0.230837 0
M  V30 349 H 29.7231 2.76885 -2.60842 0
M  V30 350 H 31.0351 3.77759 -3.25729 0
M  V30 351 H 30.1891 5.74244 -1.95777 0
M  V30 352 H 28.9281 4.7259 -1.20457 0
M  V30 353 H 27.9331 4.26966 -3.46382 0
M  V30 354 H 29.1581 5.32052 -4.22016 0
M  V30 355 H 27.1041 6.19625 -2.15407 0
M  V30 356 H 27.0211 6.50143 -3.85812 0
M  V30 357 H 28.2891 7.22857 -2.91716 0
M  V30 358 N 32.5182 1.22032 0.997298 0
M  V30 359 C 33.4282 1.00271 2.12092 0
M  V30 360 C 34.4442 -0.047621 1.73935 0
M  V30 361 O 35.6202 0.144136 2.00884 0
M  V30 362 C 32.6852 0.578449 3.4184 0
M  V30 363 C 31.7462 1.70189 3.94125 0
M  V30 364 C 30.9792 1.29778 5.17681 0
M  V30 365 O 31.2022 0.174676 5.70132 0
M  V30 366 O 30.1362 2.11261 5.63607 0
M  V30 367 H 33.9622 1.94398 2.3333 0
M  V30 368 H 31.5472 1.00587 1.10465 0
M  V30 369 H 33.4292 0.351998 4.19927 0
M  V30 370 H 32.1042 -0.334019 3.21972 0
M  V30 371 H 31.0112 1.98282 3.1723 0
M  V30 372 H 32.3442 2.59206 4.18417 0
M  V30 373 N 33.9963 -1.19345 1.0293 0
M  V30 374 C 34.9593 -2.20793 0.615069 0
M  V30 375 C 35.9593 -1.57553 -0.321533 0
M  V30 376 O 37.1493 -1.73862 -0.108483 0
M  V30 377 C 34.2813 -3.40754 -0.0999222 0
M  V30 378 H 35.4743 -2.58955 1.51269 0
M  V30 379 H 33.0273 -1.3303 0.820534 0
M  V30 380 H 33.7623 -3.0811 -1.01187 0
M  V30 381 H 33.5473 -3.87889 0.57309 0
M  V30 382 H 35.0373 -4.15898 -0.376645 0
M  V30 383 N 35.4744 -0.807222 -1.35358 0
M  V30 384 C 36.4224 -0.20614 -2.31685 0
M  V30 385 C 37.4164 0.644445 -1.56663 0
M  V30 386 O 38.6224 0.537538 -1.71786 0
M  V30 387 H 34.9974 -0.0479006 -0.750473 0
M  V30 388 H 36.9684 -1.03369 -2.79924 0
M  V30 389 C 35.7174 0.630212 -3.41941 0
M  V30 390 H 35.0404 -0.0149558 -3.99797 0
M  V30 391 H 36.4804 1.01716 -4.11619 0
M  V30 392 C 34.9394 1.79601 -2.85035 0
M  V30 393 O 35.4694 2.89351 -2.78637 0
M  V30 394 N 33.6754 1.60774 -2.42074 0
M  V30 395 H 33.2224 0.715009 -2.47478 0
M  V30 396 H 33.1804 2.38933 -2.04349 0
M  V30 397 N 36.9525 1.47285 -0.560781 0
M  V30 398 C 38.2015 2.01668 -0.035895 0
M  V30 399 C 38.5145 1.44021 1.32353 0
M  V30 400 O 39.7205 1.90088 1.93853 0
M  V30 401 C 38.1765 3.59897 -0.0136659 0
M  V30 402 C 37.7845 4.26536 -1.37006 0
M  V30 403 C 39.5285 4.22017 0.458425 0
M  V30 404 C 37.4355 5.76782 -1.30675 0
M  V30 405 H 36.3655 0.753938 -0.00964879 0
M  V30 406 H 39.0165 1.69243 -0.709166 0
M  V30 407 H 37.3985 3.89301 0.725325 0
M  V30 408 H 38.5725 4.0877 -2.12705 0
M  V30 409 H 36.8875 3.76419 -1.78038 0
M  V30 410 H 39.4845 5.32124 0.524247 0
M  V30 411 H 39.8275 3.89437 1.4712 0
M  V30 412 H 40.3605 3.97159 -0.225818 0
M  V30 413 H 37.0995 6.13988 -2.29564 0
M  V30 414 H 36.6195 5.96875 -0.591622 0
M  V30 415 H 38.2985 6.39063 -1.01033 0
M  V30 416 N 38.4306 0.297415 1.54768 0
M  V30 417 C 39.8466 -0.0560823 1.59501 0
M  V30 418 C 40.0466 -1.52725 1.31444 0
M  V30 419 O 39.1026 -2.27947 1.08611 0
M  V30 420 C 40.4156 0.338631 2.98787 0
M  V30 421 C 41.9636 0.287097 3.11681 0
M  V30 422 C 42.4386 0.656579 4.53269 0
M  V30 423 N 43.9296 0.608977 4.59179 0
M  V30 424 C 44.6646 0.867385 5.66802 0
M  V30 425 N 44.1606 1.19157 6.82476 0
M  V30 426 N 45.9536 0.794687 5.56454 0
M  V30 427 H 38.1046 1.25624 1.71267 0
M  V30 428 H 40.3676 0.509057 0.799728 0
M  V30 429 H 40.0736 1.36263 3.2423 0
M  V30 430 H 39.9476 -0.309508 3.75928 0
M  V30 431 H 42.3346 -0.727649 2.85988 0
M  V30 432 H 42.4156 0.969809 2.36703 0
M  V30 433 H 42.0596 1.66912 4.7969 0
M  V30 434 H 41.9896 -0.0481649 5.26578 0
M  V30 435 H 44.4806 0.369198 3.76092 0
M  V30 436 H 44.7936 1.37482 7.60473 0
M  V30 437 H 43.1386 1.22958 6.84037 0
M  V30 438 H 46.3296 0.541098 4.64962 0
M  V30 439 H 46.5026 0.999445 6.40246 0
M  V30 440 N 39.9087 -1.5758 0.0250728 0
M  V30 441 C 41.1567 -1.91255 -0.653151 0
M  V30 442 C 41.4777 -0.901691 -1.729 0
M  V30 443 O 40.7477 0.0573785 -1.95816 0
M  V30 444 H 39.3277 -0.705942 -0.244243 0
M  V30 445 H 41.9897 -1.94767 0.0719209 0
M  V30 446 H 41.0857 -2.91752 -1.10847 0
M  V30 447 N 41.3868 0.248026 -1.55636 0
M  V30 448 C 42.3188 1.32993 -1.8667 0
M  V30 449 C 43.3318 1.44345 -0.752877 0
M  V30 450 O 44.5208 1.45715 -1.03098 0
M  V30 451 C 41.6208 2.70863 -2.03682 0
M  V30 452 C 40.7938 2.81792 -3.34532 0
M  V30 453 C 39.8528 4.005 -3.41301 0
M  V30 454 O 38.8788 3.9008 -4.14519 0
M  V30 455 N 40.0808 5.13618 -2.70512 0
M  V30 456 H 42.8458 1.06707 -2.8006 0
M  V30 457 H 40.4068 0.438129 -1.55859 0
M  V30 458 H 42.3988 3.48612 -2.05553 0
M  V30 459 H 40.9688 2.89862 -1.17041 0
M  V30 460 H 40.1888 1.90729 -3.44987 0
M  V30 461 H 41.4768 2.86043 -4.20781 0
M  V30 462 H 40.8748 5.24975 -2.10755 0
M  V30 463 H 39.4318 5.89505 -2.78077 0
M  V30 464 N 42.8649 1.48995 0.513639 0
M  V30 465 C 44.1129 1.57531 1.26604 0
M  V30 466 C 44.4339 0.258236 1.93283 0
M  V30 467 O 43.7039 -0.721502 1.8213 0
M  V30 468 H 42.2839 0.580387 0.470276 0
M  V30 469 H 44.9459 1.85552 0.596373 0
M  V30 470 H 44.0419 2.36486 2.03669 0
M  V30 471 N 44.343 -0.763751 1.37857 0
M  V30 472 C 45.591 -1.51957 1.33243 0
M  V30 473 C 45.912 -1.94835 -0.0801709 0
M  V30 474 O 45.182 -1.66894 -1.02582 0
M  V30 475 H 43.762 -0.563626 0.49024 0
M  V30 476 H 46.424 -0.908504 1.7243 0
M  V30 477 H 45.52 -2.41523 1.97669 0
M  V30 478 N 45.8211 -1.22559 -0.990812 0
M  V30 479 C 46.7511 -1.0218 -2.09956 0
M  V30 480 C 47.7321 0.0579394 -1.70001 0
M  V30 481 O 48.9171 -0.104684 -1.93918 0
M  V30 482 C 46.0471 -0.601023 -3.4206 0
M  V30 483 C 45.0011 -1.62694 -3.95872 0
M  V30 484 C 44.3271 -1.06193 -5.24049 0
M  V30 485 C 45.6271 -3.01743 -4.2632 0
M  V30 486 H 47.3211 -1.94916 -2.27262 0
M  V30 487 H 44.8671 -0.938566 -1.09211 0
M  V30 488 H 46.8201 -0.445561 -4.19038 0
M  V30 489 H 45.5441 0.362005 -3.24588 0
M  V30 490 H 44.2031 -1.77021 -3.21028 0
M  V30 491 H 43.8511 -0.0901903 -5.02919 0
M  V30 492 H 43.5511 -1.74732 -5.61019 0
M  V30 493 H 45.0751 -0.918092 -6.03658 0
M  V30 494 H 46.4891 -2.90777 -4.94087 0
M  V30 495 H 44.8861 -3.67425 -4.74467 0
M  V30 496 H 45.9561 -3.51518 -3.34011 0
M  V30 497 N 47.2992 1.18797 -1.03562 0
M  V30 498 C 48.2622 2.20464 -0.626769 0
M  V30 499 C 49.2622 1.57721 0.313173 0
M  V30 500 O 50.4522 1.73917 0.0992615 0
M  V30 501 C 47.5842 3.40802 0.0818498 0
M  V30 502 H 48.7772 2.58149 -1.5264 0
M  V30 503 H 46.3302 1.32593 -0.827578 0
M  V30 504 H 47.0652 3.08642 0.995518 0
M  V30 505 H 46.8502 3.8758 -0.593652 0
M  V30 506 H 48.3402 4.16092 0.354584 0
M  V30 507 N 48.7773 0.814389 1.34928 0
M  V30 508 C 50.0073 0.41054 2.0248 0
M  V30 509 C 50.4153 -0.985625 1.61499 0
M  V30 510 O 49.7583 -1.64781 0.811976 0
M  V30 511 C 49.8203 0.423384 3.56998 0
M  V30 512 C 49.4843 1.77141 4.21272 0
M  V30 513 C 50.4813 2.73093 4.42398 0
M  V30 514 C 48.1663 2.05755 4.58225 0
M  V30 515 C 50.1603 3.95838 4.9959 0
M  V30 516 C 47.8473 3.28762 5.1513 0
M  V30 517 C 48.8453 4.23621 5.35755 0
M  V30 518 O 48.5333 5.44456 5.91458 0
M  V30 519 H 48.2653 0.163997 0.655806 0
M  V30 520 H 50.8193 1.10155 1.73364 0
M  V30 521 H 49.0493 -0.324276 3.85338 0
M  V30 522 H 50.7383 0.0407683 4.0588 0
M  V30 523 H 51.5043 2.5228 4.14222 0
M  V30 524 H 47.3833 1.32727 4.4148 0
M  V30 525 H 50.9273 4.69891 5.15605 0
M  V30 526 H 46.8243 3.49443 5.42734 0
M  V30 527 H 47.5923 5.4586 6.09901 0
M  V30 528 N 50.2554 -1.46986 0.568584 0
M  V30 529 C 51.6664 -1.86188 0.138219 0
M  V30 530 C 52.0174 -1.47388 -1.29504 0
M  V30 531 O 51.1424 -0.88219 -1.97602 0
M  V30 532 C 51.7374 -3.3792 0.244065 0
M  V30 533 C 50.2964 -3.76171 -0.131335 0
M  V30 534 C 49.4434 -2.71027 0.586465 0
M  V30 535 H 52.3944 -1.38342 0.777645 0
M  V30 536 H 52.4154 -3.76729 -0.534351 0
M  V30 537 H 51.9274 -3.66128 1.28731 0
M  V30 538 H 50.0284 -3.5358 -1.17526 0
M  V30 539 H 50.1414 -4.78523 0.235146 0
M  V30 540 H 48.5054 -2.54684 0.0282722 0
M  V30 541 H 49.2884 -3.02077 1.63109 0
M  V30 542 N 51.7335 -0.305618 -1.54608 0
M  V30 543 C 52.9815 0.301701 -1.99835 0
M  V30 544 C 53.3025 1.54054 -1.19551 0
M  V30 545 O 52.5725 1.93702 -0.292658 0
M  V30 546 H 51.1525 0.114468 -0.738178 0
M  V30 547 H 53.8145 -0.418016 -1.90364 0
M  V30 548 H 52.9105 0.570548 -3.06841 0
M  V30 549 N 53.2116 1.57565 -0.0334293 0
M  V30 550 C 54.4576 1.92262 0.645226 0
M  V30 551 C 54.7906 0.910543 1.71531 0
M  V30 552 O 54.0656 -0.066099 1.94388 0
M  V30 553 C 54.3486 3.37422 1.2577 0
M  V30 554 C 54.2016 4.49369 0.196891 0
M  V30 555 C 55.5206 3.82628 2.17449 0
M  V30 556 H 52.6396 0.699171 0.233085 0
M  V30 557 H 55.2816 1.89779 -0.0915694 0
M  V30 558 H 53.4316 3.39669 1.88566 0
M  V30 559 H 55.1036 4.59254 -0.433962 0
M  V30 560 H 53.3466 4.31168 -0.477137 0
M  V30 561 H 54.0176 5.47978 0.665124 0
M  V30 562 H 56.4936 3.82145 1.64634 0
M  V30 563 H 55.3696 4.84883 2.57254 0
M  V30 564 H 55.6306 3.18376 3.0674 0
M  V30 565 N 54.6897 -0.239769 1.55765 0
M  V30 566 C 56.1057 -0.588624 1.48349 0
M  V30 567 C 56.3057 -1.88005 0.72502 0
M  V30 568 O 55.3617 -2.51186 0.257269 0
M  V30 569 C 56.6747 -0.68474 2.928 0
M  V30 570 C 58.2227 -0.77659 3.03213 0
M  V30 571 C 58.6977 -0.904207 4.48986 0
M  V30 572 N 60.1887 -0.968896 4.52953 0
M  V30 573 C 60.9237 -1.08703 5.63002 0
M  V30 574 N 60.4197 -1.17026 6.82845 0
M  V30 575 N 62.2127 -1.12074 5.50814 0
M  V30 576 H 54.3637 0.607911 2.03515 0
M  V30 577 H 56.6267 0.21083 0.924259 0
M  V30 578 H 56.3327 0.194284 3.51163 0
M  V30 579 H 56.2067 -1.55435 3.43686 0
M  V30 580 H 58.5937 -1.64606 2.44926 0
M  V30 581 H 58.6747 0.118315 2.55526 0
M  V30 582 H 58.3187 -0.0392633 5.07885 0
M  V30 583 H 58.2487 -1.81426 4.9436 0
M  V30 584 H 60.7397 -0.915633 3.6664 0
M  V30 585 H 61.0527 -1.25966 7.62465 0
M  V30 586 H 59.3977 -1.13971 6.85591 0
M  V30 587 H 62.5887 -1.05226 4.5612 0
M  V30 588 H 62.7617 -1.20936 6.36615 0
M  V30 589 N 56.1678 -1.49265 -0.50573 0
M  V30 590 C 57.3958 -1.62215 -1.28429 0
M  V30 591 C 57.8108 -0.291697 -1.86533 0
M  V30 592 O 57.1678 0.722233 -1.67601 0
M  V30 593 C 57.2188 -2.68735 -2.41793 0
M  V30 594 O 56.9398 -3.96619 -1.86078 0
M  V30 595 C 58.4408 -2.92346 -3.3324 0
M  V30 596 H 55.6608 -0.546239 -0.389697 0
M  V30 597 H 58.2048 -1.95265 -0.607609 0
M  V30 598 H 56.3598 -2.38476 -3.053 0
M  V30 599 H 56.7738 -4.55256 -2.60465 0
M  V30 600 H 58.2478 -3.70623 -4.09075 0
M  V30 601 H 58.7248 -2.02081 -3.89948 0
M  V30 602 H 59.3308 -3.24003 -2.75503 0
M  V30 603 N 57.6459 0.756429 -1.3826 0
M  V30 604 C 58.5959 1.86069 -1.31766 0
M  V30 605 C 59.5799 1.59621 -0.202483 0
M  V30 606 O 60.7719 1.7149 -0.438211 0
M  V30 607 C 57.9009 3.23742 -1.1422 0
M  V30 608 C 56.9869 3.56091 -2.30348 0
M  V30 609 N 57.3779 3.59517 -3.55783 0
M  V30 610 C 55.6759 3.86341 -2.22838 0
M  V30 611 C 56.3769 3.89052 -4.32451 0
M  V30 612 N 55.3529 4.05736 -3.61772 0
M  V30 613 H 59.1549 1.86992 -2.26741 0
M  V30 614 H 56.6689 0.953643 -1.31451 0
M  V30 615 H 58.6659 4.02761 -1.07652 0
M  V30 616 H 57.3259 3.24073 -0.201763 0
M  V30 617 H 58.3369 3.41347 -3.89491 0
M  V30 618 H 55.0139 3.94404 -1.36937 0
M  V30 619 H 56.4039 3.98349 -5.4108 0
M  V30 620 N 59.124 1.23083 0.984299 0
M  V30 621 C 60.372 1.05848 1.72165 0
M  V30 622 C 60.693 -0.406049 1.90726 0
M  V30 623 O 59.963 -1.29139 1.47309 0
M  V30 624 H 58.543 0.388685 0.637913 0
M  V30 625 H 61.205 1.54736 1.18503 0
M  V30 626 H 60.301 1.54327 2.71274 0
M  V30 627 N 60.6021 -1.18246 1.0419 0
M  V30 628 C 61.8301 -1.92195 0.766072 0
M  V30 629 C 62.2451 -1.76247 -0.676933 0
M  V30 630 O 61.6021 -1.09293 -1.46155 0
M  V30 631 C 61.6531 -3.43568 1.12442 0
M  V30 632 O 61.3741 -3.59015 2.51078 0
M  V30 633 C 62.8751 -4.34613 0.873275 0
M  V30 634 H 60.0951 -0.610114 0.279288 0
M  V30 635 H 62.6391 -1.50007 1.38989 0
M  V30 636 H 60.7941 -3.8354 0.545542 0
M  V30 637 H 61.2081 -4.5273 2.64831 0
M  V30 638 H 62.6821 -5.39374 1.17385 0
M  V30 639 H 63.1591 -4.38781 -0.191909 0
M  V30 640 H 63.7651 -4.00341 1.43551 0
M  V30 641 N 62.0802 -0.821533 -1.34494 0
M  V30 642 C 63.0102 -0.257138 -2.3208 0
M  V30 643 C 63.9912 0.625645 -1.58176 0
M  V30 644 O 65.1762 0.552811 -1.86166 0
M  V30 645 C 62.3062 0.582958 -3.42372 0
M  V30 646 C 61.2602 -0.202571 -4.2752 0
M  V30 647 C 60.5862 0.760179 -5.29269 0
M  V30 648 C 61.8862 -1.40998 -5.02908 0
M  V30 649 H 63.5802 -1.07247 -2.79532 0
M  V30 650 H 61.1262 -0.517163 -1.34393 0
M  V30 651 H 63.0792 0.987972 -4.09655 0
M  V30 652 H 61.8032 1.43133 -2.93565 0
M  V30 653 H 60.4622 -0.588936 -3.61838 0
M  V30 654 H 60.1102 1.60447 -4.76724 0
M  V30 655 H 59.8102 0.238809 -5.87115 0
M  V30 656 H 61.3342 1.16308 -5.9942 0
M  V30 657 H 62.7482 -1.07905 -5.63054 0
M  V30 658 H 61.1452 -1.86689 -5.70322 0
M  V30 659 H 62.2152 -2.1889 -4.32684 0
M  V30 660 N 63.5583 1.46682 -0.576371 0
M  V30 661 C 64.4683 2.34032 0.163141 0
M  V30 662 C 65.4843 1.49367 0.892501 0
M  V30 663 O 66.6603 1.82252 0.857106 0
M  V30 664 C 63.7253 3.26435 1.16795 0
M  V30 665 C 62.7863 4.26998 0.443944 0
M  V30 666 C 62.0193 5.14986 1.40088 0
M  V30 667 O 62.2423 5.05785 2.637 0
M  V30 668 O 61.1763 5.94906 0.914917 0
M  V30 669 H 65.0023 2.98607 -0.55388 0
M  V30 670 H 62.5873 1.45554 -0.336821 0
M  V30 671 H 64.4693 3.83459 1.74748 0
M  V30 672 H 63.1443 2.64465 1.86655 0
M  V30 673 H 62.0513 3.7368 -0.177271 0
M  V30 674 H 63.3843 4.91736 -0.213566 0
M  V30 675 N 65.0364 0.313813 1.54444 0
M  V30 676 C 66.2614 -0.296681 2.05267 0
M  V30 677 C 66.6864 -1.45757 1.18897 0
M  V30 678 O 66.0444 -1.80239 0.195886 0
M  V30 679 C 66.0924 -0.71831 3.53373 0
M  V30 680 O 65.1964 -1.82175 3.69981 0
M  V30 681 H 64.5374 -0.0554061 0.661684 0
M  V30 682 H 67.0674 0.459387 1.99376 0
M  V30 683 H 67.0774 -1.00364 3.95463 0
M  V30 684 H 65.7524 0.130821 4.15694 0
M  V30 685 H 64.3294 -1.53598 3.39797 0
M  V30 686 N 66.5145 -1.57545 0.0417849 0
M  V30 687 C 67.7605 -1.92601 -0.635021 0
M  V30 688 C 68.0935 -0.919627 -1.71045 0
M  V30 689 O 67.3685 0.0557892 -1.9442 0
M  V30 690 C 67.6515 -3.38085 -1.23979 0
M  V30 691 C 67.5045 -4.49467 -0.173057 0
M  V30 692 C 68.8235 -3.83776 -2.15416 0
M  V30 693 H 65.9425 -0.700397 -0.229374 0
M  V30 694 H 68.5845 -1.89728 0.101633 0
M  V30 695 H 66.7345 -3.40664 -1.86762 0
M  V30 696 H 68.4065 -4.59018 0.458312 0
M  V30 697 H 66.6495 -4.30909 0.499996 0
M  V30 698 H 67.3205 -5.48323 -0.636054 0
M  V30 699 H 69.7965 -3.83013 -1.62605 0
M  V30 700 H 68.6725 -4.8624 -2.54679 0
M  V30 701 H 68.9335 -3.19998 -3.05047 0
M  V30 702 N 67.9926 0.231505 -1.5589 0
M  V30 703 C 68.9406 1.30649 -1.92441 0
M  V30 704 C 69.9346 1.49037 -0.805254 0
M  V30 705 O 71.1406 1.50329 -0.990007 0
M  V30 706 H 67.5156 0.437812 -0.611412 0
M  V30 707 H 69.4866 0.970973 -2.82161 0
M  V30 708 C 68.2356 2.65179 -2.24889 0
M  V30 709 H 67.5586 2.51835 -3.10514 0
M  V30 710 H 68.9986 3.39234 -2.54355 0
M  V30 711 C 67.4576 3.19439 -1.07054 0
M  V30 712 O 67.9876 4.00371 -0.326499 0
M  V30 713 N 66.1936 2.77675 -0.85703 0
M  V30 714 H 65.7406 2.11969 -1.46379 0
M  V30 715 H 65.6986 3.14321 -0.0703223 0
M  V30 716 N 69.4707 1.49531 0.497807 0
M  V30 717 C 70.7187 1.58865 1.24926 0
M  V30 718 C 71.0397 0.278721 1.92998 0
M  V30 719 O 70.3097 -0.702144 1.82885 0
M  V30 720 H 68.8897 0.585343 0.464094 0
M  V30 721 H 71.5517 1.86174 0.57666 0
M  V30 722 H 70.6477 2.38633 2.01149 0
M  V30 723 N 70.9488 -0.749086 1.3866 0
M  V30 724 C 72.3598 -1.32664 1.31366 0
M  V30 725 C 72.7108 -1.96179 -0.028484 0
M  V30 726 O 71.8358 -1.9537 -0.93057 0
M  V30 727 C 72.4308 -2.41219 2.37905 0
M  V30 728 C 70.9898 -2.94684 2.34176 0
M  V30 729 C 70.1368 -1.68108 2.20533 0
M  V30 730 H 73.0878 -0.547628 1.48952 0
M  V30 731 H 73.1088 -3.21268 2.0388 0
M  V30 732 H 72.6208 -1.94962 3.35576 0
M  V30 733 H 70.7218 -3.45258 1.401 0
M  V30 734 H 70.8348 -3.48757 3.2849 0
M  V30 735 H 69.1988 -1.91907 1.67463 0
M  V30 736 H 69.9818 -1.23923 3.20153 0
M  V30 737 N 72.4269 -1.23603 -0.977757 0
M  V30 738 C 73.3739 -1.01954 -2.07061 0
M  V30 739 C 74.3439 0.0638697 -1.65977 0
M  V30 740 O 75.5289 -0.0887624 -1.90593 0
M  V30 741 C 72.6689 -0.619658 -3.39491 0
M  V30 742 C 71.7819 -1.77547 -3.93829 0
M  V30 743 C 70.9169 -1.32212 -5.14484 0
M  V30 744 C 69.9559 -2.44852 -5.60994 0
M  V30 745 N 69.0929 -2.00456 -6.72876 0
M  V30 746 H 73.9329 -1.95495 -2.24913 0
M  V30 747 H 71.4699 -0.973861 -1.10247 0
M  V30 748 H 73.4279 -0.368898 -4.15566 0
M  V30 749 H 72.0579 0.278752 -3.21594 0
M  V30 750 H 71.1099 -2.14016 -3.14486 0
M  V30 751 H 72.4219 -2.62219 -4.24314 0
M  V30 752 H 71.5759 -1.02965 -5.97899 0
M  V30 753 H 70.3149 -0.445808 -4.85658 0
M  V30 754 H 69.3199 -2.74871 -4.76157 0
M  V30 755 H 70.5449 -3.33024 -5.91837 0
M  V30 756 H 68.4909 -1.15208 -6.45804 0
M  V30 757 H 68.4079 -2.78687 -7.02759 0
M  V30 758 H 69.6759 -1.7432 -7.59758 0
M  V30 759 N 73.905 1.17692 -1.04816 0
M  V30 760 C 74.868 2.19787 -0.650117 0
M  V30 761 C 75.868 1.58044 0.296427 0
M  V30 762 O 77.058 1.74012 0.0808097 0
M  V30 763 C 74.19 3.40869 0.0456987 0
M  V30 764 H 75.383 2.56516 -1.5537 0
M  V30 765 H 72.936 1.31708 -0.841594 0
M  V30 766 H 73.671 3.09681 0.962726 0
M  V30 767 H 73.456 3.86928 -0.634727 0
M  V30 768 H 74.946 4.16445 0.310432 0
M  V30 769 N 75.3831 0.828654 1.34056 0
M  V30 770 C 76.6311 0.41863 1.97717 0
M  V30 771 C 76.9521 -1.02314 1.66002 0
M  V30 772 O 76.2221 -1.71119 0.953683 0
M  V30 773 H 74.8021 0.151809 0.731412 0
M  V30 774 H 77.4641 1.05936 1.63596 0
M  V30 775 H 76.5601 0.542318 3.07352 0
M  V30 776 N 76.8612 -1.46375 0.584142 0
M  V30 777 C 78.0862 -2.07268 0.0740405 0
M  V30 778 C 78.5112 -1.42979 -1.22223 0
M  V30 779 O 77.8692 -0.514092 -1.73859 0
M  V30 780 C 77.9172 -3.60518 -0.0767769 0
M  V30 781 O 77.0212 -3.96533 -1.13292 0
M  V30 782 H 76.3622 -0.660961 0.0634524 0
M  V30 783 H 78.8922 -1.87991 0.807492 0
M  V30 784 H 78.9022 -4.07021 -0.282489 0
M  V30 785 H 77.5772 -4.06702 0.86986 0
M  V30 786 H 76.1542 -3.61738 -0.905553 0
M  V30 787 N 78.3393 -0.321999 -1.54275 0
M  V30 788 C 79.7553 0.0306999 -1.5957 0
M  V30 789 C 79.9553 1.50614 -1.33857 0
M  V30 790 O 79.0113 2.2619 -1.12223 0
M  V30 791 C 80.3243 -0.386122 -2.98211 0
M  V30 792 C 81.8723 -0.336647 -3.11184 0
M  V30 793 C 82.3473 -0.728607 -4.52167 0
M  V30 794 N 83.8383 -0.681952 -4.58152 0
M  V30 795 C 84.5733 -0.957449 -5.6535 0
M  V30 796 N 84.0693 -1.3 -6.80494 0
M  V30 797 N 85.8623 -0.883113 -5.55119 0
M  V30 798 H 78.0133 -1.28332 -1.69247 0
M  V30 799 H 80.2763 -0.521716 -0.791528 0
M  V30 800 H 79.9823 -1.41404 -3.22022 0
M  V30 801 H 79.8563 0.249662 -3.76373 0
M  V30 802 H 82.2433 0.682058 -2.8711 0
M  V30 803 H 82.3243 -1.00734 -2.3513 0
M  V30 804 H 81.9683 -1.74522 -4.76974 0
M  V30 805 H 81.8983 -0.0356152 -5.26588 0
M  V30 806 H 84.3893 -0.428985 -3.75457 0
M  V30 807 H 84.7023 -1.49563 -7.58189 0
M  V30 808 H 83.0473 -1.33824 -6.81994 0
M  V30 809 H 86.2383 -0.615001 -4.64042 0
M  V30 810 H 86.4113 -1.10118 -6.38575 0
M  V30 811 N 79.8174 1.5752 -0.0501392 0
M  V30 812 C 81.0654 1.9227 0.622642 0
M  V30 813 C 81.3864 0.929083 1.71444 0
M  V30 814 O 80.6564 -0.0262186 1.95882 0
M  V30 815 H 79.2364 0.709739 0.232981 0
M  V30 816 H 81.8984 1.94628 -0.102898 0
M  V30 817 H 80.9944 2.93479 1.06191 0
M  V30 818 N 81.2955 -0.223234 1.56011 0
M  V30 819 C 82.2255 -1.27988 1.95298 0
M  V30 820 C 83.2065 -1.48976 0.820979 0
M  V30 821 O 84.3915 -1.61188 1.08315 0
M  V30 822 C 81.5215 -2.63 2.26822 0
M  V30 823 C 80.4755 -2.56671 3.42497 0
M  V30 824 C 79.8015 -3.95697 3.59622 0
M  V30 825 C 81.1015 -2.11601 4.77517 0
M  V30 826 H 82.7955 -0.953525 2.8381 0
M  V30 827 H 80.3415 -0.457244 1.36548 0
M  V30 828 H 82.2945 -3.37077 2.52898 0
M  V30 829 H 81.0185 -2.9732 1.35161 0
M  V30 830 H 79.6775 -1.85051 3.16467 0
M  V30 831 H 79.3255 -4.27322 2.6534 0
M  V30 832 H 79.0255 -3.92345 4.37424 0
M  V30 833 H 80.5495 -4.71438 3.88044 0
M  V30 834 H 81.9635 -2.7542 5.02809 0
M  V30 835 H 80.3605 -2.19311 5.5859 0
M  V30 836 H 81.4305 -1.06824 4.72987 0
M  V30 837 N 82.7736 -1.49793 -0.48987 0
M  V30 838 C 84.0016 -1.63568 -1.26701 0
M  V30 839 C 84.4166 -0.311465 -1.86213 0
M  V30 840 O 83.7736 0.704416 -1.68357 0
M  V30 841 C 83.8246 -2.71284 -2.38929 0
M  V30 842 O 83.5456 -3.9857 -1.81861 0
M  V30 843 C 85.0466 -2.95864 -3.3012 0
M  V30 844 H 82.2666 -0.550342 -0.383881 0
M  V30 845 H 84.8106 -1.95898 -0.586864 0
M  V30 846 H 82.9656 -2.417 -3.02753 0
M  V30 847 H 83.3796 -4.57993 -2.55622 0
M  V30 848 H 84.8536 -3.74941 -4.05121 0
M  V30 849 H 85.3306 -2.06206 -3.87783 0
M  V30 850 H 85.9366 -3.26907 -2.72051 0
M  V30 851 N 84.2517 0.741722 -1.39055 0
M  V30 852 C 85.4767 1.53607 -1.39354 0
M  V30 853 C 85.9017 1.88096 0.0116905 0
M  V30 854 O 85.2597 1.5143 0.996924 0
M  V30 855 C 85.3077 2.80441 -2.26682 0
M  V30 856 O 84.4117 3.76088 -1.69208 0
M  V30 857 H 83.7527 0.464142 -0.474835 0
M  V30 858 H 86.2827 0.915665 -1.82967 0
M  V30 859 H 86.2927 3.29246 -2.40959 0
M  V30 860 H 84.9677 2.5467 -3.2881 0
M  V30 861 H 83.5447 3.34833 -1.64138 0
M  V30 862 N 85.7298 1.2412 0.971189 0
M  V30 863 C 86.6598 1.05508 2.08304 0
M  V30 864 C 87.6408 -0.0308864 1.70072 0
M  V30 865 O 88.8258 0.135521 1.93727 0
M  V30 866 C 85.9558 0.655365 3.4106 0
M  V30 867 C 84.9098 1.68971 3.93234 0
M  V30 868 C 84.2358 1.14516 5.22293 0
M  V30 869 C 85.5358 3.08487 4.21465 0
M  V30 870 H 87.2298 1.98507 2.24132 0
M  V30 871 H 84.7758 0.955821 1.07704 0
M  V30 872 H 86.7288 0.51217 4.18276 0
M  V30 873 H 85.4528 -0.31032 3.25122 0
M  V30 874 H 84.1118 1.82106 3.18171 0
M  V30 875 H 83.7598 0.170189 5.02712 0
M  V30 876 H 83.4598 1.83635 5.58168 0
M  V30 877 H 84.9838 1.01401 6.02121 0
M  V30 878 H 86.3978 2.98601 4.89398 0
M  V30 879 H 84.7948 3.74926 4.68562 0
M  V30 880 H 85.8648 3.56787 3.28376 0
M  V30 881 N 87.2079 -1.17134 1.05439 0
M  V30 882 C 88.1709 -2.19439 0.661764 0
M  V30 883 C 89.1709 -1.58199 -0.288042 0
M  V30 884 O 90.3609 -1.74053 -0.0715803 0
M  V30 885 C 87.4929 -3.40889 -0.0276209 0
M  V30 886 H 88.6859 -2.55688 1.56728 0
M  V30 887 H 86.2389 -1.31259 0.848567 0
M  V30 888 H 86.9739 -3.10187 -0.94629 0
M  V30 889 H 86.7589 -3.86586 0.655238 0
M  V30 890 H 88.2489 -4.16603 -0.288342 0
M  V30 891 N 88.686 -0.835752 -1.33615 0
M  V30 892 C 89.963 -0.352017 -1.92406 0
M  V30 893 C 90.343 1.16225 -1.76224 0
M  V30 894 O 89.691 1.97526 -1.14873 0
M  V30 895 C 89.901 -0.795485 -3.39813 0
M  V30 896 C 91.249 -0.801703 -4.16963 0
M  V30 897 O 92.273 -0.738889 -3.48452 0
M  V30 898 O 91.132 -0.886607 -5.3926 0
M  V30 899 H 88.226 -0.0989641 -0.821057 0
M  V30 900 H 90.772 -0.921397 -1.42507 0
M  V30 901 H 89.544 -1.83795 -3.45449 0
M  V30 902 H 89.167 -0.202505 -3.97084 0
M  V30 903 N 90.1641 1.46063 -0.591896 0
M  V30 904 C 91.3921 2.06717 -0.0868936 0
M  V30 905 C 91.8071 1.43916 1.22203 0
M  V30 906 O 91.1641 0.547698 1.74088 0
M  V30 907 C 91.2151 3.6142 0.0758725 0
M  V30 908 O 90.9361 4.21874 -1.18126 0
M  V30 909 C 92.4371 4.39025 0.61416 0
M  V30 910 H 89.6571 0.668162 -0.0616518 0
M  V30 911 H 92.2011 1.8755 -0.815175 0
M  V30 912 H 90.3561 3.79983 0.754413 0
M  V30 913 H 90.7701 5.14861 -1.00092 0
M  V30 914 H 92.2441 5.4783 0.677193 0
M  V30 915 H 92.7211 4.07708 1.63312 0
M  V30 916 H 93.3271 4.2529 -0.0298142 0
M  V30 917 N 91.6422 0.330177 1.54103 0
M  V30 918 C 92.8892 -0.270405 2.00686 0
M  V30 919 C 93.2172 -1.51621 1.21825 0
M  V30 920 O 92.4722 -1.93536 0.29025 0
M  V30 921 C 92.7712 -0.643134 3.51566 0
M  V30 922 C 92.4372 0.504251 4.48072 0
M  V30 923 C 91.0992 0.819163 4.74176 0
M  V30 924 C 93.4512 1.27465 5.05373 0
M  V30 925 C 90.7792 1.90708 5.5484 0
M  V30 926 C 93.1312 2.35271 5.87223 0
M  V30 927 C 91.7952 2.67336 6.11627 0
M  V30 928 H 91.0652 -0.0989482 0.734364 0
M  V30 929 H 93.7122 0.455324 1.86008 0
M  V30 930 H 92.0172 -1.44938 3.64006 0
M  V30 931 H 93.7142 -1.11949 3.85056 0
M  V30 932 H 90.3042 0.248733 4.27878 0
M  V30 933 H 94.4882 1.04462 4.85182 0
M  V30 934 H 89.7442 2.15991 5.71977 0
M  V30 935 H 93.9182 2.95405 6.30641 0
M  V30 936 H 91.5452 3.51763 6.73919 0
M  V30 937 N 93.1203 -1.57491 0.0584922 0
M  V30 938 C 94.0303 -2.15448 -0.928414 0
M  V30 939 C 95.0463 -1.11416 -1.3365 0
M  V30 940 O 96.2223 -1.4362 -1.41193 0
M  V30 941 C 93.2873 -2.69393 -2.18239 0
M  V30 942 C 92.3483 -3.88249 -1.83196 0
M  V30 943 C 91.5813 -4.39613 -3.02616 0
M  V30 944 O 91.8043 -3.90023 -4.16219 0
M  V30 945 O 90.7383 -5.31111 -2.83204 0
M  V30 946 H 94.5643 -3.00112 -0.465483 0
M  V30 947 H 92.1493 -1.48499 -0.163826 0
M  V30 948 H 94.0313 -3.04026 -2.91798 0
M  V30 949 H 92.7063 -1.87796 -2.63656 0
M  V30 950 H 91.6133 -3.58492 -1.06931 0
M  V30 951 H 92.9463 -4.71098 -1.42573 0
M  V30 952 N 94.5984 0.214957 -1.56127 0
M  V30 953 C 95.5484 1.27006 -1.8935 0
M  V30 954 C 96.5324 1.41969 -0.757202 0
M  V30 955 O 97.7244 1.44673 -1.01973 0
M  V30 956 C 94.8534 2.61911 -2.2194 0
M  V30 957 C 93.9394 2.50822 -3.41978 0
M  V30 958 N 94.3304 2.09391 -4.60423 0
M  V30 959 C 92.6284 2.81765 -3.45723 0
M  V30 960 C 93.3294 2.09712 -5.42582 0
M  V30 961 N 92.3054 2.50454 -4.82466 0
M  V30 962 H 96.1074 0.940734 -2.78437 0
M  V30 963 H 93.6214 0.423492 -1.56781 0
M  V30 964 H 95.6184 3.38096 -2.43919 0
M  V30 965 H 94.2784 2.95684 -1.34169 0
M  V30 966 H 95.2894 1.80416 -4.85459 0
M  V30 967 H 91.9664 3.19865 -2.68314 0
M  V30 968 H 93.3564 1.79748 -6.4741 0
M  V30 969 N 96.0765 1.50051 0.48192 0
M  V30 970 C 97.3225 1.60736 1.2366 0
M  V30 971 C 97.6555 0.301786 1.91841 0
M  V30 972 O 96.9305 -0.696025 1.8162 0
M  V30 973 C 97.2135 2.78009 2.28874 0
M  V30 974 C 97.0665 4.18416 1.65069 0
M  V30 975 C 98.3855 2.90867 3.30279 0
M  V30 976 H 95.5045 0.585031 0.448228 0
M  V30 977 H 98.1465 1.82402 0.531946 0
M  V30 978 H 96.2965 2.59667 2.88973 0
M  V30 979 H 97.9685 4.48322 1.0865 0
M  V30 980 H 96.2115 4.23177 0.954148 0
M  V30 981 H 96.8825 4.96381 2.41474 0
M  V30 982 H 99.3585 3.07623 2.80191 0
M  V30 983 H 98.2345 3.74566 4.01238 0
M  V30 984 H 98.4955 2.01021 3.93755 0
M  V30 985 N 97.5546 -0.734337 1.39446 0
M  V30 986 C 98.8036 -1.48937 1.36017 0
M  V30 987 C 99.1166 -1.95557 -0.0409005 0
M  V30 988 O 100.323 -2.70779 -0.19778 0
M  V30 989 C 98.7786 -2.69125 2.38955 0
M  V30 990 C 98.3866 -2.29452 3.8478 0
M  V30 991 C 100.131 -3.46944 2.44603 0
M  V30 992 C 98.0376 -3.46366 4.79358 0
M  V30 993 H 96.9676 -0.559296 0.505672 0
M  V30 994 H 99.6186 -0.800983 1.65095 0
M  V30 995 H 98.0006 -3.40041 2.02948 0
M  V30 996 H 99.1746 -1.66077 4.29831 0
M  V30 997 H 97.4896 -1.64723 3.82433 0
M  V30 998 H 100.087 -4.33907 3.12456 0
M  V30 999 H 100.43 -3.89454 1.47076 0
M  V30 1000 H 100.963 -2.83056 2.79507 0
M  V30 1001 H 97.7016 -3.08905 5.78151 0
M  V30 1002 H 97.2216 -4.08719 4.38986 0
M  V30 1003 H 98.9006 -4.12691 4.98292 0
M  V30 1004 N 99.0327 -1.24633 -0.964593 0
M  V30 1005 C 99.9427 -1.05859 -2.09359 0
M  V30 1006 C 100.959 0.00148855 -1.74 0
M  V30 1007 O 102.135 -0.197346 -2.00431 0
M  V30 1008 C 99.1997 -0.668879 -3.40187 0
M  V30 1009 C 98.2607 -1.80578 -3.89474 0
M  V30 1010 C 97.4937 -1.43457 -5.14058 0
M  V30 1011 O 97.7167 -0.325775 -5.69469 0
M  V30 1012 O 96.6507 -2.2613 -5.57807 0
M  V30 1013 H 100.477 -2.00516 -2.28094 0
M  V30 1014 H 98.0617 -1.03481 -1.0776 0
M  V30 1015 H 99.9437 -0.463211 -4.18846 0
M  V30 1016 H 98.6187 0.248536 -3.22744 0
M  V30 1017 H 97.5257 -2.06623 -3.11862 0
M  V30 1018 H 98.8587 -2.70208 -4.11398 0
M  V30 1019 N 100.511 1.16574 -1.06058 0
M  V30 1020 C 101.421 2.2452 -0.680282 0
M  V30 1021 C 102.437 1.71348 0.302604 0
M  V30 1022 O 103.613 2.00822 0.152513 0
M  V30 1023 C 100.678 3.46629 -0.0700315 0
M  V30 1024 C 99.7388 4.14849 -1.10448 0
M  V30 1025 C 98.9718 5.31129 -0.523256 0
M  V30 1026 O 99.1948 5.66514 0.664709 0
M  V30 1027 O 98.1288 5.88526 -1.26179 0
M  V30 1028 H 101.955 2.59355 -1.58015 0
M  V30 1029 H 99.5398 1.24043 -0.832694 0
M  V30 1030 H 101.422 4.20543 0.268667 0
M  V30 1031 H 100.097 3.13573 0.803353 0
M  V30 1032 H 99.0038 3.42916 -1.49532 0
M  V30 1033 H 100.337 4.51954 -1.94931 0
M  V30 1034 N 101.989 0.842826 1.3317 0
M  V30 1035 C 102.919 0.294028 2.31641 0
M  V30 1036 C 103.9 -0.600401 1.59151 0
M  V30 1037 O 105.085 -0.523124 1.87022 0
M  V30 1038 C 102.215 -0.528416 3.43257 0
M  V30 1039 C 101.169 0.27056 4.27144 0
M  V30 1040 C 100.495 -0.675881 5.30411 0
M  V30 1041 C 101.795 1.48981 5.00602 0
M  V30 1042 H 103.489 1.11681 2.77791 0
M  V30 1043 H 101.035 0.538478 1.33553 0
M  V30 1044 H 102.988 -0.922674 4.11175 0
M  V30 1045 H 101.712 -1.38445 2.95805 0
M  V30 1046 H 100.371 0.646427 3.60856 0
M  V30 1047 H 100.019 -1.52842 4.79216 0
M  V30 1048 H 99.7189 -0.145374 5.8742 0
M  V30 1049 H 101.243 -1.06757 6.01195 0
M  V30 1050 H 102.657 1.16849 5.61266 0
M  V30 1051 H 101.054 1.95739 5.6728 0
M  V30 1052 H 102.124 2.25746 4.29147 0
M  V30 1053 N 103.467 -1.45747 0.599634 0
M  V30 1054 C 104.397 -2.33235 -0.111306 0
M  V30 1055 C 105.378 -1.46359 -0.866781 0
M  V30 1056 O 106.563 -1.75146 -0.838904 0
M  V30 1057 C 103.693 -3.28932 -1.11451 0
M  V30 1058 C 102.647 -4.25381 -0.472772 0
M  V30 1059 C 101.973 -5.1071 -1.58365 0
M  V30 1060 C 103.273 -5.18831 0.600948 0
M  V30 1061 H 104.967 -2.92927 0.61919 0
M  V30 1062 H 102.513 -1.40857 0.299215 0
M  V30 1063 H 104.466 -3.89002 -1.62036 0
M  V30 1064 H 103.19 -2.67381 -1.8755 0
M  V30 1065 H 101.849 -3.66598 0.0121472 0
M  V30 1066 H 101.497 -4.45533 -2.33473 0
M  V30 1067 H 101.197 -5.7604 -1.15982 0
M  V30 1068 H 102.721 -5.73647 -2.09194 0
M  V30 1069 H 104.135 -5.73019 0.179491 0
M  V30 1070 H 102.532 -5.92595 0.946076 0
M  V30 1071 H 103.602 -4.6174 1.48068 0
M  V30 1072 N 104.945 -0.338344 -1.53925 0
M  V30 1073 C 106.222 0.314774 -1.93051 0
M  V30 1074 C 106.602 1.68669 -1.26941 0
M  V30 1075 O 105.95 2.24636 -0.418445 0
M  V30 1076 C 106.16 0.392249 -3.46789 0
M  V30 1077 C 107.508 0.645554 -4.19664 0
M  V30 1078 O 108.532 0.474575 -3.53024 0
M  V30 1079 O 107.391 0.976408 -5.37707 0
M  V30 1080 H 104.485 0.182598 -0.80659 0
M  V30 1081 H 107.031 -0.389141 -1.65178 0
M  V30 1082 H 105.803 -0.570702 -3.87116 0
M  V30 1083 H 105.426 1.14316 -3.80812 0
M  V30 1084 N 106.423 1.57458 -0.0668435 0
M  V30 1085 C 107.333 2.15937 0.916975 0
M  V30 1086 C 108.349 1.12123 1.33058 0
M  V30 1087 O 109.525 1.44366 1.40429 0
M  V30 1088 C 106.59 2.70547 2.16807 0
M  V30 1089 C 105.651 3.89215 1.81135 0
M  V30 1090 C 104.884 4.41211 3.0028 0
M  V30 1091 O 105.107 3.92225 4.14144 0
M  V30 1092 O 104.041 5.32605 2.80384 0
M  V30 1093 H 107.867 3.00354 0.449561 0
M  V30 1094 H 105.452 1.48584 0.155949 0
M  V30 1095 H 107.334 3.0557 2.90181 0
M  V30 1096 H 106.009 1.89192 2.62656 0
M  V30 1097 H 104.916 3.59054 1.05028 0
M  V30 1098 H 106.249 4.71848 1.40073 0
M  V30 1099 N 107.901 -0.206675 1.56239 0
M  V30 1100 C 109.178 -0.954051 1.70755 0
M  V30 1101 C 109.558 -2.01841 0.618353 0
M  V30 1102 O 108.906 -2.25444 -0.372434 0
M  V30 1103 C 109.116 -1.551 3.12642 0
M  V30 1104 C 110.464 -2.03757 3.72516 0
M  V30 1105 O 111.488 -1.64965 3.15698 0
M  V30 1106 O 110.347 -2.75103 4.72208 0
M  V30 1107 H 107.441 -0.446636 0.696021 0
M  V30 1108 H 109.987 -0.197283 1.68549 0
M  V30 1109 H 108.759 -0.783212 3.83382 0
M  V30 1110 H 108.382 -2.37291 3.19028 0
M  V30 1111 N 109.379 -1.50304 -0.473955 0
M  V30 1112 C 110.311 -1.65109 -1.58971 0
M  V30 1113 C 111.324 -0.532676 -1.53839 0
M  V30 1114 O 112.513 -0.805751 -1.59279 0
M  V30 1115 C 109.613 -1.61684 -2.97845 0
M  V30 1116 C 108.786 -2.8951 -3.27876 0
M  V30 1117 C 107.845 -2.78768 -4.4629 0
M  V30 1118 O 106.871 -3.52722 -4.46739 0
M  V30 1119 N 108.073 -1.9213 -5.47783 0
M  V30 1120 H 110.838 -2.61347 -1.46689 0
M  V30 1121 H 108.399 -1.47732 -0.662324 0
M  V30 1122 H 110.391 -1.52114 -3.75024 0
M  V30 1123 H 108.961 -0.731925 -3.03911 0
M  V30 1124 H 108.181 -3.13228 -2.39336 0
M  V30 1125 H 109.469 -3.74199 -3.4475 0
M  V30 1126 H 108.867 -1.31353 -5.50239 0
M  V30 1127 H 107.424 -1.88466 -6.23958 0
M  V30 1128 N 110.857 0.726932 -1.39834 0
M  V30 1129 C 111.804 1.841 -1.39197 0
M  V30 1130 C 112.774 1.642 -0.250502 0
M  V30 1131 O 113.959 1.85494 -0.446846 0
M  V30 1132 C 111.099 3.21697 -1.24919 0
M  V30 1133 C 110.212 3.53247 -2.48678 0
M  V30 1134 C 109.347 4.80289 -2.26928 0
M  V30 1135 C 108.386 5.04707 -3.4632 0
M  V30 1136 N 107.523 6.22956 -3.23836 0
M  V30 1137 H 112.363 1.83979 -2.34427 0
M  V30 1138 H 109.9 0.898876 -1.16442 0
M  V30 1139 H 111.858 4.01137 -1.1465 0
M  V30 1140 H 110.488 3.21076 -0.333153 0
M  V30 1141 H 109.54 2.68447 -2.69519 0
M  V30 1142 H 110.852 3.67205 -3.37582 0
M  V30 1143 H 110.006 5.67725 -2.13947 0
M  V30 1144 H 108.745 4.68519 -1.35431 0
M  V30 1145 H 107.75 4.1573 -3.5979 0
M  V30 1146 H 108.975 5.18357 -4.38729 0
M  V30 1147 H 106.921 6.12459 -2.35011 0
M  V30 1148 H 106.838 6.37539 -4.063 0
M  V30 1149 H 108.106 7.1321 -3.14566 0
M  V30 1150 N 112.336 1.25143 0.95797 0
M  V30 1151 C 113.582 1.09855 1.70469 0
M  V30 1152 C 113.915 -0.360187 1.90831 0
M  V30 1153 O 113.19 -1.26568 1.47685 0
M  V30 1154 C 113.473 1.8497 3.08963 0
M  V30 1155 C 113.326 3.38652 2.96032 0
M  V30 1156 C 114.645 1.63016 4.08795 0
M  V30 1157 H 111.764 0.400465 0.618706 0
M  V30 1158 H 114.406 1.53933 1.11376 0
M  V30 1159 H 112.556 1.47505 3.59409 0
M  V30 1160 H 114.228 3.85772 2.52938 0
M  V30 1161 H 112.471 3.66534 2.32025 0
M  V30 1162 H 113.142 3.8642 3.94187 0
M  V30 1163 H 115.618 1.95625 3.67247 0
M  V30 1164 H 114.494 2.18015 5.03747 0
M  V30 1165 H 114.755 0.570692 4.38401 0
M  V30 1166 N 113.814 -1.1601 1.06675 0
M  V30 1167 C 115.23 -1.38622 0.790948 0
M  V30 1168 C 115.43 -1.92109 -0.607965 0
M  V30 1169 O 114.486 -2.12239 -1.36787 0
M  V30 1170 C 115.799 -2.36347 1.85905 0
M  V30 1171 C 117.347 -2.50023 1.88301 0
M  V30 1172 C 117.822 -3.51033 2.94176 0
M  V30 1173 N 119.313 -3.58563 2.93235 0
M  V30 1174 C 120.048 -4.36521 3.71803 0
M  V30 1175 N 119.544 -5.17869 4.602 0
M  V30 1176 N 121.337 -4.31541 3.60178 0
M  V30 1177 H 113.488 -0.796294 1.96908 0
M  V30 1178 H 115.751 -0.412597 0.853503 0
M  V30 1179 H 115.457 -2.04147 2.86386 0
M  V30 1180 H 115.331 -3.36042 1.71334 0
M  V30 1181 H 117.718 -2.81524 0.884769 0
M  V30 1182 H 117.799 -1.5035 2.06951 0
M  V30 1183 H 117.443 -3.20268 3.94196 0
M  V30 1184 H 117.373 -4.50445 2.72776 0
M  V30 1185 H 119.864 -3.00496 2.29152 0
M  V30 1186 H 120.177 -5.74578 5.16797 0
M  V30 1187 H 118.522 -5.17199 4.64253 0
M  V30 1188 H 121.713 -3.67051 2.90502 0
M  V30 1189 H 121.886 -4.9205 4.21653 0
M  V30 1190 N 115.292 -0.849877 -1.32721 0
M  V30 1191 C 116.703 -0.506188 -1.79707 0
M  V30 1192 C 117.054 0.975627 -1.70223 0
M  V30 1193 O 116.179 1.76078 -1.25799 0
M  V30 1194 C 116.774 -0.912044 -3.26293 0
M  V30 1195 C 115.333 -0.620326 -3.71253 0
M  V30 1196 C 114.48 -1.11439 -2.53922 0
M  V30 1197 H 117.431 -1.03754 -1.20087 0
M  V30 1198 H 117.452 -0.226493 -3.79825 0
M  V30 1199 H 116.964 -1.99057 -3.33164 0
M  V30 1200 H 115.065 0.447674 -3.69901 0
M  V30 1201 H 115.178 -1.18327 -4.64258 0
M  V30 1202 H 113.542 -0.534834 -2.49021 0
M  V30 1203 H 114.325 -2.19992 -2.6355 0
M  V30 1204 N 116.77 1.45427 -0.607355 0
M  V30 1205 C 117.718 2.32269 0.12411 0
M  V30 1206 C 118.712 1.45955 0.859854 0
M  V30 1207 O 119.918 1.6244 0.775447 0
M  V30 1208 H 116.293 0.749691 0.0588839 0
M  V30 1209 H 118.264 2.91743 -0.626762 0
M  V30 1210 C 117.013 3.29567 1.1082 0
M  V30 1211 H 116.336 3.95978 0.551492 0
M  V30 1212 H 117.776 3.93061 1.58995 0
M  V30 1213 C 116.235 2.56722 2.18164 0
M  V30 1214 O 116.765 2.34842 3.25902 0
M  V30 1215 N 114.971 2.16861 1.93442 0
M  V30 1216 H 114.518 2.34855 1.05834 0
M  V30 1217 H 114.476 1.68444 2.65469 0
M  V30 1218 N 118.248 0.346503 1.53744 0
M  V30 1219 C 119.158 -0.517293 2.28826 0
M  V30 1220 C 120.174 -1.10935 1.3405 0
M  V30 1221 O 121.35 -1.1244 1.6709 0
M  V30 1222 C 118.415 -1.65098 3.04866 0
M  V30 1223 C 117.476 -1.0884 4.15274 0
M  V30 1224 C 116.709 -2.16806 4.87679 0
M  V30 1225 O 116.932 -3.3758 4.59778 0
M  V30 1226 O 115.866 -1.80934 5.74061 0
M  V30 1227 H 119.692 0.0931396 3.03557 0
M  V30 1228 H 117.277 0.111458 1.48984 0
M  V30 1229 H 119.159 -2.31053 3.5241 0
M  V30 1230 H 117.834 -2.24717 2.32989 0
M  V30 1231 H 116.741 -0.3933 3.72027 0
M  V30 1232 H 118.074 -0.537036 4.89261 0
M  V30 1233 N 119.726 -1.57421 0.075193 0
M  V30 1234 C 120.636 -2.1642 -0.905511 0
M  V30 1235 C 121.652 -1.12828 -1.32461 0
M  V30 1236 O 122.828 -1.45109 -1.39661 0
M  V30 1237 C 119.893 -2.71693 -2.15369 0
M  V30 1238 C 118.954 -3.90171 -1.79068 0
M  V30 1239 C 118.187 -4.42798 -2.97936 0
M  V30 1240 O 118.41 -3.94416 -4.12058 0
M  V30 1241 O 117.344 -5.34085 -2.77555 0
M  V30 1242 H 121.17 -3.00588 -0.433626 0
M  V30 1243 H 118.755 -1.48664 -0.148067 0
M  V30 1244 H 120.637 -3.07104 -2.88557 0
M  V30 1245 H 119.312 -1.90582 -2.61649 0
M  V30 1246 H 118.219 -3.59606 -1.03122 0
M  V30 1247 H 119.552 -4.72584 -1.37569 0
M  V30 1248 N 121.204 0.198386 -1.56346 0
M  V30 1249 C 122.152 1.26538 -1.95169 0
M  V30 1250 C 123.146 1.47295 -0.836685 0
M  V30 1251 O 124.352 1.48195 -1.02167 0
M  V30 1252 H 120.727 0.424744 -0.620561 0
M  V30 1253 H 122.698 0.910904 -2.84157 0
M  V30 1254 C 121.447 2.6035 -2.30463 0
M  V30 1255 H 120.77 2.45192 -3.15786 0
M  V30 1256 H 122.21 3.33762 -2.61494 0
M  V30 1257 C 120.669 3.17096 -1.13806 0
M  V30 1258 O 121.199 3.99588 -0.41135 0
M  V30 1259 N 119.405 2.75795 -0.915736 0
M  V30 1260 H 118.952 2.08816 -1.50843 0
M  V30 1261 H 118.91 3.14101 -0.136979 0
M  V30 1262 N 122.682 1.50554 0.465978 0
M  V30 1263 C 123.63 1.70324 1.58406 0
M  V30 1264 C 124.624 0.569139 1.59553 0
M  V30 1265 O 125.83 0.749776 1.63641 0
M  V30 1266 H 122.205 0.537688 0.525734 0
M  V30 1267 H 124.176 2.64104 1.38894 0
M  V30 1268 C 122.925 1.81928 2.96307 0
M  V30 1269 H 122.248 2.68586 2.96144 0
M  V30 1270 H 123.688 1.99784 3.73982 0
M  V30 1271 C 122.147 0.572095 3.32007 0
M  V30 1272 O 122.677 -0.286416 4.00678 0
M  V30 1273 N 120.883 0.424606 2.87481 0
M  V30 1274 H 120.43 1.12427 2.31771 0
M  V30 1275 H 120.388 -0.408697 3.11732 0
M  V30 1276 N 124.16 -0.719506 1.40217 0
M  V30 1277 C 125.107 -1.83359 1.40172 0
M  V30 1278 C 126.077 -1.64065 0.259206 0
M  V30 1279 O 127.262 -1.85254 0.456677 0
M  V30 1280 C 124.402 -3.2103 1.26624 0
M  V30 1281 C 123.515 -3.51923 2.50548 0
M  V30 1282 C 122.65 -4.79079 2.29471 0
M  V30 1283 C 121.689 -5.02863 3.48992 0
M  V30 1284 N 120.826 -6.2123 3.27135 0
M  V30 1285 H 125.666 -1.82733 2.35399 0
M  V30 1286 H 123.203 -0.892688 1.16917 0
M  V30 1287 H 125.161 -4.00524 1.16776 0
M  V30 1288 H 123.791 -3.20895 0.350176 0
M  V30 1289 H 122.843 -2.67014 2.70939 0
M  V30 1290 H 124.155 -3.6541 3.39525 0
M  V30 1291 H 123.309 -5.66582 2.16955 0
M  V30 1292 H 122.048 -4.67794 1.37913 0
M  V30 1293 H 121.053 -4.13816 3.6199 0
M  V30 1294 H 122.278 -5.16023 4.41472 0
M  V30 1295 H 120.224 -6.11204 2.38256 0
M  V30 1296 H 120.141 -6.35375 4.09675 0
M  V30 1297 H 121.409 -7.11532 3.18344 0
M  V30 1298 N 125.638 -1.25649 -0.95132 0
M  V30 1299 C 126.915 -1.01361 -1.67288 0
M  V30 1300 C 127.295 0.459135 -2.06046 0
M  V30 1301 O 126.643 1.43723 -1.7764 0
M  V30 1302 C 126.853 -1.95256 -2.89268 0
M  V30 1303 C 128.201 -2.23289 -3.61147 0
M  V30 1304 O 129.225 -1.93041 -2.99355 0
M  V30 1305 O 128.084 -2.74741 -4.72419 0
M  V30 1306 H 125.178 -0.38464 -0.732107 0
M  V30 1307 H 127.724 -1.36817 -1.00395 0
M  V30 1308 H 126.496 -2.94685 -2.57442 0
M  V30 1309 H 126.119 -1.60218 -3.6389 0
M  V30 1310 N 127.117 1.15442 -1.07289 0
M  V30 1311 C 128.08 2.18358 -0.696591 0
M  V30 1312 C 129.08 1.58637 0.262837 0
M  V30 1313 O 130.27 1.74145 0.0438809 0
M  V30 1314 C 127.402 3.4089 -0.0266151 0
M  V30 1315 H 128.595 2.53162 -1.60776 0
M  V30 1316 H 126.148 1.29893 -0.869342 0
M  V30 1317 H 126.883 3.11653 0.896822 0
M  V30 1318 H 126.668 3.85495 -0.716657 0
M  V30 1319 H 128.158 4.17009 0.222028 0
M  V30 1320 N 128.595 0.856903 1.32268 0
M  V30 1321 C 129.872 0.382583 1.91822 0
M  V30 1322 C 130.252 -1.13407 1.78051 0
M  V30 1323 O 129.6 -1.95673 1.18001 0
M  V30 1324 C 129.81 0.849446 3.38505 0
M  V30 1325 C 131.158 0.867936 4.15634 0
M  V30 1326 O 132.182 0.794232 3.47232 0
M  V30 1327 O 131.041 0.972286 5.37781 0
M  V30 1328 H 128.135 0.112014 0.819379 0
M  V30 1329 H 130.681 0.943952 1.41024 0
M  V30 1330 H 129.453 1.89267 3.42482 0
M  V30 1331 H 129.076 0.265652 3.96712 0
M  V30 1332 N 130.073 -1.45103 0.615059 0
M  V30 1333 C 131.003 -2.33339 -0.0865619 0
M  V30 1334 C 131.984 -1.4727 -0.851209 0
M  V30 1335 O 133.169 -1.76026 -0.820281 0
M  V30 1336 C 130.299 -3.30095 -1.07956 0
M  V30 1337 C 129.253 -4.25858 -0.427628 0
M  V30 1338 C 128.579 -5.12361 -1.5294 0
M  V30 1339 C 129.879 -5.18165 0.655944 0
M  V30 1340 H 131.573 -2.92254 0.650224 0
M  V30 1341 H 129.119 -1.40532 0.314138 0
M  V30 1342 H 131.072 -3.90698 -1.57901 0
M  V30 1343 H 129.796 -2.69355 -1.84703 0
M  V30 1344 H 128.455 -3.66564 0.0510292 0
M  V30 1345 H 128.103 -4.47984 -2.28734 0
M  V30 1346 H 127.803 -5.77238 -1.09865 0
M  V30 1347 H 129.327 -5.75833 -2.03098 0
M  V30 1348 H 130.741 -5.72796 0.240257 0
M  V30 1349 H 129.138 -5.91559 1.00888 0
M  V30 1350 H 130.208 -4.60144 1.52957 0
M  V30 1351 N 131.551 -0.354651 -1.53558 0
M  V30 1352 C 132.781 0.239167 -2.05211 0
M  V30 1353 C 133.189 1.43879 -1.22863 0
M  V30 1354 O 132.532 1.81857 -0.259565 0
M  V30 1355 C 132.594 0.707251 -3.52474 0
M  V30 1356 C 132.258 -0.374212 -4.55465 0
M  V30 1357 C 133.255 -1.22054 -5.0537 0
M  V30 1358 C 130.94 -0.531323 -4.99482 0
M  V30 1359 C 132.934 -2.20942 -5.97882 0
M  V30 1360 C 130.621 -1.52358 -5.91802 0
M  V30 1361 C 131.619 -2.36108 -6.40892 0
M  V30 1362 O 131.307 -3.33643 -7.31394 0
M  V30 1363 H 131.039 0.0479716 -0.674296 0
M  V30 1364 H 133.593 -0.508121 -1.99016 0
M  V30 1365 H 131.823 1.50596 -3.56171 0
M  V30 1366 H 133.512 1.22285 -3.87042 0
M  V30 1367 H 134.278 -1.1103 -4.7212 0
M  V30 1368 H 130.157 0.110738 -4.60867 0
M  V30 1369 H 133.701 -2.86348 -6.36121 0
M  V30 1370 H 129.598 -1.63434 -6.24467 0
M  V30 1371 H 130.366 -3.29244 -7.4936 0
M  V30 1372 N 133.029 1.57378 -0.0835403 0
M  V30 1373 C 134.257 1.98263 0.59157 0
M  V30 1374 C 134.672 0.962302 1.62435 0
M  V30 1375 O 134.029 -0.049581 1.82433 0
M  V30 1376 C 134.08 3.39214 1.24965 0
M  V30 1377 O 133.801 4.37339 0.258186 0
M  V30 1378 C 135.302 3.95038 2.01147 0
M  V30 1379 H 132.522 0.651773 0.159477 0
M  V30 1380 H 135.066 2.03878 -0.159415 0
M  V30 1381 H 133.221 3.34649 1.95164 0
M  V30 1382 H 133.635 5.19371 0.731734 0
M  V30 1383 H 135.109 4.95848 2.42567 0
M  V30 1384 H 135.586 3.32222 2.87272 0
M  V30 1385 H 136.192 4.0304 1.35789 0
M  V30 1386 N 134.507 -0.190092 1.56449 0
M  V30 1387 C 135.732 -0.929864 1.85387 0
M  V30 1388 C 136.157 -1.7585 0.667704 0
M  V30 1389 O 135.515 -1.77198 -0.383459 0
M  V30 1390 C 135.563 -1.79773 3.12593 0
M  V30 1391 O 134.667 -2.89713 2.93496 0
M  V30 1392 H 134.008 -0.261574 0.610307 0
M  V30 1393 H 136.538 -0.193896 2.03679 0
M  V30 1394 H 136.548 -2.20139 3.43515 0
M  V30 1395 H 135.223 -1.18892 3.98544 0
M  V30 1396 H 133.8 -2.53065 2.73884 0
M  V30 1397 N 135.985 -1.50799 -0.457987 0
M  V30 1398 C 137.401 -1.38515 -0.792819 0
M  V30 1399 C 137.601 -0.451409 -1.96379 0
M  V30 1400 O 136.657 0.10112 -2.52297 0
M  V30 1401 C 137.97 -2.80149 -1.09258 0
M  V30 1402 C 139.518 -2.89156 -1.19825 0
M  V30 1403 C 139.993 -4.31651 -1.53106 0
M  V30 1404 N 141.484 -4.34662 -1.60072 0
M  V30 1405 C 142.219 -5.41928 -1.87354 0
M  V30 1406 N 141.715 -6.59384 -2.12568 0
M  V30 1407 N 143.508 -5.29385 -1.88965 0
M  V30 1408 H 135.659 -2.10073 0.313511 0
M  V30 1409 H 137.922 -0.944803 0.0777862 0
M  V30 1410 H 137.628 -3.50374 -0.305084 0
M  V30 1411 H 137.502 -3.18204 -2.02549 0
M  V30 1412 H 139.889 -2.19141 -1.97639 0
M  V30 1413 H 139.97 -2.54626 -0.244821 0
M  V30 1414 H 139.614 -5.02208 -0.758266 0
M  V30 1415 H 139.544 -4.63678 -2.49621 0
M  V30 1416 H 142.035 -3.49973 -1.42573 0
M  V30 1417 H 142.348 -7.36934 -2.32696 0
M  V30 1418 H 140.693 -6.62535 -2.09933 0
M  V30 1419 H 143.884 -4.36616 -1.68772 0
M  V30 1420 H 144.057 -6.13066 -2.09891 0
M  V30 1421 N 137.463 0.71206 -1.40597 0
M  V30 1422 C 138.709 1.47416 -1.39271 0
M  V30 1423 C 139.042 1.942 0.00388791 0
M  V30 1424 O 138.317 1.68403 0.973179 0
M  V30 1425 C 138.6 2.69774 -2.38525 0
M  V30 1426 C 138.453 2.28861 -3.87224 0
M  V30 1427 C 139.772 3.71939 -2.35264 0
M  V30 1428 H 136.891 0.534713 -0.5072 0
M  V30 1429 H 139.533 0.812375 -1.71757 0
M  V30 1430 H 137.683 3.26238 -2.10953 0
M  V30 1431 H 139.355 1.77852 -4.25636 0
M  V30 1432 H 137.598 1.60824 -4.02887 0
M  V30 1433 H 138.269 3.16584 -4.52193 0
M  V30 1434 H 140.745 3.25113 -2.59694 0
M  V30 1435 H 139.621 4.55186 -3.06753 0
M  V30 1436 H 139.882 4.20484 -1.36549 0
M  V30 1437 N 138.941 1.26152 0.944643 0
M  V30 1438 C 139.874 1.01729 2.04271 0
M  V30 1439 C 140.852 -0.0568101 1.62501 0
M  V30 1440 O 142.036 0.0848987 1.88309 0
M  V30 1441 C 139.163 0.539792 3.34371 0
M  V30 1442 C 138.209 1.60593 3.9511 0
M  V30 1443 S 139.042 3.19392 4.29825 0
M  V30 1444 C 140.198 2.73402 5.63029 0
M  V30 1445 H 140.431 1.94703 2.24673 0
M  V30 1446 H 137.964 1.09793 1.08558 0
M  V30 1447 H 139.922 0.270956 4.09605 0
M  V30 1448 H 138.583 -0.369609 3.11918 0
M  V30 1449 H 137.776 1.22275 4.88943 0
M  V30 1450 H 137.378 1.82596 3.26397 0
M  V30 1451 H 139.67 2.1765 6.41588 0
M  V30 1452 H 140.613 3.65913 6.06229 0
M  V30 1453 H 141.021 2.13077 5.22741 0
M  V30 1454 N 140.419 -1.14872 1.07899 0
M  V30 1455 C 141.349 -2.2193 0.725887 0
M  V30 1456 C 142.33 -1.67622 -0.28927 0
M  V30 1457 O 143.515 -1.93533 -0.160787 0
M  V30 1458 C 140.645 -3.47061 0.128856 0
M  V30 1459 C 139.599 -4.14363 1.07178 0
M  V30 1460 C 138.925 -5.33636 0.337229 0
M  V30 1461 C 140.225 -4.63492 2.40775 0
M  V30 1462 H 141.919 -2.51724 1.62097 0
M  V30 1463 H 139.465 -1.20991 0.780838 0
M  V30 1464 H 141.418 -4.21199 -0.130147 0
M  V30 1465 H 140.142 -3.16617 -0.80134 0
M  V30 1466 H 138.801 -3.42173 1.3158 0
M  V30 1467 H 138.449 -4.99449 -0.596606 0
M  V30 1468 H 138.149 -5.79609 0.965788 0
M  V30 1469 H 139.673 -6.10539 0.0861567 0
M  V30 1470 H 141.087 -5.2913 2.20669 0
M  V30 1471 H 139.484 -5.20148 2.99276 0
M  V30 1472 H 140.554 -3.78834 3.02676 0
M  V30 1473 N 141.898 -0.863906 -1.31812 0
M  V30 1474 C 143.123 -0.48527 -2.01643 0
M  V30 1475 C 143.548 0.913058 -1.64453 0
M  V30 1476 O 142.906 1.6014 -0.849985 0
M  V30 1477 C 142.954 -0.642625 -3.54828 0
M  V30 1478 O 142.058 0.320659 -4.11151 0
M  V30 1479 H 141.399 -0.193793 -0.635091 0
M  V30 1480 H 143.929 -1.16565 -1.68148 0
M  V30 1481 H 143.939 -0.533628 -4.04495 0
M  V30 1482 H 142.614 -1.66227 -3.81237 0
M  V30 1483 H 141.191 0.167126 -3.72525 0
M  V30 1484 N 143.376 1.44774 -0.622745 0
M  V30 1485 C 144.601 2.06999 -0.128968 0
M  V30 1486 C 145.026 1.4617 1.1839 0
M  V30 1487 O 144.384 0.560007 1.72434 0
M  V30 1488 C 144.432 3.60595 -0.0188351 0
M  V30 1489 O 143.536 3.99398 1.02739 0
M  V30 1490 H 142.877 0.659047 -0.0809544 0
M  V30 1491 H 145.407 1.85784 -0.85705 0
M  V30 1492 H 145.417 4.07627 0.174476 0
M  V30 1493 H 144.092 4.04252 -0.977384 0
M  V30 1494 H 142.669 3.64011 0.809326 0
M  V30 1495 N 144.854 0.36279 1.53368 0
M  V30 1496 C 145.786 -0.519668 2.23231 0
M  V30 1497 C 146.799 -1.04844 1.24546 0
M  V30 1498 O 147.988 -0.955296 1.50786 0
M  V30 1499 C 145.088 -1.72995 2.9142 0
M  V30 1500 C 144.261 -1.33316 4.16588 0
M  V30 1501 C 143.32 -2.40521 4.68013 0
M  V30 1502 O 142.346 -2.03027 5.3176 0
M  V30 1503 N 143.548 -3.72065 4.45587 0
M  V30 1504 H 146.313 0.078751 2.99597 0
M  V30 1505 H 143.874 0.187833 1.60807 0
M  V30 1506 H 145.866 -2.44184 3.22733 0
M  V30 1507 H 144.436 -2.2353 2.18525 0
M  V30 1508 H 143.656 -0.451236 3.91609 0
M  V30 1509 H 144.944 -1.04432 4.97967 0
M  V30 1510 H 144.342 -4.05304 3.94646 0
M  V30 1511 H 142.899 -4.39366 4.81457 0
M  V30 1512 N 146.332 -1.57332 0.0918853 0
M  V30 1513 C 147.578 -1.94524 -0.573425 0
M  V30 1514 C 147.911 -0.973578 -1.68033 0
M  V30 1515 O 147.186 -0.00609226 -1.94499 0
M  V30 1516 C 147.469 -3.41858 -1.13161 0
M  V30 1517 C 147.322 -4.4979 -0.0299747 0
M  V30 1518 C 148.641 -3.90435 -2.03098 0
M  V30 1519 H 145.76 -0.70734 -0.206975 0
M  V30 1520 H 148.402 -1.89309 0.161942 0
M  V30 1521 H 146.552 -3.46433 -1.7583 0
M  V30 1522 H 148.224 -4.57327 0.604112 0
M  V30 1523 H 146.467 -4.291 0.636833 0
M  V30 1524 H 147.138 -5.50069 -0.461287 0
M  V30 1525 H 149.614 -3.87992 -1.50338 0
M  V30 1526 H 148.49 -4.94097 -2.39081 0
M  V30 1527 H 148.751 -3.29541 -2.94712 0
M  V30 1528 N 147.81 0.181792 -1.56548 0
M  V30 1529 C 149.221 0.745244 -1.71181 0
M  V30 1530 C 149.572 1.83262 -0.70068 0
M  V30 1531 O 148.697 2.15946 0.140154 0
M  V30 1532 C 149.292 1.35859 -3.10367 0
M  V30 1533 C 147.851 1.86898 -3.2672 0
M  V30 1534 C 146.998 0.743942 -2.67134 0
M  V30 1535 H 149.949 -0.0434661 -1.5864 0
M  V30 1536 H 149.97 2.22817 -3.08436 0
M  V30 1537 H 149.482 0.566948 -3.83937 0
M  V30 1538 H 147.583 2.68738 -2.5809 0
M  V30 1539 H 147.696 2.02162 -4.34359 0
M  V30 1540 H 146.06 1.16169 -2.26665 0
M  V30 1541 H 146.843 -0.035676 -3.43281 0
M  V30 1542 N 149.288 1.51039 0.449983 0
M  V30 1543 C 150.218 1.74379 1.55288 0
M  V30 1544 C 151.199 0.593236 1.5942 0
M  V30 1545 O 152.384 0.834625 1.7535 0
M  V30 1546 C 149.514 1.85728 2.93466 0
M  V30 1547 C 148.468 3.01078 3.04197 0
M  V30 1548 C 147.794 2.97595 4.44231 0
M  V30 1549 C 149.094 4.41254 2.7945 0
M  V30 1550 H 150.788 2.66725 1.36008 0
M  V30 1551 H 148.334 1.2835 0.652864 0
M  V30 1552 H 150.287 2.0064 3.70569 0
M  V30 1553 H 149.011 0.900207 3.13949 0
M  V30 1554 H 147.67 2.85851 2.29531 0
M  V30 1555 H 147.318 1.99691 4.61663 0
M  V30 1556 H 147.018 3.75046 4.52343 0
M  V30 1557 H 148.542 3.14583 5.23326 0
M  V30 1558 H 149.956 4.56897 3.46292 0
M  V30 1559 H 148.353 5.20315 2.98985 0
M  V30 1560 H 149.423 4.52164 1.75144 0
M  V30 1561 N 150.766 -0.704594 1.40972 0
M  V30 1562 C 151.676 -1.84856 1.44448 0
M  V30 1563 C 152.692 -1.70726 0.335961 0
M  V30 1564 O 153.868 -1.92799 0.582276 0
M  V30 1565 C 150.933 -3.20758 1.31587 0
M  V30 1566 C 149.994 -3.47063 2.52677 0
M  V30 1567 C 149.227 -4.76481 2.4042 0
M  V30 1568 O 149.45 -5.52341 1.42391 0
M  V30 1569 O 148.384 -5.03367 3.30007 0
M  V30 1570 H 152.21 -1.8488 2.40942 0
M  V30 1571 H 149.795 -0.85647 1.22413 0
M  V30 1572 H 151.677 -4.01913 1.26665 0
M  V30 1573 H 150.352 -3.21438 0.382049 0
M  V30 1574 H 149.259 -2.65873 2.63177 0
M  V30 1575 H 150.592 -3.5119 3.44858 0
M  V30 1576 N 152.244 -1.26651 -0.937939 0
M  V30 1577 C 153.655 -1.1125 -1.49934 0
M  V30 1578 C 154.006 0.306077 -1.93798 0
M  V30 1579 O 153.131 1.19792 -1.80219 0
M  V30 1580 C 153.726 -2.01339 -2.72485 0
M  V30 1581 C 152.285 -1.90074 -3.24883 0
M  V30 1582 C 151.432 -1.94498 -1.97651 0
M  V30 1583 H 154.383 -1.39693 -0.753091 0
M  V30 1584 H 154.404 -1.56319 -3.46907 0
M  V30 1585 H 153.916 -3.04577 -2.40529 0
M  V30 1586 H 152.017 -0.897827 -3.61621 0
M  V30 1587 H 152.13 -2.75778 -3.9177 0
M  V30 1588 H 150.494 -1.38591 -2.13693 0
M  V30 1589 H 151.277 -2.99372 -1.68022 0
M  V30 1590 N 153.722 1.14298 -1.08507 0
M  V30 1591 C 155.133 1.66926 -0.836227 0
M  V30 1592 C 155.484 1.85576 0.63686 0
M  V30 1593 O 154.609 1.56767 1.49175 0
M  V30 1594 C 155.204 3.03219 -1.51142 0
M  V30 1595 C 153.763 3.52876 -1.30979 0
M  V30 1596 C 152.91 2.2833 -1.57356 0
M  V30 1597 H 155.861 0.983491 -1.24552 0
M  V30 1598 H 155.882 3.68726 -0.939211 0
M  V30 1599 H 155.394 2.89612 -2.58353 0
M  V30 1600 H 153.495 3.71703 -0.258429 0
M  V30 1601 H 153.608 4.33586 -2.03814 0
M  V30 1602 H 151.972 2.34454 -0.995164 0
M  V30 1603 H 152.755 2.17298 -2.65775 0
M  V30 1604 N 155.201 0.870884 1.31352 0
M  V30 1605 C 156.131 0.343096 2.30966 0
M  V30 1606 C 157.112 -0.566507 1.60389 0
M  V30 1607 O 158.297 -0.483336 1.88089 0
M  V30 1608 C 155.427 -0.455487 3.443 0
M  V30 1609 C 154.381 0.361103 4.26474 0
M  V30 1610 C 153.707 -0.563221 5.31725 0
M  V30 1611 C 155.007 1.59566 4.97329 0
M  V30 1612 H 156.701 1.17548 2.75359 0
M  V30 1613 H 154.247 0.566686 1.32381 0
M  V30 1614 H 156.2 -0.83525 4.13039 0
M  V30 1615 H 154.924 -1.32139 2.98675 0
M  V30 1616 H 153.583 0.722825 3.59403 0
M  V30 1617 H 153.231 -1.42643 4.82351 0
M  V30 1618 H 152.931 -0.0207409 5.87596 0
M  V30 1619 H 154.455 -0.939808 6.03324 0
M  V30 1620 H 155.869 1.28728 5.58661 0
M  V30 1621 H 154.266 2.07728 5.63 0
M  V30 1622 H 155.336 2.34798 4.24262 0
M  V30 1623 N 156.679 -1.44442 0.630414 0
M  V30 1624 C 157.609 -2.33418 -0.0618083 0
M  V30 1625 C 158.59 -1.48165 -0.835541 0
M  V30 1626 O 159.775 -1.76886 -0.801564 0
M  V30 1627 C 156.905 -3.31222 -1.04449 0
M  V30 1628 C 155.859 -4.26288 -0.382436 0
M  V30 1629 C 155.185 -5.13954 -1.47497 0
M  V30 1630 C 156.485 -5.1744 0.710865 0
M  V30 1631 H 158.179 -2.91548 0.681184 0
M  V30 1632 H 155.725 -1.40191 0.329026 0
M  V30 1633 H 157.678 -3.92351 -1.53748 0
M  V30 1634 H 156.402 -2.71299 -1.81836 0
M  V30 1635 H 155.061 -3.6649 0.0899054 0
M  V30 1636 H 154.709 -4.50385 -2.2397 0
M  V30 1637 H 154.409 -5.7837 -1.03737 0
M  V30 1638 H 155.933 -5.77955 -1.96979 0
M  V30 1639 H 157.347 -5.72509 0.300996 0
M  V30 1640 H 155.744 -5.90455 1.07156 0
M  V30 1641 H 156.814 -4.58496 1.57829 0
M  V30 1642 N 158.157 -0.370918 -1.53173 0
M  V30 1643 C 159.404 0.217102 -2.01333 0
M  V30 1644 C 159.732 1.48338 -1.25802 0
M  V30 1645 O 158.987 1.92698 -0.34146 0
M  V30 1646 C 159.286 0.549696 -3.53147 0
M  V30 1647 C 158.952 -0.622872 -4.46577 0
M  V30 1648 C 157.614 -0.944595 -4.71838 0
M  V30 1649 C 159.966 -1.40819 -5.01816 0
M  V30 1650 C 157.294 -2.05351 -5.49589 0
M  V30 1651 C 159.646 -2.50757 -5.80778 0
M  V30 1652 C 158.31 -2.83458 -6.04324 0
M  V30 1653 H 157.58 0.0794431 -0.736729 0
M  V30 1654 H 160.227 -0.504481 -1.84736 0
M  V30 1655 H 158.532 1.35237 -3.6772 0
M  V30 1656 H 160.229 1.017 -3.87889 0
M  V30 1657 H 156.819 -0.36209 -4.27068 0
M  V30 1658 H 161.003 -1.17289 -4.82242 0
M  V30 1659 H 156.259 -2.3108 -5.6605 0
M  V30 1660 H 160.433 -3.12022 -6.22588 0
M  V30 1661 H 158.06 -3.69508 -6.64355 0
M  V30 1662 N 159.635 1.57281 -0.100228 0
M  V30 1663 C 160.565 2.17328 0.853857 0
M  V30 1664 C 161.546 1.10804 1.2906 0
M  V30 1665 O 162.731 1.38963 1.35657 0
M  V30 1666 C 159.861 2.75772 2.11109 0
M  V30 1667 C 158.815 3.87713 1.81279 0
M  V30 1668 C 158.141 4.32882 3.13874 0
M  V30 1669 C 159.441 5.10677 1.09574 0
M  V30 1670 H 161.135 2.97305 0.353545 0
M  V30 1671 H 158.681 1.43009 0.168612 0
M  V30 1672 H 160.634 3.16433 2.78296 0
M  V30 1673 H 159.358 1.93057 2.63432 0
M  V30 1674 H 158.017 3.476 1.16489 0
M  V30 1675 H 157.665 3.47051 3.64095 0
M  V30 1676 H 157.365 5.08358 2.94696 0
M  V30 1677 H 158.889 4.7618 3.82211 0
M  V30 1678 H 160.303 5.48474 1.66879 0
M  V30 1679 H 158.7 5.91615 1.00557 0
M  V30 1680 H 159.77 4.84835 0.0793299 0
M  V30 1681 N 161.113 -0.173488 1.56642 0
M  V30 1682 C 162.043 -1.2171 1.99271 0
M  V30 1683 C 163.024 -1.46289 0.867959 0
M  V30 1684 O 164.209 -1.5766 1.13388 0
M  V30 1685 C 161.339 -2.55651 2.35074 0
M  V30 1686 C 160.293 -2.45645 3.50489 0
M  V30 1687 C 159.619 -3.84056 3.72028 0
M  V30 1688 C 160.919 -1.96302 4.84007 0
M  V30 1689 H 162.613 -0.86275 2.867 0
M  V30 1690 H 160.159 -0.413571 1.37933 0
M  V30 1691 H 162.112 -3.2886 2.63494 0
M  V30 1692 H 160.836 -2.92869 1.44552 0
M  V30 1693 H 159.495 -1.7489 3.22194 0
M  V30 1694 H 159.143 -4.18664 2.788 0
M  V30 1695 H 158.843 -3.7823 4.49684 0
M  V30 1696 H 160.367 -4.58854 4.02846 0
M  V30 1697 H 161.781 -2.59284 5.11317 0
M  V30 1698 H 160.178 -2.01429 5.65284 0
M  V30 1699 H 161.248 -0.917226 4.76146 0
M  V30 1700 N 162.591 -1.51276 -0.441967 0
M  V30 1701 C 163.501 -1.75092 -1.56141 0
M  V30 1702 C 164.517 -0.634963 -1.62001 0
M  V30 1703 O 165.693 -0.916686 -1.79329 0
M  V30 1704 C 162.758 -1.86666 -2.92158 0
M  V30 1705 C 161.819 -3.10506 -2.96453 0
M  V30 1706 C 161.052 -3.21519 -4.25982 0
M  V30 1707 O 161.275 -2.38586 -5.18105 0
M  V30 1708 O 160.209 -4.14465 -4.36466 0
M  V30 1709 H 164.035 -2.70044 -1.38961 0
M  V30 1710 H 161.62 -1.35722 -0.624499 0
M  V30 1711 H 163.502 -1.96292 -3.72891 0
M  V30 1712 H 162.177 -0.949014 -3.09476 0
M  V30 1713 H 161.084 -3.06363 -2.14692 0
M  V30 1714 H 162.417 -4.01945 -2.84079 0
M  V30 1715 N 164.069 0.697108 -1.41344 0
M  V30 1716 C 164.979 1.84088 -1.45427 0
M  V30 1717 C 165.995 1.70545 -0.34501 0
M  V30 1718 O 167.171 1.92488 -0.592492 0
M  V30 1719 C 164.236 3.20056 -1.33286 0
M  V30 1720 C 163.297 3.45718 -2.54514 0
M  V30 1721 C 162.53 4.75199 -2.42944 0
M  V30 1722 O 162.753 5.51579 -1.45318 0
M  V30 1723 O 161.687 5.0161 -3.32672 0
M  V30 1724 H 165.513 1.836 -2.41919 0
M  V30 1725 H 163.098 0.849966 -1.22866 0
M  V30 1726 H 164.98 4.01236 -1.28794 0
M  V30 1727 H 163.655 3.2123 -0.39909 0
M  V30 1728 H 162.562 2.64474 -2.64583 0
M  V30 1729 H 163.895 3.49356 -3.46715 0
M  V30 1730 N 165.547 1.27147 0.931209 0
M  V30 1731 C 166.777 1.15914 1.71019 0
M  V30 1732 C 167.185 -0.287112 1.87009 0
M  V30 1733 O 166.528 -1.20761 1.38429 0
M  V30 1734 C 166.59 1.76647 3.13107 0
M  V30 1735 C 166.254 3.25807 3.20467 0
M  V30 1736 C 167.251 4.22489 3.02983 0
M  V30 1737 C 164.936 3.66452 3.43538 0
M  V30 1738 C 166.93 5.57794 3.08454 0
M  V30 1739 C 164.617 5.01888 3.48643 0
M  V30 1740 C 165.615 5.97369 3.31119 0
M  V30 1741 O 165.303 7.30337 3.35952 0
M  V30 1742 H 165.035 0.404062 0.54195 0
M  V30 1743 H 167.589 1.68457 1.17521 0
M  V30 1744 H 165.819 1.18578 3.68071 0
M  V30 1745 H 167.508 1.60179 3.72958 0
M  V30 1746 H 168.274 3.92425 2.85004 0
M  V30 1747 H 164.153 2.92611 3.5623 0
M  V30 1748 H 167.697 6.32298 2.94694 0
M  V30 1749 H 163.594 5.31609 3.66145 0
M  V30 1750 H 164.362 7.38739 3.5243 0
M  V30 1751 N 167.025 -1.13721 1.09112 0
M  V30 1752 C 167.972 -2.19031 0.727591 0
M  V30 1753 C 168.942 -1.63555 -0.289656 0
M  V30 1754 O 170.127 -1.90023 -0.172026 0
M  V30 1755 C 167.267 -3.4477 0.15082 0
M  V30 1756 C 166.38 -4.14365 1.22172 0
M  V30 1757 C 165.515 -5.27709 0.608042 0
M  V30 1758 C 164.554 -5.89147 1.66047 0
M  V30 1759 N 163.691 -6.93929 1.06806 0
M  V30 1760 H 168.531 -2.49475 1.62991 0
M  V30 1761 H 166.068 -1.22499 0.81439 0
M  V30 1762 H 168.026 -4.16714 -0.201358 0
M  V30 1763 H 166.656 -3.14787 -0.714783 0
M  V30 1764 H 165.708 -3.40737 1.69122 0
M  V30 1765 H 167.02 -4.56114 2.01895 0
M  V30 1766 H 166.174 -6.06355 0.204523 0
M  V30 1767 H 164.913 -4.872 -0.220769 0
M  V30 1768 H 163.918 -5.09198 2.07357 0
M  V30 1769 H 165.143 -6.31729 2.49189 0
M  V30 1770 H 163.089 -6.55483 0.260476 0
M  V30 1771 H 163.006 -7.34202 1.8023 0
M  V30 1772 H 164.274 -7.76434 0.690644 0
M  V30 1773 N 168.503 -0.877838 -1.30888 0
M  V30 1774 C 169.451 -0.328662 -2.30266 0
M  V30 1775 C 170.445 0.560496 -1.59859 0
M  V30 1776 O 171.651 0.445722 -1.74394 0
M  V30 1777 H 168.026 -0.0876142 -0.746879 0
M  V30 1778 H 169.997 -1.18061 -2.74051 0
M  V30 1779 C 168.746 0.448071 -3.44801 0
M  V30 1780 H 168.069 -0.226859 -3.99156 0
M  V30 1781 H 169.509 0.797541 -4.16432 0
M  V30 1782 C 167.968 1.64239 -2.94155 0
M  V30 1783 O 168.498 2.74175 -2.93583 0
M  V30 1784 N 166.704 1.47716 -2.50256 0
M  V30 1785 H 166.251 0.582821 -2.5092 0
M  V30 1786 H 166.209 2.27765 -2.16727 0
M  V30 1787 N 169.982 1.44106 -0.638065 0
M  V30 1788 C 171.212 2.06037 -0.152394 0
M  V30 1789 C 171.62 1.47808 1.18108 0
M  V30 1790 O 170.963 0.598092 1.73691 0
M  V30 1791 C 171.025 3.59488 0.0293714 0
M  V30 1792 C 170.689 4.4022 -1.22702 0
M  V30 1793 C 171.686 4.73256 -2.15232 0
M  V30 1794 C 169.371 4.8048 -1.46437 0
M  V30 1795 C 171.365 5.45444 -3.29802 0
M  V30 1796 C 169.052 5.52417 -2.61303 0
M  V30 1797 C 170.05 5.84819 -3.52811 0
M  V30 1798 O 169.738 6.55289 -4.65673 0
M  V30 1799 H 169.47 0.671233 -0.0801401 0
M  V30 1800 H 172.024 1.85851 -0.874563 0
M  V30 1801 H 170.254 3.78191 0.806758 0
M  V30 1802 H 171.943 4.03164 0.470475 0
M  V30 1803 H 172.709 4.42684 -1.98131 0
M  V30 1804 H 168.588 4.54676 -0.760977 0
M  V30 1805 H 172.132 5.70653 -4.01249 0
M  V30 1806 H 168.029 5.82404 -2.78344 0
M  V30 1807 H 168.797 6.73762 -4.64744 0
M  V30 1808 N 171.46 0.379036 1.52974 0
M  V30 1809 C 172.39 -0.452706 2.29069 0
M  V30 1810 C 173.371 -1.07237 1.32039 0
M  V30 1811 O 174.556 -1.08708 1.60923 0
M  V30 1812 C 171.686 -1.5856 3.08992 0
M  V30 1813 C 170.64 -1.0925 4.13822 0
M  V30 1814 C 169.966 -2.31668 4.81907 0
M  V30 1815 C 171.266 -0.167702 5.22031 0
M  V30 1816 H 172.96 0.182181 2.98845 0
M  V30 1817 H 170.506 0.0890592 1.43724 0
M  V30 1818 H 172.459 -2.1742 3.6098 0
M  V30 1819 H 171.183 -2.24792 2.36931 0
M  V30 1820 H 169.842 -0.526494 3.628 0
M  V30 1821 H 169.49 -2.96386 4.06404 0
M  V30 1822 H 169.19 -1.9934 5.52754 0
M  V30 1823 H 170.714 -2.91189 5.36695 0
M  V30 1824 H 172.128 -0.664186 5.6944 0
M  V30 1825 H 170.525 0.0653265 6.00064 0
M  V30 1826 H 171.595 0.786347 4.78482 0
M  V30 1827 N 172.938 -1.57226 0.108567 0
M  V30 1828 C 174.215 -1.86333 -0.594939 0
M  V30 1829 C 174.595 -1.00788 -1.85486 0
M  V30 1830 O 173.943 -0.0839293 -2.28346 0
M  V30 1831 C 174.153 -3.37265 -0.897405 0
M  V30 1832 C 175.501 -4.05629 -1.25501 0
M  V30 1833 O 176.525 -3.42224 -0.987998 0
M  V30 1834 O 175.384 -5.17531 -1.75567 0
M  V30 1835 H 172.478 -0.771018 -0.2991 0
M  V30 1836 H 175.024 -1.69102 0.142283 0
M  V30 1837 H 173.796 -3.913 -0.00413806 0
M  V30 1838 H 173.419 -3.59889 -1.69014 0
M  V30 1839 N 174.416 0.165178 -1.56732 0
M  V30 1840 C 175.379 1.18822 -1.95995 0
M  V30 1841 C 176.379 1.3685 -0.84431 0
M  V30 1842 O 177.569 1.34152 -1.11126 0
M  V30 1843 C 174.701 2.5521 -2.26011 0
M  V30 1844 H 175.894 0.851825 -2.87548 0
M  V30 1845 H 173.447 0.407857 -1.50885 0
M  V30 1846 H 174.182 2.93852 -1.37191 0
M  V30 1847 H 173.967 2.43489 -3.07336 0
M  V30 1848 H 175.457 3.28927 -2.57288 0
M  V30 1849 N 175.894 1.51508 0.433938 0
M  V30 1850 C 176.857 1.72473 1.50949 0
M  V30 1851 C 177.857 0.594725 1.49398 0
M  V30 1852 O 179.047 0.862315 1.5136 0
M  V30 1853 C 176.179 1.78431 2.90474 0
M  V30 1854 H 177.372 2.68467 1.33662 0
M  V30 1855 H 174.925 1.41549 0.662836 0
M  V30 1856 H 175.66 0.842645 3.13161 0
M  V30 1857 H 175.445 2.60558 2.93005 0
M  V30 1858 H 176.935 1.96479 3.68491 0
M  V30 1859 N 177.372 -0.689602 1.41712 0
M  V30 1860 C 178.32 -1.82475 1.44242 0
M  V30 1861 C 179.314 -1.66354 0.319774 0
M  V30 1862 O 180.52 -1.73143 0.492089 0
M  V30 1863 H 176.895 -0.601416 0.451445 0
M  V30 1864 H 178.866 -1.77458 2.39899 0
M  V30 1865 C 177.615 -3.20535 1.3473 0
M  V30 1866 H 176.938 -3.33559 2.20405 0
M  V30 1867 H 178.378 -4.00023 1.40562 0
M  V30 1868 C 176.837 -3.36846 0.0603281 0
M  V30 1869 O 177.367 -3.91656 -0.892663 0
M  V30 1870 N 175.573 -2.90595 -0.0177039 0
M  V30 1871 H 175.12 -2.46178 0.758572 0
M  V30 1872 H 175.078 -3.01886 -0.878201 0
M  V30 1873 N 178.85 -1.27639 -0.924453 0
M  V30 1874 C 179.783 -1.04966 -2.02626 0
M  V30 1875 C 180.761 0.0309505 -1.62571 0
M  V30 1876 O 181.945 -0.114846 -1.8815 0
M  V30 1877 C 179.072 -0.59292 -3.3347 0
M  V30 1878 C 178.118 -1.66858 -3.92506 0
M  V30 1879 S 178.951 -3.2619 -4.24689 0
M  V30 1880 C 180.107 -2.82325 -5.58609 0
M  V30 1881 H 180.34 -1.98252 -2.21547 0
M  V30 1882 H 177.873 -1.11506 -1.06798 0
M  V30 1883 H 179.831 -0.336086 -4.09122 0
M  V30 1884 H 178.492 0.319939 -3.12466 0
M  V30 1885 H 177.685 -1.30038 -4.86935 0
M  V30 1886 H 177.287 -1.87766 -3.2345 0
M  V30 1887 H 179.579 -2.2783 -6.38044 0
M  V30 1888 H 180.522 -3.75511 -6.00331 0
M  V30 1889 H 180.93 -2.21367 -5.19285 0
M  V30 1890 N 180.328 1.1314 -1.09713 0
M  V30 1891 C 181.553 1.88862 -0.857081 0
M  V30 1892 C 181.978 1.78729 0.586304 0
M  V30 1893 O 181.336 1.13692 1.41222 0
M  V30 1894 C 181.384 3.36325 -1.30069 0
M  V30 1895 O 180.488 4.09815 -0.461007 0
M  V30 1896 H 179.829 0.587108 -0.310162 0
M  V30 1897 H 182.359 1.43129 -1.46203 0
M  V30 1898 H 182.369 3.87157 -1.28738 0
M  V30 1899 H 181.044 3.43017 -2.35185 0
M  V30 1900 H 179.621 3.68986 -0.538888 0
M  V30 1901 N 181.806 0.884767 1.30421 0
M  V30 1902 C 182.739 0.295999 2.26272 0
M  V30 1903 C 183.717 -0.58332 1.51777 0
M  V30 1904 O 184.901 -0.53346 1.80794 0
M  V30 1905 C 182.028 -0.57944 3.33707 0
M  V30 1906 C 181.074 0.230525 4.25877 0
M  V30 1907 S 181.907 1.61867 5.1045 0
M  V30 1908 C 183.063 0.749756 6.21393 0
M  V30 1909 H 183.296 1.10848 2.75862 0
M  V30 1910 H 180.829 0.684178 1.38414 0
M  V30 1911 H 182.787 -1.07879 3.96071 0
M  V30 1912 H 181.448 -1.36601 2.82841 0
M  V30 1913 H 180.641 -0.437542 5.02097 0
M  V30 1914 H 180.243 0.662493 3.68086 0
M  V30 1915 H 182.535 -0.0333547 6.77492 0
M  V30 1916 H 183.478 1.48356 6.92384 0
M  V30 1917 H 183.886 0.310751 5.63644 0
M  V30 1918 N 183.284 -1.43765 0.645699 0
M  V30 1919 C 184.7 -1.56509 0.312591 0
M  V30 1920 C 184.9 -1.6307 -1.18365 0
M  V30 1921 O 183.956 -1.58167 -1.96824 0
M  V30 1922 C 185.269 -2.82968 1.01733 0
M  V30 1923 C 186.817 -2.96701 0.996865 0
M  V30 1924 C 187.292 -4.25982 1.68236 0
M  V30 1925 N 188.783 -4.32829 1.64964 0
M  V30 1926 C 189.518 -5.31613 2.14885 0
M  V30 1927 N 189.014 -6.36718 2.73061 0
M  V30 1928 N 190.807 -5.23217 2.05428 0
M  V30 1929 H 182.958 -1.3775 1.61675 0
M  V30 1930 H 185.221 -0.661067 0.679481 0
M  V30 1931 H 184.927 -2.84156 2.0724 0
M  V30 1932 H 184.801 -3.72957 0.564177 0
M  V30 1933 H 187.188 -2.95058 -0.0497719 0
M  V30 1934 H 187.269 -2.08022 1.48865 0
M  V30 1935 H 186.913 -4.28386 2.72852 0
M  V30 1936 H 186.843 -5.13545 1.16529 0
M  V30 1937 H 189.334 -3.57493 1.22503 0
M  V30 1938 H 189.647 -7.08401 3.08848 0
M  V30 1939 H 187.992 -6.37362 2.77118 0
M  V30 1940 H 191.183 -4.40019 1.59689 0
M  V30 1941 H 191.356 -6.00045 2.44643 0
M  V30 1942 N 184.763 -0.387143 -1.52771 0
M  V30 1943 C 186.009 0.196025 -2.0185 0
M  V30 1944 C 186.342 1.46641 -1.27319 0
M  V30 1945 O 185.617 1.90889 -0.373032 0
M  V30 1946 C 185.9 0.466136 -3.5707 0
M  V30 1947 C 185.753 -0.819385 -4.42274 0
M  V30 1948 C 187.072 1.25768 -4.21747 0
M  V30 1949 H 184.191 0.0697708 -0.73369 0
M  V30 1950 H 186.833 -0.516286 -1.82851 0
M  V30 1951 H 184.983 1.07293 -3.7339 0
M  V30 1952 H 186.655 -1.4563 -4.37709 0
M  V30 1953 H 184.898 -1.43517 -4.09372 0
M  V30 1954 H 185.569 -0.585065 -5.48891 0
M  V30 1955 H 188.045 0.744167 -4.09391 0
M  V30 1956 H 186.921 1.41541 -5.30337 0
M  V30 1957 H 187.182 2.27228 -3.79236 0
M  V30 1958 N 186.241 1.57166 -0.116904 0
M  V30 1959 C 187.657 1.5779 0.239693 0
M  V30 1960 C 187.857 1.1295 1.66867 0
M  V30 1961 O 186.913 0.81592 2.38954 0
M  V30 1962 C 188.226 3.00699 0.00828202 0
M  V30 1963 C 189.774 3.12912 0.0743438 0
M  V30 1964 C 190.249 4.57817 -0.129348 0
M  V30 1965 N 191.74 4.63139 -0.075247 0
M  V30 1966 C 192.475 5.73023 -0.207788 0
M  V30 1967 N 191.971 6.91665 -0.396382 0
M  V30 1968 N 193.764 5.61906 -0.14751 0
M  V30 1969 H 185.915 1.84615 -1.05029 0
M  V30 1970 H 188.178 0.85311 -0.41341 0
M  V30 1971 H 187.884 3.37784 -0.979531 0
M  V30 1972 H 187.758 3.69848 0.741077 0
M  V30 1973 H 190.145 2.75686 1.05268 0
M  V30 1974 H 190.226 2.4631 -0.690297 0
M  V30 1975 H 189.87 4.95742 -1.10465 0
M  V30 1976 H 189.8 5.22507 0.655253 0
M  V30 1977 H 192.291 3.7784 0.0670898 0
M  V30 1978 H 192.604 7.71255 -0.488437 0
M  V30 1979 H 190.949 6.93654 -0.432329 0
M  V30 1980 H 194.14 4.681 -0.00115036 0
M  V30 1981 H 194.313 6.47501 -0.254247 0
M  V30 1982 N 187.719 -0.156864 1.56817 0
M  V30 1983 C 189.135 -0.50916 1.5126 0
M  V30 1984 C 189.335 -1.83897 0.823658 0
M  V30 1985 O 188.391 -2.49469 0.390055 0
M  V30 1986 C 189.704 -0.52857 2.96018 0
M  V30 1987 C 191.252 -0.614771 3.06903 0
M  V30 1988 C 191.727 -0.664938 4.53147 0
M  V30 1989 N 193.218 -0.727433 4.57452 0
M  V30 1990 C 193.953 -0.787067 5.67973 0
M  V30 1991 N 193.449 -0.806649 6.88088 0
M  V30 1992 N 195.242 -0.827195 5.5598 0
M  V30 1993 H 187.393 0.714935 2.00006 0
M  V30 1994 H 189.656 0.259526 0.911784 0
M  V30 1995 H 189.362 0.380154 3.49639 0
M  V30 1996 H 189.236 -1.36998 3.51442 0
M  V30 1997 H 191.623 -1.51392 2.53307 0
M  V30 1998 H 191.704 0.253597 2.5454 0
M  V30 1999 H 191.348 0.230011 5.07379 0
M  V30 2000 H 191.278 -1.54966 5.03282 0
M  V30 2001 H 193.769 -0.719998 3.70978 0
M  V30 2002 H 194.082 -0.853727 7.6807 0
M  V30 2003 H 192.427 -0.774687 6.90669 0
M  V30 2004 H 195.618 -0.808998 4.61056 0
M  V30 2005 H 195.791 -0.870206 6.4213 0
M  V30 2006 N 189.197 -1.51736 -0.425897 0
M  V30 2007 C 190.147 -1.70258 -1.51645 0
M  V30 2008 C 191.131 -0.556488 -1.5097 0
M  V30 2009 O 192.323 -0.812879 -1.5723 0
M  V30 2010 C 189.452 -1.84143 -2.89735 0
M  V30 2011 C 188.538 -3.04572 -2.95122 0
M  V30 2012 N 188.929 -4.2756 -2.70233 0
M  V30 2013 C 187.227 -3.04061 -3.26286 0
M  V30 2014 C 187.928 -5.08908 -2.81757 0
M  V30 2015 N 186.904 -4.43797 -3.13919 0
M  V30 2016 H 190.706 -2.63004 -1.31172 0
M  V30 2017 H 188.22 -1.4954 -0.633375 0
M  V30 2018 H 190.217 -1.95525 -3.68206 0
M  V30 2019 H 188.877 -0.925857 -3.1122 0
M  V30 2020 H 189.888 -4.56315 -2.44943 0
M  V30 2021 H 186.565 -2.22179 -3.53473 0
M  V30 2022 H 187.955 -6.16843 -2.66372 0
M  V30 2023 N 190.675 0.682077 -1.42076 0
M  V30 2024 C 191.9 1.47558 -1.45744 0
M  V30 2025 C 192.325 1.87977 -0.0680981 0
M  V30 2026 O 191.683 1.55522 0.9318 0
M  V30 2027 C 191.731 2.70575 -2.38373 0
M  V30 2028 O 190.835 3.68573 -1.85007 0
M  V30 2029 H 190.176 0.443585 -0.494093 0
M  V30 2030 H 192.706 0.837238 -1.86686 0
M  V30 2031 H 192.716 3.18729 -2.54707 0
M  V30 2032 H 191.391 2.40495 -3.39315 0
M  V30 2033 H 189.968 3.2757 -1.78192 0
M  V30 2034 N 192.153 1.28127 0.917671 0
M  V30 2035 C 193.43 1.05761 1.64542 0
M  V30 2036 C 193.81 -0.404344 2.07191 0
M  V30 2037 O 193.158 -1.38963 1.81388 0
M  V30 2038 C 193.368 2.02857 2.83989 0
M  V30 2039 C 194.716 2.32786 3.551 0
M  V30 2040 O 195.74 2.0091 2.94132 0
M  V30 2041 O 194.599 2.87169 4.64969 0
M  V30 2042 H 191.693 0.403916 0.721652 0
M  V30 2043 H 194.239 1.39431 0.967322 0
M  V30 2044 H 193.011 3.01407 2.49538 0
M  V30 2045 H 192.634 1.69809 3.59514 0
M  V30 2046 N 193.631 -1.12557 1.10312 0
M  V30 2047 C 195.042 -1.65574 0.862678 0
M  V30 2048 C 195.393 -1.86566 -0.607256 0
M  V30 2049 O 194.518 -1.59121 -1.46662 0
M  V30 2050 C 195.113 -3.00776 1.55947 0
M  V30 2051 C 193.672 -3.50748 1.36576 0
M  V30 2052 C 192.819 -2.25797 1.60968 0
M  V30 2053 H 195.77 -0.963552 1.26101 0
M  V30 2054 H 195.791 -3.67185 0.997753 0
M  V30 2055 H 195.303 -2.85465 2.62928 0
M  V30 2056 H 193.404 -3.71245 0.317531 0
M  V30 2057 H 193.517 -4.30289 2.10686 0
M  V30 2058 H 191.881 -2.32841 1.03234 0
M  V30 2059 H 192.664 -2.13043 2.69198 0
M  V30 2060 N 195.109 -0.891671 -1.2995 0
M  V30 2061 C 196.072 -0.36828 -2.26222 0
M  V30 2062 C 197.072 0.493014 -1.53056 0
M  V30 2063 O 198.262 0.299213 -1.71611 0
M  V30 2064 C 195.394 0.47442 -3.37583 0
M  V30 2065 H 196.587 -1.21844 -2.74033 0
M  V30 2066 H 194.14 -0.669107 -1.41254 0
M  V30 2067 H 194.875 1.34489 -2.95099 0
M  V30 2068 H 194.66 -0.142615 -3.91841 0
M  V30 2069 H 196.15 0.83218 -4.09224 0
M  V30 2070 N 196.587 1.43421 -0.653314 0
M  V30 2071 C 198.003 1.56341 -0.320886 0
M  V30 2072 C 198.203 1.63696 1.17499 0
M  V30 2073 O 197.259 1.59208 1.95982 0
M  V30 2074 C 198.572 2.82424 -1.03233 0
M  V30 2075 C 200.12 2.96168 -1.01259 0
M  V30 2076 C 200.595 4.25084 -1.70492 0
M  V30 2077 N 202.086 4.31948 -1.67257 0
M  V30 2078 C 202.821 5.30466 -2.17701 0
M  V30 2079 N 202.317 6.35261 -2.76434 0
M  V30 2080 N 204.11 5.2212 -2.082 0
M  V30 2081 H 196.261 1.3689 -1.62403 0
M  V30 2082 H 198.524 0.657455 -0.682977 0
M  V30 2083 H 198.23 2.83053 -2.08744 0
M  V30 2084 H 198.104 3.72653 -0.583948 0
M  V30 2085 H 200.491 2.9508 0.0341235 0
M  V30 2086 H 200.572 2.07229 -1.49966 0
M  V30 2087 H 200.216 4.26932 -2.7512 0
M  V30 2088 H 200.146 5.1292 -1.19251 0
M  V30 2089 H 202.637 3.56838 -1.24398 0
M  V30 2090 H 202.95 7.06754 -3.12601 0
M  V30 2091 H 201.295 6.35884 -2.80495 0
M  V30 2092 H 204.486 4.39166 -1.62021 0
M  V30 2093 H 204.659 5.98739 -2.47822 0
M  V30 2094 N 198.065 0.39524 1.52563 0
M  V30 2095 C 199.481 0.0454682 1.59535 0
M  V30 2096 C 199.681 -1.44056 1.4089 0
M  V30 2097 O 198.737 -2.20579 1.22888 0
M  V30 2098 C 200.05 0.527963 2.96029 0
M  V30 2099 C 201.598 0.484733 3.09224 0
M  V30 2100 C 202.073 0.943512 4.48176 0
M  V30 2101 N 203.564 0.899765 4.54377 0
M  V30 2102 C 204.299 1.22609 5.60138 0
M  V30 2103 N 203.795 1.62319 6.73516 0
M  V30 2104 N 205.588 1.14696 5.50274 0
M  V30 2105 H 197.739 1.36261 1.62931 0
M  V30 2106 H 200.002 0.558887 0.765735 0
M  V30 2107 H 199.708 1.56607 3.14908 0
M  V30 2108 H 199.582 -0.0698056 3.77135 0
M  V30 2109 H 201.969 -0.544298 2.90037 0
M  V30 2110 H 202.05 1.11838 2.30056 0
M  V30 2111 H 201.694 1.9708 4.68104 0
M  V30 2112 H 201.624 0.286817 5.25818 0
M  V30 2113 H 204.115 0.607632 3.72983 0
M  V30 2114 H 204.428 1.85567 7.5019 0
M  V30 2115 H 202.773 1.66211 6.74833 0
M  V30 2116 H 205.964 0.835701 4.6058 0
M  V30 2117 H 206.137 1.40459 6.32594 0
M  V30 2118 N 199.544 -1.57102 0.125237 0
M  V30 2119 C 200.792 -1.95021 -0.530198 0
M  V30 2120 C 201.113 -1.00982 -1.66816 0
M  V30 2121 O 200.383 -0.0672693 -1.95784 0
M  V30 2122 H 198.963 -0.720046 -0.198853 0
M  V30 2123 H 201.625 -1.93916 0.19564 0
M  V30 2124 H 200.721 -2.98211 -0.920681 0
M  V30 2125 N 201.022 0.148545 -1.56898 0
M  V30 2126 C 201.932 1.20293 -2.01412 0
M  V30 2127 C 202.948 1.47107 -0.929273 0
M  V30 2128 O 204.124 1.58807 -1.23863 0
M  V30 2129 C 201.189 2.51682 -2.38447 0
M  V30 2130 C 200.25 2.32529 -3.60872 0
M  V30 2131 C 199.483 3.57653 -3.96132 0
M  V30 2132 O 199.706 4.63771 -3.32073 0
M  V30 2133 O 198.64 3.50408 -4.89385 0
M  V30 2134 H 202.466 0.855025 -2.91416 0
M  V30 2135 H 200.051 0.357151 -1.45068 0
M  V30 2136 H 201.933 3.29147 -2.63135 0
M  V30 2137 H 200.608 2.86006 -1.51599 0
M  V30 2138 H 199.515 1.53019 -3.41373 0
M  V30 2139 H 200.848 2.03121 -4.48333 0
M  V30 2140 N 202.5 1.5196 0.417844 0
M  V30 2141 C 203.43 1.77634 1.51554 0
M  V30 2142 C 204.411 0.626918 1.58126 0
M  V30 2143 O 205.596 0.871632 1.7354 0
M  V30 2144 C 202.726 1.91911 2.8946 0
M  V30 2145 C 201.68 3.07463 2.97743 0
M  V30 2146 C 201.006 3.06951 4.37819 0
M  V30 2147 C 202.306 4.47082 2.70027 0
M  V30 2148 H 204 2.6955 1.3032 0
M  V30 2149 H 201.546 1.29706 0.625492 0
M  V30 2150 H 203.499 2.08455 3.6623 0
M  V30 2151 H 202.223 0.966598 3.11969 0
M  V30 2152 H 200.882 2.90656 2.23416 0
M  V30 2153 H 200.53 2.09438 4.57323 0
M  V30 2154 H 200.23 3.84556 4.44286 0
M  V30 2155 H 201.754 3.25613 5.16535 0
M  V30 2156 H 203.168 4.6414 3.36522 0
M  V30 2157 H 201.565 5.2654 2.87881 0
M  V30 2158 H 202.635 4.55777 1.65514 0
M  V30 2159 N 203.978 -0.674533 1.42435 0
M  V30 2160 C 205.203 -1.46784 1.46524 0
M  V30 2161 C 205.628 -1.87938 0.078066 0
M  V30 2162 O 204.986 -1.56014 -0.92354 0
M  V30 2163 C 205.034 -2.69307 2.39805 0
M  V30 2164 O 204.138 -3.67587 1.86959 0
M  V30 2165 H 203.479 -0.440959 0.496439 0
M  V30 2166 H 206.009 -0.827326 1.87127 0
M  V30 2167 H 206.019 -3.17374 2.56393 0
M  V30 2168 H 204.694 -2.38692 3.40586 0
M  V30 2169 H 203.271 -3.2662 1.79927 0
M  V30 2170 N 205.456 -1.28612 -0.910864 0
M  V30 2171 C 206.702 -1.16106 -1.66274 0
M  V30 2172 C 207.035 0.289113 -1.92036 0
M  V30 2173 O 206.31 1.21 -1.52281 0
M  V30 2174 C 206.593 -1.96309 -3.01885 0
M  V30 2175 C 206.446 -3.49405 -2.8326 0
M  V30 2176 C 207.765 -1.78076 -4.02463 0
M  V30 2177 H 204.884 -0.423152 -0.603417 0
M  V30 2178 H 207.526 -1.57961 -1.05586 0
M  V30 2179 H 205.676 -1.60742 -3.53687 0
M  V30 2180 H 207.348 -3.94894 -2.38446 0
M  V30 2181 H 205.591 -3.74893 -2.18261 0
M  V30 2182 H 206.262 -4.00784 -3.79574 0
M  V30 2183 H 208.738 -2.0912 -3.59733 0
M  V30 2184 H 207.614 -2.36561 -4.95308 0
M  V30 2185 H 207.875 -0.733008 -4.35981 0
M  V30 2186 N 206.934 1.1197 -1.10907 0
M  V30 2187 C 208.174 1.85224 -0.864378 0
M  V30 2188 C 208.538 1.82411 0.599178 0
M  V30 2189 O 209.739 2.51057 0.960416 0
M  V30 2190 C 208.01 3.2868 -1.40371 0
M  V30 2191 S 209.569 4.1925 -1.29518 0
M  V30 2192 H 206.387 0.63878 -0.312219 0
M  V30 2193 H 208.989 1.3485 -1.41548 0
M  V30 2194 H 207.693 3.28289 -2.46281 0
M  V30 2195 H 207.224 3.84121 -0.849402 0
M  V30 2196 H 209.239 4.95539 -0.256059 0
M  V30 2197 N 208.412 0.89855 1.29475 0
M  V30 2198 C 209.689 0.443416 1.90508 0
M  V30 2199 C 210.069 -1.07685 1.81569 0
M  V30 2200 O 209.417 -1.9182 1.24166 0
M  V30 2201 C 209.627 0.956708 3.35631 0
M  V30 2202 C 210.975 0.999728 4.12663 0
M  V30 2203 O 211.999 0.904299 3.4453 0
M  V30 2204 O 210.858 1.14289 5.34416 0
M  V30 2205 H 207.952 0.138025 0.815401 0
M  V30 2206 H 210.498 0.98834 1.37949 0
M  V30 2207 H 209.27 2.00067 3.36287 0
M  V30 2208 H 208.893 0.391728 3.95666 0
M  V30 2209 N 209.89 -1.43072 0.660911 0
M  V30 2210 C 211.115 -2.06584 0.183805 0
M  V30 2211 C 211.54 -1.49257 -1.14472 0
M  V30 2212 O 210.898 -0.605528 -1.70889 0
M  V30 2213 C 210.946 -3.60418 0.114434 0
M  V30 2214 O 210.05 -4.01981 -0.921137 0
M  V30 2215 H 209.391 -0.656669 0.0983994 0
M  V30 2216 H 211.921 -1.83447 0.906006 0
M  V30 2217 H 211.931 -4.07946 -0.0663394 0
M  V30 2218 H 210.606 -4.01519 1.08422 0
M  V30 2219 H 209.183 -3.66029 -0.71253 0
M  V30 2220 N 211.368 -0.403325 -1.52352 0
M  V30 2221 C 212.617 0.175668 -2.00934 0
M  V30 2222 C 212.93 1.46718 -1.29356 0
M  V30 2223 O 214.136 2.12708 -1.68724 0
M  V30 2224 C 212.592 0.363612 -3.58058 0
M  V30 2225 C 212.2 -0.915472 -4.38547 0
M  V30 2226 C 213.944 0.89821 -4.14888 0
M  V30 2227 C 211.851 -0.695035 -5.87302 0
M  V30 2228 H 210.781 0.0694234 -0.750797 0
M  V30 2229 H 213.432 -0.527879 -1.75743 0
M  V30 2230 H 211.814 1.12935 -3.79555 0
M  V30 2231 H 212.988 -1.68691 -4.28812 0
M  V30 2232 H 211.303 -1.37606 -3.93006 0
M  V30 2233 H 213.9 1.07907 -5.23699 0
M  V30 2234 H 214.243 1.87126 -3.71873 0
M  V30 2235 H 214.776 0.191681 -3.97338 0
M  V30 2236 H 211.515 -1.63948 -6.34666 0
M  V30 2237 H 211.035 0.0372116 -5.99788 0
M  V30 2238 H 212.714 -0.33497 -6.46132 0
M  V30 2239 N 212.846 1.57033 -0.133567 0
M  V30 2240 C 214.071 2.00475 0.531477 0
M  V30 2241 C 214.496 1.01291 1.58499 0
M  V30 2242 O 213.854 -0.0133279 1.81295 0
M  V30 2243 C 213.902 3.42729 1.12113 0
M  V30 2244 O 213.006 3.46498 2.23636 0
M  V30 2245 H 212.347 0.650876 0.131362 0
M  V30 2246 H 214.877 2.03344 -0.22634 0
M  V30 2247 H 214.887 3.81246 1.4531 0
M  V30 2248 H 213.562 4.14428 0.349557 0
M  V30 2249 H 212.139 3.19811 1.91769 0
M  V30 2250 N 214.325 -0.140222 1.56975 0
M  V30 2251 C 215.235 -1.19223 2.02047 0
M  V30 2252 C 216.251 -1.46612 0.937062 0
M  V30 2253 O 217.427 -1.58148 1.24704 0
M  V30 2254 C 214.492 -2.50414 2.39778 0
M  V30 2255 C 213.553 -2.30612 3.621 0
M  V30 2256 C 212.786 -3.55547 3.98023 0
M  V30 2257 O 213.009 -4.62004 3.34528 0
M  V30 2258 O 211.943 -3.47808 4.91237 0
M  V30 2259 H 215.769 -0.839559 2.91865 0
M  V30 2260 H 213.354 -0.349453 1.45256 0
M  V30 2261 H 215.236 -3.27747 2.64877 0
M  V30 2262 H 213.911 -2.85198 1.53114 0
M  V30 2263 H 212.818 -1.51207 3.4218 0
M  V30 2264 H 214.151 -2.00741 4.49404 0
M  V30 2265 N 215.803 -1.52179 -0.40978 0
M  V30 2266 C 217.049 -1.67408 -1.15525 0
M  V30 2267 C 217.404 -0.398746 -1.88223 0
M  V30 2268 O 216.697 0.60678 -1.81738 0
M  V30 2269 C 216.891 -2.83428 -2.17723 0
M  V30 2270 C 216.72 -4.22121 -1.55061 0
M  V30 2271 C 215.49 -4.87657 -1.3236 0
M  V30 2272 C 217.688 -5.04248 -1.01185 0
M  V30 2273 N 215.67 -6.10387 -0.655834 0
M  V30 2274 C 217.041 -6.18209 -0.470963 0
M  V30 2275 C 219.096 -4.89583 -0.906252 0
M  V30 2276 C 217.799 -7.1911 0.165172 0
M  V30 2277 C 219.825 -5.90718 -0.28397 0
M  V30 2278 C 219.187 -7.03969 0.246243 0
M  V30 2279 H 215.286 -0.666251 -0.409431 0
M  V30 2280 H 217.87 -1.89482 -0.447729 0
M  V30 2281 H 216.041 -2.6297 -2.85834 0
M  V30 2282 H 217.773 -2.87697 -2.84627 0
M  V30 2283 H 214.528 -4.46007 -1.59294 0
M  V30 2284 H 214.952 -6.76153 -0.338596 0
M  V30 2285 H 219.594 -4.02253 -1.302 0
M  V30 2286 H 217.312 -8.06066 0.572986 0
M  V30 2287 H 220.898 -5.81443 -0.203792 0
M  V30 2288 H 219.778 -7.80886 0.720173 0
M  V30 2289 N 217.281 0.66697 -1.42791 0
M  V30 2290 C 218.527 1.4291 -1.43891 0
M  V30 2291 C 218.86 1.94114 -0.0578972 0
M  V30 2292 O 218.135 1.71414 0.91911 0
M  V30 2293 C 218.418 2.62049 -2.46987 0
M  V30 2294 C 218.271 2.16426 -3.94309 0
M  V30 2295 C 219.59 3.64266 -2.46978 0
M  V30 2296 H 216.709 0.518306 -0.523954 0
M  V30 2297 H 219.351 0.757321 -1.74255 0
M  V30 2298 H 217.501 3.19361 -2.21225 0
M  V30 2299 H 219.173 1.64221 -4.31079 0
M  V30 2300 H 217.416 1.47925 -4.078 0
M  V30 2301 H 218.087 3.02038 -4.62036 0
M  V30 2302 H 220.563 3.16686 -2.69906 0
M  V30 2303 H 219.439 4.45196 -3.21079 0
M  V30 2304 H 219.7 4.15927 -1.49857 0
M  V30 2305 N 218.759 1.29093 0.90403 0
M  V30 2306 C 219.987 1.19689 1.68766 0
M  V30 2307 C 220.402 -0.243113 1.87228 0
M  V30 2308 O 219.759 -1.16326 1.40621 0
M  V30 2309 C 219.81 1.90144 3.07453 0
M  V30 2310 O 219.531 3.2852 2.89838 0
M  V30 2311 C 221.032 1.87162 4.01852 0
M  V30 2312 H 218.252 0.415035 0.527244 0
M  V30 2313 H 220.796 1.7039 1.13082 0
M  V30 2314 H 218.951 1.43289 3.59926 0
M  V30 2315 H 219.365 3.63944 3.77684 0
M  V30 2316 H 220.839 2.41032 4.96596 0
M  V30 2317 H 221.316 0.84617 4.30972 0
M  V30 2318 H 221.922 2.33741 3.5531 0
M  V30 2319 N 220.237 -1.11381 1.11499 0
M  V30 2320 C 221.2 -2.15622 0.777153 0
M  V30 2321 C 222.2 -1.59504 -0.203779 0
M  V30 2322 O 223.39 -1.74188 0.020782 0
M  V30 2323 C 220.522 -3.40556 0.153116 0
M  V30 2324 H 221.715 -2.47021 1.70061 0
M  V30 2325 H 219.268 -1.26577 0.916952 0
M  V30 2326 H 220.003 -3.14767 -0.780536 0
M  V30 2327 H 219.788 -3.8257 0.859238 0
M  V30 2328 H 221.278 -4.17546 -0.0671044 0
M  V30 2329 N 221.715 -0.905404 -1.28997 0
M  V30 2330 C 222.678 -0.392253 -2.25819 0
M  V30 2331 C 223.678 0.476753 -1.5357 0
M  V30 2332 O 224.868 0.280994 -1.71919 0
M  V30 2333 C 222 0.438588 -3.38067 0
M  V30 2334 H 223.193 -1.24743 -2.72725 0
M  V30 2335 H 220.746 -0.684051 -1.40536 0
M  V30 2336 H 221.481 1.31352 -2.96508 0
M  V30 2337 H 221.266 -0.184167 -3.91667 0
M  V30 2338 H 222.756 0.78873 -4.10084 0
M  V30 2339 N 223.193 1.4272 -0.668489 0
M  V30 2340 C 224.47 1.95248 -0.117373 0
M  V30 2341 C 224.85 1.60919 1.36632 0
M  V30 2342 O 224.198 0.902095 2.09939 0
M  V30 2343 C 224.408 3.46927 -0.379806 0
M  V30 2344 C 225.756 4.23588 -0.292923 0
M  V30 2345 O 226.78 3.5482 -0.313204 0
M  V30 2346 O 225.639 5.46017 -0.229697 0
M  V30 2347 H 222.733 0.827 0.00079152 0
M  V30 2348 H 225.279 1.52581 -0.742783 0
M  V30 2349 H 224.051 3.65096 -1.40786 0
M  V30 2350 H 223.674 3.96627 0.277923 0
M  V30 2351 N 224.671 0.411399 1.52136 0
M  V30 2352 C 225.618 -0.412975 2.27075 0
M  V30 2353 C 226.588 -1.03912 1.29582 0
M  V30 2354 O 227.773 -1.06296 1.58448 0
M  V30 2355 C 224.913 -1.52247 3.09701 0
M  V30 2356 C 224.026 -0.917021 4.22155 0
M  V30 2357 C 223.161 -1.9994 4.92135 0
M  V30 2358 C 222.2 -1.37101 5.96548 0
M  V30 2359 N 221.337 -2.39364 6.60038 0
M  V30 2360 H 226.177 0.232499 2.97092 0
M  V30 2361 H 223.714 0.126496 1.46555 0
M  V30 2362 H 225.672 -2.17674 3.55913 0
M  V30 2363 H 224.302 -2.13794 2.41851 0
M  V30 2364 H 223.354 -0.151742 3.80097 0
M  V30 2365 H 224.666 -0.418006 4.97045 0
M  V30 2366 H 223.82 -2.73088 5.41763 0
M  V30 2367 H 222.559 -2.53208 4.16818 0
M  V30 2368 H 221.564 -0.624873 5.46237 0
M  V30 2369 H 222.789 -0.845998 6.7381 0
M  V30 2370 H 220.735 -2.91759 5.87548 0
M  V30 2371 H 220.652 -1.9428 7.3061 0
M  V30 2372 H 221.92 -3.12074 7.14304 0
M  V30 2373 N 226.149 -1.5696 0.141893 0
M  V30 2374 C 227.096 -2.16501 -0.799737 0
M  V30 2375 C 228.066 -1.09643 -1.24771 0
M  V30 2376 O 229.251 -1.3766 -1.32115 0
M  V30 2377 C 226.391 -2.78679 -2.03549 0
M  V30 2378 C 225.504 -3.99914 -1.6338 0
M  V30 2379 C 224.639 -4.50106 -2.82096 0
M  V30 2380 C 223.678 -5.63819 -2.38275 0
M  V30 2381 N 222.815 -6.08651 -3.49983 0
M  V30 2382 H 227.655 -2.96632 -0.285179 0
M  V30 2383 H 225.192 -1.46533 -0.129053 0
M  V30 2384 H 227.15 -3.1287 -2.75986 0
M  V30 2385 H 225.78 -2.012 -2.52425 0
M  V30 2386 H 224.832 -3.71735 -0.807279 0
M  V30 2387 H 226.144 -4.82311 -1.27192 0
M  V30 2388 H 225.298 -4.86325 -3.62729 0
M  V30 2389 H 224.037 -3.66706 -3.21525 0
M  V30 2390 H 223.042 -5.2718 -1.56081 0
M  V30 2391 H 224.267 -6.49 -1.99938 0
M  V30 2392 H 222.213 -5.28188 -3.89042 0
M  V30 2393 H 222.13 -6.85961 -3.17794 0
M  V30 2394 H 223.398 -6.49515 -4.30988 0
M  V30 2395 N 227.627 0.131896 -1.57047 0
M  V30 2396 C 228.855 0.856461 -1.88341 0
M  V30 2397 C 229.27 1.74042 -0.731757 0
M  V30 2398 O 228.627 1.80051 0.297945 0
M  V30 2399 C 228.678 1.70064 -3.18999 0
M  V30 2400 O 228.399 0.852278 -4.2973 0
M  V30 2401 C 229.9 2.53148 -3.63911 0
M  V30 2402 H 227.12 0.246885 -0.62393 0
M  V30 2403 H 229.664 0.120152 -2.04147 0
M  V30 2404 H 227.819 2.38984 -3.04902 0
M  V30 2405 H 228.233 1.43329 -5.04537 0
M  V30 2406 H 229.707 3.07931 -4.58129 0
M  V30 2407 H 230.184 3.29901 -2.89935 0
M  V30 2408 H 230.79 1.89492 -3.80753 0
M  V30 2409 N 229.106 1.52395 0.401703 0
M  V30 2410 C 230.069 1.75636 1.47257 0
M  V30 2411 C 231.069 0.62628 1.48103 0
M  V30 2412 O 232.259 0.894227 1.49497 0
M  V30 2413 C 229.391 1.84553 2.86624 0
M  V30 2414 H 230.584 2.71241 1.27938 0
M  V30 2415 H 228.137 1.42923 0.632662 0
M  V30 2416 H 228.872 0.908882 3.11303 0
M  V30 2417 H 228.657 2.66715 2.87412 0
M  V30 2418 H 230.147 2.04251 3.64241 0
M  V30 2419 N 230.584 -0.659388 1.43143 0
M  V30 2420 C 231.83 -1.42145 1.44647 0
M  V30 2421 C 232.163 -1.9408 0.0681907 0
M  V30 2422 O 231.438 -1.71899 -0.910007 0
M  V30 2423 C 231.721 -2.60735 2.48373 0
M  V30 2424 C 231.574 -2.14332 3.95451 0
M  V30 2425 C 232.893 -3.62951 2.48906 0
M  V30 2426 H 230.012 -0.51552 0.526696 0
M  V30 2427 H 232.654 -0.748069 1.74654 0
M  V30 2428 H 230.804 -3.18184 2.22916 0
M  V30 2429 H 232.476 -1.61932 4.31944 0
M  V30 2430 H 230.719 -1.4576 4.08578 0
M  V30 2431 H 231.39 -2.99583 4.63631 0
M  V30 2432 H 233.866 -3.1525 2.71582 0
M  V30 2433 H 232.742 -4.43487 3.23435 0
M  V30 2434 H 233.003 -4.15126 1.52061 0
M  V30 2435 N 232.062 -1.29571 -0.897171 0
M  V30 2436 C 233.339 -1.08365 -1.62839 0
M  V30 2437 C 233.719 0.371331 -2.07808 0
M  V30 2438 O 233.067 1.3606 -1.83576 0
M  V30 2439 C 233.277 -2.0735 -2.80726 0
M  V30 2440 C 234.625 -2.38406 -3.51351 0
M  V30 2441 O 235.649 -2.05564 -2.90898 0
M  V30 2442 O 234.508 -2.9453 -4.60341 0
M  V30 2443 H 231.602 -0.415345 -0.715134 0
M  V30 2444 H 234.148 -1.40952 -0.945018 0
M  V30 2445 H 232.92 -3.05339 -2.44711 0
M  V30 2446 H 232.543 -1.75507 -3.56767 0
M  V30 2447 N 233.54 1.10788 -1.12088 0
M  V30 2448 C 234.473 2.16237 -0.729168 0
M  V30 2449 C 235.451 1.60207 0.277921 0
M  V30 2450 O 236.635 1.87707 0.172737 0
M  V30 2451 C 233.762 3.38609 -0.0786848 0
M  V30 2452 C 232.808 4.13322 -1.05201 0
M  V30 2453 S 233.641 4.69371 -2.57781 0
M  V30 2454 C 234.797 5.95058 -1.94053 0
M  V30 2455 H 235.03 2.4913 -1.62239 0
M  V30 2456 H 232.563 1.22519 -0.939603 0
M  V30 2457 H 234.521 4.09473 0.290254 0
M  V30 2458 H 233.182 3.03962 0.791593 0
M  V30 2459 H 232.375 5.01051 -0.544433 0
M  V30 2460 H 231.977 3.48251 -1.36371 0
M  V30 2461 H 234.269 6.65278 -1.28107 0
M  V30 2462 H 235.212 6.50472 -2.79807 0
M  V30 2463 H 235.62 5.46918 -1.39787 0
M  V30 2464 N 235.018 0.912232 1.28515 0
M  V30 2465 C 236.243 0.559774 1.99703 0
M  V30 2466 C 236.668 -0.851393 1.67729 0
M  V30 2467 O 236.026 -1.56875 0.908834 0
M  V30 2468 C 236.074 0.773874 3.52198 0
M  V30 2469 O 235.178 -0.167842 4.12058 0
M  V30 2470 H 234.519 0.21723 0.627461 0
M  V30 2471 H 237.049 1.22725 1.63706 0
M  V30 2472 H 237.059 0.683386 4.02236 0
M  V30 2473 H 235.734 1.80261 3.74805 0
M  V30 2474 H 234.311 -0.0287509 3.72889 0
M  V30 2475 N 236.496 -1.42363 0.676048 0
M  V30 2476 C 237.744 -2.01123 0.198437 0
M  V30 2477 C 238.065 -1.53731 -1.19966 0
M  V30 2478 O 237.335 -0.759518 -1.80577 0
M  V30 2479 H 235.915 -0.743678 0.0703721 0
M  V30 2480 H 238.577 -1.74263 0.872837 0
M  V30 2481 H 237.673 -3.11454 0.200686 0
M  V30 2482 N 237.974 -0.419461 -1.51915 0
M  V30 2483 C 239.222 0.152637 -2.01523 0
M  V30 2484 C 239.543 1.44762 -1.30649 0
M  V30 2485 O 238.813 1.90997 -0.435535 0
M  V30 2486 H 237.393 0.0593966 -0.744635 0
M  V30 2487 H 240.055 -0.558073 -1.86739 0
M  V30 2488 H 239.151 0.341369 -3.10227 0
M  V30 2489 N 239.452 1.56882 -0.150215 0
M  V30 2490 C 240.68 2.00593 0.506948 0
M  V30 2491 C 241.095 1.03033 1.58208 0
M  V30 2492 O 240.452 0.0278396 1.82479 0
M  V30 2493 C 240.503 3.44209 1.10465 0
M  V30 2494 O 240.224 4.3804 0.0724636 0
M  V30 2495 C 241.725 4.03214 1.84211 0
M  V30 2496 H 238.945 0.65795 0.13169 0
M  V30 2497 H 241.489 2.03018 -0.245743 0
M  V30 2498 H 239.644 3.42625 1.80795 0
M  V30 2499 H 240.058 5.22007 0.510793 0
M  V30 2500 H 241.532 5.0569 2.21318 0
M  V30 2501 H 242.009 3.44107 2.72923 0
M  V30 2502 H 242.615 4.08437 1.18572 0
M  V30 2503 N 240.93 -0.123565 1.57115 0
M  V30 2504 C 242.176 -0.833386 1.84885 0
M  V30 2505 C 242.509 -1.79742 0.735292 0
M  V30 2506 O 241.784 -1.92764 -0.25925 0
M  V30 2507 C 242.067 -1.5873 3.23228 0
M  V30 2508 C 241.92 -0.643183 4.45178 0
M  V30 2509 C 243.239 -2.54453 3.59085 0
M  V30 2510 H 240.358 -0.301518 0.6725 0
M  V30 2511 H 243 -0.097778 1.89748 0
M  V30 2512 H 241.15 -2.21438 3.19214 0
M  V30 2513 H 242.822 -0.0253015 4.61293 0
M  V30 2514 H 241.065 0.0456139 4.33776 0
M  V30 2515 H 241.736 -1.20724 5.38637 0
M  V30 2516 H 244.212 -2.01853 3.63861 0
M  V30 2517 H 243.088 -3.04238 4.5687 0
M  V30 2518 H 243.349 -3.36906 2.86264 0
M  V30 2519 N 242.408 -1.52605 -0.393616 0
M  V30 2520 C 243.636 -1.71294 -1.16043 0
M  V30 2521 C 244.051 -0.429259 -1.83855 0
M  V30 2522 O 243.408 0.595921 -1.72496 0
M  V30 2523 C 243.459 -2.8593 -2.21193 0
M  V30 2524 O 243.18 -4.09329 -1.56146 0
M  V30 2525 C 244.681 -3.16259 -3.10636 0
M  V30 2526 H 241.901 -0.573641 -0.348104 0
M  V30 2527 H 244.445 -1.99234 -0.461092 0
M  V30 2528 H 242.6 -2.60465 -2.86769 0
M  V30 2529 H 243.014 -4.73323 -2.25978 0
M  V30 2530 H 244.488 -3.99946 -3.80456 0
M  V30 2531 H 244.965 -2.3045 -3.73884 0
M  V30 2532 H 245.571 -3.43547 -2.50711 0
M  V30 2533 N 243.887 0.651787 -1.4349 0
M  V30 2534 C 245.133 1.41376 -1.45398 0
M  V30 2535 C 245.466 1.94041 -0.0784823 0
M  V30 2536 O 244.741 1.72379 0.900878 0
M  V30 2537 C 245.024 2.59414 -2.49752 0
M  V30 2538 C 244.877 2.12232 -3.96582 0
M  V30 2539 C 246.196 3.61626 -2.50827 0
M  V30 2540 H 243.315 0.512719 -0.529422 0
M  V30 2541 H 245.957 0.738796 -1.75048 0
M  V30 2542 H 244.107 3.16997 -2.246 0
M  V30 2543 H 245.779 1.59639 -4.32797 0
M  V30 2544 H 244.022 1.43592 -4.09346 0
M  V30 2545 H 244.693 2.9712 -4.65214 0
M  V30 2546 H 247.169 3.13805 -2.7325 0
M  V30 2547 H 246.045 4.41766 -3.25783 0
M  V30 2548 H 246.306 4.14314 -1.5426 0
M  V30 2549 N 245.365 1.30045 0.890287 0
M  V30 2550 C 246.295 1.18541 2.01172 0
M  V30 2551 C 247.276 0.0773356 1.69924 0
M  V30 2552 O 248.461 0.25845 1.92473 0
M  V30 2553 C 245.591 0.870941 3.36202 0
M  V30 2554 C 244.545 1.93637 3.81692 0
M  V30 2555 C 243.871 1.475 5.13953 0
M  V30 2556 C 245.171 3.34666 4.00994 0
M  V30 2557 H 246.865 2.12359 2.11054 0
M  V30 2558 H 244.411 1.02238 1.01407 0
M  V30 2559 H 246.364 0.777141 4.14172 0
M  V30 2560 H 245.088 -0.102926 3.26438 0
M  V30 2561 H 243.747 2.01972 3.05946 0
M  V30 2562 H 243.395 0.489551 5.00612 0
M  V30 2563 H 243.095 2.1876 5.4536 0
M  V30 2564 H 244.619 1.39489 5.94454 0
M  V30 2565 H 246.033 3.2912 4.69417 0
M  V30 2566 H 244.43 4.03966 4.43769 0
M  V30 2567 H 245.5 3.76949 3.05021 0
M  V30 2568 N 246.843 -1.10192 1.12674 0
M  V30 2569 C 247.753 -2.20172 0.810026 0
M  V30 2570 C 248.769 -1.72821 -0.202188 0
M  V30 2571 O 249.945 -2.01369 -0.0351691 0
M  V30 2572 C 247.01 -3.45631 0.272007 0
M  V30 2573 C 246.071 -4.07704 1.34447 0
M  V30 2574 C 245.304 -5.27175 0.832029 0
M  V30 2575 O 245.527 -5.69425 -0.333284 0
M  V30 2576 O 244.461 -5.80168 1.60277 0
M  V30 2577 H 248.287 -2.49701 1.72867 0
M  V30 2578 H 245.872 -1.18977 0.903597 0
M  V30 2579 H 247.754 -4.21394 -0.0230219 0
M  V30 2580 H 246.429 -3.17723 -0.619164 0
M  V30 2581 H 245.336 -3.33614 1.6927 0
M  V30 2582 H 246.669 -4.3982 2.2095 0
M  V30 2583 N 248.321 -0.919034 -1.28029 0
M  V30 2584 C 249.268 -0.410005 -2.27129 0
M  V30 2585 C 250.238 0.518405 -1.57803 0
M  V30 2586 O 251.423 0.439451 -1.8567 0
M  V30 2587 C 248.563 0.339054 -3.4343 0
M  V30 2588 C 247.676 -0.622468 -4.27492 0
M  V30 2589 C 246.811 0.145567 -5.31001 0
M  V30 2590 C 245.85 -0.809226 -6.06727 0
M  V30 2591 N 244.987 -0.0743728 -7.02061 0
M  V30 2592 H 249.827 -1.26011 -2.70047 0
M  V30 2593 H 247.364 -0.632663 -1.328 0
M  V30 2594 H 249.322 0.789586 -4.0966 0
M  V30 2595 H 247.952 1.15346 -3.01488 0
M  V30 2596 H 247.004 -1.19153 -3.61257 0
M  V30 2597 H 248.316 -1.35252 -4.80113 0
M  V30 2598 H 247.47 0.656417 -6.03139 0
M  V30 2599 H 246.209 0.908643 -4.79161 0
M  V30 2600 H 245.214 -1.3314 -5.33436 0
M  V30 2601 H 246.439 -1.57194 -6.60656 0
M  V30 2602 H 244.385 0.670616 -6.52563 0
M  V30 2603 H 244.302 -0.744157 -7.52329 0
M  V30 2604 H 245.57 0.416109 -7.78389 0
M  V30 2605 N 249.799 1.42003 -0.683588 0
M  V30 2606 C 251.045 2.01712 -0.209825 0
M  V30 2607 C 251.378 1.53968 1.18353 0
M  V30 2608 O 250.653 0.745661 1.79639 0
M  V30 2609 C 250.936 3.59202 -0.254197 0
M  V30 2610 C 250.789 4.17102 -1.68363 0
M  V30 2611 C 252.108 4.38344 0.392709 0
M  V30 2612 H 249.227 0.732891 -0.0777189 0
M  V30 2613 H 251.869 1.68909 -0.87004 0
M  V30 2614 H 250.019 3.87278 0.307954 0
M  V30 2615 H 251.691 3.99946 -2.29871 0
M  V30 2616 H 249.934 3.72597 -2.22157 0
M  V30 2617 H 250.605 5.26249 -1.6663 0
M  V30 2618 H 253.081 4.16011 -0.0859162 0
M  V30 2619 H 251.957 5.47901 0.331063 0
M  V30 2620 H 252.218 4.16887 1.47164 0
M  V30 2621 N 251.277 0.427512 1.51691 0
M  V30 2622 C 252.688 -0.0378867 1.86662 0
M  V30 2623 C 253.039 -1.42819 1.34525 0
M  V30 2624 O 252.164 -2.05037 0.692014 0
M  V30 2625 C 252.759 -0.0755266 3.38716 0
M  V30 2626 C 251.318 -0.485309 3.73258 0
M  V30 2627 C 250.465 0.328399 2.75349 0
M  V30 2628 H 253.416 0.64379 1.45055 0
M  V30 2629 H 253.437 -0.887056 3.70016 0
M  V30 2630 H 252.949 0.936487 3.76632 0
M  V30 2631 H 251.05 -1.50329 3.40928 0
M  V30 2632 H 251.163 -0.21693 4.78609 0
M  V30 2633 H 249.527 -0.211905 2.53817 0
M  V30 2634 H 250.31 1.3391 3.16106 0
M  V30 2635 N 252.755 -1.56801 0.158532 0
M  V30 2636 C 254.001 -1.96781 -0.490405 0
M  V30 2637 C 254.334 -1.04397 -1.63753 0
M  V30 2638 O 253.609 -0.0885805 -1.94298 0
M  V30 2639 C 253.892 -3.4635 -0.985594 0
M  V30 2640 C 253.745 -4.49512 0.160824 0
M  V30 2641 C 255.064 -3.98697 -1.86355 0
M  V30 2642 H 252.183 -0.715482 -0.176788 0
M  V30 2643 H 254.825 -1.88451 0.242088 0
M  V30 2644 H 252.975 -3.53579 -1.60978 0
M  V30 2645 H 254.647 -4.54353 0.797537 0
M  V30 2646 H 252.89 -4.26013 0.818256 0
M  V30 2647 H 253.561 -5.51531 -0.227569 0
M  V30 2648 H 256.037 -3.94019 -1.33746 0
M  V30 2649 H 254.913 -5.03792 -2.17909 0
M  V30 2650 H 255.174 -3.41744 -2.8047 0
M  V30 2651 N 254.233 0.115231 -1.57178 0
M  V30 2652 C 255.458 0.840354 -1.89612 0
M  V30 2653 C 255.883 1.72464 -0.750845 0
M  V30 2654 O 255.241 1.78826 0.298478 0
M  V30 2655 C 255.289 1.64654 -3.20814 0
M  V30 2656 O 254.393 2.7538 -3.06985 0
M  V30 2657 H 253.734 0.232158 -0.622092 0
M  V30 2658 H 256.264 0.0964977 -2.04372 0
M  V30 2659 H 256.274 2.03499 -3.53627 0
M  V30 2660 H 254.949 0.997416 -4.03763 0
M  V30 2661 H 253.526 2.3971 -2.85646 0
M  V30 2662 N 255.711 1.52812 0.385517 0
M  V30 2663 C 256.658 1.77838 1.47113 0
M  V30 2664 C 257.628 0.621757 1.54024 0
M  V30 2665 O 258.813 0.861846 1.70226 0
M  V30 2666 C 255.953 1.95618 2.84302 0
M  V30 2667 C 255.066 3.23316 2.86515 0
M  V30 2668 C 254.201 3.31394 4.15152 0
M  V30 2669 C 253.24 4.53201 4.1143 0
M  V30 2670 N 252.377 4.58542 5.3168 0
M  V30 2671 H 257.217 2.70482 1.25073 0
M  V30 2672 H 254.754 1.34006 0.606692 0
M  V30 2673 H 256.712 2.03912 3.63972 0
M  V30 2674 H 255.342 1.06331 3.04784 0
M  V30 2675 H 254.394 3.24076 1.99195 0
M  V30 2676 H 255.706 4.13045 2.79634 0
M  V30 2677 H 254.86 3.3889 5.03228 0
M  V30 2678 H 253.599 2.39645 4.24761 0
M  V30 2679 H 252.604 4.45827 3.21742 0
M  V30 2680 H 253.829 5.46271 4.03442 0
M  V30 2681 H 251.775 3.69686 5.41912 0
M  V30 2682 H 251.692 5.42148 5.26889 0
M  V30 2683 H 252.96 4.70296 6.21644 0
M  V30 2684 N 257.189 -0.644168 1.43834 0
M  V30 2685 C 258.437 -1.40117 1.45642 0
M  V30 2686 C 258.758 -1.94814 0.0852413 0
M  V30 2687 O 258.028 -1.74988 -0.880688 0
M  V30 2688 H 256.608 -0.52005 0.536243 0
M  V30 2689 H 259.27 -0.7591 1.7951 0
M  V30 2690 H 258.366 -2.23902 2.17427 0
M  V30 2691 N 258.668 -1.30515 -0.883378 0
M  V30 2692 C 259.6 -1.12846 -1.99496 0
M  V30 2693 C 260.613 -0.0712571 -1.62644 0
M  V30 2694 O 261.802 -0.317432 -1.75655 0
M  V30 2695 C 258.902 -0.699123 -3.3161 0
M  V30 2696 C 258.075 -1.83842 -3.96889 0
M  V30 2697 C 257.134 -1.39737 -5.07307 0
M  V30 2698 O 256.16 -2.10485 -5.28852 0
M  V30 2699 N 257.362 -0.277279 -5.79837 0
M  V30 2700 H 260.127 -2.08585 -2.15203 0
M  V30 2701 H 257.688 -1.22672 -1.05656 0
M  V30 2702 H 259.68 -0.387044 -4.02845 0
M  V30 2703 H 258.25 0.166276 -3.12157 0
M  V30 2704 H 257.47 -2.31853 -3.18807 0
M  V30 2705 H 258.758 -2.60187 -4.37241 0
M  V30 2706 H 258.156 0.3122 -5.64838 0
M  V30 2707 H 256.713 -0.0246623 -6.51795 0
M  V30 2708 N 260.146 1.09593 -1.13257 0
M  V30 2709 C 261.076 2.18214 -0.830946 0
M  V30 2710 C 262.057 1.68812 0.208966 0
M  V30 2711 O 263.242 1.9408 0.0682666 0
M  V30 2712 C 260.372 3.46051 -0.294296 0
M  V30 2713 C 259.326 4.08778 -1.26826 0
M  V30 2714 C 258.652 5.31419 -0.591449 0
M  V30 2715 C 259.952 4.51476 -2.62615 0
M  V30 2716 H 261.646 2.43703 -1.73923 0
M  V30 2717 H 259.192 1.17128 -0.837675 0
M  V30 2718 H 261.145 4.2134 -0.0709606 0
M  V30 2719 H 259.869 3.20079 0.649366 0
M  V30 2720 H 258.528 3.35505 -1.47756 0
M  V30 2721 H 258.176 5.01727 0.357633 0
M  V30 2722 H 257.876 5.74341 -1.24123 0
M  V30 2723 H 259.4 6.09433 -0.377355 0
M  V30 2724 H 260.814 5.17999 -2.45663 0
M  V30 2725 H 259.211 5.05277 -3.23752 0
M  V30 2726 H 260.281 3.63962 -3.20406 0
M  V30 2727 N 261.624 0.925811 1.2754 0
M  V30 2728 C 262.571 0.422045 2.26908 0
M  V30 2729 C 263.541 -0.510029 1.58076 0
M  V30 2730 O 264.726 -0.429599 1.85901 0
M  V30 2731 C 261.866 -0.320837 3.43605 0
M  V30 2732 C 260.979 0.64513 4.27156 0
M  V30 2733 C 260.114 -0.117405 5.3107 0
M  V30 2734 C 259.153 0.841391 6.0629 0
M  V30 2735 N 258.29 0.111604 7.02011 0
M  V30 2736 H 263.13 1.27441 2.69375 0
M  V30 2737 H 260.667 0.639697 1.32462 0
M  V30 2738 H 262.625 -0.76785 4.10073 0
M  V30 2739 H 261.255 -1.13745 3.02096 0
M  V30 2740 H 260.307 1.21067 3.6062 0
M  V30 2741 H 261.619 1.37797 4.79389 0
M  V30 2742 H 260.773 -0.624422 6.03478 0
M  V30 2743 H 259.512 -0.883219 4.79636 0
M  V30 2744 H 258.517 1.35967 5.32722 0
M  V30 2745 H 259.742 1.60696 6.59813 0
M  V30 2746 H 257.688 -0.635999 6.5291 0
M  V30 2747 H 257.605 0.784044 7.51923 0
M  V30 2748 H 258.873 -0.374823 7.78598 0
M  V30 2749 N 263.102 -1.41638 0.69111 0
M  V30 2750 C 264.034 -2.29194 -0.0161523 0
M  V30 2751 C 265.047 -1.44549 -0.748955 0
M  V30 2752 O 266.236 -1.681 -0.6004 0
M  V30 2753 C 263.336 -3.22325 -1.0469 0
M  V30 2754 C 262.509 -4.35706 -0.384621 0
M  V30 2755 C 261.568 -5.09443 -1.31737 0
M  V30 2756 O 260.594 -5.63386 -0.811451 0
M  V30 2757 N 261.796 -5.16487 -2.64993 0
M  V30 2758 H 264.561 -2.90534 0.735523 0
M  V30 2759 H 262.122 -1.52742 0.53679 0
M  V30 2760 H 264.114 -3.68522 -1.67252 0
M  V30 2761 H 262.684 -2.62323 -1.70015 0
M  V30 2762 H 261.904 -3.91948 0.420804 0
M  V30 2763 H 263.192 -5.08743 0.0760765 0
M  V30 2764 H 262.59 -4.741 -3.08619 0
M  V30 2765 H 261.147 -5.66276 -3.22761 0
M  V30 2766 N 264.58 -0.43555 -1.51462 0
M  V30 2767 C 265.81 0.130053 -2.0619 0
M  V30 2768 C 266.218 1.37164 -1.30317 0
M  V30 2769 O 265.561 1.80225 -0.355598 0
M  V30 2770 C 265.623 0.519418 -3.55728 0
M  V30 2771 C 265.287 -0.615119 -4.52841 0
M  V30 2772 C 266.284 -1.48671 -4.9819 0
M  V30 2773 C 263.969 -0.795341 -4.95963 0
M  V30 2774 C 265.963 -2.52324 -5.8533 0
M  V30 2775 C 263.65 -1.83514 -5.82894 0
M  V30 2776 C 264.648 -2.69748 -6.27475 0
M  V30 2777 O 264.336 -3.71944 -7.1268 0
M  V30 2778 H 264.068 0.0121612 -0.675891 0
M  V30 2779 H 266.622 -0.6129 -1.96043 0
M  V30 2780 H 264.852 1.31505 -3.63653 0
M  V30 2781 H 266.541 1.01597 -3.92979 0
M  V30 2782 H 267.307 -1.359 -4.65571 0
M  V30 2783 H 263.186 -0.133713 -4.60806 0
M  V30 2784 H 266.73 -3.19665 -6.20048 0
M  V30 2785 H 262.627 -1.96306 -6.14926 0
M  V30 2786 H 263.395 -3.68503 -7.30854 0
M  V30 2787 N 266.058 1.56714 -0.166846 0
M  V30 2788 C 267.305 1.96747 0.479252 0
M  V30 2789 C 267.633 1.05263 1.63554 0
M  V30 2790 O 266.888 0.0858098 1.95512 0
M  V30 2791 C 267.187 3.42889 1.00806 0
M  V30 2792 C 266.853 4.50889 -0.0318574 0
M  V30 2793 C 265.515 4.8015 -0.317675 0
M  V30 2794 C 267.867 5.15949 -0.737956 0
M  V30 2795 C 265.195 5.71772 -1.31506 0
M  V30 2796 C 267.547 6.08647 -1.72429 0
M  V30 2797 C 266.211 6.36277 -2.0176 0
M  V30 2798 H 265.481 0.719949 0.175371 0
M  V30 2799 H 268.128 1.89756 -0.257864 0
M  V30 2800 H 266.433 3.4681 1.82291 0
M  V30 2801 H 268.13 3.71203 1.51689 0
M  V30 2802 H 264.72 4.28128 0.201088 0
M  V30 2803 H 268.904 4.93458 -0.530351 0
M  V30 2804 H 264.16 5.91465 -1.54853 0
M  V30 2805 H 268.334 6.58129 -2.27682 0
M  V30 2806 H 265.961 7.07075 -2.79194 0
M  V30 2807 N 267.536 -0.106894 1.57237 0
M  V30 2808 C 268.766 -0.825191 1.89405 0
M  V30 2809 C 269.174 -1.73374 0.757496 0
M  V30 2810 O 268.517 -1.81552 -0.280115 0
M  V30 2811 C 268.579 -1.70102 3.1671 0
M  V30 2812 C 268.243 -0.965523 4.46684 0
M  V30 2813 C 269.24 -0.300741 5.19029 0
M  V30 2814 C 266.925 -0.943105 4.93367 0
M  V30 2815 C 268.919 0.376622 6.36286 0
M  V30 2816 C 266.606 -0.261949 6.10538 0
M  V30 2817 C 267.604 0.396748 6.81847 0
M  V30 2818 O 267.292 1.06701 7.96787 0
M  V30 2819 H 267.024 -0.241852 0.631255 0
M  V30 2820 H 269.578 -0.0921491 2.05193 0
M  V30 2821 H 267.808 -2.47601 2.97036 0
M  V30 2822 H 269.497 -2.29483 3.34802 0
M  V30 2823 H 270.263 -0.309599 4.84011 0
M  V30 2824 H 266.142 -1.44524 4.3776 0
M  V30 2825 H 269.686 0.891334 6.91882 0
M  V30 2826 H 265.583 -0.250896 6.45012 0
M  V30 2827 H 266.351 0.972707 8.127 0
M  V30 2828 N 269.014 -1.53014 -0.377408 0
M  V30 2829 C 269.924 -1.81557 -1.48574 0
M  V30 2830 C 270.94 -0.703102 -1.59162 0
M  V30 2831 O 272.116 -0.99192 -1.75279 0
M  V30 2832 C 269.181 -1.9889 -2.83978 0
M  V30 2833 C 268.242 -3.22801 -2.83016 0
M  V30 2834 C 267.475 -3.39298 -4.11962 0
M  V30 2835 O 267.698 -2.60345 -5.0752 0
M  V30 2836 O 266.632 -4.32604 -4.18494 0
M  V30 2837 H 270.458 -2.75695 -1.27382 0
M  V30 2838 H 268.043 -1.38248 -0.566373 0
M  V30 2839 H 269.925 -2.11931 -3.6423 0
M  V30 2840 H 268.6 -1.07942 -3.05172 0
M  V30 2841 H 267.507 -3.15193 -2.01505 0
M  V30 2842 H 268.84 -4.13632 -2.66775 0
M  V30 2843 N 270.492 0.636531 -1.44174 0
M  V30 2844 C 271.72 1.42353 -1.50144 0
M  V30 2845 C 272.135 1.88389 -0.124575 0
M  V30 2846 O 271.492 1.6051 0.868489 0
M  V30 2847 C 271.543 2.64744 -2.46156 0
M  V30 2848 O 271.264 2.20629 -3.7849 0
M  V30 2849 C 272.765 3.57929 -2.61537 0
M  V30 2850 H 269.985 0.436752 -0.5094 0
M  V30 2851 H 272.529 0.778933 -1.89084 0
M  V30 2852 H 270.684 3.25307 -2.10366 0
M  V30 2853 H 271.098 2.99938 -4.30276 0
M  V30 2854 H 272.572 4.40428 -3.32757 0
M  V30 2855 H 273.049 4.06382 -1.66585 0
M  V30 2856 H 273.655 3.03238 -2.98206 0
M  V30 2857 N 271.97 1.30982 0.876444 0
M  V30 2858 C 272.917 1.18085 1.98304 0
M  V30 2859 C 273.887 0.0682263 1.6596 0
M  V30 2860 O 275.072 0.239937 1.89285 0
M  V30 2861 C 272.212 0.887475 3.33493 0
M  V30 2862 C 271.325 2.08281 3.78475 0
M  V30 2863 C 270.46 1.72678 5.0235 0
M  V30 2864 C 269.499 2.88657 5.39762 0
M  V30 2865 N 268.636 2.53292 6.54819 0
M  V30 2866 H 273.476 2.1275 2.08666 0
M  V30 2867 H 271.013 1.05839 1.02159 0
M  V30 2868 H 272.971 0.697961 4.1132 0
M  V30 2869 H 271.601 -0.022315 3.22792 0
M  V30 2870 H 270.653 2.3833 2.96484 0
M  V30 2871 H 271.965 2.95108 4.02135 0
M  V30 2872 H 271.119 1.50151 5.87826 0
M  V30 2873 H 269.858 0.830327 4.8058 0
M  V30 2874 H 268.863 3.1184 4.52809 0
M  V30 2875 H 270.088 3.79002 5.63502 0
M  V30 2876 H 268.034 1.66163 6.34607 0
M  V30 2877 H 267.951 3.3365 6.7839 0
M  V30 2878 H 269.219 2.34143 7.43503 0
M  V30 2879 N 273.449 -1.08991 1.13837 0
M  V30 2880 C 274.689 -1.82867 0.913183 0
M  V30 2881 C 275.053 -1.83936 -0.550604 0
M  V30 2882 O 276.254 -2.53515 -0.893515 0
M  V30 2883 C 274.525 -3.24843 1.49036 0
M  V30 2884 S 276.084 -4.15669 1.40588 0
M  V30 2885 H 272.902 -0.630278 0.329046 0
M  V30 2886 H 275.504 -1.31049 1.45073 0
M  V30 2887 H 274.208 -3.21644 2.54899 0
M  V30 2888 H 273.739 -3.81734 0.950947 0
M  V30 2889 H 275.754 -4.94686 0.387353 0
M  V30 2890 N 274.927 -0.932562 -1.27047 0
M  V30 2891 C 275.875 -0.42603 -2.28665 0
M  V30 2892 C 276.869 0.49219 -1.62092 0
M  V30 2893 O 278.075 0.371355 -1.76128 0
M  V30 2894 H 274.45 -0.119213 -0.742491 0
M  V30 2895 H 276.421 -1.29579 -2.68797 0
M  V30 2896 C 275.17 0.301426 -3.46391 0
M  V30 2897 H 274.493 -0.39595 -3.97834 0
M  V30 2898 H 275.933 0.6202 -4.1944 0
M  V30 2899 C 274.392 1.51616 -3.00856 0
M  V30 2900 O 274.922 2.61476 -3.04948 0
M  V30 2901 N 273.128 1.36969 -2.56296 0
M  V30 2902 H 272.675 0.475873 -2.53166 0
M  V30 2903 H 272.633 2.18368 -2.26192 0
M  V30 2904 N 276.405 1.4127 -0.698611 0
M  V30 2905 C 277.816 1.84187 -0.305289 0
M  V30 2906 C 278.167 1.58449 1.15708 0
M  V30 2907 O 277.292 1.05651 1.88856 0
M  V30 2908 C 277.887 3.3435 -0.547314 0
M  V30 2909 C 276.446 3.75826 -0.207878 0
M  V30 2910 C 275.593 2.64647 -0.828099 0
M  V30 2911 H 278.544 1.30778 -0.89904 0
M  V30 2912 H 278.565 3.8001 0.192998 0
M  V30 2913 H 278.077 3.53051 -1.61172 0
M  V30 2914 H 276.178 3.62725 0.852143 0
M  V30 2915 H 276.291 4.74462 -0.665021 0
M  V30 2916 H 274.655 2.53395 -0.257458 0
M  V30 2917 H 275.438 2.86165 -1.89643 0
M  V30 2918 N 277.883 0.443576 1.51229 0
M  V30 2919 C 278.816 -0.410089 2.24485 0
M  V30 2920 C 279.794 -1.01949 1.26669 0
M  V30 2921 O 280.978 -1.06075 1.55821 0
M  V30 2922 C 278.105 -1.57211 3.00004 0
M  V30 2923 C 277.151 -1.08279 4.12526 0
M  V30 2924 S 277.984 -0.0197476 5.35496 0
M  V30 2925 C 279.14 -1.18629 6.14555 0
M  V30 2926 H 279.373 0.211832 2.96544 0
M  V30 2927 H 276.906 0.228156 1.52705 0
M  V30 2928 H 278.864 -2.23825 3.44111 0
M  V30 2929 H 277.525 -2.16547 2.27522 0
M  V30 2930 H 276.718 -1.95193 4.64667 0
M  V30 2931 H 276.32 -0.494797 3.70713 0
M  V30 2932 H 278.612 -2.10344 6.4402 0
M  V30 2933 H 279.555 -0.70472 7.04584 0
M  V30 2934 H 279.963 -1.42768 5.46148 0
M  V30 2935 N 279.361 -1.56624 0.175154 0
M  V30 2936 C 280.609 -1.96609 -0.467885 0
M  V30 2937 C 280.93 -1.06238 -1.63519 0
M  V30 2938 O 280.2 -0.129523 -1.95471 0
M  V30 2939 H 278.78 -0.726008 -0.175845 0
M  V30 2940 H 281.442 -1.93195 0.257234 0
M  V30 2941 H 280.538 -3.00989 -0.825342 0
M  V30 2942 N 280.839 0.0985539 -1.57292 0
M  V30 2943 C 282.069 0.815135 -1.8984 0
M  V30 2944 C 282.477 1.7297 -0.766679 0
M  V30 2945 O 281.82 1.81698 0.270483 0
M  V30 2946 C 281.882 1.6842 -3.17608 0
M  V30 2947 C 281.546 0.94182 -4.4719 0
M  V30 2948 C 282.543 0.273212 -5.19182 0
M  V30 2949 C 280.228 0.916927 -4.9386 0
M  V30 2950 C 282.222 -0.410361 -6.36078 0
M  V30 2951 C 279.909 0.229567 -6.10669 0
M  V30 2952 C 280.907 -0.432902 -6.81627 0
M  V30 2953 O 280.595 -1.10925 -7.9621 0
M  V30 2954 H 280.327 0.238501 -0.632529 0
M  V30 2955 H 282.881 0.0812659 -2.05239 0
M  V30 2956 H 281.111 2.46022 -2.98345 0
M  V30 2957 H 282.8 2.27704 -3.36015 0
M  V30 2958 H 283.566 0.283927 -4.84168 0
M  V30 2959 H 279.445 1.42201 -4.3852 0
M  V30 2960 H 282.989 -0.928013 -6.914 0
M  V30 2961 H 278.886 0.216686 -6.45136 0
M  V30 2962 H 279.654 -1.01579 -8.12172 0
M  V30 2963 N 282.317 1.53212 0.369288 0
M  V30 2964 C 283.545 1.73119 1.13303 0
M  V30 2965 C 283.96 0.458455 1.83149 0
M  V30 2966 O 283.317 -0.568403 1.73423 0
M  V30 2967 C 283.368 2.89413 2.16616 0
M  V30 2968 O 283.089 4.11761 1.49614 0
M  V30 2969 C 284.59 3.21161 3.05566 0
M  V30 2970 H 281.81 0.579107 0.338934 0
M  V30 2971 H 284.354 1.99942 0.429338 0
M  V30 2972 H 282.509 2.64994 2.82589 0
M  V30 2973 H 282.923 4.76858 2.18419 0
M  V30 2974 H 284.397 4.05949 3.74045 0
M  V30 2975 H 284.874 2.36369 3.70171 0
M  V30 2976 H 285.48 3.47492 2.45213 0
M  V30 2977 N 283.795 -0.628877 1.44509 0
M  V30 2978 C 284.742 -1.74074 1.51549 0
M  V30 2979 C 285.712 -1.62084 0.363021 0
M  V30 2980 O 286.897 -1.81975 0.573567 0
M  V30 2981 C 284.037 -3.12328 1.46784 0
M  V30 2982 C 283.15 -3.35277 2.72422 0
M  V30 2983 C 282.285 -4.63515 2.59475 0
M  V30 2984 C 281.324 -4.7965 3.80266 0
M  V30 2985 N 280.461 -5.99168 3.65981 0
M  V30 2986 H 285.301 -1.67392 2.46544 0
M  V30 2987 H 282.838 -0.816527 1.22357 0
M  V30 2988 H 284.796 -3.92286 1.42012 0
M  V30 2989 H 283.426 -3.18018 0.553544 0
M  V30 2990 H 282.478 -2.49242 2.87372 0
M  V30 2991 H 283.79 -3.43078 3.62076 0
M  V30 2992 H 282.944 -5.51638 2.52548 0
M  V30 2993 H 281.683 -4.58076 1.67384 0
M  V30 2994 H 280.688 -3.89957 3.87574 0
M  V30 2995 H 281.913 -4.86902 4.73395 0
M  V30 2996 H 279.859 -5.94814 2.76644 0
M  V30 2997 H 279.776 -6.08035 4.49254 0
M  V30 2998 H 281.044 -6.89846 3.6295 0
M  V30 2999 N 285.273 -1.31445 -0.869486 0
M  V30 3000 C 286.183 -1.21097 -2.0093 0
M  V30 3001 C 287.199 -0.127584 -1.73532 0
M  V30 3002 O 288.375 -0.345477 -1.98415 0
M  V30 3003 C 285.44 -0.919378 -3.34288 0
M  V30 3004 C 284.501 -2.08971 -3.75006 0
M  V30 3005 C 283.734 -1.81194 -5.02001 0
M  V30 3006 O 283.957 -0.747296 -5.65484 0
M  V30 3007 O 282.891 -2.66883 -5.39497 0
M  V30 3008 H 286.717 -2.16883 -2.12592 0
M  V30 3009 H 284.302 -1.11189 -0.997868 0
M  V30 3010 H 286.184 -0.772625 -4.14257 0
M  V30 3011 H 284.859 0.00844772 -3.23699 0
M  V30 3012 H 283.766 -2.29187 -2.95676 0
M  V30 3013 H 285.099 -2.9998 -3.90221 0
M  V30 3014 N 286.751 1.08385 -1.14413 0
M  V30 3015 C 287.999 1.80419 -0.910679 0
M  V30 3016 C 288.32 1.86658 0.564243 0
M  V30 3017 O 287.59 1.35985 1.41014 0
M  V30 3018 H 286.17 0.668204 -0.333934 0
M  V30 3019 H 288.832 1.31037 -1.44275 0
M  V30 3020 H 287.928 2.83238 -1.31082 0
M  V30 3021 N 288.23 0.939286 1.26551 0
M  V30 3022 C 289.47 0.5933 1.956 0
M  V30 3023 C 289.834 -0.851515 1.72085 0
M  V30 3024 O 291.035 -1.30634 2.34921 0
M  V30 3025 C 289.306 0.923996 3.45249 0
M  V30 3026 S 290.865 0.688269 4.33369 0
M  V30 3027 H 287.683 0.218591 0.676564 0
M  V30 3028 H 290.285 1.2102 1.5354 0
M  V30 3029 H 288.989 1.97297 3.59864 0
M  V30 3030 H 288.52 0.296746 3.92279 0
M  V30 3031 H 290.535 -0.448434 4.9417 0
M  V30 3032 N 289.708 -1.40897 0.706093 0
M  V30 3033 C 291.124 -1.55042 0.37869 0
M  V30 3034 C 291.324 -1.67944 -1.11342 0
M  V30 3035 O 290.38 -1.66372 -1.89938 0
M  V30 3036 C 291.693 -2.78398 1.13643 0
M  V30 3037 C 293.241 -2.92206 1.12181 0
M  V30 3038 C 293.716 -4.18463 1.86152 0
M  V30 3039 N 295.207 -4.25443 1.83173 0
M  V30 3040 C 295.942 -5.2202 2.37239 0
M  V30 3041 N 295.438 -6.24563 2.99821 0
M  V30 3042 N 297.231 -5.14033 2.27435 0
M  V30 3043 H 289.382 -1.30769 1.67372 0
M  V30 3044 H 291.645 -0.631653 0.706907 0
M  V30 3045 H 291.351 -2.7511 2.19106 0
M  V30 3046 H 291.225 -3.70228 0.721853 0
M  V30 3047 H 293.612 -2.95004 0.0754171 0
M  V30 3048 H 293.693 -2.01521 1.57554 0
M  V30 3049 H 293.337 -4.16427 2.90776 0
M  V30 3050 H 293.267 -5.08141 1.38206 0
M  V30 3051 H 295.758 -3.51976 1.37556 0
M  V30 3052 H 296.071 -6.94665 3.38616 0
M  V30 3053 H 294.416 -6.25035 3.03902 0
M  V30 3054 H 297.607 -4.3285 1.78208 0
M  V30 3055 H 297.78 -5.89129 2.69873 0
M  V30 3056 N 291.186 -0.45159 -1.50991 0
M  V30 3057 C 292.434 0.109857 -2.01801 0
M  V30 3058 C 292.755 1.41958 -1.3369 0
M  V30 3059 O 292.025 1.9003 -0.475951 0
M  V30 3060 H 290.605 0.0435884 -0.745727 0
M  V30 3061 H 293.267 -0.597557 -1.85514 0
M  V30 3062 H 292.363 0.275489 -3.10882 0
M  V30 3063 N 292.664 1.56529 -0.183458 0
M  V30 3064 C 293.913 1.96419 0.458511 0
M  V30 3065 C 294.226 1.0727 1.63562 0
M  V30 3066 O 295.432 1.36893 2.34462 0
M  V30 3067 C 293.888 3.49298 0.867122 0
M  V30 3068 C 293.496 4.47092 -0.285057 0
M  V30 3069 C 295.24 3.97983 1.47683 0
M  V30 3070 C 293.147 5.91225 0.143862 0
M  V30 3071 H 292.077 0.733394 0.175071 0
M  V30 3072 H 294.728 1.81448 -0.273624 0
M  V30 3073 H 293.11 3.59731 1.65559 0
M  V30 3074 H 294.284 4.48383 -1.0625 0
M  V30 3075 H 292.599 4.08535 -0.805503 0
M  V30 3076 H 295.196 5.03134 1.80999 0
M  V30 3077 H 295.539 3.41618 2.37914 0
M  V30 3078 H 296.072 3.90617 0.752562 0
M  V30 3079 H 292.811 6.5149 -0.723974 0
M  V30 3080 H 292.331 5.93214 0.886413 0
M  V30 3081 H 294.01 6.44362 0.583628 0
M  V30 3082 N 294.142 -0.090211 1.57342 0
M  V30 3083 C 295.419 -0.824761 1.77361 0
M  V30 3084 C 295.799 -1.96698 0.76637 0
M  V30 3085 O 295.147 -2.27586 -0.204179 0
M  V30 3086 C 295.357 -1.31481 3.23286 0
M  V30 3087 C 296.705 -1.75563 3.86604 0
M  V30 3088 O 297.729 -1.41093 3.27065 0
M  V30 3089 O 296.588 -2.39317 4.91314 0
M  V30 3090 H 293.682 -0.393776 0.727234 0
M  V30 3091 H 296.228 -0.0717138 1.69548 0
M  V30 3092 H 295 -0.496671 3.88135 0
M  V30 3093 H 294.623 -2.12973 3.35751 0
M  V30 3094 N 295.62 -1.53406 -0.361157 0
M  V30 3095 C 296.567 -1.80156 -1.44265 0
M  V30 3096 C 297.537 -0.646183 -1.53015 0
M  V30 3097 O 298.722 -0.888818 -1.68833 0
M  V30 3098 C 295.862 -2.00116 -2.81154 0
M  V30 3099 C 294.975 -3.27833 -2.81335 0
M  V30 3100 C 294.11 -3.37957 -4.09828 0
M  V30 3101 C 293.149 -4.59689 -4.04168 0
M  V30 3102 N 292.286 -4.66942 -5.24318 0
M  V30 3103 H 297.126 -2.72438 -1.20754 0
M  V30 3104 H 294.663 -1.34954 -0.585296 0
M  V30 3105 H 296.621 -2.09677 -3.60682 0
M  V30 3106 H 295.251 -1.11167 -3.03054 0
M  V30 3107 H 294.303 -3.27204 -1.94014 0
M  V30 3108 H 295.615 -4.17442 -2.73027 0
M  V30 3109 H 294.769 -3.46853 -4.97773 0
M  V30 3110 H 293.508 -2.46372 -4.20894 0
M  V30 3111 H 292.513 -4.50889 -3.14609 0
M  V30 3112 H 293.738 -5.5262 -3.947 0
M  V30 3113 H 291.684 -3.7826 -5.35962 0
M  V30 3114 H 291.601 -5.50462 -5.18197 0
M  V30 3115 H 292.869 -4.80127 -6.14084 0
M  V30 3116 N 297.098 0.621204 -1.44841 0
M  V30 3117 C 298.514 0.94048 -1.28946 0
M  V30 3118 C 298.714 2.00154 -0.23249 0
M  V30 3119 O 297.77 2.49651 0.378237 0
M  V30 3120 C 299.083 1.39433 -2.66419 0
M  V30 3121 C 300.631 1.50927 -2.74208 0
M  V30 3122 C 301.106 1.99692 -4.12174 0
M  V30 3123 N 302.597 2.06947 -4.144 0
M  V30 3124 C 303.332 2.45871 -5.1801 0
M  V30 3125 N 302.828 2.83862 -6.31977 0
M  V30 3126 N 304.621 2.46092 -5.05366 0
M  V30 3127 H 296.772 -0.0803548 -2.12248 0
M  V30 3128 H 299.035 0.0266913 -0.947624 0
M  V30 3129 H 298.741 0.688925 -3.44887 0
M  V30 3130 H 298.615 2.36347 -2.93973 0
M  V30 3131 H 301.002 2.20561 -1.96053 0
M  V30 3132 H 301.083 0.523627 -2.50383 0
M  V30 3133 H 300.727 1.30649 -4.90809 0
M  V30 3134 H 300.657 2.99146 -4.33381 0
M  V30 3135 H 303.148 1.80232 -3.32152 0
M  V30 3136 H 303.461 3.12405 -7.0684 0
M  V30 3137 H 301.806 2.8159 -6.35399 0
M  V30 3138 H 304.997 2.1581 -4.15384 0
M  V30 3139 H 305.17 2.76102 -5.86235 0
M  V30 3140 N 298.576 1.31904 0.862503 0
M  V30 3141 C 299.526 1.16772 1.95827 0
M  V30 3142 C 300.51 0.0767098 1.60717 0
M  V30 3143 O 301.702 0.302407 1.74398 0
M  V30 3144 C 298.831 0.884858 3.317 0
M  V30 3145 C 297.917 2.0172 3.73055 0
M  V30 3146 N 298.308 3.265 3.86305 0
M  V30 3147 C 296.606 1.91861 4.02623 0
M  V30 3148 C 297.307 4.00616 4.2176 0
M  V30 3149 N 296.283 3.28847 4.32852 0
M  V30 3150 H 300.085 2.11382 2.04193 0
M  V30 3151 H 297.599 1.2357 1.05377 0
M  V30 3152 H 299.596 0.757419 4.09962 0
M  V30 3153 H 298.256 -0.0529448 3.24657 0
M  V30 3154 H 299.267 3.61529 3.70833 0
M  V30 3155 H 295.944 1.05593 4.03926 0
M  V30 3156 H 297.334 5.08182 4.39546 0
M  V30 3157 N 300.054 -1.07777 1.14986 0
M  V30 3158 C 301.3 -1.80719 0.93339 0
M  V30 3159 C 301.655 -1.8484 -0.534019 0
M  V30 3160 O 300.948 -1.31795 -1.3907 0
M  V30 3161 C 301.142 -3.25495 1.47608 0
M  V30 3162 C 300.971 -3.3548 2.99472 0
M  V30 3163 C 299.741 -3.46293 3.6798 0
M  V30 3164 C 301.939 -3.26596 3.97291 0
M  V30 3165 N 299.921 -3.45136 5.07695 0
M  V30 3166 C 301.292 -3.32506 5.23297 0
M  V30 3167 C 303.347 -3.10376 3.89321 0
M  V30 3168 C 302.05 -3.23866 6.42264 0
M  V30 3169 C 304.076 -3.03069 5.07842 0
M  V30 3170 C 303.438 -3.09587 6.32721 0
M  V30 3171 H 299.537 -0.674814 0.395158 0
M  V30 3172 H 302.121 -1.28681 1.46114 0
M  V30 3173 H 300.292 -3.75963 0.975022 0
M  V30 3174 H 302.024 -3.86535 1.19887 0
M  V30 3175 H 298.779 -3.50456 3.18555 0
M  V30 3176 H 299.203 -3.48097 5.80653 0
M  V30 3177 H 303.845 -3.04194 2.93642 0
M  V30 3178 H 301.563 -3.28807 7.38181 0
M  V30 3179 H 305.149 -2.91629 5.03432 0
M  V30 3180 H 304.029 -3.0397 7.22891 0
M  V30 3181 N 301.532 -0.945985 -1.26051 0
M  V30 3182 C 302.48 -0.450259 -2.282 0
M  V30 3183 C 303.474 0.47497 -1.62605 0
M  V30 3184 O 304.68 0.352653 -1.76512 0
M  V30 3185 H 301.055 -0.127081 -0.741184 0
M  V30 3186 H 303.026 -1.32422 -2.67408 0
M  V30 3187 C 301.775 0.26467 -3.46691 0
M  V30 3188 H 301.098 -0.438123 -3.97392 0
M  V30 3189 H 302.538 0.575678 -4.20074 0
M  V30 3190 C 300.997 1.48416 -3.02447 0
M  V30 3191 O 301.527 2.58227 -3.07704 0
M  V30 3192 N 299.733 1.34243 -2.57735 0
M  V30 3193 H 299.28 0.448994 -2.53657 0
M  V30 3194 H 299.238 2.15957 -2.28495 0
M  V30 3195 N 303.011 1.40521 -0.713556 0
M  V30 3196 C 304.236 2.05759 -0.26035 0
M  V30 3197 C 304.661 1.53403 1.08854 0
M  V30 3198 O 304.019 0.668535 1.68524 0
M  V30 3199 C 304.067 3.59745 -0.248122 0
M  V30 3200 O 303.171 4.05123 0.77131 0
M  V30 3201 H 302.512 0.652564 -0.122703 0
M  V30 3202 H 305.042 1.79958 -0.973467 0
M  V30 3203 H 305.052 4.07911 -0.0851129 0
M  V30 3204 H 303.727 3.97218 -1.2325 0
M  V30 3205 H 302.304 3.68422 0.57619 0
M  V30 3206 N 304.489 0.459591 1.5075 0
M  V30 3207 C 305.421 -0.37665 2.26084 0
M  V30 3208 C 306.434 -0.967109 1.30961 0
M  V30 3209 O 307.623 -0.857468 1.56556 0
M  V30 3210 C 304.723 -1.54112 3.01832 0
M  V30 3211 C 303.896 -1.06553 4.24223 0
M  V30 3212 C 302.955 -2.1027 4.82362 0
M  V30 3213 O 301.981 -1.68798 5.43595 0
M  V30 3214 N 303.183 -3.42974 4.68347 0
M  V30 3215 H 305.948 0.269124 2.98489 0
M  V30 3216 H 303.509 0.28972 1.59287 0
M  V30 3217 H 305.501 -2.23165 3.37608 0
M  V30 3218 H 304.071 -2.0918 2.32298 0
M  V30 3219 H 303.291 -0.201274 3.93686 0
M  V30 3220 H 304.579 -0.725516 5.03601 0
M  V30 3221 H 303.977 -3.79385 4.19623 0
M  V30 3222 H 302.534 -4.07858 5.08424 0
M  V30 3223 N 305.967 -1.56429 0.191757 0
M  V30 3224 C 307.207 -1.99383 -0.450099 0
M  V30 3225 C 307.571 -1.07581 -1.59029 0
M  V30 3226 O 308.772 -1.39758 -2.29611 0
M  V30 3227 C 307.043 -3.45841 -0.901611 0
M  V30 3228 S 308.602 -4.10822 -1.54177 0
M  V30 3229 H 305.42 -0.696253 -0.144057 0
M  V30 3230 H 308.022 -1.93276 0.294036 0
M  V30 3231 H 306.726 -4.10354 -0.0616596 0
M  V30 3232 H 306.257 -3.55757 -1.67929 0
M  V30 3233 H 308.272 -4.07553 -2.83046 0
M  V30 3234 N 307.445 0.0818655 -1.57387 0
M  V30 3235 C 308.861 0.436412 -1.53517 0
M  V30 3236 C 309.061 1.79758 -0.910459 0
M  V30 3237 O 308.117 2.47324 -0.508636 0
M  V30 3238 C 309.43 0.386734 -2.98203 0
M  V30 3239 C 310.978 0.467644 -3.09487 0
M  V30 3240 C 311.453 0.447978 -4.55804 0
M  V30 3241 N 312.944 0.508348 -4.60402 0
M  V30 3242 C 313.679 0.515184 -5.71081 0
M  V30 3243 N 313.175 0.477435 -6.91153 0
M  V30 3244 N 314.968 0.560988 -5.59294 0
M  V30 3245 H 307.119 -0.809546 -1.96367 0
M  V30 3246 H 309.382 -0.302733 -0.898363 0
M  V30 3247 H 309.088 -0.546539 -3.47427 0
M  V30 3248 H 308.962 1.20075 -3.57578 0
M  V30 3249 H 311.349 1.39134 -2.60242 0
M  V30 3250 H 311.43 -0.374753 -2.5304 0
M  V30 3251 H 311.074 -0.471826 -5.05704 0
M  V30 3252 H 311.004 1.30777 -5.10103 0
M  V30 3253 H 313.495 0.54218 -3.7399 0
M  V30 3254 H 313.808 0.486299 -7.71268 0
M  V30 3255 H 312.153 0.444278 -6.93579 0
M  V30 3256 H 315.344 0.5881 -4.64391 0
M  V30 3257 H 315.517 0.562846 -6.45551 0
M  V30 3258 N 308.923 1.53595 0.353017 0
M  V30 3259 C 310.151 1.74311 1.1146 0
M  V30 3260 C 310.566 0.477854 1.82653 0
M  V30 3261 O 309.923 -0.549977 1.74016 0
M  V30 3262 C 309.974 2.91694 2.13534 0
M  V30 3263 O 309.695 4.13325 1.45238 0
M  V30 3264 C 311.196 3.24384 3.02142 0
M  V30 3265 H 308.416 0.582669 0.332773 0
M  V30 3266 H 310.96 2.00386 0.408107 0
M  V30 3267 H 309.115 2.67977 2.79763 0
M  V30 3268 H 309.529 4.79148 2.13349 0
M  V30 3269 H 311.003 4.09893 3.69718 0
M  V30 3270 H 311.48 2.40282 3.67643 0
M  V30 3271 H 312.086 3.50073 2.41514 0
M  V30 3272 N 310.401 -0.613514 1.45168 0
M  V30 3273 C 311.629 -1.39946 1.5239 0
M  V30 3274 C 312.044 -1.88167 0.154531 0
M  V30 3275 O 311.401 -1.61872 -0.842843 0
M  V30 3276 C 311.452 -2.60795 2.50337 0
M  V30 3277 O 311.173 -2.1458 3.81952 0
M  V30 3278 C 312.674 -3.53723 2.67198 0
M  V30 3279 H 309.894 -0.428593 0.516284 0
M  V30 3280 H 312.438 -0.748753 1.903 0
M  V30 3281 H 310.593 -3.21919 2.15515 0
M  V30 3282 H 311.007 -2.93055 4.34993 0
M  V30 3283 H 312.481 -4.35079 3.39721 0
M  V30 3284 H 312.958 -4.0368 1.73029 0
M  V30 3285 H 313.564 -2.98456 3.02992 0
M  V30 3286 N 311.879 -1.3236 -0.855495 0
M  V30 3287 C 312.811 -1.17052 -1.97057 0
M  V30 3288 C 313.824 -0.10574 -1.62456 0
M  V30 3289 O 315.013 -0.354619 -1.74942 0
M  V30 3290 C 312.113 -0.769305 -3.30053 0
M  V30 3291 C 311.286 -1.9222 -3.929 0
M  V30 3292 C 310.345 -1.50466 -5.04228 0
M  V30 3293 O 309.371 -2.21655 -5.24269 0
M  V30 3294 N 310.573 -0.400209 -5.79119 0
M  V30 3295 H 313.338 -2.13103 -2.1073 0
M  V30 3296 H 310.899 -1.24885 -1.0303 0
M  V30 3297 H 312.891 -0.472407 -4.01933 0
M  V30 3298 H 311.461 0.100025 -3.1244 0
M  V30 3299 H 310.681 -2.38563 -3.13817 0
M  V30 3300 H 311.969 -2.69403 -4.31624 0
M  V30 3301 H 311.367 0.192319 -5.65373 0
M  V30 3302 H 309.924 -0.162912 -6.51596 0
M  V30 3303 N 313.357 1.07166 -1.15556 0
M  V30 3304 C 314.582 1.84053 -0.955988 0
M  V30 3305 C 315.007 1.81586 0.490739 0
M  V30 3306 O 314.365 1.21018 1.34997 0
M  V30 3307 C 314.413 3.28957 -1.47714 0
M  V30 3308 O 313.517 4.06795 -0.677593 0
M  V30 3309 H 312.858 0.569842 -0.340847 0
M  V30 3310 H 315.388 1.35178 -1.53584 0
M  V30 3311 H 315.398 3.79788 -1.4908 0
M  V30 3312 H 314.073 3.30068 -2.53037 0
M  V30 3313 H 312.65 3.6561 -0.733721 0
M  V30 3314 N 314.835 0.952656 1.25548 0
M  V30 3315 C 316.065 0.622592 1.96996 0
M  V30 3316 C 316.473 -0.809112 1.71026 0
M  V30 3317 O 315.816 -1.55258 0.981861 0
M  V30 3318 C 315.878 0.798946 3.5051 0
M  V30 3319 C 315.542 2.20744 4.00151 0
M  V30 3320 C 316.539 3.18394 4.11001 0
M  V30 3321 C 314.224 2.5311 4.33867 0
M  V30 3322 C 316.218 4.46504 4.54877 0
M  V30 3323 C 313.905 3.8145 4.7743 0
M  V30 3324 C 314.903 4.77959 4.87897 0
M  V30 3325 O 314.591 6.04012 5.30494 0
M  V30 3326 H 314.323 0.232503 0.634758 0
M  V30 3327 H 316.877 1.2789 1.60728 0
M  V30 3328 H 315.107 0.0854903 3.86605 0
M  V30 3329 H 316.796 0.47023 4.03167 0
M  V30 3330 H 317.562 2.94715 3.85186 0
M  V30 3331 H 313.441 1.78719 4.24948 0
M  V30 3332 H 316.985 5.21835 4.62962 0
M  V30 3333 H 312.882 4.04936 5.0269 0
M  V30 3334 H 313.65 6.0736 5.48685 0
M  V30 3335 N 316.313 -1.40141 0.720998 0
M  V30 3336 C 317.559 -2.01084 0.263231 0
M  V30 3337 C 317.892 -1.57052 -1.14229 0
M  V30 3338 O 317.167 -0.793027 -1.77599 0
M  V30 3339 C 317.45 -3.58401 0.349344 0
M  V30 3340 C 317.303 -4.12491 1.79363 0
M  V30 3341 C 318.622 -4.39231 -0.276351 0
M  V30 3342 H 315.741 -0.730572 0.0971228 0
M  V30 3343 H 318.383 -1.66543 0.914518 0
M  V30 3344 H 316.533 -3.87958 -0.205165 0
M  V30 3345 H 318.205 -3.93711 2.40394 0
M  V30 3346 H 316.448 -3.66576 2.31958 0
M  V30 3347 H 317.119 -5.21646 1.80524 0
M  V30 3348 H 319.595 -4.15637 0.196184 0
M  V30 3349 H 318.471 -5.48586 -0.185681 0
M  V30 3350 H 318.732 -4.20643 -1.36059 0
M  V30 3351 N 317.792 -0.46758 -1.50504 0
M  V30 3352 C 319.208 -0.121533 -1.59137 0
M  V30 3353 C 319.408 1.3717 -1.47603 0
M  V30 3354 O 318.464 2.14464 -1.33272 0
M  V30 3355 C 319.777 -0.6686 -2.93173 0
M  V30 3356 C 321.325 -0.631716 -3.06559 0
M  V30 3357 C 321.8 -1.15627 -4.43164 0
M  V30 3358 N 323.291 -1.11553 -4.49567 0
M  V30 3359 C 324.026 -1.49195 -5.5365 0
M  V30 3360 N 323.522 -1.94269 -6.65005 0
M  V30 3361 N 325.315 -1.4082 -5.44175 0
M  V30 3362 H 317.466 -1.4388 -1.56245 0
M  V30 3363 H 319.729 -0.594784 -0.738198 0
M  V30 3364 H 319.435 -1.71453 -3.07078 0
M  V30 3365 H 319.309 -0.11021 -3.77039 0
M  V30 3366 H 321.696 0.405297 -2.92304 0
M  V30 3367 H 321.777 -1.22687 -2.24458 0
M  V30 3368 H 321.421 -2.1919 -4.58168 0
M  V30 3369 H 321.351 -0.537365 -5.23851 0
M  V30 3370 H 323.842 -0.784895 -3.69659 0
M  V30 3371 H 324.155 -2.21148 -7.40482 0
M  V30 3372 H 322.5 -1.98219 -6.66134 0
M  V30 3373 H 325.691 -1.0545 -4.56068 0
M  V30 3374 H 325.864 -1.70481 -6.25172 0
M  V30 3375 N 319.27 1.56325 -0.20005 0
M  V30 3376 C 320.233 2.18084 0.705132 0
M  V30 3377 C 321.233 1.13666 1.1374 0
M  V30 3378 O 322.423 1.39023 1.04968 0
M  V30 3379 C 319.555 2.78689 1.96329 0
M  V30 3380 H 320.748 2.99435 0.167023 0
M  V30 3381 H 318.301 1.56221 0.0495725 0
M  V30 3382 H 319.036 2.0115 2.5438 0
M  V30 3383 H 318.821 3.55133 1.66202 0
M  V30 3384 H 320.311 3.26096 2.60866 0
M  V30 3385 N 320.748 -0.0735177 1.57428 0
M  V30 3386 C 321.678 -1.0879 2.06608 0
M  V30 3387 C 322.659 -1.40473 0.959237 0
M  V30 3388 O 323.844 -1.5013 1.23185 0
M  V30 3389 C 320.974 -2.40183 2.50857 0
M  V30 3390 C 319.928 -2.22858 3.65402 0
M  V30 3391 C 319.254 -3.59619 3.957 0
M  V30 3392 C 320.554 -1.65123 4.95511 0
M  V30 3393 H 322.248 -0.678673 2.91607 0
M  V30 3394 H 319.794 -0.325013 1.40284 0
M  V30 3395 H 321.747 -3.11437 2.83874 0
M  V30 3396 H 320.471 -2.83083 1.62885 0
M  V30 3397 H 319.13 -1.54045 3.32664 0
M  V30 3398 H 318.778 -4.00086 3.04861 0
M  V30 3399 H 318.478 -3.48866 4.72828 0
M  V30 3400 H 320.002 -4.32306 4.31212 0
M  V30 3401 H 321.416 -2.26241 5.26771 0
M  V30 3402 H 319.813 -1.65071 5.7695 0
M  V30 3403 H 320.883 -0.612559 4.81015 0
M  V30 3404 N 322.226 -1.5378 -0.344866 0
M  V30 3405 C 323.454 -1.74899 -1.10534 0
M  V30 3406 C 323.869 -0.487534 -1.82397 0
M  V30 3407 O 323.226 0.540741 -1.74305 0
M  V30 3408 C 323.277 -2.92822 -2.11984 0
M  V30 3409 O 322.998 -4.14089 -1.43044 0
M  V30 3410 C 324.499 -3.25982 -3.00417 0
M  V30 3411 H 321.719 -0.584426 -0.329678 0
M  V30 3412 H 324.263 -2.006 -0.397474 0
M  V30 3413 H 322.418 -2.69457 -2.78338 0
M  V30 3414 H 322.832 -4.80272 -2.10805 0
M  V30 3415 H 324.306 -4.11848 -3.67539 0
M  V30 3416 H 324.783 -2.42228 -3.66363 0
M  V30 3417 H 325.389 -3.51349 -2.39654 0
M  V30 3418 N 323.704 0.605807 -1.45491 0
M  V30 3419 C 324.637 1.73022 -1.48791 0
M  V30 3420 C 325.615 1.58917 -0.344112 0
M  V30 3421 O 326.799 1.80453 -0.544876 0
M  V30 3422 C 323.926 3.10865 -1.34463 0
M  V30 3423 C 322.972 3.43554 -2.5273 0
M  V30 3424 S 323.805 3.38196 -4.15191 0
M  V30 3425 C 324.961 4.78616 -4.03333 0
M  V30 3426 H 325.194 1.69961 -2.43928 0
M  V30 3427 H 322.727 0.782611 -1.33096 0
M  V30 3428 H 324.685 3.90398 -1.26884 0
M  V30 3429 H 323.346 3.1144 -0.40794 0
M  V30 3430 H 322.539 4.43924 -2.38637 0
M  V30 3431 H 322.141 2.71541 -2.5718 0
M  V30 3432 H 324.433 5.68463 -3.68587 0
M  V30 3433 H 325.376 4.97767 -5.03621 0
M  V30 3434 H 325.784 4.54381 -3.34959 0
M  V30 3435 N 325.182 1.32811 0.848464 0
M  V30 3436 C 326.459 1.14334 1.58704 0
M  V30 3437 C 326.839 -0.293948 2.09043 0
M  V30 3438 O 326.187 -1.29153 1.88499 0
M  V30 3439 C 326.397 2.17626 2.72837 0
M  V30 3440 C 327.745 2.51282 3.42261 0
M  V30 3441 O 328.769 2.16219 2.83068 0
M  V30 3442 O 327.628 3.11413 4.49093 0
M  V30 3443 H 324.722 0.441601 0.699226 0
M  V30 3444 H 327.268 1.44362 0.892053 0
M  V30 3445 H 326.04 3.14211 2.3321 0
M  V30 3446 H 325.663 1.88628 3.50008 0
M  V30 3447 N 326.66 -1.06551 1.16123 0
M  V30 3448 C 327.885 -1.83544 0.965735 0
M  V30 3449 C 328.31 -1.81843 -0.481102 0
M  V30 3450 O 327.668 -1.21732 -1.34354 0
M  V30 3451 C 327.716 -3.28169 1.49457 0
M  V30 3452 O 326.82 -4.0643 0.699157 0
M  V30 3453 H 326.161 -0.568026 0.343864 0
M  V30 3454 H 328.691 -1.34362 1.54299 0
M  V30 3455 H 328.701 -3.78992 1.51092 0
M  V30 3456 H 327.376 -3.28722 2.54784 0
M  V30 3457 H 325.953 -3.65216 0.7531 0
M  V30 3458 N 328.138 -0.959301 -1.25041 0
M  V30 3459 C 329.085 -0.482057 -2.2571 0
M  V30 3460 C 330.055 0.467939 -1.59372 0
M  V30 3461 O 331.24 0.380159 -1.86974 0
M  V30 3462 C 328.38 0.229623 -3.44335 0
M  V30 3463 C 327.493 -0.758156 -4.25295 0
M  V30 3464 C 326.628 -0.0234403 -5.31195 0
M  V30 3465 C 325.667 -1.00184 -6.03846 0
M  V30 3466 N 324.804 -0.29769 -7.01469 0
M  V30 3467 H 329.644 -1.34538 -2.65901 0
M  V30 3468 H 327.181 -0.674592 -1.3072 0
M  V30 3469 H 329.139 0.658856 -4.11965 0
M  V30 3470 H 327.769 1.05696 -3.05005 0
M  V30 3471 H 326.821 -1.30586 -3.57284 0
M  V30 3472 H 328.133 -1.50458 -4.75567 0
M  V30 3473 H 327.287 0.464201 -6.04922 0
M  V30 3474 H 326.026 0.755741 -4.81809 0
M  V30 3475 H 325.031 -1.50044 -5.2893 0
M  V30 3476 H 326.256 -1.78133 -6.55321 0
M  V30 3477 H 324.202 0.462668 -6.54366 0
M  V30 3478 H 324.119 -0.983128 -7.4958 0
M  V30 3479 H 325.387 0.16826 -7.79318 0
M  V30 3480 N 329.616 1.39756 -0.72842 0
M  V30 3481 C 330.563 2.30647 -0.0841519 0
M  V30 3482 C 331.533 1.48869 0.7367 0
M  V30 3483 O 332.718 1.77574 0.698015 0
M  V30 3484 C 329.858 3.35165 0.822091 0
M  V30 3485 C 328.971 4.31999 -0.0106663 0
M  V30 3486 C 328.106 5.23585 0.896241 0
M  V30 3487 C 327.145 6.12072 0.0583381 0
M  V30 3488 N 326.282 6.96035 0.920818 0
M  V30 3489 H 331.122 2.85173 -0.864891 0
M  V30 3490 H 328.659 1.40422 -0.438179 0
M  V30 3491 H 330.617 3.94345 1.36189 0
M  V30 3492 H 329.247 2.8211 1.56888 0
M  V30 3493 H 328.299 3.74492 -0.66781 0
M  V30 3494 H 329.611 4.9443 -0.658825 0
M  V30 3495 H 328.765 5.87759 1.50412 0
M  V30 3496 H 327.504 4.61459 1.57819 0
M  V30 3497 H 326.509 5.46916 -0.562389 0
M  V30 3498 H 327.734 6.76261 -0.6203 0
M  V30 3499 H 325.68 6.36485 1.58818 0
M  V30 3500 H 325.597 7.55284 0.32899 0
M  V30 3501 H 326.865 7.64646 1.51447 0
M  V30 3502 N 331.094 0.475555 1.50254 0
M  V30 3503 C 332.51 0.12997 1.5907 0
M  V30 3504 C 332.71 -1.36385 1.48328 0
M  V30 3505 O 331.766 -2.13754 1.34407 0
M  V30 3506 C 333.079 0.684139 2.92814 0
M  V30 3507 C 334.627 0.647965 3.0622 0
M  V30 3508 C 335.102 1.17975 4.42545 0
M  V30 3509 N 336.593 1.13936 4.48969 0
M  V30 3510 C 337.328 1.52129 5.52851 0
M  V30 3511 N 336.824 1.97793 6.63965 0
M  V30 3512 N 338.617 1.43704 5.4342 0
M  V30 3513 H 330.768 1.44706 1.55479 0
M  V30 3514 H 333.031 0.598691 0.735033 0
M  V30 3515 H 332.737 1.73079 3.06164 0
M  V30 3516 H 332.611 0.130204 3.76975 0
M  V30 3517 H 334.998 -0.38979 2.92514 0
M  V30 3518 H 335.079 1.23876 2.23805 0
M  V30 3519 H 334.723 2.21616 4.57 0
M  V30 3520 H 334.653 0.565138 5.23559 0
M  V30 3521 H 337.144 0.804488 3.69238 0
M  V30 3522 H 337.457 2.25072 7.39299 0
M  V30 3523 H 335.802 2.01749 6.65073 0
M  V30 3524 H 338.993 1.07867 4.55502 0
M  V30 3525 H 339.166 1.73794 6.24259 0
M  V30 3526 N 332.573 -1.56217 0.208337 0
M  V30 3527 C 333.822 -1.97124 -0.427204 0
M  V30 3528 C 334.135 -1.09859 -1.61835 0
M  V30 3529 O 335.341 -1.40606 -2.32255 0
M  V30 3530 C 333.797 -3.50633 -0.811442 0
M  V30 3531 C 333.405 -4.46582 0.35615 0
M  V30 3532 C 335.149 -4.00282 -1.41332 0
M  V30 3533 C 333.056 -5.91379 -0.0497852 0
M  V30 3534 H 331.986 -0.736086 -0.163381 0
M  V30 3535 H 334.637 -1.8099 0.302456 0
M  V30 3536 H 333.019 -3.62319 -1.59815 0
M  V30 3537 H 334.193 -4.46636 1.1337 0
M  V30 3538 H 332.508 -4.07202 0.870396 0
M  V30 3539 H 335.105 -5.0595 -1.72972 0
M  V30 3540 H 335.448 -3.45359 -2.32449 0
M  V30 3541 H 335.981 -3.91764 -0.690323 0
M  V30 3542 H 332.72 -6.50255 0.827529 0
M  V30 3543 H 332.24 -5.94549 -0.791926 0
M  V30 3544 H 333.919 -6.45209 -0.481042 0
M  V30 3545 N 334.051 0.0651679 -1.57465 0
M  V30 3546 C 335.299 0.761555 -1.87202 0
M  V30 3547 C 335.62 1.77778 -0.801243 0
M  V30 3548 O 334.89 1.95166 0.16937 0
M  V30 3549 H 333.47 0.284251 -0.690804 0
M  V30 3550 H 336.132 0.0396827 -1.9486 0
M  V30 3551 H 335.228 1.27365 -2.84929 0
M  V30 3552 N 335.529 1.53961 0.336706 0
M  V30 3553 C 336.775 1.7273 1.07406 0
M  V30 3554 C 337.13 0.488095 1.86106 0
M  V30 3555 O 336.423 -0.519379 1.84426 0
M  V30 3556 C 336.617 2.93493 2.03953 0
M  V30 3557 C 336.446 4.29039 1.34744 0
M  V30 3558 C 335.216 4.93416 1.08942 0
M  V30 3559 C 337.414 5.08501 0.770115 0
M  V30 3560 N 335.396 6.12821 0.363864 0
M  V30 3561 C 336.767 6.19752 0.175472 0
M  V30 3562 C 338.822 4.93349 0.671633 0
M  V30 3563 C 337.525 7.17503 -0.508081 0
M  V30 3564 C 339.551 5.914 0.0018076 0
M  V30 3565 C 338.913 7.01993 -0.581835 0
M  V30 3566 H 335.012 0.685026 0.377177 0
M  V30 3567 H 337.596 1.91403 0.356815 0
M  V30 3568 H 335.767 2.76308 2.72962 0
M  V30 3569 H 337.499 3.00949 2.70577 0
M  V30 3570 H 334.254 4.53099 1.37833 0
M  V30 3571 H 334.678 6.76998 0.0156092 0
M  V30 3572 H 339.32 4.08007 1.1086 0
M  V30 3573 H 337.038 8.02414 -0.956918 0
M  V30 3574 H 340.624 5.81753 -0.0738538 0
M  V30 3575 H 339.504 7.76561 -1.09192 0
M  V30 3576 N 337.007 -0.598083 1.45811 0
M  V30 3577 C 338.423 -0.919847 1.30426 0
M  V30 3578 C 338.623 -1.99759 0.264303 0
M  V30 3579 O 337.679 -2.50221 -0.338472 0
M  V30 3580 C 338.992 -1.35176 2.68603 0
M  V30 3581 C 340.54 -1.46546 2.76574 0
M  V30 3582 C 341.015 -1.9311 4.15298 0
M  V30 3583 N 342.506 -2.00328 4.1764 0
M  V30 3584 C 343.241 -2.37599 5.21856 0
M  V30 3585 N 342.737 -2.73771 6.36413 0
M  V30 3586 N 344.53 -2.38021 5.09218 0
M  V30 3587 H 336.681 0.114111 2.12093 0
M  V30 3588 H 338.944 -0.0116121 0.947929 0
M  V30 3589 H 338.65 -0.633969 3.45939 0
M  V30 3590 H 338.524 -2.3164 2.97696 0
M  V30 3591 H 340.911 -2.17415 1.99537 0
M  V30 3592 H 340.992 -0.483727 2.51185 0
M  V30 3593 H 340.636 -1.22824 4.92825 0
M  V30 3594 H 340.566 -2.92213 4.38086 0
M  V30 3595 H 343.057 -1.74925 3.34977 0
M  V30 3596 H 343.37 -3.0112 7.11721 0
M  V30 3597 H 341.715 -2.71445 6.39799 0
M  V30 3598 H 344.906 -2.09174 4.18765 0
M  V30 3599 H 345.079 -2.66741 5.90554 0
M  V30 3600 N 338.485 -1.33259 -0.841409 0
M  V30 3601 C 339.732 -1.24572 -1.5965 0
M  V30 3602 C 340.06 0.189137 -1.93578 0
M  V30 3603 O 339.315 1.14566 -1.5866 0
M  V30 3604 C 339.614 -2.06381 -2.9179 0
M  V30 3605 C 339.28 -3.556 -2.77235 0
M  V30 3606 C 337.942 -3.96282 -2.72973 0
M  V30 3607 C 340.294 -4.50433 -2.62221 0
M  V30 3608 C 337.622 -5.30017 -2.51592 0
M  V30 3609 C 339.974 -5.84327 -2.42374 0
M  V30 3610 C 338.638 -6.24194 -2.36512 0
M  V30 3611 H 337.908 -0.455842 -0.5842 0
M  V30 3612 H 340.555 -1.6482 -0.975016 0
M  V30 3613 H 338.86 -1.58903 -3.5813 0
M  V30 3614 H 340.557 -1.97019 -3.49263 0
M  V30 3615 H 337.147 -3.23298 -2.81384 0
M  V30 3616 H 341.331 -4.19914 -2.64549 0
M  V30 3617 H 336.587 -5.59947 -2.45499 0
M  V30 3618 H 340.761 -6.57414 -2.29739 0
M  V30 3619 H 338.388 -7.27759 -2.19706 0
M  V30 3620 N 339.963 1.05934 -1.16686 0
M  V30 3621 C 341.212 1.78188 -0.945085 0
M  V30 3622 C 341.525 1.88338 0.528021 0
M  V30 3623 O 342.731 2.57258 0.867799 0
M  V30 3624 C 341.187 3.20277 -1.64167 0
M  V30 3625 C 340.795 3.18281 -3.15279 0
M  V30 3626 C 342.539 3.97039 -1.502 0
M  V30 3627 C 340.446 4.55112 -3.7766 0
M  V30 3628 H 339.376 0.667866 -0.349959 0
M  V30 3629 H 342.027 1.18794 -1.39858 0
M  V30 3630 H 340.409 3.79952 -1.11589 0
M  V30 3631 H 341.583 2.68167 -3.74731 0
M  V30 3632 H 339.898 2.55018 -3.29173 0
M  V30 3633 H 342.495 4.98194 -1.94183 0
M  V30 3634 H 342.838 4.13845 -0.451461 0
M  V30 3635 H 343.371 3.43894 -1.99954 0
M  V30 3636 H 340.11 4.43512 -4.82677 0
M  V30 3637 H 339.63 5.05406 -3.22994 0
M  V30 3638 H 341.309 5.24064 -3.79428 0
M  V30 3639 N 341.441 0.965919 1.2453 0
M  V30 3640 C 342.857 0.67216 1.44756 0
M  V30 3641 C 343.057 -0.766609 1.86347 0
M  V30 3642 O 342.113 -1.5407 2.00047 0
M  V30 3643 C 343.426 1.65473 2.51076 0
M  V30 3644 C 344.974 1.66716 2.64905 0
M  V30 3645 C 345.449 2.63766 3.74421 0
M  V30 3646 N 346.94 2.62198 3.81846 0
M  V30 3647 C 347.675 3.33966 4.66106 0
M  V30 3648 N 347.171 4.15245 5.54566 0
M  V30 3649 N 348.964 3.22799 4.60171 0
M  V30 3650 H 341.115 1.89553 0.958293 0
M  V30 3651 H 343.378 0.815979 0.482579 0
M  V30 3652 H 343.084 2.68296 2.27399 0
M  V30 3653 H 342.958 1.4261 3.49202 0
M  V30 3654 H 345.345 0.646057 2.87941 0
M  V30 3655 H 345.426 1.93642 1.67142 0
M  V30 3656 H 345.07 3.6601 3.52135 0
M  V30 3657 H 345 2.34121 4.71694 0
M  V30 3658 H 347.491 2.032 3.18619 0
M  V30 3659 H 347.804 4.66898 6.15814 0
M  V30 3660 H 346.149 4.1934 5.54237 0
M  V30 3661 H 349.34 2.58764 3.90075 0
M  V30 3662 H 349.513 3.78994 5.25612 0
M  V30 3663 N 342.919 -1.39368 0.735821 0
M  V30 3664 C 344.168 -1.99733 0.281004 0
M  V30 3665 C 344.481 -1.59055 -1.13846 0
M  V30 3666 O 345.687 -2.12262 -1.69284 0
M  V30 3667 C 344.143 -3.57057 0.451462 0
M  V30 3668 C 343.751 -4.06697 1.87886 0
M  V30 3669 C 345.495 -4.2446 0.0584616 0
M  V30 3670 C 343.402 -5.56598 1.99883 0
M  V30 3671 H 342.332 -0.747163 0.101311 0
M  V30 3672 H 344.983 -1.59357 0.909819 0
M  V30 3673 H 343.365 -3.95234 -0.246263 0
M  V30 3674 H 344.539 -3.79853 2.60861 0
M  V30 3675 H 342.854 -3.5196 2.22515 0
M  V30 3676 H 345.451 -5.34549 0.127099 0
M  V30 3677 H 345.794 -4.04444 -0.986433 0
M  V30 3678 H 346.327 -3.9146 0.707374 0
M  V30 3679 H 343.066 -5.81494 3.02564 0
M  V30 3680 H 342.586 -5.85242 1.31346 0
M  V30 3681 H 344.265 -6.22022 1.78039 0
M  V30 3682 N 344.397 -0.483516 -1.5 0
M  V30 3683 C 345.674 0.129337 -1.95172 0
M  V30 3684 C 346.054 1.55802 -1.4244 0
M  V30 3685 O 345.402 2.19625 -0.630649 0
M  V30 3686 C 345.612 0.0599251 -3.48949 0
M  V30 3687 C 346.96 0.242617 -4.23906 0
M  V30 3688 O 347.984 0.135933 -3.55941 0
M  V30 3689 O 346.843 0.459454 -5.44565 0
M  V30 3690 H 343.937 0.104887 -0.820322 0
M  V30 3691 H 346.483 -0.544807 -1.60717 0
M  V30 3692 H 345.255 -0.937079 -3.79914 0
M  V30 3693 H 344.878 0.774984 -3.89974 0
M  V30 3694 N 345.875 1.56104 -0.216619 0
M  V30 3695 C 347.103 2.02563 0.421413 0
M  V30 3696 C 347.518 1.0965 1.53695 0
M  V30 3697 O 346.875 0.10521 1.82196 0
M  V30 3698 C 346.926 3.48584 0.957665 0
M  V30 3699 O 346.647 4.37953 -0.113389 0
M  V30 3700 C 348.148 4.10664 1.66943 0
M  V30 3701 H 345.368 0.662944 0.103665 0
M  V30 3702 H 347.912 2.01793 -0.331629 0
M  V30 3703 H 346.067 3.49985 1.661 0
M  V30 3704 H 346.481 5.23704 0.288932 0
M  V30 3705 H 347.955 5.14622 1.99671 0
M  V30 3706 H 348.432 3.55373 2.58083 0
M  V30 3707 H 349.038 4.13098 1.01142 0
M  V30 3708 N 347.353 -0.0568162 1.57498 0
M  V30 3709 C 348.578 -0.769402 1.92601 0
M  V30 3710 C 349.003 -1.69559 0.814336 0
M  V30 3711 O 348.361 -1.79811 -0.231903 0
M  V30 3712 C 348.409 -1.52634 3.26704 0
M  V30 3713 O 347.513 -2.63797 3.16994 0
M  V30 3714 H 346.854 -0.208909 0.63028 0
M  V30 3715 H 349.384 -0.0205798 2.0459 0
M  V30 3716 H 349.394 -1.90234 3.60936 0
M  V30 3717 H 348.069 -0.846875 4.07186 0
M  V30 3718 H 346.646 -2.28943 2.94346 0
M  V30 3719 N 348.832 -1.54138 -0.328536 0
M  V30 3720 C 350.072 -1.73827 -1.07534 0
M  V30 3721 C 350.436 -0.498777 -1.85408 0
M  V30 3722 O 351.637 -0.572937 -2.62623 0
M  V30 3723 C 349.908 -2.97573 -1.97952 0
M  V30 3724 S 351.467 -3.38143 -2.79652 0
M  V30 3725 H 348.285 -0.611287 -0.36311 0
M  V30 3726 H 350.887 -1.92306 -0.351931 0
M  V30 3727 H 349.591 -3.85939 -1.39569 0
M  V30 3728 H 349.122 -2.81603 -2.74706 0
M  V30 3729 H 351.137 -2.93052 -4.00418 0
M  V30 3730 N 350.31 0.590341 -1.46126 0
M  V30 3731 C 351.556 1.35082 -1.51264 0
M  V30 3732 C 351.889 1.93534 -0.160711 0
M  V30 3733 O 351.164 1.76045 0.826956 0
M  V30 3734 C 351.447 2.48588 -2.6053 0
M  V30 3735 C 351.3 1.95221 -4.05227 0
M  V30 3736 C 352.619 3.50662 -2.6594 0
M  V30 3737 H 349.738 0.489803 -0.550692 0
M  V30 3738 H 352.38 0.663887 -1.78024 0
M  V30 3739 H 350.53 3.07186 -2.37843 0
M  V30 3740 H 352.202 1.41139 -4.39178 0
M  V30 3741 H 350.445 1.26101 -4.15068 0
M  V30 3742 H 351.116 2.77121 -4.77397 0
M  V30 3743 H 353.592 3.01934 -2.86313 0
M  V30 3744 H 352.468 4.27551 -3.44226 0
M  V30 3745 H 352.729 4.07399 -1.71694 0
M  V30 3746 N 351.788 1.33704 0.83433 0
M  V30 3747 C 353.028 1.26754 1.60352 0
M  V30 3748 C 353.392 -0.163182 1.91305 0
M  V30 3749 O 354.593 -0.3567 2.66423 0
M  V30 3750 C 352.864 2.12262 2.8754 0
M  V30 3751 S 354.423 2.22549 3.78176 0
M  V30 3752 H 351.241 0.450879 0.549753 0
M  V30 3753 H 353.843 1.68788 0.986444 0
M  V30 3754 H 352.547 3.15238 2.62779 0
M  V30 3755 H 352.078 1.71082 3.54252 0
M  V30 3756 H 354.093 1.3899 4.76336 0
M  V30 3757 N 353.266 -1.05314 1.17247 0
M  V30 3758 C 354.494 -1.81971 0.984593 0
M  V30 3759 C 354.909 -1.82929 -0.467166 0
M  V30 3760 O 354.266 -1.25564 -1.32438 0
M  V30 3761 C 354.317 -3.28143 1.51672 0
M  V30 3762 O 354.038 -3.27347 2.91163 0
M  V30 3763 C 355.539 -4.21493 1.37326 0
M  V30 3764 H 352.759 -0.573455 0.348411 0
M  V30 3765 H 355.303 -1.32808 1.55506 0
M  V30 3766 H 353.458 -3.74582 0.988302 0
M  V30 3767 H 353.872 -4.18824 3.15732 0
M  V30 3768 H 355.346 -5.22043 1.79375 0
M  V30 3769 H 355.823 -4.38031 0.320169 0
M  V30 3770 H 356.429 -3.80909 1.89178 0
M  V30 3771 N 354.744 -0.972509 -1.24016 0
M  V30 3772 C 355.674 -0.525548 -2.27509 0
M  V30 3773 C 356.655 0.437262 -1.64384 0
M  V30 3774 O 357.84 0.332343 -1.91335 0
M  V30 3775 C 354.97 0.180448 -3.46831 0
M  V30 3776 C 353.924 -0.698859 -4.22256 0
M  V30 3777 C 353.25 0.138903 -5.3452 0
M  V30 3778 C 354.55 -1.98582 -4.83076 0
M  V30 3779 H 356.244 -1.39058 -2.65148 0
M  V30 3780 H 353.79 -0.67009 -1.27459 0
M  V30 3781 H 355.743 0.504387 -4.18371 0
M  V30 3782 H 354.467 1.07987 -3.08231 0
M  V30 3783 H 353.126 -1.00614 -3.52523 0
M  V30 3784 H 352.774 1.03862 -4.9216 0
M  V30 3785 H 352.474 -0.446259 -5.85903 0
M  V30 3786 H 353.998 0.457404 -6.08884 0
M  V30 3787 H 355.412 -1.72715 -5.46665 0
M  V30 3788 H 353.809 -2.5181 -5.44713 0
M  V30 3789 H 354.879 -2.67769 -4.04262 0
M  V30 3790 N 356.222 1.38976 -0.743202 0
M  V30 3791 C 357.45 2.04636 -0.30525 0
M  V30 3792 C 357.865 1.56044 1.06281 0
M  V30 3793 O 357.222 0.728921 1.67311 0
M  V30 3794 C 357.273 3.60193 -0.307177 0
M  V30 3795 O 356.994 4.06998 -1.62124 0
M  V30 3796 C 358.495 4.4306 0.145928 0
M  V30 3797 H 355.715 0.65788 -0.132041 0
M  V30 3798 H 358.259 1.77866 -1.00915 0
M  V30 3799 H 356.414 3.85835 0.347898 0
M  V30 3800 H 356.828 5.01371 -1.54036 0
M  V30 3801 H 358.302 5.51921 0.0934183 0
M  V30 3802 H 358.779 4.22706 1.19231 0
M  V30 3803 H 359.385 4.22584 -0.479886 0
M  V30 3804 N 357.7 0.491464 1.49741 0
M  V30 3805 C 358.949 -0.0582189 2.01616 0
M  V30 3806 C 359.262 -1.38927 1.3769 0
M  V30 3807 O 360.468 -2.02509 1.80838 0
M  V30 3808 C 358.924 -0.154235 3.59569 0
M  V30 3809 C 358.532 1.1696 4.32463 0
M  V30 3810 C 360.276 -0.65479 4.1942 0
M  V30 3811 C 358.183 1.03627 5.8225 0
M  V30 3812 H 357.113 -0.0255317 0.753568 0
M  V30 3813 H 359.764 0.629445 1.72367 0
M  V30 3814 H 358.146 -0.906138 3.85493 0
M  V30 3815 H 359.32 1.93405 4.18248 0
M  V30 3816 H 357.635 1.60285 3.84315 0
M  V30 3817 H 360.232 -0.771903 5.29099 0
M  V30 3818 H 360.575 -1.65127 3.8215 0
M  V30 3819 H 361.108 0.040304 3.9778 0
M  V30 3820 H 357.847 2.00672 6.24028 0
M  V30 3821 H 357.367 0.312546 5.98985 0
M  V30 3822 H 359.046 0.711114 6.4308 0
M  V30 3823 N 359.178 -1.55987 0.224894 0
M  V30 3824 C 360.125 -2.20436 -0.68385 0
M  V30 3825 C 361.095 -1.16102 -1.18783 0
M  V30 3826 O 362.28 -1.4447 -1.24632 0
M  V30 3827 C 359.42 -2.89076 -1.88491 0
M  V30 3828 C 358.533 -4.08012 -1.41951 0
M  V30 3829 C 357.668 -4.64426 -2.5784 0
M  V30 3830 C 356.707 -5.75656 -2.08053 0
M  V30 3831 N 355.844 -6.26347 -3.17227 0
M  V30 3832 H 360.684 -2.97727 -0.12754 0
M  V30 3833 H 358.221 -1.47011 -0.0511978 0
M  V30 3834 H 360.179 -3.27059 -2.59014 0
M  V30 3835 H 358.809 -2.14298 -2.41405 0
M  V30 3836 H 357.861 -3.75492 -0.609095 0
M  V30 3837 H 359.173 -4.88375 -1.01447 0
M  V30 3838 H 358.327 -5.04869 -3.3644 0
M  V30 3839 H 357.066 -3.83233 -3.01635 0
M  V30 3840 H 356.071 -5.34712 -1.27916 0
M  V30 3841 H 357.296 -6.58686 -1.65255 0
M  V30 3842 H 355.242 -5.48067 -3.60497 0
M  V30 3843 H 355.159 -7.01843 -2.80986 0
M  V30 3844 H 356.427 -6.71447 -3.95953 0
M  V30 3845 N 360.656 0.0484629 -1.57525 0
M  V30 3846 C 362.072 0.40375 -1.54409 0
M  V30 3847 C 362.272 1.77786 -0.948384 0
M  V30 3848 O 361.328 2.46189 -0.560983 0
M  V30 3849 C 362.641 0.323394 -2.98956 0
M  V30 3850 C 364.189 0.401892 -3.10409 0
M  V30 3851 C 364.664 0.351195 -4.56652 0
M  V30 3852 N 366.155 0.410576 -4.61377 0
M  V30 3853 C 366.89 0.393933 -5.72045 0
M  V30 3854 N 366.386 0.330724 -6.9201 0
M  V30 3855 N 368.179 0.442227 -5.60358 0
M  V30 3856 H 360.33 -0.851016 -1.94606 0
M  V30 3857 H 362.593 -0.321721 -0.89174 0
M  V30 3858 H 362.299 -0.62011 -3.4619 0
M  V30 3859 H 362.173 1.12463 -3.60044 0
M  V30 3860 H 364.56 1.33582 -2.63134 0
M  V30 3861 H 364.641 -0.428342 -2.52188 0
M  V30 3862 H 364.285 -0.578987 -5.04589 0
M  V30 3863 H 364.215 1.19928 -5.12762 0
M  V30 3864 H 366.706 0.462729 -3.75056 0
M  V30 3865 H 367.019 0.322592 -7.72126 0
M  V30 3866 H 365.364 0.29706 -6.94365 0
M  V30 3867 H 368.555 0.489464 -4.65534 0
M  V30 3868 H 368.728 0.425788 -6.466 0
M  V30 3869 N 362.134 1.5431 0.320358 0
M  V30 3870 C 363.382 1.72327 1.05583 0
M  V30 3871 C 363.703 0.50149 1.88441 0
M  V30 3872 O 362.973 -0.48448 1.89815 0
M  V30 3873 H 361.553 0.635387 0.3928 0
M  V30 3874 H 364.215 1.91621 0.356019 0
M  V30 3875 H 363.311 2.60426 1.72003 0
M  V30 3876 N 363.613 -0.582584 1.46437 0
M  V30 3877 C 365.029 -0.905962 1.31394 0
M  V30 3878 C 365.229 -1.99468 0.285476 0
M  V30 3879 O 364.285 -2.50566 -0.311914 0
M  V30 3880 C 365.598 -1.3232 2.70022 0
M  V30 3881 C 367.146 -1.43604 2.78113 0
M  V30 3882 C 367.621 -1.88694 4.17323 0
M  V30 3883 N 369.112 -1.95887 4.19741 0
M  V30 3884 C 369.847 -2.32051 5.24347 0
M  V30 3885 N 369.343 -2.67006 6.39281 0
M  V30 3886 N 371.136 -2.32606 5.11713 0
M  V30 3887 H 363.287 0.1366 2.1196 0
M  V30 3888 H 365.55 -0.00155736 0.947999 0
M  V30 3889 H 365.256 -0.597242 3.46592 0
M  V30 3890 H 365.13 -2.28469 3.00136 0
M  V30 3891 H 367.517 -2.15286 2.01832 0
M  V30 3892 H 367.598 -0.457059 2.51684 0
M  V30 3893 H 367.242 -1.1759 4.941 0
M  V30 3894 H 367.172 -2.8755 4.4116 0
M  V30 3895 H 369.663 -1.71362 3.36814 0
M  V30 3896 H 369.976 -2.93554 7.14875 0
M  V30 3897 H 368.321 -2.64644 6.42642 0
M  V30 3898 H 371.512 -2.04721 4.2096 0
M  V30 3899 H 371.685 -2.60462 5.93349 0
M  V30 3900 O 365.13 -1.44218 -0.726867 0
M  V30 3901 H 365.821 -1.36218 -1.37711 0
M  V30 END ATOM
M  V30 BEGIN BOND
M  V30 END BOND
M  V30 END CTAB
M  END
$$$$
