drugbank_target|Q9RN59 Nogalonic acid methyl ester cyclase (DB04064)
 OpenBabel12092120283D

  0  0  0     0  0            999 V3000
M  V30 BEGIN CTAB
M  V30 COUNTS 2145 2179 0 0 0
M  V30 BEGIN ATOM
M  V30 1 H -0.908 1.98254 -0.117106 0
M  V30 2 N 0 1.576 0 0
M  V30 3 C 0.933 2.03868 1.02534 0
M  V30 4 C 1.911 0.928543 1.3348 0
M  V30 5 O 3.095 1.19667 1.45644 0
M  V30 6 C 0.222 2.43627 2.35294 0
M  V30 7 C -0.732 3.65373 2.2001 0
M  V30 8 S 0.101 5.13292 1.52614 0
M  V30 9 C 1.257 5.56322 2.86805 0
M  V30 10 H 1.49 2.90518 0.631377 0
M  V30 11 H -0.977 1.52953 0.210867 0
M  V30 12 H 0.981 2.67203 3.11629 0
M  V30 13 H -0.358 1.57376 2.7183 0
M  V30 14 H -1.165 3.90944 3.18086 0
M  V30 15 H -1.563 3.418 1.51819 0
M  V30 16 H 0.729 5.58782 3.83104 0
M  V30 17 H 1.672 6.56266 2.65933 0
M  V30 18 H 2.08 4.83886 2.90714 0
M  V30 19 N 1.4781 -0.272755 1.55222 0
M  V30 20 C 2.7241 -1.00581 1.761 0
M  V30 21 C 3.0571 -1.85932 0.560625 0
M  V30 22 O 2.3321 -1.89416 -0.441801 0
M  V30 23 C 2.6151 -1.88816 3.06628 0
M  V30 24 C 2.4681 -1.06457 4.37021 0
M  V30 25 C 3.7871 -2.8752 3.33197 0
M  V30 26 H 0.9061 -0.364244 0.640699 0
M  V30 27 H 3.5481 -0.278189 1.87952 0
M  V30 28 H 1.6981 -2.50856 2.96654 0
M  V30 29 H 3.3701 -0.464863 4.58952 0
M  V30 30 H 1.6131 -0.368043 4.32236 0
M  V30 31 H 2.2841 -1.71514 5.24678 0
M  V30 32 H 4.7601 -2.35615 3.42965 0
M  V30 33 H 3.6361 -3.46399 4.25792 0
M  V30 34 H 3.8971 -3.62657 2.52849 0
M  V30 35 N 2.9562 -1.48159 -0.537278 0
M  V30 36 C 4.1812 -1.59707 -1.32319 0
M  V30 37 C 4.6062 -0.254859 -1.86365 0
M  V30 38 O 3.9642 0.772378 -1.64024 0
M  V30 39 C 4.0122 -2.6412 -2.45505 0
M  V30 40 O 3.1162 -2.20774 -3.48328 0
M  V30 41 H 2.4572 -0.535791 -0.392204 0
M  V30 42 H 4.9872 -1.94092 -0.647268 0
M  V30 43 H 4.9972 -2.85166 -2.91795 0
M  V30 44 H 3.6722 -3.61567 -2.05528 0
M  V30 45 H 2.2492 -2.09911 -3.08207 0
M  V30 46 N 4.4343 0.785586 -1.36625 0
M  V30 47 C 5.3973 1.87999 -1.31107 0
M  V30 48 C 6.3973 1.59316 -0.217959 0
M  V30 49 O 7.5873 1.67656 -0.472977 0
M  V30 50 C 4.7193 3.24861 -1.03334 0
M  V30 51 H 5.9123 1.94307 -2.2844 0
M  V30 52 H 3.4653 0.983813 -1.21453 0
M  V30 53 H 4.2003 3.24235 -0.0647432 0
M  V30 54 H 3.9853 3.4707 -1.82441 0
M  V30 55 H 5.4753 4.04929 -1.02088 0
M  V30 56 N 5.9124 1.20967 1.01018 0
M  V30 57 C 7.1594 1.02374 1.74716 0
M  V30 58 C 7.4874 -0.443375 1.89379 0
M  V30 59 O 6.7424 -1.34535 1.42123 0
M  V30 60 C 7.0414 1.65997 3.16512 0
M  V30 61 C 6.7074 3.15831 3.2181 0
M  V30 62 C 5.3694 3.56719 3.22963 0
M  V30 63 C 7.7214 4.11816 3.19464 0
M  V30 64 C 5.0494 4.92107 3.19449 0
M  V30 65 C 7.4014 5.47158 3.17491 0
M  V30 66 C 6.0654 5.87451 3.16951 0
M  V30 67 H 5.3354 0.374614 0.639332 0
M  V30 68 H 7.9824 1.50485 1.18434 0
M  V30 69 H 6.2874 1.10166 3.75993 0
M  V30 70 H 7.9844 1.49119 3.72242 0
M  V30 71 H 4.5744 2.83263 3.21652 0
M  V30 72 H 8.7584 3.81257 3.17737 0
M  V30 73 H 4.0144 5.22579 3.17366 0
M  V30 74 H 8.1884 6.21274 3.14629 0
M  V30 75 H 5.8154 6.92329 3.13983 0
M  V30 76 N 7.3905 -1.2043 1.01659 0
M  V30 77 C 8.3385 -2.25249 0.580143 0
M  V30 78 C 9.3325 -1.65057 -0.381115 0
M  V30 79 O 10.5385 -1.78241 -0.251039 0
M  V30 80 H 6.9135 -0.732695 0.169299 0
M  V30 81 H 8.8845 -2.59389 1.47512 0
M  V30 82 C 7.6335 -3.47638 -0.065788 0
M  V30 83 H 6.9565 -3.94233 0.664874 0
M  V30 84 H 8.3965 -4.2268 -0.334282 0
M  V30 85 C 6.8555 -3.10447 -1.3086 0
M  V30 86 O 7.3855 -3.21981 -2.4019 0
M  V30 87 N 5.5915 -2.64996 -1.1927 0
M  V30 88 H 5.1385 -2.55811 -0.303064 0
M  V30 89 H 5.0965 -2.40482 -2.02523 0
M  V30 90 N 8.8686 -0.792821 -1.36206 0
M  V30 91 C 10.0966 -0.378825 -2.03402 0
M  V30 92 C 10.5116 1.00586 -1.59774 0
M  V30 93 O 9.8686 1.64574 -0.788764 0
M  V30 94 C 9.9196 -0.43683 -3.58851 0
M  V30 95 O 9.6406 -1.76691 -4.00889 0
M  V30 96 C 11.1416 -0.0138943 -4.43298 0
M  V30 97 H 8.3616 -0.155673 -0.652692 0
M  V30 98 H 10.9056 -1.07261 -1.74113 0
M  V30 99 H 9.0606 0.208575 -3.86838 0
M  V30 100 H 9.4746 -1.72011 -4.95492 0
M  V30 101 H 10.9486 -0.105615 -5.51899 0
M  V30 102 H 11.4256 1.03915 -4.2673 0
M  V30 103 H 12.0316 -0.63192 -4.20579 0
M  V30 104 N 10.3467 1.47872 -0.545128 0
M  V30 105 C 11.5947 2.02093 -0.016553 0
M  V30 106 C 11.9157 1.42305 1.3332 0
M  V30 107 O 11.1857 0.593853 1.86682 0
M  V30 108 H 9.7657 0.746993 -0.00313038 0
M  V30 109 H 12.4277 1.81414 -0.712397 0
M  V30 110 H 11.5237 3.11996 0.0805422 0
M  V30 111 N 11.8248 0.280983 1.55075 0
M  V30 112 C 13.2408 -0.0729964 1.59433 0
M  V30 113 C 13.4408 -1.5411 1.29817 0
M  V30 114 O 12.4968 -2.29086 1.06187 0
M  V30 115 C 13.8098 0.306921 2.9913 0
M  V30 116 C 15.3578 0.254023 3.11968 0
M  V30 117 C 15.8328 0.608467 4.5394 0
M  V30 118 N 17.3238 0.560241 4.59799 0
M  V30 119 C 18.0588 0.80722 5.6769 0
M  V30 120 N 17.5548 1.11912 6.83701 0
M  V30 121 N 19.3478 0.735623 5.57266 0
M  V30 122 H 11.4988 1.238 1.7259 0
M  V30 123 H 13.7618 0.500547 0.805082 0
M  V30 124 H 13.4678 1.32816 3.25657 0
M  V30 125 H 13.3418 -0.349363 3.75579 0
M  V30 126 H 15.7288 -0.75794 2.852 0
M  V30 127 H 15.8098 0.944649 2.37718 0
M  V30 128 H 15.4538 1.61814 4.81434 0
M  V30 129 H 15.3838 -0.104013 5.26497 0
M  V30 130 H 17.8748 0.329288 3.76463 0
M  V30 131 H 18.1878 1.29409 7.61888 0
M  V30 132 H 16.5328 1.15695 6.85303 0
M  V30 133 H 19.7238 0.491752 4.6551 0
M  V30 134 H 19.8968 0.931482 6.4127 0
M  V30 135 N 13.3029 -1.57598 0.00835791 0
M  V30 136 C 14.5309 -1.95214 -0.68549 0
M  V30 137 C 14.9459 -0.883706 -1.66841 0
M  V30 138 O 14.3029 0.136565 -1.81988 0
M  V30 139 C 14.3539 -3.32865 -1.41007 0
M  V30 140 O 14.0749 -4.35609 -0.466552 0
M  V30 141 C 15.5759 -3.84991 -2.19765 0
M  V30 142 H 12.7959 -0.643422 -0.190392 0
M  V30 143 H 15.3399 -2.04406 0.0619607 0
M  V30 144 H 13.4949 -3.24956 -2.10908 0
M  V30 145 H 13.9089 -5.15288 -0.978699 0
M  V30 146 H 15.3829 -4.8371 -2.65948 0
M  V30 147 H 15.8599 -3.18137 -3.02796 0
M  V30 148 H 16.4659 -3.96103 -1.54864 0
M  V30 149 N 14.781 0.264519 -1.55364 0
M  V30 150 C 16.058 1.01677 -1.67096 0
M  V30 151 C 16.438 2.03996 -0.543015 0
M  V30 152 O 15.786 2.23907 0.45585 0
M  V30 153 C 15.996 1.66596 -3.0667 0
M  V30 154 C 17.344 2.17442 -3.64697 0
M  V30 155 O 18.368 1.76568 -3.09358 0
M  V30 156 O 17.227 2.92439 -4.61673 0
M  V30 157 H 14.321 0.472161 -0.678965 0
M  V30 158 H 16.867 0.259703 -1.67701 0
M  V30 159 H 15.639 0.924962 -3.80211 0
M  V30 160 H 15.262 2.48968 -3.10001 0
M  V30 161 N 16.2591 1.48442 0.529413 0
M  V30 162 C 17.5361 1.46978 1.29062 0
M  V30 163 C 17.9161 0.181769 2.10316 0
M  V30 164 O 17.2641 -0.836481 2.12639 0
M  V30 165 C 17.4741 2.7321 2.17157 0
M  V30 166 C 18.8221 3.21562 2.77278 0
M  V30 167 O 19.8461 2.74131 2.27444 0
M  V30 168 O 18.7051 4.04094 3.67927 0
M  V30 169 H 15.7991 0.587003 0.582543 0
M  V30 170 H 18.3451 1.60676 0.546021 0
M  V30 171 H 17.1171 3.58465 1.56903 0
M  V30 172 H 16.7401 2.62235 2.98862 0
M  V30 173 N 17.7372 -0.778329 1.37039 0
M  V30 174 C 18.9832 -1.53892 1.32079 0
M  V30 175 C 19.3162 -1.9396 -0.0965386 0
M  V30 176 O 18.5912 -1.63568 -1.05242 0
M  V30 177 C 18.8742 -2.80847 2.25382 0
M  V30 178 C 18.7272 -2.47076 3.75864 0
M  V30 179 C 20.0462 -3.82741 2.1725 0
M  V30 180 H 17.1652 -0.558303 0.48111 0
M  V30 181 H 19.8072 -0.893397 1.67685 0
M  V30 182 H 17.9572 -3.35931 1.95148 0
M  V30 183 H 19.6292 -1.97957 4.16666 0
M  V30 184 H 17.8722 -1.79863 3.94755 0
M  V30 185 H 18.5432 -3.37798 4.36574 0
M  V30 186 H 21.0192 -3.37133 2.43887 0
M  V30 187 H 19.8952 -4.69303 2.84686 0
M  V30 188 H 20.1562 -4.2652 1.16331 0
M  V30 189 N 19.2153 -1.21501 -1.00376 0
M  V30 190 C 20.4923 -0.941745 -1.71437 0
M  V30 191 C 20.8723 0.546114 -2.03914 0
M  V30 192 O 20.2203 1.51128 -1.71384 0
M  V30 193 C 20.4303 -1.82812 -2.97289 0
M  V30 194 C 21.7783 -2.07771 -3.70292 0
M  V30 195 O 22.8023 -1.80171 -3.07273 0
M  V30 196 O 21.6613 -2.54456 -4.83647 0
M  V30 197 H 18.7553 -0.353243 -0.747762 0
M  V30 198 H 21.3013 -1.32436 -1.06108 0
M  V30 199 H 20.0733 -2.83501 -2.69709 0
M  V30 200 H 19.6963 -1.4464 -3.70358 0
M  V30 201 N 20.6934 1.19889 -1.02296 0
M  V30 202 C 21.6034 2.26571 -0.608508 0
M  V30 203 C 22.6194 1.70299 0.356964 0
M  V30 204 O 23.7954 2.00235 0.216326 0
M  V30 205 C 20.8604 3.46677 0.0402814 0
M  V30 206 C 19.9214 4.18153 -0.97194 0
M  V30 207 C 19.1544 5.32525 -0.354016 0
M  V30 208 O 19.3774 5.64112 0.844604 0
M  V30 209 O 18.3114 5.92242 -1.07391 0
M  V30 210 H 22.1374 2.64251 -1.49684 0
M  V30 211 H 19.7224 1.26629 -0.792809 0
M  V30 212 H 21.6044 4.19475 0.402324 0
M  V30 213 H 20.2794 3.10858 0.902707 0
M  V30 214 H 19.1864 3.47499 -1.38546 0
M  V30 215 H 20.5194 4.57927 -1.80454 0
M  V30 216 N 22.1715 0.800033 1.35784 0
M  V30 217 C 23.4015 0.389041 2.02904 0
M  V30 218 C 23.8095 -1.0027 1.60445 0
M  V30 219 O 23.1525 -1.65633 0.794453 0
M  V30 220 C 23.2145 0.385495 3.57427 0
M  V30 221 C 22.8785 1.72662 4.23127 0
M  V30 222 C 23.8755 2.68385 4.4527 0
M  V30 223 C 21.5605 2.00883 4.60381 0
M  V30 224 C 23.5545 3.90517 5.03761 0
M  V30 225 C 21.2415 3.2328 5.18588 0
M  V30 226 C 22.2395 4.17915 5.40218 0
M  V30 227 O 21.9275 5.38153 5.97199 0
M  V30 228 H 21.6595 0.157032 0.657508 0
M  V30 229 H 24.2135 1.08311 1.74522 0
M  V30 230 H 22.4435 -0.365128 3.84972 0
M  V30 231 H 24.1325 -0.00228296 4.059 0
M  V30 232 H 24.8985 2.47872 4.16874 0
M  V30 233 H 20.7775 1.28037 4.42863 0
M  V30 234 H 24.3215 4.64395 5.2056 0
M  V30 235 H 20.2185 3.43667 5.4641 0
M  V30 236 H 20.9865 5.3936 6.15656 0
M  V30 237 N 23.6496 -1.47581 0.552962 0
M  V30 238 C 24.8986 -2.01684 0.0251995 0
M  V30 239 C 25.2116 -1.43317 -1.33115 0
M  V30 240 O 26.4176 -1.89057 -1.94858 0
M  V30 241 C 24.8736 -3.599 -0.00542052 0
M  V30 242 C 24.4816 -4.27257 1.34742 0
M  V30 243 C 26.2256 -4.21768 -0.4808 0
M  V30 244 C 24.1326 -5.77467 1.27614 0
M  V30 245 H 23.0626 -0.753979 0.00565033 0
M  V30 246 H 25.7136 -1.69616 0.70018 0
M  V30 247 H 24.0956 -3.88911 -0.745961 0
M  V30 248 H 25.2696 -4.09893 2.10534 0
M  V30 249 H 23.5846 -3.77358 1.76039 0
M  V30 250 H 26.1816 -5.31838 -0.55246 0
M  V30 251 H 26.5246 -3.88651 -1.49184 0
M  V30 252 H 27.0576 -3.97273 0.204752 0
M  V30 253 H 23.7966 -6.15196 2.26304 0
M  V30 254 H 23.3166 -5.9718 0.55996 0
M  V30 255 H 24.9956 -6.3959 0.976421 0
M  V30 256 N 25.1277 -0.289203 -1.54924 0
M  V30 257 C 26.0777 0.606939 -2.19773 0
M  V30 258 C 27.0617 1.10783 -1.16687 0
M  V30 259 O 28.2537 1.05057 -1.4245 0
M  V30 260 C 25.3827 1.78398 -2.93307 0
M  V30 261 C 24.4687 1.29961 -4.03697 0
M  V30 262 N 24.8597 0.532377 -5.0299 0
M  V30 263 C 23.1577 1.58136 -4.17024 0
M  V30 264 C 23.8587 0.275912 -5.81045 0
M  V30 265 N 22.8347 0.852365 -5.36876 0
M  V30 266 H 26.6367 0.0130779 -2.93897 0
M  V30 267 H 24.1507 -0.09341 -1.62131 0
M  V30 268 H 26.1477 2.43741 -3.38225 0
M  V30 269 H 24.8077 2.38166 -2.20697 0
M  V30 270 H 25.8187 0.17838 -5.17593 0
M  V30 271 H 22.4957 2.18738 -3.55612 0
M  V30 272 H 23.8857 -0.339502 -6.71042 0
M  V30 273 N 26.6058 1.57591 -0.0167156 0
M  V30 274 C 28.0168 1.79201 0.523834 0
M  V30 275 C 28.3678 0.925796 1.72984 0
M  V30 276 O 27.4928 0.132792 2.15992 0
M  V30 277 C 28.0878 3.25 0.957091 0
M  V30 278 C 26.6468 3.47648 1.44283 0
M  V30 279 C 25.7938 2.74374 0.401757 0
M  V30 280 H 28.7448 1.56831 -0.242816 0
M  V30 281 H 28.7658 3.34031 1.82219 0
M  V30 282 H 28.2778 3.88019 0.0791415 0
M  V30 283 H 26.3788 2.89866 2.34113 0
M  V30 284 H 26.4918 4.56352 1.45877 0
M  V30 285 H 24.8558 2.39485 0.867121 0
M  V30 286 H 25.6388 3.40102 -0.467513 0
M  V30 287 N 28.0839 -0.256276 1.55502 0
M  V30 288 C 29.3609 -1.00789 1.67633 0
M  V30 289 C 29.7409 -2.03706 0.553826 0
M  V30 290 O 29.0889 -2.24145 -0.443969 0
M  V30 291 C 29.2989 -1.64968 3.07549 0
M  V30 292 C 30.6469 -2.15505 3.65845 0
M  V30 293 O 31.6709 -1.74925 3.1029 0
M  V30 294 O 30.5299 -2.89986 4.63217 0
M  V30 295 H 27.6239 -0.468553 0.681459 0
M  V30 296 H 30.1699 -0.250806 1.67836 0
M  V30 297 H 28.9419 -0.904785 3.80696 0
M  V30 298 H 28.5649 -2.47321 3.11317 0
M  V30 299 N 29.562 -1.4872 -0.521534 0
M  V30 300 C 30.792 -1.6061 -1.29954 0
M  V30 301 C 31.2 -0.268728 -1.87282 0
M  V30 302 O 30.543 0.753221 -1.67548 0
M  V30 303 C 30.605 -2.60013 -2.48261 0
M  V30 304 C 30.269 -4.04874 -2.11957 0
M  V30 305 C 31.266 -4.92304 -1.67132 0
M  V30 306 C 28.951 -4.5047 -2.22221 0
M  V30 307 C 30.945 -6.2336 -1.33047 0
M  V30 308 C 28.632 -5.81544 -1.87748 0
M  V30 309 C 29.63 -6.67812 -1.43234 0
M  V30 310 O 29.318 -7.96446 -1.09217 0
M  V30 311 H 29.05 -0.544116 -0.401141 0
M  V30 312 H 31.604 -1.95339 -0.634958 0
M  V30 313 H 29.834 -2.20422 -3.17728 0
M  V30 314 H 31.523 -2.61648 -3.10315 0
M  V30 315 H 32.289 -4.58312 -1.58665 0
M  V30 316 H 28.168 -3.83504 -2.55823 0
M  V30 317 H 31.712 -6.90649 -0.982299 0
M  V30 318 H 27.609 -6.15069 -1.95858 0
M  V30 319 H 28.377 -8.09275 -1.22542 0
M  V30 320 N 31.0401 0.771051 -1.3745 0
M  V30 321 C 31.9701 1.89827 -1.3597 0
M  V30 322 C 32.9511 1.68562 -0.228216 0
M  V30 323 O 34.1361 1.8941 -0.428675 0
M  V30 324 C 31.2661 3.2712 -1.16662 0
M  V30 325 C 30.2201 3.6295 -2.2683 0
M  V30 326 C 29.5461 4.98791 -1.92644 0
M  V30 327 C 30.8461 3.69627 -3.69017 0
M  V30 328 H 32.5401 1.91323 -2.30295 0
M  V30 329 H 30.0861 0.919082 -1.10855 0
M  V30 330 H 32.0391 4.05615 -1.14256 0
M  V30 331 H 30.7631 3.26059 -0.187926 0
M  V30 332 H 29.4221 2.86763 -2.28392 0
M  V30 333 H 29.0701 4.94271 -0.933021 0
M  V30 334 H 28.7701 5.23733 -2.66416 0
M  V30 335 H 30.2941 5.79685 -1.91826 0
M  V30 336 H 31.7081 4.38273 -3.69581 0
M  V30 337 H 30.1051 4.06067 -4.41848 0
M  V30 338 H 31.1751 2.70273 -4.02592 0
M  V30 339 N 32.5182 1.22032 0.997298 0
M  V30 340 C 33.4662 0.983634 2.10778 0
M  V30 341 C 34.4602 -0.0717564 1.69248 0
M  V30 342 O 35.6662 0.080304 1.79821 0
M  V30 343 H 32.0412 0.300877 0.689186 0
M  V30 344 H 34.0122 1.92606 2.27916 0
M  V30 345 C 32.7612 0.57326 3.42942 0
M  V30 346 H 32.0842 1.37702 3.75338 0
M  V30 347 H 33.5242 0.447031 4.21637 0
M  V30 348 C 31.9832 -0.7167 3.29188 0
M  V30 349 O 32.5132 -1.77027 3.60589 0
M  V30 350 N 30.7192 -0.686167 2.82383 0
M  V30 351 H 30.2662 0.171507 2.57028 0
M  V30 352 H 30.2242 -1.54955 2.73562 0
M  V30 353 N 33.9963 -1.19345 1.0293 0
M  V30 354 C 35.4073 -1.70725 0.755633 0
M  V30 355 C 35.7583 -1.82326 -0.724676 0
M  V30 356 O 34.8833 -1.49471 -1.56484 0
M  V30 357 C 35.4783 -3.10084 1.36503 0
M  V30 358 C 34.0373 -3.58723 1.13994 0
M  V30 359 C 33.1843 -2.35577 1.46283 0
M  V30 360 H 36.1353 -1.0418 1.19718 0
M  V30 361 H 36.1563 -3.72787 0.762217 0
M  V30 362 H 35.6683 -3.01609 2.44241 0
M  V30 363 H 33.7693 -3.72512 0.0807901 0
M  V30 364 H 33.8823 -4.42816 1.82894 0
M  V30 365 H 32.2463 -2.38935 0.88217 0
M  V30 366 H 33.0293 -2.29731 2.55105 0
M  V30 367 N 35.4744 -0.807222 -1.35358 0
M  V30 368 C 36.4374 -0.223665 -2.28106 0
M  V30 369 C 37.4374 0.589354 -1.4961 0
M  V30 370 O 38.6274 0.407745 -1.69361 0
M  V30 371 C 35.7594 0.688149 -3.33882 0
M  V30 372 H 36.9524 -1.04169 -2.81227 0
M  V30 373 H 34.5054 -0.577921 -1.45223 0
M  V30 374 H 35.2404 1.52984 -2.85948 0
M  V30 375 H 35.0254 0.10687 -3.91954 0
M  V30 376 H 36.5154 1.09075 -4.03104 0
M  V30 377 N 36.9525 1.47285 -0.560781 0
M  V30 378 C 38.1805 2.06855 -0.0430262 0
M  V30 379 C 38.5955 1.41291 1.25229 0
M  V30 380 O 37.9525 0.510648 1.7521 0
M  V30 381 C 38.0035 3.61178 0.152518 0
M  V30 382 O 37.7245 4.24285 -1.0915 0
M  V30 383 C 39.2255 4.37624 0.707145 0
M  V30 384 H 36.4455 0.669319 -0.0474652 0
M  V30 385 H 38.9895 1.89237 -0.77521 0
M  V30 386 H 37.1445 3.78298 0.834843 0
M  V30 387 H 37.5585 5.16868 -0.891482 0
M  V30 388 H 39.0325 5.46271 0.793244 0
M  V30 389 H 39.5095 4.04152 1.71923 0
M  V30 390 H 40.1155 4.25257 0.0604027 0
M  V30 391 N 38.4306 0.297415 1.54768 0
M  V30 392 C 39.3606 -0.573494 2.26348 0
M  V30 393 C 40.3416 -1.14085 1.26169 0
M  V30 394 O 41.5266 -1.17086 1.54934 0
M  V30 395 C 38.6566 -1.74716 3.00153 0
M  V30 396 C 37.6106 -1.31032 4.07449 0
M  V30 397 C 36.9366 -2.56887 4.68949 0
M  V30 398 C 38.2366 -0.444183 5.20408 0
M  V30 399 H 39.9306 0.0235131 2.99391 0
M  V30 400 H 37.4766 0.0127488 1.43994 0
M  V30 401 H 39.4296 -2.3625 3.48947 0
M  V30 402 H 38.1536 -2.37035 2.24682 0
M  V30 403 H 36.8126 -0.718066 3.59499 0
M  V30 404 H 36.4606 -3.17512 3.90122 0
M  V30 405 H 36.1606 -2.2836 5.41411 0
M  V30 406 H 37.6846 -3.19229 5.20505 0
M  V30 407 H 39.0986 -0.9651 5.65118 0
M  V30 408 H 37.4956 -0.252846 5.99567 0
M  V30 409 H 38.5656 0.531609 4.81977 0
M  V30 410 N 39.9087 -1.5758 0.0250728 0
M  V30 411 C 40.8187 -2.1343 -0.973905 0
M  V30 412 C 41.8347 -1.08556 -1.35984 0
M  V30 413 O 43.0107 -1.40592 -1.44207 0
M  V30 414 C 40.0757 -2.64703 -2.23904 0
M  V30 415 C 39.1367 -3.84276 -1.91391 0
M  V30 416 C 38.3697 -4.33095 -3.11873 0
M  V30 417 O 38.5927 -3.81107 -4.24398 0
M  V30 418 O 37.5267 -5.24984 -2.94406 0
M  V30 419 H 41.3527 -2.99057 -0.529036 0
M  V30 420 H 38.9377 -1.48118 -0.195288 0
M  V30 421 H 40.8197 -2.97769 -2.98181 0
M  V30 422 H 39.4947 -1.82161 -2.6758 0
M  V30 423 H 38.4017 -3.56143 -1.14511 0
M  V30 424 H 39.7347 -4.67968 -1.52534 0
M  V30 425 N 41.3868 0.248026 -1.55636 0
M  V30 426 C 42.3368 1.30994 -1.86614 0
M  V30 427 C 43.3208 1.43543 -0.726918 0
M  V30 428 O 44.5128 1.46804 -0.988818 0
M  V30 429 C 41.6418 2.6656 -2.16335 0
M  V30 430 C 40.7278 2.58019 -3.36581 0
M  V30 431 N 41.1188 2.1911 -4.55878 0
M  V30 432 C 39.4168 2.89035 -3.39669 0
M  V30 433 C 40.1178 2.21174 -5.38012 0
M  V30 434 N 39.0938 2.60632 -4.77045 0
M  V30 435 H 42.8958 0.999583 -2.76379 0
M  V30 436 H 40.4098 0.456652 -1.55848 0
M  V30 437 H 42.4068 3.43194 -2.36692 0
M  V30 438 H 41.0668 2.98463 -1.27867 0
M  V30 439 H 42.0778 1.90672 -4.81523 0
M  V30 440 H 38.7548 3.25485 -2.61469 0
M  V30 441 H 40.1448 1.9344 -6.43452 0
M  V30 442 N 42.8649 1.48995 0.513639 0
M  V30 443 C 44.1129 1.57531 1.26604 0
M  V30 444 C 44.4339 0.258236 1.93283 0
M  V30 445 O 43.7039 -0.721502 1.8213 0
M  V30 446 H 42.2839 0.580387 0.470276 0
M  V30 447 H 44.9459 1.85552 0.596373 0
M  V30 448 H 44.0419 2.36486 2.03669 0
M  V30 449 N 44.343 -0.763751 1.37857 0
M  V30 450 C 45.592 -1.51789 1.32827 0
M  V30 451 C 45.905 -1.95426 -0.0823719 0
M  V30 452 O 47.111 -2.70298 -0.255172 0
M  V30 453 C 45.567 -2.74133 2.33193 0
M  V30 454 C 45.175 -2.37562 3.79827 0
M  V30 455 C 46.919 -3.52054 2.37188 0
M  V30 456 C 44.826 -3.56456 4.71904 0
M  V30 457 H 43.756 -0.569896 0.493695 0
M  V30 458 H 46.407 -0.835822 1.63359 0
M  V30 459 H 44.789 -3.4427 1.9569 0
M  V30 460 H 45.963 -1.75157 4.26212 0
M  V30 461 H 44.278 -1.72798 3.78853 0
M  V30 462 H 46.875 -4.40437 3.03182 0
M  V30 463 H 47.218 -3.92486 1.38782 0
M  V30 464 H 47.751 -2.88921 2.7344 0
M  V30 465 H 44.49 -3.21099 5.71468 0
M  V30 466 H 44.01 -4.17938 4.30218 0
M  V30 467 H 45.689 -4.23168 4.89426 0
M  V30 468 N 45.8211 -1.22559 -0.990812 0
M  V30 469 C 46.7711 -0.964807 -2.0658 0
M  V30 470 C 47.7551 0.0853472 -1.60673 0
M  V30 471 O 48.9471 -0.125443 -1.76555 0
M  V30 472 C 46.0761 -0.546707 -3.38919 0
M  V30 473 C 45.1621 -1.6317 -3.91454 0
M  V30 474 N 45.5531 -2.85985 -4.17189 0
M  V30 475 C 43.8511 -1.50387 -4.19881 0
M  V30 476 C 44.5521 -3.56159 -4.59919 0
M  V30 477 N 43.5281 -2.83637 -4.63736 0
M  V30 478 H 47.3301 -1.89769 -2.24421 0
M  V30 479 H 44.8441 -1.12343 -1.17273 0
M  V30 480 H 46.8411 -0.34119 -4.15502 0
M  V30 481 H 45.5011 0.379254 -3.22478 0
M  V30 482 H 46.5121 -3.22392 -4.05319 0
M  V30 483 H 43.1891 -0.644254 -4.12499 0
M  V30 484 H 44.5791 -4.6139 -4.88435 0
M  V30 485 N 47.2992 1.18797 -1.03562 0
M  V30 486 C 48.5272 1.92599 -0.755869 0
M  V30 487 C 48.9422 1.75886 0.686271 0
M  V30 488 O 48.2992 1.08517 1.46732 0
M  V30 489 C 48.3502 3.44159 -1.10619 0
M  V30 490 O 48.0712 3.60341 -2.4917 0
M  V30 491 C 49.5722 4.3507 -0.850214 0
M  V30 492 H 46.7922 0.611587 -0.276048 0
M  V30 493 H 49.3362 1.50742 -1.38192 0
M  V30 494 H 47.4912 3.83823 -0.525194 0
M  V30 495 H 47.9052 4.54128 -2.62427 0
M  V30 496 H 49.3792 5.39989 -1.14523 0
M  V30 497 H 49.8562 4.38673 0.215176 0
M  V30 498 H 50.4622 4.01097 -1.41426 0
M  V30 499 N 48.7773 0.814389 1.34928 0
M  V30 500 C 50.0253 0.397636 1.9815 0
M  V30 501 C 50.3463 -1.04069 1.64908 0
M  V30 502 O 49.6163 -1.72121 0.93548 0
M  V30 503 H 48.1963 0.144043 0.732981 0
M  V30 504 H 50.8583 1.04195 1.6471 0
M  V30 505 H 49.9543 0.509688 3.0791 0
M  V30 506 N 50.2554 -1.46986 0.568584 0
M  V30 507 C 51.6664 -1.86188 0.138219 0
M  V30 508 C 52.0174 -1.47388 -1.29504 0
M  V30 509 O 51.1424 -0.88219 -1.97602 0
M  V30 510 C 51.7374 -3.3792 0.244065 0
M  V30 511 C 50.2964 -3.76171 -0.131335 0
M  V30 512 C 49.4434 -2.71027 0.586465 0
M  V30 513 H 52.3944 -1.38342 0.777645 0
M  V30 514 H 52.4154 -3.76729 -0.534351 0
M  V30 515 H 51.9274 -3.66128 1.28731 0
M  V30 516 H 50.0284 -3.5358 -1.17526 0
M  V30 517 H 50.1414 -4.78523 0.235146 0
M  V30 518 H 48.5054 -2.54684 0.0282722 0
M  V30 519 H 49.2884 -3.02077 1.63109 0
M  V30 520 N 51.7335 -0.305618 -1.54608 0
M  V30 521 C 52.6805 0.568421 -2.23691 0
M  V30 522 C 53.6505 1.12592 -1.22116 0
M  V30 523 O 54.8355 1.16959 -1.50749 0
M  V30 524 C 51.9755 1.7322 -2.98477 0
M  V30 525 C 51.0885 1.20566 -4.14835 0
M  V30 526 C 50.2235 2.33368 -4.77193 0
M  V30 527 C 49.2625 1.7787 -5.85686 0
M  V30 528 N 48.3995 2.84263 -6.4198 0
M  V30 529 H 53.2395 -0.0272867 -2.97988 0
M  V30 530 H 50.7765 -0.0252363 -1.47078 0
M  V30 531 H 52.7345 2.41675 -3.40072 0
M  V30 532 H 51.3645 2.29947 -2.26548 0
M  V30 533 H 50.4165 0.413223 -3.78149 0
M  V30 534 H 51.7285 0.759417 -4.92985 0
M  V30 535 H 50.8825 3.09761 -5.21664 0
M  V30 536 H 49.6215 2.8132 -3.98385 0
M  V30 537 H 48.6265 0.99968 -5.40635 0
M  V30 538 H 49.8515 1.30816 -6.66381 0
M  V30 539 H 47.7975 3.31541 -5.66053 0
M  V30 540 H 47.7145 2.44149 -7.15491 0
M  V30 541 H 48.9825 3.6054 -6.91109 0
M  V30 542 N 53.2116 1.57565 -0.0334293 0
M  V30 543 C 54.1746 2.09393 0.932048 0
M  V30 544 C 55.1746 1.00986 1.25134 0
M  V30 545 O 56.3646 1.27129 1.19096 0
M  V30 546 C 53.4966 2.56338 2.2473 0
M  V30 547 H 54.6896 2.95984 0.483085 0
M  V30 548 H 52.2426 1.54819 0.21468 0
M  V30 549 H 52.9776 1.7309 2.74245 0
M  V30 550 H 52.7626 3.35542 2.02865 0
M  V30 551 H 54.2526 2.96646 2.93923 0
M  V30 552 N 54.6897 -0.239769 1.55765 0
M  V30 553 C 55.9367 -0.966801 1.7793 0
M  V30 554 C 56.2647 -1.85046 0.599015 0
M  V30 555 O 55.5197 -1.91197 -0.417395 0
M  V30 556 C 55.8187 -1.852 3.05672 0
M  V30 557 C 55.4847 -1.1231 4.36689 0
M  V30 558 C 54.1467 -0.921689 4.72291 0
M  V30 559 C 56.4987 -0.607019 5.17653 0
M  V30 560 C 53.8267 -0.191996 5.86386 0
M  V30 561 C 56.1787 0.109241 6.32506 0
M  V30 562 C 54.8427 0.322073 6.66723 0
M  V30 563 H 54.1127 -0.353778 0.651093 0
M  V30 564 H 56.7597 -0.23634 1.90036 0
M  V30 565 H 55.0647 -2.64975 2.8861 0
M  V30 566 H 56.7617 -2.41635 3.20021 0
M  V30 567 H 53.3517 -1.29004 4.08725 0
M  V30 568 H 57.5357 -0.750153 4.90598 0
M  V30 569 H 52.7917 -0.0166949 6.11398 0
M  V30 570 H 56.9657 0.516737 6.9448 0
M  V30 571 H 54.5927 0.88944 7.54979 0
M  V30 572 N 56.1678 -1.49265 -0.50573 0
M  V30 573 C 57.1308 -1.65075 -1.59006 0
M  V30 574 C 58.1308 -0.522768 -1.52065 0
M  V30 575 O 59.3208 -0.789117 -1.55302 0
M  V30 576 C 56.4528 -1.64369 -2.98656 0
M  V30 577 H 57.6458 -2.61784 -1.46319 0
M  V30 578 H 55.1988 -1.38226 -0.729616 0
M  V30 579 H 55.9338 -0.692272 -3.16825 0
M  V30 580 H 55.7188 -2.46282 -3.05103 0
M  V30 581 H 57.2088 -1.78674 -3.77446 0
M  V30 582 N 57.6459 0.756429 -1.3826 0
M  V30 583 C 58.5779 1.87971 -1.31147 0
M  V30 584 C 59.5909 1.61248 -0.224239 0
M  V30 585 O 60.7799 1.71881 -0.481581 0
M  V30 586 C 57.8799 3.23545 -1.00857 0
M  V30 587 C 57.0529 3.77794 -2.20432 0
M  V30 588 C 56.1119 4.91877 -1.86931 0
M  V30 589 O 55.1379 5.06659 -2.59395 0
M  V30 590 N 56.3399 5.74643 -0.822568 0
M  V30 591 H 59.1049 1.94585 -2.2794 0
M  V30 592 H 56.6659 0.936234 -1.32084 0
M  V30 593 H 58.6579 3.97403 -0.765021 0
M  V30 594 H 57.2279 3.12335 -0.128687 0
M  V30 595 H 56.4479 2.95534 -2.6087 0
M  V30 596 H 57.7359 4.10771 -3.00241 0
M  V30 597 H 57.1339 5.65266 -0.221575 0
M  V30 598 H 55.6909 6.48661 -0.638899 0
M  V30 599 N 59.124 1.23083 0.984299 0
M  V30 600 C 60.054 1.03292 2.09411 0
M  V30 601 C 61.035 -0.048923 1.7003 0
M  V30 602 O 62.22 0.114967 1.93859 0
M  V30 603 C 59.35 0.619155 3.41736 0
M  V30 604 C 58.304 1.64791 3.95004 0
M  V30 605 C 57.63 1.0897 5.23478 0
M  V30 606 C 58.93 3.03999 4.24714 0
M  V30 607 H 60.624 1.96119 2.26225 0
M  V30 608 H 58.17 0.944344 1.08711 0
M  V30 609 H 60.123 0.467777 4.18796 0
M  V30 610 H 58.847 -0.344786 3.24775 0
M  V30 611 H 57.506 1.78721 3.20085 0
M  V30 612 H 57.154 0.11686 5.02864 0
M  V30 613 H 56.854 1.77704 5.60085 0
M  V30 614 H 58.378 0.950093 6.03163 0
M  V30 615 H 59.792 2.93393 4.92538 0
M  V30 616 H 58.189 3.69936 4.72512 0
M  V30 617 H 59.259 3.53285 3.32142 0
M  V30 618 N 60.6021 -1.18246 1.0419 0
M  V30 619 C 61.8481 -1.88536 0.747122 0
M  V30 620 C 62.1811 -1.80223 -0.723409 0
M  V30 621 O 61.4561 -1.20337 -1.52804 0
M  V30 622 C 61.7391 -3.38968 1.21544 0
M  V30 623 C 61.5921 -3.56084 2.74816 0
M  V30 624 C 62.9111 -4.32648 0.806482 0
M  V30 625 H 60.0301 -0.684619 0.272883 0
M  V30 626 H 62.6721 -1.39113 1.29413 0
M  V30 627 H 60.8221 -3.8119 0.750081 0
M  V30 628 H 62.4941 -3.22946 3.29399 0
M  V30 629 H 60.7371 -2.98699 3.14582 0
M  V30 630 H 61.4081 -4.61639 3.02644 0
M  V30 631 H 63.8841 -3.98211 1.20695 0
M  V30 632 H 62.7601 -5.36462 1.1619 0
M  V30 633 H 63.0211 -4.41146 -0.29029 0
M  V30 634 N 62.0802 -0.821533 -1.34494 0
M  V30 635 C 63.3282 -0.408139 -1.97936 0
M  V30 636 C 63.6492 1.03193 -1.65457 0
M  V30 637 O 62.9192 1.71622 -0.944595 0
M  V30 638 H 61.4992 -0.147928 -0.732206 0
M  V30 639 H 64.1612 -1.05067 -1.64155 0
M  V30 640 H 63.2572 -0.52601 -3.07635 0
M  V30 641 N 63.5583 1.46682 -0.576371 0
M  V30 642 C 64.8043 2.03287 -0.0679305 0
M  V30 643 C 65.1593 1.44063 1.27529 0
M  V30 644 O 64.4523 0.593973 1.82161 0
M  V30 645 C 64.6463 3.57345 0.062886 0
M  V30 646 C 64.4753 4.31509 -1.26611 0
M  V30 647 C 63.2453 4.70664 -1.83856 0
M  V30 648 C 65.4433 4.65444 -2.18783 0
M  V30 649 N 63.4253 5.29552 -3.10561 0
M  V30 650 C 64.7963 5.24835 -3.30072 0
M  V30 651 C 66.8513 4.47375 -2.18542 0
M  V30 652 C 65.5543 5.68063 -4.41244 0
M  V30 653 C 67.5803 4.91614 -3.28739 0
M  V30 654 C 66.9423 5.51071 -4.38748 0
M  V30 655 H 63.0413 0.779083 -0.0674836 0
M  V30 656 H 65.6253 1.78918 -0.767877 0
M  V30 657 H 63.7963 3.8144 0.731988 0
M  V30 658 H 65.5283 4.00592 0.575134 0
M  V30 659 H 62.2833 4.53224 -1.37424 0
M  V30 660 H 62.7073 5.63523 -3.75195 0
M  V30 661 H 67.3493 4.00747 -1.34765 0
M  V30 662 H 65.0673 6.13672 -5.25768 0
M  V30 663 H 68.6533 4.79389 -3.29662 0
M  V30 664 H 67.5333 5.84678 -5.22611 0
M  V30 665 N 65.0364 0.313813 1.54444 0
M  V30 666 C 66.2824 -0.292108 2.00685 0
M  V30 667 C 66.6154 -1.52548 1.20177 0
M  V30 668 O 65.8904 -1.92452 0.281531 0
M  V30 669 C 66.1734 -0.635968 3.5444 0
M  V30 670 C 66.0264 0.607437 4.4568 0
M  V30 671 C 67.3454 -1.45747 4.15266 0
M  V30 672 H 64.4644 -0.104697 0.729526 0
M  V30 673 H 67.1064 0.428457 1.85106 0
M  V30 674 H 65.2564 -1.24986 3.67846 0
M  V30 675 H 66.9284 1.24581 4.44159 0
M  V30 676 H 65.1714 1.23822 4.15753 0
M  V30 677 H 65.8424 0.322515 5.51057 0
M  V30 678 H 68.3184 -0.938645 4.05375 0
M  V30 679 H 67.1944 -1.66683 5.2298 0
M  V30 680 H 67.4554 -2.45063 3.67963 0
M  V30 681 N 66.5145 -1.57545 0.0417849 0
M  V30 682 C 67.9305 -1.56467 -0.314704 0
M  V30 683 C 68.1305 -1.04859 -1.72066 0
M  V30 684 O 67.1865 -0.700983 -2.42575 0
M  V30 685 C 68.4995 -3.00317 -0.15174 0
M  V30 686 C 70.0475 -3.12201 -0.223553 0
M  V30 687 C 70.5225 -4.57913 -0.0892295 0
M  V30 688 N 72.0135 -4.6297 -0.145808 0
M  V30 689 C 72.7485 -5.73362 -0.0658459 0
M  V30 690 N 72.2445 -6.92769 0.0659282 0
M  V30 691 N 74.0375 -5.6197 -0.12075 0
M  V30 692 H 66.1885 -1.89416 0.961014 0
M  V30 693 H 68.4515 -0.871862 0.372237 0
M  V30 694 H 68.1575 -3.42073 0.817254 0
M  V30 695 H 68.0315 -3.65892 -0.916692 0
M  V30 696 H 70.4185 -2.70349 -1.18301 0
M  V30 697 H 70.4995 -2.49323 0.571994 0
M  V30 698 H 70.1435 -5.00448 0.866867 0
M  V30 699 H 70.0735 -5.18786 -0.903802 0
M  V30 700 H 72.5645 -3.7709 -0.247286 0
M  V30 701 H 72.8775 -7.72707 0.119905 0
M  V30 702 H 71.2225 -6.94927 0.100885 0
M  V30 703 H 74.4135 -4.67572 -0.222187 0
M  V30 704 H 74.5865 -6.47977 -0.0549735 0
M  V30 705 N 67.9926 0.231505 -1.5589 0
M  V30 706 C 68.9556 1.27028 -1.90779 0
M  V30 707 C 69.9556 1.40308 -0.785507 0
M  V30 708 O 71.1456 1.38744 -1.05336 0
M  V30 709 C 68.2776 2.64566 -2.14983 0
M  V30 710 H 69.4706 0.973017 -2.83677 0
M  V30 711 H 67.0236 0.471486 -1.49019 0
M  V30 712 H 67.7586 2.99406 -1.24604 0
M  V30 713 H 67.5436 2.56305 -2.96732 0
M  V30 714 H 69.0336 3.39543 -2.43105 0
M  V30 715 N 69.4707 1.49531 0.497807 0
M  V30 716 C 70.6987 1.62893 1.27567 0
M  V30 717 C 71.1137 0.301585 1.86376 0
M  V30 718 O 70.4707 -0.713335 1.67982 0
M  V30 719 C 70.5217 2.70013 2.40364 0
M  V30 720 O 70.2427 3.976 1.83972 0
M  V30 721 C 71.7437 2.94109 3.31685 0
M  V30 722 H 68.9637 0.548298 0.386794 0
M  V30 723 H 71.5077 1.95584 0.597245 0
M  V30 724 H 69.6627 2.40092 3.04031 0
M  V30 725 H 70.0767 4.56631 2.58047 0
M  V30 726 H 71.5507 3.72788 4.07104 0
M  V30 727 H 72.0277 2.04147 3.88871 0
M  V30 728 H 72.6337 3.2546 2.73781 0
M  V30 729 N 70.9488 -0.749086 1.3866 0
M  V30 730 C 72.1958 -1.50833 1.35114 0
M  V30 731 C 72.5238 -1.94415 -0.0574049 0
M  V30 732 O 71.7788 -1.66065 -1.03541 0
M  V30 733 C 72.0778 -2.7712 2.25697 0
M  V30 734 C 71.7438 -2.52477 3.73585 0
M  V30 735 C 70.4058 -2.45466 4.13884 0
M  V30 736 C 72.7578 -2.31066 4.67181 0
M  V30 737 C 70.0858 -2.15064 5.45861 0
M  V30 738 C 72.4378 -2.02183 5.9942 0
M  V30 739 C 71.1018 -1.93631 6.38798 0
M  V30 740 H 70.3718 -0.551936 0.494416 0
M  V30 741 H 73.0188 -0.860979 1.71054 0
M  V30 742 H 71.3238 -3.46528 1.82827 0
M  V30 743 H 73.0208 -3.35096 2.20254 0
M  V30 744 H 69.6108 -2.58807 3.41638 0
M  V30 745 H 73.7948 -2.35459 4.3689 0
M  V30 746 H 69.0508 -2.06954 5.75308 0
M  V30 747 H 73.2248 -1.8462 6.71482 0
M  V30 748 H 70.8518 -1.69839 7.40985 0
M  V30 749 N 72.4269 -1.23603 -0.977757 0
M  V30 750 C 73.6519 -1.09735 -1.75991 0
M  V30 751 C 74.0769 0.346858 -1.84874 0
M  V30 752 O 73.4349 1.25093 -1.3123 0
M  V30 753 C 73.4829 -1.73051 -3.16363 0
M  V30 754 O 72.5869 -0.994452 -4.0023 0
M  V30 755 H 71.9279 -0.384476 -0.541364 0
M  V30 756 H 74.4579 -1.6371 -1.2272 0
M  V30 757 H 74.4679 -1.78398 -3.66931 0
M  V30 758 H 73.1429 -2.78137 -3.09213 0
M  V30 759 H 71.7199 -1.01812 -3.58732 0
M  V30 760 N 73.905 1.17692 -1.04816 0
M  V30 761 C 74.815 2.25229 -0.65643 0
M  V30 762 C 75.831 1.71018 0.320761 0
M  V30 763 O 77.007 2.00649 0.173805 0
M  V30 764 C 74.072 3.46684 -0.0332629 0
M  V30 765 C 73.133 4.15997 -1.06042 0
M  V30 766 C 72.366 5.31654 -0.466893 0
M  V30 767 O 72.589 5.65777 0.724758 0
M  V30 768 O 71.523 5.89831 -1.1993 0
M  V30 769 H 75.349 2.61016 -1.55255 0
M  V30 770 H 72.934 1.24919 -0.81949 0
M  V30 771 H 74.816 4.20234 0.313256 0
M  V30 772 H 73.491 3.12703 0.836566 0
M  V30 773 H 72.398 3.44482 -1.45886 0
M  V30 774 H 73.731 4.53996 -1.90127 0
M  V30 775 N 75.3831 0.828654 1.34056 0
M  V30 776 C 76.2931 0.256725 2.33191 0
M  V30 777 C 77.3091 -0.611898 1.62886 0
M  V30 778 O 78.4851 -0.51844 1.94613 0
M  V30 779 C 75.5501 -0.567238 3.42028 0
M  V30 780 C 74.6111 0.324458 4.28072 0
M  V30 781 C 73.8441 -0.460274 5.31712 0
M  V30 782 O 74.0671 -1.693 5.44696 0
M  V30 783 O 73.0011 0.160391 6.01686 0
M  V30 784 H 76.8271 1.07739 2.83947 0
M  V30 785 H 74.4121 0.59093 1.37217 0
M  V30 786 H 76.2941 -1.03582 4.08471 0
M  V30 787 H 74.9691 -1.36513 2.93506 0
M  V30 788 H 73.8761 0.840659 3.64532 0
M  V30 789 H 75.2091 1.08685 4.8005 0
M  V30 790 N 76.8612 -1.46375 0.584142 0
M  V30 791 C 77.8242 -2.28784 -0.138108 0
M  V30 792 C 78.8242 -1.38471 -0.817462 0
M  V30 793 O 80.0142 -1.60833 -0.669199 0
M  V30 794 C 77.1462 -3.18892 -1.20503 0
M  V30 795 H 78.3392 -2.94117 0.586127 0
M  V30 796 H 75.8922 -1.52509 0.342171 0
M  V30 797 H 76.6272 -2.58309 -1.96079 0
M  V30 798 H 76.4122 -3.85388 -0.722384 0
M  V30 799 H 77.9022 -3.80914 -1.71155 0
M  V30 800 N 78.3393 -0.321999 -1.54275 0
M  V30 801 C 79.7553 0.0306999 -1.5957 0
M  V30 802 C 79.9553 1.50614 -1.33857 0
M  V30 803 O 79.0113 2.2619 -1.12223 0
M  V30 804 C 80.3243 -0.386122 -2.98211 0
M  V30 805 C 81.8723 -0.336647 -3.11184 0
M  V30 806 C 82.3473 -0.728607 -4.52167 0
M  V30 807 N 83.8383 -0.681952 -4.58152 0
M  V30 808 C 84.5733 -0.957449 -5.6535 0
M  V30 809 N 84.0693 -1.3 -6.80494 0
M  V30 810 N 85.8623 -0.883113 -5.55119 0
M  V30 811 H 78.0133 -1.28332 -1.69247 0
M  V30 812 H 80.2763 -0.521716 -0.791528 0
M  V30 813 H 79.9823 -1.41404 -3.22022 0
M  V30 814 H 79.8563 0.249662 -3.76373 0
M  V30 815 H 82.2433 0.682058 -2.8711 0
M  V30 816 H 82.3243 -1.00734 -2.3513 0
M  V30 817 H 81.9683 -1.74522 -4.76974 0
M  V30 818 H 81.8983 -0.0356152 -5.26588 0
M  V30 819 H 84.3893 -0.428985 -3.75457 0
M  V30 820 H 84.7023 -1.49563 -7.58189 0
M  V30 821 H 83.0473 -1.33824 -6.81994 0
M  V30 822 H 86.2383 -0.615001 -4.64042 0
M  V30 823 H 86.4113 -1.10118 -6.38575 0
M  V30 824 N 79.8174 1.5752 -0.0501392 0
M  V30 825 C 80.7474 2.14502 0.922566 0
M  V30 826 C 81.7284 1.06642 1.3252 0
M  V30 827 O 82.9134 1.34577 1.4001 0
M  V30 828 C 80.0434 2.68916 2.19776 0
M  V30 829 C 78.9974 3.8175 1.93523 0
M  V30 830 C 78.3234 4.22677 3.27487 0
M  V30 831 C 79.6234 5.06932 1.25765 0
M  V30 832 H 81.3174 2.9603 0.447952 0
M  V30 833 H 78.8634 1.42401 0.214024 0
M  V30 834 H 80.8164 3.07419 2.88222 0
M  V30 835 H 79.5404 1.84578 2.69441 0
M  V30 836 H 78.1994 3.43718 1.27489 0
M  V30 837 H 77.8474 3.35291 3.74952 0
M  V30 838 H 77.5474 4.98725 3.1072 0
M  V30 839 H 79.0714 4.63779 3.97166 0
M  V30 840 H 80.4854 5.42888 1.84244 0
M  V30 841 H 78.8824 5.88116 1.19328 0
M  V30 842 H 79.9524 4.84337 0.233536 0
M  V30 843 N 81.2955 -0.223234 1.56011 0
M  V30 844 C 82.2055 -1.29766 1.95443 0
M  V30 845 C 83.2215 -1.51373 0.858028 0
M  V30 846 O 84.3975 -1.64536 1.16146 0
M  V30 847 C 81.4625 -2.62772 2.26167 0
M  V30 848 C 80.5235 -2.49482 3.49367 0
M  V30 849 C 79.7565 -3.76145 3.78616 0
M  V30 850 O 79.9795 -4.79087 3.09568 0
M  V30 851 O 78.9135 -3.73358 4.72109 0
M  V30 852 H 82.7395 -0.99309 2.87004 0
M  V30 853 H 80.3245 -0.425958 1.43199 0
M  V30 854 H 82.2065 -3.41327 2.47131 0
M  V30 855 H 80.8815 -2.92913 1.37781 0
M  V30 856 H 79.7885 -1.69133 3.33684 0
M  V30 857 H 81.1215 -2.2428 4.38131 0
M  V30 858 N 82.7736 -1.49793 -0.48987 0
M  V30 859 C 83.6836 -1.70036 -1.61632 0
M  V30 860 C 84.6996 -0.583102 -1.63939 0
M  V30 861 O 85.8756 -0.859169 -1.82154 0
M  V30 862 C 82.9406 -1.77277 -2.97949 0
M  V30 863 C 82.0016 -3.00918 -3.06181 0
M  V30 864 C 81.2346 -3.07804 -4.35996 0
M  V30 865 O 81.4576 -2.21982 -5.25433 0
M  V30 866 O 80.3916 -4.00369 -4.49431 0
M  V30 867 H 84.2176 -2.65486 -1.47482 0
M  V30 868 H 81.8026 -1.33666 -0.667362 0
M  V30 869 H 83.6846 -1.84329 -3.78947 0
M  V30 870 H 82.3596 -0.850076 -3.12339 0
M  V30 871 H 81.2666 -2.99377 -2.2433 0
M  V30 872 H 82.5996 -3.92704 -2.96723 0
M  V30 873 N 84.2517 0.741722 -1.39055 0
M  V30 874 C 85.4977 1.50336 -1.36113 0
M  V30 875 C 85.8307 1.94148 0.0450796 0
M  V30 876 O 85.1057 1.66301 1.00868 0
M  V30 877 C 85.3887 2.74773 -2.32749 0
M  V30 878 C 85.2417 2.37023 -3.82283 0
M  V30 879 C 86.5607 3.76846 -2.27322 0
M  V30 880 H 83.6797 0.545351 -0.495743 0
M  V30 881 H 86.3217 0.848624 -1.69995 0
M  V30 882 H 84.4717 3.30639 -2.03986 0
M  V30 883 H 86.1437 1.8684 -4.21768 0
M  V30 884 H 84.3867 1.69334 -3.99385 0
M  V30 885 H 85.0577 3.26104 -4.45376 0
M  V30 886 H 87.5337 3.30548 -2.5274 0
M  V30 887 H 86.4097 4.6159 -2.97028 0
M  V30 888 H 86.6707 4.23286 -1.27599 0
M  V30 889 N 85.7298 1.2412 0.971189 0
M  V30 890 C 87.1458 1.00584 1.23916 0
M  V30 891 C 87.3458 -0.287481 1.99439 0
M  V30 892 O 86.4018 -1.00454 2.31658 0
M  V30 893 C 87.7148 2.21864 2.0297 0
M  V30 894 C 89.2628 2.26452 2.16076 0
M  V30 895 C 89.7378 3.47343 2.98524 0
M  V30 896 N 91.2288 3.47639 3.06107 0
M  V30 897 C 91.9638 4.37837 3.70251 0
M  V30 898 N 91.4598 5.38286 4.36142 0
M  V30 899 N 93.2528 4.25558 3.67228 0
M  V30 900 H 85.4038 2.07236 0.465499 0
M  V30 901 H 87.6668 0.909236 0.268315 0
M  V30 902 H 87.3728 3.15771 1.54861 0
M  V30 903 H 87.2468 2.23698 3.03709 0
M  V30 904 H 89.6338 1.33078 2.6339 0
M  V30 905 H 89.7148 2.28645 1.14696 0
M  V30 906 H 89.3588 4.41029 2.51905 0
M  V30 907 H 89.2888 3.42393 4.00093 0
M  V30 908 H 91.7798 2.74966 2.59233 0
M  V30 909 H 92.0928 6.03352 4.82894 0
M  V30 910 H 90.4378 5.42176 4.34822 0
M  V30 911 H 93.6288 3.46322 3.14927 0
M  V30 912 H 93.8018 4.96054 4.16935 0
M  V30 913 N 87.2079 -1.17134 1.05439 0
M  V30 914 C 88.4569 -1.86791 0.761049 0
M  V30 915 C 88.7699 -1.82072 -0.714795 0
M  V30 916 O 89.9759 -2.47223 -1.12218 0
M  V30 917 C 88.4319 -3.35166 1.31117 0
M  V30 918 C 88.0399 -3.48381 2.81664 0
M  V30 919 C 89.7839 -4.10134 1.09499 0
M  V30 920 C 87.6909 -4.90793 3.29964 0
M  V30 921 H 86.6209 -0.699681 0.281002 0
M  V30 922 H 89.2719 -1.3226 1.27199 0
M  V30 923 H 87.6539 -3.8925 0.72803 0
M  V30 924 H 88.8279 -3.04502 3.45855 0
M  V30 925 H 87.1429 -2.86836 3.01851 0
M  V30 926 H 89.7399 -5.152 1.43084 0
M  V30 927 H 90.0829 -4.16287 0.0328772 0
M  V30 928 H 90.6159 -3.62264 1.64346 0
M  V30 929 H 87.3549 -4.89816 4.35616 0
M  V30 930 H 86.8749 -5.35333 2.70516 0
M  V30 931 H 88.5539 -5.59573 3.24787 0
M  V30 932 N 88.686 -0.835752 -1.33615 0
M  V30 933 C 89.596 -0.269088 -2.33052 0
M  V30 934 C 90.612 0.603251 -1.63208 0
M  V30 935 O 91.788 0.508112 -1.94885 0
M  V30 936 C 88.853 0.549091 -3.42324 0
M  V30 937 C 87.914 -0.347156 -4.27894 0
M  V30 938 C 87.147 0.43207 -5.31948 0
M  V30 939 O 87.37 1.66409 -5.45586 0
M  V30 940 O 86.304 -0.192298 -6.01593 0
M  V30 941 H 90.13 -1.09243 -2.83372 0
M  V30 942 H 87.715 -0.598198 -1.36901 0
M  V30 943 H 89.597 1.01414 -4.09015 0
M  V30 944 H 88.272 1.34955 -2.94226 0
M  V30 945 H 87.179 -0.859979 -3.64081 0
M  V30 946 H 88.512 -1.1123 -4.79467 0
M  V30 947 N 90.1641 1.46063 -0.591896 0
M  V30 948 C 91.0741 2.34192 0.13831 0
M  V30 949 C 92.0901 1.50305 0.876608 0
M  V30 950 O 93.2661 1.8315 0.837728 0
M  V30 951 C 90.3311 3.27656 1.13326 0
M  V30 952 C 89.3921 4.27445 0.39863 0
M  V30 953 C 88.6251 5.16443 1.34618 0
M  V30 954 O 88.8481 5.08553 2.58321 0
M  V30 955 O 87.7821 5.95843 0.851768 0
M  V30 956 H 91.6081 2.98002 -0.58552 0
M  V30 957 H 89.1931 1.45188 -0.352239 0
M  V30 958 H 91.0751 3.85291 1.70671 0
M  V30 959 H 89.7501 2.6643 1.83839 0
M  V30 960 H 88.6571 3.73471 -0.216895 0
M  V30 961 H 89.9901 4.91482 -0.265709 0
M  V30 962 N 91.6422 0.330177 1.54103 0
M  V30 963 C 93.0582 -0.0222371 1.59585 0
M  V30 964 C 93.2582 -1.49902 1.34654 0
M  V30 965 O 92.3142 -2.25592 1.13421 0
M  V30 966 C 93.6272 0.401932 2.98002 0
M  V30 967 C 95.1752 0.353145 3.11001 0
M  V30 968 C 95.6502 0.752576 4.51775 0
M  V30 969 N 97.1412 0.706239 4.57784 0
M  V30 970 C 97.8762 0.987417 5.64834 0
M  V30 971 N 97.3722 1.33607 6.79795 0
M  V30 972 N 99.1652 0.91254 5.54643 0
M  V30 973 H 91.3162 1.29228 1.68564 0
M  V30 974 H 93.5792 0.525906 0.78875 0
M  V30 975 H 93.2852 1.4311 3.21267 0
M  V30 976 H 93.1592 -0.229699 3.765 0
M  V30 977 H 95.5462 -0.666822 2.87467 0
M  V30 978 H 95.6272 1.0198 2.34593 0
M  V30 979 H 95.2712 1.77049 4.76042 0
M  V30 980 H 95.2012 0.0635409 5.26562 0
M  V30 981 H 97.6922 0.44889 3.75224 0
M  V30 982 H 98.0052 1.53582 7.57385 0
M  V30 983 H 96.3502 1.37439 6.81275 0
M  V30 984 H 99.5412 0.639601 4.6371 0
M  V30 985 H 99.7142 1.13503 6.37982 0
M  V30 986 N 93.1203 -1.57491 0.0584922 0
M  V30 987 C 94.3683 -1.92597 -0.612436 0
M  V30 988 C 94.6893 -0.938162 -1.70949 0
M  V30 989 O 93.9593 0.0158301 -1.95894 0
M  V30 990 H 92.5393 -0.710964 -0.229214 0
M  V30 991 H 95.2013 -1.94571 0.113218 0
M  V30 992 H 94.2973 -2.94038 -1.04633 0
M  V30 993 N 94.5984 0.214957 -1.56127 0
M  V30 994 C 96.0094 0.781386 -1.69562 0
M  V30 995 C 96.3604 1.84707 -0.66165 0
M  V30 996 O 95.4854 2.156 0.185927 0
M  V30 997 C 96.0804 1.42411 -3.07416 0
M  V30 998 C 94.6394 1.93786 -3.22683 0
M  V30 999 C 93.7864 0.800438 -2.65496 0
M  V30 1000 H 96.7374 -0.00980633 -1.58697 0
M  V30 1001 H 96.7584 2.29309 -3.0364 0
M  V30 1002 H 96.2704 0.64826 -3.82648 0
M  V30 1003 H 94.3714 2.74152 -2.52332 0
M  V30 1004 H 94.4844 2.1133 -4.29973 0
M  V30 1005 H 92.8484 1.2095 -2.2415 0
M  V30 1006 H 93.6314 0.0371471 -3.4328 0
M  V30 1007 N 96.0765 1.50051 0.48192 0
M  V30 1008 C 97.3225 1.61706 1.2338 0
M  V30 1009 C 97.6775 0.308488 1.89911 0
M  V30 1010 O 96.9705 -0.692798 1.78636 0
M  V30 1011 C 97.1645 2.72717 2.30998 0
M  V30 1012 C 96.9935 4.14242 1.75024 0
M  V30 1013 C 95.7635 4.80786 1.55476 0
M  V30 1014 C 97.9615 4.98846 1.25128 0
M  V30 1015 N 95.9435 6.06563 0.946311 0
M  V30 1016 C 97.3145 6.15258 0.765382 0
M  V30 1017 C 99.3695 4.84702 1.13881 0
M  V30 1018 C 98.0725 7.19079 0.178113 0
M  V30 1019 C 100.098 5.8869 0.565486 0
M  V30 1020 C 99.4605 7.04343 0.0899105 0
M  V30 1021 H 95.5595 0.645958 0.440753 0
M  V30 1022 H 98.1435 1.8713 0.537624 0
M  V30 1023 H 96.3145 2.49033 2.98055 0
M  V30 1024 H 98.0465 2.73789 2.9803 0
M  V30 1025 H 94.8015 4.37899 1.80392 0
M  V30 1026 H 95.2255 6.73767 0.660812 0
M  V30 1027 H 99.8675 3.95583 1.49244 0
M  V30 1028 H 97.5855 8.07882 -0.187749 0
M  V30 1029 H 101.171 5.79808 0.480974 0
M  V30 1030 H 100.051 7.83433 -0.346782 0
M  V30 1031 N 97.5546 -0.734337 1.39446 0
M  V30 1032 C 98.8006 -1.49613 1.36908 0
M  V30 1033 C 99.1336 -1.94169 -0.0347829 0
M  V30 1034 O 98.4086 -1.66833 -0.999847 0
M  V30 1035 C 98.6916 -2.73534 2.34203 0
M  V30 1036 C 98.5446 -2.34993 3.83534 0
M  V30 1037 C 99.8636 -3.75635 2.29317 0
M  V30 1038 H 96.9826 -0.542714 0.498629 0
M  V30 1039 H 99.6246 -0.839597 1.70443 0
M  V30 1040 H 97.7746 -3.29553 2.05736 0
M  V30 1041 H 99.4466 -1.84601 4.22753 0
M  V30 1042 H 97.6896 -1.67213 4.00278 0
M  V30 1043 H 98.3606 -3.23738 4.47099 0
M  V30 1044 H 100.837 -3.29203 2.54489 0
M  V30 1045 H 99.7126 -4.60008 2.99472 0
M  V30 1046 H 99.9736 -4.22603 1.29842 0
M  V30 1047 N 99.0327 -1.24633 -0.964593 0
M  V30 1048 C 99.9797 -1.04144 -2.05968 0
M  V30 1049 C 100.95 0.046262 -1.66036 0
M  V30 1050 O 102.135 -0.108972 -1.90489 0
M  V30 1051 C 99.2747 -0.65563 -3.38815 0
M  V30 1052 C 98.3877 -1.81714 -3.91923 0
M  V30 1053 C 97.5227 -1.37662 -5.13052 0
M  V30 1054 C 96.5617 -2.50788 -5.58365 0
M  V30 1055 N 95.6987 -2.07582 -6.70712 0
M  V30 1056 H 100.539 -1.9787 -2.22827 0
M  V30 1057 H 98.0757 -0.9855 -1.09208 0
M  V30 1058 H 100.034 -0.412954 -4.15151 0
M  V30 1059 H 98.6637 0.244627 -3.21872 0
M  V30 1060 H 97.7157 -2.1734 -3.12198 0
M  V30 1061 H 99.0277 -2.66705 -4.21509 0
M  V30 1062 H 98.1817 -1.093 -5.96773 0
M  V30 1063 H 96.9207 -0.497293 -4.85158 0
M  V30 1064 H 95.9257 -2.79906 -4.73215 0
M  V30 1065 H 97.1507 -3.39283 -5.88272 0
M  V30 1066 H 95.0967 -1.22051 -6.44546 0
M  V30 1067 H 95.0137 -2.86125 -6.99763 0
M  V30 1068 H 96.2817 -1.82369 -7.57867 0
M  V30 1069 N 100.511 1.16574 -1.06058 0
M  V30 1070 C 101.474 2.19085 -0.673392 0
M  V30 1071 C 102.474 1.5835 0.279648 0
M  V30 1072 O 103.664 1.74088 0.0623488 0
M  V30 1073 C 100.796 3.40899 0.00954234 0
M  V30 1074 H 101.989 2.54853 -1.58081 0
M  V30 1075 H 99.5418 1.30808 -0.855516 0
M  V30 1076 H 100.277 3.10684 0.929826 0
M  V30 1077 H 100.062 3.86233 -0.67573 0
M  V30 1078 H 101.552 4.1675 0.266245 0
M  V30 1079 N 101.989 0.842826 1.3317 0
M  V30 1080 C 103.219 0.453397 2.01564 0
M  V30 1081 C 103.627 -0.951147 1.63554 0
M  V30 1082 O 102.97 -1.63021 0.846746 0
M  V30 1083 C 103.032 0.499013 3.5602 0
M  V30 1084 C 102.696 1.86037 4.1742 0
M  V30 1085 C 103.693 2.82416 4.36506 0
M  V30 1086 C 101.378 2.15428 4.53757 0
M  V30 1087 C 103.372 4.06346 4.91082 0
M  V30 1088 C 101.059 3.39615 5.0804 0
M  V30 1089 C 102.057 4.3489 5.26649 0
M  V30 1090 O 101.745 5.5688 5.79776 0
M  V30 1091 H 101.477 0.177871 0.652179 0
M  V30 1092 H 104.031 1.13808 1.70988 0
M  V30 1093 H 102.261 -0.242467 3.85939 0
M  V30 1094 H 103.95 0.126852 4.05702 0
M  V30 1095 H 104.716 2.6101 4.08777 0
M  V30 1096 H 100.595 1.42061 4.38565 0
M  V30 1097 H 104.139 4.80722 5.05522 0
M  V30 1098 H 100.036 3.60876 5.352 0
M  V30 1099 H 100.804 5.58674 5.98185 0
M  V30 1100 N 103.467 -1.45747 0.599634 0
M  V30 1101 C 104.397 -2.33235 -0.111306 0
M  V30 1102 C 105.378 -1.46359 -0.866781 0
M  V30 1103 O 106.563 -1.75146 -0.838904 0
M  V30 1104 C 103.693 -3.28932 -1.11451 0
M  V30 1105 C 102.647 -4.25381 -0.472772 0
M  V30 1106 C 101.973 -5.1071 -1.58365 0
M  V30 1107 C 103.273 -5.18831 0.600948 0
M  V30 1108 H 104.967 -2.92927 0.61919 0
M  V30 1109 H 102.513 -1.40857 0.299215 0
M  V30 1110 H 104.466 -3.89002 -1.62036 0
M  V30 1111 H 103.19 -2.67381 -1.8755 0
M  V30 1112 H 101.849 -3.66598 0.0121472 0
M  V30 1113 H 101.497 -4.45533 -2.33473 0
M  V30 1114 H 101.197 -5.7604 -1.15982 0
M  V30 1115 H 102.721 -5.73647 -2.09194 0
M  V30 1116 H 104.135 -5.73019 0.179491 0
M  V30 1117 H 102.532 -5.92595 0.946076 0
M  V30 1118 H 103.602 -4.6174 1.48068 0
M  V30 1119 N 104.945 -0.338344 -1.53925 0
M  V30 1120 C 106.191 0.260143 -2.01125 0
M  V30 1121 C 106.524 1.50617 -1.22589 0
M  V30 1122 O 105.799 1.91979 -0.312113 0
M  V30 1123 C 106.082 0.579499 -3.55407 0
M  V30 1124 C 105.935 -0.678264 -4.44657 0
M  V30 1125 C 107.254 1.39122 -4.17532 0
M  V30 1126 H 104.373 0.0930772 -0.731099 0
M  V30 1127 H 107.015 -0.457852 -1.84401 0
M  V30 1128 H 105.165 1.19118 -3.69788 0
M  V30 1129 H 106.837 -1.31631 -4.42121 0
M  V30 1130 H 105.08 -1.3042 -4.13731 0
M  V30 1131 H 105.751 -0.410143 -5.50474 0
M  V30 1132 H 108.227 0.874035 -4.06817 0
M  V30 1133 H 107.103 1.58342 -5.25565 0
M  V30 1134 H 107.364 2.39178 -3.71815 0
M  V30 1135 N 106.423 1.57458 -0.0668435 0
M  V30 1136 C 107.353 2.15468 0.899764 0
M  V30 1137 C 108.334 1.08042 1.31381 0
M  V30 1138 O 109.519 1.36054 1.38574 0
M  V30 1139 C 106.649 2.71232 2.16911 0
M  V30 1140 C 105.603 3.83781 1.89463 0
M  V30 1141 C 104.929 4.26127 3.22986 0
M  V30 1142 C 106.229 5.08238 1.20381 0
M  V30 1143 H 107.923 2.96488 0.416529 0
M  V30 1144 H 105.469 1.4262 0.198908 0
M  V30 1145 H 107.422 3.10458 2.84945 0
M  V30 1146 H 106.146 1.87426 2.67468 0
M  V30 1147 H 104.805 3.45051 1.23836 0
M  V30 1148 H 104.453 3.39249 3.71374 0
M  V30 1149 H 104.153 5.01993 3.05413 0
M  V30 1150 H 105.677 4.67966 3.92225 0
M  V30 1151 H 107.091 5.44811 1.78475 0
M  V30 1152 H 105.488 5.89349 1.13083 0
M  V30 1153 H 106.558 4.84558 0.182153 0
M  V30 1154 N 107.901 -0.206675 1.56239 0
M  V30 1155 C 109.131 -0.943975 1.83773 0
M  V30 1156 C 109.539 -1.77841 0.645703 0
M  V30 1157 O 108.882 -1.79403 -0.395008 0
M  V30 1158 C 108.944 -1.899 3.05251 0
M  V30 1159 C 108.608 -1.24764 4.39639 0
M  V30 1160 C 109.605 -0.630216 5.16066 0
M  V30 1161 C 107.29 -1.25496 4.8637 0
M  V30 1162 C 109.284 -0.0287946 6.37393 0
M  V30 1163 C 106.971 -0.649698 6.07637 0
M  V30 1164 C 107.969 -0.0376845 6.8299 0
M  V30 1165 O 107.657 0.55812 8.0196 0
M  V30 1166 H 107.389 -0.281508 0.614597 0
M  V30 1167 H 109.943 -0.222458 2.04192 0
M  V30 1168 H 108.173 -2.6599 2.80689 0
M  V30 1169 H 109.862 -2.5031 3.1953 0
M  V30 1170 H 110.628 -0.616785 4.81062 0
M  V30 1171 H 106.507 -1.72072 4.27683 0
M  V30 1172 H 110.051 0.449518 6.9615 0
M  V30 1173 H 105.948 -0.660592 6.42111 0
M  V30 1174 H 106.716 0.453891 8.17241 0
M  V30 1175 N 109.379 -1.50304 -0.473955 0
M  V30 1176 C 110.627 -1.60832 -1.22382 0
M  V30 1177 C 110.948 -0.30939 -1.9253 0
M  V30 1178 O 110.218 0.67296 -1.83978 0
M  V30 1179 H 108.798 -0.592652 -0.454723 0
M  V30 1180 H 111.46 -1.87068 -0.546968 0
M  V30 1181 H 110.556 -2.41803 -1.97327 0
M  V30 1182 N 110.857 0.726932 -1.39834 0
M  V30 1183 C 112.273 1.03354 -1.21615 0
M  V30 1184 C 112.473 2.01327 -0.08338 0
M  V30 1185 O 111.529 2.46158 0.56238 0
M  V30 1186 C 112.842 1.58811 -2.55342 0
M  V30 1187 C 114.39 1.70851 -2.62257 0
M  V30 1188 C 114.865 2.29716 -3.96225 0
M  V30 1189 N 116.356 2.37116 -3.97907 0
M  V30 1190 C 117.091 2.83619 -4.98345 0
M  V30 1191 N 116.587 3.29958 -6.09179 0
M  V30 1192 N 118.38 2.82901 -4.8572 0
M  V30 1193 H 110.531 0.0773069 -2.12259 0
M  V30 1194 H 112.794 0.0969102 -0.943034 0
M  V30 1195 H 112.5 0.942855 -3.38826 0
M  V30 1196 H 112.374 2.57502 -2.75632 0
M  V30 1197 H 114.761 2.34497 -1.79152 0
M  V30 1198 H 114.842 0.707913 -2.45809 0
M  V30 1199 H 114.486 1.66696 -4.79765 0
M  V30 1200 H 114.416 3.30469 -4.09997 0
M  V30 1201 H 116.907 2.04374 -3.17868 0
M  V30 1202 H 117.22 3.63976 -6.8172 0
M  V30 1203 H 115.565 3.27946 -6.12761 0
M  V30 1204 H 118.756 2.46027 -3.98231 0
M  V30 1205 H 118.929 3.18827 -5.6414 0
M  V30 1206 N 112.336 1.25143 0.95797 0
M  V30 1207 C 113.286 1.01924 2.0395 0
M  V30 1208 C 114.27 -0.0427175 1.60843 0
M  V30 1209 O 115.462 0.17221 1.7616 0
M  V30 1210 C 112.591 0.636373 3.3735 0
M  V30 1211 C 111.677 1.73492 3.8699 0
M  V30 1212 N 112.068 2.96945 4.0946 0
M  V30 1213 C 110.366 1.61467 4.15746 0
M  V30 1214 C 111.067 3.68228 4.50315 0
M  V30 1215 N 110.043 2.95833 4.56053 0
M  V30 1216 H 113.845 1.95653 2.19311 0
M  V30 1217 H 111.359 1.15413 1.14253 0
M  V30 1218 H 113.356 0.451233 4.14451 0
M  V30 1219 H 112.016 -0.293621 3.2337 0
M  V30 1220 H 113.027 3.33025 3.96629 0
M  V30 1221 H 109.704 0.753394 4.10646 0
M  V30 1222 H 111.094 4.74178 4.76031 0
M  V30 1223 N 113.814 -1.1601 1.06675 0
M  V30 1224 C 115.06 -1.86909 0.786945 0
M  V30 1225 C 115.393 -1.81717 -0.685018 0
M  V30 1226 O 114.668 -1.23551 -1.50218 0
M  V30 1227 C 114.951 -3.36313 1.28707 0
M  V30 1228 C 114.804 -3.50175 2.82308 0
M  V30 1229 C 116.123 -4.3084 0.898071 0
M  V30 1230 H 113.242 -0.678677 0.287343 0
M  V30 1231 H 115.884 -1.36336 1.32334 0
M  V30 1232 H 114.034 -3.79513 0.830768 0
M  V30 1233 H 115.706 -3.15886 3.36175 0
M  V30 1234 H 113.949 -2.91959 3.20847 0
M  V30 1235 H 114.62 -4.55116 3.12368 0
M  V30 1236 H 117.096 -3.95561 1.29114 0
M  V30 1237 H 115.972 -5.33876 1.27543 0
M  V30 1238 H 116.233 -4.41662 -0.196651 0
M  V30 1239 N 115.292 -0.849877 -1.32721 0
M  V30 1240 C 116.54 -0.450032 -1.97026 0
M  V30 1241 C 116.861 0.996604 -1.67609 0
M  V30 1242 O 116.131 1.6958 -0.980786 0
M  V30 1243 H 114.711 -0.163426 -0.728904 0
M  V30 1244 H 117.373 -1.08526 -1.6189 0
M  V30 1245 H 116.469 -0.591146 -3.0645 0
M  V30 1246 N 116.77 1.45427 -0.607355 0
M  V30 1247 C 118.186 1.57283 -0.270985 0
M  V30 1248 C 118.386 1.59875 1.22647 0
M  V30 1249 O 117.442 1.52893 2.00948 0
M  V30 1250 C 118.755 2.85566 -0.941952 0
M  V30 1251 C 120.303 2.9924 -0.917849 0
M  V30 1252 C 120.778 4.30293 -1.56882 0
M  V30 1253 N 122.269 4.37051 -1.5343 0
M  V30 1254 C 123.004 5.37123 -2.00715 0
M  V30 1255 N 122.5 6.43734 -2.56084 0
M  V30 1256 N 124.293 5.28479 -1.91484 0
M  V30 1257 H 116.444 1.41988 -1.57966 0
M  V30 1258 H 118.707 0.67885 -0.661715 0
M  V30 1259 H 118.413 2.8955 -1.99633 0
M  V30 1260 H 118.287 3.74322 -0.465096 0
M  V30 1261 H 120.674 2.94822 0.127984 0
M  V30 1262 H 120.755 2.11895 -1.43297 0
M  V30 1263 H 120.399 4.35469 -2.61398 0
M  V30 1264 H 120.329 5.16454 -1.02873 0
M  V30 1265 H 122.82 3.60615 -1.12982 0
M  V30 1266 H 123.133 7.16341 -2.89958 0
M  V30 1267 H 121.478 6.44485 -2.60122 0
M  V30 1268 H 124.669 4.44098 -1.47967 0
M  V30 1269 H 124.842 6.0632 -2.28648 0
M  V30 1270 N 118.248 0.346503 1.53744 0
M  V30 1271 C 119.178 -0.501193 2.28058 0
M  V30 1272 C 120.159 -1.10014 1.29734 0
M  V30 1273 O 121.344 -1.12097 1.58581 0
M  V30 1274 C 118.474 -1.65078 3.05559 0
M  V30 1275 C 117.428 -1.18003 4.11411 0
M  V30 1276 C 116.754 -2.41837 4.76884 0
M  V30 1277 C 118.054 -0.278394 5.21558 0
M  V30 1278 H 119.748 0.11875 2.99164 0
M  V30 1279 H 117.294 0.0585531 1.43881 0
M  V30 1280 H 119.247 -2.25028 3.56287 0
M  V30 1281 H 117.971 -2.29767 2.32109 0
M  V30 1282 H 116.63 -0.603331 3.61601 0
M  V30 1283 H 116.278 -3.0494 4.00026 0
M  V30 1284 H 115.978 -2.1102 5.48402 0
M  V30 1285 H 117.502 -3.02508 5.30397 0
M  V30 1286 H 118.916 -0.784823 5.67903 0
M  V30 1287 H 117.313 -0.0619707 6.00068 0
M  V30 1288 H 118.383 0.684677 4.80042 0
M  V30 1289 N 119.726 -1.57421 0.075193 0
M  V30 1290 C 120.972 -1.93905 -0.594025 0
M  V30 1291 C 121.305 -0.955701 -1.69056 0
M  V30 1292 O 120.58 0.0145373 -1.94495 0
M  V30 1293 C 120.863 -3.40638 -1.1678 0
M  V30 1294 C 120.716 -4.49733 -0.0776792 0
M  V30 1295 C 122.035 -3.88259 -2.07228 0
M  V30 1296 H 119.154 -0.705105 -0.214466 0
M  V30 1297 H 121.796 -1.8947 0.141854 0
M  V30 1298 H 119.946 -3.44549 -1.79494 0
M  V30 1299 H 121.618 -4.57942 0.555573 0
M  V30 1300 H 119.861 -4.29751 0.591286 0
M  V30 1301 H 120.532 -5.49549 -0.519603 0
M  V30 1302 H 123.008 -3.86376 -1.54445 0
M  V30 1303 H 121.884 -4.91533 -2.44308 0
M  V30 1304 H 122.145 -3.26396 -2.98191 0
M  V30 1305 N 121.204 0.198386 -1.56346 0
M  V30 1306 C 122.452 0.91747 -1.80075 0
M  V30 1307 C 122.773 1.83929 -0.647692 0
M  V30 1308 O 122.043 1.93029 0.334166 0
M  V30 1309 H 120.623 0.341774 -0.664228 0
M  V30 1310 H 123.285 0.204684 -1.93822 0
M  V30 1311 H 122.381 1.51055 -2.7311 0
M  V30 1312 N 122.682 1.50554 0.465978 0
M  V30 1313 C 123.615 1.64436 1.58227 0
M  V30 1314 C 124.593 0.492367 1.54966 0
M  V30 1315 O 125.777 0.712536 1.74514 0
M  V30 1316 C 122.904 1.63165 2.96808 0
M  V30 1317 C 121.95 2.83987 3.18204 0
M  V30 1318 S 122.783 4.45219 2.97557 0
M  V30 1319 C 123.939 4.46649 4.3847 0
M  V30 1320 H 124.172 2.58861 1.46213 0
M  V30 1321 H 121.705 1.3988 0.653678 0
M  V30 1322 H 123.663 1.63116 3.76701 0
M  V30 1323 H 122.324 0.69967 3.06208 0
M  V30 1324 H 121.517 2.79416 4.19455 0
M  V30 1325 H 121.119 2.81629 2.46092 0
M  V30 1326 H 123.411 4.20526 5.31191 0
M  V30 1327 H 124.354 5.48295 4.48082 0
M  V30 1328 H 124.762 3.76296 4.20787 0
M  V30 1329 N 124.16 -0.719506 1.40217 0
M  V30 1330 C 125.571 -1.29848 1.34151 0
M  V30 1331 C 125.922 -1.96196 0.0131349 0
M  V30 1332 O 125.047 -1.973 -0.88892 0
M  V30 1333 C 125.642 -2.36118 2.42968 0
M  V30 1334 C 124.201 -2.8965 2.40374 0
M  V30 1335 C 123.348 -1.63393 2.24049 0
M  V30 1336 H 126.299 -0.51591 1.5008 0
M  V30 1337 H 126.32 -3.16871 2.10649 0
M  V30 1338 H 125.832 -1.878 3.39636 0
M  V30 1339 H 123.933 -3.42208 1.47392 0
M  V30 1340 H 124.046 -3.4171 3.35814 0
M  V30 1341 H 122.41 -1.88312 1.71495 0
M  V30 1342 H 123.193 -1.17104 3.2271 0
M  V30 1343 N 125.638 -1.25649 -0.95132 0
M  V30 1344 C 127.049 -1.09654 -1.51106 0
M  V30 1345 C 127.4 0.326615 -1.93462 0
M  V30 1346 O 126.525 1.21697 -1.78938 0
M  V30 1347 C 127.12 -1.98437 -2.74605 0
M  V30 1348 C 125.679 -1.86618 -3.2688 0
M  V30 1349 C 124.826 -1.9239 -1.99703 0
M  V30 1350 H 127.777 -1.38887 -0.767865 0
M  V30 1351 H 127.798 -1.5263 -3.48546 0
M  V30 1352 H 127.31 -3.02009 -2.43746 0
M  V30 1353 H 125.411 -0.859421 -3.62553 0
M  V30 1354 H 125.524 -2.71607 -3.94673 0
M  V30 1355 H 123.888 -1.36317 -2.15151 0
M  V30 1356 H 124.671 -2.97573 -1.71188 0
M  V30 1357 N 127.117 1.15442 -1.07289 0
M  V30 1358 C 128.345 1.90096 -0.81676 0
M  V30 1359 C 128.76 1.7798 0.629966 0
M  V30 1360 O 128.117 1.1313 1.43206 0
M  V30 1361 C 128.168 3.40466 -1.21512 0
M  V30 1362 O 127.889 3.52232 -2.60508 0
M  V30 1363 C 129.39 4.32145 -0.988198 0
M  V30 1364 H 126.61 0.602495 -0.295366 0
M  V30 1365 H 129.154 1.4627 -1.42918 0
M  V30 1366 H 127.309 3.81958 -0.647039 0
M  V30 1367 H 127.723 4.45549 -2.76742 0
M  V30 1368 H 129.197 5.36072 -1.31645 0
M  V30 1369 H 129.674 4.39135 0.0755063 0
M  V30 1370 H 130.28 3.96395 -1.54115 0
M  V30 1371 N 128.595 0.856903 1.32268 0
M  V30 1372 C 129.872 0.382583 1.91822 0
M  V30 1373 C 130.252 -1.13407 1.78051 0
M  V30 1374 O 129.6 -1.95673 1.18001 0
M  V30 1375 C 129.81 0.849446 3.38505 0
M  V30 1376 C 131.158 0.867936 4.15634 0
M  V30 1377 O 132.182 0.794232 3.47232 0
M  V30 1378 O 131.041 0.972286 5.37781 0
M  V30 1379 H 128.135 0.112014 0.819379 0
M  V30 1380 H 130.681 0.943952 1.41024 0
M  V30 1381 H 129.453 1.89267 3.42482 0
M  V30 1382 H 129.076 0.265652 3.96712 0
M  V30 1383 N 130.073 -1.45103 0.615059 0
M  V30 1384 C 131.489 -1.57137 0.279322 0
M  V30 1385 C 131.689 -1.60523 -1.21797 0
M  V30 1386 O 130.745 -1.53956 -2.00134 0
M  V30 1387 C 132.058 -2.85062 0.957083 0
M  V30 1388 C 133.606 -2.98749 0.933706 0
M  V30 1389 C 134.081 -4.29455 1.59162 0
M  V30 1390 N 135.572 -4.36231 1.55746 0
M  V30 1391 C 136.307 -5.36051 2.0356 0
M  V30 1392 N 135.803 -6.42367 2.59494 0
M  V30 1393 N 137.596 -5.27456 1.94284 0
M  V30 1394 H 129.747 -1.41148 1.58717 0
M  V30 1395 H 132.01 -0.675331 0.665306 0
M  V30 1396 H 131.716 -2.88488 2.01166 0
M  V30 1397 H 131.59 -3.7407 0.48494 0
M  V30 1398 H 133.977 -2.94886 -0.112347 0
M  V30 1399 H 134.058 -2.11132 1.44419 0
M  V30 1400 H 133.702 -4.34077 2.63704 0
M  V30 1401 H 133.632 -5.15901 1.0561 0
M  V30 1402 H 136.123 -3.60011 1.14893 0
M  V30 1403 H 136.436 -7.14793 2.93752 0
M  V30 1404 H 134.781 -6.43097 2.63537 0
M  V30 1405 H 137.972 -4.43308 1.5032 0
M  V30 1406 H 138.145 -6.05099 2.3186 0
M  V30 1407 N 131.551 -0.354651 -1.53558 0
M  V30 1408 C 132.967 -0.00315426 -1.596 0
M  V30 1409 C 133.167 1.47741 -1.37021 0
M  V30 1410 O 132.223 2.23759 -1.16996 0
M  V30 1411 C 133.536 -0.44929 -2.97325 0
M  V30 1412 C 135.084 -0.402578 -3.104 0
M  V30 1413 C 135.559 -0.824355 -4.5052 0
M  V30 1414 N 137.05 -0.778979 -4.56603 0
M  V30 1415 C 137.785 -1.07715 -5.63192 0
M  V30 1416 N 137.281 -1.44405 -6.77583 0
M  V30 1417 N 139.074 -1.00066 -5.53121 0
M  V30 1418 H 131.225 -1.31893 -1.66487 0
M  V30 1419 H 133.488 -0.538388 -0.780284 0
M  V30 1420 H 133.194 -1.48202 -3.1895 0
M  V30 1421 H 133.068 0.169772 -3.76818 0
M  V30 1422 H 135.455 0.621004 -2.88492 0
M  V30 1423 H 135.536 -1.05699 -2.32941 0
M  V30 1424 H 135.18 -1.846 -4.73165 0
M  V30 1425 H 135.11 -0.147304 -5.26394 0
M  V30 1426 H 137.601 -0.508528 -3.74463 0
M  V30 1427 H 137.914 -1.65612 -7.54846 0
M  V30 1428 H 136.259 -1.4826 -6.79002 0
M  V30 1429 H 139.45 -0.713293 -4.62633 0
M  V30 1430 H 139.623 -1.23638 -6.36096 0
M  V30 1431 N 133.029 1.57378 -0.0835403 0
M  V30 1432 C 134.276 1.9393 0.58287 0
M  V30 1433 C 134.604 0.964455 1.68904 0
M  V30 1434 O 133.859 -0.0179474 1.95692 0
M  V30 1435 C 134.158 3.37063 1.1884 0
M  V30 1436 C 133.824 4.50424 0.207194 0
M  V30 1437 C 132.486 4.81159 -0.0627115 0
M  V30 1438 C 134.838 5.19136 -0.463426 0
M  V30 1439 C 132.166 5.77939 -1.01012 0
M  V30 1440 C 134.518 6.16931 -1.39924 0
M  V30 1441 C 133.182 6.46078 -1.67749 0
M  V30 1442 H 132.452 0.70964 0.213287 0
M  V30 1443 H 135.099 1.90856 -0.156916 0
M  V30 1444 H 133.404 3.3666 2.00418 0
M  V30 1445 H 135.101 3.6264 1.71153 0
M  V30 1446 H 131.691 4.2646 0.427747 0
M  V30 1447 H 135.875 4.95576 -0.268034 0
M  V30 1448 H 131.131 5.98842 -1.23283 0
M  V30 1449 H 135.305 6.69273 -1.92476 0
M  V30 1450 H 132.932 7.2088 -2.41321 0
M  V30 1451 N 134.507 -0.190092 1.56449 0
M  V30 1452 C 135.732 -0.929864 1.85387 0
M  V30 1453 C 136.157 -1.7585 0.667704 0
M  V30 1454 O 135.515 -1.77198 -0.383459 0
M  V30 1455 C 135.563 -1.79773 3.12593 0
M  V30 1456 O 134.667 -2.89713 2.93496 0
M  V30 1457 H 134.008 -0.261574 0.610307 0
M  V30 1458 H 136.538 -0.193896 2.03679 0
M  V30 1459 H 136.548 -2.20139 3.43515 0
M  V30 1460 H 135.223 -1.18892 3.98544 0
M  V30 1461 H 133.8 -2.53065 2.73884 0
M  V30 1462 N 135.985 -1.50799 -0.457987 0
M  V30 1463 C 137.233 -1.62121 -1.2067 0
M  V30 1464 C 137.554 -0.329793 -1.92191 0
M  V30 1465 O 136.824 0.653409 -1.84682 0
M  V30 1466 H 135.404 -0.597441 -0.448411 0
M  V30 1467 H 138.066 -1.87637 -0.527096 0
M  V30 1468 H 137.162 -2.43882 -1.94751 0
M  V30 1469 N 137.463 0.71206 -1.40597 0
M  V30 1470 C 138.373 1.8562 -1.43466 0
M  V30 1471 C 139.389 1.70902 -0.326902 0
M  V30 1472 O 140.565 1.93105 -0.572043 0
M  V30 1473 C 137.63 3.21451 -1.29884 0
M  V30 1474 C 136.691 3.48398 -2.50833 0
M  V30 1475 C 135.924 4.77749 -2.3789 0
M  V30 1476 O 136.147 5.53089 -1.39459 0
M  V30 1477 O 135.081 5.05111 -3.27333 0
M  V30 1478 H 138.907 1.86155 -2.39958 0
M  V30 1479 H 136.492 0.86295 -1.21957 0
M  V30 1480 H 138.374 4.02579 -1.24531 0
M  V30 1481 H 137.049 3.21636 -0.364997 0
M  V30 1482 H 135.956 2.67265 -2.61763 0
M  V30 1483 H 137.289 3.53014 -3.4299 0
M  V30 1484 N 138.941 1.26152 0.944643 0
M  V30 1485 C 139.873 1.03199 2.04652 0
M  V30 1486 C 140.886 -0.00642356 1.62799 0
M  V30 1487 O 142.075 0.233263 1.76969 0
M  V30 1488 C 139.175 0.540111 3.34568 0
M  V30 1489 C 138.348 1.64697 4.05208 0
M  V30 1490 C 137.407 1.15374 5.13396 0
M  V30 1491 O 136.433 1.85013 5.38293 0
M  V30 1492 N 137.635 0.00031529 5.805 0
M  V30 1493 H 140.4 1.9808 2.2491 0
M  V30 1494 H 137.961 1.17491 1.11389 0
M  V30 1495 H 139.953 0.194401 4.04233 0
M  V30 1496 H 138.523 -0.315021 3.11009 0
M  V30 1497 H 137.743 2.16379 3.29506 0
M  V30 1498 H 139.031 2.3903 4.49157 0
M  V30 1499 H 138.429 -0.581336 5.62705 0
M  V30 1500 H 136.986 -0.286346 6.51171 0
M  V30 1501 N 140.419 -1.14872 1.07899 0
M  V30 1502 C 141.665 -1.86064 0.806725 0
M  V30 1503 C 141.998 -1.82434 -0.665706 0
M  V30 1504 O 141.273 -1.25138 -1.48899 0
M  V30 1505 C 141.556 -3.34929 1.32267 0
M  V30 1506 C 141.409 -3.47161 2.86006 0
M  V30 1507 C 142.728 -4.29863 0.943717 0
M  V30 1508 H 139.847 -0.675591 0.294526 0
M  V30 1509 H 142.489 -1.34925 1.33773 0
M  V30 1510 H 140.639 -3.78611 0.870974 0
M  V30 1511 H 142.311 -3.12302 3.39507 0
M  V30 1512 H 140.554 -2.88539 3.23925 0
M  V30 1513 H 141.225 -4.51777 3.17177 0
M  V30 1514 H 143.701 -3.9417 1.33302 0
M  V30 1515 H 142.577 -5.32494 1.33198 0
M  V30 1516 H 142.838 -4.41846 -0.149796 0
M  V30 1517 N 141.898 -0.863906 -1.31812 0
M  V30 1518 C 142.848 -0.286898 -2.26188 0
M  V30 1519 C 143.832 0.572577 -1.50367 0
M  V30 1520 O 145.024 0.420447 -1.71934 0
M  V30 1521 C 142.153 0.515849 -3.39402 0
M  V30 1522 C 141.239 -0.356531 -4.22599 0
M  V30 1523 N 141.63 -1.44716 -4.84656 0
M  V30 1524 C 139.928 -0.147898 -4.45755 0
M  V30 1525 C 140.629 -1.98462 -5.46798 0
M  V30 1526 N 139.605 -1.28247 -5.28255 0
M  V30 1527 H 143.407 -1.12055 -2.717 0
M  V30 1528 H 140.921 -0.711012 -1.46008 0
M  V30 1529 H 142.918 0.945701 -4.06032 0
M  V30 1530 H 141.578 1.34718 -2.95434 0
M  V30 1531 H 142.589 -1.83008 -4.84488 0
M  V30 1532 H 139.266 0.647973 -4.12441 0
M  V30 1533 H 140.656 -2.89932 -6.06126 0
M  V30 1534 N 143.376 1.44774 -0.622745 0
M  V30 1535 C 144.306 2.33382 0.0741861 0
M  V30 1536 C 145.287 1.47719 0.843387 0
M  V30 1537 O 146.472 1.76458 0.810934 0
M  V30 1538 C 143.602 3.30663 1.06204 0
M  V30 1539 C 142.556 4.26079 0.405037 0
M  V30 1540 C 141.882 5.13165 1.5022 0
M  V30 1541 C 143.182 5.1781 -0.683414 0
M  V30 1542 H 144.876 2.91905 -0.665713 0
M  V30 1543 H 142.422 1.40363 -0.321587 0
M  V30 1544 H 144.375 3.9153 1.55827 0
M  V30 1545 H 143.099 2.70331 1.83272 0
M  V30 1546 H 141.758 3.66532 -0.0704683 0
M  V30 1547 H 141.406 4.49191 2.26355 0
M  V30 1548 H 141.106 5.77812 1.06803 0
M  V30 1549 H 142.63 5.76902 2.00041 0
M  V30 1550 H 144.044 5.72661 -0.270631 0
M  V30 1551 H 142.441 5.91015 -1.04023 0
M  V30 1552 H 143.511 4.59326 -1.55395 0
M  V30 1553 N 144.854 0.36279 1.53368 0
M  V30 1554 C 145.787 -0.528507 2.21996 0
M  V30 1555 C 146.765 -1.0852 1.21087 0
M  V30 1556 O 147.949 -1.14186 1.4998 0
M  V30 1557 C 145.076 -1.72893 2.91249 0
M  V30 1558 C 144.122 -1.29994 4.06207 0
M  V30 1559 S 144.955 -0.303575 5.34639 0
M  V30 1560 C 146.111 -1.51039 6.07403 0
M  V30 1561 H 146.344 0.0543423 2.9725 0
M  V30 1562 H 143.877 0.146889 1.537 0
M  V30 1563 H 145.835 -2.41751 3.31763 0
M  V30 1564 H 144.496 -2.28303 2.15724 0
M  V30 1565 H 143.689 -2.19549 4.53667 0
M  V30 1566 H 143.291 -0.690608 3.67569 0
M  V30 1567 H 145.583 -2.44186 6.31965 0
M  V30 1568 H 146.526 -1.07721 6.99858 0
M  V30 1569 H 146.934 -1.71518 5.37812 0
M  V30 1570 N 146.332 -1.57332 0.0918853 0
M  V30 1571 C 147.748 -1.57389 -0.264766 0
M  V30 1572 C 147.948 -1.10281 -1.68643 0
M  V30 1573 O 147.004 -0.777801 -2.40222 0
M  V30 1574 C 148.317 -3.00648 -0.0561195 0
M  V30 1575 C 149.865 -3.12754 -0.124116 0
M  V30 1576 C 150.34 -4.57965 0.0564972 0
M  V30 1577 N 151.831 -4.632 0.00155611 0
M  V30 1578 C 152.566 -5.73281 0.116598 0
M  V30 1579 N 152.062 -6.92208 0.286294 0
M  V30 1580 N 153.855 -5.6207 0.0580973 0
M  V30 1581 H 146.006 -1.86262 1.02079 0
M  V30 1582 H 148.269 -0.859579 0.399786 0
M  V30 1583 H 147.975 -3.393 0.925669 0
M  V30 1584 H 147.849 -3.68623 -0.799823 0
M  V30 1585 H 150.236 -2.73976 -1.09641 0
M  V30 1586 H 150.317 -2.47377 0.651024 0
M  V30 1587 H 149.961 -4.97436 1.02564 0
M  V30 1588 H 149.891 -5.21399 -0.738297 0
M  V30 1589 H 152.382 -3.77686 -0.127192 0
M  V30 1590 H 152.695 -7.71934 0.365676 0
M  V30 1591 H 151.04 -6.94254 0.32192 0
M  V30 1592 H 154.231 -4.68043 -0.0733204 0
M  V30 1593 H 154.404 -6.47824 0.151203 0
M  V30 1594 N 147.81 0.181792 -1.56548 0
M  V30 1595 C 149.059 0.898348 -1.8059 0
M  V30 1596 C 149.372 1.83862 -0.667379 0
M  V30 1597 O 150.578 2.59678 -0.792446 0
M  V30 1598 C 149.034 1.64791 -3.19956 0
M  V30 1599 C 148.642 0.751789 -4.41647 0
M  V30 1600 C 150.386 2.35331 -3.53298 0
M  V30 1601 C 148.293 1.50098 -5.72035 0
M  V30 1602 H 147.223 0.339194 -0.673397 0
M  V30 1603 H 149.874 0.151413 -1.82874 0
M  V30 1604 H 148.256 2.43921 -3.11959 0
M  V30 1605 H 149.43 -0.0018076 -4.608 0
M  V30 1606 H 147.745 0.156562 -4.16106 0
M  V30 1607 H 150.342 2.91958 -4.47956 0
M  V30 1608 H 150.685 3.10164 -2.77676 0
M  V30 1609 H 151.218 1.63154 -3.62803 0
M  V30 1610 H 147.957 0.795175 -6.50659 0
M  V30 1611 H 147.477 2.22817 -5.56878 0
M  V30 1612 H 149.156 2.05125 -6.13622 0
M  V30 1613 N 149.288 1.51039 0.449983 0
M  V30 1614 C 150.534 1.63322 1.20223 0
M  V30 1615 C 150.867 0.34241 1.91158 0
M  V30 1616 O 150.142 -0.657344 1.83055 0
M  V30 1617 C 150.425 2.82801 2.22925 0
M  V30 1618 C 150.278 4.21823 1.56157 0
M  V30 1619 C 151.597 2.97807 3.24035 0
M  V30 1620 H 148.716 0.594407 0.435718 0
M  V30 1621 H 151.358 1.83489 0.493136 0
M  V30 1622 H 149.508 2.65738 2.834 0
M  V30 1623 H 151.18 4.50526 0.991162 0
M  V30 1624 H 149.423 4.25105 0.864172 0
M  V30 1625 H 150.094 5.01391 2.30891 0
M  V30 1626 H 152.57 3.13497 2.73603 0
M  V30 1627 H 151.446 3.82992 3.93202 0
M  V30 1628 H 151.707 2.09328 3.89402 0
M  V30 1629 N 150.766 -0.704594 1.40972 0
M  V30 1630 C 152.043 -1.45847 1.30338 0
M  V30 1631 C 152.423 -2.10973 -0.0732344 0
M  V30 1632 O 151.771 -2.00997 -1.08685 0
M  V30 1633 C 151.981 -2.48525 2.45023 0
M  V30 1634 C 153.329 -3.1404 2.8577 0
M  V30 1635 O 154.353 -2.58848 2.44696 0
M  V30 1636 O 153.212 -4.13981 3.56766 0
M  V30 1637 H 150.306 -0.649092 0.512454 0
M  V30 1638 H 152.852 -0.735836 1.52917 0
M  V30 1639 H 151.624 -1.98994 3.36923 0
M  V30 1640 H 151.247 -3.2831 2.24272 0
M  V30 1641 N 152.244 -1.26651 -0.937939 0
M  V30 1642 C 153.492 -1.12165 -1.68118 0
M  V30 1643 C 153.813 0.334983 -1.92101 0
M  V30 1644 O 153.083 1.23583 -1.52 0
M  V30 1645 H 151.663 -0.412093 -0.623048 0
M  V30 1646 H 154.325 -1.59027 -1.12678 0
M  V30 1647 H 153.421 -1.64289 -2.6536 0
M  V30 1648 N 153.722 1.14298 -1.08507 0
M  V30 1649 C 154.669 2.19414 -0.715965 0
M  V30 1650 C 155.639 1.63399 0.298326 0
M  V30 1651 O 156.824 1.89929 0.182101 0
M  V30 1652 C 153.964 3.44845 -0.132534 0
M  V30 1653 C 153.077 4.15007 -1.19973 0
M  V30 1654 C 152.212 5.28024 -0.580048 0
M  V30 1655 C 151.251 5.9002 -1.62921 0
M  V30 1656 N 150.388 6.94485 -1.03125 0
M  V30 1657 H 155.228 2.50336 -1.61666 0
M  V30 1658 H 152.765 1.2293 -0.807882 0
M  V30 1659 H 154.723 4.16601 0.223454 0
M  V30 1660 H 153.353 3.14403 0.731467 0
M  V30 1661 H 152.405 3.41629 -1.67313 0
M  V30 1662 H 153.717 4.57178 -1.99473 0
M  V30 1663 H 152.871 6.06455 -0.172364 0
M  V30 1664 H 151.61 4.87076 0.246603 0
M  V30 1665 H 150.615 5.10291 -2.04654 0
M  V30 1666 H 151.84 6.33042 -2.45835 0
M  V30 1667 H 149.786 6.55612 -0.225711 0
M  V30 1668 H 149.703 7.35148 -1.76334 0
M  V30 1669 H 150.971 7.7679 -0.649458 0
M  V30 1670 N 155.201 0.870884 1.31352 0
M  V30 1671 C 156.45 0.478408 1.95944 0
M  V30 1672 C 156.763 -0.974493 1.69597 0
M  V30 1673 O 157.969 -1.47316 2.28058 0
M  V30 1674 C 156.425 0.804609 3.50791 0
M  V30 1675 C 156.033 2.27433 3.85977 0
M  V30 1676 C 157.777 0.480648 4.2177 0
M  V30 1677 C 155.684 2.5429 5.33939 0
M  V30 1678 H 154.614 0.175175 0.733369 0
M  V30 1679 H 157.265 1.06391 1.4951 0
M  V30 1680 H 155.647 0.148347 3.95722 0
M  V30 1681 H 156.821 2.97373 3.52002 0
M  V30 1682 H 155.136 2.56442 3.28065 0
M  V30 1683 H 157.733 0.658519 5.30629 0
M  V30 1684 H 158.076 -0.578979 4.12254 0
M  V30 1685 H 158.609 1.09349 3.82476 0
M  V30 1686 H 155.348 3.58939 5.48491 0
M  V30 1687 H 154.868 1.88945 5.69263 0
M  V30 1688 H 156.547 2.39066 6.01212 0
M  V30 1689 N 156.679 -1.44442 0.630414 0
M  V30 1690 C 158.095 -1.56832 0.295973 0
M  V30 1691 C 158.295 -1.61806 -1.20088 0
M  V30 1692 O 157.351 -1.5607 -1.9849 0
M  V30 1693 C 158.664 -2.84031 0.987264 0
M  V30 1694 C 160.212 -2.97742 0.96534 0
M  V30 1695 C 160.687 -4.27743 1.63708 0
M  V30 1696 N 162.178 -4.34555 1.60364 0
M  V30 1697 C 162.913 -5.33862 2.09234 0
M  V30 1698 N 162.409 -6.39578 2.66292 0
M  V30 1699 N 164.202 -5.25366 1.99867 0
M  V30 1700 H 156.353 -1.39457 1.60205 0
M  V30 1701 H 158.616 -0.668237 0.672431 0
M  V30 1702 H 158.322 -2.86338 2.04215 0
M  V30 1703 H 158.196 -3.73534 0.524588 0
M  V30 1704 H 160.583 -2.94989 -0.0810639 0
M  V30 1705 H 160.664 -2.09589 1.4665 0
M  V30 1706 H 160.308 -4.31255 2.68293 0
M  V30 1707 H 160.238 -5.14752 1.11076 0
M  V30 1708 H 162.729 -3.58772 1.18705 0
M  V30 1709 H 163.042 -7.11637 3.01317 0
M  V30 1710 H 161.387 -6.40265 2.70343 0
M  V30 1711 H 164.578 -4.41688 1.55013 0
M  V30 1712 H 164.751 -6.02606 2.38265 0
M  V30 1713 N 158.157 -0.370918 -1.53173 0
M  V30 1714 C 159.434 0.273754 -1.93675 0
M  V30 1715 C 159.814 1.65938 -1.3049 0
M  V30 1716 O 159.162 2.23698 -0.465999 0
M  V30 1717 C 159.372 0.318602 -3.47543 0
M  V30 1718 C 160.72 0.556392 -4.20939 0
M  V30 1719 O 161.744 0.399587 -3.53952 0
M  V30 1720 O 160.603 0.862133 -5.39657 0
M  V30 1721 H 157.697 0.165448 -0.810281 0
M  V30 1722 H 160.243 -0.42409 -1.64315 0
M  V30 1723 H 159.015 -0.652687 -3.85818 0
M  V30 1724 H 158.638 1.06212 -3.83151 0
M  V30 1725 N 159.635 1.57281 -0.100228 0
M  V30 1726 C 160.585 2.10848 0.86759 0
M  V30 1727 C 161.569 1.02473 1.24049 0
M  V30 1728 O 162.761 1.28739 1.21471 0
M  V30 1729 C 159.89 2.69648 2.12474 0
M  V30 1730 C 158.976 3.85074 1.77704 0
M  V30 1731 N 159.367 4.92897 1.13518 0
M  V30 1732 C 157.665 3.94905 2.07282 0
M  V30 1733 C 158.366 5.73475 0.974735 0
M  V30 1734 N 157.342 5.22675 1.4937 0
M  V30 1735 H 161.144 2.91594 0.367471 0
M  V30 1736 H 158.658 1.62074 0.102829 0
M  V30 1737 H 160.655 3.06356 2.82757 0
M  V30 1738 H 159.315 1.90359 2.63047 0
M  V30 1739 H 160.326 5.11662 0.801381 0
M  V30 1740 H 157.003 3.26633 2.60033 0
M  V30 1741 H 158.393 6.70238 0.472364 0
M  V30 1742 N 161.113 -0.173488 1.56642 0
M  V30 1743 C 162.529 -0.525174 1.50712 0
M  V30 1744 C 162.729 -1.8476 0.804107 0
M  V30 1745 O 161.785 -2.49869 0.363574 0
M  V30 1746 C 163.098 -0.559937 2.95441 0
M  V30 1747 C 164.646 -0.647288 3.06234 0
M  V30 1748 C 165.121 -0.712963 4.52417 0
M  V30 1749 N 166.612 -0.775911 4.56655 0
M  V30 1750 C 167.347 -0.847264 5.67106 0
M  V30 1751 N 166.843 -0.879585 6.87194 0
M  V30 1752 N 168.636 -0.886117 5.55071 0
M  V30 1753 H 160.787 0.693681 2.00753 0
M  V30 1754 H 163.05 0.249841 0.914485 0
M  V30 1755 H 162.756 0.343049 3.50023 0
M  V30 1756 H 162.63 -1.40718 3.49969 0
M  V30 1757 H 165.017 -1.5407 2.51687 0
M  V30 1758 H 165.098 0.226586 2.54794 0
M  V30 1759 H 164.742 0.176183 5.07594 0
M  V30 1760 H 164.672 -1.60295 5.0161 0
M  V30 1761 H 167.163 -0.759304 3.70193 0
M  V30 1762 H 167.476 -0.935144 7.67121 0
M  V30 1763 H 165.821 -0.847898 6.89808 0
M  V30 1764 H 169.012 -0.857853 4.60172 0
M  V30 1765 H 169.185 -0.938263 6.41171 0
M  V30 1766 N 162.591 -1.51276 -0.441967 0
M  V30 1767 C 163.868 -1.54252 -1.20273 0
M  V30 1768 C 164.248 -0.30408 -2.08898 0
M  V30 1769 O 163.596 0.711084 -2.17154 0
M  V30 1770 C 163.806 -2.85406 -2.00859 0
M  V30 1771 C 165.154 -3.37181 -2.58059 0
M  V30 1772 O 166.178 -2.86925 -2.11074 0
M  V30 1773 O 165.037 -4.24858 -3.43741 0
M  V30 1774 H 162.131 -0.619969 -0.547328 0
M  V30 1775 H 164.677 -1.63586 -0.451413 0
M  V30 1776 H 163.449 -3.67003 -1.35736 0
M  V30 1777 H 163.072 -2.79213 -2.83065 0
M  V30 1778 N 164.069 0.697108 -1.41344 0
M  V30 1779 C 165.315 1.45796 -1.41828 0
M  V30 1780 C 165.67 1.92382 -0.0261743 0
M  V30 1781 O 164.963 1.66522 0.947688 0
M  V30 1782 C 165.157 2.68553 -2.35826 0
M  V30 1783 C 164.986 2.33975 -3.84039 0
M  V30 1784 C 163.756 2.24414 -4.52732 0
M  V30 1785 C 165.954 1.97048 -4.75054 0
M  V30 1786 N 163.936 1.82705 -5.86082 0
M  V30 1787 C 165.307 1.66086 -5.9734 0
M  V30 1788 C 167.362 1.83845 -4.62715 0
M  V30 1789 C 166.065 1.23246 -7.08663 0
M  V30 1790 C 168.091 1.4241 -5.73998 0
M  V30 1791 C 167.453 1.12357 -6.95381 0
M  V30 1792 H 163.552 0.530859 -0.574206 0
M  V30 1793 H 166.136 0.806674 -1.77203 0
M  V30 1794 H 164.307 3.31404 -2.02549 0
M  V30 1795 H 166.039 3.35015 -2.2704 0
M  V30 1796 H 162.794 2.4276 -4.0665 0
M  V30 1797 H 163.218 1.64337 -6.56751 0
M  V30 1798 H 167.86 2.05734 -3.69369 0
M  V30 1799 H 165.578 1.00102 -8.01876 0
M  V30 1800 H 169.164 1.32746 -5.66454 0
M  V30 1801 H 168.044 0.807795 -7.80028 0
M  V30 1802 N 165.547 1.27147 0.931209 0
M  V30 1803 C 166.958 1.12044 1.49342 0
M  V30 1804 C 167.309 -0.295795 1.93957 0
M  V30 1805 O 166.434 -1.18835 1.80852 0
M  V30 1806 C 167.029 2.02781 2.71414 0
M  V30 1807 C 165.588 1.91794 3.2387 0
M  V30 1808 C 164.735 1.95543 1.96617 0
M  V30 1809 H 167.686 1.40091 0.745672 0
M  V30 1810 H 167.707 1.58156 3.46074 0
M  V30 1811 H 167.219 3.05848 2.38911 0
M  V30 1812 H 165.32 0.916992 3.6114 0
M  V30 1813 H 165.433 2.77852 3.90302 0
M  V30 1814 H 163.797 1.39722 2.12955 0
M  V30 1815 H 164.58 3.00259 1.66432 0
M  V30 1816 N 167.025 -1.13721 1.09112 0
M  V30 1817 C 168.302 -1.81155 0.737706 0
M  V30 1818 C 168.682 -1.96253 -0.777683 0
M  V30 1819 O 168.03 -1.52807 -1.69889 0
M  V30 1820 C 168.24 -3.16392 1.47299 0
M  V30 1821 C 169.588 -3.91787 1.63671 0
M  V30 1822 O 170.612 -3.26005 1.43524 0
M  V30 1823 O 169.471 -5.0977 1.96969 0
M  V30 1824 H 166.565 -0.783518 0.26463 0
M  V30 1825 H 169.111 -1.20676 1.19312 0
M  V30 1826 H 167.883 -3.0061 2.50498 0
M  V30 1827 H 167.506 -3.8457 1.00953 0
M  V30 1828 N 168.503 -0.877838 -1.30888 0
M  V30 1829 C 169.75 -0.492696 -1.96415 0
M  V30 1830 C 170.078 0.956671 -1.69346 0
M  V30 1831 O 169.333 1.68993 -0.986913 0
M  V30 1832 C 169.632 -0.705748 -3.50363 0
M  V30 1833 C 169.298 -2.1291 -3.97467 0
M  V30 1834 C 167.96 -2.51834 -4.1004 0
M  V30 1835 C 170.312 -3.05702 -4.22132 0
M  V30 1836 C 167.64 -3.82775 -4.44635 0
M  V30 1837 C 169.992 -4.36166 -4.58194 0
M  V30 1838 C 168.656 -4.74993 -4.68975 0
M  V30 1839 H 167.926 -0.18029 -0.718733 0
M  V30 1840 H 170.573 -1.11233 -1.55883 0
M  V30 1841 H 168.878 -0.00303058 -3.918 0
M  V30 1842 H 170.575 -0.387456 -3.99124 0
M  V30 1843 H 167.165 -1.81694 -3.88182 0
M  V30 1844 H 171.349 -2.76853 -4.11906 0
M  V30 1845 H 166.605 -4.12609 -4.51181 0
M  V30 1846 H 170.779 -5.08111 -4.76231 0
M  V30 1847 H 168.406 -5.76495 -4.95537 0
M  V30 1848 N 169.982 1.44106 -0.638065 0
M  V30 1849 C 170.914 2.28976 0.101205 0
M  V30 1850 C 171.927 1.4167 0.802088 0
M  V30 1851 O 173.116 1.65755 0.662375 0
M  V30 1852 C 170.216 3.18217 1.16581 0
M  V30 1853 C 169.389 4.33978 0.546066 0
M  V30 1854 C 168.448 5.04202 1.50554 0
M  V30 1855 O 167.474 5.59986 1.01999 0
M  V30 1856 N 168.676 5.06296 2.8398 0
M  V30 1857 H 171.441 2.93064 -0.627186 0
M  V30 1858 H 169.002 1.54629 -0.479731 0
M  V30 1859 H 170.994 3.62061 1.80815 0
M  V30 1860 H 169.564 2.55833 1.79634 0
M  V30 1861 H 168.784 3.93239 -0.275046 0
M  V30 1862 H 170.072 5.08675 0.112793 0
M  V30 1863 H 169.47 4.62319 3.26002 0
M  V30 1864 H 168.027 5.53907 3.43556 0
M  V30 1865 N 171.46 0.379036 1.52974 0
M  V30 1866 C 172.708 -0.206014 2.01047 0
M  V30 1867 C 173.029 -1.48175 1.26765 0
M  V30 1868 O 172.299 -1.92085 0.384743 0
M  V30 1869 H 170.879 -0.0791184 0.742798 0
M  V30 1870 H 173.541 0.508366 1.88153 0
M  V30 1871 H 172.637 -0.423501 3.09213 0
M  V30 1872 N 172.938 -1.57226 0.108567 0
M  V30 1873 C 174.166 -1.99179 -0.559954 0
M  V30 1874 C 174.581 -0.988022 -1.60884 0
M  V30 1875 O 173.938 0.0205512 -1.82488 0
M  V30 1876 C 173.989 -3.41159 -1.19552 0
M  V30 1877 O 173.71 -4.37694 -0.188577 0
M  V30 1878 C 175.211 -3.98188 -1.94837 0
M  V30 1879 H 172.431 -0.654228 -0.149088 0
M  V30 1880 H 174.975 -2.03598 0.19183 0
M  V30 1881 H 173.13 -3.37711 -1.89815 0
M  V30 1882 H 173.544 -5.20469 -0.649014 0
M  V30 1883 H 175.018 -4.99644 -2.34648 0
M  V30 1884 H 175.495 -3.3675 -2.81951 0
M  V30 1885 H 176.101 -4.0515 -1.2936 0
M  V30 1886 N 174.416 0.165178 -1.56732 0
M  V30 1887 C 175.346 1.20651 -1.99914 0
M  V30 1888 C 176.327 1.45827 -0.875705 0
M  V30 1889 O 177.512 1.57057 -1.14223 0
M  V30 1890 C 174.642 2.54401 -2.36427 0
M  V30 1891 C 173.596 2.43782 -3.51787 0
M  V30 1892 C 172.922 3.82078 -3.7406 0
M  V30 1893 C 174.222 1.93732 -4.85041 0
M  V30 1894 H 175.916 0.847534 -2.87154 0
M  V30 1895 H 173.462 0.40625 -1.38151 0
M  V30 1896 H 175.415 3.27458 -2.65234 0
M  V30 1897 H 174.139 2.92098 -1.46103 0
M  V30 1898 H 172.798 1.73178 -3.23117 0
M  V30 1899 H 172.446 4.17179 -2.81017 0
M  V30 1900 H 172.146 3.7584 -4.51684 0
M  V30 1901 H 173.67 4.56712 -4.05274 0
M  V30 1902 H 175.084 2.56569 -5.12684 0
M  V30 1903 H 173.481 1.98428 -5.66345 0
M  V30 1904 H 174.551 0.891962 -4.76626 0
M  V30 1905 N 175.894 1.51508 0.433938 0
M  V30 1906 C 177.31 1.39759 0.770682 0
M  V30 1907 C 177.51 0.482594 1.95636 0
M  V30 1908 O 176.566 -0.0609691 2.52426 0
M  V30 1909 C 177.879 2.81851 1.04787 0
M  V30 1910 C 179.427 2.91025 1.1521 0
M  V30 1911 C 179.902 4.34032 1.46219 0
M  V30 1912 N 181.393 4.37154 1.53136 0
M  V30 1913 C 182.128 5.4484 1.78709 0
M  V30 1914 N 181.624 6.62682 2.02051 0
M  V30 1915 N 183.417 5.32324 1.80519 0
M  V30 1916 H 175.568 2.09548 -0.346892 0
M  V30 1917 H 177.831 0.943446 -0.0928074 0
M  V30 1918 H 177.537 3.50815 0.249304 0
M  V30 1919 H 177.411 3.21386 1.97461 0
M  V30 1920 H 179.798 2.22257 1.94128 0
M  V30 1921 H 179.879 2.54983 0.204281 0
M  V30 1922 H 179.523 5.03351 0.678274 0
M  V30 1923 H 179.453 4.6759 2.42212 0
M  V30 1924 H 181.944 3.52197 1.36987 0
M  V30 1925 H 182.257 7.40543 2.20943 0
M  V30 1926 H 180.602 6.65791 1.99366 0
M  V30 1927 H 183.793 4.39246 1.61805 0
M  V30 1928 H 183.966 6.16328 2.00111 0
M  V30 1929 N 177.372 -0.689602 1.41712 0
M  V30 1930 C 178.304 -1.815 1.39966 0
M  V30 1931 C 179.317 -1.59995 0.300917 0
M  V30 1932 O 180.506 -1.69387 0.563039 0
M  V30 1933 C 177.606 -3.18364 1.16179 0
M  V30 1934 C 176.779 -3.66847 2.38206 0
M  V30 1935 C 175.838 -4.82398 2.10186 0
M  V30 1936 O 174.864 -4.93706 2.83272 0
M  V30 1937 N 176.066 -5.70064 1.0958 0
M  V30 1938 H 178.831 -1.83488 2.36965 0
M  V30 1939 H 176.392 -0.872149 1.36401 0
M  V30 1940 H 178.384 -3.93301 0.953756 0
M  V30 1941 H 176.954 -3.11365 0.27756 0
M  V30 1942 H 176.174 -2.82751 2.74673 0
M  V30 1943 H 177.462 -3.95978 3.19498 0
M  V30 1944 H 176.86 -5.63565 0.491019 0
M  V30 1945 H 175.417 -6.44874 0.947656 0
M  V30 1946 N 178.85 -1.27639 -0.924453 0
M  V30 1947 C 179.78 -1.13166 -2.04244 0
M  V30 1948 C 180.761 -0.032256 -1.70069 0
M  V30 1949 O 181.946 -0.207328 -1.9309 0
M  V30 1950 C 179.076 -0.781496 -3.38393 0
M  V30 1951 C 178.03 -1.83449 -3.86692 0
M  V30 1952 C 177.356 -1.33822 -5.17683 0
M  V30 1953 C 178.656 -3.23917 -4.09726 0
M  V30 1954 H 180.35 -2.06689 -2.1661 0
M  V30 1955 H 177.896 -0.995136 -1.04082 0
M  V30 1956 H 179.849 -0.667057 -4.16087 0
M  V30 1957 H 178.573 0.189439 -3.2605 0
M  V30 1958 H 177.232 -1.93789 -3.11193 0
M  V30 1959 H 176.88 -0.35665 -5.01734 0
M  V30 1960 H 176.58 -2.04224 -5.50968 0
M  V30 1961 H 178.104 -1.23679 -5.97943 0
M  V30 1962 H 179.518 -3.16559 -4.77978 0
M  V30 1963 H 177.915 -3.92059 -4.54324 0
M  V30 1964 H 178.985 -3.68729 -3.14908 0
M  V30 1965 N 180.328 1.1314 -1.09713 0
M  V30 1966 C 181.576 1.84119 -0.833338 0
M  V30 1967 C 181.897 1.84097 0.642904 0
M  V30 1968 O 181.167 1.29881 1.46655 0
M  V30 1969 H 179.747 0.681766 -0.305293 0
M  V30 1970 H 182.409 1.37038 -1.38588 0
M  V30 1971 H 181.505 2.88543 -1.18951 0
M  V30 1972 N 181.806 0.884767 1.30421 0
M  V30 1973 C 183.083 0.423185 1.90967 0
M  V30 1974 C 183.463 -1.09605 1.80416 0
M  V30 1975 O 182.811 -1.93126 1.22125 0
M  V30 1976 C 183.021 0.921056 3.36627 0
M  V30 1977 C 184.369 0.955903 4.137 0
M  V30 1978 O 185.393 0.867706 3.4547 0
M  V30 1979 O 184.252 1.08614 5.35598 0
M  V30 1980 H 181.346 0.129369 0.816819 0
M  V30 1981 H 183.892 0.973653 1.3899 0
M  V30 1982 H 182.664 1.96489 3.3839 0
M  V30 1983 H 182.287 0.349741 3.96059 0
M  V30 1984 N 183.284 -1.43765 0.645699 0
M  V30 1985 C 184.695 -1.85193 0.236719 0
M  V30 1986 C 185.046 -1.54045 -1.21509 0
M  V30 1987 O 184.171 -0.985694 -1.92647 0
M  V30 1988 C 184.766 -3.36151 0.422845 0
M  V30 1989 C 183.325 -3.76338 0.0682492 0
M  V30 1990 C 182.472 -2.67538 0.729306 0
M  V30 1991 H 185.423 -1.34025 0.849883 0
M  V30 1992 H 185.444 -3.79032 -0.333904 0
M  V30 1993 H 184.956 -3.5879 1.47958 0
M  V30 1994 H 183.057 -3.59312 -0.986179 0
M  V30 1995 H 183.17 -4.76603 0.488469 0
M  V30 1996 H 181.534 -2.54176 0.163235 0
M  V30 1997 H 182.317 -2.93006 1.78892 0
M  V30 1998 N 184.763 -0.387143 -1.52771 0
M  V30 1999 C 186.009 0.188506 -2.02525 0
M  V30 2000 C 186.364 1.44649 -1.26864 0
M  V30 2001 O 185.657 1.88189 -0.359945 0
M  V30 2002 C 185.851 0.512209 -3.53711 0
M  V30 2003 C 185.68 -0.712855 -4.44014 0
M  V30 2004 C 184.45 -1.23147 -4.90064 0
M  V30 2005 C 186.648 -1.58453 -4.89282 0
M  V30 2006 N 184.63 -2.41431 -5.64433 0
M  V30 2007 C 186.001 -2.61381 -5.6221 0
M  V30 2008 C 188.056 -1.60488 -4.71326 0
M  V30 2009 C 186.759 -3.66227 -6.19088 0
M  V30 2010 C 188.785 -2.6424 -5.29085 0
M  V30 2011 C 188.147 -3.6589 -6.01917 0
M  V30 2012 H 184.246 0.0311236 -0.78138 0
M  V30 2013 H 186.83 -0.536548 -1.87161 0
M  V30 2014 H 185.001 1.20632 -3.69192 0
M  V30 2015 H 186.733 1.07482 -3.90166 0
M  V30 2016 H 183.488 -0.792795 -4.66917 0
M  V30 2017 H 183.912 -3.01274 -6.0627 0
M  V30 2018 H 188.554 -0.83247 -4.14524 0
M  V30 2019 H 186.272 -4.44337 -6.74974 0
M  V30 2020 H 189.858 -2.66695 -5.17074 0
M  V30 2021 H 188.738 -4.44855 -6.45813 0
M  V30 2022 N 186.241 1.57166 -0.116904 0
M  V30 2023 C 187.652 1.82169 0.408809 0
M  V30 2024 C 188.003 1.03393 1.66746 0
M  V30 2025 O 187.128 0.269886 2.1471 0
M  V30 2026 C 187.723 3.30429 0.748466 0
M  V30 2027 C 186.282 3.5612 1.21882 0
M  V30 2028 C 185.429 2.76374 0.226452 0
M  V30 2029 H 188.38 1.5497 -0.342063 0
M  V30 2030 H 188.401 3.44943 1.60607 0
M  V30 2031 H 187.913 3.87737 -0.167784 0
M  V30 2032 H 186.014 3.04168 2.15204 0
M  V30 2033 H 186.127 4.64705 1.16559 0
M  V30 2034 H 184.491 2.44515 0.713063 0
M  V30 2035 H 185.274 3.3644 -0.682859 0
M  V30 2036 N 187.719 -0.156864 1.56817 0
M  V30 2037 C 188.996 -0.899244 1.73704 0
M  V30 2038 C 189.376 -1.99771 0.682254 0
M  V30 2039 O 188.724 -2.26515 -0.300522 0
M  V30 2040 C 188.934 -1.45075 3.17418 0
M  V30 2041 C 190.282 -1.91802 3.7881 0
M  V30 2042 O 191.306 -1.54838 3.20786 0
M  V30 2043 O 190.165 -2.5994 4.80722 0
M  V30 2044 H 187.259 -0.424267 0.709878 0
M  V30 2045 H 189.805 -0.143561 1.69092 0
M  V30 2046 H 188.577 -0.660846 3.85679 0
M  V30 2047 H 188.2 -2.27021 3.26416 0
M  V30 2048 N 189.197 -1.51736 -0.425897 0
M  V30 2049 C 190.474 -1.55519 -1.1863 0
M  V30 2050 C 190.854 -0.326219 -2.08564 0
M  V30 2051 O 190.202 0.688012 -2.17896 0
M  V30 2052 C 190.412 -2.87521 -1.9782 0
M  V30 2053 C 191.76 -3.39899 -2.54468 0
M  V30 2054 O 192.784 -2.89148 -2.08019 0
M  V30 2055 O 191.643 -4.2848 -3.39215 0
M  V30 2056 H 188.737 -0.625739 -0.540721 0
M  V30 2057 H 191.283 -1.64055 -0.434038 0
M  V30 2058 H 190.055 -3.68422 -1.31836 0
M  V30 2059 H 189.678 -2.822 -2.80088 0
M  V30 2060 N 190.675 0.682077 -1.42076 0
M  V30 2061 C 191.585 1.82535 -1.47371 0
M  V30 2062 C 192.601 1.7017 -0.363079 0
M  V30 2063 O 193.777 1.91848 -0.612875 0
M  V30 2064 C 190.842 3.18624 -1.36674 0
M  V30 2065 C 189.903 3.42999 -2.58167 0
M  V30 2066 C 189.136 4.72595 -2.4797 0
M  V30 2067 O 189.359 5.50006 -1.5116 0
M  V30 2068 O 188.293 4.98054 -3.37974 0
M  V30 2069 H 192.119 1.81023 -2.43853 0
M  V30 2070 H 189.704 0.836887 -1.2376 0
M  V30 2071 H 191.586 3.99847 -1.33043 0
M  V30 2072 H 190.261 3.20789 -0.433138 0
M  V30 2073 H 189.168 2.61653 -2.67373 0
M  V30 2074 H 190.501 3.45659 -3.50401 0
M  V30 2075 N 192.153 1.28127 0.917671 0
M  V30 2076 C 193.401 1.14825 1.66312 0
M  V30 2077 C 193.722 -0.304379 1.9261 0
M  V30 2078 O 192.992 -1.21149 1.53947 0
M  V30 2079 H 191.572 0.421953 0.616413 0
M  V30 2080 H 194.234 1.608 1.10134 0
M  V30 2081 H 193.33 1.68489 2.62712 0
M  V30 2082 N 193.631 -1.12557 1.10312 0
M  V30 2083 C 194.877 -1.84515 0.855901 0
M  V30 2084 C 195.232 -1.82409 -0.611936 0
M  V30 2085 O 194.525 -1.25778 -1.44535 0
M  V30 2086 C 194.719 -3.31462 1.33669 0
M  V30 2087 C 194.548 -3.47879 2.84974 0
M  V30 2088 C 193.318 -3.61589 3.52961 0
M  V30 2089 C 195.516 -3.43152 3.83081 0
M  V30 2090 N 193.498 -3.66359 4.926 0
M  V30 2091 C 194.869 -3.54401 5.08724 0
M  V30 2092 C 196.924 -3.2661 3.75807 0
M  V30 2093 C 195.627 -3.50815 6.2795 0
M  V30 2094 C 197.653 -3.24335 4.94531 0
M  V30 2095 C 197.015 -3.36144 6.19021 0
M  V30 2096 H 193.114 -0.690967 0.366182 0
M  V30 2097 H 195.698 -1.34763 1.40524 0
M  V30 2098 H 193.869 -3.7976 0.814686 0
M  V30 2099 H 195.601 -3.91272 1.03385 0
M  V30 2100 H 192.356 -3.63652 3.03404 0
M  V30 2101 H 192.78 -3.72411 5.65366 0
M  V30 2102 H 197.422 -3.16375 2.80476 0
M  V30 2103 H 195.14 -3.5982 7.23571 0
M  V30 2104 H 198.726 -3.12719 4.9061 0
M  V30 2105 H 197.606 -3.34357 7.09348 0
M  V30 2106 N 195.109 -0.891671 -1.2995 0
M  V30 2107 C 196.525 -0.58662 -1.48428 0
M  V30 2108 C 196.725 0.873951 -1.81561 0
M  V30 2109 O 195.781 1.65471 -1.90724 0
M  V30 2110 C 197.094 -1.50553 -2.60296 0
M  V30 2111 C 198.642 -1.50988 -2.74175 0
M  V30 2112 C 199.117 -2.41488 -3.89163 0
M  V30 2113 N 200.608 -2.39489 -3.96483 0
M  V30 2114 C 201.343 -3.06223 -4.84784 0
M  V30 2115 N 200.839 -3.82206 -5.77833 0
M  V30 2116 N 202.632 -2.95421 -4.78208 0
M  V30 2117 H 194.783 -1.83644 -1.06718 0
M  V30 2118 H 197.046 -0.786455 -0.529332 0
M  V30 2119 H 196.752 -2.54581 -2.42654 0
M  V30 2120 H 196.626 -1.22008 -3.56923 0
M  V30 2121 H 199.013 -0.47708 -2.91218 0
M  V30 2122 H 199.094 -1.83567 -1.78148 0
M  V30 2123 H 198.738 -3.44857 -3.72876 0
M  V30 2124 H 198.668 -2.06222 -4.84541 0
M  V30 2125 H 201.159 -1.84278 -3.29924 0
M  V30 2126 H 201.472 -4.302 -6.41988 0
M  V30 2127 H 199.817 -3.86313 -5.77743 0
M  V30 2128 H 203.008 -2.35581 -4.04499 0
M  V30 2129 H 203.181 -3.47704 -5.46814 0
M  V30 2130 N 196.587 1.43421 -0.653314 0
M  V30 2131 C 197.998 1.85065 -0.246537 0
M  V30 2132 C 198.349 1.54688 1.2069 0
M  V30 2133 O 197.474 0.995896 1.92122 0
M  V30 2134 C 198.069 3.35922 -0.440666 0
M  V30 2135 C 196.628 3.76297 -0.0882064 0
M  V30 2136 C 195.775 2.67147 -0.743484 0
M  V30 2137 H 198.726 1.33572 -0.856979 0
M  V30 2138 H 198.747 3.79204 0.313798 0
M  V30 2139 H 198.259 3.58 -1.49858 0
M  V30 2140 H 196.36 3.5983 0.96711 0
M  V30 2141 H 196.473 4.76338 -0.513738 0
M  V30 2142 H 194.837 2.54086 -0.176712 0
M  V30 2143 H 195.62 2.92053 -1.80443 0
M  V30 2144 O 198.104 0.537413 1.52296 0
M  V30 2145 H 198.795 0.0295046 1.93678 0
M  V30 END ATOM
M  V30 BEGIN BOND
M  V30 END BOND
M  V30 END CTAB
M  END
$$$$
