drugbank_target|P41595 5-hydroxytryptamine receptor 2B (DB00247; DB00248; DB00315; DB00320; DB00353; DB00508; DB00543; DB00574; DB00589; DB00696; DB00714; DB00715; DB00805; DB00924; DB01079; DB01142; DB01186; DB01200; DB01238; DB01242; DB01392; DB01454; DB04829; DB05461; DB05492; DB05607; DB06016; DB06148; DB06153; DB06216; DB06229; DB09286)
 OpenBabel12092119313D

  0  0  0     0  0            999 V3000
M  V30 BEGIN CTAB
M  V30 COUNTS 7779 7862 0 0 0
M  V30 BEGIN ATOM
M  V30 1 H -0.908 1.98254 -0.117106 0
M  V30 2 N 0 1.576 0 0
M  V30 3 C 0.933 2.03868 1.02534 0
M  V30 4 C 1.911 0.928543 1.3348 0
M  V30 5 O 3.095 1.19667 1.45644 0
M  V30 6 C 0.222 2.43627 2.35294 0
M  V30 7 C -0.732 3.65373 2.2001 0
M  V30 8 S 0.101 5.13292 1.52614 0
M  V30 9 C 1.257 5.56322 2.86805 0
M  V30 10 H 1.49 2.90518 0.631377 0
M  V30 11 H -0.977 1.52953 0.210867 0
M  V30 12 H 0.981 2.67203 3.11629 0
M  V30 13 H -0.358 1.57376 2.7183 0
M  V30 14 H -1.165 3.90944 3.18086 0
M  V30 15 H -1.563 3.418 1.51819 0
M  V30 16 H 0.729 5.58782 3.83104 0
M  V30 17 H 1.672 6.56266 2.65933 0
M  V30 18 H 2.08 4.83886 2.90714 0
M  V30 19 N 1.4781 -0.272755 1.55222 0
M  V30 20 C 2.4411 -1.32041 1.87344 0
M  V30 21 C 3.4411 -1.42342 0.74803 0
M  V30 22 O 4.6311 -1.41488 1.0162 0
M  V30 23 C 1.7631 -2.70173 2.07893 0
M  V30 24 H 2.9561 -1.04789 2.80997 0
M  V30 25 H 0.5091 -0.51083 1.47717 0
M  V30 26 H 1.2441 -3.02605 1.16622 0
M  V30 27 H 1.0291 -2.64082 2.89833 0
M  V30 28 H 2.5191 -3.45869 2.34017 0
M  V30 29 N 2.9562 -1.48159 -0.537278 0
M  V30 30 C 3.8862 -1.65029 -1.6519 0
M  V30 31 C 4.8672 -0.499281 -1.62607 0
M  V30 32 O 6.0522 -0.730972 -1.79918 0
M  V30 33 C 3.1822 -1.68303 -3.03795 0
M  V30 34 C 2.1362 -2.8283 -3.21234 0
M  V30 35 C 1.4622 -2.71189 -4.60826 0
M  V30 36 C 2.7622 -4.24211 -3.04701 0
M  V30 37 H 4.4562 -2.58341 -1.51328 0
M  V30 38 H 2.0022 -1.24325 -0.726585 0
M  V30 39 H 3.9552 -1.78693 -3.81637 0
M  V30 40 H 2.6792 -0.715635 -3.18663 0
M  V30 41 H 1.3382 -2.71983 -2.45807 0
M  V30 42 H 0.9862 -1.72435 -4.7252 0
M  V30 43 H 0.6862 -3.48035 -4.7344 0
M  V30 44 H 2.2102 -2.83537 -5.40777 0
M  V30 45 H 3.6242 -4.3593 -3.72341 0
M  V30 46 H 2.0212 -5.01998 -3.28813 0
M  V30 47 H 3.0912 -4.41184 -2.01209 0
M  V30 48 N 4.4343 0.785586 -1.36625 0
M  V30 49 C 5.6593 1.57963 -1.34397 0
M  V30 50 C 6.0843 1.87964 0.071526 0
M  V30 51 O 5.4423 1.48182 1.0446 0
M  V30 52 C 5.4903 2.87511 -2.17646 0
M  V30 53 O 4.5943 3.81281 -1.57158 0
M  V30 54 H 3.9353 0.479014 -0.459828 0
M  V30 55 H 6.4653 0.973411 -1.79961 0
M  V30 56 H 6.4753 3.36745 -2.30362 0
M  V30 57 H 5.1503 2.65002 -3.20541 0
M  V30 58 H 3.7273 3.39885 -1.53403 0
M  V30 59 N 5.9124 1.20967 1.01018 0
M  V30 60 C 7.1424 1.04803 1.78044 0
M  V30 61 C 7.5504 -0.405462 1.84804 0
M  V30 62 O 6.8934 -1.2932 1.30468 0
M  V30 63 C 6.9554 1.56377 3.23707 0
M  V30 64 C 6.6194 3.04767 3.40538 0
M  V30 65 C 7.6164 4.02366 3.29239 0
M  V30 66 C 5.3014 3.43862 3.66147 0
M  V30 67 C 7.2954 5.37049 3.43304 0
M  V30 68 C 4.9824 4.78699 3.79855 0
M  V30 69 C 5.9804 5.75101 3.68439 0
M  V30 70 O 5.6684 7.07493 3.81719 0
M  V30 71 H 5.4004 0.368778 0.56655 0
M  V30 72 H 7.9544 1.60642 1.27997 0
M  V30 73 H 6.1844 0.949297 3.74867 0
M  V30 74 H 7.8734 1.36136 3.8239 0
M  V30 75 H 8.6394 3.73506 3.09384 0
M  V30 76 H 4.5184 2.69364 3.74118 0
M  V30 77 H 8.0624 6.12277 3.34309 0
M  V30 78 H 3.9594 5.07247 3.99213 0
M  V30 79 H 4.7274 7.1483 3.98697 0
M  V30 80 N 7.3905 -1.2043 1.01659 0
M  V30 81 C 8.8065 -1.41852 0.731442 0
M  V30 82 C 9.0065 -1.89358 -0.688898 0
M  V30 83 O 8.0625 -2.06247 -1.45666 0
M  V30 84 C 9.3755 -2.44019 1.75714 0
M  V30 85 C 10.9235 -2.57785 1.77527 0
M  V30 86 C 11.3985 -3.63194 2.79023 0
M  V30 87 N 12.8895 -3.70678 2.77763 0
M  V30 88 C 13.6245 -4.51897 3.52954 0
M  V30 89 N 13.1205 -5.36921 4.37821 0
M  V30 90 N 14.9135 -4.4643 3.41551 0
M  V30 91 H 7.0645 -0.879093 1.93354 0
M  V30 92 H 9.3275 -0.448425 0.835236 0
M  V30 93 H 9.0335 -2.1611 2.77469 0
M  V30 94 H 8.9075 -3.43007 1.56927 0
M  V30 95 H 11.2945 -2.85023 0.764569 0
M  V30 96 H 11.3755 -1.58992 2.00387 0
M  V30 97 H 11.0195 -3.36699 3.80258 0
M  V30 98 H 10.9495 -4.61609 2.53425 0
M  V30 99 H 13.4405 -3.09944 2.16201 0
M  V30 100 H 13.7535 -5.95981 4.91962 0
M  V30 101 H 12.0985 -5.36424 4.41899 0
M  V30 102 H 15.2895 -3.79042 2.74672 0
M  V30 103 H 15.4625 -5.09491 4.00404 0
M  V30 104 N 8.8686 -0.792821 -1.36206 0
M  V30 105 C 10.1146 -0.36733 -1.99446 0
M  V30 106 C 10.4476 1.05917 -1.62774 0
M  V30 107 O 9.7226 1.7324 -0.88421 0
M  V30 108 C 10.0056 -0.535044 -3.56103 0
M  V30 109 C 9.8586 -2.00548 -4.02617 0
M  V30 110 C 11.1776 0.0478191 -4.40074 0
M  V30 111 H 8.2966 -0.134941 -0.724541 0
M  V30 112 H 10.9386 -0.999794 -1.61568 0
M  V30 113 H 9.0886 0.00336329 -3.885 0
M  V30 114 H 10.7606 -2.60521 -3.80692 0
M  V30 115 H 9.0036 -2.50686 -3.54032 0
M  V30 116 H 9.6746 -2.07377 -5.11565 0
M  V30 117 H 12.1506 -0.411822 -4.14057 0
M  V30 118 H 11.0266 -0.0995336 -5.4881 0
M  V30 119 H 11.2876 1.14025 -4.27142 0
M  V30 120 N 10.3467 1.47872 -0.545128 0
M  V30 121 C 11.5717 2.07391 -0.0190611 0
M  V30 122 C 11.9967 1.39688 1.25971 0
M  V30 123 O 11.3547 0.467816 1.7516 0
M  V30 124 C 11.4027 3.60188 0.172335 0
M  V30 125 O 10.5067 3.9339 1.23766 0
M  V30 126 H 9.8477 0.662411 -0.0459059 0
M  V30 127 H 12.3777 1.90066 -0.757365 0
M  V30 128 H 12.3877 4.06129 0.390305 0
M  V30 129 H 11.0627 4.08865 -0.761725 0
M  V30 130 H 9.6397 3.5921 1.00114 0
M  V30 131 N 11.8248 0.280983 1.55075 0
M  V30 132 C 12.7348 -0.61388 2.26426 0
M  V30 133 C 13.7508 -1.16521 1.29224 0
M  V30 134 O 14.9268 -1.19426 1.62171 0
M  V30 135 C 11.9918 -1.7788 2.9759 0
M  V30 136 C 11.0528 -1.26355 4.10284 0
M  V30 137 C 10.2858 -2.37295 4.78045 0
M  V30 138 O 10.5088 -3.56777 4.45047 0
M  V30 139 O 9.4428 -2.05119 5.65871 0
M  V30 140 H 13.2688 -0.0356932 3.03679 0
M  V30 141 H 10.8538 0.0481686 1.49322 0
M  V30 142 H 12.7358 -2.45791 3.42293 0
M  V30 143 H 11.4108 -2.34397 2.23249 0
M  V30 144 H 10.3178 -0.550735 3.70024 0
M  V30 145 H 11.6508 -0.744065 4.86543 0
M  V30 146 N 13.3029 -1.57598 0.00835791 0
M  V30 147 C 14.2329 -2.1198 -0.979113 0
M  V30 148 C 15.2139 -1.03091 -1.35301 0
M  V30 149 O 16.3989 -1.30818 -1.43528 0
M  V30 150 C 13.5289 -2.62995 -2.26828 0
M  V30 151 C 12.4829 -3.76485 -2.03576 0
M  V30 152 C 11.8089 -4.13846 -3.38579 0
M  V30 153 C 13.1089 -5.0342 -1.39161 0
M  V30 154 H 14.8029 -2.94738 -0.526281 0
M  V30 155 H 12.3489 -1.41783 -0.251704 0
M  V30 156 H 14.3019 -2.99669 -2.96271 0
M  V30 157 H 13.0259 -1.7737 -2.7424 0
M  V30 158 H 11.6849 -3.40217 -1.36557 0
M  V30 159 H 11.3329 -3.25232 -3.83709 0
M  V30 160 H 11.0329 -4.90312 -3.23834 0
M  V30 161 H 12.5569 -4.53086 -4.09323 0
M  V30 162 H 13.9709 -5.37812 -1.98573 0
M  V30 163 H 12.3679 -5.84746 -1.34878 0
M  V30 164 H 13.4379 -4.83548 -0.361868 0
M  V30 165 N 14.781 0.264519 -1.55364 0
M  V30 166 C 15.713 1.34965 -1.85248 0
M  V30 167 C 16.726 1.45136 -0.737525 0
M  V30 168 O 17.915 1.46801 -1.01547 0
M  V30 169 C 15.015 2.73008 -2.00797 0
M  V30 170 C 14.188 2.85324 -3.31525 0
M  V30 171 C 13.247 4.04097 -3.37034 0
M  V30 172 O 12.273 3.94455 -4.10358 0
M  V30 173 N 13.475 5.16458 -2.65049 0
M  V30 174 H 16.24 1.09672 -2.78913 0
M  V30 175 H 13.801 0.454635 -1.55386 0
M  V30 176 H 15.793 3.50772 -2.01844 0
M  V30 177 H 14.363 2.91087 -1.1396 0
M  V30 178 H 13.583 1.94377 -3.42945 0
M  V30 179 H 14.871 2.9049 -4.17724 0
M  V30 180 H 14.269 5.27181 -2.05175 0
M  V30 181 H 12.826 5.92422 -2.71809 0
M  V30 182 N 16.2591 1.48442 0.529413 0
M  V30 183 C 17.4841 1.60406 1.31471 0
M  V30 184 C 17.9091 0.264738 1.86228 0
M  V30 185 O 17.2671 -0.763668 1.64432 0
M  V30 186 C 17.3151 2.65419 2.44101 0
M  V30 187 O 16.4191 2.22618 3.47153 0
M  V30 188 H 15.7601 0.537863 0.389357 0
M  V30 189 H 18.2901 1.94432 0.636965 0
M  V30 190 H 18.3001 2.86709 2.90279 0
M  V30 191 H 16.9751 3.62652 2.03608 0
M  V30 192 H 15.5521 2.11543 3.0709 0
M  V30 193 N 17.7372 -0.778329 1.37039 0
M  V30 194 C 18.9652 -1.56734 1.35063 0
M  V30 195 C 19.3802 -1.88686 -0.0655597 0
M  V30 196 O 18.7372 -1.5096 -1.02554 0
M  V30 197 C 18.7882 -2.88163 2.18276 0
M  V30 198 O 18.5092 -2.57583 3.54376 0
M  V30 199 C 20.0102 -3.82422 2.24206 0
M  V30 200 H 17.2302 -0.485778 0.462883 0
M  V30 201 H 19.7742 -0.965185 1.8029 0
M  V30 202 H 17.9292 -3.44818 1.76576 0
M  V30 203 H 18.3432 -3.41699 3.97922 0
M  V30 204 H 19.8172 -4.71667 2.86765 0
M  V30 205 H 20.2942 -4.21078 1.24861 0
M  V30 206 H 20.9002 -3.31697 2.6619 0
M  V30 207 N 19.2153 -1.21501 -1.00376 0
M  V30 208 C 20.4643 -1.02718 -1.73586 0
M  V30 209 C 20.7773 0.439589 -1.90596 0
M  V30 210 O 21.9833 0.746848 -2.61026 0
M  V30 211 C 20.4393 -1.78929 -3.1227 0
M  V30 212 C 20.0473 -3.29783 -3.03228 0
M  V30 213 C 21.7913 -1.68557 -3.89601 0
M  V30 214 C 19.6983 -3.98479 -4.36999 0
M  V30 215 H 18.6283 -0.380733 -0.650814 0
M  V30 216 H 21.2793 -1.45248 -1.1214 0
M  V30 217 H 19.6613 -1.29192 -3.74333 0
M  V30 218 H 20.8353 -3.86832 -2.50395 0
M  V30 219 H 19.1503 -3.40711 -2.39385 0
M  V30 220 H 21.7473 -2.17211 -4.88593 0
M  V30 221 H 22.0903 -0.644021 -4.11288 0
M  V30 222 H 22.6233 -2.15778 -3.34193 0
M  V30 223 H 19.3623 -5.02841 -4.20513 0
M  V30 224 H 18.8823 -3.46219 -4.89788 0
M  V30 225 H 20.5613 -4.03462 -5.05794 0
M  V30 226 N 20.6934 1.19889 -1.02296 0
M  V30 227 C 22.1044 1.71124 -0.746568 0
M  V30 228 C 22.4554 1.81939 0.734335 0
M  V30 229 O 21.5804 1.48639 1.57275 0
M  V30 230 C 22.1754 3.10804 -1.34857 0
M  V30 231 C 20.7344 3.59323 -1.1209 0
M  V30 232 C 19.8814 2.3635 -1.45031 0
M  V30 233 H 22.8324 1.04813 -1.19163 0
M  V30 234 H 22.8534 3.73186 -0.742437 0
M  V30 235 H 22.3654 3.029 -2.42638 0
M  V30 236 H 20.4664 3.7255 -0.0610337 0
M  V30 237 H 20.5794 4.4378 -1.80544 0
M  V30 238 H 18.9434 2.39399 -0.869487 0
M  V30 239 H 19.7264 2.31081 -2.53883 0
M  V30 240 N 22.1715 0.800033 1.35784 0
M  V30 241 C 23.0815 0.207204 2.33683 0
M  V30 242 C 24.0975 -0.64631 1.61551 0
M  V30 243 O 25.2735 -0.559604 1.93469 0
M  V30 244 C 22.3385 -0.639659 3.40748 0
M  V30 245 C 21.3995 0.233585 4.28664 0
M  V30 246 C 20.6325 -0.572954 5.30616 0
M  V30 247 O 20.8555 -1.80816 5.40982 0
M  V30 248 O 19.7895 0.0327285 6.01891 0
M  V30 249 H 23.6155 1.01692 2.86169 0
M  V30 250 H 21.2005 0.561691 1.38439 0
M  V30 251 H 23.0825 -1.12223 4.06182 0
M  V30 252 H 21.7575 -1.42708 2.90544 0
M  V30 253 H 20.6645 0.763147 3.66233 0
M  V30 254 H 21.9975 0.984784 4.82248 0
M  V30 255 N 23.6496 -1.47581 0.552962 0
M  V30 256 C 24.5996 -2.26961 -0.217423 0
M  V30 257 C 25.5836 -1.34099 -0.889168 0
M  V30 258 O 26.7756 -1.58483 -0.788176 0
M  V30 259 C 23.9046 -3.19756 -1.24944 0
M  V30 260 C 22.9906 -4.20097 -0.581327 0
M  V30 261 N 23.3816 -5.04614 0.346171 0
M  V30 262 C 21.6796 -4.38099 -0.835767 0
M  V30 263 C 22.3806 -5.77052 0.733854 0
M  V30 264 N 21.3566 -5.43526 0.0896567 0
M  V30 265 H 25.1586 -2.89688 0.495761 0
M  V30 266 H 22.6726 -1.58068 0.372597 0
M  V30 267 H 24.6696 -3.75305 -1.81527 0
M  V30 268 H 23.3296 -2.58585 -1.96376 0
M  V30 269 H 24.3406 -5.12869 0.720098 0
M  V30 270 H 21.0176 -3.88102 -1.53892 0
M  V30 271 H 22.4076 -6.5504 1.49574 0
M  V30 272 N 25.1277 -0.289203 -1.54924 0
M  V30 273 C 26.3767 0.324231 -1.99077 0
M  V30 274 C 26.6897 1.5591 -1.18117 0
M  V30 275 O 27.8957 2.24637 -1.52481 0
M  V30 276 C 26.3517 0.628209 -3.54375 0
M  V30 277 C 25.9597 -0.587647 -4.44129 0
M  V30 278 C 27.7037 1.20349 -4.07083 0
M  V30 279 C 25.6107 -0.257475 -5.90839 0
M  V30 280 H 24.5407 0.124924 -0.743579 0
M  V30 281 H 27.1917 -0.396063 -1.79175 0
M  V30 282 H 25.5737 1.40778 -3.70132 0
M  V30 283 H 26.7477 -1.36418 -4.40144 0
M  V30 284 H 25.0627 -1.08074 -4.0213 0
M  V30 285 H 27.6597 1.46456 -5.14252 0
M  V30 286 H 28.0027 2.14195 -3.56968 0
M  V30 287 H 28.5357 0.485889 -3.94821 0
M  V30 288 H 25.2747 -1.16419 -6.45079 0
M  V30 289 H 24.7947 0.482018 -5.9786 0
M  V30 290 H 26.4737 0.145238 -6.46837 0
M  V30 291 N 26.6058 1.57591 -0.0167156 0
M  V30 292 C 27.5358 2.12496 0.967858 0
M  V30 293 C 28.5168 1.03807 1.34752 0
M  V30 294 O 29.7018 1.31577 1.42833 0
M  V30 295 C 26.8318 2.64194 2.25431 0
M  V30 296 C 25.7858 3.77559 2.01576 0
M  V30 297 C 25.1118 4.15636 3.36379 0
M  V30 298 C 26.4118 5.04151 1.36489 0
M  V30 299 H 28.1058 2.95013 0.510643 0
M  V30 300 H 25.6518 1.41915 0.244181 0
M  V30 301 H 27.6048 3.01236 2.94678 0
M  V30 302 H 26.3288 1.78821 2.73296 0
M  V30 303 H 24.9878 3.40937 1.34751 0
M  V30 304 H 24.6358 3.27263 3.81979 0
M  V30 305 H 24.3358 4.92022 3.21229 0
M  V30 306 H 25.8598 4.5525 4.06915 0
M  V30 307 H 27.2738 5.38857 1.95718 0
M  V30 308 H 25.6708 5.85453 1.31776 0
M  V30 309 H 26.7408 4.83733 0.336219 0
M  V30 310 N 28.0839 -0.256276 1.55502 0
M  V30 311 C 29.0159 -1.33981 1.85962 0
M  V30 312 C 30.0289 -1.44743 0.745212 0
M  V30 313 O 31.2179 -1.4626 1.02324 0
M  V30 314 C 28.3179 -2.7194 2.02242 0
M  V30 315 C 27.4909 -2.83562 3.33033 0
M  V30 316 C 26.5499 -4.02304 3.39172 0
M  V30 317 O 25.5759 -3.92273 4.12444 0
M  V30 318 N 26.7779 -5.15045 2.67784 0
M  V30 319 H 29.5429 -1.08191 2.7949 0
M  V30 320 H 27.1039 -0.446388 1.55624 0
M  V30 321 H 29.0959 -3.49697 2.03701 0
M  V30 322 H 27.6659 -2.90479 1.15502 0
M  V30 323 H 26.8859 -1.92555 3.43971 0
M  V30 324 H 28.1739 -2.88271 4.19258 0
M  V30 325 H 27.5719 -5.26085 2.07968 0
M  V30 326 H 26.1289 -5.90972 2.74947 0
M  V30 327 N 29.562 -1.4872 -0.521534 0
M  V30 328 C 30.787 -1.61101 -1.30618 0
M  V30 329 C 31.212 -0.274611 -1.86085 0
M  V30 330 O 30.57 0.754937 -1.64834 0
M  V30 331 C 30.618 -2.66709 -2.4269 0
M  V30 332 O 29.722 -2.24456 -3.45967 0
M  V30 333 H 29.063 -0.539921 -0.386499 0
M  V30 334 H 31.593 -1.94767 -0.626645 0
M  V30 335 H 31.603 -2.88245 -2.88754 0
M  V30 336 H 30.278 -3.63727 -2.01682 0
M  V30 337 H 28.855 -2.13168 -3.05964 0
M  V30 338 N 31.0401 0.771051 -1.3745 0
M  V30 339 C 32.2681 1.56015 -1.35893 0
M  V30 340 C 32.6831 1.88718 0.0555523 0
M  V30 341 O 32.0401 1.51502 1.01752 0
M  V30 342 C 32.0911 2.87001 -2.19801 0
M  V30 343 O 31.8121 2.557 -3.55738 0
M  V30 344 C 33.3131 3.81228 -2.26231 0
M  V30 345 H 30.5331 0.483317 -0.465453 0
M  V30 346 H 33.0771 0.955611 -1.80799 0
M  V30 347 H 31.2321 3.43877 -1.78402 0
M  V30 348 H 31.6461 3.39584 -3.99729 0
M  V30 349 H 33.1201 4.70139 -2.89263 0
M  V30 350 H 33.5971 4.20409 -1.27093 0
M  V30 351 H 34.2031 3.30281 -2.67945 0
M  V30 352 N 32.5182 1.22032 0.997298 0
M  V30 353 C 33.7652 1.04222 1.73621 0
M  V30 354 C 34.0932 -0.423264 1.89839 0
M  V30 355 O 33.3482 -1.3302 1.43542 0
M  V30 356 C 33.6472 1.69345 3.14733 0
M  V30 357 C 33.3132 3.19226 3.18442 0
M  V30 358 C 31.9752 3.60124 3.19161 0
M  V30 359 C 34.3272 4.15181 3.15078 0
M  V30 360 C 31.6552 4.95467 3.14212 0
M  V30 361 C 34.0072 5.50495 3.1167 0
M  V30 362 C 32.6712 5.90779 3.10703 0
M  V30 363 H 31.9412 0.381374 0.635323 0
M  V30 364 H 34.5882 1.51732 1.16831 0
M  V30 365 H 32.8932 1.14147 3.74803 0
M  V30 366 H 34.5902 1.53059 3.7064 0
M  V30 367 H 31.1802 2.86659 3.18629 0
M  V30 368 H 35.3642 3.84605 3.13676 0
M  V30 369 H 30.6202 5.25916 3.11805 0
M  V30 370 H 34.7942 6.24576 3.08022 0
M  V30 371 H 32.4212 6.9562 3.06622 0
M  V30 372 N 33.9963 -1.19345 1.0293 0
M  V30 373 C 35.2423 -1.89318 0.727083 0
M  V30 374 C 35.5753 -1.79446 -0.742483 0
M  V30 375 O 34.8503 -1.1871 -1.54072 0
M  V30 376 C 35.1333 -3.40238 1.17942 0
M  V30 377 C 34.9863 -3.58979 2.71024 0
M  V30 378 C 36.3053 -4.33479 0.760548 0
M  V30 379 H 33.4243 -0.687475 0.265606 0
M  V30 380 H 36.0663 -1.40477 1.2793 0
M  V30 381 H 34.2163 -3.81964 0.709608 0
M  V30 382 H 35.8883 -3.26421 3.25955 0
M  V30 383 H 34.1313 -3.02018 3.11396 0
M  V30 384 H 34.8023 -4.64823 2.9773 0
M  V30 385 H 37.2783 -3.99469 1.16464 0
M  V30 386 H 36.1543 -5.37664 1.10493 0
M  V30 387 H 36.4153 -4.40813 -0.337063 0
M  V30 388 N 35.4744 -0.807222 -1.35358 0
M  V30 389 C 36.4244 -0.190706 -2.27201 0
M  V30 390 C 37.4084 0.635838 -1.47804 0
M  V30 391 O 38.6004 0.492991 -1.69996 0
M  V30 392 C 35.7294 0.659337 -3.36909 0
M  V30 393 C 34.8154 -0.176971 -4.23731 0
M  V30 394 N 35.2064 -1.24029 -4.90357 0
M  V30 395 C 33.5044 0.0412953 -4.45981 0
M  V30 396 C 34.2054 -1.75092 -5.54723 0
M  V30 397 N 33.1814 -1.05727 -5.33219 0
M  V30 398 H 36.9834 -1.0043 -2.76208 0
M  V30 399 H 34.4974 -0.648445 -1.48892 0
M  V30 400 H 36.4944 1.11706 -4.01656 0
M  V30 401 H 35.1544 1.47127 -2.89454 0
M  V30 402 H 36.1654 -1.62295 -4.91814 0
M  V30 403 H 32.8424 0.82232 -4.09322 0
M  V30 404 H 34.2324 -2.63963 -6.17878 0
M  V30 405 N 36.9525 1.47285 -0.560781 0
M  V30 406 C 38.1985 2.02764 -0.0381184 0
M  V30 407 C 38.5315 1.43384 1.30976 0
M  V30 408 O 37.8065 0.590733 1.85312 0
M  V30 409 C 38.0895 3.60064 0.0511427 0
M  V30 410 C 37.9425 4.2987 -1.32408 0
M  V30 411 C 39.2615 4.33439 0.762795 0
M  V30 412 H 36.3805 0.736841 -0.0153264 0
M  V30 413 H 39.0225 1.75675 -0.723759 0
M  V30 414 H 37.1725 3.83274 0.635065 0
M  V30 415 H 38.8445 4.17989 -1.95148 0
M  V30 416 H 37.0875 3.90085 -1.8978 0
M  V30 417 H 37.7585 5.38478 -1.21431 0
M  V30 418 H 40.2345 4.15243 0.266965 0
M  V30 419 H 39.1105 5.43124 0.794221 0
M  V30 420 H 39.3715 4.02915 1.81966 0
M  V30 421 N 38.4306 0.297415 1.54768 0
M  V30 422 C 39.6796 -0.313669 1.99246 0
M  V30 423 C 39.9926 -1.55281 1.18942 0
M  V30 424 O 41.1986 -2.23825 1.5367 0
M  V30 425 C 39.6546 -0.609407 3.54703 0
M  V30 426 C 39.2626 0.611192 4.43811 0
M  V30 427 C 41.0066 -1.18188 4.07715 0
M  V30 428 C 38.9136 0.288805 5.90694 0
M  V30 429 H 37.8436 -0.120979 0.744231 0
M  V30 430 H 40.4946 0.40556 1.78962 0
M  V30 431 H 38.8766 -1.38813 3.70873 0
M  V30 432 H 40.0506 1.3875 4.39414 0
M  V30 433 H 38.3656 1.10205 4.01552 0
M  V30 434 H 40.9626 -1.43727 5.15021 0
M  V30 435 H 41.3056 -2.12299 3.58099 0
M  V30 436 H 41.8386 -0.464944 3.95074 0
M  V30 437 H 38.5776 1.19838 6.44453 0
M  V30 438 H 38.0976 -0.450305 5.98107 0
M  V30 439 H 39.7766 -0.110933 6.46905 0
M  V30 440 N 39.9087 -1.5758 0.0250728 0
M  V30 441 C 41.1337 -1.96337 -0.668317 0
M  V30 442 C 41.5587 -0.901314 -1.651 0
M  V30 443 O 40.9167 0.138187 -1.80773 0
M  V30 444 C 40.9647 -3.34191 -1.35457 0
M  V30 445 O 40.0687 -3.30269 -2.46974 0
M  V30 446 H 39.4097 -0.640281 -0.175887 0
M  V30 447 H 41.9397 -2.0442 0.0857224 0
M  V30 448 H 41.9497 -3.70331 -1.71228 0
M  V30 449 H 40.6247 -4.11036 -0.634218 0
M  V30 450 H 39.2017 -3.05841 -2.13344 0
M  V30 451 N 41.3868 0.248026 -1.55636 0
M  V30 452 C 42.6118 0.998028 -1.81808 0
M  V30 453 C 43.0368 1.78207 -0.601979 0
M  V30 454 O 42.3948 1.75653 0.448961 0
M  V30 455 C 42.4428 1.9125 -3.05705 0
M  V30 456 O 41.5468 3.00406 -2.82542 0
M  V30 457 H 40.8878 0.284045 -0.600179 0
M  V30 458 H 43.4178 0.269357 -2.02819 0
M  V30 459 H 43.4278 2.32737 -3.35108 0
M  V30 460 H 42.1028 1.33602 -3.93857 0
M  V30 461 H 40.6798 2.63056 -2.64303 0
M  V30 462 N 42.8649 1.48995 0.513639 0
M  V30 463 C 43.8129 1.65199 1.63744 0
M  V30 464 C 44.8069 0.51809 1.61283 0
M  V30 465 O 46.0129 0.697335 1.65943 0
M  V30 466 H 42.3879 0.52069 0.542574 0
M  V30 467 H 44.3589 2.59552 1.47226 0
M  V30 468 C 43.1079 1.72409 3.01945 0
M  V30 469 H 42.4309 2.59029 3.04539 0
M  V30 470 H 43.8709 1.87785 3.80148 0
M  V30 471 C 42.3299 0.46618 3.33659 0
M  V30 472 O 42.8599 -0.413744 3.99564 0
M  V30 473 N 41.0659 0.332931 2.88687 0
M  V30 474 H 40.6129 1.04996 2.35231 0
M  V30 475 H 40.5709 -0.507665 3.10274 0
M  V30 476 N 44.343 -0.763751 1.37857 0
M  V30 477 C 45.589 -1.52396 1.3471 0
M  V30 478 C 45.944 -1.92288 -0.0656435 0
M  V30 479 O 45.237 -1.6181 -1.02606 0
M  V30 480 C 45.431 -2.79499 2.22745 0
M  V30 481 C 45.26 -2.52031 3.72438 0
M  V30 482 C 44.03 -2.45759 4.4151 0
M  V30 483 C 46.228 -2.19489 4.65112 0
M  V30 484 N 44.21 -2.1046 5.76697 0
M  V30 485 C 45.581 -1.94396 5.88736 0
M  V30 486 C 47.636 -2.05712 4.53417 0
M  V30 487 C 46.339 -1.56917 7.01975 0
M  V30 488 C 48.365 -1.69634 5.66549 0
M  V30 489 C 47.727 -1.45407 6.89229 0
M  V30 490 H 43.826 -0.55765 0.548225 0
M  V30 491 H 46.41 -0.890302 1.73152 0
M  V30 492 H 44.581 -3.4069 1.86507 0
M  V30 493 H 46.313 -3.45465 2.10798 0
M  V30 494 H 43.068 -2.61885 3.94605 0
M  V30 495 H 43.492 -1.95484 6.48163 0
M  V30 496 H 48.134 -2.23123 3.59133 0
M  V30 497 H 45.852 -1.38246 7.96187 0
M  V30 498 H 49.438 -1.59621 5.59475 0
M  V30 499 H 48.318 -1.17904 7.75286 0
M  V30 500 N 45.8211 -1.22559 -0.990812 0
M  V30 501 C 47.0461 -1.07862 -1.77145 0
M  V30 502 C 47.4711 0.366447 -1.84496 0
M  V30 503 O 46.8291 1.26478 -1.29896 0
M  V30 504 C 46.8771 -1.69686 -3.18181 0
M  V30 505 O 45.9811 -0.951946 -4.01263 0
M  V30 506 H 45.3221 -0.378712 -0.545411 0
M  V30 507 H 47.8521 -1.62399 -1.2445 0
M  V30 508 H 47.8621 -1.74496 -3.68802 0
M  V30 509 H 46.5371 -2.74841 -3.12146 0
M  V30 510 H 45.1141 -0.980011 -3.59792 0
M  V30 511 N 47.2992 1.18797 -1.03562 0
M  V30 512 C 48.5472 1.88278 -0.734569 0
M  V30 513 C 48.8682 1.8043 0.739586 0
M  V30 514 O 48.1382 1.21925 1.53333 0
M  V30 515 H 46.7182 0.696991 -0.268725 0
M  V30 516 H 49.3802 1.44192 -1.31129 0
M  V30 517 H 48.4762 2.94443 -1.03489 0
M  V30 518 N 48.7773 0.814389 1.34928 0
M  V30 519 C 49.7073 0.244827 2.32213 0
M  V30 520 C 50.6883 -0.634024 1.57842 0
M  V30 521 O 51.8733 -0.562676 1.8587 0
M  V30 522 C 49.0033 -0.601106 3.42058 0
M  V30 523 C 47.9573 0.179896 4.27622 0
M  V30 524 C 47.2833 -0.788237 5.28858 0
M  V30 525 C 48.5833 1.38329 5.03649 0
M  V30 526 H 50.2773 1.05763 2.80097 0
M  V30 527 H 47.8233 0.510029 1.34665 0
M  V30 528 H 49.7763 -1.00968 4.09125 0
M  V30 529 H 48.5003 -1.44688 2.92802 0
M  V30 530 H 47.1593 0.569739 3.62146 0
M  V30 531 H 46.8073 -1.62973 4.75866 0
M  V30 532 H 46.5073 -0.269942 5.8698 0
M  V30 533 H 48.0313 -1.19485 5.98795 0
M  V30 534 H 49.4453 1.04918 5.63618 0
M  V30 535 H 47.8423 1.83662 5.71304 0
M  V30 536 H 48.9123 2.16592 4.33839 0
M  V30 537 N 50.2554 -1.46986 0.568584 0
M  V30 538 C 51.1874 -2.28233 -0.210337 0
M  V30 539 C 52.2004 -1.37682 -0.868767 0
M  V30 540 O 53.3894 -1.62406 -0.740705 0
M  V30 541 C 50.4894 -3.12293 -1.3163 0
M  V30 542 C 49.6624 -4.30878 -0.7525 0
M  V30 543 C 48.7214 -4.96445 -1.74439 0
M  V30 544 O 47.7474 -5.54482 -1.286 0
M  V30 545 N 48.9494 -4.92171 -3.07812 0
M  V30 546 H 51.7144 -2.95723 0.486648 0
M  V30 547 H 49.2754 -1.56742 0.405409 0
M  V30 548 H 51.2674 -3.53022 -1.97883 0
M  V30 549 H 49.8374 -2.46971 -1.91636 0
M  V30 550 H 49.0574 -3.94104 0.0871128 0
M  V30 551 H 50.3454 -5.07558 -0.35536 0
M  V30 552 H 49.7434 -4.46239 -3.47688 0
M  V30 553 H 48.3004 -5.36884 -3.69592 0
M  V30 554 N 51.7335 -0.305618 -1.54608 0
M  V30 555 C 52.9615 0.304775 -2.04643 0
M  V30 556 C 53.3765 1.47167 -1.18268 0
M  V30 557 O 52.7335 1.81296 -0.209328 0
M  V30 558 C 52.7845 0.756564 -3.53495 0
M  V30 559 O 52.5055 -0.36389 -4.36586 0
M  V30 560 C 54.0065 1.43163 -4.19546 0
M  V30 561 H 51.2265 0.0655481 -0.667791 0
M  V30 562 H 53.7705 -0.446592 -1.99564 0
M  V30 563 H 51.9255 1.45794 -3.58919 0
M  V30 564 H 52.3395 -0.0113121 -5.24499 0
M  V30 565 H 53.8135 1.69886 -5.25207 0
M  V30 566 H 54.2905 2.37318 -3.69563 0
M  V30 567 H 54.8965 0.773307 -4.18211 0
M  V30 568 N 53.2116 1.57565 -0.0334293 0
M  V30 569 C 54.1216 2.13943 0.962572 0
M  V30 570 C 55.1376 1.09276 1.35406 0
M  V30 571 O 56.3136 1.41355 1.4346 0
M  V30 572 C 53.3786 2.65887 2.22497 0
M  V30 573 C 52.4396 3.85286 1.8935 0
M  V30 574 C 51.6726 4.34743 3.09571 0
M  V30 575 O 51.8956 3.83352 4.22371 0
M  V30 576 O 50.8296 5.26538 2.91618 0
M  V30 577 H 54.6556 2.99333 0.513169 0
M  V30 578 H 52.2406 1.4822 0.18743 0
M  V30 579 H 54.1226 2.99346 2.96598 0
M  V30 580 H 52.7976 1.83578 2.6661 0
M  V30 581 H 51.7046 3.56746 1.1262 0
M  V30 582 H 53.0376 4.68771 1.5005 0
M  V30 583 N 54.6897 -0.239769 1.55765 0
M  V30 584 C 55.9147 -0.988373 1.82335 0
M  V30 585 C 56.3397 -1.77886 0.611421 0
M  V30 586 O 55.6977 -1.75889 -0.439639 0
M  V30 587 C 55.7457 -1.89627 3.06715 0
M  V30 588 O 54.8497 -2.98904 2.84131 0
M  V30 589 H 54.1907 -0.280858 0.601677 0
M  V30 590 H 56.7207 -0.258597 2.02959 0
M  V30 591 H 56.7307 -2.30957 3.36338 0
M  V30 592 H 55.4057 -1.31511 3.9456 0
M  V30 593 H 53.9827 -2.61651 2.65694 0
M  V30 594 N 56.1678 -1.49265 -0.50573 0
M  V30 595 C 57.4168 -1.57761 -1.25675 0
M  V30 596 C 57.7298 -0.267371 -1.93764 0
M  V30 597 O 58.9358 -0.230827 -2.70517 0
M  V30 598 C 57.3918 -2.78332 -2.28165 0
M  V30 599 C 56.9998 -4.16096 -1.66037 0
M  V30 600 C 58.7438 -2.96155 -3.04125 0
M  V30 601 C 56.6508 -5.27895 -2.6661 0
M  V30 602 H 55.5808 -0.587391 -0.472745 0
M  V30 603 H 58.2318 -1.75644 -0.53118 0
M  V30 604 H 56.6138 -2.53934 -3.03865 0
M  V30 605 H 57.7878 -4.50612 -0.963622 0
M  V30 606 H 56.1028 -4.03591 -1.02484 0
M  V30 607 H 58.6998 -3.76849 -3.79327 0
M  V30 608 H 59.0428 -2.06534 -3.61455 0
M  V30 609 H 59.5758 -3.2057 -2.35541 0
M  V30 610 H 56.3148 -6.1956 -2.14068 0
M  V30 611 H 55.8348 -4.97839 -3.34539 0
M  V30 612 H 57.5138 -5.57031 -3.29129 0
M  V30 613 N 57.6459 0.756429 -1.3826 0
M  V30 614 C 59.0569 1.33359 -1.30661 0
M  V30 615 C 59.4079 1.96161 0.0388875 0
M  V30 616 O 58.5329 1.94874 0.940918 0
M  V30 617 C 59.1279 2.42477 -2.36622 0
M  V30 618 C 57.6869 2.95922 -2.3261 0
M  V30 619 C 56.8339 1.69275 -2.19639 0
M  V30 620 H 59.7849 0.55552 -1.4866 0
M  V30 621 H 59.8059 3.22345 -2.02174 0
M  V30 622 H 59.3179 1.96739 -3.34538 0
M  V30 623 H 57.4189 3.45996 -1.38267 0
M  V30 624 H 57.5319 3.50494 -3.26636 0
M  V30 625 H 55.8959 1.92793 -1.66442 0
M  V30 626 H 56.6789 1.25619 -3.19491 0
M  V30 627 N 59.124 1.23083 0.984299 0
M  V30 628 C 60.034 1.02515 2.11016 0
M  V30 629 C 61.05 -0.0291702 1.73976 0
M  V30 630 O 62.226 0.165434 2.00719 0
M  V30 631 C 59.291 0.614673 3.41208 0
M  V30 632 C 58.352 1.74359 3.92297 0
M  V30 633 C 57.585 1.35261 5.16275 0
M  V30 634 O 57.808 0.235136 5.69915 0
M  V30 635 O 56.742 2.17227 5.61334 0
M  V30 636 H 60.568 1.96862 2.31255 0
M  V30 637 H 58.153 1.01753 1.09392 0
M  V30 638 H 60.035 0.396518 4.1953 0
M  V30 639 H 58.71 -0.299851 3.22308 0
M  V30 640 H 57.617 2.01635 3.1511 0
M  V30 641 H 58.95 2.63629 4.15645 0
M  V30 642 N 60.6021 -1.18246 1.0419 0
M  V30 643 C 61.5121 -2.25574 0.644476 0
M  V30 644 C 62.5281 -1.70845 -0.329826 0
M  V30 645 O 63.7041 -2.00554 -0.184443 0
M  V30 646 C 60.7691 -3.46697 0.014877 0
M  V30 647 C 59.8301 -4.16554 1.03834 0
M  V30 648 C 59.0631 -5.31894 0.438692 0
M  V30 649 O 59.2861 -5.65385 -0.754752 0
M  V30 650 O 58.2201 -5.90459 1.168 0
M  V30 651 H 62.0461 -2.61836 1.53869 0
M  V30 652 H 59.6311 -1.25352 0.812854 0
M  V30 653 H 61.5131 -4.20062 -0.335538 0
M  V30 654 H 60.1881 -3.12255 -0.853138 0
M  V30 655 H 59.0951 -3.45251 1.44057 0
M  V30 656 H 60.4281 -4.54998 1.87716 0
M  V30 657 N 62.0802 -0.821533 -1.34494 0
M  V30 658 C 63.0132 -0.187704 -2.27427 0
M  V30 659 C 63.9912 0.65507 -1.48821 0
M  V30 660 O 65.1752 0.619111 -1.78043 0
M  V30 661 C 62.3022 0.737996 -3.30562 0
M  V30 662 C 61.3482 -0.0270713 -4.26491 0
M  V30 663 S 62.1812 -1.37329 -5.17592 0
M  V30 664 C 63.3372 -0.452427 -6.24263 0
M  V30 665 H 63.5702 -0.975598 -2.80837 0
M  V30 666 H 61.1032 -0.61736 -1.4152 0
M  V30 667 H 63.0612 1.26654 -3.90473 0
M  V30 668 H 61.7222 1.4994 -2.76001 0
M  V30 669 H 60.9152 0.6766 -4.99438 0
M  V30 670 H 60.5172 -0.48612 -3.70827 0
M  V30 671 H 62.8092 0.356557 -6.76561 0
M  V30 672 H 63.7522 -1.15153 -6.98674 0
M  V30 673 H 64.1602 -0.0414755 -5.64485 0
M  V30 674 N 63.5583 1.46682 -0.576371 0
M  V30 675 C 64.5053 2.30241 0.160499 0
M  V30 676 C 65.4753 1.40233 0.890162 0
M  V30 677 O 66.6603 1.69186 0.882084 0
M  V30 678 C 63.8003 3.24578 1.1723 0
M  V30 679 C 62.9133 4.29684 0.446736 0
M  V30 680 C 62.0483 5.11154 1.44551 0
M  V30 681 C 61.0873 6.08015 0.70599 0
M  V30 682 N 60.2243 6.82376 1.65251 0
M  V30 683 H 65.0643 2.92727 -0.558127 0
M  V30 684 H 62.6013 1.44272 -0.287056 0
M  V30 685 H 64.5593 3.77711 1.77172 0
M  V30 686 H 63.1893 2.63916 1.85872 0
M  V30 687 H 62.2413 3.79458 -0.267594 0
M  V30 688 H 63.5533 4.98626 -0.131686 0
M  V30 689 H 62.7073 5.68533 2.11791 0
M  V30 690 H 61.4463 4.42158 2.05786 0
M  V30 691 H 60.4513 5.49796 0.0197725 0
M  V30 692 H 61.6763 6.79028 0.09912 0
M  V30 693 H 59.6223 6.16094 2.25308 0
M  V30 694 H 59.5393 7.47556 1.12673 0
M  V30 695 H 60.8073 7.44316 2.31546 0
M  V30 696 N 65.0364 0.313813 1.54444 0
M  V30 697 C 65.9684 -0.590425 2.21465 0
M  V30 698 C 66.9814 -1.08753 1.21147 0
M  V30 699 O 68.1704 -1.00278 1.4767 0
M  V30 700 C 65.2704 -1.82179 2.85769 0
M  V30 701 C 64.4434 -1.46502 4.12136 0
M  V30 702 C 63.5024 -2.55288 4.60124 0
M  V30 703 O 62.5284 -2.19842 5.25032 0
M  V30 704 N 63.7304 -3.86053 4.33525 0
M  V30 705 H 66.4954 -0.0166033 2.99695 0
M  V30 706 H 64.0564 0.136578 1.61323 0
M  V30 707 H 66.0484 -2.54328 3.14801 0
M  V30 708 H 64.6184 -2.30369 2.11303 0
M  V30 709 H 63.8384 -0.575595 3.89975 0
M  V30 710 H 65.1264 -1.20221 4.94393 0
M  V30 711 H 64.5244 -4.17654 3.81552 0
M  V30 712 H 63.0814 -4.54461 4.67235 0
M  V30 713 N 66.5145 -1.57545 0.0417849 0
M  V30 714 C 67.7635 -1.91494 -0.633492 0
M  V30 715 C 68.0765 -0.921084 -1.72556 0
M  V30 716 O 69.2825 -1.15228 -2.45835 0
M  V30 717 C 67.7385 -3.40072 -1.17808 0
M  V30 718 C 67.3465 -4.47843 -0.118633 0
M  V30 719 C 69.0905 -3.8307 -1.82915 0
M  V30 720 C 66.9975 -5.87529 -0.675578 0
M  V30 721 H 65.9275 -0.714653 -0.24039 0
M  V30 722 H 68.5785 -1.83175 0.109148 0
M  V30 723 H 66.9605 -3.43364 -1.97274 0
M  V30 724 H 68.1345 -4.56128 0.654494 0
M  V30 725 H 66.4495 -4.14128 0.434414 0
M  V30 726 H 69.0465 -4.84794 -2.25563 0
M  V30 727 H 69.3895 -3.1881 -2.67705 0
M  V30 728 H 69.9225 -3.82255 -1.10119 0
M  V30 729 H 66.6615 -6.55362 0.134475 0
M  V30 730 H 66.1815 -5.82824 -1.4169 0
M  V30 731 H 67.8605 -6.36491 -1.1614 0
M  V30 732 N 67.9926 0.231505 -1.5589 0
M  V30 733 C 69.2386 0.95877 -1.78705 0
M  V30 734 C 69.5716 1.8438 -0.609725 0
M  V30 735 O 68.8466 1.90521 0.391426 0
M  V30 736 C 69.1296 1.8062 -3.11526 0
M  V30 737 C 68.9826 0.948328 -4.39689 0
M  V30 738 C 70.3016 2.78585 -3.40703 0
M  V30 739 H 67.4206 0.347129 -0.650131 0
M  V30 740 H 70.0626 0.228259 -1.88624 0
M  V30 741 H 68.2126 2.42902 -3.03201 0
M  V30 742 H 69.8846 0.343016 -4.60023 0
M  V30 743 H 68.1276 0.253314 -4.3306 0
M  V30 744 H 68.7986 1.57543 -5.29041 0
M  V30 745 H 71.2746 2.26439 -3.49091 0
M  V30 746 H 70.1506 3.34988 -4.34826 0
M  V30 747 H 70.4116 3.55825 -2.62375 0
M  V30 748 N 69.4707 1.49531 0.497807 0
M  V30 749 C 70.3807 1.69176 1.62532 0
M  V30 750 C 71.3967 0.5744 1.64246 0
M  V30 751 O 72.5727 0.849497 1.82608 0
M  V30 752 C 69.6377 1.75695 2.98885 0
M  V30 753 C 68.6987 2.9929 3.07773 0
M  V30 754 C 67.9317 3.05488 4.37622 0
M  V30 755 O 68.1547 2.19192 5.26603 0
M  V30 756 O 67.0887 3.9798 4.51548 0
M  V30 757 H 70.9147 2.647 1.48887 0
M  V30 758 H 68.4997 1.3331 0.674441 0
M  V30 759 H 70.3817 1.82317 3.79919 0
M  V30 760 H 69.0567 0.8335 3.12785 0
M  V30 761 H 67.9637 2.98183 2.25915 0
M  V30 762 H 69.2967 3.91125 2.98801 0
M  V30 763 N 70.9488 -0.749086 1.3866 0
M  V30 764 C 71.8588 -1.89358 1.38494 0
M  V30 765 C 72.8748 -1.71708 0.281476 0
M  V30 766 O 74.0508 -1.94554 0.520643 0
M  V30 767 C 71.1158 -3.24782 1.21316 0
M  V30 768 C 70.1768 -3.54926 2.41508 0
M  V30 769 C 69.4098 -4.83888 2.2514 0
M  V30 770 O 69.6328 -5.56592 1.24746 0
M  V30 771 O 68.5668 -5.13612 3.13826 0
M  V30 772 H 72.3928 -1.92452 2.34938 0
M  V30 773 H 69.9778 -0.894981 1.19626 0
M  V30 774 H 71.8598 -4.05739 1.13814 0
M  V30 775 H 70.5348 -3.2249 0.279592 0
M  V30 776 H 69.4418 -2.74112 2.54585 0
M  V30 777 H 70.7748 -3.61983 3.3351 0
M  V30 778 N 72.4269 -1.23603 -0.977757 0
M  V30 779 C 73.3589 -0.977369 -2.07317 0
M  V30 780 C 74.3719 0.0495845 -1.62724 0
M  V30 781 O 75.5609 -0.186261 -1.77526 0
M  V30 782 C 72.6609 -0.451216 -3.35883 0
M  V30 783 C 71.8339 -1.53896 -4.09432 0
M  V30 784 C 70.8929 -1.01721 -5.16274 0
M  V30 785 O 69.9189 -1.70676 -5.43009 0
M  V30 786 N 71.1209 0.153594 -5.80297 0
M  V30 787 H 73.8859 -1.92047 -2.30082 0
M  V30 788 H 71.4469 -1.14497 -1.14465 0
M  V30 789 H 73.4389 -0.0871574 -4.04606 0
M  V30 790 H 72.0089 0.397368 -3.10064 0
M  V30 791 H 71.2289 -2.07566 -3.35127 0
M  V30 792 H 72.5169 -2.27037 -4.55337 0
M  V30 793 H 71.9149 0.730323 -5.60966 0
M  V30 794 H 70.4719 0.458892 -6.50183 0
M  V30 795 N 73.905 1.17692 -1.04816 0
M  V30 796 C 75.153 1.87488 -0.754497 0
M  V30 797 C 75.474 1.81205 0.720407 0
M  V30 798 O 74.744 1.23544 1.52032 0
M  V30 799 H 73.324 0.694101 -0.276102 0
M  V30 800 H 75.986 1.42793 -1.32651 0
M  V30 801 H 75.082 2.93328 -1.06606 0
M  V30 802 N 75.3831 0.828654 1.34056 0
M  V30 803 C 76.3311 0.242973 2.31327 0
M  V30 804 C 77.3251 -0.61944 1.57668 0
M  V30 805 O 78.5311 -0.51014 1.7262 0
M  V30 806 H 74.9061 0.059834 0.749616 0
M  V30 807 H 76.8771 1.07809 2.78244 0
M  V30 808 C 75.6261 -0.575733 3.429 0
M  V30 809 H 74.9491 0.0785582 3.99723 0
M  V30 810 H 76.3891 -0.951547 4.13185 0
M  V30 811 C 74.8481 -1.75044 2.87856 0
M  V30 812 O 75.3781 -2.84882 2.83205 0
M  V30 813 N 73.5841 -1.56903 2.44602 0
M  V30 814 H 73.1311 -0.675547 2.48584 0
M  V30 815 H 73.0891 -2.35652 2.08124 0
M  V30 816 N 76.8612 -1.46375 0.584142 0
M  V30 817 C 77.8082 -2.30323 -0.148286 0
M  V30 818 C 78.7782 -1.40703 -0.882713 0
M  V30 819 O 79.9632 -1.69651 -0.873099 0
M  V30 820 C 77.1032 -3.25196 -1.15507 0
M  V30 821 C 76.2162 -4.29915 -0.423943 0
M  V30 822 C 75.3512 -5.11914 -1.41838 0
M  V30 823 C 74.3902 -6.08381 -0.673736 0
M  V30 824 N 73.5272 -6.83242 -1.6163 0
M  V30 825 H 78.3672 -2.92427 0.573644 0
M  V30 826 H 75.9042 -1.44118 0.294703 0
M  V30 827 H 77.8622 -3.78646 -1.75166 0
M  V30 828 H 76.4922 -2.64898 -1.8447 0
M  V30 829 H 75.5442 -3.7931 0.287714 0
M  V30 830 H 76.8562 -4.98549 0.158128 0
M  V30 831 H 76.0102 -5.69648 -2.08773 0
M  V30 832 H 74.7492 -4.43243 -2.03438 0
M  V30 833 H 73.7542 -5.49799 0.00938483 0
M  V30 834 H 74.9792 -6.79071 -0.0631082 0
M  V30 835 H 72.9252 -6.1728 -2.22038 0
M  V30 836 H 72.8422 -7.48144 -1.08707 0
M  V30 837 H 74.1102 -7.45534 -2.27596 0
M  V30 838 N 78.3393 -0.321999 -1.54275 0
M  V30 839 C 79.2693 0.537411 -2.27231 0
M  V30 840 C 80.2503 1.12064 -1.27968 0
M  V30 841 O 81.4353 1.14606 -1.56777 0
M  V30 842 C 78.5653 1.69919 -3.02894 0
M  V30 843 C 77.5193 1.24534 -4.09482 0
M  V30 844 C 76.8453 2.49394 -4.72977 0
M  V30 845 C 78.1453 0.361335 -5.21049 0
M  V30 846 H 79.8393 -0.0711406 -2.99315 0
M  V30 847 H 77.3853 -0.0356555 -1.43956 0
M  V30 848 H 79.3383 2.30668 -3.52662 0
M  V30 849 H 78.0623 2.33431 -2.28424 0
M  V30 850 H 76.7213 0.660782 -3.60596 0
M  V30 851 H 76.3693 3.11265 -3.95124 0
M  V30 852 H 76.0693 2.19718 -5.44975 0
M  V30 853 H 77.5933 3.10908 -5.25517 0
M  V30 854 H 79.0073 0.875072 -5.66582 0
M  V30 855 H 77.4043 0.157428 -5.99893 0
M  V30 856 H 78.4743 -0.60822 -4.8107 0
M  V30 857 N 79.8174 1.5752 -0.0501392 0
M  V30 858 C 80.7674 2.07981 0.934231 0
M  V30 859 C 81.7514 0.984745 1.27246 0
M  V30 860 O 82.9434 1.24809 1.25506 0
M  V30 861 C 80.0724 2.62751 2.20945 0
M  V30 862 C 79.1584 3.79225 1.89865 0
M  V30 863 N 79.5494 4.89036 1.29142 0
M  V30 864 C 77.8474 3.88111 2.19741 0
M  V30 865 C 78.5484 5.70084 1.15669 0
M  V30 866 N 77.5244 5.17659 1.65923 0
M  V30 867 H 81.3264 2.90277 0.460053 0
M  V30 868 H 78.8404 1.61665 0.15434 0
M  V30 869 H 80.8374 2.97205 2.9236 0
M  V30 870 H 79.4974 1.81894 2.6897 0
M  V30 871 H 80.5084 5.08854 0.963756 0
M  V30 872 H 77.1854 3.18194 2.70293 0
M  V30 873 H 78.5754 6.68395 0.685356 0
M  V30 874 N 81.2955 -0.223234 1.56011 0
M  V30 875 C 82.5415 -0.944891 1.8012 0
M  V30 876 C 82.8965 -1.82039 0.622862 0
M  V30 877 O 82.1895 -1.8773 -0.383143 0
M  V30 878 C 82.3835 -1.81948 3.0762 0
M  V30 879 C 82.2125 -1.03014 4.37742 0
M  V30 880 C 80.9825 -0.72574 5.00061 0
M  V30 881 C 83.1805 -0.396256 5.12771 0
M  V30 882 N 81.1625 0.0851816 6.13841 0
M  V30 883 C 82.5335 0.278137 6.19376 0
M  V30 884 C 84.5885 -0.309117 4.9694 0
M  V30 885 C 83.2915 1.03133 7.11868 0
M  V30 886 C 85.3175 0.430607 5.8983 0
M  V30 887 C 84.6795 1.09355 6.9586 0
M  V30 888 H 80.7785 -0.326081 0.710771 0
M  V30 889 H 83.3625 -0.215914 1.93499 0
M  V30 890 H 81.5335 -2.52029 2.95527 0
M  V30 891 H 83.2655 -2.47848 3.19927 0
M  V30 892 H 80.0205 -1.04335 4.61964 0
M  V30 893 H 80.4445 0.479428 6.753 0
M  V30 894 H 85.0865 -0.807313 4.15021 0
M  V30 895 H 82.8045 1.54105 7.9327 0
M  V30 896 H 86.3905 0.499012 5.79656 0
M  V30 897 H 85.2705 1.65679 7.66499 0
M  V30 898 N 82.7736 -1.49793 -0.48987 0
M  V30 899 C 83.7366 -1.66752 -1.57246 0
M  V30 900 C 84.7366 -0.538867 -1.51502 0
M  V30 901 O 85.9266 -0.805545 -1.54456 0
M  V30 902 C 83.0586 -1.67528 -2.96896 0
M  V30 903 H 84.2516 -2.63321 -1.43534 0
M  V30 904 H 81.8046 -1.38992 -0.714914 0
M  V30 905 H 82.5396 -0.725837 -3.16073 0
M  V30 906 H 82.3246 -2.49504 -3.02473 0
M  V30 907 H 83.8146 -1.82667 -3.7553 0
M  V30 908 N 84.2517 0.741722 -1.39055 0
M  V30 909 C 85.2147 1.83733 -1.37021 0
M  V30 910 C 86.2147 1.58542 -0.268534 0
M  V30 911 O 87.4047 1.66067 -0.526076 0
M  V30 912 C 84.5367 3.2141 -1.13617 0
M  V30 913 H 85.7297 1.86941 -2.34506 0
M  V30 914 H 83.2827 0.944676 -1.24521 0
M  V30 915 H 84.0177 3.23865 -0.167863 0
M  V30 916 H 83.8027 3.4109 -1.93391 0
M  V30 917 H 85.2927 4.01477 -1.14918 0
M  V30 918 N 85.7298 1.2412 0.971189 0
M  V30 919 C 86.6598 1.05508 2.08304 0
M  V30 920 C 87.6408 -0.0308864 1.70072 0
M  V30 921 O 88.8258 0.135521 1.93727 0
M  V30 922 C 85.9558 0.655365 3.4106 0
M  V30 923 C 84.9098 1.68971 3.93234 0
M  V30 924 C 84.2358 1.14516 5.22293 0
M  V30 925 C 85.5358 3.08487 4.21465 0
M  V30 926 H 87.2298 1.98507 2.24132 0
M  V30 927 H 84.7758 0.955821 1.07704 0
M  V30 928 H 86.7288 0.51217 4.18276 0
M  V30 929 H 85.4528 -0.31032 3.25122 0
M  V30 930 H 84.1118 1.82106 3.18171 0
M  V30 931 H 83.7598 0.170189 5.02712 0
M  V30 932 H 83.4598 1.83635 5.58168 0
M  V30 933 H 84.9838 1.01401 6.02121 0
M  V30 934 H 86.3978 2.98601 4.89398 0
M  V30 935 H 84.7948 3.74926 4.68562 0
M  V30 936 H 85.8648 3.56787 3.28376 0
M  V30 937 N 87.2079 -1.17134 1.05439 0
M  V30 938 C 88.1379 -2.2342 0.678649 0
M  V30 939 C 89.1189 -1.66971 -0.32476 0
M  V30 940 O 90.3039 -1.93149 -0.201802 0
M  V30 941 C 87.4339 -3.47256 0.0552099 0
M  V30 942 C 86.3879 -4.16543 0.98365 0
M  V30 943 C 85.7139 -5.34231 0.223961 0
M  V30 944 C 87.0139 -4.68495 2.3089 0
M  V30 945 H 88.7079 -2.55105 1.56722 0
M  V30 946 H 86.2539 -1.2262 0.754998 0
M  V30 947 H 88.2069 -4.20828 -0.21946 0
M  V30 948 H 86.9309 -3.14846 -0.868319 0
M  V30 949 H 85.5899 -3.44887 1.24293 0
M  V30 950 H 85.2379 -4.98071 -0.702412 0
M  V30 951 H 84.9379 -5.81527 0.842627 0
M  V30 952 H 86.4619 -6.10585 -0.0433671 0
M  V30 953 H 87.8759 -5.33691 2.09396 0
M  V30 954 H 86.2729 -5.26379 2.88176 0
M  V30 955 H 87.3429 -3.85169 2.94572 0
M  V30 956 N 88.686 -0.835752 -1.33615 0
M  V30 957 C 89.935 -0.426289 -1.97144 0
M  V30 958 C 90.248 1.01912 -1.66953 0
M  V30 959 O 91.454 1.53311 -2.24072 0
M  V30 960 C 89.91 -0.711321 -3.52801 0
M  V30 961 C 89.518 -2.1712 -3.91871 0
M  V30 962 C 91.262 -0.368654 -4.22896 0
M  V30 963 C 89.169 -2.40044 -5.40493 0
M  V30 964 H 88.099 -0.15567 -0.737755 0
M  V30 965 H 90.75 -1.0239 -1.52278 0
M  V30 966 H 89.132 -0.0433766 -3.95976 0
M  V30 967 H 90.306 -2.87936 -3.59763 0
M  V30 968 H 88.621 -2.47654 -3.34749 0
M  V30 969 H 91.218 -0.517601 -5.32189 0
M  V30 970 H 91.561 0.688078 -4.10574 0
M  V30 971 H 92.094 -0.991702 -3.8524 0
M  V30 972 H 88.833 -3.44271 -5.57815 0
M  V30 973 H 88.353 -1.73785 -5.74072 0
M  V30 974 H 90.032 -2.23042 -6.0734 0
M  V30 975 N 90.1641 1.46063 -0.591896 0
M  V30 976 C 91.0941 2.33172 0.123673 0
M  V30 977 C 92.0751 1.45897 0.87453 0
M  V30 978 O 93.2601 1.74698 0.848181 0
M  V30 979 C 90.3901 3.28336 1.13194 0
M  V30 980 C 89.3441 4.25124 0.495324 0
M  V30 981 C 88.6701 5.09863 1.61071 0
M  V30 982 C 89.9701 5.19143 -0.573425 0
M  V30 983 H 91.6641 2.93252 -0.603646 0
M  V30 984 H 89.2101 1.41014 -0.291741 0
M  V30 985 H 91.1631 3.88137 1.64097 0
M  V30 986 H 89.8871 2.66383 1.88965 0
M  V30 987 H 88.5461 3.66599 0.00729452 0
M  V30 988 H 88.1941 4.44288 2.35832 0
M  V30 989 H 87.8941 5.75417 1.19035 0
M  V30 990 H 89.4181 5.72529 2.12233 0
M  V30 991 H 90.8321 5.73106 -0.1491 0
M  V30 992 H 89.2291 5.93089 -0.914636 0
M  V30 993 H 90.2991 4.62519 -1.45617 0
M  V30 994 N 91.6422 0.330177 1.54103 0
M  V30 995 C 92.5752 -0.575477 2.20825 0
M  V30 996 C 93.5532 -1.11064 1.18758 0
M  V30 997 O 94.7372 -1.17341 1.47524 0
M  V30 998 C 91.8642 -1.79032 2.87516 0
M  V30 999 C 90.9102 -1.38581 4.03358 0
M  V30 1000 S 91.7432 -0.416911 5.33875 0
M  V30 1001 C 92.8992 -1.63889 6.04062 0
M  V30 1002 H 93.1322 -0.00872114 2.97299 0
M  V30 1003 H 90.6652 0.114254 1.53977 0
M  V30 1004 H 92.6232 -2.48734 3.2656 0
M  V30 1005 H 91.2842 -2.32827 2.10832 0
M  V30 1006 H 90.4772 -2.29123 4.48908 0
M  V30 1007 H 90.0792 -0.768419 3.66021 0
M  V30 1008 H 92.3712 -2.57536 6.26643 0
M  V30 1009 H 93.3142 -1.22542 6.97416 0
M  V30 1010 H 93.7222 -1.82887 5.34053 0
M  V30 1011 N 93.1203 -1.57491 0.0584922 0
M  V30 1012 C 94.3663 -1.93264 -0.614558 0
M  V30 1013 C 94.6993 -0.937717 -1.7006 0
M  V30 1014 O 93.9743 0.0351652 -1.94468 0
M  V30 1015 C 94.2573 -3.3938 -1.20386 0
M  V30 1016 C 94.1103 -4.49625 -0.125375 0
M  V30 1017 C 95.4293 -3.86039 -2.11334 0
M  V30 1018 H 92.5483 -0.702791 -0.221933 0
M  V30 1019 H 95.1903 -1.8961 0.12175 0
M  V30 1020 H 93.3403 -3.42626 -1.83139 0
M  V30 1021 H 95.0123 -4.58506 0.506971 0
M  V30 1022 H 93.2553 -4.30354 0.545672 0
M  V30 1023 H 93.9263 -5.48967 -0.577861 0
M  V30 1024 H 96.4023 -3.84716 -1.58534 0
M  V30 1025 H 95.2783 -4.88914 -2.49507 0
M  V30 1026 H 95.5393 -3.23215 -3.01636 0
M  V30 1027 N 94.5984 0.214957 -1.56127 0
M  V30 1028 C 95.8474 0.936451 -1.78643 0
M  V30 1029 C 96.1604 1.85237 -0.628229 0
M  V30 1030 O 97.3664 2.613 -0.737186 0
M  V30 1031 C 95.8224 1.7154 -3.16389 0
M  V30 1032 C 95.4304 0.845299 -4.39953 0
M  V30 1033 C 97.1744 2.42772 -3.48227 0
M  V30 1034 C 95.0814 1.62198 -5.68723 0
M  V30 1035 H 94.0114 0.353401 -0.666051 0
M  V30 1036 H 96.6624 0.190169 -1.82512 0
M  V30 1037 H 95.0444 2.50484 -3.06715 0
M  V30 1038 H 96.2184 0.0959353 -4.607 0
M  V30 1039 H 94.5334 0.244789 -4.1568 0
M  V30 1040 H 97.1304 3.01394 -4.41663 0
M  V30 1041 H 97.4734 3.15984 -2.71035 0
M  V30 1042 H 98.0064 1.70813 -3.5926 0
M  V30 1043 H 94.7454 0.933011 -6.48826 0
M  V30 1044 H 94.2654 2.34579 -5.52026 0
M  V30 1045 H 95.9444 2.18095 -6.09133 0
M  V30 1046 N 96.0765 1.50051 0.48192 0
M  V30 1047 C 97.3255 1.59741 1.23149 0
M  V30 1048 C 97.6385 0.298163 1.93314 0
M  V30 1049 O 98.8445 0.273835 2.70116 0
M  V30 1050 C 97.3005 2.81926 2.23708 0
M  V30 1051 C 96.9085 4.18685 1.59396 0
M  V30 1052 C 98.6525 3.00956 2.99375 0
M  V30 1053 C 96.5595 5.3207 2.58178 0
M  V30 1054 H 95.4895 0.594838 0.46334 0
M  V30 1055 H 98.1405 1.76467 0.503169 0
M  V30 1056 H 96.5225 2.58736 2.99786 0
M  V30 1057 H 97.6965 4.52088 0.891811 0
M  V30 1058 H 96.0115 4.05171 0.960503 0
M  V30 1059 H 98.6085 3.82836 3.73283 0
M  V30 1060 H 98.9515 2.12258 3.58123 0
M  V30 1061 H 99.4845 3.24277 2.30411 0
M  V30 1062 H 96.2235 6.22888 2.04184 0
M  V30 1063 H 95.7435 5.03098 3.26577 0
M  V30 1064 H 97.4225 5.62196 3.20225 0
M  V30 1065 N 97.5546 -0.734337 1.39446 0
M  V30 1066 C 98.9656 -1.31264 1.32766 0
M  V30 1067 C 99.3166 -1.96198 -0.00767497 0
M  V30 1068 O 98.4416 -1.96346 -0.909796 0
M  V30 1069 C 99.0366 -2.38682 2.4045 0
M  V30 1070 C 97.5956 -2.92184 2.37288 0
M  V30 1071 C 96.7426 -1.6576 2.22304 0
M  V30 1072 H 99.6936 -0.531799 1.49525 0
M  V30 1073 H 99.7146 -3.19087 2.07276 0
M  V30 1074 H 99.2266 -1.91392 3.37625 0
M  V30 1075 H 97.3276 -3.43752 1.43754 0
M  V30 1076 H 97.4406 -3.45253 3.3217 0
M  V30 1077 H 95.8046 -1.9012 1.69489 0
M  V30 1078 H 96.5876 -1.20521 3.21449 0
M  V30 1079 N 99.0327 -1.24633 -0.964593 0
M  V30 1080 C 100.261 -1.11501 -1.74285 0
M  V30 1081 C 100.676 0.332165 -1.85855 0
M  V30 1082 O 100.033 1.22903 -1.34911 0
M  V30 1083 C 100.084 -1.75258 -3.16175 0
M  V30 1084 O 99.8047 -3.14318 -3.05182 0
M  V30 1085 C 101.306 -1.67776 -4.10324 0
M  V30 1086 H 98.5257 -0.389407 -0.546446 0
M  V30 1087 H 101.07 -1.64801 -1.21083 0
M  V30 1088 H 99.2247 -1.25954 -3.66353 0
M  V30 1089 H 99.6387 -3.4551 -3.94618 0
M  V30 1090 H 101.113 -2.17064 -5.0753 0
M  V30 1091 H 101.59 -0.639584 -4.34518 0
M  V30 1092 H 102.196 -2.16522 -3.66058 0
M  V30 1093 N 100.511 1.16574 -1.06058 0
M  V30 1094 C 101.76 1.86385 -0.770944 0
M  V30 1095 C 102.073 1.82448 0.705129 0
M  V30 1096 O 103.279 2.47815 1.10905 0
M  V30 1097 C 101.735 3.34466 -1.32893 0
M  V30 1098 C 101.343 3.46883 -2.83507 0
M  V30 1099 C 103.087 4.09548 -1.11672 0
M  V30 1100 C 100.994 4.89036 -3.32562 0
M  V30 1101 H 99.9238 0.698181 -0.284709 0
M  V30 1102 H 102.575 1.31583 -1.27899 0
M  V30 1103 H 100.957 3.88859 -0.748662 0
M  V30 1104 H 102.131 3.02663 -3.47465 0
M  V30 1105 H 100.446 2.85232 -3.03368 0
M  V30 1106 H 103.043 5.14434 -1.45814 0
M  V30 1107 H 103.386 4.16264 -0.0549535 0
M  V30 1108 H 103.919 3.61387 -1.66265 0
M  V30 1109 H 100.658 4.87499 -4.38207 0
M  V30 1110 H 100.178 5.3389 -2.73351 0
M  V30 1111 H 101.857 5.57843 -3.2775 0
M  V30 1112 N 101.989 0.842826 1.3317 0
M  V30 1113 C 103.237 0.439577 1.97262 0
M  V30 1114 C 103.558 -1.00548 1.67078 0
M  V30 1115 O 102.828 -1.70098 0.971779 0
M  V30 1116 H 101.408 0.159558 0.72976 0
M  V30 1117 H 104.07 1.07665 1.62463 0
M  V30 1118 H 103.166 0.574886 3.0676 0
M  V30 1119 N 103.467 -1.45747 0.599634 0
M  V30 1120 C 104.715 -2.01893 0.0915472 0
M  V30 1121 C 105.036 -1.47155 -1.27946 0
M  V30 1122 O 104.306 -0.66273 -1.84349 0
M  V30 1123 H 102.886 -0.746363 0.0308524 0
M  V30 1124 H 105.548 -1.78645 0.779237 0
M  V30 1125 H 104.644 -3.1208 0.0353086 0
M  V30 1126 N 104.945 -0.338344 -1.53925 0
M  V30 1127 C 105.893 0.536231 -2.26335 0
M  V30 1128 C 106.887 1.1063 -1.28286 0
M  V30 1129 O 108.093 1.05264 -1.46012 0
M  V30 1130 H 104.468 0.191602 -0.727181 0
M  V30 1131 H 106.439 -0.0965747 -2.98244 0
M  V30 1132 C 105.188 1.67803 -3.04528 0
M  V30 1133 H 104.511 1.24864 -3.79801 0
M  V30 1134 H 105.951 2.26526 -3.58416 0
M  V30 1135 C 104.41 2.60439 -2.13712 0
M  V30 1136 O 104.94 3.6255 -1.72975 0
M  V30 1137 N 103.146 2.29006 -1.78898 0
M  V30 1138 H 102.693 1.46011 -2.12223 0
M  V30 1139 H 102.651 2.91248 -1.18416 0
M  V30 1140 N 106.423 1.57458 -0.0668435 0
M  V30 1141 C 107.651 1.97624 0.612565 0
M  V30 1142 C 108.066 0.94502 1.63447 0
M  V30 1143 O 107.423 -0.0689276 1.8237 0
M  V30 1144 C 107.474 3.37869 1.28555 0
M  V30 1145 O 107.195 4.3704 0.304557 0
M  V30 1146 C 108.696 3.92882 2.05325 0
M  V30 1147 H 105.916 0.650045 0.166381 0
M  V30 1148 H 108.46 2.04035 -0.137782 0
M  V30 1149 H 106.615 3.3256 1.98702 0
M  V30 1150 H 107.029 5.18565 0.786779 0
M  V30 1151 H 108.503 4.93247 2.47812 0
M  V30 1152 H 108.98 3.29156 2.9078 0
M  V30 1153 H 109.586 4.01577 1.40056 0
M  V30 1154 N 107.901 -0.206675 1.56239 0
M  V30 1155 C 108.831 -1.25909 1.96645 0
M  V30 1156 C 109.812 -1.48097 0.836734 0
M  V30 1157 O 110.997 -1.6003 1.10019 0
M  V30 1158 C 108.127 -2.6058 2.29599 0
M  V30 1159 C 107.081 -2.53024 3.452 0
M  V30 1160 C 106.407 -3.91861 3.63798 0
M  V30 1161 C 107.707 -2.06524 4.79734 0
M  V30 1162 H 109.401 -0.923369 2.84806 0
M  V30 1163 H 106.947 -0.442735 1.37025 0
M  V30 1164 H 108.9 -3.34375 2.56459 0
M  V30 1165 H 107.624 -2.95869 1.38307 0
M  V30 1166 H 106.283 -1.81684 3.18412 0
M  V30 1167 H 105.931 -4.24483 2.69857 0
M  V30 1168 H 105.631 -3.87683 4.4156 0
M  V30 1169 H 107.155 -4.67296 3.93022 0
M  V30 1170 H 108.569 -2.70072 5.05702 0
M  V30 1171 H 106.966 -2.13374 5.60885 0
M  V30 1172 H 108.036 -1.01802 4.74093 0
M  V30 1173 N 109.379 -1.50304 -0.473955 0
M  V30 1174 C 110.625 -1.61389 -1.22806 0
M  V30 1175 C 110.958 -0.311955 -1.91678 0
M  V30 1176 O 110.233 0.686384 -1.81986 0
M  V30 1177 C 110.516 -2.79219 -2.27396 0
M  V30 1178 C 110.369 -4.19286 -1.62848 0
M  V30 1179 C 111.688 -2.92614 -3.28732 0
M  V30 1180 H 108.807 -0.587399 -0.445119 0
M  V30 1181 H 111.449 -1.82681 -0.522265 0
M  V30 1182 H 109.599 -2.61195 -2.87592 0
M  V30 1183 H 111.271 -4.48892 -1.06271 0
M  V30 1184 H 109.514 -4.23677 -0.931693 0
M  V30 1185 H 110.185 -4.97655 -2.38838 0
M  V30 1186 H 112.661 -3.09105 -2.78556 0
M  V30 1187 H 111.537 -3.76688 -3.99246 0
M  V30 1188 H 111.798 -2.03107 -3.92683 0
M  V30 1189 N 110.857 0.726932 -1.39834 0
M  V30 1190 C 112.106 1.48214 -1.36805 0
M  V30 1191 C 112.419 1.95576 0.0305291 0
M  V30 1192 O 113.625 2.7088 0.183417 0
M  V30 1193 C 112.081 2.67854 -2.40379 0
M  V30 1194 C 111.689 2.27408 -3.85992 0
M  V30 1195 C 113.433 3.45641 -2.46439 0
M  V30 1196 C 111.34 3.43819 -4.81189 0
M  V30 1197 H 110.27 0.556606 -0.508631 0
M  V30 1198 H 112.921 0.792216 -1.65518 0
M  V30 1199 H 111.303 3.3896 -2.04749 0
M  V30 1200 H 112.477 1.63795 -4.30706 0
M  V30 1201 H 110.792 1.62692 -3.83302 0
M  V30 1202 H 113.389 4.32244 -3.14753 0
M  V30 1203 H 113.732 3.88669 -1.49139 0
M  V30 1204 H 114.265 2.8157 -2.81004 0
M  V30 1205 H 111.004 3.05834 -5.79781 0
M  V30 1206 H 110.524 4.06385 -4.41148 0
M  V30 1207 H 112.203 4.10043 -5.00474 0
M  V30 1208 N 112.336 1.25143 0.95797 0
M  V30 1209 C 113.266 1.07711 2.07173 0
M  V30 1210 C 114.247 -0.0128462 1.70095 0
M  V30 1211 O 115.432 0.156061 1.93572 0
M  V30 1212 C 112.562 0.691503 3.40346 0
M  V30 1213 C 111.516 1.73132 3.9142 0
M  V30 1214 C 110.842 1.20049 5.21049 0
M  V30 1215 C 112.142 3.1294 4.1817 0
M  V30 1216 H 113.836 2.00873 2.22014 0
M  V30 1217 H 111.382 0.967191 1.06684 0
M  V30 1218 H 113.335 0.556505 4.17709 0
M  V30 1219 H 112.059 -0.275819 3.25433 0
M  V30 1220 H 110.718 1.8547 3.16222 0
M  V30 1221 H 110.366 0.223499 5.02503 0
M  V30 1222 H 110.066 1.89545 5.56189 0
M  V30 1223 H 111.59 1.07782 6.01012 0
M  V30 1224 H 113.004 3.03775 4.86203 0
M  V30 1225 H 111.401 3.79875 4.64559 0
M  V30 1226 H 112.471 3.6025 3.24573 0
M  V30 1227 N 113.814 -1.1601 1.06675 0
M  V30 1228 C 114.777 -2.18724 0.685001 0
M  V30 1229 C 115.777 -1.58496 -0.271246 0
M  V30 1230 O 116.967 -1.74119 -0.0531156 0
M  V30 1231 C 114.099 -3.40899 0.00853648 0
M  V30 1232 H 115.292 -2.54011 1.59431 0
M  V30 1233 H 112.845 -1.30352 0.862441 0
M  V30 1234 H 113.58 -3.11173 -0.913337 0
M  V30 1235 H 113.365 -3.8587 0.696204 0
M  V30 1236 H 114.855 -4.16886 -0.24414 0
M  V30 1237 N 115.292 -0.849877 -1.32721 0
M  V30 1238 C 116.538 -0.451591 -1.97708 0
M  V30 1239 C 116.871 0.989175 -1.6712 0
M  V30 1240 O 116.146 1.69334 -0.956891 0
M  V30 1241 C 116.429 -0.685598 -3.53513 0
M  V30 1242 C 116.282 -2.17444 -3.93749 0
M  V30 1243 C 117.601 -0.138874 -4.39881 0
M  V30 1244 H 114.72 -0.16555 -0.718166 0
M  V30 1245 H 117.362 -1.06742 -1.57182 0
M  V30 1246 H 115.512 -0.161416 -3.88165 0
M  V30 1247 H 117.184 -2.76433 -3.693 0
M  V30 1248 H 115.427 -2.65476 -3.43081 0
M  V30 1249 H 116.098 -2.28888 -5.02309 0
M  V30 1250 H 118.574 -0.587068 -4.11938 0
M  V30 1251 H 117.45 -0.332213 -5.47894 0
M  V30 1252 H 117.711 0.95806 -4.31594 0
M  V30 1253 N 116.77 1.45427 -0.607355 0
M  V30 1254 C 117.995 2.07124 -0.107006 0
M  V30 1255 C 118.42 1.44906 1.19933 0
M  V30 1256 O 117.778 0.541687 1.73019 0
M  V30 1257 C 117.826 3.60595 0.0194119 0
M  V30 1258 O 116.93 3.98285 1.0697 0
M  V30 1259 H 116.271 0.659868 -0.0739597 0
M  V30 1260 H 118.801 1.86683 -0.837297 0
M  V30 1261 H 118.811 4.07419 0.2177 0
M  V30 1262 H 117.486 4.05266 -0.934453 0
M  V30 1263 H 116.063 3.63133 0.847889 0
M  V30 1264 N 118.248 0.346503 1.53744 0
M  V30 1265 C 119.178 -0.501193 2.28058 0
M  V30 1266 C 120.159 -1.10014 1.29734 0
M  V30 1267 O 121.344 -1.12097 1.58581 0
M  V30 1268 C 118.474 -1.65078 3.05559 0
M  V30 1269 C 117.428 -1.18003 4.11411 0
M  V30 1270 C 116.754 -2.41837 4.76884 0
M  V30 1271 C 118.054 -0.278394 5.21558 0
M  V30 1272 H 119.748 0.11875 2.99164 0
M  V30 1273 H 117.294 0.0585531 1.43881 0
M  V30 1274 H 119.247 -2.25028 3.56287 0
M  V30 1275 H 117.971 -2.29767 2.32109 0
M  V30 1276 H 116.63 -0.603331 3.61601 0
M  V30 1277 H 116.278 -3.0494 4.00026 0
M  V30 1278 H 115.978 -2.1102 5.48402 0
M  V30 1279 H 117.502 -3.02508 5.30397 0
M  V30 1280 H 118.916 -0.784823 5.67903 0
M  V30 1281 H 117.313 -0.0619707 6.00068 0
M  V30 1282 H 118.383 0.684677 4.80042 0
M  V30 1283 N 119.726 -1.57421 0.075193 0
M  V30 1284 C 120.636 -2.1642 -0.905511 0
M  V30 1285 C 121.652 -1.12828 -1.32461 0
M  V30 1286 O 122.828 -1.45109 -1.39661 0
M  V30 1287 C 119.893 -2.71693 -2.15369 0
M  V30 1288 C 118.954 -3.90171 -1.79068 0
M  V30 1289 C 118.187 -4.42798 -2.97936 0
M  V30 1290 O 118.41 -3.94416 -4.12058 0
M  V30 1291 O 117.344 -5.34085 -2.77555 0
M  V30 1292 H 121.17 -3.00588 -0.433626 0
M  V30 1293 H 118.755 -1.48664 -0.148067 0
M  V30 1294 H 120.637 -3.07104 -2.88557 0
M  V30 1295 H 119.312 -1.90582 -2.61649 0
M  V30 1296 H 118.219 -3.59606 -1.03122 0
M  V30 1297 H 119.552 -4.72584 -1.37569 0
M  V30 1298 N 121.204 0.198386 -1.56346 0
M  V30 1299 C 122.151 1.24589 -1.94284 0
M  V30 1300 C 123.121 1.454 -0.802997 0
M  V30 1301 O 124.306 1.58588 -1.06087 0
M  V30 1302 C 121.446 2.58631 -2.28482 0
M  V30 1303 C 120.559 2.45426 -3.55514 0
M  V30 1304 C 119.694 3.7215 -3.79049 0
M  V30 1305 C 118.733 3.53763 -4.99518 0
M  V30 1306 N 117.87 4.72491 -5.19323 0
M  V30 1307 H 122.71 0.915356 -2.83593 0
M  V30 1308 H 120.247 0.440629 -1.40346 0
M  V30 1309 H 122.205 3.3672 -2.46324 0
M  V30 1310 H 120.835 2.89734 -1.42317 0
M  V30 1311 H 119.887 1.58652 -3.45737 0
M  V30 1312 H 121.199 2.27772 -4.43758 0
M  V30 1313 H 120.353 4.58679 -3.97113 0
M  V30 1314 H 119.092 3.92754 -2.89129 0
M  V30 1315 H 118.097 2.65619 -4.8138 0
M  V30 1316 H 119.322 3.34607 -5.90944 0
M  V30 1317 H 117.268 4.93365 -4.3235 0
M  V30 1318 H 117.185 4.5765 -6.01741 0
M  V30 1319 H 118.453 5.6038 -5.41843 0
M  V30 1320 N 122.682 1.50554 0.465978 0
M  V30 1321 C 123.629 1.6979 1.56333 0
M  V30 1322 C 124.599 0.539239 1.57103 0
M  V30 1323 O 125.784 0.770401 1.74555 0
M  V30 1324 C 122.924 1.80273 2.94271 0
M  V30 1325 C 122.037 3.07674 3.0325 0
M  V30 1326 C 121.172 3.08922 4.32135 0
M  V30 1327 C 120.211 4.30755 4.34875 0
M  V30 1328 N 119.348 4.29714 5.55239 0
M  V30 1329 H 124.188 2.63472 1.39235 0
M  V30 1330 H 121.725 1.30602 0.676873 0
M  V30 1331 H 123.683 1.84332 3.74269 0
M  V30 1332 H 122.313 0.900258 3.09992 0
M  V30 1333 H 121.365 3.13062 2.16094 0
M  V30 1334 H 122.677 3.97642 3.01135 0
M  V30 1335 H 121.831 3.11738 5.20485 0
M  V30 1336 H 120.57 2.16792 4.36866 0
M  V30 1337 H 119.575 4.28146 3.44922 0
M  V30 1338 H 120.8 5.24117 4.31831 0
M  V30 1339 H 118.746 3.4044 5.60746 0
M  V30 1340 H 118.663 5.13456 5.54886 0
M  V30 1341 H 119.931 4.36683 6.457 0
M  V30 1342 N 124.16 -0.719506 1.40217 0
M  V30 1343 C 125.09 -1.8465 1.42922 0
M  V30 1344 C 126.071 -1.67599 0.29062 0
M  V30 1345 O 127.256 -1.87688 0.498677 0
M  V30 1346 C 124.386 -3.22565 1.28722 0
M  V30 1347 C 123.34 -3.54281 2.40144 0
M  V30 1348 C 122.666 -4.91298 2.11023 0
M  V30 1349 C 123.966 -3.55676 3.82481 0
M  V30 1350 H 125.66 -1.82644 2.37237 0
M  V30 1351 H 123.206 -0.877305 1.1419 0
M  V30 1352 H 125.159 -4.01095 1.29232 0
M  V30 1353 H 123.883 -3.25137 0.308811 0
M  V30 1354 H 122.542 -2.78088 2.38877 0
M  V30 1355 H 122.19 -4.90468 1.11582 0
M  V30 1356 H 121.89 -5.13485 2.8567 0
M  V30 1357 H 123.414 -5.72166 2.13209 0
M  V30 1358 H 124.828 -4.24254 3.85592 0
M  V30 1359 H 123.225 -3.89388 4.56614 0
M  V30 1360 H 124.295 -2.55144 4.12346 0
M  V30 1361 N 125.638 -1.25649 -0.95132 0
M  V30 1362 C 126.57 -1.02112 -2.05197 0
M  V30 1363 C 127.583 0.0150571 -1.62793 0
M  V30 1364 O 128.772 -0.223874 -1.77091 0
M  V30 1365 C 125.872 -0.522361 -3.3485 0
M  V30 1366 C 125.045 -1.62546 -4.06076 0
M  V30 1367 C 124.104 -1.12649 -5.14001 0
M  V30 1368 O 123.13 -1.82156 -5.39266 0
M  V30 1369 N 124.332 0.03047 -5.80492 0
M  V30 1370 H 127.097 -1.96885 -2.25957 0
M  V30 1371 H 124.658 -1.16899 -1.1201 0
M  V30 1372 H 126.65 -0.172961 -4.0433 0
M  V30 1373 H 125.22 0.33151 -3.10837 0
M  V30 1374 H 124.44 -2.14628 -3.30649 0
M  V30 1375 H 125.728 -2.36644 -4.50419 0
M  V30 1376 H 125.126 0.611169 -5.62389 0
M  V30 1377 H 123.683 0.320875 -6.5101 0
M  V30 1378 N 127.117 1.15442 -1.07289 0
M  V30 1379 C 128.347 1.89821 -0.815576 0
M  V30 1380 C 128.755 1.7823 0.634867 0
M  V30 1381 O 128.098 1.13152 1.44715 0
M  V30 1382 C 128.16 3.40817 -1.14385 0
M  V30 1383 C 127.824 3.76193 -2.59476 0
M  V30 1384 C 128.821 3.77269 -3.57721 0
M  V30 1385 C 126.506 4.0652 -2.95037 0
M  V30 1386 C 128.5 4.08176 -4.89562 0
M  V30 1387 C 126.187 4.37092 -4.27076 0
M  V30 1388 C 127.185 4.37902 -5.24148 0
M  V30 1389 O 126.873 4.67741 -6.53815 0
M  V30 1390 H 126.605 0.608465 -0.294528 0
M  V30 1391 H 129.159 1.472 -1.43252 0
M  V30 1392 H 127.389 3.83835 -0.469865 0
M  V30 1393 H 129.078 3.96485 -0.869179 0
M  V30 1394 H 129.844 3.5394 -3.3159 0
M  V30 1395 H 125.723 4.05049 -2.20128 0
M  V30 1396 H 129.267 4.08723 -5.65324 0
M  V30 1397 H 125.164 4.59889 -4.5296 0
M  V30 1398 H 125.932 4.85509 -6.58957 0
M  V30 1399 N 128.595 0.856903 1.32268 0
M  V30 1400 C 129.558 0.308171 2.27119 0
M  V30 1401 C 130.558 -0.533421 1.51695 0
M  V30 1402 O 131.748 -0.344607 1.70757 0
M  V30 1403 C 128.88 -0.563757 3.36206 0
M  V30 1404 H 130.073 1.14535 2.77167 0
M  V30 1405 H 127.626 0.631421 1.42978 0
M  V30 1406 H 128.361 -1.42266 2.91429 0
M  V30 1407 H 128.146 0.0386749 3.92081 0
M  V30 1408 H 129.636 -0.940386 4.06874 0
M  V30 1409 N 130.073 -1.45103 0.615059 0
M  V30 1410 C 131.301 -2.06553 0.11977 0
M  V30 1411 C 131.716 -1.45842 -1.19898 0
M  V30 1412 O 131.073 -0.575325 -1.73194 0
M  V30 1413 C 131.124 -3.61495 -0.018364 0
M  V30 1414 O 130.845 -4.19942 1.24822 0
M  V30 1415 C 132.346 -4.39947 -0.544237 0
M  V30 1416 H 129.566 -0.667096 0.0722739 0
M  V30 1417 H 132.11 -1.8623 0.84491 0
M  V30 1418 H 130.265 -3.81135 -0.693865 0
M  V30 1419 H 130.679 -5.13204 1.0827 0
M  V30 1420 H 132.153 -5.48838 -0.589953 0
M  V30 1421 H 132.63 -4.10255 -1.56805 0
M  V30 1422 H 133.236 -4.25188 0.0974703 0
M  V30 1423 N 131.551 -0.354651 -1.53558 0
M  V30 1424 C 132.499 0.512195 -2.26891 0
M  V30 1425 C 133.493 1.09263 -1.29452 0
M  V30 1426 O 134.699 1.03709 -1.47121 0
M  V30 1427 H 131.074 0.183878 -0.729173 0
M  V30 1428 H 133.045 -0.128202 -2.98124 0
M  V30 1429 C 131.794 1.64563 -3.06291 0
M  V30 1430 H 131.117 1.20829 -3.81104 0
M  V30 1431 H 132.557 2.22711 -3.60799 0
M  V30 1432 C 131.016 2.58158 -2.16462 0
M  V30 1433 O 131.546 3.60695 -1.76811 0
M  V30 1434 N 129.752 2.27096 -1.81317 0
M  V30 1435 H 129.299 1.43751 -2.1376 0
M  V30 1436 H 129.257 2.89975 -1.21498 0
M  V30 1437 N 133.029 1.57378 -0.0835403 0
M  V30 1438 C 134.259 1.97975 0.590713 0
M  V30 1439 C 134.667 0.961083 1.62972 0
M  V30 1440 O 134.01 -0.0590879 1.83605 0
M  V30 1441 C 134.072 3.34915 1.3066 0
M  V30 1442 C 133.736 4.55069 0.419698 0
M  V30 1443 C 134.733 5.18868 -0.32749 0
M  V30 1444 C 132.418 5.0114 0.341137 0
M  V30 1445 C 134.412 6.27098 -1.14134 0
M  V30 1446 C 132.099 6.0924 -0.476374 0
M  V30 1447 C 133.097 6.72083 -1.21627 0
M  V30 1448 O 132.785 7.781 -2.02028 0
M  V30 1449 H 132.517 0.655818 0.163947 0
M  V30 1450 H 135.071 2.04807 -0.156021 0
M  V30 1451 H 133.301 3.24733 2.09966 0
M  V30 1452 H 134.99 3.60037 1.87424 0
M  V30 1453 H 135.756 4.84211 -0.276459 0
M  V30 1454 H 131.635 4.51996 0.90668 0
M  V30 1455 H 135.179 6.7608 -1.71935 0
M  V30 1456 H 131.076 6.43329 -0.528927 0
M  V30 1457 H 131.844 7.95034 -1.94586 0
M  V30 1458 N 134.507 -0.190092 1.56449 0
M  V30 1459 C 135.754 -0.909705 1.80916 0
M  V30 1460 C 136.082 -1.83047 0.657583 0
M  V30 1461 O 135.337 -1.92428 -0.356356 0
M  V30 1462 C 135.636 -1.75382 3.1141 0
M  V30 1463 C 135.302 -0.983606 4.40041 0
M  V30 1464 C 133.964 -0.770967 4.74984 0
M  V30 1465 C 136.316 -0.442024 5.19322 0
M  V30 1466 C 133.644 -0.0053448 5.867 0
M  V30 1467 C 135.996 0.310412 6.31838 0
M  V30 1468 C 134.66 0.534023 6.6536 0
M  V30 1469 H 133.93 -0.332885 0.662019 0
M  V30 1470 H 136.577 -0.175762 1.90692 0
M  V30 1471 H 134.882 -2.55659 2.96893 0
M  V30 1472 H 136.579 -2.31331 3.27547 0
M  V30 1473 H 133.169 -1.15936 4.12622 0
M  V30 1474 H 137.353 -0.593693 4.92736 0
M  V30 1475 H 132.609 0.177825 6.11141 0
M  V30 1476 H 136.783 0.737419 6.92485 0
M  V30 1477 H 134.41 1.12918 7.51767 0
M  V30 1478 N 135.985 -1.50799 -0.457987 0
M  V30 1479 C 136.915 -1.73553 -1.5621 0
M  V30 1480 C 137.896 -0.584774 -1.59732 0
M  V30 1481 O 139.081 -0.825314 -1.7579 0
M  V30 1482 C 136.211 -1.84169 -2.94447 0
M  V30 1483 C 135.165 -2.99461 -3.0579 0
M  V30 1484 C 134.491 -2.95235 -4.45803 0
M  V30 1485 C 135.791 -4.39766 -2.81786 0
M  V30 1486 H 137.485 -2.66 -1.37421 0
M  V30 1487 H 135.031 -1.28002 -0.659662 0
M  V30 1488 H 136.984 -1.98672 -3.71628 0
M  V30 1489 H 135.708 -0.883545 -3.14422 0
M  V30 1490 H 134.367 -2.8463 -2.31044 0
M  V30 1491 H 134.015 -1.97239 -4.62715 0
M  V30 1492 H 133.715 -3.72642 -4.54326 0
M  V30 1493 H 135.239 -3.11803 -5.24987 0
M  V30 1494 H 136.653 -4.55054 -3.4871 0
M  V30 1495 H 135.05 -5.18722 -3.0174 0
M  V30 1496 H 136.12 -4.51229 -1.7754 0
M  V30 1497 N 137.463 0.71206 -1.40597 0
M  V30 1498 C 138.396 1.83582 -1.35546 0
M  V30 1499 C 139.374 1.61032 -0.225284 0
M  V30 1500 O 140.558 1.83998 -0.409519 0
M  V30 1501 C 137.685 3.19983 -1.11034 0
M  V30 1502 C 136.731 3.61355 -2.2655 0
M  V30 1503 S 137.564 3.68062 -3.88961 0
M  V30 1504 C 138.72 5.07216 -3.66719 0
M  V30 1505 H 138.953 1.87586 -2.30648 0
M  V30 1506 H 136.486 0.879182 -1.26924 0
M  V30 1507 H 138.444 3.98734 -0.975761 0
M  V30 1508 H 137.105 3.13608 -0.175798 0
M  V30 1509 H 136.298 4.60403 -2.0505 0
M  V30 1510 H 135.9 2.8987 -2.36329 0
M  V30 1511 H 138.192 5.94238 -3.25404 0
M  V30 1512 H 139.135 5.33753 -4.6531 0
M  V30 1513 H 139.543 4.77976 -3.00332 0
M  V30 1514 N 138.941 1.26152 0.944643 0
M  V30 1515 C 140.166 1.14363 1.7302 0
M  V30 1516 C 140.591 -0.29772 1.85729 0
M  V30 1517 O 139.949 -1.2157 1.34501 0
M  V30 1518 C 139.997 1.81378 3.11664 0
M  V30 1519 O 139.101 1.10022 3.97453 0
M  V30 1520 H 138.442 0.398694 0.53098 0
M  V30 1521 H 140.972 1.66906 1.18337 0
M  V30 1522 H 140.982 1.88064 3.62072 0
M  V30 1523 H 139.657 2.86237 3.0173 0
M  V30 1524 H 138.234 1.11287 3.55907 0
M  V30 1525 N 140.419 -1.14872 1.07899 0
M  V30 1526 C 141.349 -2.2193 0.725887 0
M  V30 1527 C 142.33 -1.67622 -0.28927 0
M  V30 1528 O 143.515 -1.93533 -0.160787 0
M  V30 1529 C 140.645 -3.47061 0.128856 0
M  V30 1530 C 139.599 -4.14363 1.07178 0
M  V30 1531 C 138.925 -5.33636 0.337229 0
M  V30 1532 C 140.225 -4.63492 2.40775 0
M  V30 1533 H 141.919 -2.51724 1.62097 0
M  V30 1534 H 139.465 -1.20991 0.780838 0
M  V30 1535 H 141.418 -4.21199 -0.130147 0
M  V30 1536 H 140.142 -3.16617 -0.80134 0
M  V30 1537 H 138.801 -3.42173 1.3158 0
M  V30 1538 H 138.449 -4.99449 -0.596606 0
M  V30 1539 H 138.149 -5.79609 0.965788 0
M  V30 1540 H 139.673 -6.10539 0.0861567 0
M  V30 1541 H 141.087 -5.2913 2.20669 0
M  V30 1542 H 139.484 -5.20148 2.99276 0
M  V30 1543 H 140.554 -3.78834 3.02676 0
M  V30 1544 N 141.898 -0.863906 -1.31812 0
M  V30 1545 C 142.861 -0.320212 -2.26952 0
M  V30 1546 C 143.861 0.525369 -1.51975 0
M  V30 1547 O 145.051 0.335547 -1.70938 0
M  V30 1548 C 142.183 0.545919 -3.365 0
M  V30 1549 H 143.376 -1.16004 -2.76556 0
M  V30 1550 H 140.929 -0.638995 -1.42641 0
M  V30 1551 H 141.664 1.40718 -2.92179 0
M  V30 1552 H 141.449 -0.0594674 -3.92055 0
M  V30 1553 H 142.939 0.918796 -4.07367 0
M  V30 1554 N 143.376 1.44774 -0.622745 0
M  V30 1555 C 144.622 2.0242 -0.124083 0
M  V30 1556 C 144.955 1.4881 1.24777 0
M  V30 1557 O 144.23 0.668799 1.8264 0
M  V30 1558 C 144.513 3.59957 -0.101619 0
M  V30 1559 C 144.366 4.23867 -1.50521 0
M  V30 1560 C 145.685 4.36284 0.578272 0
M  V30 1561 H 142.804 0.735528 -0.0465645 0
M  V30 1562 H 145.446 1.72447 -0.797617 0
M  V30 1563 H 143.596 3.85623 0.471934 0
M  V30 1564 H 145.268 4.09336 -2.12701 0
M  V30 1565 H 143.511 3.81684 -2.06154 0
M  V30 1566 H 144.182 5.32843 -1.4416 0
M  V30 1567 H 146.658 4.16001 0.0906057 0
M  V30 1568 H 145.534 5.46004 0.563149 0
M  V30 1569 H 145.795 4.10271 1.64713 0
M  V30 1570 N 144.854 0.36279 1.53368 0
M  V30 1571 C 145.817 -0.472679 2.24273 0
M  V30 1572 C 146.817 -1.012 1.24961 0
M  V30 1573 O 148.007 -0.898194 1.49259 0
M  V30 1574 C 145.139 -1.66039 2.97731 0
M  V30 1575 H 146.332 0.14773 2.99536 0
M  V30 1576 H 143.885 0.114434 1.55881 0
M  V30 1577 H 144.62 -2.31896 2.26704 0
M  V30 1578 H 144.405 -1.28066 3.70596 0
M  V30 1579 H 145.895 -2.25252 3.51641 0
M  V30 1580 N 146.332 -1.57332 0.0918853 0
M  V30 1581 C 147.609 -1.85691 -0.614668 0
M  V30 1582 C 147.989 -0.988146 -1.86545 0
M  V30 1583 O 147.337 -0.0597055 -2.28422 0
M  V30 1584 C 147.547 -3.36294 -0.933126 0
M  V30 1585 C 148.895 -4.04275 -1.29796 0
M  V30 1586 O 149.919 -3.41157 -1.02424 0
M  V30 1587 O 148.778 -5.1564 -1.81047 0
M  V30 1588 H 145.872 -0.767802 -0.307261 0
M  V30 1589 H 148.418 -1.69244 0.12434 0
M  V30 1590 H 147.19 -3.91273 -0.0456404 0
M  V30 1591 H 146.813 -3.58076 -1.72822 0
M  V30 1592 N 147.81 0.181792 -1.56548 0
M  V30 1593 C 148.74 1.22765 -1.98623 0
M  V30 1594 C 149.721 1.46747 -0.860189 0
M  V30 1595 O 150.906 1.58259 -1.12551 0
M  V30 1596 C 148.036 2.56894 -2.33715 0
M  V30 1597 C 146.99 2.475 -3.49182 0
M  V30 1598 C 146.316 3.86023 -3.69986 0
M  V30 1599 C 147.616 1.98866 -4.82959 0
M  V30 1600 H 149.31 0.877942 -2.86239 0
M  V30 1601 H 146.856 0.42088 -1.37712 0
M  V30 1602 H 148.809 3.30253 -2.61746 0
M  V30 1603 H 147.533 2.93632 -1.42997 0
M  V30 1604 H 146.192 1.76596 -3.21262 0
M  V30 1605 H 145.84 4.20136 -2.76576 0
M  V30 1606 H 145.54 3.80609 -4.47672 0
M  V30 1607 H 147.064 4.60984 -4.00407 0
M  V30 1608 H 148.478 2.61992 -5.09934 0
M  V30 1609 H 146.875 2.04424 -5.64208 0
M  V30 1610 H 147.945 0.942465 -4.75653 0
M  V30 1611 N 149.288 1.51039 0.449983 0
M  V30 1612 C 150.218 1.74379 1.55288 0
M  V30 1613 C 151.199 0.593236 1.5942 0
M  V30 1614 O 152.384 0.834625 1.7535 0
M  V30 1615 C 149.514 1.85728 2.93466 0
M  V30 1616 C 148.468 3.01078 3.04197 0
M  V30 1617 C 147.794 2.97595 4.44231 0
M  V30 1618 C 149.094 4.41254 2.7945 0
M  V30 1619 H 150.788 2.66725 1.36008 0
M  V30 1620 H 148.334 1.2835 0.652864 0
M  V30 1621 H 150.287 2.0064 3.70569 0
M  V30 1622 H 149.011 0.900207 3.13949 0
M  V30 1623 H 147.67 2.85851 2.29531 0
M  V30 1624 H 147.318 1.99691 4.61663 0
M  V30 1625 H 147.018 3.75046 4.52343 0
M  V30 1626 H 148.542 3.14583 5.23326 0
M  V30 1627 H 149.956 4.56897 3.46292 0
M  V30 1628 H 148.353 5.20315 2.98985 0
M  V30 1629 H 149.423 4.52164 1.75144 0
M  V30 1630 N 150.766 -0.704594 1.40972 0
M  V30 1631 C 152.012 -1.46675 1.40051 0
M  V30 1632 C 152.345 -1.94199 0.00641102 0
M  V30 1633 O 151.62 -1.68916 -0.964235 0
M  V30 1634 C 151.903 -2.68505 2.39952 0
M  V30 1635 C 151.756 -2.26805 3.88432 0
M  V30 1636 C 153.075 -3.70686 2.37233 0
M  V30 1637 H 150.194 -0.532015 0.510028 0
M  V30 1638 H 152.836 -0.803255 1.72185 0
M  V30 1639 H 150.986 -3.25114 2.1268 0
M  V30 1640 H 152.658 -1.75592 4.26574 0
M  V30 1641 H 150.901 -1.58685 4.03734 0
M  V30 1642 H 151.572 -3.14181 4.53866 0
M  V30 1643 H 154.048 -3.23731 2.61415 0
M  V30 1644 H 152.924 -4.53553 3.09162 0
M  V30 1645 H 153.185 -4.19754 1.38777 0
M  V30 1646 N 152.244 -1.26651 -0.937939 0
M  V30 1647 C 153.492 -1.12165 -1.68118 0
M  V30 1648 C 153.813 0.334983 -1.92101 0
M  V30 1649 O 153.083 1.23583 -1.52 0
M  V30 1650 H 151.663 -0.412093 -0.623048 0
M  V30 1651 H 154.325 -1.59027 -1.12678 0
M  V30 1652 H 153.421 -1.64289 -2.6536 0
M  V30 1653 N 153.722 1.14298 -1.08507 0
M  V30 1654 C 154.652 2.21542 -0.737646 0
M  V30 1655 C 155.633 1.67773 0.280377 0
M  V30 1656 O 156.818 1.93616 0.150521 0
M  V30 1657 C 153.948 3.46988 -0.147259 0
M  V30 1658 C 152.902 4.13789 -1.09374 0
M  V30 1659 C 152.228 5.33449 -0.365524 0
M  V30 1660 C 153.528 4.62208 -2.4323 0
M  V30 1661 H 155.222 2.5086 -1.6343 0
M  V30 1662 H 152.768 1.20576 -0.787243 0
M  V30 1663 H 154.721 4.21262 0.107808 0
M  V30 1664 H 153.445 3.17037 0.784538 0
M  V30 1665 H 152.104 3.4147 -1.33393 0
M  V30 1666 H 151.752 4.99759 0.57011 0
M  V30 1667 H 151.452 5.79088 -0.996512 0
M  V30 1668 H 152.976 6.10485 -0.118534 0
M  V30 1669 H 154.39 5.27952 -2.23472 0
M  V30 1670 H 152.787 5.18553 -3.02031 0
M  V30 1671 H 153.857 3.77224 -3.04681 0
M  V30 1672 N 155.201 0.870884 1.31352 0
M  V30 1673 C 156.448 0.482273 1.96673 0
M  V30 1674 C 156.776 -0.965638 1.68836 0
M  V30 1675 O 156.031 -1.69514 0.977937 0
M  V30 1676 C 156.33 0.687157 3.50732 0
M  V30 1677 C 155.996 2.108 3.9859 0
M  V30 1678 C 154.658 2.49656 4.1137 0
M  V30 1679 C 157.01 3.03459 4.23748 0
M  V30 1680 C 154.338 3.80412 4.46659 0
M  V30 1681 C 156.69 4.3373 4.60501 0
M  V30 1682 C 155.354 4.725 4.71487 0
M  V30 1683 H 154.624 0.176476 0.719679 0
M  V30 1684 H 157.271 1.10405 1.56471 0
M  V30 1685 H 155.576 -0.0177476 3.91796 0
M  V30 1686 H 157.273 0.366284 3.99324 0
M  V30 1687 H 153.863 1.79633 3.8914 0
M  V30 1688 H 158.047 2.74665 4.13368 0
M  V30 1689 H 153.303 4.1021 4.53362 0
M  V30 1690 H 157.477 5.05578 4.78919 0
M  V30 1691 H 155.104 5.73859 4.98588 0
M  V30 1692 N 156.679 -1.44442 0.630414 0
M  V30 1693 C 157.925 -2.02351 0.134816 0
M  V30 1694 C 158.258 -1.4947 -1.23986 0
M  V30 1695 O 157.533 -0.678475 -1.82283 0
M  V30 1696 C 157.816 -3.59898 0.120707 0
M  V30 1697 C 157.669 -4.23063 1.52767 0
M  V30 1698 C 158.988 -4.36585 -0.555127 0
M  V30 1699 H 156.107 -0.73527 0.0504646 0
M  V30 1700 H 158.749 -1.72022 0.806751 0
M  V30 1701 H 156.899 -3.85868 -0.451477 0
M  V30 1702 H 158.571 -4.08202 2.14869 0
M  V30 1703 H 156.814 -3.80586 2.08175 0
M  V30 1704 H 157.485 -5.32071 1.46984 0
M  V30 1705 H 159.961 -4.16044 -0.0685429 0
M  V30 1706 H 158.837 -5.46294 -0.534185 0
M  V30 1707 H 159.098 -4.11138 -1.62535 0
M  V30 1708 N 158.157 -0.370918 -1.53173 0
M  V30 1709 C 159.09 0.516727 -2.22273 0
M  V30 1710 C 160.068 1.07877 -1.21661 0
M  V30 1711 O 161.252 1.13389 -1.50583 0
M  V30 1712 C 158.379 1.71346 -2.92161 0
M  V30 1713 C 157.425 1.27838 -4.0689 0
M  V30 1714 S 158.258 0.275217 -5.34792 0
M  V30 1715 C 159.414 1.47816 -6.08195 0
M  V30 1716 H 159.647 -0.0701054 -2.97217 0
M  V30 1717 H 157.18 -0.155038 -1.5362 0
M  V30 1718 H 159.138 2.39988 -3.3304 0
M  V30 1719 H 157.799 2.27156 -2.16931 0
M  V30 1720 H 156.992 2.17141 -4.54825 0
M  V30 1721 H 156.594 0.671105 -3.6793 0
M  V30 1722 H 158.886 2.40831 -6.33251 0
M  V30 1723 H 159.829 1.04008 -7.0042 0
M  V30 1724 H 160.237 1.68663 -5.38714 0
M  V30 1725 N 159.635 1.57281 -0.100228 0
M  V30 1726 C 161.046 1.81725 0.428107 0
M  V30 1727 C 161.397 1.01619 1.67833 0
M  V30 1728 O 160.522 0.247098 2.14985 0
M  V30 1729 C 161.117 3.29617 0.78347 0
M  V30 1730 C 159.676 3.54808 1.25653 0
M  V30 1731 C 158.823 2.76118 0.255752 0
M  V30 1732 H 161.774 1.55324 -0.325608 0
M  V30 1733 H 161.795 3.4322 1.64256 0
M  V30 1734 H 161.307 3.87893 -0.12665 0
M  V30 1735 H 159.408 3.01868 2.18418 0
M  V30 1736 H 159.521 4.63443 1.21482 0
M  V30 1737 H 157.885 2.43745 0.738956 0
M  V30 1738 H 158.668 3.37145 -0.647136 0
M  V30 1739 N 161.113 -0.173488 1.56642 0
M  V30 1740 C 162.362 -0.888758 1.81063 0
M  V30 1741 C 162.675 -1.83506 0.67712 0
M  V30 1742 O 163.881 -2.59254 0.806206 0
M  V30 1743 C 162.337 -1.63091 3.20826 0
M  V30 1744 C 161.945 -0.728357 4.4204 0
M  V30 1745 C 163.689 -2.33454 3.54541 0
M  V30 1746 C 161.596 -1.47062 5.72823 0
M  V30 1747 H 160.526 -0.335618 0.675186 0
M  V30 1748 H 163.177 -0.141712 1.82952 0
M  V30 1749 H 161.559 -2.42263 3.13248 0
M  V30 1750 H 162.733 0.0262449 4.60793 0
M  V30 1751 H 161.048 -0.134492 4.16183 0
M  V30 1752 H 163.645 -2.89578 4.49498 0
M  V30 1753 H 163.988 -3.08687 2.79317 0
M  V30 1754 H 164.521 -1.61227 3.63663 0
M  V30 1755 H 161.26 -0.760658 6.51072 0
M  V30 1756 H 160.78 -2.1986 5.58052 0
M  V30 1757 H 162.459 -2.01868 6.14702 0
M  V30 1758 N 162.591 -1.51276 -0.441967 0
M  V30 1759 C 163.554 -1.7167 -1.51862 0
M  V30 1760 C 164.554 -0.586793 -1.49711 0
M  V30 1761 O 165.744 -0.854276 -1.51815 0
M  V30 1762 C 162.876 -1.76889 -2.91416 0
M  V30 1763 H 164.069 -2.67754 -1.35084 0
M  V30 1764 H 161.622 -1.41196 -0.670333 0
M  V30 1765 H 162.357 -0.826026 -3.13604 0
M  V30 1766 H 162.142 -2.59001 -2.94382 0
M  V30 1767 H 163.632 -1.94522 -3.69528 0
M  V30 1768 N 164.069 0.697108 -1.41344 0
M  V30 1769 C 164.999 1.82353 -1.45841 0
M  V30 1770 C 165.98 1.67115 -0.317247 0
M  V30 1771 O 167.165 1.86871 -0.528474 0
M  V30 1772 C 164.295 3.20476 -1.33838 0
M  V30 1773 C 163.249 3.50415 -2.4575 0
M  V30 1774 C 162.575 4.87878 -2.18813 0
M  V30 1775 C 163.875 3.49546 -3.88091 0
M  V30 1776 H 165.569 1.78846 -2.40113 0
M  V30 1777 H 163.115 0.859028 -1.15571 0
M  V30 1778 H 165.068 3.98988 -1.35596 0
M  V30 1779 H 163.792 3.24604 -0.360498 0
M  V30 1780 H 162.451 2.74253 -2.43271 0
M  V30 1781 H 162.099 4.8863 -1.19371 0
M  V30 1782 H 161.799 5.08875 -2.93803 0
M  V30 1783 H 163.323 5.68702 -2.22284 0
M  V30 1784 H 164.737 4.18066 -3.92293 0
M  V30 1785 H 163.134 3.82075 -4.62751 0
M  V30 1786 H 164.204 2.48552 -4.16353 0
M  V30 1787 N 165.547 1.27147 0.931209 0
M  V30 1788 C 166.477 1.12081 2.04842 0
M  V30 1789 C 167.458 0.0232364 1.70084 0
M  V30 1790 O 168.643 0.197085 1.93197 0
M  V30 1791 C 165.773 0.76354 3.38803 0
M  V30 1792 C 164.727 1.81396 3.87659 0
M  V30 1793 C 164.053 1.31075 5.18385 0
M  V30 1794 C 165.353 3.21739 4.11438 0
M  V30 1795 H 167.047 2.05537 2.17703 0
M  V30 1796 H 164.593 0.989603 1.04608 0
M  V30 1797 H 166.546 0.644982 4.16435 0
M  V30 1798 H 165.27 -0.206727 3.25945 0
M  V30 1799 H 163.929 1.92136 3.12217 0
M  V30 1800 H 163.577 0.330037 5.01916 0
M  V30 1801 H 163.277 2.013 5.52044 0
M  V30 1802 H 164.801 1.20506 5.98591 0
M  V30 1803 H 166.215 3.14019 4.79651 0
M  V30 1804 H 164.612 3.89644 4.56397 0
M  V30 1805 H 165.682 3.67054 3.16859 0
M  V30 1806 N 167.025 -1.13721 1.09112 0
M  V30 1807 C 168.253 -1.88773 0.846899 0
M  V30 1808 C 168.668 -1.7896 -0.601572 0
M  V30 1809 O 168.025 -1.15394 -1.41388 0
M  V30 1810 C 168.076 -3.3849 1.26913 0
M  V30 1811 O 167.797 -3.48043 2.66079 0
M  V30 1812 C 169.298 -4.30518 1.05682 0
M  V30 1813 H 166.518 -0.59772 0.304914 0
M  V30 1814 H 169.062 -1.43977 1.45227 0
M  V30 1815 H 167.217 -3.80881 0.707723 0
M  V30 1816 H 167.631 -4.4109 2.83795 0
M  V30 1817 H 169.105 -5.3391 1.40156 0
M  V30 1818 H 169.582 -4.392 -0.00563416 0
M  V30 1819 H 170.188 -3.93893 1.60402 0
M  V30 1820 N 168.503 -0.877838 -1.30888 0
M  V30 1821 C 169.752 -0.488793 -1.95688 0
M  V30 1822 C 170.065 0.965485 -1.70111 0
M  V30 1823 O 171.271 1.46104 -2.28836 0
M  V30 1824 C 169.727 -0.823201 -3.50359 0
M  V30 1825 C 169.335 -2.29477 -3.84765 0
M  V30 1826 C 171.079 -0.503009 -4.21509 0
M  V30 1827 C 168.986 -2.57118 -5.32583 0
M  V30 1828 H 167.916 -0.179062 -0.732429 0
M  V30 1829 H 170.567 -1.07183 -1.48943 0
M  V30 1830 H 168.949 -0.169331 -3.95638 0
M  V30 1831 H 170.123 -2.99236 -3.5042 0
M  V30 1832 H 168.438 -2.58178 -3.267 0
M  V30 1833 H 171.035 -0.68665 -5.30273 0
M  V30 1834 H 171.378 0.557109 -4.12555 0
M  V30 1835 H 171.911 -1.11376 -3.8189 0
M  V30 1836 H 168.65 -3.61843 -5.4658 0
M  V30 1837 H 168.17 -1.91961 -5.68253 0
M  V30 1838 H 169.849 -2.42251 -5.99936 0
M  V30 1839 N 169.982 1.44106 -0.638065 0
M  V30 1840 C 170.915 2.27924 0.112161 0
M  V30 1841 C 171.893 1.38945 0.844574 0
M  V30 1842 O 173.077 1.68386 0.847248 0
M  V30 1843 C 170.204 3.18029 1.16512 0
M  V30 1844 C 169.25 4.23163 0.532458 0
M  V30 1845 S 170.083 5.31131 -0.682666 0
M  V30 1846 C 171.239 6.24805 0.37013 0
M  V30 1847 H 171.472 2.91205 -0.598887 0
M  V30 1848 H 169.005 1.48394 -0.426441 0
M  V30 1849 H 170.963 3.70492 1.76766 0
M  V30 1850 H 169.624 2.53955 1.8484 0
M  V30 1851 H 168.817 4.86252 1.32571 0
M  V30 1852 H 168.419 3.74 0.00437644 0
M  V30 1853 H 170.711 6.66042 1.24071 0
M  V30 1854 H 171.654 7.07741 -0.225349 0
M  V30 1855 H 172.062 5.60154 0.699141 0
M  V30 1856 N 171.46 0.379036 1.52974 0
M  V30 1857 C 172.707 -0.206421 2.01445 0
M  V30 1858 C 173.035 -1.47668 1.26587 0
M  V30 1859 O 172.29 -1.92514 0.351675 0
M  V30 1860 C 172.589 -0.53096 3.53434 0
M  V30 1861 C 172.255 0.646546 4.46241 0
M  V30 1862 C 170.917 0.969604 4.7133 0
M  V30 1863 C 173.269 1.43479 5.01062 0
M  V30 1864 C 170.597 2.08263 5.48492 0
M  V30 1865 C 172.949 2.53834 5.7944 0
M  V30 1866 C 171.613 2.86659 6.02812 0
M  V30 1867 H 170.883 -0.0755349 0.73714 0
M  V30 1868 H 173.53 0.514271 1.84465 0
M  V30 1869 H 171.835 -1.33285 3.68432 0
M  V30 1870 H 173.532 -0.996417 3.88423 0
M  V30 1871 H 170.122 0.384734 4.2687 0
M  V30 1872 H 174.306 1.19844 4.81613 0
M  V30 1873 H 169.562 2.34078 5.64816 0
M  V30 1874 H 173.736 3.15319 6.20924 0
M  V30 1875 H 171.363 3.73026 6.62387 0
M  V30 1876 N 172.938 -1.57226 0.108567 0
M  V30 1877 C 173.848 -2.18292 -0.859401 0
M  V30 1878 C 174.864 -1.15612 -1.30038 0
M  V30 1879 O 176.04 -1.48039 -1.36552 0
M  V30 1880 C 173.105 -2.762 -2.09558 0
M  V30 1881 C 172.166 -3.93881 -1.70752 0
M  V30 1882 C 171.399 -4.49018 -2.88477 0
M  V30 1883 O 171.622 -4.03068 -4.036 0
M  V30 1884 O 170.556 -5.39852 -2.66164 0
M  V30 1885 H 174.382 -3.01441 -0.369769 0
M  V30 1886 H 171.967 -1.48945 -0.1165 0
M  V30 1887 H 173.849 -3.13156 -2.81978 0
M  V30 1888 H 172.524 -1.96089 -2.57548 0
M  V30 1889 H 171.431 -3.61713 -0.954714 0
M  V30 1890 H 172.764 -4.75396 -1.27513 0
M  V30 1891 N 174.416 0.165178 -1.56732 0
M  V30 1892 C 175.379 1.18822 -1.95995 0
M  V30 1893 C 176.379 1.3685 -0.84431 0
M  V30 1894 O 177.569 1.34152 -1.11126 0
M  V30 1895 C 174.701 2.5521 -2.26011 0
M  V30 1896 H 175.894 0.851825 -2.87548 0
M  V30 1897 H 173.447 0.407857 -1.50885 0
M  V30 1898 H 174.182 2.93852 -1.37191 0
M  V30 1899 H 173.967 2.43489 -3.07336 0
M  V30 1900 H 175.457 3.28927 -2.57288 0
M  V30 1901 N 175.894 1.51508 0.433938 0
M  V30 1902 C 176.827 1.67756 1.54704 0
M  V30 1903 C 177.805 0.525127 1.53887 0
M  V30 1904 O 178.989 0.749393 1.72963 0
M  V30 1905 C 176.116 1.69424 2.9328 0
M  V30 1906 C 175.162 2.90673 3.12108 0
M  V30 1907 S 175.995 4.51431 2.88046 0
M  V30 1908 C 177.151 4.55849 4.28897 0
M  V30 1909 H 177.384 2.61904 1.40689 0
M  V30 1910 H 174.917 1.41235 0.62386 0
M  V30 1911 H 176.875 1.7107 3.73156 0
M  V30 1912 H 175.536 0.764464 3.04655 0
M  V30 1913 H 174.729 2.88251 4.13434 0
M  V30 1914 H 174.331 2.86786 2.40062 0
M  V30 1915 H 176.623 4.31699 5.22152 0
M  V30 1916 H 177.566 5.57676 4.36351 0
M  V30 1917 H 177.974 3.85137 4.12711 0
M  V30 1918 N 177.372 -0.689602 1.41712 0
M  V30 1919 C 178.618 -1.45041 1.42599 0
M  V30 1920 C 178.973 -1.92366 0.0363764 0
M  V30 1921 O 178.266 -1.67022 -0.938844 0
M  V30 1922 C 178.46 -2.67298 2.37247 0
M  V30 1923 C 178.289 -2.31935 3.85274 0
M  V30 1924 C 177.059 -2.2201 4.53916 0
M  V30 1925 C 179.257 -1.94526 4.76093 0
M  V30 1926 N 177.239 -1.79594 5.87043 0
M  V30 1927 C 178.61 -1.62915 5.98213 0
M  V30 1928 C 180.665 -1.81388 4.63684 0
M  V30 1929 C 179.368 -1.19486 7.09306 0
M  V30 1930 C 181.394 -1.39364 5.74745 0
M  V30 1931 C 180.756 -1.08668 6.95967 0
M  V30 1932 H 176.855 -0.527806 0.577014 0
M  V30 1933 H 179.439 -0.797266 1.77628 0
M  V30 1934 H 177.61 -3.30325 2.04304 0
M  V30 1935 H 179.342 -3.33806 2.28814 0
M  V30 1936 H 176.097 -2.406 4.07932 0
M  V30 1937 H 176.521 -1.60851 6.57614 0
M  V30 1938 H 181.163 -2.03772 3.70455 0
M  V30 1939 H 178.881 -0.958477 8.02396 0
M  V30 1940 H 182.467 -1.2974 5.6715 0
M  V30 1941 H 181.347 -0.766417 7.80446 0
M  V30 1942 N 178.85 -1.27639 -0.924453 0
M  V30 1943 C 180.261 -1.12834 -1.48746 0
M  V30 1944 C 180.612 0.285505 -1.94112 0
M  V30 1945 O 179.737 1.17874 -1.81479 0
M  V30 1946 C 180.332 -2.04217 -2.70334 0
M  V30 1947 C 178.891 -1.93509 -3.22848 0
M  V30 1948 C 178.038 -1.96583 -1.95577 0
M  V30 1949 H 180.989 -1.40484 -0.738233 0
M  V30 1950 H 181.01 -1.59989 -3.4523 0
M  V30 1951 H 180.522 -3.07111 -2.37285 0
M  V30 1952 H 178.623 -0.936131 -3.60649 0
M  V30 1953 H 178.736 -2.79917 -3.88823 0
M  V30 1954 H 177.1 -1.4085 -2.12211 0
M  V30 1955 H 177.883 -3.01137 -1.64837 0
M  V30 1956 N 180.328 1.1314 -1.09713 0
M  V30 1957 C 181.258 2.20748 -0.761102 0
M  V30 1958 C 182.239 1.68061 0.262566 0
M  V30 1959 O 183.424 1.93765 0.129977 0
M  V30 1960 C 180.554 3.46812 -0.184054 0
M  V30 1961 C 179.508 4.12606 -1.13757 0
M  V30 1962 C 178.834 5.33031 -0.422083 0
M  V30 1963 C 180.134 4.59603 -2.48118 0
M  V30 1964 H 181.828 2.49113 -1.66082 0
M  V30 1965 H 179.374 1.19734 -0.799987 0
M  V30 1966 H 181.327 4.21353 0.0631215 0
M  V30 1967 H 180.051 3.17851 0.750868 0
M  V30 1968 H 178.71 3.40036 -1.37007 0
M  V30 1969 H 178.358 5.00335 0.517072 0
M  V30 1970 H 178.058 5.77999 -1.05788 0
M  V30 1971 H 179.582 6.10325 -0.183277 0
M  V30 1972 H 180.996 5.25552 -2.29059 0
M  V30 1973 H 179.393 5.15321 -3.07514 0
M  V30 1974 H 180.463 3.73971 -3.08665 0
M  V30 1975 N 181.806 0.884767 1.30421 0
M  V30 1976 C 183.217 0.553656 1.78302 0
M  V30 1977 C 183.568 -0.930153 1.7275 0
M  V30 1978 O 182.693 -1.72681 1.30423 0
M  V30 1979 C 183.288 0.998234 3.2376 0
M  V30 1980 C 181.847 0.71854 3.69478 0
M  V30 1981 C 180.994 1.18132 2.50879 0
M  V30 1982 H 183.945 1.06901 1.17294 0
M  V30 1983 H 183.966 0.327118 3.79091 0
M  V30 1984 H 183.478 2.0782 3.27769 0
M  V30 1985 H 181.579 -0.349444 3.70958 0
M  V30 1986 H 181.692 1.30595 4.60958 0
M  V30 1987 H 180.056 0.600669 2.47516 0
M  V30 1988 H 180.839 2.26902 2.57624 0
M  V30 1989 N 183.284 -1.43765 0.645699 0
M  V30 1990 C 184.214 -2.33471 -0.0370477 0
M  V30 1991 C 185.195 -1.49042 -0.819779 0
M  V30 1992 O 186.38 -1.77726 -0.782758 0
M  V30 1993 C 183.51 -3.32311 -1.0093 0
M  V30 1994 C 182.464 -4.2667 -0.337201 0
M  V30 1995 C 181.79 -5.1549 -1.42037 0
M  V30 1996 C 183.09 -5.16657 0.765706 0
M  V30 1997 H 184.784 -2.90809 0.712069 0
M  V30 1998 H 182.33 -1.39834 0.343876 0
M  V30 1999 H 184.283 -3.9396 -1.49578 0
M  V30 2000 H 183.007 -2.73213 -1.78948 0
M  V30 2001 H 181.666 -3.66374 0.128771 0
M  V30 2002 H 181.314 -4.52735 -2.1918 0
M  V30 2003 H 181.014 -5.79438 -0.975966 0
M  V30 2004 H 182.538 -5.80012 -1.90838 0
M  V30 2005 H 183.952 -5.72158 0.361702 0
M  V30 2006 H 182.349 -5.89286 1.13413 0
M  V30 2007 H 183.419 -4.56796 1.62683 0
M  V30 2008 N 184.763 -0.387143 -1.52771 0
M  V30 2009 C 186.009 0.196025 -2.0185 0
M  V30 2010 C 186.342 1.46641 -1.27319 0
M  V30 2011 O 185.617 1.90889 -0.373032 0
M  V30 2012 C 185.9 0.466136 -3.5707 0
M  V30 2013 C 185.753 -0.819385 -4.42274 0
M  V30 2014 C 187.072 1.25768 -4.21747 0
M  V30 2015 H 184.191 0.0697708 -0.73369 0
M  V30 2016 H 186.833 -0.516286 -1.82851 0
M  V30 2017 H 184.983 1.07293 -3.7339 0
M  V30 2018 H 186.655 -1.4563 -4.37709 0
M  V30 2019 H 184.898 -1.43517 -4.09372 0
M  V30 2020 H 185.569 -0.585065 -5.48891 0
M  V30 2021 H 188.045 0.744167 -4.09391 0
M  V30 2022 H 186.921 1.41541 -5.30337 0
M  V30 2023 H 187.182 2.27228 -3.79236 0
M  V30 2024 N 186.241 1.57166 -0.116904 0
M  V30 2025 C 187.171 2.18222 0.830759 0
M  V30 2026 C 188.152 1.12167 1.27877 0
M  V30 2027 O 189.337 1.40394 1.34176 0
M  V30 2028 C 186.467 2.77996 2.08172 0
M  V30 2029 C 185.421 3.89614 1.77157 0
M  V30 2030 C 184.747 4.36187 3.09265 0
M  V30 2031 C 186.047 5.1181 1.04151 0
M  V30 2032 H 187.741 2.97664 0.321992 0
M  V30 2033 H 185.287 1.4318 0.153434 0
M  V30 2034 H 187.24 3.19366 2.74924 0
M  V30 2035 H 185.964 1.9584 2.6137 0
M  V30 2036 H 184.623 3.48816 1.12796 0
M  V30 2037 H 184.271 3.50893 3.60393 0
M  V30 2038 H 183.971 5.11455 2.89288 0
M  V30 2039 H 185.495 4.80207 3.77139 0
M  V30 2040 H 186.909 5.50214 1.61052 0
M  V30 2041 H 185.306 5.92648 0.942762 0
M  V30 2042 H 186.376 4.84892 0.0279022 0
M  V30 2043 N 187.719 -0.156864 1.56817 0
M  V30 2044 C 188.959 -0.877453 1.84608 0
M  V30 2045 C 189.323 -1.78791 0.699845 0
M  V30 2046 O 190.524 -2.5472 0.858553 0
M  V30 2047 C 188.795 -1.63992 3.17555 0
M  V30 2048 S 190.354 -2.40729 3.66872 0
M  V30 2049 H 187.172 -0.293612 0.647544 0
M  V30 2050 H 189.774 -0.138099 1.95012 0
M  V30 2051 H 188.478 -0.962363 3.98957 0
M  V30 2052 H 188.009 -2.42038 3.10131 0
M  V30 2053 H 190.024 -3.65725 3.3535 0
M  V30 2054 N 189.197 -1.51736 -0.425897 0
M  V30 2055 C 190.608 -1.5732 -1.00536 0
M  V30 2056 C 190.959 -0.403537 -1.92005 0
M  V30 2057 O 190.084 0.478256 -2.11049 0
M  V30 2058 C 190.679 -2.85119 -1.8301 0
M  V30 2059 C 189.238 -2.93236 -2.35987 0
M  V30 2060 C 188.385 -2.52098 -1.15508 0
M  V30 2061 H 191.336 -1.57348 -0.206739 0
M  V30 2062 H 191.357 -2.69526 -2.68581 0
M  V30 2063 H 190.869 -3.7023 -1.16411 0
M  V30 2064 H 188.97 -2.12581 -3.06007 0
M  V30 2065 H 189.083 -3.9713 -2.68001 0
M  V30 2066 H 187.447 -2.05558 -1.50393 0
M  V30 2067 H 188.23 -3.39565 -0.505014 0
M  V30 2068 N 190.675 0.682077 -1.42076 0
M  V30 2069 C 191.638 1.77756 -1.44691 0
M  V30 2070 C 192.638 1.5726 -0.335535 0
M  V30 2071 O 193.828 1.63686 -0.596037 0
M  V30 2072 C 190.96 3.16301 -1.27146 0
M  V30 2073 H 192.153 1.76826 -2.42224 0
M  V30 2074 H 189.706 0.891012 -1.28416 0
M  V30 2075 H 190.441 3.22862 -0.305075 0
M  V30 2076 H 190.226 3.32581 -2.07683 0
M  V30 2077 H 191.716 3.96241 -1.31843 0
M  V30 2078 N 192.153 1.28127 0.917671 0
M  V30 2079 C 193.399 1.16232 1.66918 0
M  V30 2080 C 193.754 -0.28701 1.90247 0
M  V30 2081 O 193.047 -1.20586 1.48895 0
M  V30 2082 C 193.241 1.89018 3.03327 0
M  V30 2083 C 193.07 3.4088 2.9331 0
M  V30 2084 C 191.84 4.10214 2.95047 0
M  V30 2085 C 194.038 4.36689 2.71675 0
M  V30 2086 N 192.02 5.48571 2.75577 0
M  V30 2087 C 193.391 5.62382 2.6101 0
M  V30 2088 C 195.446 4.26661 2.56641 0
M  V30 2089 C 194.149 6.79189 2.36843 0
M  V30 2090 C 196.175 5.432 2.33853 0
M  V30 2091 C 195.537 6.67855 2.23939 0
M  V30 2092 H 191.636 0.48024 0.617166 0
M  V30 2093 H 194.22 1.61727 1.08409 0
M  V30 2094 H 192.391 1.45963 3.59929 0
M  V30 2095 H 194.123 1.69541 3.67475 0
M  V30 2096 H 190.878 3.61762 3.05655 0
M  V30 2097 H 191.302 6.21287 2.68945 0
M  V30 2098 H 195.944 3.30998 2.63059 0
M  V30 2099 H 193.662 7.74926 2.29164 0
M  V30 2100 H 197.248 5.37328 2.23091 0
M  V30 2101 H 196.128 7.56511 2.06546 0
M  V30 2102 N 193.631 -1.12557 1.10312 0
M  V30 2103 C 194.561 -2.20341 0.772798 0
M  V30 2104 C 195.542 -1.68198 -0.25365 0
M  V30 2105 O 196.727 -1.93831 -0.119699 0
M  V30 2106 C 193.857 -3.46709 0.202443 0
M  V30 2107 C 192.811 -4.11996 1.15943 0
M  V30 2108 C 192.137 -5.328 0.450345 0
M  V30 2109 C 193.437 -4.5828 2.50552 0
M  V30 2110 H 195.131 -2.48229 1.674 0
M  V30 2111 H 192.677 -1.19308 0.806326 0
M  V30 2112 H 194.63 -4.2138 -0.0407752 0
M  V30 2113 H 193.354 -3.18245 -0.734001 0
M  V30 2114 H 192.013 -3.39305 1.38808 0
M  V30 2115 H 191.661 -5.00602 -0.490531 0
M  V30 2116 H 191.361 -5.7743 1.08851 0
M  V30 2117 H 192.885 -6.10219 0.215642 0
M  V30 2118 H 194.299 -5.2433 2.31843 0
M  V30 2119 H 192.696 -5.13683 3.10242 0
M  V30 2120 H 193.766 -3.72329 3.10643 0
M  V30 2121 N 195.109 -0.891671 -1.2995 0
M  V30 2122 C 196.356 -0.513501 -1.95881 0
M  V30 2123 C 196.684 0.938655 -1.70351 0
M  V30 2124 O 195.939 1.67936 -1.00478 0
M  V30 2125 C 196.238 -0.742868 -3.49594 0
M  V30 2126 C 195.904 -2.17114 -3.95186 0
M  V30 2127 C 194.566 -2.56169 -4.07346 0
M  V30 2128 C 196.918 -3.10162 -4.18866 0
M  V30 2129 C 194.246 -3.87469 -4.4055 0
M  V30 2130 C 196.598 -4.41001 -4.53542 0
M  V30 2131 C 195.262 -4.79941 -4.63911 0
M  V30 2132 H 194.532 -0.187903 -0.71678 0
M  V30 2133 H 197.179 -1.1288 -1.54694 0
M  V30 2134 H 195.484 -0.044586 -3.91775 0
M  V30 2135 H 197.181 -0.429767 -3.9869 0
M  V30 2136 H 193.771 -1.85801 -3.86233 0
M  V30 2137 H 197.955 -2.81206 -4.08946 0
M  V30 2138 H 193.211 -4.17371 -4.46779 0
M  V30 2139 H 197.385 -5.13133 -4.70815 0
M  V30 2140 H 195.012 -5.81719 -4.89395 0
M  V30 2141 N 196.587 1.43421 -0.653314 0
M  V30 2142 C 197.517 2.33487 0.0246656 0
M  V30 2143 C 198.498 1.49475 0.811863 0
M  V30 2144 O 199.683 1.78139 0.773322 0
M  V30 2145 C 196.813 3.32841 0.99166 0
M  V30 2146 C 195.767 4.26842 0.314568 0
M  V30 2147 C 195.093 5.16236 1.39302 0
M  V30 2148 C 196.393 5.16243 -0.793095 0
M  V30 2149 H 198.087 2.90427 -0.727481 0
M  V30 2150 H 195.633 1.39649 -0.351287 0
M  V30 2151 H 197.586 3.94747 1.47487 0
M  V30 2152 H 196.31 2.74158 1.77497 0
M  V30 2153 H 194.969 3.663 -0.148199 0
M  V30 2154 H 194.617 4.53891 2.16776 0
M  V30 2155 H 194.317 5.79948 0.945223 0
M  V30 2156 H 195.841 5.81015 1.87759 0
M  V30 2157 H 197.255 5.71958 -0.392039 0
M  V30 2158 H 195.652 5.88676 -1.16536 0
M  V30 2159 H 196.722 4.55927 -1.65103 0
M  V30 2160 N 198.065 0.39524 1.52563 0
M  V30 2161 C 199.342 -0.242908 1.94086 0
M  V30 2162 C 199.722 -1.63841 1.33114 0
M  V30 2163 O 199.07 -2.22928 0.501529 0
M  V30 2164 C 199.28 -0.26327 3.48006 0
M  V30 2165 C 200.628 -0.489354 4.21771 0
M  V30 2166 O 201.652 -0.343226 3.54543 0
M  V30 2167 O 200.511 -0.776169 5.4096 0
M  V30 2168 H 197.605 -0.152536 0.812811 0
M  V30 2169 H 200.151 0.450178 1.6362 0
M  V30 2170 H 198.923 0.713985 3.84731 0
M  V30 2171 H 198.546 -1.00103 3.84792 0
M  V30 2172 N 199.544 -1.57102 0.125237 0
M  V30 2173 C 200.79 -1.95697 -0.532035 0
M  V30 2174 C 201.123 -1.009 -1.6593 0
M  V30 2175 O 200.398 -0.047347 -1.94442 0
M  V30 2176 C 200.681 -3.44181 -1.05884 0
M  V30 2177 C 200.534 -4.49752 0.0654392 0
M  V30 2178 C 201.853 -3.94655 -1.9477 0
M  V30 2179 H 198.972 -0.711571 -0.191925 0
M  V30 2180 H 201.614 -1.88923 0.20206 0
M  V30 2181 H 199.764 -3.50085 -1.68442 0
M  V30 2182 H 201.436 -4.55943 0.700982 0
M  V30 2183 H 199.679 -4.27653 0.727709 0
M  V30 2184 H 200.35 -5.50924 -0.344505 0
M  V30 2185 H 202.826 -3.91094 -1.42074 0
M  V30 2186 H 201.702 -4.99057 -2.28546 0
M  V30 2187 H 201.963 -3.35718 -2.87656 0
M  V30 2188 N 201.022 0.148545 -1.56898 0
M  V30 2189 C 201.952 1.18524 -2.01182 0
M  V30 2190 C 202.933 1.4489 -0.891123 0
M  V30 2191 O 204.118 1.55836 -1.15882 0
M  V30 2192 C 201.248 2.51879 -2.39112 0
M  V30 2193 C 200.202 2.40038 -3.54353 0
M  V30 2194 C 199.528 3.78089 -3.78091 0
M  V30 2195 C 200.828 1.88577 -4.87069 0
M  V30 2196 H 202.522 0.817029 -2.88036 0
M  V30 2197 H 200.068 0.391575 -1.38574 0
M  V30 2198 H 202.021 3.24627 -2.68692 0
M  V30 2199 H 200.745 2.90532 -1.49193 0
M  V30 2200 H 199.404 1.69742 -3.24936 0
M  V30 2201 H 199.052 4.14175 -2.85426 0
M  V30 2202 H 198.752 3.71028 -4.55645 0
M  V30 2203 H 200.276 4.52387 -4.10095 0
M  V30 2204 H 201.69 2.51117 -5.15377 0
M  V30 2205 H 200.087 1.9241 -5.68417 0
M  V30 2206 H 201.157 0.84136 -4.77545 0
M  V30 2207 N 202.5 1.5196 0.417844 0
M  V30 2208 C 203.747 1.65591 1.16559 0
M  V30 2209 C 204.075 0.381565 1.90721 0
M  V30 2210 O 203.33 -0.635156 1.85106 0
M  V30 2211 C 203.629 2.82269 2.19223 0
M  V30 2212 C 203.295 4.20819 1.61933 0
M  V30 2213 C 201.957 4.58506 1.46033 0
M  V30 2214 C 204.309 5.07196 1.20008 0
M  V30 2215 C 201.637 5.80257 0.867113 0
M  V30 2216 C 203.989 6.29544 0.621086 0
M  V30 2217 C 202.653 6.65987 0.449144 0
M  V30 2218 H 201.923 0.605939 0.42652 0
M  V30 2219 H 204.57 1.86041 0.45397 0
M  V30 2220 H 202.875 2.56118 2.96498 0
M  V30 2221 H 204.572 2.90012 2.76936 0
M  V30 2222 H 201.162 3.91116 1.7529 0
M  V30 2223 H 205.346 4.7867 1.31105 0
M  V30 2224 H 200.602 6.07124 0.721833 0
M  V30 2225 H 204.776 6.95805 0.287798 0
M  V30 2226 H 202.403 7.60199 -0.012632 0
M  V30 2227 N 203.978 -0.674533 1.42435 0
M  V30 2228 C 205.203 -1.46784 1.46524 0
M  V30 2229 C 205.628 -1.87938 0.078066 0
M  V30 2230 O 204.986 -1.56014 -0.92354 0
M  V30 2231 C 205.034 -2.69307 2.39805 0
M  V30 2232 O 204.138 -3.67587 1.86959 0
M  V30 2233 H 203.479 -0.440959 0.496439 0
M  V30 2234 H 206.009 -0.827326 1.87127 0
M  V30 2235 H 206.019 -3.17374 2.56393 0
M  V30 2236 H 204.694 -2.38692 3.40586 0
M  V30 2237 H 203.271 -3.2662 1.79927 0
M  V30 2238 N 205.456 -1.28612 -0.910864 0
M  V30 2239 C 206.684 -1.18792 -1.69399 0
M  V30 2240 C 207.099 0.253039 -1.87097 0
M  V30 2241 O 206.456 1.17071 -1.40003 0
M  V30 2242 C 206.507 -1.88511 -3.08457 0
M  V30 2243 O 206.228 -3.26979 -2.91576 0
M  V30 2244 C 207.729 -1.85029 -4.02839 0
M  V30 2245 H 204.949 -0.412233 -0.529438 0
M  V30 2246 H 207.493 -1.69788 -1.13984 0
M  V30 2247 H 205.648 -1.41379 -3.60681 0
M  V30 2248 H 206.062 -3.61936 -3.79608 0
M  V30 2249 H 207.536 -2.38395 -4.97867 0
M  V30 2250 H 208.013 -0.823303 -4.31414 0
M  V30 2251 H 208.619 -2.31853 -3.56545 0
M  V30 2252 N 206.934 1.1197 -1.10907 0
M  V30 2253 C 207.897 2.16031 -0.765707 0
M  V30 2254 C 208.897 1.59393 0.212235 0
M  V30 2255 O 210.087 1.74196 -0.0115441 0
M  V30 2256 C 207.219 3.40632 -0.135053 0
M  V30 2257 H 208.412 2.47919 -1.68748 0
M  V30 2258 H 205.965 1.27061 -0.910226 0
M  V30 2259 H 206.7 3.14348 0.797218 0
M  V30 2260 H 206.485 3.8302 -0.838937 0
M  V30 2261 H 207.975 4.17505 0.0892469 0
M  V30 2262 N 208.412 0.89855 1.29475 0
M  V30 2263 C 209.637 0.538561 2.00285 0
M  V30 2264 C 210.062 -0.869135 1.66816 0
M  V30 2265 O 209.42 -1.57831 0.892145 0
M  V30 2266 C 209.468 0.736475 3.52999 0
M  V30 2267 O 208.572 -0.211537 4.11857 0
M  V30 2268 H 207.913 0.210563 0.62973 0
M  V30 2269 H 210.443 1.20982 1.64998 0
M  V30 2270 H 210.453 0.640685 4.02938 0
M  V30 2271 H 209.128 1.76276 3.76696 0
M  V30 2272 H 207.705 -0.0682991 3.72837 0
M  V30 2273 N 209.89 -1.43072 0.660911 0
M  V30 2274 C 211.139 -2.00942 0.174735 0
M  V30 2275 C 211.452 -1.52797 -1.22117 0
M  V30 2276 O 212.658 -2.02991 -1.80297 0
M  V30 2277 C 211.114 -3.58948 0.261559 0
M  V30 2278 C 210.722 -4.16085 1.66064 0
M  V30 2279 C 212.466 -4.24173 -0.166617 0
M  V30 2280 C 210.373 -5.6641 1.70098 0
M  V30 2281 H 209.303 -0.751483 0.0615631 0
M  V30 2282 H 211.954 -1.63955 0.824069 0
M  V30 2283 H 210.336 -3.93372 -0.455421 0
M  V30 2284 H 211.51 -3.93147 2.40359 0
M  V30 2285 H 209.825 -3.6326 2.03546 0
M  V30 2286 H 212.422 -5.34471 -0.156433 0
M  V30 2287 H 212.765 -3.98647 -1.19943 0
M  V30 2288 H 213.298 -3.94659 0.498875 0
M  V30 2289 H 210.037 -5.96715 2.71315 0
M  V30 2290 H 209.557 -5.91382 1.00139 0
M  V30 2291 H 211.236 -6.30585 1.44816 0
M  V30 2292 N 211.368 -0.403325 -1.52352 0
M  V30 2293 C 212.301 0.469463 -2.23319 0
M  V30 2294 C 213.279 1.05272 -1.23922 0
M  V30 2295 O 214.463 1.10169 -1.52954 0
M  V30 2296 C 211.59 1.6511 -2.9573 0
M  V30 2297 C 210.636 1.19178 -4.0951 0
M  V30 2298 S 211.469 0.161718 -5.35256 0
M  V30 2299 C 212.625 1.34882 -6.11194 0
M  V30 2300 H 212.858 -0.133134 -2.97002 0
M  V30 2301 H 210.391 -0.187588 -1.53256 0
M  V30 2302 H 212.349 2.3287 -3.38056 0
M  V30 2303 H 211.01 2.22503 -2.21701 0
M  V30 2304 H 210.203 2.07444 -4.59329 0
M  V30 2305 H 209.805 0.592911 -3.6927 0
M  V30 2306 H 212.097 2.27345 -6.38217 0
M  V30 2307 H 213.04 0.89128 -7.02468 0
M  V30 2308 H 213.448 1.57198 -5.42171 0
M  V30 2309 N 212.846 1.57033 -0.133567 0
M  V30 2310 C 213.796 2.12641 0.822671 0
M  V30 2311 C 214.78 1.05081 1.21847 0
M  V30 2312 O 215.972 1.31287 1.18713 0
M  V30 2313 C 213.101 2.74094 2.06706 0
M  V30 2314 C 212.187 3.88757 1.69497 0
M  V30 2315 N 212.578 4.95194 1.03037 0
M  V30 2316 C 210.876 3.99213 1.98859 0
M  V30 2317 C 211.577 5.75414 0.852873 0
M  V30 2318 N 210.553 5.25726 1.3825 0
M  V30 2319 H 214.355 2.92308 0.305537 0
M  V30 2320 H 211.869 1.62256 0.0684276 0
M  V30 2321 H 213.866 3.12285 2.76195 0
M  V30 2322 H 212.526 1.95896 2.5895 0
M  V30 2323 H 213.537 5.13247 0.692669 0
M  V30 2324 H 210.214 3.32075 2.53047 0
M  V30 2325 H 211.604 6.71089 0.330091 0
M  V30 2326 N 214.325 -0.140222 1.56975 0
M  V30 2327 C 215.255 -1.17456 2.01808 0
M  V30 2328 C 216.236 -1.44415 0.898794 0
M  V30 2329 O 217.421 -1.5522 1.16707 0
M  V30 2330 C 214.551 -2.50607 2.40444 0
M  V30 2331 C 213.505 -2.38155 3.55621 0
M  V30 2332 C 212.831 -3.76078 3.80091 0
M  V30 2333 C 214.131 -1.85991 4.88062 0
M  V30 2334 H 215.825 -0.801743 2.88466 0
M  V30 2335 H 213.371 -0.38422 1.38779 0
M  V30 2336 H 215.324 -3.23197 2.7041 0
M  V30 2337 H 214.048 -2.89737 1.50732 0
M  V30 2338 H 212.707 -1.68016 3.25832 0
M  V30 2339 H 212.355 -4.12656 2.87618 0
M  V30 2340 H 212.055 -3.68606 4.57606 0
M  V30 2341 H 213.579 -4.50206 4.12488 0
M  V30 2342 H 214.993 -2.4838 5.16701 0
M  V30 2343 H 213.39 -1.89393 5.6943 0
M  V30 2344 H 214.46 -0.816023 4.77984 0
M  V30 2345 N 215.803 -1.52179 -0.40978 0
M  V30 2346 C 217.043 -1.67882 -1.16597 0
M  V30 2347 C 217.407 -0.399795 -1.87791 0
M  V30 2348 O 218.608 -0.43292 -2.65291 0
M  V30 2349 C 216.879 -2.86662 -2.13448 0
M  V30 2350 S 218.438 -3.22843 -2.97183 0
M  V30 2351 H 215.256 -0.59118 -0.395002 0
M  V30 2352 H 217.858 -1.9017 -0.453373 0
M  V30 2353 H 216.562 -3.77998 -1.59831 0
M  V30 2354 H 216.093 -2.66645 -2.89247 0
M  V30 2355 H 218.108 -2.71415 -4.15389 0
M  V30 2356 N 217.281 0.66697 -1.42791 0
M  V30 2357 C 218.244 1.76211 -1.46568 0
M  V30 2358 C 219.244 1.56896 -0.352196 0
M  V30 2359 O 220.434 1.63044 -0.613364 0
M  V30 2360 C 217.566 3.14935 -1.30494 0
M  V30 2361 H 218.759 1.74247 -2.44086 0
M  V30 2362 H 216.312 0.877342 -1.29354 0
M  V30 2363 H 217.047 3.2252 -0.339301 0
M  V30 2364 H 216.832 3.30359 -2.11199 0
M  V30 2365 H 218.322 3.94821 -1.36038 0
M  V30 2366 N 218.759 1.29093 0.90403 0
M  V30 2367 C 220.008 1.16187 1.64874 0
M  V30 2368 C 220.321 -0.286742 1.93487 0
M  V30 2369 O 221.527 -0.537062 2.66135 0
M  V30 2370 C 219.983 2.03177 2.97064 0
M  V30 2371 C 219.591 3.52836 2.76062 0
M  V30 2372 C 221.335 1.98984 3.74974 0
M  V30 2373 C 219.242 4.31945 4.03952 0
M  V30 2374 H 218.172 0.431246 0.618501 0
M  V30 2375 H 220.823 1.53699 1.00243 0
M  V30 2376 H 219.205 1.5853 3.62883 0
M  V30 2377 H 220.379 4.05507 2.18863 0
M  V30 2378 H 218.694 3.58656 2.11553 0
M  V30 2379 H 221.291 2.55351 4.69787 0
M  V30 2380 H 221.634 0.968815 4.0487 0
M  V30 2381 H 222.167 2.41652 3.15989 0
M  V30 2382 H 218.906 5.34667 3.79225 0
M  V30 2383 H 218.426 3.84045 4.60727 0
M  V30 2384 H 220.105 4.42379 4.72133 0
M  V30 2385 N 220.237 -1.11381 1.11499 0
M  V30 2386 C 221.462 -1.87475 0.887019 0
M  V30 2387 C 221.887 -1.79639 -0.557796 0
M  V30 2388 O 221.245 -1.15924 -1.39396 0
M  V30 2389 C 221.293 -3.34213 1.35403 0
M  V30 2390 O 220.397 -4.0903 0.526146 0
M  V30 2391 H 219.738 -0.582099 0.319463 0
M  V30 2392 H 222.268 -1.40785 1.48461 0
M  V30 2393 H 222.278 -3.8506 1.34881 0
M  V30 2394 H 220.953 -3.39232 2.40612 0
M  V30 2395 H 219.53 -3.68082 0.597522 0
M  V30 2396 N 221.715 -0.905404 -1.28997 0
M  V30 2397 C 222.961 -0.535039 -1.95615 0
M  V30 2398 C 223.294 0.917404 -1.71165 0
M  V30 2399 O 222.569 1.65123 -1.02785 0
M  V30 2400 C 222.852 -0.834918 -3.50287 0
M  V30 2401 C 222.705 -2.33948 -3.84172 0
M  V30 2402 C 224.024 -0.325318 -4.38896 0
M  V30 2403 H 221.143 -0.195861 -0.710498 0
M  V30 2404 H 223.785 -1.13313 -1.52513 0
M  V30 2405 H 221.935 -0.325904 -3.87131 0
M  V30 2406 H 223.607 -2.91847 -3.57243 0
M  V30 2407 H 221.85 -2.79789 -3.31513 0
M  V30 2408 H 222.521 -2.49987 -4.92149 0
M  V30 2409 H 224.997 -0.761256 -4.09077 0
M  V30 2410 H 223.873 -0.564295 -5.45992 0
M  V30 2411 H 224.134 0.774144 -4.35269 0
M  V30 2412 N 223.193 1.4272 -0.668489 0
M  V30 2413 C 224.47 1.95248 -0.117373 0
M  V30 2414 C 224.85 1.60919 1.36632 0
M  V30 2415 O 224.198 0.902095 2.09939 0
M  V30 2416 C 224.408 3.46927 -0.379806 0
M  V30 2417 C 225.756 4.23588 -0.292923 0
M  V30 2418 O 226.78 3.5482 -0.313204 0
M  V30 2419 O 225.639 5.46017 -0.229697 0
M  V30 2420 H 222.733 0.827 0.00079152 0
M  V30 2421 H 225.279 1.52581 -0.742783 0
M  V30 2422 H 224.051 3.65096 -1.40786 0
M  V30 2423 H 223.674 3.96627 0.277923 0
M  V30 2424 N 224.671 0.411399 1.52136 0
M  V30 2425 C 226.087 0.0623865 1.59478 0
M  V30 2426 C 226.287 -1.42554 1.4241 0
M  V30 2427 O 225.343 -2.19263 1.2522 0
M  V30 2428 C 226.656 0.559331 2.95452 0
M  V30 2429 C 228.204 0.517503 3.08692 0
M  V30 2430 C 228.679 0.990994 4.4715 0
M  V30 2431 N 230.17 0.947908 4.53397 0
M  V30 2432 C 230.905 1.28544 5.58806 0
M  V30 2433 N 230.401 1.69454 6.71757 0
M  V30 2434 N 232.194 1.20526 5.49026 0
M  V30 2435 H 224.345 1.37982 1.61477 0
M  V30 2436 H 226.608 0.566977 0.759764 0
M  V30 2437 H 226.314 1.59938 3.1323 0
M  V30 2438 H 226.188 -0.0298014 3.77188 0
M  V30 2439 H 228.575 -0.513505 2.90598 0
M  V30 2440 H 228.656 1.14272 2.28857 0
M  V30 2441 H 228.3 2.02034 4.65988 0
M  V30 2442 H 228.23 0.34257 5.25485 0
M  V30 2443 H 230.721 0.647157 3.72317 0
M  V30 2444 H 231.034 1.93513 7.48179 0
M  V30 2445 H 229.379 1.73359 6.73032 0
M  V30 2446 H 232.57 0.884505 4.59667 0
M  V30 2447 H 232.743 1.47161 6.31069 0
M  V30 2448 N 226.149 -1.5696 0.141893 0
M  V30 2449 C 227.379 -2.00031 -0.516828 0
M  V30 2450 C 227.787 -1.02091 -1.59293 0
M  V30 2451 O 227.13 -0.00909657 -1.83698 0
M  V30 2452 C 227.192 -3.39534 -1.1814 0
M  V30 2453 C 226.856 -4.56313 -0.250513 0
M  V30 2454 C 227.853 -5.17295 0.519839 0
M  V30 2455 C 225.538 -5.02061 -0.154907 0
M  V30 2456 C 227.532 -6.2243 1.3733 0
M  V30 2457 C 225.219 -6.07053 0.702161 0
M  V30 2458 C 226.217 -6.67106 1.46487 0
M  V30 2459 O 225.905 -7.70066 2.30767 0
M  V30 2460 H 225.637 -0.661451 -0.139493 0
M  V30 2461 H 228.191 -2.04086 0.231926 0
M  V30 2462 H 226.421 -3.32302 -1.97769 0
M  V30 2463 H 228.11 -3.66745 -1.73933 0
M  V30 2464 H 228.876 -4.82852 0.45598 0
M  V30 2465 H 224.755 -4.5505 -0.7383 0
M  V30 2466 H 228.299 -6.69233 1.96909 0
M  V30 2467 H 224.196 -6.40923 0.76733 0
M  V30 2468 H 224.964 -7.87264 2.23959 0
M  V30 2469 N 227.627 0.131896 -1.57047 0
M  V30 2470 C 228.876 0.84044 -1.83356 0
M  V30 2471 C 229.189 1.81646 -0.725535 0
M  V30 2472 O 230.395 2.57025 -0.874659 0
M  V30 2473 C 228.851 1.54528 -3.25037 0
M  V30 2474 C 228.459 0.610902 -4.43815 0
M  V30 2475 C 230.203 2.23972 -3.60606 0
M  V30 2476 C 228.11 1.31823 -5.76521 0
M  V30 2477 H 227.04 0.317599 -0.683847 0
M  V30 2478 H 229.691 0.0931561 -1.83263 0
M  V30 2479 H 228.073 2.33873 -3.19561 0
M  V30 2480 H 229.247 -0.148407 -4.60561 0
M  V30 2481 H 227.562 0.0241016 -4.16393 0
M  V30 2482 H 230.159 2.77558 -4.57018 0
M  V30 2483 H 230.502 3.01173 -2.87403 0
M  V30 2484 H 231.035 1.51529 -3.6781 0
M  V30 2485 H 227.774 0.587771 -6.52859 0
M  V30 2486 H 227.294 2.04987 -5.63685 0
M  V30 2487 H 228.973 1.855 -6.19838 0
M  V30 2488 N 229.106 1.52395 0.401703 0
M  V30 2489 C 230.069 1.75636 1.47257 0
M  V30 2490 C 231.069 0.62628 1.48103 0
M  V30 2491 O 232.259 0.894227 1.49497 0
M  V30 2492 C 229.391 1.84553 2.86624 0
M  V30 2493 H 230.584 2.71241 1.27938 0
M  V30 2494 H 228.137 1.42923 0.632662 0
M  V30 2495 H 228.872 0.908882 3.11303 0
M  V30 2496 H 228.657 2.66715 2.87412 0
M  V30 2497 H 230.147 2.04251 3.64241 0
M  V30 2498 N 230.584 -0.659388 1.43143 0
M  V30 2499 C 231.833 -1.41518 1.43721 0
M  V30 2500 C 232.146 -1.95499 0.0628176 0
M  V30 2501 O 233.352 -2.71446 -0.0539683 0
M  V30 2502 C 231.808 -2.5608 2.52885 0
M  V30 2503 C 231.416 -2.08733 3.96402 0
M  V30 2504 C 233.16 -3.3349 2.62649 0
M  V30 2505 C 231.067 -3.20469 4.97045 0
M  V30 2506 H 229.997 -0.531705 0.534608 0
M  V30 2507 H 232.648 -0.712343 1.69109 0
M  V30 2508 H 231.03 -3.28805 2.20688 0
M  V30 2509 H 232.204 -1.43059 4.3803 0
M  V30 2510 H 230.519 -1.44219 3.90627 0
M  V30 2511 H 233.116 -4.16734 3.35017 0
M  V30 2512 H 233.459 -3.8111 1.67513 0
M  V30 2513 H 233.992 -2.67842 2.94118 0
M  V30 2514 H 230.731 -2.77824 5.93712 0
M  V30 2515 H 230.251 -3.84874 4.60034 0
M  V30 2516 H 231.93 -3.85698 5.19467 0
M  V30 2517 N 232.062 -1.29571 -0.897171 0
M  V30 2518 C 233.009 -1.14916 -2.00158 0
M  V30 2519 C 233.979 -0.0418149 -1.66047 0
M  V30 2520 O 235.164 -0.209793 -1.89643 0
M  V30 2521 C 232.304 -0.834307 -3.34863 0
M  V30 2522 C 231.417 -2.02234 -3.8174 0
M  V30 2523 C 230.552 -1.64664 -5.05034 0
M  V30 2524 C 229.591 -2.80033 -5.44286 0
M  V30 2525 N 228.728 -2.42843 -6.58765 0
M  V30 2526 H 233.568 -2.09403 -2.12025 0
M  V30 2527 H 231.105 -1.042 -1.0383 0
M  V30 2528 H 233.063 -0.632436 -4.12379 0
M  V30 2529 H 231.693 0.0736656 -3.22716 0
M  V30 2530 H 230.745 -2.33583 -3.00238 0
M  V30 2531 H 232.057 -2.88673 -4.06779 0
M  V30 2532 H 231.211 -1.4078 -5.9014 0
M  V30 2533 H 229.95 -0.753766 -4.8184 0
M  V30 2534 H 228.955 -3.04596 -4.57713 0
M  V30 2535 H 230.18 -3.69989 -5.6946 0
M  V30 2536 H 228.126 -1.56046 -6.3717 0
M  V30 2537 H 228.043 -3.22815 -6.83613 0
M  V30 2538 H 229.311 -2.22285 -7.47134 0
M  V30 2539 N 233.54 1.10788 -1.12088 0
M  V30 2540 C 234.487 2.17025 -0.785407 0
M  V30 2541 C 235.457 1.64265 0.246191 0
M  V30 2542 O 236.642 1.90412 0.121584 0
M  V30 2543 C 233.782 3.44249 -0.242177 0
M  V30 2544 C 232.895 4.1098 -1.33115 0
M  V30 2545 C 232.03 5.25911 -0.747741 0
M  V30 2546 C 231.069 5.84538 -1.81609 0
M  V30 2547 N 230.206 6.90853 -1.25167 0
M  V30 2548 H 235.046 2.45066 -1.69548 0
M  V30 2549 H 232.583 1.20297 -0.846582 0
M  V30 2550 H 234.541 4.17101 0.0908026 0
M  V30 2551 H 233.171 3.16571 0.631072 0
M  V30 2552 H 232.223 3.36133 -1.78097 0
M  V30 2553 H 233.535 4.50601 -2.13917 0
M  V30 2554 H 232.689 6.056 -0.365216 0
M  V30 2555 H 231.428 4.87614 0.0915188 0
M  V30 2556 H 230.433 5.03522 -2.20785 0
M  V30 2557 H 231.658 6.249 -2.6585 0
M  V30 2558 H 229.604 6.54562 -0.434174 0
M  V30 2559 H 229.521 7.29166 -1.99633 0
M  V30 2560 H 230.789 7.7433 -0.896259 0
M  V30 2561 N 235.018 0.912232 1.28515 0
M  V30 2562 C 236.429 0.591352 1.77087 0
M  V30 2563 C 236.78 -0.8933 1.74684 0
M  V30 2564 O 235.905 -1.69876 1.34056 0
M  V30 2565 C 236.5 1.06668 3.2157 0
M  V30 2566 C 235.059 0.79675 3.67871 0
M  V30 2567 C 234.206 1.23427 2.48316 0
M  V30 2568 H 237.157 1.09365 1.15 0
M  V30 2569 H 237.178 0.407455 3.78312 0
M  V30 2570 H 236.69 2.14726 3.23287 0
M  V30 2571 H 234.791 -0.270679 3.71616 0
M  V30 2572 H 234.904 1.40343 4.58084 0
M  V30 2573 H 233.268 0.653036 2.46186 0
M  V30 2574 H 234.051 2.32316 2.52753 0
M  V30 2575 N 236.496 -1.42363 0.676048 0
M  V30 2576 C 237.745 -2.00745 0.196037 0
M  V30 2577 C 238.058 -1.54083 -1.20489 0
M  V30 2578 O 239.264 -2.04891 -1.78134 0
M  V30 2579 C 237.72 -3.58651 0.299616 0
M  V30 2580 C 237.328 -4.143 1.70468 0
M  V30 2581 C 239.072 -4.24326 -0.121619 0
M  V30 2582 C 236.979 -5.64574 1.76096 0
M  V30 2583 H 235.909 -0.750787 0.0695301 0
M  V30 2584 H 238.56 -1.63072 0.841412 0
M  V30 2585 H 236.942 -3.93833 -0.413673 0
M  V30 2586 H 238.116 -3.90575 2.44515 0
M  V30 2587 H 236.431 -3.61081 2.07387 0
M  V30 2588 H 239.028 -5.34607 -0.0997362 0
M  V30 2589 H 239.371 -3.99897 -1.15708 0
M  V30 2590 H 239.904 -3.94108 0.540706 0
M  V30 2591 H 236.643 -5.93804 2.77628 0
M  V30 2592 H 236.163 -5.90286 1.06406 0
M  V30 2593 H 237.842 -6.29013 1.51496 0
M  V30 2594 N 237.974 -0.419461 -1.51915 0
M  V30 2595 C 238.906 0.43646 -2.25006 0
M  V30 2596 C 239.919 1.00149 -1.28351 0
M  V30 2597 O 241.108 0.898674 -1.54227 0
M  V30 2598 C 238.208 1.6206 -2.9764 0
M  V30 2599 C 237.381 1.17763 -4.21249 0
M  V30 2600 C 236.44 2.22985 -4.76617 0
M  V30 2601 O 235.466 1.83151 -5.38929 0
M  V30 2602 N 236.668 3.55271 -4.59089 0
M  V30 2603 H 239.433 -0.18989 -2.99098 0
M  V30 2604 H 236.994 -0.247386 -1.59999 0
M  V30 2605 H 238.986 2.32038 -3.31573 0
M  V30 2606 H 237.556 2.15266 -2.2667 0
M  V30 2607 H 236.776 0.305582 -3.93014 0
M  V30 2608 H 238.064 0.858781 -5.015 0
M  V30 2609 H 237.462 3.90377 -4.09417 0
M  V30 2610 H 236.019 4.21195 -4.97432 0
M  V30 2611 N 239.452 1.56882 -0.150215 0
M  V30 2612 C 240.415 2.1573 0.774157 0
M  V30 2613 C 241.415 1.0999 1.17298 0
M  V30 2614 O 242.605 1.35613 1.09338 0
M  V30 2615 C 239.737 2.72302 2.05096 0
M  V30 2616 H 240.93 2.98752 0.262201 0
M  V30 2617 H 238.483 1.55985 0.099248 0
M  V30 2618 H 239.218 1.92956 2.6065 0
M  V30 2619 H 239.003 3.49665 1.77416 0
M  V30 2620 H 240.493 3.17632 2.71109 0
M  V30 2621 N 240.93 -0.123565 1.57115 0
M  V30 2622 C 241.878 -1.17082 2.00984 0
M  V30 2623 C 242.872 -1.43136 0.906009 0
M  V30 2624 O 244.078 -1.43152 1.09121 0
M  V30 2625 H 240.453 -0.394653 0.64012 0
M  V30 2626 H 242.424 -0.774292 2.88179 0
M  V30 2627 C 241.173 -2.49057 2.42623 0
M  V30 2628 H 240.496 -2.29846 3.27125 0
M  V30 2629 H 241.936 -3.20906 2.7712 0
M  V30 2630 C 240.395 -3.11305 1.28805 0
M  V30 2631 O 240.925 -3.97171 0.60153 0
M  V30 2632 N 239.131 -2.71111 1.04628 0
M  V30 2633 H 238.678 -2.01382 1.60634 0
M  V30 2634 H 238.636 -3.1309 0.286685 0
M  V30 2635 N 242.408 -1.52605 -0.393616 0
M  V30 2636 C 243.34 -1.73303 -1.49995 0
M  V30 2637 C 244.353 -0.613473 -1.50799 0
M  V30 2638 O 245.542 -0.889049 -1.54784 0
M  V30 2639 C 242.642 -1.77245 -2.88855 0
M  V30 2640 C 241.815 -3.06483 -3.12069 0
M  V30 2641 C 240.874 -3.02033 -4.30886 0
M  V30 2642 O 239.9 -3.75907 -4.27414 0
M  V30 2643 N 241.102 -2.20897 -5.36828 0
M  V30 2644 H 243.867 -2.68756 -1.32629 0
M  V30 2645 H 241.428 -1.51036 -0.583083 0
M  V30 2646 H 243.42 -1.7178 -3.66434 0
M  V30 2647 H 241.99 -0.891993 -2.99603 0
M  V30 2648 H 241.21 -3.25474 -2.22396 0
M  V30 2649 H 242.498 -3.91947 -3.2443 0
M  V30 2650 H 241.896 -1.60336 -5.42502 0
M  V30 2651 H 240.453 -2.21275 -6.13091 0
M  V30 2652 N 243.887 0.651787 -1.4349 0
M  V30 2653 C 245.117 1.43728 -1.48411 0
M  V30 2654 C 245.525 1.8893 -0.10103 0
M  V30 2655 O 244.868 1.60182 0.899307 0
M  V30 2656 C 244.93 2.70411 -2.36893 0
M  V30 2657 C 244.594 2.4714 -3.8441 0
M  V30 2658 C 245.591 2.10271 -4.75481 0
M  V30 2659 C 243.276 2.6142 -4.28912 0
M  V30 2660 C 245.27 1.87982 -6.0905 0
M  V30 2661 C 242.957 2.38746 -5.62533 0
M  V30 2662 C 243.955 2.02083 -6.5242 0
M  V30 2663 O 243.643 1.79647 -7.8357 0
M  V30 2664 H 243.375 0.447962 -0.506267 0
M  V30 2665 H 245.929 0.80624 -1.88915 0
M  V30 2666 H 244.159 3.36079 -1.91278 0
M  V30 2667 H 245.848 3.32364 -2.33 0
M  V30 2668 H 246.614 1.98814 -4.42378 0
M  V30 2669 H 242.493 2.88931 -3.59222 0
M  V30 2670 H 246.037 1.5929 -6.7917 0
M  V30 2671 H 241.934 2.49806 -5.95203 0
M  V30 2672 H 242.702 1.9406 -7.95162 0
M  V30 2673 N 245.365 1.30045 0.890287 0
M  V30 2674 C 246.313 1.15873 2.01683 0
M  V30 2675 C 247.307 0.0719403 1.69247 0
M  V30 2676 O 248.513 0.232414 1.78493 0
M  V30 2677 H 244.888 0.358203 0.661207 0
M  V30 2678 H 246.859 2.11229 2.10772 0
M  V30 2679 C 245.608 0.861842 3.36849 0
M  V30 2680 H 244.931 1.69016 3.62317 0
M  V30 2681 H 246.371 0.802762 4.16331 0
M  V30 2682 C 244.83 -0.435132 3.34078 0
M  V30 2683 O 245.36 -1.4583 3.74295 0
M  V30 2684 N 243.566 -0.444377 2.87182 0
M  V30 2685 H 243.113 0.388723 2.5465 0
M  V30 2686 H 243.071 -1.31213 2.85711 0
M  V30 2687 N 246.843 -1.10192 1.12674 0
M  V30 2688 C 248.068 -1.86523 0.906853 0
M  V30 2689 C 248.493 -1.80221 -0.538711 0
M  V30 2690 O 247.851 -1.17396 -1.38158 0
M  V30 2691 C 247.899 -3.32758 1.3894 0
M  V30 2692 O 247.003 -4.08449 0.5695 0
M  V30 2693 H 246.344 -0.578678 0.325619 0
M  V30 2694 H 248.874 -1.39203 1.49946 0
M  V30 2695 H 248.884 -3.83608 1.38958 0
M  V30 2696 H 247.559 -3.36661 2.44197 0
M  V30 2697 H 246.136 -3.67427 0.636528 0
M  V30 2698 N 248.321 -0.919034 -1.28029 0
M  V30 2699 C 249.737 -0.617972 -1.4715 0
M  V30 2700 C 249.937 0.835242 -1.83374 0
M  V30 2701 O 248.993 1.61388 -1.94191 0
M  V30 2702 C 250.306 -1.56041 -2.57044 0
M  V30 2703 C 251.854 -1.56769 -2.7091 0
M  V30 2704 C 252.329 -2.49688 -3.83953 0
M  V30 2705 N 253.82 -2.47845 -3.91314 0
M  V30 2706 C 254.555 -3.16437 -4.78179 0
M  V30 2707 N 254.051 -3.94376 -5.69596 0
M  V30 2708 N 255.844 -3.05498 -4.71834 0
M  V30 2709 H 247.995 -1.85866 -1.02798 0
M  V30 2710 H 250.258 -0.797506 -0.512531 0
M  V30 2711 H 249.964 -2.59671 -2.372 0
M  V30 2712 H 249.838 -1.29551 -3.54255 0
M  V30 2713 H 252.225 -0.538745 -2.90141 0
M  V30 2714 H 252.306 -1.87305 -1.74214 0
M  V30 2715 H 251.95 -3.52688 -3.65477 0
M  V30 2716 H 251.88 -2.16453 -4.80058 0
M  V30 2717 H 254.371 -1.91234 -3.25941 0
M  V30 2718 H 254.684 -4.43721 -6.32718 0
M  V30 2719 H 253.029 -3.98481 -5.69419 0
M  V30 2720 H 256.22 -2.44108 -3.99411 0
M  V30 2721 H 256.393 -3.59225 -5.39316 0
M  V30 2722 N 249.799 1.42003 -0.683588 0
M  V30 2723 C 250.762 2.29191 -0.0198243 0
M  V30 2724 C 251.762 1.43773 0.72013 0
M  V30 2725 O 252.952 1.65061 0.556815 0
M  V30 2726 C 250.084 3.26435 0.982487 0
M  V30 2727 H 251.277 2.8938 -0.787345 0
M  V30 2728 H 248.83 1.49789 -0.446418 0
M  V30 2729 H 249.565 2.71203 1.77819 0
M  V30 2730 H 249.35 3.89449 0.455182 0
M  V30 2731 H 250.84 3.918 1.44508 0
M  V30 2732 N 251.277 0.427512 1.51691 0
M  V30 2733 C 252.505 -0.141191 2.06418 0
M  V30 2734 C 252.92 -1.37303 1.29589 0
M  V30 2735 O 252.277 -1.79059 0.352732 0
M  V30 2736 C 252.328 -0.473266 3.58389 0
M  V30 2737 O 252.049 0.709673 4.32314 0
M  V30 2738 C 253.55 -1.09371 4.29596 0
M  V30 2739 H 250.77 -0.0122747 0.670888 0
M  V30 2740 H 253.314 0.603764 1.95384 0
M  V30 2741 H 251.469 -1.16812 3.69369 0
M  V30 2742 H 251.883 0.42807 5.2275 0
M  V30 2743 H 253.357 -1.27613 5.37046 0
M  V30 2744 H 253.834 -2.072 3.87253 0
M  V30 2745 H 254.44 -0.43853 4.23033 0
M  V30 2746 N 252.755 -1.56801 0.158532 0
M  V30 2747 C 253.718 -2.16138 -0.762705 0
M  V30 2748 C 254.718 -1.1061 -1.16713 0
M  V30 2749 O 255.908 -1.36191 -1.08617 0
M  V30 2750 C 253.04 -2.73386 -2.03649 0
M  V30 2751 H 254.233 -2.98886 -0.246354 0
M  V30 2752 H 251.786 -1.56035 -0.0909744 0
M  V30 2753 H 252.521 -1.94335 -2.59623 0
M  V30 2754 H 252.306 -3.50601 -1.75559 0
M  V30 2755 H 253.796 -3.19065 -2.6942 0
M  V30 2756 N 254.233 0.115231 -1.57178 0
M  V30 2757 C 255.48 0.822351 -1.8505 0
M  V30 2758 C 255.808 1.79701 -0.744168 0
M  V30 2759 O 255.063 1.93909 0.26414 0
M  V30 2760 C 255.362 1.60324 -3.19423 0
M  V30 2761 C 255.028 0.772536 -4.44233 0
M  V30 2762 C 253.69 0.543468 -4.78121 0
M  V30 2763 C 256.042 0.193746 -5.2084 0
M  V30 2764 C 253.37 -0.274583 -5.86057 0
M  V30 2765 C 255.722 -0.611517 -6.29637 0
M  V30 2766 C 254.386 -0.850867 -6.62055 0
M  V30 2767 H 253.656 0.30092 -0.677147 0
M  V30 2768 H 256.303 0.0845802 -1.91313 0
M  V30 2769 H 254.608 2.41203 -3.08753 0
M  V30 2770 H 256.305 2.1544 -3.38211 0
M  V30 2771 H 252.895 0.96117 -4.17683 0
M  V30 2772 H 257.079 0.357926 -4.95008 0
M  V30 2773 H 252.335 -0.469206 -6.09597 0
M  V30 2774 H 256.509 -1.06697 -6.88178 0
M  V30 2775 H 254.136 -1.48657 -7.45523 0
M  V30 2776 N 255.711 1.52812 0.385517 0
M  V30 2777 C 256.96 1.67249 1.12741 0
M  V30 2778 C 257.273 0.4205 1.91027 0
M  V30 2779 O 258.479 0.445064 2.67827 0
M  V30 2780 C 256.935 2.95583 2.05326 0
M  V30 2781 C 256.543 4.27974 1.32447 0
M  V30 2782 C 258.287 3.19386 2.7963 0
M  V30 2783 C 256.194 5.47412 2.23818 0
M  V30 2784 H 255.124 0.6231 0.424573 0
M  V30 2785 H 257.775 1.79309 0.389924 0
M  V30 2786 H 256.157 2.77277 2.82725 0
M  V30 2787 H 257.331 4.56844 0.602495 0
M  V30 2788 H 255.646 4.10459 0.700885 0
M  V30 2789 H 258.243 4.05801 3.48181 0
M  V30 2790 H 258.586 2.34604 3.43899 0
M  V30 2791 H 259.119 3.38274 2.09322 0
M  V30 2792 H 255.858 6.34612 1.64157 0
M  V30 2793 H 255.378 5.22849 2.93921 0
M  V30 2794 H 257.057 5.81423 2.83824 0
M  V30 2795 N 257.189 -0.644168 1.43834 0
M  V30 2796 C 258.136 -1.75671 1.49694 0
M  V30 2797 C 259.106 -1.6246 0.345809 0
M  V30 2798 O 260.291 -1.82573 0.554234 0
M  V30 2799 C 257.431 -3.13867 1.43463 0
M  V30 2800 C 256.544 -3.38147 2.6885 0
M  V30 2801 C 255.679 -4.66241 2.54544 0
M  V30 2802 C 254.718 -4.83657 3.75157 0
M  V30 2803 N 253.855 -6.03016 3.59605 0
M  V30 2804 H 258.695 -1.69998 2.44754 0
M  V30 2805 H 256.232 -0.829458 1.21484 0
M  V30 2806 H 258.19 -3.9377 1.37843 0
M  V30 2807 H 256.82 -3.18588 0.519783 0
M  V30 2808 H 255.872 -2.52276 2.84712 0
M  V30 2809 H 257.184 -3.46899 3.58417 0
M  V30 2810 H 256.338 -5.54285 2.46683 0
M  V30 2811 H 255.077 -4.59826 1.62516 0
M  V30 2812 H 254.082 -3.94046 3.83416 0
M  V30 2813 H 255.307 -4.91896 4.68204 0
M  V30 2814 H 253.253 -5.97715 2.7032 0
M  V30 2815 H 253.17 -6.12766 4.42779 0
M  V30 2816 H 254.438 -6.93657 3.55613 0
M  V30 2817 N 258.668 -1.30515 -0.883378 0
M  V30 2818 C 259.917 -1.18795 -1.63005 0
M  V30 2819 C 260.23 0.255923 -1.93919 0
M  V30 2820 O 261.436 0.494654 -2.66956 0
M  V30 2821 C 259.892 -2.07878 -2.93794 0
M  V30 2822 C 259.5 -3.57184 -2.70414 0
M  V30 2823 C 261.244 -2.04924 -3.71761 0
M  V30 2824 C 259.151 -4.38317 -3.97029 0
M  V30 2825 H 258.081 -0.441031 -0.611562 0
M  V30 2826 H 260.732 -1.55275 -0.977854 0
M  V30 2827 H 259.114 -1.64283 -3.60315 0
M  V30 2828 H 260.288 -4.08937 -2.12384 0
M  V30 2829 H 258.603 -3.61976 -2.0582 0
M  V30 2830 H 261.2 -2.62792 -4.65665 0
M  V30 2831 H 261.543 -1.0331 -4.03277 0
M  V30 2832 H 262.076 -2.46649 -3.12104 0
M  V30 2833 H 258.815 -5.40632 -3.70671 0
M  V30 2834 H 258.335 -3.91326 -4.54559 0
M  V30 2835 H 260.014 -4.49834 -4.65036 0
M  V30 2836 N 260.146 1.09593 -1.13257 0
M  V30 2837 C 261.374 1.855 -0.916378 0
M  V30 2838 C 261.789 1.81069 0.534738 0
M  V30 2839 O 261.146 1.20562 1.37007 0
M  V30 2840 C 261.197 3.33546 -1.39388 0
M  V30 2841 O 260.918 3.37927 -2.78813 0
M  V30 2842 C 262.419 4.26299 -1.21588 0
M  V30 2843 H 259.639 0.585991 -0.326887 0
M  V30 2844 H 262.183 1.38488 -1.5047 0
M  V30 2845 H 260.338 3.77992 -0.848597 0
M  V30 2846 H 260.752 4.30254 -2.9997 0
M  V30 2847 H 262.226 5.28341 -1.59876 0
M  V30 2848 H 262.703 4.38918 -0.157376 0
M  V30 2849 H 263.309 3.87668 -1.7491 0
M  V30 2850 N 261.624 0.925811 1.2754 0
M  V30 2851 C 262.87 0.566092 1.94739 0
M  V30 2852 C 263.203 -0.890057 1.72603 0
M  V30 2853 O 262.478 -1.63467 1.05399 0
M  V30 2854 C 262.761 0.89054 3.48915 0
M  V30 2855 C 262.614 2.4003 3.80402 0
M  V30 2856 C 263.933 0.395101 4.38323 0
M  V30 2857 H 261.052 0.20714 0.707292 0
M  V30 2858 H 263.694 1.15725 1.50691 0
M  V30 2859 H 261.844 0.387452 3.86563 0
M  V30 2860 H 263.516 2.97494 3.52555 0
M  V30 2861 H 261.759 2.85028 3.2702 0
M  V30 2862 H 262.43 2.57785 4.8811 0
M  V30 2863 H 264.906 0.826241 4.07814 0
M  V30 2864 H 263.782 0.651086 5.45025 0
M  V30 2865 H 264.043 -0.704798 4.36446 0
M  V30 2866 N 263.102 -1.41638 0.69111 0
M  V30 2867 C 264.348 -2.01598 0.220519 0
M  V30 2868 C 264.681 -1.54594 -1.17535 0
M  V30 2869 O 263.956 -0.755177 -1.79241 0
M  V30 2870 C 264.239 -3.59062 0.273243 0
M  V30 2871 C 264.092 -4.16203 1.70573 0
M  V30 2872 C 265.411 -4.38546 -0.369457 0
M  V30 2873 H 262.53 -0.732468 0.0816045 0
M  V30 2874 H 265.172 -1.68445 0.878986 0
M  V30 2875 H 263.322 -3.87435 -0.287411 0
M  V30 2876 H 264.994 -3.98722 2.31989 0
M  V30 2877 H 263.237 -3.71414 2.2413 0
M  V30 2878 H 263.908 -5.25358 1.69419 0
M  V30 2879 H 266.384 -4.1596 0.107977 0
M  V30 2880 H 265.26 -5.48069 -0.302002 0
M  V30 2881 H 265.521 -4.17662 -1.44951 0
M  V30 2882 N 264.58 -0.43555 -1.51462 0
M  V30 2883 C 265.826 0.123979 -2.03022 0
M  V30 2884 C 266.181 1.4054 -1.31401 0
M  V30 2885 O 265.474 1.86948 -0.419634 0
M  V30 2886 C 265.668 0.39942 -3.55161 0
M  V30 2887 C 265.497 -0.853754 -4.41521 0
M  V30 2888 C 264.267 -1.38675 -4.85898 0
M  V30 2889 C 266.465 -1.73939 -4.83994 0
M  V30 2890 N 264.447 -2.59265 -5.56466 0
M  V30 2891 C 265.818 -2.79135 -5.5361 0
M  V30 2892 C 267.873 -1.75402 -4.65981 0
M  V30 2893 C 266.576 -3.85737 -6.07124 0
M  V30 2894 C 268.602 -2.80938 -5.20411 0
M  V30 2895 C 267.964 -3.84854 -5.89972 0
M  V30 2896 H 264.063 0.00624887 -0.781975 0
M  V30 2897 H 266.647 -0.59582 -1.85359 0
M  V30 2898 H 264.818 1.08825 -3.72843 0
M  V30 2899 H 266.55 0.95015 -3.93388 0
M  V30 2900 H 263.305 -0.94094 -4.64159 0
M  V30 2901 H 263.729 -3.2041 -5.96378 0
M  V30 2902 H 268.371 -0.963926 -4.11665 0
M  V30 2903 H 266.089 -4.65586 -6.60496 0
M  V30 2904 H 269.675 -2.8301 -5.08327 0
M  V30 2905 H 268.555 -4.65176 -6.31333 0
M  V30 2906 N 266.058 1.56714 -0.166846 0
M  V30 2907 C 266.988 2.20754 0.760913 0
M  V30 2908 C 267.969 1.16178 1.24244 0
M  V30 2909 O 269.154 1.44592 1.29641 0
M  V30 2910 C 266.284 2.84478 1.99223 0
M  V30 2911 C 265.238 3.95053 1.64672 0
M  V30 2912 C 264.564 4.45805 2.95232 0
M  V30 2913 C 265.864 5.14865 0.878155 0
M  V30 2914 H 267.558 2.98537 0.22713 0
M  V30 2915 H 265.104 1.43596 0.107805 0
M  V30 2916 H 267.057 3.27951 2.64624 0
M  V30 2917 H 265.781 2.04056 2.55007 0
M  V30 2918 H 264.44 3.52228 1.01641 0
M  V30 2919 H 264.088 3.62181 3.49047 0
M  V30 2920 H 263.788 5.204 2.7287 0
M  V30 2921 H 265.312 4.91962 3.6167 0
M  V30 2922 H 266.726 5.55059 1.43466 0
M  V30 2923 H 265.123 5.95348 0.753738 0
M  V30 2924 H 266.193 4.84735 -0.126377 0
M  V30 2925 N 267.536 -0.106894 1.57237 0
M  V30 2926 C 268.785 -0.811163 1.8467 0
M  V30 2927 C 269.098 -1.80469 0.754342 0
M  V30 2928 O 270.304 -2.55601 0.915439 0
M  V30 2929 C 268.76 -1.49337 3.27454 0
M  V30 2930 C 268.368 -0.540217 4.44731 0
M  V30 2931 C 270.112 -2.18206 3.64124 0
M  V30 2932 C 268.019 -1.22634 5.78545 0
M  V30 2933 H 266.949 -0.306679 0.688813 0
M  V30 2934 H 269.6 -0.0639887 1.83388 0
M  V30 2935 H 267.982 -2.2876 3.23241 0
M  V30 2936 H 269.156 0.221659 4.60267 0
M  V30 2937 H 267.471 0.042146 4.16379 0
M  V30 2938 H 270.068 -2.70253 4.61376 0
M  V30 2939 H 270.411 -2.96562 2.92158 0
M  V30 2940 H 270.944 -1.45658 3.70174 0
M  V30 2941 H 267.683 -0.483832 6.53712 0
M  V30 2942 H 267.203 -1.95993 5.66874 0
M  V30 2943 H 268.882 -1.75615 6.2271 0
M  V30 2944 N 269.014 -1.53014 -0.377408 0
M  V30 2945 C 270.239 -1.72818 -1.14668 0
M  V30 2946 C 270.664 -0.450725 -1.8262 0
M  V30 2947 O 270.022 0.59439 -1.7128 0
M  V30 2948 C 270.07 -2.88627 -2.16164 0
M  V30 2949 O 269.174 -2.56409 -3.22998 0
M  V30 2950 H 268.515 -0.574301 -0.333278 0
M  V30 2951 H 271.045 -1.99853 -0.438152 0
M  V30 2952 H 271.055 -3.14455 -2.59966 0
M  V30 2953 H 269.73 -3.81294 -1.66095 0
M  V30 2954 H 268.307 -2.4136 -2.84253 0
M  V30 2955 N 270.492 0.636531 -1.44174 0
M  V30 2956 C 271.741 1.39213 -1.45954 0
M  V30 2957 C 272.054 1.95374 -0.0939119 0
M  V30 2958 O 273.26 2.71498 0.0107767 0
M  V30 2959 C 271.716 2.52025 -2.56927 0
M  V30 2960 C 271.324 2.024 -3.99673 0
M  V30 2961 C 273.068 3.29269 -2.67922 0
M  V30 2962 C 270.975 3.12521 -5.0208 0
M  V30 2963 H 269.905 0.523132 -0.542999 0
M  V30 2964 H 272.556 0.685349 -1.70221 0
M  V30 2965 H 270.938 3.25253 -2.25891 0
M  V30 2966 H 272.112 1.36073 -4.40251 0
M  V30 2967 H 270.427 1.37987 -3.92872 0
M  V30 2968 H 273.024 4.11352 -3.41605 0
M  V30 2969 H 273.367 3.78397 -1.73555 0
M  V30 2970 H 273.9 2.63129 -2.98342 0
M  V30 2971 H 270.639 2.68343 -5.98057 0
M  V30 2972 H 270.159 3.77507 -4.66099 0
M  V30 2973 H 271.838 3.77385 -5.25538 0
M  V30 2974 N 271.97 1.30982 0.876444 0
M  V30 2975 C 273.218 1.20058 1.62575 0
M  V30 2976 C 273.539 -0.242947 1.93481 0
M  V30 2977 O 272.809 -1.1619 1.57724 0
M  V30 2978 H 271.389 0.44135 0.602677 0
M  V30 2979 H 274.051 1.64222 1.04962 0
M  V30 2980 H 273.147 1.76762 2.57219 0
M  V30 2981 N 273.449 -1.08991 1.13837 0
M  V30 2982 C 274.698 -1.80631 0.897509 0
M  V30 2983 C 275.011 -1.86872 -0.57777 0
M  V30 2984 O 276.217 -2.54866 -0.935701 0
M  V30 2985 C 274.673 -3.24517 1.55618 0
M  V30 2986 C 274.281 -3.26529 3.0673 0
M  V30 2987 C 276.025 -4.00882 1.3962 0
M  V30 2988 C 273.932 -4.64965 3.65461 0
M  V30 2989 H 272.862 -0.67691 0.332129 0
M  V30 2990 H 275.513 -1.2246 1.3666 0
M  V30 2991 H 273.895 -3.82778 1.01476 0
M  V30 2992 H 275.069 -2.78008 3.67489 0
M  V30 2993 H 273.384 -2.63656 3.22296 0
M  V30 2994 H 275.981 -5.03167 1.80906 0
M  V30 2995 H 276.324 -4.14896 0.341578 0
M  V30 2996 H 276.857 -3.49075 1.90766 0
M  V30 2997 H 273.596 -4.56153 4.70749 0
M  V30 2998 H 273.116 -5.13792 3.09481 0
M  V30 2999 H 274.795 -5.3394 3.654 0
M  V30 3000 N 274.927 -0.932562 -1.27047 0
M  V30 3001 C 275.89 -0.440064 -2.24936 0
M  V30 3002 C 276.89 0.444071 -1.54547 0
M  V30 3003 O 278.08 0.244465 -1.72476 0
M  V30 3004 C 275.212 0.36678 -3.38921 0
M  V30 3005 H 276.405 -1.305 -2.70018 0
M  V30 3006 H 273.958 -0.713707 -1.39054 0
M  V30 3007 H 274.693 1.25033 -2.99228 0
M  V30 3008 H 274.478 -0.267204 -3.91188 0
M  V30 3009 H 275.968 0.701567 -4.11665 0
M  V30 3010 N 276.405 1.4127 -0.698611 0
M  V30 3011 C 277.654 2.00408 -0.227949 0
M  V30 3012 C 277.967 1.55981 1.18023 0
M  V30 3013 O 279.173 2.07699 1.74852 0
M  V30 3014 C 277.629 3.58129 -0.356636 0
M  V30 3015 C 277.237 4.11536 -1.77037 0
M  V30 3016 C 278.981 4.24466 0.0540969 0
M  V30 3017 C 276.888 5.61701 -1.85055 0
M  V30 3018 H 275.818 0.749586 -0.0814657 0
M  V30 3019 H 278.469 1.61713 -0.867249 0
M  V30 3020 H 276.851 3.94442 0.350965 0
M  V30 3021 H 278.025 3.86636 -2.50698 0
M  V30 3022 H 276.34 3.57736 -2.13105 0
M  V30 3023 H 278.937 5.34698 0.0146723 0
M  V30 3024 H 279.28 4.01687 1.09332 0
M  V30 3025 H 279.813 3.93198 -0.603337 0
M  V30 3026 H 276.552 5.89312 -2.8704 0
M  V30 3027 H 276.072 5.88519 -1.15783 0
M  V30 3028 H 277.751 6.26524 -1.61484 0
M  V30 3029 N 277.883 0.443576 1.51229 0
M  V30 3030 C 279.294 -0.0180867 1.86691 0
M  V30 3031 C 279.645 -1.41384 1.36033 0
M  V30 3032 O 278.77 -2.04291 0.713722 0
M  V30 3033 C 279.365 -0.039597 3.38777 0
M  V30 3034 C 277.924 -0.445692 3.73752 0
M  V30 3035 C 277.071 0.357584 2.74985 0
M  V30 3036 H 280.022 0.659138 1.44364 0
M  V30 3037 H 280.043 -0.847761 3.70936 0
M  V30 3038 H 279.555 0.976382 3.75617 0
M  V30 3039 H 277.656 -1.46704 3.42503 0
M  V30 3040 H 277.769 -0.166155 4.78812 0
M  V30 3041 H 276.133 -0.184973 2.54027 0
M  V30 3042 H 276.916 1.37256 3.14668 0
M  V30 3043 N 279.361 -1.56624 0.175154 0
M  V30 3044 C 280.607 -1.9729 -0.469506 0
M  V30 3045 C 280.94 -1.06128 -1.62636 0
M  V30 3046 O 280.215 -0.109183 -1.94193 0
M  V30 3047 C 280.498 -3.47375 -0.948804 0
M  V30 3048 C 280.351 -4.49317 0.208491 0
M  V30 3049 C 281.67 -4.00652 -1.82116 0
M  V30 3050 H 278.789 -0.717317 -0.16919 0
M  V30 3051 H 281.431 -1.88184 0.262062 0
M  V30 3052 H 279.581 -3.55267 -1.57219 0
M  V30 3053 H 281.253 -4.53482 0.845682 0
M  V30 3054 H 279.496 -4.25121 0.863395 0
M  V30 3055 H 280.167 -5.51741 -0.169059 0
M  V30 3056 H 282.643 -3.95416 -1.2956 0
M  V30 3057 H 281.519 -5.06075 -2.12554 0
M  V30 3058 H 281.78 -3.44699 -2.7683 0
M  V30 3059 N 280.839 0.0985539 -1.57292 0
M  V30 3060 C 282.25 0.653457 -1.74891 0
M  V30 3061 C 282.601 1.7929 -0.796838 0
M  V30 3062 O 281.726 2.16385 0.0254886 0
M  V30 3063 C 282.321 1.19216 -3.17133 0
M  V30 3064 C 280.88 1.69316 -3.36168 0
M  V30 3065 C 280.027 0.601294 -2.70702 0
M  V30 3066 H 282.978 -0.127497 -1.58187 0
M  V30 3067 H 282.999 2.06154 -3.19814 0
M  V30 3068 H 282.511 0.362635 -3.86402 0
M  V30 3069 H 280.612 2.5468 -2.71972 0
M  V30 3070 H 280.725 1.78853 -4.44464 0
M  V30 3071 H 279.089 1.0399 -2.32504 0
M  V30 3072 H 279.872 -0.217592 -3.4261 0
M  V30 3073 N 282.317 1.53212 0.369288 0
M  V30 3074 C 283.566 1.68436 1.10961 0
M  V30 3075 C 283.879 0.440738 1.9057 0
M  V30 3076 O 285.085 0.473446 2.6734 0
M  V30 3077 C 283.541 2.97744 2.0218 0
M  V30 3078 C 283.149 4.29355 1.279 0
M  V30 3079 C 284.893 3.22334 2.76226 0
M  V30 3080 C 282.8 5.49755 2.17999 0
M  V30 3081 H 281.73 0.627568 0.41794 0
M  V30 3082 H 284.381 1.79713 0.370884 0
M  V30 3083 H 282.763 2.8026 2.79768 0
M  V30 3084 H 283.937 4.57458 0.554007 0
M  V30 3085 H 282.252 4.11179 0.657311 0
M  V30 3086 H 284.849 4.09471 3.43857 0
M  V30 3087 H 285.192 2.38238 3.41392 0
M  V30 3088 H 285.725 3.40475 2.05723 0
M  V30 3089 H 282.464 6.36318 1.57417 0
M  V30 3090 H 281.984 5.25937 2.88359 0
M  V30 3091 H 283.663 5.84401 2.77641 0
M  V30 3092 N 283.795 -0.628877 1.44509 0
M  V30 3093 C 284.742 -1.74074 1.51549 0
M  V30 3094 C 285.712 -1.62084 0.363021 0
M  V30 3095 O 286.897 -1.81975 0.573567 0
M  V30 3096 C 284.037 -3.12328 1.46784 0
M  V30 3097 C 283.15 -3.35277 2.72422 0
M  V30 3098 C 282.285 -4.63515 2.59475 0
M  V30 3099 C 281.324 -4.7965 3.80266 0
M  V30 3100 N 280.461 -5.99168 3.65981 0
M  V30 3101 H 285.301 -1.67392 2.46544 0
M  V30 3102 H 282.838 -0.816527 1.22357 0
M  V30 3103 H 284.796 -3.92286 1.42012 0
M  V30 3104 H 283.426 -3.18018 0.553544 0
M  V30 3105 H 282.478 -2.49242 2.87372 0
M  V30 3106 H 283.79 -3.43078 3.62076 0
M  V30 3107 H 282.944 -5.51638 2.52548 0
M  V30 3108 H 281.683 -4.58076 1.67384 0
M  V30 3109 H 280.688 -3.89957 3.87574 0
M  V30 3110 H 281.913 -4.86902 4.73395 0
M  V30 3111 H 279.859 -5.94814 2.76644 0
M  V30 3112 H 279.776 -6.08035 4.49254 0
M  V30 3113 H 281.044 -6.89846 3.6295 0
M  V30 3114 N 285.273 -1.31445 -0.869486 0
M  V30 3115 C 286.521 -1.20918 -1.61936 0
M  V30 3116 C 286.842 0.232683 -1.93607 0
M  V30 3117 O 286.112 1.15352 -1.58338 0
M  V30 3118 H 284.692 -0.44454 -0.600328 0
M  V30 3119 H 287.354 -1.64776 -1.0409 0
M  V30 3120 H 286.45 -1.78124 -2.56278 0
M  V30 3121 N 286.751 1.08385 -1.14413 0
M  V30 3122 C 288 1.80153 -0.907076 0
M  V30 3123 C 288.313 1.87176 0.567851 0
M  V30 3124 O 289.519 2.55359 0.922172 0
M  V30 3125 C 287.975 3.23687 -1.57336 0
M  V30 3126 C 287.583 3.24897 -3.08457 0
M  V30 3127 C 289.327 4.00136 -1.41744 0
M  V30 3128 C 287.234 4.6302 -3.67921 0
M  V30 3129 H 286.164 0.675139 -0.335714 0
M  V30 3130 H 288.815 1.21733 -1.37307 0
M  V30 3131 H 287.197 3.82234 -1.03505 0
M  V30 3132 H 288.371 2.76055 -3.68958 0
M  V30 3133 H 286.686 2.61943 -3.2369 0
M  V30 3134 H 289.283 5.02201 -1.83572 0
M  V30 3135 H 289.626 4.14709 -0.363576 0
M  V30 3136 H 290.159 3.48058 -1.92614 0
M  V30 3137 H 286.898 4.5365 -4.73161 0
M  V30 3138 H 286.418 5.12143 -3.12201 0
M  V30 3139 H 288.097 5.31994 -3.68227 0
M  V30 3140 N 288.23 0.939286 1.26551 0
M  V30 3141 C 289.14 0.453432 2.30176 0
M  V30 3142 C 290.156 -0.471649 1.67486 0
M  V30 3143 O 291.332 -0.35164 1.98306 0
M  V30 3144 C 288.397 -0.275326 3.45605 0
M  V30 3145 C 287.458 0.686084 4.23782 0
M  V30 3146 C 286.691 -0.00798994 5.33699 0
M  V30 3147 O 286.914 -1.22528 5.57085 0
M  V30 3148 O 285.848 0.669746 5.98162 0
M  V30 3149 H 289.674 1.31416 2.73795 0
M  V30 3150 H 287.259 0.705095 1.31715 0
M  V30 3151 H 289.141 -0.685911 4.1578 0
M  V30 3152 H 287.816 -1.11147 3.0402 0
M  V30 3153 H 286.723 1.14658 3.56096 0
M  V30 3154 H 288.056 1.48979 4.69112 0
M  V30 3155 N 289.708 -1.40897 0.706093 0
M  V30 3156 C 290.936 -2.05373 0.250887 0
M  V30 3157 C 291.351 -1.53172 -1.10381 0
M  V30 3158 O 290.708 -0.684305 -1.69185 0
M  V30 3159 C 290.759 -3.6088 0.211571 0
M  V30 3160 O 290.48 -4.11153 1.51276 0
M  V30 3161 C 291.981 -4.42517 -0.263346 0
M  V30 3162 H 289.201 -0.66115 0.114552 0
M  V30 3163 H 291.745 -1.80479 0.961635 0
M  V30 3164 H 289.9 -3.84777 -0.450073 0
M  V30 3165 H 290.314 -5.05279 1.40689 0
M  V30 3166 H 291.788 -5.51479 -0.239718 0
M  V30 3167 H 292.265 -4.19396 -1.30397 0
M  V30 3168 H 292.871 -4.23708 0.367677 0
M  V30 3169 N 291.186 -0.45159 -1.50991 0
M  V30 3170 C 292.463 0.170707 -1.94854 0
M  V30 3171 C 292.843 1.58788 -1.39103 0
M  V30 3172 O 292.191 2.20913 -0.583921 0
M  V30 3173 C 292.401 0.133929 -3.48743 0
M  V30 3174 C 293.749 0.33248 -4.23296 0
M  V30 3175 O 294.773 0.211403 -3.55572 0
M  V30 3176 O 293.632 0.57486 -5.43468 0
M  V30 3177 H 290.726 0.122264 -0.817912 0
M  V30 3178 H 293.272 -0.510594 -1.61836 0
M  V30 3179 H 292.044 -0.856283 -3.81816 0
M  V30 3180 H 291.667 0.857529 -3.88242 0
M  V30 3181 N 292.664 1.56529 -0.183458 0
M  V30 3182 C 293.91 1.97537 0.459036 0
M  V30 3183 C 294.243 1.06989 1.62071 0
M  V30 3184 O 293.518 0.11948 1.94133 0
M  V30 3185 C 293.801 3.47874 0.930368 0
M  V30 3186 C 293.654 4.492 -0.232317 0
M  V30 3187 C 294.973 4.01612 1.79989 0
M  V30 3188 H 292.092 0.718204 0.165383 0
M  V30 3189 H 294.734 1.88042 -0.272038 0
M  V30 3190 H 292.884 3.56095 1.55333 0
M  V30 3191 H 294.556 4.53027 -0.86972 0
M  V30 3192 H 292.799 4.24657 -0.885928 0
M  V30 3193 H 293.47 5.51823 0.139796 0
M  V30 3194 H 295.946 3.96097 1.27461 0
M  V30 3195 H 294.822 5.07195 2.09867 0
M  V30 3196 H 295.083 3.46163 2.74998 0
M  V30 3197 N 294.142 -0.090211 1.57342 0
M  V30 3198 C 295.419 -0.824761 1.77361 0
M  V30 3199 C 295.799 -1.96698 0.76637 0
M  V30 3200 O 295.147 -2.27586 -0.204179 0
M  V30 3201 C 295.357 -1.31481 3.23286 0
M  V30 3202 C 296.705 -1.75563 3.86604 0
M  V30 3203 O 297.729 -1.41093 3.27065 0
M  V30 3204 O 296.588 -2.39317 4.91314 0
M  V30 3205 H 293.682 -0.393776 0.727234 0
M  V30 3206 H 296.228 -0.0717138 1.69548 0
M  V30 3207 H 295 -0.496671 3.88135 0
M  V30 3208 H 294.623 -2.12973 3.35751 0
M  V30 3209 N 295.62 -1.53406 -0.361157 0
M  V30 3210 C 296.568 -1.80832 -1.46296 0
M  V30 3211 C 297.562 -0.677699 -1.55253 0
M  V30 3212 O 298.768 -0.860723 -1.58087 0
M  V30 3213 H 295.143 -0.572627 -0.487445 0
M  V30 3214 H 297.114 -2.73045 -1.20371 0
M  V30 3215 C 295.863 -2.01907 -2.8307 0
M  V30 3216 H 295.186 -2.88349 -2.76938 0
M  V30 3217 H 296.626 -2.25072 -3.59331 0
M  V30 3218 C 295.085 -0.799449 -3.27277 0
M  V30 3219 O 295.615 0.00971761 -4.01699 0
M  V30 3220 N 293.821 -0.621637 -2.83873 0
M  V30 3221 H 293.368 -1.28126 -2.23476 0
M  V30 3222 H 293.326 0.19298 -3.13807 0
M  V30 3223 N 297.098 0.621204 -1.44841 0
M  V30 3224 C 298.509 1.20298 -1.42777 0
M  V30 3225 C 298.86 1.95639 -0.148259 0
M  V30 3226 O 297.985 2.02955 0.750892 0
M  V30 3227 C 298.58 2.1882 -2.58657 0
M  V30 3228 C 297.139 2.72403 -2.59756 0
M  V30 3229 C 296.286 1.4757 -2.34773 0
M  V30 3230 H 299.237 0.411297 -1.53278 0
M  V30 3231 H 299.258 3.01607 -2.31977 0
M  V30 3232 H 298.77 1.63957 -3.51766 0
M  V30 3233 H 296.871 3.31242 -1.70615 0
M  V30 3234 H 296.984 3.17765 -3.58556 0
M  V30 3235 H 295.348 1.76051 -1.8406 0
M  V30 3236 H 296.131 0.945954 -3.3001 0
M  V30 3237 N 298.576 1.31904 0.862503 0
M  V30 3238 C 299.524 1.20125 1.9918 0
M  V30 3239 C 300.518 0.107824 1.69056 0
M  V30 3240 O 301.724 0.270223 1.7796 0
M  V30 3241 H 298.099 0.372148 0.65346 0
M  V30 3242 H 300.07 2.15652 2.06244 0
M  V30 3243 C 298.819 0.933099 3.34946 0
M  V30 3244 H 298.142 1.76664 3.5865 0
M  V30 3245 H 299.582 0.890892 4.14535 0
M  V30 3246 C 298.041 -0.364172 3.34926 0
M  V30 3247 O 298.571 -1.37858 3.77304 0
M  V30 3248 N 296.777 -0.383362 2.8806 0
M  V30 3249 H 296.324 0.442651 2.53768 0
M  V30 3250 H 296.282 -1.25123 2.8843 0
M  V30 3251 N 300.054 -1.07777 1.14986 0
M  V30 3252 C 301.002 -2.16964 0.838406 0
M  V30 3253 C 301.996 -1.68372 -0.186386 0
M  V30 3254 O 303.202 -1.79951 -0.0418465 0
M  V30 3255 H 299.577 -0.708006 0.253439 0
M  V30 3256 H 301.548 -2.40454 1.76704 0
M  V30 3257 C 300.297 -3.4604 0.339335 0
M  V30 3258 H 299.62 -3.83813 1.11927 0
M  V30 3259 H 301.06 -4.23698 0.160021 0
M  V30 3260 C 299.519 -3.23569 -0.938325 0
M  V30 3261 O 300.049 -3.47752 -2.01077 0
M  V30 3262 N 298.255 -2.77079 -0.876117 0
M  V30 3263 H 297.802 -2.576 -0.00322037 0
M  V30 3264 H 297.76 -2.62422 -1.73153 0
M  V30 3265 N 301.532 -0.945985 -1.26051 0
M  V30 3266 C 302.781 -0.591836 -1.92822 0
M  V30 3267 C 303.094 0.873956 -1.7499 0
M  V30 3268 O 304.3 1.33769 -2.36259 0
M  V30 3269 C 302.756 -1.00776 -3.45503 0
M  V30 3270 C 302.364 -2.4955 -3.7206 0
M  V30 3271 C 304.108 -0.725735 -4.1825 0
M  V30 3272 C 302.015 -2.84988 -5.18205 0
M  V30 3273 H 300.945 -0.217635 -0.721908 0
M  V30 3274 H 303.596 -1.14927 -1.43052 0
M  V30 3275 H 301.978 -0.378812 -3.94184 0
M  V30 3276 H 303.152 -3.1739 -3.34066 0
M  V30 3277 H 301.467 -2.75133 -3.12555 0
M  V30 3278 H 304.064 -0.966771 -5.25887 0
M  V30 3279 H 304.407 0.337639 -4.14929 0
M  V30 3280 H 304.94 -1.31463 -3.7545 0
M  V30 3281 H 301.679 -3.90307 -5.26631 0
M  V30 3282 H 301.199 -2.21813 -5.57278 0
M  V30 3283 H 302.878 -2.73712 -5.86252 0
M  V30 3284 N 303.011 1.40521 -0.713556 0
M  V30 3285 C 304.239 2.05237 -0.261775 0
M  V30 3286 C 304.654 1.53755 1.09567 0
M  V30 3287 O 304.011 0.693268 1.6882 0
M  V30 3288 C 304.062 3.60763 -0.230706 0
M  V30 3289 O 303.783 4.10345 -1.53455 0
M  V30 3290 C 305.284 4.42651 0.239874 0
M  V30 3291 H 302.504 0.660533 -0.118057 0
M  V30 3292 H 305.048 1.79967 -0.971192 0
M  V30 3293 H 303.203 3.8501 0.429661 0
M  V30 3294 H 303.617 5.04526 -1.43366 0
M  V30 3295 H 305.091 5.51599 0.210468 0
M  V30 3296 H 305.568 4.20082 1.28171 0
M  V30 3297 H 306.174 4.23507 -0.390142 0
M  V30 3298 N 304.489 0.459591 1.5075 0
M  V30 3299 C 305.729 -0.09824 2.04164 0
M  V30 3300 C 306.093 -1.3801 1.33481 0
M  V30 3301 O 307.294 -2.01959 1.77387 0
M  V30 3302 C 305.565 -0.289467 3.56226 0
M  V30 3303 S 307.124 -0.807507 4.31306 0
M  V30 3304 H 303.942 -0.0213845 0.710678 0
M  V30 3305 H 306.544 0.624098 1.85271 0
M  V30 3306 H 305.248 0.649461 4.05229 0
M  V30 3307 H 304.779 -1.03825 3.79452 0
M  V30 3308 H 306.794 -2.0824 4.50389 0
M  V30 3309 N 305.967 -1.56429 0.191757 0
M  V30 3310 C 307.213 -1.97777 -0.448554 0
M  V30 3311 C 307.546 -1.07847 -1.61501 0
M  V30 3312 O 306.821 -0.129774 -1.94067 0
M  V30 3313 C 307.104 -3.48362 -0.911906 0
M  V30 3314 C 306.957 -4.4907 0.256136 0
M  V30 3315 C 308.276 -4.02561 -1.77857 0
M  V30 3316 H 305.395 -0.719071 -0.161572 0
M  V30 3317 H 308.037 -1.87896 0.282007 0
M  V30 3318 H 306.187 -3.56914 -1.53442 0
M  V30 3319 H 307.859 -4.5256 0.893733 0
M  V30 3320 H 306.102 -4.24181 0.908436 0
M  V30 3321 H 306.773 -5.51889 -0.11053 0
M  V30 3322 H 309.249 -3.96767 -1.25359 0
M  V30 3323 H 308.125 -5.08301 -2.07174 0
M  V30 3324 H 308.386 -3.47616 -2.73158 0
M  V30 3325 N 307.445 0.0818655 -1.57387 0
M  V30 3326 C 308.375 1.09885 -2.06028 0
M  V30 3327 C 309.356 1.4098 -0.951774 0
M  V30 3328 O 310.541 1.50781 -1.22387 0
M  V30 3329 C 307.671 2.4151 -2.4958 0
M  V30 3330 C 306.625 2.24792 -3.64215 0
M  V30 3331 C 305.951 3.61712 -3.93787 0
M  V30 3332 C 307.251 1.67749 -4.94629 0
M  V30 3333 H 308.945 0.694128 -2.91243 0
M  V30 3334 H 306.491 0.332448 -1.4011 0
M  V30 3335 H 308.444 3.12939 -2.82219 0
M  V30 3336 H 307.168 2.83943 -1.61381 0
M  V30 3337 H 305.827 1.55807 -3.31843 0
M  V30 3338 H 305.475 4.01697 -3.02735 0
M  V30 3339 H 305.175 3.51368 -4.70971 0
M  V30 3340 H 306.699 4.34587 -4.28913 0
M  V30 3341 H 308.113 2.29032 -5.25564 0
M  V30 3342 H 306.51 1.68128 -5.76067 0
M  V30 3343 H 307.58 0.638059 -4.80684 0
M  V30 3344 N 308.923 1.53595 0.353017 0
M  V30 3345 C 310.151 1.74311 1.1146 0
M  V30 3346 C 310.566 0.477854 1.82653 0
M  V30 3347 O 309.923 -0.549977 1.74016 0
M  V30 3348 C 309.974 2.91694 2.13534 0
M  V30 3349 O 309.695 4.13325 1.45238 0
M  V30 3350 C 311.196 3.24384 3.02142 0
M  V30 3351 H 308.416 0.582669 0.332773 0
M  V30 3352 H 310.96 2.00386 0.408107 0
M  V30 3353 H 309.115 2.67977 2.79763 0
M  V30 3354 H 309.529 4.79148 2.13349 0
M  V30 3355 H 311.003 4.09893 3.69718 0
M  V30 3356 H 311.48 2.40282 3.67643 0
M  V30 3357 H 312.086 3.50073 2.41514 0
M  V30 3358 N 310.401 -0.613514 1.45168 0
M  V30 3359 C 311.348 -1.72456 1.53387 0
M  V30 3360 C 312.318 -1.6169 0.380191 0
M  V30 3361 O 313.503 -1.81356 0.592836 0
M  V30 3362 C 310.643 -3.10753 1.50088 0
M  V30 3363 C 309.756 -3.32368 2.75963 0
M  V30 3364 C 308.891 -4.60737 2.64376 0
M  V30 3365 C 307.93 -4.7559 3.85332 0
M  V30 3366 N 307.067 -5.95253 3.72315 0
M  V30 3367 H 311.907 -1.64768 2.48305 0
M  V30 3368 H 309.444 -0.803503 1.23216 0
M  V30 3369 H 311.402 -3.90758 1.46164 0
M  V30 3370 H 310.032 -3.17413 0.587243 0
M  V30 3371 H 309.084 -2.4618 2.89999 0
M  V30 3372 H 310.396 -3.39218 3.65695 0
M  V30 3373 H 309.55 -5.48928 2.58385 0
M  V30 3374 H 308.289 -4.56275 1.72233 0
M  V30 3375 H 307.294 -3.85824 3.91688 0
M  V30 3376 H 308.519 -4.81854 4.78533 0
M  V30 3377 H 306.465 -5.91847 2.82937 0
M  V30 3378 H 306.382 -6.03236 4.55677 0
M  V30 3379 H 307.65 -6.85958 3.70246 0
M  V30 3380 N 311.879 -1.3236 -0.855495 0
M  V30 3381 C 312.789 -1.23221 -1.99634 0
M  V30 3382 C 313.805 -0.145983 -1.73387 0
M  V30 3383 O 314.981 -0.366502 -1.98037 0
M  V30 3384 C 312.046 -0.954782 -3.33294 0
M  V30 3385 C 311.107 -2.12937 -3.72769 0
M  V30 3386 C 310.34 -1.86508 -5.00051 0
M  V30 3387 O 310.563 -0.807231 -5.64659 0
M  V30 3388 O 309.497 -2.72591 -5.36636 0
M  V30 3389 H 313.323 -2.19126 -2.1028 0
M  V30 3390 H 310.908 -1.12241 -0.986018 0
M  V30 3391 H 312.79 -0.816519 -4.13414 0
M  V30 3392 H 311.465 -0.0258854 -3.2369 0
M  V30 3393 H 310.372 -2.3231 -2.93228 0
M  V30 3394 H 311.705 -3.04102 -3.87018 0
M  V30 3395 N 313.357 1.07166 -1.15556 0
M  V30 3396 C 314.773 1.31899 -0.898603 0
M  V30 3397 C 314.973 1.96333 0.453383 0
M  V30 3398 O 314.029 2.22438 1.19489 0
M  V30 3399 C 315.342 2.20826 -2.04099 0
M  V30 3400 C 316.89 2.34269 -2.07574 0
M  V30 3401 C 317.365 3.26546 -3.21141 0
M  V30 3402 N 318.856 3.34127 -3.20801 0
M  V30 3403 C 319.591 4.05595 -4.05315 0
M  V30 3404 N 319.087 4.79661 -4.99897 0
M  V30 3405 N 320.88 4.01555 -3.93332 0
M  V30 3406 H 313.031 0.637302 -2.02613 0
M  V30 3407 H 315.294 0.343468 -0.883591 0
M  V30 3408 H 315 1.80744 -3.01703 0
M  V30 3409 H 314.874 3.21364 -1.97496 0
M  V30 3410 H 317.261 2.73603 -1.10568 0
M  V30 3411 H 317.342 1.33429 -2.18244 0
M  V30 3412 H 316.986 2.87931 -4.184 0
M  V30 3413 H 316.916 4.27345 -3.07708 0
M  V30 3414 H 319.407 2.81336 -2.52306 0
M  V30 3415 H 319.72 5.31694 -5.60822 0
M  V30 3416 H 318.065 4.78671 -5.03884 0
M  V30 3417 H 321.256 3.42806 -3.18751 0
M  V30 3418 H 321.429 4.56987 -4.5942 0
M  V30 3419 N 314.835 0.952656 1.25548 0
M  V30 3420 C 316.082 0.606373 1.93208 0
M  V30 3421 C 316.41 -0.85631 1.74636 0
M  V30 3422 O 315.665 -1.62951 1.08376 0
M  V30 3423 C 315.964 0.908818 3.45652 0
M  V30 3424 C 315.63 2.35722 3.84378 0
M  V30 3425 C 314.292 2.75312 3.9466 0
M  V30 3426 C 316.644 3.29793 4.03591 0
M  V30 3427 C 313.972 4.08047 4.21562 0
M  V30 3428 C 316.324 4.62138 4.31985 0
M  V30 3429 C 314.988 5.01528 4.40484 0
M  V30 3430 H 314.258 0.221888 0.706998 0
M  V30 3431 H 316.905 1.20132 1.49133 0
M  V30 3432 H 315.21 0.231456 3.91116 0
M  V30 3433 H 316.907 0.619498 3.96186 0
M  V30 3434 H 313.497 2.04017 3.76928 0
M  V30 3435 H 317.681 3.00397 3.95064 0
M  V30 3436 H 312.937 4.38212 4.26357 0
M  V30 3437 H 317.111 5.35012 4.45797 0
M  V30 3438 H 314.738 6.04406 4.61083 0
M  V30 3439 N 316.313 -1.40141 0.720998 0
M  V30 3440 C 317.561 -2.0039 0.262323 0
M  V30 3441 C 317.882 -1.57469 -1.15015 0
M  V30 3442 O 317.152 -0.816582 -1.78069 0
M  V30 3443 H 315.732 -0.741063 0.093996 0
M  V30 3444 H 318.394 -1.71398 0.927835 0
M  V30 3445 H 317.49 -3.10658 0.299671 0
M  V30 3446 N 317.792 -0.46758 -1.50504 0
M  V30 3447 C 319.069 0.15003 -1.95024 0
M  V30 3448 C 319.449 1.57304 -1.40779 0
M  V30 3449 O 318.797 2.20281 -0.607319 0
M  V30 3450 C 319.007 0.0969324 -3.48865 0
M  V30 3451 C 320.355 0.287565 -4.23625 0
M  V30 3452 O 321.379 0.173678 -3.55776 0
M  V30 3453 O 320.238 0.517186 -5.44047 0
M  V30 3454 H 317.332 0.113582 -0.819163 0
M  V30 3455 H 319.878 -0.52773 -1.61286 0
M  V30 3456 H 318.65 -0.896732 -3.80886 0
M  V30 3457 H 318.273 0.816303 -3.8913 0
M  V30 3458 N 319.27 1.56325 -0.20005 0
M  V30 3459 C 320.517 1.97719 0.437411 0
M  V30 3460 C 320.845 1.08709 1.61284 0
M  V30 3461 O 320.1 0.127261 1.95286 0
M  V30 3462 C 320.399 3.4495 0.935103 0
M  V30 3463 C 320.065 4.5072 -0.12749 0
M  V30 3464 C 318.727 4.79368 -0.419451 0
M  V30 3465 C 321.079 5.14268 -0.847231 0
M  V30 3466 C 318.407 5.68854 -1.43604 0
M  V30 3467 C 320.759 6.04852 -1.85301 0
M  V30 3468 C 319.423 6.31855 -2.15211 0
M  V30 3469 H 318.693 0.723507 0.16006 0
M  V30 3470 H 321.34 1.89166 -0.298056 0
M  V30 3471 H 319.645 3.50599 1.74894 0
M  V30 3472 H 321.342 3.74337 1.43781 0
M  V30 3473 H 317.932 4.28458 0.11023 0
M  V30 3474 H 322.116 4.92222 -0.634901 0
M  V30 3475 H 317.372 5.88047 -1.67364 0
M  V30 3476 H 321.546 6.53152 -2.41591 0
M  V30 3477 H 319.173 7.00994 -2.94129 0
M  V30 3478 N 320.748 -0.0735177 1.57428 0
M  V30 3479 C 321.681 -1.11932 1.98863 0
M  V30 3480 C 322.659 -1.37666 0.865266 0
M  V30 3481 O 323.843 -1.51068 1.12742 0
M  V30 3482 C 320.97 -2.46403 2.32386 0
M  V30 3483 C 320.016 -2.36815 3.54713 0
M  V30 3484 S 320.849 -1.76392 5.05614 0
M  V30 3485 C 322.005 -3.12444 5.42337 0
M  V30 3486 H 322.238 -0.766212 2.87257 0
M  V30 3487 H 319.771 -0.281987 1.51803 0
M  V30 3488 H 321.729 -3.23755 2.52375 0
M  V30 3489 H 320.39 -2.78876 1.44524 0
M  V30 3490 H 319.583 -3.35977 3.7568 0
M  V30 3491 H 319.185 -1.67598 3.34345 0
M  V30 3492 H 321.477 -4.08753 5.40303 0
M  V30 3493 H 322.42 -2.96258 6.43146 0
M  V30 3494 H 322.828 -3.1297 4.69798 0
M  V30 3495 N 322.226 -1.5378 -0.344866 0
M  V30 3496 C 323.156 -1.84662 -1.42906 0
M  V30 3497 C 324.137 -0.701648 -1.54955 0
M  V30 3498 O 325.322 -0.953438 -1.69184 0
M  V30 3499 C 322.452 -2.05503 -2.79974 0
M  V30 3500 C 321.406 -3.21318 -2.82734 0
M  V30 3501 C 320.732 -3.2749 -4.22675 0
M  V30 3502 C 322.032 -4.59456 -2.48389 0
M  V30 3503 H 323.726 -2.75461 -1.17311 0
M  V30 3504 H 321.272 -1.32542 -0.562896 0
M  V30 3505 H 323.225 -2.25691 -3.55867 0
M  V30 3506 H 321.949 -1.11434 -3.07002 0
M  V30 3507 H 320.608 -3.00984 -2.09294 0
M  V30 3508 H 320.256 -2.31019 -4.4681 0
M  V30 3509 H 319.956 -4.05316 -4.25433 0
M  V30 3510 H 321.48 -3.49887 -5.00412 0
M  V30 3511 H 322.894 -4.79667 -3.13995 0
M  V30 3512 H 321.291 -5.39675 -2.62432 0
M  V30 3513 H 322.361 -4.63155 -1.4358 0
M  V30 3514 N 323.704 0.605807 -1.45491 0
M  V30 3515 C 324.951 1.36476 -1.49601 0
M  V30 3516 C 325.279 1.94007 -0.138452 0
M  V30 3517 O 324.534 1.75638 0.863114 0
M  V30 3518 C 324.833 2.53012 -2.52428 0
M  V30 3519 C 324.499 2.13617 -3.97087 0
M  V30 3520 C 323.161 2.02587 -4.36477 0
M  V30 3521 C 325.513 1.82899 -4.88055 0
M  V30 3522 C 322.841 1.59064 -5.64726 0
M  V30 3523 C 325.193 1.40861 -6.16718 0
M  V30 3524 C 323.857 1.28391 -6.55036 0
M  V30 3525 H 323.127 0.499402 -0.547429 0
M  V30 3526 H 325.774 0.684546 -1.78847 0
M  V30 3527 H 324.079 3.26379 -2.16758 0
M  V30 3528 H 325.776 3.1124 -2.52845 0
M  V30 3529 H 322.366 2.23129 -3.65939 0
M  V30 3530 H 326.55 1.90317 -4.58359 0
M  V30 3531 H 321.806 1.48034 -5.93208 0
M  V30 3532 H 325.98 1.16138 -6.86648 0
M  V30 3533 H 323.607 0.944403 -7.54311 0
M  V30 3534 N 325.182 1.32811 0.848464 0
M  V30 3535 C 326.43 1.23479 1.59991 0
M  V30 3536 C 326.751 -0.201853 1.93952 0
M  V30 3537 O 326.021 -1.12818 1.60153 0
M  V30 3538 H 324.601 0.454034 0.593179 0
M  V30 3539 H 327.263 1.66412 1.01455 0
M  V30 3540 H 326.359 1.82178 2.53412 0
M  V30 3541 N 326.66 -1.06551 1.16123 0
M  V30 3542 C 327.885 -1.83544 0.965735 0
M  V30 3543 C 328.31 -1.81843 -0.481102 0
M  V30 3544 O 327.668 -1.21732 -1.34354 0
M  V30 3545 C 327.716 -3.28169 1.49457 0
M  V30 3546 O 326.82 -4.0643 0.699157 0
M  V30 3547 H 326.161 -0.568026 0.343864 0
M  V30 3548 H 328.691 -1.34362 1.54299 0
M  V30 3549 H 328.701 -3.78992 1.51092 0
M  V30 3550 H 327.376 -3.28722 2.54784 0
M  V30 3551 H 325.953 -3.65216 0.7531 0
M  V30 3552 N 328.138 -0.959301 -1.25041 0
M  V30 3553 C 329.068 -0.501388 -2.28053 0
M  V30 3554 C 330.049 0.454673 -1.63911 0
M  V30 3555 O 331.234 0.352618 -1.90972 0
M  V30 3556 C 328.364 0.217224 -3.4662 0
M  V30 3557 C 327.318 -0.654034 -4.22973 0
M  V30 3558 C 326.644 0.195589 -5.34342 0
M  V30 3559 C 327.944 -1.93447 -4.85155 0
M  V30 3560 H 329.638 -1.36238 -2.66608 0
M  V30 3561 H 327.184 -0.656534 -1.28163 0
M  V30 3562 H 329.137 0.548732 -4.17812 0
M  V30 3563 H 327.861 1.1125 -3.07068 0
M  V30 3564 H 326.52 -0.968693 -3.5357 0
M  V30 3565 H 326.168 1.09076 -4.91031 0
M  V30 3566 H 325.868 -0.384091 -5.86343 0
M  V30 3567 H 327.392 0.521958 -6.08365 0
M  V30 3568 H 328.806 -1.66908 -5.48466 0
M  V30 3569 H 327.203 -2.46018 -5.47353 0
M  V30 3570 H 328.273 -2.63466 -4.07079 0
M  V30 3571 N 329.616 1.39756 -0.72842 0
M  V30 3572 C 330.579 2.29012 -0.0927297 0
M  V30 3573 C 331.579 1.45992 0.674025 0
M  V30 3574 O 332.769 1.66749 0.50402 0
M  V30 3575 C 329.901 3.29396 0.878137 0
M  V30 3576 H 331.094 2.86729 -0.879011 0
M  V30 3577 H 328.647 1.48293 -0.493847 0
M  V30 3578 H 329.382 2.76722 1.69101 0
M  V30 3579 H 329.167 3.907 0.331051 0
M  V30 3580 H 330.657 3.96199 1.3197 0
M  V30 3581 N 331.094 0.475555 1.50254 0
M  V30 3582 C 332.057 -0.305016 2.27161 0
M  V30 3583 C 333.057 -0.916519 1.32123 0
M  V30 3584 O 334.247 -0.785003 1.5551 0
M  V30 3585 C 331.379 -1.43496 3.09227 0
M  V30 3586 H 332.572 0.369511 2.97615 0
M  V30 3587 H 330.125 0.229747 1.54602 0
M  V30 3588 H 330.86 -2.14441 2.43281 0
M  V30 3589 H 330.645 -1.00223 3.79075 0
M  V30 3590 H 332.135 -1.98548 3.67381 0
M  V30 3591 N 332.573 -1.56217 0.208337 0
M  V30 3592 C 333.82 -1.97949 -0.42692 0
M  V30 3593 C 334.148 -1.09562 -1.60706 0
M  V30 3594 O 333.403 -0.137616 -1.95216 0
M  V30 3595 C 333.702 -3.45441 -0.916797 0
M  V30 3596 C 333.368 -4.50646 0.151391 0
M  V30 3597 C 332.03 -4.79139 0.444867 0
M  V30 3598 C 334.382 -5.13811 0.874492 0
M  V30 3599 C 331.71 -5.68084 1.46619 0
M  V30 3600 C 334.062 -6.03861 1.88506 0
M  V30 3601 C 332.726 -6.30704 2.18559 0
M  V30 3602 H 331.996 -0.724345 -0.156221 0
M  V30 3603 H 334.643 -1.89006 0.308084 0
M  V30 3604 H 332.948 -3.51521 -1.73032 0
M  V30 3605 H 334.645 -3.75094 -1.41794 0
M  V30 3606 H 331.235 -4.28511 -0.0875068 0
M  V30 3607 H 335.419 -4.91879 0.660996 0
M  V30 3608 H 330.675 -5.87151 1.7048 0
M  V30 3609 H 334.849 -6.51861 2.45051 0
M  V30 3610 H 332.476 -6.99424 2.97843 0
M  V30 3611 N 334.051 0.0651679 -1.57465 0
M  V30 3612 C 335.298 0.763063 -1.87573 0
M  V30 3613 C 335.626 1.77242 -0.800961 0
M  V30 3614 O 334.881 1.94651 0.202316 0
M  V30 3615 C 335.18 1.50081 -3.24362 0
M  V30 3616 C 334.846 0.630816 -4.46466 0
M  V30 3617 C 333.508 0.391082 -4.79608 0
M  V30 3618 C 335.86 0.0279465 -5.21193 0
M  V30 3619 C 333.188 -0.460894 -5.84887 0
M  V30 3620 C 335.54 -0.811522 -6.27373 0
M  V30 3621 C 334.204 -1.06106 -6.59013 0
M  V30 3622 H 333.474 0.279224 -0.686378 0
M  V30 3623 H 336.121 0.0236726 -1.91485 0
M  V30 3624 H 334.426 2.31258 -3.16271 0
M  V30 3625 H 336.123 2.04571 -3.44894 0
M  V30 3626 H 332.713 0.8278 -4.2053 0
M  V30 3627 H 336.897 0.200262 -4.95896 0
M  V30 3628 H 332.153 -0.662907 -6.07796 0
M  V30 3629 H 336.327 -1.28537 -6.84435 0
M  V30 3630 H 333.954 -1.723 -7.40417 0
M  V30 3631 N 335.529 1.53961 0.336706 0
M  V30 3632 C 336.757 1.75483 1.09605 0
M  V30 3633 C 337.172 0.4972 1.82136 0
M  V30 3634 O 336.529 -0.53149 1.74589 0
M  V30 3635 C 336.58 2.93943 2.10428 0
M  V30 3636 O 336.301 4.14842 1.40846 0
M  V30 3637 C 337.802 3.27571 2.98684 0
M  V30 3638 H 335.022 0.586166 0.326574 0
M  V30 3639 H 337.566 2.00808 0.38683 0
M  V30 3640 H 335.721 2.70929 2.76905 0
M  V30 3641 H 336.135 4.81383 2.08255 0
M  V30 3642 H 337.609 4.13791 3.6535 0
M  V30 3643 H 338.086 2.44168 3.65074 0
M  V30 3644 H 338.692 3.52615 2.37787 0
M  V30 3645 N 337.007 -0.598083 1.45811 0
M  V30 3646 C 338.418 -1.18011 1.44673 0
M  V30 3647 C 338.769 -1.95378 0.179364 0
M  V30 3648 O 337.894 -2.04124 -0.718509 0
M  V30 3649 C 338.489 -2.14677 2.62105 0
M  V30 3650 C 337.048 -2.68236 2.64057 0
M  V30 3651 C 336.195 -1.43816 2.37091 0
M  V30 3652 H 339.146 -0.38686 1.53913 0
M  V30 3653 H 339.167 -2.97878 2.36746 0
M  V30 3654 H 338.679 -1.5834 3.5433 0
M  V30 3655 H 336.78 -3.28486 1.75864 0
M  V30 3656 H 336.893 -3.12021 3.63566 0
M  V30 3657 H 335.257 -1.731 1.86838 0
M  V30 3658 H 336.04 -0.893333 3.31473 0
M  V30 3659 N 338.485 -1.33259 -0.841409 0
M  V30 3660 C 339.415 -1.25926 -1.96634 0
M  V30 3661 C 340.396 -0.140349 -1.6952 0
M  V30 3662 O 341.581 -0.329707 -1.91381 0
M  V30 3663 C 338.711 -0.99512 -3.32738 0
M  V30 3664 C 337.665 -2.0767 -3.74242 0
M  V30 3665 C 336.991 -1.66474 -5.08125 0
M  V30 3666 C 338.291 -3.49318 -3.88297 0
M  V30 3667 H 339.985 -2.20046 -2.03027 0
M  V30 3668 H 337.531 -1.05931 -0.975425 0
M  V30 3669 H 339.484 -0.930323 -4.11002 0
M  V30 3670 H 338.208 -0.0183004 -3.26595 0
M  V30 3671 H 336.867 -2.13187 -2.98239 0
M  V30 3672 H 336.515 -0.675012 -4.9845 0
M  V30 3673 H 336.215 -2.3885 -5.36865 0
M  V30 3674 H 337.739 -1.61455 -5.88867 0
M  V30 3675 H 339.153 -3.46316 -4.56879 0
M  V30 3676 H 337.55 -4.20158 -4.28471 0
M  V30 3677 H 338.62 -3.8801 -2.9082 0
M  V30 3678 N 339.963 1.05934 -1.16686 0
M  V30 3679 C 340.926 2.11669 -0.879144 0
M  V30 3680 C 341.926 1.60294 0.127445 0
M  V30 3681 O 343.116 1.7389 -0.103865 0
M  V30 3682 C 340.248 3.39438 -0.315425 0
M  V30 3683 H 341.441 2.38626 -1.81653 0
M  V30 3684 H 338.994 1.22058 -0.976299 0
M  V30 3685 H 339.729 3.18132 0.629468 0
M  V30 3686 H 339.514 3.78034 -1.04079 0
M  V30 3687 H 341.004 4.17391 -0.132189 0
M  V30 3688 N 341.441 0.965919 1.2453 0
M  V30 3689 C 342.69 0.622437 1.91856 0
M  V30 3690 C 343.003 -0.846006 1.76358 0
M  V30 3691 O 344.209 -1.29993 2.38357 0
M  V30 3692 C 342.665 1.0626 3.43856 0
M  V30 3693 C 342.273 2.55437 3.68043 0
M  V30 3694 C 344.017 0.792183 4.17043 0
M  V30 3695 C 341.924 2.93196 5.13605 0
M  V30 3696 H 340.854 0.229092 0.718354 0
M  V30 3697 H 343.505 1.17189 1.41206 0
M  V30 3698 H 341.887 0.441476 3.93531 0
M  V30 3699 H 343.061 3.22665 3.28974 0
M  V30 3700 H 341.376 2.8007 3.08139 0
M  V30 3701 H 343.973 1.05031 5.24283 0
M  V30 3702 H 344.316 -0.271584 4.15413 0
M  V30 3703 H 344.849 1.37419 3.73311 0
M  V30 3704 H 341.588 3.98636 5.20355 0
M  V30 3705 H 341.108 2.30651 5.53679 0
M  V30 3706 H 342.787 2.83004 5.81823 0
M  V30 3707 N 342.919 -1.39368 0.735821 0
M  V30 3708 C 343.852 -2.28155 0.0451175 0
M  V30 3709 C 344.83 -1.44433 -0.746852 0
M  V30 3710 O 346.014 -1.73823 -0.729237 0
M  V30 3711 C 343.141 -3.253 -0.943266 0
M  V30 3712 C 342.187 -4.25826 -0.239685 0
M  V30 3713 S 343.02 -5.25166 1.04693 0
M  V30 3714 C 344.176 -6.2587 0.0611639 0
M  V30 3715 H 344.409 -2.86388 0.79807 0
M  V30 3716 H 341.942 -1.45104 0.527653 0
M  V30 3717 H 343.9 -3.81789 -1.50824 0
M  V30 3718 H 342.561 -2.66085 -1.66906 0
M  V30 3719 H 341.754 -4.94229 -0.987596 0
M  V30 3720 H 341.356 -3.73141 0.253274 0
M  V30 3721 H 343.648 -6.73007 -0.778941 0
M  V30 3722 H 344.591 -7.04508 0.712362 0
M  V30 3723 H 344.999 -5.63639 -0.311602 0
M  V30 3724 N 344.397 -0.483516 -1.5 0
M  V30 3725 C 345.646 0.0689102 -2.01582 0
M  V30 3726 C 345.959 1.39655 -1.36952 0
M  V30 3727 O 347.165 2.03465 -1.79762 0
M  V30 3728 C 345.621 0.173302 -3.59483 0
M  V30 3729 C 345.229 -1.14665 -4.33077 0
M  V30 3730 C 346.973 0.677024 -4.19066 0
M  V30 3731 C 344.88 -1.00537 -5.82792 0
M  V30 3732 H 343.81 0.0295277 -0.753422 0
M  V30 3733 H 346.461 -0.620295 -1.72698 0
M  V30 3734 H 344.843 0.926569 -3.85007 0
M  V30 3735 H 346.017 -1.91184 -4.19268 0
M  V30 3736 H 344.332 -1.58244 -3.85159 0
M  V30 3737 H 346.929 0.799952 -5.28682 0
M  V30 3738 H 347.272 1.67151 -3.81269 0
M  V30 3739 H 347.805 -0.0192083 -3.97795 0
M  V30 3740 H 344.544 -1.9736 -6.25083 0
M  V30 3741 H 344.064 -0.280776 -5.99142 0
M  V30 3742 H 345.743 -0.677 -6.43448 0
M  V30 3743 N 345.875 1.56104 -0.216619 0
M  V30 3744 C 347.121 1.98466 0.417033 0
M  V30 3745 C 347.454 1.10403 1.59765 0
M  V30 3746 O 346.729 0.160632 1.93836 0
M  V30 3747 C 347.012 3.49769 0.85637 0
M  V30 3748 C 346.865 4.48606 -0.327546 0
M  V30 3749 C 348.184 4.05339 1.7143 0
M  V30 3750 H 345.303 0.721551 0.150112 0
M  V30 3751 H 347.945 1.87423 -0.311864 0
M  V30 3752 H 346.095 3.5931 1.47745 0
M  V30 3753 H 347.767 4.5108 -0.965618 0
M  V30 3754 H 346.01 4.22682 -0.975805 0
M  V30 3755 H 346.681 5.51995 0.0227149 0
M  V30 3756 H 349.157 3.98712 1.19031 0
M  V30 3757 H 348.033 5.11533 1.99061 0
M  V30 3758 H 348.294 3.51918 2.67593 0
M  V30 3759 N 347.353 -0.0568162 1.57498 0
M  V30 3760 C 348.581 -0.765626 1.92213 0
M  V30 3761 C 348.996 -1.70353 0.813961 0
M  V30 3762 O 348.353 -1.81268 -0.211701 0
M  V30 3763 C 348.404 -1.5465 3.2675 0
M  V30 3764 O 348.125 -0.646278 4.33307 0
M  V30 3765 C 349.626 -2.35497 3.75574 0
M  V30 3766 H 346.846 -0.216835 0.634999 0
M  V30 3767 H 349.39 -0.0226146 2.04487 0
M  V30 3768 H 347.545 -2.24165 3.15957 0
M  V30 3769 H 347.959 -1.19093 5.108 0
M  V30 3770 H 349.433 -2.85722 4.72299 0
M  V30 3771 H 349.91 -3.15692 3.05344 0
M  V30 3772 H 350.516 -1.7111 3.8936 0
M  V30 3773 N 348.832 -1.54138 -0.328536 0
M  V30 3774 C 350.062 -1.75807 -1.08516 0
M  V30 3775 C 350.47 -0.50428 -1.82356 0
M  V30 3776 O 349.813 0.534451 -1.75754 0
M  V30 3777 C 349.875 -2.89423 -2.13248 0
M  V30 3778 C 349.539 -4.28504 -1.5885 0
M  V30 3779 C 350.536 -5.09536 -1.03289 0
M  V30 3780 C 348.221 -4.75034 -1.63243 0
M  V30 3781 C 350.215 -6.35206 -0.52845 0
M  V30 3782 C 347.902 -6.00672 -1.12411 0
M  V30 3783 C 348.9 -6.80592 -0.573062 0
M  V30 3784 O 348.588 -8.03867 -0.0723692 0
M  V30 3785 H 348.32 -0.590633 -0.328829 0
M  V30 3786 H 350.874 -2.01819 -0.381868 0
M  V30 3787 H 349.104 -2.5897 -2.87178 0
M  V30 3788 H 350.793 -2.98921 -2.74592 0
M  V30 3789 H 351.559 -4.74745 -0.99206 0
M  V30 3790 H 347.438 -4.12875 -2.05074 0
M  V30 3791 H 350.982 -6.97532 -0.0976774 0
M  V30 3792 H 346.879 -6.34955 -1.162 0
M  V30 3793 H 347.647 -8.18283 -0.188258 0
M  V30 3794 N 350.31 0.590341 -1.46126 0
M  V30 3795 C 351.557 1.34882 -1.5104 0
M  V30 3796 C 351.885 1.93849 -0.159021 0
M  V30 3797 O 351.14 1.76544 0.844436 0
M  V30 3798 C 351.439 2.5032 -2.55097 0
M  V30 3799 C 351.105 2.09394 -3.99331 0
M  V30 3800 C 349.767 1.97947 -4.38601 0
M  V30 3801 C 352.119 1.77712 -4.89967 0
M  V30 3802 C 349.447 1.53065 -5.66381 0
M  V30 3803 C 351.799 1.34312 -6.18177 0
M  V30 3804 C 350.463 1.21436 -6.56361 0
M  V30 3805 H 349.733 0.493568 -0.552695 0
M  V30 3806 H 352.38 0.665539 -1.79563 0
M  V30 3807 H 350.685 3.24062 -2.20207 0
M  V30 3808 H 352.382 3.08541 -2.56132 0
M  V30 3809 H 348.972 2.19235 -3.68285 0
M  V30 3810 H 353.156 1.85445 -4.60352 0
M  V30 3811 H 348.412 1.41733 -5.94745 0
M  V30 3812 H 352.586 1.08849 -6.87841 0
M  V30 3813 H 350.213 0.864345 -7.5527 0
M  V30 3814 N 351.788 1.33704 0.83433 0
M  V30 3815 C 352.718 1.26967 1.95963 0
M  V30 3816 C 353.699 0.149337 1.69443 0
M  V30 3817 O 354.884 0.339852 1.91203 0
M  V30 3818 C 352.014 1.01275 3.32206 0
M  V30 3819 C 350.968 2.09652 3.73136 0
M  V30 3820 C 350.294 1.69166 5.07235 0
M  V30 3821 C 351.594 3.51372 3.86439 0
M  V30 3822 H 353.288 2.2112 2.01857 0
M  V30 3823 H 350.834 1.06447 0.969793 0
M  V30 3824 H 352.787 0.952106 4.10503 0
M  V30 3825 H 351.511 0.0356203 3.26581 0
M  V30 3826 H 350.17 2.14766 2.97104 0
M  V30 3827 H 349.818 0.701437 4.98085 0
M  V30 3828 H 349.518 2.41694 5.35591 0
M  V30 3829 H 351.042 1.64576 5.88003 0
M  V30 3830 H 352.456 3.48734 4.55036 0
M  V30 3831 H 350.853 4.22425 4.26236 0
M  V30 3832 H 351.923 3.89546 2.88759 0
M  V30 3833 N 353.266 -1.05314 1.17247 0
M  V30 3834 C 354.494 -1.81971 0.984593 0
M  V30 3835 C 354.909 -1.82929 -0.467166 0
M  V30 3836 O 354.266 -1.25564 -1.32438 0
M  V30 3837 C 354.317 -3.28143 1.51672 0
M  V30 3838 O 354.038 -3.27347 2.91163 0
M  V30 3839 C 355.539 -4.21493 1.37326 0
M  V30 3840 H 352.759 -0.573455 0.348411 0
M  V30 3841 H 355.303 -1.32808 1.55506 0
M  V30 3842 H 353.458 -3.74582 0.988302 0
M  V30 3843 H 353.872 -4.18824 3.15732 0
M  V30 3844 H 355.346 -5.22043 1.79375 0
M  V30 3845 H 355.823 -4.38031 0.320169 0
M  V30 3846 H 356.429 -3.80909 1.89178 0
M  V30 3847 N 354.744 -0.972509 -1.24016 0
M  V30 3848 C 355.993 -0.632603 -1.91523 0
M  V30 3849 C 356.306 0.836641 -1.76804 0
M  V30 3850 O 357.512 1.28728 -2.39043 0
M  V30 3851 C 355.968 -1.08082 -3.43287 0
M  V30 3852 C 355.576 -2.57386 -3.66683 0
M  V30 3853 C 357.32 -0.814288 -4.16617 0
M  V30 3854 C 355.227 -2.95915 -5.12043 0
M  V30 3855 H 354.157 -0.232898 -0.717129 0
M  V30 3856 H 356.808 -1.17936 -1.40582 0
M  V30 3857 H 355.19 -0.462339 -3.93292 0
M  V30 3858 H 356.364 -3.24405 -3.27258 0
M  V30 3859 H 354.679 -2.81701 -3.06649 0
M  V30 3860 H 357.276 -1.0781 -5.23718 0
M  V30 3861 H 357.619 0.24955 -4.15551 0
M  V30 3862 H 358.152 -1.39397 -3.72577 0
M  V30 3863 H 354.891 -4.0139 -5.18234 0
M  V30 3864 H 354.411 -2.33584 -5.52448 0
M  V30 3865 H 356.09 -2.86086 -5.80314 0
M  V30 3866 N 356.222 1.38976 -0.743202 0
M  V30 3867 C 357.172 2.27843 -0.084513 0
M  V30 3868 C 358.156 1.44677 0.704094 0
M  V30 3869 O 359.348 1.67511 0.571755 0
M  V30 3870 C 356.477 3.33466 0.815781 0
M  V30 3871 C 355.563 4.24095 0.0208844 0
M  V30 3872 N 355.954 4.95609 -1.0102 0
M  V30 3873 C 354.252 4.45303 0.249293 0
M  V30 3874 C 354.953 5.62287 -1.49024 0
M  V30 3875 N 353.929 5.37571 -0.807377 0
M  V30 3876 H 357.731 2.80593 -0.87436 0
M  V30 3877 H 355.245 1.51755 -0.578283 0
M  V30 3878 H 357.242 3.96008 1.30321 0
M  V30 3879 H 355.902 2.82276 1.6047 0
M  V30 3880 H 356.913 4.98849 -1.39176 0
M  V30 3881 H 353.59 4.0504 1.01237 0
M  V30 3882 H 354.98 6.29519 -2.34853 0
M  V30 3883 N 357.7 0.491464 1.49741 0
M  V30 3884 C 358.663 -0.280906 2.27472 0
M  V30 3885 C 359.663 -0.902454 1.33088 0
M  V30 3886 O 360.853 -0.768465 1.56334 0
M  V30 3887 C 357.985 -1.40209 3.10732 0
M  V30 3888 H 359.178 0.401056 2.97206 0
M  V30 3889 H 356.731 0.246131 1.5435 0
M  V30 3890 H 357.466 -2.11849 2.45541 0
M  V30 3891 H 357.251 -0.961969 3.80117 0
M  V30 3892 H 358.741 -1.9464 3.69466 0
M  V30 3893 N 359.178 -1.55987 0.224894 0
M  V30 3894 C 360.108 -2.23426 -0.678457 0
M  V30 3895 C 361.089 -1.20709 -1.19847 0
M  V30 3896 O 362.274 -1.49304 -1.24186 0
M  V30 3897 C 359.404 -2.91676 -1.88527 0
M  V30 3898 C 358.358 -4.00893 -1.49896 0
M  V30 3899 C 357.684 -4.56455 -2.78483 0
M  V30 3900 C 358.984 -5.17769 -0.686461 0
M  V30 3901 H 360.678 -2.99175 -0.116173 0
M  V30 3902 H 358.224 -1.43897 -0.054436 0
M  V30 3903 H 360.177 -3.37547 -2.5227 0
M  V30 3904 H 358.901 -2.1338 -2.47258 0
M  V30 3905 H 357.56 -3.55758 -0.884985 0
M  V30 3906 H 357.208 -3.74886 -3.35365 0
M  V30 3907 H 356.908 -5.30169 -2.53368 0
M  V30 3908 H 358.432 -5.05047 -3.43162 0
M  V30 3909 H 359.846 -5.60001 -1.22767 0
M  V30 3910 H 358.243 -5.97735 -0.532259 0
M  V30 3911 H 359.313 -4.83932 0.306196 0
M  V30 3912 N 360.656 0.0484629 -1.57525 0
M  V30 3913 C 361.588 1.08222 -2.02041 0
M  V30 3914 C 362.601 1.33621 -0.930012 0
M  V30 3915 O 363.79 1.3145 -1.20761 0
M  V30 3916 C 360.89 2.42818 -2.36416 0
M  V30 3917 C 360.063 2.37049 -3.67596 0
M  V30 3918 C 359.122 3.53937 -3.89378 0
M  V30 3919 O 358.148 3.34308 -4.60681 0
M  V30 3920 N 359.35 4.75126 -3.3352 0
M  V30 3921 H 362.115 0.702946 -2.9134 0
M  V30 3922 H 359.676 0.236745 -1.6016 0
M  V30 3923 H 361.668 3.197 -2.48141 0
M  V30 3924 H 360.238 2.72661 -1.52888 0
M  V30 3925 H 359.458 1.45395 -3.66407 0
M  V30 3926 H 360.746 2.30318 -4.53686 0
M  V30 3927 H 360.144 4.93976 -2.75688 0
M  V30 3928 H 358.701 5.49439 -3.50656 0
M  V30 3929 N 362.134 1.5431 0.320358 0
M  V30 3930 C 363.081 1.83918 1.39438 0
M  V30 3931 C 364.051 0.686525 1.51248 0
M  V30 3932 O 365.236 0.933269 1.66417 0
M  V30 3933 C 362.376 2.075 2.75749 0
M  V30 3934 C 361.489 3.35177 2.72544 0
M  V30 3935 C 360.624 3.48704 4.00723 0
M  V30 3936 C 359.663 4.70244 3.91838 0
M  V30 3937 N 358.8 4.80679 5.11754 0
M  V30 3938 H 363.64 2.75544 1.13489 0
M  V30 3939 H 361.177 1.36459 0.549309 0
M  V30 3940 H 363.135 2.19166 3.54996 0
M  V30 3941 H 361.765 1.19163 3 0
M  V30 3942 H 360.817 3.32233 1.85271 0
M  V30 3943 H 362.129 4.24534 2.61863 0
M  V30 3944 H 361.283 3.59928 4.88402 0
M  V30 3945 H 360.022 2.57445 4.14214 0
M  V30 3946 H 359.027 4.59072 3.02544 0
M  V30 3947 H 360.252 5.6289 3.7991 0
M  V30 3948 H 358.198 3.92337 5.25745 0
M  V30 3949 H 358.115 5.64007 5.0342 0
M  V30 3950 H 359.383 4.96239 6.01138 0
M  V30 3951 N 363.613 -0.582584 1.46437 0
M  V30 3952 C 364.56 -1.69164 1.5701 0
M  V30 3953 C 365.53 -1.60847 0.414403 0
M  V30 3954 O 366.715 -1.80058 0.631171 0
M  V30 3955 C 363.855 -3.075 1.56646 0
M  V30 3956 C 362.968 -3.2644 2.82951 0
M  V30 3957 C 362.103 -4.55026 2.7409 0
M  V30 3958 C 361.142 -4.6731 3.95333 0
M  V30 3959 N 360.279 -5.87221 3.84858 0
M  V30 3960 H 365.119 -1.59464 2.51744 0
M  V30 3961 H 362.656 -0.777186 1.24893 0
M  V30 3962 H 364.614 -3.8757 1.5442 0
M  V30 3963 H 363.244 -3.16096 0.654439 0
M  V30 3964 H 362.296 -2.39974 2.95155 0
M  V30 3965 H 363.608 -3.31385 3.72808 0
M  V30 3966 H 362.762 -5.43324 2.6997 0
M  V30 3967 H 361.501 -4.52519 1.81873 0
M  V30 3968 H 360.506 -3.77429 3.99784 0
M  V30 3969 H 361.731 -4.71595 4.88646 0
M  V30 3970 H 359.677 -5.85712 2.95427 0
M  V30 3971 H 359.594 -5.93435 4.6837 0
M  V30 3972 H 360.862 -6.7795 3.84713 0
M  V30 3973 N 365.091 -1.34144 -0.827227 0
M  V30 3974 C 366.054 -1.25264 -1.91942 0
M  V30 3975 C 367.054 -0.168866 -1.59911 0
M  V30 3976 O 368.244 -0.421198 -1.69031 0
M  V30 3977 C 365.376 -0.932952 -3.27885 0
M  V30 3978 H 366.569 -2.22357 -2.0124 0
M  V30 3979 H 364.122 -1.1837 -1.0207 0
M  V30 3980 H 364.857 0.0349917 -3.24281 0
M  V30 3981 H 364.642 -1.71682 -3.52516 0
M  V30 3982 H 366.132 -0.895874 -4.07877 0
M  V30 3983 N 366.569 1.04691 -1.17803 0
M  V30 3984 C 367.799 1.81183 -0.992788 0
M  V30 3985 C 368.207 1.8347 0.462098 0
M  V30 3986 O 367.55 1.2643 1.33271 0
M  V30 3987 C 367.612 3.28363 -1.46349 0
M  V30 3988 C 367.276 3.49749 -2.94151 0
M  V30 3989 C 368.273 3.41456 -3.92051 0
M  V30 3990 C 365.958 3.76548 -3.32441 0
M  V30 3991 C 367.952 3.59656 -5.26238 0
M  V30 3992 C 365.639 3.94396 -4.66792 0
M  V30 3993 C 366.637 3.8595 -5.635 0
M  V30 3994 O 366.325 4.03294 -6.9542 0
M  V30 3995 H 366.057 0.577622 -0.351182 0
M  V30 3996 H 368.611 1.32876 -1.5663 0
M  V30 3997 H 366.841 3.77609 -0.833574 0
M  V30 3998 H 368.53 3.86395 -1.24313 0
M  V30 3999 H 369.296 3.20723 -3.63815 0
M  V30 4000 H 365.175 3.82224 -2.57732 0
M  V30 4001 H 368.719 3.52979 -6.01707 0
M  V30 4002 H 364.616 4.14622 -4.94731 0
M  V30 4003 H 365.384 4.2049 -7.02232 0
M  V30 4004 N 368.047 0.979072 1.23499 0
M  V30 4005 C 368.977 0.537606 2.27227 0
M  V30 4006 C 369.958 -0.428539 1.64613 0
M  V30 4007 O 371.143 -0.322191 1.91509 0
M  V30 4008 C 368.273 -0.162052 3.46922 0
M  V30 4009 C 367.227 0.721242 4.21879 0
M  V30 4010 C 366.553 -0.110555 5.34586 0
M  V30 4011 C 367.853 2.01141 4.82016 0
M  V30 4012 H 369.547 1.40462 2.64406 0
M  V30 4013 H 367.093 0.67684 1.27102 0
M  V30 4014 H 369.046 -0.482192 4.18632 0
M  V30 4015 H 367.77 -1.06351 3.08799 0
M  V30 4016 H 366.429 1.02482 3.51984 0
M  V30 4017 H 366.077 -1.0125 4.92704 0
M  V30 4018 H 365.777 0.477325 5.85658 0
M  V30 4019 H 367.301 -0.425107 6.09118 0
M  V30 4020 H 368.715 1.75612 5.45741 0
M  V30 4021 H 367.112 2.54695 5.43369 0
M  V30 4022 H 368.182 2.69909 4.02836 0
M  V30 4023 N 369.525 -1.3858 0.750561 0
M  V30 4024 C 370.771 -2.00481 0.305825 0
M  V30 4025 C 371.104 -1.5944 -1.10872 0
M  V30 4026 O 370.379 -0.83052 -1.75877 0
M  V30 4027 C 370.662 -3.5758 0.425287 0
M  V30 4028 C 370.515 -4.08594 1.88072 0
M  V30 4029 C 371.834 -4.39719 -0.183122 0
M  V30 4030 H 368.953 -0.728348 0.112598 0
M  V30 4031 H 371.595 -1.64566 0.949638 0
M  V30 4032 H 369.745 -3.88306 -0.122828 0
M  V30 4033 H 371.417 -3.88523 2.48691 0
M  V30 4034 H 369.66 -3.61574 2.39681 0
M  V30 4035 H 370.331 -5.177 1.91548 0
M  V30 4036 H 372.807 -4.15128 0.284303 0
M  V30 4037 H 371.683 -5.48856 -0.0692757 0
M  V30 4038 H 371.944 -4.23434 -1.27106 0
M  V30 4039 N 371.003 -0.499398 -1.49478 0
M  V30 4040 C 371.95 0.279881 -2.29097 0
M  V30 4041 C 372.92 0.961805 -1.3542 0
M  V30 4042 O 374.105 0.968777 -1.64376 0
M  V30 4043 C 371.245 1.33932 -3.18051 0
M  V30 4044 C 370.358 0.669333 -4.26783 0
M  V30 4045 C 369.493 1.70907 -5.02955 0
M  V30 4046 C 368.532 1.02087 -6.03527 0
M  V30 4047 N 367.669 2.00474 -6.7287 0
M  V30 4048 H 372.509 -0.405317 -2.95231 0
M  V30 4049 H 370.046 -0.211726 -1.45568 0
M  V30 4050 H 372.004 1.96553 -3.67998 0
M  V30 4051 H 370.634 1.9933 -2.53904 0
M  V30 4052 H 369.686 -0.0701234 -3.80335 0
M  V30 4053 H 370.998 0.127503 -4.98637 0
M  V30 4054 H 370.152 2.41037 -5.56764 0
M  V30 4055 H 368.891 2.28476 -4.30871 0
M  V30 4056 H 367.896 0.305338 -5.48951 0
M  V30 4057 H 369.121 0.451708 -6.77596 0
M  V30 4058 H 367.067 2.57007 -6.03559 0
M  V30 4059 H 366.984 1.51353 -7.40694 0
M  V30 4060 H 368.252 2.69897 -7.31284 0
M  V30 4061 N 372.481 1.55866 -0.233164 0
M  V30 4062 C 373.429 2.22176 0.68851 0
M  V30 4063 C 374.423 1.20487 1.19076 0
M  V30 4064 O 375.629 1.38536 1.14925 0
M  V30 4065 H 372.004 0.712511 0.240483 0
M  V30 4066 H 373.975 2.98212 0.105935 0
M  V30 4067 C 372.724 2.92446 1.88071 0
M  V30 4068 H 372.047 3.70458 1.50337 0
M  V30 4069 H 373.487 3.42226 2.50314 0
M  V30 4070 C 371.946 1.95555 2.74335 0
M  V30 4071 O 372.476 1.47986 3.73447 0
M  V30 4072 N 370.682 1.62953 2.40613 0
M  V30 4073 H 370.229 2.01831 1.60069 0
M  V30 4074 H 370.187 0.983886 2.98609 0
M  V30 4075 N 373.959 -0.0401083 1.57549 0
M  V30 4076 C 374.906 -1.04413 2.05831 0
M  V30 4077 C 375.876 -1.36585 0.945184 0
M  V30 4078 O 377.061 -1.47112 1.21502 0
M  V30 4079 C 374.201 -2.34336 2.53339 0
M  V30 4080 C 373.314 -2.08419 3.78398 0
M  V30 4081 C 372.449 -3.32133 4.14561 0
M  V30 4082 C 371.488 -3.01721 5.3257 0
M  V30 4083 N 370.625 -4.17855 5.64218 0
M  V30 4084 H 375.465 -0.625442 2.91363 0
M  V30 4085 H 373.002 -0.297218 1.44066 0
M  V30 4086 H 374.96 -3.10234 2.78946 0
M  V30 4087 H 373.59 -2.73948 1.7074 0
M  V30 4088 H 372.642 -1.23069 3.59942 0
M  V30 4089 H 373.954 -1.81978 4.64419 0
M  V30 4090 H 373.108 -4.16406 4.41238 0
M  V30 4091 H 371.847 -3.61678 3.2717 0
M  V30 4092 H 370.852 -2.15849 5.05657 0
M  V30 4093 H 372.077 -2.73466 6.21605 0
M  V30 4094 H 370.023 -4.47372 4.79786 0
M  V30 4095 H 369.94 -3.94798 6.44725 0
M  V30 4096 H 371.208 -5.03033 5.95465 0
M  V30 4097 N 375.437 -1.54477 -0.31217 0
M  V30 4098 C 376.848 -1.64344 -0.885891 0
M  V30 4099 C 377.199 -0.54485 -1.88483 0
M  V30 4100 O 376.324 0.320387 -2.14015 0
M  V30 4101 C 376.919 -2.97908 -1.61357 0
M  V30 4102 C 375.478 -3.09933 -2.13585 0
M  V30 4103 C 374.625 -2.59971 -0.964897 0
M  V30 4104 H 377.576 -1.58448 -0.0894528 0
M  V30 4105 H 377.597 -2.88706 -2.47848 0
M  V30 4106 H 377.109 -3.77845 -0.886277 0
M  V30 4107 H 375.21 -2.34694 -2.89395 0
M  V30 4108 H 375.323 -4.15916 -2.37804 0
M  V30 4109 H 373.687 -2.16147 -1.34731 0
M  V30 4110 H 374.47 -3.42376 -0.251742 0
M  V30 4111 N 376.915 0.57481 -1.46744 0
M  V30 4112 C 378.326 1.15695 -1.46532 0
M  V30 4113 C 378.677 1.95068 -0.210425 0
M  V30 4114 O 377.802 2.05241 0.685944 0
M  V30 4115 C 378.397 2.1048 -2.65487 0
M  V30 4116 C 376.956 2.64002 -2.68291 0
M  V30 4117 C 376.103 1.40026 -2.39349 0
M  V30 4118 H 379.054 0.362325 -1.54509 0
M  V30 4119 H 379.075 2.94074 -2.41455 0
M  V30 4120 H 378.587 1.52683 -3.56805 0
M  V30 4121 H 376.688 3.25646 -1.81067 0
M  V30 4122 H 376.801 3.06197 -3.68483 0
M  V30 4123 H 375.165 1.70106 -1.89568 0
M  V30 4124 H 375.948 0.840485 -3.32852 0
M  V30 4125 N 378.394 1.34581 0.820102 0
M  V30 4126 C 379.326 1.22236 1.93884 0
M  V30 4127 C 380.339 0.148776 1.62119 0
M  V30 4128 O 381.528 0.400877 1.7394 0
M  V30 4129 C 378.628 0.856542 3.27897 0
M  V30 4130 C 377.801 2.02569 3.87666 0
M  V30 4131 C 376.86 1.63782 5.00062 0
M  V30 4132 O 375.886 2.35477 5.18208 0
M  V30 4133 N 377.088 0.553611 5.77854 0
M  V30 4134 H 379.853 2.18615 2.05006 0
M  V30 4135 H 377.414 1.27573 0.99683 0
M  V30 4136 H 379.406 0.578806 4.0054 0
M  V30 4137 H 377.976 -0.0171518 3.12595 0
M  V30 4138 H 377.196 2.468 3.07382 0
M  V30 4139 H 378.484 2.80752 4.24329 0
M  V30 4140 H 377.882 -0.0423528 5.65684 0
M  V30 4141 H 376.439 0.335614 6.50935 0
M  V30 4142 N 379.872 -1.04064 1.18357 0
M  V30 4143 C 381.288 -1.2947 0.933258 0
M  V30 4144 C 381.488 -1.97466 -0.401169 0
M  V30 4145 O 380.544 -2.25528 -1.13549 0
M  V30 4146 C 381.857 -2.15337 2.09882 0
M  V30 4147 C 383.405 -2.28683 2.13712 0
M  V30 4148 C 383.88 -3.17917 3.29686 0
M  V30 4149 N 385.371 -3.25504 3.29547 0
M  V30 4150 C 386.106 -3.94706 4.15926 0
M  V30 4151 N 385.602 -4.66239 5.12439 0
M  V30 4152 N 387.395 -3.90986 4.0384 0
M  V30 4153 H 379.546 -0.583359 2.04232 0
M  V30 4154 H 381.809 -0.319921 0.892387 0
M  V30 4155 H 381.515 -1.72682 3.06389 0
M  V30 4156 H 381.389 -3.16015 2.05947 0
M  V30 4157 H 383.776 -2.70575 1.17784 0
M  V30 4158 H 383.857 -1.27596 2.21705 0
M  V30 4159 H 383.501 -2.76736 4.25887 0
M  V30 4160 H 383.431 -4.19036 3.1893 0
M  V30 4161 H 385.922 -2.74547 2.59677 0
M  V30 4162 H 386.235 -5.16638 5.74722 0
M  V30 4163 H 384.58 -4.65143 5.16398 0
M  V30 4164 H 387.771 -3.34234 3.27727 0
M  V30 4165 H 387.944 -4.44646 4.71375 0
M  V30 4166 N 381.35 -0.985608 -1.22978 0
M  V30 4167 C 382.28 -0.549649 -2.26939 0
M  V30 4168 C 383.261 0.419803 -1.64838 0
M  V30 4169 O 384.446 0.31203 -1.91677 0
M  V30 4170 C 381.576 0.143652 -3.47003 0
M  V30 4171 C 380.53 -0.743606 -4.21491 0
M  V30 4172 C 379.856 0.0822027 -5.34637 0
M  V30 4173 C 381.156 -2.03694 -4.80943 0
M  V30 4174 H 382.85 -1.41862 -2.63658 0
M  V30 4175 H 380.396 -0.683571 -1.26741 0
M  V30 4176 H 382.349 0.459985 -4.18882 0
M  V30 4177 H 381.073 1.04711 -3.09359 0
M  V30 4178 H 379.732 -1.04347 -3.51436 0
M  V30 4179 H 379.38 0.986359 -4.93234 0
M  V30 4180 H 379.08 -0.508377 -5.85397 0
M  V30 4181 H 380.604 0.392797 -6.09335 0
M  V30 4182 H 382.018 -1.78504 -5.44802 0
M  V30 4183 H 380.415 -2.57573 -5.42011 0
M  V30 4184 H 381.485 -2.72042 -4.01399 0
M  V30 4185 N 382.828 1.3818 -0.7579 0
M  V30 4186 C 384.056 2.04301 -0.326937 0
M  V30 4187 C 384.471 1.57163 1.0462 0
M  V30 4188 O 383.828 0.746626 1.66529 0
M  V30 4189 C 383.879 3.59846 -0.345363 0
M  V30 4190 O 383.6 4.05256 -1.66432 0
M  V30 4191 C 385.101 4.4319 0.098927 0
M  V30 4192 H 382.321 0.656443 -0.139012 0
M  V30 4193 H 384.865 1.76786 -1.02796 0
M  V30 4194 H 383.02 3.86182 0.306955 0
M  V30 4195 H 383.434 4.99709 -1.59345 0
M  V30 4196 H 384.908 5.51989 0.0348745 0
M  V30 4197 H 385.385 4.23947 1.14741 0
M  V30 4198 H 385.991 4.22051 -0.52468 0
M  V30 4199 N 384.306 0.507319 1.49211 0
M  V30 4200 C 385.552 -0.0269732 2.03382 0
M  V30 4201 C 385.907 -1.34111 1.37957 0
M  V30 4202 O 385.2 -1.84733 0.508351 0
M  V30 4203 C 385.394 -0.229513 3.56662 0
M  V30 4204 C 385.223 1.06344 4.36945 0
M  V30 4205 C 383.993 1.617 4.78729 0
M  V30 4206 C 386.191 1.96833 4.75143 0
M  V30 4207 N 384.173 2.8552 5.43463 0
M  V30 4208 C 385.544 3.0523 5.39661 0
M  V30 4209 C 387.599 1.97434 4.57082 0
M  V30 4210 C 386.302 4.14265 5.88028 0
M  V30 4211 C 388.328 3.05448 5.06414 0
M  V30 4212 C 387.69 4.12564 5.70938 0
M  V30 4213 H 383.789 0.0310673 0.781383 0
M  V30 4214 H 386.373 0.683579 1.82305 0
M  V30 4215 H 384.544 -0.909127 3.7761 0
M  V30 4216 H 386.276 -0.761377 3.97473 0
M  V30 4217 H 383.031 1.16132 4.59141 0
M  V30 4218 H 383.455 3.48499 5.80412 0
M  V30 4219 H 388.097 1.15924 4.06597 0
M  V30 4220 H 385.815 4.96569 6.3753 0
M  V30 4221 H 389.401 3.06941 4.94246 0
M  V30 4222 H 388.281 4.94767 6.0842 0
M  V30 4223 N 385.784 -1.5574 0.241426 0
M  V30 4224 C 386.714 -2.24133 -0.654722 0
M  V30 4225 C 387.695 -1.21974 -1.1856 0
M  V30 4226 O 388.88 -1.50612 -1.22595 0
M  V30 4227 C 386.01 -2.93659 -1.85423 0
M  V30 4228 C 384.964 -4.0246 -1.45636 0
M  V30 4229 C 384.29 -4.59383 -2.73626 0
M  V30 4230 C 385.59 -5.18468 -0.631506 0
M  V30 4231 H 387.284 -2.99281 -0.0844353 0
M  V30 4232 H 384.83 -1.43947 -0.0391707 0
M  V30 4233 H 386.783 -3.40203 -2.48676 0
M  V30 4234 H 385.507 -2.15991 -2.44981 0
M  V30 4235 H 384.166 -3.56676 -0.847202 0
M  V30 4236 H 383.814 -3.78422 -3.3137 0
M  V30 4237 H 383.514 -5.32826 -2.4773 0
M  V30 4238 H 385.038 -5.08658 -3.37786 0
M  V30 4239 H 386.452 -5.61272 -1.1682 0
M  V30 4240 H 384.849 -5.98266 -0.468831 0
M  V30 4241 H 385.919 -4.8358 0.357506 0
M  V30 4242 N 387.262 0.0317525 -1.57568 0
M  V30 4243 C 388.49 0.734949 -1.93407 0
M  V30 4244 C 388.905 1.69036 -0.84096 0
M  V30 4245 O 388.262 1.81582 0.182836 0
M  V30 4246 C 388.313 1.49432 -3.29169 0
M  V30 4247 O 388.034 0.577261 -4.3428 0
M  V30 4248 C 389.535 2.29492 -3.79273 0
M  V30 4249 H 386.755 0.206706 -0.638368 0
M  V30 4250 H 389.299 -0.00992046 -2.04498 0
M  V30 4251 H 387.454 2.1911 -3.19483 0
M  V30 4252 H 387.868 1.10952 -5.1263 0
M  V30 4253 H 389.342 2.78172 -4.76785 0
M  V30 4254 H 389.819 3.10794 -3.10328 0
M  V30 4255 H 390.425 1.64894 -3.92033 0
M  V30 4256 N 388.74 1.54641 0.303973 0
M  V30 4257 C 389.986 1.74038 1.04109 0
M  V30 4258 C 390.319 0.523051 1.87024 0
M  V30 4259 O 389.594 -0.479874 1.88487 0
M  V30 4260 C 389.877 3.02761 1.94955 0
M  V30 4261 C 389.73 4.34787 1.1524 0
M  V30 4262 C 391.049 3.27336 2.94175 0
M  V30 4263 H 388.168 0.63323 0.377079 0
M  V30 4264 H 390.81 1.87354 0.316001 0
M  V30 4265 H 388.96 2.9154 2.56782 0
M  V30 4266 H 390.632 4.57922 0.557236 0
M  V30 4267 H 388.875 4.31407 0.455053 0
M  V30 4268 H 389.546 5.21116 1.8205 0
M  V30 4269 H 392.022 3.38148 2.42477 0
M  V30 4270 H 390.898 4.18726 3.54908 0
M  V30 4271 H 391.159 2.45491 3.67677 0
M  V30 4272 N 390.218 -0.567019 1.47046 0
M  V30 4273 C 391.443 -1.3551 1.57009 0
M  V30 4274 C 391.868 -1.86841 0.217259 0
M  V30 4275 O 391.226 -1.62435 -0.805268 0
M  V30 4276 C 391.274 -2.50777 2.5912 0
M  V30 4277 O 390.378 -3.52706 2.13711 0
M  V30 4278 H 389.719 -0.402919 0.52778 0
M  V30 4279 H 392.249 -0.686241 1.92748 0
M  V30 4280 H 392.259 -2.97481 2.79229 0
M  V30 4281 H 390.934 -2.12771 3.57353 0
M  V30 4282 H 389.511 -3.12374 2.03659 0
M  V30 4283 N 391.696 -1.35014 -0.812953 0
M  V30 4284 C 392.924 -1.31031 -1.6012 0
M  V30 4285 C 393.339 0.113558 -1.88458 0
M  V30 4286 O 392.696 1.06363 -1.48301 0
M  V30 4287 C 392.747 -2.10872 -2.93624 0
M  V30 4288 O 392.468 -3.47706 -2.66518 0
M  V30 4289 C 393.969 -2.14401 -3.88004 0
M  V30 4290 H 391.189 -0.45037 -0.497401 0
M  V30 4291 H 393.733 -1.77775 -1.01076 0
M  V30 4292 H 391.888 -1.67744 -3.492 0
M  V30 4293 H 392.302 -3.89097 -3.51715 0
M  V30 4294 H 393.776 -2.74669 -4.78812 0
M  V30 4295 H 394.253 -1.14105 -4.24119 0
M  V30 4296 H 394.859 -2.57662 -3.38364 0
M  V30 4297 N 393.175 1.03435 -1.18907 0
M  V30 4298 C 394.421 1.77005 -0.989798 0
M  V30 4299 C 394.754 1.88205 0.478816 0
M  V30 4300 O 394.029 1.39481 1.35556 0
M  V30 4301 C 394.312 3.19925 -1.65287 0
M  V30 4302 C 394.165 3.1663 -3.19477 0
M  V30 4303 C 395.484 4.18189 -1.37134 0
M  V30 4304 H 392.603 0.642538 -0.360991 0
M  V30 4305 H 395.245 1.20784 -1.46667 0
M  V30 4306 H 393.395 3.67929 -1.24741 0
M  V30 4307 H 395.067 2.76567 -3.692 0
M  V30 4308 H 393.31 2.54491 -3.51307 0
M  V30 4309 H 393.981 4.1758 -3.61013 0
M  V30 4310 H 396.457 3.78761 -1.72276 0
M  V30 4311 H 395.333 5.16394 -1.86087 0
M  V30 4312 H 395.594 4.41112 -0.295424 0
M  V30 4313 N 394.653 0.992116 1.22453 0
M  V30 4314 C 395.9 0.667534 1.91181 0
M  V30 4315 C 396.228 -0.800317 1.77271 0
M  V30 4316 O 395.483 -1.59421 1.13505 0
M  V30 4317 C 395.782 1.01832 3.42586 0
M  V30 4318 C 395.448 2.47831 3.76684 0
M  V30 4319 C 394.11 2.87729 3.85701 0
M  V30 4320 C 396.462 3.42466 3.92895 0
M  V30 4321 C 393.79 4.21252 4.08367 0
M  V30 4322 C 396.142 4.75648 4.17064 0
M  V30 4323 C 394.806 5.15288 4.24305 0
M  V30 4324 H 394.076 0.244268 0.699581 0
M  V30 4325 H 396.723 1.24816 1.45235 0
M  V30 4326 H 395.028 0.355769 3.90181 0
M  V30 4327 H 396.725 0.745228 3.94014 0
M  V30 4328 H 393.315 2.15905 3.70247 0
M  V30 4329 H 397.499 3.12814 3.85307 0
M  V30 4330 H 392.755 4.51554 4.122 0
M  V30 4331 H 396.929 5.48924 4.2855 0
M  V30 4332 H 394.556 6.18769 4.41621 0
M  V30 4333 N 396.131 -1.37776 0.765217 0
M  V30 4334 C 397.063 -2.28958 0.105361 0
M  V30 4335 C 398.076 -1.48316 -0.67128 0
M  V30 4336 O 399.265 -1.71046 -0.51045 0
M  V30 4337 C 396.365 -3.27421 -0.874569 0
M  V30 4338 C 395.538 -4.37132 -0.153123 0
M  V30 4339 C 394.597 -5.1571 -1.04547 0
M  V30 4340 O 393.623 -5.66896 -0.511672 0
M  V30 4341 N 394.825 -5.29808 -2.37243 0
M  V30 4342 H 397.59 -2.86227 0.888495 0
M  V30 4343 H 395.151 -1.49682 0.617 0
M  V30 4344 H 397.143 -3.7687 -1.47483 0
M  V30 4345 H 395.713 -2.70967 -1.55871 0
M  V30 4346 H 394.933 -3.89166 0.627975 0
M  V30 4347 H 396.221 -5.07625 0.345643 0
M  V30 4348 H 395.619 -4.89793 -2.83054 0
M  V30 4349 H 394.176 -5.82589 -2.9229 0
M  V30 4350 N 397.609 -0.515225 -1.4894 0
M  V30 4351 C 399.025 -0.172099 -1.58669 0
M  V30 4352 C 399.225 1.32405 -1.51892 0
M  V30 4353 O 398.281 2.10116 -1.40027 0
M  V30 4354 C 399.594 -0.761533 -2.90897 0
M  V30 4355 C 401.142 -0.728926 -3.04394 0
M  V30 4356 C 401.617 -1.29667 -4.39261 0
M  V30 4357 N 403.108 -1.25799 -4.4579 0
M  V30 4358 C 403.843 -1.66733 -5.48623 0
M  V30 4359 N 403.339 -2.15327 -6.58488 0
M  V30 4360 N 405.132 -1.58061 -5.39419 0
M  V30 4361 H 397.283 -1.48778 -1.51588 0
M  V30 4362 H 399.546 -0.617968 -0.718901 0
M  V30 4363 H 399.252 -1.81136 -3.01468 0
M  V30 4364 H 399.126 -0.230106 -3.76497 0
M  V30 4365 H 401.513 0.312098 -2.93445 0
M  V30 4366 H 401.594 -1.29766 -2.20442 0
M  V30 4367 H 401.238 -2.33655 -4.50963 0
M  V30 4368 H 401.168 -0.703752 -5.21876 0
M  V30 4369 H 403.659 -0.902102 -3.66975 0
M  V30 4370 H 403.972 -2.44594 -7.33071 0
M  V30 4371 H 402.317 -2.19311 -6.59491 0
M  V30 4372 H 405.508 -1.19906 -4.52482 0
M  V30 4373 H 405.681 -1.90284 -6.19432 0
M  V30 4374 N 399.087 1.5561 -0.249682 0
M  V30 4375 C 400.364 1.90932 0.424761 0
M  V30 4376 C 400.744 1.17078 1.75658 0
M  V30 4377 O 400.092 0.289176 2.26663 0
M  V30 4378 C 400.302 3.43975 0.590109 0
M  V30 4379 C 401.65 4.15281 0.884714 0
M  V30 4380 O 402.674 3.49729 0.67587 0
M  V30 4381 O 401.533 5.31236 1.28259 0
M  V30 4382 H 398.627 0.794815 0.228468 0
M  V30 4383 H 401.173 1.67135 -0.293954 0
M  V30 4384 H 399.945 3.89748 -0.34818 0
M  V30 4385 H 399.568 3.73644 1.35926 0
M  V30 4386 N 400.565 -0.0233959 1.57583 0
M  V30 4387 C 401.475 -1.03907 2.10334 0
M  V30 4388 C 402.491 -1.39257 1.04323 0
M  V30 4389 O 403.667 -1.48462 1.36091 0
M  V30 4390 C 400.732 -2.31938 2.57693 0
M  V30 4391 C 399.793 -2.03117 3.78209 0
M  V30 4392 C 399.026 -3.25043 4.233 0
M  V30 4393 O 399.249 -4.35916 3.67876 0
M  V30 4394 O 398.183 -3.10411 5.15683 0
M  V30 4395 H 402.009 -0.620748 2.97288 0
M  V30 4396 H 399.594 -0.240743 1.47448 0
M  V30 4397 H 401.476 -3.07196 2.88458 0
M  V30 4398 H 400.151 -2.73055 1.73847 0
M  V30 4399 H 399.058 -1.25408 3.52454 0
M  V30 4400 H 400.391 -1.66852 4.63056 0
M  V30 4401 N 402.043 -1.548 -0.295768 0
M  V30 4402 C 403.271 -1.78327 -1.04914 0
M  V30 4403 C 403.686 -0.545316 -1.80753 0
M  V30 4404 O 403.043 0.485013 -1.75937 0
M  V30 4405 C 403.094 -2.99418 -2.02561 0
M  V30 4406 O 402.815 -4.18431 -1.29798 0
M  V30 4407 C 404.316 -3.35375 -2.89895 0
M  V30 4408 H 401.536 -0.594618 -0.310918 0
M  V30 4409 H 404.08 -2.01763 -0.333454 0
M  V30 4410 H 402.235 -2.78175 -2.69624 0
M  V30 4411 H 402.649 -4.86736 -1.95419 0
M  V30 4412 H 404.123 -4.23332 -3.54251 0
M  V30 4413 H 404.6 -2.53761 -3.58472 0
M  V30 4414 H 405.206 -3.58796 -2.28355 0
M  V30 4415 N 403.521 0.559213 -1.47345 0
M  V30 4416 C 404.932 1.14134 -1.47751 0
M  V30 4417 C 405.283 1.94834 -0.231103 0
M  V30 4418 O 404.408 2.05957 0.664137 0
M  V30 4419 C 405.003 2.07653 -2.67705 0
M  V30 4420 C 403.562 2.61141 -2.71076 0
M  V30 4421 C 402.709 1.3748 -2.40821 0
M  V30 4422 H 405.66 0.345917 -1.54884 0
M  V30 4423 H 405.681 2.91497 -2.44561 0
M  V30 4424 H 405.193 1.4889 -3.58404 0
M  V30 4425 H 403.294 3.23707 -1.84511 0
M  V30 4426 H 403.407 3.02272 -3.7171 0
M  V30 4427 H 401.771 1.68086 -1.91362 0
M  V30 4428 H 402.554 0.805135 -3.33725 0
M  V30 4429 N 404.999 1.35443 0.805782 0
M  V30 4430 C 406.239 1.30127 1.57627 0
M  V30 4431 C 406.603 -0.122567 1.91608 0
M  V30 4432 O 407.804 -0.300107 2.67119 0
M  V30 4433 C 406.075 2.18314 2.82973 0
M  V30 4434 S 407.634 2.30521 3.7337 0
M  V30 4435 H 404.452 0.462439 0.540066 0
M  V30 4436 H 407.054 1.70843 0.95042 0
M  V30 4437 H 405.758 3.20741 2.56034 0
M  V30 4438 H 405.289 1.78558 3.50543 0
M  V30 4439 H 407.304 1.49062 4.73281 0
M  V30 4440 N 406.477 -1.02803 1.19454 0
M  V30 4441 C 407.702 -1.80378 1.02364 0
M  V30 4442 C 408.127 -1.83282 -0.423007 0
M  V30 4443 O 407.485 -1.25945 -1.30413 0
M  V30 4444 C 407.533 -3.23248 1.59821 0
M  V30 4445 O 406.637 -4.04 0.828105 0
M  V30 4446 H 405.978 -0.556799 0.361761 0
M  V30 4447 H 408.508 -1.29385 1.58495 0
M  V30 4448 H 408.518 -3.73994 1.63073 0
M  V30 4449 H 407.193 -3.2045 2.65113 0
M  V30 4450 H 405.77 -3.62635 0.86891 0
M  V30 4451 N 407.956 -0.998596 -1.21925 0
M  V30 4452 C 409.181 -0.696015 -1.95372 0
M  V30 4453 C 409.606 0.733826 -1.73195 0
M  V30 4454 O 408.964 1.50242 -1.01474 0
M  V30 4455 C 409.012 -1.01466 -3.4603 0
M  V30 4456 O 408.116 -0.116415 -4.12236 0
M  V30 4457 H 407.457 -0.259938 -0.611006 0
M  V30 4458 H 409.987 -1.33711 -1.54863 0
M  V30 4459 H 409.997 -0.958855 -3.96573 0
M  V30 4460 H 408.672 -2.05653 -3.61497 0
M  V30 4461 H 407.249 -0.228193 -3.72201 0
M  V30 4462 N 409.434 1.37368 -0.772513 0
M  V30 4463 C 410.845 1.8231 -0.402493 0
M  V30 4464 C 411.196 1.6436 1.07146 0
M  V30 4465 O 410.321 1.15514 1.82991 0
M  V30 4466 C 410.916 3.30979 -0.723776 0
M  V30 4467 C 409.475 3.74195 -0.406802 0
M  V30 4468 C 408.622 2.59885 -0.967218 0
M  V30 4469 H 411.573 1.25829 -0.967099 0
M  V30 4470 H 411.594 3.80499 -0.00870832 0
M  V30 4471 H 411.106 3.44011 -1.7966 0
M  V30 4472 H 409.207 3.66732 0.658673 0
M  V30 4473 H 409.32 4.7027 -0.915588 0
M  V30 4474 H 407.684 2.51674 -0.391416 0
M  V30 4475 H 408.467 2.7571 -2.04546 0
M  V30 4476 N 410.912 0.523116 1.48665 0
M  V30 4477 C 411.822 -0.247406 2.33292 0
M  V30 4478 C 412.838 -0.945769 1.46052 0
M  V30 4479 O 414.014 -0.922253 1.79043 0
M  V30 4480 C 411.079 -1.28487 3.22012 0
M  V30 4481 C 410.14 -0.597592 4.2512 0
M  V30 4482 C 409.373 -1.58563 5.09601 0
M  V30 4483 O 409.596 -2.81763 4.95949 0
M  V30 4484 O 408.53 -1.12879 5.91221 0
M  V30 4485 H 412.356 0.445869 3.00409 0
M  V30 4486 H 409.941 0.284128 1.46673 0
M  V30 4487 H 411.823 -1.88459 3.7691 0
M  V30 4488 H 410.498 -1.96068 2.57564 0
M  V30 4489 H 409.405 0.0424407 3.74076 0
M  V30 4490 H 410.738 0.0361517 4.92187 0
M  V30 4491 N 412.39 -1.55475 0.257931 0
M  V30 4492 C 413.337 -2.21837 -0.636939 0
M  V30 4493 C 414.307 -1.18596 -1.16294 0
M  V30 4494 O 415.492 -1.47081 -1.21539 0
M  V30 4495 C 412.632 -2.9301 -1.82317 0
M  V30 4496 C 411.745 -4.10931 -1.33265 0
M  V30 4497 C 410.88 -4.69791 -2.47931 0
M  V30 4498 C 409.919 -5.7994 -1.95796 0
M  V30 4499 N 409.056 -6.32935 -3.0387 0
M  V30 4500 H 413.896 -2.9793 -0.0643591 0
M  V30 4501 H 411.433 -1.47086 -0.0200031 0
M  V30 4502 H 413.391 -3.3248 -2.52018 0
M  V30 4503 H 412.021 -2.1937 -2.36805 0
M  V30 4504 H 411.073 -3.76699 -0.52931 0
M  V30 4505 H 412.385 -4.90417 -0.910654 0
M  V30 4506 H 411.539 -5.11892 -3.25656 0
M  V30 4507 H 410.278 -3.89545 -2.93438 0
M  V30 4508 H 409.283 -5.37305 -1.16546 0
M  V30 4509 H 410.508 -6.62043 -1.51246 0
M  V30 4510 H 408.454 -5.55591 -3.48791 0
M  V30 4511 H 408.371 -7.07645 -2.66035 0
M  V30 4512 H 409.639 -6.79695 -3.81621 0
M  V30 4513 N 413.868 0.0150385 -1.57593 0
M  V30 4514 C 415.114 0.704043 -1.90187 0
M  V30 4515 C 415.447 1.74249 -0.857366 0
M  V30 4516 O 414.722 1.94092 0.125843 0
M  V30 4517 C 415.005 1.36087 -3.33395 0
M  V30 4518 C 414.858 0.334981 -4.48551 0
M  V30 4519 C 416.177 2.29112 -3.7576 0
M  V30 4520 H 413.296 0.254475 -0.691673 0
M  V30 4521 H 415.938 -0.0331678 -1.89971 0
M  V30 4522 H 414.088 1.98922 -3.3371 0
M  V30 4523 H 415.76 -0.292534 -4.60372 0
M  V30 4524 H 414.003 -0.344325 -4.32431 0
M  V30 4525 H 414.674 0.833316 -5.45674 0
M  V30 4526 H 417.15 1.76308 -3.76902 0
M  V30 4527 H 416.026 2.72043 -4.76743 0
M  V30 4528 H 416.287 3.16385 -3.08793 0
M  V30 4529 N 415.346 1.54954 0.287554 0
M  V30 4530 C 416.309 1.86076 1.33823 0
M  V30 4531 C 417.309 0.734414 1.43049 0
M  V30 4532 O 418.499 1.00266 1.42452 0
M  V30 4533 C 415.631 2.05305 2.72144 0
M  V30 4534 H 416.824 2.79984 1.07465 0
M  V30 4535 H 414.377 1.47223 0.524902 0
M  V30 4536 H 415.112 1.1373 3.03704 0
M  V30 4537 H 414.897 2.873 2.66836 0
M  V30 4538 H 416.387 2.30706 3.48087 0
M  V30 4539 N 416.824 -0.551391 1.4764 0
M  V30 4540 C 417.757 -1.6738 1.5511 0
M  V30 4541 C 418.735 -1.5753 0.402856 0
M  V30 4542 O 419.919 -1.78307 0.611475 0
M  V30 4543 C 417.046 -3.05661 1.45908 0
M  V30 4544 C 416.092 -3.33938 2.65307 0
M  V30 4545 S 416.925 -3.22553 4.27457 0
M  V30 4546 C 418.081 -4.63317 4.20818 0
M  V30 4547 H 418.314 -1.6079 2.50068 0
M  V30 4548 H 415.847 -0.732674 1.35909 0
M  V30 4549 H 417.805 -3.8542 1.41286 0
M  V30 4550 H 416.466 -3.09711 0.523248 0
M  V30 4551 H 415.659 -4.34761 2.54948 0
M  V30 4552 H 415.261 -2.61809 2.67081 0
M  V30 4553 H 417.553 -5.54391 3.89431 0
M  V30 4554 H 418.496 -4.78732 5.21748 0
M  V30 4555 H 418.904 -4.41636 3.51593 0
M  V30 4556 N 418.302 -1.35869 -0.798587 0
M  V30 4557 C 419.232 -1.32118 -1.92528 0
M  V30 4558 C 420.213 -0.194209 -1.68988 0
M  V30 4559 O 421.398 -0.390426 -1.90235 0
M  V30 4560 C 418.528 -1.10047 -3.29404 0
M  V30 4561 C 417.482 -2.19471 -3.67446 0
M  V30 4562 C 416.808 -1.82555 -5.02571 0
M  V30 4563 C 418.108 -3.61495 -3.76987 0
M  V30 4564 H 419.802 -2.26394 -1.95924 0
M  V30 4565 H 417.348 -1.08981 -0.94123 0
M  V30 4566 H 419.301 -1.06061 -4.07835 0
M  V30 4567 H 418.025 -0.122195 -3.26371 0
M  V30 4568 H 416.684 -2.22568 -2.91306 0
M  V30 4569 H 416.332 -0.833249 -4.9605 0
M  V30 4570 H 416.032 -2.5581 -5.28995 0
M  V30 4571 H 417.556 -1.80108 -5.83432 0
M  V30 4572 H 418.97 -3.60676 -4.4563 0
M  V30 4573 H 417.367 -4.33577 -4.14887 0
M  V30 4574 H 418.437 -3.97065 -2.78329 0
M  V30 4575 N 419.78 1.02168 -1.19998 0
M  V30 4576 C 421.057 1.72816 -0.916191 0
M  V30 4577 C 421.437 2.03081 0.576325 0
M  V30 4578 O 420.785 1.69122 1.53656 0
M  V30 4579 C 420.995 2.9997 -1.78378 0
M  V30 4580 C 422.343 3.73336 -2.02251 0
M  V30 4581 O 423.367 3.09914 -1.75589 0
M  V30 4582 O 422.226 4.87371 -2.47249 0
M  V30 4583 H 419.32 0.752924 -0.342103 0
M  V30 4584 H 421.866 1.08062 -1.30846 0
M  V30 4585 H 420.638 2.73888 -2.79466 0
M  V30 4586 H 420.261 3.72464 -1.39126 0
M  V30 4587 N 421.258 1.00505 1.21394 0
M  V30 4588 C 422.506 0.686415 1.90086 0
M  V30 4589 C 422.827 -0.785264 1.7849 0
M  V30 4590 O 422.097 -1.56387 1.17983 0
M  V30 4591 H 420.677 0.2509 0.703604 0
M  V30 4592 H 423.339 1.27417 1.47482 0
M  V30 4593 H 422.435 0.959621 2.96981 0
M  V30 4594 N 422.737 -1.36956 0.779787 0
M  V30 4595 C 423.962 -2.04283 0.358224 0
M  V30 4596 C 424.387 -1.58422 -1.01411 0
M  V30 4597 O 423.745 -0.748179 -1.65142 0
M  V30 4598 C 423.793 -3.58152 0.419479 0
M  V30 4599 O 422.897 -4.08342 -0.577142 0
M  V30 4600 H 422.238 -0.645967 0.153698 0
M  V30 4601 H 424.768 -1.75108 1.05822 0
M  V30 4602 H 424.778 -4.07041 0.279636 0
M  V30 4603 H 423.453 -3.90886 1.42061 0
M  V30 4604 H 422.03 -3.70751 -0.399755 0
M  V30 4605 N 424.215 -0.530993 -1.48385 0
M  V30 4606 C 425.631 -0.188919 -1.58478 0
M  V30 4607 C 425.831 1.30786 -1.53288 0
M  V30 4608 O 424.887 2.08619 -1.42248 0
M  V30 4609 C 426.2 -0.792343 -2.90073 0
M  V30 4610 C 427.748 -0.76117 -3.03604 0
M  V30 4611 C 428.223 -1.34319 -4.37861 0
M  V30 4612 N 429.714 -1.3052 -4.44431 0
M  V30 4613 C 430.449 -1.72543 -5.46824 0
M  V30 4614 N 429.945 -2.22299 -6.56167 0
M  V30 4615 N 431.738 -1.63773 -5.37712 0
M  V30 4616 H 423.889 -1.50377 -1.50002 0
M  V30 4617 H 426.152 -0.625559 -0.712306 0
M  V30 4618 H 425.858 -1.84323 -2.99529 0
M  V30 4619 H 425.732 -0.270026 -3.76232 0
M  V30 4620 H 428.119 0.280957 -2.93759 0
M  V30 4621 H 428.2 -1.32097 -2.19053 0
M  V30 4622 H 427.844 -2.38425 -4.4846 0
M  V30 4623 H 427.774 -0.759064 -5.21101 0
M  V30 4624 H 430.265 -0.940973 -3.65997 0
M  V30 4625 H 430.578 -2.52356 -7.30436 0
M  V30 4626 H 428.923 -2.26293 -6.57127 0
M  V30 4627 H 432.114 -1.24698 -4.51185 0
M  V30 4628 H 432.287 -1.96844 -6.17379 0
M  V30 4629 N 425.693 1.55336 -0.266172 0
M  V30 4630 C 426.64 2.22172 0.625165 0
M  V30 4631 C 427.61 1.19211 1.15663 0
M  V30 4632 O 428.795 1.47723 1.20758 0
M  V30 4633 C 425.935 2.93972 1.8076 0
M  V30 4634 C 425.048 4.11632 1.31084 0
M  V30 4635 C 424.183 4.71099 2.45436 0
M  V30 4636 C 423.222 5.8097 1.92718 0
M  V30 4637 N 422.359 6.34538 3.00509 0
M  V30 4638 H 427.199 2.9796 0.0485582 0
M  V30 4639 H 424.736 1.47095 0.0122024 0
M  V30 4640 H 426.694 3.33811 2.50251 0
M  V30 4641 H 425.324 2.20623 2.35638 0
M  V30 4642 H 424.376 3.76975 0.509326 0
M  V30 4643 H 425.688 4.90893 0.884633 0
M  V30 4644 H 424.842 5.13612 3.22936 0
M  V30 4645 H 423.581 3.91096 2.91368 0
M  V30 4646 H 422.586 5.37916 1.13695 0
M  V30 4647 H 423.811 6.62836 1.47733 0
M  V30 4648 H 421.757 5.57433 3.45839 0
M  V30 4649 H 421.674 7.09046 2.62279 0
M  V30 4650 H 422.942 6.81709 3.78011 0
M  V30 4651 N 427.171 -0.0066808 1.57599 0
M  V30 4652 C 428.448 -0.729586 1.81484 0
M  V30 4653 C 428.828 -1.92359 0.869558 0
M  V30 4654 O 428.176 -2.28348 -0.0832533 0
M  V30 4655 C 428.386 -1.1416 3.29801 0
M  V30 4656 C 429.734 -1.54823 3.95367 0
M  V30 4657 O 430.758 -1.23558 3.34084 0
M  V30 4658 O 429.617 -2.12937 5.03309 0
M  V30 4659 H 426.711 -0.354674 0.747085 0
M  V30 4660 H 429.257 0.0182609 1.6969 0
M  V30 4661 H 428.029 -0.290231 3.90222 0
M  V30 4662 H 427.652 -1.94876 3.46568 0
M  V30 4663 N 428.649 -1.55105 -0.279332 0
M  V30 4664 C 429.596 -1.8755 -1.34513 0
M  V30 4665 C 430.566 -0.726384 -1.49375 0
M  V30 4666 O 431.751 -0.977063 -1.63884 0
M  V30 4667 C 428.891 -2.14738 -2.70151 0
M  V30 4668 C 428.004 -3.42285 -2.63562 0
M  V30 4669 C 427.139 -3.59206 -3.91337 0
M  V30 4670 C 426.178 -4.80467 -3.79233 0
M  V30 4671 N 425.315 -4.94079 -4.98829 0
M  V30 4672 H 430.155 -2.78456 -1.06143 0
M  V30 4673 H 427.692 -1.37867 -0.512936 0
M  V30 4674 H 429.65 -2.28501 -3.49061 0
M  V30 4675 H 428.28 -1.27075 -2.96735 0
M  V30 4676 H 427.332 -3.37029 -1.76397 0
M  V30 4677 H 428.644 -4.31328 -2.50515 0
M  V30 4678 H 427.798 -3.72751 -4.78687 0
M  V30 4679 H 426.537 -2.68337 -4.07243 0
M  V30 4680 H 425.542 -4.66932 -2.90266 0
M  V30 4681 H 426.767 -5.72765 -3.64852 0
M  V30 4682 H 424.713 -4.06139 -5.15158 0
M  V30 4683 H 424.63 -5.77156 -4.8829 0
M  V30 4684 H 425.898 -5.12003 -5.8777 0
M  V30 4685 N 430.127 0.543554 -1.4793 0
M  V30 4686 C 431.09 1.63156 -1.60975 0
M  V30 4687 C 432.09 1.53346 -0.483899 0
M  V30 4688 O 433.28 1.5726 -0.749339 0
M  V30 4689 C 430.412 3.02743 -1.56716 0
M  V30 4690 H 431.605 1.52934 -2.57975 0
M  V30 4691 H 429.158 0.764557 -1.36324 0
M  V30 4692 H 429.893 3.18484 -0.611418 0
M  V30 4693 H 429.678 3.11272 -2.38438 0
M  V30 4694 H 431.168 3.81871 -1.6901 0
M  V30 4695 N 431.605 1.3629 0.791371 0
M  V30 4696 C 432.535 1.33137 1.91825 0
M  V30 4697 C 433.516 0.203168 1.68882 0
M  V30 4698 O 434.701 0.400509 1.90025 0
M  V30 4699 C 431.831 1.11793 3.28816 0
M  V30 4700 C 430.785 2.21417 3.66277 0
M  V30 4701 C 430.111 1.85218 5.01596 0
M  V30 4702 C 431.411 3.63489 3.75064 0
M  V30 4703 H 433.105 2.2743 1.9472 0
M  V30 4704 H 430.651 1.09479 0.935437 0
M  V30 4705 H 432.604 1.08222 4.07266 0
M  V30 4706 H 431.328 0.139501 3.26302 0
M  V30 4707 H 429.987 2.2411 2.90121 0
M  V30 4708 H 429.635 0.859544 4.95602 0
M  V30 4709 H 429.335 2.58611 5.27631 0
M  V30 4710 H 430.859 1.832 5.82469 0
M  V30 4711 H 432.273 3.63034 4.43711 0
M  V30 4712 H 430.67 4.35771 4.12582 0
M  V30 4713 H 431.74 3.98536 2.76219 0
M  V30 4714 N 433.083 -1.0153 1.20538 0
M  V30 4715 C 434.494 -1.56598 1.01657 0
M  V30 4716 C 434.845 -1.91505 -0.426668 0
M  V30 4717 O 433.97 -1.72375 -1.30827 0
M  V30 4718 C 434.565 -2.84542 1.83905 0
M  V30 4719 C 433.124 -3.36133 1.69386 0
M  V30 4720 C 432.271 -2.09427 1.81757 0
M  V30 4721 H 435.222 -0.838974 1.34711 0
M  V30 4722 H 435.243 -3.56004 1.34319 0
M  V30 4723 H 434.755 -2.59105 2.8894 0
M  V30 4724 H 432.856 -3.66528 0.669933 0
M  V30 4725 H 432.969 -4.08248 2.50739 0
M  V30 4726 H 431.333 -2.21941 1.24957 0
M  V30 4727 H 432.116 -1.86414 2.88279 0
M  V30 4728 N 434.561 -1.01147 -1.20859 0
M  V30 4729 C 435.509 -0.57059 -2.25493 0
M  V30 4730 C 436.503 0.388109 -1.64894 0
M  V30 4731 O 437.709 0.258592 -1.78133 0
M  V30 4732 H 434.084 -0.166191 -0.733406 0
M  V30 4733 H 436.055 -1.46411 -2.60012 0
M  V30 4734 C 434.804 0.0805241 -3.47607 0
M  V30 4735 H 434.127 -0.648156 -3.94511 0
M  V30 4736 H 435.567 0.352197 -4.22535 0
M  V30 4737 C 434.026 1.32175 -3.09889 0
M  V30 4738 O 434.556 2.41553 -3.20959 0
M  V30 4739 N 432.762 1.20392 -2.64488 0
M  V30 4740 H 432.309 0.313905 -2.5568 0
M  V30 4741 H 432.267 2.03541 -2.39621 0
M  V30 4742 N 436.039 1.36541 -0.78704 0
M  V30 4743 C 437.264 2.0409 -0.369053 0
M  V30 4744 C 437.689 1.58957 1.00569 0
M  V30 4745 O 437.047 0.756926 1.64743 0
M  V30 4746 C 437.095 3.57924 -0.438466 0
M  V30 4747 O 436.199 4.08642 0.555479 0
M  V30 4748 H 435.54 0.645142 -0.157122 0
M  V30 4749 H 438.07 1.74545 -1.06749 0
M  V30 4750 H 438.08 4.06887 -0.301218 0
M  V30 4751 H 436.755 3.90127 -1.44132 0
M  V30 4752 H 435.332 3.70958 0.380088 0
M  V30 4753 N 437.518 0.538854 1.48102 0
M  V30 4754 C 438.766 0.00798599 2.02098 0
M  V30 4755 C 439.087 -1.33922 1.41739 0
M  V30 4756 O 438.357 -1.86932 0.585934 0
M  V30 4757 H 436.937 -3.62179e-05 0.747 0
M  V30 4758 H 439.599 0.7047 1.81714 0
M  V30 4759 H 438.695 -0.0937672 3.11959 0
M  V30 4760 N 438.996 -1.55193 0.274407 0
M  V30 4761 C 440.273 -1.91584 -0.394331 0
M  V30 4762 C 440.653 -1.19858 -1.73774 0
M  V30 4763 O 440.001 -0.3252 -2.26174 0
M  V30 4764 C 440.211 -3.4487 -0.535311 0
M  V30 4765 C 441.559 -4.16636 -0.818534 0
M  V30 4766 O 442.583 -3.5076 -0.620146 0
M  V30 4767 O 441.442 -5.33209 -1.19792 0
M  V30 4768 H 438.536 -0.798349 -0.215794 0
M  V30 4769 H 441.082 -1.66646 0.320507 0
M  V30 4770 H 439.854 -3.89145 0.410141 0
M  V30 4771 H 439.477 -3.75759 -1.29964 0
M  V30 4772 N 440.474 -0.00167713 -1.576 0
M  V30 4773 C 441.384 1.00548 -2.1196 0
M  V30 4774 C 442.4 1.3758 -1.06526 0
M  V30 4775 O 443.576 1.46278 -1.38436 0
M  V30 4776 C 440.641 2.27809 -2.6135 0
M  V30 4777 C 439.702 1.97074 -3.81393 0
M  V30 4778 C 438.935 3.18267 -4.28417 0
M  V30 4779 O 439.158 4.30009 -3.74765 0
M  V30 4780 O 438.092 3.02167 -5.20556 0
M  V30 4781 H 441.918 0.573373 -2.98238 0
M  V30 4782 H 439.503 0.217255 -1.47812 0
M  V30 4783 H 441.385 3.02568 -2.93309 0
M  V30 4784 H 440.06 2.70254 -1.78169 0
M  V30 4785 H 438.967 1.19785 -3.54404 0
M  V30 4786 H 440.3 1.59464 -4.65652 0
M  V30 4787 N 441.952 1.55251 0.271103 0
M  V30 4788 C 443.18 1.79974 1.02064 0
M  V30 4789 C 443.595 0.574003 1.79863 0
M  V30 4790 O 442.952 -0.456962 1.76686 0
M  V30 4791 C 443.003 3.02603 1.97772 0
M  V30 4792 O 442.724 4.20443 1.23124 0
M  V30 4793 C 444.225 3.39944 2.84522 0
M  V30 4794 H 441.445 0.599489 0.301419 0
M  V30 4795 H 443.989 2.02268 0.301313 0
M  V30 4796 H 442.144 2.8243 2.65165 0
M  V30 4797 H 442.558 4.89783 1.87651 0
M  V30 4798 H 444.032 4.28915 3.47471 0
M  V30 4799 H 444.509 2.59432 3.54389 0
M  V30 4800 H 445.115 3.62383 2.22618 0
M  V30 4801 N 443.43 -0.535701 1.48216 0
M  V30 4802 C 444.36 -1.65014 1.65204 0
M  V30 4803 C 445.341 -1.62554 0.501011 0
M  V30 4804 O 446.526 -1.7984 0.732886 0
M  V30 4805 C 443.656 -3.03616 1.68626 0
M  V30 4806 C 442.61 -3.20932 2.83172 0
M  V30 4807 C 441.936 -4.60537 2.71679 0
M  V30 4808 C 443.236 -3.04249 4.24535 0
M  V30 4809 H 444.93 -1.51053 2.58502 0
M  V30 4810 H 442.476 -0.725262 1.24402 0
M  V30 4811 H 444.429 -3.81446 1.79099 0
M  V30 4812 H 443.153 -3.18587 0.719026 0
M  V30 4813 H 441.812 -2.45517 2.72244 0
M  V30 4814 H 441.46 -4.72336 1.72937 0
M  V30 4815 H 441.16 -4.73069 3.48538 0
M  V30 4816 H 442.684 -5.40475 2.84112 0
M  V30 4817 H 444.098 -3.71877 4.36326 0
M  V30 4818 H 442.495 -3.28278 5.02348 0
M  V30 4819 H 443.565 -2.00739 4.41397 0
M  V30 4820 N 444.908 -1.36708 -0.784132 0
M  V30 4821 C 445.841 -1.25827 -1.90375 0
M  V30 4822 C 446.819 -0.141331 -1.61985 0
M  V30 4823 O 448.003 -0.313389 -1.85877 0
M  V30 4824 C 445.13 -0.942621 -3.25319 0
M  V30 4825 C 444.176 -2.07474 -3.72635 0
M  V30 4826 S 445.009 -3.69317 -3.8777 0
M  V30 4827 C 446.165 -3.39876 -5.25581 0
M  V30 4828 H 446.398 -2.20593 -1.99314 0
M  V30 4829 H 443.931 -1.22186 -0.943926 0
M  V30 4830 H 445.889 -0.767321 -4.03265 0
M  V30 4831 H 444.55 -0.0126566 -3.14097 0
M  V30 4832 H 443.743 -1.80858 -4.70432 0
M  V30 4833 H 443.345 -2.20953 -3.01754 0
M  V30 4834 H 445.637 -2.94097 -6.10339 0
M  V30 4835 H 446.58 -4.36956 -5.57203 0
M  V30 4836 H 446.988 -2.75098 -4.92931 0
M  V30 4837 N 446.386 1.0089 -1.21074 0
M  V30 4838 C 447.802 1.2695 -0.967257 0
M  V30 4839 C 448.002 1.9846 0.348673 0
M  V30 4840 O 447.058 2.28459 1.0753 0
M  V30 4841 C 448.371 2.09697 -2.15517 0
M  V30 4842 C 449.919 2.22937 -2.197 0
M  V30 4843 C 450.394 3.09064 -3.37999 0
M  V30 4844 N 451.885 3.16653 -3.38061 0
M  V30 4845 C 452.62 3.8354 -4.26245 0
M  V30 4846 N 452.116 4.52488 -5.2462 0
M  V30 4847 N 453.909 3.80141 -4.14064 0
M  V30 4848 H 446.06 0.529005 -2.05707 0
M  V30 4849 H 448.323 0.296148 -0.900556 0
M  V30 4850 H 448.029 1.64497 -3.10859 0
M  V30 4851 H 447.903 3.10444 -2.14253 0
M  V30 4852 H 450.29 2.67357 -1.24916 0
M  V30 4853 H 450.371 1.21673 -2.2501 0
M  V30 4854 H 450.015 2.65347 -4.33074 0
M  V30 4855 H 449.945 4.10433 -3.29928 0
M  V30 4856 H 452.436 2.67566 -2.66865 0
M  V30 4857 H 452.749 5.01219 -5.88217 0
M  V30 4858 H 451.094 4.51288 -5.28549 0
M  V30 4859 H 454.285 3.25427 -3.36474 0
M  V30 4860 H 454.458 4.31992 -4.82998 0
M  V30 4861 N 447.864 1.01787 1.20321 0
M  V30 4862 C 449.28 0.732951 1.41774 0
M  V30 4863 C 449.48 -0.686883 1.89431 0
M  V30 4864 O 448.536 -1.45446 2.06402 0
M  V30 4865 C 449.849 1.75973 2.43832 0
M  V30 4866 C 451.397 1.77802 2.57596 0
M  V30 4867 C 451.872 2.7941 3.62897 0
M  V30 4868 N 453.363 2.78157 3.70382 0
M  V30 4869 C 454.098 3.53434 4.51521 0
M  V30 4870 N 453.594 4.38392 5.36455 0
M  V30 4871 N 455.387 3.42026 4.46066 0
M  V30 4872 H 447.538 1.93447 0.877035 0
M  V30 4873 H 449.801 0.835712 0.447536 0
M  V30 4874 H 449.507 2.77699 2.15815 0
M  V30 4875 H 449.381 1.57292 3.4284 0
M  V30 4876 H 451.768 0.767602 2.84942 0
M  V30 4877 H 451.849 2.00557 1.58779 0
M  V30 4878 H 451.493 3.80616 3.36295 0
M  V30 4879 H 451.423 2.53916 4.61339 0
M  V30 4880 H 453.914 2.16531 3.09714 0
M  V30 4881 H 454.227 4.92596 5.95457 0
M  V30 4882 H 452.572 4.4247 5.35953 0
M  V30 4883 H 455.763 2.75075 3.78749 0
M  V30 4884 H 455.936 4.00946 5.09064 0
M  V30 4885 N 449.342 -1.36122 0.79427 0
M  V30 4886 C 450.57 -2.03362 0.380989 0
M  V30 4887 C 450.985 -1.59881 -1.00416 0
M  V30 4888 O 450.342 -0.790515 -1.6449 0
M  V30 4889 C 450.393 -3.58804 0.440649 0
M  V30 4890 O 450.114 -4.007 1.77118 0
M  V30 4891 C 451.615 -4.43296 0.0186117 0
M  V30 4892 H 448.835 -0.652526 0.156367 0
M  V30 4893 H 451.379 -1.73998 1.07447 0
M  V30 4894 H 449.534 -3.8686 -0.204458 0
M  V30 4895 H 449.948 -4.95309 1.72538 0
M  V30 4896 H 451.422 -5.51887 0.111488 0
M  V30 4897 H 451.899 -4.2684 -1.03461 0
M  V30 4898 H 452.505 -4.20512 0.636395 0
M  V30 4899 N 450.82 -0.546701 -1.47814 0
M  V30 4900 C 452.045 -0.021268 -2.07389 0
M  V30 4901 C 452.47 1.25822 -1.39822 0
M  V30 4902 O 451.828 1.75111 -0.46968 0
M  V30 4903 C 451.876 0.168502 -3.60206 0
M  V30 4904 O 450.98 1.23347 -3.93522 0
M  V30 4905 H 450.321 -0.0466108 -0.662362 0
M  V30 4906 H 452.851 -0.759387 -1.89985 0
M  V30 4907 H 452.861 0.385982 -4.0617 0
M  V30 4908 H 451.536 -0.766075 -4.08784 0
M  V30 4909 H 450.113 0.997319 -3.59316 0
M  V30 4910 N 452.299 1.55045 -0.282633 0
M  V30 4911 C 453.527 2.04168 0.33512 0
M  V30 4912 C 453.942 1.16071 1.48906 0
M  V30 4913 O 453.299 0.182391 1.81586 0
M  V30 4914 C 453.35 3.52332 0.808957 0
M  V30 4915 O 453.071 4.37078 -0.299038 0
M  V30 4916 C 454.572 4.17375 1.49375 0
M  V30 4917 H 451.792 0.666744 0.0754543 0
M  V30 4918 H 454.336 2.00205 -0.416918 0
M  V30 4919 H 452.491 3.56715 1.51106 0
M  V30 4920 H 452.905 5.24458 0.0665514 0
M  V30 4921 H 454.379 5.22627 1.77664 0
M  V30 4922 H 454.856 3.65999 2.42778 0
M  V30 4923 H 455.462 4.17016 0.835305 0
M  V30 4924 N 453.777 0.010035 1.57597 0
M  V30 4925 C 455.026 -0.671945 1.90178 0
M  V30 4926 C 455.339 -1.74376 0.886131 0
M  V30 4927 O 456.545 -2.48107 1.10252 0
M  V30 4928 C 455.001 -1.24636 3.3763 0
M  V30 4929 C 454.609 -0.208838 4.47513 0
M  V30 4930 C 456.353 -1.90595 3.79307 0
M  V30 4931 C 454.26 -0.793814 5.86048 0
M  V30 4932 H 453.19 -0.25474 0.709665 0
M  V30 4933 H 455.841 0.0722206 1.83358 0
M  V30 4934 H 454.223 -2.04152 3.3932 0
M  V30 4935 H 455.397 0.562463 4.57354 0
M  V30 4936 H 453.712 0.350889 4.14919 0
M  V30 4937 H 456.309 -2.35284 4.80151 0
M  V30 4938 H 456.652 -2.74074 3.13352 0
M  V30 4939 H 457.185 -1.17798 3.79958 0
M  V30 4940 H 453.924 0.00240855 6.555 0
M  V30 4941 H 453.444 -1.53404 5.79851 0
M  V30 4942 H 455.123 -1.2894 6.34022 0
M  V30 4943 N 455.255 -1.55392 -0.262866 0
M  V30 4944 C 456.503 -1.76127 -0.991147 0
M  V30 4945 C 456.824 -0.571083 -1.8645 0
M  V30 4946 O 456.094 0.413698 -1.91482 0
M  V30 4947 H 454.674 -0.649528 -0.368948 0
M  V30 4948 H 457.336 -1.9281 -0.284655 0
M  V30 4949 H 456.432 -2.6663 -1.62219 0
M  V30 4950 N 456.733 0.527833 -1.48498 0
M  V30 4951 C 457.68 1.6322 -1.6318 0
M  V30 4952 C 458.65 1.59199 -0.473815 0
M  V30 4953 O 459.835 1.77591 -0.697563 0
M  V30 4954 C 456.975 3.01474 -1.67951 0
M  V30 4955 C 456.088 3.15713 -2.94871 0
M  V30 4956 C 455.223 4.44539 -2.90789 0
M  V30 4957 C 454.262 4.52315 -4.12404 0
M  V30 4958 N 453.399 5.72533 -4.06387 0
M  V30 4959 H 458.239 1.50011 -2.57489 0
M  V30 4960 H 455.776 0.730298 -1.27691 0
M  V30 4961 H 457.734 3.81572 -1.68698 0
M  V30 4962 H 456.364 3.1345 -0.771306 0
M  V30 4963 H 455.416 2.28854 -3.03859 0
M  V30 4964 H 456.728 3.1732 -3.8485 0
M  V30 4965 H 455.882 5.3293 -2.89949 0
M  V30 4966 H 454.621 4.45457 -1.98542 0
M  V30 4967 H 453.626 3.62331 -4.13517 0
M  V30 4968 H 454.851 4.53134 -5.05812 0
M  V30 4969 H 452.797 5.74344 -3.16962 0
M  V30 4970 H 452.714 5.75643 -4.90073 0
M  V30 4971 H 453.982 6.63204 -4.0961 0
M  V30 4972 N 458.211 1.37122 0.776871 0
M  V30 4973 C 459.158 1.3247 1.88998 0
M  V30 4974 C 460.128 0.191143 1.64997 0
M  V30 4975 O 461.313 0.379683 1.86984 0
M  V30 4976 C 458.453 1.13241 3.25992 0
M  V30 4977 C 457.566 2.35782 3.61982 0
M  V30 4978 C 456.701 2.09465 4.88158 0
M  V30 4979 C 455.74 3.279 5.16864 0
M  V30 4980 N 454.877 3.01167 6.34226 0
M  V30 4981 H 459.717 2.27642 1.9231 0
M  V30 4982 H 457.254 1.13125 0.94027 0
M  V30 4983 H 459.212 1.00115 4.0501 0
M  V30 4984 H 457.842 0.217186 3.22069 0
M  V30 4985 H 456.894 2.59666 2.77989 0
M  V30 4986 H 458.206 3.24125 3.79137 0
M  V30 4987 H 457.36 1.93341 5.75069 0
M  V30 4988 H 456.099 1.18452 4.73097 0
M  V30 4989 H 455.104 3.44569 4.2843 0
M  V30 4990 H 456.329 4.19757 5.33836 0
M  V30 4991 H 454.275 2.12779 6.20533 0
M  V30 4992 H 454.192 3.83052 6.51772 0
M  V30 4993 H 455.46 2.88649 7.24087 0
M  V30 4994 N 459.689 -1.00246 1.21608 0
M  V30 4995 C 460.914 -1.78167 1.06167 0
M  V30 4996 C 461.339 -1.84138 -0.384035 0
M  V30 4997 O 460.697 -1.28683 -1.27712 0
M  V30 4998 C 460.745 -3.19786 1.66642 0
M  V30 4999 O 459.849 -4.02153 0.913613 0
M  V30 5000 H 459.19 -0.549 0.37349 0
M  V30 5001 H 461.72 -1.25994 1.61204 0
M  V30 5002 H 461.73 -3.70451 1.70969 0
M  V30 5003 H 460.405 -3.14754 2.7185 0
M  V30 5004 H 458.982 -3.60711 0.945635 0
M  V30 5005 N 461.167 -1.02423 -1.1978 0
M  V30 5006 C 462.413 -0.719051 -1.89625 0
M  V30 5007 C 462.746 0.750083 -1.7913 0
M  V30 5008 O 462.021 1.54574 -1.18056 0
M  V30 5009 C 462.304 -1.16499 -3.40735 0
M  V30 5010 C 462.157 -2.695 -3.60125 0
M  V30 5011 C 463.476 -0.742166 -4.33797 0
M  V30 5012 H 460.595 -0.26269 -0.688595 0
M  V30 5013 H 463.237 -1.27333 -1.41018 0
M  V30 5014 H 461.387 -0.69341 -3.82262 0
M  V30 5015 H 463.059 -3.24569 -3.278 0
M  V30 5016 H 461.302 -3.10113 -3.03336 0
M  V30 5017 H 461.973 -2.95757 -4.66081 0
M  V30 5018 H 464.449 -1.1477 -3.99959 0
M  V30 5019 H 463.325 -1.08213 -5.38127 0
M  V30 5020 H 463.586 0.355747 -4.40666 0
M  V30 5021 N 462.645 1.35699 -0.801477 0
M  V30 5022 C 463.577 2.28598 -0.166028 0
M  V30 5023 C 464.59 1.50044 0.631721 0
M  V30 5024 O 465.779 1.72339 0.464921 0
M  V30 5025 C 462.879 3.29625 0.787451 0
M  V30 5026 C 462.052 4.37384 0.037171 0
M  V30 5027 C 461.111 5.183 0.908375 0
M  V30 5028 O 460.137 5.68053 0.361189 0
M  V30 5029 N 461.339 5.35912 2.23112 0
M  V30 5030 H 464.104 2.83771 -0.964071 0
M  V30 5031 H 461.665 1.47994 -0.656469 0
M  V30 5032 H 463.657 3.80648 1.37439 0
M  V30 5033 H 462.227 2.75004 1.48632 0
M  V30 5034 H 461.447 3.87364 -0.730935 0
M  V30 5035 H 462.735 5.0653 -0.480109 0
M  V30 5036 H 462.133 4.97125 2.69968 0
M  V30 5037 H 460.69 5.90133 2.76741 0
M  V30 5038 N 464.123 0.554532 1.47522 0
M  V30 5039 C 465.351 0.034257 2.06872 0
M  V30 5040 C 465.766 -1.25826 1.40759 0
M  V30 5041 O 465.123 -1.75425 0.503217 0
M  V30 5042 C 465.174 -0.167827 3.6111 0
M  V30 5043 O 464.895 1.07351 4.24744 0
M  V30 5044 C 466.396 -0.72569 4.3732 0
M  V30 5045 H 463.616 0.0446275 0.669514 0
M  V30 5046 H 466.16 0.767181 1.89564 0
M  V30 5047 H 464.315 -0.850872 3.7794 0
M  V30 5048 H 464.729 0.869563 5.17242 0
M  V30 5049 H 466.203 -0.816394 5.45929 0
M  V30 5050 H 466.68 -1.73635 4.0342 0
M  V30 5051 H 467.286 -0.0784292 4.25228 0
M  V30 5052 N 465.601 -1.54893 0.290851 0
M  V30 5053 C 466.85 -1.99111 -0.322113 0
M  V30 5054 C 467.163 -1.18283 -1.55784 0
M  V30 5055 O 468.369 -1.5272 -2.24475 0
M  V30 5056 C 466.825 -3.54442 -0.624438 0
M  V30 5057 C 466.433 -4.44066 0.592373 0
M  V30 5058 C 468.177 -4.07211 -1.19916 0
M  V30 5059 C 466.084 -5.90812 0.263762 0
M  V30 5060 H 465.014 -0.743712 -0.124133 0
M  V30 5061 H 467.665 -1.79132 0.39797 0
M  V30 5062 H 466.047 -3.70281 -1.40384 0
M  V30 5063 H 467.221 -4.39999 1.36886 0
M  V30 5064 H 465.536 -4.02015 1.08502 0
M  V30 5065 H 468.133 -5.14407 -1.45909 0
M  V30 5066 H 468.476 -3.57196 -2.13815 0
M  V30 5067 H 469.009 -3.94873 -0.481687 0
M  V30 5068 H 465.748 -6.44955 1.17105 0
M  V30 5069 H 465.268 -5.97911 -0.475655 0
M  V30 5070 H 466.947 -6.46852 -0.138354 0
M  V30 5071 N 467.08 -0.0183926 -1.57589 0
M  V30 5072 C 468.305 0.676634 -1.96052 0
M  V30 5073 C 468.73 1.6548 -0.894307 0
M  V30 5074 O 468.088 1.80712 0.145849 0
M  V30 5075 C 468.136 1.36872 -3.33614 0
M  V30 5076 O 467.24 2.48372 -3.29219 0
M  V30 5077 H 466.581 0.1786 -0.63953 0
M  V30 5078 H 469.111 -0.077056 -2.04455 0
M  V30 5079 H 469.121 1.72797 -3.69601 0
M  V30 5080 H 467.796 0.651636 -4.10763 0
M  V30 5081 H 466.373 2.14639 -3.04934 0
M  V30 5082 N 468.558 1.5553 0.254621 0
M  V30 5083 C 469.506 1.9048 1.33492 0
M  V30 5084 C 470.5 0.78304 1.50216 0
M  V30 5085 O 471.706 0.967582 1.51782 0
M  V30 5086 H 468.081 0.604846 0.44684 0
M  V30 5087 H 470.052 2.80688 1.01275 0
M  V30 5088 C 468.801 2.20928 2.68489 0
M  V30 5089 H 468.124 3.06742 2.56417 0
M  V30 5090 H 469.564 2.49291 3.42972 0
M  V30 5091 C 468.023 1.023 3.20993 0
M  V30 5092 O 468.553 0.267027 4.00811 0
M  V30 5093 N 466.759 0.815714 2.78917 0
M  V30 5094 H 466.306 1.43217 2.14119 0
M  V30 5095 H 466.264 0.0236532 3.14391 0
M  V30 5096 N 470.036 -0.519951 1.48776 0
M  V30 5097 C 470.946 -1.65025 1.66745 0
M  V30 5098 C 471.962 -1.6508 0.549954 0
M  V30 5099 O 473.138 -1.83848 0.822295 0
M  V30 5100 C 470.203 -3.0146 1.71238 0
M  V30 5101 C 469.264 -3.12182 2.94688 0
M  V30 5102 C 468.497 -4.42109 2.98958 0
M  V30 5103 O 468.72 -5.29799 2.1135 0
M  V30 5104 O 467.654 -4.57406 3.91233 0
M  V30 5105 H 471.48 -1.52801 2.62461 0
M  V30 5106 H 469.065 -0.694157 1.32294 0
M  V30 5107 H 470.947 -3.82584 1.76657 0
M  V30 5108 H 469.622 -3.13988 0.786975 0
M  V30 5109 H 468.529 -2.30316 2.94797 0
M  V30 5110 H 469.862 -3.04574 3.86646 0
M  V30 5111 N 471.514 -1.37532 -0.769588 0
M  V30 5112 C 472.446 -1.29347 -1.89214 0
M  V30 5113 C 473.459 -0.208842 -1.61455 0
M  V30 5114 O 474.648 -0.465158 -1.72333 0
M  V30 5115 C 471.748 -0.977649 -3.24492 0
M  V30 5116 C 470.921 -2.16817 -3.7988 0
M  V30 5117 C 469.98 -1.82229 -4.93639 0
M  V30 5118 O 469.006 -2.54548 -5.09111 0
M  V30 5119 N 470.208 -0.767696 -5.75401 0
M  V30 5120 H 472.973 -2.26073 -1.96751 0
M  V30 5121 H 470.534 -1.31185 -0.948795 0
M  V30 5122 H 472.526 -0.727065 -3.98115 0
M  V30 5123 H 471.096 -0.0988777 -3.12444 0
M  V30 5124 H 470.316 -2.58038 -2.9801 0
M  V30 5125 H 471.604 -2.96308 -4.13617 0
M  V30 5126 H 471.002 -0.167626 -5.65452 0
M  V30 5127 H 469.559 -0.576973 -6.49241 0
M  V30 5128 N 472.992 0.995999 -1.22138 0
M  V30 5129 C 474.408 1.25917 -0.980667 0
M  V30 5130 C 474.608 1.98819 0.327604 0
M  V30 5131 O 473.664 2.29587 1.05101 0
M  V30 5132 C 474.977 2.07399 -2.17729 0
M  V30 5133 C 476.525 2.20594 -2.22052 0
M  V30 5134 C 477 3.05462 -3.41258 0
M  V30 5135 N 478.491 3.13049 -3.41401 0
M  V30 5136 C 479.226 3.78997 -4.30289 0
M  V30 5137 N 478.722 4.46899 -5.2939 0
M  V30 5138 N 480.515 3.75728 -4.18073 0
M  V30 5139 H 472.666 0.507158 -2.06256 0
M  V30 5140 H 474.929 0.28658 -0.903646 0
M  V30 5141 H 474.635 1.61191 -3.12586 0
M  V30 5142 H 474.509 3.08154 -2.17534 0
M  V30 5143 H 476.896 2.66017 -1.27745 0
M  V30 5144 H 476.977 1.1928 -2.26287 0
M  V30 5145 H 476.621 2.60739 -4.35864 0
M  V30 5146 H 476.551 4.06911 -3.34262 0
M  V30 5147 H 479.042 2.64721 -2.69688 0
M  V30 5148 H 479.355 4.94952 -5.935 0
M  V30 5149 H 477.7 4.45657 -5.33306 0
M  V30 5150 H 480.891 3.2184 -3.39907 0
M  V30 5151 H 481.064 4.26845 -4.87553 0
M  V30 5152 N 474.47 1.03057 1.19235 0
M  V30 5153 C 475.433 0.617418 2.20727 0
M  V30 5154 C 476.433 -0.319856 1.57587 0
M  V30 5155 O 477.623 -0.106633 1.73873 0
M  V30 5156 C 474.755 -0.096296 3.40764 0
M  V30 5157 H 475.948 1.51544 2.58794 0
M  V30 5158 H 473.501 0.821949 1.32942 0
M  V30 5159 H 474.236 -1.00859 3.08217 0
M  V30 5160 H 474.021 0.577217 3.87828 0
M  V30 5161 H 475.511 -0.372219 4.15938 0
M  V30 5162 N 475.948 -1.35272 0.808662 0
M  V30 5163 C 477.173 -2.03477 0.401475 0
M  V30 5164 C 477.598 -1.60537 -0.980279 0
M  V30 5165 O 476.956 -0.78304 -1.63518 0
M  V30 5166 C 477.004 -3.57181 0.495354 0
M  V30 5167 O 476.108 -4.09474 -0.490397 0
M  V30 5168 H 475.449 -0.642561 0.167366 0
M  V30 5169 H 477.979 -1.72824 1.09512 0
M  V30 5170 H 477.989 -4.06356 0.365912 0
M  V30 5171 H 476.664 -3.87784 1.5032 0
M  V30 5172 H 475.241 -3.71516 -0.321023 0
M  V30 5173 N 477.426 -0.562348 -1.47226 0
M  V30 5174 C 478.373 0.182461 -2.30078 0
M  V30 5175 C 479.343 0.903503 -1.39377 0
M  V30 5176 O 480.528 0.898188 -1.68337 0
M  V30 5177 C 477.668 1.20322 -3.23445 0
M  V30 5178 C 476.781 0.487717 -4.29238 0
M  V30 5179 C 475.916 1.49422 -5.09752 0
M  V30 5180 C 474.955 0.763976 -6.07314 0
M  V30 5181 N 474.092 1.71755 -6.80768 0
M  V30 5182 H 478.932 -0.530169 -2.93246 0
M  V30 5183 H 476.469 -0.273276 -1.44539 0
M  V30 5184 H 478.427 1.80768 -3.76004 0
M  V30 5185 H 477.057 1.88382 -2.6213 0
M  V30 5186 H 476.109 -0.231374 -3.79696 0
M  V30 5187 H 477.421 -0.0841003 -4.98729 0
M  V30 5188 H 476.575 2.17206 -5.66486 0
M  V30 5189 H 475.314 2.09995 -4.40174 0
M  V30 5190 H 474.319 0.0722344 -5.49753 0
M  V30 5191 H 475.544 0.16391 -6.78902 0
M  V30 5192 H 473.49 2.31177 -6.13916 0
M  V30 5193 H 473.407 1.19802 -7.46447 0
M  V30 5194 H 474.675 2.38638 -7.42073 0
M  V30 5195 N 478.904 1.54736 -0.299062 0
M  V30 5196 C 480.15 2.00397 0.311244 0
M  V30 5197 C 480.483 1.18716 1.53688 0
M  V30 5198 O 479.758 0.263154 1.92712 0
M  V30 5199 C 480.041 3.53817 0.669761 0
M  V30 5200 C 479.894 4.46239 -0.564882 0
M  V30 5201 C 481.213 4.13856 1.49702 0
M  V30 5202 H 478.332 0.728493 0.111653 0
M  V30 5203 H 480.974 1.85506 -0.410774 0
M  V30 5204 H 479.124 3.66637 1.28491 0
M  V30 5205 H 480.796 4.45328 -1.20337 0
M  V30 5206 H 479.039 4.16916 -1.19849 0
M  V30 5207 H 479.71 5.5134 -0.269918 0
M  V30 5208 H 482.186 4.04461 0.977284 0
M  V30 5209 H 481.062 5.21365 1.71666 0
M  V30 5210 H 481.323 3.65608 2.48563 0
M  V30 5211 N 480.382 0.0267497 1.57577 0
M  V30 5212 C 481.312 -0.954308 2.13108 0
M  V30 5213 C 482.293 -1.34088 1.04663 0
M  V30 5214 O 483.478 -1.41992 1.32484 0
M  V30 5215 C 480.608 -2.23744 2.65624 0
M  V30 5216 C 479.562 -1.99168 3.78835 0
M  V30 5217 C 478.888 -3.33726 4.17769 0
M  V30 5218 C 480.188 -1.33277 5.0501 0
M  V30 5219 H 481.882 -0.491848 2.95332 0
M  V30 5220 H 479.428 -0.23514 1.42067 0
M  V30 5221 H 481.381 -2.92754 3.03106 0
M  V30 5222 H 480.105 -2.72151 1.80558 0
M  V30 5223 H 478.764 -1.32577 3.41788 0
M  V30 5224 H 478.412 -3.79888 3.29688 0
M  V30 5225 H 478.112 -3.18089 4.94058 0
M  V30 5226 H 479.636 -4.04008 4.57832 0
M  V30 5227 H 481.05 -1.92283 5.40093 0
M  V30 5228 H 479.447 -1.28045 5.8628 0
M  V30 5229 H 480.517 -0.305411 4.83937 0
M  V30 5230 N 481.861 -1.55662 -0.24637 0
M  V30 5231 C 483.109 -1.77168 -0.972411 0
M  V30 5232 C 483.43 -0.590827 -1.85834 0
M  V30 5233 O 482.7 0.393365 -1.9191 0
M  V30 5234 H 481.28 -0.653405 -0.362038 0
M  V30 5235 H 483.942 -1.93101 -0.264189 0
M  V30 5236 H 483.038 -2.68335 -1.59382 0
M  V30 5237 N 483.339 0.512053 -1.4905 0
M  V30 5238 C 484.588 1.26343 -1.57227 0
M  V30 5239 C 484.901 1.93876 -0.259155 0
M  V30 5240 O 486.107 2.70612 -0.219358 0
M  V30 5241 C 484.563 2.29343 -2.77362 0
M  V30 5242 C 484.171 1.67799 -4.15388 0
M  V30 5243 C 485.915 3.05378 -2.94864 0
M  V30 5244 C 483.822 2.68845 -5.2676 0
M  V30 5245 H 482.752 0.475231 -0.585382 0
M  V30 5246 H 485.403 0.53862 -1.75417 0
M  V30 5247 H 483.785 3.04938 -2.52643 0
M  V30 5248 H 484.959 0.982715 -4.50199 0
M  V30 5249 H 483.274 1.04194 -4.03153 0
M  V30 5250 H 485.871 3.80921 -3.75238 0
M  V30 5251 H 486.214 3.62327 -2.05 0
M  V30 5252 H 486.747 2.36898 -3.19569 0
M  V30 5253 H 483.486 2.16692 -6.18647 0
M  V30 5254 H 483.006 3.36647 -4.96416 0
M  V30 5255 H 484.685 3.31487 -5.5563 0
M  V30 5256 N 484.817 1.37938 0.762283 0
M  V30 5257 C 486.063 1.33866 1.52341 0
M  V30 5258 C 486.396 -0.0738961 1.94059 0
M  V30 5259 O 485.671 -1.03326 1.64785 0
M  V30 5260 C 485.954 2.28644 2.78197 0
M  V30 5261 C 485.807 3.78722 2.42672 0
M  V30 5262 C 487.126 2.21702 3.80179 0
M  V30 5263 H 484.245 0.487593 0.55265 0
M  V30 5264 H 486.887 1.68717 0.873767 0
M  V30 5265 H 485.037 1.99055 3.33631 0
M  V30 5266 H 486.709 4.18948 1.93081 0
M  V30 5267 H 484.952 3.96827 1.75244 0
M  V30 5268 H 485.623 4.40486 3.3268 0
M  V30 5269 H 488.099 2.47805 3.34263 0
M  V30 5270 H 486.975 2.90143 4.65949 0
M  V30 5271 H 487.236 1.21301 4.25133 0
M  V30 5272 N 486.295 -0.989507 1.22664 0
M  V30 5273 C 487.542 -1.72953 1.05325 0
M  V30 5274 C 487.87 -1.90104 -0.411168 0
M  V30 5275 O 487.125 -1.44386 -1.32103 0
M  V30 5276 C 487.424 -3.13649 1.71345 0
M  V30 5277 C 487.09 -3.16403 3.21248 0
M  V30 5278 C 485.752 -3.16862 3.62149 0
M  V30 5279 C 488.104 -3.12428 4.17179 0
M  V30 5280 C 485.432 -3.11051 4.97458 0
M  V30 5281 C 487.784 -3.08159 5.52468 0
M  V30 5282 C 486.448 -3.06935 5.92746 0
M  V30 5283 H 485.718 -0.632881 0.385412 0
M  V30 5284 H 488.365 -1.15863 1.52473 0
M  V30 5285 H 486.67 -3.74069 1.16532 0
M  V30 5286 H 488.367 -3.69658 1.55416 0
M  V30 5287 H 484.957 -3.16798 2.88682 0
M  V30 5288 H 489.141 -3.11221 3.86595 0
M  V30 5289 H 484.397 -3.0845 5.27891 0
M  V30 5290 H 488.571 -3.04039 6.26525 0
M  V30 5291 H 486.198 -3.02186 6.97558 0
M  V30 5292 N 487.773 -1.03688 -1.18687 0
M  V30 5293 C 489.02 -0.73803 -1.88572 0
M  V30 5294 C 489.348 0.733973 -1.8012 0
M  V30 5295 O 488.603 1.55098 -1.19344 0
M  V30 5296 C 488.902 -1.14477 -3.3857 0
M  V30 5297 C 488.568 -2.61641 -3.67226 0
M  V30 5298 C 487.23 -3.01846 -3.74757 0
M  V30 5299 C 489.582 -3.56812 -3.79914 0
M  V30 5300 C 486.91 -4.36118 -3.92451 0
M  V30 5301 C 489.262 -4.90799 -3.99123 0
M  V30 5302 C 487.926 -5.3068 -4.04888 0
M  V30 5303 H 487.196 -0.270064 -0.690034 0
M  V30 5304 H 489.843 -1.3012 -1.40503 0
M  V30 5305 H 488.148 -0.500337 -3.88592 0
M  V30 5306 H 489.845 -0.89095 -3.90977 0
M  V30 5307 H 486.435 -2.29498 -3.61979 0
M  V30 5308 H 490.619 -3.26899 -3.73431 0
M  V30 5309 H 485.875 -4.66542 -3.95157 0
M  V30 5310 H 490.049 -5.64451 -4.07882 0
M  V30 5311 H 487.676 -6.34733 -4.18351 0
M  V30 5312 N 489.251 1.34841 -0.815825 0
M  V30 5313 C 490.181 2.32187 -0.247298 0
M  V30 5314 C 491.162 1.5791 0.632344 0
M  V30 5315 O 492.347 1.8593 0.560698 0
M  V30 5316 C 489.477 3.42122 0.597466 0
M  V30 5317 C 488.431 4.27602 -0.184446 0
M  V30 5318 C 487.757 5.28942 0.782609 0
M  V30 5319 C 489.057 5.03502 -1.38865 0
M  V30 5320 H 490.751 2.79985 -1.06061 0
M  V30 5321 H 488.297 1.34611 -0.511461 0
M  V30 5322 H 490.25 4.09232 1.00533 0
M  V30 5323 H 488.974 2.92956 1.44376 0
M  V30 5324 H 487.633 3.62085 -0.573592 0
M  V30 5325 H 487.281 4.7604 1.62466 0
M  V30 5326 H 486.981 5.87008 0.263695 0
M  V30 5327 H 488.505 5.98922 1.18848 0
M  V30 5328 H 489.919 5.63506 -1.05518 0
M  V30 5329 H 488.316 5.71108 -1.8427 0
M  V30 5330 H 489.386 4.33608 -2.17054 0
M  V30 5331 N 490.729 0.570148 1.46925 0
M  V30 5332 C 491.976 0.0509529 2.02436 0
M  V30 5333 C 492.304 -1.30405 1.44308 0
M  V30 5334 O 491.559 -1.86493 0.593198 0
M  V30 5335 C 491.858 -0.0780336 3.57315 0
M  V30 5336 C 491.524 1.20775 4.34424 0
M  V30 5337 C 490.186 1.56004 4.5521 0
M  V30 5338 C 492.538 2.0592 4.78797 0
M  V30 5339 C 489.866 2.76201 5.17619 0
M  V30 5340 C 492.218 3.25332 5.42533 0
M  V30 5341 C 490.882 3.60859 5.61549 0
M  V30 5342 H 490.152 0.018645 0.740765 0
M  V30 5343 H 492.799 0.744262 1.76445 0
M  V30 5344 H 491.104 -0.854394 3.82371 0
M  V30 5345 H 492.801 -0.495312 3.97929 0
M  V30 5346 H 489.391 0.923469 4.18533 0
M  V30 5347 H 493.575 1.80008 4.62505 0
M  V30 5348 H 488.831 3.0388 5.30535 0
M  V30 5349 H 493.005 3.91586 5.75876 0
M  V30 5350 H 490.632 4.54088 6.09678 0
M  V30 5351 N 492.207 -1.54576 0.307264 0
M  V30 5352 C 493.137 -2.26708 -0.55907 0
M  V30 5353 C 494.118 -1.26893 -1.1328 0
M  V30 5354 O 495.303 -1.55677 -1.16097 0
M  V30 5355 C 492.433 -3.01259 -1.72801 0
M  V30 5356 C 491.387 -4.08275 -1.28435 0
M  V30 5357 C 490.713 -4.70575 -2.53895 0
M  V30 5358 C 492.013 -5.2068 -0.411038 0
M  V30 5359 H 493.707 -2.9937 0.042576 0
M  V30 5360 H 491.253 -1.43983 0.0219173 0
M  V30 5361 H 493.206 -3.50444 -2.34023 0
M  V30 5362 H 491.93 -2.26187 -2.356 0
M  V30 5363 H 490.589 -3.59949 -0.695161 0
M  V30 5364 H 490.237 -3.92136 -3.15021 0
M  V30 5365 H 489.937 -5.42854 -2.24908 0
M  V30 5366 H 491.461 -5.22527 -3.15908 0
M  V30 5367 H 492.875 -5.65721 -0.929097 0
M  V30 5368 H 491.272 -5.99716 -0.214664 0
M  V30 5369 H 492.342 -4.81629 0.562287 0
M  V30 5370 N 493.685 -0.035106 -1.57561 0
M  V30 5371 C 494.615 0.942993 -2.13612 0
M  V30 5372 C 495.596 1.33531 -1.05373 0
M  V30 5373 O 496.781 1.41287 -1.33235 0
M  V30 5374 C 493.911 2.22332 -2.66807 0
M  V30 5375 C 492.865 1.97156 -3.79886 0
M  V30 5376 C 492.191 3.31506 -4.19533 0
M  V30 5377 C 493.491 1.30596 -5.05709 0
M  V30 5378 H 495.185 0.476179 -2.95589 0
M  V30 5379 H 492.731 0.227602 -1.4219 0
M  V30 5380 H 494.684 2.91142 -3.04654 0
M  V30 5381 H 493.408 2.7119 -1.81999 0
M  V30 5382 H 492.067 1.30763 -3.42486 0
M  V30 5383 H 491.715 3.78134 -3.31698 0
M  V30 5384 H 491.415 3.15465 -4.95738 0
M  V30 5385 H 492.939 4.01574 -4.59968 0
M  V30 5386 H 494.353 1.89416 -5.41105 0
M  V30 5387 H 492.75 1.24934 -5.86951 0
M  V30 5388 H 493.82 0.279742 -4.84092 0
M  V30 5389 N 495.163 1.55791 0.238111 0
M  V30 5390 C 496.096 1.86036 1.32158 0
M  V30 5391 C 497.074 0.716216 1.45976 0
M  V30 5392 O 498.258 0.962882 1.62052 0
M  V30 5393 C 495.385 2.05281 2.69402 0
M  V30 5394 C 494.431 3.27939 2.72687 0
M  V30 5395 S 495.264 4.84342 2.28413 0
M  V30 5396 C 496.42 5.06604 3.67565 0
M  V30 5397 H 496.653 2.77644 1.06306 0
M  V30 5398 H 494.186 1.48012 0.439537 0
M  V30 5399 H 496.144 2.17053 3.48423 0
M  V30 5400 H 494.805 1.14499 2.92487 0
M  V30 5401 H 493.998 3.38398 3.73501 0
M  V30 5402 H 493.6 3.14938 2.01717 0
M  V30 5403 H 495.892 4.94486 4.6313 0
M  V30 5404 H 496.835 6.08554 3.62033 0
M  V30 5405 H 497.243 4.34409 3.60485 0
M  V30 5406 N 496.642 -0.504142 1.49319 0
M  V30 5407 C 497.888 -1.25767 1.59857 0
M  V30 5408 C 498.243 -1.90348 0.280262 0
M  V30 5409 O 497.536 -1.77588 -0.719241 0
M  V30 5410 C 497.73 -2.35021 2.69258 0
M  V30 5411 C 497.559 -1.81154 4.11598 0
M  V30 5412 C 496.329 -1.62596 4.78425 0
M  V30 5413 C 498.527 -1.3252 4.96934 0
M  V30 5414 N 496.509 -1.03625 6.05091 0
M  V30 5415 C 497.88 -0.856633 6.14054 0
M  V30 5416 C 499.935 -1.21063 4.82958 0
M  V30 5417 C 498.638 -0.284841 7.18736 0
M  V30 5418 C 500.664 -0.652815 5.87786 0
M  V30 5419 C 500.026 -0.194461 7.04132 0
M  V30 5420 H 496.125 -0.450293 0.639343 0
M  V30 5421 H 498.709 -0.565344 1.86311 0
M  V30 5422 H 496.88 -3.01719 2.44581 0
M  V30 5423 H 498.612 -3.02061 2.69335 0
M  V30 5424 H 495.367 -1.86873 4.35173 0
M  V30 5425 H 495.791 -0.76076 6.72712 0
M  V30 5426 H 500.433 -1.551 3.93324 0
M  V30 5427 H 498.151 0.0677979 8.08072 0
M  V30 5428 H 501.737 -0.566994 5.79031 0
M  V30 5429 H 500.617 0.230442 7.83861 0
M  V30 5430 N 498.12 -1.38341 -0.754957 0
M  V30 5431 C 499.36 -1.35888 -1.52689 0
M  V30 5432 C 499.724 0.0513682 -1.91931 0
M  V30 5433 O 500.925 0.200761 -2.68049 0
M  V30 5434 C 499.196 -2.28666 -2.74676 0
M  V30 5435 S 500.755 -2.4422 -3.64558 0
M  V30 5436 H 497.573 -0.482165 -0.522531 0
M  V30 5437 H 500.175 -1.74253 -0.886358 0
M  V30 5438 H 498.879 -3.30023 -2.43953 0
M  V30 5439 H 498.41 -1.91445 -3.43675 0
M  V30 5440 H 500.425 -1.66525 -4.67423 0
M  V30 5441 N 499.598 0.982988 -1.23187 0
M  V30 5442 C 501.009 1.53847 -1.05773 0
M  V30 5443 C 501.36 1.92568 0.375744 0
M  V30 5444 O 500.485 1.75783 1.26211 0
M  V30 5445 C 501.08 2.79567 -1.91384 0
M  V30 5446 C 499.639 3.31524 -1.78238 0
M  V30 5447 C 498.786 2.04534 -1.87246 0
M  V30 5448 H 501.737 0.802962 -1.36888 0
M  V30 5449 H 501.758 3.52317 -1.43711 0
M  V30 5450 H 501.27 2.51353 -2.95708 0
M  V30 5451 H 499.371 3.64623 -0.766875 0
M  V30 5452 H 499.484 4.01457 -2.61475 0
M  V30 5453 H 497.848 2.1855 -1.30797 0
M  V30 5454 H 498.631 1.78706 -2.9312 0
M  V30 5455 N 501.076 1.04316 1.18135 0
M  V30 5456 C 502.323 0.74802 1.88178 0
M  V30 5457 C 502.651 -0.72441 1.80506 0
M  V30 5458 O 501.906 -1.54463 1.20165 0
M  V30 5459 C 502.205 1.16271 3.37958 0
M  V30 5460 C 501.871 2.63585 3.65833 0
M  V30 5461 C 500.533 3.03829 3.73151 0
M  V30 5462 C 502.885 3.58822 3.78016 0
M  V30 5463 C 500.213 4.38194 3.90132 0
M  V30 5464 C 502.565 4.92909 3.96514 0
M  V30 5465 C 501.229 5.3282 4.02068 0
M  V30 5466 H 500.499 0.27372 0.688592 0
M  V30 5467 H 503.146 1.30863 1.39811 0
M  V30 5468 H 501.451 0.520938 3.88321 0
M  V30 5469 H 503.148 0.911672 3.90499 0
M  V30 5470 H 499.738 2.31414 3.60757 0
M  V30 5471 H 503.922 3.28875 3.71692 0
M  V30 5472 H 499.178 4.68631 3.92677 0
M  V30 5473 H 503.352 5.66606 4.04883 0
M  V30 5474 H 500.979 6.36943 4.14979 0
M  V30 5475 N 502.554 -1.34406 0.822964 0
M  V30 5476 C 503.801 -1.98284 0.411057 0
M  V30 5477 C 504.129 -1.65245 -1.02588 0
M  V30 5478 O 503.384 -0.91619 -1.72929 0
M  V30 5479 C 503.683 -3.52981 0.560268 0
M  V30 5480 C 503.349 -4.05931 1.96293 0
M  V30 5481 C 502.011 -4.20103 2.34664 0
M  V30 5482 C 504.363 -4.34412 2.87985 0
M  V30 5483 C 501.691 -4.60082 3.64062 0
M  V30 5484 C 504.043 -4.75838 4.16847 0
M  V30 5485 C 502.707 -4.88215 4.55195 0
M  V30 5486 H 501.977 -0.725573 0.150416 0
M  V30 5487 H 504.624 -1.60349 1.04692 0
M  V30 5488 H 502.929 -3.91477 -0.158982 0
M  V30 5489 H 504.626 -4.00385 0.222087 0
M  V30 5490 H 501.216 -3.95363 1.65487 0
M  V30 5491 H 505.4 -4.23001 2.59584 0
M  V30 5492 H 500.656 -4.67856 3.93599 0
M  V30 5493 H 504.83 -4.96834 4.87984 0
M  V30 5494 H 502.457 -5.18952 5.55512 0
M  V30 5495 N 504.032 -0.577932 -1.46621 0
M  V30 5496 C 505.281 -0.0594281 -2.01612 0
M  V30 5497 C 505.594 1.30663 -1.45556 0
M  V30 5498 O 506.8 1.91621 -1.92337 0
M  V30 5499 C 505.256 -0.0556666 -3.59857 0
M  V30 5500 C 504.864 -1.41975 -4.24908 0
M  V30 5501 C 506.608 0.409143 -4.22524 0
M  V30 5502 C 504.515 -1.37397 -5.75218 0
M  V30 5503 H 503.445 -0.0184469 -0.753774 0
M  V30 5504 H 506.096 -0.728869 -1.68404 0
M  V30 5505 H 504.478 0.679843 -3.90121 0
M  V30 5506 H 505.652 -2.17461 -4.0626 0
M  V30 5507 H 503.967 -1.82419 -3.74316 0
M  V30 5508 H 506.564 0.46211 -5.32699 0
M  V30 5509 H 506.907 1.42565 -3.91128 0
M  V30 5510 H 507.44 -0.272152 -3.96868 0
M  V30 5511 H 504.179 -2.36714 -6.11267 0
M  V30 5512 H 503.699 -0.661239 -5.96144 0
M  V30 5513 H 505.378 -1.08484 -6.3784 0
M  V30 5514 N 505.51 1.54411 -0.315457 0
M  V30 5515 C 506.738 2.04833 0.291738 0
M  V30 5516 C 507.153 1.19203 1.46411 0
M  V30 5517 O 506.51 0.220867 1.81159 0
M  V30 5518 C 506.561 3.53969 0.73404 0
M  V30 5519 O 506.282 4.36346 -0.391682 0
M  V30 5520 C 507.783 4.2045 1.40489 0
M  V30 5521 H 505.003 0.668195 0.0612947 0
M  V30 5522 H 507.547 1.99276 -0.45929 0
M  V30 5523 H 505.702 3.5984 1.43506 0
M  V30 5524 H 506.116 5.24481 -0.0447088 0
M  V30 5525 H 507.59 5.26278 1.66539 0
M  V30 5526 H 508.067 3.71067 2.3496 0
M  V30 5527 H 508.673 4.18694 0.746662 0
M  V30 5528 N 506.988 0.0434614 1.5754 0
M  V30 5529 C 507.936 -0.951465 2.1225 0
M  V30 5530 C 508.93 -1.3274 1.05245 0
M  V30 5531 O 510.136 -1.30795 1.23663 0
M  V30 5532 H 506.511 -0.324667 0.678303 0
M  V30 5533 H 508.482 -0.464855 2.94757 0
M  V30 5534 C 507.231 -2.21972 2.67626 0
M  V30 5535 H 506.554 -1.93923 3.4962 0
M  V30 5536 H 507.994 -2.89765 3.09536 0
M  V30 5537 C 506.453 -2.95919 1.61038 0
M  V30 5538 O 506.983 -3.8857 1.01862 0
M  V30 5539 N 505.189 -2.58511 1.32741 0
M  V30 5540 H 504.736 -1.83244 1.81051 0
M  V30 5541 H 504.694 -3.08296 0.616531 0
M  V30 5542 N 508.466 -1.55915 -0.229846 0
M  V30 5543 C 509.715 -1.77742 -0.953455 0
M  V30 5544 C 510.028 -0.610524 -1.85828 0
M  V30 5545 O 511.234 -0.712219 -2.61992 0
M  V30 5546 C 509.69 -3.14738 -1.74551 0
M  V30 5547 C 509.298 -4.39126 -0.887242 0
M  V30 5548 C 511.042 -3.45895 -2.46084 0
M  V30 5549 C 508.949 -5.67149 -1.67617 0
M  V30 5550 H 507.879 -0.662648 -0.359741 0
M  V30 5551 H 510.53 -1.82322 -0.207576 0
M  V30 5552 H 508.912 -3.04311 -2.53399 0
M  V30 5553 H 510.086 -4.60588 -0.139892 0
M  V30 5554 H 508.401 -4.15427 -0.284443 0
M  V30 5555 H 510.998 -4.38767 -3.05594 0
M  V30 5556 H 511.341 -2.68007 -3.18556 0
M  V30 5557 H 511.874 -3.57614 -1.74233 0
M  V30 5558 H 508.613 -6.47906 -0.994881 0
M  V30 5559 H 508.133 -5.49763 -2.39836 0
M  V30 5560 H 509.812 -6.07025 -2.23898 0
M  V30 5561 N 509.944 0.496216 -1.49584 0
M  V30 5562 C 511.172 1.27394 -1.63029 0
M  V30 5563 C 511.587 1.86344 -0.303569 0
M  V30 5564 O 510.944 1.68057 0.711547 0
M  V30 5565 C 510.995 2.40077 -2.70269 0
M  V30 5566 O 510.716 1.83549 -3.97796 0
M  V30 5567 C 512.217 3.31372 -2.94462 0
M  V30 5568 H 509.437 0.386211 -0.54871 0
M  V30 5569 H 511.981 0.595163 -1.95648 0
M  V30 5570 H 510.136 3.03775 -2.40415 0
M  V30 5571 H 510.55 2.57561 -4.56905 0
M  V30 5572 H 512.024 4.06707 -3.73221 0
M  V30 5573 H 512.501 3.88654 -2.0456 0
M  V30 5574 H 513.107 2.73435 -3.25751 0
M  V30 5575 N 511.423 1.38739 0.74761 0
M  V30 5576 C 512.353 1.39173 1.87492 0
M  V30 5577 C 513.334 0.256794 1.6815 0
M  V30 5578 O 514.519 0.460762 1.88655 0
M  V30 5579 C 511.649 1.22197 3.25093 0
M  V30 5580 C 510.603 2.32957 3.59047 0
M  V30 5581 C 509.929 2.01082 4.95449 0
M  V30 5582 C 511.229 3.75237 3.6331 0
M  V30 5583 H 512.923 2.3351 1.87386 0
M  V30 5584 H 510.469 1.12399 0.900134 0
M  V30 5585 H 512.422 1.21124 4.03617 0
M  V30 5586 H 511.146 0.243241 3.25693 0
M  V30 5587 H 509.805 2.33226 2.82845 0
M  V30 5588 H 509.453 1.01678 4.92616 0
M  V30 5589 H 509.153 2.75267 5.19136 0
M  V30 5590 H 510.677 2.01638 5.76346 0
M  V30 5591 H 512.091 3.76966 4.31937 0
M  V30 5592 H 510.488 4.48677 3.98509 0
M  V30 5593 H 511.558 4.07122 2.634 0
M  V30 5594 N 512.901 -0.976442 1.23707 0
M  V30 5595 C 514.147 -1.72081 1.07312 0
M  V30 5596 C 514.48 -1.90275 -0.388476 0
M  V30 5597 O 513.755 -1.4579 -1.28746 0
M  V30 5598 C 514.038 -3.11675 1.80363 0
M  V30 5599 C 513.891 -3.01027 3.3422 0
M  V30 5600 C 515.21 -4.1117 1.5693 0
M  V30 5601 H 512.329 -0.624583 0.391236 0
M  V30 5602 H 514.971 -1.13649 1.52263 0
M  V30 5603 H 513.121 -3.61559 1.42153 0
M  V30 5604 H 514.793 -2.58637 3.81975 0
M  V30 5605 H 513.036 -2.3744 3.63049 0
M  V30 5606 H 513.707 -3.9988 3.80525 0
M  V30 5607 H 516.183 -3.7011 1.90151 0
M  V30 5608 H 515.059 -5.06928 2.10513 0
M  V30 5609 H 515.32 -4.392 0.505548 0
M  V30 5610 N 514.379 -1.04941 -1.1758 0
M  V30 5611 C 515.309 -0.669172 -2.23706 0
M  V30 5612 C 516.29 0.331835 -1.66832 0
M  V30 5613 O 517.475 0.209988 -1.93061 0
M  V30 5614 C 514.605 -0.0404889 -3.47276 0
M  V30 5615 C 513.559 -0.965983 -4.16957 0
M  V30 5616 C 512.885 -0.201312 -5.34321 0
M  V30 5617 C 514.185 -2.28902 -4.69469 0
M  V30 5618 H 515.879 -1.55639 -2.55767 0
M  V30 5619 H 513.425 -0.749793 -1.22939 0
M  V30 5620 H 515.378 0.237298 -4.20731 0
M  V30 5621 H 514.102 0.881658 -3.14475 0
M  V30 5622 H 512.761 -1.22829 -3.45411 0
M  V30 5623 H 512.409 0.723519 -4.97769 0
M  V30 5624 H 512.109 -0.817968 -5.81879 0
M  V30 5625 H 513.633 0.0692499 -6.10561 0
M  V30 5626 H 515.047 -2.07132 -5.34574 0
M  V30 5627 H 513.444 -2.85942 -5.27596 0
M  V30 5628 H 514.514 -2.92937 -3.86414 0
M  V30 5629 N 515.857 1.33968 -0.830081 0
M  V30 5630 C 517.097 1.99879 -0.427521 0
M  V30 5631 C 517.461 1.64355 0.992546 0
M  V30 5632 O 518.662 2.23164 1.49837 0
M  V30 5633 C 516.933 3.51771 -0.631815 0
M  V30 5634 S 518.492 4.37608 -0.323168 0
M  V30 5635 H 515.31 0.692485 -0.161202 0
M  V30 5636 H 517.912 1.63129 -1.07745 0
M  V30 5637 H 516.616 3.75113 -1.66488 0
M  V30 5638 H 516.147 3.93386 0.0325936 0
M  V30 5639 H 518.162 4.88683 0.860432 0
M  V30 5640 N 517.335 0.585699 1.46312 0
M  V30 5641 C 518.612 0.00542031 1.95599 0
M  V30 5642 C 518.992 -1.45619 1.52834 0
M  V30 5643 O 518.34 -2.14759 0.780446 0
M  V30 5644 C 518.55 0.180601 3.48532 0
M  V30 5645 C 519.898 0.049979 4.24571 0
M  V30 5646 O 520.922 0.109589 3.56031 0
M  V30 5647 O 519.781 -0.0832226 5.46437 0
M  V30 5648 H 516.875 -0.0481281 0.825598 0
M  V30 5649 H 519.421 0.654227 1.56582 0
M  V30 5650 H 518.193 1.19657 3.72556 0
M  V30 5651 H 517.816 -0.504498 3.94386 0
M  V30 5652 N 518.813 -1.54241 0.323641 0
M  V30 5653 C 520.038 -2.05452 -0.283605 0
M  V30 5654 C 520.463 -1.19823 -1.44997 0
M  V30 5655 O 519.821 -0.207358 -1.8011 0
M  V30 5656 C 519.869 -3.53823 -0.695795 0
M  V30 5657 O 518.973 -3.71134 -1.79815 0
M  V30 5658 H 518.314 -0.662024 -0.0511917 0
M  V30 5659 H 520.844 -1.99079 0.472073 0
M  V30 5660 H 520.854 -3.96094 -0.978434 0
M  V30 5661 H 519.529 -4.15602 0.157287 0
M  V30 5662 H 518.106 -3.40768 -1.51431 0
M  V30 5663 N 520.291 -0.0518155 -1.57515 0
M  V30 5664 C 521.531 0.625712 -1.94587 0
M  V30 5665 C 521.895 1.6797 -0.930053 0
M  V30 5666 O 523.096 2.41135 -1.18774 0
M  V30 5667 C 521.367 1.20574 -3.36447 0
M  V30 5668 S 522.926 1.90118 -3.95475 0
M  V30 5669 H 519.744 0.205434 -0.680675 0
M  V30 5670 H 522.346 -0.120906 -1.95126 0
M  V30 5671 H 521.05 0.426521 -4.08178 0
M  V30 5672 H 520.581 1.98916 -3.39405 0
M  V30 5673 H 522.596 3.18184 -3.80753 0
M  V30 5674 N 521.769 1.56035 0.221574 0
M  V30 5675 C 522.717 1.93269 1.29421 0
M  V30 5676 C 523.711 0.814727 1.48521 0
M  V30 5677 O 524.917 0.999559 1.49696 0
M  V30 5678 H 521.292 0.614188 0.43391 0
M  V30 5679 H 523.263 2.82773 0.952987 0
M  V30 5680 C 522.012 2.26573 2.63742 0
M  V30 5681 H 521.335 3.12112 2.49853 0
M  V30 5682 H 522.775 2.5651 3.37607 0
M  V30 5683 C 521.234 1.09086 3.1875 0
M  V30 5684 O 521.764 0.351985 4.00155 0
M  V30 5685 N 519.97 0.874693 2.77124 0
M  V30 5686 H 519.517 1.47726 2.11033 0
M  V30 5687 H 519.475 0.0903349 3.1427 0
M  V30 5688 N 523.247 -0.488276 1.49845 0
M  V30 5689 C 524.179 -1.60539 1.63584 0
M  V30 5690 C 525.192 -1.5434 0.517972 0
M  V30 5691 O 526.381 -1.60041 0.790516 0
M  V30 5692 C 523.481 -2.99374 1.58835 0
M  V30 5693 C 522.654 -3.30624 2.86368 0
M  V30 5694 C 521.713 -4.4893 2.74496 0
M  V30 5695 O 520.739 -4.50085 3.48443 0
M  V30 5696 N 521.941 -5.49591 1.86894 0
M  V30 5697 H 524.706 -1.49176 2.59936 0
M  V30 5698 H 522.267 -0.67639 1.47094 0
M  V30 5699 H 524.259 -3.76459 1.48529 0
M  V30 5700 H 522.829 -3.04595 0.702892 0
M  V30 5701 H 522.049 -2.42314 3.1093 0
M  V30 5702 H 523.337 -3.48305 3.70892 0
M  V30 5703 H 522.735 -5.51467 1.26097 0
M  V30 5704 H 521.292 -6.25728 1.82503 0
M  V30 5705 N 524.725 -1.39134 -0.740242 0
M  V30 5706 C 525.953 -1.39334 -1.5295 0
M  V30 5707 C 526.368 0.0135008 -1.88795 0
M  V30 5708 O 525.725 0.983524 -1.5373 0
M  V30 5709 C 525.776 -2.2614 -2.82034 0
M  V30 5710 O 525.497 -3.61345 -2.47712 0
M  V30 5711 C 526.998 -2.34666 -3.76094 0
M  V30 5712 H 524.218 -0.476103 -0.472828 0
M  V30 5713 H 526.762 -1.82883 -0.9151 0
M  V30 5714 H 524.917 -1.86018 -3.39818 0
M  V30 5715 H 525.331 -4.07194 -3.30595 0
M  V30 5716 H 526.805 -2.99663 -4.63579 0
M  V30 5717 H 527.282 -1.36426 -4.17474 0
M  V30 5718 H 527.888 -2.75236 -3.2423 0
M  V30 5719 N 526.204 0.969867 -1.24223 0
M  V30 5720 C 527.432 1.74756 -1.10761 0
M  V30 5721 C 527.847 1.85713 0.340041 0
M  V30 5722 O 527.204 1.34389 1.23474 0
M  V30 5723 C 527.255 3.16915 -1.73917 0
M  V30 5724 O 526.976 3.06511 -3.13021 0
M  V30 5725 C 528.477 4.11032 -1.66036 0
M  V30 5726 H 525.697 0.548092 -0.387087 0
M  V30 5727 H 528.241 1.2178 -1.64286 0
M  V30 5728 H 526.396 3.66884 -1.244 0
M  V30 5729 H 526.81 3.96079 -3.43834 0
M  V30 5730 H 528.284 5.08446 -2.14911 0
M  V30 5731 H 528.761 4.34785 -0.621159 0
M  V30 5732 H 529.367 3.66972 -2.14969 0
M  V30 5733 N 527.682 1.05563 1.17022 0
M  V30 5734 C 528.612 0.681026 2.23348 0
M  V30 5735 C 529.593 -0.322983 1.67005 0
M  V30 5736 O 530.778 -0.199746 1.9317 0
M  V30 5737 C 527.908 0.0589053 3.4725 0
M  V30 5738 C 526.862 0.988082 4.16438 0
M  V30 5739 C 526.188 0.229646 5.34207 0
M  V30 5740 C 527.488 2.31388 4.68249 0
M  V30 5741 H 529.182 1.56993 2.54938 0
M  V30 5742 H 526.728 0.756302 1.2254 0
M  V30 5743 H 528.681 -0.214982 4.20851 0
M  V30 5744 H 527.405 -0.864968 3.14938 0
M  V30 5745 H 526.064 1.24659 3.44754 0
M  V30 5746 H 525.712 -0.697111 4.98146 0
M  V30 5747 H 525.412 0.848815 5.81437 0
M  V30 5748 H 526.936 -0.0368694 6.10589 0
M  V30 5749 H 528.35 2.09964 5.33468 0
M  V30 5750 H 526.747 2.88736 5.26072 0
M  V30 5751 H 527.817 2.94982 3.84855 0
M  V30 5752 N 529.16 -1.33526 0.837174 0
M  V30 5753 C 530.092 -2.28077 0.226579 0
M  V30 5754 C 531.105 -1.51666 -0.591717 0
M  V30 5755 O 532.294 -1.73511 -0.419064 0
M  V30 5756 C 529.394 -3.31597 -0.69978 0
M  V30 5757 C 528.567 -4.37329 0.0788067 0
M  V30 5758 C 527.626 -5.20526 -0.770637 0
M  V30 5759 O 526.652 -5.68811 -0.210453 0
M  V30 5760 N 527.854 -5.41639 -2.08825 0
M  V30 5761 H 530.619 -2.81115 1.03897 0
M  V30 5762 H 528.18 -1.46201 0.695476 0
M  V30 5763 H 530.172 -3.84158 -1.27298 0
M  V30 5764 H 528.742 -2.78848 -1.41288 0
M  V30 5765 H 527.962 -3.8529 0.833381 0
M  V30 5766 H 529.25 -5.05079 0.614238 0
M  V30 5767 H 528.648 -5.04108 -2.56693 0
M  V30 5768 H 527.205 -5.97263 -2.60998 0
M  V30 5769 N 530.638 -0.59345 -1.46 0
M  V30 5770 C 531.571 0.182196 -2.27472 0
M  V30 5771 C 532.549 0.886901 -1.36282 0
M  V30 5772 O 533.733 0.898627 -1.65701 0
M  V30 5773 C 530.86 1.26236 -3.14296 0
M  V30 5774 C 529.906 0.662331 -4.21326 0
M  V30 5775 S 530.739 -0.519017 -5.32979 0
M  V30 5776 C 531.895 0.562086 -6.23371 0
M  V30 5777 H 532.128 -0.509056 -2.92909 0
M  V30 5778 H 529.661 -0.380607 -1.49635 0
M  V30 5779 H 531.619 1.88075 -3.64881 0
M  V30 5780 H 530.28 1.92562 -2.48151 0
M  V30 5781 H 529.473 1.47461 -4.81945 0
M  V30 5782 H 529.075 0.119381 -3.73809 0
M  V30 5783 H 531.367 1.44494 -6.61912 0
M  V30 5784 H 532.31 -0.00760776 -7.081 0
M  V30 5785 H 532.718 0.871061 -5.57739 0
M  V30 5786 N 532.116 1.54067 -0.331816 0
M  V30 5787 C 533.046 2.27569 0.522932 0
M  V30 5788 C 534.027 1.28679 1.11247 0
M  V30 5789 O 535.212 1.57504 1.13605 0
M  V30 5790 C 532.342 3.0397 1.67987 0
M  V30 5791 C 531.296 4.10267 1.21924 0
M  V30 5792 C 530.622 4.74555 2.46377 0
M  V30 5793 C 531.922 5.21268 0.32815 0
M  V30 5794 H 533.616 2.99264 -0.0901977 0
M  V30 5795 H 531.162 1.4393 -0.044821 0
M  V30 5796 H 533.115 3.54123 2.28418 0
M  V30 5797 H 531.839 2.29906 2.31971 0
M  V30 5798 H 530.498 3.61009 0.637809 0
M  V30 5799 H 530.146 3.97098 3.08743 0
M  V30 5800 H 529.846 5.46363 2.16243 0
M  V30 5801 H 531.37 5.27487 3.07555 0
M  V30 5802 H 532.784 5.67128 0.838978 0
M  V30 5803 H 531.181 5.99982 0.119228 0
M  V30 5804 H 532.251 4.80673 -0.638839 0
M  V30 5805 N 533.594 0.0601682 1.57485 0
M  V30 5806 C 534.524 -0.90889 2.15085 0
M  V30 5807 C 535.505 -1.31838 1.07484 0
M  V30 5808 O 536.69 -1.3915 1.35466 0
M  V30 5809 C 533.82 -2.18059 2.7031 0
M  V30 5810 C 532.774 -1.91088 3.82974 0
M  V30 5811 C 532.1 -3.24789 4.24754 0
M  V30 5812 C 533.4 -1.22535 5.07723 0
M  V30 5813 H 535.094 -0.429093 2.96309 0
M  V30 5814 H 532.64 -0.204952 1.42534 0
M  V30 5815 H 534.593 -2.86258 3.09248 0
M  V30 5816 H 533.317 -2.6826 1.8629 0
M  V30 5817 H 531.976 -1.25297 3.44523 0
M  V30 5818 H 531.624 -3.72809 3.37672 0
M  V30 5819 H 531.324 -3.07538 5.00694 0
M  V30 5820 H 532.848 -3.94205 4.66299 0
M  V30 5821 H 534.262 -1.80783 5.4405 0
M  V30 5822 H 532.659 -1.1558 5.88864 0
M  V30 5823 H 533.729 -0.202692 4.84476 0
M  V30 5824 N 535.072 -1.5615 -0.213296 0
M  V30 5825 C 535.982 -1.96265 -1.28519 0
M  V30 5826 C 536.998 -0.86765 -1.50824 0
M  V30 5827 O 538.174 -1.17191 -1.63793 0
M  V30 5828 C 535.239 -2.27836 -2.61327 0
M  V30 5829 C 534.3 -3.50949 -2.47252 0
M  V30 5830 C 533.533 -3.81004 -3.73727 0
M  V30 5831 O 533.756 -3.12612 -4.77106 0
M  V30 5832 O 532.69 -4.74477 -3.70344 0
M  V30 5833 H 536.516 -2.87631 -0.974795 0
M  V30 5834 H 534.101 -1.43467 -0.416832 0
M  V30 5835 H 535.983 -2.49299 -3.39747 0
M  V30 5836 H 534.658 -1.39643 -2.9203 0
M  V30 5837 H 533.565 -3.34754 -1.67004 0
M  V30 5838 H 534.898 -4.39551 -2.21486 0
M  V30 5839 N 536.55 0.480323 -1.50102 0
M  V30 5840 C 537.799 1.22979 -1.59872 0
M  V30 5841 C 538.112 1.93282 -0.30022 0
M  V30 5842 O 539.318 2.70086 -0.276709 0
M  V30 5843 C 537.774 2.23408 -2.82164 0
M  V30 5844 C 537.382 1.5895 -4.18854 0
M  V30 5845 C 539.126 2.99055 -3.01275 0
M  V30 5846 C 537.033 2.57611 -5.32344 0
M  V30 5847 H 535.963 0.462707 -0.59533 0
M  V30 5848 H 538.614 0.501291 -1.7652 0
M  V30 5849 H 536.996 2.99511 -2.59055 0
M  V30 5850 H 538.17 0.887 -4.52182 0
M  V30 5851 H 536.485 0.956191 -4.05273 0
M  V30 5852 H 539.082 3.72876 -3.83233 0
M  V30 5853 H 539.425 3.57897 -2.12639 0
M  V30 5854 H 539.958 2.30066 -3.24522 0
M  V30 5855 H 536.697 2.03521 -6.23105 0
M  V30 5856 H 536.217 3.26041 -5.03445 0
M  V30 5857 H 537.896 3.19627 -5.62537 0
M  V30 5858 N 538.028 1.39524 0.732853 0
M  V30 5859 C 539.275 1.36865 1.49246 0
M  V30 5860 C 539.603 -0.0347118 1.94469 0
M  V30 5861 O 538.858 -1.01596 1.67262 0
M  V30 5862 C 539.157 2.28916 2.74468 0
M  V30 5863 C 538.823 3.76506 2.481 0
M  V30 5864 C 537.485 4.16721 2.40619 0
M  V30 5865 C 539.837 4.69846 2.25598 0
M  V30 5866 C 537.165 5.48334 2.08679 0
M  V30 5867 C 539.517 6.01739 1.95174 0
M  V30 5868 C 538.181 6.41015 1.86163 0
M  V30 5869 H 537.451 0.500824 0.546129 0
M  V30 5870 H 540.098 1.72047 0.840958 0
M  V30 5871 H 538.403 1.86859 3.4437 0
M  V30 5872 H 540.1 2.2415 3.32502 0
M  V30 5873 H 536.69 3.44635 2.54803 0
M  V30 5874 H 540.874 4.39608 2.30344 0
M  V30 5875 H 536.13 5.77685 2.00226 0
M  V30 5876 H 540.304 6.73591 1.76771 0
M  V30 5877 H 537.931 7.42917 1.61179 0
M  V30 5878 N 539.506 -0.963266 1.24736 0
M  V30 5879 C 540.752 -1.70933 1.09131 0
M  V30 5880 C 541.085 -1.90676 -0.368273 0
M  V30 5881 O 540.36 -1.47147 -1.27193 0
M  V30 5882 C 540.643 -3.09744 1.83658 0
M  V30 5883 C 540.496 -2.97465 3.37394 0
M  V30 5884 C 541.815 -4.09483 1.61282 0
M  V30 5885 H 538.934 -0.620398 0.397838 0
M  V30 5886 H 541.576 -1.12028 1.53459 0
M  V30 5887 H 539.726 -3.60031 1.4598 0
M  V30 5888 H 541.398 -2.54571 3.84696 0
M  V30 5889 H 539.641 -2.33576 3.65547 0
M  V30 5890 H 540.312 -3.95822 3.84745 0
M  V30 5891 H 542.788 -3.68073 1.94066 0
M  V30 5892 H 541.664 -5.04666 2.15878 0
M  V30 5893 H 541.925 -4.38639 0.552102 0
M  V30 5894 N 540.985 -1.06182 -1.16461 0
M  V30 5895 C 542.231 -0.788825 -1.87481 0
M  V30 5896 C 542.586 0.677298 -1.80085 0
M  V30 5897 O 541.879 1.48976 -1.20486 0
M  V30 5898 C 542.073 -1.21633 -3.36066 0
M  V30 5899 C 541.902 -2.72247 -3.57927 0
M  V30 5900 C 540.672 -3.39696 -3.74079 0
M  V30 5901 C 542.87 -3.70461 -3.56739 0
M  V30 5902 N 540.852 -4.79072 -3.83879 0
M  V30 5903 C 542.223 -4.95616 -3.72511 0
M  V30 5904 C 544.278 -3.63788 -3.39945 0
M  V30 5905 C 542.981 -6.14895 -3.73225 0
M  V30 5906 C 545.007 -4.82517 -3.41953 0
M  V30 5907 C 544.369 -6.065 -3.58242 0
M  V30 5908 H 540.468 -0.341034 -0.703719 0
M  V30 5909 H 543.052 -1.35575 -1.39741 0
M  V30 5910 H 541.223 -0.67725 -3.8245 0
M  V30 5911 H 542.955 -0.892119 -3.94745 0
M  V30 5912 H 539.71 -2.90097 -3.74354 0
M  V30 5913 H 540.134 -5.51573 -3.92551 0
M  V30 5914 H 544.776 -2.68888 -3.26281 0
M  V30 5915 H 542.494 -7.10129 -3.85672 0
M  V30 5916 H 546.08 -4.79017 -3.30203 0
M  V30 5917 H 544.96 -6.96833 -3.59712 0
M  V30 5918 N 542.463 1.3308 -0.844243 0
M  V30 5919 C 543.712 1.96868 -0.438833 0
M  V30 5920 C 544.025 1.67599 1.00846 0
M  V30 5921 O 545.231 2.25043 1.51881 0
M  V30 5922 C 543.687 3.5234 -0.73377 0
M  V30 5923 C 543.295 3.90481 -2.1961 0
M  V30 5924 C 545.039 4.22653 -0.395574 0
M  V30 5925 C 542.946 5.38954 -2.43481 0
M  V30 5926 H 541.876 0.736749 -0.160364 0
M  V30 5927 H 544.527 1.51623 -1.03358 0
M  V30 5928 H 542.909 3.95941 -0.068589 0
M  V30 5929 H 544.083 3.57922 -2.90221 0
M  V30 5930 H 542.398 3.33165 -2.4978 0
M  V30 5931 H 544.995 5.31848 -0.551477 0
M  V30 5932 H 545.338 4.11004 0.661921 0
M  V30 5933 H 545.871 3.84601 -1.01621 0
M  V30 5934 H 542.61 5.55612 -3.47816 0
M  V30 5935 H 542.13 5.72954 -1.77437 0
M  V30 5936 H 543.809 6.05907 -2.26905 0
M  V30 5937 N 543.941 0.601185 1.45683 0
M  V30 5938 C 545.189 0.0936957 2.01883 0
M  V30 5939 C 545.51 -1.2779 1.47291 0
M  V30 5940 O 544.78 -1.84279 0.664691 0
M  V30 5941 H 543.36 0.0316466 0.746329 0
M  V30 5942 H 546.022 0.781137 1.78562 0
M  V30 5943 H 545.118 0.0386297 3.12076 0
M  V30 5944 N 545.419 -1.53889 0.339982 0
M  V30 5945 C 546.649 -2.04973 -0.258738 0
M  V30 5946 C 547.057 -1.21485 -1.45045 0
M  V30 5947 O 546.4 -0.2422 -1.82096 0
M  V30 5948 C 546.462 -3.51783 -0.740853 0
M  V30 5949 C 546.126 -4.55802 0.330734 0
M  V30 5950 C 547.123 -5.06512 1.17226 0
M  V30 5951 C 544.808 -4.99966 0.483637 0
M  V30 5952 C 546.802 -5.99963 2.15227 0
M  V30 5953 C 544.489 -5.93229 1.46704 0
M  V30 5954 C 545.487 -6.43115 2.29981 0
M  V30 5955 O 545.175 -7.34545 3.26649 0
M  V30 5956 H 544.907 -0.673807 -0.0544037 0
M  V30 5957 H 547.461 -1.99492 0.489107 0
M  V30 5958 H 545.691 -3.54717 -1.53988 0
M  V30 5959 H 547.38 -3.85857 -1.25973 0
M  V30 5960 H 548.146 -4.73158 1.0652 0
M  V30 5961 H 544.025 -4.6074 -0.15471 0
M  V30 5962 H 547.569 -6.38825 2.80265 0
M  V30 5963 H 543.466 -6.25998 1.57468 0
M  V30 5964 H 544.234 -7.52468 3.22078 0
M  V30 5965 N 546.897 -0.0685191 -1.57451 0
M  V30 5966 C 548.143 0.602239 -1.93652 0
M  V30 5967 C 548.476 1.6946 -0.948526 0
M  V30 5968 O 547.751 1.94487 0.022782 0
M  V30 5969 C 548.034 1.18223 -3.4014 0
M  V30 5970 C 547.887 0.0967431 -4.49696 0
M  V30 5971 C 549.206 2.08872 -3.87377 0
M  V30 5972 H 546.325 0.217453 -0.70419 0
M  V30 5973 H 548.967 -0.133821 -1.89528 0
M  V30 5974 H 547.117 1.80953 -3.43785 0
M  V30 5975 H 548.789 -0.536155 -4.58174 0
M  V30 5976 H 547.032 -0.573063 -4.29998 0
M  V30 5977 H 547.703 0.542894 -5.49324 0
M  V30 5978 H 550.179 1.56081 -3.85717 0
M  V30 5979 H 549.055 2.46389 -4.90493 0
M  V30 5980 H 549.316 2.99572 -3.25129 0
M  V30 5981 N 548.375 1.56261 0.205012 0
M  V30 5982 C 549.6 1.84491 0.947512 0
M  V30 5983 C 550.025 0.650894 1.76479 0
M  V30 5984 O 549.383 -0.40035 1.76824 0
M  V30 5985 C 549.431 3.10863 1.82747 0
M  V30 5986 O 548.535 2.90719 2.925 0
M  V30 5987 H 547.876 0.607783 0.267386 0
M  V30 5988 H 550.406 2.03485 0.213323 0
M  V30 5989 H 550.416 3.41399 2.23407 0
M  V30 5990 H 549.091 3.97392 1.2269 0
M  V30 5991 H 547.668 2.71457 2.55667 0
M  V30 5992 N 549.853 -0.472356 1.50355 0
M  V30 5993 C 551.078 -1.25251 1.65309 0
M  V30 5994 C 551.503 -1.85081 0.335643 0
M  V30 5995 O 550.861 -1.67227 -0.700335 0
M  V30 5996 C 550.909 -2.3379 2.74544 0
M  V30 5997 O 550.013 -3.38401 2.35709 0
M  V30 5998 H 549.354 -0.368539 0.552336 0
M  V30 5999 H 551.884 -0.562271 1.96722 0
M  V30 6000 H 551.894 -2.79121 2.97583 0
M  V30 6001 H 550.569 -1.89614 3.70161 0
M  V30 6002 H 549.146 -2.9879 2.23112 0
M  V30 6003 N 551.331 -1.39911 -0.725443 0
M  V30 6004 C 552.579 -1.37382 -1.48224 0
M  V30 6005 C 552.9 0.0264107 -1.94982 0
M  V30 6006 O 552.17 0.979408 -1.6966 0
M  V30 6007 H 550.75 -0.505596 -0.549892 0
M  V30 6008 H 553.412 -1.7487 -0.860608 0
M  V30 6009 H 552.508 -2.04254 -2.3598 0
M  V30 6010 N 552.809 0.956637 -1.25245 0
M  V30 6011 C 554.055 1.70352 -1.10036 0
M  V30 6012 C 554.388 1.90869 0.358156 0
M  V30 6013 O 553.663 1.47819 1.26411 0
M  V30 6014 C 553.946 3.08766 -1.85298 0
M  V30 6015 C 553.799 2.95672 -3.38966 0
M  V30 6016 C 555.118 4.08622 -1.63451 0
M  V30 6017 H 552.237 0.618279 -0.401123 0
M  V30 6018 H 554.879 1.11212 -1.54051 0
M  V30 6019 H 553.029 3.59252 -1.47887 0
M  V30 6020 H 554.701 2.52527 -3.86041 0
M  V30 6021 H 552.944 2.31634 -3.6678 0
M  V30 6022 H 553.615 3.93776 -3.86839 0
M  V30 6023 H 556.091 3.67038 -1.96015 0
M  V30 6024 H 554.967 5.03514 -2.18551 0
M  V30 6025 H 555.228 4.3834 -0.575357 0
M  V30 6026 N 554.287 1.06798 1.15896 0
M  V30 6027 C 555.235 0.677525 2.22514 0
M  V30 6028 C 556.229 -0.308994 1.66558 0
M  V30 6029 O 557.435 -0.173308 1.79164 0
M  V30 6030 H 553.81 0.200994 0.724642 0
M  V30 6031 H 555.781 1.5865 2.52731 0
M  V30 6032 C 554.53 0.0854153 3.47595 0
M  V30 6033 H 553.853 0.835645 3.90969 0
M  V30 6034 H 555.293 -0.150199 4.23734 0
M  V30 6035 C 553.752 -1.1724 3.15843 0
M  V30 6036 O 554.282 -2.25965 3.32119 0
M  V30 6037 N 552.488 -1.07636 2.69931 0
M  V30 6038 H 552.035 -0.191559 2.56887 0
M  V30 6039 H 551.993 -1.91876 2.4906 0
M  V30 6040 N 555.766 -1.3263 0.851289 0
M  V30 6041 C 557.177 -1.79653 0.5081 0
M  V30 6042 C 557.528 -1.70327 -0.973815 0
M  V30 6043 O 556.653 -1.25986 -1.75944 0
M  V30 6044 C 557.248 -3.26196 0.915515 0
M  V30 6045 C 555.807 -3.71187 0.624277 0
M  V30 6046 C 554.954 -2.53804 1.11709 0
M  V30 6047 H 557.905 -1.19976 1.03882 0
M  V30 6048 H 557.926 -3.79801 0.230535 0
M  V30 6049 H 557.438 -3.32952 1.99411 0
M  V30 6050 H 555.539 -3.69948 -0.443737 0
M  V30 6051 H 555.652 -4.64132 1.18821 0
M  V30 6052 H 554.016 -2.48964 0.537484 0
M  V30 6053 H 554.799 -2.63315 2.20272 0
M  V30 6054 N 557.244 -0.608902 -1.45362 0
M  V30 6055 C 558.174 0.0964526 -2.33301 0
M  V30 6056 C 559.155 0.857444 -1.46908 0
M  V30 6057 O 560.34 0.827735 -1.75676 0
M  V30 6058 C 557.47 1.09354 -3.29635 0
M  V30 6059 C 556.424 0.445676 -4.25673 0
M  V30 6060 C 555.75 1.5511 -5.11708 0
M  V30 6061 C 557.05 -0.633972 -5.18438 0
M  V30 6062 H 558.744 -0.637829 -2.92527 0
M  V30 6063 H 556.29 -0.308178 -1.40664 0
M  V30 6064 H 558.243 1.59556 -3.90025 0
M  V30 6065 H 556.967 1.85843 -2.6857 0
M  V30 6066 H 555.626 -0.0354897 -3.66583 0
M  V30 6067 H 555.274 2.30631 -4.4701 0
M  V30 6068 H 554.974 1.12311 -5.76767 0
M  V30 6069 H 556.498 2.05537 -5.74967 0
M  V30 6070 H 557.912 -0.215974 -5.72893 0
M  V30 6071 H 556.309 -0.983789 -5.91981 0
M  V30 6072 H 557.379 -1.51005 -4.60788 0
M  V30 6073 N 558.722 1.53707 -0.348139 0
M  V30 6074 C 559.968 2.01286 0.247332 0
M  V30 6075 C 560.301 1.23546 1.49834 0
M  V30 6076 O 559.576 0.324331 1.91777 0
M  V30 6077 C 559.859 3.55768 0.556858 0
M  V30 6078 C 559.712 4.44216 -0.706564 0
M  V30 6079 C 561.031 4.1841 1.3646 0
M  V30 6080 H 558.15 0.731677 0.0884201 0
M  V30 6081 H 560.792 1.84106 -0.469584 0
M  V30 6082 H 558.942 3.70539 1.16761 0
M  V30 6083 H 560.614 4.41274 -1.34444 0
M  V30 6084 H 558.857 4.12892 -1.33052 0
M  V30 6085 H 559.528 5.50202 -0.445186 0
M  V30 6086 H 562.004 4.07365 0.848113 0
M  V30 6087 H 560.88 5.26563 1.54992 0
M  V30 6088 H 561.141 3.7333 2.36805 0
M  V30 6089 N 560.2 0.0768682 1.57412 0
M  V30 6090 C 561.43 -0.5991 1.97723 0
M  V30 6091 C 561.838 -1.63378 0.954166 0
M  V30 6092 O 561.181 -1.83578 -0.0668706 0
M  V30 6093 C 561.243 -1.32078 3.34358 0
M  V30 6094 C 560.907 -0.438985 4.54887 0
M  V30 6095 C 561.904 0.305492 5.19002 0
M  V30 6096 C 559.589 -0.362378 5.00991 0
M  V30 6097 C 561.583 1.11475 6.27576 0
M  V30 6098 C 559.27 0.450543 6.09437 0
M  V30 6099 C 560.268 1.18777 6.72593 0
M  V30 6100 O 559.956 1.98727 7.7895 0
M  V30 6101 H 559.688 -0.166725 0.655117 0
M  V30 6102 H 562.242 0.147337 2.04871 0
M  V30 6103 H 560.472 -2.1134 3.2384 0
M  V30 6104 H 562.161 -1.88949 3.5924 0
M  V30 6105 H 562.927 0.25593 4.84324 0
M  V30 6106 H 558.806 -0.925832 4.51608 0
M  V30 6107 H 562.35 1.69068 6.76803 0
M  V30 6108 H 558.247 0.501651 6.43548 0
M  V30 6109 H 559.015 1.91214 7.95851 0
M  V30 6110 N 561.678 -1.56367 -0.196722 0
M  V30 6111 C 562.906 -1.84639 -0.933608 0
M  V30 6112 C 563.321 -0.659164 -1.76919 0
M  V30 6113 O 562.678 0.372142 -1.78665 0
M  V30 6114 C 562.729 -3.11694 -1.83109 0
M  V30 6115 O 562.45 -4.25838 -1.02924 0
M  V30 6116 C 563.951 -3.53132 -2.67979 0
M  V30 6117 H 561.171 -0.613188 -0.272473 0
M  V30 6118 H 563.715 -2.03475 -0.204465 0
M  V30 6119 H 561.87 -2.94759 -2.51387 0
M  V30 6120 H 562.284 -4.98178 -1.64069 0
M  V30 6121 H 563.758 -4.45005 -3.26611 0
M  V30 6122 H 564.235 -2.76045 -3.41608 0
M  V30 6123 H 564.841 -3.72592 -2.05074 0
M  V30 6124 N 563.156 0.464375 -1.50603 0
M  V30 6125 C 564.086 1.56944 -1.72889 0
M  V30 6126 C 565.067 1.59979 -0.577997 0
M  V30 6127 O 566.252 1.76138 -0.817855 0
M  V30 6128 C 563.382 2.95225 -1.8292 0
M  V30 6129 C 562.336 3.07056 -2.98162 0
M  V30 6130 C 561.662 4.47051 -2.93343 0
M  V30 6131 C 562.962 2.83648 -4.38567 0
M  V30 6132 H 564.656 1.38547 -2.65415 0
M  V30 6133 H 562.202 0.665082 -1.27721 0
M  V30 6134 H 564.155 3.72467 -1.97095 0
M  V30 6135 H 562.879 3.14793 -0.870209 0
M  V30 6136 H 561.538 2.32248 -2.83648 0
M  V30 6137 H 561.186 4.63547 -1.95276 0
M  V30 6138 H 560.886 4.55902 -3.70712 0
M  V30 6139 H 562.41 5.26304 -3.09575 0
M  V30 6140 H 563.824 3.50636 -4.53572 0
M  V30 6141 H 562.221 3.03937 -5.17438 0
M  V30 6142 H 563.291 1.79451 -4.50472 0
M  V30 6143 N 564.634 1.40294 0.718013 0
M  V30 6144 C 565.881 1.3844 1.47786 0
M  V30 6145 C 566.209 -0.0140838 1.94495 0
M  V30 6146 O 565.464 -0.998165 1.68331 0
M  V30 6147 C 565.763 2.31814 2.72024 0
M  V30 6148 C 565.429 3.79117 2.44093 0
M  V30 6149 C 564.091 4.19249 2.36185 0
M  V30 6150 C 566.443 4.72212 2.20602 0
M  V30 6151 C 563.771 5.50516 2.02851 0
M  V30 6152 C 566.123 6.03775 1.88781 0
M  V30 6153 C 564.787 6.42953 1.79354 0
M  V30 6154 H 564.057 0.506588 0.540786 0
M  V30 6155 H 566.704 1.72929 0.822663 0
M  V30 6156 H 565.009 1.90501 3.42369 0
M  V30 6157 H 566.706 2.27664 3.30106 0
M  V30 6158 H 563.296 3.47318 2.51133 0
M  V30 6159 H 567.48 4.42026 2.25669 0
M  V30 6160 H 562.736 5.79776 1.94088 0
M  V30 6161 H 566.91 6.75428 1.69617 0
M  V30 6162 H 564.537 7.44584 1.53291 0
M  V30 6163 N 566.112 -0.949982 1.2575 0
M  V30 6164 C 567.06 -2.06869 1.06339 0
M  V30 6165 C 568.054 -1.69399 -0.00708901 0
M  V30 6166 O 569.26 -1.79383 0.148897 0
M  V30 6167 H 565.635 -0.677197 0.326969 0
M  V30 6168 H 567.606 -2.20396 2.01167 0
M  V30 6169 C 566.355 -3.40503 0.703769 0
M  V30 6170 H 565.678 -3.69807 1.51931 0
M  V30 6171 H 567.118 -4.19623 0.607677 0
M  V30 6172 C 565.577 -3.31685 -0.5905 0
M  V30 6173 O 566.107 -3.67085 -1.63131 0
M  V30 6174 N 564.313 -2.84797 -0.577859 0
M  V30 6175 H 563.86 -2.56186 0.26951 0
M  V30 6176 H 563.818 -2.79279 -1.44398 0
M  V30 6177 N 567.59 -1.07411 -1.15328 0
M  V30 6178 C 568.537 -0.694995 -2.20087 0
M  V30 6179 C 569.507 0.313904 -1.63107 0
M  V30 6180 O 570.692 0.200216 -1.89747 0
M  V30 6181 C 567.832 -0.0996218 -3.44956 0
M  V30 6182 C 566.945 -1.16007 -4.16133 0
M  V30 6183 C 566.08 -0.529636 -5.28553 0
M  V30 6184 C 565.119 -1.57283 -5.91548 0
M  V30 6185 N 564.256 -0.964932 -6.95438 0
M  V30 6186 H 569.096 -1.5927 -2.51867 0
M  V30 6187 H 566.633 -0.796115 -1.23695 0
M  V30 6188 H 568.591 0.263197 -4.16369 0
M  V30 6189 H 567.221 0.761435 -3.13691 0
M  V30 6190 H 566.273 -1.64045 -3.4321 0
M  V30 6191 H 567.585 -1.95101 -4.59061 0
M  V30 6192 H 566.739 -0.114487 -6.06592 0
M  V30 6193 H 565.478 0.29307 -4.86819 0
M  V30 6194 H 564.483 -1.99775 -5.12221 0
M  V30 6195 H 565.708 -2.39783 -6.35359 0
M  V30 6196 H 563.654 -0.16314 -6.55797 0
M  V30 6197 H 563.571 -1.69311 -7.36797 0
M  V30 6198 H 564.839 -0.575305 -7.77374 0
M  V30 6199 N 569.068 1.32177 -0.85831 0
M  V30 6200 C 570.296 2.01313 -0.477582 0
M  V30 6201 C 570.711 1.6449 0.926736 0
M  V30 6202 O 570.068 0.868096 1.60531 0
M  V30 6203 C 570.119 3.56293 -0.611337 0
M  V30 6204 O 569.84 3.91794 -1.96034 0
M  V30 6205 C 571.341 4.42702 -0.230093 0
M  V30 6206 H 568.561 0.644323 -0.187322 0
M  V30 6207 H 571.105 1.68674 -1.15626 0
M  V30 6208 H 569.26 3.87395 0.0196494 0
M  V30 6209 H 569.674 4.86513 -1.95973 0
M  V30 6210 H 571.148 5.50727 -0.374674 0
M  V30 6211 H 571.625 4.3129 0.829779 0
M  V30 6212 H 572.231 4.16997 -0.836302 0
M  V30 6213 N 570.547 0.616602 1.45037 0
M  V30 6214 C 571.794 0.115331 2.02171 0
M  V30 6215 C 572.122 -1.25748 1.48383 0
M  V30 6216 O 571.377 -1.84511 0.652229 0
M  V30 6217 C 571.676 0.0356829 3.57382 0
M  V30 6218 C 571.342 1.34535 4.30362 0
M  V30 6219 C 570.004 1.70408 4.50016 0
M  V30 6220 C 572.356 2.21049 4.72003 0
M  V30 6221 C 569.684 2.92529 5.0857 0
M  V30 6222 C 572.036 3.42427 5.31908 0
M  V30 6223 C 570.7 3.78541 5.49784 0
M  V30 6224 H 569.97 0.0422024 0.739797 0
M  V30 6225 H 572.617 0.80002 1.73988 0
M  V30 6226 H 570.922 -0.732314 3.84895 0
M  V30 6227 H 572.619 -0.368463 3.99304 0
M  V30 6228 H 569.209 1.05615 4.15383 0
M  V30 6229 H 573.393 1.94632 4.56544 0
M  V30 6230 H 568.649 3.20605 5.20598 0
M  V30 6231 H 572.823 4.09709 5.63127 0
M  V30 6232 H 570.45 4.73255 5.94923 0
M  V30 6233 N 572.025 -1.5352 0.356285 0
M  V30 6234 C 573.441 -1.59599 0.00485267 0
M  V30 6235 C 573.641 -1.37179 -1.47595 0
M  V30 6236 O 572.697 -1.17234 -2.23635 0
M  V30 6237 C 574.01 -2.97277 0.452454 0
M  V30 6238 C 575.558 -3.10357 0.405881 0
M  V30 6239 C 576.033 -4.50432 0.829148 0
M  V30 6240 N 577.524 -4.5652 0.783838 0
M  V30 6241 C 578.259 -5.63077 1.08315 0
M  V30 6242 N 577.755 -6.77429 1.45126 0
M  V30 6243 N 579.548 -5.53014 1.00655 0
M  V30 6244 H 571.699 -1.66346 1.32071 0
M  V30 6245 H 573.962 -0.77971 0.539218 0
M  V30 6246 H 573.668 -3.18792 1.48542 0
M  V30 6247 H 573.542 -3.76836 -0.165762 0
M  V30 6248 H 575.929 -2.88558 -0.617934 0
M  V30 6249 H 576.01 -2.32828 1.05947 0
M  V30 6250 H 575.654 -4.72968 1.85103 0
M  V30 6251 H 575.584 -5.26378 0.152906 0
M  V30 6252 H 578.075 -3.74408 0.512513 0
M  V30 6253 H 578.388 -7.54669 1.66415 0
M  V30 6254 H 576.733 -6.78844 1.48983 0
M  V30 6255 H 579.924 -4.62557 0.718215 0
M  V30 6256 H 580.097 -6.35964 1.24315 0
M  V30 6257 N 573.503 -0.0852151 -1.57369 0
M  V30 6258 C 574.78 0.622534 -1.85429 0
M  V30 6259 C 575.16 1.86962 -0.980229 0
M  V30 6260 O 574.508 2.28445 -0.0500219 0
M  V30 6261 C 574.718 0.947374 -3.35896 0
M  V30 6262 C 576.066 1.31509 -4.03721 0
M  V30 6263 O 577.09 1.03869 -3.40719 0
M  V30 6264 O 575.949 1.83231 -5.14868 0
M  V30 6265 H 573.043 0.310513 -0.766492 0
M  V30 6266 H 575.589 -0.117164 -1.69295 0
M  V30 6267 H 574.361 0.0622264 -3.91251 0
M  V30 6268 H 573.984 1.74338 -3.5734 0
M  V30 6269 N 574.981 1.5647 0.188427 0
M  V30 6270 C 575.944 1.9421 1.21718 0
M  V30 6271 C 576.944 0.823901 1.38089 0
M  V30 6272 O 578.134 1.09122 1.35787 0
M  V30 6273 C 575.266 2.22197 2.58537 0
M  V30 6274 H 576.459 2.86252 0.894418 0
M  V30 6275 H 574.012 1.50263 0.430211 0
M  V30 6276 H 574.747 1.32814 2.95856 0
M  V30 6277 H 574.532 3.03688 2.48025 0
M  V30 6278 H 576.022 2.52376 3.3271 0
M  V30 6279 N 576.459 -0.456382 1.50847 0
M  V30 6280 C 577.706 -1.20736 1.62571 0
M  V30 6281 C 578.034 -1.9163 0.332904 0
M  V30 6282 O 577.289 -1.8343 -0.682058 0
M  V30 6283 C 577.588 -2.26336 2.76599 0
M  V30 6284 C 577.254 -1.7259 4.16562 0
M  V30 6285 C 575.916 -1.57654 4.54641 0
M  V30 6286 C 578.268 -1.32877 5.03977 0
M  V30 6287 C 575.596 -1.0145 5.77862 0
M  V30 6288 C 577.948 -0.7811 6.27759 0
M  V30 6289 C 576.612 -0.618488 6.64628 0
M  V30 6290 H 575.882 -0.441803 0.594888 0
M  V30 6291 H 578.529 -0.501169 1.84826 0
M  V30 6292 H 576.834 -3.0292 2.48489 0
M  V30 6293 H 578.531 -2.84227 2.82871 0
M  V30 6294 H 575.121 -1.85187 3.86528 0
M  V30 6295 H 579.305 -1.43245 4.75179 0
M  V30 6296 H 574.561 -0.876109 6.0509 0
M  V30 6297 H 578.735 -0.464783 6.94847 0
M  V30 6298 H 576.362 -0.180838 7.59985 0
M  V30 6299 N 577.937 -1.40673 -0.710563 0
M  V30 6300 C 579.185 -1.38947 -1.46759 0
M  V30 6301 C 579.506 0.00572879 -1.94999 0
M  V30 6302 O 578.776 0.961358 -1.70689 0
M  V30 6303 H 577.356 -0.5114 -0.544499 0
M  V30 6304 H 580.018 -1.75773 -0.842012 0
M  V30 6305 H 579.114 -2.06745 -2.33801 0
M  V30 6306 N 579.415 0.9433 -1.26252 0
M  V30 6307 C 580.831 1.21644 -1.03319 0
M  V30 6308 C 581.031 2.0003 0.242983 0
M  V30 6309 O 580.087 2.33838 0.952688 0
M  V30 6310 C 581.4 1.97978 -2.2633 0
M  V30 6311 C 582.948 2.10978 -2.31209 0
M  V30 6312 C 583.423 2.90713 -3.53907 0
M  V30 6313 N 584.914 2.98287 -3.54371 0
M  V30 6314 C 585.649 3.60406 -4.45976 0
M  V30 6315 N 585.145 4.24043 -5.47868 0
M  V30 6316 N 586.938 3.57658 -4.33633 0
M  V30 6317 H 579.089 0.419221 -2.08222 0
M  V30 6318 H 581.352 0.247995 -0.914988 0
M  V30 6319 H 581.058 1.47788 -3.19142 0
M  V30 6320 H 580.932 2.9865 -2.30408 0
M  V30 6321 H 583.319 2.6036 -1.38913 0
M  V30 6322 H 583.4 1.09575 -2.31143 0
M  V30 6323 H 583.044 2.42018 -4.46531 0
M  V30 6324 H 582.974 3.92367 -3.5122 0
M  V30 6325 H 585.465 2.53044 -2.80673 0
M  V30 6326 H 585.778 4.69334 -6.13959 0
M  V30 6327 H 584.123 4.22637 -5.51728 0
M  V30 6328 H 587.314 3.07134 -3.53251 0
M  V30 6329 H 587.487 4.05782 -5.05218 0
M  V30 6330 N 580.893 1.08022 1.14757 0
M  V30 6331 C 582.123 0.827646 1.89298 0
M  V30 6332 C 582.531 -0.623506 1.78631 0
M  V30 6333 O 581.874 -1.43991 1.14071 0
M  V30 6334 C 581.936 1.16553 3.40082 0
M  V30 6335 C 581.6 2.61866 3.74533 0
M  V30 6336 C 582.597 3.60116 3.74984 0
M  V30 6337 C 580.282 2.97619 4.04633 0
M  V30 6338 C 582.276 4.92151 4.05051 0
M  V30 6339 C 579.963 4.2985 4.34364 0
M  V30 6340 C 580.961 5.26926 4.34555 0
M  V30 6341 O 580.649 6.5678 4.63568 0
M  V30 6342 H 580.381 0.298396 0.606577 0
M  V30 6343 H 582.935 1.44187 1.46285 0
M  V30 6344 H 581.165 0.494296 3.83528 0
M  V30 6345 H 582.854 0.894407 3.95923 0
M  V30 6346 H 583.62 3.33837 3.51821 0
M  V30 6347 H 579.499 2.22702 4.03639 0
M  V30 6348 H 583.043 5.67915 4.05115 0
M  V30 6349 H 578.94 4.55879 4.56995 0
M  V30 6350 H 579.708 6.62035 4.81303 0
M  V30 6351 N 582.371 -1.3172 0.865308 0
M  V30 6352 C 583.62 -1.96145 0.470098 0
M  V30 6353 C 583.933 -1.69182 -0.981674 0
M  V30 6354 O 585.139 -2.27431 -1.48281 0
M  V30 6355 C 583.595 -3.51129 0.789732 0
M  V30 6356 C 583.203 -3.86938 2.25795 0
M  V30 6357 C 584.947 -4.2197 0.462765 0
M  V30 6358 C 582.854 -5.35012 2.52024 0
M  V30 6359 H 581.784 -0.734105 0.172065 0
M  V30 6360 H 584.435 -1.49959 1.05757 0
M  V30 6361 H 582.817 -3.95781 0.131571 0
M  V30 6362 H 583.991 -3.5326 2.95879 0
M  V30 6363 H 582.306 -3.29149 2.55049 0
M  V30 6364 H 584.903 -5.30904 0.636019 0
M  V30 6365 H 585.246 -4.12005 -0.59645 0
M  V30 6366 H 585.779 -3.82936 1.07727 0
M  V30 6367 H 582.518 -5.50008 3.56611 0
M  V30 6368 H 582.038 -5.70058 1.8653 0
M  V30 6369 H 583.717 -6.0222 2.36515 0
M  V30 6370 N 583.85 -0.624285 -1.44708 0
M  V30 6371 C 585.077 -0.132919 -2.06473 0
M  V30 6372 C 585.493 1.18967 -1.46602 0
M  V30 6373 O 584.85 1.72824 -0.586341 0
M  V30 6374 C 584.901 -0.00465418 -3.615 0
M  V30 6375 O 584.622 -1.27494 -4.19138 0
M  V30 6376 C 586.123 0.516213 -4.40284 0
M  V30 6377 H 583.343 -0.0765201 -0.666623 0
M  V30 6378 H 585.887 -0.856751 -1.85688 0
M  V30 6379 H 584.042 0.669583 -3.8157 0
M  V30 6380 H 584.456 -1.11536 -5.12504 0
M  V30 6381 H 585.93 0.554994 -5.49203 0
M  V30 6382 H 586.407 1.5419 -4.11245 0
M  V30 6383 H 587.013 -0.124542 -4.25118 0
M  V30 6384 N 585.328 1.53329 -0.364422 0
M  V30 6385 C 586.568 2.0315 0.22572 0
M  V30 6386 C 586.932 1.24589 1.46087 0
M  V30 6387 O 588.133 1.64411 2.12656 0
M  V30 6388 C 586.404 3.53718 0.511663 0
M  V30 6389 S 587.963 4.25412 1.07564 0
M  V30 6390 H 584.781 0.70795 0.0657843 0
M  V30 6391 H 587.383 1.88811 -0.507019 0
M  V30 6392 H 586.087 4.08497 -0.394784 0
M  V30 6393 H 585.618 3.72217 1.27351 0
M  V30 6394 H 587.633 4.36486 2.35997 0
M  V30 6395 N 586.806 0.0935595 1.57322 0
M  V30 6396 C 587.754 -0.883457 2.15169 0
M  V30 6397 C 588.748 -1.29324 1.09415 0
M  V30 6398 O 589.954 -1.26795 1.27762 0
M  V30 6399 H 586.329 -0.302923 0.688289 0
M  V30 6400 H 588.3 -0.370845 2.96087 0
M  V30 6401 C 587.049 -2.13345 2.74552 0
M  V30 6402 H 586.372 -1.82702 3.55612 0
M  V30 6403 H 587.812 -2.7977 3.18598 0
M  V30 6404 C 586.271 -2.90646 1.70371 0
M  V30 6405 O 586.801 -3.85133 1.14173 0
M  V30 6406 N 585.007 -2.54157 1.40899 0
M  V30 6407 H 584.554 -1.77391 1.86789 0
M  V30 6408 H 584.512 -3.06178 0.714301 0
M  V30 6409 N 588.284 -1.56567 -0.180126 0
M  V30 6410 C 589.514 -1.85349 -0.912647 0
M  V30 6411 C 589.922 -0.675795 -1.76719 0
M  V30 6412 O 589.265 0.3645 -1.80047 0
M  V30 6413 C 589.327 -3.08431 -1.84691 0
M  V30 6414 C 588.991 -4.41694 -1.17284 0
M  V30 6415 C 589.988 -5.17062 -0.542532 0
M  V30 6416 C 587.673 -4.8843 -1.17223 0
M  V30 6417 C 589.667 -6.37351 0.0793953 0
M  V30 6418 C 587.354 -6.08652 -0.54647 0
M  V30 6419 C 588.352 -6.82955 0.0782458 0
M  V30 6420 O 588.04 -8.00897 0.694158 0
M  V30 6421 H 587.772 -0.619286 -0.271036 0
M  V30 6422 H 590.326 -2.0454 -0.187768 0
M  V30 6423 H 588.556 -2.85163 -2.61188 0
M  V30 6424 H 590.245 -3.23733 -2.44851 0
M  V30 6425 H 591.011 -4.8204 -0.535045 0
M  V30 6426 H 586.89 -4.30542 -1.64788 0
M  V30 6427 H 590.434 -6.95287 0.567612 0
M  V30 6428 H 586.331 -6.4314 -0.55151 0
M  V30 6429 H 587.099 -8.16352 0.592537 0
M  V30 6430 N 589.762 0.448376 -1.51087 0
M  V30 6431 C 591.178 0.783984 -1.39017 0
M  V30 6432 C 591.378 1.96087 -0.463904 0
M  V30 6433 O 590.434 2.52357 0.0850534 0
M  V30 6434 C 591.747 1.07471 -2.80839 0
M  V30 6435 C 593.295 1.17981 -2.89913 0
M  V30 6436 C 593.77 1.50354 -4.32617 0
M  V30 6437 N 595.261 1.57301 -4.35673 0
M  V30 6438 C 595.996 1.839 -5.4311 0
M  V30 6439 N 595.492 2.08365 -6.60724 0
M  V30 6440 N 597.285 1.8559 -5.30578 0
M  V30 6441 H 589.436 -0.326881 -2.0987 0
M  V30 6442 H 591.699 -0.0838006 -0.944289 0
M  V30 6443 H 591.405 0.282768 -3.50561 0
M  V30 6444 H 591.279 2.00519 -3.19487 0
M  V30 6445 H 593.666 1.9624 -2.20395 0
M  V30 6446 H 593.747 0.228603 -2.54776 0
M  V30 6447 H 593.391 0.726273 -5.0268 0
M  V30 6448 H 593.321 2.46663 -4.65258 0
M  V30 6449 H 595.812 1.40342 -3.50874 0
M  V30 6450 H 596.125 2.27999 -7.38401 0
M  V30 6451 H 594.47 2.0571 -6.63859 0
M  V30 6452 H 597.661 1.65989 -4.37682 0
M  V30 6453 H 597.834 2.05983 -6.1439 0
M  V30 6454 N 591.24 1.41047 0.703093 0
M  V30 6455 C 592.203 1.42036 1.79884 0
M  V30 6456 C 593.203 0.312153 1.57741 0
M  V30 6457 O 594.393 0.571672 1.64553 0
M  V30 6458 C 591.525 1.22437 3.18154 0
M  V30 6459 H 592.718 2.39572 1.80403 0
M  V30 6460 H 590.271 1.27079 0.909977 0
M  V30 6461 H 591.006 0.257112 3.23279 0
M  V30 6462 H 590.791 2.02723 3.35627 0
M  V30 6463 H 592.281 1.25946 3.98155 0
M  V30 6464 N 592.718 -0.936591 1.26751 0
M  V30 6465 C 593.946 -1.71758 1.15355 0
M  V30 6466 C 594.361 -1.86549 -0.290683 0
M  V30 6467 O 593.718 -1.37616 -1.19868 0
M  V30 6468 C 593.769 -3.12193 1.82258 0
M  V30 6469 O 593.49 -2.98105 3.21038 0
M  V30 6470 C 594.991 -4.06485 1.76875 0
M  V30 6471 H 592.211 -0.537636 0.401483 0
M  V30 6472 H 594.755 -1.17382 1.67457 0
M  V30 6473 H 592.91 -3.63456 1.34083 0
M  V30 6474 H 593.324 -3.86824 3.54214 0
M  V30 6475 H 594.798 -5.02569 2.28316 0
M  V30 6476 H 595.275 -4.32986 0.736216 0
M  V30 6477 H 595.881 -3.61144 2.24623 0
M  V30 6478 N 594.196 -1.08629 -1.14182 0
M  V30 6479 C 595.143 -0.718299 -2.19338 0
M  V30 6480 C 596.113 0.296587 -1.63431 0
M  V30 6481 O 597.298 0.180079 -1.89948 0
M  V30 6482 C 594.438 -0.136203 -3.44831 0
M  V30 6483 C 593.551 -1.20414 -4.14879 0
M  V30 6484 C 592.686 -0.585666 -5.27962 0
M  V30 6485 C 591.725 -1.63548 -5.89846 0
M  V30 6486 N 590.862 -1.03864 -6.94375 0
M  V30 6487 H 595.702 -1.61932 -2.50164 0
M  V30 6488 H 593.239 -0.80919 -1.22844 0
M  V30 6489 H 595.197 0.219021 -4.16625 0
M  V30 6490 H 593.827 0.728121 -3.14481 0
M  V30 6491 H 592.879 -1.67676 -3.41451 0
M  V30 6492 H 594.191 -1.99959 -4.56966 0
M  V30 6493 H 593.345 -0.178818 -6.06436 0
M  V30 6494 H 592.084 0.24142 -4.87102 0
M  V30 6495 H 591.089 -2.05197 -5.10073 0
M  V30 6496 H 592.314 -2.46509 -6.3278 0
M  V30 6497 H 590.26 -0.232687 -6.55587 0
M  V30 6498 H 590.177 -1.77116 -7.3496 0
M  V30 6499 H 591.445 -0.657724 -7.7672 0
M  V30 6500 N 595.674 1.31259 -0.872281 0
M  V30 6501 C 596.899 2.0133 -0.498099 0
M  V30 6502 C 597.324 1.65031 0.902568 0
M  V30 6503 O 596.682 0.860164 1.59596 0
M  V30 6504 C 596.73 3.54411 -0.665205 0
M  V30 6505 O 595.834 4.11347 0.294473 0
M  V30 6506 H 595.175 0.633844 -0.197832 0
M  V30 6507 H 597.705 1.67402 -1.17633 0
M  V30 6508 H 597.715 4.04147 -0.559373 0
M  V30 6509 H 596.39 3.80171 -1.68651 0
M  V30 6510 H 594.967 3.72624 0.143403 0
M  V30 6511 N 597.152 0.631951 1.44375 0
M  V30 6512 C 598.398 0.13697 2.02337 0
M  V30 6513 C 598.731 -1.23826 1.49602 0
M  V30 6514 O 598.006 -1.8221 0.680415 0
M  V30 6515 C 598.289 0.124536 3.59885 0
M  V30 6516 C 598.142 1.53217 4.229 0
M  V30 6517 C 599.461 -0.550481 4.36644 0
M  V30 6518 H 596.58 0.051247 0.735216 0
M  V30 6519 H 599.222 0.808581 1.71936 0
M  V30 6520 H 597.372 -0.44737 3.85916 0
M  V30 6521 H 599.044 2.15303 4.07973 0
M  V30 6522 H 597.287 2.0858 3.80364 0
M  V30 6523 H 597.958 1.4755 5.31914 0
M  V30 6524 H 600.434 -0.0641154 4.16051 0
M  V30 6525 H 599.31 -0.528371 5.46351 0
M  V30 6526 H 599.571 -1.62097 4.11311 0
M  V30 6527 N 598.631 -1.53133 0.372548 0
M  V30 6528 C 599.578 -2.25951 -0.470631 0
M  V30 6529 C 600.548 -1.26895 -1.07176 0
M  V30 6530 O 601.733 -1.55691 -1.10294 0
M  V30 6531 C 598.873 -3.05726 -1.6008 0
M  V30 6532 C 597.986 -4.19684 -1.02416 0
M  V30 6533 C 597.121 -4.86888 -2.124 0
M  V30 6534 C 596.16 -5.92866 -1.52238 0
M  V30 6535 N 595.297 -6.53732 -2.56084 0
M  V30 6536 H 600.137 -2.97587 0.156816 0
M  V30 6537 H 597.674 -1.4683 0.0891571 0
M  V30 6538 H 599.632 -3.50258 -2.26661 0
M  V30 6539 H 598.262 -2.36331 -2.1988 0
M  V30 6540 H 597.314 -3.79588 -0.248426 0
M  V30 6541 H 598.626 -4.95821 -0.544366 0
M  V30 6542 H 597.78 -5.34638 -2.86787 0
M  V30 6543 H 596.519 -4.10239 -2.63734 0
M  V30 6544 H 595.524 -5.4447 -0.763685 0
M  V30 6545 H 596.749 -6.71439 -1.0172 0
M  V30 6546 H 594.695 -5.79932 -3.06618 0
M  V30 6547 H 594.612 -7.25429 -2.12811 0
M  V30 6548 H 595.88 -7.0613 -3.30152 0
M  V30 6549 N 600.109 -0.101901 -1.5727 0
M  V30 6550 C 601.337 0.568392 -1.98939 0
M  V30 6551 C 601.752 1.61301 -0.981194 0
M  V30 6552 O 601.109 1.82478 0.0282869 0
M  V30 6553 C 601.16 1.20997 -3.40649 0
M  V30 6554 O 600.881 0.207129 -4.3761 0
M  V30 6555 C 602.382 1.96523 -3.97358 0
M  V30 6556 H 599.602 0.15186 -0.65359 0
M  V30 6557 H 602.146 -0.183198 -2.03678 0
M  V30 6558 H 600.301 1.91245 -3.36904 0
M  V30 6559 H 600.715 0.671071 -5.20189 0
M  V30 6560 H 602.189 2.36764 -4.98645 0
M  V30 6561 H 602.666 2.83376 -3.35552 0
M  V30 6562 H 603.272 1.31076 -4.04598 0
M  V30 6563 N 601.587 1.56661 0.17182 0
M  V30 6564 C 602.517 1.99401 1.21498 0
M  V30 6565 C 603.498 0.869516 1.46197 0
M  V30 6566 O 604.683 1.13556 1.57539 0
M  V30 6567 C 601.813 2.35346 2.55401 0
M  V30 6568 C 600.767 3.5075 2.45272 0
M  V30 6569 C 600.093 3.72437 3.8366 0
M  V30 6570 C 601.393 4.84216 1.95787 0
M  V30 6571 H 603.087 2.86792 0.859699 0
M  V30 6572 H 600.633 1.37977 0.412103 0
M  V30 6573 H 602.586 2.63843 3.2858 0
M  V30 6574 H 601.31 1.44864 2.92715 0
M  V30 6575 H 599.969 3.2238 1.74547 0
M  V30 6576 H 599.617 2.79246 4.18367 0
M  V30 6577 H 599.317 4.50087 3.77751 0
M  V30 6578 H 600.841 4.03334 4.58426 0
M  V30 6579 H 602.255 5.11592 2.5874 0
M  V30 6580 H 600.652 5.65498 2.00827 0
M  V30 6581 H 601.722 4.76243 0.912159 0
M  V30 6582 N 603.065 -0.440357 1.51323 0
M  V30 6583 C 604.481 -0.7766 1.39431 0
M  V30 6584 C 604.681 -1.95838 0.474296 0
M  V30 6585 O 603.737 -2.52398 -0.0716692 0
M  V30 6586 C 605.05 -1.05981 2.81405 0
M  V30 6587 C 606.598 -1.16442 2.90534 0
M  V30 6588 C 607.073 -1.48058 4.33408 0
M  V30 6589 N 608.564 -1.54988 4.36501 0
M  V30 6590 C 609.299 -1.81017 5.44078 0
M  V30 6591 N 608.795 -2.04858 6.61819 0
M  V30 6592 N 610.588 -1.82774 5.31554 0
M  V30 6593 H 602.739 0.338006 2.09693 0
M  V30 6594 H 605.002 0.0888072 0.943831 0
M  V30 6595 H 604.708 -0.264173 3.50706 0
M  V30 6596 H 604.582 -1.98822 3.20546 0
M  V30 6597 H 606.969 -1.95068 2.21432 0
M  V30 6598 H 607.05 -0.215088 2.54894 0
M  V30 6599 H 606.694 -0.699605 5.03059 0
M  V30 6600 H 606.624 -2.44192 4.66559 0
M  V30 6601 H 609.115 -1.38479 3.51613 0
M  V30 6602 H 609.428 -2.2408 7.396 0
M  V30 6603 H 607.773 -2.02187 6.6494 0
M  V30 6604 H 610.964 -1.63665 4.38556 0
M  V30 6605 H 611.137 -2.02722 6.15474 0
M  V30 6606 N 604.543 -1.41418 -0.695603 0
M  V30 6607 C 605.49 -1.43264 -1.80954 0
M  V30 6608 C 606.46 -0.287016 -1.63601 0
M  V30 6609 O 607.645 -0.488054 -1.84452 0
M  V30 6610 C 604.785 -1.32054 -3.18835 0
M  V30 6611 C 603.898 -2.56485 -3.4762 0
M  V30 6612 C 603.033 -2.3757 -4.75115 0
M  V30 6613 C 602.072 -3.57477 -4.96867 0
M  V30 6614 N 601.209 -3.37632 -6.15588 0
M  V30 6615 H 606.049 -2.38467 -1.78711 0
M  V30 6616 H 603.586 -1.18415 -0.872715 0
M  V30 6617 H 605.544 -1.23558 -3.98484 0
M  V30 6618 H 604.174 -0.404592 -3.20254 0
M  V30 6619 H 603.226 -2.75432 -2.62376 0
M  V30 6620 H 604.538 -3.45678 -3.59594 0
M  V30 6621 H 603.692 -2.2654 -5.62818 0
M  V30 6622 H 602.431 -1.45834 -4.65386 0
M  V30 6623 H 601.436 -3.68961 -4.07612 0
M  V30 6624 H 602.661 -4.50167 -5.08455 0
M  V30 6625 H 600.607 -2.48596 -6.07072 0
M  V30 6626 H 600.524 -4.20401 -6.2833 0
M  V30 6627 H 601.792 -3.30375 -7.06026 0
M  V30 6628 N 606.021 0.929856 -1.27246 0
M  V30 6629 C 607.437 1.20542 -1.04603 0
M  V30 6630 C 607.637 2.00276 0.221754 0
M  V30 6631 O 606.693 2.34835 0.927833 0
M  V30 6632 C 608.006 1.95566 -2.28417 0
M  V30 6633 C 609.554 2.08513 -2.33433 0
M  V30 6634 C 610.029 2.86943 -3.5697 0
M  V30 6635 N 611.52 2.94512 -3.57515 0
M  V30 6636 C 612.255 3.55656 -4.49774 0
M  V30 6637 N 611.751 4.18209 -5.52334 0
M  V30 6638 N 613.544 3.53038 -4.37402 0
M  V30 6639 H 605.695 0.397113 -2.08655 0
M  V30 6640 H 607.958 0.238277 -0.917566 0
M  V30 6641 H 607.664 1.44395 -3.20691 0
M  V30 6642 H 607.538 2.9619 -2.33563 0
M  V30 6643 H 609.925 2.58872 -1.41666 0
M  V30 6644 H 610.006 1.07117 -2.32292 0
M  V30 6645 H 609.65 2.37268 -4.49072 0
M  V30 6646 H 609.58 3.8862 -3.55362 0
M  V30 6647 H 612.071 2.50053 -2.83341 0
M  V30 6648 H 612.384 4.62796 -6.18902 0
M  V30 6649 H 610.729 4.16761 -5.56179 0
M  V30 6650 H 613.92 3.0337 -3.56489 0
M  V30 6651 H 614.093 4.004 -5.09493 0
M  V30 6652 N 607.499 1.09233 1.13605 0
M  V30 6653 C 608.724 0.849067 1.89224 0
M  V30 6654 C 609.149 -0.593875 1.78479 0
M  V30 6655 O 608.507 -1.41703 1.13092 0
M  V30 6656 C 608.555 1.28642 3.36873 0
M  V30 6657 O 607.659 0.44363 4.10007 0
M  V30 6658 H 607 0.30767 0.588417 0
M  V30 6659 H 609.53 1.45595 1.43748 0
M  V30 6660 H 609.54 1.27096 3.87699 0
M  V30 6661 H 608.215 2.33729 3.44011 0
M  V30 6662 H 606.792 0.523241 3.69211 0
M  V30 6663 N 608.977 -1.30795 0.87923 0
M  V30 6664 C 610.202 -2.01063 0.508769 0
M  V30 6665 C 610.627 -1.65508 -0.893803 0
M  V30 6666 O 609.985 -0.868616 -1.59138 0
M  V30 6667 C 610.033 -3.54054 0.683991 0
M  V30 6668 O 609.137 -4.11498 -0.272654 0
M  V30 6669 H 608.478 -0.632786 0.201191 0
M  V30 6670 H 611.008 -1.66776 1.18519 0
M  V30 6671 H 611.018 -4.03845 0.580798 0
M  V30 6672 H 609.693 -3.79271 1.70665 0
M  V30 6673 H 608.27 -3.72695 -0.12364 0
M  V30 6674 N 610.455 -0.639598 -1.44038 0
M  V30 6675 C 611.402 0.0602458 -2.30721 0
M  V30 6676 C 612.372 0.828352 -1.43971 0
M  V30 6677 O 613.557 0.807693 -1.72861 0
M  V30 6678 C 610.697 1.03008 -3.29368 0
M  V30 6679 C 609.81 0.259502 -4.3122 0
M  V30 6680 C 608.945 1.22191 -5.16955 0
M  V30 6681 C 607.984 0.440978 -6.10509 0
M  V30 6682 N 607.121 1.35428 -6.88915 0
M  V30 6683 H 611.961 -0.684867 -2.90023 0
M  V30 6684 H 609.498 -0.349509 -1.42888 0
M  V30 6685 H 611.456 1.60583 -3.85057 0
M  V30 6686 H 610.086 1.74222 -2.71747 0
M  V30 6687 H 609.138 -0.432317 -3.77935 0
M  V30 6688 H 610.45 -0.348347 -4.97582 0
M  V30 6689 H 609.604 1.86873 -5.77203 0
M  V30 6690 H 608.343 1.86367 -4.50687 0
M  V30 6691 H 607.348 -0.219279 -5.49363 0
M  V30 6692 H 608.573 -0.196192 -6.78817 0
M  V30 6693 H 606.519 1.9831 -6.25307 0
M  V30 6694 H 606.436 0.800657 -7.51748 0
M  V30 6695 H 607.704 1.98967 -7.53679 0
M  V30 6696 N 611.933 1.52934 -0.380664 0
M  V30 6697 C 613.182 2.00651 0.205477 0
M  V30 6698 C 613.495 1.27164 1.48623 0
M  V30 6699 O 614.701 1.65547 2.15189 0
M  V30 6700 C 613.157 3.57479 0.416726 0
M  V30 6701 C 612.765 4.39857 -0.850268 0
M  V30 6702 C 614.509 4.13509 0.959702 0
M  V30 6703 C 612.416 5.88269 -0.607773 0
M  V30 6704 H 611.346 0.749684 0.0805614 0
M  V30 6705 H 613.997 1.76508 -0.501732 0
M  V30 6706 H 612.379 3.77836 1.18557 0
M  V30 6707 H 613.553 4.31269 -1.62307 0
M  V30 6708 H 611.868 3.95005 -1.31756 0
M  V30 6709 H 614.465 5.22039 1.15669 0
M  V30 6710 H 614.808 3.69054 1.92626 0
M  V30 6711 H 615.341 3.9701 0.250645 0
M  V30 6712 H 612.08 6.3703 -1.54509 0
M  V30 6713 H 611.6 5.99667 0.126247 0
M  V30 6714 H 613.279 6.46558 -0.239014 0
M  V30 6715 N 613.412 0.11024 1.57214 0
M  V30 6716 C 614.642 -0.557025 1.98949 0
M  V30 6717 C 615.05 -1.61317 0.988606 0
M  V30 6718 O 614.393 -1.83679 -0.0279159 0
M  V30 6719 C 614.455 -1.24956 3.37085 0
M  V30 6720 C 614.119 -0.342398 4.55716 0
M  V30 6721 C 615.116 0.415511 5.18237 0
M  V30 6722 C 612.801 -0.256029 5.01647 0
M  V30 6723 C 614.795 1.24761 6.25071 0
M  V30 6724 C 612.482 0.579713 6.08344 0
M  V30 6725 C 613.48 1.33017 6.69922 0
M  V30 6726 O 613.168 2.15205 7.74559 0
M  V30 6727 H 612.9 -0.152792 0.658506 0
M  V30 6728 H 615.454 0.19076 2.04512 0
M  V30 6729 H 613.684 -2.04424 3.2825 0
M  V30 6730 H 615.373 -1.81286 3.63167 0
M  V30 6731 H 616.139 0.358605 4.83672 0
M  V30 6732 H 612.018 -0.829831 4.5347 0
M  V30 6733 H 615.562 1.83386 6.73064 0
M  V30 6734 H 611.459 0.638044 6.42339 0
M  V30 6735 H 612.227 2.08052 7.91617 0
M  V30 6736 N 614.89 -1.56749 -0.16351 0
M  V30 6737 C 616.137 -1.82434 -0.878866 0
M  V30 6738 C 616.465 -0.688557 -1.81904 0
M  V30 6739 O 615.72 0.323644 -1.93005 0
M  V30 6740 C 616.019 -3.14342 -1.70071 0
M  V30 6741 C 615.685 -4.41647 -0.908775 0
M  V30 6742 C 614.347 -4.76224 -0.690236 0
M  V30 6743 C 616.699 -5.19998 -0.353815 0
M  V30 6744 C 614.027 -5.86624 0.0942374 0
M  V30 6745 C 616.379 -6.3122 0.41761 0
M  V30 6746 C 615.043 -6.64358 0.646879 0
M  V30 6747 H 614.313 -0.667574 -0.3216 0
M  V30 6748 H 616.96 -1.90963 -0.14337 0
M  V30 6749 H 615.265 -3.0119 -2.50583 0
M  V30 6750 H 616.962 -3.31426 -2.25738 0
M  V30 6751 H 613.552 -4.1453 -1.08916 0
M  V30 6752 H 617.736 -4.93673 -0.509975 0
M  V30 6753 H 612.992 -6.10751 0.281529 0
M  V30 6754 H 617.166 -6.91133 0.854849 0
M  V30 6755 H 614.793 -7.49742 1.25662 0
M  V30 6756 N 616.368 0.432326 -1.51554 0
M  V30 6757 C 617.784 0.769195 -1.39841 0
M  V30 6758 C 617.984 1.95584 -0.484675 0
M  V30 6759 O 617.04 2.52433 0.0582829 0
M  V30 6760 C 618.353 1.04487 -2.81963 0
M  V30 6761 C 619.901 1.149 -2.91148 0
M  V30 6762 C 620.376 1.45758 -4.34187 0
M  V30 6763 N 621.867 1.52671 -4.37317 0
M  V30 6764 C 622.602 1.78129 -5.4503 0
M  V30 6765 N 622.098 2.01345 -6.62897 0
M  V30 6766 N 623.891 1.79953 -5.32516 0
M  V30 6767 H 616.042 -0.349122 -2.09511 0
M  V30 6768 H 618.305 -0.0938113 -0.943347 0
M  V30 6769 H 618.011 0.24557 -3.50842 0
M  V30 6770 H 617.885 1.97119 -3.21596 0
M  V30 6771 H 620.272 1.93891 -2.22464 0
M  V30 6772 H 620.353 0.201568 -2.55005 0
M  V30 6773 H 619.997 0.672917 -5.03423 0
M  V30 6774 H 619.927 2.41715 -4.67848 0
M  V30 6775 H 622.418 1.36612 -3.52343 0
M  V30 6776 H 622.731 2.20155 -7.40778 0
M  V30 6777 H 621.076 1.98657 -6.66003 0
M  V30 6778 H 624.267 1.61337 -4.39418 0
M  V30 6779 H 624.44 1.99455 -6.1654 0
M  V30 6780 N 617.846 1.41785 0.688094 0
M  V30 6781 C 618.794 1.44436 1.82321 0
M  V30 6782 C 619.788 0.321544 1.6632 0
M  V30 6783 O 620.994 0.493931 1.73091 0
M  V30 6784 H 617.369 0.452084 0.600936 0
M  V30 6785 H 619.34 2.40087 1.77202 0
M  V30 6786 C 618.089 1.35071 3.20392 0
M  V30 6787 H 617.412 2.2076 3.33324 0
M  V30 6788 H 618.852 1.40988 3.99873 0
M  V30 6789 C 617.311 0.0639127 3.36839 0
M  V30 6790 O 617.841 -0.888495 3.91751 0
M  V30 6791 N 616.047 -0.0146114 2.90596 0
M  V30 6792 H 615.594 0.761191 2.46097 0
M  V30 6793 H 615.552 -0.874988 3.01979 0
M  V30 6794 N 619.324 -0.923095 1.27737 0
M  V30 6795 C 620.735 -1.48626 1.12993 0
M  V30 6796 C 621.086 -1.94142 -0.283439 0
M  V30 6797 O 620.211 -1.81605 -1.17681 0
M  V30 6798 C 620.806 -2.70117 2.04505 0
M  V30 6799 C 619.365 -3.22642 1.93853 0
M  V30 6800 C 618.512 -1.95368 1.96791 0
M  V30 6801 H 621.463 -0.736737 1.40563 0
M  V30 6802 H 621.484 -3.4506 1.60356 0
M  V30 6803 H 620.996 -2.36959 3.07363 0
M  V30 6804 H 619.097 -3.60549 0.939968 0
M  V30 6805 H 619.21 -3.88525 2.80331 0
M  V30 6806 H 617.574 -2.12061 1.41076 0
M  V30 6807 H 618.357 -1.64517 3.01312 0
M  V30 6808 N 620.802 -1.09834 -1.13024 0
M  V30 6809 C 621.735 -0.685453 -2.17662 0
M  V30 6810 C 622.713 0.310142 -1.59615 0
M  V30 6811 O 623.897 0.21052 -1.87321 0
M  V30 6812 C 621.024 -0.0104476 -3.38698 0
M  V30 6813 C 620.07 -0.968522 -4.15358 0
M  V30 6814 S 620.903 -2.48272 -4.74469 0
M  V30 6815 C 622.059 -1.82025 -5.98847 0
M  V30 6816 H 622.292 -1.57187 -2.52348 0
M  V30 6817 H 619.825 -0.914728 -1.24387 0
M  V30 6818 H 621.783 0.372694 -4.08805 0
M  V30 6819 H 620.444 0.852673 -3.02305 0
M  V30 6820 H 619.637 -0.443373 -5.02046 0
M  V30 6821 H 619.239 -1.29327 -3.50928 0
M  V30 6822 H 621.531 -1.14678 -6.67724 0
M  V30 6823 H 622.474 -2.66645 -6.55977 0
M  V30 6824 H 622.882 -1.2874 -5.49624 0
M  V30 6825 N 622.28 1.30327 -0.886154 0
M  V30 6826 C 623.243 2.26376 -0.358687 0
M  V30 6827 C 624.243 1.52845 0.499498 0
M  V30 6828 O 625.433 1.71483 0.306485 0
M  V30 6829 C 622.565 3.37379 0.488726 0
M  V30 6830 H 623.758 2.74547 -1.20681 0
M  V30 6831 H 621.311 1.41536 -0.663113 0
M  V30 6832 H 622.046 2.94526 1.35739 0
M  V30 6833 H 621.831 3.91897 -0.126003 0
M  V30 6834 H 623.321 4.08868 0.84952 0
M  V30 6835 N 623.758 0.647228 1.43697 0
M  V30 6836 C 624.668 -0.0487997 2.34549 0
M  V30 6837 C 625.684 -0.818586 1.53542 0
M  V30 6838 O 626.86 -0.767195 1.86215 0
M  V30 6839 C 623.925 -1.00734 3.31743 0
M  V30 6840 C 622.986 -0.23515 4.28655 0
M  V30 6841 C 622.219 -1.14803 5.21206 0
M  V30 6842 O 622.442 -2.38717 5.18045 0
M  V30 6843 O 621.376 -0.623667 5.9866 0
M  V30 6844 H 625.202 0.698863 2.9555 0
M  V30 6845 H 622.787 0.407412 1.43738 0
M  V30 6846 H 624.669 -1.55837 3.91526 0
M  V30 6847 H 623.344 -1.73534 2.73254 0
M  V30 6848 H 622.251 0.359319 3.7237 0
M  V30 6849 H 623.584 0.453152 4.9011 0
M  V30 6850 N 625.236 -1.5273 0.388769 0
M  V30 6851 C 626.184 -2.27975 -0.461527 0
M  V30 6852 C 627.178 -1.31854 -1.06352 0
M  V30 6853 O 628.384 -1.49394 -1.00406 0
M  V30 6854 H 624.759 -0.733088 -0.16759 0
M  V30 6855 H 626.73 -2.97765 0.194579 0
M  V30 6856 C 625.479 -3.09881 -1.577 0
M  V30 6857 H 624.802 -3.83701 -1.12309 0
M  V30 6858 H 626.242 -3.6567 -2.14619 0
M  V30 6859 C 624.701 -2.22159 -2.53272 0
M  V30 6860 O 625.231 -1.84802 -3.56667 0
M  V30 6861 N 623.437 -1.8633 -2.23001 0
M  V30 6862 H 622.984 -2.16909 -1.38954 0
M  V30 6863 H 622.942 -1.27927 -2.87197 0
M  V30 6864 N 626.714 -0.118576 -1.57153 0
M  V30 6865 C 627.939 0.550582 -1.99958 0
M  V30 6866 C 628.364 1.59458 -0.997736 0
M  V30 6867 O 627.722 1.81274 0.0306269 0
M  V30 6868 C 627.77 1.15379 -3.41643 0
M  V30 6869 O 626.874 2.26932 -3.44348 0
M  V30 6870 H 626.215 0.137567 -0.649593 0
M  V30 6871 H 628.745 -0.206926 -2.03551 0
M  V30 6872 H 628.755 1.48942 -3.79843 0
M  V30 6873 H 627.43 0.389087 -4.14076 0
M  V30 6874 H 626.007 1.94812 -3.17967 0
M  V30 6875 N 628.193 1.56834 0.155195 0
M  V30 6876 C 629.14 1.97646 1.19184 0
M  V30 6877 C 630.11 0.842788 1.4313 0
M  V30 6878 O 631.295 1.1042 1.55602 0
M  V30 6879 C 628.435 2.35527 2.52232 0
M  V30 6880 C 627.548 3.62147 2.35529 0
M  V30 6881 C 626.683 3.89167 3.61555 0
M  V30 6882 C 625.722 5.09084 3.39853 0
M  V30 6883 N 624.859 5.32156 4.5799 0
M  V30 6884 H 629.699 2.8601 0.836802 0
M  V30 6885 H 627.236 1.41507 0.401758 0
M  V30 6886 H 629.194 2.55516 3.29799 0
M  V30 6887 H 627.824 1.50253 2.85699 0
M  V30 6888 H 626.876 3.4998 1.49057 0
M  V30 6889 H 628.188 4.49871 2.15448 0
M  V30 6890 H 627.342 4.09611 4.47553 0
M  V30 6891 H 626.081 2.9985 3.84632 0
M  V30 6892 H 625.086 4.88522 2.52243 0
M  V30 6893 H 626.311 5.99947 3.18183 0
M  V30 6894 H 624.257 4.45791 4.81255 0
M  V30 6895 H 624.174 6.14133 4.40882 0
M  V30 6896 H 625.442 5.57091 5.45225 0
M  V30 6897 N 629.671 -0.424282 1.51781 0
M  V30 6898 C 630.918 -1.1726 1.65095 0
M  V30 6899 C 631.246 -1.90881 0.373477 0
M  V30 6900 O 630.501 -1.84835 -0.642997 0
M  V30 6901 C 630.8 -2.20418 2.81337 0
M  V30 6902 C 630.466 -1.63715 4.20129 0
M  V30 6903 C 629.128 -1.47975 4.57883 0
M  V30 6904 C 631.48 -1.22157 5.06682 0
M  V30 6905 C 628.808 -0.891703 5.79884 0
M  V30 6906 C 631.16 -0.647767 6.29275 0
M  V30 6907 C 629.824 -0.477371 6.65791 0
M  V30 6908 H 629.094 -0.429085 0.604125 0
M  V30 6909 H 631.741 -0.461852 1.85847 0
M  V30 6910 H 630.046 -2.97581 2.54859 0
M  V30 6911 H 631.743 -2.78163 2.88836 0
M  V30 6912 H 628.333 -1.76946 3.90369 0
M  V30 6913 H 632.517 -1.33133 4.7811 0
M  V30 6914 H 627.773 -0.747563 6.06813 0
M  V30 6915 H 631.947 -0.317291 6.95677 0
M  V30 6916 H 629.574 -0.0195936 7.60197 0
M  V30 6917 N 631.149 -1.42148 -0.680565 0
M  V30 6918 C 632.396 -1.4231 -1.44063 0
M  V30 6919 C 632.724 -0.037488 -1.94464 0
M  V30 6920 O 631.979 0.953184 -1.70918 0
M  V30 6921 C 632.278 -2.38945 -2.65782 0
M  V30 6922 C 631.944 -3.85455 -2.33956 0
M  V30 6923 C 630.606 -4.25364 -2.24987 0
M  V30 6924 C 632.958 -4.77895 -2.08004 0
M  V30 6925 C 630.286 -5.55701 -1.88184 0
M  V30 6926 C 632.638 -6.08568 -1.72706 0
M  V30 6927 C 631.302 -6.47482 -1.62244 0
M  V30 6928 H 630.572 -0.520748 -0.527164 0
M  V30 6929 H 633.219 -1.7505 -0.776524 0
M  V30 6930 H 631.524 -1.99511 -3.37198 0
M  V30 6931 H 633.221 -2.36336 -3.23954 0
M  V30 6932 H 629.811 -3.53855 -2.41836 0
M  V30 6933 H 633.995 -4.47854 -2.1387 0
M  V30 6934 H 629.251 -5.84718 -1.78648 0
M  V30 6935 H 633.425 -6.79688 -1.5165 0
M  V30 6936 H 631.052 -7.48387 -1.33496 0
M  V30 6937 N 632.627 0.916307 -1.28225 0
M  V30 6938 C 633.574 2.01841 -1.11932 0
M  V30 6939 C 634.544 1.66091 -0.0171604 0
M  V30 6940 O 635.729 1.89934 -0.181617 0
M  V30 6941 C 632.869 3.36065 -0.784504 0
M  V30 6942 C 631.982 3.847 -1.96544 0
M  V30 6943 C 631.117 5.07423 -1.57149 0
M  V30 6944 C 630.156 5.48384 -2.71922 0
M  V30 6945 N 629.293 6.62298 -2.33037 0
M  V30 6946 H 634.133 2.1511 -2.06232 0
M  V30 6947 H 631.67 1.05366 -1.02647 0
M  V30 6948 H 633.628 4.13272 -0.571148 0
M  V30 6949 H 632.258 3.22571 0.121565 0
M  V30 6950 H 631.31 3.03673 -2.291 0
M  V30 6951 H 632.622 4.1102 -2.82603 0
M  V30 6952 H 631.776 5.92165 -1.32004 0
M  V30 6953 H 630.515 4.82906 -0.682153 0
M  V30 6954 H 629.52 4.62184 -2.97768 0
M  V30 6955 H 630.745 5.7489 -3.61494 0
M  V30 6956 H 628.691 6.39416 -1.4657 0
M  V30 6957 H 628.608 6.8833 -3.12631 0
M  V30 6958 H 629.876 7.50352 -2.11169 0
M  V30 6959 N 634.105 1.10431 1.1244 0
M  V30 6960 C 635.052 0.753103 2.18167 0
M  V30 6961 C 636.022 -0.270549 1.63882 0
M  V30 6962 O 637.207 -0.149837 1.90211 0
M  V30 6963 C 634.347 0.191046 3.44571 0
M  V30 6964 C 633.46 1.26999 4.12911 0
M  V30 6965 C 632.595 0.669586 5.26963 0
M  V30 6966 C 631.634 1.72912 5.87169 0
M  V30 6967 N 630.771 1.14898 6.92635 0
M  V30 6968 H 635.611 1.65892 2.47556 0
M  V30 6969 H 633.148 0.828631 1.21541 0
M  V30 6970 H 635.106 -0.152712 4.1692 0
M  V30 6971 H 633.736 -0.677997 3.15599 0
M  V30 6972 H 632.788 1.73087 3.3874 0
M  V30 6973 H 634.1 2.07204 4.53727 0
M  V30 6974 H 633.254 0.275274 6.06075 0
M  V30 6975 H 631.993 -0.163895 4.87425 0
M  V30 6976 H 630.998 2.13286 5.06744 0
M  V30 6977 H 632.223 2.56544 6.28778 0
M  V30 6978 H 630.169 0.336956 6.55134 0
M  V30 6979 H 630.086 1.88786 7.32049 0
M  V30 6980 H 631.354 0.78121 7.75576 0
M  V30 6981 N 635.583 -1.29855 0.893053 0
M  V30 6982 C 636.533 -2.25493 0.337211 0
M  V30 6983 C 637.517 -1.51606 -0.53894 0
M  V30 6984 O 638.709 -1.72828 -0.382043 0
M  V30 6985 C 635.838 -3.40467 -0.440117 0
M  V30 6986 C 634.924 -4.217 0.450578 0
M  V30 6987 N 635.315 -4.81312 1.55476 0
M  V30 6988 C 633.613 -4.45315 0.247154 0
M  V30 6989 C 634.314 -5.42241 2.10593 0
M  V30 6990 N 633.29 -5.25267 1.39982 0
M  V30 6991 H 637.092 -2.69137 1.18079 0
M  V30 6992 H 634.606 -1.44388 0.743359 0
M  V30 6993 H 636.603 -4.08038 -0.855021 0
M  V30 6994 H 635.263 -2.98361 -1.28104 0
M  V30 6995 H 636.274 -4.80291 1.93755 0
M  V30 6996 H 632.951 -4.13782 -0.555939 0
M  V30 6997 H 634.341 -5.99517 3.03362 0
M  V30 6998 N 637.061 -0.65484 -1.43351 0
M  V30 6999 C 638.309 -0.168559 -2.01396 0
M  V30 7000 C 638.63 1.22235 -1.51933 0
M  V30 7001 O 637.9 1.81685 -0.732627 0
M  V30 7002 H 636.48 -0.0593244 -0.744641 0
M  V30 7003 H 639.142 -0.846871 -1.75539 0
M  V30 7004 H 638.238 -0.154428 -3.11718 0
M  V30 7005 N 638.539 1.52521 -0.396863 0
M  V30 7006 C 639.788 2.00857 0.184184 0
M  V30 7007 C 640.101 1.28733 1.47265 0
M  V30 7008 O 641.307 1.67821 2.13421 0
M  V30 7009 C 639.763 3.57901 0.378787 0
M  V30 7010 C 639.371 4.38931 -0.896873 0
M  V30 7011 C 641.115 4.14504 0.915789 0
M  V30 7012 C 639.022 5.87591 -0.670133 0
M  V30 7013 H 637.952 0.750496 0.0726055 0
M  V30 7014 H 640.603 1.75965 -0.520425 0
M  V30 7015 H 638.985 3.79072 1.14543 0
M  V30 7016 H 640.159 4.29524 -1.66872 0
M  V30 7017 H 638.474 3.93586 -1.35938 0
M  V30 7018 H 641.071 5.23236 1.10126 0
M  V30 7019 H 641.414 3.71076 1.88701 0
M  V30 7020 H 641.947 3.97253 0.208523 0
M  V30 7021 H 638.686 6.35355 -1.61257 0
M  V30 7022 H 638.206 5.99767 0.0626368 0
M  V30 7023 H 639.885 6.46268 -0.307577 0
M  V30 7024 N 640.017 0.126909 1.57088 0
M  V30 7025 C 641.433 -0.229641 1.57939 0
M  V30 7026 C 641.633 -1.66145 1.1401 0
M  V30 7027 O 640.689 -2.3843 0.831119 0
M  V30 7028 C 642.002 0.0108648 3.00698 0
M  V30 7029 C 643.55 -0.054418 3.12953 0
M  V30 7030 C 644.025 0.158497 4.57726 0
M  V30 7031 N 645.516 0.104735 4.63082 0
M  V30 7032 C 646.251 0.24427 5.72879 0
M  V30 7033 N 645.747 0.440415 6.91399 0
M  V30 7034 N 647.54 0.183286 5.61801 0
M  V30 7035 H 639.691 1.06203 1.83942 0
M  V30 7036 H 641.954 0.418834 0.85046 0
M  V30 7037 H 641.66 1.00102 3.37154 0
M  V30 7038 H 641.534 -0.717512 3.70313 0
M  V30 7039 H 643.921 -1.0351 2.7635 0
M  V30 7040 H 644.002 0.705967 2.45865 0
M  V30 7041 H 643.646 1.13619 4.95028 0
M  V30 7042 H 643.576 -0.62197 5.22914 0
M  V30 7043 H 646.067 -0.0430298 3.77876 0
M  V30 7044 H 646.38 0.537536 7.70928 0
M  V30 7045 H 644.725 0.476488 6.93365 0
M  V30 7046 H 647.916 0.0309561 4.6809 0
M  V30 7047 H 648.089 0.295471 6.47326 0
M  V30 7048 N 641.495 -1.56914 -0.146875 0
M  V30 7049 C 642.443 -1.99224 -1.20053 0
M  V30 7050 C 643.437 -0.884661 -1.44465 0
M  V30 7051 O 644.643 -1.06984 -1.44756 0
M  V30 7052 H 641.018 -0.634191 -0.404112 0
M  V30 7053 H 642.989 -2.86998 -0.816987 0
M  V30 7054 C 641.738 -2.38899 -2.52632 0
M  V30 7055 H 641.061 -3.23677 -2.34677 0
M  V30 7056 H 642.501 -2.72326 -3.24984 0
M  V30 7057 C 640.96 -1.2417 -3.13183 0
M  V30 7058 O 641.49 -0.542503 -3.9802 0
M  V30 7059 N 639.696 -1.00592 -2.72635 0
M  V30 7060 H 639.243 -1.57627 -2.03744 0
M  V30 7061 H 639.201 -0.240174 -3.13481 0
M  V30 7062 N 642.974 0.416227 -1.52004 0
M  V30 7063 C 644.222 1.16153 -1.65387 0
M  V30 7064 C 644.543 1.91208 -0.382669 0
M  V30 7065 O 643.813 1.86413 0.602231 0
M  V30 7066 H 642.393 0.431765 -0.60958 0
M  V30 7067 H 645.055 0.475151 -1.89019 0
M  V30 7068 H 644.151 1.87952 -2.4916 0
M  V30 7069 N 644.452 1.42507 0.673017 0
M  V30 7070 C 645.701 1.42364 1.42883 0
M  V30 7071 C 646.014 0.0441598 1.9555 0
M  V30 7072 O 647.22 -0.0798679 2.71382 0
M  V30 7073 C 645.676 2.5043 2.58482 0
M  V30 7074 C 645.284 3.94392 2.12506 0
M  V30 7075 C 647.028 2.59455 3.35981 0
M  V30 7076 C 644.935 4.93964 3.25198 0
M  V30 7077 H 643.865 0.52951 0.536782 0
M  V30 7078 H 646.516 1.68422 0.728448 0
M  V30 7079 H 644.898 2.1754 3.30896 0
M  V30 7080 H 646.072 4.36645 1.47233 0
M  V30 7081 H 644.387 3.89233 1.4794 0
M  V30 7082 H 646.984 3.31025 4.19912 0
M  V30 7083 H 647.327 1.63869 3.82691 0
M  V30 7084 H 647.86 2.91549 2.70637 0
M  V30 7085 H 644.599 5.91034 2.83477 0
M  V30 7086 H 644.119 4.56341 3.89247 0
M  V30 7087 H 645.798 5.15763 3.90637 0
M  V30 7088 N 645.93 -0.909495 1.28709 0
M  V30 7089 C 646.878 -2.03381 1.12866 0
M  V30 7090 C 647.872 -1.69335 0.0468074 0
M  V30 7091 O 649.078 -1.78819 0.205891 0
M  V30 7092 H 645.453 -0.666452 0.348348 0
M  V30 7093 H 647.424 -2.13885 2.08077 0
M  V30 7094 C 646.173 -3.38092 0.811742 0
M  V30 7095 H 645.496 -3.64786 1.63619 0
M  V30 7096 H 646.936 -4.17477 0.740869 0
M  V30 7097 C 645.395 -3.33395 -0.484679 0
M  V30 7098 O 645.925 -3.72089 -1.5137 0
M  V30 7099 N 644.131 -2.86491 -0.486961 0
M  V30 7100 H 643.678 -2.55199 0.350877 0
M  V30 7101 H 643.636 -2.83731 -1.3544 0
M  V30 7102 N 647.408 -1.11026 -1.11852 0
M  V30 7103 C 648.819 -0.873203 -1.65021 0
M  V30 7104 C 649.17 0.595364 -1.86949 0
M  V30 7105 O 648.295 1.45645 -1.60051 0
M  V30 7106 C 648.89 -1.57859 -2.99777 0
M  V30 7107 C 647.449 -1.38807 -3.49871 0
M  V30 7108 C 646.596 -1.62403 -2.24768 0
M  V30 7109 H 649.547 -1.26712 -0.955503 0
M  V30 7110 H 649.568 -1.02111 -3.66543 0
M  V30 7111 H 649.08 -2.6474 -2.83786 0
M  V30 7112 H 647.181 -0.341163 -3.71035 0
M  V30 7113 H 647.294 -2.13421 -4.28938 0
M  V30 7114 H 645.658 -1.04714 -2.32179 0
M  V30 7115 H 646.441 -2.70549 -2.11324 0
M  V30 7116 N 648.886 1.2938 -0.899927 0
M  V30 7117 C 649.849 2.25983 -0.382677 0
M  V30 7118 C 650.849 1.53366 0.483259 0
M  V30 7119 O 652.039 1.71798 0.28828 0
M  V30 7120 C 649.171 3.37878 0.452915 0
M  V30 7121 H 650.364 2.73252 -1.23586 0
M  V30 7122 H 647.917 1.40825 -0.678088 0
M  V30 7123 H 648.652 2.95949 1.32608 0
M  V30 7124 H 648.437 3.91742 -0.167562 0
M  V30 7125 H 649.927 4.09746 0.806107 0
M  V30 7126 N 650.364 0.662433 1.43002 0
M  V30 7127 C 651.297 -0.073459 2.28082 0
M  V30 7128 C 652.275 -0.820869 1.40358 0
M  V30 7129 O 653.459 -0.818545 1.698 0
M  V30 7130 C 650.586 -1.11097 3.19961 0
M  V30 7131 C 649.632 -0.460557 4.24006 0
M  V30 7132 S 650.465 0.772717 5.29896 0
M  V30 7133 C 651.621 -0.264028 6.25343 0
M  V30 7134 H 651.854 0.648227 2.90147 0
M  V30 7135 H 649.387 0.451566 1.47649 0
M  V30 7136 H 651.345 -1.70452 3.73439 0
M  V30 7137 H 650.006 -1.80503 2.57056 0
M  V30 7138 H 649.199 -1.24299 4.88432 0
M  V30 7139 H 648.801 0.0591038 3.73953 0
M  V30 7140 H 651.093 -1.12748 6.68052 0
M  V30 7141 H 652.036 0.345443 7.07257 0
M  V30 7142 H 652.444 -0.603964 5.6126 0
M  V30 7143 N 651.842 -1.52309 0.404946 0
M  V30 7144 C 653.072 -2.05886 -0.171569 0
M  V30 7145 C 653.48 -1.27527 -1.39762 0
M  V30 7146 O 652.823 -0.319215 -1.80905 0
M  V30 7147 C 652.885 -3.54609 -0.590983 0
M  V30 7148 C 652.549 -4.53989 0.523757 0
M  V30 7149 C 653.546 -5.01084 1.38604 0
M  V30 7150 C 651.231 -4.97465 0.695255 0
M  V30 7151 C 653.225 -5.90295 2.4048 0
M  V30 7152 C 650.912 -5.86473 1.71733 0
M  V30 7153 C 651.91 -6.32782 2.57051 0
M  V30 7154 O 651.598 -7.20029 3.57509 0
M  V30 7155 H 651.33 -0.675508 -0.0257763 0
M  V30 7156 H 653.884 -1.97238 0.573278 0
M  V30 7157 H 652.114 -3.60929 -1.38805 0
M  V30 7158 H 653.803 -3.90853 -1.09494 0
M  V30 7159 H 654.569 -4.68214 1.26492 0
M  V30 7160 H 650.448 -4.60982 0.0408447 0
M  V30 7161 H 653.992 -6.26363 3.07108 0
M  V30 7162 H 649.889 -6.18756 1.83877 0
M  V30 7163 H 650.657 -7.3813 3.53703 0
M  V30 7164 N 653.32 -0.135238 -1.57019 0
M  V30 7165 C 654.252 0.839675 -2.13265 0
M  V30 7166 C 655.265 1.21887 -1.07923 0
M  V30 7167 O 656.454 1.16499 -1.35241 0
M  V30 7168 C 653.554 2.13647 -2.63075 0
M  V30 7169 C 652.727 1.92646 -3.92691 0
M  V30 7170 C 651.786 3.06205 -4.27931 0
M  V30 7171 O 650.812 2.78409 -4.96465 0
M  V30 7172 N 652.014 4.33072 -3.86561 0
M  V30 7173 H 654.779 0.359026 -2.97542 0
M  V30 7174 H 652.34 0.0486979 -1.61827 0
M  V30 7175 H 654.332 2.88641 -2.8367 0
M  V30 7176 H 652.902 2.5301 -1.83588 0
M  V30 7177 H 652.122 1.01754 -3.80841 0
M  V30 7178 H 653.41 1.75939 -4.77413 0
M  V30 7179 H 652.808 4.58526 -3.31316 0
M  V30 7180 H 651.365 5.04885 -4.12231 0
M  V30 7181 N 654.798 1.5699 0.138552 0
M  V30 7182 C 656.023 1.88344 0.86841 0
M  V30 7183 C 656.448 0.725159 1.7356 0
M  V30 7184 O 655.806 -0.324992 1.78363 0
M  V30 7185 C 655.854 3.18334 1.69398 0
M  V30 7186 O 654.958 3.02863 2.79907 0
M  V30 7187 H 654.299 0.618577 0.241367 0
M  V30 7188 H 656.829 2.04207 0.126826 0
M  V30 7189 H 656.839 3.50567 2.08726 0
M  V30 7190 H 655.514 4.02238 1.05725 0
M  V30 7191 H 654.091 2.82056 2.43924 0
M  V30 7192 N 656.276 -0.40816 1.52223 0
M  V30 7193 C 657.687 -0.986929 1.58482 0
M  V30 7194 C 658.038 -1.91521 0.425917 0
M  V30 7195 O 657.163 -2.11593 -0.453593 0
M  V30 7196 C 657.758 -1.7967 2.87235 0
M  V30 7197 C 656.317 -2.32549 2.9597 0
M  V30 7198 C 655.464 -1.12558 2.53428 0
M  V30 7199 H 658.415 -0.188362 1.57578 0
M  V30 7200 H 658.436 -2.65417 2.72642 0
M  V30 7201 H 657.948 -1.12082 3.71563 0
M  V30 7202 H 656.049 -3.03505 2.16137 0
M  V30 7203 H 656.162 -2.63348 4.00231 0
M  V30 7204 H 654.526 -1.47984 2.07299 0
M  V30 7205 H 655.309 -0.465351 3.40131 0
M  V30 7206 N 657.755 -1.42862 -0.66545 0
M  V30 7207 C 658.688 -1.41509 -1.79026 0
M  V30 7208 C 659.666 -0.278106 -1.60204 0
M  V30 7209 O 660.85 -0.469792 -1.82552 0
M  V30 7210 C 657.977 -1.21494 -3.1616 0
M  V30 7211 C 657.023 -2.38308 -3.53711 0
M  V30 7212 S 657.856 -4.00852 -3.55075 0
M  V30 7213 C 659.012 -3.83197 -4.94885 0
M  V30 7214 H 659.245 -2.36691 -1.79902 0
M  V30 7215 H 656.778 -1.29746 -0.836977 0
M  V30 7216 H 658.736 -1.10633 -3.95311 0
M  V30 7217 H 657.397 -0.27881 -3.1286 0
M  V30 7218 H 656.59 -2.20076 -4.53412 0
M  V30 7219 H 656.192 -2.45732 -2.81943 0
M  V30 7220 H 658.484 -3.44765 -5.83218 0
M  V30 7221 H 659.427 -4.82607 -5.18166 0
M  V30 7222 H 659.835 -3.15884 -4.67843 0
M  V30 7223 N 659.233 0.902656 -1.29189 0
M  V30 7224 C 660.649 1.18296 -1.07137 0
M  V30 7225 C 660.849 2.00701 0.179223 0
M  V30 7226 O 659.905 2.3675 0.877812 0
M  V30 7227 C 661.218 1.90677 -2.32514 0
M  V30 7228 C 662.766 2.03515 -2.37804 0
M  V30 7229 C 663.241 2.79307 -3.62976 0
M  V30 7230 N 664.732 2.86862 -3.63681 0
M  V30 7231 C 665.467 3.46035 -4.57217 0
M  V30 7232 N 664.963 4.06399 -5.61081 0
M  V30 7233 N 666.756 3.43681 -4.44792 0
M  V30 7234 H 658.907 0.352765 -2.0945 0
M  V30 7235 H 661.17 0.21876 -0.922414 0
M  V30 7236 H 660.876 1.3756 -3.23682 0
M  V30 7237 H 660.75 2.91169 -2.39793 0
M  V30 7238 H 663.137 2.55809 -1.47125 0
M  V30 7239 H 663.218 1.02166 -2.34512 0
M  V30 7240 H 662.862 2.2769 -4.54004 0
M  V30 7241 H 662.792 3.80995 -3.63525 0
M  V30 7242 H 665.283 2.43987 -2.88581 0
M  V30 7243 H 665.596 4.49564 -6.2858 0
M  V30 7244 H 663.941 4.0487 -5.64894 0
M  V30 7245 H 667.132 2.9574 -3.62843 0
M  V30 7246 H 667.305 3.89503 -5.17872 0
M  V30 7247 N 660.711 1.11618 1.11262 0
M  V30 7248 C 661.641 0.79846 2.19424 0
M  V30 7249 C 662.622 -0.234003 1.68483 0
M  V30 7250 O 663.807 -0.0970704 1.93957 0
M  V30 7251 C 660.937 0.242892 3.4645 0
M  V30 7252 C 659.891 1.20744 4.10615 0
M  V30 7253 C 659.217 0.512494 5.32238 0
M  V30 7254 C 660.517 2.55884 4.55325 0
M  V30 7255 H 662.211 1.70286 2.46258 0
M  V30 7256 H 659.757 0.820195 1.18359 0
M  V30 7257 H 661.71 0.00840447 4.21399 0
M  V30 7258 H 660.434 -0.696811 3.1908 0
M  V30 7259 H 659.093 1.42759 3.37662 0
M  V30 7260 H 658.741 -0.432075 5.01141 0
M  V30 7261 H 658.441 1.15583 5.7612 0
M  V30 7262 H 659.965 0.286842 6.09926 0
M  V30 7263 H 661.379 2.37946 5.21588 0
M  V30 7264 H 659.776 3.16216 5.10027 0
M  V30 7265 H 660.846 3.14968 3.68678 0
M  V30 7266 N 662.189 -1.289 0.906776 0
M  V30 7267 C 663.605 -1.47733 0.603902 0
M  V30 7268 C 663.805 -1.82568 -0.852702 0
M  V30 7269 O 662.861 -1.92642 -1.63234 0
M  V30 7270 C 664.174 -2.58522 1.53581 0
M  V30 7271 C 665.722 -2.72394 1.54177 0
M  V30 7272 C 666.197 -3.86318 2.46013 0
M  V30 7273 N 667.688 -3.93661 2.441 0
M  V30 7274 C 668.423 -4.81177 3.11859 0
M  V30 7275 N 667.919 -5.73333 3.88923 0
M  V30 7276 N 669.712 -4.74728 3.00981 0
M  V30 7277 H 661.863 -1.04567 1.84877 0
M  V30 7278 H 664.126 -0.520118 0.792579 0
M  V30 7279 H 663.832 -2.39667 2.57396 0
M  V30 7280 H 663.706 -3.55475 1.26165 0
M  V30 7281 H 666.093 -2.90641 0.511034 0
M  V30 7282 H 666.174 -1.75993 1.85634 0
M  V30 7283 H 665.818 -3.68826 3.49185 0
M  V30 7284 H 665.748 -4.82102 2.11862 0
M  V30 7285 H 668.239 -3.27751 1.88115 0
M  V30 7286 H 668.552 -6.36923 4.37663 0
M  V30 7287 H 666.897 -5.73196 3.93029 0
M  V30 7288 H 670.088 -4.01722 2.40286 0
M  V30 7289 H 670.261 -5.42719 3.54062 0
M  V30 7290 N 663.667 -0.670007 -1.42649 0
M  V30 7291 C 664.892 -0.196955 -2.06463 0
M  V30 7292 C 665.317 1.1352 -1.49983 0
M  V30 7293 O 664.675 1.705 -0.616397 0
M  V30 7294 C 664.723 -0.137381 -3.60338 0
M  V30 7295 O 663.827 0.895523 -4.02559 0
M  V30 7296 H 663.168 -0.102579 -0.656029 0
M  V30 7297 H 665.698 -0.917669 -1.82866 0
M  V30 7298 H 665.708 0.0403625 -4.0798 0
M  V30 7299 H 664.383 -1.10977 -4.0082 0
M  V30 7300 H 662.96 0.689209 -3.66476 0
M  V30 7301 N 665.145 1.52092 -0.413018 0
M  V30 7302 C 666.37 2.06756 0.163338 0
M  V30 7303 C 666.795 1.28073 1.37764 0
M  V30 7304 O 666.153 0.312015 1.78595 0
M  V30 7305 C 666.201 3.57278 0.488322 0
M  V30 7306 O 665.305 3.80986 1.57871 0
M  V30 7307 H 664.646 0.663882 0.0125068 0
M  V30 7308 H 667.176 1.95988 -0.587339 0
M  V30 7309 H 667.186 4.01125 0.745836 0
M  V30 7310 H 665.861 4.13978 -0.399327 0
M  V30 7311 H 664.438 3.49017 1.31306 0
M  V30 7312 N 666.623 0.143563 1.56945 0
M  V30 7313 C 667.851 -0.515447 2.00377 0
M  V30 7314 C 668.266 -1.58643 1.02361 0
M  V30 7315 O 667.623 -1.82489 0.0201039 0
M  V30 7316 C 667.674 -1.11923 3.43737 0
M  V30 7317 O 667.395 -0.0910318 4.38005 0
M  V30 7318 C 668.896 -1.85918 4.02429 0
M  V30 7319 H 666.116 -0.134478 0.657386 0
M  V30 7320 H 668.66 0.237135 2.0312 0
M  V30 7321 H 666.815 -1.82245 3.41856 0
M  V30 7322 H 667.229 -0.532916 5.21786 0
M  V30 7323 H 668.703 -2.2346 5.04747 0
M  V30 7324 H 669.18 -2.7438 3.42947 0
M  V30 7325 H 669.786 -1.20303 4.07931 0
M  V30 7326 N 668.101 -1.57061 -0.130224 0
M  V30 7327 C 669.35 -1.83446 -0.838488 0
M  V30 7328 C 669.663 -0.727468 -1.81569 0
M  V30 7329 O 670.869 -0.877394 -2.56932 0
M  V30 7330 C 669.325 -3.25201 -1.54182 0
M  V30 7331 C 668.933 -4.4388 -0.606178 0
M  V30 7332 C 670.677 -3.60844 -2.23588 0
M  V30 7333 C 668.584 -5.76661 -1.31209 0
M  V30 7334 H 667.514 -0.684185 -0.316871 0
M  V30 7335 H 670.165 -1.83273 -0.0912059 0
M  V30 7336 H 668.547 -3.1981 -2.33533 0
M  V30 7337 H 669.721 -4.60545 0.153308 0
M  V30 7338 H 668.036 -4.16395 -0.0196705 0
M  V30 7339 H 670.633 -4.57313 -2.77072 0
M  V30 7340 H 670.976 -2.87724 -3.00867 0
M  V30 7341 H 671.509 -3.67971 -1.51137 0
M  V30 7342 H 668.248 -6.52922 -0.580823 0
M  V30 7343 H 667.768 -5.63902 -2.04387 0
M  V30 7344 H 669.447 -6.20035 -1.8484 0
M  V30 7345 N 669.579 0.400081 -1.52437 0
M  V30 7346 C 670.511 1.50729 -1.72666 0
M  V30 7347 C 671.524 1.51058 -0.607075 0
M  V30 7348 O 672.713 1.5516 -0.88248 0
M  V30 7349 C 669.813 2.89604 -1.76019 0
M  V30 7350 C 668.986 3.13365 -3.05157 0
M  V30 7351 C 668.045 4.32163 -3.00203 0
M  V30 7352 O 667.071 4.29004 -3.74092 0
M  V30 7353 N 668.273 5.3776 -2.18619 0
M  V30 7354 H 671.038 1.33767 -2.68191 0
M  V30 7355 H 668.599 0.58948 -1.50787 0
M  V30 7356 H 670.591 3.67159 -1.70225 0
M  V30 7357 H 669.161 2.99979 -0.879284 0
M  V30 7358 H 668.381 2.23774 -3.24529 0
M  V30 7359 H 669.669 3.26089 -3.90568 0
M  V30 7360 H 669.067 5.43177 -1.58035 0
M  V30 7361 H 667.624 6.14023 -2.18674 0
M  V30 7362 N 671.057 1.43213 0.657864 0
M  V30 7363 C 672.282 1.48227 1.45064 0
M  V30 7364 C 672.707 0.0999939 1.87834 0
M  V30 7365 O 672.065 -0.905269 1.57081 0
M  V30 7366 C 672.113 2.42931 2.6649 0
M  V30 7367 O 671.217 1.91237 3.6538 0
M  V30 7368 H 670.558 0.501551 0.435135 0
M  V30 7369 H 673.088 1.8808 0.805431 0
M  V30 7370 H 673.098 2.6008 3.1436 0
M  V30 7371 H 671.773 3.43348 2.34701 0
M  V30 7372 H 670.35 1.83726 3.24498 0
M  V30 7373 N 672.536 -0.895792 1.29666 0
M  V30 7374 C 673.761 -1.68528 1.20885 0
M  V30 7375 C 674.186 -1.8673 -0.226595 0
M  V30 7376 O 673.544 -1.39044 -1.16347 0
M  V30 7377 C 673.592 -3.04512 1.93144 0
M  V30 7378 O 672.696 -3.92963 1.25115 0
M  V30 7379 H 672.037 -0.515371 0.418675 0
M  V30 7380 H 674.567 -1.11878 1.71302 0
M  V30 7381 H 674.577 -3.54628 2.0175 0
M  V30 7382 H 673.252 -2.90582 2.97548 0
M  V30 7383 H 671.829 -3.51399 1.24794 0
M  V30 7384 N 674.014 -1.12206 -1.10668 0
M  V30 7385 C 675.239 -0.898938 -1.86906 0
M  V30 7386 C 675.664 0.546346 -1.79991 0
M  V30 7387 O 675.022 1.38655 -1.1681 0
M  V30 7388 C 675.07 -1.37529 -3.33344 0
M  V30 7389 O 674.174 -0.55218 -4.08687 0
M  V30 7390 H 673.515 -0.323163 -0.580053 0
M  V30 7391 H 676.045 -1.49355 -1.39837 0
M  V30 7392 H 676.055 -1.3733 -3.84193 0
M  V30 7393 H 674.73 -2.42767 -3.37693 0
M  V30 7394 H 673.307 -0.620947 -3.67694 0
M  V30 7395 N 675.492 1.28418 -0.913599 0
M  V30 7396 C 676.741 1.94265 -0.542572 0
M  V30 7397 C 677.054 1.72709 0.918207 0
M  V30 7398 O 678.26 2.32778 1.39738 0
M  V30 7399 C 676.716 3.47956 -0.919507 0
M  V30 7400 C 676.324 3.78291 -2.4 0
M  V30 7401 C 678.068 4.19962 -0.619057 0
M  V30 7402 C 675.975 5.2529 -2.71707 0
M  V30 7403 H 674.905 0.727213 -0.199192 0
M  V30 7404 H 677.556 1.45931 -1.11249 0
M  V30 7405 H 675.938 3.9502 -0.278372 0
M  V30 7406 H 677.112 3.42035 -3.08786 0
M  V30 7407 H 675.427 3.19456 -2.67089 0
M  V30 7408 H 678.024 5.28178 -0.832623 0
M  V30 7409 H 678.367 4.13935 0.443126 0
M  V30 7410 H 678.9 3.78674 -1.21865 0
M  V30 7411 H 675.639 5.36394 -3.76778 0
M  V30 7412 H 675.159 5.62743 -2.07559 0
M  V30 7413 H 676.838 5.93027 -2.58703 0
M  V30 7414 N 676.97 0.677563 1.42291 0
M  V30 7415 C 678.219 0.198173 2.00724 0
M  V30 7416 C 678.532 -1.20325 1.54211 0
M  V30 7417 O 679.738 -1.77916 2.05081 0
M  V30 7418 C 678.194 0.303432 3.58619 0
M  V30 7419 C 677.802 1.70909 4.14119 0
M  V30 7420 C 679.546 -0.117103 4.24338 0
M  V30 7421 C 677.453 1.76696 5.64387 0
M  V30 7422 H 676.383 0.070329 0.750713 0
M  V30 7423 H 679.034 0.843147 1.62982 0
M  V30 7424 H 677.416 -0.409482 3.93877 0
M  V30 7425 H 678.59 2.44931 3.90315 0
M  V30 7426 H 676.905 2.07771 3.6086 0
M  V30 7427 H 679.502 -0.0940471 5.34617 0
M  V30 7428 H 679.845 -1.15283 4.00019 0
M  V30 7429 H 680.378 0.5449 3.9405 0
M  V30 7430 H 677.117 2.7826 5.93508 0
M  V30 7431 H 676.637 1.07034 5.90173 0
M  V30 7432 H 678.316 1.52166 6.28852 0
M  V30 7433 N 678.448 -1.51871 0.421078 0
M  V30 7434 C 679.378 -2.30231 -0.389363 0
M  V30 7435 C 680.359 -1.34946 -1.03555 0
M  V30 7436 O 681.544 -1.63859 -1.04229 0
M  V30 7437 C 678.674 -3.13247 -1.49979 0
M  V30 7438 C 677.628 -4.16677 -0.977966 0
M  V30 7439 C 676.954 -4.88112 -2.1829 0
M  V30 7440 C 678.254 -5.22295 -0.0236775 0
M  V30 7441 H 679.948 -2.98229 0.264524 0
M  V30 7442 H 677.494 -1.43424 0.12866 0
M  V30 7443 H 679.447 -3.66838 -2.07383 0
M  V30 7444 H 678.171 -2.4304 -2.18173 0
M  V30 7445 H 676.83 -3.64114 -0.426245 0
M  V30 7446 H 676.478 -4.14423 -2.85066 0
M  V30 7447 H 676.178 -5.58041 -1.84021 0
M  V30 7448 H 677.702 -5.44521 -2.76278 0
M  V30 7449 H 679.116 -5.71055 -0.506899 0
M  V30 7450 H 677.513 -5.99656 0.230782 0
M  V30 7451 H 678.583 -4.76131 0.917999 0
M  V30 7452 N 679.926 -0.151884 -1.56866 0
M  V30 7453 C 680.856 0.781943 -2.20018 0
M  V30 7454 C 681.837 1.25347 -1.14987 0
M  V30 7455 O 683.022 1.31015 -1.43348 0
M  V30 7456 C 680.152 2.01928 -2.82564 0
M  V30 7457 C 679.106 1.68434 -3.93464 0
M  V30 7458 C 678.432 2.99472 -4.42968 0
M  V30 7459 C 679.732 0.927244 -5.14003 0
M  V30 7460 H 681.426 0.255607 -2.98307 0
M  V30 7461 H 678.972 0.121502 -1.43486 0
M  V30 7462 H 680.925 2.67741 -3.25411 0
M  V30 7463 H 679.649 2.56943 -2.01614 0
M  V30 7464 H 678.308 1.04998 -3.51242 0
M  V30 7465 H 677.956 3.52488 -3.58834 0
M  V30 7466 H 677.656 2.77823 -5.17772 0
M  V30 7467 H 679.18 3.66348 -4.88489 0
M  V30 7468 H 680.594 1.48756 -5.53665 0
M  V30 7469 H 678.991 0.810513 -5.94601 0
M  V30 7470 H 680.061 -0.0801163 -4.84834 0
M  V30 7471 N 681.404 1.57128 0.121893 0
M  V30 7472 C 682.681 1.75664 0.860327 0
M  V30 7473 C 683.061 0.726585 1.98202 0
M  V30 7474 O 682.409 -0.24999 2.27128 0
M  V30 7475 C 682.619 3.20571 1.37968 0
M  V30 7476 C 683.967 3.82988 1.83317 0
M  V30 7477 O 684.991 3.24156 1.47654 0
M  V30 7478 O 683.85 4.86393 2.49168 0
M  V30 7479 H 680.944 0.719153 0.408348 0
M  V30 7480 H 683.49 1.6937 0.105859 0
M  V30 7481 H 682.262 3.87056 0.57477 0
M  V30 7482 H 681.885 3.31392 2.19694 0
M  V30 7483 N 682.882 -0.391992 1.52647 0
M  V30 7484 C 684.11 -1.1586 1.71418 0
M  V30 7485 C 684.525 -1.8381 0.431216 0
M  V30 7486 O 683.882 -1.7256 -0.594085 0
M  V30 7487 C 683.933 -2.20888 2.86165 0
M  V30 7488 O 683.654 -1.5571 4.09495 0
M  V30 7489 C 685.155 -3.103 3.1659 0
M  V30 7490 H 682.375 -0.347494 0.574011 0
M  V30 7491 H 684.919 -0.458972 1.99283 0
M  V30 7492 H 683.074 -2.86492 2.6077 0
M  V30 7493 H 683.488 -2.25474 4.73563 0
M  V30 7494 H 684.962 -3.8003 4.00351 0
M  V30 7495 H 685.439 -3.73639 2.30848 0
M  V30 7496 H 686.045 -2.50345 3.43813 0
M  V30 7497 N 684.36 -1.4356 -0.65026 0
M  V30 7498 C 685.29 -1.51758 -1.77459 0
M  V30 7499 C 686.271 -0.372019 -1.65982 0
M  V30 7500 O 687.456 -0.589627 -1.85033 0
M  V30 7501 C 684.586 -1.44302 -3.15902 0
M  V30 7502 C 683.54 -2.57138 -3.42146 0
M  V30 7503 C 682.866 -2.34735 -4.8042 0
M  V30 7504 C 684.166 -3.99373 -3.36598 0
M  V30 7505 H 685.86 -2.45863 -1.70855 0
M  V30 7506 H 683.406 -1.18333 -0.820566 0
M  V30 7507 H 685.359 -1.48641 -3.94314 0
M  V30 7508 H 684.083 -0.467026 -3.23244 0
M  V30 7509 H 682.742 -2.52157 -2.66106 0
M  V30 7510 H 682.39 -1.35372 -4.84441 0
M  V30 7511 H 682.09 -3.10375 -4.9894 0
M  V30 7512 H 683.614 -2.40862 -5.61086 0
M  V30 7513 H 685.028 -4.05826 -4.04942 0
M  V30 7514 H 683.425 -4.75063 -3.66654 0
M  V30 7515 H 684.495 -4.243 -2.34729 0
M  V30 7516 N 685.838 0.888903 -1.30139 0
M  V30 7517 C 686.768 2.01046 -1.18755 0
M  V30 7518 C 687.749 1.69916 -0.0791438 0
M  V30 7519 O 688.934 1.92445 -0.260498 0
M  V30 7520 C 686.064 3.36109 -0.874518 0
M  V30 7521 C 685.018 3.81486 -1.94043 0
M  V30 7522 C 684.344 5.13796 -1.48047 0
M  V30 7523 C 685.644 4.00637 -3.35093 0
M  V30 7524 H 687.338 2.10828 -2.12584 0
M  V30 7525 H 684.884 1.01298 -1.02346 0
M  V30 7526 H 686.837 4.14089 -0.781548 0
M  V30 7527 H 685.561 3.26449 0.0994519 0
M  V30 7528 H 684.22 3.05731 -2.02297 0
M  V30 7529 H 683.868 5.0056 -0.494878 0
M  V30 7530 H 683.568 5.45127 -2.19341 0
M  V30 7531 H 685.092 5.94305 -1.40121 0
M  V30 7532 H 686.506 4.69067 -3.2962 0
M  V30 7533 H 684.903 4.43339 -4.04438 0
M  V30 7534 H 685.973 3.0462 -3.77273 0
M  V30 7535 N 687.317 1.12792 1.10072 0
M  V30 7536 C 688.247 0.821688 2.18565 0
M  V30 7537 C 689.228 -0.21612 1.68721 0
M  V30 7538 O 690.413 -0.0764932 1.94049 0
M  V30 7539 C 687.543 0.279624 3.46172 0
M  V30 7540 C 686.497 1.25092 4.09312 0
M  V30 7541 C 685.823 0.568916 5.31665 0
M  V30 7542 C 687.123 2.60699 4.52585 0
M  V30 7543 H 688.817 1.72888 2.44438 0
M  V30 7544 H 686.363 0.832702 1.17482 0
M  V30 7545 H 688.316 0.053099 4.21367 0
M  V30 7546 H 687.04 -0.662929 3.19801 0
M  V30 7547 H 685.699 1.46332 3.36129 0
M  V30 7548 H 685.347 -0.378898 5.01571 0
M  V30 7549 H 685.047 1.21687 5.74862 0
M  V30 7550 H 686.571 0.351517 6.09587 0
M  V30 7551 H 687.985 2.43465 5.19035 0
M  V30 7552 H 686.382 3.21608 5.06644 0
M  V30 7553 H 687.452 3.1886 3.65317 0
M  V30 7554 N 688.795 -1.27931 0.920396 0
M  V30 7555 C 690.023 -1.98805 0.573087 0
M  V30 7556 C 690.438 -1.68724 -0.847201 0
M  V30 7557 O 689.795 -0.943699 -1.56207 0
M  V30 7558 C 689.846 -3.52971 0.780633 0
M  V30 7559 O 689.567 -3.81994 2.14504 0
M  V30 7560 C 691.068 -4.411 0.44105 0
M  V30 7561 H 688.288 -0.634651 0.21785 0
M  V30 7562 H 690.832 -1.62965 1.23542 0
M  V30 7563 H 688.987 -3.87048 0.165204 0
M  V30 7564 H 689.401 -4.76609 2.18962 0
M  V30 7565 H 690.875 -5.48312 0.637006 0
M  V30 7566 H 691.352 -4.34758 -0.62306 0
M  V30 7567 H 691.958 -4.12532 1.0343 0
M  V30 7568 N 690.273 -0.685099 -1.4193 0
M  V30 7569 C 691.183 -0.013404 -2.34596 0
M  V30 7570 C 692.199 0.777589 -1.55658 0
M  V30 7571 O 693.375 0.717553 -1.88184 0
M  V30 7572 C 690.44 0.919031 -3.34297 0
M  V30 7573 C 689.501 0.121417 -4.29128 0
M  V30 7574 C 688.734 1.00944 -5.24067 0
M  V30 7575 O 688.957 2.24898 -5.24192 0
M  V30 7576 O 687.891 0.464724 -6.00103 0
M  V30 7577 H 691.717 -0.776978 -2.93593 0
M  V30 7578 H 689.302 -0.445379 -1.42607 0
M  V30 7579 H 691.184 1.45402 -3.9552 0
M  V30 7580 H 689.859 1.66228 -2.77759 0
M  V30 7581 H 688.766 -0.45792 -3.71287 0
M  V30 7582 H 690.099 -0.582937 -4.88736 0
M  V30 7583 N 691.751 1.51645 -0.429126 0
M  V30 7584 C 692.699 2.29119 0.400921 0
M  V30 7585 C 693.693 1.34628 1.02819 0
M  V30 7586 O 694.899 1.52004 0.964098 0
M  V30 7587 H 691.274 0.737273 0.148095 0
M  V30 7588 H 693.245 2.97144 -0.273457 0
M  V30 7589 C 691.994 3.13953 1.49429 0
M  V30 7590 H 691.317 3.86544 1.02097 0
M  V30 7591 H 692.757 3.71232 2.04849 0
M  V30 7592 C 691.216 2.28796 2.47293 0
M  V30 7593 O 691.746 1.94193 3.51642 0
M  V30 7594 N 689.952 1.92177 2.17982 0
M  V30 7595 H 689.499 2.20517 1.33154 0
M  V30 7596 H 689.457 1.35497 2.83704 0
M  V30 7597 N 693.229 0.160201 1.56784 0
M  V30 7598 C 694.139 -0.787167 2.21 0
M  V30 7599 C 695.155 -1.26167 1.19825 0
M  V30 7600 O 696.331 -1.31611 1.52448 0
M  V30 7601 C 693.396 -2.00364 2.8294 0
M  V30 7602 C 692.457 -1.5771 3.99282 0
M  V30 7603 C 691.69 -2.73558 4.58259 0
M  V30 7604 O 691.913 -3.90129 4.16119 0
M  V30 7605 O 690.847 -2.48271 5.48311 0
M  V30 7606 H 694.673 -0.270462 3.02493 0
M  V30 7607 H 692.258 -0.0674666 1.49248 0
M  V30 7608 H 694.14 -2.71529 3.22257 0
M  V30 7609 H 692.815 -2.50961 2.04451 0
M  V30 7610 H 691.722 -0.835274 3.64656 0
M  V30 7611 H 693.055 -1.11815 4.79331 0
M  V30 7612 N 694.707 -1.5719 -0.113559 0
M  V30 7613 C 695.955 -1.84772 -0.818761 0
M  V30 7614 C 696.276 -0.746196 -1.80158 0
M  V30 7615 O 695.546 0.229305 -1.94553 0
M  V30 7616 H 694.126 -0.681737 -0.305359 0
M  V30 7617 H 696.788 -1.94645 -0.0995845 0
M  V30 7618 H 695.884 -2.80878 -1.36067 0
M  V30 7619 N 696.185 0.383891 -1.52853 0
M  V30 7620 C 697.462 1.14296 -1.58732 0
M  V30 7621 C 697.842 2.07585 -0.383611 0
M  V30 7622 O 697.19 2.1971 0.627661 0
M  V30 7623 C 697.4 1.89816 -2.92867 0
M  V30 7624 C 698.748 2.44998 -3.46787 0
M  V30 7625 O 699.772 1.99966 -2.94774 0
M  V30 7626 O 698.631 3.2727 -4.37672 0
M  V30 7627 H 695.725 0.52326 -0.640413 0
M  V30 7628 H 698.271 0.388631 -1.6519 0
M  V30 7629 H 697.043 1.21626 -3.71918 0
M  V30 7630 H 696.666 2.72199 -2.89816 0
M  V30 7631 N 697.663 1.43903 0.642637 0
M  V30 7632 C 698.61 1.49881 1.75512 0
M  V30 7633 C 699.58 0.347538 1.62423 0
M  V30 7634 O 700.765 0.556177 1.82514 0
M  V30 7635 C 697.905 1.43797 3.13714 0
M  V30 7636 C 697.018 2.6921 3.37861 0
M  V30 7637 C 696.153 2.5504 4.6597 0
M  V30 7638 C 695.192 3.75671 4.83257 0
M  V30 7639 N 694.329 3.60247 6.02633 0
M  V30 7640 H 699.169 2.44935 1.69737 0
M  V30 7641 H 696.706 1.21572 0.828165 0
M  V30 7642 H 698.664 1.38262 3.93624 0
M  V30 7643 H 697.294 0.523173 3.18532 0
M  V30 7644 H 696.346 2.8498 2.51973 0
M  V30 7645 H 697.658 3.58786 3.46517 0
M  V30 7646 H 696.812 2.47273 5.54023 0
M  V30 7647 H 695.551 1.63006 4.59653 0
M  V30 7648 H 694.556 3.83836 3.93637 0
M  V30 7649 H 695.781 4.68728 4.91397 0
M  V30 7650 H 693.727 2.70955 5.97427 0
M  V30 7651 H 693.644 4.43431 6.12295 0
M  V30 7652 H 694.912 3.56351 6.93278 0
M  V30 7653 N 699.141 -0.881989 1.30609 0
M  V30 7654 C 700.369 -1.66711 1.22536 0
M  V30 7655 C 700.784 -1.87614 -0.2113 0
M  V30 7656 O 700.141 -1.42576 -1.13923 0
M  V30 7657 C 700.192 -3.04182 1.95335 0
M  V30 7658 O 699.913 -2.8422 3.33393 0
M  V30 7659 C 701.414 -3.98617 1.93956 0
M  V30 7660 H 698.634 -0.520124 0.423925 0
M  V30 7661 H 701.178 -1.10174 1.72285 0
M  V30 7662 H 699.333 -3.57442 1.49378 0
M  V30 7663 H 699.747 -3.71452 3.70302 0
M  V30 7664 H 701.221 -4.92433 2.49426 0
M  V30 7665 H 701.698 -4.29473 0.919198 0
M  V30 7666 H 702.304 -3.51292 2.39738 0
M  V30 7667 N 700.619 -1.13374 -1.09472 0
M  V30 7668 C 701.529 -0.824029 -2.19652 0
M  V30 7669 C 702.545 0.19118 -1.72947 0
M  V30 7670 O 703.721 0.0223464 -2.01388 0
M  V30 7671 C 700.786 -0.294009 -3.45451 0
M  V30 7672 C 699.847 -1.3704 -4.0684 0
M  V30 7673 C 699.08 -0.86558 -5.26634 0
M  V30 7674 O 699.303 0.29702 -5.69626 0
M  V30 7675 O 698.237 -1.63968 -5.79136 0
M  V30 7676 H 702.063 -1.74454 -2.48595 0
M  V30 7677 H 699.648 -0.911155 -1.18399 0
M  V30 7678 H 701.53 -0.00381039 -4.214 0
M  V30 7679 H 700.205 0.598921 -3.18111 0
M  V30 7680 H 699.112 -1.71391 -3.3253 0
M  V30 7681 H 700.445 -2.23746 -4.38405 0
M  V30 7682 N 702.098 1.27442 -0.927168 0
M  V30 7683 C 703.008 2.30599 -0.431448 0
M  V30 7684 C 704.024 1.67028 0.48761 0
M  V30 7685 O 705.2 1.97962 0.370546 0
M  V30 7686 C 702.265 3.45327 0.308292 0
M  V30 7687 C 701.326 4.24418 -0.645615 0
M  V30 7688 C 700.559 5.33667 0.0589164 0
M  V30 7689 O 700.782 5.5589 1.27838 0
M  V30 7690 O 699.716 5.98774 -0.612638 0
M  V30 7691 H 703.542 2.75036 -1.28797 0
M  V30 7692 H 701.127 1.32382 -0.692495 0
M  V30 7693 H 703.009 4.15107 0.725555 0
M  V30 7694 H 701.684 3.02945 1.14043 0
M  V30 7695 H 700.591 3.57174 -1.11255 0
M  V30 7696 H 701.924 4.70512 -1.44496 0
M  V30 7697 N 703.576 0.692616 1.41565 0
M  V30 7698 C 704.508 -0.0137132 2.29196 0
M  V30 7699 C 705.521 -0.747417 1.44629 0
M  V30 7700 O 706.71 -0.598611 1.68163 0
M  V30 7701 C 703.81 -1.04347 3.22436 0
M  V30 7702 C 702.983 -0.379985 4.35746 0
M  V30 7703 C 702.042 -1.31195 5.09583 0
M  V30 7704 O 701.068 -0.805455 5.63472 0
M  V30 7705 N 702.27 -2.64443 5.16769 0
M  V30 7706 H 705.035 0.738614 2.90456 0
M  V30 7707 H 702.596 0.538415 1.52685 0
M  V30 7708 H 704.588 -1.6686 3.687 0
M  V30 7709 H 703.158 -1.69736 2.62504 0
M  V30 7710 H 702.378 0.424975 3.91903 0
M  V30 7711 H 703.666 0.0814904 5.08735 0
M  V30 7712 H 703.064 -3.08114 4.74428 0
M  V30 7713 H 701.621 -3.22159 5.66619 0
M  V30 7714 N 705.054 -1.51416 0.437162 0
M  V30 7715 C 706.3 -2.02386 -0.129555 0
M  V30 7716 C 706.633 -1.32071 -1.42376 0
M  V30 7717 O 705.908 -0.43559 -1.8956 0
M  V30 7718 C 706.191 -3.5841 -0.348487 0
M  V30 7719 C 706.044 -4.39341 0.964352 0
M  V30 7720 C 707.363 -4.25654 -1.11834 0
M  V30 7721 H 704.482 -0.735587 -0.0456109 0
M  V30 7722 H 707.124 -1.81055 0.576124 0
M  V30 7723 H 705.274 -3.76716 -0.949592 0
M  V30 7724 H 706.946 -4.32685 1.59942 0
M  V30 7725 H 705.189 -4.04432 1.56898 0
M  V30 7726 H 705.86 -5.4667 0.765212 0
M  V30 7727 H 708.336 -4.11617 -0.609165 0
M  V30 7728 H 707.212 -5.34704 -1.24029 0
M  V30 7729 H 707.473 -3.86502 -2.14636 0
M  V30 7730 N 706.532 -0.168513 -1.56696 0
M  V30 7731 C 707.757 0.486688 -2.01609 0
M  V30 7732 C 708.182 1.56203 -1.04796 0
M  V30 7733 O 707.54 1.8128 -0.0270596 0
M  V30 7734 C 707.588 1.04451 -3.45141 0
M  V30 7735 O 706.692 2.15862 -3.51393 0
M  V30 7736 H 706.033 0.116831 -0.653641 0
M  V30 7737 H 708.563 -0.271579 -2.0279 0
M  V30 7738 H 708.573 1.36782 -3.84389 0
M  V30 7739 H 707.248 0.257155 -4.15104 0
M  V30 7740 H 705.825 1.84597 -3.24004 0
M  V30 7741 N 708.01 1.57248 0.105221 0
M  V30 7742 C 709.24 1.89492 0.823175 0
M  V30 7743 C 709.648 0.75934 1.73294 0
M  V30 7744 O 708.991 -0.278182 1.81581 0
M  V30 7745 C 709.053 3.16891 1.69765 0
M  V30 7746 C 708.717 4.46787 0.960769 0
M  V30 7747 C 709.714 5.19061 0.295218 0
M  V30 7748 C 707.399 4.93467 0.937854 0
M  V30 7749 C 709.393 6.36246 -0.383393 0
M  V30 7750 C 707.08 6.10566 0.255452 0
M  V30 7751 C 708.078 6.81804 -0.404003 0
M  V30 7752 O 707.766 7.96673 -1.07549 0
M  V30 7753 H 707.498 0.631512 0.24118 0
M  V30 7754 H 710.052 2.05203 0.0899655 0
M  V30 7755 H 708.282 2.973 2.47285 0
M  V30 7756 H 709.971 3.35046 2.29126 0
M  V30 7757 H 710.737 4.84044 0.304448 0
M  V30 7758 H 706.616 4.37913 1.44058 0
M  V30 7759 H 710.16 6.91787 -0.898696 0
M  V30 7760 H 706.057 6.45039 0.244032 0
M  V30 7761 H 706.825 8.12596 -0.981355 0
M  V30 7762 N 709.488 -0.375779 1.53054 0
M  V30 7763 C 710.734 -1.12114 1.68992 0
M  V30 7764 C 711.067 -1.8926 0.435238 0
M  V30 7765 O 710.342 -1.86044 -0.567278 0
M  V30 7766 C 710.625 -2.08867 2.93337 0
M  V30 7767 C 710.478 -1.35397 4.28938 0
M  V30 7768 C 711.797 -3.09124 3.13257 0
M  V30 7769 H 708.916 -0.406207 0.614951 0
M  V30 7770 H 711.558 -0.403054 1.85676 0
M  V30 7771 H 709.708 -2.70102 2.79244 0
M  V30 7772 H 711.38 -0.770242 4.54824 0
M  V30 7773 H 709.623 -0.655801 4.28814 0
M  V30 7774 H 710.294 -2.06161 5.12056 0
M  V30 7775 H 712.77 -2.57987 3.26469 0
M  V30 7776 H 711.646 -3.74054 4.01715 0
M  V30 7777 H 711.907 -3.78729 2.28072 0
M  V30 7778 O 711.005 -1.5284 -0.521743 0
M  V30 7779 H 711.696 -1.53854 -1.17681 0
M  V30 END ATOM
M  V30 BEGIN BOND
M  V30 END BOND
M  V30 END CTAB
M  END
$$$$
