drugbank_target|P32297 Neuronal acetylcholine receptor subunit alpha-3 (DB00184; DB00333; DB00472; DB00514; DB00848; DB00898; DB00915; DB01090; DB01156; DB01227; DB01273; DB05710; DB07720; DB09028)
 OpenBabel12092120343D

  0  0  0     0  0            999 V3000
M  V30 BEGIN CTAB
M  V30 COUNTS 8152 8255 0 0 0
M  V30 BEGIN ATOM
M  V30 1 H -0.908 1.98254 -0.117106 0
M  V30 2 N 0 1.576 0 0
M  V30 3 C 0.933 2.03868 1.02534 0
M  V30 4 C 1.911 0.928543 1.3348 0
M  V30 5 O 3.095 1.19667 1.45644 0
M  V30 6 C 0.222 2.43627 2.35294 0
M  V30 7 C -0.732 3.65373 2.2001 0
M  V30 8 S 0.101 5.13292 1.52614 0
M  V30 9 C 1.257 5.56322 2.86805 0
M  V30 10 H 1.49 2.90518 0.631377 0
M  V30 11 H -0.977 1.52953 0.210867 0
M  V30 12 H 0.981 2.67203 3.11629 0
M  V30 13 H -0.358 1.57376 2.7183 0
M  V30 14 H -1.165 3.90944 3.18086 0
M  V30 15 H -1.563 3.418 1.51819 0
M  V30 16 H 0.729 5.58782 3.83104 0
M  V30 17 H 1.672 6.56266 2.65933 0
M  V30 18 H 2.08 4.83886 2.90714 0
M  V30 19 N 1.4781 -0.272755 1.55222 0
M  V30 20 C 2.7261 -1.00234 1.75492 0
M  V30 21 C 3.0471 -1.8681 0.5592 0
M  V30 22 O 2.3171 -1.91215 -0.425882 0
M  V30 23 H 0.8971 -0.373076 0.647166 0
M  V30 24 H 3.5591 -0.296926 1.92625 0
M  V30 25 H 2.6551 -1.63913 2.65592 0
M  V30 26 N 2.9562 -1.48159 -0.537278 0
M  V30 27 C 4.1812 -1.59707 -1.32319 0
M  V30 28 C 4.6062 -0.254859 -1.86365 0
M  V30 29 O 3.9642 0.772378 -1.64024 0
M  V30 30 C 4.0122 -2.6412 -2.45505 0
M  V30 31 O 3.1162 -2.20774 -3.48328 0
M  V30 32 H 2.4572 -0.535791 -0.392204 0
M  V30 33 H 4.9872 -1.94092 -0.647268 0
M  V30 34 H 4.9972 -2.85166 -2.91795 0
M  V30 35 H 3.6722 -3.61567 -2.05528 0
M  V30 36 H 2.2492 -2.09911 -3.08207 0
M  V30 37 N 4.4343 0.785586 -1.36625 0
M  V30 38 C 5.6823 1.54057 -1.30808 0
M  V30 39 C 6.0033 1.94683 0.111157 0
M  V30 40 O 5.2733 1.65241 1.05224 0
M  V30 41 H 3.8533 0.571354 -0.481211 0
M  V30 42 H 6.5153 0.935821 -1.70963 0
M  V30 43 H 5.6113 2.44637 -1.93801 0
M  V30 44 N 5.9124 1.20967 1.01018 0
M  V30 45 C 7.3234 1.02319 1.56165 0
M  V30 46 C 7.6744 -0.418546 1.91684 0
M  V30 47 O 6.7994 -1.30096 1.72928 0
M  V30 48 C 7.3944 1.85109 2.8376 0
M  V30 49 C 5.9534 1.70809 3.35412 0
M  V30 50 C 5.1004 1.82643 2.08655 0
M  V30 51 H 8.0514 1.35065 0.833255 0
M  V30 52 H 8.0724 1.35827 3.55431 0
M  V30 53 H 7.5844 2.90035 2.57878 0
M  V30 54 H 5.6854 0.685464 3.66241 0
M  V30 55 H 5.7984 2.52467 4.07182 0
M  V30 56 H 4.1624 1.25896 2.21409 0
M  V30 57 H 4.9454 2.89066 1.85191 0
M  V30 58 N 7.3905 -1.2043 1.01659 0
M  V30 59 C 8.3205 -2.25466 0.607226 0
M  V30 60 C 9.3015 -1.65853 -0.377716 0
M  V30 61 O 10.4865 -1.92409 -0.263149 0
M  V30 62 C 7.6165 -3.47256 -0.0552949 0
M  V30 63 C 6.5705 -4.19462 0.850632 0
M  V30 64 C 5.8965 -5.34673 0.0538859 0
M  V30 65 C 7.1965 -4.75603 2.15868 0
M  V30 66 H 8.8905 -2.59962 1.48526 0
M  V30 67 H 6.4365 -1.2496 0.715605 0
M  V30 68 H 8.3895 -4.19917 -0.353233 0
M  V30 69 H 7.1135 -3.11924 -0.968045 0
M  V30 70 H 5.7725 -3.48667 1.13257 0
M  V30 71 H 5.4205 -4.95585 -0.860514 0
M  V30 72 H 5.1205 -5.83913 0.657192 0
M  V30 73 H 6.6445 -6.10138 -0.237598 0
M  V30 74 H 8.0585 -5.40083 1.92311 0
M  V30 75 H 6.4555 -5.3528 2.71284 0
M  V30 76 H 7.5255 -3.94346 2.82169 0
M  V30 77 N 8.8686 -0.792821 -1.36206 0
M  V30 78 C 10.0936 -0.377701 -2.03932 0
M  V30 79 C 10.5186 0.998947 -1.59382 0
M  V30 80 O 9.8766 1.64421 -0.763903 0
M  V30 81 C 9.9246 -0.453635 -3.57735 0
M  V30 82 O 9.0286 0.538151 -4.08874 0
M  V30 83 H 8.3696 -0.159855 -0.644471 0
M  V30 84 H 10.8996 -1.07488 -1.7409 0
M  V30 85 H 10.9096 -0.318464 -4.06755 0
M  V30 86 H 9.5846 -1.45784 -3.89512 0
M  V30 87 H 8.1616 0.364359 -3.71116 0
M  V30 88 N 10.3467 1.47872 -0.545128 0
M  V30 89 C 11.2767 2.32661 0.197793 0
M  V30 90 C 12.2577 1.43041 0.920504 0
M  V30 91 O 13.4427 1.71912 0.90333 0
M  V30 92 C 10.5727 3.24569 1.23582 0
M  V30 93 C 9.5267 4.23333 0.630323 0
M  V30 94 C 8.8527 5.0448 1.77211 0
M  V30 95 C 10.1527 5.20704 -0.407974 0
M  V30 96 H 11.8467 2.95024 -0.510045 0
M  V30 97 H 9.3927 1.4187 -0.246731 0
M  V30 98 H 11.3457 3.8272 1.76362 0
M  V30 99 H 10.0697 2.60236 1.97344 0
M  V30 100 H 8.7287 3.6639 0.123922 0
M  V30 101 H 8.3767 4.36561 2.49847 0
M  V30 102 H 8.0767 5.71339 1.37281 0
M  V30 103 H 9.6007 5.65487 2.3034 0
M  V30 104 H 11.0147 5.7329 0.033305 0
M  V30 105 H 9.4117 5.95699 -0.725486 0
M  V30 106 H 10.4817 4.66917 -1.30828 0
M  V30 107 N 11.8248 0.280983 1.55075 0
M  V30 108 C 13.2358 -0.215629 1.85451 0
M  V30 109 C 13.5868 -1.54991 1.203 0
M  V30 110 O 12.7118 -2.10699 0.493435 0
M  V30 111 C 13.3068 -0.398026 3.36454 0
M  V30 112 C 11.8658 -0.838866 3.66933 0
M  V30 113 C 11.0128 0.064458 2.77225 0
M  V30 114 H 13.9638 0.502601 1.50531 0
M  V30 115 H 13.9848 -1.23569 3.59876 0
M  V30 116 H 13.4968 0.573241 3.83843 0
M  V30 117 H 11.5978 -1.8214 3.25048 0
M  V30 118 H 11.7108 -0.672123 4.74362 0
M  V30 119 H 10.0748 -0.452863 2.50642 0
M  V30 120 H 10.8578 1.03172 3.2743 0
M  V30 121 N 13.3029 -1.57598 0.00835791 0
M  V30 122 C 14.2329 -2.1198 -0.979113 0
M  V30 123 C 15.2139 -1.03091 -1.35301 0
M  V30 124 O 16.3989 -1.30818 -1.43528 0
M  V30 125 C 13.5289 -2.62995 -2.26828 0
M  V30 126 C 12.4829 -3.76485 -2.03576 0
M  V30 127 C 11.8089 -4.13846 -3.38579 0
M  V30 128 C 13.1089 -5.0342 -1.39161 0
M  V30 129 H 14.8029 -2.94738 -0.526281 0
M  V30 130 H 12.3489 -1.41783 -0.251704 0
M  V30 131 H 14.3019 -2.99669 -2.96271 0
M  V30 132 H 13.0259 -1.7737 -2.7424 0
M  V30 133 H 11.6849 -3.40217 -1.36557 0
M  V30 134 H 11.3329 -3.25232 -3.83709 0
M  V30 135 H 11.0329 -4.90312 -3.23834 0
M  V30 136 H 12.5569 -4.53086 -4.09323 0
M  V30 137 H 13.9709 -5.37812 -1.98573 0
M  V30 138 H 12.3679 -5.84746 -1.34878 0
M  V30 139 H 13.4379 -4.83548 -0.361868 0
M  V30 140 N 14.781 0.264519 -1.55364 0
M  V30 141 C 15.744 1.31046 -1.88042 0
M  V30 142 C 16.744 1.41943 -0.755569 0
M  V30 143 O 17.934 1.40947 -1.02369 0
M  V30 144 C 15.066 2.69067 -2.09323 0
M  V30 145 H 16.259 1.03297 -2.81549 0
M  V30 146 H 13.812 0.502989 -1.47986 0
M  V30 147 H 14.547 3.01982 -1.18226 0
M  V30 148 H 14.332 2.62542 -2.91229 0
M  V30 149 H 15.822 3.44623 -2.35848 0
M  V30 150 N 16.2591 1.48442 0.529413 0
M  V30 151 C 17.1891 1.65902 1.64313 0
M  V30 152 C 18.1701 0.507897 1.6234 0
M  V30 153 O 19.3551 0.740503 1.79528 0
M  V30 154 C 16.4851 1.69911 3.02898 0
M  V30 155 C 15.4391 2.8453 3.19729 0
M  V30 156 C 14.7651 2.73629 4.59381 0
M  V30 157 C 16.0651 4.25821 3.02447 0
M  V30 158 H 17.7591 2.5914 1.49955 0
M  V30 159 H 15.3051 1.24709 0.719982 0
M  V30 160 H 17.2581 1.80715 3.80684 0
M  V30 161 H 15.9821 0.732524 3.18279 0
M  V30 162 H 14.6411 2.73283 2.44361 0
M  V30 163 H 14.2891 1.74938 4.71599 0
M  V30 164 H 13.9891 3.50541 4.71588 0
M  V30 165 H 15.5131 2.86401 5.39265 0
M  V30 166 H 16.9271 4.37898 3.70024 0
M  V30 167 H 15.3241 5.03735 3.26146 0
M  V30 168 H 16.3941 4.42244 1.98867 0
M  V30 169 N 17.7372 -0.778329 1.37039 0
M  V30 170 C 18.9622 -1.57248 1.35233 0
M  V30 171 C 19.3872 -1.87999 -0.0615568 0
M  V30 172 O 18.7452 -1.48734 -1.03672 0
M  V30 173 C 18.7932 -2.86353 2.19167 0
M  V30 174 O 17.8972 -3.80442 1.59178 0
M  V30 175 H 17.2382 -0.476569 0.462362 0
M  V30 176 H 19.7682 -0.963853 1.80474 0
M  V30 177 H 19.7782 -3.35519 2.32145 0
M  V30 178 H 18.4532 -2.63299 3.21942 0
M  V30 179 H 17.0302 -3.39067 1.55203 0
M  V30 180 N 19.2153 -1.21501 -1.00376 0
M  V30 181 C 20.6263 -1.03146 -1.55621 0
M  V30 182 C 20.9773 0.408375 -1.91903 0
M  V30 183 O 20.1023 1.29177 -1.73616 0
M  V30 184 C 20.6973 -1.86612 -2.82775 0
M  V30 185 C 19.2563 -1.72586 -3.34501 0
M  V30 186 C 18.4033 -1.83747 -2.07683 0
M  V30 187 H 21.3543 -1.35505 -0.826081 0
M  V30 188 H 21.3753 -1.3771 -3.54706 0
M  V30 189 H 20.8873 -2.91399 -2.56336 0
M  V30 190 H 18.9883 -0.704877 -3.65872 0
M  V30 191 H 19.1013 -2.54623 -4.05837 0
M  V30 192 H 17.4653 -1.27069 -2.20739 0
M  V30 193 H 18.2483 -2.90044 -1.83655 0
M  V30 194 N 20.6934 1.19889 -1.02296 0
M  V30 195 C 22.1044 1.71124 -0.746568 0
M  V30 196 C 22.4554 1.81939 0.734335 0
M  V30 197 O 21.5804 1.48639 1.57275 0
M  V30 198 C 22.1754 3.10804 -1.34857 0
M  V30 199 C 20.7344 3.59323 -1.1209 0
M  V30 200 C 19.8814 2.3635 -1.45031 0
M  V30 201 H 22.8324 1.04813 -1.19163 0
M  V30 202 H 22.8534 3.73186 -0.742437 0
M  V30 203 H 22.3654 3.029 -2.42638 0
M  V30 204 H 20.4664 3.7255 -0.0610337 0
M  V30 205 H 20.5794 4.4378 -1.80544 0
M  V30 206 H 18.9434 2.39399 -0.869487 0
M  V30 207 H 19.7264 2.31081 -2.53883 0
M  V30 208 N 22.1715 0.800033 1.35784 0
M  V30 209 C 23.5875 0.482977 1.52117 0
M  V30 210 C 23.7875 -0.996948 1.75109 0
M  V30 211 O 22.8435 -1.78216 1.78872 0
M  V30 212 C 24.1565 1.32264 2.70049 0
M  V30 213 C 25.7045 1.31742 2.83924 0
M  V30 214 C 26.1795 2.14106 4.04874 0
M  V30 215 N 27.6705 2.11607 4.12039 0
M  V30 216 C 28.4055 2.72099 5.04727 0
M  V30 217 N 27.9015 3.41492 6.02789 0
M  V30 218 N 29.6945 2.61776 4.97423 0
M  V30 219 H 21.8455 1.75856 1.19115 0
M  V30 220 H 24.1085 0.748122 0.582252 0
M  V30 221 H 23.8145 2.37261 2.59616 0
M  V30 222 H 23.6885 0.971303 3.6448 0
M  V30 223 H 26.0755 0.275333 2.93813 0
M  V30 224 H 26.1565 1.70859 1.9037 0
M  V30 225 H 25.8005 3.18351 3.95746 0
M  V30 226 H 25.7305 1.72353 4.97596 0
M  V30 227 H 28.2215 1.61112 3.41835 0
M  V30 228 H 28.5345 3.84953 6.70098 0
M  V30 229 H 26.8795 3.45596 6.02983 0
M  V30 230 H 30.0705 2.07157 4.19766 0
M  V30 231 H 30.2435 3.0921 5.69468 0
M  V30 232 N 23.6496 -1.47581 0.552962 0
M  V30 233 C 24.5796 -2.32762 -0.185451 0
M  V30 234 C 25.5606 -1.43527 -0.912905 0
M  V30 235 O 26.7456 -1.72388 -0.894201 0
M  V30 236 C 23.8756 -3.25219 -1.21859 0
M  V30 237 C 22.8296 -4.23661 -0.607864 0
M  V30 238 C 22.1556 -5.05413 -1.74533 0
M  V30 239 C 23.4556 -5.20481 0.435582 0
M  V30 240 H 25.1496 -2.94749 0.525684 0
M  V30 241 H 22.6956 -1.41738 0.254251 0
M  V30 242 H 24.6486 -3.8365 -1.7433 0
M  V30 243 H 23.3726 -2.61279 -1.95961 0
M  V30 244 H 22.0316 -3.66451 -0.104489 0
M  V30 245 H 21.6796 -4.3788 -2.47529 0
M  V30 246 H 21.3796 -5.72059 -1.34249 0
M  V30 247 H 22.9036 -5.66701 -2.27338 0
M  V30 248 H 24.3176 -5.733 -0.00290157 0
M  V30 249 H 22.7146 -5.95305 0.757067 0
M  V30 250 H 23.7846 -4.66217 1.33303 0
M  V30 251 N 25.1277 -0.289203 -1.54924 0
M  V30 252 C 26.0577 0.58549 -2.2604 0
M  V30 253 C 27.0387 1.14753 -1.25562 0
M  V30 254 O 28.2237 1.17906 -1.54311 0
M  V30 255 C 25.3537 1.76305 -2.99222 0
M  V30 256 C 24.3077 1.33191 -4.06748 0
M  V30 257 C 23.6337 2.5937 -4.6758 0
M  V30 258 C 24.9337 0.471775 -5.20165 0
M  V30 259 H 26.6277 -0.00763532 -2.99399 0
M  V30 260 H 24.1737 -0.00511229 -1.43999 0
M  V30 261 H 26.1267 2.38097 -3.47689 0
M  V30 262 H 24.8507 2.38223 -2.23422 0
M  V30 263 H 23.5097 0.737121 -3.59113 0
M  V30 264 H 23.1577 3.19576 -3.88433 0
M  V30 265 H 22.8577 2.31228 -5.40192 0
M  V30 266 H 24.3817 3.21985 -5.18804 0
M  V30 267 H 25.7957 0.995056 -5.64599 0
M  V30 268 H 24.1927 0.284639 -5.99425 0
M  V30 269 H 25.2627 -0.506041 -4.82252 0
M  V30 270 N 26.6058 1.57591 -0.0167156 0
M  V30 271 C 27.5358 2.12496 0.967858 0
M  V30 272 C 28.5168 1.03807 1.34752 0
M  V30 273 O 29.7018 1.31577 1.42833 0
M  V30 274 C 26.8318 2.64194 2.25431 0
M  V30 275 C 25.7858 3.77559 2.01576 0
M  V30 276 C 25.1118 4.15636 3.36379 0
M  V30 277 C 26.4118 5.04151 1.36489 0
M  V30 278 H 28.1058 2.95013 0.510643 0
M  V30 279 H 25.6518 1.41915 0.244181 0
M  V30 280 H 27.6048 3.01236 2.94678 0
M  V30 281 H 26.3288 1.78821 2.73296 0
M  V30 282 H 24.9878 3.40937 1.34751 0
M  V30 283 H 24.6358 3.27263 3.81979 0
M  V30 284 H 24.3358 4.92022 3.21229 0
M  V30 285 H 25.8598 4.5525 4.06915 0
M  V30 286 H 27.2738 5.38857 1.95718 0
M  V30 287 H 25.6708 5.85453 1.31776 0
M  V30 288 H 26.7408 4.83733 0.336219 0
M  V30 289 N 28.0839 -0.256276 1.55502 0
M  V30 290 C 29.0139 -1.32102 1.92539 0
M  V30 291 C 29.9949 -1.50684 0.789194 0
M  V30 292 O 31.1799 -1.63449 1.04872 0
M  V30 293 C 28.3099 -2.67752 2.21192 0
M  V30 294 C 27.2639 -2.63878 3.36975 0
M  V30 295 C 26.5899 -4.03236 3.51147 0
M  V30 296 C 27.8899 -2.21682 4.72921 0
M  V30 297 H 29.5839 -1.01351 2.81724 0
M  V30 298 H 27.1299 -0.486105 1.35547 0
M  V30 299 H 29.0829 -3.42365 2.45691 0
M  V30 300 H 27.8069 -3.0012 1.28824 0
M  V30 301 H 26.4659 -1.91722 3.12471 0
M  V30 302 H 26.1139 -4.32854 2.56216 0
M  V30 303 H 25.8139 -4.01535 4.29003 0
M  V30 304 H 27.3379 -4.79563 3.77957 0
M  V30 305 H 28.7519 -2.86023 4.96854 0
M  V30 306 H 27.1489 -2.3111 5.53812 0
M  V30 307 H 28.2189 -1.16833 4.70615 0
M  V30 308 N 29.562 -1.4872 -0.521534 0
M  V30 309 C 30.492 -1.66771 -1.63431 0
M  V30 310 C 31.473 -0.516499 -1.62069 0
M  V30 311 O 32.658 -0.750013 -1.79132 0
M  V30 312 C 29.788 -1.71515 -3.01993 0
M  V30 313 C 28.742 -2.86222 -3.18216 0
M  V30 314 C 28.068 -2.76061 -4.57924 0
M  V30 315 C 29.368 -4.27419 -3.00184 0
M  V30 316 H 31.062 -2.59932 -1.48579 0
M  V30 317 H 28.608 -1.25089 -0.713358 0
M  V30 318 H 30.561 -1.82731 -3.7972 0
M  V30 319 H 29.285 -0.749393 -3.17886 0
M  V30 320 H 27.944 -2.74575 -2.42908 0
M  V30 321 H 27.592 -1.77437 -4.70665 0
M  V30 322 H 27.292 -3.53037 -4.69722 0
M  V30 323 H 28.816 -2.89256 -5.37739 0
M  V30 324 H 30.23 -4.39855 -3.67697 0
M  V30 325 H 28.627 -5.05458 -3.2347 0
M  V30 326 H 29.697 -4.43293 -1.96518 0
M  V30 327 N 31.0401 0.771051 -1.3745 0
M  V30 328 C 31.9701 1.89827 -1.3597 0
M  V30 329 C 32.9511 1.68562 -0.228216 0
M  V30 330 O 34.1361 1.8941 -0.428675 0
M  V30 331 C 31.2661 3.2712 -1.16662 0
M  V30 332 C 30.2201 3.6295 -2.2683 0
M  V30 333 C 29.5461 4.98791 -1.92644 0
M  V30 334 C 30.8461 3.69627 -3.69017 0
M  V30 335 H 32.5401 1.91323 -2.30295 0
M  V30 336 H 30.0861 0.919082 -1.10855 0
M  V30 337 H 32.0391 4.05615 -1.14256 0
M  V30 338 H 30.7631 3.26059 -0.187926 0
M  V30 339 H 29.4221 2.86763 -2.28392 0
M  V30 340 H 29.0701 4.94271 -0.933021 0
M  V30 341 H 28.7701 5.23733 -2.66416 0
M  V30 342 H 30.2941 5.79685 -1.91826 0
M  V30 343 H 31.7081 4.38273 -3.69581 0
M  V30 344 H 30.1051 4.06067 -4.41848 0
M  V30 345 H 31.1751 2.70273 -4.02592 0
M  V30 346 N 32.5182 1.22032 0.997298 0
M  V30 347 C 33.4482 1.01065 2.10495 0
M  V30 348 C 34.4292 -0.0669542 1.69968 0
M  V30 349 O 35.6142 0.0943987 1.9397 0
M  V30 350 C 32.7442 0.582874 3.42374 0
M  V30 351 C 31.6982 1.60592 3.96729 0
M  V30 352 C 31.0242 1.03412 5.24605 0
M  V30 353 C 32.3242 2.99478 4.27914 0
M  V30 354 H 34.0182 1.93708 2.28292 0
M  V30 355 H 31.5642 0.932761 1.09707 0
M  V30 356 H 33.5172 0.423332 4.19268 0
M  V30 357 H 32.2412 -0.379213 3.24391 0
M  V30 358 H 30.9002 1.75316 3.21963 0
M  V30 359 H 30.5482 0.063518 5.0296 0
M  V30 360 H 30.2482 1.71754 5.61938 0
M  V30 361 H 31.7722 0.886066 6.04137 0
M  V30 362 H 33.1862 2.88153 4.95622 0
M  V30 363 H 31.5832 3.64903 4.76409 0
M  V30 364 H 32.6532 3.49742 3.3587 0
M  V30 365 N 33.9963 -1.19345 1.0293 0
M  V30 366 C 35.2213 -1.93538 0.745511 0
M  V30 367 C 35.6463 -1.75007 -0.689511 0
M  V30 368 O 35.0043 -1.05265 -1.47611 0
M  V30 369 C 35.0523 -3.43336 1.10239 0
M  V30 370 O 34.1563 -4.11806 0.221289 0
M  V30 371 H 33.4973 -0.604193 0.275404 0
M  V30 372 H 36.0273 -1.5141 1.37609 0
M  V30 373 H 36.0373 -3.94004 1.05947 0
M  V30 374 H 34.7123 -3.56146 2.14786 0
M  V30 375 H 33.2893 -3.715 0.322842 0
M  V30 376 N 35.4744 -0.807222 -1.35358 0
M  V30 377 C 36.4044 -0.232509 -2.3234 0
M  V30 378 C 37.3854 0.642386 -1.57504 0
M  V30 379 O 38.5704 0.572526 -1.85569 0
M  V30 380 C 35.7004 0.619238 -3.41735 0
M  V30 381 C 34.6544 -0.157215 -4.27711 0
M  V30 382 C 33.9804 0.816273 -5.28433 0
M  V30 383 C 35.2804 -1.35656 -5.04376 0
M  V30 384 H 36.9744 -1.04276 -2.80654 0
M  V30 385 H 34.5204 -0.50288 -1.34934 0
M  V30 386 H 36.4734 1.03137 -4.08584 0
M  V30 387 H 35.1974 1.46239 -2.92031 0
M  V30 388 H 33.8564 -0.550525 -3.62443 0
M  V30 389 H 33.5044 1.65494 -4.74996 0
M  V30 390 H 33.2044 0.301067 -5.86828 0
M  V30 391 H 34.7284 1.22659 -5.98153 0
M  V30 392 H 36.1424 -1.01927 -5.64166 0
M  V30 393 H 34.5394 -1.8063 -5.7227 0
M  V30 394 H 35.6094 -2.14288 -4.34981 0
M  V30 395 N 36.9525 1.47285 -0.560781 0
M  V30 396 C 37.8825 2.32857 0.173105 0
M  V30 397 C 38.8635 1.44009 0.905281 0
M  V30 398 O 40.0485 1.7286 0.885046 0
M  V30 399 C 37.1785 3.25861 1.20133 0
M  V30 400 C 36.1325 4.23978 0.585388 0
M  V30 401 C 35.4585 5.06332 1.7185 0
M  V30 402 C 36.7585 5.20242 -0.463178 0
M  V30 403 H 38.4525 2.94466 -0.541307 0
M  V30 404 H 35.9985 1.41601 -0.261764 0
M  V30 405 H 37.9515 3.84569 1.72293 0
M  V30 406 H 36.6755 2.62315 1.94573 0
M  V30 407 H 35.3345 3.66501 0.085054 0
M  V30 408 H 34.9825 4.39186 2.45203 0
M  V30 409 H 34.6825 5.72762 1.31213 0
M  V30 410 H 36.2065 5.67899 2.24329 0
M  V30 411 H 37.6205 5.73293 -0.027502 0
M  V30 412 H 36.0175 5.94896 -0.788627 0
M  V30 413 H 37.0875 4.65504 -1.35773 0
M  V30 414 N 38.4306 0.297415 1.54768 0
M  V30 415 C 39.8416 -0.195947 1.85669 0
M  V30 416 C 40.1926 -1.53707 1.21937 0
M  V30 417 O 39.3176 -2.10164 0.515754 0
M  V30 418 C 39.9126 -0.362318 3.36857 0
M  V30 419 C 38.4716 -0.799901 3.67802 0
M  V30 420 C 37.6186 0.0938578 2.77141 0
M  V30 421 H 40.5696 0.518538 1.4999 0
M  V30 422 H 40.5906 -1.19745 3.61167 0
M  V30 423 H 40.1026 0.613921 3.83214 0
M  V30 424 H 38.2036 -1.78682 3.26961 0
M  V30 425 H 38.3166 -0.621773 4.75048 0
M  V30 426 H 36.6806 -0.426254 2.51108 0
M  V30 427 H 37.4636 1.06639 3.26318 0
M  V30 428 N 39.9087 -1.5758 0.0250728 0
M  V30 429 C 41.1547 -1.91917 -0.655413 0
M  V30 430 C 41.4877 -0.901433 -1.72011 0
M  V30 431 O 40.7627 0.0764069 -1.9435 0
M  V30 432 C 41.0457 -3.36751 -1.27558 0
M  V30 433 C 40.8987 -4.49258 -0.220719 0
M  V30 434 C 42.2177 -3.81469 -2.19475 0
M  V30 435 H 39.3367 -0.697925 -0.23679 0
M  V30 436 H 41.9787 -1.89825 0.0815036 0
M  V30 437 H 40.1287 -3.38664 -1.90365 0
M  V30 438 H 41.8007 -4.59478 0.409601 0
M  V30 439 H 40.0437 -4.31415 0.454264 0
M  V30 440 H 40.7147 -5.47618 -0.694175 0
M  V30 441 H 43.1907 -3.81266 -1.66659 0
M  V30 442 H 42.0667 -4.83512 -2.59822 0
M  V30 443 H 42.3277 -3.16744 -3.08424 0
M  V30 444 N 41.3868 0.248026 -1.55636 0
M  V30 445 C 42.3498 1.29044 -1.89421 0
M  V30 446 C 43.3498 1.41134 -0.770581 0
M  V30 447 O 44.5398 1.39854 -1.03858 0
M  V30 448 C 41.6718 2.66831 -2.12165 0
M  V30 449 H 42.8648 1.00305 -2.82629 0
M  V30 450 H 40.4178 0.487265 -1.48511 0
M  V30 451 H 41.1528 3.00711 -1.21422 0
M  V30 452 H 40.9378 2.59438 -2.93997 0
M  V30 453 H 42.4278 3.42103 -2.3949 0
M  V30 454 N 42.8649 1.48995 0.513639 0
M  V30 455 C 44.2809 1.35478 0.843682 0
M  V30 456 C 44.4809 0.378213 1.97919 0
M  V30 457 O 43.5369 -0.194689 2.51748 0
M  V30 458 C 44.8499 2.75901 1.1958 0
M  V30 459 C 46.3979 2.84509 1.30474 0
M  V30 460 C 46.8729 4.25671 1.69021 0
M  V30 461 N 48.3639 4.28422 1.76094 0
M  V30 462 C 49.0989 5.34601 2.07338 0
M  V30 463 N 48.5949 6.5104 2.36894 0
M  V30 464 N 50.3879 5.22007 2.08483 0
M  V30 465 H 42.5389 2.11092 -0.235328 0
M  V30 466 H 44.8019 0.947039 -0.0426669 0
M  V30 467 H 44.5079 3.49001 0.434913 0
M  V30 468 H 44.3819 3.10467 2.1422 0
M  V30 469 H 46.7689 2.11655 2.05637 0
M  V30 470 H 46.8499 2.53542 0.339155 0
M  V30 471 H 46.4939 4.99048 0.944135 0
M  V30 472 H 46.4239 4.54094 2.66658 0
M  V30 473 H 48.9149 3.44441 1.55464 0
M  V30 474 H 49.2279 7.2779 2.59887 0
M  V30 475 H 47.5729 6.54287 2.34378 0
M  V30 476 H 50.7639 4.30051 1.84861 0
M  V30 477 H 50.9369 6.04854 2.325 0
M  V30 478 N 44.343 -0.763751 1.37857 0
M  V30 479 C 45.306 -1.85889 1.34081 0
M  V30 480 C 46.306 -1.58949 0.243277 0
M  V30 481 O 47.496 -1.66882 0.499589 0
M  V30 482 C 44.628 -3.23176 1.08489 0
M  V30 483 H 45.821 -1.90648 2.31502 0
M  V30 484 H 43.374 -0.964367 1.23003 0
M  V30 485 H 44.109 -3.24091 0.116318 0
M  V30 486 H 43.894 -3.44124 1.8794 0
M  V30 487 H 45.384 -4.03254 1.08517 0
M  V30 488 N 45.8211 -1.22559 -0.990812 0
M  V30 489 C 47.0461 -1.07862 -1.77145 0
M  V30 490 C 47.4711 0.366447 -1.84496 0
M  V30 491 O 46.8291 1.26478 -1.29896 0
M  V30 492 C 46.8771 -1.69686 -3.18181 0
M  V30 493 O 45.9811 -0.951946 -4.01263 0
M  V30 494 H 45.3221 -0.378712 -0.545411 0
M  V30 495 H 47.8521 -1.62399 -1.2445 0
M  V30 496 H 47.8621 -1.74496 -3.68802 0
M  V30 497 H 46.5371 -2.74841 -3.12146 0
M  V30 498 H 45.1141 -0.980011 -3.59792 0
M  V30 499 N 47.2992 1.18797 -1.03562 0
M  V30 500 C 48.2092 2.25913 -0.632505 0
M  V30 501 C 49.2252 1.70668 0.338882 0
M  V30 502 O 50.4012 2.00453 0.195076 0
M  V30 503 C 47.4662 3.467 0.00350942 0
M  V30 504 C 46.5272 4.17098 -1.01624 0
M  V30 505 C 45.7602 5.32119 -0.410478 0
M  V30 506 O 45.9832 5.64976 0.784725 0
M  V30 507 O 44.9172 5.9107 -1.13667 0
M  V30 508 H 48.7432 2.62648 -1.52478 0
M  V30 509 H 46.3282 1.25781 -0.806195 0
M  V30 510 H 48.2102 4.19878 0.35781 0
M  V30 511 H 46.8852 3.11798 0.869686 0
M  V30 512 H 45.7922 3.4601 -1.42224 0
M  V30 513 H 47.1252 4.55987 -1.85301 0
M  V30 514 N 48.7773 0.814389 1.34928 0
M  V30 515 C 49.7403 0.235759 2.27984 0
M  V30 516 C 50.7403 -0.581412 1.49921 0
M  V30 517 O 51.9303 -0.398758 1.69575 0
M  V30 518 C 49.0623 -0.670433 3.34242 0
M  V30 519 H 50.2553 1.05659 2.80671 0
M  V30 520 H 47.8083 0.585614 1.44915 0
M  V30 521 H 48.5433 -1.51466 2.86755 0
M  V30 522 H 48.3283 -0.0860822 3.92005 0
M  V30 523 H 49.8183 -1.06935 4.03676 0
M  V30 524 N 50.2554 -1.46986 0.568584 0
M  V30 525 C 51.1654 -2.33942 -0.17555 0
M  V30 526 C 52.1814 -1.48891 -0.90041 0
M  V30 527 O 53.3574 -1.81794 -0.86676 0
M  V30 528 C 50.4224 -3.25811 -1.18524 0
M  V30 529 C 49.4834 -4.26757 -0.466582 0
M  V30 530 C 48.7164 -5.14236 -1.42817 0
M  V30 531 O 48.9394 -5.04379 -2.66379 0
M  V30 532 O 47.8734 -5.94412 -0.946453 0
M  V30 533 H 51.6994 -2.98896 0.538036 0
M  V30 534 H 49.2844 -1.4573 0.329097 0
M  V30 535 H 51.1664 -3.82527 -1.76779 0
M  V30 536 H 49.8414 -2.63471 -1.88055 0
M  V30 537 H 48.7484 -3.73769 0.157451 0
M  V30 538 H 50.0814 -4.91843 0.187485 0
M  V30 539 N 51.7335 -0.305618 -1.54608 0
M  V30 540 C 52.6835 0.583595 -2.20405 0
M  V30 541 C 53.6675 1.09539 -1.17856 0
M  V30 542 O 54.8595 1.0354 -1.43557 0
M  V30 543 C 51.9885 1.75277 -2.95183 0
M  V30 544 C 51.0745 1.25672 -4.05052 0
M  V30 545 N 51.4655 0.478998 -5.03527 0
M  V30 546 C 49.7635 1.53704 -4.18678 0
M  V30 547 C 50.4645 0.214269 -5.81305 0
M  V30 548 N 49.4405 0.795374 -5.3775 0
M  V30 549 H 53.2425 -0.0180946 -2.93894 0
M  V30 550 H 50.7565 -0.110601 -1.62023 0
M  V30 551 H 52.7535 2.4014 -3.40791 0
M  V30 552 H 51.4135 2.35812 -2.23211 0
M  V30 553 H 52.4245 0.123473 -5.17753 0
M  V30 554 H 49.1015 2.14954 -3.57912 0
M  V30 555 H 50.4915 -0.410656 -6.70644 0
M  V30 556 N 53.2116 1.57565 -0.0334293 0
M  V30 557 C 54.6276 1.56297 0.322997 0
M  V30 558 C 54.8276 1.03945 1.7262 0
M  V30 559 O 53.8836 0.688109 2.42943 0
M  V30 560 C 55.1966 3.00232 0.167664 0
M  V30 561 C 56.7446 3.12078 0.240107 0
M  V30 562 C 57.2196 4.57859 0.113513 0
M  V30 563 N 58.7106 4.62887 0.170359 0
M  V30 564 C 59.4456 5.73319 0.0962517 0
M  V30 565 N 58.9416 6.92794 -0.0291881 0
M  V30 566 N 60.7346 5.61898 0.150551 0
M  V30 567 H 52.8856 1.89923 -0.950956 0
M  V30 568 H 55.1486 0.873824 -0.367608 0
M  V30 569 H 54.8546 3.42501 -0.799102 0
M  V30 570 H 54.7286 3.654 0.936083 0
M  V30 571 H 57.1156 2.69718 1.19733 0
M  V30 572 H 57.1966 2.49623 -0.558763 0
M  V30 573 H 56.8406 5.009 -0.840314 0
M  V30 574 H 56.7706 5.18299 0.931302 0
M  V30 575 H 59.2616 3.76954 0.26728 0
M  V30 576 H 59.5746 7.7276 -0.0789252 0
M  V30 577 H 57.9196 6.94971 -0.0640299 0
M  V30 578 H 61.1106 4.67448 0.246981 0
M  V30 579 H 61.2836 6.47938 0.0893365 0
M  V30 580 N 54.6897 -0.239769 1.55765 0
M  V30 581 C 55.6197 -1.30052 1.9393 0
M  V30 582 C 56.6007 -1.49839 0.805132 0
M  V30 583 O 57.7857 -1.62328 1.06599 0
M  V30 584 C 54.9157 -2.65391 2.2402 0
M  V30 585 C 53.8697 -2.60289 3.39755 0
M  V30 586 C 53.1957 -3.99489 3.55405 0
M  V30 587 C 54.4957 -2.16654 4.75246 0
M  V30 588 H 56.1897 -0.983573 2.82783 0
M  V30 589 H 53.7357 -0.471701 1.36055 0
M  V30 590 H 55.6887 -3.3974 2.49308 0
M  V30 591 H 54.4127 -2.98736 1.32 0
M  V30 592 H 53.0717 -1.88398 3.14487 0
M  V30 593 H 52.7197 -4.30112 2.60793 0
M  V30 594 H 52.4197 -3.96962 4.33238 0
M  V30 595 H 53.9437 -4.75528 3.83022 0
M  V30 596 H 55.3577 -2.80737 4.99859 0
M  V30 597 H 53.7547 -2.25223 5.56232 0
M  V30 598 H 54.8247 -1.11835 4.71827 0
M  V30 599 N 56.1678 -1.49265 -0.50573 0
M  V30 600 C 57.4148 -1.58513 -1.26015 0
M  V30 601 C 57.7428 -0.26972 -1.92621 0
M  V30 602 O 56.9978 0.741997 -1.81088 0
M  V30 603 C 57.2968 -2.69008 -2.35308 0
M  V30 604 C 56.9628 -4.10662 -1.86192 0
M  V30 605 C 55.6248 -4.49212 -1.72516 0
M  V30 606 C 57.9768 -4.99336 -1.49375 0
M  V30 607 C 55.3048 -5.74214 -1.20394 0
M  V30 608 C 57.6568 -6.24852 -0.987072 0
M  V30 609 C 56.3208 -6.62236 -0.836669 0
M  V30 610 H 55.5908 -0.580041 -0.461122 0
M  V30 611 H 58.2378 -1.83078 -0.561665 0
M  V30 612 H 56.5428 -2.38396 -3.10926 0
M  V30 613 H 58.2398 -2.73373 -2.93374 0
M  V30 614 H 54.8298 -3.8023 -1.97795 0
M  V30 615 H 59.0138 -4.70212 -1.5879 0
M  V30 616 H 54.2698 -6.01883 -1.07458 0
M  V30 617 H 58.4438 -6.92944 -0.692983 0
M  V30 618 H 56.0708 -7.58979 -0.430607 0
M  V30 619 N 57.6459 0.756429 -1.3826 0
M  V30 620 C 58.5559 1.9009 -1.37488 0
M  V30 621 C 59.5719 1.71855 -0.272366 0
M  V30 622 O 60.7479 1.94827 -0.510318 0
M  V30 623 C 57.8129 3.25421 -1.19592 0
M  V30 624 C 56.8739 3.56202 -2.39622 0
M  V30 625 C 56.1069 4.85075 -2.2257 0
M  V30 626 O 56.3299 5.57246 -1.21793 0
M  V30 627 O 55.2639 5.15269 -3.11098 0
M  V30 628 H 59.0899 1.93695 -2.33914 0
M  V30 629 H 56.6749 0.901313 -1.1915 0
M  V30 630 H 58.5569 4.06337 -1.11661 0
M  V30 631 H 57.2319 3.22634 -0.262486 0
M  V30 632 H 56.1389 2.75458 -2.53128 0
M  V30 633 H 57.4719 3.63747 -3.31586 0
M  V30 634 N 59.124 1.23083 0.984299 0
M  V30 635 C 60.54 0.992637 1.24975 0
M  V30 636 C 60.74 -0.308618 1.99123 0
M  V30 637 O 59.796 -1.02905 2.30579 0
M  V30 638 C 61.109 2.19698 2.05312 0
M  V30 639 C 62.657 2.24147 2.18465 0
M  V30 640 C 63.132 3.44157 3.02192 0
M  V30 641 N 64.623 3.44372 3.09777 0
M  V30 642 C 65.358 4.33886 3.74874 0
M  V30 643 N 64.854 5.3363 4.41827 0
M  V30 644 N 66.647 4.21639 3.71721 0
M  V30 645 H 58.798 2.06731 0.487453 0
M  V30 646 H 61.061 0.906339 0.277944 0
M  V30 647 H 60.767 3.1411 1.58201 0
M  V30 648 H 60.641 2.20465 3.06064 0
M  V30 649 H 63.028 1.30277 2.64786 0
M  V30 650 H 63.109 2.27415 1.17115 0
M  V30 651 H 62.753 4.38332 2.56568 0
M  V30 652 H 62.683 3.3813 4.03702 0
M  V30 653 H 65.174 2.72201 2.62135 0
M  V30 654 H 65.487 5.98196 4.89266 0
M  V30 655 H 63.832 5.37534 4.40548 0
M  V30 656 H 67.023 3.42962 3.18582 0
M  V30 657 H 67.196 4.91604 4.22173 0
M  V30 658 N 60.6021 -1.18246 1.0419 0
M  V30 659 C 61.5321 -2.24127 0.654914 0
M  V30 660 C 62.5131 -1.66617 -0.342451 0
M  V30 661 O 63.6981 -1.92924 -0.222277 0
M  V30 662 C 60.8281 -3.47295 0.0183757 0
M  V30 663 C 59.7821 -4.17563 0.939414 0
M  V30 664 C 59.1081 -5.34438 0.167286 0
M  V30 665 C 60.4081 -4.70917 2.25908 0
M  V30 666 H 62.1021 -2.56753 1.54007 0
M  V30 667 H 59.6481 -1.23414 0.74195 0
M  V30 668 H 61.6011 -4.20572 -0.264082 0
M  V30 669 H 60.3251 -3.13907 -0.901664 0
M  V30 670 H 58.9841 -3.46186 1.20628 0
M  V30 671 H 58.6321 -4.97298 -0.7552 0
M  V30 672 H 58.3321 -5.82388 0.780901 0
M  V30 673 H 59.8561 -6.10504 -0.108125 0
M  V30 674 H 61.2701 -5.35882 2.03724 0
M  V30 675 H 59.6671 -5.29406 2.82577 0
M  V30 676 H 60.7371 -3.88272 2.9047 0
M  V30 677 N 62.0802 -0.821533 -1.34494 0
M  V30 678 C 63.3272 -0.408946 -1.98328 0
M  V30 679 C 63.6552 1.02764 -1.65136 0
M  V30 680 O 62.9102 1.73026 -0.914349 0
M  V30 681 C 63.2092 -0.556512 -3.53041 0
M  V30 682 C 62.8752 -1.95861 -4.0614 0
M  V30 683 C 61.5372 -2.34217 -4.20352 0
M  V30 684 C 63.8892 -2.87523 -4.34718 0
M  V30 685 C 61.2172 -3.63572 -4.6047 0
M  V30 686 C 63.5692 -4.1634 -4.76281 0
M  V30 687 C 62.2332 -4.54675 -4.88699 0
M  V30 688 H 61.5032 -0.149644 -0.725732 0
M  V30 689 H 64.1502 -1.04521 -1.6046 0
M  V30 690 H 62.4552 0.163148 -3.9146 0
M  V30 691 H 64.1522 -0.217826 -4.00408 0
M  V30 692 H 60.7422 -1.65066 -3.95539 0
M  V30 693 H 64.9262 -2.59133 -4.23277 0
M  V30 694 H 60.1822 -3.93101 -4.68275 0
M  V30 695 H 64.3562 -4.87455 -4.97354 0
M  V30 696 H 61.9832 -5.54959 -5.19542 0
M  V30 697 N 63.5583 1.46682 -0.576371 0
M  V30 698 C 64.4683 2.34032 0.163141 0
M  V30 699 C 65.4843 1.49367 0.892501 0
M  V30 700 O 66.6603 1.82252 0.857106 0
M  V30 701 C 63.7253 3.26435 1.16795 0
M  V30 702 C 62.7863 4.26998 0.443944 0
M  V30 703 C 62.0193 5.14986 1.40088 0
M  V30 704 O 62.2423 5.05785 2.637 0
M  V30 705 O 61.1763 5.94906 0.914917 0
M  V30 706 H 65.0023 2.98607 -0.55388 0
M  V30 707 H 62.5873 1.45554 -0.336821 0
M  V30 708 H 64.4693 3.83459 1.74748 0
M  V30 709 H 63.1443 2.64465 1.86655 0
M  V30 710 H 62.0513 3.7368 -0.177271 0
M  V30 711 H 63.3843 4.91736 -0.213566 0
M  V30 712 N 65.0364 0.313813 1.54444 0
M  V30 713 C 66.3134 -0.345447 1.92525 0
M  V30 714 C 66.6934 -1.70667 1.24242 0
M  V30 715 O 66.0414 -2.25273 0.382654 0
M  V30 716 C 66.2514 -0.44737 3.46121 0
M  V30 717 C 67.5994 -0.712238 4.18584 0
M  V30 718 O 68.6234 -0.530678 3.52225 0
M  V30 719 O 67.4824 -1.06183 5.36085 0
M  V30 720 H 64.5764 -0.195407 0.803583 0
M  V30 721 H 67.1224 0.362813 1.65776 0
M  V30 722 H 65.8944 0.509043 3.87975 0
M  V30 723 H 65.5174 -1.20359 3.78945 0
M  V30 724 N 66.5145 -1.57545 0.0417849 0
M  V30 725 C 67.7445 -1.96339 -0.642995 0
M  V30 726 C 68.1525 -0.917536 -1.65463 0
M  V30 727 O 67.4955 0.107747 -1.83384 0
M  V30 728 C 67.5575 -3.31333 -1.39494 0
M  V30 729 C 67.2215 -4.53796 -0.540204 0
M  V30 730 C 68.2185 -5.19553 0.189806 0
M  V30 731 C 65.9035 -5.0006 -0.473886 0
M  V30 732 C 67.8975 -6.29904 0.974674 0
M  V30 733 C 65.5845 -6.10289 0.314677 0
M  V30 734 C 66.5825 -6.75072 1.03765 0
M  V30 735 O 66.2705 -7.83183 1.81327 0
M  V30 736 H 66.0025 -0.651241 -0.181277 0
M  V30 737 H 68.5565 -2.05148 0.101665 0
M  V30 738 H 66.7865 -3.19052 -2.18502 0
M  V30 739 H 68.4755 -3.54942 -1.96904 0
M  V30 740 H 69.2415 -4.84774 0.147981 0
M  V30 741 H 65.1205 -4.49433 -1.0262 0
M  V30 742 H 68.6645 -6.80401 1.5395 0
M  V30 743 H 64.5615 -6.44506 0.358174 0
M  V30 744 H 65.3295 -7.99913 1.73438 0
M  V30 745 N 67.9926 0.231505 -1.5589 0
M  V30 746 C 68.9406 1.30649 -1.92441 0
M  V30 747 C 69.9346 1.49037 -0.805254 0
M  V30 748 O 71.1406 1.50329 -0.990007 0
M  V30 749 H 67.5156 0.437812 -0.611412 0
M  V30 750 H 69.4866 0.970973 -2.82161 0
M  V30 751 C 68.2356 2.65179 -2.24889 0
M  V30 752 H 67.5586 2.51835 -3.10514 0
M  V30 753 H 68.9986 3.39234 -2.54355 0
M  V30 754 C 67.4576 3.19439 -1.07054 0
M  V30 755 O 67.9876 4.00371 -0.326499 0
M  V30 756 N 66.1936 2.77675 -0.85703 0
M  V30 757 H 65.7406 2.11969 -1.46379 0
M  V30 758 H 65.6986 3.14321 -0.0703223 0
M  V30 759 N 69.4707 1.49531 0.497807 0
M  V30 760 C 70.3807 1.69176 1.62532 0
M  V30 761 C 71.3967 0.5744 1.64246 0
M  V30 762 O 72.5727 0.849497 1.82608 0
M  V30 763 C 69.6377 1.75695 2.98885 0
M  V30 764 C 68.6987 2.9929 3.07773 0
M  V30 765 C 67.9317 3.05488 4.37622 0
M  V30 766 O 68.1547 2.19192 5.26603 0
M  V30 767 O 67.0887 3.9798 4.51548 0
M  V30 768 H 70.9147 2.647 1.48887 0
M  V30 769 H 68.4997 1.3331 0.674441 0
M  V30 770 H 70.3817 1.82317 3.79919 0
M  V30 771 H 69.0567 0.8335 3.12785 0
M  V30 772 H 67.9637 2.98183 2.25915 0
M  V30 773 H 69.2967 3.91125 2.98801 0
M  V30 774 N 70.9488 -0.749086 1.3866 0
M  V30 775 C 72.1978 -1.50371 1.3443 0
M  V30 776 C 72.5108 -1.95503 -0.0616397 0
M  V30 777 O 73.7168 -2.70554 -0.226489 0
M  V30 778 C 72.1728 -2.71644 2.36088 0
M  V30 779 C 71.7808 -2.3352 3.82325 0
M  V30 780 C 73.5248 -3.49518 2.40909 0
M  V30 781 C 71.4318 -3.51431 4.75658 0
M  V30 782 H 70.3618 -0.564628 0.499712 0
M  V30 783 H 73.0128 -0.818449 1.64237 0
M  V30 784 H 71.3948 -3.42175 1.9933 0
M  V30 785 H 72.5688 -1.70627 4.28046 0
M  V30 786 H 70.8838 -1.6877 3.80665 0
M  V30 787 H 73.4808 -4.37197 3.07836 0
M  V30 788 H 73.8238 -3.90992 1.42937 0
M  V30 789 H 74.3568 -2.86005 2.76489 0
M  V30 790 H 71.0958 -3.15019 5.74842 0
M  V30 791 H 70.6158 -4.13352 4.34627 0
M  V30 792 H 72.2948 -4.17953 4.93887 0
M  V30 793 N 72.4269 -1.23603 -0.977757 0
M  V30 794 C 73.6759 -1.06377 -1.71368 0
M  V30 795 C 73.9889 0.399062 -1.91486 0
M  V30 796 O 75.1949 0.691312 -2.62551 0
M  V30 797 C 73.6509 -1.85512 -3.08404 0
M  V30 798 C 73.2589 -3.36141 -2.96164 0
M  V30 799 C 75.0029 -1.76783 -3.85938 0
M  V30 800 C 72.9099 -4.07659 -4.28449 0
M  V30 801 H 71.8399 -0.394452 -0.642591 0
M  V30 802 H 74.4909 -1.47594 -1.09034 0
M  V30 803 H 72.8729 -1.37103 -3.71509 0
M  V30 804 H 74.0469 -3.92056 -2.42133 0
M  V30 805 H 72.3619 -3.45712 -2.32104 0
M  V30 806 H 74.9589 -2.27526 -4.83876 0
M  V30 807 H 75.3019 -0.731116 -4.0983 0
M  V30 808 H 75.8349 -2.22818 -3.2954 0
M  V30 809 H 72.5739 -5.11648 -4.09752 0
M  V30 810 H 72.0939 -3.5653 -4.82334 0
M  V30 811 H 73.7729 -4.141 -4.97122 0
M  V30 812 N 73.905 1.17692 -1.04816 0
M  V30 813 C 75.321 1.39863 -0.768794 0
M  V30 814 C 75.521 1.91118 0.638451 0
M  V30 815 O 74.577 2.10036 1.40146 0
M  V30 816 C 75.89 2.39274 -1.82122 0
M  V30 817 C 77.438 2.52987 -1.843 0
M  V30 818 C 77.913 3.55669 -2.88555 0
M  V30 819 N 79.404 3.63183 -2.87493 0
M  V30 820 C 80.139 4.42381 -3.64811 0
M  V30 821 N 79.635 5.25125 -4.51903 0
M  V30 822 N 81.428 4.37217 -3.53267 0
M  V30 823 H 73.579 0.82752 -1.95617 0
M  V30 824 H 75.842 0.426123 -0.846831 0
M  V30 825 H 75.548 2.08678 -2.83102 0
M  V30 826 H 75.422 3.38725 -1.65967 0
M  V30 827 H 77.809 2.82896 -0.839869 0
M  V30 828 H 77.89 1.53623 -2.04532 0
M  V30 829 H 77.534 3.26499 -3.89051 0
M  V30 830 H 77.464 4.54728 -2.65575 0
M  V30 831 H 79.955 3.04103 -2.24343 0
M  V30 832 H 80.268 5.82728 -5.07591 0
M  V30 833 H 78.613 5.24519 -4.55966 0
M  V30 834 H 81.804 3.71626 -2.84625 0
M  V30 835 H 81.977 4.98696 -4.13771 0
M  V30 836 N 75.3831 0.828654 1.34056 0
M  V30 837 C 76.7941 0.477534 1.8049 0
M  V30 838 C 77.1451 -1.00258 1.6865 0
M  V30 839 O 76.2701 -1.78057 1.22982 0
M  V30 840 C 76.8651 0.860018 3.27703 0
M  V30 841 C 75.4241 0.561185 3.72193 0
M  V30 842 C 74.5711 1.07385 2.55663 0
M  V30 843 H 77.5221 1.0183 1.21722 0
M  V30 844 H 77.5431 0.166038 3.80138 0
M  V30 845 H 77.0551 1.93731 3.36288 0
M  V30 846 H 75.1561 -0.506465 3.69142 0
M  V30 847 H 75.2691 1.10926 4.66082 0
M  V30 848 H 73.6331 0.495149 2.49841 0
M  V30 849 H 74.4161 2.15771 2.67016 0
M  V30 850 N 76.8612 -1.46375 0.584142 0
M  V30 851 C 78.1072 -2.02678 0.0703716 0
M  V30 852 C 78.4402 -1.4545 -1.28678 0
M  V30 853 O 77.7152 -0.62014 -1.84349 0
M  V30 854 C 77.9982 -3.60099 0.00614674 0
M  V30 855 C 77.8512 -4.27709 1.3923 0
M  V30 856 C 79.1702 -4.34598 -0.693742 0
M  V30 857 H 76.2892 -0.736504 0.027047 0
M  V30 858 H 78.9312 -1.74501 0.751615 0
M  V30 859 H 77.0812 -3.84236 -0.574009 0
M  V30 860 H 78.7532 -4.14832 2.01773 0
M  V30 861 H 76.9962 -3.87016 1.95962 0
M  V30 862 H 77.6672 -5.36478 1.29982 0
M  V30 863 H 80.1432 -4.15615 -0.200869 0
M  V30 864 H 79.0192 -5.44318 -0.707714 0
M  V30 865 H 79.2802 -4.05759 -1.75533 0
M  V30 866 N 78.3393 -0.321999 -1.54275 0
M  V30 867 C 79.3023 0.531975 -2.22941 0
M  V30 868 C 80.3023 1.04478 -1.22234 0
M  V30 869 O 81.4923 0.937452 -1.46825 0
M  V30 870 C 78.6243 1.73874 -2.93224 0
M  V30 871 H 79.8173 -0.0682612 -2.99822 0
M  V30 872 H 77.3703 -0.0730644 -1.56129 0
M  V30 873 H 78.1053 2.37825 -2.20476 0
M  V30 874 H 77.8903 1.37847 -3.6707 0
M  V30 875 H 79.3803 2.34496 -3.45545 0
M  V30 876 N 79.8174 1.5752 -0.0501392 0
M  V30 877 C 80.7654 2.12651 0.942459 0
M  V30 878 C 81.7594 1.05807 1.32292 0
M  V30 879 O 82.9654 1.24217 1.3027 0
M  V30 880 H 79.3404 0.679673 0.321789 0
M  V30 881 H 81.3114 2.94951 0.452356 0
M  V30 882 C 80.0604 2.68565 2.20836 0
M  V30 883 H 79.3834 3.50439 1.92439 0
M  V30 884 H 80.8234 3.10761 2.8845 0
M  V30 885 C 79.2824 1.62291 2.95234 0
M  V30 886 O 79.8124 1.03508 3.88135 0
M  V30 887 N 78.0184 1.33836 2.57946 0
M  V30 888 H 77.5654 1.81826 1.82475 0
M  V30 889 H 77.5234 0.629595 3.08032 0
M  V30 890 N 81.2955 -0.223234 1.56011 0
M  V30 891 C 82.5415 -0.949279 1.79211 0
M  V30 892 C 82.8745 -1.84054 0.619494 0
M  V30 893 O 82.1495 -1.90726 -0.381317 0
M  V30 894 C 82.4325 -1.78965 3.12479 0
M  V30 895 C 82.2855 -0.924997 4.40186 0
M  V30 896 C 83.6045 -2.76774 3.42175 0
M  V30 897 H 80.7235 -0.343676 0.651963 0
M  V30 898 H 83.3655 -0.218253 1.88742 0
M  V30 899 H 81.5155 -2.41291 3.04485 0
M  V30 900 H 83.1875 -0.318615 4.60198 0
M  V30 901 H 81.4305 -0.230344 4.33188 0
M  V30 902 H 82.1015 -1.54735 5.29869 0
M  V30 903 H 84.5775 -2.24584 3.50287 0
M  V30 904 H 83.4535 -3.32678 4.36597 0
M  V30 905 H 83.7145 -3.54429 2.64258 0
M  V30 906 N 82.7736 -1.49793 -0.48987 0
M  V30 907 C 83.9986 -1.63836 -1.27172 0
M  V30 908 C 84.4236 -0.31402 -1.8546 0
M  V30 909 O 83.7816 0.719803 -1.66399 0
M  V30 910 C 83.8296 -2.71797 -2.36978 0
M  V30 911 O 82.9336 -2.31744 -3.41128 0
M  V30 912 H 82.2746 -0.547997 -0.37496 0
M  V30 913 H 84.8046 -1.96053 -0.585191 0
M  V30 914 H 84.8146 -2.94305 -2.82575 0
M  V30 915 H 83.4896 -3.67923 -1.93921 0
M  V30 916 H 82.0666 -2.1961 -3.01373 0
M  V30 917 N 84.2517 0.741722 -1.39055 0
M  V30 918 C 85.5287 1.49252 -1.26425 0
M  V30 919 C 85.9087 2.10705 0.129144 0
M  V30 920 O 85.2567 1.98045 1.13976 0
M  V30 921 C 85.4667 2.54934 -2.38347 0
M  V30 922 C 86.8147 3.21506 -2.77343 0
M  V30 923 O 87.8387 2.65245 -2.37747 0
M  V30 924 O 86.6977 4.23294 -3.45665 0
M  V30 925 H 83.7917 0.662451 -0.495064 0
M  V30 926 H 86.3377 0.776121 -1.50912 0
M  V30 927 H 85.1097 2.07857 -3.31529 0
M  V30 928 H 84.7327 3.34141 -2.15489 0
M  V30 929 N 85.7298 1.2412 0.971189 0
M  V30 930 C 87.1408 1.07236 1.52831 0
M  V30 931 C 87.4918 -0.357352 1.92918 0
M  V30 932 O 86.6168 -1.24528 1.76979 0
M  V30 933 C 87.2118 1.94043 2.77728 0
M  V30 934 C 85.7708 1.81394 3.29808 0
M  V30 935 C 84.9178 1.89189 2.02738 0
M  V30 936 H 87.8688 1.37648 0.789864 0
M  V30 937 H 87.8898 1.47066 3.5093 0
M  V30 938 H 87.4018 2.98093 2.4852 0
M  V30 939 H 85.5028 0.801634 3.63874 0
M  V30 940 H 85.6158 2.65294 3.98944 0
M  V30 941 H 83.9798 1.32877 2.17292 0
M  V30 942 H 84.7628 2.94812 1.759 0
M  V30 943 N 87.2079 -1.17134 1.05439 0
M  V30 944 C 88.4539 -1.87733 0.767077 0
M  V30 945 C 88.7869 -1.8098 -0.704253 0
M  V30 946 O 88.0619 -1.21951 -1.5152 0
M  V30 947 C 88.3449 -3.37659 1.25133 0
M  V30 948 C 88.1979 -3.53149 2.78578 0
M  V30 949 C 89.5169 -4.31768 0.852324 0
M  V30 950 H 86.6359 -0.681687 0.280129 0
M  V30 951 H 89.2779 -1.37732 1.30881 0
M  V30 952 H 87.4279 -3.80373 0.790469 0
M  V30 953 H 89.0999 -3.19434 3.32806 0
M  V30 954 H 87.3429 -2.95345 3.17732 0
M  V30 955 H 88.0139 -4.58403 3.07523 0
M  V30 956 H 90.4899 -3.96909 1.24911 0
M  V30 957 H 89.3659 -5.35199 1.21873 0
M  V30 958 H 89.6269 -4.41429 -0.243485 0
M  V30 959 N 88.686 -0.835752 -1.33615 0
M  V30 960 C 89.935 -0.426289 -1.97144 0
M  V30 961 C 90.248 1.01912 -1.66953 0
M  V30 962 O 91.454 1.53311 -2.24072 0
M  V30 963 C 89.91 -0.711321 -3.52801 0
M  V30 964 C 89.518 -2.1712 -3.91871 0
M  V30 965 C 91.262 -0.368654 -4.22896 0
M  V30 966 C 89.169 -2.40044 -5.40493 0
M  V30 967 H 88.099 -0.15567 -0.737755 0
M  V30 968 H 90.75 -1.0239 -1.52278 0
M  V30 969 H 89.132 -0.0433766 -3.95976 0
M  V30 970 H 90.306 -2.87936 -3.59763 0
M  V30 971 H 88.621 -2.47654 -3.34749 0
M  V30 972 H 91.218 -0.517601 -5.32189 0
M  V30 973 H 91.561 0.688078 -4.10574 0
M  V30 974 H 92.094 -0.991702 -3.8524 0
M  V30 975 H 88.833 -3.44271 -5.57815 0
M  V30 976 H 88.353 -1.73785 -5.74072 0
M  V30 977 H 90.032 -2.23042 -6.0734 0
M  V30 978 N 90.1641 1.46063 -0.591896 0
M  V30 979 C 91.4131 2.01547 -0.0786637 0
M  V30 980 C 91.7261 1.46796 1.29268 0
M  V30 981 O 92.9321 1.94157 1.89777 0
M  V30 982 C 91.3881 3.59787 -0.0900024 0
M  V30 983 C 90.9961 4.23534 -1.46023 0
M  V30 984 C 92.7401 4.22895 0.368806 0
M  V30 985 C 90.6471 5.73881 -1.4288 0
M  V30 986 H 89.5771 0.753564 -0.0256388 0
M  V30 987 H 92.2281 1.677 -0.744905 0
M  V30 988 H 90.6101 3.90752 0.642586 0
M  V30 989 H 91.7841 4.04167 -2.21328 0
M  V30 990 H 90.0991 3.72558 -1.85982 0
M  V30 991 H 92.6961 5.33116 0.411258 0
M  V30 992 H 93.0391 3.9247 1.38827 0
M  V30 993 H 93.5721 3.9659 -0.31001 0
M  V30 994 H 90.3111 6.0898 -2.42536 0
M  V30 995 H 89.8311 5.95486 -0.718095 0
M  V30 996 H 91.5101 6.36776 -1.14565 0
M  V30 997 N 91.6422 0.330177 1.54103 0
M  V30 998 C 92.5922 -0.548456 2.21305 0
M  V30 999 C 93.5762 -1.07651 1.19583 0
M  V30 1000 O 94.7682 -1.01243 1.45186 0
M  V30 1001 C 91.8972 -1.70559 2.97934 0
M  V30 1002 C 90.9832 -1.19212 4.07 0
M  V30 1003 N 91.3742 -0.398831 5.04225 0
M  V30 1004 C 89.6722 -1.47024 4.2107 0
M  V30 1005 C 90.3732 -0.121761 5.81573 0
M  V30 1006 N 89.3492 -0.709722 5.38947 0
M  V30 1007 H 93.1512 0.0648483 2.93828 0
M  V30 1008 H 90.6652 0.136363 1.61826 0
M  V30 1009 H 92.6622 -2.34688 3.44568 0
M  V30 1010 H 91.3222 -2.32231 2.26934 0
M  V30 1011 H 92.3332 -0.0410869 5.17884 0
M  V30 1012 H 89.0102 -2.09232 3.61287 0
M  V30 1013 H 90.4002 0.517298 6.69906 0
M  V30 1014 N 93.1203 -1.57491 0.0584922 0
M  V30 1015 C 94.3673 -1.92978 -0.613648 0
M  V30 1016 C 94.6953 -0.937461 -1.70417 0
M  V30 1017 O 93.9503 0.049078 -1.95638 0
M  V30 1018 C 94.2493 -3.3513 -1.24188 0
M  V30 1019 C 93.9153 -4.50037 -0.278826 0
M  V30 1020 C 92.5773 -4.81198 -0.0138447 0
M  V30 1021 C 94.9293 -5.19807 0.380777 0
M  V30 1022 C 92.2573 -5.79473 0.918052 0
M  V30 1023 C 94.6093 -6.19079 1.30091 0
M  V30 1024 C 93.2733 -6.48665 1.57449 0
M  V30 1025 H 92.5433 -0.706157 -0.22455 0
M  V30 1026 H 95.1903 -1.91082 0.126533 0
M  V30 1027 H 93.4953 -3.33429 -2.05749 0
M  V30 1028 H 95.1923 -3.59871 -1.769 0
M  V30 1029 H 91.7823 -4.25726 -0.495539 0
M  V30 1030 H 95.9663 -4.95939 0.189158 0
M  V30 1031 H 91.2223 -6.00727 1.1374 0
M  V30 1032 H 95.3963 -6.7225 1.81804 0
M  V30 1033 H 93.0233 -7.24628 2.29822 0
M  V30 1034 N 94.5984 0.214957 -1.56127 0
M  V30 1035 C 95.5084 1.28727 -1.96129 0
M  V30 1036 C 96.5244 1.50916 -0.866044 0
M  V30 1037 O 97.7004 1.63918 -1.17016 0
M  V30 1038 C 94.7654 2.61569 -2.27558 0
M  V30 1039 C 93.8264 2.47625 -3.50685 0
M  V30 1040 C 93.0594 3.74132 -3.80606 0
M  V30 1041 O 93.2824 4.77438 -3.12104 0
M  V30 1042 O 92.2164 3.70849 -4.74083 0
M  V30 1043 H 96.0424 0.977855 -2.87527 0
M  V30 1044 H 93.6274 0.418358 -1.43423 0
M  V30 1045 H 95.5094 3.40012 -2.48938 0
M  V30 1046 H 94.1844 2.92178 -1.39332 0
M  V30 1047 H 93.0914 1.67361 -3.34576 0
M  V30 1048 H 94.4244 2.21954 -4.39315 0
M  V30 1049 N 96.0765 1.50051 0.48192 0
M  V30 1050 C 97.3225 1.60736 1.2366 0
M  V30 1051 C 97.6555 0.301786 1.91841 0
M  V30 1052 O 96.9305 -0.696025 1.8162 0
M  V30 1053 C 97.2135 2.78009 2.28874 0
M  V30 1054 C 97.0665 4.18416 1.65069 0
M  V30 1055 C 98.3855 2.90867 3.30279 0
M  V30 1056 H 95.5045 0.585031 0.448228 0
M  V30 1057 H 98.1465 1.82402 0.531946 0
M  V30 1058 H 96.2965 2.59667 2.88973 0
M  V30 1059 H 97.9685 4.48322 1.0865 0
M  V30 1060 H 96.2115 4.23177 0.954148 0
M  V30 1061 H 96.8825 4.96381 2.41474 0
M  V30 1062 H 99.3585 3.07623 2.80191 0
M  V30 1063 H 98.2345 3.74566 4.01238 0
M  V30 1064 H 98.4955 2.01021 3.93755 0
M  V30 1065 N 97.5546 -0.734337 1.39446 0
M  V30 1066 C 98.7796 -1.52866 1.40167 0
M  V30 1067 C 99.2046 -1.881 -0.00171513 0
M  V30 1068 O 98.5626 -1.51957 -0.988879 0
M  V30 1069 C 98.6106 -2.79235 2.28167 0
M  V30 1070 O 97.7146 -3.75185 1.71201 0
M  V30 1071 H 97.0556 -0.461618 0.477289 0
M  V30 1072 H 99.5856 -0.905949 1.8345 0
M  V30 1073 H 99.5956 -3.27963 2.42702 0
M  V30 1074 H 98.2706 -2.52923 3.30156 0
M  V30 1075 H 96.8476 -3.33958 1.65912 0
M  V30 1076 N 99.0327 -1.24633 -0.964593 0
M  V30 1077 C 99.9657 -0.984662 -2.05863 0
M  V30 1078 C 100.944 0.0826554 -1.6239 0
M  V30 1079 O 102.128 -0.0549296 -1.8842 0
M  V30 1080 C 99.2547 -0.486529 -3.35187 0
M  V30 1081 C 98.3007 -1.54286 -3.97615 0
M  V30 1082 S 99.1337 -3.12513 -4.34851 0
M  V30 1083 C 100.29 -2.6441 -5.67308 0
M  V30 1084 H 100.523 -1.91104 -2.27743 0
M  V30 1085 H 98.0557 -1.08052 -1.10291 0
M  V30 1086 H 100.014 -0.205757 -4.09984 0
M  V30 1087 H 98.6747 0.419186 -3.1129 0
M  V30 1088 H 97.8677 -1.14481 -4.90826 0
M  V30 1089 H 97.4697 -1.7738 -3.2926 0
M  V30 1090 H 99.7617 -2.07416 -6.44969 0
M  V30 1091 H 100.705 -3.56222 -6.11973 0
M  V30 1092 H 101.113 -2.04734 -5.26065 0
M  V30 1093 N 100.511 1.16574 -1.06058 0
M  V30 1094 C 101.736 1.91493 -0.796562 0
M  V30 1095 C 102.161 1.76773 0.642868 0
M  V30 1096 O 101.519 1.09142 1.44768 0
M  V30 1097 C 101.567 3.40293 -1.19303 0
M  V30 1098 O 100.671 4.11074 -0.330394 0
M  V30 1099 H 100.012 0.596678 -0.291326 0
M  V30 1100 H 102.542 1.47708 -1.41575 0
M  V30 1101 H 102.552 3.91057 -1.16356 0
M  V30 1102 H 101.227 3.50326 -2.24153 0
M  V30 1103 H 99.8038 3.70513 -0.421225 0
M  V30 1104 N 101.989 0.842826 1.3317 0
M  V30 1105 C 102.921 0.236245 2.27979 0
M  V30 1106 C 103.934 -0.585282 1.51915 0
M  V30 1107 O 105.123 -0.411705 1.73687 0
M  V30 1108 C 102.223 -0.685717 3.3189 0
M  V30 1109 C 101.396 0.0973448 4.37292 0
M  V30 1110 C 100.455 -0.748565 5.20848 0
M  V30 1111 O 99.4809 -0.186339 5.68895 0
M  V30 1112 N 100.683 -2.06527 5.42519 0
M  V30 1113 H 103.448 1.05088 2.80672 0
M  V30 1114 H 101.009 0.701667 1.45905 0
M  V30 1115 H 103.001 -1.25669 3.84694 0
M  V30 1116 H 101.571 -1.40105 2.79445 0
M  V30 1117 H 100.791 0.849706 3.84933 0
M  V30 1118 H 102.079 0.635643 5.04814 0
M  V30 1119 H 101.477 -2.54554 5.05192 0
M  V30 1120 H 100.034 -2.58464 5.98364 0
M  V30 1121 N 103.467 -1.45747 0.599634 0
M  V30 1122 C 104.397 -2.33235 -0.111306 0
M  V30 1123 C 105.378 -1.46359 -0.866781 0
M  V30 1124 O 106.563 -1.75146 -0.838904 0
M  V30 1125 C 103.693 -3.28932 -1.11451 0
M  V30 1126 C 102.647 -4.25381 -0.472772 0
M  V30 1127 C 101.973 -5.1071 -1.58365 0
M  V30 1128 C 103.273 -5.18831 0.600948 0
M  V30 1129 H 104.967 -2.92927 0.61919 0
M  V30 1130 H 102.513 -1.40857 0.299215 0
M  V30 1131 H 104.466 -3.89002 -1.62036 0
M  V30 1132 H 103.19 -2.67381 -1.8755 0
M  V30 1133 H 101.849 -3.66598 0.0121472 0
M  V30 1134 H 101.497 -4.45533 -2.33473 0
M  V30 1135 H 101.197 -5.7604 -1.15982 0
M  V30 1136 H 102.721 -5.73647 -2.09194 0
M  V30 1137 H 104.135 -5.73019 0.179491 0
M  V30 1138 H 102.532 -5.92595 0.946076 0
M  V30 1139 H 103.602 -4.6174 1.48068 0
M  V30 1140 N 104.945 -0.338344 -1.53925 0
M  V30 1141 C 106.191 0.260143 -2.01125 0
M  V30 1142 C 106.524 1.50617 -1.22589 0
M  V30 1143 O 105.799 1.91979 -0.312113 0
M  V30 1144 C 106.082 0.579499 -3.55407 0
M  V30 1145 C 105.935 -0.678264 -4.44657 0
M  V30 1146 C 107.254 1.39122 -4.17532 0
M  V30 1147 H 104.373 0.0930772 -0.731099 0
M  V30 1148 H 107.015 -0.457852 -1.84401 0
M  V30 1149 H 105.165 1.19118 -3.69788 0
M  V30 1150 H 106.837 -1.31631 -4.42121 0
M  V30 1151 H 105.08 -1.3042 -4.13731 0
M  V30 1152 H 105.751 -0.410143 -5.50474 0
M  V30 1153 H 108.227 0.874035 -4.06817 0
M  V30 1154 H 107.103 1.58342 -5.25565 0
M  V30 1155 H 107.364 2.39178 -3.71815 0
M  V30 1156 N 106.423 1.57458 -0.0668435 0
M  V30 1157 C 107.37 2.12439 0.902122 0
M  V30 1158 C 108.34 1.03565 1.2986 0
M  V30 1159 O 109.525 1.312 1.38532 0
M  V30 1160 C 106.665 2.6865 2.16614 0
M  V30 1161 C 105.778 3.91663 1.82274 0
M  V30 1162 C 104.913 4.36134 3.0325 0
M  V30 1163 C 103.952 5.51808 2.64904 0
M  V30 1164 N 103.089 5.9126 3.78624 0
M  V30 1165 H 107.929 2.94934 0.426382 0
M  V30 1166 H 105.466 1.4575 0.198819 0
M  V30 1167 H 107.424 2.99346 2.90599 0
M  V30 1168 H 106.054 1.88928 2.61737 0
M  V30 1169 H 105.106 3.6746 0.983719 0
M  V30 1170 H 106.418 4.75693 1.50059 0
M  V30 1171 H 105.572 4.68465 3.85519 0
M  V30 1172 H 104.311 3.50948 3.38655 0
M  V30 1173 H 103.316 5.19133 1.81055 0
M  V30 1174 H 104.541 6.38722 2.30675 0
M  V30 1175 H 102.487 5.09024 4.138 0
M  V30 1176 H 102.404 6.70018 3.5016 0
M  V30 1177 H 103.672 6.28212 4.61486 0
M  V30 1178 N 107.901 -0.206675 1.56239 0
M  V30 1179 C 109.147 -0.930218 1.80208 0
M  V30 1180 C 109.48 -1.83387 0.638981 0
M  V30 1181 O 108.755 -1.91119 -0.361066 0
M  V30 1182 C 109.038 -1.75641 3.1436 0
M  V30 1183 C 108.891 -0.878257 4.41142 0
M  V30 1184 C 110.21 -2.73129 3.45092 0
M  V30 1185 H 107.329 -0.336742 0.655571 0
M  V30 1186 H 109.971 -0.198222 1.88963 0
M  V30 1187 H 108.121 -2.38048 3.07027 0
M  V30 1188 H 109.793 -0.269787 4.6051 0
M  V30 1189 H 108.036 -0.184385 4.33408 0
M  V30 1190 H 108.707 -1.49106 5.3148 0
M  V30 1191 H 111.183 -2.20856 3.52649 0
M  V30 1192 H 110.059 -3.28028 4.40101 0
M  V30 1193 H 110.32 -3.51606 2.68003 0
M  V30 1194 N 109.379 -1.50304 -0.473955 0
M  V30 1195 C 110.656 -1.51667 -1.23518 0
M  V30 1196 C 111.036 -0.259701 -2.09496 0
M  V30 1197 O 110.384 0.756986 -2.15597 0
M  V30 1198 C 110.594 -2.81082 -2.06868 0
M  V30 1199 C 111.942 -3.31631 -2.65153 0
M  V30 1200 O 112.966 -2.82384 -2.17113 0
M  V30 1201 O 111.825 -4.17471 -3.52675 0
M  V30 1202 H 108.919 -0.60822 -0.560355 0
M  V30 1203 H 111.465 -1.62592 -0.486011 0
M  V30 1204 H 110.237 -3.64041 -1.4349 0
M  V30 1205 H 109.86 -2.73146 -2.88924 0
M  V30 1206 N 110.857 0.726932 -1.39834 0
M  V30 1207 C 111.767 1.87131 -1.41489 0
M  V30 1208 C 112.783 1.71239 -0.308757 0
M  V30 1209 O 113.959 1.93701 -0.551529 0
M  V30 1210 C 111.024 3.22811 -1.26468 0
M  V30 1211 C 110.085 3.51039 -2.47124 0
M  V30 1212 C 109.318 4.80245 -2.3281 0
M  V30 1213 O 109.541 5.54537 -1.33585 0
M  V30 1214 O 108.475 5.08554 -3.21957 0
M  V30 1215 H 112.301 1.8869 -2.3797 0
M  V30 1216 H 109.886 0.875837 -1.21035 0
M  V30 1217 H 111.768 4.03877 -1.20255 0
M  V30 1218 H 110.443 3.22005 -0.330862 0
M  V30 1219 H 109.35 2.70027 -2.58914 0
M  V30 1220 H 110.683 3.56632 -3.39227 0
M  V30 1221 N 112.336 1.25143 0.95797 0
M  V30 1222 C 113.582 1.09855 1.70469 0
M  V30 1223 C 113.915 -0.360187 1.90831 0
M  V30 1224 O 113.19 -1.26568 1.47685 0
M  V30 1225 C 113.473 1.8497 3.08963 0
M  V30 1226 C 113.326 3.38652 2.96032 0
M  V30 1227 C 114.645 1.63016 4.08795 0
M  V30 1228 H 111.764 0.400465 0.618706 0
M  V30 1229 H 114.406 1.53933 1.11376 0
M  V30 1230 H 112.556 1.47505 3.59409 0
M  V30 1231 H 114.228 3.85772 2.52938 0
M  V30 1232 H 112.471 3.66534 2.32025 0
M  V30 1233 H 113.142 3.8642 3.94187 0
M  V30 1234 H 115.618 1.95625 3.67247 0
M  V30 1235 H 114.494 2.18015 5.03747 0
M  V30 1236 H 114.755 0.570692 4.38401 0
M  V30 1237 N 113.814 -1.1601 1.06675 0
M  V30 1238 C 114.762 -2.22586 0.675157 0
M  V30 1239 C 115.756 -1.66525 -0.310766 0
M  V30 1240 O 116.962 -1.79145 -0.175215 0
M  V30 1241 H 113.337 -0.724855 0.200223 0
M  V30 1242 H 115.308 -2.52899 1.58381 0
M  V30 1243 C 114.057 -3.47604 0.0817162 0
M  V30 1244 H 113.38 -3.91058 0.831484 0
M  V30 1245 H 114.82 -4.23718 -0.154708 0
M  V30 1246 C 113.279 -3.15718 -1.17576 0
M  V30 1247 O 113.809 -3.31878 -2.26318 0
M  V30 1248 N 112.015 -2.69816 -1.07923 0
M  V30 1249 H 111.562 -2.56866 -0.194293 0
M  V30 1250 H 111.52 -2.48855 -1.92141 0
M  V30 1251 N 115.292 -0.849877 -1.32721 0
M  V30 1252 C 116.224 -0.248332 -2.27851 0
M  V30 1253 C 117.237 0.577218 -1.52224 0
M  V30 1254 O 118.426 0.402489 -1.73903 0
M  V30 1255 C 115.526 0.668107 -3.32249 0
M  V30 1256 C 114.699 -0.120534 -4.37234 0
M  V30 1257 C 113.758 0.720932 -5.21238 0
M  V30 1258 O 112.784 0.156166 -5.68986 0
M  V30 1259 N 113.986 2.03647 -5.43607 0
M  V30 1260 H 116.751 -1.06575 -2.80111 0
M  V30 1261 H 114.312 -0.709395 -1.45531 0
M  V30 1262 H 116.304 1.23627 -3.85355 0
M  V30 1263 H 114.874 1.38621 -2.80184 0
M  V30 1264 H 114.094 -0.870108 -3.84477 0
M  V30 1265 H 115.382 -0.662406 -5.0447 0
M  V30 1266 H 114.78 2.51871 -5.06535 0
M  V30 1267 H 113.337 2.55287 -5.99727 0
M  V30 1268 N 116.77 1.45427 -0.607355 0
M  V30 1269 C 118.019 2.01452 -0.100036 0
M  V30 1270 C 118.332 1.48159 1.27704 0
M  V30 1271 O 119.538 1.96159 1.87707 0
M  V30 1272 C 117.994 3.59672 -0.128158 0
M  V30 1273 C 117.602 4.21962 -1.50507 0
M  V30 1274 C 119.346 4.23262 0.323932 0
M  V30 1275 C 117.253 5.72333 -1.48959 0
M  V30 1276 H 116.183 0.75325 -0.0336299 0
M  V30 1277 H 118.834 1.66901 -0.76265 0
M  V30 1278 H 117.216 3.91411 0.601105 0
M  V30 1279 H 118.39 4.01796 -2.25602 0
M  V30 1280 H 116.705 3.70565 -1.89923 0
M  V30 1281 H 119.302 5.33522 0.354691 0
M  V30 1282 H 119.645 3.93921 1.34656 0
M  V30 1283 H 120.178 3.96239 -0.352056 0
M  V30 1284 H 116.917 6.06373 -2.48981 0
M  V30 1285 H 116.437 5.94691 -0.781214 0
M  V30 1286 H 118.116 6.35525 -1.21313 0
M  V30 1287 N 118.248 0.346503 1.53744 0
M  V30 1288 C 119.181 -0.552023 2.21423 0
M  V30 1289 C 120.159 -1.09798 1.19929 0
M  V30 1290 O 121.343 -1.1577 1.4876 0
M  V30 1291 C 118.47 -1.75972 2.89398 0
M  V30 1292 C 117.516 -1.34295 4.04805 0
M  V30 1293 S 118.349 -0.360263 5.34287 0
M  V30 1294 C 119.505 -1.57473 6.05767 0
M  V30 1295 H 119.738 0.0228119 2.97291 0
M  V30 1296 H 117.271 0.130579 1.53847 0
M  V30 1297 H 119.229 -2.45256 3.2918 0
M  V30 1298 H 117.89 -2.30578 2.1329 0
M  V30 1299 H 117.083 -2.24349 4.51313 0
M  V30 1300 H 116.685 -0.729555 3.66815 0
M  V30 1301 H 118.977 -2.50875 6.29339 0
M  V30 1302 H 119.92 -1.15138 6.98676 0
M  V30 1303 H 120.328 -1.77212 5.35963 0
M  V30 1304 N 119.726 -1.57421 0.075193 0
M  V30 1305 C 120.636 -2.1642 -0.905511 0
M  V30 1306 C 121.652 -1.12828 -1.32461 0
M  V30 1307 O 122.828 -1.45109 -1.39661 0
M  V30 1308 C 119.893 -2.71693 -2.15369 0
M  V30 1309 C 118.954 -3.90171 -1.79068 0
M  V30 1310 C 118.187 -4.42798 -2.97936 0
M  V30 1311 O 118.41 -3.94416 -4.12058 0
M  V30 1312 O 117.344 -5.34085 -2.77555 0
M  V30 1313 H 121.17 -3.00588 -0.433626 0
M  V30 1314 H 118.755 -1.48664 -0.148067 0
M  V30 1315 H 120.637 -3.07104 -2.88557 0
M  V30 1316 H 119.312 -1.90582 -2.61649 0
M  V30 1317 H 118.219 -3.59606 -1.03122 0
M  V30 1318 H 119.552 -4.72584 -1.37569 0
M  V30 1319 N 121.204 0.198386 -1.56346 0
M  V30 1320 C 122.432 0.935572 -1.84539 0
M  V30 1321 C 122.847 1.76989 -0.657281 0
M  V30 1322 O 122.204 1.78626 0.374043 0
M  V30 1323 C 122.255 1.8344 -3.11499 0
M  V30 1324 O 121.976 1.03377 -4.25728 0
M  V30 1325 C 123.477 2.68355 -3.52846 0
M  V30 1326 H 120.697 0.273126 -0.612897 0
M  V30 1327 H 123.241 0.20663 -2.03453 0
M  V30 1328 H 121.396 2.51701 -2.94492 0
M  V30 1329 H 121.81 1.64599 -4.98003 0
M  V30 1330 H 123.284 3.27085 -4.44657 0
M  V30 1331 H 123.761 3.41901 -2.75681 0
M  V30 1332 H 124.367 2.05471 -3.72373 0
M  V30 1333 N 122.682 1.50554 0.465978 0
M  V30 1334 C 123.63 1.70324 1.58406 0
M  V30 1335 C 124.624 0.569139 1.59553 0
M  V30 1336 O 125.83 0.749776 1.63641 0
M  V30 1337 H 122.205 0.537688 0.525734 0
M  V30 1338 H 124.176 2.64104 1.38894 0
M  V30 1339 C 122.925 1.81928 2.96307 0
M  V30 1340 H 122.248 2.68586 2.96144 0
M  V30 1341 H 123.688 1.99784 3.73982 0
M  V30 1342 C 122.147 0.572095 3.32007 0
M  V30 1343 O 122.677 -0.286416 4.00678 0
M  V30 1344 N 120.883 0.424606 2.87481 0
M  V30 1345 H 120.43 1.12427 2.31771 0
M  V30 1346 H 120.388 -0.408697 3.11732 0
M  V30 1347 N 124.16 -0.719506 1.40217 0
M  V30 1348 C 125.09 -1.8465 1.42922 0
M  V30 1349 C 126.071 -1.67599 0.29062 0
M  V30 1350 O 127.256 -1.87688 0.498677 0
M  V30 1351 C 124.386 -3.22565 1.28722 0
M  V30 1352 C 123.34 -3.54281 2.40144 0
M  V30 1353 C 122.666 -4.91298 2.11023 0
M  V30 1354 C 123.966 -3.55676 3.82481 0
M  V30 1355 H 125.66 -1.82644 2.37237 0
M  V30 1356 H 123.206 -0.877305 1.1419 0
M  V30 1357 H 125.159 -4.01095 1.29232 0
M  V30 1358 H 123.883 -3.25137 0.308811 0
M  V30 1359 H 122.542 -2.78088 2.38877 0
M  V30 1360 H 122.19 -4.90468 1.11582 0
M  V30 1361 H 121.89 -5.13485 2.8567 0
M  V30 1362 H 123.414 -5.72166 2.13209 0
M  V30 1363 H 124.828 -4.24254 3.85592 0
M  V30 1364 H 123.225 -3.89388 4.56614 0
M  V30 1365 H 124.295 -2.55144 4.12346 0
M  V30 1366 N 125.638 -1.25649 -0.95132 0
M  V30 1367 C 126.884 -1.11766 -1.69941 0
M  V30 1368 C 127.239 0.33735 -1.89419 0
M  V30 1369 O 126.532 1.24491 -1.45645 0
M  V30 1370 C 126.726 -1.80909 -3.08231 0
M  V30 1371 C 126.555 -3.32984 -3.02245 0
M  V30 1372 C 125.325 -4.02247 -3.05819 0
M  V30 1373 C 127.523 -4.29332 -2.83157 0
M  V30 1374 N 125.505 -5.41072 -2.90024 0
M  V30 1375 C 126.876 -5.55265 -2.75828 0
M  V30 1376 C 128.931 -4.19707 -2.67863 0
M  V30 1377 C 127.634 -6.72671 -2.54767 0
M  V30 1378 C 129.66 -5.36809 -2.48173 0
M  V30 1379 C 129.022 -6.61683 -2.41567 0
M  V30 1380 H 125.121 -0.463708 -0.629682 0
M  V30 1381 H 127.705 -1.58796 -1.12659 0
M  V30 1382 H 125.876 -1.36369 -3.63673 0
M  V30 1383 H 127.608 -1.59739 -3.71841 0
M  V30 1384 H 124.363 -3.53531 -3.15139 0
M  V30 1385 H 124.787 -6.13938 -2.85323 0
M  V30 1386 H 129.429 -3.23907 -2.71743 0
M  V30 1387 H 127.147 -7.68577 -2.49629 0
M  V30 1388 H 130.733 -5.31224 -2.37259 0
M  V30 1389 H 129.613 -7.50768 -2.26531 0
M  V30 1390 N 127.117 1.15442 -1.07289 0
M  V30 1391 C 128.047 2.22312 -0.714107 0
M  V30 1392 C 129.028 1.67467 0.298155 0
M  V30 1393 O 130.213 1.93445 0.171048 0
M  V30 1394 C 127.343 3.47124 -0.110448 0
M  V30 1395 C 126.297 4.14926 -1.04979 0
M  V30 1396 C 125.623 5.33807 -0.308924 0
M  V30 1397 C 126.923 4.64762 -2.38314 0
M  V30 1398 H 128.617 2.5258 -1.6076 0
M  V30 1399 H 126.163 1.21404 -0.77441 0
M  V30 1400 H 128.116 4.21124 0.152482 0
M  V30 1401 H 126.84 3.16187 0.81812 0
M  V30 1402 H 125.499 3.42866 -1.29764 0
M  V30 1403 H 125.147 4.99126 0.623084 0
M  V30 1404 H 124.847 5.80113 -0.935036 0
M  V30 1405 H 126.371 6.10576 -0.0537771 0
M  V30 1406 H 127.785 5.30292 -2.1786 0
M  V30 1407 H 126.182 5.21728 -2.96514 0
M  V30 1408 H 127.252 3.80434 -3.00663 0
M  V30 1409 N 128.595 0.856903 1.32268 0
M  V30 1410 C 129.542 0.301172 2.28827 0
M  V30 1411 C 130.512 -0.593104 1.5515 0
M  V30 1412 O 131.697 -0.527537 1.83362 0
M  V30 1413 C 128.837 -0.502523 3.41422 0
M  V30 1414 C 127.95 0.417797 4.29975 0
M  V30 1415 C 127.085 -0.398749 5.29701 0
M  V30 1416 C 126.124 0.518827 6.09897 0
M  V30 1417 N 125.261 -0.260674 7.01616 0
M  V30 1418 H 130.101 1.12983 2.75751 0
M  V30 1419 H 127.638 0.568582 1.35667 0
M  V30 1420 H 129.596 -0.984141 4.05426 0
M  V30 1421 H 128.226 -1.29599 2.95642 0
M  V30 1422 H 127.278 1.01781 3.66531 0
M  V30 1423 H 128.59 1.12191 4.86019 0
M  V30 1424 H 127.744 -0.943435 5.9932 0
M  V30 1425 H 126.483 -1.13622 4.7428 0
M  V30 1426 H 125.488 1.07538 5.39181 0
M  V30 1427 H 126.713 1.25495 6.67404 0
M  V30 1428 H 124.659 -0.981198 6.4862 0
M  V30 1429 H 124.576 0.384364 7.55022 0
M  V30 1430 H 125.844 -0.787014 7.75517 0
M  V30 1431 N 130.073 -1.45103 0.615059 0
M  V30 1432 C 131.005 -2.28786 -0.13762 0
M  V30 1433 C 132.018 -1.40376 -0.824525 0
M  V30 1434 O 133.207 -1.64681 -0.688662 0
M  V30 1435 C 130.307 -3.16322 -1.21628 0
M  V30 1436 C 129.48 -4.33054 -0.615039 0
M  V30 1437 C 128.539 -5.01743 -1.58556 0
M  V30 1438 O 127.565 -5.58293 -1.10895 0
M  V30 1439 N 128.767 -5.01714 -2.91998 0
M  V30 1440 H 131.532 -2.94025 0.580483 0
M  V30 1441 H 129.093 -1.55373 0.45507 0
M  V30 1442 H 131.085 -3.59139 -1.86552 0
M  V30 1443 H 129.655 -2.52943 -1.83681 0
M  V30 1444 H 128.875 -3.93627 0.21245 0
M  V30 1445 H 130.163 -5.08431 -0.193704 0
M  V30 1446 H 129.561 -4.57075 -3.33316 0
M  V30 1447 H 128.118 -5.48371 -3.52325 0
M  V30 1448 N 131.551 -0.354651 -1.53558 0
M  V30 1449 C 132.8 0.239504 -2.00273 0
M  V30 1450 C 133.113 1.50759 -1.24623 0
M  V30 1451 O 134.319 2.17968 -1.61871 0
M  V30 1452 C 132.775 0.477341 -3.5672 0
M  V30 1453 C 132.383 -0.775488 -4.41237 0
M  V30 1454 C 134.127 1.02975 -4.11821 0
M  V30 1455 C 132.034 -0.507838 -5.89216 0
M  V30 1456 H 130.964 0.0932743 -0.748208 0
M  V30 1457 H 133.615 -0.471701 -1.77334 0
M  V30 1458 H 131.997 1.24953 -3.7577 0
M  V30 1459 H 133.171 -1.54963 -4.33962 0
M  V30 1460 H 131.486 -1.25033 -3.97185 0
M  V30 1461 H 134.083 1.24513 -5.2 0
M  V30 1462 H 134.426 1.98862 -3.65731 0
M  V30 1463 H 134.959 0.317994 -3.96527 0
M  V30 1464 H 131.698 -1.43674 -6.39561 0
M  V30 1465 H 131.218 0.228011 -5.99366 0
M  V30 1466 H 132.897 -0.129238 -6.46871 0
M  V30 1467 N 133.029 1.57378 -0.0835403 0
M  V30 1468 C 134.275 1.95025 0.577664 0
M  V30 1469 C 134.63 0.964049 1.66505 0
M  V30 1470 O 133.923 -0.0118235 1.91596 0
M  V30 1471 C 134.117 3.37063 1.1884 0
M  V30 1472 C 133.946 4.49409 0.16171 0
M  V30 1473 C 132.716 5.04642 -0.257756 0
M  V30 1474 C 134.914 5.10722 -0.605634 0
M  V30 1475 N 132.896 6.00537 -1.27393 0
M  V30 1476 C 134.267 6.02225 -1.47395 0
M  V30 1477 C 136.322 4.93501 -0.660418 0
M  V30 1478 C 135.025 6.78355 -2.39221 0
M  V30 1479 C 137.051 5.70283 -1.56623 0
M  V30 1480 C 136.413 6.61444 -2.4222 0
M  V30 1481 H 132.512 0.760512 0.182058 0
M  V30 1482 H 135.096 1.94013 -0.163419 0
M  V30 1483 H 133.267 3.3879 1.89936 0
M  V30 1484 H 134.999 3.61917 1.81103 0
M  V30 1485 H 131.754 4.73428 0.127702 0
M  V30 1486 H 132.178 6.53184 -1.77987 0
M  V30 1487 H 136.82 4.22798 -0.0128221 0
M  V30 1488 H 134.538 7.48327 -3.05011 0
M  V30 1489 H 138.124 5.58976 -1.61361 0
M  V30 1490 H 137.004 7.1982 -3.11174 0
M  V30 1491 N 134.507 -0.190092 1.56449 0
M  V30 1492 C 135.455 -1.25501 1.95837 0
M  V30 1493 C 136.449 -1.4685 0.844485 0
M  V30 1494 O 137.655 -1.47651 1.02952 0
M  V30 1495 H 134.03 -0.421447 0.622805 0
M  V30 1496 H 136.001 -0.895821 2.84636 0
M  V30 1497 C 134.75 -2.59124 2.31841 0
M  V30 1498 H 134.073 -2.43514 3.17082 0
M  V30 1499 H 135.513 -3.32371 2.6326 0
M  V30 1500 C 133.972 -3.16488 1.15486 0
M  V30 1501 O 134.502 -3.99365 0.432535 0
M  V30 1502 N 132.708 -2.75305 0.930349 0
M  V30 1503 H 132.255 -2.08013 1.51948 0
M  V30 1504 H 132.213 -3.14024 0.153634 0
M  V30 1505 N 135.985 -1.50799 -0.457987 0
M  V30 1506 C 137.262 -1.52968 -1.21902 0
M  V30 1507 C 137.642 -0.281906 -2.09209 0
M  V30 1508 O 136.99 0.734076 -2.16388 0
M  V30 1509 C 137.2 -2.8326 -2.03875 0
M  V30 1510 C 138.548 -3.34425 -2.6162 0
M  V30 1511 O 139.572 -2.8467 -2.14106 0
M  V30 1512 O 138.431 -4.21188 -3.48228 0
M  V30 1513 H 135.525 -0.614129 -0.553873 0
M  V30 1514 H 138.071 -1.63098 -0.468739 0
M  V30 1515 H 136.843 -3.65543 -1.39621 0
M  V30 1516 H 136.466 -2.76195 -2.8601 0
M  V30 1517 N 137.463 0.71206 -1.40597 0
M  V30 1518 C 138.693 1.49894 -1.42181 0
M  V30 1519 C 139.101 1.89189 -0.0208078 0
M  V30 1520 O 138.444 1.56223 0.966436 0
M  V30 1521 C 138.506 2.80215 -2.25211 0
M  V30 1522 C 138.17 2.63221 -3.73582 0
M  V30 1523 C 139.167 2.30249 -4.66135 0
M  V30 1524 C 136.852 2.79376 -4.17438 0
M  V30 1525 C 138.846 2.13645 -6.00529 0
M  V30 1526 C 136.533 2.6239 -5.51901 0
M  V30 1527 C 137.531 2.29573 -6.43262 0
M  V30 1528 O 137.219 2.12719 -7.75246 0
M  V30 1529 H 136.951 0.469031 -0.486812 0
M  V30 1530 H 139.505 0.88564 -1.85326 0
M  V30 1531 H 137.735 3.4389 -1.76852 0
M  V30 1532 H 139.424 3.41947 -2.18694 0
M  V30 1533 H 140.19 2.17398 -4.33547 0
M  V30 1534 H 136.069 3.03906 -3.46644 0
M  V30 1535 H 139.613 1.87953 -6.71803 0
M  V30 1536 H 135.51 2.74826 -5.84073 0
M  V30 1537 H 136.278 2.27611 -7.86216 0
M  V30 1538 N 138.941 1.26152 0.944643 0
M  V30 1539 C 139.888 1.07408 2.04285 0
M  V30 1540 C 140.858 -0.0198413 1.66088 0
M  V30 1541 O 142.043 0.139264 1.90291 0
M  V30 1542 C 139.183 0.70945 3.37729 0
M  V30 1543 C 138.296 1.87926 3.88983 0
M  V30 1544 C 137.431 1.45807 5.10797 0
M  V30 1545 C 136.47 2.5964 5.54305 0
M  V30 1546 N 135.607 2.18226 6.67324 0
M  V30 1547 H 140.447 2.01389 2.1965 0
M  V30 1548 H 137.984 1.00275 1.07626 0
M  V30 1549 H 139.942 0.478948 4.14442 0
M  V30 1550 H 138.572 -0.193389 3.2222 0
M  V30 1551 H 137.624 2.22279 3.08701 0
M  V30 1552 H 138.936 2.73377 4.17213 0
M  V30 1553 H 138.09 1.18781 5.94959 0
M  V30 1554 H 136.829 0.574414 4.84305 0
M  V30 1555 H 135.834 2.87399 4.68702 0
M  V30 1556 H 137.059 3.48599 5.828 0
M  V30 1557 H 135.005 1.3229 6.42523 0
M  V30 1558 H 134.922 2.97221 6.95123 0
M  V30 1559 H 136.19 1.94403 7.54869 0
M  V30 1560 N 140.419 -1.14872 1.07899 0
M  V30 1561 C 141.349 -2.2193 0.725887 0
M  V30 1562 C 142.33 -1.67622 -0.28927 0
M  V30 1563 O 143.515 -1.93533 -0.160787 0
M  V30 1564 C 140.645 -3.47061 0.128856 0
M  V30 1565 C 139.599 -4.14363 1.07178 0
M  V30 1566 C 138.925 -5.33636 0.337229 0
M  V30 1567 C 140.225 -4.63492 2.40775 0
M  V30 1568 H 141.919 -2.51724 1.62097 0
M  V30 1569 H 139.465 -1.20991 0.780838 0
M  V30 1570 H 141.418 -4.21199 -0.130147 0
M  V30 1571 H 140.142 -3.16617 -0.80134 0
M  V30 1572 H 138.801 -3.42173 1.3158 0
M  V30 1573 H 138.449 -4.99449 -0.596606 0
M  V30 1574 H 138.149 -5.79609 0.965788 0
M  V30 1575 H 139.673 -6.10539 0.0861567 0
M  V30 1576 H 141.087 -5.2913 2.20669 0
M  V30 1577 H 139.484 -5.20148 2.99276 0
M  V30 1578 H 140.554 -3.78834 3.02676 0
M  V30 1579 N 141.898 -0.863906 -1.31812 0
M  V30 1580 C 142.845 -0.313303 -2.28664 0
M  V30 1581 C 143.815 0.584868 -1.55462 0
M  V30 1582 O 145 0.517805 -1.83639 0
M  V30 1583 C 142.14 0.48441 -3.41683 0
M  V30 1584 C 141.253 -0.440594 -4.29747 0
M  V30 1585 C 140.388 0.370652 -5.29905 0
M  V30 1586 C 139.427 -0.551164 -6.09613 0
M  V30 1587 N 138.564 0.223462 -7.01744 0
M  V30 1588 H 143.404 -1.14444 -2.75148 0
M  V30 1589 H 140.941 -0.575769 -1.35364 0
M  V30 1590 H 142.899 0.962627 -4.05943 0
M  V30 1591 H 141.529 1.28029 -2.96325 0
M  V30 1592 H 140.581 -1.03724 -3.65986 0
M  V30 1593 H 141.893 -1.14767 -4.85417 0
M  V30 1594 H 141.047 0.911638 -5.99812 0
M  V30 1595 H 139.786 1.11105 -4.74876 0
M  V30 1596 H 138.791 -1.10396 -5.38603 0
M  V30 1597 H 140.016 -1.29032 -6.66729 0
M  V30 1598 H 137.962 0.946787 -6.49132 0
M  V30 1599 H 137.879 -0.424399 -7.54808 0
M  V30 1600 H 139.147 0.745876 -7.75923 0
M  V30 1601 N 143.376 1.44774 -0.622745 0
M  V30 1602 C 144.622 2.02968 -0.13257 0
M  V30 1603 C 144.977 1.48047 1.22881 0
M  V30 1604 O 144.27 0.651625 1.80179 0
M  V30 1605 C 144.464 3.57364 -0.0508323 0
M  V30 1606 C 144.293 4.27262 -1.40275 0
M  V30 1607 C 143.063 4.64577 -1.98737 0
M  V30 1608 C 145.261 4.58248 -2.3348 0
M  V30 1609 N 143.243 5.19404 -3.27251 0
M  V30 1610 C 144.614 5.14069 -3.46603 0
M  V30 1611 C 146.669 4.40195 -2.32664 0
M  V30 1612 C 145.372 5.53738 -4.59093 0
M  V30 1613 C 147.398 4.80907 -3.44213 0
M  V30 1614 C 146.76 5.36834 -4.56058 0
M  V30 1615 H 142.859 0.776541 -0.0922354 0
M  V30 1616 H 145.443 1.76385 -0.82441 0
M  V30 1617 H 143.614 3.83576 0.610265 0
M  V30 1618 H 145.346 4.02219 0.447397 0
M  V30 1619 H 142.101 4.48622 -1.51774 0
M  V30 1620 H 142.525 5.51301 -3.92933 0
M  V30 1621 H 147.167 3.96257 -1.47446 0
M  V30 1622 H 144.885 5.96635 -5.45025 0
M  V30 1623 H 148.471 4.68659 -3.44747 0
M  V30 1624 H 147.351 5.67755 -5.40947 0
M  V30 1625 N 144.854 0.36279 1.53368 0
M  V30 1626 C 145.802 -0.500155 2.27159 0
M  V30 1627 C 146.796 -1.08575 1.3003 0
M  V30 1628 O 148.002 -1.02927 1.47668 0
M  V30 1629 H 144.377 -0.180009 0.730138 0
M  V30 1630 H 146.348 0.14401 2.98052 0
M  V30 1631 C 145.097 -1.62937 3.07159 0
M  V30 1632 H 144.42 -1.18806 3.8174 0
M  V30 1633 H 145.86 -2.20795 3.61975 0
M  V30 1634 C 144.319 -2.57007 2.17829 0
M  V30 1635 O 144.849 -3.59752 1.78721 0
M  V30 1636 N 143.055 -2.26131 1.82518 0
M  V30 1637 H 142.602 -1.42616 2.14519 0
M  V30 1638 H 142.56 -2.89327 1.23034 0
M  V30 1639 N 146.332 -1.57332 0.0918853 0
M  V30 1640 C 147.743 -1.81496 -0.437739 0
M  V30 1641 C 148.094 -1.00727 -1.6837 0
M  V30 1642 O 147.219 -0.235694 -2.15113 0
M  V30 1643 C 147.814 -3.29197 -0.800939 0
M  V30 1644 C 146.373 -3.54136 -1.27532 0
M  V30 1645 C 145.52 -2.75979 -0.270392 0
M  V30 1646 H 148.471 -1.55494 0.317366 0
M  V30 1647 H 148.492 -3.42344 -1.66074 0
M  V30 1648 H 148.004 -3.87955 0.106078 0
M  V30 1649 H 146.105 -3.00705 -2.20016 0
M  V30 1650 H 146.218 -4.62792 -1.23938 0
M  V30 1651 H 144.582 -2.43349 -0.751872 0
M  V30 1652 H 145.365 -3.37484 0.629248 0
M  V30 1653 N 147.81 0.181792 -1.56548 0
M  V30 1654 C 149.035 0.920019 -1.85877 0
M  V30 1655 C 149.46 1.75494 -0.677021 0
M  V30 1656 O 148.818 1.77399 0.374056 0
M  V30 1657 C 148.866 1.78112 -3.13542 0
M  V30 1658 O 147.97 2.88152 -2.95029 0
M  V30 1659 H 147.311 0.258334 -0.611686 0
M  V30 1660 H 149.841 0.183092 -2.03779 0
M  V30 1661 H 149.851 2.18314 -3.44678 0
M  V30 1662 H 148.526 1.16777 -3.99169 0
M  V30 1663 H 147.103 2.51609 -2.75222 0
M  V30 1664 N 149.288 1.51039 0.449983 0
M  V30 1665 C 150.565 1.53612 1.21089 0
M  V30 1666 C 150.945 0.292997 2.09057 0
M  V30 1667 O 150.293 -0.72259 2.16774 0
M  V30 1668 C 150.503 2.84337 2.0237 0
M  V30 1669 C 151.851 3.35807 2.59843 0
M  V30 1670 O 152.875 2.85802 2.12593 0
M  V30 1671 O 151.734 4.23029 3.45989 0
M  V30 1672 H 148.828 0.617057 0.550608 0
M  V30 1673 H 151.374 1.63344 0.460082 0
M  V30 1674 H 150.146 3.66278 1.37681 0
M  V30 1675 H 149.769 2.77708 2.84542 0
M  V30 1676 N 150.766 -0.704594 1.40972 0
M  V30 1677 C 151.996 -1.49138 1.42974 0
M  V30 1678 C 152.404 -1.89175 0.0308406 0
M  V30 1679 O 151.747 -1.56734 -0.958138 0
M  V30 1680 C 151.809 -2.79016 2.26694 0
M  V30 1681 C 151.473 -2.61236 3.74973 0
M  V30 1682 C 152.47 -2.27773 4.67349 0
M  V30 1683 C 150.155 -2.77158 4.18914 0
M  V30 1684 C 152.149 -2.10457 6.01653 0
M  V30 1685 C 149.836 -2.59459 5.53285 0
M  V30 1686 C 150.834 -2.26158 6.4447 0
M  V30 1687 O 150.522 -2.08605 7.76363 0
M  V30 1688 H 150.254 -0.466443 0.489292 0
M  V30 1689 H 152.808 -0.8758 1.85793 0
M  V30 1690 H 151.038 -3.42947 1.78673 0
M  V30 1691 H 152.727 -3.40782 2.20504 0
M  V30 1692 H 153.493 -2.15095 4.34694 0
M  V30 1693 H 149.372 -3.02064 3.48251 0
M  V30 1694 H 152.916 -1.84387 6.72791 0
M  V30 1695 H 148.813 -2.71725 5.85522 0
M  V30 1696 H 149.581 -2.23439 7.87412 0
M  V30 1697 N 152.244 -1.26651 -0.937939 0
M  V30 1698 C 153.492 -1.12165 -1.68118 0
M  V30 1699 C 153.813 0.334983 -1.92101 0
M  V30 1700 O 153.083 1.23583 -1.52 0
M  V30 1701 H 151.663 -0.412093 -0.623048 0
M  V30 1702 H 154.325 -1.59027 -1.12678 0
M  V30 1703 H 153.421 -1.64289 -2.6536 0
M  V30 1704 N 153.722 1.14298 -1.08507 0
M  V30 1705 C 154.97 1.84993 -0.813763 0
M  V30 1706 C 155.291 1.83405 0.662393 0
M  V30 1707 O 154.561 1.28319 1.48024 0
M  V30 1708 H 153.141 0.684966 -0.298045 0
M  V30 1709 H 155.803 1.385 -1.37126 0
M  V30 1710 H 154.899 2.89788 -1.15884 0
M  V30 1711 N 155.201 0.870884 1.31352 0
M  V30 1712 C 156.164 0.332243 2.26779 0
M  V30 1713 C 157.164 -0.517302 1.52252 0
M  V30 1714 O 158.354 -0.326477 1.71113 0
M  V30 1715 C 155.486 -0.528066 3.36785 0
M  V30 1716 H 156.679 1.17469 2.75937 0
M  V30 1717 H 154.232 0.64655 1.423 0
M  V30 1718 H 154.967 -1.39167 2.92922 0
M  V30 1719 H 154.752 0.0802582 3.92018 0
M  V30 1720 H 156.242 -0.897179 4.07849 0
M  V30 1721 N 156.679 -1.44442 0.630414 0
M  V30 1722 C 157.589 -2.34476 -0.0761693 0
M  V30 1723 C 158.605 -1.52576 -0.836449 0
M  V30 1724 O 159.781 -1.85307 -0.788874 0
M  V30 1725 C 156.846 -3.30545 -1.04599 0
M  V30 1726 C 155.907 -4.28352 -0.28516 0
M  V30 1727 C 155.14 -5.19831 -1.20878 0
M  V30 1728 O 155.363 -5.15223 -2.44747 0
M  V30 1729 O 154.297 -5.97892 -0.693491 0
M  V30 1730 H 158.123 -2.96345 0.664324 0
M  V30 1731 H 155.708 -1.44203 0.39061 0
M  V30 1732 H 157.59 -3.89681 -1.60396 0
M  V30 1733 H 156.265 -2.7121 -1.76711 0
M  V30 1734 H 155.172 -3.72764 0.315837 0
M  V30 1735 H 156.505 -4.90605 0.395924 0
M  V30 1736 N 158.157 -0.370918 -1.53173 0
M  V30 1737 C 159.404 0.217102 -2.01333 0
M  V30 1738 C 159.732 1.48338 -1.25802 0
M  V30 1739 O 158.987 1.92698 -0.34146 0
M  V30 1740 C 159.286 0.549696 -3.53147 0
M  V30 1741 C 158.952 -0.622872 -4.46577 0
M  V30 1742 C 157.614 -0.944595 -4.71838 0
M  V30 1743 C 159.966 -1.40819 -5.01816 0
M  V30 1744 C 157.294 -2.05351 -5.49589 0
M  V30 1745 C 159.646 -2.50757 -5.80778 0
M  V30 1746 C 158.31 -2.83458 -6.04324 0
M  V30 1747 H 157.58 0.0794431 -0.736729 0
M  V30 1748 H 160.227 -0.504481 -1.84736 0
M  V30 1749 H 158.532 1.35237 -3.6772 0
M  V30 1750 H 160.229 1.017 -3.87889 0
M  V30 1751 H 156.819 -0.36209 -4.27068 0
M  V30 1752 H 161.003 -1.17289 -4.82242 0
M  V30 1753 H 156.259 -2.3108 -5.6605 0
M  V30 1754 H 160.433 -3.12022 -6.22588 0
M  V30 1755 H 158.06 -3.69508 -6.64355 0
M  V30 1756 N 159.635 1.57281 -0.100228 0
M  V30 1757 C 160.568 2.09976 0.893612 0
M  V30 1758 C 161.546 1.01155 1.27304 0
M  V30 1759 O 162.73 1.28687 1.37739 0
M  V30 1760 C 159.857 2.58098 2.19324 0
M  V30 1761 C 158.903 3.78626 1.96328 0
M  V30 1762 S 159.736 5.21959 1.19662 0
M  V30 1763 C 160.892 5.73435 2.50844 0
M  V30 1764 H 161.125 2.93946 0.44534 0
M  V30 1765 H 158.658 1.53985 0.113167 0
M  V30 1766 H 160.616 2.8648 2.94005 0
M  V30 1767 H 159.277 1.74344 2.61272 0
M  V30 1768 H 158.47 4.10382 2.92579 0
M  V30 1769 H 158.072 3.50763 1.29775 0
M  V30 1770 H 160.364 5.82015 3.46792 0
M  V30 1771 H 161.307 6.7185 2.23659 0
M  V30 1772 H 161.715 5.01395 2.59352 0
M  V30 1773 N 161.113 -0.173488 1.56642 0
M  V30 1774 C 162.529 -0.525174 1.50712 0
M  V30 1775 C 162.729 -1.8476 0.804107 0
M  V30 1776 O 161.785 -2.49869 0.363574 0
M  V30 1777 C 163.098 -0.559937 2.95441 0
M  V30 1778 C 164.646 -0.647288 3.06234 0
M  V30 1779 C 165.121 -0.712963 4.52417 0
M  V30 1780 N 166.612 -0.775911 4.56655 0
M  V30 1781 C 167.347 -0.847264 5.67106 0
M  V30 1782 N 166.843 -0.879585 6.87194 0
M  V30 1783 N 168.636 -0.886117 5.55071 0
M  V30 1784 H 160.787 0.693681 2.00753 0
M  V30 1785 H 163.05 0.249841 0.914485 0
M  V30 1786 H 162.756 0.343049 3.50023 0
M  V30 1787 H 162.63 -1.40718 3.49969 0
M  V30 1788 H 165.017 -1.5407 2.51687 0
M  V30 1789 H 165.098 0.226586 2.54794 0
M  V30 1790 H 164.742 0.176183 5.07594 0
M  V30 1791 H 164.672 -1.60295 5.0161 0
M  V30 1792 H 167.163 -0.759304 3.70193 0
M  V30 1793 H 167.476 -0.935144 7.67121 0
M  V30 1794 H 165.821 -0.847898 6.89808 0
M  V30 1795 H 169.012 -0.857853 4.60172 0
M  V30 1796 H 169.185 -0.938263 6.41171 0
M  V30 1797 N 162.591 -1.51276 -0.441967 0
M  V30 1798 C 163.837 -1.63958 -1.19355 0
M  V30 1799 C 164.17 -0.352543 -1.90973 0
M  V30 1800 O 163.445 0.647627 -1.83401 0
M  V30 1801 C 163.728 -2.83979 -2.21422 0
M  V30 1802 C 163.581 -4.22646 -1.53918 0
M  V30 1803 C 164.9 -2.99521 -3.22451 0
M  V30 1804 H 162.019 -0.596709 -0.432559 0
M  V30 1805 H 164.661 -1.83748 -0.483398 0
M  V30 1806 H 162.811 -2.67237 -2.81987 0
M  V30 1807 H 164.483 -4.51045 -0.967256 0
M  V30 1808 H 162.726 -4.25558 -0.841615 0
M  V30 1809 H 163.397 -5.02609 -2.28229 0
M  V30 1810 H 165.873 -3.14944 -2.71937 0
M  V30 1811 H 164.749 -3.85072 -3.91166 0
M  V30 1812 H 165.01 -2.11391 -3.88287 0
M  V30 1813 N 164.069 0.697108 -1.41344 0
M  V30 1814 C 165.48 1.27697 -1.36199 0
M  V30 1815 C 165.831 1.9615 -0.0443463 0
M  V30 1816 O 164.956 1.98689 0.857419 0
M  V30 1817 C 165.551 2.32223 -2.46694 0
M  V30 1818 C 164.11 2.8579 -2.44952 0
M  V30 1819 C 163.257 1.59807 -2.26621 0
M  V30 1820 H 166.208 0.491968 -1.50882 0
M  V30 1821 H 166.229 3.1348 -2.15664 0
M  V30 1822 H 165.741 1.82373 -3.42581 0
M  V30 1823 H 163.842 3.3982 -1.52817 0
M  V30 1824 H 163.955 3.36325 -3.41207 0
M  V30 1825 H 162.319 1.8556 -1.7447 0
M  V30 1826 H 163.102 1.11956 -3.24532 0
M  V30 1827 N 165.547 1.27147 0.931209 0
M  V30 1828 C 166.51 1.09615 2.01289 0
M  V30 1829 C 167.51 0.0412581 1.60747 0
M  V30 1830 O 168.7 0.285545 1.71844 0
M  V30 1831 C 165.832 0.669447 3.34262 0
M  V30 1832 H 167.025 2.05662 2.18273 0
M  V30 1833 H 164.578 1.09885 1.11153 0
M  V30 1834 H 165.313 -0.292572 3.22978 0
M  V30 1835 H 165.098 1.43127 3.65044 0
M  V30 1836 H 166.588 0.568921 4.13706 0
M  V30 1837 N 167.025 -1.13721 1.09112 0
M  V30 1838 C 167.957 -2.1871 0.685467 0
M  V30 1839 C 168.97 -1.60527 -0.271068 0
M  V30 1840 O 170.159 -1.78407 -0.0576148 0
M  V30 1841 C 167.259 -3.38898 -0.0111255 0
M  V30 1842 C 166.432 -4.26597 0.966131 0
M  V30 1843 C 165.491 -5.25324 0.303539 0
M  V30 1844 O 164.517 -5.61213 0.950177 0
M  V30 1845 N 165.719 -5.72779 -0.943651 0
M  V30 1846 H 168.484 -2.54126 1.58871 0
M  V30 1847 H 166.045 -1.29012 0.978143 0
M  V30 1848 H 168.037 -4.02014 -0.465517 0
M  V30 1849 H 166.607 -3.01747 -0.816565 0
M  V30 1850 H 165.827 -3.60306 1.59917 0
M  V30 1851 H 167.115 -4.82048 1.6281 0
M  V30 1852 H 166.513 -5.45762 -1.48862 0
M  V30 1853 H 165.07 -6.37847 -1.34142 0
M  V30 1854 N 168.503 -0.877838 -1.30888 0
M  V30 1855 C 169.45 -0.337538 -2.28318 0
M  V30 1856 C 170.42 0.568346 -1.56074 0
M  V30 1857 O 171.605 0.498298 -1.84178 0
M  V30 1858 C 168.745 0.448142 -3.42178 0
M  V30 1859 C 167.858 -0.48615 -4.29256 0
M  V30 1860 C 166.993 0.314427 -5.30269 0
M  V30 1861 C 166.032 -0.615791 -6.08995 0
M  V30 1862 N 165.169 0.14902 -7.01942 0
M  V30 1863 H 170.009 -1.17356 -2.73919 0
M  V30 1864 H 167.546 -0.590094 -1.34745 0
M  V30 1865 H 169.504 0.919517 -4.06941 0
M  V30 1866 H 168.134 1.24879 -2.97666 0
M  V30 1867 H 167.186 -1.076 -3.64865 0
M  V30 1868 H 168.498 -1.19909 -4.84173 0
M  V30 1869 H 167.652 0.847969 -6.00745 0
M  V30 1870 H 166.391 1.06062 -4.76027 0
M  V30 1871 H 165.396 -1.16102 -5.37401 0
M  V30 1872 H 166.621 -1.36097 -6.65323 0
M  V30 1873 H 164.567 0.877884 -6.50099 0
M  V30 1874 H 164.484 -0.504433 -7.54315 0
M  V30 1875 H 165.752 0.663537 -7.76671 0
M  V30 1876 N 169.982 1.44106 -0.638065 0
M  V30 1877 C 171.231 2.01194 -0.142744 0
M  V30 1878 C 171.544 1.50835 1.24532 0
M  V30 1879 O 172.75 2.00096 1.83504 0
M  V30 1880 C 171.206 3.59319 -0.20442 0
M  V30 1881 C 170.814 4.18674 -1.59423 0
M  V30 1882 C 172.558 4.23854 0.234079 0
M  V30 1883 C 170.465 5.69045 -1.61065 0
M  V30 1884 H 169.395 0.752367 -0.0495998 0
M  V30 1885 H 172.046 1.65246 -0.797881 0
M  V30 1886 H 170.428 3.92598 0.517946 0
M  V30 1887 H 171.602 3.96921 -2.34074 0
M  V30 1888 H 169.917 3.66453 -1.97741 0
M  V30 1889 H 172.514 5.34155 0.241443 0
M  V30 1890 H 172.857 3.96688 1.2627 0
M  V30 1891 H 173.39 3.95403 -0.436025 0
M  V30 1892 H 170.129 6.00956 -2.61787 0
M  V30 1893 H 169.649 5.929 -0.90718 0
M  V30 1894 H 171.328 6.32809 -1.34766 0
M  V30 1895 N 171.46 0.379036 1.52974 0
M  V30 1896 C 172.706 -0.199244 2.02422 0
M  V30 1897 C 173.061 -1.4532 1.26095 0
M  V30 1898 O 172.354 -1.88377 0.34996 0
M  V30 1899 C 172.548 -0.53096 3.53434 0
M  V30 1900 C 172.377 0.689298 4.44386 0
M  V30 1901 C 171.147 1.20546 4.9071 0
M  V30 1902 C 173.345 1.55856 4.90116 0
M  V30 1903 N 171.327 2.38434 5.65705 0
M  V30 1904 C 172.698 2.58396 5.63588 0
M  V30 1905 C 174.753 1.57986 4.7217 0
M  V30 1906 C 173.456 3.62939 6.21022 0
M  V30 1907 C 175.482 2.6143 5.30479 0
M  V30 1908 C 174.844 3.62693 6.03849 0
M  V30 1909 H 170.943 -0.0352671 0.781204 0
M  V30 1910 H 173.527 0.526614 1.87443 0
M  V30 1911 H 171.698 -1.22588 3.68547 0
M  V30 1912 H 173.43 -1.0955 3.89591 0
M  V30 1913 H 170.185 0.768022 4.67331 0
M  V30 1914 H 170.609 2.98055 6.07859 0
M  V30 1915 H 175.251 0.810475 4.14959 0
M  V30 1916 H 172.969 4.40751 6.77321 0
M  V30 1917 H 176.555 2.63949 5.18481 0
M  V30 1918 H 175.435 4.41424 6.48163 0
M  V30 1919 N 172.938 -1.57226 0.108567 0
M  V30 1920 C 173.885 -2.14756 -0.845481 0
M  V30 1921 C 174.855 -1.06971 -1.27068 0
M  V30 1922 O 176.04 -1.34827 -1.35005 0
M  V30 1923 C 173.18 -2.74298 -2.09415 0
M  V30 1924 C 172.293 -3.96358 -1.71826 0
M  V30 1925 C 171.428 -4.44021 -2.9158 0
M  V30 1926 C 170.467 -5.58637 -2.50181 0
M  V30 1927 N 169.604 -6.01091 -3.62814 0
M  V30 1928 H 174.444 -2.95961 -0.348035 0
M  V30 1929 H 171.981 -1.46226 -0.160106 0
M  V30 1930 H 173.939 -3.06945 -2.82561 0
M  V30 1931 H 172.569 -1.95801 -2.56636 0
M  V30 1932 H 171.621 -3.69939 -0.885947 0
M  V30 1933 H 172.933 -4.79504 -1.37394 0
M  V30 1934 H 172.087 -4.78522 -3.72963 0
M  V30 1935 H 170.826 -3.59803 -3.29231 0
M  V30 1936 H 169.831 -5.23751 -1.67228 0
M  V30 1937 H 171.056 -6.44613 -2.13659 0
M  V30 1938 H 169.002 -5.19817 -4.00158 0
M  V30 1939 H 168.919 -6.79066 -3.32273 0
M  V30 1940 H 170.187 -6.40227 -4.44668 0
M  V30 1941 N 174.416 0.165178 -1.56732 0
M  V30 1942 C 175.827 0.727046 -1.71962 0
M  V30 1943 C 176.178 1.82508 -0.720078 0
M  V30 1944 O 175.303 2.16082 0.117242 0
M  V30 1945 C 175.898 1.32559 -3.11791 0
M  V30 1946 C 174.457 1.83422 -3.28684 0
M  V30 1947 C 173.604 0.715567 -2.67908 0
M  V30 1948 H 176.555 -0.0602896 -1.58585 0
M  V30 1949 H 176.576 2.19533 -3.10782 0
M  V30 1950 H 176.088 0.526195 -3.84516 0
M  V30 1951 H 174.189 2.65986 -2.60926 0
M  V30 1952 H 174.302 1.97543 -4.36478 0
M  V30 1953 H 172.666 1.13758 -2.27884 0
M  V30 1954 H 173.449 -0.0720836 -3.43224 0
M  V30 1955 N 175.894 1.51508 0.433938 0
M  V30 1956 C 177.171 1.54888 1.19453 0
M  V30 1957 C 177.551 0.315154 2.08734 0
M  V30 1958 O 176.899 -0.699558 2.17528 0
M  V30 1959 C 177.109 2.86467 1.99342 0
M  V30 1960 C 178.457 3.38545 2.56267 0
M  V30 1961 O 179.481 2.88041 2.0955 0
M  V30 1962 O 178.34 4.26675 3.41483 0
M  V30 1963 H 175.434 0.622863 0.544032 0
M  V30 1964 H 177.98 1.63823 0.442732 0
M  V30 1965 H 176.752 3.67718 1.33788 0
M  V30 1966 H 176.375 2.8071 2.8158 0
M  V30 1967 N 177.372 -0.689602 1.41712 0
M  V30 1968 C 178.621 -1.44534 1.40686 0
M  V30 1969 C 178.934 -1.95588 0.0213352 0
M  V30 1970 O 180.14 -2.71271 -0.111534 0
M  V30 1971 C 178.596 -2.61387 2.47396 0
M  V30 1972 C 178.204 -2.17094 3.91885 0
M  V30 1973 C 179.948 -3.38986 2.55517 0
M  V30 1974 C 177.855 -3.3094 4.90135 0
M  V30 1975 H 176.785 -0.542925 0.52321 0
M  V30 1976 H 179.436 -0.748054 1.6756 0
M  V30 1977 H 177.818 -3.33412 2.13664 0
M  V30 1978 H 178.992 -1.52318 4.34897 0
M  V30 1979 H 177.307 -1.52473 3.8748 0
M  V30 1980 H 179.904 -4.23747 3.26102 0
M  V30 1981 H 180.247 -3.84578 1.59391 0
M  V30 1982 H 180.78 -2.74021 2.8837 0
M  V30 1983 H 177.519 -2.90355 5.87685 0
M  V30 1984 H 177.039 -3.94546 4.51767 0
M  V30 1985 H 178.718 -3.9663 5.11169 0
M  V30 1986 N 178.85 -1.27639 -0.924453 0
M  V30 1987 C 180.096 -1.14336 -1.67497 0
M  V30 1988 C 180.429 0.309465 -1.91718 0
M  V30 1989 O 179.704 1.22608 -1.50989 0
M  V30 1990 C 179.987 -1.93096 -3.0395 0
M  V30 1991 C 179.84 -3.46381 -2.8695 0
M  V30 1992 C 181.159 -1.73798 -4.0433 0
M  V30 1993 H 178.278 -0.416728 -0.607871 0
M  V30 1994 H 180.92 -1.56832 -1.07256 0
M  V30 1995 H 179.07 -1.56982 -3.55372 0
M  V30 1996 H 180.742 -3.92343 -2.42621 0
M  V30 1997 H 178.985 -3.72557 -2.22225 0
M  V30 1998 H 179.656 -3.96735 -3.83804 0
M  V30 1999 H 182.132 -2.05293 -3.61931 0
M  V30 2000 H 181.008 -2.31294 -4.97789 0
M  V30 2001 H 181.269 -0.686725 -4.36734 0
M  V30 2002 N 180.328 1.1314 -1.09713 0
M  V30 2003 C 181.258 2.20748 -0.761102 0
M  V30 2004 C 182.239 1.68061 0.262566 0
M  V30 2005 O 183.424 1.93765 0.129977 0
M  V30 2006 C 180.554 3.46812 -0.184054 0
M  V30 2007 C 179.508 4.12606 -1.13757 0
M  V30 2008 C 178.834 5.33031 -0.422083 0
M  V30 2009 C 180.134 4.59603 -2.48118 0
M  V30 2010 H 181.828 2.49113 -1.66082 0
M  V30 2011 H 179.374 1.19734 -0.799987 0
M  V30 2012 H 181.327 4.21353 0.0631215 0
M  V30 2013 H 180.051 3.17851 0.750868 0
M  V30 2014 H 178.71 3.40036 -1.37007 0
M  V30 2015 H 178.358 5.00335 0.517072 0
M  V30 2016 H 178.058 5.77999 -1.05788 0
M  V30 2017 H 179.582 6.10325 -0.183277 0
M  V30 2018 H 180.996 5.25552 -2.29059 0
M  V30 2019 H 179.393 5.15321 -3.07514 0
M  V30 2020 H 180.463 3.73971 -3.08665 0
M  V30 2021 N 181.806 0.884767 1.30421 0
M  V30 2022 C 183.036 0.517293 2.00019 0
M  V30 2023 C 183.444 -0.898632 1.66497 0
M  V30 2024 O 182.787 -1.60245 0.898181 0
M  V30 2025 C 182.849 0.612025 3.54252 0
M  V30 2026 C 182.513 1.99222 4.1129 0
M  V30 2027 C 183.51 2.9616 4.273 0
M  V30 2028 C 181.195 2.29755 4.46674 0
M  V30 2029 C 183.189 4.21764 4.77906 0
M  V30 2030 C 180.876 3.55606 4.96979 0
M  V30 2031 C 181.874 4.51425 5.12547 0
M  V30 2032 O 181.562 5.75043 5.61766 0
M  V30 2033 H 181.294 0.198529 0.64619 0
M  V30 2034 H 183.848 1.1919 1.67281 0
M  V30 2035 H 182.078 -0.119561 3.86515 0
M  V30 2036 H 183.767 0.255859 4.05093 0
M  V30 2037 H 184.533 2.73882 4.00267 0
M  V30 2038 H 180.412 1.55942 4.33824 0
M  V30 2039 H 183.956 4.96561 4.89972 0
M  V30 2040 H 179.853 3.7772 5.23448 0
M  V30 2041 H 180.621 5.77422 5.80109 0
M  V30 2042 N 183.284 -1.43765 0.645699 0
M  V30 2043 C 184.232 -2.32516 -0.0624849 0
M  V30 2044 C 185.226 -1.48183 -0.820855 0
M  V30 2045 O 186.432 -1.64439 -0.732106 0
M  V30 2046 H 182.807 -0.750989 -0.0389864 0
M  V30 2047 H 184.778 -2.89979 0.703892 0
M  V30 2048 C 183.527 -3.32389 -1.02044 0
M  V30 2049 H 182.85 -3.97301 -0.446312 0
M  V30 2050 H 184.29 -3.97138 -1.48517 0
M  V30 2051 C 182.749 -2.62416 -2.11281 0
M  V30 2052 O 183.279 -2.434 -3.19561 0
M  V30 2053 N 181.485 -2.21913 -1.87624 0
M  V30 2054 H 181.032 -2.37578 -0.995703 0
M  V30 2055 H 180.99 -1.75424 -2.6091 0
M  V30 2056 N 184.763 -0.387143 -1.52771 0
M  V30 2057 C 185.711 0.463953 -2.27926 0
M  V30 2058 C 186.705 1.06493 -1.31741 0
M  V30 2059 O 187.911 1.00565 -1.49287 0
M  V30 2060 H 184.286 0.16837 -0.732909 0
M  V30 2061 H 186.257 -0.19141 -2.97785 0
M  V30 2062 C 185.006 1.5803 -3.09713 0
M  V30 2063 H 184.329 1.12718 -3.83581 0
M  V30 2064 H 185.769 2.15008 -3.65442 0
M  V30 2065 C 184.228 2.53509 -2.2189 0
M  V30 2066 O 184.758 3.56863 -1.84422 0
M  V30 2067 N 182.964 2.23199 -1.86093 0
M  V30 2068 H 182.511 1.39185 -2.16761 0
M  V30 2069 H 182.469 2.87333 -1.27621 0
M  V30 2070 N 186.241 1.57166 -0.116904 0
M  V30 2071 C 187.204 2.14039 0.819742 0
M  V30 2072 C 188.204 1.07477 1.19605 0
M  V30 2073 O 189.394 1.33263 1.1219 0
M  V30 2074 C 186.526 2.67891 2.10826 0
M  V30 2075 H 187.719 2.98128 0.325511 0
M  V30 2076 H 185.272 1.55739 0.132312 0
M  V30 2077 H 186.007 1.87384 2.64685 0
M  V30 2078 H 185.792 3.45823 1.84793 0
M  V30 2079 H 187.282 3.11809 2.77785 0
M  V30 2080 N 187.719 -0.156864 1.56817 0
M  V30 2081 C 188.965 -0.872416 1.83076 0
M  V30 2082 C 189.298 -1.81261 0.697001 0
M  V30 2083 O 188.573 -1.92171 -0.30008 0
M  V30 2084 C 188.856 -1.65551 3.19789 0
M  V30 2085 C 188.709 -0.737467 4.43713 0
M  V30 2086 C 190.028 -2.62012 3.53606 0
M  V30 2087 H 187.147 -0.315715 0.665953 0
M  V30 2088 H 189.789 -0.138004 1.89498 0
M  V30 2089 H 187.939 -2.28159 3.14445 0
M  V30 2090 H 189.611 -0.123143 4.61136 0
M  V30 2091 H 187.854 -0.0464067 4.33775 0
M  V30 2092 H 188.525 -1.32122 5.35955 0
M  V30 2093 H 191.001 -2.09525 3.59497 0
M  V30 2094 H 189.877 -3.13861 4.50314 0
M  V30 2095 H 190.138 -3.42902 2.79053 0
M  V30 2096 N 189.197 -1.51736 -0.425897 0
M  V30 2097 C 190.445 -1.64644 -1.17204 0
M  V30 2098 C 190.766 -0.370486 -1.91448 0
M  V30 2099 O 190.036 0.614088 -1.86026 0
M  V30 2100 H 188.616 -0.606819 -0.435638 0
M  V30 2101 H 191.278 -1.88713 -0.487177 0
M  V30 2102 H 190.374 -2.47958 -1.89534 0
M  V30 2103 N 190.675 0.682077 -1.42076 0
M  V30 2104 C 191.952 1.43755 -1.32642 0
M  V30 2105 C 192.332 2.11063 0.0396611 0
M  V30 2106 O 191.68 2.02701 1.05474 0
M  V30 2107 C 191.89 2.44596 -2.48946 0
M  V30 2108 C 193.238 3.09454 -2.9073 0
M  V30 2109 O 194.262 2.54922 -2.48783 0
M  V30 2110 O 193.121 4.08253 -3.63307 0
M  V30 2111 H 190.215 0.640857 -0.522715 0
M  V30 2112 H 192.761 0.711415 -1.54068 0
M  V30 2113 H 191.533 1.93609 -3.40046 0
M  V30 2114 H 191.156 3.24701 -2.29467 0
M  V30 2115 N 192.153 1.28127 0.917671 0
M  V30 2116 C 193.4 1.15052 1.66641 0
M  V30 2117 C 193.728 -0.301677 1.92146 0
M  V30 2118 O 192.983 -1.23622 1.51711 0
M  V30 2119 C 193.282 1.89018 3.03327 0
M  V30 2120 C 192.948 3.38832 2.97496 0
M  V30 2121 C 191.61 3.79693 2.95613 0
M  V30 2122 C 193.962 4.34378 2.88036 0
M  V30 2123 C 191.29 5.14447 2.82066 0
M  V30 2124 C 193.642 5.69201 2.7603 0
M  V30 2125 C 192.306 6.09343 2.72502 0
M  V30 2126 H 191.576 0.421006 0.609783 0
M  V30 2127 H 194.223 1.58855 1.06945 0
M  V30 2128 H 192.528 1.37752 3.66785 0
M  V30 2129 H 194.225 1.76321 3.60156 0
M  V30 2130 H 190.815 3.06342 2.99754 0
M  V30 2131 H 194.999 4.03775 2.88581 0
M  V30 2132 H 190.255 5.44681 2.77728 0
M  V30 2133 H 194.429 6.42901 2.67678 0
M  V30 2134 H 192.056 7.13712 2.61762 0
M  V30 2135 N 193.631 -1.12557 1.10312 0
M  V30 2136 C 194.563 -2.17971 0.708625 0
M  V30 2137 C 195.576 -1.60806 -0.254027 0
M  V30 2138 O 196.765 -1.78458 -0.0386891 0
M  V30 2139 C 193.865 -3.38891 0.0248198 0
M  V30 2140 C 193.038 -4.25548 1.01132 0
M  V30 2141 C 192.097 -5.24972 0.35924 0
M  V30 2142 O 191.123 -5.60174 1.00965 0
M  V30 2143 N 192.325 -5.73747 -0.882847 0
M  V30 2144 H 195.09 -2.52427 1.61557 0
M  V30 2145 H 192.651 -1.27967 0.991771 0
M  V30 2146 H 194.643 -4.02485 -0.422852 0
M  V30 2147 H 193.213 -3.02596 -0.784514 0
M  V30 2148 H 192.433 -3.58589 1.6373 0
M  V30 2149 H 193.721 -4.80294 1.67914 0
M  V30 2150 H 193.119 -5.4731 -1.43065 0
M  V30 2151 H 191.676 -6.39234 -1.27369 0
M  V30 2152 N 195.109 -0.891671 -1.2995 0
M  V30 2153 C 196.355 -0.514261 -1.96171 0
M  V30 2154 C 196.688 0.935506 -1.70182 0
M  V30 2155 O 195.963 1.66204 -1.01028 0
M  V30 2156 C 196.246 -0.797719 -3.51153 0
M  V30 2157 C 196.099 -2.2986 -3.86632 0
M  V30 2158 C 197.418 -0.278749 -4.39216 0
M  V30 2159 H 194.537 -0.188314 -0.712535 0
M  V30 2160 H 197.179 -1.11689 -1.53706 0
M  V30 2161 H 195.329 -0.284826 -3.87455 0
M  V30 2162 H 197.001 -2.88042 -3.60319 0
M  V30 2163 H 195.244 -2.76257 -3.34462 0
M  V30 2164 H 195.915 -2.44753 -4.94773 0
M  V30 2165 H 198.391 -0.717825 -4.09862 0
M  V30 2166 H 197.267 -0.506353 -5.46559 0
M  V30 2167 H 197.528 0.820266 -4.34424 0
M  V30 2168 N 196.587 1.43421 -0.653314 0
M  V30 2169 C 197.864 1.95361 -0.0966581 0
M  V30 2170 C 198.244 1.59461 1.38331 0
M  V30 2171 O 197.592 0.879777 2.10884 0
M  V30 2172 C 197.802 3.47311 -0.342988 0
M  V30 2173 C 199.15 4.23875 -0.24798 0
M  V30 2174 O 200.174 3.55133 -0.275553 0
M  V30 2175 O 199.033 5.4623 -0.171771 0
M  V30 2176 H 196.127 0.826945 0.00956291 0
M  V30 2177 H 198.673 1.5336 -0.726558 0
M  V30 2178 H 197.445 3.66569 -1.36906 0
M  V30 2179 H 197.068 3.9631 0.319975 0
M  V30 2180 N 198.065 0.39524 1.52563 0
M  V30 2181 C 199.342 -0.242908 1.94086 0
M  V30 2182 C 199.722 -1.63841 1.33114 0
M  V30 2183 O 199.07 -2.22928 0.501529 0
M  V30 2184 C 199.28 -0.26327 3.48006 0
M  V30 2185 C 200.628 -0.489354 4.21771 0
M  V30 2186 O 201.652 -0.343226 3.54543 0
M  V30 2187 O 200.511 -0.776169 5.4096 0
M  V30 2188 H 197.605 -0.152536 0.812811 0
M  V30 2189 H 200.151 0.450178 1.6362 0
M  V30 2190 H 198.923 0.713985 3.84731 0
M  V30 2191 H 198.546 -1.00103 3.84792 0
M  V30 2192 N 199.544 -1.57102 0.125237 0
M  V30 2193 C 200.491 -2.15641 -0.822655 0
M  V30 2194 C 201.461 -1.08313 -1.25927 0
M  V30 2195 O 202.646 -1.36251 -1.33567 0
M  V30 2196 C 199.786 -2.76504 -2.06494 0
M  V30 2197 C 198.899 -3.98158 -1.67612 0
M  V30 2198 C 198.034 -4.47088 -2.86854 0
M  V30 2199 C 197.073 -5.6126 -2.44242 0
M  V30 2200 N 196.21 -6.04905 -3.56419 0
M  V30 2201 H 201.05 -2.96313 -0.316625 0
M  V30 2202 H 198.587 -1.46388 -0.144588 0
M  V30 2203 H 200.545 -3.09925 -2.79289 0
M  V30 2204 H 199.175 -1.98512 -2.54545 0
M  V30 2205 H 198.227 -3.70858 -0.846661 0
M  V30 2206 H 199.539 -4.80934 -1.32301 0
M  V30 2207 H 198.693 -4.82451 -3.67867 0
M  V30 2208 H 197.432 -3.63275 -3.25396 0
M  V30 2209 H 196.437 -5.25495 -1.61663 0
M  V30 2210 H 197.662 -6.46843 -2.0681 0
M  V30 2211 H 195.608 -5.24032 -3.94623 0
M  V30 2212 H 195.525 -6.82552 -3.25051 0
M  V30 2213 H 196.793 -6.44907 -4.37853 0
M  V30 2214 N 201.022 0.148545 -1.56898 0
M  V30 2215 C 202.25 0.876389 -1.87422 0
M  V30 2216 C 202.665 1.74809 -0.713256 0
M  V30 2217 O 202.022 1.79725 0.317025 0
M  V30 2218 C 202.073 1.73438 -3.17178 0
M  V30 2219 O 201.794 0.897809 -4.28802 0
M  V30 2220 C 203.295 2.56993 -3.61205 0
M  V30 2221 H 200.515 0.253489 -0.621277 0
M  V30 2222 H 203.059 0.141798 -2.04008 0
M  V30 2223 H 201.214 2.42205 -3.0235 0
M  V30 2224 H 201.628 1.48672 -5.02988 0
M  V30 2225 H 203.102 3.12773 -4.54838 0
M  V30 2226 H 203.579 3.32958 -2.86419 0
M  V30 2227 H 204.185 1.9352 -3.78722 0
M  V30 2228 N 202.5 1.5196 0.417844 0
M  V30 2229 C 203.447 1.74678 1.50852 0
M  V30 2230 C 204.417 0.588947 1.55308 0
M  V30 2231 O 205.602 0.825544 1.72016 0
M  V30 2232 C 202.742 1.89544 2.88387 0
M  V30 2233 C 201.855 3.17166 2.93309 0
M  V30 2234 C 200.99 3.22513 4.22088 0
M  V30 2235 C 200.029 4.44372 4.20951 0
M  V30 2236 N 199.166 4.47161 5.41287 0
M  V30 2237 H 204.006 2.67768 1.30783 0
M  V30 2238 H 201.543 1.32689 0.63498 0
M  V30 2239 H 203.501 1.96146 3.68216 0
M  V30 2240 H 202.131 0.998424 3.06971 0
M  V30 2241 H 201.183 3.19778 2.06024 0
M  V30 2242 H 202.495 4.07021 2.88332 0
M  V30 2243 H 201.649 3.28139 5.10303 0
M  V30 2244 H 200.388 2.30581 4.29748 0
M  V30 2245 H 199.393 4.38902 3.31127 0
M  V30 2246 H 200.618 5.3759 4.14938 0
M  V30 2247 H 198.564 3.58108 5.49632 0
M  V30 2248 H 198.481 5.3085 5.3827 0
M  V30 2249 H 199.749 4.57005 6.3148 0
M  V30 2250 N 203.978 -0.674533 1.42435 0
M  V30 2251 C 204.941 -1.76986 1.45632 0
M  V30 2252 C 205.941 -1.5708 0.343871 0
M  V30 2253 O 207.131 -1.63367 0.604709 0
M  V30 2254 C 204.263 -3.15623 1.28822 0
M  V30 2255 H 205.456 -1.75539 2.43158 0
M  V30 2256 H 203.009 -0.884189 1.28887 0
M  V30 2257 H 203.744 -3.22696 0.322193 0
M  V30 2258 H 203.529 -3.31475 2.09444 0
M  V30 2259 H 205.019 -3.95537 1.33942 0
M  V30 2260 N 205.456 -1.28612 -0.910864 0
M  V30 2261 C 206.386 -1.15326 -2.03032 0
M  V30 2262 C 207.367 -0.0502924 -1.70026 0
M  V30 2263 O 208.552 -0.227797 -1.92859 0
M  V30 2264 C 205.682 -0.817343 -3.37545 0
M  V30 2265 C 204.636 -1.8754 -3.84724 0
M  V30 2266 C 203.962 -1.39305 -5.16235 0
M  V30 2267 C 205.262 -3.28244 -4.06267 0
M  V30 2268 H 206.956 -2.08975 -2.14406 0
M  V30 2269 H 204.502 -1.00612 -1.03021 0
M  V30 2270 H 206.455 -0.711151 -4.15356 0
M  V30 2271 H 205.179 0.154846 -3.26233 0
M  V30 2272 H 203.838 -1.97079 -3.09121 0
M  V30 2273 H 203.486 -0.409846 -5.01328 0
M  V30 2274 H 203.186 -2.10057 -5.48771 0
M  V30 2275 H 204.71 -1.30014 -5.96598 0
M  V30 2276 H 206.124 -3.21611 -4.74594 0
M  V30 2277 H 204.521 -3.96855 -4.5014 0
M  V30 2278 H 205.591 -3.72048 -3.10979 0
M  V30 2279 N 206.934 1.1197 -1.10907 0
M  V30 2280 C 207.864 2.19928 -0.784473 0
M  V30 2281 C 208.845 1.6833 0.244726 0
M  V30 2282 O 210.03 1.93892 0.109418 0
M  V30 2283 C 207.16 3.46597 -0.220827 0
M  V30 2284 C 206.114 4.11376 -1.18127 0
M  V30 2285 C 205.44 5.32554 -0.478594 0
M  V30 2286 C 206.74 4.56945 -2.52979 0
M  V30 2287 H 208.434 2.47337 -1.68715 0
M  V30 2288 H 205.98 1.18879 -0.812642 0
M  V30 2289 H 207.933 4.21396 0.0184278 0
M  V30 2290 H 206.657 3.1863 0.717113 0
M  V30 2291 H 205.316 3.38564 -1.40606 0
M  V30 2292 H 204.964 5.00856 0.463976 0
M  V30 2293 H 204.664 5.76844 -1.11912 0
M  V30 2294 H 206.188 6.10096 -0.248 0
M  V30 2295 H 207.602 5.23093 -2.3462 0
M  V30 2296 H 205.999 5.1203 -3.12962 0
M  V30 2297 H 207.069 3.70676 -3.12614 0
M  V30 2298 N 208.412 0.89855 1.29475 0
M  V30 2299 C 209.359 0.373819 2.27753 0
M  V30 2300 C 210.329 -0.543444 1.56958 0
M  V30 2301 O 211.514 -0.468934 1.84948 0
M  V30 2302 C 208.654 -0.393648 3.42848 0
M  V30 2303 C 207.767 0.554379 4.28428 0
M  V30 2304 C 206.902 -0.230026 5.30702 0
M  V30 2305 C 205.941 0.712599 6.07938 0
M  V30 2306 N 205.078 -0.0373283 7.0209 0
M  V30 2307 H 209.918 1.21699 2.72017 0
M  V30 2308 H 207.455 0.611456 1.33789 0
M  V30 2309 H 209.413 -0.85466 4.08352 0
M  V30 2310 H 208.043 -1.20128 2.99615 0
M  V30 2311 H 207.095 1.13391 3.63107 0
M  V30 2312 H 208.407 1.27597 4.82204 0
M  V30 2313 H 207.561 -0.752288 6.02018 0
M  V30 2314 H 206.3 -0.984758 4.77654 0
M  V30 2315 H 205.305 1.24637 5.35486 0
M  V30 2316 H 206.53 1.46664 6.63074 0
M  V30 2317 H 204.476 -0.774348 6.51414 0
M  V30 2318 H 204.393 0.624374 7.53417 0
M  V30 2319 H 205.661 -0.539891 7.77628 0
M  V30 2320 N 209.89 -1.43072 0.660911 0
M  V30 2321 C 211.12 -2.05769 0.185153 0
M  V30 2322 C 211.528 -1.49668 -1.15742 0
M  V30 2323 O 210.871 -0.625649 -1.72717 0
M  V30 2324 C 210.933 -3.59489 0.0278237 0
M  V30 2325 C 210.597 -4.38212 1.2969 0
M  V30 2326 C 211.594 -4.69772 2.22734 0
M  V30 2327 C 209.279 -4.7809 1.54063 0
M  V30 2328 C 211.273 -5.40129 3.38437 0
M  V30 2329 C 208.96 -5.4819 2.70058 0
M  V30 2330 C 209.958 -5.79132 3.62071 0
M  V30 2331 O 209.646 -6.47798 4.76039 0
M  V30 2332 H 209.378 -0.669873 0.0908086 0
M  V30 2333 H 211.932 -1.84436 0.90402 0
M  V30 2334 H 210.162 -3.79426 -0.746489 0
M  V30 2335 H 211.851 -4.03862 -0.406275 0
M  V30 2336 H 212.617 -4.39476 2.05149 0
M  V30 2337 H 208.496 -4.53408 0.833215 0
M  V30 2338 H 212.04 -5.64198 4.10277 0
M  V30 2339 H 207.937 -5.77902 2.87574 0
M  V30 2340 H 208.705 -6.66283 4.75404 0
M  V30 2341 N 211.368 -0.403325 -1.52352 0
M  V30 2342 C 212.596 0.174012 -2.06167 0
M  V30 2343 C 213.011 1.39347 -1.27388 0
M  V30 2344 O 212.368 1.79597 -0.324201 0
M  V30 2345 C 212.419 0.530223 -3.5759 0
M  V30 2346 O 212.14 -0.640806 -4.33388 0
M  V30 2347 C 213.641 1.16192 -4.27802 0
M  V30 2348 H 210.861 0.0229464 -0.670608 0
M  V30 2349 H 213.405 -0.572604 -1.9632 0
M  V30 2350 H 211.56 1.22673 -3.67464 0
M  V30 2351 H 211.974 -0.344851 -5.23365 0
M  V30 2352 H 213.448 1.36141 -5.34948 0
M  V30 2353 H 213.925 2.13335 -3.83907 0
M  V30 2354 H 214.531 0.505775 -4.22282 0
M  V30 2355 N 212.846 1.57033 -0.133567 0
M  V30 2356 C 214.094 1.953 0.519848 0
M  V30 2357 C 214.415 1.01866 1.66278 0
M  V30 2358 O 213.685 0.0776513 1.95746 0
M  V30 2359 H 212.265 0.721091 0.195032 0
M  V30 2360 H 214.927 1.93809 -0.205921 0
M  V30 2361 H 214.023 2.98695 0.904854 0
M  V30 2362 N 214.325 -0.140222 1.56975 0
M  V30 2363 C 215.235 -1.19223 2.02047 0
M  V30 2364 C 216.251 -1.46612 0.937062 0
M  V30 2365 O 217.427 -1.58148 1.24704 0
M  V30 2366 C 214.492 -2.50414 2.39778 0
M  V30 2367 C 213.553 -2.30612 3.621 0
M  V30 2368 C 212.786 -3.55547 3.98023 0
M  V30 2369 O 213.009 -4.62004 3.34528 0
M  V30 2370 O 211.943 -3.47808 4.91237 0
M  V30 2371 H 215.769 -0.839559 2.91865 0
M  V30 2372 H 213.354 -0.349453 1.45256 0
M  V30 2373 H 215.236 -3.27747 2.64877 0
M  V30 2374 H 213.911 -2.85198 1.53114 0
M  V30 2375 H 212.818 -1.51207 3.4218 0
M  V30 2376 H 214.151 -2.00741 4.49404 0
M  V30 2377 N 215.803 -1.52179 -0.40978 0
M  V30 2378 C 217.049 -1.66453 -1.15851 0
M  V30 2379 C 217.382 -0.392972 -1.90182 0
M  V30 2380 O 216.657 0.608579 -1.84734 0
M  V30 2381 C 216.94 -2.88612 -2.15349 0
M  V30 2382 C 216.793 -4.25815 -1.44918 0
M  V30 2383 C 218.112 -3.06294 -3.16026 0
M  V30 2384 H 215.231 -0.60575 -0.419805 0
M  V30 2385 H 217.873 -1.84732 -0.444314 0
M  V30 2386 H 216.023 -2.73158 -2.76255 0
M  V30 2387 H 217.695 -4.52995 -0.871365 0
M  V30 2388 H 215.938 -4.27247 -0.751159 0
M  V30 2389 H 216.609 -5.07337 -2.17516 0
M  V30 2390 H 219.085 -3.20641 -2.65195 0
M  V30 2391 H 217.961 -3.93283 -3.8291 0
M  V30 2392 H 218.222 -2.19579 -3.83715 0
M  V30 2393 N 217.281 0.66697 -1.42791 0
M  V30 2394 C 218.509 1.45505 -1.47091 0
M  V30 2395 C 218.924 1.8861 -0.0845873 0
M  V30 2396 O 218.281 1.58632 0.90234 0
M  V30 2397 C 218.332 2.69906 -2.40485 0
M  V30 2398 O 218.053 2.28608 -3.73725 0
M  V30 2399 C 219.554 3.63396 -2.53886 0
M  V30 2400 H 216.774 0.447459 -0.500022 0
M  V30 2401 H 219.318 0.818866 -1.8739 0
M  V30 2402 H 217.473 3.29696 -2.03419 0
M  V30 2403 H 217.887 3.08997 -4.23817 0
M  V30 2404 H 219.361 4.47387 -3.2334 0
M  V30 2405 H 219.838 4.09824 -1.57927 0
M  V30 2406 H 220.444 3.09495 -2.91706 0
M  V30 2407 N 218.759 1.29093 0.90403 0
M  V30 2408 C 220.005 1.17996 1.65676 0
M  V30 2409 C 220.36 -0.266816 1.90541 0
M  V30 2410 O 219.653 -1.19 1.50165 0
M  V30 2411 C 219.847 1.92224 3.01305 0
M  V30 2412 C 219.676 3.43972 2.89678 0
M  V30 2413 C 218.446 4.1332 2.90679 0
M  V30 2414 C 220.644 4.39546 2.67028 0
M  V30 2415 N 218.626 5.51463 2.69743 0
M  V30 2416 C 219.997 5.65119 2.5503 0
M  V30 2417 C 222.052 4.29359 2.52101 0
M  V30 2418 C 220.755 6.81663 2.29626 0
M  V30 2419 C 222.781 5.4565 2.28079 0
M  V30 2420 C 222.143 6.70193 2.16843 0
M  V30 2421 H 218.242 0.486759 0.612037 0
M  V30 2422 H 220.826 1.62868 1.06688 0
M  V30 2423 H 218.997 1.49773 3.58361 0
M  V30 2424 H 220.729 1.73429 3.65656 0
M  V30 2425 H 217.484 3.64984 3.01801 0
M  V30 2426 H 217.908 6.24105 2.6234 0
M  V30 2427 H 222.55 3.33769 2.59534 0
M  V30 2428 H 220.268 7.77313 2.20932 0
M  V30 2429 H 223.854 5.39664 2.1738 0
M  V30 2430 H 222.734 7.58659 1.98511 0
M  V30 2431 N 220.237 -1.11381 1.11499 0
M  V30 2432 C 221.486 -1.82494 0.858993 0
M  V30 2433 C 221.799 -1.85605 -0.617278 0
M  V30 2434 O 223.005 -2.52824 -0.989552 0
M  V30 2435 C 221.461 -3.27745 1.48699 0
M  V30 2436 C 221.069 -3.32961 2.99735 0
M  V30 2437 C 222.813 -4.03754 1.31085 0
M  V30 2438 C 220.72 -4.72612 3.55516 0
M  V30 2439 H 219.65 -0.683802 0.317696 0
M  V30 2440 H 222.301 -1.25331 1.34031 0
M  V30 2441 H 220.683 -3.84844 0.933339 0
M  V30 2442 H 221.857 -2.85741 3.61509 0
M  V30 2443 H 220.172 -2.70433 3.16631 0
M  V30 2444 H 222.769 -5.06891 1.70192 0
M  V30 2445 H 223.112 -4.15527 0.253496 0
M  V30 2446 H 223.645 -3.53043 1.83318 0
M  V30 2447 H 220.384 -4.66036 4.60967 0
M  V30 2448 H 219.904 -5.2024 2.98513 0
M  V30 2449 H 221.583 -5.4157 3.53992 0
M  V30 2450 N 221.715 -0.905404 -1.28997 0
M  V30 2451 C 223.126 -0.581953 -1.77398 0
M  V30 2452 C 223.477 0.902552 -1.74208 0
M  V30 2453 O 222.602 1.70584 -1.33154 0
M  V30 2454 C 223.197 -1.04961 -3.22131 0
M  V30 2455 C 221.756 -0.777229 -3.68288 0
M  V30 2456 C 220.903 -1.22109 -2.48967 0
M  V30 2457 H 223.854 -1.08754 -1.15578 0
M  V30 2458 H 223.875 -0.387387 -3.78523 0
M  V30 2459 H 223.387 -2.13008 -3.24421 0
M  V30 2460 H 221.488 0.290383 -3.71467 0
M  V30 2461 H 221.601 -1.37911 -4.58822 0
M  V30 2462 H 219.965 -0.639971 -2.46529 0
M  V30 2463 H 220.748 -2.30972 -2.53982 0
M  V30 2464 N 223.193 1.4272 -0.668489 0
M  V30 2465 C 224.604 1.84793 -0.266151 0
M  V30 2466 C 224.955 1.55959 1.19043 0
M  V30 2467 O 224.08 1.01622 1.91055 0
M  V30 2468 C 224.675 3.35436 -0.476271 0
M  V30 2469 C 223.234 3.76182 -0.128113 0
M  V30 2470 C 222.381 2.66344 -0.771777 0
M  V30 2471 H 225.332 1.32656 -0.871098 0
M  V30 2472 H 225.353 3.79515 0.273561 0
M  V30 2473 H 224.865 3.5639 -1.53647 0
M  V30 2474 H 222.966 3.60836 0.928891 0
M  V30 2475 H 223.079 4.75766 -0.564231 0
M  V30 2476 H 221.443 2.53885 -0.203652 0
M  V30 2477 H 222.226 2.90123 -1.83531 0
M  V30 2478 N 224.671 0.411399 1.52136 0
M  V30 2479 C 225.634 -0.401089 2.25663 0
M  V30 2480 C 226.634 -0.971732 1.28117 0
M  V30 2481 O 227.824 -0.850254 1.52041 0
M  V30 2482 C 224.956 -1.56483 3.02863 0
M  V30 2483 H 226.149 0.24295 2.98914 0
M  V30 2484 H 223.702 0.163968 1.55438 0
M  V30 2485 H 224.437 -2.24567 2.33967 0
M  V30 2486 H 224.222 -1.16211 3.74483 0
M  V30 2487 H 225.712 -2.13951 3.58629 0
M  V30 2488 N 226.149 -1.5696 0.141893 0
M  V30 2489 C 227.398 -1.95135 -0.510427 0
M  V30 2490 C 227.711 -1.02896 -1.66348 0
M  V30 2491 O 228.917 -1.30629 -2.38009 0
M  V30 2492 C 227.373 -3.46876 -0.959427 0
M  V30 2493 C 226.981 -4.47691 0.166419 0
M  V30 2494 C 228.725 -3.93927 -1.58183 0
M  V30 2495 C 226.632 -5.90636 -0.300565 0
M  V30 2496 H 225.562 -0.728494 -0.194454 0
M  V30 2497 H 228.213 -1.8211 0.22542 0
M  V30 2498 H 226.595 -3.55215 -1.75038 0
M  V30 2499 H 227.769 -4.51043 0.94325 0
M  V30 2500 H 226.084 -4.10527 0.696905 0
M  V30 2501 H 228.681 -4.98158 -1.94275 0
M  V30 2502 H 229.024 -3.3519 -2.46888 0
M  V30 2503 H 229.557 -3.88484 -0.855863 0
M  V30 2504 H 226.296 -6.5318 0.550989 0
M  V30 2505 H 225.816 -5.90655 -1.04338 0
M  V30 2506 H 227.495 -6.42588 -0.754265 0
M  V30 2507 N 227.627 0.131896 -1.57047 0
M  V30 2508 C 228.874 0.841932 -1.84168 0
M  V30 2509 C 229.202 1.8048 -0.725066 0
M  V30 2510 O 228.457 1.93618 0.284692 0
M  V30 2511 C 228.756 1.63703 -3.17704 0
M  V30 2512 C 228.422 0.81961 -4.43388 0
M  V30 2513 C 227.084 0.594148 -4.77518 0
M  V30 2514 C 229.436 0.248977 -5.20605 0
M  V30 2515 C 226.764 -0.212409 -5.86315 0
M  V30 2516 C 229.116 -0.544701 -6.30251 0
M  V30 2517 C 227.78 -0.780599 -6.6292 0
M  V30 2518 H 227.05 0.308085 -0.673917 0
M  V30 2519 H 229.697 0.104867 -1.91213 0
M  V30 2520 H 228.002 2.44464 -3.06177 0
M  V30 2521 H 229.699 2.19015 -3.35907 0
M  V30 2522 H 226.289 1.00542 -4.16641 0
M  V30 2523 H 230.473 0.410408 -4.946 0
M  V30 2524 H 225.729 -0.404524 -6.1006 0
M  V30 2525 H 229.903 -0.993922 -6.89271 0
M  V30 2526 H 227.53 -1.40742 -7.47058 0
M  V30 2527 N 229.106 1.52395 0.401703 0
M  V30 2528 C 230.053 1.76268 1.48991 0
M  V30 2529 C 231.023 0.605386 1.54675 0
M  V30 2530 O 232.208 0.843742 1.7113 0
M  V30 2531 C 229.348 1.92592 2.86361 0
M  V30 2532 C 228.461 3.20259 2.89928 0
M  V30 2533 C 227.596 3.26972 4.18644 0
M  V30 2534 C 226.635 4.48812 4.16214 0
M  V30 2535 N 225.772 4.52877 5.36514 0
M  V30 2536 H 230.612 2.6914 1.27935 0
M  V30 2537 H 228.149 1.33355 0.620871 0
M  V30 2538 H 230.107 2.0004 3.66115 0
M  V30 2539 H 228.737 1.03093 3.05895 0
M  V30 2540 H 227.789 3.21945 2.02621 0
M  V30 2541 H 229.101 4.10056 2.83999 0
M  V30 2542 H 228.255 3.33533 5.06794 0
M  V30 2543 H 226.994 2.35126 4.27278 0
M  V30 2544 H 225.999 4.4239 3.26453 0
M  V30 2545 H 227.224 5.41961 4.09213 0
M  V30 2546 H 225.17 3.63917 5.45802 0
M  V30 2547 H 225.087 5.36529 5.32609 0
M  V30 2548 H 226.355 4.63676 6.26597 0
M  V30 2549 N 230.584 -0.659388 1.43143 0
M  V30 2550 C 231.809 -1.45221 1.48073 0
M  V30 2551 C 232.234 -1.87845 0.097995 0
M  V30 2552 O 231.592 -1.56985 -0.90694 0
M  V30 2553 C 231.64 -2.66748 2.42647 0
M  V30 2554 O 230.744 -3.65583 1.90848 0
M  V30 2555 H 230.085 -0.435669 0.501088 0
M  V30 2556 H 232.615 -0.807432 1.87994 0
M  V30 2557 H 232.625 -3.14637 2.59745 0
M  V30 2558 H 231.3 -2.35067 3.43098 0
M  V30 2559 H 229.877 -3.24693 1.83381 0
M  V30 2560 N 232.062 -1.29571 -0.897171 0
M  V30 2561 C 233.287 -1.20705 -1.68656 0
M  V30 2562 C 233.712 0.228582 -1.86706 0
M  V30 2563 O 233.07 1.16494 -1.3892 0
M  V30 2564 C 233.118 -1.9282 -3.04717 0
M  V30 2565 O 232.222 -1.24697 -3.93096 0
M  V30 2566 H 231.563 -0.418126 -0.515816 0
M  V30 2567 H 234.093 -1.71183 -1.12061 0
M  V30 2568 H 234.103 -2.01372 -3.54843 0
M  V30 2569 H 232.778 -2.97239 -2.90899 0
M  V30 2570 H 231.355 -1.2442 -3.51531 0
M  V30 2571 N 233.54 1.10788 -1.12088 0
M  V30 2572 C 234.78 1.84297 -0.883974 0
M  V30 2573 C 235.144 1.83036 0.579797 0
M  V30 2574 O 236.345 2.52061 0.933734 0
M  V30 2575 C 234.616 3.27173 -1.43849 0
M  V30 2576 S 236.175 4.17853 -1.33957 0
M  V30 2577 H 232.993 0.635433 -0.318977 0
M  V30 2578 H 235.595 1.33341 -1.4297 0
M  V30 2579 H 234.299 3.25658 -2.49749 0
M  V30 2580 H 233.83 3.83198 -0.890096 0
M  V30 2581 H 235.845 4.95239 -0.308603 0
M  V30 2582 N 235.018 0.912232 1.28515 0
M  V30 2583 C 235.965 0.397954 2.27343 0
M  V30 2584 C 236.935 -0.526766 1.57526 0
M  V30 2585 O 238.12 -0.449292 1.85435 0
M  V30 2586 C 235.26 -0.357263 3.43246 0
M  V30 2587 C 234.373 0.599788 4.27816 0
M  V30 2588 C 233.508 -0.173725 5.30916 0
M  V30 2589 C 232.547 0.777039 6.07148 0
M  V30 2590 N 231.684 0.0371398 7.0209 0
M  V30 2591 H 236.524 1.24577 2.70711 0
M  V30 2592 H 234.061 0.625612 1.33133 0
M  V30 2593 H 236.019 -0.8113 4.09236 0
M  V30 2594 H 234.649 -1.16943 3.00872 0
M  V30 2595 H 233.701 1.17235 3.61884 0
M  V30 2596 H 235.013 1.32704 4.80823 0
M  V30 2597 H 234.167 -0.688394 6.02782 0
M  V30 2598 H 232.906 -0.934041 4.78672 0
M  V30 2599 H 231.911 1.3031 5.34134 0
M  V30 2600 H 233.136 1.53689 6.61481 0
M  V30 2601 H 231.082 -0.705213 6.52198 0
M  V30 2602 H 230.999 0.704249 7.52713 0
M  V30 2603 H 232.267 -0.457383 7.78157 0
M  V30 2604 N 236.496 -1.42363 0.676048 0
M  V30 2605 C 237.745 -2.00745 0.196037 0
M  V30 2606 C 238.058 -1.54083 -1.20489 0
M  V30 2607 O 239.264 -2.04891 -1.78134 0
M  V30 2608 C 237.72 -3.58651 0.299616 0
M  V30 2609 C 237.328 -4.143 1.70468 0
M  V30 2610 C 239.072 -4.24326 -0.121619 0
M  V30 2611 C 236.979 -5.64574 1.76096 0
M  V30 2612 H 235.909 -0.750787 0.0695301 0
M  V30 2613 H 238.56 -1.63072 0.841412 0
M  V30 2614 H 236.942 -3.93833 -0.413673 0
M  V30 2615 H 238.116 -3.90575 2.44515 0
M  V30 2616 H 236.431 -3.61081 2.07387 0
M  V30 2617 H 239.028 -5.34607 -0.0997362 0
M  V30 2618 H 239.371 -3.99897 -1.15708 0
M  V30 2619 H 239.904 -3.94108 0.540706 0
M  V30 2620 H 236.643 -5.93804 2.77628 0
M  V30 2621 H 236.163 -5.90286 1.06406 0
M  V30 2622 H 237.842 -6.29013 1.51496 0
M  V30 2623 N 237.974 -0.419461 -1.51915 0
M  V30 2624 C 239.251 0.211999 -1.94448 0
M  V30 2625 C 239.631 1.61703 -1.35703 0
M  V30 2626 O 238.979 2.22102 -0.536931 0
M  V30 2627 C 239.189 0.207872 -3.4838 0
M  V30 2628 C 240.537 0.422192 -4.22496 0
M  V30 2629 O 241.561 0.286778 -3.55044 0
M  V30 2630 O 240.42 0.690009 -5.42126 0
M  V30 2631 H 237.514 0.139586 -0.815135 0
M  V30 2632 H 240.06 -0.476151 -1.62883 0
M  V30 2633 H 238.832 -0.775102 -3.83546 0
M  V30 2634 H 238.455 0.939688 -3.86336 0
M  V30 2635 N 239.452 1.56882 -0.150215 0
M  V30 2636 C 240.698 1.96518 0.500834 0
M  V30 2637 C 241.031 1.03527 1.64304 0
M  V30 2638 O 240.306 0.0782751 1.94342 0
M  V30 2639 C 240.589 3.45822 1.00395 0
M  V30 2640 C 240.442 4.49591 -0.136983 0
M  V30 2641 C 241.761 3.97704 1.88467 0
M  V30 2642 H 238.88 0.714535 0.18058 0
M  V30 2643 H 241.522 1.88577 -0.232091 0
M  V30 2644 H 239.672 3.5272 1.62851 0
M  V30 2645 H 241.344 4.5477 -0.77343 0
M  V30 2646 H 239.587 4.26441 -0.795652 0
M  V30 2647 H 240.258 5.51402 0.256815 0
M  V30 2648 H 242.734 3.93304 1.35834 0
M  V30 2649 H 241.61 5.0263 2.20578 0
M  V30 2650 H 241.871 3.40252 2.82279 0
M  V30 2651 N 240.93 -0.123565 1.57115 0
M  V30 2652 C 242.158 -0.846461 1.88793 0
M  V30 2653 C 242.573 -1.73652 0.740976 0
M  V30 2654 O 241.93 -1.80207 -0.288393 0
M  V30 2655 C 241.981 -1.6837 3.19897 0
M  V30 2656 O 241.702 -0.829477 4.30176 0
M  V30 2657 C 243.203 -2.51214 3.65248 0
M  V30 2658 H 240.423 -0.243573 0.625231 0
M  V30 2659 H 242.967 -0.109324 2.04208 0
M  V30 2660 H 241.122 -2.37364 3.06165 0
M  V30 2661 H 241.536 -1.40651 5.0529 0
M  V30 2662 H 243.01 -3.05497 4.59756 0
M  V30 2663 H 243.487 -3.28359 2.9168 0
M  V30 2664 H 244.093 -1.8747 3.81752 0
M  V30 2665 N 242.408 -1.52605 -0.393616 0
M  V30 2666 C 243.638 -1.71046 -1.15874 0
M  V30 2667 C 244.046 -0.426483 -1.84331 0
M  V30 2668 O 243.389 0.608513 -1.73329 0
M  V30 2669 C 243.451 -2.80118 -2.25332 0
M  V30 2670 C 243.115 -4.21381 -1.76881 0
M  V30 2671 C 244.112 -5.04697 -1.24808 0
M  V30 2672 C 241.797 -4.67683 -1.83244 0
M  V30 2673 C 243.791 -6.32393 -0.797387 0
M  V30 2674 C 241.478 -5.95364 -1.37787 0
M  V30 2675 C 242.476 -6.77549 -0.861208 0
M  V30 2676 O 242.164 -8.02837 -0.413252 0
M  V30 2677 H 241.896 -0.576155 -0.353583 0
M  V30 2678 H 244.45 -2.00018 -0.467123 0
M  V30 2679 H 242.68 -2.46557 -2.97904 0
M  V30 2680 H 244.369 -2.87006 -2.87023 0
M  V30 2681 H 245.135 -4.70111 -1.19252 0
M  V30 2682 H 241.014 -4.03805 -2.22401 0
M  V30 2683 H 244.558 -6.9649 -0.393437 0
M  V30 2684 H 240.455 -6.29455 -1.43026 0
M  V30 2685 H 241.223 -8.16749 -0.53515 0
M  V30 2686 N 243.887 0.651787 -1.4349 0
M  V30 2687 C 245.134 1.41167 -1.45183 0
M  V30 2688 C 245.462 1.94349 -0.0766601 0
M  V30 2689 O 244.717 1.72804 0.918555 0
M  V30 2690 C 245.016 2.60914 -2.44251 0
M  V30 2691 C 244.682 2.26142 -3.9009 0
M  V30 2692 C 243.344 2.16371 -4.2981 0
M  V30 2693 C 245.696 1.98334 -4.81989 0
M  V30 2694 C 243.024 1.7695 -5.5938 0
M  V30 2695 C 245.376 1.6041 -6.11924 0
M  V30 2696 C 244.04 1.49166 -6.5062 0
M  V30 2697 H 243.31 0.516566 -0.531263 0
M  V30 2698 H 245.957 0.741099 -1.76579 0
M  V30 2699 H 244.262 3.3311 -2.06265 0
M  V30 2700 H 245.959 3.19127 -2.42815 0
M  V30 2701 H 242.549 2.34658 -3.58655 0
M  V30 2702 H 246.733 2.04803 -4.52072 0
M  V30 2703 H 241.989 1.66831 -5.88198 0
M  V30 2704 H 246.163 1.37925 -6.82605 0
M  V30 2705 H 243.79 1.1839 -7.50925 0
M  V30 2706 N 245.365 1.30045 0.890287 0
M  V30 2707 C 246.776 1.16738 1.45702 0
M  V30 2708 C 247.127 -0.233939 1.948 0
M  V30 2709 O 246.252 -1.13021 1.84541 0
M  V30 2710 C 246.847 2.11313 2.64825 0
M  V30 2711 C 245.406 2.02001 3.17604 0
M  V30 2712 C 244.553 2.01699 1.90296 0
M  V30 2713 H 247.504 1.42392 0.700726 0
M  V30 2714 H 247.525 1.69086 3.40867 0
M  V30 2715 H 247.037 3.13294 2.2906 0
M  V30 2716 H 245.138 1.03142 3.5804 0
M  V30 2717 H 245.251 2.90128 3.81264 0
M  V30 2718 H 243.615 1.46427 2.08402 0
M  V30 2719 H 244.398 3.05402 1.56795 0
M  V30 2720 N 246.843 -1.10192 1.12674 0
M  V30 2721 C 248.09 -1.82205 0.883606 0
M  V30 2722 C 248.418 -1.8532 -0.590492 0
M  V30 2723 O 247.673 -1.31137 -1.45264 0
M  V30 2724 C 247.972 -3.28552 1.4067 0
M  V30 2725 C 247.638 -3.45582 2.89627 0
M  V30 2726 C 246.3 -3.49937 3.30299 0
M  V30 2727 C 248.652 -3.50768 3.85501 0
M  V30 2728 C 245.98 -3.57049 4.65546 0
M  V30 2729 C 248.332 -3.59414 5.20581 0
M  V30 2730 C 246.996 -3.62034 5.60792 0
M  V30 2731 H 246.266 -0.666735 0.323334 0
M  V30 2732 H 248.913 -1.29868 1.40736 0
M  V30 2733 H 247.218 -3.83473 0.80347 0
M  V30 2734 H 248.915 -3.82788 1.19475 0
M  V30 2735 H 245.505 -3.42871 2.57172 0
M  V30 2736 H 249.689 -3.46651 3.55171 0
M  V30 2737 H 244.945 -3.57361 4.96088 0
M  V30 2738 H 249.119 -3.62371 5.94693 0
M  V30 2739 H 246.746 -3.67298 6.6558 0
M  V30 2740 N 248.321 -0.919034 -1.28029 0
M  V30 2741 C 249.598 -0.473668 -1.89778 0
M  V30 2742 C 249.978 1.04783 -1.83259 0
M  V30 2743 O 249.326 1.8982 -1.27202 0
M  V30 2744 C 249.536 -1.00998 -3.34066 0
M  V30 2745 C 250.884 -1.06525 -4.1102 0
M  V30 2746 O 251.908 -0.958996 -3.43048 0
M  V30 2747 O 250.767 -1.22776 -5.3253 0
M  V30 2748 H 247.861 -0.15098 -0.813101 0
M  V30 2749 H 250.407 -1.01016 -1.36359 0
M  V30 2750 H 249.179 -2.05392 -3.33061 0
M  V30 2751 H 248.802 -0.454626 -3.94992 0
M  V30 2752 N 249.799 1.42003 -0.683588 0
M  V30 2753 C 251.029 2.05448 -0.217866 0
M  V30 2754 C 251.437 1.51491 1.13346 0
M  V30 2755 O 250.78 0.653048 1.717 0
M  V30 2756 C 250.842 3.59399 -0.0850118 0
M  V30 2757 C 250.506 4.36093 -1.36645 0
M  V30 2758 C 251.503 4.66169 -2.30179 0
M  V30 2759 C 249.188 4.75578 -1.61649 0
M  V30 2760 C 251.182 5.34676 -3.46988 0
M  V30 2761 C 248.869 5.43824 -2.78745 0
M  V30 2762 C 249.867 5.73299 -3.71238 0
M  V30 2763 O 249.555 6.40142 -4.86285 0
M  V30 2764 H 249.287 0.668344 -0.101454 0
M  V30 2765 H 251.841 1.82974 -0.933248 0
M  V30 2766 H 250.071 3.80566 0.686031 0
M  V30 2767 H 251.76 4.04457 0.341973 0
M  V30 2768 H 252.526 4.36156 -2.12115 0
M  V30 2769 H 248.405 4.52025 -0.905243 0
M  V30 2770 H 251.949 5.57599 -4.19201 0
M  V30 2771 H 247.846 5.73254 -2.96732 0
M  V30 2772 H 248.614 6.58636 -4.85944 0
M  V30 2773 N 251.277 0.427512 1.51691 0
M  V30 2774 C 252.209 -0.424521 2.25234 0
M  V30 2775 C 253.222 -0.994671 1.2888 0
M  V30 2776 O 254.411 -0.890483 1.54702 0
M  V30 2777 C 251.511 -1.60479 2.98496 0
M  V30 2778 C 250.684 -1.15527 4.21868 0
M  V30 2779 C 249.743 -2.20454 4.77793 0
M  V30 2780 O 248.769 -1.8029 5.39893 0
M  V30 2781 N 249.971 -3.52831 4.60967 0
M  V30 2782 H 252.736 0.205749 2.98993 0
M  V30 2783 H 250.297 0.255867 1.59865 0
M  V30 2784 H 252.289 -2.30276 3.32799 0
M  V30 2785 H 250.859 -2.14061 2.27809 0
M  V30 2786 H 250.079 -0.284736 3.9317 0
M  V30 2787 H 251.367 -0.832173 5.01949 0
M  V30 2788 H 250.765 -3.88201 4.11481 0
M  V30 2789 H 249.322 -4.18551 4.99658 0
M  V30 2790 N 252.755 -1.56801 0.158532 0
M  V30 2791 C 253.703 -2.18638 -0.793729 0
M  V30 2792 C 254.697 -1.14669 -1.24689 0
M  V30 2793 O 255.903 -1.32895 -1.21403 0
M  V30 2794 H 252.278 -0.700226 -0.274204 0
M  V30 2795 H 254.249 -2.97367 -0.248095 0
M  V30 2796 C 252.998 -2.83139 -2.0181 0
M  V30 2797 H 252.321 -3.62863 -1.67841 0
M  V30 2798 H 253.761 -3.29894 -2.66357 0
M  V30 2799 C 252.22 -1.82244 -2.83353 0
M  V30 2800 O 252.75 -1.3 -3.80083 0
M  V30 2801 N 250.956 -1.51288 -2.48114 0
M  V30 2802 H 250.503 -1.93964 -1.69516 0
M  V30 2803 H 250.461 -0.840296 -3.02963 0
M  V30 2804 N 254.233 0.115231 -1.57178 0
M  V30 2805 C 255.473 0.828199 -1.8687 0
M  V30 2806 C 255.837 1.76873 -0.747002 0
M  V30 2807 O 257.038 2.52354 -0.925785 0
M  V30 2808 C 255.309 1.55515 -3.21792 0
M  V30 2809 S 256.868 2.30917 -3.73125 0
M  V30 2810 H 253.686 0.27634 -0.655101 0
M  V30 2811 H 256.288 0.0863469 -1.95309 0
M  V30 2812 H 254.992 0.856248 -4.01368 0
M  V30 2813 H 254.523 2.3373 -3.16439 0
M  V30 2814 H 256.538 3.56705 -3.44929 0
M  V30 2815 N 255.711 1.52812 0.385517 0
M  V30 2816 C 256.939 1.71907 1.15133 0
M  V30 2817 C 257.354 0.439004 1.83625 0
M  V30 2818 O 256.711 -0.586765 1.7281 0
M  V30 2819 C 256.762 2.87099 2.19673 0
M  V30 2820 O 256.483 4.10151 1.53973 0
M  V30 2821 C 257.984 3.17902 3.08955 0
M  V30 2822 H 255.204 0.575479 0.345057 0
M  V30 2823 H 257.748 1.99476 0.45052 0
M  V30 2824 H 255.903 2.61982 2.85384 0
M  V30 2825 H 256.317 4.74514 2.23465 0
M  V30 2826 H 257.791 4.01959 3.7833 0
M  V30 2827 H 258.268 2.3243 3.72657 0
M  V30 2828 H 258.874 3.44871 2.48885 0
M  V30 2829 N 257.189 -0.644168 1.43834 0
M  V30 2830 C 258.122 -1.76906 1.44151 0
M  V30 2831 C 259.1 -1.59774 0.301857 0
M  V30 2832 O 260.284 -1.81834 0.496841 0
M  V30 2833 C 257.411 -3.14321 1.26174 0
M  V30 2834 C 256.457 -3.50134 2.43533 0
M  V30 2835 S 257.29 -3.49085 4.06079 0
M  V30 2836 C 258.446 -4.89142 3.90501 0
M  V30 2837 H 258.679 -1.76368 2.39336 0
M  V30 2838 H 256.212 -0.817624 1.30974 0
M  V30 2839 H 258.17 -3.93625 1.16489 0
M  V30 2840 H 256.831 -3.12412 0.325224 0
M  V30 2841 H 256.024 -4.50095 2.26783 0
M  V30 2842 H 255.626 -2.78264 2.4989 0
M  V30 2843 H 257.918 -5.78036 3.53385 0
M  V30 2844 H 258.861 -5.10945 4.90246 0
M  V30 2845 H 259.269 -4.63102 3.22795 0
M  V30 2846 N 258.668 -1.30515 -0.883378 0
M  V30 2847 C 259.615 -1.17032 -1.98927 0
M  V30 2848 C 260.585 -0.0594241 -1.65994 0
M  V30 2849 O 261.77 -0.229895 -1.8941 0
M  V30 2850 C 258.91 -0.869777 -3.33959 0
M  V30 2851 C 258.023 -2.06271 -3.79574 0
M  V30 2852 C 257.158 -1.70011 -5.03259 0
M  V30 2853 C 256.197 -2.8579 -5.41286 0
M  V30 2854 N 255.334 -2.49816 -6.56153 0
M  V30 2855 H 260.174 -2.1164 -2.09792 0
M  V30 2856 H 257.711 -1.05296 -1.02719 0
M  V30 2857 H 259.669 -0.676138 -4.11685 0
M  V30 2858 H 258.299 0.0394332 -3.22776 0
M  V30 2859 H 257.351 -2.36755 -2.97744 0
M  V30 2860 H 258.663 -2.92971 -4.03694 0
M  V30 2861 H 257.817 -1.47032 -5.88614 0
M  V30 2862 H 256.556 -0.804829 -4.81013 0
M  V30 2863 H 255.561 -3.09434 -4.54456 0
M  V30 2864 H 256.786 -3.76008 -5.65504 0
M  V30 2865 H 254.732 -1.62795 -6.35479 0
M  V30 2866 H 254.649 -3.30048 -6.8015 0
M  V30 2867 H 255.917 -2.30197 -7.44735 0
M  V30 2868 N 260.146 1.09593 -1.13257 0
M  V30 2869 C 261.393 1.81734 -0.893257 0
M  V30 2870 C 261.721 1.8563 0.580656 0
M  V30 2871 O 260.976 1.31906 1.44566 0
M  V30 2872 C 261.275 3.27802 -1.42411 0
M  V30 2873 C 260.941 3.44041 -2.91456 0
M  V30 2874 C 259.603 3.48181 -3.3215 0
M  V30 2875 C 261.955 3.48719 -3.87356 0
M  V30 2876 C 259.283 3.54575 -4.67433 0
M  V30 2877 C 261.635 3.56648 -5.2248 0
M  V30 2878 C 260.299 3.59055 -5.62704 0
M  V30 2879 H 259.569 0.665011 -0.326866 0
M  V30 2880 H 262.216 1.2912 -1.41422 0
M  V30 2881 H 260.521 3.83042 -0.823795 0
M  V30 2882 H 262.218 3.82149 -1.21503 0
M  V30 2883 H 258.808 3.41502 -2.58987 0
M  V30 2884 H 262.992 3.44763 -3.57004 0
M  V30 2885 H 258.248 3.54725 -4.97976 0
M  V30 2886 H 262.422 3.59212 -5.96607 0
M  V30 2887 H 260.049 3.63763 -6.67518 0
M  V30 2888 N 261.624 0.925811 1.2754 0
M  V30 2889 C 262.872 0.564138 1.94067 0
M  V30 2890 C 263.193 -0.897188 1.73134 0
M  V30 2891 O 262.463 -1.63573 1.07799 0
M  V30 2892 H 261.043 0.205645 0.718136 0
M  V30 2893 H 263.705 1.1778 1.55287 0
M  V30 2894 H 262.801 0.76881 3.02483 0
M  V30 2895 N 263.102 -1.41638 0.69111 0
M  V30 2896 C 264.327 -2.06148 0.227583 0
M  V30 2897 C 264.752 -1.51652 -1.11281 0
M  V30 2898 O 264.11 -0.64164 -1.69566 0
M  V30 2899 C 264.158 -3.60095 0.190858 0
M  V30 2900 O 263.262 -4.03845 -0.835664 0
M  V30 2901 H 262.603 -0.654434 0.112306 0
M  V30 2902 H 265.133 -1.81484 0.944714 0
M  V30 2903 H 265.143 -4.07995 0.020207 0
M  V30 2904 H 263.818 -3.99129 1.16915 0
M  V30 2905 H 262.395 -3.67458 -0.63473 0
M  V30 2906 N 264.58 -0.43555 -1.51462 0
M  V30 2907 C 265.826 0.123979 -2.03022 0
M  V30 2908 C 266.181 1.4054 -1.31401 0
M  V30 2909 O 265.474 1.86948 -0.419634 0
M  V30 2910 C 265.668 0.39942 -3.55161 0
M  V30 2911 C 265.497 -0.853754 -4.41521 0
M  V30 2912 C 264.267 -1.38675 -4.85898 0
M  V30 2913 C 266.465 -1.73939 -4.83994 0
M  V30 2914 N 264.447 -2.59265 -5.56466 0
M  V30 2915 C 265.818 -2.79135 -5.5361 0
M  V30 2916 C 267.873 -1.75402 -4.65981 0
M  V30 2917 C 266.576 -3.85737 -6.07124 0
M  V30 2918 C 268.602 -2.80938 -5.20411 0
M  V30 2919 C 267.964 -3.84854 -5.89972 0
M  V30 2920 H 264.063 0.00624887 -0.781975 0
M  V30 2921 H 266.647 -0.59582 -1.85359 0
M  V30 2922 H 264.818 1.08825 -3.72843 0
M  V30 2923 H 266.55 0.95015 -3.93388 0
M  V30 2924 H 263.305 -0.94094 -4.64159 0
M  V30 2925 H 263.729 -3.2041 -5.96378 0
M  V30 2926 H 268.371 -0.963926 -4.11665 0
M  V30 2927 H 266.089 -4.65586 -6.60496 0
M  V30 2928 H 269.675 -2.8301 -5.08327 0
M  V30 2929 H 268.555 -4.65176 -6.31333 0
M  V30 2930 N 266.058 1.56714 -0.166846 0
M  V30 2931 C 267.283 2.01557 0.488833 0
M  V30 2932 C 267.708 1.0463 1.56314 0
M  V30 2933 O 267.066 0.0251304 1.81283 0
M  V30 2934 C 267.114 3.4503 1.04818 0
M  V30 2935 O 266.218 3.51163 2.16236 0
M  V30 2936 H 265.559 0.653516 0.117526 0
M  V30 2937 H 268.089 2.02818 -0.269421 0
M  V30 2938 H 268.099 3.84243 1.37191 0
M  V30 2939 H 266.774 4.15077 0.261572 0
M  V30 2940 H 265.351 3.23807 1.84942 0
M  V30 2941 N 267.536 -0.106894 1.57237 0
M  V30 2942 C 268.766 -0.825191 1.89405 0
M  V30 2943 C 269.174 -1.73374 0.757496 0
M  V30 2944 O 268.517 -1.81552 -0.280115 0
M  V30 2945 C 268.579 -1.70102 3.1671 0
M  V30 2946 C 268.243 -0.965523 4.46684 0
M  V30 2947 C 269.24 -0.300741 5.19029 0
M  V30 2948 C 266.925 -0.943105 4.93367 0
M  V30 2949 C 268.919 0.376622 6.36286 0
M  V30 2950 C 266.606 -0.261949 6.10538 0
M  V30 2951 C 267.604 0.396748 6.81847 0
M  V30 2952 O 267.292 1.06701 7.96787 0
M  V30 2953 H 267.024 -0.241852 0.631255 0
M  V30 2954 H 269.578 -0.0921491 2.05193 0
M  V30 2955 H 267.808 -2.47601 2.97036 0
M  V30 2956 H 269.497 -2.29483 3.34802 0
M  V30 2957 H 270.263 -0.309599 4.84011 0
M  V30 2958 H 266.142 -1.44524 4.3776 0
M  V30 2959 H 269.686 0.891334 6.91882 0
M  V30 2960 H 265.583 -0.250896 6.45012 0
M  V30 2961 H 266.351 0.972707 8.127 0
M  V30 2962 N 269.014 -1.53014 -0.377408 0
M  V30 2963 C 270.291 -1.59215 -1.13622 0
M  V30 2964 C 270.671 -0.392407 -2.07421 0
M  V30 2965 O 270.019 0.618342 -2.19975 0
M  V30 2966 C 270.229 -2.93669 -1.88573 0
M  V30 2967 C 271.577 -3.47822 -2.43526 0
M  V30 2968 O 272.601 -2.9562 -1.98715 0
M  V30 2969 O 271.46 -4.39055 -3.25412 0
M  V30 2970 H 268.554 -0.642625 -0.52054 0
M  V30 2971 H 271.1 -1.65353 -0.381625 0
M  V30 2972 H 269.872 -3.7243 -1.20048 0
M  V30 2973 H 269.495 -2.90968 -2.70968 0
M  V30 2974 N 270.492 0.636531 -1.44174 0
M  V30 2975 C 271.439 1.74875 -1.50624 0
M  V30 2976 C 272.409 1.62275 -0.35442 0
M  V30 2977 O 273.594 1.82276 -0.563908 0
M  V30 2978 C 270.734 3.13102 -1.45125 0
M  V30 2979 C 269.847 3.36717 -2.7064 0
M  V30 2980 C 268.982 4.64885 -2.57013 0
M  V30 2981 C 268.021 4.8166 -3.77717 0
M  V30 2982 N 267.158 6.01101 -3.62798 0
M  V30 2983 H 271.998 1.68697 -2.45653 0
M  V30 2984 H 269.535 0.823004 -1.21922 0
M  V30 2985 H 271.493 3.93034 -1.39929 0
M  V30 2986 H 270.123 3.18308 -0.536671 0
M  V30 2987 H 269.175 2.50763 -2.86046 0
M  V30 2988 H 270.487 3.44993 -3.60252 0
M  V30 2989 H 269.641 5.52969 -2.49619 0
M  V30 2990 H 268.38 4.58957 -1.64953 0
M  V30 2991 H 267.385 3.92007 -3.85501 0
M  V30 2992 H 268.61 4.89406 -4.70807 0
M  V30 2993 H 266.556 5.96273 -2.73486 0
M  V30 2994 H 266.473 6.10409 -4.46023 0
M  V30 2995 H 267.741 6.91761 -3.59286 0
M  V30 2996 N 271.97 1.30982 0.876444 0
M  V30 2997 C 272.933 1.18054 1.96459 0
M  V30 2998 C 273.933 0.109399 1.60427 0
M  V30 2999 O 275.123 0.358173 1.70478 0
M  V30 3000 C 272.255 0.810616 3.31122 0
M  V30 3001 H 273.448 2.14735 2.09354 0
M  V30 3002 H 271.001 1.145 1.06392 0
M  V30 3003 H 271.736 -0.155322 3.23928 0
M  V30 3004 H 271.521 1.58481 3.58645 0
M  V30 3005 H 273.011 0.743876 4.10921 0
M  V30 3006 N 273.449 -1.08991 1.13837 0
M  V30 3007 C 274.396 -2.15748 0.819835 0
M  V30 3008 C 275.366 -1.64636 -0.220026 0
M  V30 3009 O 276.551 -1.90582 -0.0912757 0
M  V30 3010 C 273.691 -3.4382 0.296913 0
M  V30 3011 C 272.804 -4.0881 1.39636 0
M  V30 3012 C 271.939 -5.24655 0.831314 0
M  V30 3013 C 270.978 -5.81575 1.90886 0
M  V30 3014 N 270.115 -6.88774 1.36142 0
M  V30 3015 H 274.955 -2.42338 1.73426 0
M  V30 3016 H 272.492 -1.18935 0.865613 0
M  V30 3017 H 274.45 -4.17193 -0.0244339 0
M  V30 3018 H 273.08 -3.17535 -0.580628 0
M  V30 3019 H 272.132 -3.33258 1.83422 0
M  V30 3020 H 273.444 -4.47141 2.21058 0
M  V30 3021 H 272.598 -6.04942 0.461515 0
M  V30 3022 H 271.337 -4.87698 -0.013932 0
M  V30 3023 H 270.342 -4.99946 2.28767 0
M  V30 3024 H 271.567 -6.20592 2.75758 0
M  V30 3025 H 269.513 -6.53788 0.538254 0
M  V30 3026 H 269.43 -7.25898 2.11208 0
M  V30 3027 H 270.698 -7.72806 1.01933 0
M  V30 3028 N 274.927 -0.932562 -1.27047 0
M  V30 3029 C 276.176 -0.571351 -1.93439 0
M  V30 3030 C 276.489 0.892467 -1.74053 0
M  V30 3031 O 277.695 1.36267 -2.34826 0
M  V30 3032 C 276.151 -0.97106 -3.46552 0
M  V30 3033 C 275.759 -2.4559 -3.74686 0
M  V30 3034 C 277.503 -0.681333 -4.18997 0
M  V30 3035 C 275.41 -2.79475 -5.21198 0
M  V30 3036 H 274.34 -0.209966 -0.724176 0
M  V30 3037 H 276.991 -1.13403 -1.44263 0
M  V30 3038 H 275.373 -0.336983 -3.94564 0
M  V30 3039 H 276.547 -3.13829 -3.37414 0
M  V30 3040 H 274.862 -2.71802 -3.15456 0
M  V30 3041 H 277.459 -0.910939 -5.26883 0
M  V30 3042 H 277.802 0.381628 -4.14547 0
M  V30 3043 H 278.335 -1.27473 -3.76823 0
M  V30 3044 H 275.074 -3.847 -5.30741 0
M  V30 3045 H 274.594 -2.1589 -5.596 0
M  V30 3046 H 276.273 -2.67478 -5.89122 0
M  V30 3047 N 276.405 1.4127 -0.698611 0
M  V30 3048 C 277.682 1.94955 -0.158762 0
M  V30 3049 C 278.062 1.63781 1.33188 0
M  V30 3050 O 277.41 0.946423 2.07979 0
M  V30 3051 C 277.62 3.46044 -0.453309 0
M  V30 3052 C 278.968 4.22872 -0.382707 0
M  V30 3053 O 279.992 3.54076 -0.388396 0
M  V30 3054 O 278.851 5.45407 -0.345463 0
M  V30 3055 H 275.945 0.82683 -0.0167505 0
M  V30 3056 H 278.491 1.50971 -0.77498 0
M  V30 3057 H 277.263 3.62028 -1.48498 0
M  V30 3058 H 276.886 3.97128 0.19373 0
M  V30 3059 N 277.883 0.443576 1.51229 0
M  V30 3060 C 278.813 -0.355142 2.30783 0
M  V30 3061 C 279.794 -1.0154 1.36468 0
M  V30 3062 O 280.979 -1.01785 1.65389 0
M  V30 3063 C 278.109 -1.45312 3.15439 0
M  V30 3064 C 277.063 -0.916002 4.18083 0
M  V30 3065 C 276.389 -2.1102 4.91299 0
M  V30 3066 C 277.689 0.0538602 5.22272 0
M  V30 3067 H 279.383 0.308767 2.97804 0
M  V30 3068 H 276.929 0.149937 1.43217 0
M  V30 3069 H 278.882 -2.01914 3.69876 0
M  V30 3070 H 277.606 -2.14541 2.46252 0
M  V30 3071 H 276.265 -0.372145 3.64706 0
M  V30 3072 H 275.913 -2.78882 4.18609 0
M  V30 3073 H 275.613 -1.75717 5.60712 0
M  V30 3074 H 277.137 -2.68164 5.48562 0
M  V30 3075 H 278.551 -0.422069 5.71744 0
M  V30 3076 H 276.948 0.319776 5.99247 0
M  V30 3077 H 278.018 0.98858 4.74716 0
M  V30 3078 N 279.361 -1.56624 0.175154 0
M  V30 3079 C 280.607 -1.9729 -0.469506 0
M  V30 3080 C 280.94 -1.06128 -1.62636 0
M  V30 3081 O 280.215 -0.109183 -1.94193 0
M  V30 3082 C 280.498 -3.47375 -0.948804 0
M  V30 3083 C 280.351 -4.49317 0.208491 0
M  V30 3084 C 281.67 -4.00652 -1.82116 0
M  V30 3085 H 278.789 -0.717317 -0.16919 0
M  V30 3086 H 281.431 -1.88184 0.262062 0
M  V30 3087 H 279.581 -3.55267 -1.57219 0
M  V30 3088 H 281.253 -4.53482 0.845682 0
M  V30 3089 H 279.496 -4.25121 0.863395 0
M  V30 3090 H 280.167 -5.51741 -0.169059 0
M  V30 3091 H 282.643 -3.95416 -1.2956 0
M  V30 3092 H 281.519 -5.06075 -2.12554 0
M  V30 3093 H 281.78 -3.44699 -2.7683 0
M  V30 3094 N 280.839 0.0985539 -1.57292 0
M  V30 3095 C 281.769 1.12064 -2.04851 0
M  V30 3096 C 282.75 1.41981 -0.936767 0
M  V30 3097 O 283.935 1.52071 -1.20781 0
M  V30 3098 C 281.065 2.44144 -2.47004 0
M  V30 3099 C 280.019 2.28643 -3.6181 0
M  V30 3100 C 279.345 3.65869 -3.89929 0
M  V30 3101 C 280.645 1.72986 -4.92822 0
M  V30 3102 H 282.339 0.724979 -2.9049 0
M  V30 3103 H 279.885 0.34729 -1.39749 0
M  V30 3104 H 281.838 3.15914 -2.78884 0
M  V30 3105 H 280.562 2.85639 -1.5836 0
M  V30 3106 H 279.221 1.59318 -3.30172 0
M  V30 3107 H 278.869 4.04885 -2.98458 0
M  V30 3108 H 278.569 3.56344 -4.67218 0
M  V30 3109 H 280.093 4.39112 -4.2428 0
M  V30 3110 H 281.507 2.34593 -5.23105 0
M  V30 3111 H 279.904 1.74229 -5.74251 0
M  V30 3112 H 280.974 0.689007 -4.7998 0
M  V30 3113 N 282.317 1.53212 0.369288 0
M  V30 3114 C 283.566 1.68436 1.10961 0
M  V30 3115 C 283.879 0.440738 1.9057 0
M  V30 3116 O 285.085 0.473446 2.6734 0
M  V30 3117 C 283.541 2.97744 2.0218 0
M  V30 3118 C 283.149 4.29355 1.279 0
M  V30 3119 C 284.893 3.22334 2.76226 0
M  V30 3120 C 282.8 5.49755 2.17999 0
M  V30 3121 H 281.73 0.627568 0.41794 0
M  V30 3122 H 284.381 1.79713 0.370884 0
M  V30 3123 H 282.763 2.8026 2.79768 0
M  V30 3124 H 283.937 4.57458 0.554007 0
M  V30 3125 H 282.252 4.11179 0.657311 0
M  V30 3126 H 284.849 4.09471 3.43857 0
M  V30 3127 H 285.192 2.38238 3.41392 0
M  V30 3128 H 285.725 3.40475 2.05723 0
M  V30 3129 H 282.464 6.36318 1.57417 0
M  V30 3130 H 281.984 5.25937 2.88359 0
M  V30 3131 H 283.663 5.84401 2.77641 0
M  V30 3132 N 283.795 -0.628877 1.44509 0
M  V30 3133 C 285.043 -1.38565 1.4712 0
M  V30 3134 C 285.364 -1.94712 0.105899 0
M  V30 3135 O 284.634 -1.75912 -0.862079 0
M  V30 3136 H 283.214 -0.514333 0.541729 0
M  V30 3137 H 285.876 -0.740018 1.80305 0
M  V30 3138 H 284.972 -2.21583 2.19789 0
M  V30 3139 N 285.273 -1.31445 -0.869486 0
M  V30 3140 C 286.498 -1.24256 -1.66058 0
M  V30 3141 C 286.923 0.188928 -1.87149 0
M  V30 3142 O 286.281 1.13522 -1.4136 0
M  V30 3143 C 286.329 -1.9924 -3.00559 0
M  V30 3144 O 285.433 -1.33007 -3.90362 0
M  V30 3145 H 284.774 -0.428973 -0.506831 0
M  V30 3146 H 287.304 -1.73521 -1.08404 0
M  V30 3147 H 287.314 -2.08854 -3.50491 0
M  V30 3148 H 285.989 -3.03342 -2.84528 0
M  V30 3149 H 284.566 -1.31848 -3.48813 0
M  V30 3150 N 286.751 1.08385 -1.14413 0
M  V30 3151 C 287.976 1.85057 -0.936413 0
M  V30 3152 C 288.401 1.81055 0.509971 0
M  V30 3153 O 287.759 1.1958 1.36273 0
M  V30 3154 C 287.807 3.30505 -1.44217 0
M  V30 3155 O 286.911 4.07491 -0.634409 0
M  V30 3156 H 286.252 0.573425 -0.334784 0
M  V30 3157 H 288.782 1.36799 -1.52142 0
M  V30 3158 H 288.792 3.81348 -1.45043 0
M  V30 3159 H 287.467 3.32734 -2.49522 0
M  V30 3160 H 286.044 3.66368 -0.694902 0
M  V30 3161 N 288.23 0.939286 1.26551 0
M  V30 3162 C 289.163 0.391702 2.24813 0
M  V30 3163 C 290.141 -0.518421 1.54114 0
M  V30 3164 O 291.325 -0.456299 1.82894 0
M  V30 3165 C 288.452 -0.437382 3.35864 0
M  V30 3166 C 287.498 0.410946 4.24516 0
M  V30 3167 S 288.331 1.83372 5.03125 0
M  V30 3168 C 289.487 1.01264 6.17654 0
M  V30 3169 H 289.72 1.22448 2.70913 0
M  V30 3170 H 287.253 0.742269 1.35387 0
M  V30 3171 H 289.211 -0.909837 4.0029 0
M  V30 3172 H 287.872 -1.24482 2.8838 0
M  V30 3173 H 287.065 -0.224191 5.03501 0
M  V30 3174 H 286.667 0.818014 3.64945 0
M  V30 3175 H 288.959 0.254023 6.77024 0
M  V30 3176 H 289.902 1.77589 6.85469 0
M  V30 3177 H 290.31 0.549532 5.61819 0
M  V30 3178 N 289.708 -1.40897 0.706093 0
M  V30 3179 C 290.656 -2.32572 0.0361893 0
M  V30 3180 C 291.65 -1.51532 -0.757266 0
M  V30 3181 O 292.856 -1.67396 -0.661703 0
M  V30 3182 H 289.231 -0.751966 -0.00709935 0
M  V30 3183 H 291.202 -2.86733 0.826249 0
M  V30 3184 C 289.951 -3.36418 -0.87854 0
M  V30 3185 H 289.274 -3.98836 -0.277401 0
M  V30 3186 H 290.714 -4.0308 -1.3154 0
M  V30 3187 C 289.173 -2.71141 -1.99961 0
M  V30 3188 O 289.703 -2.56735 -3.0895 0
M  V30 3189 N 287.909 -2.29671 -1.78043 0
M  V30 3190 H 287.456 -2.41588 -0.894042 0
M  V30 3191 H 287.414 -1.86332 -2.53235 0
M  V30 3192 N 291.186 -0.45159 -1.50991 0
M  V30 3193 C 292.116 0.342898 -2.30969 0
M  V30 3194 C 293.097 1.00815 -1.37005 0
M  V30 3195 O 294.282 1.00907 -1.65926 0
M  V30 3196 C 291.412 1.43637 -3.16205 0
M  V30 3197 C 290.366 0.893818 -4.18563 0
M  V30 3198 C 289.692 2.08411 -4.92411 0
M  V30 3199 C 290.992 -0.0815568 -5.22236 0
M  V30 3200 H 292.686 -0.324556 -2.97636 0
M  V30 3201 H 290.232 -0.157531 -1.43136 0
M  V30 3202 H 292.185 1.9995 -3.70942 0
M  V30 3203 H 290.909 2.13232 -2.47386 0
M  V30 3204 H 289.568 0.352798 -3.64898 0
M  V30 3205 H 289.216 2.76658 -4.20082 0
M  V30 3206 H 288.916 1.72741 -5.61636 0
M  V30 3207 H 290.44 2.65251 -5.49976 0
M  V30 3208 H 291.854 0.391742 -5.7196 0
M  V30 3209 H 290.251 -0.351551 -5.99069 0
M  V30 3210 H 291.321 -1.01374 -4.74185 0
M  V30 3211 N 292.664 1.56529 -0.183458 0
M  V30 3212 C 293.611 2.18546 0.742055 0
M  V30 3213 C 294.581 1.12912 1.2182 0
M  V30 3214 O 295.766 1.41115 1.28418 0
M  V30 3215 C 292.906 2.83977 1.96089 0
M  V30 3216 C 292.019 4.04105 1.52719 0
M  V30 3217 C 291.154 4.57427 2.70063 0
M  V30 3218 C 290.193 5.69938 2.23243 0
M  V30 3219 N 289.33 6.17717 3.33722 0
M  V30 3220 H 294.17 2.97284 0.206432 0
M  V30 3221 H 291.707 1.46823 0.0901571 0
M  V30 3222 H 293.665 3.20077 2.67594 0
M  V30 3223 H 292.295 2.07822 2.47002 0
M  V30 3224 H 291.347 3.73745 0.708436 0
M  V30 3225 H 292.659 4.85513 1.1436 0
M  V30 3226 H 291.813 4.95772 3.49708 0
M  V30 3227 H 290.552 3.75101 3.11689 0
M  V30 3228 H 289.557 5.31133 1.42048 0
M  V30 3229 H 290.782 6.54073 1.82661 0
M  V30 3230 H 288.728 5.38317 3.74902 0
M  V30 3231 H 288.645 6.94146 2.99495 0
M  V30 3232 H 289.913 6.60713 4.13616 0
M  V30 3233 N 294.142 -0.090211 1.57342 0
M  V30 3234 C 295.419 -0.824761 1.77361 0
M  V30 3235 C 295.799 -1.96698 0.76637 0
M  V30 3236 O 295.147 -2.27586 -0.204179 0
M  V30 3237 C 295.357 -1.31481 3.23286 0
M  V30 3238 C 296.705 -1.75563 3.86604 0
M  V30 3239 O 297.729 -1.41093 3.27065 0
M  V30 3240 O 296.588 -2.39317 4.91314 0
M  V30 3241 H 293.682 -0.393776 0.727234 0
M  V30 3242 H 296.228 -0.0717138 1.69548 0
M  V30 3243 H 295 -0.496671 3.88135 0
M  V30 3244 H 294.623 -2.12973 3.35751 0
M  V30 3245 N 295.62 -1.53406 -0.361157 0
M  V30 3246 C 296.85 -1.73465 -1.1222 0
M  V30 3247 C 297.258 -0.465486 -1.83384 0
M  V30 3248 O 296.601 0.571611 -1.7458 0
M  V30 3249 C 296.663 -2.84834 -2.19339 0
M  V30 3250 C 296.327 -4.25038 -1.67903 0
M  V30 3251 C 297.324 -5.07231 -1.14074 0
M  V30 3252 C 295.009 -4.71464 -1.73282 0
M  V30 3253 C 297.003 -6.33942 -0.663068 0
M  V30 3254 C 294.69 -5.98153 -1.25127 0
M  V30 3255 C 295.688 -6.79223 -0.717296 0
M  V30 3256 O 295.376 -8.03533 -0.242865 0
M  V30 3257 H 295.108 -0.583526 -0.341283 0
M  V30 3258 H 297.662 -2.00964 -0.424591 0
M  V30 3259 H 295.892 -2.5282 -2.92607 0
M  V30 3260 H 297.581 -2.9303 -2.80871 0
M  V30 3261 H 298.347 -4.72534 -1.09254 0
M  V30 3262 H 294.226 -4.08432 -2.13786 0
M  V30 3263 H 297.77 -6.97167 -0.245612 0
M  V30 3264 H 293.667 -6.32347 -1.29642 0
M  V30 3265 H 294.435 -8.177 -0.361786 0
M  V30 3266 N 297.098 0.621204 -1.44841 0
M  V30 3267 C 298.344 1.38073 -1.49357 0
M  V30 3268 C 298.699 1.91973 -0.128115 0
M  V30 3269 O 297.992 1.71311 0.858087 0
M  V30 3270 C 298.186 2.55675 -2.4973 0
M  V30 3271 C 298.015 2.13289 -3.95901 0
M  V30 3272 C 296.785 2.001 -4.63991 0
M  V30 3273 C 298.983 1.7159 -4.84831 0
M  V30 3274 N 296.965 1.51381 -5.94943 0
M  V30 3275 C 298.336 1.34188 -6.05304 0
M  V30 3276 C 300.391 1.59059 -4.7181 0
M  V30 3277 C 299.094 0.855085 -7.14199 0
M  V30 3278 C 301.12 1.11784 -5.8074 0
M  V30 3279 C 300.482 0.753385 -7.0036 0
M  V30 3280 H 296.581 0.499675 -0.601539 0
M  V30 3281 H 299.165 0.711609 -1.8123 0
M  V30 3282 H 297.336 3.20201 -2.19832 0
M  V30 3283 H 299.068 3.22509 -2.4448 0
M  V30 3284 H 295.823 2.20863 -4.18947 0
M  V30 3285 H 296.247 1.29293 -6.64539 0
M  V30 3286 H 300.889 1.85865 -3.79755 0
M  V30 3287 H 298.607 0.574552 -8.06055 0
M  V30 3288 H 302.193 1.02533 -5.72694 0
M  V30 3289 H 301.073 0.393183 -7.83214 0
M  V30 3290 N 298.576 1.31904 0.862503 0
M  V30 3291 C 299.486 1.22161 2.00285 0
M  V30 3292 C 300.502 0.136785 1.73462 0
M  V30 3293 O 301.678 0.355994 1.98229 0
M  V30 3294 C 298.743 0.937093 3.33796 0
M  V30 3295 C 297.804 2.10957 3.73893 0
M  V30 3296 C 297.037 1.83853 5.01033 0
M  V30 3297 O 297.26 0.777274 5.65079 0
M  V30 3298 O 296.194 2.69741 5.38074 0
M  V30 3299 H 300.02 2.18008 2.11439 0
M  V30 3300 H 297.605 1.11716 0.991957 0
M  V30 3301 H 299.487 0.794583 4.13841 0
M  V30 3302 H 298.162 0.00871894 3.23699 0
M  V30 3303 H 297.069 2.30752 2.94456 0
M  V30 3304 H 298.402 3.02046 3.88625 0
M  V30 3305 N 300.054 -1.07777 1.14986 0
M  V30 3306 C 301.279 -1.84558 0.946213 0
M  V30 3307 C 301.704 -1.81323 -0.500362 0
M  V30 3308 O 301.062 -1.20301 -1.35637 0
M  V30 3309 C 301.11 -3.29736 1.45968 0
M  V30 3310 O 300.214 -4.07149 0.65601 0
M  V30 3311 H 299.555 -0.571641 0.33782 0
M  V30 3312 H 302.085 -1.35991 1.52865 0
M  V30 3313 H 302.095 -3.80574 1.47063 0
M  V30 3314 H 300.77 -3.31406 2.51283 0
M  V30 3315 H 299.347 -3.65994 0.714322 0
M  V30 3316 N 301.532 -0.945985 -1.26051 0
M  V30 3317 C 302.78 -0.594941 -1.93145 0
M  V30 3318 C 303.101 0.86953 -1.7454 0
M  V30 3319 O 302.371 1.61838 -1.10387 0
M  V30 3320 H 300.951 -0.217044 -0.714773 0
M  V30 3321 H 303.613 -1.20235 -1.53393 0
M  V30 3322 H 302.709 -0.816835 -3.01221 0
M  V30 3323 N 303.011 1.40521 -0.713556 0
M  V30 3324 C 303.921 2.34522 -0.0606667 0
M  V30 3325 C 304.937 1.57193 0.74607 0
M  V30 3326 O 306.113 1.89591 0.679493 0
M  V30 3327 C 303.178 3.36081 0.851491 0
M  V30 3328 C 302.239 4.29286 0.0349339 0
M  V30 3329 C 301.472 5.25994 0.903649 0
M  V30 3330 O 301.695 5.28616 2.14292 0
M  V30 3331 O 300.629 6.00918 0.343723 0
M  V30 3332 H 304.455 2.91968 -0.835972 0
M  V30 3333 H 302.04 1.41681 -0.47402 0
M  V30 3334 H 303.922 3.98369 1.37404 0
M  V30 3335 H 302.597 2.81052 1.60598 0
M  V30 3336 H 301.504 3.70289 -0.532633 0
M  V30 3337 H 302.837 4.87462 -0.681287 0
M  V30 3338 N 304.489 0.459591 1.5075 0
M  V30 3339 C 305.735 -0.091664 2.03193 0
M  V30 3340 C 306.09 -1.38432 1.3362 0
M  V30 3341 O 305.383 -1.86257 0.449322 0
M  V30 3342 C 305.577 -0.342866 3.55752 0
M  V30 3343 C 305.406 0.923888 4.40107 0
M  V30 3344 C 304.176 1.46388 4.83631 0
M  V30 3345 C 306.374 1.81617 4.81165 0
M  V30 3346 N 304.356 2.68086 5.52271 0
M  V30 3347 C 305.727 2.87907 5.49099 0
M  V30 3348 C 307.782 1.82793 4.63132 0
M  V30 3349 C 306.485 3.95347 6.0091 0
M  V30 3350 C 308.511 2.89182 5.15876 0
M  V30 3351 C 307.873 3.94191 5.83774 0
M  V30 3352 H 303.972 0.00619247 0.781975 0
M  V30 3353 H 306.556 0.625233 1.84388 0
M  V30 3354 H 304.727 -1.0288 3.74527 0
M  V30 3355 H 306.459 -0.887445 3.9485 0
M  V30 3356 H 303.214 1.01466 4.62603 0
M  V30 3357 H 303.638 3.29857 5.91205 0
M  V30 3358 H 308.28 1.0293 4.1008 0
M  V30 3359 H 305.998 4.76035 6.53006 0
M  V30 3360 H 309.584 2.91061 5.0376 0
M  V30 3361 H 308.464 4.75161 6.23853 0
M  V30 3362 N 305.967 -1.56429 0.191757 0
M  V30 3363 C 306.93 -2.17707 -0.716688 0
M  V30 3364 C 307.93 -1.13061 -1.14341 0
M  V30 3365 O 309.12 -1.38464 -1.05704 0
M  V30 3366 C 306.252 -2.77644 -1.97804 0
M  V30 3367 H 307.445 -2.99342 -0.1829 0
M  V30 3368 H 304.998 -1.56193 -0.0578566 0
M  V30 3369 H 305.733 -1.99799 -2.55443 0
M  V30 3370 H 305.518 -3.54246 -1.68083 0
M  V30 3371 H 307.008 -3.24708 -2.62592 0
M  V30 3372 N 307.445 0.0818655 -1.57387 0
M  V30 3373 C 308.694 0.781681 -1.85937 0
M  V30 3374 C 309.007 1.79246 -0.782957 0
M  V30 3375 O 310.213 2.54112 -0.955987 0
M  V30 3376 C 308.669 1.44109 -3.29789 0
M  V30 3377 C 308.277 0.469396 -4.45534 0
M  V30 3378 C 310.021 2.12386 -3.67549 0
M  V30 3379 C 307.928 1.13415 -5.80423 0
M  V30 3380 H 306.858 0.295682 -0.693605 0
M  V30 3381 H 309.509 0.0348051 -1.83467 0
M  V30 3382 H 307.891 2.23588 -3.2684 0
M  V30 3383 H 309.065 -0.294856 -4.59856 0
M  V30 3384 H 307.38 -0.108383 -4.16259 0
M  V30 3385 H 309.977 2.62878 -4.65617 0
M  V30 3386 H 310.32 2.91877 -2.96839 0
M  V30 3387 H 310.853 1.39751 -3.72444 0
M  V30 3388 H 307.592 0.379771 -6.54399 0
M  V30 3389 H 307.112 1.8695 -5.69921 0
M  V30 3390 H 308.791 1.65686 -6.25426 0
M  V30 3391 N 308.923 1.53595 0.353017 0
M  V30 3392 C 310.172 1.69603 1.09168 0
M  V30 3393 C 310.485 0.460925 1.90092 0
M  V30 3394 O 311.691 0.501774 2.66823 0
M  V30 3395 C 310.147 2.99872 1.9901 0
M  V30 3396 C 309.755 4.30687 1.23339 0
M  V30 3397 C 311.499 3.25246 2.72792 0
M  V30 3398 C 309.406 5.52036 2.12156 0
M  V30 3399 H 308.336 0.631966 0.411261 0
M  V30 3400 H 310.987 1.80096 0.351802 0
M  V30 3401 H 309.369 2.83212 2.7678 0
M  V30 3402 H 310.543 4.58019 0.505456 0
M  V30 3403 H 308.858 4.11853 0.613663 0
M  V30 3404 H 311.455 4.13095 3.39495 0
M  V30 3405 H 311.798 2.41846 3.38846 0
M  V30 3406 H 312.331 3.42638 2.021 0
M  V30 3407 H 309.07 6.37951 1.50659 0
M  V30 3408 H 308.59 5.28966 2.82764 0
M  V30 3409 H 310.269 5.87313 2.71427 0
M  V30 3410 N 310.401 -0.613514 1.45168 0
M  V30 3411 C 311.348 -1.72456 1.53387 0
M  V30 3412 C 312.318 -1.6169 0.380191 0
M  V30 3413 O 313.503 -1.81356 0.592836 0
M  V30 3414 C 310.643 -3.10753 1.50088 0
M  V30 3415 C 309.756 -3.32368 2.75963 0
M  V30 3416 C 308.891 -4.60737 2.64376 0
M  V30 3417 C 307.93 -4.7559 3.85332 0
M  V30 3418 N 307.067 -5.95253 3.72315 0
M  V30 3419 H 311.907 -1.64768 2.48305 0
M  V30 3420 H 309.444 -0.803503 1.23216 0
M  V30 3421 H 311.402 -3.90758 1.46164 0
M  V30 3422 H 310.032 -3.17413 0.587243 0
M  V30 3423 H 309.084 -2.4618 2.89999 0
M  V30 3424 H 310.396 -3.39218 3.65695 0
M  V30 3425 H 309.55 -5.48928 2.58385 0
M  V30 3426 H 308.289 -4.56275 1.72233 0
M  V30 3427 H 307.294 -3.85824 3.91688 0
M  V30 3428 H 308.519 -4.81854 4.78533 0
M  V30 3429 H 306.465 -5.91847 2.82937 0
M  V30 3430 H 306.382 -6.03236 4.55677 0
M  V30 3431 H 307.65 -6.85958 3.70246 0
M  V30 3432 N 311.879 -1.3236 -0.855495 0
M  V30 3433 C 312.842 -1.21164 -1.94556 0
M  V30 3434 C 313.842 -0.134908 -1.60233 0
M  V30 3435 O 315.032 -0.385249 -1.69887 0
M  V30 3436 C 312.164 -0.863192 -3.29791 0
M  V30 3437 H 313.357 -2.18038 -2.05911 0
M  V30 3438 H 310.91 -1.16179 -1.04557 0
M  V30 3439 H 311.645 0.103769 -3.24134 0
M  V30 3440 H 311.43 -1.64166 -3.56078 0
M  V30 3441 H 312.92 -0.809156 -4.09686 0
M  V30 3442 N 313.357 1.07166 -1.15556 0
M  V30 3443 C 314.768 1.6127 -0.940693 0
M  V30 3444 C 315.119 1.89251 0.517551 0
M  V30 3445 O 314.244 1.65937 1.38903 0
M  V30 3446 C 314.839 2.92993 -1.7012 0
M  V30 3447 C 313.398 3.43832 -1.53156 0
M  V30 3448 C 312.545 2.1786 -1.71558 0
M  V30 3449 H 315.496 0.90229 -1.30554 0
M  V30 3450 H 315.517 3.62007 -1.17181 0
M  V30 3451 H 315.029 2.72596 -2.76248 0
M  V30 3452 H 313.13 3.69307 -0.494294 0
M  V30 3453 H 313.243 4.19747 -2.30975 0
M  V30 3454 H 311.607 2.2765 -1.14225 0
M  V30 3455 H 312.39 1.99956 -2.79056 0
M  V30 3456 N 314.835 0.952656 1.25548 0
M  V30 3457 C 316.083 0.605176 1.92826 0
M  V30 3458 C 316.404 -0.860261 1.74999 0
M  V30 3459 O 315.674 -1.6125 1.11244 0
M  V30 3460 H 314.254 0.220832 0.713612 0
M  V30 3461 H 316.916 1.21047 1.52754 0
M  V30 3462 H 316.012 0.832798 3.00784 0
M  V30 3463 N 316.313 -1.40141 0.720998 0
M  V30 3464 C 317.543 -2.04798 0.27226 0
M  V30 3465 C 317.951 -1.54442 -1.09289 0
M  V30 3466 O 317.294 -0.698342 -1.69908 0
M  V30 3467 C 317.356 -3.59048 0.18027 0
M  V30 3468 C 317.02 -4.32317 1.48159 0
M  V30 3469 C 318.017 -4.59902 2.42458 0
M  V30 3470 C 315.702 -4.71125 1.74202 0
M  V30 3471 C 317.696 -5.25288 3.61042 0
M  V30 3472 C 315.383 -5.36242 2.93066 0
M  V30 3473 C 316.381 -5.63254 3.86308 0
M  V30 3474 O 316.069 -6.27024 5.03086 0
M  V30 3475 H 315.801 -0.665419 0.119139 0
M  V30 3476 H 318.355 -1.80436 0.981432 0
M  V30 3477 H 316.585 -3.82251 -0.58489 0
M  V30 3478 H 318.274 -4.05221 -0.234618 0
M  V30 3479 H 319.04 -4.30379 2.23604 0
M  V30 3480 H 314.919 -4.49466 1.02477 0
M  V30 3481 H 318.463 -5.46289 4.33837 0
M  V30 3482 H 314.36 -5.65185 3.11826 0
M  V30 3483 H 315.128 -6.4552 5.03235 0
M  V30 3484 N 317.792 -0.46758 -1.50504 0
M  V30 3485 C 318.739 0.328413 -2.28452 0
M  V30 3486 C 319.709 0.990313 -1.33349 0
M  V30 3487 O 320.894 1.00343 -1.62284 0
M  V30 3488 C 318.034 1.40648 -3.15138 0
M  V30 3489 C 317.147 0.759709 -4.25267 0
M  V30 3490 C 316.282 1.81537 -4.99217 0
M  V30 3491 C 315.321 1.14866 -6.01226 0
M  V30 3492 N 314.458 2.14702 -6.68467 0
M  V30 3493 H 319.298 -0.342603 -2.96024 0
M  V30 3494 H 316.835 -0.180801 -1.45985 0
M  V30 3495 H 318.793 2.04315 -3.63746 0
M  V30 3496 H 317.423 2.04671 -2.49619 0
M  V30 3497 H 316.475 0.0105671 -3.80399 0
M  V30 3498 H 317.787 0.233243 -4.98254 0
M  V30 3499 H 316.941 2.52793 -5.51526 0
M  V30 3500 H 315.68 2.37564 -4.25928 0
M  V30 3501 H 314.685 0.42171 -5.4818 0
M  V30 3502 H 315.91 0.595334 -6.76485 0
M  V30 3503 H 313.856 2.69752 -5.97972 0
M  V30 3504 H 313.773 1.6703 -7.37317 0
M  V30 3505 H 315.041 2.85348 -7.25394 0
M  V30 3506 N 319.27 1.56325 -0.20005 0
M  V30 3507 C 320.22 2.15939 0.731743 0
M  V30 3508 C 321.204 1.10154 1.17281 0
M  V30 3509 O 322.396 1.36203 1.13038 0
M  V30 3510 C 319.525 2.82614 1.94895 0
M  V30 3511 C 318.611 3.95596 1.52855 0
M  V30 3512 N 319.002 4.99118 0.819418 0
M  V30 3513 C 317.3 4.07288 1.81748 0
M  V30 3514 C 318.001 5.78513 0.608053 0
M  V30 3515 N 316.977 5.31117 1.15828 0
M  V30 3516 H 320.779 2.9334 0.181285 0
M  V30 3517 H 318.293 1.624 -0.000452172 0
M  V30 3518 H 320.29 3.23718 2.62702 0
M  V30 3519 H 318.95 2.06702 2.50408 0
M  V30 3520 H 319.961 5.15723 0.47436 0
M  V30 3521 H 316.638 3.42509 2.38734 0
M  V30 3522 H 318.028 6.71885 0.0451619 0
M  V30 3523 N 320.748 -0.0735177 1.57428 0
M  V30 3524 C 322.025 -0.805903 1.78226 0
M  V30 3525 C 322.405 -1.95874 0.787189 0
M  V30 3526 O 321.753 -2.2779 -0.180029 0
M  V30 3527 C 321.963 -1.28045 3.24662 0
M  V30 3528 C 323.311 -1.71453 3.88444 0
M  V30 3529 O 324.335 -1.37616 3.28543 0
M  V30 3530 O 323.194 -2.34093 4.93825 0
M  V30 3531 H 320.288 -0.386041 0.73137 0
M  V30 3532 H 322.834 -0.0537269 1.69615 0
M  V30 3533 H 321.606 -0.455476 3.8864 0
M  V30 3534 H 321.229 -2.094 3.37991 0
M  V30 3535 N 322.226 -1.5378 -0.344866 0
M  V30 3536 C 323.475 -1.7018 -1.08267 0
M  V30 3537 C 323.788 -0.471 -1.89845 0
M  V30 3538 O 324.994 -0.515917 -2.66553 0
M  V30 3539 C 323.45 -3.00923 -1.97417 0
M  V30 3540 C 323.058 -4.31335 -1.21053 0
M  V30 3541 C 324.802 -3.26688 -2.71063 0
M  V30 3542 C 322.709 -5.53153 -2.09225 0
M  V30 3543 H 321.639 -0.634138 -0.407903 0
M  V30 3544 H 324.29 -1.8028 -0.342246 0
M  V30 3545 H 322.672 -2.84676 -2.75274 0
M  V30 3546 H 323.846 -4.58281 -0.481159 0
M  V30 3547 H 322.161 -4.12173 -0.591813 0
M  V30 3548 H 324.758 -4.1489 -3.37299 0
M  V30 3549 H 325.101 -2.43639 -3.37558 0
M  V30 3550 H 325.634 -3.43705 -2.0028 0
M  V30 3551 H 322.373 -6.38741 -1.47274 0
M  V30 3552 H 321.893 -5.30458 -2.79955 0
M  V30 3553 H 323.572 -5.88744 -2.68308 0
M  V30 3554 N 323.704 0.605807 -1.45491 0
M  V30 3555 C 324.651 1.7164 -1.54299 0
M  V30 3556 C 325.621 1.61486 -0.388761 0
M  V30 3557 O 326.806 1.81039 -0.602445 0
M  V30 3558 C 323.946 3.09953 -1.51734 0
M  V30 3559 C 323.059 3.309 -2.77721 0
M  V30 3560 C 322.194 4.59329 -2.66816 0
M  V30 3561 C 321.233 4.7354 -3.87848 0
M  V30 3562 N 320.37 5.9327 -3.75467 0
M  V30 3563 H 325.21 1.63449 -2.49176 0
M  V30 3564 H 322.747 0.796957 -1.23641 0
M  V30 3565 H 324.705 3.89977 -1.48235 0
M  V30 3566 H 323.335 3.17098 -0.604068 0
M  V30 3567 H 322.387 2.44639 -2.913 0
M  V30 3568 H 323.699 3.37274 -3.67488 0
M  V30 3569 H 322.853 5.4755 -2.61292 0
M  V30 3570 H 321.592 4.55355 -1.74651 0
M  V30 3571 H 320.597 3.83741 -3.93729 0
M  V30 3572 H 321.822 4.79309 -4.81082 0
M  V30 3573 H 319.768 5.90338 -2.86072 0
M  V30 3574 H 319.685 6.00811 -4.5887 0
M  V30 3575 H 320.953 6.83984 -3.73879 0
M  V30 3576 N 325.182 1.32811 0.848464 0
M  V30 3577 C 326.412 1.26556 1.63301 0
M  V30 3578 C 326.82 -0.1676 1.88456 0
M  V30 3579 O 326.163 -1.11713 1.45828 0
M  V30 3580 C 326.225 1.96202 3.01239 0
M  V30 3581 C 325.889 3.45528 2.99098 0
M  V30 3582 C 326.886 4.40903 2.75501 0
M  V30 3583 C 324.571 3.87558 3.19537 0
M  V30 3584 C 326.565 5.76282 2.72356 0
M  V30 3585 C 324.252 5.23044 3.16019 0
M  V30 3586 C 325.25 6.17217 2.92458 0
M  V30 3587 O 324.938 7.50223 2.88825 0
M  V30 3588 H 324.67 0.43771 0.515156 0
M  V30 3589 H 327.224 1.7559 1.0657 0
M  V30 3590 H 325.454 1.41746 3.59785 0
M  V30 3591 H 327.143 1.83573 3.62016 0
M  V30 3592 H 327.909 4.09756 2.5947 0
M  V30 3593 H 323.788 3.14674 3.369 0
M  V30 3594 H 327.332 6.4976 2.53886 0
M  V30 3595 H 323.229 5.53818 3.31596 0
M  V30 3596 H 323.997 7.59657 3.04735 0
M  V30 3597 N 326.66 -1.06551 1.16123 0
M  V30 3598 C 327.608 -2.16063 0.861371 0
M  V30 3599 C 328.602 -1.6856 -0.168517 0
M  V30 3600 O 329.808 -1.79986 -0.0227579 0
M  V30 3601 H 326.183 -0.705278 0.260934 0
M  V30 3602 H 328.154 -2.38567 1.79244 0
M  V30 3603 C 326.903 -3.45661 0.376018 0
M  V30 3604 H 326.226 -3.82604 1.15992 0
M  V30 3605 H 327.666 -4.23504 0.204951 0
M  V30 3606 C 326.125 -3.24546 -0.903954 0
M  V30 3607 O 326.655 -3.49865 -1.97377 0
M  V30 3608 N 324.861 -2.77992 -0.846679 0
M  V30 3609 H 324.408 -2.57589 0.0241017 0
M  V30 3610 H 324.366 -2.64244 -1.70359 0
M  V30 3611 N 328.138 -0.959301 -1.25041 0
M  V30 3612 C 329.378 -0.624343 -1.94631 0
M  V30 3613 C 329.742 0.82403 -1.73418 0
M  V30 3614 O 330.943 1.26881 -2.3697 0
M  V30 3615 C 329.214 -0.978805 -3.43736 0
M  V30 3616 S 330.773 -0.757127 -4.32219 0
M  V30 3617 H 327.591 -0.229327 -0.673001 0
M  V30 3618 H 330.193 -1.23447 -1.51595 0
M  V30 3619 H 328.897 -2.02997 -3.56679 0
M  V30 3620 H 328.428 -0.359117 -3.91757 0
M  V30 3621 H 330.443 0.369759 -4.9482 0
M  V30 3622 N 329.616 1.39756 -0.72842 0
M  V30 3623 C 330.856 2.025 -0.278078 0
M  V30 3624 C 331.22 1.5654 1.11173 0
M  V30 3625 O 332.421 2.11435 1.65978 0
M  V30 3626 C 330.692 3.55489 -0.369139 0
M  V30 3627 S 332.251 4.388 0.00232983 0
M  V30 3628 H 329.069 0.702534 -0.109391 0
M  V30 3629 H 331.671 1.70672 -0.95348 0
M  V30 3630 H 330.375 3.86429 -1.38204 0
M  V30 3631 H 329.906 3.92061 0.324308 0
M  V30 3632 H 331.921 4.80954 1.22055 0
M  V30 3633 N 331.094 0.475555 1.50254 0
M  V30 3634 C 332.004 -0.321501 2.32387 0
M  V30 3635 C 333.02 -0.991755 1.42969 0
M  V30 3636 O 334.196 -0.978747 1.76018 0
M  V30 3637 C 331.261 -1.38667 3.17762 0
M  V30 3638 C 330.322 -0.732538 4.23004 0
M  V30 3639 C 329.555 -1.74695 5.04299 0
M  V30 3640 O 329.778 -2.97399 4.86734 0
M  V30 3641 O 328.712 -1.31631 5.8733 0
M  V30 3642 H 332.538 0.350071 3.01676 0
M  V30 3643 H 330.123 0.237321 1.47503 0
M  V30 3644 H 332.005 -2.00354 3.70724 0
M  V30 3645 H 330.68 -2.04163 2.51196 0
M  V30 3646 H 329.587 -0.0765902 3.74022 0
M  V30 3647 H 330.92 -0.120452 4.92053 0
M  V30 3648 N 332.573 -1.56217 0.208337 0
M  V30 3649 C 333.483 -2.23316 -0.718836 0
M  V30 3650 C 334.499 -1.23648 -1.22422 0
M  V30 3651 O 335.675 -1.56423 -1.26861 0
M  V30 3652 C 332.74 -2.88968 -1.91568 0
M  V30 3653 C 331.801 -4.03943 -1.45357 0
M  V30 3654 C 331.034 -4.66455 -2.59337 0
M  V30 3655 O 331.257 -4.27919 -3.77149 0
M  V30 3656 O 330.191 -5.55686 -2.31293 0
M  V30 3657 H 334.017 -3.03182 -0.177315 0
M  V30 3658 H 331.602 -1.49384 -0.0215402 0
M  V30 3659 H 333.484 -3.30455 -2.61491 0
M  V30 3660 H 332.159 -2.12071 -2.44556 0
M  V30 3661 H 331.066 -3.67052 -0.722746 0
M  V30 3662 H 332.399 -4.82543 -0.970219 0
M  V30 3663 N 334.051 0.0651679 -1.57465 0
M  V30 3664 C 335.3 0.761916 -1.86756 0
M  V30 3665 C 335.613 1.78406 -0.801925 0
M  V30 3666 O 336.819 2.53084 -0.982885 0
M  V30 3667 C 335.275 1.40603 -3.31299 0
M  V30 3668 C 334.883 0.422115 -4.46007 0
M  V30 3669 C 336.627 2.08476 -3.69781 0
M  V30 3670 C 334.534 1.07252 -5.81593 0
M  V30 3671 H 333.464 0.288308 -0.696702 0
M  V30 3672 H 336.115 0.015344 -1.83494 0
M  V30 3673 H 334.497 2.20109 -3.29193 0
M  V30 3674 H 335.671 -0.343613 -4.59517 0
M  V30 3675 H 333.986 -0.152527 -4.16121 0
M  V30 3676 H 336.583 2.57925 -4.68379 0
M  V30 3677 H 336.926 2.88712 -2.99919 0
M  V30 3678 H 337.459 1.35792 -3.73905 0
M  V30 3679 H 334.198 0.310342 -6.54765 0
M  V30 3680 H 333.718 1.80895 -5.71872 0
M  V30 3681 H 335.397 1.59043 -6.27148 0
M  V30 3682 N 335.529 1.53961 0.336706 0
M  V30 3683 C 336.759 1.75229 1.09446 0
M  V30 3684 C 337.167 0.494602 1.82621 0
M  V30 3685 O 336.51 -0.543764 1.75468 0
M  V30 3686 C 336.572 2.88288 2.1478 0
M  V30 3687 C 336.236 4.27656 1.6112 0
M  V30 3688 C 337.233 5.08981 1.0599 0
M  V30 3689 C 334.918 4.74161 1.6576 0
M  V30 3690 C 336.912 6.34916 0.562129 0
M  V30 3691 C 334.599 6.00067 1.15595 0
M  V30 3692 C 335.597 6.80278 0.609147 0
M  V30 3693 O 335.285 8.03818 0.114999 0
M  V30 3694 H 335.017 0.588881 0.331956 0
M  V30 3695 H 337.571 2.01614 0.392566 0
M  V30 3696 H 335.801 2.57443 2.88548 0
M  V30 3697 H 337.49 2.97461 2.76174 0
M  V30 3698 H 338.256 4.74213 1.01722 0
M  V30 3699 H 334.135 4.11781 2.07261 0
M  V30 3700 H 337.679 6.9747 0.134668 0
M  V30 3701 H 333.576 6.3433 1.19566 0
M  V30 3702 H 334.344 8.18172 0.231651 0
M  V30 3703 N 337.007 -0.598083 1.45811 0
M  V30 3704 C 338.418 -1.18011 1.44673 0
M  V30 3705 C 338.769 -1.95378 0.179364 0
M  V30 3706 O 337.894 -2.04124 -0.718509 0
M  V30 3707 C 338.489 -2.14677 2.62105 0
M  V30 3708 C 337.048 -2.68236 2.64057 0
M  V30 3709 C 336.195 -1.43816 2.37091 0
M  V30 3710 H 339.146 -0.38686 1.53913 0
M  V30 3711 H 339.167 -2.97878 2.36746 0
M  V30 3712 H 338.679 -1.5834 3.5433 0
M  V30 3713 H 336.78 -3.28486 1.75864 0
M  V30 3714 H 336.893 -3.12021 3.63566 0
M  V30 3715 H 335.257 -1.731 1.86838 0
M  V30 3716 H 336.04 -0.893333 3.31473 0
M  V30 3717 N 338.485 -1.33259 -0.841409 0
M  V30 3718 C 339.762 -1.15174 -1.58096 0
M  V30 3719 C 340.142 0.282858 -2.09196 0
M  V30 3720 O 339.49 1.28151 -1.89181 0
M  V30 3721 C 339.7 -2.1907 -2.71679 0
M  V30 3722 C 341.048 -2.53093 -3.40924 0
M  V30 3723 O 342.072 -2.17717 -2.81918 0
M  V30 3724 O 340.931 -3.1379 -4.47435 0
M  V30 3725 H 338.025 -0.445303 -0.696875 0
M  V30 3726 H 340.571 -1.44833 -0.884385 0
M  V30 3727 H 339.343 -3.15443 -2.31541 0
M  V30 3728 H 338.966 -1.90481 -3.49002 0
M  V30 3729 N 339.963 1.05934 -1.16686 0
M  V30 3730 C 341.212 1.78188 -0.945085 0
M  V30 3731 C 341.525 1.88338 0.528021 0
M  V30 3732 O 342.731 2.57258 0.867799 0
M  V30 3733 C 341.187 3.20277 -1.64167 0
M  V30 3734 C 340.795 3.18281 -3.15279 0
M  V30 3735 C 342.539 3.97039 -1.502 0
M  V30 3736 C 340.446 4.55112 -3.7766 0
M  V30 3737 H 339.376 0.667866 -0.349959 0
M  V30 3738 H 342.027 1.18794 -1.39858 0
M  V30 3739 H 340.409 3.79952 -1.11589 0
M  V30 3740 H 341.583 2.68167 -3.74731 0
M  V30 3741 H 339.898 2.55018 -3.29173 0
M  V30 3742 H 342.495 4.98194 -1.94183 0
M  V30 3743 H 342.838 4.13845 -0.451461 0
M  V30 3744 H 343.371 3.43894 -1.99954 0
M  V30 3745 H 340.11 4.43512 -4.82677 0
M  V30 3746 H 339.63 5.05406 -3.22994 0
M  V30 3747 H 341.309 5.24064 -3.79428 0
M  V30 3748 N 341.441 0.965919 1.2453 0
M  V30 3749 C 342.669 0.644385 1.96609 0
M  V30 3750 C 343.084 -0.785823 1.71669 0
M  V30 3751 O 342.441 -1.52703 0.999399 0
M  V30 3752 C 342.492 0.907375 3.49927 0
M  V30 3753 O 342.213 2.28136 3.74013 0
M  V30 3754 C 343.714 0.599784 4.39224 0
M  V30 3755 H 340.934 0.240588 0.626385 0
M  V30 3756 H 343.478 1.29337 1.58405 0
M  V30 3757 H 341.633 0.304631 3.862 0
M  V30 3758 H 342.047 2.36002 4.68405 0
M  V30 3759 H 343.521 0.834263 5.45659 0
M  V30 3760 H 343.998 -0.465921 4.36722 0
M  V30 3761 H 344.604 1.18235 4.08535 0
M  V30 3762 N 342.919 -1.39368 0.735821 0
M  V30 3763 C 344.149 -2.04498 0.293967 0
M  V30 3764 C 344.557 -1.55593 -1.07645 0
M  V30 3765 O 343.9 -0.716324 -1.69158 0
M  V30 3766 C 343.962 -3.58836 0.218342 0
M  V30 3767 C 343.626 -4.30721 1.52736 0
M  V30 3768 C 344.623 -4.57305 2.47322 0
M  V30 3769 C 342.308 -4.69251 1.79189 0
M  V30 3770 C 344.302 -5.21429 3.66593 0
M  V30 3771 C 341.989 -5.33104 2.98737 0
M  V30 3772 C 342.987 -5.59125 3.9226 0
M  V30 3773 O 342.675 -6.21653 5.09708 0
M  V30 3774 H 342.407 -0.664118 0.126189 0
M  V30 3775 H 344.961 -1.79385 1.00051 0
M  V30 3776 H 343.191 -3.8285 -0.544314 0
M  V30 3777 H 344.88 -4.05447 -0.191626 0
M  V30 3778 H 345.646 -4.27983 2.28156 0
M  V30 3779 H 341.525 -4.48354 1.07239 0
M  V30 3780 H 345.069 -5.41656 4.39607 0
M  V30 3781 H 340.966 -5.61846 3.17803 0
M  V30 3782 H 341.734 -6.40146 5.10054 0
M  V30 3783 N 344.397 -0.483516 -1.5 0
M  V30 3784 C 345.622 0.0667119 -2.07293 0
M  V30 3785 C 346.047 1.3164 -1.3436 0
M  V30 3786 O 345.405 1.76945 -0.394987 0
M  V30 3787 C 345.453 0.321126 -3.59167 0
M  V30 3788 O 344.557 1.39927 -3.87936 0
M  V30 3789 H 343.898 -0.0184758 -0.663743 0
M  V30 3790 H 346.428 -0.678125 -1.93035 0
M  V30 3791 H 346.438 0.557906 -4.04168 0
M  V30 3792 H 345.113 -0.592007 -4.11665 0
M  V30 3793 H 343.69 1.14882 -3.54763 0
M  V30 3794 N 345.875 1.56104 -0.216619 0
M  V30 3795 C 346.805 2.23063 0.690296 0
M  V30 3796 C 347.786 1.20072 1.20485 0
M  V30 3797 O 348.971 1.48643 1.24976 0
M  V30 3798 C 346.101 2.90672 1.90072 0
M  V30 3799 C 345.055 4.00092 1.5202 0
M  V30 3800 C 344.381 4.54972 2.80899 0
M  V30 3801 C 345.681 5.17398 0.71391 0
M  V30 3802 H 347.375 2.99109 0.132038 0
M  V30 3803 H 344.921 1.43866 0.0620664 0
M  V30 3804 H 346.874 3.36204 2.54057 0
M  V30 3805 H 345.598 2.12066 2.48386 0
M  V30 3806 H 344.257 3.55283 0.903839 0
M  V30 3807 H 343.905 3.73102 3.37348 0
M  V30 3808 H 343.605 5.28817 2.56176 0
M  V30 3809 H 345.129 5.0322 3.45836 0
M  V30 3810 H 346.543 5.59342 1.25735 0
M  V30 3811 H 344.94 5.97444 0.563951 0
M  V30 3812 H 346.01 4.84088 -0.280527 0
M  V30 3813 N 347.353 -0.0568162 1.57498 0
M  V30 3814 C 348.583 -0.764515 1.91934 0
M  V30 3815 C 348.991 -1.70877 0.81227 0
M  V30 3816 O 348.334 -1.82351 -0.222213 0
M  V30 3817 C 348.396 -1.5994 3.21962 0
M  V30 3818 C 348.06 -0.822925 4.4953 0
M  V30 3819 C 349.057 -0.135464 5.19723 0
M  V30 3820 C 346.742 -0.785666 4.96117 0
M  V30 3821 C 348.736 0.578861 6.34766 0
M  V30 3822 C 346.423 -0.0675784 6.11063 0
M  V30 3823 C 347.421 0.613471 6.80239 0
M  V30 3824 O 347.109 1.31996 7.92989 0
M  V30 3825 H 346.841 -0.221647 0.63863 0
M  V30 3826 H 349.395 -0.0268218 2.05382 0
M  V30 3827 H 347.625 -2.38026 3.04763 0
M  V30 3828 H 349.314 -2.18715 3.41934 0
M  V30 3829 H 350.08 -0.155458 4.84751 0
M  V30 3830 H 345.959 -1.30524 4.42136 0
M  V30 3831 H 349.503 1.111 6.88696 0
M  V30 3832 H 345.4 -0.0455636 6.45484 0
M  V30 3833 H 346.168 1.23077 8.09194 0
M  V30 3834 N 348.832 -1.54138 -0.328536 0
M  V30 3835 C 350.081 -1.71318 -1.06456 0
M  V30 3836 C 350.394 -0.491109 -1.89334 0
M  V30 3837 O 351.6 -0.54416 -2.65991 0
M  V30 3838 C 350.056 -3.03 -1.94214 0
M  V30 3839 C 349.664 -4.32595 -1.16471 0
M  V30 3840 C 351.408 -3.29544 -2.67583 0
M  V30 3841 C 349.315 -5.55341 -2.03347 0
M  V30 3842 H 348.245 -0.638429 -0.401155 0
M  V30 3843 H 350.896 -1.80633 -0.323106 0
M  V30 3844 H 349.278 -2.87579 -2.72239 0
M  V30 3845 H 350.452 -4.58766 -0.432525 0
M  V30 3846 H 348.767 -4.12777 -0.548063 0
M  V30 3847 H 351.364 -4.18444 -3.3288 0
M  V30 3848 H 351.707 -2.47206 -3.34955 0
M  V30 3849 H 352.24 -3.45809 -1.96623 0
M  V30 3850 H 348.979 -6.40268 -1.40491 0
M  V30 3851 H 348.499 -5.33397 -2.74313 0
M  V30 3852 H 350.178 -5.91557 -2.62049 0
M  V30 3853 N 350.31 0.590341 -1.46126 0
M  V30 3854 C 351.726 0.912917 -1.30912 0
M  V30 3855 C 351.926 1.99616 -0.274893 0
M  V30 3856 O 350.982 2.50397 0.325197 0
M  V30 3857 C 352.295 1.3375 -2.69317 0
M  V30 3858 C 353.843 1.45077 -2.77348 0
M  V30 3859 C 354.318 1.90904 -4.16317 0
M  V30 3860 N 355.809 1.9811 -4.18696 0
M  V30 3861 C 356.544 2.34828 -5.23109 0
M  V30 3862 N 356.04 2.70393 -6.37856 0
M  V30 3863 N 357.833 2.35317 -5.10473 0
M  V30 3864 H 349.984 -0.125358 -2.1203 0
M  V30 3865 H 352.247 0.00658481 -0.947977 0
M  V30 3866 H 351.953 0.615614 -3.4627 0
M  V30 3867 H 351.827 2.30058 -2.9892 0
M  V30 3868 H 354.214 2.16353 -2.00687 0
M  V30 3869 H 354.295 0.4704 -2.51438 0
M  V30 3870 H 353.939 1.20209 -4.9347 0
M  V30 3871 H 353.869 2.89886 -4.39629 0
M  V30 3872 H 356.36 1.73146 -3.359 0
M  V30 3873 H 356.673 2.97341 -7.13308 0
M  V30 3874 H 355.018 2.68048 -6.41229 0
M  V30 3875 H 358.209 2.0695 -4.19868 0
M  V30 3876 H 358.382 2.63605 -5.9196 0
M  V30 3877 N 351.788 1.33704 0.83433 0
M  V30 3878 C 353.204 1.13137 1.12571 0
M  V30 3879 C 353.404 -0.0747261 2.01361 0
M  V30 3880 O 352.46 -0.753647 2.4099 0
M  V30 3881 C 353.773 2.42105 1.78342 0
M  V30 3882 C 355.321 2.48054 1.90888 0
M  V30 3883 C 355.796 3.76995 2.60075 0
M  V30 3884 N 357.287 3.78092 2.67584 0
M  V30 3885 C 358.022 4.74574 3.21818 0
M  V30 3886 N 357.518 5.81434 3.76705 0
M  V30 3887 N 359.311 4.62044 3.20112 0
M  V30 3888 H 351.462 2.11 0.243489 0
M  V30 3889 H 353.725 0.932532 0.17055 0
M  V30 3890 H 353.431 3.30391 1.20561 0
M  V30 3891 H 353.305 2.54594 2.7832 0
M  V30 3892 H 355.692 1.60215 2.47821 0
M  V30 3893 H 355.773 2.39502 0.898459 0
M  V30 3894 H 355.417 4.65219 2.03799 0
M  V30 3895 H 355.347 3.82825 3.61597 0
M  V30 3896 H 357.838 3.00865 2.28667 0
M  V30 3897 H 358.151 6.51084 4.16305 0
M  V30 3898 H 356.496 5.85163 3.7498 0
M  V30 3899 H 359.687 3.77716 2.76493 0
M  V30 3900 H 359.86 5.37406 3.62076 0
M  V30 3901 N 353.266 -1.05314 1.17247 0
M  V30 3902 C 354.196 -2.1498 0.911362 0
M  V30 3903 C 355.177 -1.69471 -0.146169 0
M  V30 3904 O 356.362 -1.942 0.003812 0
M  V30 3905 C 353.492 -3.4472 0.422528 0
M  V30 3906 C 352.446 -4.03789 1.4191 0
M  V30 3907 C 351.772 -5.28858 0.788274 0
M  V30 3908 C 353.072 -4.41418 2.7919 0
M  V30 3909 H 354.766 -2.3708 1.82848 0
M  V30 3910 H 352.312 -1.13938 0.880569 0
M  V30 3911 H 354.265 -4.20787 0.227289 0
M  V30 3912 H 352.989 -3.22269 -0.530123 0
M  V30 3913 H 351.648 -3.2979 1.60106 0
M  V30 3914 H 351.296 -5.02709 -0.171173 0
M  V30 3915 H 350.996 -5.69338 1.45353 0
M  V30 3916 H 352.52 -6.07612 0.603282 0
M  V30 3917 H 353.934 -5.08524 2.64719 0
M  V30 3918 H 352.331 -4.92913 3.42282 0
M  V30 3919 H 353.401 -3.51819 3.33693 0
M  V30 3920 N 354.744 -0.972509 -1.24016 0
M  V30 3921 C 356.155 -0.67517 -1.74064 0
M  V30 3922 C 356.506 0.808939 -1.78747 0
M  V30 3923 O 355.631 1.63286 -1.42009 0
M  V30 3924 C 356.226 -1.21889 -3.16115 0
M  V30 3925 C 354.785 -0.971358 -3.6365 0
M  V30 3926 C 353.932 -1.35134 -2.42145 0
M  V30 3927 H 356.883 -1.14727 -1.09651 0
M  V30 3928 H 356.904 -0.587489 -3.75937 0
M  V30 3929 H 356.416 -2.29906 -3.12674 0
M  V30 3930 H 354.517 0.0930686 -3.72484 0
M  V30 3931 H 354.63 -1.62039 -4.50866 0
M  V30 3932 H 352.994 -0.769751 -2.4279 0
M  V30 3933 H 353.777 -2.4411 -2.41381 0
M  V30 3934 N 356.222 1.38976 -0.743202 0
M  V30 3935 C 357.152 2.33171 -0.123873 0
M  V30 3936 C 358.133 1.54336 0.71516 0
M  V30 3937 O 359.318 1.82696 0.658467 0
M  V30 3938 C 356.448 3.38474 0.777978 0
M  V30 3939 C 355.402 4.27979 0.0424758 0
M  V30 3940 C 354.728 5.2405 1.06189 0
M  V30 3941 C 356.028 5.10155 -1.1198 0
M  V30 3942 H 357.722 2.85213 -0.910709 0
M  V30 3943 H 355.268 1.37133 -0.439388 0
M  V30 3944 H 357.221 4.03328 1.22084 0
M  V30 3945 H 355.945 2.84891 1.59702 0
M  V30 3946 H 354.604 3.64616 -0.380853 0
M  V30 3947 H 354.252 4.66758 1.87472 0
M  V30 3948 H 353.952 5.84785 0.574485 0
M  V30 3949 H 355.476 5.9178 1.50428 0
M  V30 3950 H 356.89 5.68307 -0.75499 0
M  V30 3951 H 355.287 5.80073 -1.53738 0
M  V30 3952 H 356.357 4.44504 -1.93764 0
M  V30 3953 N 357.7 0.491464 1.49741 0
M  V30 3954 C 358.947 -0.0564256 2.02421 0
M  V30 3955 C 359.275 -1.37872 1.37192 0
M  V30 3956 O 358.53 -1.89375 0.493508 0
M  V30 3957 C 358.829 -0.267329 3.56399 0
M  V30 3958 C 358.495 0.975775 4.40215 0
M  V30 3959 C 357.157 1.31655 4.62839 0
M  V30 3960 C 359.509 1.80251 4.89039 0
M  V30 3961 C 356.837 2.48375 5.31532 0
M  V30 3962 C 359.189 2.96116 5.59015 0
M  V30 3963 C 357.853 3.30585 5.79888 0
M  V30 3964 H 357.123 -0.0206476 0.740712 0
M  V30 3965 H 359.77 0.649686 1.80143 0
M  V30 3966 H 358.075 -1.05588 3.77304 0
M  V30 3967 H 359.772 -0.705549 3.94744 0
M  V30 3968 H 356.362 0.700315 4.2284 0
M  V30 3969 H 360.546 1.55239 4.71396 0
M  V30 3970 H 355.802 2.7533 5.45897 0
M  V30 3971 H 359.976 3.60509 5.95824 0
M  V30 3972 H 357.603 4.21132 6.32892 0
M  V30 3973 N 359.178 -1.55987 0.224894 0
M  V30 3974 C 360.408 -2.02489 -0.41007 0
M  V30 3975 C 360.816 -1.10391 -1.53657 0
M  V30 3976 O 360.159 -0.106458 -1.83391 0
M  V30 3977 C 360.221 -3.45319 -0.999757 0
M  V30 3978 C 359.885 -4.56999 -0.00827976 0
M  V30 3979 C 360.882 -5.13812 0.793314 0
M  V30 3980 C 358.567 -5.02176 0.111442 0
M  V30 3981 C 360.561 -6.14276 1.7013 0
M  V30 3982 C 358.248 -6.02477 1.02296 0
M  V30 3983 C 359.246 -6.58403 1.81643 0
M  V30 3984 O 358.934 -7.56751 2.71262 0
M  V30 3985 H 358.666 -0.667915 -0.104235 0
M  V30 3986 H 361.22 -2.0257 0.339782 0
M  V30 3987 H 359.45 -3.42318 -1.79876 0
M  V30 3988 H 361.139 -3.7545 -1.54248 0
M  V30 3989 H 361.905 -4.79756 0.711288 0
M  V30 3990 H 357.784 -4.58323 -0.49605 0
M  V30 3991 H 361.328 -6.57854 2.32107 0
M  V30 3992 H 357.225 -6.35954 1.10599 0
M  V30 3993 H 357.993 -7.74286 2.65375 0
M  V30 3994 N 360.656 0.0484629 -1.57525 0
M  V30 3995 C 361.884 0.755421 -1.92616 0
M  V30 3996 C 362.299 1.69919 -0.822984 0
M  V30 3997 O 361.656 1.81378 0.202085 0
M  V30 3998 C 361.707 1.52915 -3.27566 0
M  V30 3999 O 361.428 0.62329 -4.33644 0
M  V30 4000 C 362.929 2.33502 -3.76818 0
M  V30 4001 H 360.149 0.213465 -0.63614 0
M  V30 4002 H 362.693 0.0117698 -2.04497 0
M  V30 4003 H 360.848 2.22486 -3.17142 0
M  V30 4004 H 361.262 1.16383 -5.11425 0
M  V30 4005 H 362.736 2.83214 -4.73808 0
M  V30 4006 H 363.213 3.14068 -3.07014 0
M  V30 4007 H 363.819 1.69043 -3.90262 0
M  V30 4008 N 362.134 1.5431 0.320358 0
M  V30 4009 C 363.383 1.7188 1.05546 0
M  V30 4010 C 363.696 0.501143 1.89071 0
M  V30 4011 O 364.902 0.558258 2.65699 0
M  V30 4012 C 363.358 3.04025 1.92605 0
M  V30 4013 C 362.966 4.33207 1.14176 0
M  V30 4014 C 364.71 3.30959 2.65832 0
M  V30 4015 C 362.617 5.56412 2.00399 0
M  V30 4016 H 361.547 0.640547 0.397763 0
M  V30 4017 H 364.198 1.80802 0.313522 0
M  V30 4018 H 362.58 2.89019 2.7071 0
M  V30 4019 H 363.754 4.58989 0.40819 0
M  V30 4020 H 362.069 4.13062 0.526165 0
M  V30 4021 H 364.666 4.20203 3.30656 0
M  V30 4022 H 365.009 2.48979 3.33639 0
M  V30 4023 H 365.542 3.46847 1.94787 0
M  V30 4024 H 362.281 6.41004 1.37094 0
M  V30 4025 H 361.801 5.34844 2.7148 0
M  V30 4026 H 363.48 5.92938 2.58908 0
M  V30 4027 N 363.613 -0.582584 1.46437 0
M  V30 4028 C 364.561 -1.71272 1.5738 0
M  V30 4029 C 365.555 -1.63524 0.44229 0
M  V30 4030 O 366.761 -1.69016 0.619166 0
M  V30 4031 H 363.136 -0.566273 0.494813 0
M  V30 4032 H 365.107 -1.59174 2.52401 0
M  V30 4033 C 363.856 -3.09658 1.58136 0
M  V30 4034 H 363.179 -3.16291 2.44541 0
M  V30 4035 H 364.619 -3.88494 1.69847 0
M  V30 4036 C 363.078 -3.3547 0.310026 0
M  V30 4037 O 363.608 -3.97199 -0.599683 0
M  V30 4038 N 361.814 -2.89925 0.197901 0
M  V30 4039 H 361.361 -2.39873 0.93909 0
M  V30 4040 H 361.319 -3.07568 -0.65185 0
M  V30 4041 N 365.091 -1.34144 -0.827227 0
M  V30 4042 C 366.021 -1.28005 -1.95287 0
M  V30 4043 C 367.002 -0.158321 -1.69362 0
M  V30 4044 O 368.187 -0.349987 -1.9102 0
M  V30 4045 C 365.317 -1.03036 -3.31664 0
M  V30 4046 C 364.271 -2.11628 -3.72019 0
M  V30 4047 C 363.597 -1.71854 -5.0633 0
M  V30 4048 C 364.897 -3.53417 -3.8457 0
M  V30 4049 H 366.591 -2.22187 -2.00682 0
M  V30 4050 H 364.137 -1.0696 -0.964135 0
M  V30 4051 H 366.09 -0.973863 -4.09993 0
M  V30 4052 H 364.814 -0.0529391 -3.26557 0
M  V30 4053 H 363.473 -2.16339 -2.95961 0
M  V30 4054 H 363.121 -0.727841 -4.97706 0
M  V30 4055 H 362.821 -2.44531 -5.34302 0
M  V30 4056 H 364.345 -1.67692 -5.87122 0
M  V30 4057 H 365.759 -3.51142 -4.5318 0
M  V30 4058 H 364.156 -4.24679 -4.2399 0
M  V30 4059 H 365.226 -3.91072 -2.86689 0
M  V30 4060 N 366.569 1.04691 -1.17803 0
M  V30 4061 C 367.818 1.77176 -0.963931 0
M  V30 4062 C 368.131 1.88888 0.508015 0
M  V30 4063 O 369.337 2.58164 0.840465 0
M  V30 4064 C 367.793 3.18518 -1.67555 0
M  V30 4065 C 367.401 3.14919 -3.18637 0
M  V30 4066 C 369.145 3.95424 -1.54402 0
M  V30 4067 C 367.052 4.51081 -3.82466 0
M  V30 4068 H 365.982 0.664116 -0.357023 0
M  V30 4069 H 368.633 1.17303 -1.4111 0
M  V30 4070 H 367.015 3.78748 -1.15613 0
M  V30 4071 H 368.189 2.64178 -3.77554 0
M  V30 4072 H 366.504 2.51512 -3.31859 0
M  V30 4073 H 369.101 4.96106 -1.99456 0
M  V30 4074 H 369.444 4.13343 -0.495329 0
M  V30 4075 H 369.977 3.41754 -2.0359 0
M  V30 4076 H 366.716 4.38368 -4.87354 0
M  V30 4077 H 366.236 5.01951 -3.28337 0
M  V30 4078 H 367.915 5.2001 -3.84965 0
M  V30 4079 N 368.047 0.979072 1.23499 0
M  V30 4080 C 369.296 0.642751 1.91185 0
M  V30 4081 C 369.609 -0.827253 1.77245 0
M  V30 4082 O 370.815 -1.27458 2.39722 0
M  V30 4083 C 369.271 1.09901 3.42709 0
M  V30 4084 C 368.879 2.59327 3.65313 0
M  V30 4085 C 370.623 0.836371 4.16179 0
M  V30 4086 C 368.53 2.98627 5.10467 0
M  V30 4087 H 367.46 0.236698 0.715884 0
M  V30 4088 H 370.111 1.1868 1.39955 0
M  V30 4089 H 368.493 0.48319 3.93041 0
M  V30 4090 H 369.667 3.26136 3.25533 0
M  V30 4091 H 367.982 2.83323 3.05151 0
M  V30 4092 H 370.579 1.10586 5.23139 0
M  V30 4093 H 370.922 -0.227509 4.15678 0
M  V30 4094 H 371.455 1.41371 3.71832 0
M  V30 4095 H 368.194 4.04133 5.16098 0
M  V30 4096 H 367.714 2.3651 5.51201 0
M  V30 4097 H 369.393 2.89159 5.78788 0
M  V30 4098 N 369.525 -1.3858 0.750561 0
M  V30 4099 C 370.936 -1.82927 0.373438 0
M  V30 4100 C 371.287 -1.62634 -1.09748 0
M  V30 4101 O 370.412 -1.12588 -1.84805 0
M  V30 4102 C 371.007 -3.32088 0.671029 0
M  V30 4103 C 369.566 -3.74795 0.34722 0
M  V30 4104 C 368.713 -2.61391 0.92575 0
M  V30 4105 H 371.664 -1.27351 0.946958 0
M  V30 4106 H 371.685 -3.80465 -0.0518269 0
M  V30 4107 H 371.197 -3.46826 1.74164 0
M  V30 4108 H 369.298 -3.65638 -0.716933 0
M  V30 4109 H 369.411 -4.71667 0.840656 0
M  V30 4110 H 367.775 -2.52265 0.351327 0
M  V30 4111 H 368.558 -2.78929 2.00133 0
M  V30 4112 N 371.003 -0.499398 -1.49478 0
M  V30 4113 C 372.243 0.0440751 -2.04352 0
M  V30 4114 C 372.607 1.34423 -1.37093 0
M  V30 4115 O 373.808 1.97184 -1.82679 0
M  V30 4116 C 372.079 0.194918 -3.56868 0
M  V30 4117 S 373.638 0.69287 -4.33295 0
M  V30 4118 H 370.456 0.00253458 -0.710995 0
M  V30 4119 H 373.058 -0.673 -1.83551 0
M  V30 4120 H 371.762 -0.756672 -4.03364 0
M  V30 4121 H 371.293 0.93728 -3.82071 0
M  V30 4122 H 373.308 1.96226 -4.55752 0
M  V30 4123 N 372.481 1.55866 -0.233164 0
M  V30 4124 C 373.411 2.23783 0.666599 0
M  V30 4125 C 374.392 1.21343 1.19205 0
M  V30 4126 O 375.577 1.4996 1.23392 0
M  V30 4127 C 372.707 2.92671 1.86978 0
M  V30 4128 C 371.661 4.01682 1.47768 0
M  V30 4129 C 370.987 4.57926 2.76058 0
M  V30 4130 C 372.287 5.18126 0.658993 0
M  V30 4131 H 373.981 2.99232 0.100306 0
M  V30 4132 H 371.527 1.43924 0.046804 0
M  V30 4133 H 373.48 3.3888 2.50476 0
M  V30 4134 H 372.204 2.14688 2.46123 0
M  V30 4135 H 370.863 3.56222 0.866106 0
M  V30 4136 H 370.511 3.76659 3.33372 0
M  V30 4137 H 370.211 5.31505 2.50552 0
M  V30 4138 H 371.735 5.06859 3.40479 0
M  V30 4139 H 373.149 5.60644 1.19795 0
M  V30 4140 H 371.546 5.98009 0.500552 0
M  V30 4141 H 372.616 4.83763 -0.331856 0
M  V30 4142 N 373.959 -0.0401083 1.57549 0
M  V30 4143 C 374.889 -1.04384 2.08869 0
M  V30 4144 C 375.87 -1.38407 0.988817 0
M  V30 4145 O 377.055 -1.47483 1.26342 0
M  V30 4146 C 374.185 -2.34808 2.55895 0
M  V30 4147 C 373.139 -2.15057 3.70047 0
M  V30 4148 C 372.465 -3.51145 4.03239 0
M  V30 4149 C 373.765 -1.54576 4.98902 0
M  V30 4150 H 375.459 -0.616666 2.92981 0
M  V30 4151 H 373.005 -0.295184 1.40942 0
M  V30 4152 H 374.958 -3.05346 2.90417 0
M  V30 4153 H 373.682 -2.79565 1.68853 0
M  V30 4154 H 372.341 -1.46954 3.35857 0
M  V30 4155 H 371.989 -3.93529 3.13279 0
M  V30 4156 H 371.689 -3.38758 4.80122 0
M  V30 4157 H 373.213 -4.23062 4.40285 0
M  V30 4158 H 374.627 -2.15017 5.31451 0
M  V30 4159 H 373.024 -1.52796 5.80322 0
M  V30 4160 H 374.094 -0.51039 4.82206 0
M  V30 4161 N 375.437 -1.54477 -0.31217 0
M  V30 4162 C 376.686 -1.72438 -1.04633 0
M  V30 4163 C 376.999 -0.511163 -1.88803 0
M  V30 4164 O 378.205 -0.572341 -2.65399 0
M  V30 4165 C 376.661 -3.05043 -1.9099 0
M  V30 4166 C 376.269 -4.33806 -1.11877 0
M  V30 4167 C 378.013 -3.32364 -2.64073 0
M  V30 4168 C 375.92 -5.57467 -1.97445 0
M  V30 4169 H 374.85 -0.642647 -0.394361 0
M  V30 4170 H 377.501 -1.80966 -0.303929 0
M  V30 4171 H 375.883 -2.90451 -2.69173 0
M  V30 4172 H 377.057 -4.59199 -0.383843 0
M  V30 4173 H 375.372 -4.13336 -0.504252 0
M  V30 4174 H 377.969 -4.21951 -3.28423 0
M  V30 4175 H 378.312 -2.50745 -3.32314 0
M  V30 4176 H 378.845 -3.47875 -1.92944 0
M  V30 4177 H 375.584 -6.41722 -1.33692 0
M  V30 4178 H 375.104 -5.36277 -2.6864 0
M  V30 4179 H 376.783 -5.94303 -2.5576 0
M  V30 4180 N 376.915 0.57481 -1.46744 0
M  V30 4181 C 378.14 1.36341 -1.56288 0
M  V30 4182 C 378.565 1.86954 -0.207347 0
M  V30 4183 O 377.923 1.62006 0.813871 0
M  V30 4184 C 377.971 2.52147 -2.57787 0
M  V30 4185 O 377.075 3.53834 -2.11838 0
M  V30 4186 H 376.416 0.405713 -0.525636 0
M  V30 4187 H 378.946 0.696453 -1.92382 0
M  V30 4188 H 378.956 2.98958 -2.77648 0
M  V30 4189 H 377.631 2.14663 -3.5622 0
M  V30 4190 H 376.208 3.1345 -2.01999 0
M  V30 4191 N 378.394 1.34581 0.820102 0
M  V30 4192 C 379.641 1.27096 1.57648 0
M  V30 4193 C 379.969 -0.158317 1.93855 0
M  V30 4194 O 379.224 -1.12028 1.60463 0
M  V30 4195 C 379.523 2.10997 2.8847 0
M  V30 4196 C 379.189 3.59966 2.71543 0
M  V30 4197 C 377.851 4.00575 2.66634 0
M  V30 4198 C 380.203 4.54548 2.55021 0
M  V30 4199 C 377.531 5.33953 2.43128 0
M  V30 4200 C 379.883 5.88109 2.33047 0
M  V30 4201 C 378.547 6.27878 2.26552 0
M  V30 4202 H 377.817 0.465078 0.576874 0
M  V30 4203 H 380.464 1.6635 0.948671 0
M  V30 4204 H 378.769 1.6458 3.55557 0
M  V30 4205 H 380.466 2.0255 3.46084 0
M  V30 4206 H 377.056 3.27733 2.76205 0
M  V30 4207 H 381.24 4.24069 2.57835 0
M  V30 4208 H 376.496 5.63781 2.3656 0
M  V30 4209 H 380.67 6.60985 2.19251 0
M  V30 4210 H 378.297 7.31162 2.081 0
M  V30 4211 N 379.872 -1.04064 1.18357 0
M  V30 4212 C 380.802 -2.14001 0.934113 0
M  V30 4213 C 381.783 -1.69616 -0.128186 0
M  V30 4214 O 382.968 -1.94185 0.0244093 0
M  V30 4215 C 380.098 -3.44253 0.459066 0
M  V30 4216 C 379.052 -4.02261 1.46185 0
M  V30 4217 C 378.378 -5.27992 0.844322 0
M  V30 4218 C 379.678 -4.38432 2.83856 0
M  V30 4219 H 381.372 -2.35127 1.85352 0
M  V30 4220 H 378.918 -1.12998 0.892604 0
M  V30 4221 H 380.871 -4.20522 0.271907 0
M  V30 4222 H 379.595 -3.22813 -0.495912 0
M  V30 4223 H 378.254 -3.28074 1.63595 0
M  V30 4224 H 377.902 -5.02862 -0.117845 0
M  V30 4225 H 377.602 -5.67765 1.51384 0
M  V30 4226 H 379.126 -6.06938 0.667693 0
M  V30 4227 H 380.54 -5.05688 2.70098 0
M  V30 4228 H 378.937 -4.89254 3.47491 0
M  V30 4229 H 380.007 -3.4826 3.37406 0
M  V30 4230 N 381.35 -0.985608 -1.22978 0
M  V30 4231 C 382.578 -0.675582 -1.95559 0
M  V30 4232 C 382.993 0.758413 -1.72897 0
M  V30 4233 O 382.35 1.51094 -1.02357 0
M  V30 4234 C 382.401 -0.96293 -3.48439 0
M  V30 4235 O 382.122 -2.34057 -3.70336 0
M  V30 4236 C 383.623 -0.669585 -4.38214 0
M  V30 4237 H 380.843 -0.250523 -0.622478 0
M  V30 4238 H 383.387 -1.3184 -1.56328 0
M  V30 4239 H 381.542 -0.366033 -3.85667 0
M  V30 4240 H 381.956 -2.43424 -4.64591 0
M  V30 4241 H 383.43 -0.920967 -5.44263 0
M  V30 4242 H 383.907 0.396383 -4.37408 0
M  V30 4243 H 384.513 -1.2472 -4.06602 0
M  V30 4244 N 382.828 1.3818 -0.7579 0
M  V30 4245 C 384.074 2.00316 -0.316453 0
M  V30 4246 C 384.407 1.60026 1.10025 0
M  V30 4247 O 383.682 0.839835 1.75434 0
M  V30 4248 C 383.965 3.57349 -0.444245 0
M  V30 4249 C 383.818 4.07591 -1.90236 0
M  V30 4250 C 385.137 4.3981 0.1598 0
M  V30 4251 H 382.256 0.727741 -0.116459 0
M  V30 4252 H 384.898 1.6406 -0.958352 0
M  V30 4253 H 383.048 3.88365 0.102233 0
M  V30 4254 H 384.72 3.87199 -2.50748 0
M  V30 4255 H 382.963 3.60297 -2.41595 0
M  V30 4256 H 383.634 5.16677 -1.94291 0
M  V30 4257 H 386.11 4.14971 -0.306314 0
M  V30 4258 H 384.986 5.48885 0.0401675 0
M  V30 4259 H 385.247 4.24102 1.24859 0
M  V30 4260 N 384.306 0.507319 1.49211 0
M  V30 4261 C 385.236 -0.256939 2.32082 0
M  V30 4262 C 386.217 -0.956609 1.40652 0
M  V30 4263 O 387.402 -0.946788 1.69557 0
M  V30 4264 C 384.532 -1.31802 3.21318 0
M  V30 4265 C 383.486 -0.737855 4.21592 0
M  V30 4266 C 382.812 -1.89992 4.99807 0
M  V30 4267 C 384.112 0.275325 5.21574 0
M  V30 4268 H 385.806 0.434798 2.96226 0
M  V30 4269 H 383.352 0.210546 1.42452 0
M  V30 4270 H 385.305 -1.86045 3.78107 0
M  V30 4271 H 384.029 -2.03903 2.5513 0
M  V30 4272 H 382.688 -0.217126 3.65956 0
M  V30 4273 H 382.336 -2.60877 4.30061 0
M  V30 4274 H 382.036 -1.51777 5.6766 0
M  V30 4275 H 383.56 -2.44657 5.59442 0
M  V30 4276 H 384.974 -0.179193 5.7302 0
M  V30 4277 H 383.371 0.573649 5.97352 0
M  V30 4278 H 384.441 1.18903 4.70096 0
M  V30 4279 N 385.784 -1.5574 0.241426 0
M  V30 4280 C 387.03 -1.99104 -0.385406 0
M  V30 4281 C 387.363 -1.1293 -1.57988 0
M  V30 4282 O 386.638 -0.191449 -1.93555 0
M  V30 4283 C 386.921 -3.51087 -0.800616 0
M  V30 4284 C 386.774 -4.48028 0.398874 0
M  V30 4285 C 388.093 -4.08015 -1.64959 0
M  V30 4286 H 385.212 -0.723848 -0.138614 0
M  V30 4287 H 387.854 -1.86903 0.341642 0
M  V30 4288 H 386.004 -3.61615 -1.4201 0
M  V30 4289 H 387.676 -4.49487 1.03726 0
M  V30 4290 H 385.919 -4.21077 1.04293 0
M  V30 4291 H 386.59 -5.51962 0.0651056 0
M  V30 4292 H 389.066 -4.00555 -1.12672 0
M  V30 4293 H 387.942 -5.14635 -1.90898 0
M  V30 4294 H 388.203 -3.56131 -2.61961 0
M  V30 4295 N 387.262 0.0317525 -1.57568 0
M  V30 4296 C 388.509 0.723104 -1.89149 0
M  V30 4297 C 388.837 1.75504 -0.838377 0
M  V30 4298 O 388.092 1.95037 0.160982 0
M  V30 4299 C 388.391 1.43167 -3.27472 0
M  V30 4300 C 388.057 0.535972 -4.47703 0
M  V30 4301 C 386.719 0.289262 -4.8033 0
M  V30 4302 C 389.071 -0.0826125 -5.21135 0
M  V30 4303 C 386.399 -0.584853 -5.83778 0
M  V30 4304 C 388.751 -0.944414 -6.25511 0
M  V30 4305 C 387.415 -1.20061 -6.56614 0
M  V30 4306 H 386.685 0.264602 -0.692146 0
M  V30 4307 H 389.332 -0.0169496 -1.91492 0
M  V30 4308 H 387.637 2.24497 -3.21105 0
M  V30 4309 H 389.334 1.97209 -3.49155 0
M  V30 4310 H 385.924 0.738414 -4.22191 0
M  V30 4311 H 390.108 0.0950302 -4.96209 0
M  V30 4312 H 385.364 -0.79168 -6.06253 0
M  V30 4313 H 389.538 -1.43026 -6.81554 0
M  V30 4314 H 387.165 -1.87967 -7.36595 0
M  V30 4315 N 388.74 1.54641 0.303973 0
M  V30 4316 C 389.97 1.77511 1.05705 0
M  V30 4317 C 390.378 0.533228 1.81531 0
M  V30 4318 O 389.721 -0.506423 1.76582 0
M  V30 4319 C 389.783 2.92779 2.08617 0
M  V30 4320 C 389.447 4.30977 1.52013 0
M  V30 4321 C 390.444 5.11115 0.9517 0
M  V30 4322 C 388.129 4.77571 1.55665 0
M  V30 4323 C 390.123 6.35966 0.427327 0
M  V30 4324 C 387.81 6.02384 1.02841 0
M  V30 4325 C 388.808 6.81417 0.464713 0
M  V30 4326 O 388.496 8.03881 -0.0555283 0
M  V30 4327 H 388.228 0.59579 0.319391 0
M  V30 4328 H 390.782 2.02401 0.349712 0
M  V30 4329 H 389.012 2.63506 2.83022 0
M  V30 4330 H 390.701 3.03252 2.69802 0
M  V30 4331 H 391.467 4.76264 0.916407 0
M  V30 4332 H 387.346 4.16085 1.9848 0
M  V30 4333 H 390.89 6.97599 -0.0133062 0
M  V30 4334 H 386.787 6.36723 1.06084 0
M  V30 4335 H 387.555 8.18479 0.0580522 0
M  V30 4336 N 390.218 -0.567019 1.47046 0
M  V30 4337 C 391.148 -1.68482 1.61667 0
M  V30 4338 C 392.129 -1.6358 0.466418 0
M  V30 4339 O 393.314 -1.81354 0.694574 0
M  V30 4340 C 390.444 -3.07124 1.62148 0
M  V30 4341 C 389.398 -3.26867 2.76301 0
M  V30 4342 C 388.724 -4.66196 2.61849 0
M  V30 4343 C 390.024 -3.13186 4.17986 0
M  V30 4344 H 391.718 -1.56502 2.5524 0
M  V30 4345 H 389.264 -0.751486 1.22836 0
M  V30 4346 H 391.217 -3.8516 1.70968 0
M  V30 4347 H 389.941 -3.2004 0.651287 0
M  V30 4348 H 388.6 -2.51237 2.66975 0
M  V30 4349 H 388.248 -4.75898 1.62879 0
M  V30 4350 H 387.948 -4.80356 3.38425 0
M  V30 4351 H 389.472 -5.46379 2.72584 0
M  V30 4352 H 390.886 -3.81049 4.2834 0
M  V30 4353 H 389.283 -3.3886 4.95272 0
M  V30 4354 H 390.353 -2.10057 4.3704 0
M  V30 4355 N 391.696 -1.35014 -0.812953 0
M  V30 4356 C 393.107 -1.25035 -1.38648 0
M  V30 4357 C 393.458 0.119967 -1.95833 0
M  V30 4358 O 392.583 1.02069 -1.90816 0
M  V30 4359 C 393.178 -2.26394 -2.52054 0
M  V30 4360 C 391.737 -2.20175 -3.05287 0
M  V30 4361 C 390.884 -2.12451 -1.78213 0
M  V30 4362 H 393.835 -1.46235 -0.616516 0
M  V30 4363 H 393.856 -1.88672 -3.30429 0
M  V30 4364 H 393.368 -3.26116 -2.10404 0
M  V30 4365 H 391.469 -1.23841 -3.51417 0
M  V30 4366 H 391.582 -3.11863 -3.63701 0
M  V30 4367 H 389.946 -1.58328 -1.9951 0
M  V30 4368 H 390.729 -3.14024 -1.38723 0
M  V30 4369 N 393.175 1.03435 -1.18907 0
M  V30 4370 C 394.4 1.80919 -1.01406 0
M  V30 4371 C 394.825 1.83055 0.432721 0
M  V30 4372 O 394.183 1.25252 1.31079 0
M  V30 4373 C 394.231 3.24091 -1.58105 0
M  V30 4374 O 393.335 4.04434 -0.806669 0
M  V30 4375 H 392.676 0.558709 -0.358803 0
M  V30 4376 H 395.206 1.30223 -1.57807 0
M  V30 4377 H 395.216 3.74853 -1.61087 0
M  V30 4378 H 393.891 3.21851 -2.6341 0
M  V30 4379 H 392.468 3.63091 -0.849666 0
M  V30 4380 N 394.653 0.992116 1.22453 0
M  V30 4381 C 395.93 0.583508 1.86694 0
M  V30 4382 C 396.31 -0.9392 1.89056 0
M  V30 4383 O 395.658 -1.82081 1.38053 0
M  V30 4384 C 395.868 1.20304 3.2761 0
M  V30 4385 C 397.216 1.30308 4.0411 0
M  V30 4386 O 398.24 1.15737 3.36873 0
M  V30 4387 O 397.099 1.53615 5.24466 0
M  V30 4388 H 394.193 0.198129 0.802916 0
M  V30 4389 H 396.739 1.08794 1.30238 0
M  V30 4390 H 395.511 2.24461 3.2052 0
M  V30 4391 H 395.134 0.684144 3.9167 0
M  V30 4392 N 396.131 -1.37776 0.765217 0
M  V30 4393 C 397.371 -2.01691 0.331669 0
M  V30 4394 C 397.735 -1.59432 -1.06983 0
M  V30 4395 O 398.936 -2.15761 -1.60314 0
M  V30 4396 C 397.207 -3.54385 0.463261 0
M  V30 4397 S 398.766 -4.38652 0.114011 0
M  V30 4398 H 395.584 -0.699387 0.127979 0
M  V30 4399 H 398.186 -1.68084 0.998396 0
M  V30 4400 H 396.89 -3.82629 1.48401 0
M  V30 4401 H 396.421 -3.92783 -0.220246 0
M  V30 4402 H 398.436 -4.84021 -1.09261 0
M  V30 4403 N 397.609 -0.515225 -1.4894 0
M  V30 4404 C 398.857 0.0241671 -2.02086 0
M  V30 4405 C 399.178 1.3616 -1.3959 0
M  V30 4406 O 398.448 1.87841 -0.556121 0
M  V30 4407 H 397.028 0.0119203 -0.746905 0
M  V30 4408 H 399.69 -0.675702 -1.82812 0
M  V30 4409 H 398.786 0.143385 -3.1177 0
M  V30 4410 N 399.087 1.5561 -0.249682 0
M  V30 4411 C 399.997 2.25143 0.659375 0
M  V30 4412 C 401.013 1.2685 1.19101 0
M  V30 4413 O 402.189 1.59732 1.22669 0
M  V30 4414 C 399.254 2.93945 1.8384 0
M  V30 4415 C 398.315 4.07655 1.34596 0
M  V30 4416 C 397.548 4.73167 2.46878 0
M  V30 4417 O 397.771 4.37768 3.65671 0
M  V30 4418 O 396.705 5.61623 2.16478 0
M  V30 4419 H 400.531 3.03545 0.0968698 0
M  V30 4420 H 398.116 1.49389 -0.018074 0
M  V30 4421 H 399.998 3.37271 2.52638 0
M  V30 4422 H 398.673 2.18481 2.38847 0
M  V30 4423 H 397.58 3.68839 0.625174 0
M  V30 4424 H 398.913 4.84946 0.841941 0
M  V30 4425 N 400.565 -0.0233959 1.57583 0
M  V30 4426 C 401.512 -1.02224 2.06927 0
M  V30 4427 C 402.482 -1.35575 0.959617 0
M  V30 4428 O 403.667 -1.45815 1.23055 0
M  V30 4429 C 400.807 -2.31636 2.5581 0
M  V30 4430 C 399.92 -2.04394 3.80588 0
M  V30 4431 C 399.055 -3.27717 4.18061 0
M  V30 4432 C 398.094 -2.96056 5.3574 0
M  V30 4433 N 397.231 -4.11847 5.68618 0
M  V30 4434 H 402.071 -0.594504 2.9201 0
M  V30 4435 H 399.608 -0.281921 1.44373 0
M  V30 4436 H 401.566 -3.07258 2.82221 0
M  V30 4437 H 400.196 -2.72122 1.73636 0
M  V30 4438 H 399.248 -1.19244 3.61227 0
M  V30 4439 H 400.56 -1.77042 4.66323 0
M  V30 4440 H 399.714 -4.11702 4.4563 0
M  V30 4441 H 398.453 -3.58188 3.30988 0
M  V30 4442 H 397.458 -2.10474 5.07918 0
M  V30 4443 H 398.683 -2.66857 6.24471 0
M  V30 4444 H 396.629 -4.42258 4.84504 0
M  V30 4445 H 396.546 -3.87938 6.48876 0
M  V30 4446 H 397.814 -4.96689 6.00766 0
M  V30 4447 N 402.043 -1.548 -0.295768 0
M  V30 4448 C 403.289 -1.74588 -1.03184 0
M  V30 4449 C 403.622 -0.532962 -1.86744 0
M  V30 4450 O 402.897 0.469872 -1.88739 0
M  V30 4451 C 403.18 -3.03791 -1.93347 0
M  V30 4452 C 403.033 -4.35392 -1.12933 0
M  V30 4453 C 404.352 -3.28892 -2.92435 0
M  V30 4454 H 401.471 -0.635221 -0.373715 0
M  V30 4455 H 404.113 -1.87519 -0.30606 0
M  V30 4456 H 402.263 -2.92898 -2.55232 0
M  V30 4457 H 403.935 -4.58211 -0.532943 0
M  V30 4458 H 402.178 -4.31642 -0.432168 0
M  V30 4459 H 402.849 -5.22074 -1.79284 0
M  V30 4460 H 405.325 -3.39429 -2.4068 0
M  V30 4461 H 404.201 -4.20603 -3.52682 0
M  V30 4462 H 404.462 -2.47437 -3.6637 0
M  V30 4463 N 403.521 0.559213 -1.47345 0
M  V30 4464 C 404.749 1.34194 -1.57479 0
M  V30 4465 C 405.164 1.87463 -0.224261 0
M  V30 4466 O 404.521 1.64888 0.782185 0
M  V30 4467 C 404.572 2.51324 -2.59843 0
M  V30 4468 O 404.293 2.00256 -3.89653 0
M  V30 4469 C 405.794 3.43563 -2.80142 0
M  V30 4470 H 403.014 0.409136 -0.531835 0
M  V30 4471 H 405.558 0.677609 -1.92947 0
M  V30 4472 H 403.713 3.13699 -2.27314 0
M  V30 4473 H 404.127 2.76708 -4.4557 0
M  V30 4474 H 405.601 4.2217 -3.55635 0
M  V30 4475 H 406.078 3.9698 -1.87892 0
M  V30 4476 H 406.684 2.87005 -3.1386 0
M  V30 4477 N 404.999 1.35443 0.805782 0
M  V30 4478 C 405.929 1.31095 1.93226 0
M  V30 4479 C 406.91 0.185244 1.69088 0
M  V30 4480 O 408.095 0.380332 1.90439 0
M  V30 4481 C 405.225 1.08299 3.29983 0
M  V30 4482 C 404.179 2.17519 3.68605 0
M  V30 4483 C 403.505 1.79887 5.03532 0
M  V30 4484 C 404.805 3.5949 3.78898 0
M  V30 4485 H 406.499 2.25352 1.97122 0
M  V30 4486 H 404.045 1.0848 0.946996 0
M  V30 4487 H 405.998 1.03897 4.08391 0
M  V30 4488 H 404.722 0.104885 3.26432 0
M  V30 4489 H 403.381 2.2102 2.92482 0
M  V30 4490 H 403.029 0.80693 4.96485 0
M  V30 4491 H 402.729 2.53001 5.30344 0
M  V30 4492 H 404.253 1.77011 5.84379 0
M  V30 4493 H 405.667 3.58307 4.47536 0
M  V30 4494 H 404.064 4.31371 4.1718 0
M  V30 4495 H 405.134 3.95584 2.80431 0
M  V30 4496 N 406.477 -1.02803 1.19454 0
M  V30 4497 C 407.717 -1.77769 1.00883 0
M  V30 4498 C 408.081 -1.86596 -0.45233 0
M  V30 4499 O 409.282 -2.57895 -0.757877 0
M  V30 4500 C 407.553 -3.16486 1.66046 0
M  V30 4501 S 409.112 -4.07632 1.62424 0
M  V30 4502 H 405.93 -0.611949 0.361993 0
M  V30 4503 H 408.532 -1.23175 1.51816 0
M  V30 4504 H 407.236 -3.0768 2.7159 0
M  V30 4505 H 406.767 -3.76156 1.15196 0
M  V30 4506 H 408.782 -4.91937 0.64903 0
M  V30 4507 N 407.956 -0.998596 -1.21925 0
M  V30 4508 C 409.205 -0.673085 -1.90138 0
M  V30 4509 C 409.518 0.79895 -1.78539 0
M  V30 4510 O 410.724 1.23628 -2.4172 0
M  V30 4511 C 409.18 -1.15339 -3.40918 0
M  V30 4512 C 408.788 -2.65106 -3.61141 0
M  V30 4513 C 410.532 -0.902476 -4.14796 0
M  V30 4514 C 408.439 -3.0671 -5.05651 0
M  V30 4515 H 407.369 -0.248057 -0.712028 0
M  V30 4516 H 410.02 -1.20891 -1.38049 0
M  V30 4517 H 408.402 -0.545658 -3.92223 0
M  V30 4518 H 409.576 -3.31274 -3.20304 0
M  V30 4519 H 407.891 -2.88142 -3.00605 0
M  V30 4520 H 410.488 -1.18895 -5.21314 0
M  V30 4521 H 410.831 0.161349 -4.15987 0
M  V30 4522 H 411.364 -1.47269 -3.69536 0
M  V30 4523 H 408.103 -4.12292 -5.09603 0
M  V30 4524 H 407.623 -2.45249 -5.47369 0
M  V30 4525 H 409.302 -2.9833 -5.74115 0
M  V30 4526 N 409.434 1.37368 -0.772513 0
M  V30 4527 C 410.659 2.0447 -0.347386 0
M  V30 4528 C 411.084 1.57882 1.0225 0
M  V30 4529 O 410.442 0.73941 1.65537 0
M  V30 4530 C 410.49 3.58369 -0.400479 0
M  V30 4531 O 409.594 4.0803 0.598789 0
M  V30 4532 H 408.935 0.646773 -0.15027 0
M  V30 4533 H 411.465 1.75667 -1.04892 0
M  V30 4534 H 411.475 4.07183 -0.258045 0
M  V30 4535 H 410.15 3.91633 -1.39986 0
M  V30 4536 H 408.727 3.70534 0.419411 0
M  V30 4537 N 410.912 0.523116 1.48665 0
M  V30 4538 C 412.158 -0.0134963 2.02796 0
M  V30 4539 C 412.491 -1.34582 1.40004 0
M  V30 4540 O 411.766 -1.86756 0.543381 0
M  V30 4541 C 412.049 -0.14276 3.59817 0
M  V30 4542 C 411.902 1.21425 4.331 0
M  V30 4543 C 413.221 -0.872856 4.31357 0
M  V30 4544 H 410.34 -0.00343074 0.736992 0
M  V30 4545 H 412.982 0.678816 1.7746 0
M  V30 4546 H 411.132 -0.732401 3.81534 0
M  V30 4547 H 412.804 1.84447 4.2282 0
M  V30 4548 H 411.047 1.79791 3.94788 0
M  V30 4549 H 411.718 1.07687 5.41394 0
M  V30 4550 H 414.194 -0.372555 4.14429 0
M  V30 4551 H 413.07 -0.932185 5.40927 0
M  V30 4552 H 413.331 -1.92161 3.98154 0
M  V30 4553 N 412.39 -1.55475 0.257931 0
M  V30 4554 C 413.32 -2.24815 -0.630912 0
M  V30 4555 C 414.301 -1.23224 -1.17259 0
M  V30 4556 O 415.486 -1.51904 -1.20991 0
M  V30 4557 C 412.616 -2.95609 -1.82298 0
M  V30 4558 C 411.57 -4.03982 -1.41359 0
M  V30 4559 C 410.896 -4.6226 -2.68738 0
M  V30 4560 C 412.196 -5.19109 -0.57648 0
M  V30 4561 H 413.89 -2.99354 -0.0526878 0
M  V30 4562 H 411.436 -1.4398 -0.023901 0
M  V30 4563 H 413.389 -3.42822 -2.45054 0
M  V30 4564 H 412.113 -2.18577 -2.42676 0
M  V30 4565 H 410.772 -3.57555 -0.809324 0
M  V30 4566 H 410.42 -3.81915 -3.27338 0
M  V30 4567 H 410.12 -5.35424 -2.42065 0
M  V30 4568 H 411.644 -5.12212 -3.32372 0
M  V30 4569 H 413.058 -5.62479 -1.10861 0
M  V30 4570 H 411.455 -5.98729 -0.405351 0
M  V30 4571 H 412.525 -4.83174 0.408776 0
M  V30 4572 N 413.868 0.0150385 -1.57593 0
M  V30 4573 C 414.798 1.01047 -2.10503 0
M  V30 4574 C 415.779 1.36816 -1.01071 0
M  V30 4575 O 416.964 1.45455 -1.28672 0
M  V30 4576 C 414.094 2.30708 -2.59598 0
M  V30 4577 C 413.048 2.09142 -3.73421 0
M  V30 4578 C 412.374 3.44685 -4.08774 0
M  V30 4579 C 413.674 1.46619 -5.01298 0
M  V30 4580 H 415.368 0.569978 -2.93925 0
M  V30 4581 H 412.914 0.272724 -1.41394 0
M  V30 4582 H 414.867 3.00687 -2.95238 0
M  V30 4583 H 413.591 2.76843 -1.73279 0
M  V30 4584 H 412.25 1.41592 -3.38153 0
M  V30 4585 H 411.898 3.88495 -3.195 0
M  V30 4586 H 411.598 3.31077 -4.8545 0
M  V30 4587 H 413.122 4.16004 -4.4696 0
M  V30 4588 H 414.536 2.06535 -5.34805 0
M  V30 4589 H 412.933 1.43544 -5.82679 0
M  V30 4590 H 414.003 0.433611 -4.82957 0
M  V30 4591 N 415.346 1.54954 0.287554 0
M  V30 4592 C 416.571 1.79209 1.04397 0
M  V30 4593 C 416.996 0.556431 1.79682 0
M  V30 4594 O 416.354 -0.493518 1.74454 0
M  V30 4595 C 416.402 3.00739 1.98969 0
M  V30 4596 O 415.506 2.74805 3.075 0
M  V30 4597 H 414.847 0.592755 0.299227 0
M  V30 4598 H 417.377 2.02068 0.320886 0
M  V30 4599 H 417.387 3.29077 2.4119 0
M  V30 4600 H 416.062 3.90329 1.43582 0
M  V30 4601 H 414.639 2.57523 2.69697 0
M  V30 4602 N 416.824 -0.551391 1.4764 0
M  V30 4603 C 417.754 -1.66757 1.63445 0
M  V30 4604 C 418.735 -1.63077 0.483742 0
M  V30 4605 O 419.92 -1.80607 0.71377 0
M  V30 4606 C 417.05 -3.05387 1.65396 0
M  V30 4607 C 416.004 -3.23918 2.79752 0
M  V30 4608 C 415.33 -4.63393 2.66779 0
M  V30 4609 C 416.63 -3.08735 4.21284 0
M  V30 4610 H 418.324 -1.53786 2.56886 0
M  V30 4611 H 415.87 -0.738415 1.23626 0
M  V30 4612 H 417.823 -3.83325 1.75043 0
M  V30 4613 H 416.547 -3.19332 0.685195 0
M  V30 4614 H 415.206 -2.48391 2.69625 0
M  V30 4615 H 414.854 -4.74144 1.67918 0
M  V30 4616 H 414.554 -4.7674 3.43501 0
M  V30 4617 H 416.078 -5.43458 2.78364 0
M  V30 4618 H 417.492 -3.76484 4.32357 0
M  V30 4619 H 415.889 -3.33588 4.98838 0
M  V30 4620 H 416.959 -2.0541 4.39243 0
M  V30 4621 N 418.302 -1.35869 -0.798587 0
M  V30 4622 C 419.53 -1.32722 -1.58722 0
M  V30 4623 C 419.945 0.0935631 -1.88568 0
M  V30 4624 O 419.302 1.04784 -1.49421 0
M  V30 4625 C 419.353 -2.13974 -2.91371 0
M  V30 4626 O 419.074 -3.50514 -2.62815 0
M  V30 4627 C 420.575 -2.18504 -3.85708 0
M  V30 4628 H 417.795 -0.45562 -0.492596 0
M  V30 4629 H 420.339 -1.78837 -0.991843 0
M  V30 4630 H 418.494 -1.71438 -3.47402 0
M  V30 4631 H 418.908 -3.92806 -3.47568 0
M  V30 4632 H 420.382 -2.79732 -4.75872 0
M  V30 4633 H 420.859 -1.18597 -4.22885 0
M  V30 4634 H 421.465 -2.61236 -3.35612 0
M  V30 4635 N 419.78 1.02168 -1.19998 0
M  V30 4636 C 421.026 1.75945 -1.00852 0
M  V30 4637 C 421.359 1.88702 0.458828 0
M  V30 4638 O 420.634 1.40911 1.34069 0
M  V30 4639 C 420.917 3.18154 -1.68671 0
M  V30 4640 C 420.77 3.13224 -3.22817 0
M  V30 4641 C 422.089 4.16711 -1.41561 0
M  V30 4642 H 419.208 0.638673 -0.367785 0
M  V30 4643 H 421.85 1.19222 -1.4794 0
M  V30 4644 H 420 3.66586 -1.28636 0
M  V30 4645 H 421.672 2.72635 -3.72112 0
M  V30 4646 H 419.915 2.50751 -3.53986 0
M  V30 4647 H 420.586 4.13728 -3.65422 0
M  V30 4648 H 423.062 3.76913 -1.76284 0
M  V30 4649 H 421.938 5.14391 -1.91553 0
M  V30 4650 H 422.199 4.40774 -0.342193 0
M  V30 4651 N 421.258 1.00505 1.21394 0
M  V30 4652 C 422.505 0.687774 1.90462 0
M  V30 4653 C 422.833 -0.78147 1.7811 0
M  V30 4654 O 422.088 -1.58208 1.1519 0
M  V30 4655 C 422.387 1.0546 3.41486 0
M  V30 4656 C 422.053 2.51812 3.74034 0
M  V30 4657 C 420.715 2.91804 3.82628 0
M  V30 4658 C 423.067 3.46614 3.8924 0
M  V30 4659 C 420.395 4.2556 4.03876 0
M  V30 4660 C 422.747 4.80044 4.11995 0
M  V30 4661 C 421.411 5.19759 4.18816 0
M  V30 4662 H 420.681 0.251674 0.696951 0
M  V30 4663 H 423.328 1.26349 1.43903 0
M  V30 4664 H 421.633 0.397133 3.89782 0
M  V30 4665 H 423.33 0.786976 3.93202 0
M  V30 4666 H 419.92 2.1982 3.67936 0
M  V30 4667 H 424.104 3.16883 3.81967 0
M  V30 4668 H 419.36 4.55901 4.07387 0
M  V30 4669 H 423.534 5.53439 4.22704 0
M  V30 4670 H 421.161 6.23418 4.35033 0
M  V30 4671 N 422.737 -1.36956 0.779787 0
M  V30 4672 C 423.667 -2.32761 0.185651 0
M  V30 4673 C 424.648 -1.56177 -0.673989 0
M  V30 4674 O 425.833 -1.84378 -0.609797 0
M  V30 4675 C 422.963 -3.40418 -0.687964 0
M  V30 4676 C 421.917 -4.27941 0.0710102 0
M  V30 4677 C 421.243 -5.26681 -0.922573 0
M  V30 4678 C 422.543 -5.07006 1.25467 0
M  V30 4679 H 424.237 -2.82698 0.986008 0
M  V30 4680 H 421.783 -1.3592 0.475592 0
M  V30 4681 H 423.736 -4.06423 -1.11348 0
M  V30 4682 H 422.46 -2.89025 -1.52093 0
M  V30 4683 H 421.119 -3.63478 0.47739 0
M  V30 4684 H 420.767 -4.71565 -1.7503 0
M  V30 4685 H 420.467 -5.86103 -0.419237 0
M  V30 4686 H 421.991 -5.9556 -1.34686 0
M  V30 4687 H 423.405 -5.66105 0.905401 0
M  V30 4688 H 421.802 -5.75793 1.69063 0
M  V30 4689 H 422.872 -4.3921 2.05481 0
M  V30 4690 N 424.215 -0.530993 -1.48385 0
M  V30 4691 C 425.145 0.219985 -2.32461 0
M  V30 4692 C 426.126 0.934111 -1.42156 0
M  V30 4693 O 427.311 0.919694 -1.71042 0
M  V30 4694 C 424.441 1.26674 -3.23375 0
M  V30 4695 C 423.395 0.67069 -4.22712 0
M  V30 4696 C 422.721 1.82017 -5.02766 0
M  V30 4697 C 424.021 -0.358268 -5.2107 0
M  V30 4698 H 425.715 -0.48187 -2.95497 0
M  V30 4699 H 423.261 -0.233182 -1.42099 0
M  V30 4700 H 425.214 1.80006 -3.81019 0
M  V30 4701 H 423.938 1.99818 -2.58341 0
M  V30 4702 H 422.597 0.158878 -3.66256 0
M  V30 4703 H 422.245 2.54002 -4.34157 0
M  V30 4704 H 421.945 1.42727 -5.70003 0
M  V30 4705 H 423.469 2.35725 -5.63264 0
M  V30 4706 H 424.883 0.0880081 -5.73232 0
M  V30 4707 H 423.28 -0.66861 -5.96364 0
M  V30 4708 H 424.35 -1.26367 -4.68145 0
M  V30 4709 N 425.693 1.55336 -0.266172 0
M  V30 4710 C 426.939 1.99692 0.353681 0
M  V30 4711 C 427.272 1.1543 1.56172 0
M  V30 4712 O 426.547 0.222218 1.93226 0
M  V30 4713 C 426.83 3.52316 0.74466 0
M  V30 4714 C 426.683 4.47337 -0.470101 0
M  V30 4715 C 428.002 4.10588 1.58447 0
M  V30 4716 H 425.121 0.725961 0.12708 0
M  V30 4717 H 427.763 1.86336 -0.371333 0
M  V30 4718 H 425.913 3.63829 1.36239 0
M  V30 4719 H 427.585 4.4778 -1.10864 0
M  V30 4720 H 425.828 4.19364 -1.10978 0
M  V30 4721 H 426.499 5.51788 -0.15291 0
M  V30 4722 H 428.975 4.02297 1.06286 0
M  V30 4723 H 427.851 5.17607 1.82686 0
M  V30 4724 H 428.112 3.60253 2.56262 0
M  V30 4725 N 427.171 -0.0066808 1.57599 0
M  V30 4726 C 428.42 -0.692078 1.89455 0
M  V30 4727 C 428.733 -1.75306 0.867586 0
M  V30 4728 O 429.939 -2.49262 1.07614 0
M  V30 4729 C 428.395 -1.2821 3.36289 0
M  V30 4730 C 428.003 -0.256291 4.47266 0
M  V30 4731 C 429.747 -1.94608 3.77264 0
M  V30 4732 C 427.654 -0.855927 5.85173 0
M  V30 4733 H 426.584 -0.262252 0.706923 0
M  V30 4734 H 429.235 0.052769 1.83424 0
M  V30 4735 H 427.617 -2.0774 3.37135 0
M  V30 4736 H 428.791 0.513923 4.57925 0
M  V30 4737 H 427.106 0.306862 4.15268 0
M  V30 4738 H 429.703 -2.40364 4.77629 0
M  V30 4739 H 430.046 -2.77382 3.10427 0
M  V30 4740 H 430.579 -1.21822 3.78688 0
M  V30 4741 H 427.318 -0.0671161 6.55466 0
M  V30 4742 H 426.838 -1.59546 5.78191 0
M  V30 4743 H 428.517 -1.35658 6.32618 0
M  V30 4744 N 428.649 -1.55105 -0.279332 0
M  V30 4745 C 429.877 -1.7943 -1.03017 0
M  V30 4746 C 430.292 -0.564456 -1.80165 0
M  V30 4747 O 429.649 0.466326 -1.76442 0
M  V30 4748 C 429.7 -3.0155 -1.99374 0
M  V30 4749 O 429.421 -4.19784 -1.25352 0
M  V30 4750 C 430.922 -3.3843 -2.86321 0
M  V30 4751 H 428.142 -0.597882 -0.304594 0
M  V30 4752 H 430.686 -2.02105 -0.312035 0
M  V30 4753 H 428.841 -2.81019 -2.66659 0
M  V30 4754 H 429.255 -4.88781 -1.90246 0
M  V30 4755 H 430.729 -4.27066 -3.49741 0
M  V30 4756 H 431.206 -2.57549 -3.5576 0
M  V30 4757 H 431.812 -3.61197 -2.24536 0
M  V30 4758 N 430.127 0.543554 -1.4793 0
M  V30 4759 C 431.037 1.67657 -1.64098 0
M  V30 4760 C 432.053 1.65934 -0.523622 0
M  V30 4761 O 433.229 1.85133 -0.792943 0
M  V30 4762 C 430.294 3.04146 -1.66421 0
M  V30 4763 C 429.355 3.16831 -2.89684 0
M  V30 4764 C 428.588 4.46809 -2.91886 0
M  V30 4765 O 428.811 5.33095 -2.02895 0
M  V30 4766 O 427.745 4.63573 -3.83906 0
M  V30 4767 H 431.571 1.56957 -2.59997 0
M  V30 4768 H 429.156 0.715116 -1.31173 0
M  V30 4769 H 431.038 3.85346 -1.70548 0
M  V30 4770 H 429.713 3.152 -0.736923 0
M  V30 4771 H 428.62 2.34977 -2.91095 0
M  V30 4772 H 429.953 3.10687 -3.81752 0
M  V30 4773 N 431.605 1.3629 0.791371 0
M  V30 4774 C 432.833 1.33562 1.58016 0
M  V30 4775 C 433.248 -0.0835616 1.88615 0
M  V30 4776 O 432.605 -1.0399 1.49974 0
M  V30 4777 C 432.656 2.15517 2.90232 0
M  V30 4778 O 432.377 3.51902 2.60953 0
M  V30 4779 C 433.878 2.20546 3.84544 0
M  V30 4780 H 431.098 0.458226 0.490173 0
M  V30 4781 H 433.642 1.79361 0.982345 0
M  V30 4782 H 431.797 1.73278 3.46487 0
M  V30 4783 H 432.211 3.94644 3.4548 0
M  V30 4784 H 433.685 2.82252 4.74382 0
M  V30 4785 H 434.162 1.20838 4.2225 0
M  V30 4786 H 434.768 2.63013 3.34222 0
M  V30 4787 N 433.083 -1.0153 1.20538 0
M  V30 4788 C 434.332 -1.74558 1.01057 0
M  V30 4789 C 434.645 -1.90168 -0.457756 0
M  V30 4790 O 435.851 -2.60301 -0.771722 0
M  V30 4791 C 434.307 -3.13963 1.75941 0
M  V30 4792 C 433.915 -3.06361 3.26875 0
M  V30 4793 C 435.659 -3.91191 1.64832 0
M  V30 4794 C 433.566 -4.40782 3.94291 0
M  V30 4795 H 432.496 -0.654417 0.374505 0
M  V30 4796 H 435.147 -1.13521 1.44171 0
M  V30 4797 H 433.529 -3.75549 1.25614 0
M  V30 4798 H 434.703 -2.54074 3.84425 0
M  V30 4799 H 433.018 -2.42625 3.38411 0
M  V30 4800 H 435.615 -4.90644 2.12539 0
M  V30 4801 H 435.958 -4.11884 0.604745 0
M  V30 4802 H 436.491 -3.36236 2.12579 0
M  V30 4803 H 433.23 -4.25292 4.98805 0
M  V30 4804 H 432.75 -4.9307 3.41529 0
M  V30 4805 H 434.429 -5.09621 3.98617 0
M  V30 4806 N 434.561 -1.01147 -1.20859 0
M  V30 4807 C 435.972 -0.730205 -1.71828 0
M  V30 4808 C 436.323 0.751662 -1.8123 0
M  V30 4809 O 435.448 1.58686 -1.47132 0
M  V30 4810 C 436.043 -1.31885 -3.12077 0
M  V30 4811 C 434.602 -1.08656 -3.60376 0
M  V30 4812 C 433.749 -1.42769 -2.37723 0
M  V30 4813 H 436.7 -1.18158 -1.05945 0
M  V30 4814 H 436.721 -0.706793 -3.73878 0
M  V30 4815 H 436.233 -2.39737 -3.05201 0
M  V30 4816 H 434.334 -0.0254814 -3.72591 0
M  V30 4817 H 434.447 -1.76301 -4.45483 0
M  V30 4818 H 432.811 -0.846603 -2.40218 0
M  V30 4819 H 433.594 -2.51666 -2.33493 0
M  V30 4820 N 436.039 1.36541 -0.78704 0
M  V30 4821 C 437.264 2.0409 -0.369053 0
M  V30 4822 C 437.689 1.58957 1.00569 0
M  V30 4823 O 437.047 0.756926 1.64743 0
M  V30 4824 C 437.095 3.57924 -0.438466 0
M  V30 4825 O 436.199 4.08642 0.555479 0
M  V30 4826 H 435.54 0.645142 -0.157122 0
M  V30 4827 H 438.07 1.74545 -1.06749 0
M  V30 4828 H 438.08 4.06887 -0.301218 0
M  V30 4829 H 436.755 3.90127 -1.44132 0
M  V30 4830 H 435.332 3.70958 0.380088 0
M  V30 4831 N 437.518 0.538854 1.48102 0
M  V30 4832 C 438.746 0.0123136 2.06896 0
M  V30 4833 C 439.161 -1.27312 1.39417 0
M  V30 4834 O 438.518 -1.75949 0.484582 0
M  V30 4835 C 438.569 -0.206118 3.60912 0
M  V30 4836 O 438.29 1.0284 4.25859 0
M  V30 4837 C 439.791 -0.772033 4.36526 0
M  V30 4838 H 437.011 0.0375239 0.66995 0
M  V30 4839 H 439.555 0.747032 1.90367 0
M  V30 4840 H 437.71 -0.89091 3.77017 0
M  V30 4841 H 438.124 0.814654 5.18135 0
M  V30 4842 H 439.598 -0.874251 5.45033 0
M  V30 4843 H 440.075 -1.77904 4.01555 0
M  V30 4844 H 440.681 -0.123526 4.25121 0
M  V30 4845 N 438.996 -1.55193 0.274407 0
M  V30 4846 C 440.221 -2.04446 -0.348824 0
M  V30 4847 C 440.646 -1.15149 -1.48735 0
M  V30 4848 O 440.004 -0.149952 -1.80679 0
M  V30 4849 C 440.052 -3.51431 -0.808009 0
M  V30 4850 O 439.156 -3.65225 -1.91531 0
M  V30 4851 H 438.497 -0.66006 -0.0722276 0
M  V30 4852 H 441.027 -2.00481 0.408498 0
M  V30 4853 H 441.037 -3.92781 -1.10395 0
M  V30 4854 H 439.712 -4.15892 0.0249865 0
M  V30 4855 H 438.289 -3.35778 -1.62196 0
M  V30 4856 N 440.474 -0.00167713 -1.576 0
M  V30 4857 C 441.404 0.988091 -2.11563 0
M  V30 4858 C 442.385 1.35736 -1.02517 0
M  V30 4859 O 443.57 1.44082 -1.30208 0
M  V30 4860 C 440.7 2.27941 -2.62031 0
M  V30 4861 C 439.654 2.0517 -3.75619 0
M  V30 4862 C 438.98 3.4033 -4.12407 0
M  V30 4863 C 440.28 1.41294 -5.02825 0
M  V30 4864 H 441.974 0.538771 -2.94513 0
M  V30 4865 H 439.52 0.257712 -1.41675 0
M  V30 4866 H 441.473 2.97539 -2.9841 0
M  V30 4867 H 440.197 2.74989 -1.76205 0
M  V30 4868 H 438.856 1.37998 -3.39635 0
M  V30 4869 H 438.504 3.85085 -3.23603 0
M  V30 4870 H 438.204 3.25909 -4.88935 0
M  V30 4871 H 439.728 4.1124 -4.51347 0
M  V30 4872 H 441.142 2.00851 -5.36965 0
M  V30 4873 H 439.539 1.37356 -5.84169 0
M  V30 4874 H 440.609 0.382362 -4.8339 0
M  V30 4875 N 441.952 1.55251 0.271103 0
M  V30 4876 C 443.198 1.76207 1.00394 0
M  V30 4877 C 443.531 0.562604 1.85872 0
M  V30 4878 O 442.806 -0.439785 1.89463 0
M  V30 4879 C 443.089 3.06828 1.8849 0
M  V30 4880 C 442.942 4.37134 1.05992 0
M  V30 4881 C 444.261 3.33503 2.87165 0
M  V30 4882 H 441.38 0.641086 0.363562 0
M  V30 4883 H 444.022 1.87982 0.276189 0
M  V30 4884 H 442.172 2.96921 2.5054 0
M  V30 4885 H 443.844 4.59001 0.459978 0
M  V30 4886 H 442.087 4.32275 0.363443 0
M  V30 4887 H 442.758 5.2486 1.70955 0
M  V30 4888 H 445.234 3.43215 2.3525 0
M  V30 4889 H 444.11 4.2616 3.45946 0
M  V30 4890 H 444.371 2.53235 3.62387 0
M  V30 4891 N 443.43 -0.535701 1.48216 0
M  V30 4892 C 444.679 -1.28828 1.55197 0
M  V30 4893 C 444.992 -1.94263 0.228278 0
M  V30 4894 O 446.198 -2.70927 0.176278 0
M  V30 4895 C 444.654 -2.33727 2.73678 0
M  V30 4896 C 444.262 -1.74386 4.12666 0
M  V30 4897 C 446.006 -3.1003 2.89968 0
M  V30 4898 C 443.913 -2.77192 5.22416 0
M  V30 4899 H 442.843 -0.484484 0.577747 0
M  V30 4900 H 445.494 -0.56646 1.74538 0
M  V30 4901 H 443.876 -3.08919 2.4776 0
M  V30 4902 H 445.05 -1.05421 4.48579 0
M  V30 4903 H 443.365 -1.10595 4.01445 0
M  V30 4904 H 445.962 -3.86842 3.6913 0
M  V30 4905 H 446.305 -3.65542 1.9921 0
M  V30 4906 H 446.838 -2.41952 3.15759 0
M  V30 4907 H 443.577 -2.26507 6.15122 0
M  V30 4908 H 443.097 -3.44502 4.90998 0
M  V30 4909 H 444.776 -3.40285 5.50286 0
M  V30 4910 N 444.908 -1.36708 -0.784132 0
M  V30 4911 C 446.319 -1.27947 -1.35965 0
M  V30 4912 C 446.67 0.0784013 -1.96043 0
M  V30 4913 O 445.795 0.979989 -1.92938 0
M  V30 4914 C 446.39 -2.31689 -2.47195 0
M  V30 4915 C 444.949 -2.26601 -3.00548 0
M  V30 4916 C 444.096 -2.16184 -1.73666 0
M  V30 4917 H 447.047 -1.4751 -0.585358 0
M  V30 4918 H 447.068 -1.95638 -3.26352 0
M  V30 4919 H 446.58 -3.30506 -2.03439 0
M  V30 4920 H 444.681 -1.31268 -3.48711 0
M  V30 4921 H 444.794 -3.19508 -3.57004 0
M  V30 4922 H 443.158 -1.62524 -1.96107 0
M  V30 4923 H 443.941 -3.16896 -1.32031 0
M  V30 4924 N 446.386 1.0089 -1.21074 0
M  V30 4925 C 447.316 2.1145 -0.990523 0
M  V30 4926 C 448.297 1.69897 0.0831699 0
M  V30 4927 O 449.482 1.94052 -0.0758853 0
M  V30 4928 C 446.612 3.42914 -0.550177 0
M  V30 4929 C 445.566 3.98244 -1.56799 0
M  V30 4930 C 444.892 5.25568 -0.984013 0
M  V30 4931 C 446.192 4.30752 -2.95381 0
M  V30 4932 H 447.886 2.3013 -1.91521 0
M  V30 4933 H 445.432 1.10592 -0.92225 0
M  V30 4934 H 447.385 4.19653 -0.383305 0
M  V30 4935 H 446.109 3.24014 0.41015 0
M  V30 4936 H 444.768 3.23621 -1.72236 0
M  V30 4937 H 444.416 5.02998 -0.0155216 0
M  V30 4938 H 444.116 5.63551 -1.66384 0
M  V30 4939 H 445.64 6.04955 -0.828378 0
M  V30 4940 H 447.054 4.98349 -2.8341 0
M  V30 4941 H 445.451 4.79869 -3.60341 0
M  V30 4942 H 446.521 3.39192 -3.46521 0
M  V30 4943 N 447.864 1.01787 1.20321 0
M  V30 4944 C 449.113 0.703249 1.89043 0
M  V30 4945 C 449.426 -0.770445 1.79787 0
M  V30 4946 O 450.632 -1.19767 2.43656 0
M  V30 4947 C 449.088 1.20749 3.3904 0
M  V30 4948 C 448.696 2.70817 3.56878 0
M  V30 4949 C 450.44 0.968352 4.13308 0
M  V30 4950 C 448.347 3.14716 5.00708 0
M  V30 4951 H 447.277 0.259354 0.707991 0
M  V30 4952 H 449.928 1.23072 1.36108 0
M  V30 4953 H 448.31 0.607989 3.91305 0
M  V30 4954 H 449.484 3.36327 3.14993 0
M  V30 4955 H 447.799 2.92888 2.95983 0
M  V30 4956 H 450.396 1.27173 5.19356 0
M  V30 4957 H 450.739 -0.095149 4.16191 0
M  V30 4958 H 451.272 1.53129 3.67146 0
M  V30 4959 H 448.011 4.20347 5.02979 0
M  V30 4960 H 447.531 2.53927 5.43398 0
M  V30 4961 H 449.21 3.07426 5.69296 0
M  V30 4962 N 449.342 -1.36122 0.79427 0
M  V30 4963 C 450.59 -1.98718 0.368177 0
M  V30 4964 C 450.911 -1.63345 -1.06506 0
M  V30 4965 O 450.181 -0.909825 -1.73491 0
M  V30 4966 H 448.761 -0.735038 0.133146 0
M  V30 4967 H 451.423 -1.66239 1.01739 0
M  V30 4968 H 450.519 -3.08633 0.463923 0
M  V30 4969 N 450.82 -0.546701 -1.47814 0
M  V30 4970 C 451.73 0.21026 -2.33656 0
M  V30 4971 C 452.746 0.922413 -1.47538 0
M  V30 4972 O 453.922 0.893652 -1.80488 0
M  V30 4973 C 450.987 1.23348 -3.24016 0
M  V30 4974 C 450.048 0.529883 -4.26017 0
M  V30 4975 C 449.281 1.50435 -5.12059 0
M  V30 4976 O 449.504 2.73837 -5.00369 0
M  V30 4977 O 448.438 1.03459 -5.92942 0
M  V30 4978 H 452.264 -0.493605 -2.99662 0
M  V30 4979 H 449.849 -0.307427 -1.46203 0
M  V30 4980 H 451.731 1.82438 -3.79861 0
M  V30 4981 H 450.406 1.91945 -2.60651 0
M  V30 4982 H 449.313 -0.101948 -3.73961 0
M  V30 4983 H 450.646 -0.11445 -4.92067 0
M  V30 4984 N 452.299 1.55045 -0.282633 0
M  V30 4985 C 453.529 2.03872 0.334635 0
M  V30 4986 C 453.937 1.16018 1.49454 0
M  V30 4987 O 453.28 0.174449 1.8287 0
M  V30 4988 C 453.342 3.48791 0.870905 0
M  V30 4989 C 453.006 4.56715 -0.161338 0
M  V30 4990 C 454.003 5.10513 -0.983466 0
M  V30 4991 C 451.688 5.01417 -0.297745 0
M  V30 4992 C 453.682 6.07538 -1.92811 0
M  V30 4993 C 451.369 5.98265 -1.24586 0
M  V30 4994 C 452.367 6.51208 -2.05954 0
M  V30 4995 O 452.055 7.46162 -2.99162 0
M  V30 4996 H 451.787 0.671324 0.0793742 0
M  V30 4997 H 454.341 2.01169 -0.41473 0
M  V30 4998 H 452.571 3.48758 1.67047 0
M  V30 4999 H 454.26 3.80916 1.40207 0
M  V30 5000 H 455.026 4.76785 -0.888856 0
M  V30 5001 H 450.905 4.59849 0.325604 0
M  V30 5002 H 454.449 6.48787 -2.56363 0
M  V30 5003 H 450.346 6.31412 -1.34126 0
M  V30 5004 H 451.114 7.63903 -2.93929 0
M  V30 5005 N 453.777 0.010035 1.57597 0
M  V30 5006 C 454.707 -0.976857 2.12084 0
M  V30 5007 C 455.688 -1.35191 1.03235 0
M  V30 5008 O 456.873 -1.43389 1.3097 0
M  V30 5009 C 454.003 -2.26548 2.63236 0
M  V30 5010 C 452.957 -2.03175 3.76701 0
M  V30 5011 C 452.283 -3.38138 4.14206 0
M  V30 5012 C 453.583 -1.38625 5.03568 0
M  V30 5013 H 455.277 -0.523145 2.94794 0
M  V30 5014 H 452.823 -0.250195 1.4181 0
M  V30 5015 H 454.776 -2.95952 2.99984 0
M  V30 5016 H 453.5 -2.74051 1.77661 0
M  V30 5017 H 452.159 -1.36195 3.40362 0
M  V30 5018 H 451.807 -3.83363 3.25641 0
M  V30 5019 H 451.507 -3.23312 4.90656 0
M  V30 5020 H 453.031 -4.08841 4.53521 0
M  V30 5021 H 454.445 -1.98 5.38023 0
M  V30 5022 H 452.842 -1.34256 5.84889 0
M  V30 5023 H 453.912 -0.356722 4.83586 0
M  V30 5024 N 455.255 -1.55392 -0.262866 0
M  V30 5025 C 456.185 -1.91978 -1.32917 0
M  V30 5026 C 457.166 -0.7828 -1.51017 0
M  V30 5027 O 458.351 -1.04178 -1.63892 0
M  V30 5028 C 455.481 -2.20055 -2.68687 0
M  V30 5029 C 454.435 -3.35854 -2.65304 0
M  V30 5030 C 453.761 -3.49435 -4.04721 0
M  V30 5031 C 455.061 -4.71977 -2.23685 0
M  V30 5032 H 456.755 -2.81292 -1.02544 0
M  V30 5033 H 454.301 -1.3534 -0.491846 0
M  V30 5034 H 456.254 -2.44237 -3.43404 0
M  V30 5035 H 454.978 -1.27551 -3.00663 0
M  V30 5036 H 453.637 -3.11655 -1.93045 0
M  V30 5037 H 453.285 -2.54379 -4.33936 0
M  V30 5038 H 452.985 -4.27297 -4.0335 0
M  V30 5039 H 454.509 -3.7592 -4.81161 0
M  V30 5040 H 455.923 -4.95637 -2.88127 0
M  V30 5041 H 454.32 -5.52828 -2.33456 0
M  V30 5042 H 455.39 -4.70115 -1.18827 0
M  V30 5043 N 456.733 0.527833 -1.48498 0
M  V30 5044 C 457.98 1.28354 -1.56625 0
M  V30 5045 C 458.308 1.93 -0.241096 0
M  V30 5046 O 457.563 1.79967 0.768798 0
M  V30 5047 C 457.862 2.39275 -2.65485 0
M  V30 5048 C 457.528 1.92268 -4.07853 0
M  V30 5049 C 456.19 1.79166 -4.46602 0
M  V30 5050 C 458.542 1.56771 -4.97064 0
M  V30 5051 C 455.87 1.28905 -5.72364 0
M  V30 5052 C 458.222 1.07972 -6.23318 0
M  V30 5053 C 456.886 0.934887 -6.60921 0
M  V30 5054 H 456.156 0.469682 -0.573131 0
M  V30 5055 H 458.803 0.588781 -1.82224 0
M  V30 5056 H 457.108 3.1443 -2.33754 0
M  V30 5057 H 458.805 2.974 -2.68988 0
M  V30 5058 H 455.395 2.03417 -3.77252 0
M  V30 5059 H 459.579 1.65753 -4.67803 0
M  V30 5060 H 454.835 1.16381 -6.00221 0
M  V30 5061 H 459.009 0.795775 -6.91838 0
M  V30 5062 H 456.636 0.543231 -7.58257 0
M  V30 5063 N 458.211 1.37122 0.776871 0
M  V30 5064 C 459.439 1.3523 1.5659 0
M  V30 5065 C 459.854 -0.0635518 1.88693 0
M  V30 5066 O 459.211 -1.02394 1.51069 0
M  V30 5067 C 459.262 2.18583 2.8793 0
M  V30 5068 O 458.983 3.5465 2.57206 0
M  V30 5069 C 460.484 2.24612 3.82183 0
M  V30 5070 H 457.704 0.4634 0.485285 0
M  V30 5071 H 460.248 1.80392 0.963266 0
M  V30 5072 H 458.403 1.76943 3.4463 0
M  V30 5073 H 458.817 3.98286 3.41275 0
M  V30 5074 H 460.291 2.87267 4.71361 0
M  V30 5075 H 460.768 1.25309 4.20944 0
M  V30 5076 H 461.374 2.66543 3.31414 0
M  V30 5077 N 459.689 -1.00246 1.21608 0
M  V30 5078 C 460.622 -2.08794 0.920892 0
M  V30 5079 C 461.6 -1.62059 -0.132552 0
M  V30 5080 O 462.784 -1.885 -0.0030366 0
M  V30 5081 C 459.911 -3.36525 0.383226 0
M  V30 5082 C 458.957 -4.02172 1.41987 0
M  V30 5083 S 459.79 -4.44256 2.98994 0
M  V30 5084 C 460.946 -5.7517 2.4684 0
M  V30 5085 H 461.179 -2.33511 1.8401 0
M  V30 5086 H 458.712 -1.13562 1.04609 0
M  V30 5087 H 460.67 -4.10423 0.0795871 0
M  V30 5088 H 459.331 -3.09854 -0.514711 0
M  V30 5089 H 458.524 -4.94114 0.993335 0
M  V30 5090 H 458.126 -3.34559 1.67171 0
M  V30 5091 H 460.418 -6.51042 1.87484 0
M  V30 5092 H 461.361 -6.22638 3.37235 0
M  V30 5093 H 461.769 -5.32112 1.88461 0
M  V30 5094 N 461.167 -1.02423 -1.1978 0
M  V30 5095 C 462.416 -0.713265 -1.88667 0
M  V30 5096 C 462.729 0.7609 -1.80193 0
M  V30 5097 O 463.935 1.18473 -2.44288 0
M  V30 5098 C 462.391 -1.22545 -3.38394 0
M  V30 5099 C 461.999 -2.72706 -3.55437 0
M  V30 5100 C 463.743 -0.990257 -4.12788 0
M  V30 5101 C 461.65 -3.17367 -4.99031 0
M  V30 5102 H 460.58 -0.263105 -0.706606 0
M  V30 5103 H 463.231 -1.23792 -1.35454 0
M  V30 5104 H 461.613 -0.628732 -3.90977 0
M  V30 5105 H 462.787 -3.37993 -3.13205 0
M  V30 5106 H 461.102 -2.94453 -2.94425 0
M  V30 5107 H 463.699 -1.29926 -5.18675 0
M  V30 5108 H 464.042 0.0730761 -4.16236 0
M  V30 5109 H 464.575 -1.55074 -3.66329 0
M  V30 5110 H 461.314 -4.23009 -5.00743 0
M  V30 5111 H 460.834 -2.56805 -5.42044 0
M  V30 5112 H 462.513 -3.10441 -5.67658 0
M  V30 5113 N 462.645 1.35699 -0.801477 0
M  V30 5114 C 463.892 1.98913 -0.379459 0
M  V30 5115 C 464.22 1.63592 1.05204 0
M  V30 5116 O 463.475 0.888563 1.74365 0
M  V30 5117 C 463.774 3.53828 -0.504041 0
M  V30 5118 C 463.44 4.09002 -1.8981 0
M  V30 5119 C 462.102 4.23783 -2.27951 0
M  V30 5120 C 464.454 4.38939 -2.81038 0
M  V30 5121 C 461.782 4.65816 -3.56696 0
M  V30 5122 C 464.134 4.82409 -4.09224 0
M  V30 5123 C 462.798 4.95395 -4.4737 0
M  V30 5124 H 462.068 0.727874 -0.138854 0
M  V30 5125 H 464.715 1.61994 -1.02128 0
M  V30 5126 H 463.02 3.91175 0.221242 0
M  V30 5127 H 464.717 4.00687 -0.158361 0
M  V30 5128 H 461.307 3.97946 -1.59176 0
M  V30 5129 H 465.491 4.27077 -2.52821 0
M  V30 5130 H 460.747 4.74059 -3.86106 0
M  V30 5131 H 464.921 5.04535 -4.80018 0
M  V30 5132 H 462.548 5.27724 -5.47185 0
M  V30 5133 N 464.123 0.554532 1.47522 0
M  V30 5134 C 465.369 0.0295227 2.02779 0
M  V30 5135 C 465.702 -1.31582 1.42828 0
M  V30 5136 O 464.977 -1.85561 0.582872 0
M  V30 5137 C 465.26 -0.0664057 3.60039 0
M  V30 5138 C 465.113 1.30585 4.30427 0
M  V30 5139 C 466.432 -0.781162 4.33112 0
M  V30 5140 H 463.551 0.0122027 0.736899 0
M  V30 5141 H 466.193 0.716305 1.7598 0
M  V30 5142 H 464.343 -0.651307 3.83002 0
M  V30 5143 H 466.015 1.93374 4.18813 0
M  V30 5144 H 464.258 1.88125 3.90886 0
M  V30 5145 H 464.929 1.19147 5.38988 0
M  V30 5146 H 467.405 -0.284565 4.15126 0
M  V30 5147 H 466.281 -0.817237 5.42782 0
M  V30 5148 H 466.542 -1.83672 4.0214 0
M  V30 5149 N 465.601 -1.54893 0.290851 0
M  V30 5150 C 466.829 -2.04343 -0.324288 0
M  V30 5151 C 467.244 -1.16859 -1.48289 0
M  V30 5152 O 466.601 -0.192018 -1.81487 0
M  V30 5153 C 466.652 -3.52756 -0.79026 0
M  V30 5154 O 466.373 -4.36913 0.322213 0
M  V30 5155 C 467.874 -4.18161 -1.4716 0
M  V30 5156 H 465.094 -0.667135 -0.0719173 0
M  V30 5157 H 467.638 -1.99981 0.427529 0
M  V30 5158 H 465.793 -3.57511 -1.49213 0
M  V30 5159 H 466.207 -5.24486 -0.0387372 0
M  V30 5160 H 467.681 -5.23562 -1.7489 0
M  V30 5161 H 468.158 -3.67282 -2.40834 0
M  V30 5162 H 468.764 -4.17454 -0.813178 0
M  V30 5163 N 467.08 -0.0183926 -1.57589 0
M  V30 5164 C 468.01 0.965596 -2.12599 0
M  V30 5165 C 468.991 1.34641 -1.0395 0
M  V30 5166 O 470.176 1.42693 -1.31729 0
M  V30 5167 C 467.306 2.25149 -2.64434 0
M  V30 5168 C 466.26 2.01175 -3.77773 0
M  V30 5169 C 465.586 3.35937 -4.15994 0
M  V30 5170 C 466.886 1.35953 -5.04296 0
M  V30 5171 H 468.58 0.507504 -2.95067 0
M  V30 5172 H 466.126 0.242671 -1.41941 0
M  V30 5173 H 468.079 2.94357 -3.01549 0
M  V30 5174 H 466.803 2.73105 -1.79112 0
M  V30 5175 H 465.462 1.34388 -3.4108 0
M  V30 5176 H 465.11 3.81631 -3.27669 0
M  V30 5177 H 464.81 3.20705 -4.92364 0
M  V30 5178 H 466.334 4.0643 -4.55683 0
M  V30 5179 H 467.748 1.95144 -5.39065 0
M  V30 5180 H 466.145 1.31152 -5.85593 0
M  V30 5181 H 467.215 0.331071 -4.83768 0
M  V30 5182 N 468.558 1.5553 0.254621 0
M  V30 5183 C 469.783 1.81383 1.00573 0
M  V30 5184 C 470.208 0.594419 1.78461 0
M  V30 5185 O 469.566 -0.456403 1.75461 0
M  V30 5186 C 469.614 3.04892 1.92545 0
M  V30 5187 O 468.718 2.81266 3.01601 0
M  V30 5188 H 468.059 0.598969 0.286587 0
M  V30 5189 H 470.589 2.02703 0.277952 0
M  V30 5190 H 470.599 3.34119 2.34155 0
M  V30 5191 H 469.274 3.93287 1.3527 0
M  V30 5192 H 467.851 2.63185 2.64174 0
M  V30 5193 N 470.036 -0.519951 1.48776 0
M  V30 5194 C 471.285 -1.27175 1.56555 0
M  V30 5195 C 471.598 -1.9401 0.248869 0
M  V30 5196 O 472.804 -2.70725 0.205004 0
M  V30 5197 C 471.26 -2.30811 2.76142 0
M  V30 5198 C 470.868 -1.7 4.14493 0
M  V30 5199 C 472.612 -3.06937 2.9324 0
M  V30 5200 C 470.519 -2.71635 5.25327 0
M  V30 5201 H 469.449 -0.478329 0.582853 0
M  V30 5202 H 472.1 -0.547916 1.75129 0
M  V30 5203 H 470.482 -3.06274 2.51023 0
M  V30 5204 H 471.656 -1.00658 4.49672 0
M  V30 5205 H 469.971 -1.06331 4.02595 0
M  V30 5206 H 472.568 -3.82905 3.73213 0
M  V30 5207 H 472.911 -3.63409 2.03075 0
M  V30 5208 H 473.444 -2.38589 3.18308 0
M  V30 5209 H 470.183 -2.1997 6.1749 0
M  V30 5210 H 469.703 -3.39275 4.94624 0
M  V30 5211 H 471.382 -3.34429 5.53865 0
M  V30 5212 N 471.514 -1.37532 -0.769588 0
M  V30 5213 C 472.76 -1.33057 -1.53048 0
M  V30 5214 C 473.093 0.0841865 -1.94017 0
M  V30 5215 O 472.368 1.04198 -1.64235 0
M  V30 5216 C 472.651 -2.27166 -2.79406 0
M  V30 5217 C 472.504 -3.77429 -2.44677 0
M  V30 5218 C 473.823 -2.19683 -3.81349 0
M  V30 5219 H 470.942 -0.484655 -0.555228 0
M  V30 5220 H 473.584 -1.68251 -0.882702 0
M  V30 5221 H 471.734 -1.97283 -3.34682 0
M  V30 5222 H 473.406 -4.17918 -1.953 0
M  V30 5223 H 471.649 -3.95892 -1.77346 0
M  V30 5224 H 472.32 -4.38716 -3.35011 0
M  V30 5225 H 474.796 -2.46029 -3.35573 0
M  V30 5226 H 473.672 -2.87668 -4.67481 0
M  V30 5227 H 473.933 -1.19045 -4.25771 0
M  V30 5228 N 472.992 0.995999 -1.22138 0
M  V30 5229 C 474.241 1.72928 -1.03821 0
M  V30 5230 C 474.554 1.90872 0.427444 0
M  V30 5231 O 475.76 2.61496 0.730212 0
M  V30 5232 C 474.216 3.11124 -1.80913 0
M  V30 5233 C 473.824 3.01122 -3.31707 0
M  V30 5234 C 475.568 3.8852 -1.71035 0
M  V30 5235 C 473.475 4.34453 -4.01253 0
M  V30 5236 H 472.405 0.648376 -0.384869 0
M  V30 5237 H 475.056 1.11213 -1.45959 0
M  V30 5238 H 473.438 3.73503 -1.31573 0
M  V30 5239 H 474.612 2.47926 -3.88419 0
M  V30 5240 H 472.927 2.3721 -3.42228 0
M  V30 5241 H 475.524 4.872 -2.20318 0
M  V30 5242 H 475.867 4.1087 -0.670196 0
M  V30 5243 H 476.4 3.32812 -2.17902 0
M  V30 5244 H 473.139 4.17303 -5.05508 0
M  V30 5245 H 472.659 4.87574 -3.49331 0
M  V30 5246 H 474.338 5.03215 -4.06674 0
M  V30 5247 N 474.47 1.03057 1.19235 0
M  V30 5248 C 475.698 0.747697 1.92917 0
M  V30 5249 C 476.113 -0.69372 1.75593 0
M  V30 5250 O 475.47 -1.47191 1.07894 0
M  V30 5251 C 475.521 1.09159 3.44625 0
M  V30 5252 O 475.242 2.47641 3.61394 0
M  V30 5253 C 476.743 0.831763 4.35427 0
M  V30 5254 H 473.963 0.273453 0.612751 0
M  V30 5255 H 476.507 1.37552 1.51327 0
M  V30 5256 H 474.662 0.508919 3.84043 0
M  V30 5257 H 475.076 2.60499 4.55237 0
M  V30 5258 H 476.55 1.12233 5.4047 0
M  V30 5259 H 477.027 -0.233769 4.38577 0
M  V30 5260 H 477.633 1.39725 4.01693 0
M  V30 5261 N 475.948 -1.35272 0.808662 0
M  V30 5262 C 477.194 -1.99003 0.390581 0
M  V30 5263 C 477.527 -1.63999 -1.0401 0
M  V30 5264 O 476.802 -0.904368 -1.72196 0
M  V30 5265 C 477.085 -3.55454 0.576566 0
M  V30 5266 C 476.938 -4.00249 2.05233 0
M  V30 5267 C 478.257 -4.401 0.00354277 0
M  V30 5268 H 475.376 -0.722917 0.143388 0
M  V30 5269 H 478.018 -1.6039 1.01858 0
M  V30 5270 H 476.168 -3.88477 0.0419766 0
M  V30 5271 H 477.84 -3.77626 2.64946 0
M  V30 5272 H 476.083 -3.51082 2.54801 0
M  V30 5273 H 476.754 -5.0911 2.13333 0
M  V30 5274 H 479.23 -4.13548 0.460117 0
M  V30 5275 H 478.106 -5.48656 0.163575 0
M  V30 5276 H 478.367 -4.28444 -1.09032 0
M  V30 5277 N 477.426 -0.562348 -1.47226 0
M  V30 5278 C 478.673 -0.0402165 -2.0246 0
M  V30 5279 C 479.001 1.31169 -1.43614 0
M  V30 5280 O 478.256 1.86805 -0.5833 0
M  V30 5281 C 478.555 0.0969817 -3.57268 0
M  V30 5282 C 478.221 -1.1847 -4.35058 0
M  V30 5283 C 476.883 -1.53588 -4.56031 0
M  V30 5284 C 479.235 -2.03378 -4.79882 0
M  V30 5285 C 476.563 -2.73452 -5.19077 0
M  V30 5286 C 478.915 -3.2245 -5.44251 0
M  V30 5287 C 477.579 -3.57876 -5.63455 0
M  V30 5288 H 476.849 -0.0147163 -0.740854 0
M  V30 5289 H 479.496 -0.734895 -1.76838 0
M  V30 5290 H 477.801 0.87466 -3.81912 0
M  V30 5291 H 479.498 0.516408 -3.97661 0
M  V30 5292 H 476.088 -0.90126 -4.19017 0
M  V30 5293 H 480.272 -1.77553 -4.63453 0
M  V30 5294 H 475.528 -3.01062 -5.32139 0
M  V30 5295 H 479.702 -3.88526 -5.77945 0
M  V30 5296 H 477.329 -4.50849 -6.12078 0
M  V30 5297 N 478.904 1.54736 -0.299062 0
M  V30 5298 C 480.15 2.00397 0.311244 0
M  V30 5299 C 480.483 1.18716 1.53688 0
M  V30 5300 O 479.758 0.263154 1.92712 0
M  V30 5301 C 480.041 3.53817 0.669761 0
M  V30 5302 C 479.894 4.46239 -0.564882 0
M  V30 5303 C 481.213 4.13856 1.49702 0
M  V30 5304 H 478.332 0.728493 0.111653 0
M  V30 5305 H 480.974 1.85506 -0.410774 0
M  V30 5306 H 479.124 3.66637 1.28491 0
M  V30 5307 H 480.796 4.45328 -1.20337 0
M  V30 5308 H 479.039 4.16916 -1.19849 0
M  V30 5309 H 479.71 5.5134 -0.269918 0
M  V30 5310 H 482.186 4.04461 0.977284 0
M  V30 5311 H 481.062 5.21365 1.71666 0
M  V30 5312 H 481.323 3.65608 2.48563 0
M  V30 5313 N 480.382 0.0267497 1.57577 0
M  V30 5314 C 481.312 -0.954308 2.13108 0
M  V30 5315 C 482.293 -1.34088 1.04663 0
M  V30 5316 O 483.478 -1.41992 1.32484 0
M  V30 5317 C 480.608 -2.23744 2.65624 0
M  V30 5318 C 479.562 -1.99168 3.78835 0
M  V30 5319 C 478.888 -3.33726 4.17769 0
M  V30 5320 C 480.188 -1.33277 5.0501 0
M  V30 5321 H 481.882 -0.491848 2.95332 0
M  V30 5322 H 479.428 -0.23514 1.42067 0
M  V30 5323 H 481.381 -2.92754 3.03106 0
M  V30 5324 H 480.105 -2.72151 1.80558 0
M  V30 5325 H 478.764 -1.32577 3.41788 0
M  V30 5326 H 478.412 -3.79888 3.29688 0
M  V30 5327 H 478.112 -3.18089 4.94058 0
M  V30 5328 H 479.636 -4.04008 4.57832 0
M  V30 5329 H 481.05 -1.92283 5.40093 0
M  V30 5330 H 479.447 -1.28045 5.8628 0
M  V30 5331 H 480.517 -0.305411 4.83937 0
M  V30 5332 N 481.861 -1.55662 -0.24637 0
M  V30 5333 C 482.809 -1.91186 -1.3248 0
M  V30 5334 C 483.803 -0.790996 -1.49799 0
M  V30 5335 O 485.009 -0.975617 -1.51267 0
M  V30 5336 H 481.384 -0.607207 -0.443626 0
M  V30 5337 H 483.355 -2.81221 -0.997853 0
M  V30 5338 C 482.104 -2.22349 -2.67313 0
M  V30 5339 H 481.427 -3.08097 -2.54786 0
M  V30 5340 H 482.867 -2.51107 -3.41645 0
M  V30 5341 C 481.326 -1.04001 -3.20446 0
M  V30 5342 O 481.856 -0.28828 -4.00664 0
M  V30 5343 N 480.062 -0.830494 -2.7848 0
M  V30 5344 H 479.609 -1.4435 -2.13356 0
M  V30 5345 H 479.567 -0.0403258 -3.14374 0
M  V30 5346 N 483.339 0.512053 -1.4905 0
M  V30 5347 C 484.585 1.26874 -1.58212 0
M  V30 5348 C 484.918 1.9241 -0.263073 0
M  V30 5349 O 484.193 1.80181 0.732476 0
M  V30 5350 C 484.476 2.34428 -2.73341 0
M  V30 5351 C 484.329 1.73466 -4.15006 0
M  V30 5352 C 485.648 3.36073 -2.84154 0
M  V30 5353 H 482.767 0.459924 -0.575881 0
M  V30 5354 H 485.409 0.568587 -1.81293 0
M  V30 5355 H 483.559 2.94146 -2.53792 0
M  V30 5356 H 485.231 1.17661 -4.46042 0
M  V30 5357 H 483.474 1.03921 -4.21168 0
M  V30 5358 H 484.145 2.51426 -4.91415 0
M  V30 5359 H 486.621 2.86332 -3.01916 0
M  V30 5360 H 485.497 4.08703 -3.66406 0
M  V30 5361 H 485.758 3.97725 -1.93048 0
M  V30 5362 N 484.817 1.37938 0.762283 0
M  V30 5363 C 485.767 1.30976 1.86626 0
M  V30 5364 C 486.751 0.195714 1.59705 0
M  V30 5365 O 487.943 0.430937 1.71674 0
M  V30 5366 C 485.072 1.12847 3.24223 0
M  V30 5367 C 484.158 2.28836 3.57064 0
M  V30 5368 N 484.549 3.54256 3.61022 0
M  V30 5369 C 482.847 2.21198 3.87282 0
M  V30 5370 C 483.548 4.30798 3.90881 0
M  V30 5371 N 482.524 3.60049 4.07266 0
M  V30 5372 H 486.326 2.25946 1.87951 0
M  V30 5373 H 483.84 1.31046 0.959206 0
M  V30 5374 H 485.837 1.05943 4.03214 0
M  V30 5375 H 484.497 0.188024 3.24155 0
M  V30 5376 H 485.508 3.8804 3.42995 0
M  V30 5377 H 482.185 1.35264 3.94981 0
M  V30 5378 H 483.575 5.39386 4.00639 0
M  V30 5379 N 486.295 -0.989507 1.22664 0
M  V30 5380 C 487.525 -1.7624 1.0781 0
M  V30 5381 C 487.933 -1.85466 -0.374036 0
M  V30 5382 O 487.276 -1.32645 -1.27087 0
M  V30 5383 C 487.338 -3.21007 1.61849 0
M  V30 5384 C 487.002 -3.35316 3.10503 0
M  V30 5385 C 487.999 -3.22362 4.07896 0
M  V30 5386 C 485.684 -3.60258 3.50028 0
M  V30 5387 C 487.678 -3.34139 5.42798 0
M  V30 5388 C 485.365 -3.71676 4.85078 0
M  V30 5389 C 486.363 -3.58625 5.81272 0
M  V30 5390 O 486.051 -3.69655 7.1387 0
M  V30 5391 H 485.783 -0.560209 0.378341 0
M  V30 5392 H 488.337 -1.25252 1.62792 0
M  V30 5393 H 486.567 -3.73202 1.01279 0
M  V30 5394 H 488.256 -3.80024 1.42606 0
M  V30 5395 H 489.022 -3.03 3.78703 0
M  V30 5396 H 484.901 -3.69492 2.75675 0
M  V30 5397 H 488.445 -3.23869 6.17863 0
M  V30 5398 H 484.342 -3.90545 5.1395 0
M  V30 5399 H 485.11 -3.86507 7.21495 0
M  V30 5400 N 487.773 -1.03688 -1.18687 0
M  V30 5401 C 489.189 -0.755413 -1.4059 0
M  V30 5402 C 489.389 0.656659 -1.905 0
M  V30 5403 O 488.445 1.42144 -2.08689 0
M  V30 5404 C 489.758 -1.7983 -2.41001 0
M  V30 5405 C 491.306 -1.81877 -2.54735 0
M  V30 5406 C 491.781 -2.85148 -3.58406 0
M  V30 5407 N 493.272 -2.84015 -3.6591 0
M  V30 5408 C 494.007 -3.60573 -4.45841 0
M  V30 5409 N 493.503 -4.46871 -5.29413 0
M  V30 5410 N 495.296 -3.49079 -4.40568 0
M  V30 5411 H 487.447 -1.94818 -0.846148 0
M  V30 5412 H 489.71 -0.842727 -0.434184 0
M  V30 5413 H 489.416 -2.81097 -2.1137 0
M  V30 5414 H 489.29 -1.62727 -3.40294 0
M  V30 5415 H 491.677 -0.812836 -2.83685 0
M  V30 5416 H 491.758 -2.03057 -1.55568 0
M  V30 5417 H 491.402 -3.85918 -3.30197 0
M  V30 5418 H 491.332 -2.61224 -4.57241 0
M  V30 5419 H 493.823 -2.21431 -3.0623 0
M  V30 5420 H 494.136 -5.02007 -5.87545 0
M  V30 5421 H 492.481 -4.5094 -5.28846 0
M  V30 5422 H 495.672 -2.81066 -3.74325 0
M  V30 5423 H 495.845 -4.08994 -5.02621 0
M  V30 5424 N 489.251 1.34841 -0.815825 0
M  V30 5425 C 490.479 2.0273 -0.413294 0
M  V30 5426 C 490.894 1.61459 0.978599 0
M  V30 5427 O 490.251 0.816584 1.63212 0
M  V30 5428 C 490.302 3.58058 -0.497676 0
M  V30 5429 O 490.023 3.97832 -1.8347 0
M  V30 5430 C 491.524 4.4321 -0.0891339 0
M  V30 5431 H 488.744 0.649956 -0.166728 0
M  V30 5432 H 491.288 1.72267 -1.10201 0
M  V30 5433 H 489.443 3.87136 0.142886 0
M  V30 5434 H 489.857 4.92501 -1.80396 0
M  V30 5435 H 491.331 5.5164 -0.199274 0
M  V30 5436 H 491.808 4.28432 0.966571 0
M  V30 5437 H 492.414 4.19446 -0.703214 0
M  V30 5438 N 490.729 0.570148 1.46925 0
M  V30 5439 C 492.14 0.1402 1.86173 0
M  V30 5440 C 492.491 -1.29347 1.47526 0
M  V30 5441 O 491.616 -1.97508 0.884292 0
M  V30 5442 C 492.211 0.247661 3.37894 0
M  V30 5443 C 490.77 -0.127332 3.76185 0
M  V30 5444 C 489.917 0.589349 2.70965 0
M  V30 5445 H 492.868 0.779117 1.38259 0
M  V30 5446 H 492.889 -0.530341 3.76786 0
M  V30 5447 H 492.401 1.29121 3.65991 0
M  V30 5448 H 490.502 -1.17149 3.53704 0
M  V30 5449 H 490.615 0.240238 4.78497 0
M  V30 5450 H 488.979 0.0309824 2.54681 0
M  V30 5451 H 489.762 1.6343 3.01903 0
M  V30 5452 N 492.207 -1.54576 0.307264 0
M  V30 5453 C 493.435 -2.04675 -0.302597 0
M  V30 5454 C 493.85 -1.18425 -1.47041 0
M  V30 5455 O 493.207 -0.211257 -1.81273 0
M  V30 5456 C 493.258 -3.53575 -0.752801 0
M  V30 5457 O 492.979 -4.36547 0.368536 0
M  V30 5458 C 494.48 -4.19699 -1.42717 0
M  V30 5459 H 491.7 -0.66786 -0.0648374 0
M  V30 5460 H 494.244 -1.99516 0.448716 0
M  V30 5461 H 492.399 -3.59074 -1.45412 0
M  V30 5462 H 492.813 -5.24497 0.0168937 0
M  V30 5463 H 494.287 -5.25388 -1.69327 0
M  V30 5464 H 494.764 -3.69815 -2.36925 0
M  V30 5465 H 495.37 -4.18293 -0.768856 0
M  V30 5466 N 493.685 -0.035106 -1.57561 0
M  V30 5467 C 494.913 0.652258 -1.9635 0
M  V30 5468 C 495.328 1.65317 -0.911897 0
M  V30 5469 O 494.685 1.82194 0.105657 0
M  V30 5470 C 494.736 1.35337 -3.35211 0
M  V30 5471 O 494.457 0.392548 -4.36338 0
M  V30 5472 C 495.958 2.13199 -3.88666 0
M  V30 5473 H 493.178 0.179444 -0.646561 0
M  V30 5474 H 495.722 -0.0966459 -2.04271 0
M  V30 5475 H 493.877 2.05362 -3.28489 0
M  V30 5476 H 494.291 0.891097 -5.16875 0
M  V30 5477 H 495.765 2.577 -4.88154 0
M  V30 5478 H 496.242 2.97353 -3.23231 0
M  V30 5479 H 496.848 1.48118 -3.98674 0
M  V30 5480 N 495.163 1.55791 0.238111 0
M  V30 5481 C 496.113 1.87444 1.29803 0
M  V30 5482 C 497.097 0.736043 1.43078 0
M  V30 5483 O 498.289 0.998146 1.46171 0
M  V30 5484 C 495.418 2.18028 2.65177 0
M  V30 5485 C 494.504 3.38217 2.55871 0
M  V30 5486 N 494.895 4.57264 2.16202 0
M  V30 5487 C 493.193 3.41502 2.86866 0
M  V30 5488 C 493.894 5.3941 2.17744 0
M  V30 5489 N 492.87 4.78695 2.57589 0
M  V30 5490 H 496.672 2.7701 0.981965 0
M  V30 5491 H 494.186 1.56135 0.44672 0
M  V30 5492 H 496.183 2.38873 3.4168 0
M  V30 5493 H 494.843 1.29765 2.97643 0
M  V30 5494 H 495.854 4.82727 1.87602 0
M  V30 5495 H 492.531 2.63536 3.23813 0
M  V30 5496 H 493.921 6.44671 1.89339 0
M  V30 5497 N 496.642 -0.504142 1.49319 0
M  V30 5498 C 497.87 -1.28256 1.62351 0
M  V30 5499 C 498.285 -1.86502 0.293682 0
M  V30 5500 O 497.642 -1.67678 -0.720449 0
M  V30 5501 C 497.693 -2.41507 2.68992 0
M  V30 5502 O 497.414 -1.85656 3.96817 0
M  V30 5503 C 498.915 -3.32929 2.927 0
M  V30 5504 H 496.135 -0.389115 0.546654 0
M  V30 5505 H 498.679 -0.605531 1.95329 0
M  V30 5506 H 496.834 -3.05046 2.38801 0
M  V30 5507 H 497.248 -2.59981 4.55533 0
M  V30 5508 H 498.722 -4.0868 3.71058 0
M  V30 5509 H 499.199 -3.89733 2.02496 0
M  V30 5510 H 499.805 -2.75158 3.24296 0
M  V30 5511 N 498.12 -1.38341 -0.754957 0
M  V30 5512 C 499.053 -1.29837 -1.87663 0
M  V30 5513 C 500.031 -0.175659 -1.61648 0
M  V30 5514 O 501.215 -0.352745 -1.8517 0
M  V30 5515 C 498.342 -1.01141 -3.23246 0
M  V30 5516 C 497.388 -2.15331 -3.6815 0
M  V30 5517 S 498.221 -3.77459 -3.79849 0
M  V30 5518 C 499.377 -3.50948 -5.18253 0
M  V30 5519 H 499.61 -2.24771 -1.9459 0
M  V30 5520 H 497.143 -1.24161 -0.917796 0
M  V30 5521 H 499.101 -0.852687 -4.01546 0
M  V30 5522 H 497.762 -0.0792784 -3.14 0
M  V30 5523 H 496.955 -1.90795 -4.6649 0
M  V30 5524 H 496.557 -2.27304 -2.97 0
M  V30 5525 H 498.849 -3.06977 -6.03963 0
M  V30 5526 H 499.792 -4.48677 -5.47809 0
M  V30 5527 H 500.2 -2.85492 -4.86985 0
M  V30 5528 N 499.598 0.982988 -1.23187 0
M  V30 5529 C 501.009 1.53847 -1.05773 0
M  V30 5530 C 501.36 1.92568 0.375744 0
M  V30 5531 O 500.485 1.75783 1.26211 0
M  V30 5532 C 501.08 2.79567 -1.91384 0
M  V30 5533 C 499.639 3.31524 -1.78238 0
M  V30 5534 C 498.786 2.04534 -1.87246 0
M  V30 5535 H 501.737 0.802962 -1.36888 0
M  V30 5536 H 501.758 3.52317 -1.43711 0
M  V30 5537 H 501.27 2.51353 -2.95708 0
M  V30 5538 H 499.371 3.64623 -0.766875 0
M  V30 5539 H 499.484 4.01457 -2.61475 0
M  V30 5540 H 497.848 2.1855 -1.30797 0
M  V30 5541 H 498.631 1.78706 -2.9312 0
M  V30 5542 N 501.076 1.04316 1.18135 0
M  V30 5543 C 502.301 0.768047 1.92655 0
M  V30 5544 C 502.726 -0.66904 1.758 0
M  V30 5545 O 502.084 -1.46372 1.06981 0
M  V30 5546 C 502.132 1.14239 3.42026 0
M  V30 5547 O 501.236 0.269333 4.1152 0
M  V30 5548 H 500.577 0.282436 0.600937 0
M  V30 5549 H 503.107 1.39367 1.49793 0
M  V30 5550 H 503.117 1.10538 3.92741 0
M  V30 5551 H 501.792 2.18928 3.53615 0
M  V30 5552 H 500.369 0.366175 3.71098 0
M  V30 5553 N 502.554 -1.34406 0.822964 0
M  V30 5554 C 503.8 -1.98999 0.420847 0
M  V30 5555 C 504.155 -1.64067 -1.00498 0
M  V30 5556 O 503.448 -0.902071 -1.69036 0
M  V30 5557 C 503.642 -3.52981 0.560268 0
M  V30 5558 C 503.471 -4.02873 1.99809 0
M  V30 5559 C 502.241 -4.31463 2.62998 0
M  V30 5560 C 504.439 -4.20241 2.96483 0
M  V30 5561 N 502.421 -4.6739 3.9802 0
M  V30 5562 C 503.792 -4.59348 4.16413 0
M  V30 5563 C 505.847 -4.02489 2.93098 0
M  V30 5564 C 504.55 -4.82559 5.33413 0
M  V30 5565 C 506.576 -4.26866 4.09315 0
M  V30 5566 C 505.938 -4.6626 5.27997 0
M  V30 5567 H 502.037 -0.755432 0.202104 0
M  V30 5568 H 504.621 -1.62815 1.06767 0
M  V30 5569 H 502.792 -3.88359 -0.0566596 0
M  V30 5570 H 504.524 -4.04487 0.131146 0
M  V30 5571 H 501.279 -4.22373 2.14238 0
M  V30 5572 H 501.703 -4.89588 4.67582 0
M  V30 5573 H 506.345 -3.71161 2.02483 0
M  V30 5574 H 504.063 -5.12754 6.24587 0
M  V30 5575 H 507.649 -4.14667 4.08096 0
M  V30 5576 H 506.529 -4.84752 6.16429 0
M  V30 5577 N 504.032 -0.577932 -1.46621 0
M  V30 5578 C 505.278 -0.0617793 -2.02706 0
M  V30 5579 C 505.611 1.29294 -1.44903 0
M  V30 5580 O 504.886 1.8461 -0.61232 0
M  V30 5581 C 505.169 0.00911824 -3.60099 0
M  V30 5582 C 505.022 -1.37416 -4.28295 0
M  V30 5583 C 506.341 0.712159 -4.343 0
M  V30 5584 H 503.46 -0.0239246 -0.736612 0
M  V30 5585 H 506.102 -0.744211 -1.74818 0
M  V30 5586 H 504.252 0.590292 -3.83989 0
M  V30 5587 H 505.924 -2.00013 -4.15683 0
M  V30 5588 H 504.167 -1.94319 -3.87843 0
M  V30 5589 H 504.838 -1.27707 -5.37024 0
M  V30 5590 H 507.314 0.218486 -4.15526 0
M  V30 5591 H 506.19 0.730782 -5.44014 0
M  V30 5592 H 506.451 1.77251 -4.05012 0
M  V30 5593 N 505.51 1.54411 -0.315457 0
M  V30 5594 C 506.457 2.24048 0.554166 0
M  V30 5595 C 507.427 1.2283 1.11812 0
M  V30 5596 O 508.612 1.51491 1.15997 0
M  V30 5597 C 505.752 2.99574 1.71316 0
M  V30 5598 C 504.865 4.15594 1.17922 0
M  V30 5599 C 504 4.78669 2.30324 0
M  V30 5600 C 503.039 5.86807 1.74137 0
M  V30 5601 N 502.176 6.43777 2.8017 0
M  V30 5602 H 507.016 2.97964 -0.0462602 0
M  V30 5603 H 504.553 1.47059 -0.0346009 0
M  V30 5604 H 506.511 3.41604 2.39505 0
M  V30 5605 H 505.141 2.28008 2.285 0
M  V30 5606 H 504.193 3.78404 0.389136 0
M  V30 5607 H 505.505 4.93459 0.728012 0
M  V30 5608 H 504.659 5.23626 3.06433 0
M  V30 5609 H 503.398 4.00168 2.78778 0
M  V30 5610 H 502.403 5.41261 0.965236 0
M  V30 5611 H 503.628 6.67201 1.2657 0
M  V30 5612 H 501.574 5.68153 3.2793 0
M  V30 5613 H 501.491 7.17031 2.39588 0
M  V30 5614 H 502.759 6.9339 3.56132 0
M  V30 5615 N 506.988 0.0434614 1.5754 0
M  V30 5616 C 508.216 -0.641835 1.96693 0
M  V30 5617 C 508.631 -1.64832 0.920652 0
M  V30 5618 O 507.988 -1.82247 -0.095993 0
M  V30 5619 C 508.039 -1.33557 3.35924 0
M  V30 5620 O 507.76 -0.369403 4.3654 0
M  V30 5621 C 509.261 -2.11135 3.89791 0
M  V30 5622 H 506.481 -0.176013 0.647503 0
M  V30 5623 H 509.025 0.107478 2.04217 0
M  V30 5624 H 507.18 -2.03617 3.29574 0
M  V30 5625 H 507.594 -0.863674 5.1734 0
M  V30 5626 H 509.068 -2.55107 4.89514 0
M  V30 5627 H 509.545 -2.95634 3.24803 0
M  V30 5628 H 510.151 -1.46002 3.99454 0
M  V30 5629 N 508.466 -1.55915 -0.229846 0
M  V30 5630 C 509.712 -1.78807 -0.956868 0
M  V30 5631 C 510.045 -0.611687 -1.84315 0
M  V30 5632 O 509.32 0.389398 -1.90562 0
M  V30 5633 C 509.603 -3.11718 -1.80288 0
M  V30 5634 C 509.456 -4.3979 -0.943649 0
M  V30 5635 C 510.775 -3.40999 -2.78222 0
M  V30 5636 H 507.894 -0.6505 -0.346437 0
M  V30 5637 H 510.536 -1.88648 -0.226252 0
M  V30 5638 H 508.686 -3.03459 -2.42579 0
M  V30 5639 H 510.358 -4.60059 -0.338121 0
M  V30 5640 H 508.601 -4.33086 -0.248705 0
M  V30 5641 H 509.272 -5.29208 -1.5698 0
M  V30 5642 H 511.748 -3.49332 -2.26067 0
M  V30 5643 H 510.624 -4.35183 -3.34526 0
M  V30 5644 H 510.885 -2.62754 -3.55546 0
M  V30 5645 N 509.944 0.496216 -1.49584 0
M  V30 5646 C 511.191 1.25003 -1.59312 0
M  V30 5647 C 511.519 1.92445 -0.28198 0
M  V30 5648 O 510.774 1.81557 0.730452 0
M  V30 5649 C 511.073 2.3359 -2.705 0
M  V30 5650 C 510.739 1.83574 -4.11839 0
M  V30 5651 C 509.401 1.69653 -4.50302 0
M  V30 5652 C 511.753 1.46193 -5.00277 0
M  V30 5653 C 509.081 1.16736 -5.74969 0
M  V30 5654 C 511.433 0.947265 -6.25468 0
M  V30 5655 C 510.097 0.794485 -6.62755 0
M  V30 5656 H 509.367 0.45742 -0.582965 0
M  V30 5657 H 512.014 0.549996 -1.83432 0
M  V30 5658 H 510.319 3.09401 -2.40371 0
M  V30 5659 H 512.016 2.91627 -2.75235 0
M  V30 5660 H 508.606 1.9537 -3.81482 0
M  V30 5661 H 512.79 1.55793 -4.71214 0
M  V30 5662 H 508.046 1.03623 -6.02555 0
M  V30 5663 H 512.22 0.648846 -6.93371 0
M  V30 5664 H 509.847 0.382271 -7.59238 0
M  V30 5665 N 511.423 1.38739 0.74761 0
M  V30 5666 C 512.353 1.39173 1.87492 0
M  V30 5667 C 513.334 0.256794 1.6815 0
M  V30 5668 O 514.519 0.460762 1.88655 0
M  V30 5669 C 511.649 1.22197 3.25093 0
M  V30 5670 C 510.603 2.32957 3.59047 0
M  V30 5671 C 509.929 2.01082 4.95449 0
M  V30 5672 C 511.229 3.75237 3.6331 0
M  V30 5673 H 512.923 2.3351 1.87386 0
M  V30 5674 H 510.469 1.12399 0.900134 0
M  V30 5675 H 512.422 1.21124 4.03617 0
M  V30 5676 H 511.146 0.243241 3.25693 0
M  V30 5677 H 509.805 2.33226 2.82845 0
M  V30 5678 H 509.453 1.01678 4.92616 0
M  V30 5679 H 509.153 2.75267 5.19136 0
M  V30 5680 H 510.677 2.01638 5.76346 0
M  V30 5681 H 512.091 3.76966 4.31937 0
M  V30 5682 H 510.488 4.48677 3.98509 0
M  V30 5683 H 511.558 4.07122 2.634 0
M  V30 5684 N 512.901 -0.976442 1.23707 0
M  V30 5685 C 513.849 -2.09078 1.01927 0
M  V30 5686 C 514.843 -1.69345 -0.0430193 0
M  V30 5687 O 516.049 -1.79659 0.110814 0
M  V30 5688 H 512.424 -0.68398 0.312531 0
M  V30 5689 H 514.395 -2.24614 1.96447 0
M  V30 5690 C 513.144 -3.41919 0.631385 0
M  V30 5691 H 512.467 -3.72946 1.44053 0
M  V30 5692 H 513.907 -4.20817 0.518532 0
M  V30 5693 C 512.366 -3.30357 -0.660723 0
M  V30 5694 O 512.896 -3.63542 -1.70881 0
M  V30 5695 N 511.102 -2.83507 -0.638139 0
M  V30 5696 H 510.649 -2.567 0.215108 0
M  V30 5697 H 510.607 -2.76153 -1.50289 0
M  V30 5698 N 514.379 -1.04941 -1.1758 0
M  V30 5699 C 515.309 -0.669172 -2.23706 0
M  V30 5700 C 516.29 0.331835 -1.66832 0
M  V30 5701 O 517.475 0.209988 -1.93061 0
M  V30 5702 C 514.605 -0.0404889 -3.47276 0
M  V30 5703 C 513.559 -0.965983 -4.16957 0
M  V30 5704 C 512.885 -0.201312 -5.34321 0
M  V30 5705 C 514.185 -2.28902 -4.69469 0
M  V30 5706 H 515.879 -1.55639 -2.55767 0
M  V30 5707 H 513.425 -0.749793 -1.22939 0
M  V30 5708 H 515.378 0.237298 -4.20731 0
M  V30 5709 H 514.102 0.881658 -3.14475 0
M  V30 5710 H 512.761 -1.22829 -3.45411 0
M  V30 5711 H 512.409 0.723519 -4.97769 0
M  V30 5712 H 512.109 -0.817968 -5.81879 0
M  V30 5713 H 513.633 0.0692499 -6.10561 0
M  V30 5714 H 515.047 -2.07132 -5.34574 0
M  V30 5715 H 513.444 -2.85942 -5.27596 0
M  V30 5716 H 514.514 -2.92937 -3.86414 0
M  V30 5717 N 515.857 1.33968 -0.830081 0
M  V30 5718 C 516.787 2.31911 -0.271911 0
M  V30 5719 C 517.768 1.58571 0.61556 0
M  V30 5720 O 518.953 1.86514 0.540946 0
M  V30 5721 C 516.083 3.42737 0.561146 0
M  V30 5722 C 515.037 4.27383 -0.229789 0
M  V30 5723 C 514.363 5.29742 0.726463 0
M  V30 5724 C 515.663 5.02 -1.44197 0
M  V30 5725 H 517.357 2.78844 -1.09025 0
M  V30 5726 H 514.903 1.34061 -0.52571 0
M  V30 5727 H 516.856 4.10276 0.961867 0
M  V30 5728 H 515.58 2.94471 1.41261 0
M  V30 5729 H 514.239 3.61456 -0.611964 0
M  V30 5730 H 513.887 4.77736 1.57408 0
M  V30 5731 H 513.587 5.87255 0.20142 0
M  V30 5732 H 515.111 6.00149 1.12489 0
M  V30 5733 H 516.525 5.62355 -1.11488 0
M  V30 5734 H 514.922 5.69122 -1.90317 0
M  V30 5735 H 515.992 4.31281 -2.2164 0
M  V30 5736 N 517.335 0.585699 1.46312 0
M  V30 5737 C 518.746 0.159938 1.86014 0
M  V30 5738 C 519.097 -1.27775 1.48889 0
M  V30 5739 O 518.222 -1.96559 0.90519 0
M  V30 5740 C 518.817 0.283485 3.37612 0
M  V30 5741 C 517.376 -0.0874256 3.76298 0
M  V30 5742 C 516.523 0.618055 2.70325 0
M  V30 5743 H 519.474 0.793737 1.37425 0
M  V30 5744 H 519.495 -0.490348 3.77327 0
M  V30 5745 H 519.007 1.32995 3.64601 0
M  V30 5746 H 517.108 -1.13391 3.54927 0
M  V30 5747 H 517.221 0.290975 4.78216 0
M  V30 5748 H 515.585 0.057993 2.54634 0
M  V30 5749 H 516.368 1.66623 3.00153 0
M  V30 5750 N 518.813 -1.54241 0.323641 0
M  V30 5751 C 520.229 -1.59574 -0.0290018 0
M  V30 5752 C 520.429 -1.34017 -1.50472 0
M  V30 5753 O 519.485 -1.12464 -2.26071 0
M  V30 5754 C 520.798 -2.98169 0.389295 0
M  V30 5755 C 522.346 -3.11148 0.339958 0
M  V30 5756 C 522.821 -4.5209 0.733418 0
M  V30 5757 N 524.312 -4.5808 0.686827 0
M  V30 5758 C 525.047 -5.65248 0.963464 0
M  V30 5759 N 524.543 -6.80355 1.30724 0
M  V30 5760 N 526.336 -5.55025 0.88902 0
M  V30 5761 H 518.487 -1.6911 1.28512 0
M  V30 5762 H 520.75 -0.790972 0.522558 0
M  V30 5763 H 520.456 -3.21871 1.41746 0
M  V30 5764 H 520.33 -3.76399 -0.245657 0
M  V30 5765 H 522.717 -2.87182 -0.679002 0
M  V30 5766 H 522.798 -2.35023 1.00985 0
M  V30 5767 H 522.442 -4.76788 1.75029 0
M  V30 5768 H 522.372 -5.26584 0.0412189 0
M  V30 5769 H 524.863 -3.75411 0.43298 0
M  V30 5770 H 525.176 -7.58029 1.5037 0
M  V30 5771 H 523.521 -6.81851 1.3455 0
M  V30 5772 H 526.712 -4.63977 0.619939 0
M  V30 5773 H 526.885 -6.38458 1.10797 0
M  V30 5774 N 520.291 -0.0518155 -1.57515 0
M  V30 5775 C 521.537 0.622745 -1.93002 0
M  V30 5776 C 521.87 1.70456 -0.930499 0
M  V30 5777 O 521.145 1.94452 0.0434086 0
M  V30 5778 C 521.428 1.21824 -3.38867 0
M  V30 5779 C 521.281 0.144434 -4.49568 0
M  V30 5780 C 522.6 2.12968 -3.8514 0
M  V30 5781 H 519.719 0.22491 -0.701844 0
M  V30 5782 H 522.361 -0.113711 -1.89659 0
M  V30 5783 H 520.511 1.8459 -3.41846 0
M  V30 5784 H 522.183 -0.48753 -4.58717 0
M  V30 5785 H 520.426 -0.527424 -4.30582 0
M  V30 5786 H 521.097 0.601127 -5.48717 0
M  V30 5787 H 523.573 1.60163 -3.8404 0
M  V30 5788 H 522.449 2.51578 -4.87852 0
M  V30 5789 H 522.71 3.03004 -3.21934 0
M  V30 5790 N 521.769 1.56035 0.221574 0
M  V30 5791 C 522.702 1.87427 1.30178 0
M  V30 5792 C 523.68 0.731658 1.45209 0
M  V30 5793 O 524.864 0.980016 1.61022 0
M  V30 5794 C 521.991 2.08127 2.67209 0
M  V30 5795 C 521.037 3.30813 2.69194 0
M  V30 5796 S 521.87 4.86738 2.23263 0
M  V30 5797 C 523.026 5.10474 3.62171 0
M  V30 5798 H 523.259 2.78756 1.03355 0
M  V30 5799 H 520.792 1.48469 0.423813 0
M  V30 5800 H 522.75 2.20736 3.46101 0
M  V30 5801 H 521.411 1.17595 2.91256 0
M  V30 5802 H 520.604 3.42341 3.6989 0
M  V30 5803 H 520.206 3.1706 1.98366 0
M  V30 5804 H 522.498 4.9937 4.5786 0
M  V30 5805 H 523.441 6.12359 3.55558 0
M  V30 5806 H 523.849 4.38208 3.55857 0
M  V30 5807 N 523.247 -0.488276 1.49845 0
M  V30 5808 C 524.494 -1.24157 1.59973 0
M  V30 5809 C 524.822 -1.92293 0.292182 0
M  V30 5810 O 524.077 -1.81942 -0.720813 0
M  V30 5811 C 524.376 -2.32152 2.71735 0
M  V30 5812 C 524.042 -1.81387 4.12807 0
M  V30 5813 C 522.704 -1.67262 4.51195 0
M  V30 5814 C 525.056 -1.43537 5.01045 0
M  V30 5815 C 522.384 -1.13685 5.7558 0
M  V30 5816 C 524.736 -0.914081 6.25961 0
M  V30 5817 C 523.4 -0.759327 6.63167 0
M  V30 5818 H 522.67 -0.454322 0.585383 0
M  V30 5819 H 525.317 -0.540261 1.83721 0
M  V30 5820 H 523.622 -3.08122 2.42008 0
M  V30 5821 H 525.319 -2.90164 2.76778 0
M  V30 5822 H 521.909 -1.93344 3.82513 0
M  V30 5823 H 526.093 -1.53292 4.72033 0
M  V30 5824 H 521.349 -1.00426 6.03096 0
M  V30 5825 H 525.523 -0.612066 6.93705 0
M  V30 5826 H 523.15 -0.342002 7.5943 0
M  V30 5827 N 524.725 -1.39134 -0.740242 0
M  V30 5828 C 525.658 -1.3182 -1.86276 0
M  V30 5829 C 526.636 -0.192794 -1.61453 0
M  V30 5830 O 527.82 -0.372365 -1.84786 0
M  V30 5831 C 524.947 -1.04564 -3.22155 0
M  V30 5832 C 523.993 -2.19224 -3.65846 0
M  V30 5833 S 524.826 -3.81466 -3.75824 0
M  V30 5834 C 525.982 -3.56425 -5.14502 0
M  V30 5835 H 526.215 -2.26822 -1.92195 0
M  V30 5836 H 523.748 -1.25127 -0.904576 0
M  V30 5837 H 525.706 -0.895228 -4.00619 0
M  V30 5838 H 524.367 -0.112578 -3.13898 0
M  V30 5839 H 523.56 -1.95732 -4.6444 0
M  V30 5840 H 523.162 -2.30441 -2.94572 0
M  V30 5841 H 525.454 -3.13366 -6.00673 0
M  V30 5842 H 526.397 -4.54462 -5.43019 0
M  V30 5843 H 526.805 -2.90641 -4.8393 0
M  V30 5844 N 526.204 0.969867 -1.24223 0
M  V30 5845 C 527.432 1.74756 -1.10761 0
M  V30 5846 C 527.847 1.85713 0.340041 0
M  V30 5847 O 527.204 1.34389 1.23474 0
M  V30 5848 C 527.255 3.16915 -1.73917 0
M  V30 5849 O 526.976 3.06511 -3.13021 0
M  V30 5850 C 528.477 4.11032 -1.66036 0
M  V30 5851 H 525.697 0.548092 -0.387087 0
M  V30 5852 H 528.241 1.2178 -1.64286 0
M  V30 5853 H 526.396 3.66884 -1.244 0
M  V30 5854 H 526.81 3.96079 -3.43834 0
M  V30 5855 H 528.284 5.08446 -2.14911 0
M  V30 5856 H 528.761 4.34785 -0.621159 0
M  V30 5857 H 529.367 3.66972 -2.14969 0
M  V30 5858 N 527.682 1.05563 1.17022 0
M  V30 5859 C 529.098 0.777684 1.39371 0
M  V30 5860 C 529.298 -0.626269 1.91521 0
M  V30 5861 O 528.354 -1.38806 2.10924 0
M  V30 5862 C 529.667 1.83642 2.3811 0
M  V30 5863 C 531.215 1.85907 2.51809 0
M  V30 5864 C 531.69 2.90813 3.53824 0
M  V30 5865 N 533.181 2.898 3.61345 0
M  V30 5866 C 533.916 3.6762 4.40049 0
M  V30 5867 N 533.412 4.55237 5.22237 0
M  V30 5868 N 535.205 3.56044 4.34959 0
M  V30 5869 H 527.356 1.9614 0.815047 0
M  V30 5870 H 529.619 0.849527 0.420722 0
M  V30 5871 H 529.325 2.84425 2.06871 0
M  V30 5872 H 529.199 1.6812 3.37662 0
M  V30 5873 H 531.586 0.857865 2.82356 0
M  V30 5874 H 531.667 2.05506 1.52318 0
M  V30 5875 H 531.311 3.91122 3.24015 0
M  V30 5876 H 531.241 2.68465 4.53028 0
M  V30 5877 H 533.732 2.26274 3.02669 0
M  V30 5878 H 534.045 5.11291 5.79484 0
M  V30 5879 H 532.39 4.59296 5.21605 0
M  V30 5880 H 535.581 2.86986 3.69806 0
M  V30 5881 H 535.754 4.16938 4.96051 0
M  V30 5882 N 529.16 -1.33526 0.837174 0
M  V30 5883 C 530.571 -1.80182 0.489017 0
M  V30 5884 C 530.922 -1.69285 -0.991826 0
M  V30 5885 O 530.047 -1.24113 -1.77271 0
M  V30 5886 C 530.642 -3.27149 0.880866 0
M  V30 5887 C 529.201 -3.71828 0.584872 0
M  V30 5888 C 528.348 -2.54974 1.09011 0
M  V30 5889 H 531.299 -1.21071 1.02603 0
M  V30 5890 H 531.32 -3.80024 0.190239 0
M  V30 5891 H 530.832 -3.35048 1.95869 0
M  V30 5892 H 528.933 -3.69457 -0.48295 0
M  V30 5893 H 529.046 -4.65366 1.13892 0
M  V30 5894 H 527.41 -2.4952 0.511047 0
M  V30 5895 H 528.193 -2.65637 2.17467 0
M  V30 5896 N 530.638 -0.59345 -1.46 0
M  V30 5897 C 531.866 -0.0890934 -2.06708 0
M  V30 5898 C 532.281 1.2205 -1.44046 0
M  V30 5899 O 531.638 1.74029 -0.549551 0
M  V30 5900 C 531.689 0.0720263 -3.61428 0
M  V30 5901 O 531.41 -1.18574 -4.21748 0
M  V30 5902 C 532.911 0.609487 -4.3909 0
M  V30 5903 H 530.131 -0.0623628 -0.668096 0
M  V30 5904 H 532.675 -0.817171 -1.87464 0
M  V30 5905 H 530.83 0.750369 -3.80063 0
M  V30 5906 H 531.244 -1.0064 -5.14754 0
M  V30 5907 H 532.718 0.671363 -5.47902 0
M  V30 5908 H 533.195 1.62878 -4.07882 0
M  V30 5909 H 533.801 -0.03434 -4.25286 0
M  V30 5910 N 532.116 1.54067 -0.331816 0
M  V30 5911 C 533.341 2.05599 0.272705 0
M  V30 5912 C 533.766 1.2059 1.44359 0
M  V30 5913 O 533.124 0.216907 1.79998 0
M  V30 5914 C 533.172 3.54188 0.677021 0
M  V30 5915 O 532.276 3.72082 1.77844 0
M  V30 5916 H 531.617 0.662286 0.0476801 0
M  V30 5917 H 534.147 1.98826 -0.482624 0
M  V30 5918 H 534.157 3.96608 0.957415 0
M  V30 5919 H 532.832 4.15513 -0.179325 0
M  V30 5920 H 531.409 3.41566 1.49622 0
M  V30 5921 N 533.594 0.0601682 1.57485 0
M  V30 5922 C 534.542 -0.928899 2.13247 0
M  V30 5923 C 535.536 -1.31616 1.06647 0
M  V30 5924 O 536.742 -1.29476 1.25043 0
M  V30 5925 H 533.117 -0.317455 0.681708 0
M  V30 5926 H 535.088 -0.433566 2.95233 0
M  V30 5927 C 533.837 -2.19121 2.69965 0
M  V30 5928 H 533.16 -1.90204 3.51657 0
M  V30 5929 H 534.6 -2.86465 3.12592 0
M  V30 5930 C 533.059 -2.94195 1.64168 0
M  V30 5931 O 533.589 -3.87468 1.05978 0
M  V30 5932 N 531.795 -2.57089 1.35476 0
M  V30 5933 H 531.342 -1.81314 1.82984 0
M  V30 5934 H 531.3 -3.07624 0.649196 0
M  V30 5935 N 535.072 -1.5615 -0.213296 0
M  V30 5936 C 535.982 -1.96265 -1.28519 0
M  V30 5937 C 536.998 -0.86765 -1.50824 0
M  V30 5938 O 538.174 -1.17191 -1.63793 0
M  V30 5939 C 535.239 -2.27836 -2.61327 0
M  V30 5940 C 534.3 -3.50949 -2.47252 0
M  V30 5941 C 533.533 -3.81004 -3.73727 0
M  V30 5942 O 533.756 -3.12612 -4.77106 0
M  V30 5943 O 532.69 -4.74477 -3.70344 0
M  V30 5944 H 536.516 -2.87631 -0.974795 0
M  V30 5945 H 534.101 -1.43467 -0.416832 0
M  V30 5946 H 535.983 -2.49299 -3.39747 0
M  V30 5947 H 534.658 -1.39643 -2.9203 0
M  V30 5948 H 533.565 -3.34754 -1.67004 0
M  V30 5949 H 534.898 -4.39551 -2.21486 0
M  V30 5950 N 536.55 0.480323 -1.50102 0
M  V30 5951 C 537.798 1.23063 -1.60312 0
M  V30 5952 C 538.119 1.92659 -0.301226 0
M  V30 5953 O 537.389 1.83691 0.680753 0
M  V30 5954 H 535.969 0.457231 -0.590719 0
M  V30 5955 H 538.631 0.554893 -1.86834 0
M  V30 5956 H 537.727 1.9835 -2.40964 0
M  V30 5957 N 538.028 1.39524 0.732853 0
M  V30 5958 C 538.976 1.38563 1.86824 0
M  V30 5959 C 539.97 0.268467 1.67259 0
M  V30 5960 O 541.176 0.438613 1.74574 0
M  V30 5961 H 537.551 0.432737 0.615014 0
M  V30 5962 H 539.522 2.34328 1.84751 0
M  V30 5963 C 538.271 1.2481 3.24527 0
M  V30 5964 H 537.594 2.10044 3.40179 0
M  V30 5965 H 539.034 1.28194 4.04156 0
M  V30 5966 C 537.493 -0.0432825 3.36872 0
M  V30 5967 O 538.023 -1.01268 3.88726 0
M  V30 5968 N 536.229 -0.107055 2.90403 0
M  V30 5969 H 535.776 0.682512 2.48394 0
M  V30 5970 H 535.734 -0.970618 2.99042 0
M  V30 5971 N 539.506 -0.963266 1.24736 0
M  V30 5972 C 540.469 -2.04013 1.04457 0
M  V30 5973 C 541.469 -1.608 0.000335555 0
M  V30 5974 O 542.659 -1.72515 0.241719 0
M  V30 5975 C 539.791 -3.35858 0.584162 0
M  V30 5976 H 540.984 -2.23436 2.00041 0
M  V30 5977 H 538.537 -1.13914 1.07021 0
M  V30 5978 H 539.272 -3.22128 -0.374673 0
M  V30 5979 H 539.057 -3.68568 1.3379 0
M  V30 5980 H 540.547 -4.1502 0.463451 0
M  V30 5981 N 540.985 -1.06182 -1.16461 0
M  V30 5982 C 541.917 -0.629584 -2.20383 0
M  V30 5983 C 542.93 0.311834 -1.59786 0
M  V30 5984 O 544.119 0.103 -1.78203 0
M  V30 5985 C 541.219 0.0973695 -3.3876 0
M  V30 5986 C 540.392 -0.857252 -4.28917 0
M  V30 5987 C 539.451 -0.169749 -5.25926 0
M  V30 5988 O 538.477 -0.807044 -5.6345 0
M  V30 5989 N 539.679 1.08911 -5.70192 0
M  V30 5990 H 542.444 -1.52352 -2.58087 0
M  V30 5991 H 540.005 -0.944993 -1.31459 0
M  V30 5992 H 541.997 0.567676 -4.00699 0
M  V30 5993 H 540.567 0.893093 -2.99571 0
M  V30 5994 H 539.787 -1.50696 -3.64259 0
M  V30 5995 H 541.075 -1.50489 -4.86035 0
M  V30 5996 H 540.473 1.62703 -5.41797 0
M  V30 5997 H 539.03 1.50331 -6.34227 0
M  V30 5998 N 542.463 1.3308 -0.844243 0
M  V30 5999 C 543.41 2.29104 -0.279323 0
M  V30 6000 C 544.38 1.54577 0.607882 0
M  V30 6001 O 545.565 1.8285 0.545009 0
M  V30 6002 C 542.705 3.40927 0.53508 0
M  V30 6003 C 541.818 4.30354 -0.376749 0
M  V30 6004 C 540.953 5.29297 0.449276 0
M  V30 6005 C 539.992 6.10365 -0.460606 0
M  V30 6006 N 539.129 7.01335 0.327612 0
M  V30 6007 H 543.969 2.76817 -1.10346 0
M  V30 6008 H 541.506 1.36203 -0.555611 0
M  V30 6009 H 543.464 4.04469 1.02278 0
M  V30 6010 H 542.094 2.94391 1.32414 0
M  V30 6011 H 541.146 3.67485 -0.982791 0
M  V30 6012 H 542.458 4.87067 -1.07549 0
M  V30 6013 H 541.612 5.98392 1.00058 0
M  V30 6014 H 540.351 4.73174 1.18143 0
M  V30 6015 H 539.356 5.40182 -1.02388 0
M  V30 6016 H 540.581 6.68571 -1.1912 0
M  V30 6017 H 538.527 6.47655 1.04305 0
M  V30 6018 H 538.444 7.55355 -0.3123 0
M  V30 6019 H 539.712 7.74731 0.86098 0
M  V30 6020 N 543.941 0.601185 1.45683 0
M  V30 6021 C 545.352 0.179659 1.85834 0
M  V30 6022 C 545.703 -1.26189 1.50236 0
M  V30 6023 O 544.828 -1.95587 0.925987 0
M  V30 6024 C 545.423 0.319277 3.37292 0
M  V30 6025 C 543.982 -0.0475092 3.7637 0
M  V30 6026 C 543.129 0.646692 2.69654 0
M  V30 6027 H 546.08 0.808268 1.36575 0
M  V30 6028 H 546.101 -0.4503 3.77826 0
M  V30 6029 H 545.613 1.36855 3.6317 0
M  V30 6030 H 543.714 -1.0962 3.5611 0
M  V30 6031 H 543.827 0.34168 4.7788 0
M  V30 6032 H 542.191 0.0849971 2.54558 0
M  V30 6033 H 542.974 1.69797 2.98369 0
M  V30 6034 N 545.419 -1.53889 0.339982 0
M  V30 6035 C 546.835 -1.59595 -0.0120752 0
M  V30 6036 C 547.035 -1.35605 -1.49042 0
M  V30 6037 O 546.091 -1.14856 -2.24865 0
M  V30 6038 C 547.404 -2.9774 0.420898 0
M  V30 6039 C 548.952 -3.1077 0.37294 0
M  V30 6040 C 549.427 -4.51286 0.781327 0
M  V30 6041 N 550.918 -4.57325 0.735374 0
M  V30 6042 C 551.653 -5.64194 1.02336 0
M  V30 6043 N 551.149 -6.7893 1.37933 0
M  V30 6044 N 552.942 -5.54051 0.947838 0
M  V30 6045 H 545.093 -1.67738 1.30299 0
M  V30 6046 H 547.356 -0.785385 0.530918 0
M  V30 6047 H 547.062 -3.20349 1.45152 0
M  V30 6048 H 546.936 -3.76639 -0.205721 0
M  V30 6049 H 549.323 -2.87886 -0.648505 0
M  V30 6050 H 549.404 -2.33939 1.03472 0
M  V30 6051 H 549.048 -4.74905 1.80077 0
M  V30 6052 H 548.978 -5.26511 0.0970679 0
M  V30 6053 H 551.469 -3.74931 0.472773 0
M  V30 6054 H 551.782 -7.56392 1.58402 0
M  V30 6055 H 550.127 -6.80386 1.41774 0
M  V30 6056 H 553.318 -4.63293 0.669115 0
M  V30 6057 H 553.491 -6.37246 1.17563 0
M  V30 6058 N 546.897 -0.0685191 -1.57451 0
M  V30 6059 C 548.308 0.464634 -1.80826 0
M  V30 6060 C 548.659 1.69847 -0.982169 0
M  V30 6061 O 547.784 2.15439 -0.203734 0
M  V30 6062 C 548.379 0.849721 -3.27971 0
M  V30 6063 C 546.938 1.32776 -3.52204 0
M  V30 6064 C 546.085 0.311332 -2.75547 0
M  V30 6065 H 549.036 -0.294248 -1.55948 0
M  V30 6066 H 549.057 1.71138 -3.39841 0
M  V30 6067 H 548.569 -0.0484736 -3.8807 0
M  V30 6068 H 546.67 2.24456 -2.97406 0
M  V30 6069 H 546.783 1.30794 -4.60901 0
M  V30 6070 H 545.147 0.787915 -2.42206 0
M  V30 6071 H 545.93 -0.579078 -3.38381 0
M  V30 6072 N 548.375 1.56261 0.205012 0
M  V30 6073 C 549.305 1.96779 1.257 0
M  V30 6074 C 550.286 0.838309 1.48008 0
M  V30 6075 O 551.471 1.10189 1.59913 0
M  V30 6076 C 548.601 2.29876 2.60335 0
M  V30 6077 C 547.555 3.45469 2.52656 0
M  V30 6078 C 546.881 3.64215 3.91473 0
M  V30 6079 C 548.181 4.79954 2.06014 0
M  V30 6080 H 549.875 2.84904 0.920338 0
M  V30 6081 H 547.421 1.37072 0.441277 0
M  V30 6082 H 549.374 2.56814 3.34102 0
M  V30 6083 H 548.098 1.38622 2.95722 0
M  V30 6084 H 546.757 3.18605 1.81345 0
M  V30 6085 H 546.405 2.70309 4.24196 0
M  V30 6086 H 546.105 4.41973 3.87213 0
M  V30 6087 H 547.629 3.93519 4.66878 0
M  V30 6088 H 549.043 5.05989 2.69533 0
M  V30 6089 H 547.44 5.61111 2.12777 0
M  V30 6090 H 548.51 4.74201 1.01297 0
M  V30 6091 N 549.853 -0.472356 1.50355 0
M  V30 6092 C 551.083 -1.24603 1.64796 0
M  V30 6093 C 551.491 -1.86297 0.330156 0
M  V30 6094 O 550.834 -1.69934 -0.697728 0
M  V30 6095 C 550.896 -2.39578 2.68035 0
M  V30 6096 C 550.56 -1.98531 4.11624 0
M  V30 6097 C 551.557 -1.50856 4.97532 0
M  V30 6098 C 549.242 -2.0729 4.57532 0
M  V30 6099 C 551.236 -1.12481 6.27397 0
M  V30 6100 C 548.923 -1.68527 5.87403 0
M  V30 6101 C 549.921 -1.212 6.7216 0
M  V30 6102 O 549.609 -0.829728 7.99607 0
M  V30 6103 H 549.341 -0.383035 0.55701 0
M  V30 6104 H 551.895 -0.570392 1.97321 0
M  V30 6105 H 550.125 -3.10309 2.30749 0
M  V30 6106 H 551.814 -3.01544 2.71709 0
M  V30 6107 H 552.58 -1.43511 4.63281 0
M  V30 6108 H 548.459 -2.43076 3.91708 0
M  V30 6109 H 552.003 -0.754698 6.93506 0
M  V30 6110 H 547.9 -1.7553 6.21176 0
M  V30 6111 H 548.668 -0.958689 8.12866 0
M  V30 6112 N 551.331 -1.39911 -0.725443 0
M  V30 6113 C 552.579 -1.37382 -1.48224 0
M  V30 6114 C 552.9 0.0264107 -1.94982 0
M  V30 6115 O 552.17 0.979408 -1.6966 0
M  V30 6116 H 550.75 -0.505596 -0.549892 0
M  V30 6117 H 553.412 -1.7487 -0.860608 0
M  V30 6118 H 552.508 -2.04254 -2.3598 0
M  V30 6119 N 552.809 0.956637 -1.25245 0
M  V30 6120 C 553.772 2.03457 -1.05537 0
M  V30 6121 C 554.772 1.60798 -0.00886317 0
M  V30 6122 O 555.962 1.72384 -0.250865 0
M  V30 6123 C 553.094 3.35543 -0.601965 0
M  V30 6124 H 554.287 2.22372 -2.01223 0
M  V30 6125 H 551.84 1.13344 -1.07623 0
M  V30 6126 H 552.575 3.22323 0.357584 0
M  V30 6127 H 552.36 3.67854 -1.35743 0
M  V30 6128 H 553.85 4.14769 -0.485454 0
M  V30 6129 N 554.287 1.06798 1.15896 0
M  V30 6130 C 555.197 0.694564 2.24083 0
M  V30 6131 C 556.213 -0.291687 1.71538 0
M  V30 6132 O 557.389 -0.139723 2.00915 0
M  V30 6133 C 554.454 0.0921014 3.46578 0
M  V30 6134 C 553.515 1.13087 4.14137 0
M  V30 6135 C 552.748 0.557064 5.30785 0
M  V30 6136 O 552.971 -0.628623 5.66925 0
M  V30 6137 O 551.905 1.29924 5.8771 0
M  V30 6138 H 555.731 1.59663 2.58344 0
M  V30 6139 H 553.316 0.840575 1.2351 0
M  V30 6140 H 555.198 -0.241884 4.20705 0
M  V30 6141 H 553.873 -0.78337 3.14078 0
M  V30 6142 H 552.78 1.51712 3.41957 0
M  V30 6143 H 554.113 1.97805 4.50704 0
M  V30 6144 N 555.766 -1.3263 0.851289 0
M  V30 6145 C 556.696 -2.31449 0.308771 0
M  V30 6146 C 557.677 -1.59531 -0.590255 0
M  V30 6147 O 558.862 -1.87351 -0.511205 0
M  V30 6148 C 555.992 -3.43586 -0.506548 0
M  V30 6149 C 554.946 -4.26963 0.297753 0
M  V30 6150 C 554.272 -5.30831 -0.642094 0
M  V30 6151 C 555.572 -4.99643 1.52166 0
M  V30 6152 H 557.266 -2.77074 1.13447 0
M  V30 6153 H 554.812 -1.33207 0.546971 0
M  V30 6154 H 556.765 -4.11754 -0.896474 0
M  V30 6155 H 555.489 -2.96681 -1.36558 0
M  V30 6156 H 554.148 -3.60437 0.669391 0
M  V30 6157 H 553.796 -4.8018 -1.49788 0
M  V30 6158 H 553.496 -5.87501 -0.107968 0
M  V30 6159 H 555.02 -6.01862 -1.02927 0
M  V30 6160 H 556.434 -5.6051 1.20421 0
M  V30 6161 H 554.831 -5.66022 1.99347 0
M  V30 6162 H 555.901 -4.27701 2.28474 0
M  V30 6163 N 557.244 -0.608902 -1.45362 0
M  V30 6164 C 558.469 -0.10921 -2.07112 0
M  V30 6165 C 558.894 1.19779 -1.45033 0
M  V30 6166 O 558.252 1.72961 -0.543527 0
M  V30 6167 C 558.3 0.0155745 -3.60597 0
M  V30 6168 O 557.404 1.06546 -3.98399 0
M  V30 6169 H 556.745 -0.0746619 -0.659789 0
M  V30 6170 H 559.275 -0.839283 -1.86594 0
M  V30 6171 H 559.285 0.213364 -4.07442 0
M  V30 6172 H 557.96 -0.938765 -4.05167 0
M  V30 6173 H 556.537 0.844024 -3.63223 0
M  V30 6174 N 558.722 1.53707 -0.348139 0
M  V30 6175 C 559.67 2.26671 0.521808 0
M  V30 6176 C 560.664 1.28988 1.09811 0
M  V30 6177 O 561.87 1.4668 1.04332 0
M  V30 6178 H 558.245 0.728387 0.186968 0
M  V30 6179 H 560.216 2.98176 -0.115563 0
M  V30 6180 C 558.965 3.05591 1.6586 0
M  V30 6181 H 558.288 3.80589 1.22443 0
M  V30 6182 H 559.728 3.59851 2.24239 0
M  V30 6183 C 558.187 2.15366 2.59073 0
M  V30 6184 O 558.717 1.7528 3.61441 0
M  V30 6185 N 556.923 1.80352 2.27863 0
M  V30 6186 H 556.47 2.13149 1.44656 0
M  V30 6187 H 556.428 1.20268 2.90488 0
M  V30 6188 N 560.2 0.0768682 1.57412 0
M  V30 6189 C 561.13 -0.886026 2.16037 0
M  V30 6190 C 562.111 -1.30691 1.08876 0
M  V30 6191 O 563.296 -1.37705 1.36934 0
M  V30 6192 C 560.426 -2.1518 2.72608 0
M  V30 6193 C 559.38 -1.87015 3.8498 0
M  V30 6194 C 558.706 -3.20266 4.28175 0
M  V30 6195 C 560.006 -1.17143 5.08994 0
M  V30 6196 H 561.7 -0.397642 2.96748 0
M  V30 6197 H 559.246 -0.189823 1.42743 0
M  V30 6198 H 561.199 -2.82962 3.12266 0
M  V30 6199 H 559.923 -2.66269 1.89125 0
M  V30 6200 H 558.582 -1.21636 3.45833 0
M  V30 6201 H 558.23 -3.69207 3.41607 0
M  V30 6202 H 557.93 -3.0221 5.03927 0
M  V30 6203 H 559.454 -3.89237 4.70454 0
M  V30 6204 H 560.868 -1.75003 5.45937 0
M  V30 6205 H 559.265 -1.09328 5.90057 0
M  V30 6206 H 560.335 -0.151295 4.84664 0
M  V30 6207 N 561.678 -1.56367 -0.196722 0
M  V30 6208 C 562.626 -1.95304 -1.2633 0
M  V30 6209 C 563.62 -0.838252 -1.47206 0
M  V30 6210 O 564.826 -1.02325 -1.48087 0
M  V30 6211 H 561.201 -0.621013 -0.424083 0
M  V30 6212 H 563.172 -2.84254 -0.907879 0
M  V30 6213 C 561.921 -2.3074 -2.60104 0
M  V30 6214 H 561.244 -3.16047 -2.44856 0
M  V30 6215 H 562.684 -2.61849 -3.33484 0
M  V30 6216 C 561.143 -1.14143 -3.16975 0
M  V30 6217 O 561.673 -0.415602 -3.99544 0
M  V30 6218 N 559.879 -0.91867 -2.75697 0
M  V30 6219 H 559.426 -1.51065 -2.08656 0
M  V30 6220 H 559.384 -0.140321 -3.14087 0
M  V30 6221 N 563.156 0.464375 -1.50603 0
M  V30 6222 C 564.396 1.22573 -1.6357 0
M  V30 6223 C 564.76 1.89111 -0.331834 0
M  V30 6224 O 565.961 2.66679 -0.336999 0
M  V30 6225 C 564.232 2.23643 -2.7878 0
M  V30 6226 S 565.791 3.08628 -3.1192 0
M  V30 6227 H 562.609 0.416058 -0.576556 0
M  V30 6228 H 565.211 0.521637 -1.88412 0
M  V30 6229 H 563.915 1.73354 -3.7199 0
M  V30 6230 H 563.446 2.98672 -2.56044 0
M  V30 6231 H 565.461 4.24904 -2.56264 0
M  V30 6232 N 564.634 1.40294 0.718013 0
M  V30 6233 C 565.881 1.3844 1.47786 0
M  V30 6234 C 566.209 -0.0140838 1.94495 0
M  V30 6235 O 565.464 -0.998165 1.68331 0
M  V30 6236 C 565.763 2.31814 2.72024 0
M  V30 6237 C 565.429 3.79117 2.44093 0
M  V30 6238 C 564.091 4.19249 2.36185 0
M  V30 6239 C 566.443 4.72212 2.20602 0
M  V30 6240 C 563.771 5.50516 2.02851 0
M  V30 6241 C 566.123 6.03775 1.88781 0
M  V30 6242 C 564.787 6.42953 1.79354 0
M  V30 6243 H 564.057 0.506588 0.540786 0
M  V30 6244 H 566.704 1.72929 0.822663 0
M  V30 6245 H 565.009 1.90501 3.42369 0
M  V30 6246 H 566.706 2.27664 3.30106 0
M  V30 6247 H 563.296 3.47318 2.51133 0
M  V30 6248 H 567.48 4.42026 2.25669 0
M  V30 6249 H 562.736 5.79776 1.94088 0
M  V30 6250 H 566.91 6.75428 1.69617 0
M  V30 6251 H 564.537 7.44584 1.53291 0
M  V30 6252 N 566.112 -0.949982 1.2575 0
M  V30 6253 C 567.337 -1.73503 1.13628 0
M  V30 6254 C 567.762 -1.85601 -0.30559 0
M  V30 6255 O 567.12 -1.33984 -1.22139 0
M  V30 6256 C 567.168 -3.1243 1.80055 0
M  V30 6257 O 566.272 -3.97916 1.08336 0
M  V30 6258 H 565.613 -0.532665 0.396439 0
M  V30 6259 H 568.143 -1.19043 1.66403 0
M  V30 6260 H 568.153 -3.62866 1.86527 0
M  V30 6261 H 566.828 -3.02941 2.84956 0
M  V30 6262 H 565.405 -3.56375 1.09777 0
M  V30 6263 N 567.59 -1.07411 -1.15328 0
M  V30 6264 C 569.006 -0.799759 -1.38116 0
M  V30 6265 C 569.206 0.59572 -1.92493 0
M  V30 6266 O 568.262 1.35433 -2.13106 0
M  V30 6267 C 569.575 -1.87407 -2.35158 0
M  V30 6268 C 571.123 -1.89889 -2.48819 0
M  V30 6269 C 571.598 -2.96406 -3.49153 0
M  V30 6270 N 573.089 -2.95512 -3.56689 0
M  V30 6271 C 573.824 -3.74575 -4.34144 0
M  V30 6272 N 573.32 -4.63488 -5.14928 0
M  V30 6273 N 575.113 -3.62919 -4.29239 0
M  V30 6274 H 567.264 -1.97411 -0.78374 0
M  V30 6275 H 569.527 -0.856113 -0.407154 0
M  V30 6276 H 569.233 -2.8768 -2.0232 0
M  V30 6277 H 569.107 -1.73471 -3.34944 0
M  V30 6278 H 571.494 -0.902677 -2.80955 0
M  V30 6279 H 571.575 -2.07904 -1.49029 0
M  V30 6280 H 571.219 -3.96227 -3.17752 0
M  V30 6281 H 571.149 -2.75638 -4.48699 0
M  V30 6282 H 573.64 -2.31061 -2.99031 0
M  V30 6283 H 573.953 -5.20445 -5.71276 0
M  V30 6284 H 572.298 -4.67537 -5.14232 0
M  V30 6285 H 575.489 -2.92833 -3.65194 0
M  V30 6286 H 575.662 -4.24777 -4.89355 0
M  V30 6287 N 569.068 1.32177 -0.85831 0
M  V30 6288 C 570.031 2.27086 -0.310588 0
M  V30 6289 C 571.031 1.51751 0.531806 0
M  V30 6290 O 572.221 1.70794 0.34279 0
M  V30 6291 C 569.353 3.36266 0.560179 0
M  V30 6292 H 570.546 2.77045 -1.1483 0
M  V30 6293 H 568.099 1.42911 -0.632942 0
M  V30 6294 H 568.834 2.9158 1.41956 0
M  V30 6295 H 568.619 3.92077 -0.0428473 0
M  V30 6296 H 570.109 4.06974 0.936056 0
M  V30 6297 N 570.547 0.616602 1.45037 0
M  V30 6298 C 571.457 -0.0985401 2.34393 0
M  V30 6299 C 572.473 -0.850971 1.51771 0
M  V30 6300 O 573.649 -0.806521 1.84546 0
M  V30 6301 C 570.714 -1.07748 3.29532 0
M  V30 6302 C 569.775 -0.326022 4.2806 0
M  V30 6303 C 569.008 -1.25833 5.18654 0
M  V30 6304 O 569.231 -2.49652 5.12864 0
M  V30 6305 O 568.165 -0.750512 5.97203 0
M  V30 6306 H 571.991 0.636016 2.96966 0
M  V30 6307 H 569.576 0.376832 1.44569 0
M  V30 6308 H 571.458 -1.64107 3.88133 0
M  V30 6309 H 570.133 -1.79291 2.69512 0
M  V30 6310 H 569.04 0.280253 3.73049 0
M  V30 6311 H 570.373 0.349091 4.9096 0
M  V30 6312 N 572.025 -1.5352 0.356285 0
M  V30 6313 C 573.25 -2.06007 -0.239961 0
M  V30 6314 C 573.675 -1.22872 -1.42422 0
M  V30 6315 O 573.033 -0.245516 -1.7963 0
M  V30 6316 C 573.081 -3.5522 -0.620587 0
M  V30 6317 O 572.185 -3.74864 -1.71902 0
M  V30 6318 H 571.526 -0.662961 -0.0371377 0
M  V30 6319 H 574.056 -1.98033 0.514194 0
M  V30 6320 H 574.066 -3.98081 -0.894197 0
M  V30 6321 H 572.741 -4.15175 0.245407 0
M  V30 6322 H 571.318 -3.43904 -1.44169 0
M  V30 6323 N 573.503 -0.0852151 -1.57369 0
M  V30 6324 C 574.45 0.877268 -2.13478 0
M  V30 6325 C 575.42 1.28642 -1.05073 0
M  V30 6326 O 576.605 1.36992 -1.32808 0
M  V30 6327 C 573.745 2.13464 -2.71159 0
M  V30 6328 C 572.858 1.77691 -3.93764 0
M  V30 6329 C 571.993 2.98139 -4.39643 0
M  V30 6330 C 571.032 2.58447 -5.54862 0
M  V30 6331 N 570.169 3.71698 -5.95639 0
M  V30 6332 H 575.009 0.391933 -2.95411 0
M  V30 6333 H 572.546 0.181796 -1.45972 0
M  V30 6334 H 574.504 2.87086 -3.02717 0
M  V30 6335 H 573.134 2.59514 -1.91969 0
M  V30 6336 H 572.186 0.940768 -3.68583 0
M  V30 6337 H 573.498 1.44497 -4.77412 0
M  V30 6338 H 572.652 3.80026 -4.72933 0
M  V30 6339 H 571.391 3.34536 -3.54876 0
M  V30 6340 H 570.396 1.74984 -5.21211 0
M  V30 6341 H 571.621 2.23205 -6.41371 0
M  V30 6342 H 569.567 4.07831 -5.13819 0
M  V30 6343 H 569.484 3.42317 -6.74059 0
M  V30 6344 H 570.752 4.54123 -6.33555 0
M  V30 6345 N 574.981 1.5647 0.188427 0
M  V30 6346 C 576.229 1.80655 0.905986 0
M  V30 6347 C 576.55 0.659391 1.83513 0
M  V30 6348 O 575.82 -0.321868 1.93238 0
M  V30 6349 H 574.4 0.666391 0.337538 0
M  V30 6350 H 577.062 1.93949 0.192339 0
M  V30 6351 H 576.158 2.74066 1.49313 0
M  V30 6352 N 576.459 -0.456382 1.50847 0
M  V30 6353 C 577.699 -1.21704 1.64218 0
M  V30 6354 C 578.063 -1.88932 0.341859 0
M  V30 6355 O 579.264 -2.66497 0.351137 0
M  V30 6356 C 577.535 -2.22162 2.79962 0
M  V30 6357 S 579.094 -3.0697 3.13552 0
M  V30 6358 H 575.912 -0.412995 0.578754 0
M  V30 6359 H 578.514 -0.511637 1.88686 0
M  V30 6360 H 577.218 -1.71379 3.72904 0
M  V30 6361 H 576.749 -2.9731 2.57624 0
M  V30 6362 H 578.764 -4.23539 2.58513 0
M  V30 6363 N 577.937 -1.40673 -0.710563 0
M  V30 6364 C 578.884 -1.41336 -1.82463 0
M  V30 6365 C 579.854 -0.269648 -1.63897 0
M  V30 6366 O 581.039 -0.468463 -1.8496 0
M  V30 6367 C 578.179 -1.28665 -3.20218 0
M  V30 6368 C 577.292 -2.52784 -3.5032 0
M  V30 6369 C 576.427 -2.32517 -4.77608 0
M  V30 6370 C 575.466 -3.52187 -5.0063 0
M  V30 6371 N 574.603 -3.31084 -6.19135 0
M  V30 6372 H 579.443 -2.36558 -1.8123 0
M  V30 6373 H 576.98 -1.17483 -0.885226 0
M  V30 6374 H 578.938 -1.19324 -3.99772 0
M  V30 6375 H 577.568 -0.370602 -3.20666 0
M  V30 6376 H 576.62 -2.72634 -2.65283 0
M  V30 6377 H 577.932 -3.41845 -3.63241 0
M  V30 6378 H 577.086 -2.20558 -5.65189 0
M  V30 6379 H 575.825 -1.40889 -4.66906 0
M  V30 6380 H 574.83 -3.64617 -4.11502 0
M  V30 6381 H 576.055 -4.44749 -5.13201 0
M  V30 6382 H 574.001 -2.42143 -6.09674 0
M  V30 6383 H 573.918 -4.13713 -6.32754 0
M  V30 6384 H 575.186 -3.22868 -7.0949 0
M  V30 6385 N 579.415 0.9433 -1.26252 0
M  V30 6386 C 580.325 2.07532 -1.09397 0
M  V30 6387 C 581.341 1.73977 -0.0280449 0
M  V30 6388 O 582.517 2.00067 -0.231337 0
M  V30 6389 C 579.582 3.39002 -0.726523 0
M  V30 6390 C 578.643 3.86353 -1.87163 0
M  V30 6391 C 577.876 5.11549 -1.52162 0
M  V30 6392 O 578.099 5.68834 -0.422385 0
M  V30 6393 O 577.033 5.53889 -2.35565 0
M  V30 6394 H 580.859 2.24658 -2.04359 0
M  V30 6395 H 578.444 1.05988 -1.05295 0
M  V30 6396 H 580.326 4.18 -0.534236 0
M  V30 6397 H 579.001 3.2312 0.193721 0
M  V30 6398 H 577.908 3.0831 -2.11886 0
M  V30 6399 H 579.241 4.06752 -2.77152 0
M  V30 6400 N 580.893 1.08022 1.14757 0
M  V30 6401 C 582.141 0.805913 1.85336 0
M  V30 6402 C 582.462 -0.670162 1.83122 0
M  V30 6403 O 581.732 -1.48567 1.2769 0
M  V30 6404 H 580.312 0.295138 0.686223 0
M  V30 6405 H 582.974 1.36538 1.3908 0
M  V30 6406 H 582.07 1.14655 2.90277 0
M  V30 6407 N 582.371 -1.3172 0.865308 0
M  V30 6408 C 583.601 -2.00765 0.487543 0
M  V30 6409 C 584.009 -1.65145 -0.92325 0
M  V30 6410 O 583.352 -0.874294 -1.61561 0
M  V30 6411 C 583.414 -3.55122 0.559369 0
M  V30 6412 C 583.078 -4.14202 1.93095 0
M  V30 6413 C 584.075 -4.3165 2.89784 0
M  V30 6414 C 581.76 -4.50036 2.23099 0
M  V30 6415 C 583.754 -4.84114 4.14623 0
M  V30 6416 C 581.441 -5.02203 3.48189 0
M  V30 6417 C 582.439 -5.19192 4.43767 0
M  V30 6418 O 582.127 -5.70241 5.6664 0
M  V30 6419 H 581.859 -0.649066 0.188915 0
M  V30 6420 H 584.413 -1.69032 1.16694 0
M  V30 6421 H 582.643 -3.86295 -0.176926 0
M  V30 6422 H 584.332 -4.05428 0.195694 0
M  V30 6423 H 585.098 -4.04288 2.6791 0
M  V30 6424 H 580.977 -4.36091 1.49485 0
M  V30 6425 H 584.521 -4.9729 4.89233 0
M  V30 6426 H 580.418 -5.28997 3.69908 0
M  V30 6427 H 581.186 -5.88617 5.68746 0
M  V30 6428 N 583.85 -0.624285 -1.44708 0
M  V30 6429 C 585.26 -0.2092 -1.85524 0
M  V30 6430 C 585.611 1.23783 -1.52225 0
M  V30 6431 O 584.736 1.94089 -0.956986 0
M  V30 6432 C 585.332 -0.372897 -3.36742 0
M  V30 6433 C 583.891 -0.012374 -3.76398 0
M  V30 6434 C 583.038 -0.68951 -2.68591 0
M  V30 6435 H 585.989 -0.829894 -1.35272 0
M  V30 6436 H 586.01 0.390134 -3.78495 0
M  V30 6437 H 585.522 -1.42615 -3.60947 0
M  V30 6438 H 583.623 1.03941 -3.57809 0
M  V30 6439 H 583.736 -0.417663 -4.77276 0
M  V30 6440 H 582.1 -0.125484 -2.54391 0
M  V30 6441 H 582.883 -1.74522 -2.9563 0
M  V30 6442 N 585.328 1.53329 -0.364422 0
M  V30 6443 C 586.568 2.0315 0.22572 0
M  V30 6444 C 586.932 1.24589 1.46087 0
M  V30 6445 O 588.133 1.64411 2.12656 0
M  V30 6446 C 586.404 3.53718 0.511663 0
M  V30 6447 S 587.963 4.25412 1.07564 0
M  V30 6448 H 584.781 0.70795 0.0657843 0
M  V30 6449 H 587.383 1.88811 -0.507019 0
M  V30 6450 H 586.087 4.08497 -0.394784 0
M  V30 6451 H 585.618 3.72217 1.27351 0
M  V30 6452 H 587.633 4.36486 2.35997 0
M  V30 6453 N 586.806 0.0935595 1.57322 0
M  V30 6454 C 587.738 -0.895923 2.10964 0
M  V30 6455 C 588.751 -1.24705 1.04654 0
M  V30 6456 O 589.94 -1.20044 1.32105 0
M  V30 6457 C 587.04 -2.20546 2.57318 0
M  V30 6458 C 586.213 -2.0299 3.87445 0
M  V30 6459 C 585.272 -3.17443 4.19662 0
M  V30 6460 O 584.298 -2.91474 4.88909 0
M  V30 6461 N 585.5 -4.43168 3.74943 0
M  V30 6462 H 588.265 -0.437788 2.96485 0
M  V30 6463 H 585.826 -0.0915863 1.61641 0
M  V30 6464 H 587.818 -2.9606 2.75917 0
M  V30 6465 H 586.388 -2.57789 1.76816 0
M  V30 6466 H 585.608 -1.11815 3.78009 0
M  V30 6467 H 586.896 -1.88535 4.7258 0
M  V30 6468 H 586.294 -4.67149 3.19043 0
M  V30 6469 H 584.851 -5.15637 3.987 0
M  V30 6470 N 588.284 -1.56567 -0.180126 0
M  V30 6471 C 589.561 -1.7235 -0.924931 0
M  V30 6472 C 589.941 -0.652523 -2.00762 0
M  V30 6473 O 589.289 0.334115 -2.26044 0
M  V30 6474 C 589.499 -3.1523 -1.49771 0
M  V30 6475 C 590.847 -3.75921 -1.97405 0
M  V30 6476 O 591.871 -3.18452 -1.59583 0
M  V30 6477 O 590.73 -4.7681 -2.67048 0
M  V30 6478 H 587.824 -0.703502 -0.434758 0
M  V30 6479 H 590.37 -1.6886 -0.168647 0
M  V30 6480 H 589.142 -3.84656 -0.718027 0
M  V30 6481 H 588.765 -3.23009 -2.31842 0
M  V30 6482 N 589.762 0.448376 -1.51087 0
M  V30 6483 C 591.01 1.19635 -1.62886 0
M  V30 6484 C 591.331 1.91977 -0.342024 0
M  V30 6485 O 590.601 1.85094 0.641636 0
M  V30 6486 H 589.181 0.444598 -0.600285 0
M  V30 6487 H 591.843 0.515138 -1.87969 0
M  V30 6488 H 590.939 1.93194 -2.45117 0
M  V30 6489 N 591.24 1.41047 0.703093 0
M  V30 6490 C 592.173 1.36713 1.82715 0
M  V30 6491 C 593.151 0.235533 1.60885 0
M  V30 6492 O 594.335 0.421227 1.83733 0
M  V30 6493 C 591.462 1.13069 3.1927 0
M  V30 6494 C 590.508 2.28846 3.59905 0
M  V30 6495 S 591.341 3.91297 3.65578 0
M  V30 6496 C 592.497 3.69941 5.04871 0
M  V30 6497 H 592.73 2.31838 1.86114 0
M  V30 6498 H 590.263 1.27481 0.871083 0
M  V30 6499 H 592.221 1.00113 3.98105 0
M  V30 6500 H 590.882 0.195763 3.13489 0
M  V30 6501 H 590.075 2.07977 4.59088 0
M  V30 6502 H 589.677 2.3817 2.88359 0
M  V30 6503 H 591.969 3.29181 5.92154 0
M  V30 6504 H 592.912 4.68699 5.30779 0
M  V30 6505 H 593.32 3.03369 4.76054 0
M  V30 6506 N 592.718 -0.936591 1.26751 0
M  V30 6507 C 593.958 -1.69796 1.13792 0
M  V30 6508 C 594.322 -1.89437 -0.312671 0
M  V30 6509 O 595.523 -2.62806 -0.564489 0
M  V30 6510 C 593.794 -3.03297 1.89065 0
M  V30 6511 S 595.353 -3.94461 1.92214 0
M  V30 6512 H 592.171 -0.583412 0.406389 0
M  V30 6513 H 594.773 -1.11575 1.60535 0
M  V30 6514 H 593.477 -2.86687 2.93665 0
M  V30 6515 H 593.008 -3.66575 1.42781 0
M  V30 6516 H 595.023 -4.85767 1.01215 0
M  V30 6517 N 594.196 -1.08629 -1.14182 0
M  V30 6518 C 595.444 -0.815731 -1.84906 0
M  V30 6519 C 595.765 0.660441 -1.83475 0
M  V30 6520 O 595.035 1.47888 -1.28476 0
M  V30 6521 H 593.615 -0.298773 -0.684648 0
M  V30 6522 H 596.277 -1.37274 -1.38354 0
M  V30 6523 H 595.373 -1.16193 -2.89665 0
M  V30 6524 N 595.674 1.31259 -0.872281 0
M  V30 6525 C 596.904 2.00504 -0.498183 0
M  V30 6526 C 597.312 1.65632 0.914479 0
M  V30 6527 O 596.655 0.882849 1.61095 0
M  V30 6528 C 596.717 3.5482 -0.578194 0
M  V30 6529 C 596.381 4.13172 -1.95289 0
M  V30 6530 C 597.378 4.30107 -2.92069 0
M  V30 6531 C 595.063 4.48846 -2.25483 0
M  V30 6532 C 597.057 4.81908 -4.17185 0
M  V30 6533 C 594.744 5.00349 -3.50847 0
M  V30 6534 C 595.742 5.16831 -4.46514 0
M  V30 6535 O 595.43 5.67228 -5.69656 0
M  V30 6536 H 595.162 0.648055 -0.192354 0
M  V30 6537 H 597.716 1.6841 -1.17589 0
M  V30 6538 H 595.946 3.86383 0.156438 0
M  V30 6539 H 597.635 4.05318 -0.217192 0
M  V30 6540 H 598.401 4.02862 -2.7005 0
M  V30 6541 H 594.28 4.35292 -1.51795 0
M  V30 6542 H 597.824 4.94688 -4.91863 0
M  V30 6543 H 593.721 5.27028 -3.72708 0
M  V30 6544 H 594.489 5.85592 -5.7186 0
M  V30 6545 N 597.152 0.631951 1.44375 0
M  V30 6546 C 598.392 0.14009 2.03919 0
M  V30 6547 C 598.756 -1.21534 1.48639 0
M  V30 6548 O 599.957 -1.79936 1.99691 0
M  V30 6549 C 598.228 0.127174 3.57174 0
M  V30 6550 S 599.787 -0.299946 4.37774 0
M  V30 6551 H 596.605 0.0614891 0.708336 0
M  V30 6552 H 599.207 0.835524 1.76746 0
M  V30 6553 H 597.911 1.11676 3.94913 0
M  V30 6554 H 597.442 -0.589482 3.88958 0
M  V30 6555 H 599.457 -1.54396 4.71568 0
M  V30 6556 N 598.631 -1.53133 0.372548 0
M  V30 6557 C 599.581 -2.22733 -0.487218 0
M  V30 6558 C 600.565 -1.22506 -1.04312 0
M  V30 6559 O 601.757 -1.47923 -0.972005 0
M  V30 6560 C 598.886 -3.02524 -1.62278 0
M  V30 6561 C 597.972 -4.10133 -1.07943 0
M  V30 6562 N 598.363 -5.05133 -0.259629 0
M  V30 6563 C 596.661 -4.24964 -1.35356 0
M  V30 6564 C 597.362 -5.81687 0.0386656 0
M  V30 6565 N 596.338 -5.40699 -0.560827 0
M  V30 6566 H 600.14 -2.93538 0.145853 0
M  V30 6567 H 597.654 -1.61389 0.180938 0
M  V30 6568 H 599.651 -3.50909 -2.25096 0
M  V30 6569 H 598.311 -2.33252 -2.25884 0
M  V30 6570 H 599.322 -5.178 0.101746 0
M  V30 6571 H 595.999 -3.66919 -1.9919 0
M  V30 6572 H 597.389 -6.68224 0.701841 0
M  V30 6573 N 600.109 -0.101901 -1.5727 0
M  V30 6574 C 601.059 0.865346 -2.1094 0
M  V30 6575 C 602.043 1.2394 -1.02605 0
M  V30 6576 O 603.235 1.21334 -1.28868 0
M  V30 6577 C 600.364 2.12187 -2.69874 0
M  V30 6578 C 599.45 1.77295 -3.85263 0
M  V30 6579 N 599.841 1.12993 -4.93017 0
M  V30 6580 C 598.139 2.06862 -3.95126 0
M  V30 6581 C 598.84 0.968631 -5.73579 0
M  V30 6582 N 597.816 1.48814 -5.22834 0
M  V30 6583 H 601.618 0.364368 -2.91633 0
M  V30 6584 H 599.132 0.101104 -1.62085 0
M  V30 6585 H 601.129 2.82431 -3.06657 0
M  V30 6586 H 599.789 2.62844 -1.90639 0
M  V30 6587 H 600.8 0.795935 -5.11747 0
M  V30 6588 H 597.477 2.59686 -3.26909 0
M  V30 6589 H 598.867 0.465231 -6.70287 0
M  V30 6590 N 601.587 1.56661 0.17182 0
M  V30 6591 C 603.003 1.50768 0.52357 0
M  V30 6592 C 603.203 0.806072 1.84675 0
M  V30 6593 O 602.259 0.366233 2.4983 0
M  V30 6594 C 603.572 2.955 0.556793 0
M  V30 6595 C 605.12 3.06303 0.644029 0
M  V30 6596 C 605.595 4.52492 0.708148 0
M  V30 6597 N 607.086 4.56737 0.771051 0
M  V30 6598 C 607.821 5.67196 0.841229 0
M  V30 6599 N 607.317 6.87287 0.872272 0
M  V30 6600 N 609.11 5.55165 0.88021 0
M  V30 6601 H 601.261 2.00679 -0.695817 0
M  V30 6602 H 603.524 0.914219 -0.250814 0
M  V30 6603 H 603.23 3.49986 -0.346774 0
M  V30 6604 H 603.104 3.50119 1.40346 0
M  V30 6605 H 605.491 2.51851 1.53802 0
M  V30 6606 H 605.572 2.5477 -0.229297 0
M  V30 6607 H 605.216 5.07575 -0.181585 0
M  V30 6608 H 605.146 5.01781 1.59761 0
M  V30 6609 H 607.637 3.70274 0.755364 0
M  V30 6610 H 607.95 7.6722 0.92698 0
M  V30 6611 H 606.295 6.89898 0.840557 0
M  V30 6612 H 609.486 4.60263 0.852956 0
M  V30 6613 H 609.659 6.41271 0.931439 0
M  V30 6614 N 603.065 -0.440357 1.51323 0
M  V30 6615 C 604.481 -0.7766 1.39431 0
M  V30 6616 C 604.681 -1.95838 0.474296 0
M  V30 6617 O 603.737 -2.52398 -0.0716692 0
M  V30 6618 C 605.05 -1.05981 2.81405 0
M  V30 6619 C 606.598 -1.16442 2.90534 0
M  V30 6620 C 607.073 -1.48058 4.33408 0
M  V30 6621 N 608.564 -1.54988 4.36501 0
M  V30 6622 C 609.299 -1.81017 5.44078 0
M  V30 6623 N 608.795 -2.04858 6.61819 0
M  V30 6624 N 610.588 -1.82774 5.31554 0
M  V30 6625 H 602.739 0.338006 2.09693 0
M  V30 6626 H 605.002 0.0888072 0.943831 0
M  V30 6627 H 604.708 -0.264173 3.50706 0
M  V30 6628 H 604.582 -1.98822 3.20546 0
M  V30 6629 H 606.969 -1.95068 2.21432 0
M  V30 6630 H 607.05 -0.215088 2.54894 0
M  V30 6631 H 606.694 -0.699605 5.03059 0
M  V30 6632 H 606.624 -2.44192 4.66559 0
M  V30 6633 H 609.115 -1.38479 3.51613 0
M  V30 6634 H 609.428 -2.2408 7.396 0
M  V30 6635 H 607.773 -2.02187 6.6494 0
M  V30 6636 H 610.964 -1.63665 4.38556 0
M  V30 6637 H 611.137 -2.02722 6.15474 0
M  V30 6638 N 604.543 -1.41418 -0.695603 0
M  V30 6639 C 605.792 -1.40073 -1.4513 0
M  V30 6640 C 606.105 -0.0130439 -1.95596 0
M  V30 6641 O 607.311 0.123032 -2.71221 0
M  V30 6642 C 605.767 -2.46286 -2.62433 0
M  V30 6643 C 605.375 -3.90962 -2.18753 0
M  V30 6644 C 607.119 -2.54077 -3.40066 0
M  V30 6645 C 605.026 -4.88728 -3.33015 0
M  V30 6646 H 603.956 -0.520903 -0.545138 0
M  V30 6647 H 606.607 -1.67242 -0.75515 0
M  V30 6648 H 604.989 -2.12248 -3.34315 0
M  V30 6649 H 606.163 -4.34248 -1.54161 0
M  V30 6650 H 604.478 -3.86831 -1.54114 0
M  V30 6651 H 607.075 -3.24303 -4.25125 0
M  V30 6652 H 607.418 -1.5776 -3.8525 0
M  V30 6653 H 607.951 -2.87206 -2.75241 0
M  V30 6654 H 604.69 -5.86449 -2.92844 0
M  V30 6655 H 604.21 -4.50091 -3.96457 0
M  V30 6656 H 605.889 -5.09483 -3.98793 0
M  V30 6657 N 606.021 0.929856 -1.27246 0
M  V30 6658 C 606.968 2.03017 -1.09785 0
M  V30 6659 C 607.938 1.661 0.000456744 0
M  V30 6660 O 609.123 1.90116 -0.161462 0
M  V30 6661 C 606.263 3.36878 -0.748816 0
M  V30 6662 C 605.376 3.86763 -1.92453 0
M  V30 6663 C 604.511 5.09061 -1.51758 0
M  V30 6664 C 603.55 5.51237 -2.66091 0
M  V30 6665 N 602.687 6.64732 -2.25999 0
M  V30 6666 H 607.527 2.17285 -2.03939 0
M  V30 6667 H 605.064 1.06448 -1.01524 0
M  V30 6668 H 607.022 4.13855 -0.527283 0
M  V30 6669 H 605.652 3.22424 0.155771 0
M  V30 6670 H 604.704 3.06086 -2.25867 0
M  V30 6671 H 606.016 4.13994 -2.78227 0
M  V30 6672 H 605.17 5.93532 -1.25716 0
M  V30 6673 H 603.909 4.83602 -0.630896 0
M  V30 6674 H 602.914 4.65316 -2.92849 0
M  V30 6675 H 604.139 5.78692 -3.55377 0
M  V30 6676 H 602.085 6.40935 -1.3978 0
M  V30 6677 H 602.002 6.91607 -3.05313 0
M  V30 6678 H 603.27 7.52549 -2.03199 0
M  V30 6679 N 607.499 1.09233 1.13605 0
M  V30 6680 C 608.748 0.82205 1.84188 0
M  V30 6681 C 609.061 -0.654548 1.84323 0
M  V30 6682 O 610.267 -1.04029 2.50779 0
M  V30 6683 C 608.723 1.42066 3.30674 0
M  V30 6684 C 608.331 2.92965 3.38933 0
M  V30 6685 C 610.075 1.22924 4.06313 0
M  V30 6686 C 607.982 3.45922 4.79679 0
M  V30 6687 H 606.912 0.303854 0.690064 0
M  V30 6688 H 609.563 1.31479 1.28006 0
M  V30 6689 H 607.945 0.855613 3.86646 0
M  V30 6690 H 609.119 3.55679 2.92966 0
M  V30 6691 H 607.434 3.11118 2.76757 0
M  V30 6692 H 610.031 1.59945 5.10217 0
M  V30 6693 H 610.374 0.169726 4.15954 0
M  V30 6694 H 610.907 1.76168 3.56665 0
M  V30 6695 H 607.646 4.51484 4.75229 0
M  V30 6696 H 607.166 2.87971 5.26149 0
M  V30 6697 H 608.845 3.43009 5.48592 0
M  V30 6698 N 608.977 -1.30795 0.87923 0
M  V30 6699 C 610.202 -2.01063 0.508769 0
M  V30 6700 C 610.627 -1.65508 -0.893803 0
M  V30 6701 O 609.985 -0.868616 -1.59138 0
M  V30 6702 C 610.033 -3.54054 0.683991 0
M  V30 6703 O 609.137 -4.11498 -0.272654 0
M  V30 6704 H 608.478 -0.632786 0.201191 0
M  V30 6705 H 611.008 -1.66776 1.18519 0
M  V30 6706 H 611.018 -4.03845 0.580798 0
M  V30 6707 H 609.693 -3.79271 1.70665 0
M  V30 6708 H 608.27 -3.72695 -0.12364 0
M  V30 6709 N 610.455 -0.639598 -1.44038 0
M  V30 6710 C 611.403 0.0723409 -2.32487 0
M  V30 6711 C 612.397 0.827129 -1.47834 0
M  V30 6712 O 613.603 0.73907 -1.64127 0
M  V30 6713 H 609.978 0.0421696 -0.750817 0
M  V30 6714 H 611.949 -0.691593 -2.90275 0
M  V30 6715 C 610.698 1.03452 -3.31953 0
M  V30 6716 H 610.021 0.46315 -3.97108 0
M  V30 6717 H 611.461 1.502 -3.96505 0
M  V30 6718 C 609.92 2.12392 -2.61518 0
M  V30 6719 O 610.45 3.2059 -2.42044 0
M  V30 6720 N 608.656 1.88563 -2.21116 0
M  V30 6721 H 608.203 1.00577 -2.37154 0
M  V30 6722 H 608.161 2.61651 -1.74316 0
M  V30 6723 N 611.933 1.52934 -0.380664 0
M  V30 6724 C 613.18 2.01467 0.204278 0
M  V30 6725 C 613.508 1.26744 1.47533 0
M  V30 6726 O 612.763 0.353723 1.92477 0
M  V30 6727 C 613.062 3.5349 0.527199 0
M  V30 6728 C 612.728 4.46171 -0.651295 0
M  V30 6729 C 611.39 4.71227 -0.974619 0
M  V30 6730 C 613.742 5.00909 -1.44012 0
M  V30 6731 C 611.07 5.4827 -2.08847 0
M  V30 6732 C 613.422 5.7917 -2.5445 0
M  V30 6733 C 612.086 6.02507 -2.87301 0
M  V30 6734 H 611.356 0.73722 0.0747504 0
M  V30 6735 H 614.003 1.84411 -0.516234 0
M  V30 6736 H 612.308 3.68574 1.32892 0
M  V30 6737 H 614.005 3.88529 0.992283 0
M  V30 6738 H 610.595 4.26829 -0.389276 0
M  V30 6739 H 614.779 4.81485 -1.20357 0
M  V30 6740 H 610.035 5.64567 -2.34679 0
M  V30 6741 H 614.209 6.20588 -3.1598 0
M  V30 6742 H 611.836 6.61989 -3.7373 0
M  V30 6743 N 613.412 0.11024 1.57214 0
M  V30 6744 C 614.637 -0.561179 1.99664 0
M  V30 6745 C 615.062 -1.59985 0.989266 0
M  V30 6746 O 614.42 -1.81255 -0.0402399 0
M  V30 6747 C 614.468 -1.17189 3.41027 0
M  V30 6748 O 613.572 -2.28755 3.4314 0
M  V30 6749 H 612.913 -0.14101 0.648855 0
M  V30 6750 H 615.443 0.196128 2.03658 0
M  V30 6751 H 615.453 -1.50954 3.79047 0
M  V30 6752 H 614.128 -0.411041 4.13864 0
M  V30 6753 H 612.705 -1.96495 3.16929 0
M  V30 6754 N 614.89 -1.56749 -0.16351 0
M  V30 6755 C 615.853 -1.96121 -1.18613 0
M  V30 6756 C 616.853 -0.845765 -1.36761 0
M  V30 6757 O 618.043 -1.11268 -1.34033 0
M  V30 6758 C 615.175 -2.26282 -2.54969 0
M  V30 6759 H 616.368 -2.87639 -0.848764 0
M  V30 6760 H 613.921 -1.50928 -0.406251 0
M  V30 6761 H 614.656 -1.37504 -2.93706 0
M  V30 6762 H 614.441 -3.07595 -2.43162 0
M  V30 6763 H 615.931 -2.57638 -3.28653 0
M  V30 6764 N 616.368 0.432326 -1.51554 0
M  V30 6765 C 617.316 1.54572 -1.73811 0
M  V30 6766 C 618.31 1.58246 -0.604539 0
M  V30 6767 O 619.516 1.6193 -0.786041 0
M  V30 6768 H 615.891 0.513626 -0.549265 0
M  V30 6769 H 617.862 1.32977 -2.67132 0
M  V30 6770 C 616.611 2.92181 -1.88483 0
M  V30 6771 H 615.934 2.90088 -2.75116 0
M  V30 6772 H 617.374 3.69439 -2.08065 0
M  V30 6773 C 615.833 3.3065 -0.645909 0
M  V30 6774 O 616.363 4.01216 0.197093 0
M  V30 6775 N 614.569 2.86464 -0.488538 0
M  V30 6776 H 614.116 2.29209 -1.17562 0
M  V30 6777 H 614.074 3.12565 0.339156 0
M  V30 6778 N 617.846 1.41785 0.688094 0
M  V30 6779 C 618.776 1.47 1.8142 0
M  V30 6780 C 619.757 0.327881 1.6691 0
M  V30 6781 O 620.942 0.540362 1.86531 0
M  V30 6782 C 618.072 1.35876 3.19617 0
M  V30 6783 C 617.026 2.47976 3.48844 0
M  V30 6784 C 616.352 2.21915 4.86475 0
M  V30 6785 C 617.652 3.90309 3.47068 0
M  V30 6786 H 619.346 2.41247 1.77314 0
M  V30 6787 H 616.892 1.16116 0.851651 0
M  V30 6788 H 618.845 1.38134 3.98117 0
M  V30 6789 H 617.569 0.38116 3.24368 0
M  V30 6790 H 616.228 2.45013 2.72698 0
M  V30 6791 H 615.876 1.2248 4.8786 0
M  V30 6792 H 615.576 2.97037 5.06994 0
M  V30 6793 H 617.1 2.25901 5.67275 0
M  V30 6794 H 618.514 3.94947 4.1556 0
M  V30 6795 H 616.911 4.65175 3.7912 0
M  V30 6796 H 617.981 4.17927 2.45896 0
M  V30 6797 N 619.324 -0.923095 1.27737 0
M  V30 6798 C 620.552 -1.70525 1.17171 0
M  V30 6799 C 620.967 -1.86847 -0.270881 0
M  V30 6800 O 620.324 -1.38879 -1.18401 0
M  V30 6801 C 620.375 -3.10242 1.85559 0
M  V30 6802 O 620.096 -2.94683 3.24182 0
M  V30 6803 C 621.597 -4.04586 1.81176 0
M  V30 6804 H 618.817 -0.533347 0.407163 0
M  V30 6805 H 621.361 -1.15599 1.68692 0
M  V30 6806 H 619.516 -3.62014 1.3793 0
M  V30 6807 H 619.93 -3.83045 3.58297 0
M  V30 6808 H 621.404 -5.00119 2.33633 0
M  V30 6809 H 621.881 -4.3218 0.782099 0
M  V30 6810 H 622.487 -3.58741 2.2844 0
M  V30 6811 N 620.802 -1.09834 -1.13024 0
M  V30 6812 C 622.218 -0.828875 -1.36388 0
M  V30 6813 C 622.418 0.554756 -1.93713 0
M  V30 6814 O 621.474 1.30882 -2.15931 0
M  V30 6815 C 622.787 -1.92352 -2.3113 0
M  V30 6816 C 624.335 -1.95124 -2.44735 0
M  V30 6817 C 624.81 -3.03745 -3.42787 0
M  V30 6818 N 626.301 -3.03012 -3.5034 0
M  V30 6819 C 627.036 -3.83699 -4.26101 0
M  V30 6820 N 626.532 -4.74306 -5.04981 0
M  V30 6821 N 628.325 -3.71942 -4.21445 0
M  V30 6822 H 620.476 -1.99029 -0.74169 0
M  V30 6823 H 622.739 -0.864557 -0.388903 0
M  V30 6824 H 622.445 -2.91906 -1.96172 0
M  V30 6825 H 622.319 -1.80536 -3.3119 0
M  V30 6826 H 624.706 -0.962069 -2.78977 0
M  V30 6827 H 624.787 -2.11018 -1.44586 0
M  V30 6828 H 624.431 -4.02878 -3.09276 0
M  V30 6829 H 624.361 -2.85094 -4.42752 0
M  V30 6830 H 626.852 -2.37352 -2.94062 0
M  V30 6831 H 627.165 -5.32446 -5.60108 0
M  V30 6832 H 625.51 -4.78339 -5.04199 0
M  V30 6833 H 628.701 -3.00513 -3.589 0
M  V30 6834 H 628.874 -4.35062 -4.80235 0
M  V30 6835 N 622.28 1.30327 -0.886154 0
M  V30 6836 C 623.505 2.0079 -0.519425 0
M  V30 6837 C 623.93 1.65979 0.885013 0
M  V30 6838 O 623.288 0.877043 1.58675 0
M  V30 6839 C 623.336 3.53686 -0.702758 0
M  V30 6840 O 622.44 4.11637 0.250828 0
M  V30 6841 H 621.781 0.63171 -0.204544 0
M  V30 6842 H 624.311 1.66145 -1.19402 0
M  V30 6843 H 624.321 4.03531 -0.602207 0
M  V30 6844 H 622.996 3.78361 -1.72673 0
M  V30 6845 H 621.573 3.72755 0.103873 0
M  V30 6846 N 623.758 0.647228 1.43697 0
M  V30 6847 C 624.983 0.164083 2.0675 0
M  V30 6848 C 625.408 -1.15892 1.48158 0
M  V30 6849 O 624.766 -1.71459 0.589194 0
M  V30 6850 C 624.814 0.0800368 3.60511 0
M  V30 6851 O 623.918 -0.959453 4.01084 0
M  V30 6852 H 623.259 0.0921288 0.657578 0
M  V30 6853 H 625.789 0.88846 1.84303 0
M  V30 6854 H 625.799 -0.105263 4.07864 0
M  V30 6855 H 624.474 1.04586 4.02535 0
M  V30 6856 H 623.051 -0.747425 3.65333 0
M  V30 6857 N 625.236 -1.5273 0.388769 0
M  V30 6858 C 626.461 -2.0647 -0.19621 0
M  V30 6859 C 626.886 -1.25865 -1.39784 0
M  V30 6860 O 626.244 -0.283562 -1.79069 0
M  V30 6861 C 626.292 -3.56456 -0.5451 0
M  V30 6862 O 625.396 -3.78426 -1.63912 0
M  V30 6863 H 624.737 -0.663599 -0.023067 0
M  V30 6864 H 627.267 -1.96898 0.556084 0
M  V30 6865 H 627.277 -3.99888 -0.809557 0
M  V30 6866 H 625.952 -4.14561 0.333417 0
M  V30 6867 H 624.529 -3.46884 -1.36842 0
M  V30 6868 N 626.714 -0.118576 -1.57153 0
M  V30 6869 C 627.939 0.550582 -1.99958 0
M  V30 6870 C 628.364 1.59458 -0.997736 0
M  V30 6871 O 627.722 1.81274 0.0306269 0
M  V30 6872 C 627.77 1.15379 -3.41643 0
M  V30 6873 O 626.874 2.26932 -3.44348 0
M  V30 6874 H 626.215 0.137567 -0.649593 0
M  V30 6875 H 628.745 -0.206926 -2.03551 0
M  V30 6876 H 628.755 1.48942 -3.79843 0
M  V30 6877 H 627.43 0.389087 -4.14076 0
M  V30 6878 H 626.007 1.94812 -3.17967 0
M  V30 6879 N 628.193 1.56834 0.155195 0
M  V30 6880 C 629.103 2.009 1.21146 0
M  V30 6881 C 630.119 0.923029 1.475 0
M  V30 6882 O 631.295 1.23189 1.59331 0
M  V30 6883 C 628.36 2.37378 2.52691 0
M  V30 6884 C 627.421 3.59883 2.34057 0
M  V30 6885 C 626.654 3.94612 3.59329 0
M  V30 6886 O 626.877 3.30104 4.65175 0
M  V30 6887 O 625.811 4.87895 3.52479 0
M  V30 6888 H 629.637 2.9105 0.867371 0
M  V30 6889 H 627.222 1.44916 0.363298 0
M  V30 6890 H 629.104 2.61737 3.3026 0
M  V30 6891 H 627.779 1.50385 2.86646 0
M  V30 6892 H 626.686 3.40722 1.54465 0
M  V30 6893 H 628.019 4.47468 2.0502 0
M  V30 6894 N 629.671 -0.424282 1.51781 0
M  V30 6895 C 630.896 -1.19928 1.6921 0
M  V30 6896 C 631.321 -1.8392 0.394355 0
M  V30 6897 O 630.679 -1.69371 -0.646778 0
M  V30 6898 C 630.727 -2.24937 2.81843 0
M  V30 6899 O 629.831 -3.3073 2.46356 0
M  V30 6900 H 629.172 -0.35078 0.563781 0
M  V30 6901 H 631.702 -0.499401 1.98412 0
M  V30 6902 H 631.712 -2.69512 3.06312 0
M  V30 6903 H 630.387 -1.77742 3.76006 0
M  V30 6904 H 628.964 -2.9154 2.32505 0
M  V30 6905 N 631.149 -1.42148 -0.680565 0
M  V30 6906 C 632.395 -1.42521 -1.44277 0
M  V30 6907 C 632.728 -0.0393718 -1.9416 0
M  V30 6908 O 632.003 0.935425 -1.70529 0
M  V30 6909 C 632.286 -2.44475 -2.64394 0
M  V30 6910 C 632.139 -3.92226 -2.20179 0
M  V30 6911 C 633.458 -2.43491 -3.66606 0
M  V30 6912 H 630.577 -0.518985 -0.523282 0
M  V30 6913 H 633.219 -1.73524 -0.773914 0
M  V30 6914 H 631.369 -2.18168 -3.21458 0
M  V30 6915 H 633.041 -4.29493 -1.68327 0
M  V30 6916 H 631.284 -4.0637 -1.5181 0
M  V30 6917 H 631.955 -4.59133 -3.06433 0
M  V30 6918 H 634.431 -2.66872 -3.19247 0
M  V30 6919 H 633.307 -3.16816 -4.4824 0
M  V30 6920 H 633.568 -1.45881 -4.17338 0
M  V30 6921 N 632.627 0.916307 -1.28225 0
M  V30 6922 C 633.904 1.64429 -1.05936 0
M  V30 6923 C 634.284 2.07234 0.402139 0
M  V30 6924 O 633.632 1.81535 1.3877 0
M  V30 6925 C 633.842 2.83773 -2.03159 0
M  V30 6926 C 635.19 3.54852 -2.33164 0
M  V30 6927 O 636.214 2.93918 -2.01223 0
M  V30 6928 O 635.073 4.64663 -2.87664 0
M  V30 6929 H 632.167 0.721221 -0.404683 0
M  V30 6930 H 634.713 0.965838 -1.39534 0
M  V30 6931 H 633.485 2.49217 -3.01673 0
M  V30 6932 H 633.108 3.59333 -1.70192 0
M  V30 6933 N 634.105 1.10431 1.1244 0
M  V30 6934 C 635.068 0.756542 2.16354 0
M  V30 6935 C 636.068 -0.21899 1.59302 0
M  V30 6936 O 637.258 0.00415969 1.742 0
M  V30 6937 C 634.39 0.120612 3.40687 0
M  V30 6938 H 635.583 1.67696 2.48632 0
M  V30 6939 H 633.136 0.904832 1.27446 0
M  V30 6940 H 633.871 -0.810536 3.14008 0
M  V30 6941 H 633.656 0.822693 3.83372 0
M  V30 6942 H 635.146 -0.106945 4.17463 0
M  V30 6943 N 635.583 -1.29855 0.893053 0
M  V30 6944 C 636.829 -1.96116 0.516349 0
M  V30 6945 C 637.162 -1.70281 -0.933695 0
M  V30 6946 O 636.437 -1.01205 -1.66096 0
M  V30 6947 C 636.72 -3.51068 0.801455 0
M  V30 6948 C 636.573 -3.86387 2.30272 0
M  V30 6949 C 637.892 -4.39186 0.283423 0
M  V30 6950 H 635.011 -0.712335 0.189072 0
M  V30 6951 H 637.653 -1.53587 1.11852 0
M  V30 6952 H 635.803 -3.87424 0.288949 0
M  V30 6953 H 637.475 -3.60012 2.88425 0
M  V30 6954 H 635.718 -3.34167 2.76613 0
M  V30 6955 H 636.389 -4.94512 2.45279 0
M  V30 6956 H 638.865 -4.09785 0.722187 0
M  V30 6957 H 637.741 -5.46505 0.512169 0
M  V30 6958 H 638.002 -4.34511 -0.815643 0
M  V30 6959 N 637.061 -0.65484 -1.43351 0
M  V30 6960 C 637.991 0.0221809 -2.33489 0
M  V30 6961 C 638.972 0.810272 -1.49561 0
M  V30 6962 O 640.157 0.771426 -1.78221 0
M  V30 6963 C 637.287 0.988117 -3.32947 0
M  V30 6964 C 636.241 0.310026 -4.26876 0
M  V30 6965 C 635.567 1.38752 -5.16384 0
M  V30 6966 C 636.867 -0.798589 -5.16159 0
M  V30 6967 H 638.561 -0.730571 -2.9035 0
M  V30 6968 H 636.107 -0.352773 -1.39612 0
M  V30 6969 H 638.06 1.47067 -3.94904 0
M  V30 6970 H 636.784 1.77205 -2.74346 0
M  V30 6971 H 635.443 -0.152097 -3.66284 0
M  V30 6972 H 635.091 2.16293 -4.54121 0
M  V30 6973 H 634.791 0.939051 -5.80048 0
M  V30 6974 H 636.315 1.87141 -5.81215 0
M  V30 6975 H 637.729 -0.398126 -5.71916 0
M  V30 6976 H 636.126 -1.17163 -5.88552 0
M  V30 6977 H 637.196 -1.65588 -4.55751 0
M  V30 6978 N 638.539 1.52521 -0.396863 0
M  V30 6979 C 639.764 2.06571 0.185258 0
M  V30 6980 C 640.189 1.26605 1.39115 0
M  V30 6981 O 639.547 0.293055 1.78916 0
M  V30 6982 C 639.595 3.5674 0.526189 0
M  V30 6983 O 638.699 3.7929 1.61903 0
M  V30 6984 H 638.04 0.663712 0.0195474 0
M  V30 6985 H 640.57 1.966 -0.566519 0
M  V30 6986 H 640.58 4.00311 0.788338 0
M  V30 6987 H 639.255 4.14379 -0.355397 0
M  V30 6988 H 637.832 3.47605 1.35 0
M  V30 6989 N 640.017 0.126909 1.57088 0
M  V30 6990 C 640.947 -0.816847 2.18746 0
M  V30 6991 C 641.928 -1.27161 1.12979 0
M  V30 6992 O 643.113 -1.33279 1.41246 0
M  V30 6993 C 640.243 -2.06398 2.79315 0
M  V30 6994 C 639.197 -1.74673 3.90735 0
M  V30 6995 C 638.523 -3.06482 4.38147 0
M  V30 6996 C 639.823 -1.0089 5.12463 0
M  V30 6997 H 641.517 -0.303032 2.97863 0
M  V30 6998 H 639.063 -0.144314 1.43275 0
M  V30 6999 H 641.016 -2.72885 3.2111 0
M  V30 7000 H 639.74 -2.60118 1.975 0
M  V30 7001 H 638.399 -1.10572 3.49527 0
M  V30 7002 H 638.047 -3.58152 3.5318 0
M  V30 7003 H 637.747 -2.86025 5.13287 0
M  V30 7004 H 639.271 -3.74073 4.82599 0
M  V30 7005 H 640.685 -1.57546 5.51228 0
M  V30 7006 H 639.082 -0.905006 5.93237 0
M  V30 7007 H 640.152 0.00297335 4.849 0
M  V30 7008 N 641.495 -1.56914 -0.146875 0
M  V30 7009 C 642.72 -1.87881 -0.878386 0
M  V30 7010 C 643.145 -0.715945 -1.73942 0
M  V30 7011 O 642.503 0.334447 -1.78189 0
M  V30 7012 C 642.551 -3.17431 -1.71084 0
M  V30 7013 O 641.655 -3.01374 -2.81509 0
M  V30 7014 H 640.996 -0.617289 -0.244644 0
M  V30 7015 H 643.526 -2.04136 -0.137654 0
M  V30 7016 H 643.536 -3.49455 -2.10582 0
M  V30 7017 H 642.211 -4.01671 -1.07856 0
M  V30 7018 H 640.788 -2.80758 -2.45416 0
M  V30 7019 N 642.974 0.416227 -1.52004 0
M  V30 7020 C 643.937 1.48926 -1.74223 0
M  V30 7021 C 644.937 1.48693 -0.612119 0
M  V30 7022 O 646.127 1.50343 -0.879921 0
M  V30 7023 C 643.259 2.88372 -1.81809 0
M  V30 7024 H 644.452 1.3052 -2.70008 0
M  V30 7025 H 642.005 0.646271 -1.42313 0
M  V30 7026 H 642.74 3.12157 -0.879135 0
M  V30 7027 H 642.525 2.89944 -2.6396 0
M  V30 7028 H 644.015 3.66173 -2.00766 0
M  V30 7029 N 644.452 1.42507 0.673017 0
M  V30 7030 C 645.382 1.48916 1.79851 0
M  V30 7031 C 646.363 0.345566 1.66553 0
M  V30 7032 O 647.548 0.560116 1.85947 0
M  V30 7033 C 644.678 1.39258 3.18158 0
M  V30 7034 C 643.632 2.51662 3.46194 0
M  V30 7035 C 642.958 2.27062 4.84094 0
M  V30 7036 C 644.258 3.93968 3.42909 0
M  V30 7037 H 645.952 2.43114 1.74745 0
M  V30 7038 H 643.498 1.17013 0.839288 0
M  V30 7039 H 645.451 1.42349 3.96629 0
M  V30 7040 H 644.175 0.415542 3.23946 0
M  V30 7041 H 642.834 2.47891 2.70084 0
M  V30 7042 H 642.482 1.27648 4.86534 0
M  V30 7043 H 642.182 3.02398 5.03815 0
M  V30 7044 H 643.706 2.31905 5.64847 0
M  V30 7045 H 645.12 3.99332 4.11347 0
M  V30 7046 H 643.517 4.6917 3.74165 0
M  V30 7047 H 644.587 4.20512 2.41449 0
M  V30 7048 N 645.93 -0.909495 1.28709 0
M  V30 7049 C 647.155 -1.69801 1.1909 0
M  V30 7050 C 647.58 -1.86479 -0.246388 0
M  V30 7051 O 646.938 -1.37802 -1.17815 0
M  V30 7052 C 646.986 -3.06543 1.89904 0
M  V30 7053 O 646.09 -3.94268 1.2094 0
M  V30 7054 H 645.431 -0.519783 0.413185 0
M  V30 7055 H 647.961 -1.13689 1.70106 0
M  V30 7056 H 647.971 -3.56748 1.97977 0
M  V30 7057 H 646.646 -2.93722 2.94449 0
M  V30 7058 H 645.223 -3.52702 1.2106 0
M  V30 7059 N 647.408 -1.11026 -1.11852 0
M  V30 7060 C 648.819 -0.873203 -1.65021 0
M  V30 7061 C 649.17 0.595364 -1.86949 0
M  V30 7062 O 648.295 1.45645 -1.60051 0
M  V30 7063 C 648.89 -1.57859 -2.99777 0
M  V30 7064 C 647.449 -1.38807 -3.49871 0
M  V30 7065 C 646.596 -1.62403 -2.24768 0
M  V30 7066 H 649.547 -1.26712 -0.955503 0
M  V30 7067 H 649.568 -1.02111 -3.66543 0
M  V30 7068 H 649.08 -2.6474 -2.83786 0
M  V30 7069 H 647.181 -0.341163 -3.71035 0
M  V30 7070 H 647.294 -2.13421 -4.28938 0
M  V30 7071 H 645.658 -1.04714 -2.32179 0
M  V30 7072 H 646.441 -2.70549 -2.11324 0
M  V30 7073 N 648.886 1.2938 -0.899927 0
M  V30 7074 C 649.796 2.31462 -0.382437 0
M  V30 7075 C 650.812 1.65956 0.522929 0
M  V30 7076 O 651.988 1.97131 0.412454 0
M  V30 7077 C 649.053 3.44595 0.381472 0
M  V30 7078 C 648.114 4.25692 -0.555444 0
M  V30 7079 C 647.347 5.33422 0.172102 0
M  V30 7080 O 647.57 5.53053 1.396 0
M  V30 7081 O 646.504 5.99939 -0.485491 0
M  V30 7082 H 650.33 2.77706 -1.22934 0
M  V30 7083 H 647.915 1.33821 -0.664259 0
M  V30 7084 H 649.797 4.13474 0.813442 0
M  V30 7085 H 648.472 3.00458 1.20443 0
M  V30 7086 H 647.379 3.59453 -1.03653 0
M  V30 7087 H 648.712 4.73471 -1.34483 0
M  V30 7088 N 650.364 0.662433 1.43002 0
M  V30 7089 C 651.613 0.176873 2.00923 0
M  V30 7090 C 651.926 -1.21954 1.52927 0
M  V30 7091 O 653.132 -1.80081 2.03182 0
M  V30 7092 C 651.588 0.265379 3.5892 0
M  V30 7093 C 651.196 1.66507 4.15908 0
M  V30 7094 C 652.94 -0.162103 4.2419 0
M  V30 7095 C 650.847 1.707 5.66229 0
M  V30 7096 H 649.777 0.0623627 0.751417 0
M  V30 7097 H 652.428 0.825813 1.63868 0
M  V30 7098 H 650.81 -0.451235 3.93421 0
M  V30 7099 H 651.984 2.40777 3.92891 0
M  V30 7100 H 650.299 2.03932 3.63044 0
M  V30 7101 H 652.896 -0.150745 5.34487 0
M  V30 7102 H 653.239 -1.19519 3.98774 0
M  V30 7103 H 653.772 0.503075 3.94606 0
M  V30 7104 H 650.511 2.7195 5.96426 0
M  V30 7105 H 650.031 1.00768 5.91275 0
M  V30 7106 H 651.71 1.45487 6.3043 0
M  V30 7107 N 651.842 -1.52309 0.404946 0
M  V30 7108 C 652.789 -2.26898 -0.422597 0
M  V30 7109 C 653.759 -1.2914 -1.04461 0
M  V30 7110 O 654.944 -1.57996 -1.06967 0
M  V30 7111 C 652.084 -3.09053 -1.53559 0
M  V30 7112 C 651.197 -4.21762 -0.934908 0
M  V30 7113 C 650.332 -4.91283 -2.02025 0
M  V30 7114 C 649.371 -5.95962 -1.39628 0
M  V30 7115 N 648.508 -6.59017 -2.42159 0
M  V30 7116 H 653.348 -2.97188 0.219903 0
M  V30 7117 H 650.885 -1.46607 0.120282 0
M  V30 7118 H 652.843 -3.54987 -2.19181 0
M  V30 7119 H 651.473 -2.40942 -2.14818 0
M  V30 7120 H 650.525 -3.80029 -0.167854 0
M  V30 7121 H 651.837 -4.96864 -0.439073 0
M  V30 7122 H 650.991 -5.40601 -2.75383 0
M  V30 7123 H 649.73 -4.15741 -2.54973 0
M  V30 7124 H 648.735 -5.45968 -0.648023 0
M  V30 7125 H 649.96 -6.73445 -0.874553 0
M  V30 7126 H 647.906 -5.86306 -2.94247 0
M  V30 7127 H 647.823 -7.2978 -1.97376 0
M  V30 7128 H 649.091 -7.12974 -3.15099 0
M  V30 7129 N 653.32 -0.135238 -1.57019 0
M  V30 7130 C 654.23 0.822226 -2.19719 0
M  V30 7131 C 655.246 1.28057 -1.17802 0
M  V30 7132 O 656.422 1.3402 -1.50335 0
M  V30 7133 C 653.487 2.0484 -2.79717 0
M  V30 7134 C 652.548 1.64042 -3.96723 0
M  V30 7135 C 651.781 2.80814 -4.53849 0
M  V30 7136 O 652.004 3.967 -4.0986 0
M  V30 7137 O 650.938 2.56963 -5.44292 0
M  V30 7138 H 654.764 0.318552 -3.02025 0
M  V30 7139 H 652.349 0.0912021 -1.49121 0
M  V30 7140 H 654.231 2.76622 -3.17897 0
M  V30 7141 H 652.906 2.54182 -2.00432 0
M  V30 7142 H 651.813 0.893182 -3.63281 0
M  V30 7143 H 653.146 1.19426 -4.77492 0
M  V30 7144 N 654.798 1.5699 0.138552 0
M  V30 7145 C 655.761 1.97984 1.15478 0
M  V30 7146 C 656.761 0.867416 1.35398 0
M  V30 7147 O 657.951 1.13387 1.32246 0
M  V30 7148 C 655.083 2.3031 2.51337 0
M  V30 7149 H 656.276 2.88953 0.802896 0
M  V30 7150 H 653.829 1.51555 0.382189 0
M  V30 7151 H 654.564 1.42159 2.91481 0
M  V30 7152 H 654.349 3.11425 2.38237 0
M  V30 7153 H 655.839 2.62834 3.24512 0
M  V30 7154 N 656.276 -0.40816 1.52223 0
M  V30 7155 C 657.525 -1.15212 1.65557 0
M  V30 7156 C 657.838 -1.9163 0.392096 0
M  V30 7157 O 659.044 -2.68458 0.405256 0
M  V30 7158 C 657.5 -2.09691 2.92502 0
M  V30 7159 C 657.108 -1.38785 4.25961 0
M  V30 7160 C 658.852 -2.8434 3.152 0
M  V30 7161 C 656.759 -2.31919 5.44029 0
M  V30 7162 H 655.689 -0.433776 0.616729 0
M  V30 7163 H 658.34 -0.4165 1.78711 0
M  V30 7164 H 656.722 -2.8681 2.7305 0
M  V30 7165 H 657.896 -0.670248 4.55899 0
M  V30 7166 H 656.211 -0.761741 4.09373 0
M  V30 7167 H 658.808 -3.54166 4.00587 0
M  V30 7168 H 659.151 -3.47344 2.29473 0
M  V30 7169 H 659.684 -2.14321 3.35129 0
M  V30 7170 H 656.423 -1.7356 6.32105 0
M  V30 7171 H 655.943 -3.0165 5.18428 0
M  V30 7172 H 657.622 -2.92424 5.77146 0
M  V30 7173 N 657.755 -1.42862 -0.66545 0
M  V30 7174 C 658.687 -1.43026 -1.79098 0
M  V30 7175 C 659.7 -0.32803 -1.59461 0
M  V30 7176 O 660.889 -0.591709 -1.68407 0
M  V30 7177 C 657.989 -1.21566 -3.16346 0
M  V30 7178 C 657.162 -2.44399 -3.62751 0
M  V30 7179 C 656.221 -2.18344 -4.78761 0
M  V30 7180 O 655.247 -2.91611 -4.88827 0
M  V30 7181 N 656.449 -1.1924 -5.68122 0
M  V30 7182 H 659.214 -2.40045 -1.79439 0
M  V30 7183 H 656.775 -1.37861 -0.848872 0
M  V30 7184 H 658.767 -1.02037 -3.91625 0
M  V30 7185 H 657.337 -0.330368 -3.10849 0
M  V30 7186 H 656.557 -2.79433 -2.78048 0
M  V30 7187 H 657.845 -3.26173 -3.90498 0
M  V30 7188 H 657.243 -0.586603 -5.6265 0
M  V30 7189 H 655.8 -1.05698 -6.43173 0
M  V30 7190 N 659.233 0.902656 -1.29189 0
M  V30 7191 C 660.458 1.69167 -1.19989 0
M  V30 7192 C 660.883 1.86607 0.236495 0
M  V30 7193 O 660.241 1.38425 1.17082 0
M  V30 7194 C 660.289 3.05532 -1.91527 0
M  V30 7195 O 659.393 3.93621 -1.2303 0
M  V30 7196 H 658.734 0.517584 -0.415936 0
M  V30 7197 H 661.264 1.12785 -1.70706 0
M  V30 7198 H 661.274 3.55693 -1.99866 0
M  V30 7199 H 659.949 2.92156 -2.96003 0
M  V30 7200 H 658.526 3.52055 -1.22928 0
M  V30 7201 N 660.711 1.11618 1.11262 0
M  V30 7202 C 661.957 0.867463 1.83311 0
M  V30 7203 C 662.29 -0.605366 1.84524 0
M  V30 7204 O 661.565 -1.44704 1.29965 0
M  V30 7205 C 661.848 1.43207 3.30399 0
M  V30 7206 C 661.701 2.97265 3.3757 0
M  V30 7207 C 663.02 1.08454 4.26528 0
M  V30 7208 H 660.139 0.316578 0.665543 0
M  V30 7209 H 662.781 1.38137 1.30454 0
M  V30 7210 H 660.931 0.994982 3.75543 0
M  V30 7211 H 662.603 3.49591 3.00971 0
M  V30 7212 H 660.846 3.33237 2.77733 0
M  V30 7213 H 661.517 3.31859 4.41105 0
M  V30 7214 H 663.993 1.4619 3.89574 0
M  V30 7215 H 662.869 1.50633 5.27826 0
M  V30 7216 H 663.13 -0.00444568 4.421 0
M  V30 7217 N 662.189 -1.289 0.906776 0
M  V30 7218 C 663.136 -2.2751 0.388313 0
M  V30 7219 C 664.106 -1.57301 -0.533439 0
M  V30 7220 O 665.291 -1.85243 -0.457148 0
M  V30 7221 C 662.431 -3.43091 -0.37181 0
M  V30 7222 C 661.544 -4.28066 0.581647 0
M  V30 7223 C 660.679 -5.30837 -0.19623 0
M  V30 7224 C 659.718 -6.07472 0.751294 0
M  V30 7225 N 658.855 -7.021 0.00737727 0
M  V30 7226 H 663.695 -2.71237 1.23428 0
M  V30 7227 H 661.232 -1.33397 0.619962 0
M  V30 7228 H 663.19 -4.08888 -0.828641 0
M  V30 7229 H 661.82 -3.00374 -1.18218 0
M  V30 7230 H 660.872 -3.62378 1.157 0
M  V30 7231 H 662.184 -4.81382 1.30665 0
M  V30 7232 H 661.338 -6.02485 -0.71394 0
M  V30 7233 H 660.077 -4.78272 -0.954324 0
M  V30 7234 H 659.082 -5.34682 1.28044 0
M  V30 7235 H 660.307 -6.62126 1.50883 0
M  V30 7236 H 658.253 -6.51894 -0.732854 0
M  V30 7237 H 658.17 -7.53004 0.672334 0
M  V30 7238 H 659.438 -7.77956 -0.490365 0
M  V30 7239 N 663.667 -0.670007 -1.42649 0
M  V30 7240 C 664.897 -0.198252 -2.05647 0
M  V30 7241 C 665.305 1.14786 -1.50402 0
M  V30 7242 O 664.648 1.72316 -0.636634 0
M  V30 7243 C 664.71 -0.0507132 -3.59464 0
M  V30 7244 C 664.374 -1.32478 -4.37377 0
M  V30 7245 C 665.371 -2.2572 -4.68344 0
M  V30 7246 C 663.056 -1.57104 -4.77099 0
M  V30 7247 C 665.05 -3.4187 -5.37963 0
M  V30 7248 C 662.737 -2.73543 -5.46459 0
M  V30 7249 C 663.735 -3.65751 -5.76815 0
M  V30 7250 O 663.423 -4.80154 -6.44753 0
M  V30 7251 H 663.155 -0.0950721 -0.669281 0
M  V30 7252 H 665.709 -0.915745 -1.83857 0
M  V30 7253 H 663.939 0.722314 -3.79894 0
M  V30 7254 H 665.628 0.380552 -4.04112 0
M  V30 7255 H 666.394 -2.07943 -4.38161 0
M  V30 7256 H 662.273 -0.862069 -4.52868 0
M  V30 7257 H 665.817 -4.13861 -5.61574 0
M  V30 7258 H 661.714 -2.91248 -5.7606 0
M  V30 7259 H 662.482 -4.79637 -6.63243 0
M  V30 7260 N 665.145 1.52092 -0.413018 0
M  V30 7261 C 666.394 2.01041 0.16287 0
M  V30 7262 C 666.707 1.30288 1.45892 0
M  V30 7263 O 667.913 1.70075 2.11629 0
M  V30 7264 C 666.369 3.58283 0.340806 0
M  V30 7265 C 665.977 4.37955 -0.943377 0
M  V30 7266 C 667.721 4.15452 0.871774 0
M  V30 7267 C 665.628 5.86847 -0.732417 0
M  V30 7268 H 664.558 0.751224 0.0646414 0
M  V30 7269 H 667.209 1.75404 -0.539059 0
M  V30 7270 H 665.591 3.80266 1.10516 0
M  V30 7271 H 666.765 4.2773 -1.71418 0
M  V30 7272 H 665.08 3.92122 -1.40105 0
M  V30 7273 H 667.677 5.24375 1.0457 0
M  V30 7274 H 668.02 3.73057 1.84755 0
M  V30 7275 H 668.553 3.97452 0.166377 0
M  V30 7276 H 665.292 6.33609 -1.67986 0
M  V30 7277 H 664.812 5.998 -0.000980058 0
M  V30 7278 H 666.491 6.45906 -0.376105 0
M  V30 7279 N 666.623 0.143563 1.56945 0
M  V30 7280 C 667.586 -0.783295 2.154 0
M  V30 7281 C 668.586 -1.17763 1.09492 0
M  V30 7282 O 669.776 -1.09912 1.35148 0
M  V30 7283 C 666.908 -2.06248 2.7143 0
M  V30 7284 H 668.101 -0.274863 2.98638 0
M  V30 7285 H 665.654 -0.105859 1.55941 0
M  V30 7286 H 666.389 -2.61466 1.91849 0
M  V30 7287 H 666.174 -1.78897 3.4891 0
M  V30 7288 H 667.664 -2.72453 3.16479 0
M  V30 7289 N 668.101 -1.57061 -0.130224 0
M  V30 7290 C 669.011 -2.02802 -1.17934 0
M  V30 7291 C 670.027 -0.946378 -1.46013 0
M  V30 7292 O 671.203 -1.25708 -1.57351 0
M  V30 7293 C 668.268 -2.41368 -2.48882 0
M  V30 7294 C 667.329 -3.63561 -2.28301 0
M  V30 7295 C 666.562 -4.00279 -3.53005 0
M  V30 7296 O 666.785 -3.37463 -4.59864 0
M  V30 7297 O 665.719 -4.93441 -3.44673 0
M  V30 7298 H 669.545 -2.92394 -0.820958 0
M  V30 7299 H 667.13 -1.45475 -0.340197 0
M  V30 7300 H 669.012 -2.66958 -3.26054 0
M  V30 7301 H 667.687 -1.54926 -2.84217 0
M  V30 7302 H 666.594 -3.43136 -1.49025 0
M  V30 7303 H 667.927 -4.50673 -1.97875 0
M  V30 7304 N 669.579 0.400081 -1.52437 0
M  V30 7305 C 670.527 1.50851 -1.7705 0
M  V30 7306 C 671.521 1.56928 -0.637969 0
M  V30 7307 O 672.727 1.60226 -0.820212 0
M  V30 7308 H 669.102 0.50186 -0.560036 0
M  V30 7309 H 671.073 1.27281 -2.69893 0
M  V30 7310 C 669.822 2.88117 -1.94638 0
M  V30 7311 H 669.145 2.84187 -2.81208 0
M  V30 7312 H 670.585 3.64942 -2.15855 0
M  V30 7313 C 669.044 3.29206 -0.715899 0
M  V30 7314 O 669.574 4.01544 0.111944 0
M  V30 7315 N 667.78 2.85363 -0.549191 0
M  V30 7316 H 667.327 2.26664 -1.22397 0
M  V30 7317 H 667.285 3.13214 0.27278 0
M  V30 7318 N 671.057 1.43213 0.657864 0
M  V30 7319 C 671.99 1.42456 1.78273 0
M  V30 7320 C 672.968 0.286598 1.60054 0
M  V30 7321 O 674.152 0.479467 1.823 0
M  V30 7322 C 671.279 1.23169 3.15511 0
M  V30 7323 C 670.325 2.40181 3.52442 0
M  V30 7324 S 671.158 4.02729 3.52944 0
M  V30 7325 C 672.314 3.85816 4.92846 0
M  V30 7326 H 672.547 2.37642 1.78644 0
M  V30 7327 H 670.08 1.30188 0.830084 0
M  V30 7328 H 672.038 1.12728 3.94719 0
M  V30 7329 H 670.699 0.295398 3.12708 0
M  V30 7330 H 669.892 2.22478 4.52239 0
M  V30 7331 H 669.494 2.47224 2.80636 0
M  V30 7332 H 671.786 3.47853 5.81381 0
M  V30 7333 H 672.729 4.85348 5.15599 0
M  V30 7334 H 673.137 3.18361 4.66162 0
M  V30 7335 N 672.536 -0.895792 1.29666 0
M  V30 7336 C 673.483 -2.00035 1.15129 0
M  V30 7337 C 674.453 -1.66043 0.0435819 0
M  V30 7338 O 675.638 -1.89621 0.211811 0
M  V30 7339 C 672.778 -3.34774 0.83787 0
M  V30 7340 C 671.891 -3.81525 2.0264 0
M  V30 7341 C 671.026 -5.04858 1.65201 0
M  V30 7342 C 670.065 -5.43988 2.80612 0
M  V30 7343 N 669.202 -6.58507 2.43544 0
M  V30 7344 H 674.042 -2.11802 2.09628 0
M  V30 7345 H 671.579 -1.03719 1.04311 0
M  V30 7346 H 673.537 -4.12311 0.636824 0
M  V30 7347 H 672.167 -3.22724 -0.0702314 0
M  V30 7348 H 671.219 -2.9999 2.33903 0
M  V30 7349 H 672.531 -4.06472 2.89106 0
M  V30 7350 H 671.685 -5.8999 1.41408 0
M  V30 7351 H 670.424 -4.81759 0.758893 0
M  V30 7352 H 669.429 -4.57388 3.05083 0
M  V30 7353 H 670.654 -5.69066 3.70595 0
M  V30 7354 H 668.6 -6.37004 1.56724 0
M  V30 7355 H 668.517 -6.83269 3.23542 0
M  V30 7356 H 669.785 -7.46897 2.2308 0
M  V30 7357 N 674.014 -1.12206 -1.10668 0
M  V30 7358 C 674.977 -0.790867 -2.15123 0
M  V30 7359 C 675.977 0.193618 -1.5963 0
M  V30 7360 O 677.167 -0.0318728 -1.74171 0
M  V30 7361 C 674.299 -0.174797 -3.40452 0
M  V30 7362 H 675.492 -1.7163 -2.45933 0
M  V30 7363 H 673.045 -0.924993 -1.2599 0
M  V30 7364 H 673.78 0.760478 -3.15257 0
M  V30 7365 H 673.565 -0.88358 -3.82015 0
M  V30 7366 H 675.055 0.0405162 -4.1758 0
M  V30 7367 N 675.492 1.28418 -0.913599 0
M  V30 7368 C 676.424 2.26368 -0.359169 0
M  V30 7369 C 677.437 1.54858 0.502285 0
M  V30 7370 O 678.626 1.75659 0.31719 0
M  V30 7371 C 675.726 3.35112 0.50526 0
M  V30 7372 C 674.899 4.36126 -0.333648 0
M  V30 7373 C 673.958 5.24134 0.465845 0
M  V30 7374 O 672.984 5.6907 -0.121538 0
M  V30 7375 N 674.186 5.52892 1.76891 0
M  V30 7376 H 676.951 2.74579 -1.2011 0
M  V30 7377 H 674.512 1.41898 -0.779532 0
M  V30 7378 H 676.504 3.90926 1.04684 0
M  V30 7379 H 675.074 2.86611 1.2479 0
M  V30 7380 H 674.294 3.79776 -1.0566 0
M  V30 7381 H 675.582 5.00638 -0.907669 0
M  V30 7382 H 674.98 5.18217 2.26865 0
M  V30 7383 H 673.537 6.11464 2.25732 0
M  V30 7384 N 676.97 0.677563 1.42291 0
M  V30 7385 C 677.918 -0.0106755 2.32598 0
M  V30 7386 C 678.912 -0.787643 1.49975 0
M  V30 7387 O 680.118 -0.695295 1.66029 0
M  V30 7388 H 676.493 -0.0222482 0.751671 0
M  V30 7389 H 678.464 0.768312 2.88339 0
M  V30 7390 C 677.213 -0.946142 3.3458 0
M  V30 7391 H 676.536 -0.357701 3.98197 0
M  V30 7392 H 677.976 -1.39634 4.00348 0
M  V30 7393 C 676.435 -2.05383 2.67057 0
M  V30 7394 O 676.965 -3.1406 2.50458 0
M  V30 7395 N 675.171 -1.82635 2.26038 0
M  V30 7396 H 674.718 -0.942534 2.39737 0
M  V30 7397 H 674.676 -2.56937 1.81192 0
M  V30 7398 N 678.448 -1.51871 0.421078 0
M  V30 7399 C 679.358 -2.31077 -0.405069 0
M  V30 7400 C 680.374 -1.39301 -1.04265 0
M  V30 7401 O 681.55 -1.72376 -1.04157 0
M  V30 7402 C 678.615 -3.12556 -1.50032 0
M  V30 7403 C 677.676 -4.20088 -0.884559 0
M  V30 7404 C 676.909 -4.97673 -1.92762 0
M  V30 7405 O 677.132 -4.75696 -3.14753 0
M  V30 7406 O 676.066 -5.82203 -1.52719 0
M  V30 7407 H 679.892 -3.02742 0.241086 0
M  V30 7408 H 677.477 -1.48263 0.183991 0
M  V30 7409 H 679.359 -3.6326 -2.13589 0
M  V30 7410 H 678.034 -2.43672 -2.13086 0
M  V30 7411 H 676.941 -3.73502 -0.211379 0
M  V30 7412 H 678.274 -4.91298 -0.297763 0
M  V30 7413 N 679.926 -0.151884 -1.56866 0
M  V30 7414 C 680.889 0.771861 -2.15812 0
M  V30 7415 C 681.889 1.17181 -1.10115 0
M  V30 7416 O 683.079 1.09194 -1.35729 0
M  V30 7417 C 680.211 2.04806 -2.7252 0
M  V30 7418 H 681.404 0.259021 -2.98779 0
M  V30 7419 H 678.957 0.097588 -1.55995 0
M  V30 7420 H 679.692 2.60445 -1.93233 0
M  V30 7421 H 679.477 1.77044 -3.49854 0
M  V30 7422 H 680.967 2.70771 -3.1792 0
M  V30 7423 N 681.404 1.57128 0.121893 0
M  V30 7424 C 682.351 2.0013 1.14964 0
M  V30 7425 C 683.321 0.872959 1.4131 0
M  V30 7426 O 684.506 1.13696 1.53225 0
M  V30 7427 C 681.646 2.40824 2.4718 0
M  V30 7428 C 680.759 3.67061 2.27794 0
M  V30 7429 C 679.894 3.96749 3.53219 0
M  V30 7430 C 678.933 5.16178 3.28978 0
M  V30 7431 N 678.07 5.41751 4.46599 0
M  V30 7432 H 682.91 2.8772 0.775947 0
M  V30 7433 H 680.447 1.42328 0.371652 0
M  V30 7434 H 682.405 2.62454 3.24305 0
M  V30 7435 H 681.035 1.56279 2.82448 0
M  V30 7436 H 680.087 3.53063 1.416 0
M  V30 7437 H 681.399 4.5434 2.05857 0
M  V30 7438 H 680.553 4.19012 4.38764 0
M  V30 7439 H 679.292 3.07941 3.78185 0
M  V30 7440 H 678.297 4.93762 2.41824 0
M  V30 7441 H 679.522 6.06561 3.05386 0
M  V30 7442 H 677.468 4.55899 4.71691 0
M  V30 7443 H 677.385 6.23347 4.27756 0
M  V30 7444 H 678.653 5.68531 5.33285 0
M  V30 7445 N 682.882 -0.391992 1.52647 0
M  V30 7446 C 683.792 -1.503 1.80131 0
M  V30 7447 C 684.808 -1.59825 0.687882 0
M  V30 7448 O 685.984 -1.76218 0.975149 0
M  V30 7449 C 683.049 -2.85863 1.96171 0
M  V30 7450 C 682.11 -2.86084 3.20085 0
M  V30 7451 C 681.343 -4.15181 3.35351 0
M  V30 7452 O 681.566 -5.09981 2.55491 0
M  V30 7453 O 680.5 -4.22603 4.28591 0
M  V30 7454 H 684.326 -1.30007 2.74466 0
M  V30 7455 H 681.911 -0.579539 1.37701 0
M  V30 7456 H 683.793 -3.66236 2.08445 0
M  V30 7457 H 682.468 -3.06189 1.05025 0
M  V30 7458 H 681.375 -2.04504 3.13256 0
M  V30 7459 H 682.708 -2.7071 4.11068 0
M  V30 7460 N 684.36 -1.4356 -0.65026 0
M  V30 7461 C 685.609 -1.44619 -1.406 0
M  V30 7462 C 685.922 -0.0752645 -1.95455 0
M  V30 7463 O 687.128 0.0366832 -2.71475 0
M  V30 7464 C 685.584 -2.54511 -2.54465 0
M  V30 7465 C 685.192 -3.97723 -2.06204 0
M  V30 7466 C 686.936 -2.64768 -3.31811 0
M  V30 7467 C 684.843 -4.99075 -3.17298 0
M  V30 7468 H 683.773 -0.537983 -0.52829 0
M  V30 7469 H 686.424 -1.69559 -0.701561 0
M  V30 7470 H 684.806 -2.22777 -3.27393 0
M  V30 7471 H 685.98 -4.38932 -1.40267 0
M  V30 7472 H 684.295 -3.91538 -1.41729 0
M  V30 7473 H 686.892 -3.37664 -4.14593 0
M  V30 7474 H 687.235 -1.69936 -3.80036 0
M  V30 7475 H 687.768 -2.95817 -2.65964 0
M  V30 7476 H 684.507 -5.95469 -2.74038 0
M  V30 7477 H 684.027 -4.62476 -3.81937 0
M  V30 7478 H 685.706 -5.21913 -3.82382 0
M  V30 7479 N 685.838 0.888903 -1.30139 0
M  V30 7480 C 686.77 1.99972 -1.11999 0
M  V30 7481 C 687.783 1.62673 -0.0643619 0
M  V30 7482 O 688.972 1.75788 -0.309983 0
M  V30 7483 C 686.072 3.31904 -0.685059 0
M  V30 7484 C 685.245 3.97665 -1.82158 0
M  V30 7485 C 684.304 5.07894 -1.37585 0
M  V30 7486 O 683.33 5.2974 -2.08241 0
M  V30 7487 N 684.532 5.7995 -0.252697 0
M  V30 7488 H 687.297 2.16085 -2.07671 0
M  V30 7489 H 684.858 1.06175 -1.22223 0
M  V30 7490 H 686.85 4.03005 -0.369964 0
M  V30 7491 H 685.42 3.12084 0.179507 0
M  V30 7492 H 684.64 3.19787 -2.305 0
M  V30 7493 H 685.928 4.3834 -2.58332 0
M  V30 7494 H 685.326 5.647 0.336141 0
M  V30 7495 H 683.883 6.518 0.00296813 0
M  V30 7496 N 687.317 1.12792 1.10072 0
M  V30 7497 C 688.594 0.796867 1.78632 0
M  V30 7498 C 688.974 -0.712739 1.98704 0
M  V30 7499 O 688.322 -1.64773 1.5831 0
M  V30 7500 C 688.532 1.57622 3.11378 0
M  V30 7501 C 689.88 1.76463 3.86194 0
M  V30 7502 O 690.904 1.54165 3.2111 0
M  V30 7503 O 689.763 2.13623 5.03018 0
M  V30 7504 H 686.857 0.290248 0.774394 0
M  V30 7505 H 689.403 1.23215 1.16688 0
M  V30 7506 H 688.175 2.60246 2.92212 0
M  V30 7507 H 687.798 1.13543 3.81043 0
M  V30 7508 N 688.795 -1.27931 0.920396 0
M  V30 7509 C 690.072 -1.89728 0.475687 0
M  V30 7510 C 690.452 -1.8337 -1.04588 0
M  V30 7511 O 689.8 -1.27404 -1.89685 0
M  V30 7512 C 690.01 -3.33959 1.01354 0
M  V30 7513 C 691.358 -4.10907 1.06963 0
M  V30 7514 O 692.382 -3.42945 0.962646 0
M  V30 7515 O 691.241 -5.32399 1.23343 0
M  V30 7516 H 688.335 -0.81294 0.151845 0
M  V30 7517 H 690.881 -1.36252 1.01161 0
M  V30 7518 H 689.653 -3.32843 2.05746 0
M  V30 7519 H 689.276 -3.94944 0.458829 0
M  V30 7520 N 690.273 -0.685099 -1.4193 0
M  V30 7521 C 691.519 -0.220688 -2.02199 0
M  V30 7522 C 691.874 1.16329 -1.5325 0
M  V30 7523 O 691.167 1.77175 -0.729345 0
M  V30 7524 C 691.361 -0.206154 -3.56805 0
M  V30 7525 C 691.19 -1.58718 -4.2076 0
M  V30 7526 C 689.96 -2.18747 -4.55497 0
M  V30 7527 C 692.158 -2.53182 -4.47664 0
M  V30 7528 N 690.14 -3.49523 -5.04685 0
M  V30 7529 C 691.511 -3.68625 -4.98514 0
M  V30 7530 C 693.566 -2.51582 -4.29664 0
M  V30 7531 C 692.269 -4.82734 -5.33255 0
M  V30 7532 C 694.295 -3.64795 -4.65487 0
M  V30 7533 C 693.657 -4.78967 -5.16498 0
M  V30 7534 H 689.756 -0.12591 -0.771797 0
M  V30 7535 H 692.34 -0.900316 -1.72634 0
M  V30 7536 H 690.511 0.442923 -3.85866 0
M  V30 7537 H 692.243 0.272103 -4.03784 0
M  V30 7538 H 688.998 -1.71135 -4.41599 0
M  V30 7539 H 689.422 -4.1653 -5.33696 0
M  V30 7540 H 694.064 -1.64535 -3.89472 0
M  V30 7541 H 691.782 -5.7045 -5.72375 0
M  V30 7542 H 695.368 -3.64796 -4.53227 0
M  V30 7543 H 694.248 -5.6512 -5.437 0
M  V30 7544 N 691.751 1.51645 -0.429126 0
M  V30 7545 C 692.698 2.27542 0.386446 0
M  V30 7546 C 693.668 1.30786 1.02393 0
M  V30 7547 O 694.853 1.59678 1.0444 0
M  V30 7548 C 691.993 3.11457 1.48623 0
M  V30 7549 C 691.106 4.23196 0.867691 0
M  V30 7550 C 690.241 4.94435 1.94183 0
M  V30 7551 C 689.28 5.98108 1.30129 0
M  V30 7552 N 688.417 6.62786 2.31644 0
M  V30 7553 H 693.257 2.968 -0.267155 0
M  V30 7554 H 690.794 1.46397 -0.143591 0
M  V30 7555 H 692.752 3.58429 2.13506 0
M  V30 7556 H 691.382 2.44329 2.10957 0
M  V30 7557 H 690.434 3.80248 0.107373 0
M  V30 7558 H 691.746 4.97499 0.35997 0
M  V30 7559 H 690.9 5.44914 2.66747 0
M  V30 7560 H 689.639 4.19744 2.48326 0
M  V30 7561 H 688.644 5.4693 0.561082 0
M  V30 7562 H 689.869 6.74751 0.767303 0
M  V30 7563 H 687.815 5.90913 2.84883 0
M  V30 7564 H 687.732 7.32828 1.85741 0
M  V30 7565 H 689 7.17897 3.03717 0
M  V30 7566 N 693.229 0.160201 1.56784 0
M  V30 7567 C 694.459 -0.493449 2.00621 0
M  V30 7568 C 694.867 -1.5809 1.03943 0
M  V30 7569 O 694.21 -1.83675 0.0305343 0
M  V30 7570 C 694.272 -1.14169 3.4089 0
M  V30 7571 C 693.936 -0.197243 4.56574 0
M  V30 7572 C 694.933 0.580174 5.16653 0
M  V30 7573 C 692.618 -0.0963038 5.02208 0
M  V30 7574 C 694.612 1.44584 6.20785 0
M  V30 7575 C 692.299 0.772959 6.06192 0
M  V30 7576 C 693.297 1.54263 6.65351 0
M  V30 7577 O 692.985 2.39738 7.67321 0
M  V30 7578 H 692.717 -0.131764 0.663034 0
M  V30 7579 H 695.271 0.255728 2.03802 0
M  V30 7580 H 693.501 -1.93877 3.34587 0
M  V30 7581 H 695.19 -1.69641 3.6875 0
M  V30 7582 H 695.956 0.5123 4.82287 0
M  V30 7583 H 691.835 -0.685143 4.5588 0
M  V30 7584 H 695.379 2.04706 6.66889 0
M  V30 7585 H 691.276 0.842077 6.39984 0
M  V30 7586 H 692.044 2.33131 7.84597 0
M  V30 7587 N 694.707 -1.5719 -0.113559 0
M  V30 7588 C 695.953 -1.85412 -0.821597 0
M  V30 7589 C 696.286 -0.746722 -1.7927 0
M  V30 7590 O 695.561 0.246971 -1.92926 0
M  V30 7591 C 695.844 -3.24233 -1.56669 0
M  V30 7592 C 695.697 -4.45578 -0.614823 0
M  V30 7593 C 697.016 -3.60697 -2.52161 0
M  V30 7594 H 694.135 -0.674406 -0.29723 0
M  V30 7595 H 696.777 -1.89807 -0.085694 0
M  V30 7596 H 694.927 -3.20617 -2.19401 0
M  V30 7597 H 696.599 -4.613 0.00407137 0
M  V30 7598 H 694.842 -4.33738 0.0732332 0
M  V30 7599 H 695.513 -5.39395 -1.17292 0
M  V30 7600 H 697.989 -3.65139 -1.99532 0
M  V30 7601 H 696.865 -4.58798 -3.01323 0
M  V30 7602 H 697.126 -2.88403 -3.35076 0
M  V30 7603 N 696.185 0.383891 -1.52853 0
M  V30 7604 C 697.148 1.45197 -1.77343 0
M  V30 7605 C 698.148 1.47362 -0.643522 0
M  V30 7606 O 699.338 1.48443 -0.911613 0
M  V30 7607 C 696.47 2.8445 -1.87885 0
M  V30 7608 H 697.663 1.24764 -2.72716 0
M  V30 7609 H 695.216 0.615939 -1.43652 0
M  V30 7610 H 695.951 3.10222 -0.94515 0
M  V30 7611 H 695.736 2.8428 -2.70051 0
M  V30 7612 H 697.226 3.61832 -2.08488 0
M  V30 7613 N 697.663 1.43903 0.642637 0
M  V30 7614 C 698.596 1.44339 1.76753 0
M  V30 7615 C 699.574 0.303558 1.59741 0
M  V30 7616 O 700.758 0.498775 1.81781 0
M  V30 7617 C 697.885 1.26508 3.14187 0
M  V30 7618 C 696.931 2.43905 3.49875 0
M  V30 7619 S 697.764 4.0645 3.48653 0
M  V30 7620 C 698.92 3.91021 4.88726 0
M  V30 7621 H 699.153 2.39523 1.76113 0
M  V30 7622 H 696.686 1.31061 0.81623 0
M  V30 7623 H 698.644 1.16908 3.93501 0
M  V30 7624 H 697.305 0.328548 3.12377 0
M  V30 7625 H 696.498 2.27262 4.49853 0
M  V30 7626 H 696.1 2.50186 2.77998 0
M  V30 7627 H 698.392 3.54 5.77659 0
M  V30 7628 H 699.335 4.9079 5.10423 0
M  V30 7629 H 699.743 3.23287 4.62759 0
M  V30 7630 N 699.141 -0.881989 1.30609 0
M  V30 7631 C 700.387 -1.63647 1.19781 0
M  V30 7632 C 700.72 -1.92632 -0.246265 0
M  V30 7633 O 699.995 -1.54938 -1.17577 0
M  V30 7634 C 700.278 -2.97437 2.02985 0
M  V30 7635 C 700.131 -2.75406 3.55628 0
M  V30 7636 C 701.45 -3.98397 1.86997 0
M  V30 7637 H 698.569 -0.593841 0.436488 0
M  V30 7638 H 701.211 -1.02041 1.60273 0
M  V30 7639 H 699.361 -3.50018 1.68581 0
M  V30 7640 H 701.033 -2.2959 4.00107 0
M  V30 7641 H 699.276 -2.09856 3.79662 0
M  V30 7642 H 699.947 -3.70552 4.09139 0
M  V30 7643 H 702.423 -3.54986 2.17081 0
M  V30 7644 H 701.299 -4.89916 2.47536 0
M  V30 7645 H 701.56 -4.3424 0.829943 0
M  V30 7646 N 700.619 -1.13374 -1.09472 0
M  V30 7647 C 701.868 -0.889844 -1.8101 0
M  V30 7648 C 702.181 0.585686 -1.86625 0
M  V30 7649 O 703.387 0.946497 -2.54467 0
M  V30 7650 C 701.843 -1.54241 -3.25174 0
M  V30 7651 C 701.451 -3.05343 -3.27826 0
M  V30 7652 C 703.195 -1.37919 -4.0147 0
M  V30 7653 C 701.102 -3.63486 -4.6651 0
M  V30 7654 H 700.032 -0.329256 -0.678311 0
M  V30 7655 H 702.683 -1.36139 -1.23038 0
M  V30 7656 H 701.065 -0.998525 -3.83204 0
M  V30 7657 H 702.239 -3.66307 -2.79563 0
M  V30 7658 H 700.554 -3.21175 -2.65019 0
M  V30 7659 H 703.151 -1.78771 -5.03929 0
M  V30 7660 H 703.494 -0.323987 -4.15037 0
M  V30 7661 H 704.027 -1.89284 -3.49881 0
M  V30 7662 H 700.766 -4.68811 -4.58145 0
M  V30 7663 H 700.286 -3.073 -5.15099 0
M  V30 7664 H 701.965 -3.63134 -5.35484 0
M  V30 7665 N 702.098 1.27442 -0.927168 0
M  V30 7666 C 703.375 1.89473 -0.485742 0
M  V30 7667 C 703.755 1.83922 1.03614 0
M  V30 7668 O 703.103 1.28409 1.89007 0
M  V30 7669 C 703.313 3.33417 -1.03123 0
M  V30 7670 C 704.661 4.10333 -1.0914 0
M  V30 7671 O 705.685 3.4243 -0.98082 0
M  V30 7672 O 704.544 5.31737 -1.26165 0
M  V30 7673 H 701.638 0.812124 -0.156154 0
M  V30 7674 H 704.184 1.35713 -1.01882 0
M  V30 7675 H 702.956 3.31747 -2.07508 0
M  V30 7676 H 702.579 3.94695 -0.479767 0
M  V30 7677 N 703.576 0.692616 1.41565 0
M  V30 7678 C 704.992 0.363878 1.55397 0
M  V30 7679 C 705.192 -1.1294 1.66874 0
M  V30 7680 O 704.248 -1.91517 1.64552 0
M  V30 7681 C 705.561 1.10982 2.7947 0
M  V30 7682 C 707.109 1.09387 2.93263 0
M  V30 7683 C 707.584 1.8215 4.20221 0
M  V30 7684 N 709.075 1.79105 4.27172 0
M  V30 7685 C 709.81 2.32247 5.2426 0
M  V30 7686 N 709.306 2.93847 6.27396 0
M  V30 7687 N 711.099 2.22519 5.1618 0
M  V30 7688 H 703.25 1.66116 1.3236 0
M  V30 7689 H 705.513 0.700848 0.63837 0
M  V30 7690 H 705.219 2.1647 2.77188 0
M  V30 7691 H 705.093 0.686492 3.709 0
M  V30 7692 H 707.48 0.0472638 2.95062 0
M  V30 7693 H 707.561 1.55623 2.03015 0
M  V30 7694 H 707.205 2.86789 4.19183 0
M  V30 7695 H 707.135 1.33351 5.09436 0
M  V30 7696 H 709.626 1.34191 3.53272 0
M  V30 7697 H 709.939 3.31972 6.97864 0
M  V30 7698 H 708.284 2.97924 6.27906 0
M  V30 7699 H 711.475 1.7407 4.34531 0
M  V30 7700 H 711.648 2.64239 5.91677 0
M  V30 7701 N 705.054 -1.51416 0.437162 0
M  V30 7702 C 706.303 -2.01275 -0.130865 0
M  V30 7703 C 706.616 -1.32593 -1.438 0
M  V30 7704 O 707.822 -1.7342 -2.08897 0
M  V30 7705 C 706.278 -3.5878 -0.283763 0
M  V30 7706 C 705.886 -4.36399 1.01293 0
M  V30 7707 C 707.63 -4.16786 -0.805569 0
M  V30 7708 C 705.537 -5.85608 0.825687 0
M  V30 7709 H 704.467 -0.752157 -0.0526818 0
M  V30 7710 H 707.118 -1.74524 0.566896 0
M  V30 7711 H 705.5 -3.81976 -1.04452 0
M  V30 7712 H 706.674 -4.24948 1.78201 0
M  V30 7713 H 704.989 -3.89843 1.46326 0
M  V30 7714 H 707.586 -5.25972 -0.962146 0
M  V30 7715 H 707.929 -3.75949 -1.78796 0
M  V30 7716 H 708.462 -3.97666 -0.103125 0
M  V30 7717 H 705.201 -6.30857 1.78045 0
M  V30 7718 H 704.721 -5.99723 0.0964029 0
M  V30 7719 H 706.4 -6.45226 0.478815 0
M  V30 7720 N 706.532 -0.168513 -1.56696 0
M  V30 7721 C 707.779 0.477158 -1.96798 0
M  V30 7722 C 708.107 1.63442 -1.05437 0
M  V30 7723 O 707.362 1.95503 -0.0878903 0
M  V30 7724 C 707.661 1.00441 -3.42996 0
M  V30 7725 C 707.327 -0.0366556 -4.50885 0
M  V30 7726 C 705.989 -0.322785 -4.80116 0
M  V30 7727 C 708.341 -0.743447 -5.1587 0
M  V30 7728 C 705.669 -1.32114 -5.71632 0
M  V30 7729 C 708.021 -1.73077 -6.08463 0
M  V30 7730 C 706.685 -2.02437 -6.36062 0
M  V30 7731 H 705.955 0.174604 -0.720135 0
M  V30 7732 H 708.602 -0.259884 -1.89728 0
M  V30 7733 H 706.907 1.81922 -3.47004 0
M  V30 7734 H 708.604 1.51294 -3.71364 0
M  V30 7735 H 705.194 0.196532 -4.28149 0
M  V30 7736 H 709.378 -0.535602 -4.93401 0
M  V30 7737 H 704.634 -1.55482 -5.913 0
M  V30 7738 H 708.808 -2.28382 -6.57886 0
M  V30 7739 H 706.435 -2.79946 -7.06777 0
M  V30 7740 N 708.01 1.57248 0.105221 0
M  V30 7741 C 708.94 2.04374 1.12931 0
M  V30 7742 C 709.921 0.93074 1.42377 0
M  V30 7743 O 711.106 1.20136 1.52581 0
M  V30 7744 C 708.236 2.45967 2.45189 0
M  V30 7745 C 707.19 3.60838 2.30174 0
M  V30 7746 C 706.516 3.88374 3.67518 0
M  V30 7747 C 707.816 4.92084 1.75073 0
M  V30 7748 H 709.51 2.9018 0.737287 0
M  V30 7749 H 707.056 1.39601 0.353211 0
M  V30 7750 H 709.009 2.77542 3.17094 0
M  V30 7751 H 707.733 1.57148 2.86308 0
M  V30 7752 H 706.392 3.29493 1.60716 0
M  V30 7753 H 706.04 2.96739 4.06147 0
M  V30 7754 H 705.74 4.65703 3.58321 0
M  V30 7755 H 707.264 4.22415 4.40906 0
M  V30 7756 H 708.678 5.22106 2.36809 0
M  V30 7757 H 707.075 5.73507 1.76662 0
M  V30 7758 H 708.145 4.79684 0.709347 0
M  V30 7759 N 709.488 -0.375779 1.53054 0
M  V30 7760 C 710.734 -1.11767 1.6994 0
M  V30 7761 C 711.089 -1.87288 0.440574 0
M  V30 7762 O 710.382 -1.83045 -0.566146 0
M  V30 7763 C 710.576 -2.11356 2.88207 0
M  V30 7764 C 710.405 -1.45619 4.25471 0
M  V30 7765 C 709.175 -1.21464 4.90484 0
M  V30 7766 C 711.373 -0.899276 5.06377 0
M  V30 7767 N 709.355 -0.519705 6.11696 0
M  V30 7768 C 710.726 -0.333138 6.19104 0
M  V30 7769 C 712.781 -0.79697 4.9148 0
M  V30 7770 C 711.484 0.325316 7.18564 0
M  V30 7771 C 713.51 -0.152315 5.91204 0
M  V30 7772 C 712.872 0.402994 7.03246 0
M  V30 7773 H 708.971 -0.394489 0.675206 0
M  V30 7774 H 711.555 -0.40541 1.90432 0
M  V30 7775 H 709.726 -2.79905 2.69272 0
M  V30 7776 H 711.458 -2.78148 2.93966 0
M  V30 7777 H 708.213 -1.49319 4.49445 0
M  V30 7778 H 708.637 -0.187896 6.76739 0
M  V30 7779 H 713.279 -1.21208 4.05054 0
M  V30 7780 H 710.997 0.752399 8.0459 0
M  V30 7781 H 714.583 -0.074223 5.81753 0
M  V30 7782 H 713.463 0.89394 7.79088 0
M  V30 7783 N 710.966 -1.44241 -0.634997 0
M  V30 7784 C 712.212 -1.47038 -1.39669 0
M  V30 7785 C 712.545 -0.101122 -1.93937 0
M  V30 7786 O 711.82 0.880699 -1.73418 0
M  V30 7787 C 712.103 -2.52763 -2.56482 0
M  V30 7788 C 711.956 -3.99032 -2.07589 0
M  V30 7789 C 713.275 -2.55031 -3.58674 0
M  V30 7790 H 710.394 -0.53537 -0.506506 0
M  V30 7791 H 713.036 -1.75898 -0.718317 0
M  V30 7792 H 711.186 -2.28284 -3.14354 0
M  V30 7793 H 712.858 -4.3463 -1.54577 0
M  V30 7794 H 711.101 -4.10994 -1.38804 0
M  V30 7795 H 711.772 -4.68649 -2.91671 0
M  V30 7796 H 714.248 -2.76893 -3.10595 0
M  V30 7797 H 713.124 -3.30916 -4.37934 0
M  V30 7798 H 713.385 -1.59085 -4.12486 0
M  V30 7799 N 712.444 0.87505 -1.31075 0
M  V30 7800 C 713.691 1.62768 -1.20469 0
M  V30 7801 C 714.019 1.93034 0.23834 0
M  V30 7802 O 713.274 1.55693 1.18567 0
M  V30 7803 C 713.573 2.96948 -1.98888 0
M  V30 7804 C 713.239 2.86195 -3.4843 0
M  V30 7805 C 711.901 2.82969 -3.89207 0
M  V30 7806 C 714.253 2.73599 -4.43614 0
M  V30 7807 C 711.581 2.64999 -5.23443 0
M  V30 7808 C 713.933 2.57166 -5.77969 0
M  V30 7809 C 712.597 2.52321 -6.17973 0
M  V30 7810 H 711.867 0.595611 -0.440827 0
M  V30 7811 H 714.514 1.01665 -1.62285 0
M  V30 7812 H 712.819 3.62058 -1.49737 0
M  V30 7813 H 714.516 3.54164 -1.88067 0
M  V30 7814 H 711.106 2.8952 -3.16032 0
M  V30 7815 H 715.29 2.7515 -4.13045 0
M  V30 7816 H 710.546 2.5967 -5.53517 0
M  V30 7817 H 714.72 2.46396 -6.51354 0
M  V30 7818 H 712.347 2.38156 -7.21932 0
M  V30 7819 N 713.922 1.13953 1.08869 0
M  V30 7820 C 715.15 0.92817 1.84912 0
M  V30 7821 C 715.565 -0.523197 1.81406 0
M  V30 7822 O 714.922 -1.36237 1.21432 0
M  V30 7823 C 714.973 1.41509 3.32652 0
M  V30 7824 O 714.694 2.80959 3.36145 0
M  V30 7825 C 716.195 1.243 4.25517 0
M  V30 7826 H 713.415 0.330612 0.583898 0
M  V30 7827 H 715.959 1.51349 1.37527 0
M  V30 7828 H 714.114 0.872648 3.77444 0
M  V30 7829 H 714.528 3.02704 4.28335 0
M  V30 7830 H 716.002 1.63237 5.27312 0
M  V30 7831 H 716.479 0.18532 4.38809 0
M  V30 7832 H 717.085 1.77375 3.86546 0
M  V30 7833 N 715.4 -1.26948 0.933913 0
M  V30 7834 C 716.33 -2.29017 0.45534 0
M  V30 7835 C 717.311 -1.62961 -0.487605 0
M  V30 7836 O 718.496 -1.90223 -0.391022 0
M  V30 7837 C 715.626 -3.46112 -0.287015 0
M  V30 7838 C 714.58 -4.24205 0.568682 0
M  V30 7839 C 713.906 -5.3384 -0.303206 0
M  V30 7840 C 715.206 -4.88954 1.83633 0
M  V30 7841 H 716.9 -2.69298 1.30839 0
M  V30 7842 H 714.446 -1.29459 0.630579 0
M  V30 7843 H 716.399 -4.16622 -0.6328 0
M  V30 7844 H 715.123 -3.04765 -1.17414 0
M  V30 7845 H 713.782 -3.5545 0.897261 0
M  V30 7846 H 713.43 -4.88734 -1.18947 0
M  V30 7847 H 713.13 -5.86998 0.265879 0
M  V30 7848 H 714.654 -6.0719 -0.644423 0
M  V30 7849 H 716.068 -5.51717 1.55823 0
M  V30 7850 H 714.465 -5.52198 2.34941 0
M  V30 7851 H 715.535 -4.12305 2.55211 0
M  V30 7852 N 716.879 -0.700114 -1.41195 0
M  V30 7853 C 718.125 -0.233351 -2.01453 0
M  V30 7854 C 718.458 1.16548 -1.55339 0
M  V30 7855 O 717.733 1.78756 -0.766575 0
M  V30 7856 C 718.016 -0.2961 -3.58881 0
M  V30 7857 C 717.869 -1.7322 -4.15108 0
M  V30 7858 C 719.188 0.341525 -4.38773 0
M  V30 7859 H 716.307 -0.0862667 -0.731934 0
M  V30 7860 H 718.949 -0.889693 -1.67882 0
M  V30 7861 H 717.099 0.262736 -3.87611 0
M  V30 7862 H 718.771 -2.34523 -3.97236 0
M  V30 7863 H 717.014 -2.2649 -3.69979 0
M  V30 7864 H 717.685 -1.7276 -5.24269 0
M  V30 7865 H 720.161 -0.134461 -4.15883 0
M  V30 7866 H 719.037 0.267098 -5.4825 0
M  V30 7867 H 719.298 1.42289 -4.18577 0
M  V30 7868 N 718.357 1.51182 -0.445186 0
M  V30 7869 C 719.597 2.04061 0.117717 0
M  V30 7870 C 719.961 1.32158 1.39278 0
M  V30 7871 O 721.162 1.75452 2.03642 0
M  V30 7872 C 719.433 3.55933 0.323445 0
M  V30 7873 S 720.992 4.30516 0.848627 0
M  V30 7874 H 717.81 0.710442 0.028165 0
M  V30 7875 H 720.412 1.85858 -0.606391 0
M  V30 7876 H 719.116 4.0583 -0.610764 0
M  V30 7877 H 718.647 3.78444 1.07441 0
M  V30 7878 H 720.662 4.48382 2.12528 0
M  V30 7879 N 719.835 0.176821 1.56605 0
M  V30 7880 C 721.084 -0.466833 1.96223 0
M  V30 7881 C 721.397 -1.64015 1.06576 0
M  V30 7882 O 722.603 -2.3504 1.35898 0
M  V30 7883 C 721.059 -0.881921 3.48927 0
M  V30 7884 C 720.667 0.266102 4.47209 0
M  V30 7885 C 722.411 -1.49368 3.97353 0
M  V30 7886 C 720.318 -0.168923 5.91159 0
M  V30 7887 H 719.248 -0.178178 0.732645 0
M  V30 7888 H 721.899 0.265929 1.81563 0
M  V30 7889 H 720.281 -1.67082 3.59026 0
M  V30 7890 H 721.455 1.04349 4.4883 0
M  V30 7891 H 719.77 0.788178 4.08872 0
M  V30 7892 H 722.367 -1.8313 5.02362 0
M  V30 7893 H 722.71 -2.3936 3.40606 0
M  V30 7894 H 723.243 -0.769114 3.90294 0
M  V30 7895 H 719.982 0.696351 6.51791 0
M  V30 7896 H 719.502 -0.911552 5.92833 0
M  V30 7897 H 721.181 -0.610938 6.44109 0
M  V30 7898 N 721.313 -1.57302 -0.09688 0
M  V30 7899 C 722.243 -2.0497 -1.11846 0
M  V30 7900 C 723.224 -0.938278 -1.41882 0
M  V30 7901 O 724.409 -1.20943 -1.51942 0
M  V30 7902 C 721.539 -2.47264 -2.43881 0
M  V30 7903 C 720.493 -3.62053 -2.28257 0
M  V30 7904 C 719.819 -3.90318 -3.65453 0
M  V30 7905 C 721.119 -4.93005 -1.72461 0
M  V30 7906 H 722.813 -2.90567 -0.721888 0
M  V30 7907 H 720.359 -1.39786 -0.345803 0
M  V30 7908 H 722.312 -2.7922 -3.15617 0
M  V30 7909 H 721.036 -1.58664 -2.8547 0
M  V30 7910 H 719.695 -3.30341 -1.58967 0
M  V30 7911 H 719.343 -2.98889 -4.04567 0
M  V30 7912 H 719.043 -4.67597 -3.55846 0
M  V30 7913 H 720.567 -4.24747 -4.3866 0
M  V30 7914 H 721.981 -5.23354 -2.34036 0
M  V30 7915 H 720.378 -5.74436 -1.73618 0
M  V30 7916 H 721.448 -4.80053 -0.683898 0
M  V30 7917 N 722.791 0.367657 -1.53252 0
M  V30 7918 C 724.039 1.10832 -1.68999 0
M  V30 7919 C 724.36 1.89894 -0.443306 0
M  V30 7920 O 723.63 1.88235 0.54262 0
M  V30 7921 H 722.21 0.412153 -0.623008 0
M  V30 7922 H 724.872 0.414775 -1.90435 0
M  V30 7923 H 723.968 1.7993 -2.55013 0
M  V30 7924 N 724.269 1.44576 0.627338 0
M  V30 7925 C 725.497 1.51048 1.41394 0
M  V30 7926 C 725.912 0.136568 1.88305 0
M  V30 7927 O 725.269 -0.858251 1.6106 0
M  V30 7928 C 725.32 2.47837 2.63172 0
M  V30 7929 O 725.041 3.79887 2.18215 0
M  V30 7930 C 726.542 2.63811 3.56257 0
M  V30 7931 H 723.762 0.512171 0.4335 0
M  V30 7932 H 726.306 1.89576 0.766878 0
M  V30 7933 H 724.461 2.12433 3.23961 0
M  V30 7934 H 724.875 4.32177 2.97192 0
M  V30 7935 H 726.349 3.35554 4.38301 0
M  V30 7936 H 726.826 1.69169 4.05313 0
M  V30 7937 H 727.432 3.0013 3.01333 0
M  V30 7938 N 725.747 -0.868086 1.31537 0
M  V30 7939 C 726.71 -1.95703 1.19302 0
M  V30 7940 C 727.71 -1.60355 0.119612 0
M  V30 7941 O 728.9 -1.70247 0.36902 0
M  V30 7942 C 726.032 -3.30599 0.831684 0
M  V30 7943 H 727.225 -2.07982 2.16064 0
M  V30 7944 H 724.778 -1.05661 1.15176 0
M  V30 7945 H 725.513 -3.2402 -0.134694 0
M  V30 7946 H 725.298 -3.57629 1.60761 0
M  V30 7947 H 726.788 -4.10439 0.770026 0
M  V30 7948 N 727.225 -1.14528 -1.08264 0
M  V30 7949 C 728.473 -0.912599 -1.80322 0
M  V30 7950 C 728.794 0.562256 -1.86718 0
M  V30 7951 O 728.064 1.40869 -1.36135 0
M  V30 7952 H 726.644 -0.334645 -0.667849 0
M  V30 7953 H 729.306 -1.44415 -1.30883 0
M  V30 7954 H 728.402 -1.31384 -2.83098 0
M  V30 7955 N 728.703 1.26451 -0.940633 0
M  V30 7956 C 729.633 2.28773 -0.467479 0
M  V30 7957 C 730.614 1.63218 0.478955 0
M  V30 7958 O 731.799 1.90427 0.380929 0
M  V30 7959 C 728.929 3.46259 0.268656 0
M  V30 7960 C 727.883 4.23898 -0.591171 0
M  V30 7961 C 727.209 5.33993 0.274891 0
M  V30 7962 C 728.509 4.87974 -1.86223 0
M  V30 7963 H 730.203 2.68601 -1.32265 0
M  V30 7964 H 727.749 1.29123 -0.637436 0
M  V30 7965 H 729.702 4.16951 0.610696 0
M  V30 7966 H 728.426 3.05383 1.15796 0
M  V30 7967 H 727.085 3.54969 -0.916098 0
M  V30 7968 H 726.733 4.89358 1.16353 0
M  V30 7969 H 726.433 5.86849 -0.297006 0
M  V30 7970 H 727.957 6.07523 0.612213 0
M  V30 7971 H 729.371 5.50883 -1.58747 0
M  V30 7972 H 727.768 5.50945 -2.37866 0
M  V30 7973 H 728.838 4.10945 -2.57394 0
M  V30 7974 N 730.181 0.707592 1.40822 0
M  V30 7975 C 731.428 0.243671 2.01029 0
M  V30 7976 C 731.756 -1.16057 1.5608 0
M  V30 7977 O 731.011 -1.7999 0.768251 0
M  V30 7978 C 731.31 0.262892 3.56432 0
M  V30 7979 C 730.976 1.61632 4.20935 0
M  V30 7980 C 729.638 1.98682 4.38268 0
M  V30 7981 C 731.99 2.50619 4.5699 0
M  V30 7982 C 729.318 3.2428 4.88937 0
M  V30 7983 C 731.67 3.75562 5.09054 0
M  V30 7984 C 730.334 4.12739 5.24598 0
M  V30 7985 H 729.604 0.0891654 0.735616 0
M  V30 7986 H 732.251 0.909051 1.68548 0
M  V30 7987 H 730.556 -0.486052 3.88773 0
M  V30 7988 H 732.253 -0.113775 4.00839 0
M  V30 7989 H 728.843 1.31818 4.07826 0
M  V30 7990 H 733.027 2.23272 4.43242 0
M  V30 7991 H 728.283 3.53064 4.99155 0
M  V30 7992 H 732.457 4.44692 5.35931 0
M  V30 7993 H 730.084 5.10132 5.63622 0
M  V30 7994 N 731.66 -1.50943 0.453197 0
M  V30 7995 C 732.59 -2.31005 -0.34044 0
M  V30 7996 C 733.571 -1.37112 -1.00669 0
M  V30 7997 O 734.756 -1.66033 -1.0073 0
M  V30 7998 C 731.886 -3.16358 -1.433 0
M  V30 7999 C 730.84 -4.18658 -0.889363 0
M  V30 8000 C 730.166 -4.92633 -2.07887 0
M  V30 8001 C 731.466 -5.22227 0.0871142 0
M  V30 8002 H 733.16 -2.97601 0.327723 0
M  V30 8003 H 730.706 -1.43119 0.159054 0
M  V30 8004 H 732.659 -3.71155 -1.99555 0
M  V30 8005 H 731.383 -2.47613 -2.12968 0
M  V30 8006 H 730.042 -3.64936 -0.348915 0
M  V30 8007 H 729.69 -4.20376 -2.76211 0
M  V30 8008 H 729.39 -5.61819 -1.72143 0
M  V30 8009 H 730.914 -5.50258 -2.64666 0
M  V30 8010 H 732.328 -5.72001 -0.385656 0
M  V30 8011 H 730.725 -5.99032 0.357926 0
M  V30 8012 H 731.795 -4.74077 1.01879 0
M  V30 8013 N 733.138 -0.185124 -1.56509 0
M  V30 8014 C 734.07 0.771401 -2.15829 0
M  V30 8015 C 735.083 1.18392 -1.11747 0
M  V30 8016 O 736.272 1.12137 -1.38879 0
M  V30 8017 C 733.372 2.05169 -2.69739 0
M  V30 8018 C 732.545 1.80056 -3.98621 0
M  V30 8019 C 731.604 2.92435 -4.37456 0
M  V30 8020 O 730.63 2.62473 -5.05071 0
M  V30 8021 N 731.832 4.20554 -4.00143 0
M  V30 8022 H 734.597 0.264184 -2.98533 0
M  V30 8023 H 732.158 -0.00281069 -1.619 0
M  V30 8024 H 734.15 2.7947 -2.92709 0
M  V30 8025 H 732.72 2.47041 -1.91545 0
M  V30 8026 H 731.94 0.895862 -3.83885 0
M  V30 8027 H 733.228 1.60662 -4.82768 0
M  V30 8028 H 732.626 4.47753 -3.45736 0
M  V30 8029 H 731.183 4.91514 -4.28085 0
M  V30 8030 N 734.616 1.57351 0.0885366 0
M  V30 8031 C 736.027 1.75303 0.642308 0
M  V30 8032 C 736.378 0.808238 1.78779 0
M  V30 8033 O 735.503 -0.01171 2.16397 0
M  V30 8034 C 736.098 3.17885 1.17194 0
M  V30 8035 C 734.657 3.37239 1.67172 0
M  V30 8036 C 733.804 2.7108 0.584045 0
M  V30 8037 H 736.755 1.58103 -0.137567 0
M  V30 8038 H 736.776 3.2112 2.04114 0
M  V30 8039 H 736.288 3.86625 0.338024 0
M  V30 8040 H 734.389 2.73588 2.52943 0
M  V30 8041 H 734.502 4.45594 1.76019 0
M  V30 8042 H 732.866 2.33161 1.02508 0
M  V30 8043 H 733.649 3.42464 -0.239403 0
M  V30 8044 N 736.094 -0.359525 1.53444 0
M  V30 8045 C 737.024 -1.44662 1.8329 0
M  V30 8046 C 738.005 -1.55617 0.68683 0
M  V30 8047 O 739.19 -1.70086 0.93725 0
M  V30 8048 C 736.32 -2.81923 2.02822 0
M  V30 8049 C 735.274 -2.85787 3.18606 0
M  V30 8050 C 734.6 -4.25781 3.23442 0
M  V30 8051 C 735.9 -2.52762 4.57065 0
M  V30 8052 H 737.594 -1.19934 2.74329 0
M  V30 8053 H 735.14 -0.575517 1.31999 0
M  V30 8054 H 737.093 -3.58005 2.22285 0
M  V30 8055 H 735.817 -3.08051 1.085 0
M  V30 8056 H 734.476 -2.12157 2.98973 0
M  V30 8057 H 734.124 -4.48994 2.26745 0
M  V30 8058 H 733.824 -4.29281 4.01238 0
M  V30 8059 H 735.348 -5.03727 3.45096 0
M  V30 8060 H 736.762 -3.18557 4.76649 0
M  V30 8061 H 735.159 -2.67569 5.37147 0
M  V30 8062 H 736.229 -1.47993 4.61764 0
M  V30 8063 N 737.572 -1.44907 -0.619662 0
M  V30 8064 C 738.505 -1.47133 -1.74434 0
M  V30 8065 C 739.483 -0.328933 -1.59238 0
M  V30 8066 O 740.667 -0.527632 -1.80965 0
M  V30 8067 C 737.794 -1.31491 -3.12134 0
M  V30 8068 C 736.84 -2.49441 -3.4595 0
M  V30 8069 S 737.673 -4.11945 -3.42142 0
M  V30 8070 C 738.829 -3.98747 -4.82443 0
M  V30 8071 H 739.062 -2.42295 -1.7228 0
M  V30 8072 H 736.595 -1.32343 -0.795276 0
M  V30 8073 H 738.553 -1.23153 -3.91591 0
M  V30 8074 H 737.214 -0.378203 -3.11815 0
M  V30 8075 H 736.407 -2.3439 -4.46181 0
M  V30 8076 H 736.009 -2.54577 -2.73982 0
M  V30 8077 H 738.301 -3.63145 -5.71954 0
M  V30 8078 H 739.244 -4.98848 -5.0255 0
M  V30 8079 H 739.652 -3.30608 -4.57557 0
M  V30 8080 N 739.05 0.861098 -1.31996 0
M  V30 8081 C 740.013 1.95068 -1.20338 0
M  V30 8082 C 741.013 1.60289 -0.128114 0
M  V30 8083 O 742.203 1.70048 -0.378044 0
M  V30 8084 C 739.335 3.30153 -0.849205 0
M  V30 8085 H 740.528 2.06833 -2.17164 0
M  V30 8086 H 738.081 1.05049 -1.15734 0
M  V30 8087 H 738.816 3.24087 0.117508 0
M  V30 8088 H 738.601 3.56771 -1.62655 0
M  V30 8089 H 740.091 4.10025 -0.791782 0
M  V30 8090 N 740.528 1.15101 1.07655 0
M  V30 8091 C 741.944 0.893004 1.32279 0
M  V30 8092 C 742.144 -0.461701 1.96139 0
M  V30 8093 O 741.2 -1.20431 2.21929 0
M  V30 8094 C 742.513 2.03161 2.21689 0
M  V30 8095 C 744.061 2.06579 2.35147 0
M  V30 8096 C 744.536 3.19754 3.27905 0
M  V30 8097 N 746.027 3.19382 3.35484 0
M  V30 8098 C 746.762 4.03592 4.07309 0
M  V30 8099 N 746.258 4.97859 4.81776 0
M  V30 8100 N 748.051 3.91626 4.03219 0
M  V30 8101 H 740.202 2.02341 0.645886 0
M  V30 8102 H 742.465 0.882127 0.347211 0
M  V30 8103 H 742.171 3.00934 1.82021 0
M  V30 8104 H 742.045 1.96132 3.22199 0
M  V30 8105 H 744.432 1.09408 2.74069 0
M  V30 8106 H 744.513 2.17676 1.34353 0
M  V30 8107 H 744.157 4.17175 2.89702 0
M  V30 8108 H 744.087 3.05893 4.28645 0
M  V30 8109 H 746.578 2.51112 2.82403 0
M  V30 8110 H 746.891 5.58563 5.34067 0
M  V30 8111 H 745.236 5.0185 4.80803 0
M  V30 8112 H 748.427 3.17295 3.44154 0
M  V30 8113 H 748.6 4.57479 4.5893 0
M  V30 8114 N 742.006 -1.2595 0.947325 0
M  V30 8115 C 742.916 -2.29883 0.468079 0
M  V30 8116 C 743.932 -1.67783 -0.460975 0
M  V30 8117 O 745.108 -1.98526 -0.339006 0
M  V30 8118 C 742.173 -3.45773 -0.253315 0
M  V30 8119 C 741.234 -4.23337 0.713054 0
M  V30 8120 C 740.467 -5.33694 0.025993 0
M  V30 8121 O 740.69 -5.57853 -1.18978 0
M  V30 8122 O 739.624 -5.97724 0.70782 0
M  V30 8123 H 743.45 -2.72952 1.33156 0
M  V30 8124 H 741.035 -1.31263 0.713468 0
M  V30 8125 H 742.917 -4.16209 -0.659423 0
M  V30 8126 H 741.592 -3.04721 -1.09209 0
M  V30 8127 H 740.499 -3.55359 1.16923 0
M  V30 8128 H 741.832 -4.68154 1.51963 0
M  V30 8129 N 743.484 -0.715051 -1.40445 0
M  V30 8130 C 744.761 -0.181503 -1.94756 0
M  V30 8131 C 745.141 1.31268 -1.65324 0
M  V30 8132 O 744.489 2.0686 -0.970631 0
M  V30 8133 C 744.699 -0.493663 -3.45491 0
M  V30 8134 C 746.047 -0.432032 -4.22396 0
M  V30 8135 O 747.071 -0.429692 -3.53599 0
M  V30 8136 O 745.93 -0.409091 -5.44967 0
M  V30 8137 H 743.024 -0.0263989 -0.826579 0
M  V30 8138 H 745.57 -0.792546 -1.50056 0
M  V30 8139 H 744.342 -1.52713 -3.6027 0
M  V30 8140 H 743.965 0.14737 -3.97327 0
M  V30 8141 N 744.962 1.50701 -0.461195 0
M  V30 8142 C 745.925 2.2686 0.326679 0
M  V30 8143 C 746.925 1.31243 0.929085 0
M  V30 8144 O 748.115 1.54754 0.799807 0
M  V30 8145 C 745.247 3.07844 1.46441 0
M  V30 8146 H 746.44 2.97954 -0.341095 0
M  V30 8147 H 743.993 1.54814 -0.214984 0
M  V30 8148 H 744.728 2.41223 2.16753 0
M  V30 8149 H 744.513 3.78101 1.03836 0
M  V30 8150 H 746.003 3.65469 2.02044 0
M  V30 8151 O 746.479 0.334734 1.57993 0
M  V30 8152 H 747.17 -0.222689 1.92416 0
M  V30 END ATOM
M  V30 BEGIN BOND
M  V30 END BOND
M  V30 END CTAB
M  END
$$$$
