drugbank_target|Q08698 Ribonucleoside-diphosphate reductase 2 subunit alpha (DB02452; DB03222; DB03258)
 OpenBabel12092119593D

  0  0  0     0  0            999 V3000
M  V30 BEGIN CTAB
M  V30 COUNTS 11247 11374 0 0 0
M  V30 BEGIN ATOM
M  V30 1 H -0.908 1.98254 -0.117106 0
M  V30 2 N 0 1.576 0 0
M  V30 3 C 0.933 2.03868 1.02534 0
M  V30 4 C 1.911 0.928543 1.3348 0
M  V30 5 O 3.095 1.19667 1.45644 0
M  V30 6 C 0.222 2.43627 2.35294 0
M  V30 7 C -0.732 3.65373 2.2001 0
M  V30 8 S 0.101 5.13292 1.52614 0
M  V30 9 C 1.257 5.56322 2.86805 0
M  V30 10 H 1.49 2.90518 0.631377 0
M  V30 11 H -0.977 1.52953 0.210867 0
M  V30 12 H 0.981 2.67203 3.11629 0
M  V30 13 H -0.358 1.57376 2.7183 0
M  V30 14 H -1.165 3.90944 3.18086 0
M  V30 15 H -1.563 3.418 1.51819 0
M  V30 16 H 0.729 5.58782 3.83104 0
M  V30 17 H 1.672 6.56266 2.65933 0
M  V30 18 H 2.08 4.83886 2.90714 0
M  V30 19 N 1.4781 -0.272755 1.55222 0
M  V30 20 C 2.4411 -1.32041 1.87344 0
M  V30 21 C 3.4411 -1.42342 0.74803 0
M  V30 22 O 4.6311 -1.41488 1.0162 0
M  V30 23 C 1.7631 -2.70173 2.07893 0
M  V30 24 H 2.9561 -1.04789 2.80997 0
M  V30 25 H 0.5091 -0.51083 1.47717 0
M  V30 26 H 1.2441 -3.02605 1.16622 0
M  V30 27 H 1.0291 -2.64082 2.89833 0
M  V30 28 H 2.5191 -3.45869 2.34017 0
M  V30 29 N 2.9562 -1.48159 -0.537278 0
M  V30 30 C 4.1842 -1.59454 -1.31841 0
M  V30 31 C 4.5992 -0.252065 -1.8711 0
M  V30 32 O 3.9562 0.757621 -1.66031 0
M  V30 33 C 4.0072 -2.63546 -2.47439 0
M  V30 34 O 3.7282 -3.92583 -1.94449 0
M  V30 35 C 5.2292 -2.85212 -3.39366 0
M  V30 36 H 2.4492 -0.53785 -0.401196 0
M  V30 37 H 4.9932 -1.93932 -0.648891 0
M  V30 38 H 3.1482 -2.31946 -3.1029 0
M  V30 39 H 3.5622 -4.49629 -2.70063 0
M  V30 40 H 5.0362 -3.61863 -4.16844 0
M  V30 41 H 5.5132 -1.93765 -3.94147 0
M  V30 42 H 6.1192 -3.18086 -2.82314 0
M  V30 43 N 4.4343 0.785586 -1.36625 0
M  V30 44 C 5.6623 1.57448 -1.3423 0
M  V30 45 C 6.0773 1.88649 0.0755653 0
M  V30 46 O 5.4343 1.50414 1.03354 0
M  V30 47 C 5.4853 2.89316 -2.16745 0
M  V30 48 O 5.2063 2.59459 -3.53005 0
M  V30 49 C 6.7073 3.83606 -2.22174 0
M  V30 50 H 3.9273 0.488226 -0.4603 0
M  V30 51 H 6.4713 0.974733 -1.79775 0
M  V30 52 H 4.6263 3.4575 -1.74745 0
M  V30 53 H 5.0403 3.43804 -3.96105 0
M  V30 54 H 6.5143 4.73181 -2.8426 0
M  V30 55 H 6.9913 4.21734 -1.22627 0
M  V30 56 H 7.5973 3.33104 -2.64427 0
M  V30 57 N 5.9124 1.20967 1.01018 0
M  V30 58 C 7.1404 1.04956 1.78303 0
M  V30 59 C 7.5554 -0.400915 1.84494 0
M  V30 60 O 6.9124 -1.27826 1.30257 0
M  V30 61 C 6.9634 1.63403 3.22462 0
M  V30 62 O 6.6844 3.02775 3.16637 0
M  V30 63 C 8.1854 1.52432 4.16268 0
M  V30 64 H 5.4054 0.368858 0.560522 0
M  V30 65 H 7.9494 1.60193 1.27116 0
M  V30 66 H 6.1044 1.1227 3.70775 0
M  V30 67 H 6.5184 3.30626 4.07169 0
M  V30 68 H 7.9924 1.98078 5.15237 0
M  V30 69 H 8.4694 0.477875 4.36592 0
M  V30 70 H 9.0754 2.02787 3.73841 0
M  V30 71 N 7.3905 -1.2043 1.01659 0
M  V30 72 C 8.8015 -1.71517 0.737482 0
M  V30 73 C 9.1525 -1.81547 -0.743973 0
M  V30 74 O 8.2775 -1.47803 -1.58061 0
M  V30 75 C 8.8725 -3.11515 1.33206 0
M  V30 76 C 7.4315 -3.59912 1.10183 0
M  V30 77 C 6.5785 -2.37116 1.43776 0
M  V30 78 H 9.5295 -1.05444 1.18606 0
M  V30 79 H 9.5505 -3.73575 0.722636 0
M  V30 80 H 9.0625 -3.04182 2.41028 0
M  V30 81 H 7.1635 -3.72577 0.0412756 0
M  V30 82 H 7.2765 -4.44731 1.78188 0
M  V30 83 H 5.6405 -2.39857 0.856778 0
M  V30 84 H 6.4235 -2.32424 2.52654 0
M  V30 85 N 8.8686 -0.792821 -1.36206 0
M  V30 86 C 9.7786 -0.194808 -2.3379 0
M  V30 87 C 10.7946 0.654869 -1.61206 0
M  V30 88 O 11.9706 0.569856 -1.9317 0
M  V30 89 C 9.0356 0.657721 -3.40404 0
M  V30 90 C 8.0966 -0.210849 -4.28782 0
M  V30 91 C 7.3296 0.601086 -5.30304 0
M  V30 92 O 7.5526 1.83682 -5.40016 0
M  V30 93 O 6.4866 -0.000808277 -6.019 0
M  V30 94 H 10.3126 -1.00172 -2.86704 0
M  V30 95 H 7.8976 -0.554341 -1.38735 0
M  V30 96 H 9.7796 1.14375 -4.05581 0
M  V30 97 H 8.4546 1.44247 -2.89784 0
M  V30 98 H 7.3616 -0.743714 -3.66633 0
M  V30 99 H 8.6946 -0.959195 -4.82763 0
M  V30 100 N 10.3467 1.47872 -0.545128 0
M  V30 101 C 11.7627 1.5829 -0.204032 0
M  V30 102 C 11.9627 1.54529 1.29317 0
M  V30 103 O 11.0187 1.44232 2.07252 0
M  V30 104 C 12.3317 2.89304 -0.819987 0
M  V30 105 C 13.8797 3.02864 -0.790105 0
M  V30 106 C 14.3547 4.3656 -1.38491 0
M  V30 107 N 15.8457 4.43165 -1.34755 0
M  V30 108 C 16.5807 5.45153 -1.77753 0
M  V30 109 N 16.0767 6.54016 -2.2855 0
M  V30 110 N 17.8697 5.36125 -1.68897 0
M  V30 111 H 10.0207 1.4856 -1.51802 0
M  V30 112 H 12.2837 0.706305 -0.632327 0
M  V30 113 H 11.9897 2.97757 -1.87173 0
M  V30 114 H 11.8637 3.75957 -0.305915 0
M  V30 115 H 14.2507 2.94014 0.252913 0
M  V30 116 H 14.3317 2.17782 -1.34181 0
M  V30 117 H 13.9757 4.46164 -2.42693 0
M  V30 118 H 13.9057 5.20353 -0.808754 0
M  V30 119 H 16.3967 3.65083 -0.975855 0
M  V30 120 H 16.7097 7.27994 -2.59314 0
M  V30 121 H 15.0547 6.54938 -2.32553 0
M  V30 122 H 18.2457 4.49975 -1.28998 0
M  V30 123 H 18.4187 6.15472 -2.02726 0
M  V30 124 N 11.8248 0.280983 1.55075 0
M  V30 125 C 13.0708 -0.33461 2.00021 0
M  V30 126 C 13.4038 -1.55063 1.16915 0
M  V30 127 O 12.6788 -1.93006 0.240646 0
M  V30 128 C 12.9618 -0.711007 3.53011 0
M  V30 129 C 12.8148 0.512766 4.46868 0
M  V30 130 C 14.1338 -1.54522 4.12081 0
M  V30 131 H 11.2528 -0.120147 0.727141 0
M  V30 132 H 13.8948 0.389097 1.85973 0
M  V30 133 H 12.0448 -1.32761 3.65112 0
M  V30 134 H 13.7168 1.15131 4.46702 0
M  V30 135 H 11.9598 1.14975 4.18286 0
M  V30 136 H 12.6308 0.205556 5.51617 0
M  V30 137 H 15.1068 -1.02442 4.03293 0
M  V30 138 H 13.9828 -1.77739 5.19327 0
M  V30 139 H 14.2438 -2.52813 3.62682 0
M  V30 140 N 13.3029 -1.57598 0.00835791 0
M  V30 141 C 14.2359 -2.04409 -1.01451 0
M  V30 142 C 15.2139 -0.935609 -1.32985 0
M  V30 143 O 16.3979 -1.20437 -1.45007 0
M  V30 144 C 13.5249 -2.44872 -2.33999 0
M  V30 145 C 12.5709 -3.66535 -2.18069 0
M  V30 146 S 13.4039 -5.14095 -1.4989 0
M  V30 147 C 14.5599 -5.57835 -2.8385 0
M  V30 148 H 14.7929 -2.90849 -0.615961 0
M  V30 149 H 12.3259 -1.53063 -0.202752 0
M  V30 150 H 14.2839 -2.68852 -3.10208 0
M  V30 151 H 12.9449 -1.58815 -2.70992 0
M  V30 152 H 12.1379 -3.92626 -3.16008 0
M  V30 153 H 11.7399 -3.426 -1.50004 0
M  V30 154 H 14.0319 -5.60806 -3.80136 0
M  V30 155 H 14.9749 -6.57667 -2.62449 0
M  V30 156 H 15.3829 -4.85421 -2.88144 0
M  V30 157 N 14.781 0.264519 -1.55364 0
M  V30 158 C 15.713 1.34965 -1.85248 0
M  V30 159 C 16.726 1.45136 -0.737525 0
M  V30 160 O 17.915 1.46801 -1.01547 0
M  V30 161 C 15.015 2.73008 -2.00797 0
M  V30 162 C 14.188 2.85324 -3.31525 0
M  V30 163 C 13.247 4.04097 -3.37034 0
M  V30 164 O 12.273 3.94455 -4.10358 0
M  V30 165 N 13.475 5.16458 -2.65049 0
M  V30 166 H 16.24 1.09672 -2.78913 0
M  V30 167 H 13.801 0.454635 -1.55386 0
M  V30 168 H 15.793 3.50772 -2.01844 0
M  V30 169 H 14.363 2.91087 -1.1396 0
M  V30 170 H 13.583 1.94377 -3.42945 0
M  V30 171 H 14.871 2.9049 -4.17724 0
M  V30 172 H 14.269 5.27181 -2.05175 0
M  V30 173 H 12.826 5.92422 -2.71809 0
M  V30 174 N 16.2591 1.48442 0.529413 0
M  V30 175 C 17.1691 1.6569 1.66084 0
M  V30 176 C 18.1851 0.539432 1.65427 0
M  V30 177 O 19.3611 0.810572 1.84368 0
M  V30 178 C 16.4261 1.69315 3.02545 0
M  V30 179 C 15.4871 2.92694 3.14052 0
M  V30 180 C 14.7201 2.96137 4.44003 0
M  V30 181 O 14.9431 2.07973 5.31134 0
M  V30 182 O 13.8771 3.88312 4.59888 0
M  V30 183 H 17.7031 2.61483 1.54469 0
M  V30 184 H 15.2881 1.3185 0.702567 0
M  V30 185 H 17.1701 1.74217 3.83701 0
M  V30 186 H 15.8451 0.766966 3.14483 0
M  V30 187 H 14.7521 2.93324 2.32189 0
M  V30 188 H 16.0851 3.84699 3.0703 0
M  V30 189 N 17.7372 -0.778329 1.37039 0
M  V30 190 C 18.9652 -1.56734 1.35063 0
M  V30 191 C 19.3802 -1.88686 -0.0655597 0
M  V30 192 O 18.7372 -1.5096 -1.02554 0
M  V30 193 C 18.7882 -2.88163 2.18276 0
M  V30 194 O 18.5092 -2.57583 3.54376 0
M  V30 195 C 20.0102 -3.82422 2.24206 0
M  V30 196 H 17.2302 -0.485778 0.462883 0
M  V30 197 H 19.7742 -0.965185 1.8029 0
M  V30 198 H 17.9292 -3.44818 1.76576 0
M  V30 199 H 18.3432 -3.41699 3.97922 0
M  V30 200 H 19.8172 -4.71667 2.86765 0
M  V30 201 H 20.2942 -4.21078 1.24861 0
M  V30 202 H 20.9002 -3.31697 2.6619 0
M  V30 203 N 19.2153 -1.21501 -1.00376 0
M  V30 204 C 20.1483 -0.918669 -2.08892 0
M  V30 205 C 21.1263 0.134277 -1.62045 0
M  V30 206 O 22.3103 0.00504255 -1.88499 0
M  V30 207 C 19.4373 -0.379645 -3.36566 0
M  V30 208 C 18.4833 -1.41559 -4.02323 0
M  V30 209 S 19.3163 -2.98521 -4.44574 0
M  V30 210 C 20.4723 -2.46228 -5.75433 0
M  V30 211 H 20.7053 -1.83761 -2.33707 0
M  V30 212 H 18.2383 -1.04489 -1.13673 0
M  V30 213 H 20.1963 -0.0752195 -4.10431 0
M  V30 214 H 18.8573 0.518008 -3.09799 0
M  V30 215 H 18.0503 -0.988076 -4.9422 0
M  V30 216 H 17.6523 -1.66815 -3.34737 0
M  V30 217 H 19.9443 -1.86791 -6.51241 0
M  V30 218 H 20.8873 -3.36572 -6.22997 0
M  V30 219 H 21.2953 -1.87894 -5.32312 0
M  V30 220 N 20.6934 1.19889 -1.02296 0
M  V30 221 C 21.9704 1.85148 -0.630832 0
M  V30 222 C 22.3504 1.91385 0.890782 0
M  V30 223 O 21.6984 1.42642 1.78509 0
M  V30 224 C 21.9084 3.24442 -1.28602 0
M  V30 225 C 23.2564 4.00663 -1.4055 0
M  V30 226 O 24.2804 3.33818 -1.24273 0
M  V30 227 O 23.1394 5.20387 -1.66913 0
M  V30 228 H 20.2334 0.797613 -0.218499 0
M  V30 229 H 22.7794 1.27427 -1.12074 0
M  V30 230 H 21.5514 3.14704 -2.32545 0
M  V30 231 H 21.1744 3.89802 -0.7836 0
M  V30 232 N 22.1715 0.800033 1.35784 0
M  V30 233 C 23.4015 0.389041 2.02904 0
M  V30 234 C 23.8095 -1.0027 1.60445 0
M  V30 235 O 23.1525 -1.65633 0.794453 0
M  V30 236 C 23.2145 0.385495 3.57427 0
M  V30 237 C 22.8785 1.72662 4.23127 0
M  V30 238 C 23.8755 2.68385 4.4527 0
M  V30 239 C 21.5605 2.00883 4.60381 0
M  V30 240 C 23.5545 3.90517 5.03761 0
M  V30 241 C 21.2415 3.2328 5.18588 0
M  V30 242 C 22.2395 4.17915 5.40218 0
M  V30 243 O 21.9275 5.38153 5.97199 0
M  V30 244 H 21.6595 0.157032 0.657508 0
M  V30 245 H 24.2135 1.08311 1.74522 0
M  V30 246 H 22.4435 -0.365128 3.84972 0
M  V30 247 H 24.1325 -0.00228296 4.059 0
M  V30 248 H 24.8985 2.47872 4.16874 0
M  V30 249 H 20.7775 1.28037 4.42863 0
M  V30 250 H 24.3215 4.64395 5.2056 0
M  V30 251 H 20.2185 3.43667 5.4641 0
M  V30 252 H 20.9865 5.3936 6.15656 0
M  V30 253 N 23.6496 -1.47581 0.552962 0
M  V30 254 C 24.5996 -2.26961 -0.217423 0
M  V30 255 C 25.5836 -1.34099 -0.889168 0
M  V30 256 O 26.7756 -1.58483 -0.788176 0
M  V30 257 C 23.9046 -3.19756 -1.24944 0
M  V30 258 C 22.9906 -4.20097 -0.581327 0
M  V30 259 N 23.3816 -5.04614 0.346171 0
M  V30 260 C 21.6796 -4.38099 -0.835767 0
M  V30 261 C 22.3806 -5.77052 0.733854 0
M  V30 262 N 21.3566 -5.43526 0.0896567 0
M  V30 263 H 25.1586 -2.89688 0.495761 0
M  V30 264 H 22.6726 -1.58068 0.372597 0
M  V30 265 H 24.6696 -3.75305 -1.81527 0
M  V30 266 H 23.3296 -2.58585 -1.96376 0
M  V30 267 H 24.3406 -5.12869 0.720098 0
M  V30 268 H 21.0176 -3.88102 -1.53892 0
M  V30 269 H 22.4076 -6.5504 1.49574 0
M  V30 270 N 25.1277 -0.289203 -1.54924 0
M  V30 271 C 26.0907 0.579144 -2.21762 0
M  V30 272 C 27.0907 1.07047 -1.1999 0
M  V30 273 O 28.2807 0.968384 -1.44803 0
M  V30 274 C 25.4127 1.80055 -2.8947 0
M  V30 275 H 26.6057 -0.00464908 -2.999 0
M  V30 276 H 24.1587 -0.0399306 -1.56249 0
M  V30 277 H 24.8937 2.42449 -2.15381 0
M  V30 278 H 24.6787 1.45602 -3.64064 0
M  V30 279 H 26.1687 2.41773 -3.40493 0
M  V30 280 N 26.6058 1.57591 -0.0167156 0
M  V30 281 C 27.5358 2.12496 0.967858 0
M  V30 282 C 28.5168 1.03807 1.34752 0
M  V30 283 O 29.7018 1.31577 1.42833 0
M  V30 284 C 26.8318 2.64194 2.25431 0
M  V30 285 C 25.7858 3.77559 2.01576 0
M  V30 286 C 25.1118 4.15636 3.36379 0
M  V30 287 C 26.4118 5.04151 1.36489 0
M  V30 288 H 28.1058 2.95013 0.510643 0
M  V30 289 H 25.6518 1.41915 0.244181 0
M  V30 290 H 27.6048 3.01236 2.94678 0
M  V30 291 H 26.3288 1.78821 2.73296 0
M  V30 292 H 24.9878 3.40937 1.34751 0
M  V30 293 H 24.6358 3.27263 3.81979 0
M  V30 294 H 24.3358 4.92022 3.21229 0
M  V30 295 H 25.8598 4.5525 4.06915 0
M  V30 296 H 27.2738 5.38857 1.95718 0
M  V30 297 H 25.6708 5.85453 1.31776 0
M  V30 298 H 26.7408 4.83733 0.336219 0
M  V30 299 N 28.0839 -0.256276 1.55502 0
M  V30 300 C 29.0319 -1.33694 1.90338 0
M  V30 301 C 30.0259 -1.50299 0.781441 0
M  V30 302 O 31.2319 -1.51885 0.965966 0
M  V30 303 H 27.6069 -0.447483 0.60437 0
M  V30 304 H 29.5779 -1.01574 2.8058 0
M  V30 305 C 28.3269 -2.68724 2.20642 0
M  V30 306 H 27.6499 -2.56743 3.06469 0
M  V30 307 H 29.0899 -3.43237 2.48926 0
M  V30 308 C 27.5489 -3.21101 1.01959 0
M  V30 309 O 28.0789 -4.0084 0.262762 0
M  V30 310 N 26.2849 -2.79003 0.812746 0
M  V30 311 H 25.8319 -2.14271 1.42989 0
M  V30 312 H 25.7899 -3.14393 0.0203076 0
M  V30 313 N 29.562 -1.4872 -0.521534 0
M  V30 314 C 30.525 -1.63379 -1.60748 0
M  V30 315 C 31.525 -0.50661 -1.52611 0
M  V30 316 O 32.715 -0.772601 -1.5613 0
M  V30 317 C 29.847 -1.61192 -3.00383 0
M  V30 318 H 31.04 -2.60217 -1.49087 0
M  V30 319 H 28.593 -1.37444 -0.744235 0
M  V30 320 H 29.328 -0.65863 -3.17541 0
M  V30 321 H 29.113 -2.43032 -3.07698 0
M  V30 322 H 30.603 -1.7466 -3.7932 0
M  V30 323 N 31.0401 0.771051 -1.3745 0
M  V30 324 C 31.9731 1.89166 -1.27638 0
M  V30 325 C 32.9511 1.61842 -0.156782 0
M  V30 326 O 34.1351 1.85569 -0.331111 0
M  V30 327 C 31.2621 3.24405 -0.973621 0
M  V30 328 C 30.3081 3.70638 -2.1102 0
M  V30 329 S 31.1411 3.84228 -3.73 0
M  V30 330 C 32.2971 5.22313 -3.44876 0
M  V30 331 H 32.5301 1.972 -2.22485 0
M  V30 332 H 30.0631 0.932224 -1.23081 0
M  V30 333 H 32.0211 4.02514 -0.805766 0
M  V30 334 H 30.6821 3.14071 -0.0426279 0
M  V30 335 H 29.8751 4.68685 -1.85338 0
M  V30 336 H 29.4771 2.99632 -2.23822 0
M  V30 337 H 31.7691 6.07505 -2.99908 0
M  V30 338 H 32.7121 5.53008 -4.42253 0
M  V30 339 H 33.1201 4.90284 -2.79789 0
M  V30 340 N 32.5182 1.22032 0.997298 0
M  V30 341 C 33.4482 1.01065 2.10495 0
M  V30 342 C 34.4292 -0.0669542 1.69968 0
M  V30 343 O 35.6142 0.0943987 1.9397 0
M  V30 344 C 32.7442 0.582874 3.42374 0
M  V30 345 C 31.6982 1.60592 3.96729 0
M  V30 346 C 31.0242 1.03412 5.24605 0
M  V30 347 C 32.3242 2.99478 4.27914 0
M  V30 348 H 34.0182 1.93708 2.28292 0
M  V30 349 H 31.5642 0.932761 1.09707 0
M  V30 350 H 33.5172 0.423332 4.19268 0
M  V30 351 H 32.2412 -0.379213 3.24391 0
M  V30 352 H 30.9002 1.75316 3.21963 0
M  V30 353 H 30.5482 0.063518 5.0296 0
M  V30 354 H 30.2482 1.71754 5.61938 0
M  V30 355 H 31.7722 0.886066 6.04137 0
M  V30 356 H 33.1862 2.88153 4.95622 0
M  V30 357 H 31.5832 3.64903 4.76409 0
M  V30 358 H 32.6532 3.49742 3.3587 0
M  V30 359 N 33.9963 -1.19345 1.0293 0
M  V30 360 C 34.9443 -2.24621 0.604001 0
M  V30 361 C 35.9383 -1.65452 -0.363587 0
M  V30 362 O 37.1443 -1.78497 -0.23212 0
M  V30 363 H 33.5193 -0.730858 0.177061 0
M  V30 364 H 35.4903 -2.5781 1.50255 0
M  V30 365 C 34.2393 -3.47688 -0.0289127 0
M  V30 366 H 33.5623 -3.93505 0.706651 0
M  V30 367 H 35.0023 -4.23011 -0.289432 0
M  V30 368 C 33.4613 -3.11817 -1.2756 0
M  V30 369 O 33.9913 -3.2451 -2.36762 0
M  V30 370 N 32.1973 -2.66246 -1.16453 0
M  V30 371 H 31.7443 -2.56118 -0.275914 0
M  V30 372 H 31.7023 -2.42617 -1.99961 0
M  V30 373 N 35.4744 -0.807222 -1.35358 0
M  V30 374 C 36.4044 -0.232509 -2.3234 0
M  V30 375 C 37.3854 0.642386 -1.57504 0
M  V30 376 O 38.5704 0.572526 -1.85569 0
M  V30 377 C 35.7004 0.619238 -3.41735 0
M  V30 378 C 34.6544 -0.157215 -4.27711 0
M  V30 379 C 33.9804 0.816273 -5.28433 0
M  V30 380 C 35.2804 -1.35656 -5.04376 0
M  V30 381 H 36.9744 -1.04276 -2.80654 0
M  V30 382 H 34.5204 -0.50288 -1.34934 0
M  V30 383 H 36.4734 1.03137 -4.08584 0
M  V30 384 H 35.1974 1.46239 -2.92031 0
M  V30 385 H 33.8564 -0.550525 -3.62443 0
M  V30 386 H 33.5044 1.65494 -4.74996 0
M  V30 387 H 33.2044 0.301067 -5.86828 0
M  V30 388 H 34.7284 1.22659 -5.98153 0
M  V30 389 H 36.1424 -1.01927 -5.64166 0
M  V30 390 H 34.5394 -1.8063 -5.7227 0
M  V30 391 H 35.6094 -2.14288 -4.34981 0
M  V30 392 N 36.9525 1.47285 -0.560781 0
M  V30 393 C 38.1825 2.06555 -0.0429638 0
M  V30 394 C 38.5905 1.41339 1.25777 0
M  V30 395 O 37.9335 0.505182 1.76617 0
M  V30 396 C 37.9955 3.58827 0.219887 0
M  V30 397 C 37.6595 4.46105 -0.991944 0
M  V30 398 C 38.6565 4.84 -1.89843 0
M  V30 399 C 36.3415 4.87567 -1.20762 0
M  V30 400 C 38.3355 5.6216 -3.00425 0
M  V30 401 C 36.0225 5.65491 -2.31653 0
M  V30 402 C 37.0205 6.02699 -3.21315 0
M  V30 403 O 36.7085 6.79052 -4.30283 0
M  V30 404 H 36.4405 0.674537 -0.0444468 0
M  V30 405 H 38.9945 1.90225 -0.774818 0
M  V30 406 H 37.2245 3.73383 1.00609 0
M  V30 407 H 38.9135 4.00103 0.683522 0
M  V30 408 H 39.6795 4.52564 -1.74387 0
M  V30 409 H 35.5585 4.5807 -0.518893 0
M  V30 410 H 39.1025 5.9112 -3.70436 0
M  V30 411 H 34.9995 5.9634 -2.47081 0
M  V30 412 H 35.7675 6.9745 -4.28376 0
M  V30 413 N 38.4306 0.297415 1.54768 0
M  V30 414 C 39.7076 -0.365847 1.92148 0
M  V30 415 C 40.0876 -1.71975 1.22424 0
M  V30 416 O 39.4356 -2.25666 0.358739 0
M  V30 417 C 39.6456 -0.484056 3.45627 0
M  V30 418 C 40.9936 -0.756594 4.17805 0
M  V30 419 O 42.0176 -0.568007 3.51642 0
M  V30 420 O 40.8766 -1.11863 5.34929 0
M  V30 421 H 37.9706 -0.203919 0.801465 0
M  V30 422 H 40.5166 0.34521 1.66152 0
M  V30 423 H 39.2886 0.467865 3.88493 0
M  V30 424 H 38.9116 -1.24372 3.77647 0
M  V30 425 N 39.9087 -1.5758 0.0250728 0
M  V30 426 C 40.8557 -2.09973 -0.958129 0
M  V30 427 C 41.8257 -1.00085 -1.3256 0
M  V30 428 O 43.0107 -1.27481 -1.41962 0
M  V30 429 C 40.1507 -2.62812 -2.2366 0
M  V30 430 C 39.2637 -3.86693 -1.92594 0
M  V30 431 C 38.3987 -4.27941 -3.14707 0
M  V30 432 C 37.4377 -5.44591 -2.79442 0
M  V30 433 N 36.5747 -5.81014 -3.94167 0
M  V30 434 H 41.4147 -2.937 -0.504428 0
M  V30 435 H 38.9517 -1.45172 -0.237392 0
M  V30 436 H 40.9097 -2.91536 -2.98434 0
M  V30 437 H 39.5397 -1.81922 -2.66654 0
M  V30 438 H 38.5917 -3.64723 -1.0808 0
M  V30 439 H 39.9037 -4.71547 -1.62619 0
M  V30 440 H 39.0577 -4.58079 -3.97804 0
M  V30 441 H 37.7967 -3.41845 -3.4784 0
M  V30 442 H 36.8017 -5.1415 -1.94755 0
M  V30 443 H 38.0267 -6.32382 -2.47528 0
M  V30 444 H 35.9727 -4.97874 -4.2715 0
M  V30 445 H 35.8897 -6.60498 -3.67801 0
M  V30 446 H 37.1577 -6.15756 -4.7798 0
M  V30 447 N 41.3868 0.248026 -1.55636 0
M  V30 448 C 42.3498 1.29044 -1.89421 0
M  V30 449 C 43.3498 1.41134 -0.770581 0
M  V30 450 O 44.5398 1.39854 -1.03858 0
M  V30 451 C 41.6718 2.66831 -2.12165 0
M  V30 452 H 42.8648 1.00305 -2.82629 0
M  V30 453 H 40.4178 0.487265 -1.48511 0
M  V30 454 H 41.1528 3.00711 -1.21422 0
M  V30 455 H 40.9378 2.59438 -2.93997 0
M  V30 456 H 42.4278 3.42103 -2.3949 0
M  V30 457 N 42.8649 1.48995 0.513639 0
M  V30 458 C 44.1129 1.57531 1.26604 0
M  V30 459 C 44.4339 0.258236 1.93283 0
M  V30 460 O 43.7039 -0.721502 1.8213 0
M  V30 461 H 42.2839 0.580387 0.470276 0
M  V30 462 H 44.9459 1.85552 0.596373 0
M  V30 463 H 44.0419 2.36486 2.03669 0
M  V30 464 N 44.343 -0.763751 1.37857 0
M  V30 465 C 45.293 -1.86765 1.30777 0
M  V30 466 C 46.277 -1.59726 0.194015 0
M  V30 467 O 47.469 -1.7172 0.42911 0
M  V30 468 C 44.598 -3.24343 1.12502 0
M  V30 469 C 43.684 -3.57307 2.28456 0
M  V30 470 N 44.075 -3.61398 3.53871 0
M  V30 471 C 42.373 -3.87517 2.20786 0
M  V30 472 C 43.074 -3.91339 4.30382 0
M  V30 473 N 42.05 -4.07649 3.59615 0
M  V30 474 H 45.852 -1.88191 2.25746 0
M  V30 475 H 43.366 -0.9606 1.30944 0
M  V30 476 H 45.363 -4.03327 1.05514 0
M  V30 477 H 44.023 -3.24175 0.184574 0
M  V30 478 H 45.034 -3.43407 3.87675 0
M  V30 479 H 41.711 -3.95125 1.34844 0
M  V30 480 H 43.101 -4.01213 5.3896 0
M  V30 481 N 45.8211 -1.22559 -0.990812 0
M  V30 482 C 47.0701 -1.04553 -1.72486 0
M  V30 483 C 47.3831 0.419349 -1.91052 0
M  V30 484 O 48.5891 0.719121 -2.61803 0
M  V30 485 C 47.0451 -1.82231 -3.10355 0
M  V30 486 C 46.6531 -3.32981 -2.99713 0
M  V30 487 C 48.3971 -1.7268 -3.87791 0
M  V30 488 C 46.3041 -4.03091 -4.32748 0
M  V30 489 H 45.2341 -0.387614 -0.646739 0
M  V30 490 H 47.8851 -1.46429 -1.10593 0
M  V30 491 H 46.2671 -1.33155 -3.72942 0
M  V30 492 H 47.4411 -3.89466 -2.46278 0
M  V30 493 H 45.7561 -3.43231 -2.35758 0
M  V30 494 H 48.3531 -2.22381 -4.86262 0
M  V30 495 H 48.6961 -0.687607 -4.10582 0
M  V30 496 H 49.2291 -2.1931 -3.31885 0
M  V30 497 H 45.9681 -5.07273 -4.15156 0
M  V30 498 H 45.4881 -3.51394 -4.86089 0
M  V30 499 H 47.1671 -4.08804 -5.01486 0
M  V30 500 N 47.2992 1.18797 -1.03562 0
M  V30 501 C 48.2312 2.21731 -0.580337 0
M  V30 502 C 49.2442 1.59051 0.347349 0
M  V30 503 O 50.4332 1.77929 0.142669 0
M  V30 504 C 47.5332 3.38459 0.172805 0
M  V30 505 C 46.7062 4.3072 -0.761496 0
M  V30 506 C 45.7652 5.26174 -0.0525547 0
M  V30 507 O 44.7912 5.65108 -0.681333 0
M  V30 508 N 45.9932 5.67624 1.21586 0
M  V30 509 H 48.7582 2.61417 -1.46565 0
M  V30 510 H 46.3192 1.33531 -0.915476 0
M  V30 511 H 48.3112 3.99335 0.656793 0
M  V30 512 H 46.8812 2.97507 0.959602 0
M  V30 513 H 46.1012 3.67525 -1.42544 0
M  V30 514 H 47.3892 4.89267 -1.39626 0
M  V30 515 H 46.7872 5.38038 1.74732 0
M  V30 516 H 45.3442 6.30721 1.64421 0
M  V30 517 N 48.7773 0.814389 1.34928 0
M  V30 518 C 50.0243 0.398423 1.98542 0
M  V30 519 C 50.3523 -1.03638 1.64589 0
M  V30 520 O 49.6073 -1.73509 0.90516 0
M  V30 521 C 49.9063 0.537781 3.53331 0
M  V30 522 C 49.5723 1.93704 4.07172 0
M  V30 523 C 48.2343 2.31984 4.21589 0
M  V30 524 C 50.5863 2.85213 4.36237 0
M  V30 525 C 47.9143 3.61125 4.62391 0
M  V30 526 C 50.2663 4.13809 4.78482 0
M  V30 527 C 48.9303 4.52077 4.91104 0
M  V30 528 H 48.2003 0.145793 0.726516 0
M  V30 529 H 50.8473 1.03669 1.61012 0
M  V30 530 H 49.1523 -0.183906 3.91368 0
M  V30 531 H 50.8493 0.196588 4.00518 0
M  V30 532 H 47.4393 1.62966 3.96409 0
M  V30 533 H 51.6233 2.56885 4.24645 0
M  V30 534 H 46.8793 3.90612 4.70353 0
M  V30 535 H 51.0533 4.84811 4.99932 0
M  V30 536 H 48.6803 5.52196 5.22478 0
M  V30 537 N 50.2554 -1.46986 0.568584 0
M  V30 538 C 51.5324 -1.95592 -0.0174074 0
M  V30 539 C 51.9124 -1.51124 -1.47393 0
M  V30 540 O 51.2604 -0.755329 -2.15655 0
M  V30 541 C 51.4704 -3.48719 0.139913 0
M  V30 542 C 52.8184 -4.246 0.000426376 0
M  V30 543 O 53.8424 -3.56135 0.0680316 0
M  V30 544 O 52.7014 -5.46302 -0.146988 0
M  V30 545 H 49.7954 -0.82498 -0.0577599 0
M  V30 546 H 52.3414 -1.57335 0.635909 0
M  V30 547 H 51.1134 -3.73927 1.15301 0
M  V30 548 H 50.7364 -3.93771 -0.550491 0
M  V30 549 N 51.7335 -0.305618 -1.54608 0
M  V30 550 C 52.6805 0.568421 -2.23691 0
M  V30 551 C 53.6505 1.12592 -1.22116 0
M  V30 552 O 54.8355 1.16959 -1.50749 0
M  V30 553 C 51.9755 1.7322 -2.98477 0
M  V30 554 C 51.0885 1.20566 -4.14835 0
M  V30 555 C 50.2235 2.33368 -4.77193 0
M  V30 556 C 49.2625 1.7787 -5.85686 0
M  V30 557 N 48.3995 2.84263 -6.4198 0
M  V30 558 H 53.2395 -0.0272867 -2.97988 0
M  V30 559 H 50.7765 -0.0252363 -1.47078 0
M  V30 560 H 52.7345 2.41675 -3.40072 0
M  V30 561 H 51.3645 2.29947 -2.26548 0
M  V30 562 H 50.4165 0.413223 -3.78149 0
M  V30 563 H 51.7285 0.759417 -4.92985 0
M  V30 564 H 50.8825 3.09761 -5.21664 0
M  V30 565 H 49.6215 2.8132 -3.98385 0
M  V30 566 H 48.6265 0.99968 -5.40635 0
M  V30 567 H 49.8515 1.30816 -6.66381 0
M  V30 568 H 47.7975 3.31541 -5.66053 0
M  V30 569 H 47.7145 2.44149 -7.15491 0
M  V30 570 H 48.9825 3.6054 -6.91109 0
M  V30 571 N 53.2116 1.57565 -0.0334293 0
M  V30 572 C 54.4886 1.83282 0.683163 0
M  V30 573 C 54.8686 0.91823 1.90084 0
M  V30 574 O 54.2166 -0.025113 2.28486 0
M  V30 575 C 54.4266 3.32599 1.0573 0
M  V30 576 C 55.7746 3.99179 1.44711 0
M  V30 577 O 56.7986 3.3712 1.15015 0
M  V30 578 O 55.6576 5.08565 2.0006 0
M  V30 579 H 52.7516 0.755869 0.335546 0
M  V30 580 H 55.2976 1.69589 -0.0614402 0
M  V30 581 H 54.0696 3.90834 0.190828 0
M  V30 582 H 53.6926 3.51415 1.85993 0
M  V30 583 N 54.6897 -0.239769 1.55765 0
M  V30 584 C 55.6217 -1.32001 1.87372 0
M  V30 585 C 56.6347 -1.43944 0.760522 0
M  V30 586 O 57.8237 -1.45167 1.0387 0
M  V30 587 C 54.9237 -2.69779 2.05115 0
M  V30 588 C 54.0967 -2.80014 3.36022 0
M  V30 589 C 53.1557 -3.98684 3.4342 0
M  V30 590 O 52.1817 -3.87877 4.16582 0
M  V30 591 N 53.3837 -5.12176 2.73232 0
M  V30 592 H 56.1487 -1.0522 2.80622 0
M  V30 593 H 53.7097 -0.429857 1.56089 0
M  V30 594 H 55.7017 -3.47517 2.07399 0
M  V30 595 H 54.2717 -2.89237 1.18577 0
M  V30 596 H 53.4917 -1.88896 3.45994 0
M  V30 597 H 54.7797 -2.83808 4.22292 0
M  V30 598 H 54.1777 -5.2385 2.13536 0
M  V30 599 H 52.7347 -5.88022 2.81199 0
M  V30 600 N 56.1678 -1.49265 -0.50573 0
M  V30 601 C 57.0998 -1.617 -1.62437 0
M  V30 602 C 58.1128 -0.499924 -1.54934 0
M  V30 603 O 59.3018 -0.771785 -1.60953 0
M  V30 604 C 56.4018 -1.5533 -3.01207 0
M  V30 605 C 55.5748 -2.8249 -3.33943 0
M  V30 606 C 54.6338 -2.69238 -4.52103 0
M  V30 607 O 53.6598 -3.43167 -4.5412 0
M  V30 608 N 54.8618 -1.80468 -5.51735 0
M  V30 609 H 57.6268 -2.58177 -1.52199 0
M  V30 610 H 55.1878 -1.46294 -0.693511 0
M  V30 611 H 57.1798 -1.44125 -3.78167 0
M  V30 612 H 55.7498 -0.667297 -3.05395 0
M  V30 613 H 54.9698 -3.08081 -2.45926 0
M  V30 614 H 56.2578 -3.66802 -3.5261 0
M  V30 615 H 55.6558 -1.19653 -5.52901 0
M  V30 616 H 54.2128 -1.75188 -6.27816 0
M  V30 617 N 57.6459 0.756429 -1.3826 0
M  V30 618 C 58.6089 1.85176 -1.35065 0
M  V30 619 C 59.6089 1.58818 -0.251703 0
M  V30 620 O 60.7989 1.66615 -0.508433 0
M  V30 621 C 57.9309 3.22596 -1.10201 0
M  V30 622 H 59.1239 1.89417 -2.3251 0
M  V30 623 H 56.6769 0.95783 -1.23512 0
M  V30 624 H 57.4119 3.24025 -0.133504 0
M  V30 625 H 57.1969 3.43122 -1.89762 0
M  V30 626 H 58.6869 4.02673 -1.10654 0
M  V30 627 N 59.124 1.23083 0.984299 0
M  V30 628 C 60.373 1.05466 1.71929 0
M  V30 629 C 60.686 -0.409211 1.91272 0
M  V30 630 O 61.892 -0.705226 2.62181 0
M  V30 631 C 60.348 1.83874 3.09384 0
M  V30 632 C 59.956 3.34566 2.97943 0
M  V30 633 C 61.7 1.74734 3.8687 0
M  V30 634 C 59.607 4.05381 4.30605 0
M  V30 635 H 58.537 0.391039 0.644674 0
M  V30 636 H 61.188 1.47013 1.09815 0
M  V30 637 H 59.57 1.35131 3.72231 0
M  V30 638 H 60.744 3.90767 2.44209 0
M  V30 639 H 59.059 3.44476 2.33934 0
M  V30 640 H 61.656 2.24957 4.85076 0
M  V30 641 H 61.999 0.709372 4.10212 0
M  V30 642 H 62.532 2.21067 3.30717 0
M  V30 643 H 59.271 5.09467 4.1246 0
M  V30 644 H 58.791 3.53967 4.84218 0
M  V30 645 H 60.47 4.11458 4.99311 0
M  V30 646 N 60.6021 -1.18246 1.0419 0
M  V30 647 C 61.8791 -1.84121 0.660208 0
M  V30 648 C 62.2591 -1.92778 -0.860221 0
M  V30 649 O 61.6071 -1.45464 -1.76217 0
M  V30 650 C 61.8171 -3.22355 1.33747 0
M  V30 651 C 63.1651 -3.98376 1.46906 0
M  V30 652 O 64.1891 -3.31799 1.29568 0
M  V30 653 O 63.0481 -5.17665 1.75171 0
M  V30 654 H 60.1421 -0.794036 0.231161 0
M  V30 655 H 62.6881 -1.25628 1.14087 0
M  V30 656 H 61.4601 -3.10964 2.37522 0
M  V30 657 H 61.0831 -3.88506 0.845515 0
M  V30 658 N 62.0802 -0.821533 -1.34494 0
M  V30 659 C 63.0432 -0.247847 -2.27856 0
M  V30 660 C 64.0432 0.573453 -1.50227 0
M  V30 661 O 65.2332 0.389759 -1.69784 0
M  V30 662 C 62.3652 0.652698 -3.34593 0
M  V30 663 H 63.5582 -1.07146 -2.80107 0
M  V30 664 H 61.1112 -0.593291 -1.44602 0
M  V30 665 H 61.8462 1.49943 -2.87555 0
M  V30 666 H 61.6312 0.065292 -3.92046 0
M  V30 667 H 63.1212 1.04793 -4.04238 0
M  V30 668 N 63.5583 1.46682 -0.576371 0
M  V30 669 C 64.8053 2.02412 -0.0595339 0
M  V30 670 C 65.1333 1.44859 1.29793 0
M  V30 671 O 64.3883 0.601099 1.8624 0
M  V30 672 C 64.6873 3.57345 0.062886 0
M  V30 673 C 64.3533 4.33908 -1.22616 0
M  V30 674 C 63.0153 4.54544 -1.57933 0
M  V30 675 C 65.3673 4.77919 -2.07948 0
M  V30 676 C 62.6953 5.16444 -2.78393 0
M  V30 677 C 65.0473 5.41149 -3.27629 0
M  V30 678 C 63.7113 5.60014 -3.63236 0
M  V30 679 H 62.9813 0.74068 -0.021785 0
M  V30 680 H 65.6283 1.76128 -0.751735 0
M  V30 681 H 63.9333 3.82729 0.838178 0
M  V30 682 H 65.6303 3.98136 0.478439 0
M  V30 683 H 62.2203 4.18138 -0.941202 0
M  V30 684 H 66.4043 4.61738 -1.81967 0
M  V30 685 H 61.6603 5.29242 -3.06126 0
M  V30 686 H 65.8343 5.74211 -3.94023 0
M  V30 687 H 63.4613 6.07748 -4.56669 0
M  V30 688 N 65.0364 0.313813 1.54444 0
M  V30 689 C 66.2834 -0.291675 2.00388 0
M  V30 690 C 66.6114 -1.52904 1.2021 0
M  V30 691 O 65.8664 -1.93833 0.269707 0
M  V30 692 C 66.1654 -0.680386 3.50864 0
M  V30 693 C 65.8314 0.456699 4.48581 0
M  V30 694 C 64.4934 0.768824 4.75018 0
M  V30 695 C 66.8454 1.22098 5.06697 0
M  V30 696 C 64.1734 1.84812 5.56831 0
M  V30 697 C 66.5254 2.29029 5.89685 0
M  V30 698 C 65.1894 2.60834 6.14428 0
M  V30 699 H 64.4594 -0.106732 0.733273 0
M  V30 700 H 67.1064 0.43557 1.86481 0
M  V30 701 H 65.4114 -1.48791 3.62448 0
M  V30 702 H 67.1084 -1.16026 3.83847 0
M  V30 703 H 63.6984 0.203337 4.28117 0
M  V30 704 H 67.8824 0.993096 4.86263 0
M  V30 705 H 63.1384 2.09912 5.74236 0
M  V30 706 H 67.3124 2.887 6.33739 0
M  V30 707 H 64.9394 3.44596 6.77612 0
M  V30 708 N 66.5145 -1.57545 0.0417849 0
M  V30 709 C 67.4775 -2.09885 -0.92093 0
M  V30 710 C 68.4775 -1.01648 -1.24596 0
M  V30 711 O 69.6675 -1.27759 -1.1842 0
M  V30 712 C 66.7995 -2.57527 -2.23367 0
M  V30 713 H 67.9925 -2.96236 -0.467382 0
M  V30 714 H 65.5455 -1.5493 -0.206467 0
M  V30 715 H 66.2805 -1.74542 -2.73323 0
M  V30 716 H 66.0655 -3.36613 -2.01083 0
M  V30 717 H 67.5555 -2.98201 -2.92346 0
M  V30 718 N 67.9926 0.231505 -1.5589 0
M  V30 719 C 69.2206 0.974505 -1.82513 0
M  V30 720 C 69.6356 1.78344 -0.619591 0
M  V30 721 O 68.9926 1.77792 0.411848 0
M  V30 722 C 69.0436 1.90007 -3.07538 0
M  V30 723 O 68.7646 1.12385 -4.2344 0
M  V30 724 C 70.2656 2.75779 -3.47075 0
M  V30 725 H 67.4856 0.286065 -0.606966 0
M  V30 726 H 70.0296 0.249739 -2.02969 0
M  V30 727 H 68.1846 2.57891 -2.89086 0
M  V30 728 H 68.5986 1.75125 -4.944 0
M  V30 729 H 70.0726 3.36443 -4.37619 0
M  V30 730 H 70.5496 3.47672 -2.68367 0
M  V30 731 H 71.1556 2.13323 -3.67931 0
M  V30 732 N 69.4707 1.49531 0.497807 0
M  V30 733 C 70.4207 1.62829 1.59596 0
M  V30 734 C 71.4047 0.483824 1.53453 0
M  V30 735 O 72.5967 0.736937 1.60929 0
M  V30 736 C 69.7257 1.7011 2.98191 0
M  V30 737 C 68.8117 2.90144 3.09317 0
M  V30 738 N 69.2027 4.1418 2.90324 0
M  V30 739 C 67.5007 2.88148 3.40422 0
M  V30 740 C 68.2017 4.94886 3.05717 0
M  V30 741 N 67.1777 4.28314 3.34736 0
M  V30 742 H 70.9797 2.56446 1.4357 0
M  V30 743 H 68.4937 1.46347 0.704001 0
M  V30 744 H 70.4907 1.77735 3.77115 0
M  V30 745 H 69.1507 0.776315 3.15283 0
M  V30 746 H 70.1617 4.44109 2.66436 0
M  V30 747 H 66.8387 2.05061 3.63671 0
M  V30 748 H 68.2287 6.03432 2.95499 0
M  V30 749 N 70.9488 -0.749086 1.3866 0
M  V30 750 C 72.1948 -1.51056 1.35314 0
M  V30 751 C 72.5278 -1.94121 -0.0553751 0
M  V30 752 O 71.8028 -1.65763 -1.01749 0
M  V30 753 C 72.0858 -2.76003 2.31288 0
M  V30 754 C 71.9388 -2.39047 3.8102 0
M  V30 755 C 73.2578 -3.78046 2.2532 0
M  V30 756 H 70.3768 -0.547972 0.492844 0
M  V30 757 H 73.0188 -0.857628 1.69543 0
M  V30 758 H 71.1688 -3.31716 2.02229 0
M  V30 759 H 72.8408 -1.89074 4.20771 0
M  V30 760 H 71.0838 -1.71449 3.98482 0
M  V30 761 H 71.7548 -3.28462 4.4364 0
M  V30 762 H 74.2308 -3.31884 2.50983 0
M  V30 763 H 73.1068 -4.63159 2.94576 0
M  V30 764 H 73.3678 -4.23957 1.25352 0
M  V30 765 N 72.4269 -1.23603 -0.977757 0
M  V30 766 C 73.8429 -0.999251 -1.24447 0
M  V30 767 C 74.0429 0.298053 -1.99283 0
M  V30 768 O 73.0989 1.01681 -2.31122 0
M  V30 769 C 74.4119 -2.20784 -2.04144 0
M  V30 770 C 75.9599 -2.25303 -2.17273 0
M  V30 771 C 76.4349 -3.45755 -3.00362 0
M  V30 772 N 77.9259 -3.4601 -3.07947 0
M  V30 773 C 78.6609 -4.35868 -3.72568 0
M  V30 774 N 78.1569 -5.35966 -4.38991 0
M  V30 775 N 79.9499 -4.23605 -3.6948 0
M  V30 776 H 72.1009 -2.06986 -0.476483 0
M  V30 777 H 74.3639 -0.907801 -0.273134 0
M  V30 778 H 74.0699 -3.14945 -1.56533 0
M  V30 779 H 73.9439 -2.22085 -3.04891 0
M  V30 780 H 76.3309 -1.3168 -2.64092 0
M  V30 781 H 76.4119 -2.28033 -1.15907 0
M  V30 782 H 76.0559 -4.39687 -2.5424 0
M  V30 783 H 75.9859 -3.40266 -4.01904 0
M  V30 784 H 78.4769 -2.73588 -2.60688 0
M  V30 785 H 78.7899 -6.00783 -4.86086 0
M  V30 786 H 77.1349 -5.39863 -4.37691 0
M  V30 787 H 80.3259 -3.44647 -3.16759 0
M  V30 788 H 80.4989 -4.93836 -4.1956 0
M  V30 789 N 73.905 1.17692 -1.04816 0
M  V30 790 C 75.316 1.69501 -0.782698 0
M  V30 791 C 75.667 1.83456 0.695577 0
M  V30 792 O 74.792 1.51942 1.54086 0
M  V30 793 C 75.387 3.07874 -1.41419 0
M  V30 794 C 73.946 3.56864 -1.19686 0
M  V30 795 C 73.093 2.3322 -1.50012 0
M  V30 796 H 76.044 1.02262 -1.2136 0
M  V30 797 H 76.065 3.71528 -0.821428 0
M  V30 798 H 75.577 2.97685 -2.49009 0
M  V30 799 H 73.678 3.72337 -0.140043 0
M  V30 800 H 73.791 4.39851 -1.89916 0
M  V30 801 H 72.155 2.37501 -0.920071 0
M  V30 802 H 72.938 2.25644 -2.58727 0
M  V30 803 N 75.3831 0.828654 1.34056 0
M  V30 804 C 76.3331 0.226828 2.26869 0
M  V30 805 C 77.3171 -0.612243 1.48796 0
M  V30 806 O 78.5091 -0.465884 1.70759 0
M  V30 807 C 75.6381 -0.605654 3.37915 0
M  V30 808 C 74.7241 0.244361 4.23395 0
M  V30 809 N 75.1151 1.31815 4.88322 0
M  V30 810 C 73.4131 0.0296616 4.4599 0
M  V30 811 C 74.1141 1.83895 5.51867 0
M  V30 812 N 73.0901 1.14196 5.3147 0
M  V30 813 H 76.8921 1.04811 2.74576 0
M  V30 814 H 74.4061 0.67205 1.47842 0
M  V30 815 H 76.4031 -1.05302 4.03382 0
M  V30 816 H 75.0631 -1.42504 2.91758 0
M  V30 817 H 76.0741 1.70099 4.8917 0
M  V30 818 H 72.7511 -0.757097 4.10578 0
M  V30 819 H 74.1411 2.7376 6.136 0
M  V30 820 N 76.8612 -1.46375 0.584142 0
M  V30 821 C 78.0862 -2.07268 0.0740405 0
M  V30 822 C 78.5112 -1.42979 -1.22223 0
M  V30 823 O 77.8692 -0.514092 -1.73859 0
M  V30 824 C 77.9172 -3.60518 -0.0767769 0
M  V30 825 O 77.0212 -3.96533 -1.13292 0
M  V30 826 H 76.3622 -0.660961 0.0634524 0
M  V30 827 H 78.8922 -1.87991 0.807492 0
M  V30 828 H 78.9022 -4.07021 -0.282489 0
M  V30 829 H 77.5772 -4.06702 0.86986 0
M  V30 830 H 76.1542 -3.61738 -0.905553 0
M  V30 831 N 78.3393 -0.321999 -1.54275 0
M  V30 832 C 79.5853 0.281461 -2.00837 0
M  V30 833 C 79.9183 1.51909 -1.20985 0
M  V30 834 O 79.1933 1.923 -0.291733 0
M  V30 835 C 79.4763 0.617162 -3.54772 0
M  V30 836 C 79.3293 -0.631064 -4.45351 0
M  V30 837 C 80.6483 1.43542 -4.16033 0
M  V30 838 H 77.7673 0.100826 -0.730071 0
M  V30 839 H 80.4093 -0.438268 -1.84876 0
M  V30 840 H 78.5593 1.23034 -3.68504 0
M  V30 841 H 80.2313 -1.26934 -4.43492 0
M  V30 842 H 78.4743 -1.26025 -4.15091 0
M  V30 843 H 79.1453 -0.351735 -5.50878 0
M  V30 844 H 81.6213 0.917134 -4.05867 0
M  V30 845 H 80.4973 1.63907 -5.23856 0
M  V30 846 H 80.7583 2.43108 -3.69257 0
M  V30 847 N 79.8174 1.5752 -0.0501392 0
M  V30 848 C 81.0454 1.96963 0.633492 0
M  V30 849 C 81.4604 0.927631 1.6444 0
M  V30 850 O 80.8174 -0.0882665 1.82286 0
M  V30 851 C 80.8684 3.36487 1.32132 0
M  V30 852 O 80.5894 4.36693 0.350894 0
M  V30 853 C 82.0904 3.90682 2.09481 0
M  V30 854 H 79.3104 0.648244 0.173266 0
M  V30 855 H 81.8544 2.0417 -0.116134 0
M  V30 856 H 80.0094 3.30434 2.02218 0
M  V30 857 H 80.4234 5.17702 0.841735 0
M  V30 858 H 81.8974 4.90591 2.5303 0
M  V30 859 H 82.3744 3.26053 2.94255 0
M  V30 860 H 82.9804 4.00069 1.44307 0
M  V30 861 N 81.2955 -0.223234 1.56011 0
M  V30 862 C 82.5425 -0.947875 1.78946 0
M  V30 863 C 82.8705 -1.844 0.618608 0
M  V30 864 O 82.1255 -1.91629 -0.397093 0
M  V30 865 C 82.4245 -1.81948 3.0762 0
M  V30 866 C 82.0905 -1.07672 4.37856 0
M  V30 867 C 80.7525 -0.871544 4.73242 0
M  V30 868 C 83.1045 -0.552081 5.18268 0
M  V30 869 C 80.4325 -0.129791 5.86556 0
M  V30 870 C 82.7845 0.17632 6.32354 0
M  V30 871 C 81.4485 0.39277 6.66343 0
M  V30 872 H 80.7185 -0.346852 0.654809 0
M  V30 873 H 83.3655 -0.216171 1.90276 0
M  V30 874 H 81.6705 -2.61899 2.91404 0
M  V30 875 H 83.3675 -2.38227 3.22566 0
M  V30 876 H 79.9575 -1.24662 4.1007 0
M  V30 877 H 84.1415 -0.698076 4.91366 0
M  V30 878 H 79.3975 0.048153 6.11381 0
M  V30 879 H 83.5715 0.590367 6.93893 0
M  V30 880 H 81.1985 0.969466 7.53993 0
M  V30 881 N 82.7736 -1.49793 -0.48987 0
M  V30 882 C 83.7366 -1.66752 -1.57246 0
M  V30 883 C 84.7366 -0.538867 -1.51502 0
M  V30 884 O 85.9266 -0.805545 -1.54456 0
M  V30 885 C 83.0586 -1.67528 -2.96896 0
M  V30 886 H 84.2516 -2.63321 -1.43534 0
M  V30 887 H 81.8046 -1.38992 -0.714914 0
M  V30 888 H 82.5396 -0.725837 -3.16073 0
M  V30 889 H 82.3246 -2.49504 -3.02473 0
M  V30 890 H 83.8146 -1.82667 -3.7553 0
M  V30 891 N 84.2517 0.741722 -1.39055 0
M  V30 892 C 85.4767 1.53607 -1.39354 0
M  V30 893 C 85.9017 1.88096 0.0116905 0
M  V30 894 O 85.2597 1.5143 0.996924 0
M  V30 895 C 85.3077 2.80441 -2.26682 0
M  V30 896 O 84.4117 3.76088 -1.69208 0
M  V30 897 H 83.7527 0.464142 -0.474835 0
M  V30 898 H 86.2827 0.915665 -1.82967 0
M  V30 899 H 86.2927 3.29246 -2.40959 0
M  V30 900 H 84.9677 2.5467 -3.2881 0
M  V30 901 H 83.5447 3.34833 -1.64138 0
M  V30 902 N 85.7298 1.2412 0.971189 0
M  V30 903 C 86.6618 0.988349 2.06795 0
M  V30 904 C 87.6748 -0.0409541 1.62748 0
M  V30 905 O 88.8638 0.195673 1.77424 0
M  V30 906 C 85.9638 0.469023 3.35639 0
M  V30 907 C 85.1368 1.56065 4.08611 0
M  V30 908 C 84.1958 1.04458 5.15728 0
M  V30 909 O 83.2218 1.73553 5.42096 0
M  V30 910 N 84.4238 -0.122817 5.8037 0
M  V30 911 H 87.1888 1.93265 2.29061 0
M  V30 912 H 84.7498 1.15102 1.13856 0
M  V30 913 H 86.7418 0.108613 4.04554 0
M  V30 914 H 85.3118 -0.380919 3.1027 0
M  V30 915 H 84.5318 2.09341 3.34021 0
M  V30 916 H 85.8198 2.29449 4.54126 0
M  V30 917 H 85.2178 -0.700563 5.61345 0
M  V30 918 H 83.7748 -0.424404 6.50417 0
M  V30 919 N 87.2079 -1.17134 1.05439 0
M  V30 920 C 88.1579 -2.1919 0.627675 0
M  V30 921 C 89.1419 -1.57328 -0.337147 0
M  V30 922 O 90.3339 -1.76329 -0.153976 0
M  V30 923 C 87.4629 -3.43299 0.00651435 0
M  V30 924 C 86.5489 -4.12255 0.995312 0
M  V30 925 N 86.9399 -4.56997 2.16765 0
M  V30 926 C 85.2379 -4.38316 0.824336 0
M  V30 927 C 85.9389 -5.10239 2.7934 0
M  V30 928 N 84.9149 -5.02595 2.07122 0
M  V30 929 H 88.7169 -2.5149 1.52086 0
M  V30 930 H 86.2309 -1.33491 0.924868 0
M  V30 931 H 88.2279 -4.15693 -0.316965 0
M  V30 932 H 86.8879 -3.1249 -0.882033 0
M  V30 933 H 87.8989 -4.51006 2.54587 0
M  V30 934 H 84.5759 -4.17498 -0.0129526 0
M  V30 935 H 85.9659 -5.54961 3.78772 0
M  V30 936 N 88.686 -0.835752 -1.33615 0
M  V30 937 C 89.596 -0.269088 -2.33052 0
M  V30 938 C 90.612 0.603251 -1.63208 0
M  V30 939 O 91.788 0.508112 -1.94885 0
M  V30 940 C 88.853 0.549091 -3.42324 0
M  V30 941 C 87.914 -0.347156 -4.27894 0
M  V30 942 C 87.147 0.43207 -5.31948 0
M  V30 943 O 87.37 1.66409 -5.45586 0
M  V30 944 O 86.304 -0.192298 -6.01593 0
M  V30 945 H 90.13 -1.09243 -2.83372 0
M  V30 946 H 87.715 -0.598198 -1.36901 0
M  V30 947 H 89.597 1.01414 -4.09015 0
M  V30 948 H 88.272 1.34955 -2.94226 0
M  V30 949 H 87.179 -0.859979 -3.64081 0
M  V30 950 H 88.512 -1.1123 -4.79467 0
M  V30 951 N 90.1641 1.46063 -0.591896 0
M  V30 952 C 91.5801 1.57561 -0.254288 0
M  V30 953 C 91.7801 1.58565 1.24336 0
M  V30 954 O 90.8361 1.50753 2.02558 0
M  V30 955 C 92.1491 2.86549 -0.911611 0
M  V30 956 C 93.6971 3.00197 -0.886059 0
M  V30 957 C 94.1721 4.31933 -1.5231 0
M  V30 958 N 95.6631 4.38654 -1.48786 0
M  V30 959 C 96.3981 5.39222 -1.95006 0
M  V30 960 N 95.8941 6.46414 -2.49241 0
M  V30 961 N 97.6871 5.3048 -1.85868 0
M  V30 962 H 89.8381 1.43655 -1.56451 0
M  V30 963 H 92.1011 0.68583 -0.654478 0
M  V30 964 H 91.8071 2.91651 -1.96551 0
M  V30 965 H 91.6811 3.74794 -0.425368 0
M  V30 966 H 94.0681 2.9467 0.159246 0
M  V30 967 H 94.1491 2.13403 -1.41041 0
M  V30 968 H 93.7931 4.38217 -2.56765 0
M  V30 969 H 93.7231 5.17516 -0.973891 0
M  V30 970 H 96.2141 3.61793 -1.09151 0
M  V30 971 H 96.5271 7.19376 -2.82344 0
M  V30 972 H 94.8721 6.47208 -2.53272 0
M  V30 973 H 98.0631 4.45643 -1.43248 0
M  V30 974 H 98.2361 6.08711 -2.22204 0
M  V30 975 N 91.6422 0.330177 1.54103 0
M  V30 976 C 92.5722 -0.525353 2.27513 0
M  V30 977 C 93.5532 -1.11383 1.2856 0
M  V30 978 O 94.7382 -1.13773 1.57383 0
M  V30 979 C 91.8682 -1.6831 3.03791 0
M  V30 980 C 90.8222 -1.2236 4.10137 0
M  V30 981 C 90.1482 -2.46882 4.74293 0
M  V30 982 C 91.4482 -0.333697 5.21233 0
M  V30 983 H 93.1422 0.087013 2.99274 0
M  V30 984 H 90.6882 0.0432893 1.43935 0
M  V30 985 H 92.6412 -2.28795 3.5388 0
M  V30 986 H 91.3652 -2.32216 2.29659 0
M  V30 987 H 90.0242 -0.64165 3.60941 0
M  V30 988 H 89.6722 -3.09165 3.96769 0
M  V30 989 H 89.3722 -2.16825 5.46133 0
M  V30 990 H 90.8962 -3.08117 5.27159 0
M  V30 991 H 92.3102 -0.845013 5.67038 0
M  V30 992 H 90.7072 -0.125612 5.99969 0
M  V30 993 H 91.7772 0.633724 4.80741 0
M  V30 994 N 93.1203 -1.57491 0.0584922 0
M  V30 995 C 94.3683 -1.92597 -0.612436 0
M  V30 996 C 94.6893 -0.938162 -1.70949 0
M  V30 997 O 93.9593 0.0158301 -1.95894 0
M  V30 998 H 92.5393 -0.710964 -0.229214 0
M  V30 999 H 95.2013 -1.94571 0.113218 0
M  V30 1000 H 94.2973 -2.94038 -1.04633 0
M  V30 1001 N 94.5984 0.214957 -1.56127 0
M  V30 1002 C 95.8264 0.955092 -1.83536 0
M  V30 1003 C 96.2414 1.77677 -0.638472 0
M  V30 1004 O 95.5984 1.78219 0.392968 0
M  V30 1005 C 95.6494 1.86734 -3.09536 0
M  V30 1006 O 95.3704 1.07887 -4.24608 0
M  V30 1007 C 96.8714 2.72082 -3.4998 0
M  V30 1008 H 94.0914 0.279611 -0.609966 0
M  V30 1009 H 96.6354 0.228197 -2.03223 0
M  V30 1010 H 94.7904 2.5481 -2.91806 0
M  V30 1011 H 95.2044 1.69872 -4.9623 0
M  V30 1012 H 96.6784 3.31782 -4.41163 0
M  V30 1013 H 97.1554 3.44806 -2.7204 0
M  V30 1014 H 97.7614 2.09409 -3.70173 0
M  V30 1015 N 96.0765 1.50051 0.48192 0
M  V30 1016 C 97.0065 1.71046 1.58951 0
M  V30 1017 C 97.9875 0.559288 1.60642 0
M  V30 1018 O 99.1725 0.797243 1.77081 0
M  V30 1019 C 96.3025 1.79462 2.97339 0
M  V30 1020 C 95.2565 2.94558 3.10515 0
M  V30 1021 C 94.5825 2.88105 4.50444 0
M  V30 1022 C 95.8825 4.35227 2.88747 0
M  V30 1023 H 97.5765 2.6378 1.41635 0
M  V30 1024 H 95.1225 1.26936 0.679942 0
M  V30 1025 H 97.0755 1.92734 3.74742 0
M  V30 1026 H 95.7995 0.833412 3.15788 0
M  V30 1027 H 94.4585 2.80918 2.35543 0
M  V30 1028 H 94.1065 1.89853 4.65795 0
M  V30 1029 H 93.8065 3.65366 4.60197 0
M  V30 1030 H 95.3305 3.03412 5.29881 0
M  V30 1031 H 96.7445 4.49449 3.55905 0
M  V30 1032 H 95.1415 5.13856 3.09955 0
M  V30 1033 H 96.2115 4.48347 1.84696 0
M  V30 1034 N 97.5546 -0.734337 1.39446 0
M  V30 1035 C 98.8006 -1.49613 1.36908 0
M  V30 1036 C 99.1336 -1.94169 -0.0347829 0
M  V30 1037 O 98.4086 -1.66833 -0.999847 0
M  V30 1038 C 98.6916 -2.73534 2.34203 0
M  V30 1039 C 98.5446 -2.34993 3.83534 0
M  V30 1040 C 99.8636 -3.75635 2.29317 0
M  V30 1041 H 96.9826 -0.542714 0.498629 0
M  V30 1042 H 99.6246 -0.839597 1.70443 0
M  V30 1043 H 97.7746 -3.29553 2.05736 0
M  V30 1044 H 99.4466 -1.84601 4.22753 0
M  V30 1045 H 97.6896 -1.67213 4.00278 0
M  V30 1046 H 98.3606 -3.23738 4.47099 0
M  V30 1047 H 100.837 -3.29203 2.54489 0
M  V30 1048 H 99.7126 -4.60008 2.99472 0
M  V30 1049 H 99.9736 -4.22603 1.29842 0
M  V30 1050 N 99.0327 -1.24633 -0.964593 0
M  V30 1051 C 100.449 -1.01239 -1.2338 0
M  V30 1052 C 100.649 0.2769 -1.99588 0
M  V30 1053 O 99.7047 0.992241 -2.32187 0
M  V30 1054 C 101.018 -2.22937 -2.01791 0
M  V30 1055 C 102.566 -2.27594 -2.14872 0
M  V30 1056 C 103.041 -3.48921 -2.96678 0
M  V30 1057 N 104.532 -3.49257 -3.04259 0
M  V30 1058 C 105.267 -4.39795 -3.67924 0
M  V30 1059 N 104.763 -5.40591 -4.33281 0
M  V30 1060 N 106.556 -4.275 -3.64966 0
M  V30 1061 H 98.7067 -2.0748 -0.454502 0
M  V30 1062 H 100.97 -0.910647 -0.26349 0
M  V30 1063 H 100.676 -3.16587 -1.53184 0
M  V30 1064 H 100.55 -2.25306 -3.02518 0
M  V30 1065 H 102.937 -1.34473 -2.6268 0
M  V30 1066 H 103.018 -2.2925 -1.13482 0
M  V30 1067 H 102.662 -4.42359 -2.49562 0
M  V30 1068 H 102.592 -3.4451 -3.98272 0
M  V30 1069 H 105.083 -2.76337 -2.57771 0
M  V30 1070 H 105.396 -6.05904 -4.79687 0
M  V30 1071 H 103.741 -5.44475 -4.3194 0
M  V30 1072 H 106.932 -3.47987 -3.13086 0
M  V30 1073 H 107.105 -4.98258 -4.14298 0
M  V30 1074 N 100.511 1.16574 -1.06058 0
M  V30 1075 C 101.421 2.2452 -0.680282 0
M  V30 1076 C 102.437 1.71348 0.302604 0
M  V30 1077 O 103.613 2.00822 0.152513 0
M  V30 1078 C 100.678 3.46629 -0.0700315 0
M  V30 1079 C 99.7388 4.14849 -1.10448 0
M  V30 1080 C 98.9718 5.31129 -0.523256 0
M  V30 1081 O 99.1948 5.66514 0.664709 0
M  V30 1082 O 98.1288 5.88526 -1.26179 0
M  V30 1083 H 101.955 2.59355 -1.58015 0
M  V30 1084 H 99.5398 1.24043 -0.832694 0
M  V30 1085 H 101.422 4.20543 0.268667 0
M  V30 1086 H 100.097 3.13573 0.803353 0
M  V30 1087 H 99.0038 3.42916 -1.49532 0
M  V30 1088 H 100.337 4.51954 -1.94931 0
M  V30 1089 N 101.989 0.842826 1.3317 0
M  V30 1090 C 103.237 0.439577 1.97262 0
M  V30 1091 C 103.558 -1.00548 1.67078 0
M  V30 1092 O 102.828 -1.70098 0.971779 0
M  V30 1093 H 101.408 0.159558 0.72976 0
M  V30 1094 H 104.07 1.07665 1.62463 0
M  V30 1095 H 103.166 0.574886 3.0676 0
M  V30 1096 N 103.467 -1.45747 0.599634 0
M  V30 1097 C 104.697 -2.06369 0.0977132 0
M  V30 1098 C 105.105 -1.44624 -1.21985 0
M  V30 1099 O 104.448 -0.551831 -1.75216 0
M  V30 1100 C 104.51 -3.59284 -0.124673 0
M  V30 1101 C 104.174 -4.43318 1.10987 0
M  V30 1102 C 105.171 -4.78796 2.02609 0
M  V30 1103 C 102.856 -4.84194 1.33647 0
M  V30 1104 C 104.85 -5.53997 3.15224 0
M  V30 1105 C 102.537 -5.5915 2.46565 0
M  V30 1106 C 103.535 -5.93968 3.37182 0
M  V30 1107 O 103.223 -6.67405 4.48136 0
M  V30 1108 H 102.955 -0.673122 0.0623153 0
M  V30 1109 H 105.509 -1.88104 0.824981 0
M  V30 1110 H 103.739 -3.75919 -0.906745 0
M  V30 1111 H 105.428 -4.01775 -0.577201 0
M  V30 1112 H 106.194 -4.47781 1.86325 0
M  V30 1113 H 102.073 -4.56534 0.64016 0
M  V30 1114 H 105.617 -5.81091 3.85978 0
M  V30 1115 H 101.514 -5.89579 2.62805 0
M  V30 1116 H 102.282 -6.85847 4.46717 0
M  V30 1117 N 104.945 -0.338344 -1.53925 0
M  V30 1118 C 106.175 0.260919 -2.04946 0
M  V30 1119 C 106.583 1.45174 -1.2133 0
M  V30 1120 O 105.926 1.82122 -0.240262 0
M  V30 1121 C 105.988 0.744596 -3.51704 0
M  V30 1122 C 105.652 -0.325883 -4.55837 0
M  V30 1123 C 106.649 -1.16687 -5.06636 0
M  V30 1124 C 104.334 -0.478317 -5.00017 0
M  V30 1125 C 106.328 -2.14588 -6.00192 0
M  V30 1126 C 104.015 -1.46073 -5.93385 0
M  V30 1127 C 105.013 -2.29297 -6.4336 0
M  V30 1128 O 104.701 -3.25867 -7.34892 0
M  V30 1129 H 104.433 0.0551207 -0.673749 0
M  V30 1130 H 106.987 -0.486984 -1.99544 0
M  V30 1131 H 105.217 1.54366 -3.54553 0
M  V30 1132 H 106.906 1.26383 -3.85723 0
M  V30 1133 H 107.672 -1.06016 -4.73271 0
M  V30 1134 H 103.551 0.159613 -4.60724 0
M  V30 1135 H 107.095 -2.79585 -6.39123 0
M  V30 1136 H 102.992 -1.56802 -6.26166 0
M  V30 1137 H 103.76 -3.21278 -7.5281 0
M  V30 1138 N 106.423 1.57458 -0.0668435 0
M  V30 1139 C 107.7 1.8469 0.644132 0
M  V30 1140 C 108.08 0.958343 1.88093 0
M  V30 1141 O 107.428 0.0233579 2.28488 0
M  V30 1142 C 107.638 3.34767 0.986509 0
M  V30 1143 C 108.986 4.02159 1.36212 0
M  V30 1144 O 110.01 3.39484 1.07839 0
M  V30 1145 O 108.869 5.12694 1.89227 0
M  V30 1146 H 105.963 0.762816 0.319437 0
M  V30 1147 H 108.509 1.6942 -0.0973986 0
M  V30 1148 H 107.281 3.91151 0.107883 0
M  V30 1149 H 106.904 3.55281 1.78497 0
M  V30 1150 N 107.901 -0.206675 1.56239 0
M  V30 1151 C 109.178 -0.954051 1.70755 0
M  V30 1152 C 109.558 -2.01841 0.618353 0
M  V30 1153 O 108.906 -2.25444 -0.372434 0
M  V30 1154 C 109.116 -1.551 3.12642 0
M  V30 1155 C 110.464 -2.03757 3.72516 0
M  V30 1156 O 111.488 -1.64965 3.15698 0
M  V30 1157 O 110.347 -2.75103 4.72208 0
M  V30 1158 H 107.441 -0.446636 0.696021 0
M  V30 1159 H 109.987 -0.197283 1.68549 0
M  V30 1160 H 108.759 -0.783212 3.83382 0
M  V30 1161 H 108.382 -2.37291 3.19028 0
M  V30 1162 N 109.379 -1.50304 -0.473955 0
M  V30 1163 C 110.342 -1.6841 -1.55469 0
M  V30 1164 C 111.342 -0.554905 -1.50922 0
M  V30 1165 O 112.532 -0.821882 -1.53593 0
M  V30 1166 C 109.664 -1.70667 -2.95102 0
M  V30 1167 H 110.857 -2.64828 -1.40733 0
M  V30 1168 H 108.41 -1.39742 -0.700132 0
M  V30 1169 H 109.145 -0.75932 -3.15285 0
M  V30 1170 H 108.93 -2.52698 -2.9981 0
M  V30 1171 H 110.42 -1.8664 -3.73571 0
M  V30 1172 N 110.857 0.726932 -1.39834 0
M  V30 1173 C 112.103 1.48884 -1.377 0
M  V30 1174 C 112.436 1.94185 0.0244852 0
M  V30 1175 O 111.711 1.67361 0.990986 0
M  V30 1176 C 111.994 2.72288 -2.3565 0
M  V30 1177 C 111.847 2.32956 -3.84775 0
M  V30 1178 C 113.166 3.74414 -2.31306 0
M  V30 1179 H 110.285 0.540062 -0.5015 0
M  V30 1180 H 112.927 0.830547 -1.70886 0
M  V30 1181 H 111.077 3.28457 -2.07481 0
M  V30 1182 H 112.749 1.82356 -4.23726 0
M  V30 1183 H 110.992 1.65088 -4.01159 0
M  V30 1184 H 111.663 3.21362 -4.4881 0
M  V30 1185 H 114.139 3.27849 -2.56231 0
M  V30 1186 H 113.015 4.58414 -3.01907 0
M  V30 1187 H 113.276 4.21909 -1.32081 0
M  V30 1188 N 112.336 1.25143 0.95797 0
M  V30 1189 C 113.266 1.07711 2.07173 0
M  V30 1190 C 114.247 -0.0128462 1.70095 0
M  V30 1191 O 115.432 0.156061 1.93572 0
M  V30 1192 C 112.562 0.691503 3.40346 0
M  V30 1193 C 111.516 1.73132 3.9142 0
M  V30 1194 C 110.842 1.20049 5.21049 0
M  V30 1195 C 112.142 3.1294 4.1817 0
M  V30 1196 H 113.836 2.00873 2.22014 0
M  V30 1197 H 111.382 0.967191 1.06684 0
M  V30 1198 H 113.335 0.556505 4.17709 0
M  V30 1199 H 112.059 -0.275819 3.25433 0
M  V30 1200 H 110.718 1.8547 3.16222 0
M  V30 1201 H 110.366 0.223499 5.02503 0
M  V30 1202 H 110.066 1.89545 5.56189 0
M  V30 1203 H 111.59 1.07782 6.01012 0
M  V30 1204 H 113.004 3.03775 4.86203 0
M  V30 1205 H 111.401 3.79875 4.64559 0
M  V30 1206 H 112.471 3.6025 3.24573 0
M  V30 1207 N 113.814 -1.1601 1.06675 0
M  V30 1208 C 114.777 -2.18724 0.685001 0
M  V30 1209 C 115.777 -1.58496 -0.271246 0
M  V30 1210 O 116.967 -1.74119 -0.0531156 0
M  V30 1211 C 114.099 -3.40899 0.00853648 0
M  V30 1212 H 115.292 -2.54011 1.59431 0
M  V30 1213 H 112.845 -1.30352 0.862441 0
M  V30 1214 H 113.58 -3.11173 -0.913337 0
M  V30 1215 H 113.365 -3.8587 0.696204 0
M  V30 1216 H 114.855 -4.16886 -0.24414 0
M  V30 1217 N 115.292 -0.849877 -1.32721 0
M  V30 1218 C 116.708 -0.539102 -1.50219 0
M  V30 1219 C 116.908 0.931271 -1.78689 0
M  V30 1220 O 115.964 1.71455 -1.85363 0
M  V30 1221 C 117.277 -1.42196 -2.64954 0
M  V30 1222 C 118.825 -1.42189 -2.78839 0
M  V30 1223 C 119.3 -2.28985 -3.96648 0
M  V30 1224 N 120.791 -2.26754 -4.03902 0
M  V30 1225 C 121.526 -2.90644 -4.94281 0
M  V30 1226 N 121.022 -3.63629 -5.897 0
M  V30 1227 N 122.815 -2.80057 -4.87365 0
M  V30 1228 H 114.966 -1.80156 -1.12506 0
M  V30 1229 H 117.229 -0.769217 -0.554085 0
M  V30 1230 H 116.935 -2.46733 -2.50631 0
M  V30 1231 H 116.809 -1.10591 -3.60624 0
M  V30 1232 H 119.196 -0.38419 -2.92588 0
M  V30 1233 H 119.277 -1.77807 -1.83898 0
M  V30 1234 H 118.921 -3.32819 -3.83658 0
M  V30 1235 H 118.851 -1.90702 -4.90857 0
M  V30 1236 H 121.342 -1.73688 -3.3562 0
M  V30 1237 H 121.655 -4.09558 -6.55349 0
M  V30 1238 H 120 -3.67737 -5.89741 0
M  V30 1239 H 123.191 -2.22593 -4.11789 0
M  V30 1240 H 123.364 -3.30132 -5.57599 0
M  V30 1241 N 116.77 1.45427 -0.607355 0
M  V30 1242 C 118 2.06314 -0.108656 0
M  V30 1243 C 118.408 1.45269 1.21217 0
M  V30 1244 O 117.751 0.561115 1.74921 0
M  V30 1245 C 117.813 3.59345 0.105618 0
M  V30 1246 C 117.477 4.42723 -1.13337 0
M  V30 1247 C 118.474 4.77715 -2.05145 0
M  V30 1248 C 116.159 4.83478 -1.36213 0
M  V30 1249 C 118.153 5.52317 -3.18158 0
M  V30 1250 C 115.84 5.57835 -2.49527 0
M  V30 1251 C 116.838 5.92171 -3.40327 0
M  V30 1252 O 116.526 6.65019 -4.51669 0
M  V30 1253 H 116.258 0.672782 -0.0658842 0
M  V30 1254 H 118.812 1.87664 -0.834945 0
M  V30 1255 H 117.042 3.76394 0.886796 0
M  V30 1256 H 118.731 4.02076 0.555886 0
M  V30 1257 H 119.497 4.46787 -1.88697 0
M  V30 1258 H 115.376 4.56188 -0.664362 0
M  V30 1259 H 118.92 5.79036 -3.89054 0
M  V30 1260 H 114.817 5.88177 -2.65928 0
M  V30 1261 H 115.585 6.83469 -4.50348 0
M  V30 1262 N 118.248 0.346503 1.53744 0
M  V30 1263 C 119.525 -0.304532 1.93215 0
M  V30 1264 C 119.905 -1.67993 1.27834 0
M  V30 1265 O 119.253 -2.24411 0.430352 0
M  V30 1266 C 119.463 -0.373852 3.46992 0
M  V30 1267 C 120.811 -0.62329 4.2 0
M  V30 1268 O 121.835 -0.455847 3.53271 0
M  V30 1269 O 120.694 -0.947879 5.38217 0
M  V30 1270 H 117.788 -0.178318 0.807547 0
M  V30 1271 H 120.334 0.397895 1.64969 0
M  V30 1272 H 119.106 0.591224 3.86808 0
M  V30 1273 H 118.729 -1.12294 3.81413 0
M  V30 1274 N 119.726 -1.57421 0.075193 0
M  V30 1275 C 121.142 -1.57099 -0.281444 0
M  V30 1276 C 121.342 -1.08486 -1.69803 0
M  V30 1277 O 120.398 -0.752279 -2.41033 0
M  V30 1278 C 121.711 -3.00571 -0.0880041 0
M  V30 1279 C 123.259 -3.12605 -0.157281 0
M  V30 1280 C 123.734 -4.57999 0.0079207 0
M  V30 1281 N 125.225 -4.63176 -0.0475725 0
M  V30 1282 C 125.96 -5.73373 0.0557876 0
M  V30 1283 N 125.456 -6.92473 0.21286 0
M  V30 1284 N 127.249 -5.621 -0.00152098 0
M  V30 1285 H 119.4 -1.87335 1.00098 0
M  V30 1286 H 121.663 -0.86377 0.390646 0
M  V30 1287 H 121.369 -3.40262 0.889629 0
M  V30 1288 H 121.243 -3.67754 -0.838875 0
M  V30 1289 H 123.63 -2.72798 -1.1254 0
M  V30 1290 H 123.711 -2.48053 0.62475 0
M  V30 1291 H 123.355 -4.98496 0.972824 0
M  V30 1292 H 123.285 -5.20586 -0.793556 0
M  V30 1293 H 125.776 -3.7753 -0.167244 0
M  V30 1294 H 126.089 -7.72279 0.283781 0
M  V30 1295 H 124.434 -6.94556 0.248267 0
M  V30 1296 H 127.625 -4.67938 -0.122958 0
M  V30 1297 H 127.798 -6.47948 0.0824844 0
M  V30 1298 N 121.204 0.198386 -1.56346 0
M  V30 1299 C 122.167 1.22952 -1.93431 0
M  V30 1300 C 123.167 1.38611 -0.815092 0
M  V30 1301 O 124.357 1.36479 -1.08255 0
M  V30 1302 C 121.489 2.59946 -2.20546 0
M  V30 1303 H 122.682 0.912626 -2.85677 0
M  V30 1304 H 120.235 0.43977 -1.49986 0
M  V30 1305 H 120.97 2.96696 -1.30927 0
M  V30 1306 H 120.755 2.49953 -3.02102 0
M  V30 1307 H 122.245 3.3431 -2.50253 0
M  V30 1308 N 122.682 1.50554 0.465978 0
M  V30 1309 C 123.929 1.61798 1.21768 0
M  V30 1310 C 124.257 0.320696 1.91838 0
M  V30 1311 O 123.512 -0.693724 1.82992 0
M  V30 1312 C 123.811 2.75152 2.28093 0
M  V30 1313 C 123.477 4.15454 1.75239 0
M  V30 1314 C 122.139 4.53628 1.60546 0
M  V30 1315 C 124.491 5.03121 1.36083 0
M  V30 1316 C 121.819 5.77204 1.05128 0
M  V30 1317 C 124.171 6.27249 0.821056 0
M  V30 1318 C 122.835 6.64221 0.660795 0
M  V30 1319 H 122.105 0.592063 0.445582 0
M  V30 1320 H 124.752 1.84503 0.512927 0
M  V30 1321 H 123.057 2.46556 3.04496 0
M  V30 1322 H 124.754 2.81055 2.86023 0
M  V30 1323 H 121.344 3.85341 1.87644 0
M  V30 1324 H 125.528 4.74257 1.46267 0
M  V30 1325 H 120.784 6.0452 0.91462 0
M  V30 1326 H 124.958 6.94537 0.509018 0
M  V30 1327 H 122.585 7.59854 0.229226 0
M  V30 1328 N 124.16 -0.719506 1.40217 0
M  V30 1329 C 125.406 -1.48152 1.38488 0
M  V30 1330 C 125.739 -1.94195 -0.0141867 0
M  V30 1331 O 125.014 -1.67884 -0.982096 0
M  V30 1332 C 125.297 -2.71035 2.37091 0
M  V30 1333 C 125.15 -2.30912 3.86005 0
M  V30 1334 C 126.469 -3.73182 2.33288 0
M  V30 1335 H 123.588 -0.537395 0.504357 0
M  V30 1336 H 126.23 -0.821472 1.71324 0
M  V30 1337 H 124.38 -3.27352 2.0922 0
M  V30 1338 H 126.052 -1.80107 4.24687 0
M  V30 1339 H 124.295 -1.62958 4.02029 0
M  V30 1340 H 124.966 -3.18978 4.50508 0
M  V30 1341 H 127.442 -3.26485 2.57966 0
M  V30 1342 H 126.318 -4.56806 3.04334 0
M  V30 1343 H 126.579 -4.21202 1.34317 0
M  V30 1344 N 125.638 -1.25649 -0.95132 0
M  V30 1345 C 126.568 -1.08808 -2.06599 0
M  V30 1346 C 127.549 0.00382547 -1.701 0
M  V30 1347 O 128.734 -0.166325 -1.93486 0
M  V30 1348 C 125.864 -0.709542 -3.39975 0
M  V30 1349 C 124.818 -1.75206 -3.90496 0
M  V30 1350 C 124.144 -1.22811 -5.20405 0
M  V30 1351 C 125.444 -3.15153 -4.16504 0
M  V30 1352 H 127.138 -2.02048 -2.20946 0
M  V30 1353 H 124.684 -0.972835 -1.06169 0
M  V30 1354 H 126.637 -0.578649 -4.17408 0
M  V30 1355 H 125.361 0.258556 -3.25575 0
M  V30 1356 H 124.02 -1.87145 -3.15234 0
M  V30 1357 H 123.668 -0.250145 -5.02378 0
M  V30 1358 H 123.368 -1.92492 -5.55176 0
M  V30 1359 H 124.892 -1.10968 -6.00432 0
M  V30 1360 H 126.306 -3.06349 -4.84586 0
M  V30 1361 H 124.703 -3.82333 -4.62538 0
M  V30 1362 H 125.773 -3.61966 -3.22658 0
M  V30 1363 N 127.117 1.15442 -1.07289 0
M  V30 1364 C 128.533 1.38201 -0.798288 0
M  V30 1365 C 128.733 1.92429 0.597769 0
M  V30 1366 O 127.789 2.12962 1.3566 0
M  V30 1367 C 129.102 2.35357 -1.87156 0
M  V30 1368 C 130.65 2.49021 -1.89624 0
M  V30 1369 C 131.125 3.49468 -2.96034 0
M  V30 1370 N 132.616 3.57003 -2.95132 0
M  V30 1371 C 133.351 4.34543 -3.74112 0
M  V30 1372 N 132.847 5.15421 -4.6294 0
M  V30 1373 N 134.64 4.29625 -3.62462 0
M  V30 1374 H 126.791 0.78584 -1.97328 0
M  V30 1375 H 129.054 0.408065 -0.855679 0
M  V30 1376 H 128.76 2.02626 -2.87464 0
M  V30 1377 H 128.634 3.35129 -1.73114 0
M  V30 1378 H 131.021 2.81051 -0.899687 0
M  V30 1379 H 131.102 1.4925 -2.07745 0
M  V30 1380 H 130.746 3.18173 -3.95889 0
M  V30 1381 H 130.676 4.48992 -2.75161 0
M  V30 1382 H 133.167 2.99276 -2.30743 0
M  V30 1383 H 133.48 5.7183 -5.19837 0
M  V30 1384 H 131.825 5.14729 -4.66989 0
M  V30 1385 H 135.016 3.65505 -2.92444 0
M  V30 1386 H 135.189 4.89807 -4.24256 0
M  V30 1387 N 128.595 0.856903 1.32268 0
M  V30 1388 C 129.525 0.31858 2.31316 0
M  V30 1389 C 130.506 -0.583487 1.59779 0
M  V30 1390 O 131.691 -0.503259 1.87566 0
M  V30 1391 C 128.821 -0.491979 3.43798 0
M  V30 1392 C 127.775 0.315849 4.26833 0
M  V30 1393 C 127.101 -0.619586 5.31098 0
M  V30 1394 C 128.401 1.54282 4.98993 0
M  V30 1395 H 130.095 1.14621 2.76591 0
M  V30 1396 H 127.641 0.552613 1.32974 0
M  V30 1397 H 129.594 -0.879012 4.1213 0
M  V30 1398 H 128.318 -1.35299 2.97257 0
M  V30 1399 H 126.977 0.684664 3.6015 0
M  V30 1400 H 126.625 -1.47751 4.8081 0
M  V30 1401 H 126.325 -0.0830621 5.87541 0
M  V30 1402 H 127.849 -1.00375 6.02293 0
M  V30 1403 H 129.263 1.22796 5.59995 0
M  V30 1404 H 127.66 2.01745 5.65172 0
M  V30 1405 H 128.73 2.30285 4.26728 0
M  V30 1406 N 130.073 -1.45103 0.615059 0
M  V30 1407 C 131.32 -2.02183 0.113179 0
M  V30 1408 C 131.648 -1.48249 -1.25906 0
M  V30 1409 O 130.903 -0.650265 -1.84581 0
M  V30 1410 C 131.202 -3.57386 0.0318797 0
M  V30 1411 C 130.868 -4.30505 1.34077 0
M  V30 1412 C 129.53 -4.50197 1.69929 0
M  V30 1413 C 131.882 -4.72238 2.20546 0
M  V30 1414 C 129.21 -5.08881 2.91988 0
M  V30 1415 C 131.562 -5.32272 3.41861 0
M  V30 1416 C 130.226 -5.50187 3.77956 0
M  V30 1417 H 129.496 -0.739842 0.0414151 0
M  V30 1418 H 132.143 -1.74073 0.798168 0
M  V30 1419 H 130.448 -3.84817 -0.736409 0
M  V30 1420 H 132.145 -3.99264 -0.372712 0
M  V30 1421 H 128.735 -4.15496 1.05173 0
M  V30 1422 H 132.919 -4.56751 1.94146 0
M  V30 1423 H 128.175 -5.20939 3.2005 0
M  V30 1424 H 132.349 -5.63563 4.09109 0
M  V30 1425 H 129.976 -5.95427 4.72622 0
M  V30 1426 N 131.551 -0.354651 -1.53558 0
M  V30 1427 C 132.461 0.50515 -2.29097 0
M  V30 1428 C 133.477 1.10223 -1.34636 0
M  V30 1429 O 134.653 1.11553 -1.67684 0
M  V30 1430 C 131.718 1.63479 -3.05738 0
M  V30 1431 C 130.779 1.06636 -4.15845 0
M  V30 1432 C 130.012 2.14217 -4.88822 0
M  V30 1433 O 130.235 3.35137 -4.61562 0
M  V30 1434 O 129.169 1.77887 -5.75013 0
M  V30 1435 H 132.995 -0.109237 -3.03503 0
M  V30 1436 H 130.58 -0.119357 -1.48922 0
M  V30 1437 H 132.462 2.2918 -3.5363 0
M  V30 1438 H 131.137 2.23478 -2.34178 0
M  V30 1439 H 130.044 0.373565 -3.7223 0
M  V30 1440 H 131.377 0.511081 -4.89539 0
M  V30 1441 N 133.029 1.57378 -0.0835403 0
M  V30 1442 C 133.979 2.09916 0.889905 0
M  V30 1443 C 134.963 1.01151 1.25129 0
M  V30 1444 O 136.155 1.27443 1.2283 0
M  V30 1445 C 133.284 2.67379 2.15322 0
M  V30 1446 C 132.37 3.83167 1.81779 0
M  V30 1447 N 132.761 4.91665 1.18739 0
M  V30 1448 C 131.059 3.92685 2.11459 0
M  V30 1449 C 131.76 5.72409 1.0355 0
M  V30 1450 N 130.736 5.21062 1.54906 0
M  V30 1451 H 134.538 2.91188 0.398378 0
M  V30 1452 H 132.052 1.61956 0.120013 0
M  V30 1453 H 134.049 3.0334 2.8599 0
M  V30 1454 H 132.709 1.87558 2.65051 0
M  V30 1455 H 133.72 5.10784 0.855604 0
M  V30 1456 H 130.397 3.23856 2.63483 0
M  V30 1457 H 131.787 6.69699 0.543425 0
M  V30 1458 N 134.507 -0.190092 1.56449 0
M  V30 1459 C 135.47 -1.21925 1.9408 0
M  V30 1460 C 136.47 -1.38176 0.822431 0
M  V30 1461 O 137.66 -1.35903 1.08977 0
M  V30 1462 C 134.792 -2.58773 2.21922 0
M  V30 1463 H 135.985 -0.897464 2.86157 0
M  V30 1464 H 133.538 -0.43181 1.50217 0
M  V30 1465 H 134.273 -2.95998 1.32499 0
M  V30 1466 H 134.058 -2.48348 3.03424 0
M  V30 1467 H 135.548 -3.32978 2.52022 0
M  V30 1468 N 135.985 -1.50799 -0.457987 0
M  V30 1469 C 136.935 -1.67003 -1.55222 0
M  V30 1470 C 137.919 -0.52434 -1.52117 0
M  V30 1471 O 139.111 -0.779345 -1.58919 0
M  V30 1472 C 136.24 -1.77956 -2.93576 0
M  V30 1473 C 135.326 -2.98243 -3.01516 0
M  V30 1474 N 135.717 -4.21732 -2.79241 0
M  V30 1475 C 134.015 -2.97072 -3.32662 0
M  V30 1476 C 134.716 -5.02817 -2.92489 0
M  V30 1477 N 133.692 -4.37038 -3.23262 0
M  V30 1478 H 137.494 -2.60163 -1.36721 0
M  V30 1479 H 135.008 -1.48163 -0.664952 0
M  V30 1480 H 137.005 -1.87671 -3.72271 0
M  V30 1481 H 135.665 -0.859634 -3.13114 0
M  V30 1482 H 136.676 -4.51016 -2.54567 0
M  V30 1483 H 133.353 -2.14631 -3.58106 0
M  V30 1484 H 134.743 -6.11054 -2.79396 0
M  V30 1485 N 137.463 0.71206 -1.40597 0
M  V30 1486 C 138.426 1.80785 -1.40888 0
M  V30 1487 C 139.426 1.57937 -0.302103 0
M  V30 1488 O 140.616 1.64913 -0.561182 0
M  V30 1489 C 137.748 3.18927 -1.20409 0
M  V30 1490 H 138.941 1.81924 -2.38419 0
M  V30 1491 H 136.494 0.91805 -1.26497 0
M  V30 1492 H 137.229 3.23436 -0.236522 0
M  V30 1493 H 137.014 3.36911 -2.00582 0
M  V30 1494 H 138.504 3.98949 -1.23408 0
M  V30 1495 N 138.941 1.26152 0.944643 0
M  V30 1496 C 140.166 1.14363 1.7302 0
M  V30 1497 C 140.591 -0.29772 1.85729 0
M  V30 1498 O 139.949 -1.2157 1.34501 0
M  V30 1499 C 139.997 1.81378 3.11664 0
M  V30 1500 O 139.101 1.10022 3.97453 0
M  V30 1501 H 138.442 0.398694 0.53098 0
M  V30 1502 H 140.972 1.66906 1.18337 0
M  V30 1503 H 140.982 1.88064 3.62072 0
M  V30 1504 H 139.657 2.86237 3.0173 0
M  V30 1505 H 138.234 1.11287 3.55907 0
M  V30 1506 N 140.419 -1.14872 1.07899 0
M  V30 1507 C 141.667 -1.85422 0.803941 0
M  V30 1508 C 141.988 -1.83051 -0.67211 0
M  V30 1509 O 141.258 -1.27532 -1.48703 0
M  V30 1510 H 139.838 -0.686537 0.294408 0
M  V30 1511 H 142.5 -1.39226 1.3639 0
M  V30 1512 H 141.596 -2.90399 1.14346 0
M  V30 1513 N 141.898 -0.863906 -1.31812 0
M  V30 1514 C 143.145 -0.471836 -1.96926 0
M  V30 1515 C 143.473 0.974578 -1.68322 0
M  V30 1516 O 142.728 1.7003 -0.968933 0
M  V30 1517 C 143.027 -0.668547 -3.51091 0
M  V30 1518 C 142.693 -2.08683 -3.99703 0
M  V30 1519 C 141.355 -2.47471 -4.12688 0
M  V30 1520 C 143.707 -3.01207 -4.25351 0
M  V30 1521 C 141.035 -3.78037 -4.4867 0
M  V30 1522 C 143.387 -4.31282 -4.62794 0
M  V30 1523 C 142.051 -4.69992 -4.73987 0
M  V30 1524 H 141.321 -0.172657 -0.720604 0
M  V30 1525 H 143.968 -1.09573 -1.57054 0
M  V30 1526 H 142.273 0.0385252 -3.91781 0
M  V30 1527 H 143.97 -0.345102 -3.99512 0
M  V30 1528 H 140.56 -1.77566 -3.90087 0
M  V30 1529 H 144.744 -2.72469 -4.14819 0
M  V30 1530 H 140 -4.078 -4.55532 0
M  V30 1531 H 144.174 -5.03031 -4.81594 0
M  V30 1532 H 141.801 -5.71207 -5.01624 0
M  V30 1533 N 143.376 1.44774 -0.622745 0
M  V30 1534 C 144.792 1.56986 -0.287652 0
M  V30 1535 C 144.992 1.61167 1.20944 0
M  V30 1536 O 144.048 1.55015 1.99315 0
M  V30 1537 C 145.361 2.84551 -0.972188 0
M  V30 1538 C 146.909 2.9825 -0.949536 0
M  V30 1539 C 147.384 4.28605 -1.61437 0
M  V30 1540 N 148.875 4.35399 -1.58057 0
M  V30 1541 C 149.61 5.34964 -2.064 0
M  V30 1542 N 149.106 6.40981 -2.62897 0
M  V30 1543 N 150.899 5.26419 -1.97078 0
M  V30 1544 H 143.05 1.40304 -1.59463 0
M  V30 1545 H 145.313 0.671794 -0.668878 0
M  V30 1546 H 145.019 2.87417 -2.02693 0
M  V30 1547 H 144.893 3.73807 -0.504771 0
M  V30 1548 H 147.28 2.94941 0.0967067 0
M  V30 1549 H 147.361 2.10364 -1.45536 0
M  V30 1550 H 147.005 4.32672 -2.66002 0
M  V30 1551 H 146.935 5.15334 -1.08344 0
M  V30 1552 H 149.426 3.59397 -1.16801 0
M  V30 1553 H 149.739 7.13225 -2.97539 0
M  V30 1554 H 148.084 6.4169 -2.66943 0
M  V30 1555 H 151.275 4.42504 -1.52669 0
M  V30 1556 H 151.448 6.03861 -2.35066 0
M  V30 1557 N 144.854 0.36279 1.53368 0
M  V30 1558 C 146.101 -0.227776 2.01215 0
M  V30 1559 C 146.429 -1.49003 1.25014 0
M  V30 1560 O 145.684 -1.92876 0.331236 0
M  V30 1561 C 145.983 -0.568417 3.52851 0
M  V30 1562 C 145.649 0.59918 4.46901 0
M  V30 1563 C 144.311 0.919559 4.72332 0
M  V30 1564 C 146.663 1.38156 5.02556 0
M  V30 1565 C 143.991 2.02434 5.5067 0
M  V30 1566 C 146.343 2.47674 5.821 0
M  V30 1567 C 145.007 2.8025 6.05819 0
M  V30 1568 H 144.277 -0.083349 0.736297 0
M  V30 1569 H 146.924 0.494677 1.85001 0
M  V30 1570 H 145.229 -1.37185 3.66998 0
M  V30 1571 H 146.926 -1.03756 3.87344 0
M  V30 1572 H 143.516 0.339437 4.27254 0
M  V30 1573 H 147.7 1.14729 4.82857 0
M  V30 1574 H 142.956 2.28075 5.67267 0
M  V30 1575 H 147.13 3.08716 6.24234 0
M  V30 1576 H 144.757 3.65979 6.66306 0
M  V30 1577 N 146.332 -1.57332 0.0918853 0
M  V30 1578 C 147.264 -2.10869 -0.898168 0
M  V30 1579 C 148.277 -1.04521 -1.24817 0
M  V30 1580 O 149.466 -1.31977 -1.20184 0
M  V30 1581 C 146.566 -2.57083 -2.2082 0
M  V30 1582 C 145.739 -3.87229 -2.03402 0
M  V30 1583 C 144.798 -4.19324 -3.17889 0
M  V30 1584 O 143.824 -4.88598 -2.91994 0
M  V30 1585 N 145.026 -3.74471 -4.43567 0
M  V30 1586 H 147.791 -2.96439 -0.440943 0
M  V30 1587 H 145.352 -1.61631 -0.0933064 0
M  V30 1588 H 147.344 -2.75602 -2.96354 0
M  V30 1589 H 145.914 -1.76541 -2.57977 0
M  V30 1590 H 145.134 -3.7789 -1.12218 0
M  V30 1591 H 146.422 -4.72379 -1.89038 0
M  V30 1592 H 145.82 -3.18546 -4.67488 0
M  V30 1593 H 144.377 -3.98151 -5.16061 0
M  V30 1594 N 147.81 0.181792 -1.56548 0
M  V30 1595 C 149.038 0.915947 -1.85521 0
M  V30 1596 C 149.453 1.76282 -0.676016 0
M  V30 1597 O 148.81 1.79012 0.355077 0
M  V30 1598 C 148.861 1.80126 -3.13427 0
M  V30 1599 O 148.582 0.988562 -4.26801 0
M  V30 1600 C 150.083 2.64597 -3.55673 0
M  V30 1601 H 147.303 0.26661 -0.61576 0
M  V30 1602 H 149.847 0.185039 -2.03661 0
M  V30 1603 H 148.002 2.48563 -2.97145 0
M  V30 1604 H 148.416 1.59308 -4.99721 0
M  V30 1605 H 149.89 3.2235 -4.48101 0
M  V30 1606 H 150.367 3.38958 -2.79292 0
M  V30 1607 H 150.973 2.0151 -3.74532 0
M  V30 1608 N 149.288 1.51039 0.449983 0
M  V30 1609 C 150.535 1.63081 1.20045 0
M  V30 1610 C 150.863 0.341024 1.91487 0
M  V30 1611 O 150.118 -0.674276 1.83717 0
M  V30 1612 C 150.417 2.77556 2.25161 0
M  V30 1613 C 150.083 4.17289 1.70823 0
M  V30 1614 C 148.745 4.55305 1.55725 0
M  V30 1615 C 151.097 5.04536 1.3074 0
M  V30 1616 C 148.425 5.78287 0.989999 0
M  V30 1617 C 150.777 6.28085 0.754482 0
M  V30 1618 C 149.441 6.64885 0.590308 0
M  V30 1619 H 148.711 0.596755 0.439277 0
M  V30 1620 H 151.358 1.85037 0.49333 0
M  V30 1621 H 149.663 2.49771 3.01863 0
M  V30 1622 H 151.36 2.84073 2.83026 0
M  V30 1623 H 147.95 3.8731 1.83546 0
M  V30 1624 H 152.134 4.75782 1.41229 0
M  V30 1625 H 147.39 6.05456 0.850451 0
M  V30 1626 H 151.564 6.95038 0.435324 0
M  V30 1627 H 149.191 7.60055 0.14862 0
M  V30 1628 N 150.766 -0.704594 1.40972 0
M  V30 1629 C 151.696 -1.83124 1.44872 0
M  V30 1630 C 152.677 -1.67281 0.30838 0
M  V30 1631 O 153.862 -1.87149 0.518556 0
M  V30 1632 C 150.992 -3.21181 1.32136 0
M  V30 1633 C 149.946 -3.51714 2.43888 0
M  V30 1634 C 149.272 -4.89032 2.16222 0
M  V30 1635 C 150.572 -3.516 3.86232 0
M  V30 1636 H 152.266 -1.80117 2.39161 0
M  V30 1637 H 149.812 -0.865145 1.15114 0
M  V30 1638 H 151.765 -3.99702 1.33479 0
M  V30 1639 H 150.489 -3.24791 0.343279 0
M  V30 1640 H 149.148 -2.75539 2.41813 0
M  V30 1641 H 148.796 -4.89256 1.16778 0
M  V30 1642 H 148.496 -5.10426 2.911 0
M  V30 1643 H 150.02 -5.69873 2.19265 0
M  V30 1644 H 151.434 -4.2014 3.9007 0
M  V30 1645 H 149.831 -3.84523 4.60719 0
M  V30 1646 H 150.901 -2.50757 4.15029 0
M  V30 1647 N 152.244 -1.26651 -0.937939 0
M  V30 1648 C 153.492 -1.12165 -1.68118 0
M  V30 1649 C 153.813 0.334983 -1.92101 0
M  V30 1650 O 153.083 1.23583 -1.52 0
M  V30 1651 H 151.663 -0.412093 -0.623048 0
M  V30 1652 H 154.325 -1.59027 -1.12678 0
M  V30 1653 H 153.421 -1.64289 -2.6536 0
M  V30 1654 N 153.722 1.14298 -1.08507 0
M  V30 1655 C 154.685 2.17607 -0.719711 0
M  V30 1656 C 155.685 1.58907 0.245997 0
M  V30 1657 O 156.875 1.74181 0.0254081 0
M  V30 1658 C 154.007 3.40842 -0.0627695 0
M  V30 1659 H 155.2 2.51443 -1.63452 0
M  V30 1660 H 152.753 1.28963 -0.88307 0
M  V30 1661 H 153.488 3.12587 0.863716 0
M  V30 1662 H 153.273 3.84713 -0.757504 0
M  V30 1663 H 154.763 4.17221 0.177786 0
M  V30 1664 N 155.201 0.870884 1.31352 0
M  V30 1665 C 156.447 0.492314 1.97352 0
M  V30 1666 C 156.802 -0.945174 1.67583 0
M  V30 1667 O 156.095 -1.65674 0.962423 0
M  V30 1668 C 156.289 0.687157 3.50732 0
M  V30 1669 C 156.118 2.14203 3.95407 0
M  V30 1670 C 154.888 2.78382 4.21701 0
M  V30 1671 C 157.086 3.1144 4.09279 0
M  V30 1672 N 155.068 4.14611 4.52737 0
M  V30 1673 C 156.439 4.32702 4.44037 0
M  V30 1674 C 158.494 3.07418 3.91661 0
M  V30 1675 C 157.197 5.50463 4.63015 0
M  V30 1676 C 159.223 4.24438 4.11833 0
M  V30 1677 C 158.585 5.44463 4.46923 0
M  V30 1678 H 154.684 0.229206 0.747655 0
M  V30 1679 H 157.268 1.12568 1.5886 0
M  V30 1680 H 155.439 0.083384 3.8831 0
M  V30 1681 H 157.171 0.276883 4.03752 0
M  V30 1682 H 153.926 2.29326 4.14375 0
M  V30 1683 H 154.35 4.84928 4.72413 0
M  V30 1684 H 158.992 2.15732 3.6362 0
M  V30 1685 H 156.71 6.42666 4.89904 0
M  V30 1686 H 160.296 4.2278 3.99685 0
M  V30 1687 H 159.176 6.33504 4.62214 0
M  V30 1688 N 156.679 -1.44442 0.630414 0
M  V30 1689 C 157.626 -2.30678 -0.0749355 0
M  V30 1690 C 158.596 -1.4344 -0.837502 0
M  V30 1691 O 159.781 -1.72343 -0.818684 0
M  V30 1692 C 156.921 -3.28706 -1.05103 0
M  V30 1693 C 156.034 -4.31046 -0.286954 0
M  V30 1694 C 155.169 -5.16167 -1.2548 0
M  V30 1695 C 154.208 -6.10216 -0.479843 0
M  V30 1696 N 153.345 -6.88039 -1.39811 0
M  V30 1697 H 158.185 -2.90454 0.666386 0
M  V30 1698 H 155.722 -1.43107 0.340404 0
M  V30 1699 H 157.68 -3.84027 -1.63031 0
M  V30 1700 H 156.31 -2.70632 -1.75949 0
M  V30 1701 H 155.362 -3.78203 0.408243 0
M  V30 1702 H 156.674 -4.97794 0.316657 0
M  V30 1703 H 155.828 -5.76002 -1.90544 0
M  V30 1704 H 154.567 -4.49491 -1.89233 0
M  V30 1705 H 153.572 -5.49491 0.184295 0
M  V30 1706 H 154.797 -6.78928 0.152965 0
M  V30 1707 H 152.743 -6.24032 -2.02287 0
M  V30 1708 H 152.66 -7.51223 -0.848508 0
M  V30 1709 H 153.928 -7.52397 -2.03762 0
M  V30 1710 N 158.157 -0.370918 -1.53173 0
M  V30 1711 C 159.404 0.217102 -2.01333 0
M  V30 1712 C 159.732 1.48338 -1.25802 0
M  V30 1713 O 158.987 1.92698 -0.34146 0
M  V30 1714 C 159.286 0.549696 -3.53147 0
M  V30 1715 C 158.952 -0.622872 -4.46577 0
M  V30 1716 C 157.614 -0.944595 -4.71838 0
M  V30 1717 C 159.966 -1.40819 -5.01816 0
M  V30 1718 C 157.294 -2.05351 -5.49589 0
M  V30 1719 C 159.646 -2.50757 -5.80778 0
M  V30 1720 C 158.31 -2.83458 -6.04324 0
M  V30 1721 H 157.58 0.0794431 -0.736729 0
M  V30 1722 H 160.227 -0.504481 -1.84736 0
M  V30 1723 H 158.532 1.35237 -3.6772 0
M  V30 1724 H 160.229 1.017 -3.87889 0
M  V30 1725 H 156.819 -0.36209 -4.27068 0
M  V30 1726 H 161.003 -1.17289 -4.82242 0
M  V30 1727 H 156.259 -2.3108 -5.6605 0
M  V30 1728 H 160.433 -3.12022 -6.22588 0
M  V30 1729 H 158.06 -3.69508 -6.64355 0
M  V30 1730 N 159.635 1.57281 -0.100228 0
M  V30 1731 C 160.865 1.98591 0.569681 0
M  V30 1732 C 161.273 0.978315 1.61943 0
M  V30 1733 O 160.616 -0.0396108 1.83657 0
M  V30 1734 C 160.678 3.36282 1.271 0
M  V30 1735 C 160.342 4.55488 0.371409 0
M  V30 1736 C 161.339 5.18491 -0.382504 0
M  V30 1737 C 159.024 5.01474 0.287965 0
M  V30 1738 C 161.018 6.25852 -1.20779 0
M  V30 1739 C 158.705 6.08701 -0.540965 0
M  V30 1740 C 159.703 6.70755 -1.28749 0
M  V30 1741 O 159.391 7.75914 -2.10269 0
M  V30 1742 H 159.123 0.65752 0.156982 0
M  V30 1743 H 161.677 2.0463 -0.177734 0
M  V30 1744 H 159.907 3.26941 2.0651 0
M  V30 1745 H 161.596 3.62005 1.83595 0
M  V30 1746 H 162.362 4.83891 -0.3278 0
M  V30 1747 H 158.241 4.52932 0.858689 0
M  V30 1748 H 161.785 6.74218 -1.79096 0
M  V30 1749 H 157.682 6.42732 -0.597131 0
M  V30 1750 H 158.45 7.92925 -2.03007 0
M  V30 1751 N 161.113 -0.173488 1.56642 0
M  V30 1752 C 162.341 -0.906095 1.86004 0
M  V30 1753 C 162.756 -1.75921 0.685355 0
M  V30 1754 O 162.113 -1.79198 -0.345578 0
M  V30 1755 C 162.164 -1.78462 3.14378 0
M  V30 1756 O 161.885 -0.965914 4.27319 0
M  V30 1757 C 163.386 -2.62707 3.57071 0
M  V30 1758 H 160.606 -0.263341 0.617165 0
M  V30 1759 H 163.15 -0.174236 2.03756 0
M  V30 1760 H 161.305 -2.46984 2.98459 0
M  V30 1761 H 161.719 -1.56655 5.00559 0
M  V30 1762 H 163.193 -3.19969 4.49804 0
M  V30 1763 H 163.67 -3.37472 2.81086 0
M  V30 1764 H 164.276 -1.99521 3.75595 0
M  V30 1765 N 162.591 -1.51276 -0.441967 0
M  V30 1766 C 163.816 -1.67799 -1.21895 0
M  V30 1767 C 164.241 -0.372864 -1.84367 0
M  V30 1768 O 163.599 0.666501 -1.68604 0
M  V30 1769 C 163.647 -2.79199 -2.28211 0
M  V30 1770 O 162.751 -2.42479 -3.33583 0
M  V30 1771 H 162.092 -0.559649 -0.357336 0
M  V30 1772 H 164.622 -1.97815 -0.522522 0
M  V30 1773 H 164.632 -3.03146 -2.73069 0
M  V30 1774 H 163.307 -3.73906 -1.82118 0
M  V30 1775 H 161.884 -2.29087 -2.94234 0
M  V30 1776 N 164.069 0.697108 -1.41344 0
M  V30 1777 C 165.299 1.48377 -1.43763 0
M  V30 1778 C 165.707 1.89156 -0.0408726 0
M  V30 1779 O 165.05 1.57239 0.949812 0
M  V30 1780 C 165.112 2.7781 -2.2817 0
M  V30 1781 C 164.776 2.59244 -3.76353 0
M  V30 1782 C 165.773 2.25292 -4.68551 0
M  V30 1783 C 163.458 2.74933 -4.20378 0
M  V30 1784 C 165.452 2.07264 -6.02761 0
M  V30 1785 C 163.139 2.56521 -5.54653 0
M  V30 1786 C 164.137 2.22737 -6.4566 0
M  V30 1787 O 163.825 2.04485 -7.77458 0
M  V30 1788 H 163.557 0.463842 -0.491759 0
M  V30 1789 H 166.111 0.865934 -1.86255 0
M  V30 1790 H 164.341 3.41995 -1.8049 0
M  V30 1791 H 166.03 3.39608 -2.22309 0
M  V30 1792 H 166.796 2.12787 -4.35829 0
M  V30 1793 H 162.675 3.00213 -3.49848 0
M  V30 1794 H 166.219 1.80817 -6.73759 0
M  V30 1795 H 162.116 2.68616 -5.86955 0
M  V30 1796 H 162.884 2.1926 -7.88586 0
M  V30 1797 N 165.547 1.27147 0.931209 0
M  V30 1798 C 166.775 1.16082 1.71267 0
M  V30 1799 C 167.19 -0.282772 1.8667 0
M  V30 1800 O 166.547 -1.19283 1.38122 0
M  V30 1801 C 166.598 1.8358 3.11417 0
M  V30 1802 O 166.319 3.22299 2.96741 0
M  V30 1803 C 167.82 1.78597 4.05732 0
M  V30 1804 H 165.04 0.403758 0.535929 0
M  V30 1805 H 167.584 1.67953 1.16671 0
M  V30 1806 H 165.739 1.35623 3.62885 0
M  V30 1807 H 166.153 3.55851 3.85319 0
M  V30 1808 H 167.627 2.30444 5.01597 0
M  V30 1809 H 168.104 0.754564 4.3267 0
M  V30 1810 H 168.71 2.26152 3.60188 0
M  V30 1811 N 167.025 -1.13721 1.09112 0
M  V30 1812 C 167.955 -2.21148 0.749385 0
M  V30 1813 C 168.936 -1.6792 -0.271475 0
M  V30 1814 O 170.121 -1.93693 -0.140251 0
M  V30 1815 C 167.251 -3.46905 0.165659 0
M  V30 1816 C 166.205 -4.13203 1.11567 0
M  V30 1817 C 165.531 -5.33248 0.393809 0
M  V30 1818 C 166.831 -4.60912 2.45678 0
M  V30 1819 H 168.525 -2.4999 1.64758 0
M  V30 1820 H 166.071 -1.20156 0.793626 0
M  V30 1821 H 168.024 -4.21313 -0.085466 0
M  V30 1822 H 166.748 -3.17449 -0.767714 0
M  V30 1823 H 165.407 -3.40758 1.35202 0
M  V30 1824 H 165.055 -5.00054 -0.543599 0
M  V30 1825 H 164.755 -5.78552 1.02721 0
M  V30 1826 H 166.279 -6.10413 0.150908 0
M  V30 1827 H 167.693 -5.26759 2.26269 0
M  V30 1828 H 166.09 -5.16944 3.04776 0
M  V30 1829 H 167.16 -3.75603 3.06677 0
M  V30 1830 N 168.503 -0.877838 -1.30888 0
M  V30 1831 C 169.45 -0.337538 -2.28318 0
M  V30 1832 C 170.42 0.568346 -1.56074 0
M  V30 1833 O 171.605 0.498298 -1.84178 0
M  V30 1834 C 168.745 0.448142 -3.42178 0
M  V30 1835 C 167.858 -0.48615 -4.29256 0
M  V30 1836 C 166.993 0.314427 -5.30269 0
M  V30 1837 C 166.032 -0.615791 -6.08995 0
M  V30 1838 N 165.169 0.14902 -7.01942 0
M  V30 1839 H 170.009 -1.17356 -2.73919 0
M  V30 1840 H 167.546 -0.590094 -1.34745 0
M  V30 1841 H 169.504 0.919517 -4.06941 0
M  V30 1842 H 168.134 1.24879 -2.97666 0
M  V30 1843 H 167.186 -1.076 -3.64865 0
M  V30 1844 H 168.498 -1.19909 -4.84173 0
M  V30 1845 H 167.652 0.847969 -6.00745 0
M  V30 1846 H 166.391 1.06062 -4.76027 0
M  V30 1847 H 165.396 -1.16102 -5.37401 0
M  V30 1848 H 166.621 -1.36097 -6.65323 0
M  V30 1849 H 164.567 0.877884 -6.50099 0
M  V30 1850 H 164.484 -0.504433 -7.54315 0
M  V30 1851 H 165.752 0.663537 -7.76671 0
M  V30 1852 N 169.982 1.44106 -0.638065 0
M  V30 1853 C 171.21 2.06336 -0.152615 0
M  V30 1854 C 171.625 1.47731 1.17563 0
M  V30 1855 O 170.982 0.602806 1.72257 0
M  V30 1856 C 171.033 3.61479 -0.0391491 0
M  V30 1857 O 170.754 4.17903 -1.31487 0
M  V30 1858 C 172.255 4.40757 0.474176 0
M  V30 1859 H 169.475 0.665862 -0.0828776 0
M  V30 1860 H 172.019 1.84862 -0.87443 0
M  V30 1861 H 170.174 3.82191 0.633142 0
M  V30 1862 H 170.588 5.11416 -1.16421 0
M  V30 1863 H 172.062 5.49707 0.502562 0
M  V30 1864 H 172.539 4.12697 1.50258 0
M  V30 1865 H 173.145 4.24979 -0.165102 0
M  V30 1866 N 171.46 0.379036 1.52974 0
M  V30 1867 C 172.707 -0.206421 2.01445 0
M  V30 1868 C 173.035 -1.47668 1.26587 0
M  V30 1869 O 172.29 -1.92514 0.351675 0
M  V30 1870 C 172.589 -0.53096 3.53434 0
M  V30 1871 C 172.255 0.646546 4.46241 0
M  V30 1872 C 170.917 0.969604 4.7133 0
M  V30 1873 C 173.269 1.43479 5.01062 0
M  V30 1874 C 170.597 2.08263 5.48492 0
M  V30 1875 C 172.949 2.53834 5.7944 0
M  V30 1876 C 171.613 2.86659 6.02812 0
M  V30 1877 H 170.883 -0.0755349 0.73714 0
M  V30 1878 H 173.53 0.514271 1.84465 0
M  V30 1879 H 171.835 -1.33285 3.68432 0
M  V30 1880 H 173.532 -0.996417 3.88423 0
M  V30 1881 H 170.122 0.384734 4.2687 0
M  V30 1882 H 174.306 1.19844 4.81613 0
M  V30 1883 H 169.562 2.34078 5.64816 0
M  V30 1884 H 173.736 3.15319 6.20924 0
M  V30 1885 H 171.363 3.73026 6.62387 0
M  V30 1886 N 172.938 -1.57226 0.108567 0
M  V30 1887 C 174.215 -1.86333 -0.594939 0
M  V30 1888 C 174.595 -1.00788 -1.85486 0
M  V30 1889 O 173.943 -0.0839293 -2.28346 0
M  V30 1890 C 174.153 -3.37265 -0.897405 0
M  V30 1891 C 175.501 -4.05629 -1.25501 0
M  V30 1892 O 176.525 -3.42224 -0.987998 0
M  V30 1893 O 175.384 -5.17531 -1.75567 0
M  V30 1894 H 172.478 -0.771018 -0.2991 0
M  V30 1895 H 175.024 -1.69102 0.142283 0
M  V30 1896 H 173.796 -3.913 -0.00413806 0
M  V30 1897 H 173.419 -3.59889 -1.69014 0
M  V30 1898 N 174.416 0.165178 -1.56732 0
M  V30 1899 C 175.664 0.879068 -1.8198 0
M  V30 1900 C 175.985 1.82514 -0.686561 0
M  V30 1901 O 175.255 1.93694 0.293146 0
M  V30 1902 H 173.835 0.327608 -0.671329 0
M  V30 1903 H 176.497 0.163526 -1.94213 0
M  V30 1904 H 175.593 1.45228 -2.76252 0
M  V30 1905 N 175.894 1.51508 0.433938 0
M  V30 1906 C 176.841 1.73068 1.52696 0
M  V30 1907 C 177.811 0.572441 1.55924 0
M  V30 1908 O 178.996 0.807253 1.72882 0
M  V30 1909 C 176.136 1.86474 2.90381 0
M  V30 1910 C 175.249 3.14037 2.96656 0
M  V30 1911 C 174.384 3.18019 4.25485 0
M  V30 1912 C 173.423 4.39882 4.2564 0
M  V30 1913 N 172.56 4.41394 5.45999 0
M  V30 1914 H 177.4 2.66366 1.33615 0
M  V30 1915 H 174.937 1.32008 0.649018 0
M  V30 1916 H 176.895 1.92229 3.70275 0
M  V30 1917 H 175.525 0.965809 3.08013 0
M  V30 1918 H 174.577 3.17575 2.09404 0
M  V30 1919 H 175.889 4.0394 2.92633 0
M  V30 1920 H 175.043 3.22708 5.13755 0
M  V30 1921 H 173.782 2.2601 4.3217 0
M  V30 1922 H 172.787 4.35366 3.35763 0
M  V30 1923 H 174.012 5.33159 4.20617 0
M  V30 1924 H 171.958 3.52258 5.53399 0
M  V30 1925 H 171.875 5.25111 5.4387 0
M  V30 1926 H 173.143 4.50281 6.36292 0
M  V30 1927 N 177.372 -0.689602 1.41712 0
M  V30 1928 C 178.788 -1.00093 1.24312 0
M  V30 1929 C 178.988 -2.01036 0.136729 0
M  V30 1930 O 178.044 -2.47562 -0.496918 0
M  V30 1931 C 179.357 -1.51985 2.59463 0
M  V30 1932 C 180.905 -1.63838 2.66695 0
M  V30 1933 C 181.38 -2.1913 4.02177 0
M  V30 1934 N 182.871 -2.26483 4.04054 0
M  V30 1935 C 183.606 -2.70306 5.0569 0
M  V30 1936 N 183.102 -3.13691 6.17713 0
M  V30 1937 N 184.895 -2.69923 4.9305 0
M  V30 1938 H 177.046 -0.0210029 2.1239 0
M  V30 1939 H 179.309 -0.0718733 0.945272 0
M  V30 1940 H 179.015 -0.85269 3.41207 0
M  V30 1941 H 178.889 -2.50103 2.82362 0
M  V30 1942 H 181.276 -2.29664 1.85306 0
M  V30 1943 H 181.357 -0.642492 2.476 0
M  V30 1944 H 181.001 -1.53918 4.84016 0
M  V30 1945 H 180.931 -3.19482 4.18615 0
M  V30 1946 H 183.422 -1.95874 3.23174 0
M  V30 1947 H 183.735 -3.45773 6.9113 0
M  V30 1948 H 182.08 -3.11585 6.21241 0
M  V30 1949 H 185.271 -2.35382 4.04614 0
M  V30 1950 H 185.444 -3.03758 5.72394 0
M  V30 1951 N 178.85 -1.27639 -0.924453 0
M  V30 1952 C 180.08 -1.16819 -1.70402 0
M  V30 1953 C 180.488 0.277191 -1.87158 0
M  V30 1954 O 179.831 1.20025 -1.39067 0
M  V30 1955 C 179.893 -1.78305 -3.12166 0
M  V30 1956 C 179.557 -3.27502 -3.18734 0
M  V30 1957 C 180.554 -4.2409 -3.00738 0
M  V30 1958 C 178.239 -3.68269 -3.4159 0
M  V30 1959 C 180.233 -5.59422 -3.05492 0
M  V30 1960 C 177.92 -5.0373 -3.45977 0
M  V30 1961 C 178.918 -5.99116 -3.27946 0
M  V30 1962 O 178.606 -7.32108 -3.32074 0
M  V30 1963 H 178.338 -0.406931 -0.539799 0
M  V30 1964 H 180.892 -1.69078 -1.16626 0
M  V30 1965 H 179.122 -1.20528 -3.67437 0
M  V30 1966 H 180.811 -1.62154 -3.72103 0
M  V30 1967 H 181.577 -3.93931 -2.82919 0
M  V30 1968 H 177.456 -2.94496 -3.54673 0
M  V30 1969 H 181 -6.33852 -2.91337 0
M  V30 1970 H 176.897 -5.33543 -3.63321 0
M  V30 1971 H 177.665 -7.40598 -3.48507 0
M  V30 1972 N 180.328 1.1314 -1.09713 0
M  V30 1973 C 181.258 2.20748 -0.761102 0
M  V30 1974 C 182.239 1.68061 0.262566 0
M  V30 1975 O 183.424 1.93765 0.129977 0
M  V30 1976 C 180.554 3.46812 -0.184054 0
M  V30 1977 C 179.508 4.12606 -1.13757 0
M  V30 1978 C 178.834 5.33031 -0.422083 0
M  V30 1979 C 180.134 4.59603 -2.48118 0
M  V30 1980 H 181.828 2.49113 -1.66082 0
M  V30 1981 H 179.374 1.19734 -0.799987 0
M  V30 1982 H 181.327 4.21353 0.0631215 0
M  V30 1983 H 180.051 3.17851 0.750868 0
M  V30 1984 H 178.71 3.40036 -1.37007 0
M  V30 1985 H 178.358 5.00335 0.517072 0
M  V30 1986 H 178.058 5.77999 -1.05788 0
M  V30 1987 H 179.582 6.10325 -0.183277 0
M  V30 1988 H 180.996 5.25552 -2.29059 0
M  V30 1989 H 179.393 5.15321 -3.07514 0
M  V30 1990 H 180.463 3.73971 -3.08665 0
M  V30 1991 N 181.806 0.884767 1.30421 0
M  V30 1992 C 182.716 0.355398 2.31892 0
M  V30 1993 C 183.732 -0.542261 1.65335 0
M  V30 1994 O 184.908 -0.435432 1.96637 0
M  V30 1995 C 181.973 -0.421661 3.44126 0
M  V30 1996 C 181.034 0.505727 4.26311 0
M  V30 1997 C 180.267 -0.234343 5.33185 0
M  V30 1998 O 180.49 -1.46045 5.51386 0
M  V30 1999 O 179.424 0.415443 6.00465 0
M  V30 2000 H 183.25 1.19685 2.79122 0
M  V30 2001 H 180.835 0.648596 1.34587 0
M  V30 2002 H 182.717 -0.861641 4.12497 0
M  V30 2003 H 181.392 -1.23942 2.99032 0
M  V30 2004 H 180.299 0.994513 3.60639 0
M  V30 2005 H 181.632 1.28948 4.75009 0
M  V30 2006 N 183.284 -1.43765 0.645699 0
M  V30 2007 C 184.234 -2.27884 -0.0726442 0
M  V30 2008 C 185.218 -1.39483 -0.802086 0
M  V30 2009 O 186.41 -1.63174 -0.685791 0
M  V30 2010 C 183.539 -3.27055 -1.04356 0
M  V30 2011 C 182.625 -4.22944 -0.312985 0
M  V30 2012 N 183.016 -5.01391 0.666386 0
M  V30 2013 C 181.314 -4.42528 -0.55546 0
M  V30 2014 C 182.015 -5.71217 1.09935 0
M  V30 2015 N 180.991 -5.41856 0.435137 0
M  V30 2016 H 184.793 -2.85949 0.678988 0
M  V30 2017 H 182.307 -1.55378 0.472368 0
M  V30 2018 H 184.304 -3.86089 -1.57292 0
M  V30 2019 H 182.964 -2.70551 -1.79534 0
M  V30 2020 H 183.975 -5.07252 1.04481 0
M  V30 2021 H 180.652 -3.97104 -1.28899 0
M  V30 2022 H 182.042 -6.44202 1.90929 0
M  V30 2023 N 184.763 -0.387143 -1.52771 0
M  V30 2024 C 186.01 0.195735 -2.01552 0
M  V30 2025 C 186.338 1.46995 -1.27369 0
M  V30 2026 O 185.593 1.92325 -0.361879 0
M  V30 2027 C 185.892 0.512209 -3.53711 0
M  V30 2028 C 185.558 -0.670202 -4.45891 0
M  V30 2029 C 184.22 -0.994586 -4.70809 0
M  V30 2030 C 186.572 -1.46134 -5.00294 0
M  V30 2031 C 183.9 -2.11169 -5.4738 0
M  V30 2032 C 186.252 -2.56903 -5.78086 0
M  V30 2033 C 184.916 -2.89852 -6.01284 0
M  V30 2034 H 184.186 0.0716246 -0.73753 0
M  V30 2035 H 186.833 -0.524046 -1.8419 0
M  V30 2036 H 185.138 1.31329 -3.69134 0
M  V30 2037 H 186.835 0.975804 -3.88946 0
M  V30 2038 H 183.425 -0.407366 -4.2666 0
M  V30 2039 H 187.609 -1.22397 -4.80971 0
M  V30 2040 H 182.865 -2.3707 -5.63567 0
M  V30 2041 H 187.039 -3.18608 -6.19243 0
M  V30 2042 H 184.666 -3.76533 -6.60399 0
M  V30 2043 N 186.241 1.57166 -0.116904 0
M  V30 2044 C 187.151 2.18745 0.847812 0
M  V30 2045 C 188.167 1.163 1.29423 0
M  V30 2046 O 189.343 1.48761 1.35765 0
M  V30 2047 C 186.408 2.77307 2.0809 0
M  V30 2048 C 185.469 3.94781 1.68661 0
M  V30 2049 C 184.702 4.50541 2.86091 0
M  V30 2050 O 184.925 4.05202 4.01456 0
M  V30 2051 O 183.859 5.41256 2.63298 0
M  V30 2052 H 187.685 3.01632 0.353778 0
M  V30 2053 H 185.27 1.49005 0.108599 0
M  V30 2054 H 187.152 3.14647 2.80313 0
M  V30 2055 H 185.827 1.97452 2.56504 0
M  V30 2056 H 184.734 3.62214 0.935518 0
M  V30 2057 H 186.067 4.76065 1.24991 0
M  V30 2058 N 187.719 -0.156864 1.56817 0
M  V30 2059 C 188.996 -0.899244 1.73704 0
M  V30 2060 C 189.376 -1.99771 0.682254 0
M  V30 2061 O 188.724 -2.26515 -0.300522 0
M  V30 2062 C 188.934 -1.45075 3.17418 0
M  V30 2063 C 190.282 -1.91802 3.7881 0
M  V30 2064 O 191.306 -1.54838 3.20786 0
M  V30 2065 O 190.165 -2.5994 4.80722 0
M  V30 2066 H 187.259 -0.424267 0.709878 0
M  V30 2067 H 189.805 -0.143561 1.69092 0
M  V30 2068 H 188.577 -0.660846 3.85679 0
M  V30 2069 H 188.2 -2.27021 3.26416 0
M  V30 2070 N 189.197 -1.51736 -0.425897 0
M  V30 2071 C 190.613 -1.40166 -0.76326 0
M  V30 2072 C 190.813 -0.492962 -1.95377 0
M  V30 2073 O 189.869 0.0475815 -2.52455 0
M  V30 2074 C 191.182 -2.82403 -1.03291 0
M  V30 2075 C 192.73 -2.91632 -1.13665 0
M  V30 2076 C 193.205 -4.34801 -1.43916 0
M  V30 2077 N 194.696 -4.3796 -1.50816 0
M  V30 2078 C 195.431 -5.4578 -1.75817 0
M  V30 2079 N 194.927 -6.63744 -1.98534 0
M  V30 2080 N 196.72 -5.33274 -1.77694 0
M  V30 2081 H 188.871 -2.09361 0.358 0
M  V30 2082 H 191.134 -0.942941 0.0978094 0
M  V30 2083 H 190.84 -3.50943 -0.230696 0
M  V30 2084 H 190.714 -3.22428 -1.95754 0
M  V30 2085 H 193.101 -2.23284 -1.92947 0
M  V30 2086 H 193.182 -2.55088 -0.190756 0
M  V30 2087 H 192.826 -5.03703 -0.65157 0
M  V30 2088 H 192.756 -4.68868 -2.39729 0
M  V30 2089 H 195.247 -3.52919 -1.35118 0
M  V30 2090 H 195.56 -7.41704 -2.17013 0
M  V30 2091 H 193.905 -6.66839 -1.95832 0
M  V30 2092 H 197.096 -4.40098 -1.59473 0
M  V30 2093 H 197.269 -6.1738 -1.9684 0
M  V30 2094 N 190.675 0.682077 -1.42076 0
M  V30 2095 C 191.921 1.44428 -1.42367 0
M  V30 2096 C 192.254 1.94164 -0.0373056 0
M  V30 2097 O 191.529 1.70429 0.937239 0
M  V30 2098 C 191.812 2.64654 -2.44194 0
M  V30 2099 C 191.665 2.20596 -3.91991 0
M  V30 2100 C 192.984 3.66865 -2.431 0
M  V30 2101 H 190.103 0.523834 -0.518428 0
M  V30 2102 H 192.745 0.77576 -1.73442 0
M  V30 2103 H 190.895 3.2169 -2.17826 0
M  V30 2104 H 192.567 1.68783 -4.29313 0
M  V30 2105 H 190.81 1.52242 -4.06208 0
M  V30 2106 H 191.481 3.06921 -4.58807 0
M  V30 2107 H 193.957 3.19531 -2.66532 0
M  V30 2108 H 192.833 4.48577 -3.16339 0
M  V30 2109 H 193.094 4.17493 -1.45437 0
M  V30 2110 N 192.153 1.28127 0.917671 0
M  V30 2111 C 193.381 1.17892 1.70026 0
M  V30 2112 C 193.796 -0.262958 1.8696 0
M  V30 2113 O 193.153 -1.17811 1.3938 0
M  V30 2114 C 193.204 1.86872 3.09453 0
M  V30 2115 O 192.925 3.25428 2.93306 0
M  V30 2116 C 194.426 1.8289 4.03815 0
M  V30 2117 H 191.646 0.40942 0.531617 0
M  V30 2118 H 194.19 1.69181 1.14883 0
M  V30 2119 H 192.345 1.39464 3.61426 0
M  V30 2120 H 192.759 3.59918 3.81523 0
M  V30 2121 H 194.233 2.35751 4.99125 0
M  V30 2122 H 194.71 0.800412 4.31845 0
M  V30 2123 H 195.316 2.29959 3.57769 0
M  V30 2124 N 193.631 -1.12557 1.10312 0
M  V30 2125 C 194.564 -2.1737 0.694674 0
M  V30 2126 C 195.542 -1.59745 -0.303373 0
M  V30 2127 O 196.726 -1.87408 -0.202578 0
M  V30 2128 C 193.853 -3.38691 0.0248052 0
M  V30 2129 C 192.899 -4.14943 0.986121 0
M  V30 2130 S 193.732 -4.73413 2.50281 0
M  V30 2131 C 194.888 -5.9807 1.84562 0
M  V30 2132 H 195.121 -2.5168 1.58255 0
M  V30 2133 H 192.654 -1.23998 0.919992 0
M  V30 2134 H 194.612 -4.08959 -0.355361 0
M  V30 2135 H 193.273 -3.02664 -0.839851 0
M  V30 2136 H 192.466 -5.01854 0.464651 0
M  V30 2137 H 192.068 -3.50377 1.30813 0
M  V30 2138 H 194.36 -6.67232 1.17507 0
M  V30 2139 H 195.303 -6.54841 2.69423 0
M  V30 2140 H 195.711 -5.49073 1.31069 0
M  V30 2141 N 195.109 -0.891671 -1.2995 0
M  V30 2142 C 196.355 -0.514261 -1.96171 0
M  V30 2143 C 196.688 0.935506 -1.70182 0
M  V30 2144 O 195.963 1.66204 -1.01028 0
M  V30 2145 C 196.246 -0.797719 -3.51153 0
M  V30 2146 C 196.099 -2.2986 -3.86632 0
M  V30 2147 C 197.418 -0.278749 -4.39216 0
M  V30 2148 H 194.537 -0.188314 -0.712535 0
M  V30 2149 H 197.179 -1.11689 -1.53706 0
M  V30 2150 H 195.329 -0.284826 -3.87455 0
M  V30 2151 H 197.001 -2.88042 -3.60319 0
M  V30 2152 H 195.244 -2.76257 -3.34462 0
M  V30 2153 H 195.915 -2.44753 -4.94773 0
M  V30 2154 H 198.391 -0.717825 -4.09862 0
M  V30 2155 H 197.267 -0.506353 -5.46559 0
M  V30 2156 H 197.528 0.820266 -4.34424 0
M  V30 2157 N 196.587 1.43421 -0.653314 0
M  V30 2158 C 197.55 2.29182 0.0287951 0
M  V30 2159 C 198.55 1.42213 0.750465 0
M  V30 2160 O 199.74 1.63843 0.591701 0
M  V30 2161 C 196.872 3.24278 1.05151 0
M  V30 2162 H 198.065 2.90985 -0.725786 0
M  V30 2163 H 195.618 1.50702 -0.414545 0
M  V30 2164 H 196.353 2.6737 1.83532 0
M  V30 2165 H 196.138 3.88396 0.537687 0
M  V30 2166 H 197.628 3.88647 1.52786 0
M  V30 2167 N 198.065 0.39524 1.52563 0
M  V30 2168 C 198.995 -0.428384 2.29537 0
M  V30 2169 C 199.976 -1.05831 1.33169 0
M  V30 2170 O 201.161 -1.06995 1.62067 0
M  V30 2171 C 198.291 -1.55274 3.10656 0
M  V30 2172 C 197.245 -1.04855 4.14957 0
M  V30 2173 C 196.571 -2.26543 4.84337 0
M  V30 2174 C 197.871 -0.112324 5.22179 0
M  V30 2175 H 199.565 0.213867 2.98635 0
M  V30 2176 H 197.111 0.104298 1.43622 0
M  V30 2177 H 199.064 -2.1358 3.63265 0
M  V30 2178 H 197.788 -2.22266 2.39302 0
M  V30 2179 H 196.447 -0.487985 3.63338 0
M  V30 2180 H 196.095 -2.92059 4.09525 0
M  V30 2181 H 195.795 -1.93466 5.54837 0
M  V30 2182 H 197.319 -2.85481 5.39753 0
M  V30 2183 H 198.733 -0.603752 5.70112 0
M  V30 2184 H 197.13 0.128968 5.99961 0
M  V30 2185 H 198.2 0.837052 4.77621 0
M  V30 2186 N 199.544 -1.57102 0.125237 0
M  V30 2187 C 200.772 -1.99761 -0.538797 0
M  V30 2188 C 201.187 -1.00503 -1.59827 0
M  V30 2189 O 200.544 0.00119474 -1.825 0
M  V30 2190 C 200.595 -3.42408 -1.15927 0
M  V30 2191 O 200.316 -4.37869 -0.142143 0
M  V30 2192 C 201.817 -4.00232 -1.90602 0
M  V30 2193 H 199.037 -0.655772 -0.14214 0
M  V30 2194 H 201.581 -2.03383 0.213413 0
M  V30 2195 H 199.736 -3.39706 -1.86223 0
M  V30 2196 H 200.15 -5.21128 -0.593775 0
M  V30 2197 H 201.624 -5.02105 -2.29335 0
M  V30 2198 H 202.101 -3.39721 -2.78363 0
M  V30 2199 H 202.707 -4.06499 -1.25055 0
M  V30 2200 N 201.022 0.148545 -1.56898 0
M  V30 2201 C 201.952 1.18524 -2.01182 0
M  V30 2202 C 202.933 1.4489 -0.891123 0
M  V30 2203 O 204.118 1.55836 -1.15882 0
M  V30 2204 C 201.248 2.51879 -2.39112 0
M  V30 2205 C 200.202 2.40038 -3.54353 0
M  V30 2206 C 199.528 3.78089 -3.78091 0
M  V30 2207 C 200.828 1.88577 -4.87069 0
M  V30 2208 H 202.522 0.817029 -2.88036 0
M  V30 2209 H 200.068 0.391575 -1.38574 0
M  V30 2210 H 202.021 3.24627 -2.68692 0
M  V30 2211 H 200.745 2.90532 -1.49193 0
M  V30 2212 H 199.404 1.69742 -3.24936 0
M  V30 2213 H 199.052 4.14175 -2.85426 0
M  V30 2214 H 198.752 3.71028 -4.55645 0
M  V30 2215 H 200.276 4.52387 -4.10095 0
M  V30 2216 H 201.69 2.51117 -5.15377 0
M  V30 2217 H 200.087 1.9241 -5.68417 0
M  V30 2218 H 201.157 0.84136 -4.77545 0
M  V30 2219 N 202.5 1.5196 0.417844 0
M  V30 2220 C 203.463 1.74065 1.49111 0
M  V30 2221 C 204.463 0.610537 1.48758 0
M  V30 2222 O 205.653 0.87832 1.50437 0
M  V30 2223 C 202.785 1.81502 2.88565 0
M  V30 2224 H 203.978 2.69869 1.30807 0
M  V30 2225 H 201.531 1.42244 0.647785 0
M  V30 2226 H 202.266 0.875813 3.1225 0
M  V30 2227 H 202.051 2.63651 2.90225 0
M  V30 2228 H 203.541 2.00376 3.66387 0
M  V30 2229 N 203.978 -0.674533 1.42435 0
M  V30 2230 C 204.91 -1.80005 1.41883 0
M  V30 2231 C 205.923 -1.59667 0.31787 0
M  V30 2232 O 207.112 -1.68781 0.580973 0
M  V30 2233 C 204.212 -3.17114 1.19549 0
M  V30 2234 C 203.385 -3.64299 2.42084 0
M  V30 2235 C 202.444 -4.80142 2.15291 0
M  V30 2236 O 201.47 -4.90673 2.88493 0
M  V30 2237 N 202.672 -5.68869 1.1562 0
M  V30 2238 H 205.437 -1.80964 2.38898 0
M  V30 2239 H 202.998 -0.857633 1.37318 0
M  V30 2240 H 204.99 -3.92267 0.995417 0
M  V30 2241 H 203.56 -3.11053 0.310569 0
M  V30 2242 H 202.78 -2.79822 2.77657 0
M  V30 2243 H 204.068 -3.92567 3.23679 0
M  V30 2244 H 203.466 -5.63012 0.550765 0
M  V30 2245 H 202.023 -6.43833 1.016 0
M  V30 2246 N 205.456 -1.28612 -0.910864 0
M  V30 2247 C 206.704 -1.15705 -1.65701 0
M  V30 2248 C 207.025 0.29416 -1.92769 0
M  V30 2249 O 206.295 1.20331 -1.54588 0
M  V30 2250 H 204.875 -0.425216 -0.614167 0
M  V30 2251 H 207.537 -1.61381 -1.0928 0
M  V30 2252 H 206.633 -1.6988 -2.61815 0
M  V30 2253 N 206.934 1.1197 -1.10907 0
M  V30 2254 C 208.211 1.79959 -0.766432 0
M  V30 2255 C 208.591 1.97466 0.746363 0
M  V30 2256 O 207.939 1.55491 1.67436 0
M  V30 2257 C 208.149 3.14009 -1.52314 0
M  V30 2258 C 209.497 3.89134 -1.69883 0
M  V30 2259 O 210.521 3.2368 -1.48692 0
M  V30 2260 O 209.38 5.06572 -2.05054 0
M  V30 2261 H 206.474 0.779208 -0.277062 0
M  V30 2262 H 209.02 1.18762 -1.21217 0
M  V30 2263 H 207.792 2.96587 -2.55249 0
M  V30 2264 H 207.415 3.82915 -1.07059 0
M  V30 2265 N 208.412 0.89855 1.29475 0
M  V30 2266 C 209.322 0.379974 2.31502 0
M  V30 2267 C 210.338 -0.524695 1.659 0
M  V30 2268 O 211.514 -0.414551 1.97087 0
M  V30 2269 C 208.579 -0.385138 3.44554 0
M  V30 2270 C 207.64 0.550914 4.2575 0
M  V30 2271 C 206.873 -0.177778 5.33404 0
M  V30 2272 O 207.096 -1.40189 5.52904 0
M  V30 2273 O 206.03 0.479106 5.9999 0
M  V30 2274 H 209.856 1.22639 2.77837 0
M  V30 2275 H 207.441 0.662834 1.33891 0
M  V30 2276 H 209.323 -0.817841 4.13388 0
M  V30 2277 H 207.998 -1.20763 3.0033 0
M  V30 2278 H 206.905 1.03271 3.59564 0
M  V30 2279 H 208.238 1.33979 4.73614 0
M  V30 2280 N 209.89 -1.43072 0.660911 0
M  V30 2281 C 211.118 -2.06067 0.185422 0
M  V30 2282 C 211.533 -1.49582 -1.15198 0
M  V30 2283 O 210.89 -0.630134 -1.71276 0
M  V30 2284 C 210.941 -3.61371 0.0966523 0
M  V30 2285 O 210.662 -4.15758 1.38119 0
M  V30 2286 C 212.163 -4.41455 -0.403996 0
M  V30 2287 H 209.383 -0.664459 0.0934604 0
M  V30 2288 H 211.927 -1.83447 0.90373 0
M  V30 2289 H 210.082 -3.8315 -0.572259 0
M  V30 2290 H 210.496 -5.09499 1.24542 0
M  V30 2291 H 211.97 -5.50437 -0.415045 0
M  V30 2292 H 212.447 -4.15036 -1.43674 0
M  V30 2293 H 213.053 -4.24663 0.232691 0
M  V30 2294 N 211.368 -0.403325 -1.52352 0
M  V30 2295 C 212.298 0.416205 -2.29761 0
M  V30 2296 C 213.279 1.05123 -1.33728 0
M  V30 2297 O 214.464 1.06134 -1.62632 0
M  V30 2298 C 211.594 1.53624 -3.11475 0
M  V30 2299 C 210.548 1.02653 -4.15507 0
M  V30 2300 C 209.874 2.23971 -4.85532 0
M  V30 2301 C 211.174 0.08463 -5.22231 0
M  V30 2302 H 212.868 -0.229701 -2.98518 0
M  V30 2303 H 210.414 -0.111913 -1.43564 0
M  V30 2304 H 212.367 2.1165 -3.64393 0
M  V30 2305 H 211.091 2.20994 -2.40477 0
M  V30 2306 H 209.75 0.46871 -3.63591 0
M  V30 2307 H 209.398 2.89883 -4.11068 0
M  V30 2308 H 209.098 1.90521 -5.55856 0
M  V30 2309 H 210.622 2.82614 -5.41259 0
M  V30 2310 H 212.036 0.573509 -5.70424 0
M  V30 2311 H 210.433 -0.160783 -5.99885 0
M  V30 2312 H 211.503 -0.86237 -4.7717 0
M  V30 2313 N 212.846 1.57033 -0.133567 0
M  V30 2314 C 213.809 2.14897 0.796995 0
M  V30 2315 C 214.809 1.0874 1.18458 0
M  V30 2316 O 215.999 1.34446 1.1077 0
M  V30 2317 C 213.131 2.70112 2.07973 0
M  V30 2318 H 214.324 2.98457 0.293873 0
M  V30 2319 H 211.877 1.55871 0.115787 0
M  V30 2320 H 212.612 1.9018 2.62682 0
M  V30 2321 H 212.397 3.47764 1.81115 0
M  V30 2322 H 213.887 3.14738 2.74462 0
M  V30 2323 N 214.325 -0.140222 1.56975 0
M  V30 2324 C 215.553 -0.866437 1.87884 0
M  V30 2325 C 215.968 -1.74428 0.722517 0
M  V30 2326 O 215.325 -1.79891 -0.30749 0
M  V30 2327 C 215.376 -1.71753 3.18093 0
M  V30 2328 O 215.097 -0.875056 4.29272 0
M  V30 2329 C 216.598 -2.55074 3.62563 0
M  V30 2330 H 213.818 -0.25019 0.622612 0
M  V30 2331 H 216.362 -0.130977 2.0408 0
M  V30 2332 H 214.517 -2.40598 3.03631 0
M  V30 2333 H 214.931 -1.46002 5.03769 0
M  V30 2334 H 216.405 -3.10356 4.5649 0
M  V30 2335 H 216.882 -3.31434 2.88181 0
M  V30 2336 H 217.488 -1.91509 3.79743 0
M  V30 2337 N 215.803 -1.52179 -0.40978 0
M  V30 2338 C 216.735 -1.71703 -1.51825 0
M  V30 2339 C 217.748 -0.597445 -1.51441 0
M  V30 2340 O 218.937 -0.872582 -1.55719 0
M  V30 2341 C 216.037 -1.74171 -2.90719 0
M  V30 2342 C 215.21 -3.03156 -3.15302 0
M  V30 2343 C 214.269 -2.97445 -4.34065 0
M  V30 2344 O 213.295 -3.71352 -4.31377 0
M  V30 2345 N 214.497 -2.15191 -5.39141 0
M  V30 2346 H 217.262 -2.67334 -1.35472 0
M  V30 2347 H 214.823 -1.50409 -0.599069 0
M  V30 2348 H 216.815 -1.67884 -3.68235 0
M  V30 2349 H 215.385 -0.860166 -3.00533 0
M  V30 2350 H 214.605 -3.23097 -2.25836 0
M  V30 2351 H 215.893 -3.88484 -3.28569 0
M  V30 2352 H 215.291 -1.54573 -5.44173 0
M  V30 2353 H 213.848 -2.1476 -6.15403 0
M  V30 2354 N 217.281 0.66697 -1.42791 0
M  V30 2355 C 218.211 1.79218 -1.49677 0
M  V30 2356 C 219.192 1.66405 -0.352623 0
M  V30 2357 O 220.377 1.85708 -0.567993 0
M  V30 2358 C 217.507 3.17565 -1.40605 0
M  V30 2359 C 216.461 3.45124 -2.53127 0
M  V30 2360 C 215.787 4.83127 -2.29112 0
M  V30 2361 C 217.087 3.41236 -3.95418 0
M  V30 2362 H 218.781 1.73713 -2.43853 0
M  V30 2363 H 216.327 0.83432 -1.17367 0
M  V30 2364 H 218.28 3.96022 -1.44029 0
M  V30 2365 H 217.004 3.23767 -0.429271 0
M  V30 2366 H 215.663 2.69031 -2.49034 0
M  V30 2367 H 215.311 4.85988 -1.29709 0
M  V30 2368 H 215.011 5.02528 -3.04531 0
M  V30 2369 H 216.535 5.63859 -2.34297 0
M  V30 2370 H 217.949 4.09651 -4.01073 0
M  V30 2371 H 216.346 3.72173 -4.70752 0
M  V30 2372 H 217.416 2.39665 -4.21532 0
M  V30 2373 N 218.759 1.29093 0.90403 0
M  V30 2374 C 219.987 1.19689 1.68766 0
M  V30 2375 C 220.402 -0.243113 1.87228 0
M  V30 2376 O 219.759 -1.16326 1.40621 0
M  V30 2377 C 219.81 1.90144 3.07453 0
M  V30 2378 O 219.531 3.2852 2.89838 0
M  V30 2379 C 221.032 1.87162 4.01852 0
M  V30 2380 H 218.252 0.415035 0.527244 0
M  V30 2381 H 220.796 1.7039 1.13082 0
M  V30 2382 H 218.951 1.43289 3.59926 0
M  V30 2383 H 219.365 3.63944 3.77684 0
M  V30 2384 H 220.839 2.41032 4.96596 0
M  V30 2385 H 221.316 0.84617 4.30972 0
M  V30 2386 H 221.922 2.33741 3.5531 0
M  V30 2387 N 220.237 -1.11381 1.11499 0
M  V30 2388 C 221.514 -1.7955 0.775965 0
M  V30 2389 C 221.894 -1.97859 -0.73588 0
M  V30 2390 O 221.242 -1.56376 -1.66609 0
M  V30 2391 C 221.452 -3.13196 1.53977 0
M  V30 2392 C 222.8 -3.88227 1.71944 0
M  V30 2393 O 223.824 -3.22887 1.50407 0
M  V30 2394 O 222.683 -5.05477 2.07738 0
M  V30 2395 H 219.777 -0.777728 0.28119 0
M  V30 2396 H 222.323 -1.18118 1.21845 0
M  V30 2397 H 221.095 -2.95229 2.56818 0
M  V30 2398 H 220.718 -3.82342 1.09088 0
M  V30 2399 N 221.715 -0.905404 -1.28997 0
M  V30 2400 C 222.625 -0.392246 -2.31298 0
M  V30 2401 C 223.641 0.515889 -1.66176 0
M  V30 2402 O 224.817 0.404093 -1.97304 0
M  V30 2403 C 221.882 0.36686 -3.44754 0
M  V30 2404 C 220.943 -0.573485 -4.25452 0
M  V30 2405 C 220.176 0.149488 -5.33491 0
M  V30 2406 O 220.399 1.37255 -5.5364 0
M  V30 2407 O 219.333 -0.510919 -5.99728 0
M  V30 2408 H 223.159 -1.2411 -2.77183 0
M  V30 2409 H 220.744 -0.669926 -1.33538 0
M  V30 2410 H 222.626 0.795907 -4.13816 0
M  V30 2411 H 221.301 1.19169 -3.00966 0
M  V30 2412 H 220.208 -1.05176 -3.59011 0
M  V30 2413 H 221.541 -1.36489 -4.72897 0
M  V30 2414 N 223.193 1.4272 -0.668489 0
M  V30 2415 C 224.126 2.28111 0.0637898 0
M  V30 2416 C 225.104 1.40705 0.814912 0
M  V30 2417 O 226.288 1.70146 0.81134 0
M  V30 2418 C 223.415 3.20429 1.0974 0
M  V30 2419 C 222.461 4.24197 0.442579 0
M  V30 2420 S 223.294 5.29563 -0.795173 0
M  V30 2421 C 224.45 6.25449 0.237516 0
M  V30 2422 H 224.683 2.8987 -0.660521 0
M  V30 2423 H 222.216 1.47456 -0.457821 0
M  V30 2424 H 224.174 3.74158 1.68868 0
M  V30 2425 H 222.835 2.57818 1.79411 0
M  V30 2426 H 222.028 4.88954 1.22227 0
M  V30 2427 H 221.63 3.73925 -0.0749554 0
M  V30 2428 H 223.922 6.68524 1.09915 0
M  V30 2429 H 224.865 7.07104 -0.375421 0
M  V30 2430 H 225.273 5.61511 0.580167 0
M  V30 2431 N 224.671 0.411399 1.52136 0
M  V30 2432 C 225.601 -0.404015 2.29978 0
M  V30 2433 C 226.582 -1.04412 1.34284 0
M  V30 2434 O 227.767 -1.0527 1.63192 0
M  V30 2435 C 224.897 -1.5197 3.12286 0
M  V30 2436 C 223.851 -1.00448 4.16046 0
M  V30 2437 C 223.177 -2.21393 4.86712 0
M  V30 2438 C 224.477 -0.0569336 5.22269 0
M  V30 2439 H 226.171 0.245529 2.98392 0
M  V30 2440 H 223.717 0.119525 1.43503 0
M  V30 2441 H 225.67 -2.09715 3.6551 0
M  V30 2442 H 224.394 -2.19716 2.41646 0
M  V30 2443 H 223.053 -0.449421 3.63835 0
M  V30 2444 H 222.701 -2.87699 4.12599 0
M  V30 2445 H 222.401 -1.87571 5.56858 0
M  V30 2446 H 223.925 -2.7974 5.4275 0
M  V30 2447 H 225.339 -0.54325 5.7072 0
M  V30 2448 H 223.736 0.192594 5.99791 0
M  V30 2449 H 224.806 0.887663 4.76706 0
M  V30 2450 N 226.149 -1.5696 0.141893 0
M  V30 2451 C 227.374 -2.00754 -0.520838 0
M  V30 2452 C 227.799 -1.0213 -1.57959 0
M  V30 2453 O 227.157 0.00371324 -1.813 0
M  V30 2454 C 227.205 -3.43318 -1.10294 0
M  V30 2455 O 226.309 -3.47679 -2.21795 0
M  V30 2456 H 225.65 -0.651564 -0.127908 0
M  V30 2457 H 228.18 -2.03221 0.23712 0
M  V30 2458 H 228.19 -3.82012 -1.43287 0
M  V30 2459 H 226.865 -4.14608 -0.327574 0
M  V30 2460 H 225.442 -3.20824 -1.9007 0
M  V30 2461 N 227.627 0.131896 -1.57047 0
M  V30 2462 C 228.875 0.840269 -1.83804 0
M  V30 2463 C 229.196 1.81017 -0.72512 0
M  V30 2464 O 228.466 1.94272 0.251995 0
M  V30 2465 H 227.046 0.313294 -0.678127 0
M  V30 2466 H 229.708 0.122294 -1.94516 0
M  V30 2467 H 228.804 1.39335 -2.79271 0
M  V30 2468 N 229.106 1.52395 0.401703 0
M  V30 2469 C 230.522 1.41363 0.740864 0
M  V30 2470 C 230.722 0.523982 1.94568 0
M  V30 2471 O 229.778 -0.00741204 2.52499 0
M  V30 2472 C 231.091 2.84011 0.987847 0
M  V30 2473 C 232.639 2.93404 1.09011 0
M  V30 2474 C 233.114 4.37036 1.3698 0
M  V30 2475 N 234.605 4.40304 1.43829 0
M  V30 2476 C 235.34 5.48508 1.67112 0
M  V30 2477 N 234.836 6.66819 1.87949 0
M  V30 2478 N 236.629 5.36034 1.69187 0
M  V30 2479 H 228.78 2.08765 -0.391262 0
M  V30 2480 H 231.043 0.941265 -0.112798 0
M  V30 2481 H 230.749 3.51265 0.174835 0
M  V30 2482 H 230.623 3.25502 1.906 0
M  V30 2483 H 233.01 2.26325 1.8937 0
M  V30 2484 H 233.091 2.55359 0.15015 0
M  V30 2485 H 232.735 5.04676 0.571353 0
M  V30 2486 H 232.665 4.72623 2.3224 0
M  V30 2487 H 235.156 3.55024 1.29486 0
M  V30 2488 H 235.469 7.45063 2.05185 0
M  V30 2489 H 233.814 6.6987 1.85199 0
M  V30 2490 H 237.005 4.42579 1.52451 0
M  V30 2491 H 237.178 6.20434 1.86993 0
M  V30 2492 N 230.584 -0.659388 1.43143 0
M  V30 2493 C 231.831 -1.41935 1.44433 0
M  V30 2494 C 232.159 -1.94387 0.0663522 0
M  V30 2495 O 231.414 -1.72314 -0.927706 0
M  V30 2496 C 231.713 -2.62206 2.42864 0
M  V30 2497 C 231.379 -2.28208 3.88886 0
M  V30 2498 C 230.041 -2.18647 4.28657 0
M  V30 2499 C 232.393 -2.00887 4.8093 0
M  V30 2500 C 229.721 -1.79914 5.58433 0
M  V30 2501 C 232.073 -1.63653 6.11065 0
M  V30 2502 C 230.737 -1.52614 6.49819 0
M  V30 2503 H 230.007 -0.519376 0.528517 0
M  V30 2504 H 232.654 -0.750453 1.76183 0
M  V30 2505 H 230.959 -3.34199 2.04495 0
M  V30 2506 H 232.656 -3.2041 2.41119 0
M  V30 2507 H 229.246 -2.36557 3.57406 0
M  V30 2508 H 233.43 -2.07198 4.5098 0
M  V30 2509 H 228.686 -1.69948 5.87305 0
M  V30 2510 H 232.86 -1.41543 6.81864 0
M  V30 2511 H 230.487 -1.22371 7.50286 0
M  V30 2512 N 232.062 -1.29571 -0.897171 0
M  V30 2513 C 232.994 -1.10724 -2.00681 0
M  V30 2514 C 234.007 -0.0540026 -1.6271 0
M  V30 2515 O 235.196 -0.298783 -1.75982 0
M  V30 2516 C 232.296 -0.663912 -3.32333 0
M  V30 2517 C 231.469 -1.79622 -3.98816 0
M  V30 2518 C 230.528 -1.34349 -5.0876 0
M  V30 2519 O 229.554 -2.04864 -5.31055 0
M  V30 2520 N 230.756 -0.215764 -5.80099 0
M  V30 2521 H 233.521 -2.06291 -2.17403 0
M  V30 2522 H 231.082 -1.21544 -1.06951 0
M  V30 2523 H 233.074 -0.344295 -4.03233 0
M  V30 2524 H 231.644 0.199375 -3.11964 0
M  V30 2525 H 230.864 -2.28459 -3.21248 0
M  V30 2526 H 232.152 -2.55535 -4.39976 0
M  V30 2527 H 231.55 0.372091 -5.64475 0
M  V30 2528 H 230.107 0.0444707 -6.51785 0
M  V30 2529 N 233.54 1.10788 -1.12088 0
M  V30 2530 C 234.951 1.64181 -0.88891 0
M  V30 2531 C 235.302 1.87508 0.577498 0
M  V30 2532 O 234.427 1.61434 1.44112 0
M  V30 2533 C 235.022 2.98257 -1.60712 0
M  V30 2534 C 233.581 3.4853 -1.42139 0
M  V30 2535 C 232.728 2.23208 -1.6454 0
M  V30 2536 H 235.679 0.943368 -1.27618 0
M  V30 2537 H 235.7 3.65552 -1.05604 0
M  V30 2538 H 235.212 2.81246 -2.67436 0
M  V30 2539 H 233.313 3.70692 -0.376552 0
M  V30 2540 H 233.426 4.26882 -2.17505 0
M  V30 2541 H 231.79 2.31169 -1.06925 0
M  V30 2542 H 232.573 2.08733 -2.72554 0
M  V30 2543 N 235.018 0.912232 1.28515 0
M  V30 2544 C 235.981 0.404223 2.25607 0
M  V30 2545 C 236.981 -0.468602 1.53821 0
M  V30 2546 O 238.171 -0.271873 1.72065 0
M  V30 2547 C 235.303 -0.420653 3.38295 0
M  V30 2548 H 236.496 1.26188 2.7206 0
M  V30 2549 H 234.049 0.691495 1.40171 0
M  V30 2550 H 234.784 -1.29777 2.97201 0
M  V30 2551 H 234.569 0.204935 3.91564 0
M  V30 2552 H 236.059 -0.766971 4.10496 0
M  V30 2553 N 236.496 -1.42363 0.676048 0
M  V30 2554 C 237.724 -2.05859 0.207268 0
M  V30 2555 C 238.139 -1.50796 -1.13605 0
M  V30 2556 O 237.496 -0.648265 -1.70598 0
M  V30 2557 C 237.547 -3.61248 0.134975 0
M  V30 2558 O 237.268 -4.1427 1.42521 0
M  V30 2559 C 238.769 -4.41859 -0.357151 0
M  V30 2560 H 235.989 -0.663431 0.100503 0
M  V30 2561 H 238.533 -1.82479 0.923136 0
M  V30 2562 H 236.688 -3.83735 -0.531588 0
M  V30 2563 H 237.102 -5.0815 1.29939 0
M  V30 2564 H 238.576 -5.50847 -0.356641 0
M  V30 2565 H 239.053 -4.16536 -1.39264 0
M  V30 2566 H 239.659 -4.24392 0.27772 0
M  V30 2567 N 237.974 -0.419461 -1.51915 0
M  V30 2568 C 239.385 0.0477853 -1.86639 0
M  V30 2569 C 239.736 1.43531 -1.33766 0
M  V30 2570 O 238.861 2.05401 -0.68113 0
M  V30 2571 C 239.456 0.0934885 -3.38671 0
M  V30 2572 C 238.015 0.505097 -3.72996 0
M  V30 2573 C 237.162 -0.313792 -2.75519 0
M  V30 2574 H 240.113 -0.636088 -1.45395 0
M  V30 2575 H 240.134 0.906667 -3.6954 0
M  V30 2576 H 239.646 -0.916501 -3.77123 0
M  V30 2577 H 237.747 1.52135 -3.40126 0
M  V30 2578 H 237.86 0.242309 -4.78487 0
M  V30 2579 H 236.224 0.225363 -2.53701 0
M  V30 2580 H 237.007 -1.32232 -3.16812 0
M  V30 2581 N 239.452 1.56882 -0.150215 0
M  V30 2582 C 240.68 2.00593 0.506948 0
M  V30 2583 C 241.095 1.03033 1.58208 0
M  V30 2584 O 240.452 0.0278396 1.82479 0
M  V30 2585 C 240.503 3.44209 1.10465 0
M  V30 2586 O 240.224 4.3804 0.0724636 0
M  V30 2587 C 241.725 4.03214 1.84211 0
M  V30 2588 H 238.945 0.65795 0.13169 0
M  V30 2589 H 241.489 2.03018 -0.245743 0
M  V30 2590 H 239.644 3.42625 1.80795 0
M  V30 2591 H 240.058 5.22007 0.510793 0
M  V30 2592 H 241.532 5.0569 2.21318 0
M  V30 2593 H 242.009 3.44107 2.72923 0
M  V30 2594 H 242.615 4.08437 1.18572 0
M  V30 2595 N 240.93 -0.123565 1.57115 0
M  V30 2596 C 242.177 -0.832153 1.84612 0
M  V30 2597 C 242.505 -1.80093 0.734627 0
M  V30 2598 O 241.76 -1.93766 -0.27442 0
M  V30 2599 C 242.059 -1.62016 3.18568 0
M  V30 2600 C 241.725 -0.796084 4.43817 0
M  V30 2601 C 240.387 -0.568816 4.77826 0
M  V30 2602 C 242.739 -0.221364 5.2073 0
M  V30 2603 C 240.067 0.243499 5.86194 0
M  V30 2604 C 242.419 0.578117 6.29953 0
M  V30 2605 C 241.083 0.815744 6.62497 0
M  V30 2606 H 240.353 -0.304507 0.675542 0
M  V30 2607 H 243 -0.0947248 1.91266 0
M  V30 2608 H 241.305 -2.42837 3.0747 0
M  V30 2609 H 243.002 -2.17231 3.37064 0
M  V30 2610 H 239.592 -0.983307 4.17168 0
M  V30 2611 H 243.776 -0.384173 4.94811 0
M  V30 2612 H 239.032 0.436871 6.09837 0
M  V30 2613 H 243.206 1.03046 6.88734 0
M  V30 2614 H 240.833 1.44701 7.46301 0
M  V30 2615 N 242.408 -1.52605 -0.393616 0
M  V30 2616 C 243.338 -1.80022 -1.48709 0
M  V30 2617 C 244.319 -0.651995 -1.57108 0
M  V30 2618 O 245.504 -0.89913 -1.72132 0
M  V30 2619 C 242.634 -1.96492 -2.86371 0
M  V30 2620 C 241.588 -3.12161 -2.92813 0
M  V30 2621 C 240.914 -3.13877 -4.3288 0
M  V30 2622 C 242.214 -4.51322 -2.6288 0
M  V30 2623 H 243.908 -2.71589 -1.26015 0
M  V30 2624 H 241.454 -1.30684 -0.604778 0
M  V30 2625 H 243.407 -2.14255 -3.62867 0
M  V30 2626 H 242.131 -1.01611 -3.10391 0
M  V30 2627 H 240.79 -2.94173 -2.18764 0
M  V30 2628 H 240.438 -2.16687 -4.53933 0
M  V30 2629 H 240.138 -3.91576 -4.38112 0
M  V30 2630 H 241.662 -3.33789 -5.1129 0
M  V30 2631 H 243.076 -4.69435 -3.29096 0
M  V30 2632 H 241.473 -5.31053 -2.79468 0
M  V30 2633 H 242.543 -4.58353 -1.58242 0
M  V30 2634 N 243.887 0.651787 -1.4349 0
M  V30 2635 C 244.835 1.78586 -1.49029 0
M  V30 2636 C 245.829 1.65448 -0.363767 0
M  V30 2637 O 247.035 1.71777 -0.537821 0
M  V30 2638 H 243.41 0.589236 -0.467231 0
M  V30 2639 H 245.381 1.71035 -2.44519 0
M  V30 2640 C 244.13 3.16851 -1.43181 0
M  V30 2641 H 243.453 3.27598 -2.29171 0
M  V30 2642 H 244.893 3.96156 -1.51118 0
M  V30 2643 C 243.352 3.36568 -0.149616 0
M  V30 2644 O 243.882 3.93885 0.788509 0
M  V30 2645 N 242.088 2.90539 -0.0593484 0
M  V30 2646 H 241.635 2.4408 -0.823575 0
M  V30 2647 H 241.593 3.04108 0.797853 0
M  V30 2648 N 245.365 1.30045 0.890287 0
M  V30 2649 C 246.605 1.19839 1.65584 0
M  V30 2650 C 246.969 -0.244175 1.90441 0
M  V30 2651 O 248.17 -0.469378 2.6467 0
M  V30 2652 C 246.441 1.99876 2.96284 0
M  V30 2653 S 248 2.06309 3.87275 0
M  V30 2654 H 244.818 0.427157 0.568382 0
M  V30 2655 H 247.42 1.64453 1.05715 0
M  V30 2656 H 246.124 3.03809 2.75913 0
M  V30 2657 H 245.655 1.55903 3.61189 0
M  V30 2658 H 247.67 1.18661 4.81803 0
M  V30 2659 N 246.843 -1.10192 1.12674 0
M  V30 2660 C 248.091 -1.81845 0.881861 0
M  V30 2661 C 248.412 -1.85737 -0.593867 0
M  V30 2662 O 247.682 -1.33724 -1.4316 0
M  V30 2663 H 246.262 -0.673432 0.323261 0
M  V30 2664 H 248.924 -1.33316 1.42172 0
M  V30 2665 H 248.02 -2.85288 1.2656 0
M  V30 2666 N 248.321 -0.919034 -1.28029 0
M  V30 2667 C 249.268 -0.410005 -2.27129 0
M  V30 2668 C 250.238 0.518405 -1.57803 0
M  V30 2669 O 251.423 0.439451 -1.8567 0
M  V30 2670 C 248.563 0.339054 -3.4343 0
M  V30 2671 C 247.676 -0.622468 -4.27492 0
M  V30 2672 C 246.811 0.145567 -5.31001 0
M  V30 2673 C 245.85 -0.809226 -6.06727 0
M  V30 2674 N 244.987 -0.0743728 -7.02061 0
M  V30 2675 H 249.827 -1.26011 -2.70047 0
M  V30 2676 H 247.364 -0.632663 -1.328 0
M  V30 2677 H 249.322 0.789586 -4.0966 0
M  V30 2678 H 247.952 1.15346 -3.01488 0
M  V30 2679 H 247.004 -1.19153 -3.61257 0
M  V30 2680 H 248.316 -1.35252 -4.80113 0
M  V30 2681 H 247.47 0.656417 -6.03139 0
M  V30 2682 H 246.209 0.908643 -4.79161 0
M  V30 2683 H 245.214 -1.3314 -5.33436 0
M  V30 2684 H 246.439 -1.57194 -6.60656 0
M  V30 2685 H 244.385 0.670616 -6.52563 0
M  V30 2686 H 244.302 -0.744157 -7.52329 0
M  V30 2687 H 245.57 0.416109 -7.78389 0
M  V30 2688 N 249.799 1.42003 -0.683588 0
M  V30 2689 C 250.731 2.29183 0.0283068 0
M  V30 2690 C 251.744 1.4415 0.756611 0
M  V30 2691 O 252.933 1.67779 0.609306 0
M  V30 2692 C 250.033 3.21765 1.06398 0
M  V30 2693 C 249.206 4.35496 0.407723 0
M  V30 2694 C 248.265 5.08737 1.34437 0
M  V30 2695 O 247.291 5.62948 0.841318 0
M  V30 2696 N 248.493 5.15075 2.67728 0
M  V30 2697 H 251.258 2.9092 -0.720105 0
M  V30 2698 H 248.819 1.53025 -0.528682 0
M  V30 2699 H 250.811 3.6763 1.69204 0
M  V30 2700 H 249.381 2.61418 1.71404 0
M  V30 2701 H 248.601 3.92165 -0.400012 0
M  V30 2702 H 249.889 5.08776 -0.0490956 0
M  V30 2703 H 249.287 4.72457 3.11129 0
M  V30 2704 H 247.844 5.64556 3.2576 0
M  V30 2705 N 251.277 0.427512 1.51691 0
M  V30 2706 C 252.209 -0.424521 2.25234 0
M  V30 2707 C 253.222 -0.994671 1.2888 0
M  V30 2708 O 254.411 -0.890483 1.54702 0
M  V30 2709 C 251.511 -1.60479 2.98496 0
M  V30 2710 C 250.684 -1.15527 4.21868 0
M  V30 2711 C 249.743 -2.20454 4.77793 0
M  V30 2712 O 248.769 -1.8029 5.39893 0
M  V30 2713 N 249.971 -3.52831 4.60967 0
M  V30 2714 H 252.736 0.205749 2.98993 0
M  V30 2715 H 250.297 0.255867 1.59865 0
M  V30 2716 H 252.289 -2.30276 3.32799 0
M  V30 2717 H 250.859 -2.14061 2.27809 0
M  V30 2718 H 250.079 -0.284736 3.9317 0
M  V30 2719 H 251.367 -0.832173 5.01949 0
M  V30 2720 H 250.765 -3.88201 4.11481 0
M  V30 2721 H 249.322 -4.18551 4.99658 0
M  V30 2722 N 252.755 -1.56801 0.158532 0
M  V30 2723 C 254.171 -1.5837 -0.197774 0
M  V30 2724 C 254.371 -1.17334 -1.63814 0
M  V30 2725 O 253.427 -0.878988 -2.36707 0
M  V30 2726 C 254.74 -3.00615 0.0714459 0
M  V30 2727 C 256.288 -3.12999 0.00864533 0
M  V30 2728 C 256.763 -4.57313 0.250685 0
M  V30 2729 N 258.254 -4.62777 0.198014 0
M  V30 2730 C 258.989 -5.72271 0.359642 0
M  V30 2731 N 258.485 -6.90371 0.579625 0
M  V30 2732 N 260.278 -5.61318 0.296438 0
M  V30 2733 H 252.429 -1.81765 1.09887 0
M  V30 2734 H 254.692 -0.841849 0.435884 0
M  V30 2735 H 254.398 -3.35068 1.06874 0
M  V30 2736 H 254.272 -3.71683 -0.642757 0
M  V30 2737 H 256.659 -2.7838 -0.979217 0
M  V30 2738 H 256.74 -2.44393 0.755359 0
M  V30 2739 H 256.384 -4.92639 1.2357 0
M  V30 2740 H 256.314 -5.24061 -0.516489 0
M  V30 2741 H 258.805 -3.77885 0.0331115 0
M  V30 2742 H 259.118 -7.69689 0.69275 0
M  V30 2743 H 257.463 -6.92264 0.616087 0
M  V30 2744 H 260.654 -4.67932 0.125258 0
M  V30 2745 H 260.827 -6.46599 0.425831 0
M  V30 2746 N 254.233 0.115231 -1.57178 0
M  V30 2747 C 255.481 0.820727 -1.84685 0
M  V30 2748 C 255.802 1.80237 -0.744279 0
M  V30 2749 O 255.072 1.94529 0.231375 0
M  V30 2750 H 253.652 0.306084 -0.681411 0
M  V30 2751 H 256.314 0.101656 -1.94635 0
M  V30 2752 H 255.41 1.36366 -2.80733 0
M  V30 2753 N 255.711 1.52812 0.385517 0
M  V30 2754 C 256.621 1.80766 1.49535 0
M  V30 2755 C 257.637 0.694651 1.59532 0
M  V30 2756 O 258.813 0.982611 1.75803 0
M  V30 2757 C 255.878 1.97381 2.85029 0
M  V30 2758 C 254.939 3.21295 2.84724 0
M  V30 2759 C 254.172 3.37108 4.13756 0
M  V30 2760 O 254.395 2.5765 5.08893 0
M  V30 2761 O 253.329 4.30378 4.20783 0
M  V30 2762 H 257.155 2.75015 1.28842 0
M  V30 2763 H 254.74 1.37946 0.573697 0
M  V30 2764 H 256.622 2.09996 3.65349 0
M  V30 2765 H 255.297 1.06322 3.05741 0
M  V30 2766 H 254.204 3.1412 2.03174 0
M  V30 2767 H 255.537 4.12212 2.68965 0
M  V30 2768 N 257.189 -0.644168 1.43834 0
M  V30 2769 C 258.119 -1.76814 1.52509 0
M  V30 2770 C 259.1 -1.65823 0.379052 0
M  V30 2771 O 260.285 -1.84781 0.597466 0
M  V30 2772 C 257.415 -3.15288 1.4564 0
M  V30 2773 C 256.369 -3.41053 2.58586 0
M  V30 2774 C 255.695 -4.79421 2.36769 0
M  V30 2775 C 256.995 -3.34902 4.00797 0
M  V30 2776 H 258.689 -1.69812 2.46586 0
M  V30 2777 H 256.235 -0.815542 1.1868 0
M  V30 2778 H 258.188 -3.93681 1.50311 0
M  V30 2779 H 256.912 -3.23043 0.480725 0
M  V30 2780 H 255.571 -2.65035 2.53282 0
M  V30 2781 H 255.219 -4.83863 1.37424 0
M  V30 2782 H 254.919 -4.9762 3.12487 0
M  V30 2783 H 256.443 -5.6006 2.43238 0
M  V30 2784 H 257.857 -4.03218 4.07539 0
M  V30 2785 H 256.254 -3.64637 4.76613 0
M  V30 2786 H 257.324 -2.32928 4.25291 0
M  V30 2787 N 258.668 -1.30515 -0.883378 0
M  V30 2788 C 259.914 -1.19607 -1.63774 0
M  V30 2789 C 260.247 0.248314 -1.92606 0
M  V30 2790 O 259.522 1.17742 -1.54813 0
M  V30 2791 C 259.805 -2.02669 -2.97653 0
M  V30 2792 C 259.658 -3.55335 -2.75784 0
M  V30 2793 C 260.977 -1.86573 -3.98596 0
M  V30 2794 H 258.096 -0.435856 -0.594305 0
M  V30 2795 H 260.738 -1.60165 -1.02212 0
M  V30 2796 H 258.888 -1.68208 -3.50197 0
M  V30 2797 H 260.56 -3.99863 -2.30016 0
M  V30 2798 H 258.803 -3.79438 -2.1026 0
M  V30 2799 H 259.474 -4.08745 -3.70988 0
M  V30 2800 H 261.95 -2.16703 -3.55217 0
M  V30 2801 H 260.826 -2.47014 -4.90179 0
M  V30 2802 H 261.087 -0.825321 -4.34328 0
M  V30 2803 N 260.146 1.09593 -1.13257 0
M  V30 2804 C 261.371 1.8604 -0.916732 0
M  V30 2805 C 261.796 1.80504 0.529146 0
M  V30 2806 O 261.154 1.18127 1.37534 0
M  V30 2807 C 261.202 3.32017 -1.40703 0
M  V30 2808 O 260.306 4.08141 -0.591153 0
M  V30 2809 H 259.647 0.576943 -0.328683 0
M  V30 2810 H 262.177 1.38405 -1.50682 0
M  V30 2811 H 262.187 3.82865 -1.4099 0
M  V30 2812 H 260.862 3.35361 -2.45979 0
M  V30 2813 H 259.439 3.67084 -0.656005 0
M  V30 2814 N 261.624 0.925811 1.2754 0
M  V30 2815 C 262.864 0.572521 1.96218 0
M  V30 2816 C 263.228 -0.869719 1.71172 0
M  V30 2817 O 264.429 -1.33119 2.33523 0
M  V30 2818 C 262.7 0.887325 3.4621 0
M  V30 2819 S 264.259 0.642266 4.34074 0
M  V30 2820 H 261.077 0.211403 0.678845 0
M  V30 2821 H 263.679 1.19384 1.54815 0
M  V30 2822 H 262.383 1.93469 3.61936 0
M  V30 2823 H 261.914 0.255123 3.92572 0
M  V30 2824 H 263.929 -0.500822 4.93666 0
M  V30 2825 N 263.102 -1.41638 0.69111 0
M  V30 2826 C 264.349 -2.01299 0.220193 0
M  V30 2827 C 264.677 -1.54715 -1.17871 0
M  V30 2828 O 263.932 -0.747193 -1.80874 0
M  V30 2829 C 264.231 -3.56714 0.221277 0
M  V30 2830 C 263.897 -4.22792 1.56709 0
M  V30 2831 C 262.559 -4.40557 1.93554 0
M  V30 2832 C 264.911 -4.59883 2.45268 0
M  V30 2833 C 262.239 -4.92688 3.18552 0
M  V30 2834 C 264.591 -5.13403 3.69595 0
M  V30 2835 C 263.255 -5.29379 4.06589 0
M  V30 2836 H 262.525 -0.736606 0.0805743 0
M  V30 2837 H 265.172 -1.69598 0.889319 0
M  V30 2838 H 263.477 -3.8818 -0.531391 0
M  V30 2839 H 265.174 -4.00678 -0.160547 0
M  V30 2840 H 261.764 -4.09336 1.2705 0
M  V30 2841 H 265.948 -4.45817 2.18084 0
M  V30 2842 H 261.204 -5.03242 3.47214 0
M  V30 2843 H 265.378 -5.41084 4.38407 0
M  V30 2844 H 263.005 -5.69537 5.03519 0
M  V30 2845 N 264.58 -0.43555 -1.51462 0
M  V30 2846 C 265.51 0.367376 -2.30592 0
M  V30 2847 C 266.491 1.02263 -1.35928 0
M  V30 2848 O 267.676 1.02661 -1.64847 0
M  V30 2849 C 264.806 1.46983 -3.14664 0
M  V30 2850 C 263.76 0.938161 -4.17591 0
M  V30 2851 C 263.086 2.13622 -4.90173 0
M  V30 2852 C 264.386 -0.0261621 -5.22293 0
M  V30 2853 H 266.08 -0.292969 -2.97963 0
M  V30 2854 H 263.626 -0.14234 -1.43295 0
M  V30 2855 H 265.579 2.03873 -3.688 0
M  V30 2856 H 264.303 2.15843 -2.4511 0
M  V30 2857 H 262.962 0.391481 -3.64504 0
M  V30 2858 H 262.61 2.81098 -4.17124 0
M  V30 2859 H 262.31 1.78688 -5.59772 0
M  V30 2860 H 263.834 2.7107 -5.47132 0
M  V30 2861 H 265.248 0.452384 -5.71512 0
M  V30 2862 H 263.645 -0.287992 -5.99409 0
M  V30 2863 H 264.715 -0.963391 -4.75233 0
M  V30 2864 N 266.058 1.56714 -0.166846 0
M  V30 2865 C 266.988 2.20754 0.760913 0
M  V30 2866 C 267.969 1.16178 1.24244 0
M  V30 2867 O 269.154 1.44592 1.29641 0
M  V30 2868 C 266.284 2.84478 1.99223 0
M  V30 2869 C 265.238 3.95053 1.64672 0
M  V30 2870 C 264.564 4.45805 2.95232 0
M  V30 2871 C 265.864 5.14865 0.878155 0
M  V30 2872 H 267.558 2.98537 0.22713 0
M  V30 2873 H 265.104 1.43596 0.107805 0
M  V30 2874 H 267.057 3.27951 2.64624 0
M  V30 2875 H 265.781 2.04056 2.55007 0
M  V30 2876 H 264.44 3.52228 1.01641 0
M  V30 2877 H 264.088 3.62181 3.49047 0
M  V30 2878 H 263.788 5.204 2.7287 0
M  V30 2879 H 265.312 4.91962 3.6167 0
M  V30 2880 H 266.726 5.55059 1.43466 0
M  V30 2881 H 265.123 5.95348 0.753738 0
M  V30 2882 H 266.193 4.84735 -0.126377 0
M  V30 2883 N 267.536 -0.106894 1.57237 0
M  V30 2884 C 268.952 -0.46078 1.52804 0
M  V30 2885 C 269.152 -1.81184 0.881746 0
M  V30 2886 O 268.208 -2.48102 0.469224 0
M  V30 2887 C 269.521 -0.434127 2.9755 0
M  V30 2888 C 271.069 -0.516821 3.08704 0
M  V30 2889 C 271.544 -0.520436 4.55033 0
M  V30 2890 N 273.035 -0.58153 4.59535 0
M  V30 2891 C 273.77 -0.605973 5.70189 0
M  V30 2892 N 273.266 -0.587331 6.90306 0
M  V30 2893 N 275.059 -0.649895 5.5833 0
M  V30 2894 H 267.21 0.778203 1.9763 0
M  V30 2895 H 269.473 0.288403 0.903066 0
M  V30 2896 H 269.179 0.491197 3.48253 0
M  V30 2897 H 269.053 -1.25748 3.55622 0
M  V30 2898 H 271.44 -1.43256 2.57995 0
M  V30 2899 H 271.521 0.334449 2.53604 0
M  V30 2900 H 271.165 0.391313 5.0639 0
M  V30 2901 H 271.095 -1.38876 5.07958 0
M  V30 2902 H 273.586 -0.60161 3.73081 0
M  V30 2903 H 273.899 -0.60894 7.70397 0
M  V30 2904 H 272.244 -0.554564 6.92784 0
M  V30 2905 H 275.435 -0.661907 4.63397 0
M  V30 2906 H 275.608 -0.665476 6.44574 0
M  V30 2907 N 269.014 -1.53014 -0.377408 0
M  V30 2908 C 270.263 -1.67845 -1.11853 0
M  V30 2909 C 270.576 -0.430625 -1.90801 0
M  V30 2910 O 271.782 -0.459261 -2.67587 0
M  V30 2911 C 270.238 -2.96668 -2.03756 0
M  V30 2912 C 269.846 -4.28671 -1.30175 0
M  V30 2913 C 271.59 -3.20865 -2.77932 0
M  V30 2914 C 269.497 -5.48591 -2.20911 0
M  V30 2915 H 268.427 -0.625343 -0.421263 0
M  V30 2916 H 271.078 -1.79514 -0.380409 0
M  V30 2917 H 269.46 -2.78773 -2.8125 0
M  V30 2918 H 270.634 -4.57157 -0.578259 0
M  V30 2919 H 268.949 -4.10825 -0.679108 0
M  V30 2920 H 271.546 -4.07642 -3.46024 0
M  V30 2921 H 271.889 -2.36424 -3.4265 0
M  V30 2922 H 272.422 -3.39379 -2.07525 0
M  V30 2923 H 269.161 -6.35474 -1.6079 0
M  V30 2924 H 268.681 -5.244 -2.91144 0
M  V30 2925 H 270.36 -5.8292 -2.80736 0
M  V30 2926 N 270.492 0.636531 -1.44174 0
M  V30 2927 C 271.402 1.77754 -1.53103 0
M  V30 2928 C 272.418 1.68928 -0.417034 0
M  V30 2929 O 273.594 1.89801 -0.6736 0
M  V30 2930 C 270.659 3.14115 -1.46741 0
M  V30 2931 C 269.72 3.34612 -2.68948 0
M  V30 2932 C 268.953 4.64467 -2.6288 0
M  V30 2933 O 269.176 5.44919 -1.68581 0
M  V30 2934 O 268.11 4.87049 -3.53648 0
M  V30 2935 H 271.936 1.73174 -2.49489 0
M  V30 2936 H 269.521 0.79709 -1.2636 0
M  V30 2937 H 271.403 3.95412 -1.45696 0
M  V30 2938 H 270.078 3.19249 -0.534975 0
M  V30 2939 H 268.985 2.53014 -2.75562 0
M  V30 2940 H 270.318 3.34336 -3.61221 0
M  V30 2941 N 271.97 1.30982 0.876444 0
M  V30 2942 C 273.247 1.10942 1.61094 0
M  V30 2943 C 273.627 -0.338223 2.08373 0
M  V30 2944 O 272.975 -1.33122 1.85717 0
M  V30 2945 C 273.185 2.11789 2.77392 0
M  V30 2946 C 274.533 2.43965 3.47514 0
M  V30 2947 O 275.557 2.10166 2.87591 0
M  V30 2948 O 274.416 3.01817 4.55597 0
M  V30 2949 H 271.51 0.42667 0.708436 0
M  V30 2950 H 274.056 1.42438 0.922474 0
M  V30 2951 H 272.828 3.09194 2.39823 0
M  V30 2952 H 272.451 1.81161 3.5393 0
M  V30 2953 N 273.449 -1.08991 1.13837 0
M  V30 2954 C 274.397 -2.17841 0.815347 0
M  V30 2955 C 275.391 -1.68164 -0.204233 0
M  V30 2956 O 276.597 -1.79897 -0.0609304 0
M  V30 2957 H 272.972 -0.710654 0.245915 0
M  V30 2958 H 274.943 -2.42315 1.74143 0
M  V30 2959 C 273.692 -3.46381 0.302614 0
M  V30 2960 H 273.015 -3.84979 1.0785 0
M  V30 2961 H 274.455 -4.23844 0.115074 0
M  V30 2962 C 272.914 -3.22556 -0.972591 0
M  V30 2963 O 273.444 -3.45599 -2.04754 0
M  V30 2964 N 271.65 -2.76134 -0.905455 0
M  V30 2965 H 271.197 -2.57582 -0.0305421 0
M  V30 2966 H 271.155 -2.60571 -1.75926 0
M  V30 2967 N 274.927 -0.932562 -1.27047 0
M  V30 2968 C 275.86 -0.379774 -2.25018 0
M  V30 2969 C 276.838 0.526587 -1.53837 0
M  V30 2970 O 278.022 0.465992 -1.82649 0
M  V30 2971 C 275.149 0.455187 -3.35627 0
M  V30 2972 C 274.195 -0.388428 -4.24728 0
M  V30 2973 S 275.028 -1.80701 -5.04091 0
M  V30 2974 C 276.184 -0.979865 -6.18182 0
M  V30 2975 H 276.417 -1.2101 -2.71558 0
M  V30 2976 H 273.95 -0.735078 -1.35779 0
M  V30 2977 H 275.908 0.931052 -3.99802 0
M  V30 2978 H 274.569 1.26009 -2.87716 0
M  V30 2979 H 273.762 0.25089 -5.03375 0
M  V30 2980 H 273.364 -0.798649 -3.65373 0
M  V30 2981 H 275.656 -0.218115 -6.77149 0
M  V30 2982 H 276.599 -1.73951 -6.86401 0
M  V30 2983 H 277.007 -0.51973 -5.62102 0
M  V30 2984 N 276.405 1.4127 -0.698611 0
M  V30 2985 C 277.315 2.34573 -0.0357891 0
M  V30 2986 C 278.331 1.56393 0.762701 0
M  V30 2987 O 279.507 1.8886 0.699564 0
M  V30 2988 C 276.572 3.35159 0.887089 0
M  V30 2989 C 275.633 4.29225 0.0804634 0
M  V30 2990 C 274.866 5.25006 0.959387 0
M  V30 2991 O 275.089 5.26314 2.19886 0
M  V30 2992 O 274.023 6.00519 0.407439 0
M  V30 2993 H 277.849 2.92838 -0.804957 0
M  V30 2994 H 275.434 1.42175 -0.458966 0
M  V30 2995 H 277.316 3.9689 1.41621 0
M  V30 2996 H 275.991 2.79333 1.6357 0
M  V30 2997 H 274.898 3.70833 -0.493328 0
M  V30 2998 H 276.231 4.88157 -0.629547 0
M  V30 2999 N 277.883 0.443576 1.51229 0
M  V30 3000 C 279.108 -0.121648 2.07043 0
M  V30 3001 C 279.533 -1.35156 1.30823 0
M  V30 3002 O 278.891 -1.7793 0.347934 0
M  V30 3003 C 278.939 -0.41624 3.5819 0
M  V30 3004 O 278.043 -1.50163 3.8409 0
M  V30 3005 H 277.384 0.000871367 0.663999 0
M  V30 3006 H 279.914 0.626706 1.94765 0
M  V30 3007 H 279.924 -0.664867 4.02546 0
M  V30 3008 H 278.599 0.482653 4.1309 0
M  V30 3009 H 277.176 -1.24248 3.51592 0
M  V30 3010 N 279.361 -1.56624 0.175154 0
M  V30 3011 C 280.61 -1.96173 -0.468921 0
M  V30 3012 C 280.923 -1.06401 -1.64128 0
M  V30 3013 O 282.129 -1.35648 -2.35185 0
M  V30 3014 C 280.585 -3.48833 -0.885633 0
M  V30 3015 C 280.193 -4.47237 0.261343 0
M  V30 3016 C 281.937 -3.97194 -1.49791 0
M  V30 3017 C 279.844 -5.9114 -0.175214 0
M  V30 3018 H 278.774 -0.732455 -0.178958 0
M  V30 3019 H 281.425 -1.81591 0.263997 0
M  V30 3020 H 279.807 -3.58848 -1.67464 0
M  V30 3021 H 280.981 -4.4894 1.03871 0
M  V30 3022 H 279.296 -4.08956 0.783827 0
M  V30 3023 H 281.893 -5.02167 -1.83665 0
M  V30 3024 H 282.236 -3.40351 -2.39722 0
M  V30 3025 H 282.769 -3.90212 -0.773267 0
M  V30 3026 H 279.508 -6.51865 0.689414 0
M  V30 3027 H 279.028 -5.92735 -0.91786 0
M  V30 3028 H 280.707 -6.44044 -0.617792 0
M  V30 3029 N 280.839 0.0985539 -1.57292 0
M  V30 3030 C 282.087 0.801092 -1.85545 0
M  V30 3031 C 282.408 1.79438 -0.763353 0
M  V30 3032 O 281.678 1.94763 0.21073 0
M  V30 3033 H 280.258 0.29884 -0.684619 0
M  V30 3034 H 282.92 0.0810064 -1.94732 0
M  V30 3035 H 282.016 1.3338 -2.82163 0
M  V30 3036 N 282.317 1.53212 0.369288 0
M  V30 3037 C 283.733 1.42902 0.710712 0
M  V30 3038 C 283.933 0.565135 1.93413 0
M  V30 3039 O 282.989 0.0461484 2.52458 0
M  V30 3040 C 284.302 2.86042 0.927382 0
M  V30 3041 C 285.85 2.9565 1.02762 0
M  V30 3042 C 286.325 4.39843 1.27679 0
M  V30 3043 N 287.816 4.43256 1.34457 0
M  V30 3044 C 288.551 5.51929 1.55439 0
M  V30 3045 N 288.047 6.70655 1.73762 0
M  V30 3046 N 289.84 5.39502 1.57779 0
M  V30 3047 H 281.991 2.07888 -0.435457 0
M  V30 3048 H 284.254 0.938661 -0.132739 0
M  V30 3049 H 283.96 3.51557 0.100287 0
M  V30 3050 H 283.834 3.29472 1.83653 0
M  V30 3051 H 286.221 2.30291 1.84527 0
M  V30 3052 H 286.302 2.5562 0.0959504 0
M  V30 3053 H 285.946 5.05774 0.464175 0
M  V30 3054 H 285.876 4.77443 2.22162 0
M  V30 3055 H 288.367 3.5769 1.21926 0
M  V30 3056 H 288.68 7.49248 1.89335 0
M  V30 3057 H 287.025 6.73648 1.70948 0
M  V30 3058 H 290.216 4.45713 1.43029 0
M  V30 3059 H 290.389 6.2426 1.7379 0
M  V30 3060 N 283.795 -0.628877 1.44509 0
M  V30 3061 C 284.758 -1.72263 1.51188 0
M  V30 3062 C 285.758 -1.55907 0.39367 0
M  V30 3063 O 286.948 -1.61361 0.656377 0
M  V30 3064 C 284.08 -3.11365 1.38798 0
M  V30 3065 H 285.273 -1.67714 2.4862 0
M  V30 3066 H 282.826 -0.842737 1.31634 0
M  V30 3067 H 283.561 -3.21507 0.424693 0
M  V30 3068 H 283.346 -3.24644 2.19884 0
M  V30 3069 H 284.836 -3.91075 1.46458 0
M  V30 3070 N 285.273 -1.31445 -0.869486 0
M  V30 3071 C 286.519 -1.21337 -1.62496 0
M  V30 3072 C 286.852 0.227872 -1.92858 0
M  V30 3073 O 286.127 1.16094 -1.56053 0
M  V30 3074 C 286.41 -2.05814 -2.95487 0
M  V30 3075 C 286.263 -3.5824 -2.72 0
M  V30 3076 C 287.582 -1.9079 -3.96594 0
M  V30 3077 H 284.701 -0.442135 -0.589649 0
M  V30 3078 H 287.343 -1.6124 -1.00507 0
M  V30 3079 H 285.493 -1.71913 -3.48394 0
M  V30 3080 H 287.165 -4.0228 -2.25762 0
M  V30 3081 H 285.408 -3.81647 -2.06224 0
M  V30 3082 H 286.079 -4.12657 -3.66631 0
M  V30 3083 H 288.555 -2.20459 -3.52898 0
M  V30 3084 H 287.431 -2.52199 -4.87531 0
M  V30 3085 H 287.692 -0.871341 -4.33428 0
M  V30 3086 N 286.751 1.08385 -1.14413 0
M  V30 3087 C 287.699 2.17406 -0.826888 0
M  V30 3088 C 288.693 1.6827 0.195312 0
M  V30 3089 O 289.899 1.79927 0.0513892 0
M  V30 3090 H 286.274 0.70934 -0.249681 0
M  V30 3091 H 288.245 2.41388 -1.75426 0
M  V30 3092 C 286.994 3.46215 -0.320979 0
M  V30 3093 H 286.317 3.84401 -1.0989 0
M  V30 3094 H 287.757 4.23777 -0.137549 0
M  V30 3095 C 286.216 3.23067 0.955472 0
M  V30 3096 O 286.746 3.4668 2.02918 0
M  V30 3097 N 284.952 2.7661 0.890798 0
M  V30 3098 H 284.499 2.57594 0.0168815 0
M  V30 3099 H 284.457 2.61501 1.74542 0
M  V30 3100 N 288.23 0.939286 1.26551 0
M  V30 3101 C 289.455 0.602008 1.98471 0
M  V30 3102 C 289.88 -0.815624 1.69497 0
M  V30 3103 O 289.238 -1.54912 0.941905 0
M  V30 3104 C 289.286 0.848407 3.50477 0
M  V30 3105 O 288.39 -0.0804009 4.12322 0
M  V30 3106 H 287.731 0.23049 0.622712 0
M  V30 3107 H 290.261 1.2617 1.61066 0
M  V30 3108 H 290.271 0.768553 4.00696 0
M  V30 3109 H 288.946 1.88171 3.70897 0
M  V30 3110 H 287.523 0.0503508 3.72866 0
M  V30 3111 N 289.708 -1.40897 0.706093 0
M  V30 3112 C 290.671 -2.29131 0.0562841 0
M  V30 3113 C 291.671 -1.44901 -0.697166 0
M  V30 3114 O 292.861 -1.65926 -0.530484 0
M  V30 3115 C 289.993 -3.27957 -0.93043 0
M  V30 3116 H 291.186 -2.88091 0.833284 0
M  V30 3117 H 288.739 -1.4906 0.470192 0
M  V30 3118 H 289.474 -2.73997 -1.73482 0
M  V30 3119 H 289.259 -3.90124 -0.393166 0
M  V30 3120 H 290.749 -3.94049 -1.38256 0
M  V30 3121 N 291.186 -0.45159 -1.50991 0
M  V30 3122 C 292.116 0.342898 -2.30969 0
M  V30 3123 C 293.097 1.00815 -1.37005 0
M  V30 3124 O 294.282 1.00907 -1.65926 0
M  V30 3125 C 291.412 1.43637 -3.16205 0
M  V30 3126 C 290.366 0.893818 -4.18563 0
M  V30 3127 C 289.692 2.08411 -4.92411 0
M  V30 3128 C 290.992 -0.0815568 -5.22236 0
M  V30 3129 H 292.686 -0.324556 -2.97636 0
M  V30 3130 H 290.232 -0.157531 -1.43136 0
M  V30 3131 H 292.185 1.9995 -3.70942 0
M  V30 3132 H 290.909 2.13232 -2.47386 0
M  V30 3133 H 289.568 0.352798 -3.64898 0
M  V30 3134 H 289.216 2.76658 -4.20082 0
M  V30 3135 H 288.916 1.72741 -5.61636 0
M  V30 3136 H 290.44 2.65251 -5.49976 0
M  V30 3137 H 291.854 0.391742 -5.7196 0
M  V30 3138 H 290.251 -0.351551 -5.99069 0
M  V30 3139 H 291.321 -1.01374 -4.74185 0
M  V30 3140 N 292.664 1.56529 -0.183458 0
M  V30 3141 C 293.596 2.15747 0.773697 0
M  V30 3142 C 294.609 1.1162 1.1851 0
M  V30 3143 O 295.798 1.3876 1.12285 0
M  V30 3144 C 292.898 2.6952 2.05456 0
M  V30 3145 C 292.071 3.98429 1.8048 0
M  V30 3146 C 291.13 4.37145 2.92901 0
M  V30 3147 O 290.156 5.04791 2.6301 0
M  V30 3148 N 291.358 3.99695 4.2098 0
M  V30 3149 H 294.123 2.98505 0.26736 0
M  V30 3150 H 291.684 1.619 -0.0010878 0
M  V30 3151 H 293.676 2.92412 2.79781 0
M  V30 3152 H 292.246 1.91282 2.47245 0
M  V30 3153 H 291.466 3.8379 0.899947 0
M  V30 3154 H 292.754 4.82597 1.61175 0
M  V30 3155 H 292.152 3.4526 4.48121 0
M  V30 3156 H 290.709 4.27562 4.9197 0
M  V30 3157 N 294.142 -0.090211 1.57342 0
M  V30 3158 C 295.072 -1.10976 2.05443 0
M  V30 3159 C 296.053 -1.41482 0.944284 0
M  V30 3160 O 297.238 -1.51428 1.21586 0
M  V30 3161 C 294.368 -2.42831 2.48295 0
M  V30 3162 C 293.322 -2.26721 3.63018 0
M  V30 3163 C 292.648 -3.63796 3.91863 0
M  V30 3164 C 293.948 -1.7037 4.93732 0
M  V30 3165 H 295.642 -0.709564 2.9087 0
M  V30 3166 H 293.188 -0.339874 1.39932 0
M  V30 3167 H 295.141 -3.14431 2.80555 0
M  V30 3168 H 293.865 -2.84795 1.59873 0
M  V30 3169 H 292.524 -1.57565 3.31012 0
M  V30 3170 H 292.172 -4.03297 3.00601 0
M  V30 3171 H 291.872 -3.53861 4.69101 0
M  V30 3172 H 293.396 -4.36855 4.26603 0
M  V30 3173 H 294.81 -2.31816 5.24342 0
M  V30 3174 H 293.207 -1.71181 5.75167 0
M  V30 3175 H 294.277 -0.663542 4.80339 0
M  V30 3176 N 295.62 -1.53406 -0.361157 0
M  V30 3177 C 296.845 -1.74024 -1.12829 0
M  V30 3178 C 297.27 -0.470069 -1.82132 0
M  V30 3179 O 296.628 0.57619 -1.719 0
M  V30 3180 C 296.676 -2.90903 -2.13091 0
M  V30 3181 O 295.78 -2.59821 -3.20261 0
M  V30 3182 H 295.121 -0.577804 -0.327168 0
M  V30 3183 H 297.651 -2.00307 -0.41693 0
M  V30 3184 H 297.661 -3.17194 -2.56616 0
M  V30 3185 H 296.336 -3.83034 -1.62042 0
M  V30 3186 H 294.913 -2.44362 -2.81677 0
M  V30 3187 N 297.098 0.621204 -1.44841 0
M  V30 3188 C 298.045 1.73267 -1.5247 0
M  V30 3189 C 299.015 1.6189 -0.371611 0
M  V30 3190 O 300.2 1.81668 -0.58321 0
M  V30 3191 C 297.34 3.11545 -1.48438 0
M  V30 3192 C 296.453 3.33827 -2.74196 0
M  V30 3193 C 295.588 4.62133 -2.61929 0
M  V30 3194 C 294.627 4.77627 -3.82804 0
M  V30 3195 N 293.764 5.97219 -3.69153 0
M  V30 3196 H 298.604 1.66082 -2.47428 0
M  V30 3197 H 296.141 0.810026 -1.22788 0
M  V30 3198 H 298.099 3.91528 -1.4409 0
M  V30 3199 H 296.729 3.1772 -0.570402 0
M  V30 3200 H 295.781 2.47715 -2.88689 0
M  V30 3201 H 297.093 3.41153 -3.6389 0
M  V30 3202 H 296.247 5.50291 -2.5547 0
M  V30 3203 H 294.986 4.57182 -1.69811 0
M  V30 3204 H 293.991 3.87896 -3.89637 0
M  V30 3205 H 295.216 4.84385 -4.75971 0
M  V30 3206 H 293.162 5.93339 -2.79794 0
M  V30 3207 H 293.079 6.05644 -4.52472 0
M  V30 3208 H 294.347 6.87912 -3.66603 0
M  V30 3209 N 298.576 1.31904 0.862503 0
M  V30 3210 C 299.992 1.10724 1.14945 0
M  V30 3211 C 300.192 -0.117421 2.01158 0
M  V30 3212 O 299.248 -0.804595 2.39338 0
M  V30 3213 C 300.561 2.38267 1.83437 0
M  V30 3214 C 302.109 2.43949 1.96106 0
M  V30 3215 C 302.584 3.71394 2.68013 0
M  V30 3216 N 304.075 3.72331 2.75543 0
M  V30 3217 C 304.81 4.67641 3.31812 0
M  V30 3218 N 304.306 5.73313 3.88953 0
M  V30 3219 N 306.099 4.5515 3.29841 0
M  V30 3220 H 298.25 2.10436 0.288191 0
M  V30 3221 H 300.513 0.928705 0.190292 0
M  V30 3222 H 300.219 3.27759 1.27542 0
M  V30 3223 H 300.093 2.48633 2.83657 0
M  V30 3224 H 302.48 1.54922 2.51164 0
M  V30 3225 H 302.561 2.37543 0.949059 0
M  V30 3226 H 302.205 4.60791 2.13621 0
M  V30 3227 H 302.135 3.75069 3.69636 0
M  V30 3228 H 304.626 2.95947 2.34997 0
M  V30 3229 H 304.939 6.42107 4.30022 0
M  V30 3230 H 303.284 5.77077 3.87308 0
M  V30 3231 H 306.475 3.71766 2.84443 0
M  V30 3232 H 306.648 5.29604 3.73394 0
M  V30 3233 N 300.054 -1.07777 1.14986 0
M  V30 3234 C 301.302 -1.79934 0.920235 0
M  V30 3235 C 301.623 -1.86955 -0.554336 0
M  V30 3236 O 300.893 -1.36731 -1.40291 0
M  V30 3237 H 299.473 -0.666424 0.337473 0
M  V30 3238 H 302.135 -1.3027 1.44968 0
M  V30 3239 H 301.231 -2.82539 1.32583 0
M  V30 3240 N 301.532 -0.945985 -1.26051 0
M  V30 3241 C 302.78 -0.594941 -1.93145 0
M  V30 3242 C 303.101 0.86953 -1.7454 0
M  V30 3243 O 302.371 1.61838 -1.10387 0
M  V30 3244 H 300.951 -0.217044 -0.714773 0
M  V30 3245 H 303.613 -1.20235 -1.53393 0
M  V30 3246 H 302.709 -0.816835 -3.01221 0
M  V30 3247 N 303.011 1.40521 -0.713556 0
M  V30 3248 C 304.259 2.00527 -0.251692 0
M  V30 3249 C 304.58 1.56857 1.15848 0
M  V30 3250 O 303.85 0.807127 1.785 0
M  V30 3251 H 302.43 0.741551 -0.0900646 0
M  V30 3252 H 305.092 1.71887 -0.918733 0
M  V30 3253 H 304.188 3.10813 -0.283192 0
M  V30 3254 N 304.489 0.459591 1.5075 0
M  V30 3255 C 305.735 -0.0994966 2.02556 0
M  V30 3256 C 306.068 -1.40399 1.3417 0
M  V30 3257 O 305.343 -1.88892 0.463683 0
M  V30 3258 C 305.626 -0.295242 3.58888 0
M  V30 3259 C 305.479 1.02947 4.37861 0
M  V30 3260 C 306.798 -1.05502 4.27267 0
M  V30 3261 H 303.917 -0.034686 0.736183 0
M  V30 3262 H 306.559 0.602938 1.8018 0
M  V30 3263 H 304.709 -0.893563 3.78084 0
M  V30 3264 H 306.381 1.66348 4.30263 0
M  V30 3265 H 304.624 1.62885 4.02058 0
M  V30 3266 H 305.295 0.846281 5.45474 0
M  V30 3267 H 307.771 -0.547993 4.12476 0
M  V30 3268 H 306.647 -1.16077 5.36486 0
M  V30 3269 H 306.908 -2.08875 3.89645 0
M  V30 3270 N 305.967 -1.56429 0.191757 0
M  V30 3271 C 306.93 -2.17707 -0.716688 0
M  V30 3272 C 307.93 -1.13061 -1.14341 0
M  V30 3273 O 309.12 -1.38464 -1.05704 0
M  V30 3274 C 306.252 -2.77644 -1.97804 0
M  V30 3275 H 307.445 -2.99342 -0.1829 0
M  V30 3276 H 304.998 -1.56193 -0.0578566 0
M  V30 3277 H 305.733 -1.99799 -2.55443 0
M  V30 3278 H 305.518 -3.54246 -1.68083 0
M  V30 3279 H 307.008 -3.24708 -2.62592 0
M  V30 3280 N 307.445 0.0818655 -1.57387 0
M  V30 3281 C 308.692 0.782914 -1.86753 0
M  V30 3282 C 309.02 1.78082 -0.782118 0
M  V30 3283 O 308.275 1.94426 0.22295 0
M  V30 3284 C 308.574 1.53513 -3.22752 0
M  V30 3285 C 308.24 0.678134 -4.45771 0
M  V30 3286 C 306.902 0.441929 -4.79166 0
M  V30 3287 C 309.254 0.0832243 -5.21134 0
M  V30 3288 C 306.582 -0.398833 -5.85343 0
M  V30 3289 C 308.934 -0.744935 -6.28199 0
M  V30 3290 C 307.598 -0.991107 -6.60101 0
M  V30 3291 H 306.868 0.286489 -0.683378 0
M  V30 3292 H 309.515 0.0439808 -1.91449 0
M  V30 3293 H 307.82 2.34599 -3.138 0
M  V30 3294 H 309.517 2.08218 -3.42705 0
M  V30 3295 H 306.107 0.872357 -4.19628 0
M  V30 3296 H 310.291 0.252847 -4.95655 0
M  V30 3297 H 305.547 -0.598405 -6.08465 0
M  V30 3298 H 309.721 -1.21271 -6.8576 0
M  V30 3299 H 307.348 -1.64437 -7.42202 0
M  V30 3300 N 308.923 1.53595 0.353017 0
M  V30 3301 C 309.853 1.83902 1.43883 0
M  V30 3302 C 310.834 0.693421 1.55324 0
M  V30 3303 O 312.019 0.944452 1.69687 0
M  V30 3304 C 309.149 2.04016 2.8106 0
M  V30 3305 C 308.103 3.19814 2.84434 0
M  V30 3306 C 307.429 3.25244 4.24406 0
M  V30 3307 C 308.729 4.58133 2.50822 0
M  V30 3308 H 310.423 2.74835 1.1877 0
M  V30 3309 H 307.969 1.32242 0.569917 0
M  V30 3310 H 309.922 2.238 3.57059 0
M  V30 3311 H 308.646 1.09804 3.07588 0
M  V30 3312 H 307.305 2.9987 2.10887 0
M  V30 3313 H 306.953 2.28646 4.48029 0
M  V30 3314 H 306.653 4.03054 4.27576 0
M  V30 3315 H 308.177 3.47228 5.0226 0
M  V30 3316 H 309.591 4.77995 3.16534 0
M  V30 3317 H 307.988 5.38276 2.6529 0
M  V30 3318 H 309.058 4.62387 1.46034 0
M  V30 3319 N 310.401 -0.613514 1.45168 0
M  V30 3320 C 311.331 -1.7354 1.56225 0
M  V30 3321 C 312.312 -1.64981 0.41414 0
M  V30 3322 O 313.497 -1.83472 0.636526 0
M  V30 3323 C 310.627 -3.12128 1.52295 0
M  V30 3324 C 309.581 -3.35491 2.65762 0
M  V30 3325 C 308.907 -4.74291 2.46885 0
M  V30 3326 C 310.207 -3.26325 4.0781 0
M  V30 3327 H 311.901 -1.64543 2.50132 0
M  V30 3328 H 309.447 -0.790185 1.20383 0
M  V30 3329 H 311.4 -3.90404 1.58628 0
M  V30 3330 H 310.124 -3.2195 0.549139 0
M  V30 3331 H 308.783 -2.59603 2.58847 0
M  V30 3332 H 308.431 -4.80839 1.47657 0
M  V30 3333 H 308.131 -4.9088 3.22972 0
M  V30 3334 H 309.655 -5.54775 2.55063 0
M  V30 3335 H 311.069 -3.94483 4.16 0
M  V30 3336 H 309.466 -3.54445 4.8424 0
M  V30 3337 H 310.536 -2.23855 4.30136 0
M  V30 3338 N 311.879 -1.3236 -0.855495 0
M  V30 3339 C 313.104 -1.2601 -1.64731 0
M  V30 3340 C 313.529 0.169068 -1.87339 0
M  V30 3341 O 312.887 1.12016 -1.42556 0
M  V30 3342 C 312.935 -2.02417 -2.98429 0
M  V30 3343 O 312.039 -1.3714 -3.8893 0
M  V30 3344 H 311.38 -0.434325 -0.502253 0
M  V30 3345 H 313.91 -1.74661 -1.06558 0
M  V30 3346 H 313.92 -2.12559 -3.48257 0
M  V30 3347 H 312.595 -3.06343 -2.81295 0
M  V30 3348 H 311.172 -1.3554 -3.47395 0
M  V30 3349 N 313.357 1.07166 -1.15556 0
M  V30 3350 C 314.305 2.16517 -0.8499 0
M  V30 3351 C 315.299 1.68468 0.177454 0
M  V30 3352 O 316.505 1.79971 0.0323026 0
M  V30 3353 H 312.88 0.706652 -0.25719 0
M  V30 3354 H 314.851 2.39514 -1.77976 0
M  V30 3355 C 313.6 3.45855 -0.357682 0
M  V30 3356 H 312.923 3.83214 -1.13961 0
M  V30 3357 H 314.363 4.23607 -0.182489 0
M  V30 3358 C 312.822 3.24062 0.921152 0
M  V30 3359 O 313.352 3.48813 1.9923 0
M  V30 3360 N 311.558 2.77539 0.86141 0
M  V30 3361 H 311.105 2.57598 -0.0104408 0
M  V30 3362 H 311.063 2.63337 1.71758 0
M  V30 3363 N 314.835 0.952656 1.25548 0
M  V30 3364 C 315.765 0.489287 2.28316 0
M  V30 3365 C 316.746 -0.463359 1.63667 0
M  V30 3366 O 317.931 -0.36274 1.90782 0
M  V30 3367 C 315.061 -0.235603 3.465 0
M  V30 3368 C 314.015 0.631593 4.23314 0
M  V30 3369 C 313.341 -0.223923 5.34231 0
M  V30 3370 C 314.641 1.90871 4.86174 0
M  V30 3371 H 316.335 1.34822 2.67326 0
M  V30 3372 H 313.881 0.649728 1.28509 0
M  V30 3373 H 315.834 -0.570882 4.17515 0
M  V30 3374 H 314.558 -1.12877 3.06474 0
M  V30 3375 H 313.217 0.949929 3.54079 0
M  V30 3376 H 312.865 -1.11678 4.90446 0
M  V30 3377 H 312.565 0.35299 5.86539 0
M  V30 3378 H 314.089 -0.554214 6.0808 0
M  V30 3379 H 315.503 1.63997 5.49343 0
M  V30 3380 H 313.9 2.43112 5.4865 0
M  V30 3381 H 314.97 2.61304 4.08471 0
M  V30 3382 N 316.313 -1.40141 0.720998 0
M  V30 3383 C 317.729 -1.54632 0.395113 0
M  V30 3384 C 317.929 -1.69115 -1.09555 0
M  V30 3385 O 316.985 -1.68377 -1.88163 0
M  V30 3386 C 318.298 -2.77177 1.1659 0
M  V30 3387 C 319.846 -2.91 1.15274 0
M  V30 3388 C 320.321 -4.16465 1.90579 0
M  V30 3389 N 321.812 -4.23476 1.87675 0
M  V30 3390 C 322.547 -5.19475 2.42762 0
M  V30 3391 N 322.043 -6.21348 3.06428 0
M  V30 3392 N 323.836 -5.11592 2.32874 0
M  V30 3393 H 315.987 -1.28986 1.68749 0
M  V30 3394 H 318.25 -0.62412 0.713567 0
M  V30 3395 H 317.956 -2.72771 2.22011 0
M  V30 3396 H 317.83 -3.69442 0.76108 0
M  V30 3397 H 320.217 -2.94907 0.106702 0
M  V30 3398 H 320.298 -1.99838 1.59682 0
M  V30 3399 H 319.942 -4.1332 2.95176 0
M  V30 3400 H 319.872 -5.06646 1.43587 0
M  V30 3401 H 322.363 -3.50497 1.41281 0
M  V30 3402 H 322.676 -6.91034 3.45965 0
M  V30 3403 H 321.021 -6.21777 3.10514 0
M  V30 3404 H 324.212 -4.30936 1.82789 0
M  V30 3405 H 324.385 -5.86233 2.76106 0
M  V30 3406 N 317.792 -0.46758 -1.50504 0
M  V30 3407 C 318.702 0.33382 -2.32213 0
M  V30 3408 C 319.718 0.999323 -1.42441 0
M  V30 3409 O 320.894 0.988068 -1.75497 0
M  V30 3410 C 317.959 1.4035 -3.17022 0
M  V30 3411 C 317.02 0.754961 -4.2261 0
M  V30 3412 C 316.253 1.77367 -5.03365 0
M  V30 3413 O 316.476 2.99976 -4.8515 0
M  V30 3414 O 315.41 1.34744 -5.86624 0
M  V30 3415 H 319.236 -0.334067 -3.01857 0
M  V30 3416 H 316.821 -0.229496 -1.47627 0
M  V30 3417 H 318.703 2.02318 -3.69656 0
M  V30 3418 H 317.378 2.05492 -2.5011 0
M  V30 3419 H 316.285 0.0964244 -3.73976 0
M  V30 3420 H 317.618 0.146545 -4.91982 0
M  V30 3421 N 319.27 1.56325 -0.20005 0
M  V30 3422 C 320.233 2.18084 0.705132 0
M  V30 3423 C 321.233 1.13666 1.1374 0
M  V30 3424 O 322.423 1.39023 1.04968 0
M  V30 3425 C 319.555 2.78689 1.96329 0
M  V30 3426 H 320.748 2.99435 0.167023 0
M  V30 3427 H 318.301 1.56221 0.0495725 0
M  V30 3428 H 319.036 2.0115 2.5438 0
M  V30 3429 H 318.821 3.55133 1.66202 0
M  V30 3430 H 320.311 3.26096 2.60866 0
M  V30 3431 N 320.748 -0.0735177 1.57428 0
M  V30 3432 C 321.996 -0.771472 1.86796 0
M  V30 3433 C 322.317 -1.78201 0.791804 0
M  V30 3434 O 321.587 -1.95074 -0.179718 0
M  V30 3435 H 320.167 -0.28791 0.689287 0
M  V30 3436 H 322.829 -0.0500161 1.94836 0
M  V30 3437 H 321.925 -1.28874 2.8425 0
M  V30 3438 N 322.226 -1.5378 -0.344866 0
M  V30 3439 C 323.189 -1.80981 -1.40637 0
M  V30 3440 C 324.189 -0.680816 -1.45676 0
M  V30 3441 O 325.379 -0.949095 -1.46075 0
M  V30 3442 C 322.511 -1.95063 -2.79577 0
M  V30 3443 H 323.704 -2.75803 -1.17783 0
M  V30 3444 H 321.257 -1.45173 -0.579181 0
M  V30 3445 H 321.992 -1.02379 -3.07716 0
M  V30 3446 H 321.777 -2.77198 -2.77315 0
M  V30 3447 H 323.267 -2.17629 -3.56409 0
M  V30 3448 N 323.704 0.605807 -1.45491 0
M  V30 3449 C 325.115 1.18777 -1.44045 0
M  V30 3450 C 325.466 1.95471 -0.169001 0
M  V30 3451 O 324.591 2.0374 0.729324 0
M  V30 3452 C 325.186 2.16064 -2.60963 0
M  V30 3453 C 323.745 2.69633 -2.62631 0
M  V30 3454 C 322.892 1.45072 -2.36325 0
M  V30 3455 H 325.843 0.395017 -1.53705 0
M  V30 3456 H 325.864 2.9913 -2.35163 0
M  V30 3457 H 325.376 1.60217 -3.53486 0
M  V30 3458 H 323.477 3.29414 -1.74119 0
M  V30 3459 H 323.59 3.13944 -3.61906 0
M  V30 3460 H 321.954 1.74089 -1.85917 0
M  V30 3461 H 322.737 0.910899 -3.30995 0
M  V30 3462 N 325.182 1.32811 0.848464 0
M  V30 3463 C 326.431 1.23075 1.59798 0
M  V30 3464 C 326.744 -0.204419 1.94529 0
M  V30 3465 O 327.95 -0.423701 2.68173 0
M  V30 3466 C 326.406 2.15594 2.88179 0
M  V30 3467 C 326.014 3.64228 2.60849 0
M  V30 3468 C 327.758 2.14709 3.66197 0
M  V30 3469 C 325.665 4.48689 3.85269 0
M  V30 3470 H 324.595 0.457091 0.599653 0
M  V30 3471 H 327.246 1.57813 0.936342 0
M  V30 3472 H 325.628 1.73778 3.55833 0
M  V30 3473 H 326.802 4.14424 2.01467 0
M  V30 3474 H 325.117 3.67306 1.96151 0
M  V30 3475 H 327.714 2.75046 4.58534 0
M  V30 3476 H 328.057 1.13966 4.00397 0
M  V30 3477 H 328.59 2.54837 3.05455 0
M  V30 3478 H 325.329 5.5027 3.56207 0
M  V30 3479 H 324.849 4.03241 4.44024 0
M  V30 3480 H 326.528 4.62006 4.52946 0
M  V30 3481 N 326.66 -1.06551 1.16123 0
M  V30 3482 C 327.607 -2.13961 0.865414 0
M  V30 3483 C 328.577 -1.65066 -0.185055 0
M  V30 3484 O 329.762 -1.90732 -0.05083 0
M  V30 3485 C 326.902 -3.43113 0.369776 0
M  V30 3486 C 326.015 -4.05756 1.48276 0
M  V30 3487 C 325.15 -5.22773 0.942414 0
M  V30 3488 C 324.189 -5.77395 2.03179 0
M  V30 3489 N 323.326 -6.85731 1.50721 0
M  V30 3490 H 328.166 -2.38605 1.78527 0
M  V30 3491 H 325.703 -1.17072 0.890646 0
M  V30 3492 H 327.661 -4.17151 0.0640643 0
M  V30 3493 H 326.291 -3.18695 -0.513143 0
M  V30 3494 H 325.343 -3.29292 1.9045 0
M  V30 3495 H 326.655 -4.42351 2.30493 0
M  V30 3496 H 325.809 -6.03827 0.589729 0
M  V30 3497 H 324.548 -4.87618 0.0895191 0
M  V30 3498 H 323.553 -4.94981 2.3932 0
M  V30 3499 H 324.778 -6.14603 2.8886 0
M  V30 3500 H 322.724 -6.52499 0.676811 0
M  V30 3501 H 322.641 -7.21254 2.26557 0
M  V30 3502 H 323.909 -7.7047 1.18303 0
M  V30 3503 N 328.138 -0.959301 -1.25041 0
M  V30 3504 C 329.554 -0.664474 -1.4511 0
M  V30 3505 C 329.754 0.776481 -1.85938 0
M  V30 3506 O 328.81 1.55128 -1.99227 0
M  V30 3507 C 330.123 -1.64139 -2.5195 0
M  V30 3508 C 331.671 -1.65309 -2.65786 0
M  V30 3509 C 332.146 -2.61777 -3.75815 0
M  V30 3510 N 333.637 -2.60169 -3.83231 0
M  V30 3511 C 334.372 -3.31489 -4.6787 0
M  V30 3512 N 333.868 -4.12298 -5.56761 0
M  V30 3513 N 335.661 -3.20354 -4.61876 0
M  V30 3514 H 327.812 -1.89043 -0.968332 0
M  V30 3515 H 330.075 -0.813408 -0.4869 0
M  V30 3516 H 329.781 -2.67086 -2.28819 0
M  V30 3517 H 329.655 -1.40756 -3.49954 0
M  V30 3518 H 332.042 -0.630778 -2.8828 0
M  V30 3519 H 332.123 -1.92753 -1.68167 0
M  V30 3520 H 331.767 -3.64137 -3.54071 0
M  V30 3521 H 331.697 -2.31616 -4.72929 0
M  V30 3522 H 334.188 -2.01507 -3.19692 0
M  V30 3523 H 334.501 -4.63625 -6.18281 0
M  V30 3524 H 332.846 -4.16395 -5.56454 0
M  V30 3525 H 336.037 -2.56692 -3.91442 0
M  V30 3526 H 336.21 -3.76201 -5.27614 0
M  V30 3527 N 329.616 1.39756 -0.72842 0
M  V30 3528 C 330.865 1.99879 -0.270407 0
M  V30 3529 C 331.178 1.58449 1.14688 0
M  V30 3530 O 332.384 2.11362 1.70407 0
M  V30 3531 C 330.84 3.57292 -0.43252 0
M  V30 3532 C 330.448 4.07688 -1.85727 0
M  V30 3533 C 332.192 4.24485 -0.0359507 0
M  V30 3534 C 330.099 5.5765 -1.96928 0
M  V30 3535 H 329.029 0.747689 -0.0973472 0
M  V30 3536 H 331.68 1.59837 -0.901355 0
M  V30 3537 H 330.062 3.95097 0.267219 0
M  V30 3538 H 331.236 3.81231 -2.58843 0
M  V30 3539 H 329.551 3.53135 -2.20646 0
M  V30 3540 H 332.148 5.34609 -0.0987484 0
M  V30 3541 H 332.491 4.03915 1.00787 0
M  V30 3542 H 333.024 3.9183 -0.686604 0
M  V30 3543 H 329.763 5.8309 -2.99476 0
M  V30 3544 H 329.283 5.8593 -1.28241 0
M  V30 3545 H 330.962 6.22957 -1.74737 0
M  V30 3546 N 331.094 0.475555 1.50254 0
M  V30 3547 C 332.004 -0.321501 2.32387 0
M  V30 3548 C 333.02 -0.991755 1.42969 0
M  V30 3549 O 334.196 -0.978747 1.76018 0
M  V30 3550 C 331.261 -1.38667 3.17762 0
M  V30 3551 C 330.322 -0.732538 4.23004 0
M  V30 3552 C 329.555 -1.74695 5.04299 0
M  V30 3553 O 329.778 -2.97399 4.86734 0
M  V30 3554 O 328.712 -1.31631 5.8733 0
M  V30 3555 H 332.538 0.350071 3.01676 0
M  V30 3556 H 330.123 0.237321 1.47503 0
M  V30 3557 H 332.005 -2.00354 3.70724 0
M  V30 3558 H 330.68 -2.04163 2.51196 0
M  V30 3559 H 329.587 -0.0765902 3.74022 0
M  V30 3560 H 330.92 -0.120452 4.92053 0
M  V30 3561 N 332.573 -1.56217 0.208337 0
M  V30 3562 C 333.521 -2.21053 -0.723769 0
M  V30 3563 C 334.515 -1.18578 -1.20978 0
M  V30 3564 O 335.721 -1.36691 -1.17114 0
M  V30 3565 H 332.096 -0.708595 -0.251788 0
M  V30 3566 H 334.067 -2.98006 -0.153365 0
M  V30 3567 C 332.816 -2.89417 -1.927 0
M  V30 3568 H 332.139 -3.68019 -1.56212 0
M  V30 3569 H 333.579 -3.38201 -2.55727 0
M  V30 3570 C 332.038 -1.91166 -2.77411 0
M  V30 3571 O 332.568 -1.42026 -3.75754 0
M  V30 3572 N 330.774 -1.59105 -2.43175 0
M  V30 3573 H 330.321 -1.99259 -1.63259 0
M  V30 3574 H 330.279 -0.936255 -3.00136 0
M  V30 3575 N 334.051 0.0651679 -1.57465 0
M  V30 3576 C 334.983 1.10359 -2.00882 0
M  V30 3577 C 335.996 1.346 -0.915788 0
M  V30 3578 O 337.185 1.32723 -1.1936 0
M  V30 3579 C 334.285 2.45312 -2.33828 0
M  V30 3580 C 333.458 2.40934 -3.65061 0
M  V30 3581 C 332.517 3.58047 -3.85602 0
M  V30 3582 O 331.543 3.39175 -4.57109 0
M  V30 3583 N 332.745 4.78637 -3.28462 0
M  V30 3584 H 335.51 0.733807 -2.90578 0
M  V30 3585 H 333.071 0.253719 -1.599 0
M  V30 3586 H 335.063 3.22314 -2.44737 0
M  V30 3587 H 333.633 2.74267 -1.49988 0
M  V30 3588 H 332.853 1.49273 -3.64844 0
M  V30 3589 H 334.141 2.35117 -4.51218 0
M  V30 3590 H 333.539 4.96872 -2.70433 0
M  V30 3591 H 332.096 5.53127 -3.44809 0
M  V30 3592 N 335.529 1.53961 0.336706 0
M  V30 3593 C 336.754 1.75797 1.10046 0
M  V30 3594 C 337.179 0.498985 1.81361 0
M  V30 3595 O 336.537 -0.548769 1.72795 0
M  V30 3596 C 336.585 2.94257 2.08436 0
M  V30 3597 O 335.689 2.64883 3.16087 0
M  V30 3598 H 335.03 0.582936 0.317934 0
M  V30 3599 H 337.56 2.00945 0.38501 0
M  V30 3600 H 337.57 3.21237 2.51537 0
M  V30 3601 H 336.245 3.85564 1.55927 0
M  V30 3602 H 334.822 2.48812 2.77753 0
M  V30 3603 N 337.007 -0.598083 1.45811 0
M  V30 3604 C 338.232 -1.3881 1.54099 0
M  V30 3605 C 338.657 -1.8726 0.177578 0
M  V30 3606 O 338.015 -1.6069 -0.839541 0
M  V30 3607 C 338.063 -2.56217 2.53743 0
M  V30 3608 O 337.167 -3.5716 2.06182 0
M  V30 3609 H 336.508 -0.414024 0.519115 0
M  V30 3610 H 339.038 -0.726971 1.91249 0
M  V30 3611 H 339.048 -3.03337 2.72856 0
M  V30 3612 H 337.723 -2.20303 3.5276 0
M  V30 3613 H 336.3 -3.16624 1.96987 0
M  V30 3614 N 338.485 -1.33259 -0.841409 0
M  V30 3615 C 339.733 -1.24326 -1.59334 0
M  V30 3616 C 340.054 0.191564 -1.94057 0
M  V30 3617 O 339.324 1.11967 -1.60749 0
M  V30 3618 H 337.904 -0.457174 -0.590763 0
M  V30 3619 H 340.566 -1.66947 -1.00571 0
M  V30 3620 H 339.662 -1.8352 -2.52442 0
M  V30 3621 N 339.963 1.05934 -1.16686 0
M  V30 3622 C 341.209 1.79065 -0.95203 0
M  V30 3623 C 341.542 1.87147 0.518629 0
M  V30 3624 O 340.817 1.36574 1.38484 0
M  V30 3625 C 341.1 3.23359 -1.58464 0
M  V30 3626 C 340.953 3.23336 -3.12689 0
M  V30 3627 C 342.272 4.21004 -1.28232 0
M  V30 3628 H 339.391 0.65005 -0.34728 0
M  V30 3629 H 342.033 1.23868 -1.44072 0
M  V30 3630 H 340.183 3.70493 -1.16908 0
M  V30 3631 H 341.855 2.84336 -3.6325 0
M  V30 3632 H 340.098 2.61886 -3.4583 0
M  V30 3633 H 340.769 4.25144 -3.52075 0
M  V30 3634 H 343.245 3.8233 -1.64203 0
M  V30 3635 H 342.121 5.20225 -1.75092 0
M  V30 3636 H 342.382 4.41639 -0.201791 0
M  V30 3637 N 341.441 0.965919 1.2453 0
M  V30 3638 C 342.69 0.622437 1.91856 0
M  V30 3639 C 343.003 -0.846006 1.76358 0
M  V30 3640 O 344.209 -1.29993 2.38357 0
M  V30 3641 C 342.665 1.0626 3.43856 0
M  V30 3642 C 342.273 2.55437 3.68043 0
M  V30 3643 C 344.017 0.792183 4.17043 0
M  V30 3644 C 341.924 2.93196 5.13605 0
M  V30 3645 H 340.854 0.229092 0.718354 0
M  V30 3646 H 343.505 1.17189 1.41206 0
M  V30 3647 H 341.887 0.441476 3.93531 0
M  V30 3648 H 343.061 3.22665 3.28974 0
M  V30 3649 H 341.376 2.8007 3.08139 0
M  V30 3650 H 343.973 1.05031 5.24283 0
M  V30 3651 H 344.316 -0.271584 4.15413 0
M  V30 3652 H 344.849 1.37419 3.73311 0
M  V30 3653 H 341.588 3.98636 5.20355 0
M  V30 3654 H 341.108 2.30651 5.53679 0
M  V30 3655 H 342.787 2.83004 5.81823 0
M  V30 3656 N 342.919 -1.39368 0.735821 0
M  V30 3657 C 344.33 -1.83313 0.354015 0
M  V30 3658 C 344.681 -1.61461 -1.11466 0
M  V30 3659 O 343.806 -1.10621 -1.85989 0
M  V30 3660 C 344.401 -3.32781 0.635769 0
M  V30 3661 C 342.96 -3.75142 0.307448 0
M  V30 3662 C 342.107 -2.62358 0.897974 0
M  V30 3663 H 345.058 -1.28349 0.933398 0
M  V30 3664 H 345.079 -3.80388 -0.0921773 0
M  V30 3665 H 344.591 -3.48654 1.70476 0
M  V30 3666 H 342.692 -3.64857 -0.755674 0
M  V30 3667 H 342.805 -4.72532 0.790583 0
M  V30 3668 H 341.169 -2.52624 0.324551 0
M  V30 3669 H 341.952 -2.81036 1.97164 0
M  V30 3670 N 344.397 -0.483516 -1.5 0
M  V30 3671 C 345.643 0.0672592 -2.02688 0
M  V30 3672 C 345.976 1.38247 -1.36387 0
M  V30 3673 O 345.251 1.88131 -0.493675 0
M  V30 3674 C 345.534 0.238109 -3.59312 0
M  V30 3675 C 345.387 -1.099 -4.36168 0
M  V30 3676 C 346.706 0.986916 -4.28892 0
M  V30 3677 H 343.825 0.0229696 -0.736642 0
M  V30 3678 H 346.467 -0.631527 -1.79197 0
M  V30 3679 H 344.617 0.8333 -3.79458 0
M  V30 3680 H 346.289 -1.73172 -4.27562 0
M  V30 3681 H 344.532 -1.69261 -3.99416 0
M  V30 3682 H 345.203 -0.932954 -5.44059 0
M  V30 3683 H 347.679 0.482302 -4.13295 0
M  V30 3684 H 346.555 1.07527 -5.38265 0
M  V30 3685 H 346.816 2.0265 -3.92919 0
M  V30 3686 N 345.875 1.56104 -0.216619 0
M  V30 3687 C 346.808 2.16026 0.735395 0
M  V30 3688 C 347.786 1.1032 1.1945 0
M  V30 3689 O 348.97 1.38549 1.27814 0
M  V30 3690 C 346.097 2.73656 1.99575 0
M  V30 3691 C 345.143 3.92146 1.67702 0
M  V30 3692 S 345.976 5.29397 0.806145 0
M  V30 3693 C 347.132 5.90463 2.07617 0
M  V30 3694 H 347.365 2.96439 0.226072 0
M  V30 3695 H 344.898 1.544 -0.00136639 0
M  V30 3696 H 346.856 3.075 2.71945 0
M  V30 3697 H 345.517 1.93245 2.47619 0
M  V30 3698 H 344.71 4.30954 2.61332 0
M  V30 3699 H 344.312 3.59423 1.03398 0
M  V30 3700 H 346.604 6.06136 3.02664 0
M  V30 3701 H 347.547 6.86589 1.73207 0
M  V30 3702 H 347.955 5.19252 2.21445 0
M  V30 3703 N 347.353 -0.0568162 1.57498 0
M  V30 3704 C 348.3 -1.06591 2.04712 0
M  V30 3705 C 349.27 -1.3758 0.930644 0
M  V30 3706 O 350.455 -1.48392 1.19935 0
M  V30 3707 C 347.595 -2.3701 2.50839 0
M  V30 3708 C 346.708 -2.12421 3.76167 0
M  V30 3709 C 345.843 -3.36511 4.11015 0
M  V30 3710 C 344.882 -3.07353 5.2934 0
M  V30 3711 N 344.019 -4.23816 5.59754 0
M  V30 3712 H 348.859 -0.65631 2.90683 0
M  V30 3713 H 346.396 -0.312481 1.43743 0
M  V30 3714 H 348.354 -3.13175 2.7564 0
M  V30 3715 H 346.984 -2.75744 1.67825 0
M  V30 3716 H 346.036 -1.2688 3.58616 0
M  V30 3717 H 347.348 -1.86894 4.62463 0
M  V30 3718 H 346.502 -4.21062 4.36797 0
M  V30 3719 H 345.241 -3.65128 3.23315 0
M  V30 3720 H 344.246 -2.212 5.03339 0
M  V30 3721 H 345.471 -2.80043 6.1867 0
M  V30 3722 H 343.417 -4.52436 4.75014 0
M  V30 3723 H 343.334 -4.01614 6.40501 0
M  V30 3724 H 344.602 -5.0932 5.90096 0
M  V30 3725 N 348.832 -1.54138 -0.328536 0
M  V30 3726 C 349.765 -1.78014 -1.4278 0
M  V30 3727 C 350.743 -0.629889 -1.49904 0
M  V30 3728 O 351.927 -0.866763 -1.6739 0
M  V30 3729 C 349.054 -1.89225 -2.80912 0
M  V30 3730 C 348.1 -3.11483 -2.91343 0
M  V30 3731 S 348.933 -4.70201 -2.56263 0
M  V30 3732 C 350.089 -4.84312 -3.96476 0
M  V30 3733 H 350.322 -2.70974 -1.22313 0
M  V30 3734 H 347.855 -1.45197 -0.525084 0
M  V30 3735 H 349.813 -1.9637 -3.60485 0
M  V30 3736 H 348.474 -0.972518 -2.98665 0
M  V30 3737 H 347.667 -3.16046 -3.92595 0
M  V30 3738 H 347.269 -3.02642 -2.19736 0
M  V30 3739 H 349.561 -4.66643 -4.91173 0
M  V30 3740 H 350.504 -5.86411 -3.96898 0
M  V30 3741 H 350.912 -4.12652 -3.85199 0
M  V30 3742 N 350.31 0.590341 -1.46126 0
M  V30 3743 C 351.24 1.71032 -1.58966 0
M  V30 3744 C 352.221 1.64302 -0.440335 0
M  V30 3745 O 353.406 1.82436 -0.665634 0
M  V30 3746 C 350.536 3.09665 -1.57241 0
M  V30 3747 C 349.49 3.31221 -2.71066 0
M  V30 3748 C 348.816 4.70303 -2.54399 0
M  V30 3749 C 350.116 3.19796 -4.1295 0
M  V30 3750 H 351.81 1.60543 -2.52718 0
M  V30 3751 H 349.356 0.770933 -1.21625 0
M  V30 3752 H 351.309 3.87831 -1.64819 0
M  V30 3753 H 350.033 3.21036 -0.600289 0
M  V30 3754 H 348.692 2.55452 -2.62944 0
M  V30 3755 H 348.34 4.78429 -1.55288 0
M  V30 3756 H 348.04 4.85679 -3.30741 0
M  V30 3757 H 349.564 5.50647 -2.63857 0
M  V30 3758 H 350.978 3.87815 -4.22223 0
M  V30 3759 H 349.375 3.46696 -4.89818 0
M  V30 3760 H 350.445 2.16983 -4.33643 0
M  V30 3761 N 351.788 1.33704 0.83433 0
M  V30 3762 C 352.698 1.26382 1.97648 0
M  V30 3763 C 353.714 0.173548 1.73132 0
M  V30 3764 O 354.89 0.397962 1.97429 0
M  V30 3765 C 351.955 1.00769 3.31733 0
M  V30 3766 C 351.016 2.1884 3.69334 0
M  V30 3767 C 350.249 1.9444 4.9702 0
M  V30 3768 O 350.472 0.896961 5.63303 0
M  V30 3769 O 349.406 2.81093 5.32231 0
M  V30 3770 H 353.232 2.22444 2.06767 0
M  V30 3771 H 350.817 1.13795 0.968037 0
M  V30 3772 H 352.699 0.882186 4.12062 0
M  V30 3773 H 351.374 0.0773783 3.23608 0
M  V30 3774 H 350.281 2.36946 2.89495 0
M  V30 3775 H 351.614 3.10221 3.82131 0
M  V30 3776 N 353.266 -1.05314 1.17247 0
M  V30 3777 C 354.543 -1.75184 0.87005 0
M  V30 3778 C 354.923 -2.01481 -0.629965 0
M  V30 3779 O 354.271 -1.64988 -1.58086 0
M  V30 3780 C 354.481 -3.04594 1.70363 0
M  V30 3781 C 355.829 -3.78567 1.92281 0
M  V30 3782 O 356.853 -3.14461 1.67311 0
M  V30 3783 O 355.712 -4.93755 2.3424 0
M  V30 3784 H 352.806 -0.761729 0.322021 0
M  V30 3785 H 355.352 -1.11493 1.27935 0
M  V30 3786 H 354.124 -2.81201 2.72106 0
M  V30 3787 H 353.747 -3.76022 1.29202 0
M  V30 3788 N 354.744 -0.972509 -1.24016 0
M  V30 3789 C 355.707 -0.511403 -2.23422 0
M  V30 3790 C 356.707 0.394679 -1.55881 0
M  V30 3791 O 357.897 0.189469 -1.73167 0
M  V30 3792 C 355.029 0.258769 -3.39916 0
M  V30 3793 H 356.222 -1.39024 -2.6573 0
M  V30 3794 H 353.775 -0.757585 -1.36713 0
M  V30 3795 H 354.51 1.1545 -3.03054 0
M  V30 3796 H 354.295 -0.391522 -3.9014 0
M  V30 3797 H 355.785 0.570244 -4.13688 0
M  V30 3798 N 356.222 1.38976 -0.743202 0
M  V30 3799 C 357.469 2.00343 -0.294752 0
M  V30 3800 C 357.797 1.58983 1.12047 0
M  V30 3801 O 357.052 0.813809 1.77977 0
M  V30 3802 C 357.351 3.55647 -0.353517 0
M  V30 3803 C 357.017 4.16685 -1.72292 0
M  V30 3804 C 355.679 4.3307 -2.09771 0
M  V30 3805 C 358.031 4.50464 -2.62168 0
M  V30 3806 C 355.359 4.80526 -3.36618 0
M  V30 3807 C 357.711 4.99332 -3.88395 0
M  V30 3808 C 356.375 5.13924 -4.25956 0
M  V30 3809 H 355.645 0.733108 -0.107857 0
M  V30 3810 H 358.292 1.6618 -0.951651 0
M  V30 3811 H 356.597 3.89884 0.386954 0
M  V30 3812 H 358.294 4.00998 0.0117269 0
M  V30 3813 H 354.884 4.04339 -1.42155 0
M  V30 3814 H 359.068 4.37416 -2.3448 0
M  V30 3815 H 354.324 4.90008 -3.65653 0
M  V30 3816 H 358.498 5.2444 -4.58187 0
M  V30 3817 H 356.125 5.50457 -5.2431 0
M  V30 3818 N 357.7 0.491464 1.49741 0
M  V30 3819 C 358.925 -0.0557177 2.07325 0
M  V30 3820 C 359.35 -1.30925 1.35056 0
M  V30 3821 O 358.708 -1.76733 0.404365 0
M  V30 3822 C 358.756 -0.302074 3.59333 0
M  V30 3823 O 357.86 -1.37868 3.88672 0
M  V30 3824 H 357.201 0.0219956 0.663636 0
M  V30 3825 H 359.731 0.688352 1.92673 0
M  V30 3826 H 359.741 -0.536464 4.04458 0
M  V30 3827 H 358.416 0.61383 4.11345 0
M  V30 3828 H 356.993 -1.12999 3.55367 0
M  V30 3829 N 359.178 -1.55987 0.224894 0
M  V30 3830 C 360.408 -2.02489 -0.41007 0
M  V30 3831 C 360.816 -1.10391 -1.53657 0
M  V30 3832 O 360.159 -0.106458 -1.83391 0
M  V30 3833 C 360.221 -3.45319 -0.999757 0
M  V30 3834 C 359.885 -4.56999 -0.00827976 0
M  V30 3835 C 360.882 -5.13812 0.793314 0
M  V30 3836 C 358.567 -5.02176 0.111442 0
M  V30 3837 C 360.561 -6.14276 1.7013 0
M  V30 3838 C 358.248 -6.02477 1.02296 0
M  V30 3839 C 359.246 -6.58403 1.81643 0
M  V30 3840 O 358.934 -7.56751 2.71262 0
M  V30 3841 H 358.666 -0.667915 -0.104235 0
M  V30 3842 H 361.22 -2.0257 0.339782 0
M  V30 3843 H 359.45 -3.42318 -1.79876 0
M  V30 3844 H 361.139 -3.7545 -1.54248 0
M  V30 3845 H 361.905 -4.79756 0.711288 0
M  V30 3846 H 357.784 -4.58323 -0.49605 0
M  V30 3847 H 361.328 -6.57854 2.32107 0
M  V30 3848 H 357.225 -6.35954 1.10599 0
M  V30 3849 H 357.993 -7.74286 2.65375 0
M  V30 3850 N 360.656 0.0484629 -1.57525 0
M  V30 3851 C 361.619 1.03956 -2.04269 0
M  V30 3852 C 362.619 1.30211 -0.943496 0
M  V30 3853 O 363.809 1.25539 -1.20771 0
M  V30 3854 C 360.941 2.37742 -2.44319 0
M  V30 3855 H 362.134 0.636182 -2.93075 0
M  V30 3856 H 359.687 0.294811 -1.53494 0
M  V30 3857 H 360.422 2.82866 -1.5861 0
M  V30 3858 H 360.207 2.20021 -3.24551 0
M  V30 3859 H 361.697 3.08936 -2.80978 0
M  V30 3860 N 362.134 1.5431 0.320358 0
M  V30 3861 C 363.082 1.84647 1.4145 0
M  V30 3862 C 364.076 0.718624 1.53402 0
M  V30 3863 O 365.282 0.902335 1.5575 0
M  V30 3864 H 361.657 0.585349 0.472091 0
M  V30 3865 H 363.628 2.7614 1.13089 0
M  V30 3866 C 362.377 2.09341 2.77617 0
M  V30 3867 H 361.7 2.9559 2.69196 0
M  V30 3868 H 363.14 2.3452 3.53237 0
M  V30 3869 C 361.599 0.885939 3.25043 0
M  V30 3870 O 362.129 0.0967891 4.01583 0
M  V30 3871 N 360.335 0.696682 2.82125 0
M  V30 3872 H 359.882 1.34006 2.2 0
M  V30 3873 H 359.84 -0.109712 3.14209 0
M  V30 3874 N 363.613 -0.582584 1.46437 0
M  V30 3875 C 364.545 -1.70618 1.53043 0
M  V30 3876 C 365.558 -1.57322 0.418769 0
M  V30 3877 O 366.747 -1.64744 0.687136 0
M  V30 3878 C 363.847 -3.08869 1.39474 0
M  V30 3879 C 363.02 -3.48166 2.64762 0
M  V30 3880 C 362.079 -4.65478 2.4539 0
M  V30 3881 O 361.105 -4.71333 3.19114 0
M  V30 3882 N 362.307 -5.60365 1.51564 0
M  V30 3883 H 365.072 -1.65405 2.49923 0
M  V30 3884 H 362.633 -0.768567 1.42494 0
M  V30 3885 H 364.625 -3.85143 1.24287 0
M  V30 3886 H 363.195 -3.08449 0.507758 0
M  V30 3887 H 362.415 -2.61598 2.9489 0
M  V30 3888 H 363.703 -3.71188 3.4799 0
M  V30 3889 H 363.101 -5.5837 0.907705 0
M  V30 3890 H 361.658 -6.36068 1.4234 0
M  V30 3891 N 365.091 -1.34144 -0.827227 0
M  V30 3892 C 366.021 -1.28005 -1.95287 0
M  V30 3893 C 367.002 -0.158321 -1.69362 0
M  V30 3894 O 368.187 -0.349987 -1.9102 0
M  V30 3895 C 365.317 -1.03036 -3.31664 0
M  V30 3896 C 364.271 -2.11628 -3.72019 0
M  V30 3897 C 363.597 -1.71854 -5.0633 0
M  V30 3898 C 364.897 -3.53417 -3.8457 0
M  V30 3899 H 366.591 -2.22187 -2.00682 0
M  V30 3900 H 364.137 -1.0696 -0.964135 0
M  V30 3901 H 366.09 -0.973863 -4.09993 0
M  V30 3902 H 364.814 -0.0529391 -3.26557 0
M  V30 3903 H 363.473 -2.16339 -2.95961 0
M  V30 3904 H 363.121 -0.727841 -4.97706 0
M  V30 3905 H 362.821 -2.44531 -5.34302 0
M  V30 3906 H 364.345 -1.67692 -5.87122 0
M  V30 3907 H 365.759 -3.51142 -4.5318 0
M  V30 3908 H 364.156 -4.24679 -4.2399 0
M  V30 3909 H 365.226 -3.91072 -2.86689 0
M  V30 3910 N 366.569 1.04691 -1.17803 0
M  V30 3911 C 367.817 1.7743 -0.967617 0
M  V30 3912 C 368.138 1.88359 0.504574 0
M  V30 3913 O 367.408 1.40402 1.36617 0
M  V30 3914 H 365.988 0.657242 -0.355024 0
M  V30 3915 H 368.65 1.2638 -1.48371 0
M  V30 3916 H 367.746 2.78924 -1.40027 0
M  V30 3917 N 368.047 0.979072 1.23499 0
M  V30 3918 C 369.01 0.523244 2.23147 0
M  V30 3919 C 370.01 -0.386406 1.56088 0
M  V30 3920 O 371.2 -0.180283 1.73265 0
M  V30 3921 C 368.332 -0.240739 3.40049 0
M  V30 3922 H 369.525 1.40432 2.64989 0
M  V30 3923 H 367.078 0.764824 1.36309 0
M  V30 3924 H 367.813 -1.13841 3.03662 0
M  V30 3925 H 367.598 0.412207 3.89927 0
M  V30 3926 H 369.088 -0.548297 4.13985 0
M  V30 3927 N 369.525 -1.3858 0.750561 0
M  V30 3928 C 370.941 -1.53759 0.427824 0
M  V30 3929 C 371.141 -1.71401 -1.05943 0
M  V30 3930 O 370.197 -1.72331 -1.84549 0
M  V30 3931 C 371.51 -2.74642 1.22443 0
M  V30 3932 C 373.058 -2.88489 1.2142 0
M  V30 3933 C 373.533 -4.12329 1.9937 0
M  V30 3934 N 375.024 -4.194 1.96616 0
M  V30 3935 C 375.759 -5.14209 2.53727 0
M  V30 3936 N 375.255 -6.14709 3.19539 0
M  V30 3937 N 377.048 -5.06537 2.43673 0
M  V30 3938 H 369.199 -1.25377 1.71447 0
M  V30 3939 H 371.462 -0.608844 0.726645 0
M  V30 3940 H 371.168 -2.68 2.27747 0
M  V30 3941 H 371.042 -3.67745 0.839273 0
M  V30 3942 H 373.429 -2.94614 0.169232 0
M  V30 3943 H 373.51 -1.96406 1.63885 0
M  V30 3944 H 373.154 -4.06966 3.03877 0
M  V30 3945 H 373.084 -5.03486 1.54302 0
M  V30 3946 H 375.575 -3.47421 1.48684 0
M  V30 3947 H 375.888 -6.8354 3.60545 0
M  V30 3948 H 374.233 -6.1505 3.23633 0
M  V30 3949 H 377.424 -4.26962 1.91889 0
M  V30 3950 H 377.597 -5.80245 2.88479 0
M  V30 3951 N 371.003 -0.499398 -1.49478 0
M  V30 3952 C 371.935 0.316575 -2.27003 0
M  V30 3953 C 372.948 0.932047 -1.33479 0
M  V30 3954 O 374.137 0.815658 -1.58774 0
M  V30 3955 C 371.237 1.46055 -3.05812 0
M  V30 3956 C 370.41 0.952679 -4.26899 0
M  V30 3957 C 369.469 1.97407 -4.87767 0
M  V30 3958 O 368.495 1.54326 -5.4788 0
M  V30 3959 N 369.697 3.30436 -4.77276 0
M  V30 3960 H 372.462 -0.348168 -2.97671 0
M  V30 3961 H 370.023 -0.33185 -1.58463 0
M  V30 3962 H 372.015 2.14135 -3.43407 0
M  V30 3963 H 370.585 2.02948 -2.37762 0
M  V30 3964 H 369.805 0.0968248 -3.94081 0
M  V30 3965 H 371.093 0.59174 -5.05347 0
M  V30 3966 H 370.491 3.68126 -4.29534 0
M  V30 3967 H 369.048 3.94235 -5.19059 0
M  V30 3968 N 372.481 1.55866 -0.233164 0
M  V30 3969 C 373.729 1.9821 0.394593 0
M  V30 3970 C 374.05 1.12234 1.59463 0
M  V30 3971 O 373.32 0.201981 1.94856 0
M  V30 3972 H 371.9 0.732034 0.148778 0
M  V30 3973 H 374.562 1.92107 -0.32876 0
M  V30 3974 H 373.658 3.03845 0.713063 0
M  V30 3975 N 373.959 -0.0401083 1.57549 0
M  V30 3976 C 374.922 -1.02871 2.04817 0
M  V30 3977 C 375.922 -1.29708 0.950388 0
M  V30 3978 O 377.112 -1.24897 1.21435 0
M  V30 3979 C 374.244 -2.36443 2.45576 0
M  V30 3980 H 375.437 -0.620631 2.93408 0
M  V30 3981 H 372.99 -0.286667 1.53649 0
M  V30 3982 H 373.725 -2.82021 1.60108 0
M  V30 3983 H 373.51 -2.18296 3.25713 0
M  V30 3984 H 375 -3.07441 2.82612 0
M  V30 3985 N 375.437 -1.54477 -0.31217 0
M  V30 3986 C 376.685 -1.72884 -1.04668 0
M  V30 3987 C 377.006 -0.511477 -1.88173 0
M  V30 3988 O 376.276 0.474407 -1.90069 0
M  V30 3989 H 374.856 -0.637461 -0.389425 0
M  V30 3990 H 377.518 -1.91807 -0.345852 0
M  V30 3991 H 376.614 -2.61334 -1.70619 0
M  V30 3992 N 376.915 0.57481 -1.46744 0
M  V30 3993 C 377.878 1.66533 -1.57478 0
M  V30 3994 C 378.878 1.54338 -0.451263 0
M  V30 3995 O 380.068 1.58814 -0.715813 0
M  V30 3996 C 377.2 3.05999 -1.50259 0
M  V30 3997 H 378.393 1.58372 -2.54673 0
M  V30 3998 H 375.946 0.793301 -1.34672 0
M  V30 3999 H 376.681 3.19709 -0.543725 0
M  V30 4000 H 376.466 3.16259 -2.31781 0
M  V30 4001 H 377.956 3.8537 -1.60872 0
M  V30 4002 N 378.394 1.34581 0.820102 0
M  V30 4003 C 379.64 1.27285 1.57881 0
M  V30 4004 C 379.973 -0.156137 1.93571 0
M  V30 4005 O 379.248 -1.10222 1.60254 0
M  V30 4006 C 379.531 2.16639 2.87645 0
M  V30 4007 C 379.384 3.68088 2.58517 0
M  V30 4008 C 380.703 2.05378 3.8924 0
M  V30 4009 H 377.822 0.463714 0.572833 0
M  V30 4010 H 380.464 1.64859 0.944539 0
M  V30 4011 H 378.614 1.84725 3.41773 0
M  V30 4012 H 380.286 4.10382 2.10676 0
M  V30 4013 H 378.529 3.89038 1.91917 0
M  V30 4014 H 379.2 4.2598 3.51063 0
M  V30 4015 H 381.676 2.33404 3.44473 0
M  V30 4016 H 380.552 2.7012 4.77835 0
M  V30 4017 H 380.813 1.0316 4.29896 0
M  V30 4018 N 379.872 -1.04064 1.18357 0
M  V30 4019 C 381.102 -1.80654 1.00238 0
M  V30 4020 C 381.51 -1.83713 -0.452362 0
M  V30 4021 O 380.853 -1.27135 -1.32599 0
M  V30 4022 C 380.915 -3.27582 1.48088 0
M  V30 4023 C 380.579 -3.48184 2.96002 0
M  V30 4024 C 381.576 -3.39372 3.93856 0
M  V30 4025 C 379.261 -3.7478 3.34433 0
M  V30 4026 C 381.255 -3.5686 5.28138 0
M  V30 4027 C 378.942 -3.91915 4.68877 0
M  V30 4028 C 379.94 -3.82956 5.65539 0
M  V30 4029 O 379.628 -3.996 6.97549 0
M  V30 4030 H 379.36 -0.575751 0.354241 0
M  V30 4031 H 381.914 -1.32044 1.57333 0
M  V30 4032 H 380.144 -3.77161 0.853588 0
M  V30 4033 H 381.833 -3.8573 1.2636 0
M  V30 4034 H 382.599 -3.18789 3.65511 0
M  V30 4035 H 378.478 -3.80852 2.59756 0
M  V30 4036 H 382.022 -3.49783 6.03571 0
M  V30 4037 H 377.919 -4.11992 4.96923 0
M  V30 4038 H 378.687 -4.1676 7.04452 0
M  V30 4039 N 381.35 -0.985608 -1.22978 0
M  V30 4040 C 382.28 -0.549649 -2.26939 0
M  V30 4041 C 383.261 0.419803 -1.64838 0
M  V30 4042 O 384.446 0.31203 -1.91677 0
M  V30 4043 C 381.576 0.143652 -3.47003 0
M  V30 4044 C 380.53 -0.743606 -4.21491 0
M  V30 4045 C 379.856 0.0822027 -5.34637 0
M  V30 4046 C 381.156 -2.03694 -4.80943 0
M  V30 4047 H 382.85 -1.41862 -2.63658 0
M  V30 4048 H 380.396 -0.683571 -1.26741 0
M  V30 4049 H 382.349 0.459985 -4.18882 0
M  V30 4050 H 381.073 1.04711 -3.09359 0
M  V30 4051 H 379.732 -1.04347 -3.51436 0
M  V30 4052 H 379.38 0.986359 -4.93234 0
M  V30 4053 H 379.08 -0.508377 -5.85397 0
M  V30 4054 H 380.604 0.392797 -6.09335 0
M  V30 4055 H 382.018 -1.78504 -5.44802 0
M  V30 4056 H 380.415 -2.57573 -5.42011 0
M  V30 4057 H 381.485 -2.72042 -4.01399 0
M  V30 4058 N 382.828 1.3818 -0.7579 0
M  V30 4059 C 383.778 2.27741 -0.108674 0
M  V30 4060 C 384.762 1.45415 0.688709 0
M  V30 4061 O 385.954 1.68108 0.553956 0
M  V30 4062 C 383.083 3.34313 0.780367 0
M  V30 4063 C 382.169 4.24093 -0.0240977 0
M  V30 4064 N 382.56 4.9451 -1.06271 0
M  V30 4065 C 380.858 4.45542 0.202049 0
M  V30 4066 C 381.559 5.60675 -1.54979 0
M  V30 4067 N 380.535 5.36684 -0.864348 0
M  V30 4068 H 384.337 2.79649 -0.904071 0
M  V30 4069 H 381.851 1.51133 -0.594346 0
M  V30 4070 H 383.848 3.97368 1.26114 0
M  V30 4071 H 382.508 2.83962 1.57467 0
M  V30 4072 H 383.519 4.97345 -1.44459 0
M  V30 4073 H 380.196 4.06091 0.96935 0
M  V30 4074 H 381.586 6.26992 -2.41517 0
M  V30 4075 N 384.306 0.507319 1.49211 0
M  V30 4076 C 385.269 -0.256763 2.27757 0
M  V30 4077 C 386.269 -0.888287 1.34038 0
M  V30 4078 O 387.459 -0.751841 1.5714 0
M  V30 4079 C 384.591 -1.36905 3.12202 0
M  V30 4080 H 385.784 0.432557 2.96764 0
M  V30 4081 H 383.337 0.262488 1.5408 0
M  V30 4082 H 384.072 -2.09233 2.47775 0
M  V30 4083 H 383.857 -0.921599 3.81115 0
M  V30 4084 H 385.347 -1.9071 3.7151 0
M  V30 4085 N 385.784 -1.5574 0.241426 0
M  V30 4086 C 386.734 -2.17803 -0.674233 0
M  V30 4087 C 387.718 -1.13225 -1.14319 0
M  V30 4088 O 388.91 -1.39153 -1.09387 0
M  V30 4089 C 386.039 -2.87682 -1.87333 0
M  V30 4090 C 385.125 -3.99509 -1.42313 0
M  V30 4091 N 385.516 -5.01115 -0.686798 0
M  V30 4092 C 383.814 -4.11964 -1.70885 0
M  V30 4093 C 384.515 -5.79922 -0.454456 0
M  V30 4094 N 383.491 -5.34001 -1.01705 0
M  V30 4095 H 387.293 -2.93718 -0.103447 0
M  V30 4096 H 384.807 -1.62342 0.0435095 0
M  V30 4097 H 386.804 -3.3057 -2.54026 0
M  V30 4098 H 385.464 -2.13269 -2.4484 0
M  V30 4099 H 386.475 -5.16799 -0.337459 0
M  V30 4100 H 383.152 -3.48718 -2.2957 0
M  V30 4101 H 384.542 -6.71768 0.132992 0
M  V30 4102 N 387.262 0.0317525 -1.57568 0
M  V30 4103 C 388.212 1.04101 -2.02847 0
M  V30 4104 C 389.196 1.3219 -0.917317 0
M  V30 4105 O 390.388 1.31819 -1.18121 0
M  V30 4106 C 387.517 2.34295 -2.5092 0
M  V30 4107 C 386.603 2.09308 -3.68851 0
M  V30 4108 N 386.994 1.5437 -4.81667 0
M  V30 4109 C 385.292 2.39604 -3.76172 0
M  V30 4110 C 385.993 1.45126 -5.63306 0
M  V30 4111 N 384.969 1.92589 -5.08341 0
M  V30 4112 H 388.771 0.610217 -2.87495 0
M  V30 4113 H 386.285 0.238108 -1.60645 0
M  V30 4114 H 388.282 3.07404 -2.81617 0
M  V30 4115 H 386.942 2.78055 -1.67677 0
M  V30 4116 H 387.953 1.22678 -5.03161 0
M  V30 4117 H 384.63 2.86457 -3.03724 0
M  V30 4118 H 386.02 1.03163 -6.63933 0
M  V30 4119 N 388.74 1.54641 0.303973 0
M  V30 4120 C 390.151 1.64811 0.877163 0
M  V30 4121 C 390.502 0.554838 1.88191 0
M  V30 4122 O 389.627 -0.309033 2.14182 0
M  V30 4123 C 390.222 2.9876 1.59775 0
M  V30 4124 C 388.781 3.11061 2.11938 0
M  V30 4125 C 387.928 2.60479 0.951097 0
M  V30 4126 H 390.879 1.58493 0.0810486 0
M  V30 4127 H 390.9 2.90017 2.46314 0
M  V30 4128 H 390.412 3.7831 0.866226 0
M  V30 4129 H 388.513 2.36225 2.88146 0
M  V30 4130 H 388.626 4.17171 2.35595 0
M  V30 4131 H 386.99 2.16859 1.33583 0
M  V30 4132 H 387.773 3.42504 0.233581 0
M  V30 4133 N 390.218 -0.567019 1.47046 0
M  V30 4134 C 391.495 -1.3276 1.43646 0
M  V30 4135 C 391.875 -2.1071 0.128186 0
M  V30 4136 O 391.223 -2.10441 -0.890326 0
M  V30 4137 C 391.433 -2.2404 2.67595 0
M  V30 4138 C 392.781 -2.85372 3.14401 0
M  V30 4139 O 393.805 -2.34346 2.68254 0
M  V30 4140 O 392.664 -3.78091 3.946 0
M  V30 4141 H 389.758 -0.597293 0.571988 0
M  V30 4142 H 392.304 -0.586735 1.59234 0
M  V30 4143 H 391.076 -1.65975 3.54356 0
M  V30 4144 H 390.699 -3.05439 2.54544 0
M  V30 4145 N 391.696 -1.35014 -0.812953 0
M  V30 4146 C 392.945 -1.27269 -1.56479 0
M  V30 4147 C 393.258 0.152771 -1.95002 0
M  V30 4148 O 394.464 0.352451 -2.69203 0
M  V30 4149 C 392.92 -2.23159 -2.82362 0
M  V30 4150 C 392.528 -3.71016 -2.511 0
M  V30 4151 C 394.272 -2.24342 -3.60376 0
M  V30 4152 C 392.179 -4.58746 -3.73237 0
M  V30 4153 H 391.109 -0.472829 -0.587324 0
M  V30 4154 H 393.76 -1.6024 -0.894171 0
M  V30 4155 H 392.142 -1.83151 -3.51101 0
M  V30 4156 H 393.316 -4.1962 -1.90409 0
M  V30 4157 H 391.631 -3.72378 -1.86343 0
M  V30 4158 H 394.228 -2.87107 -4.51081 0
M  V30 4159 H 394.571 -1.24542 -3.97234 0
M  V30 4160 H 395.104 -2.62846 -2.98591 0
M  V30 4161 H 391.843 -5.59521 -3.41492 0
M  V30 4162 H 391.363 -4.14871 -4.33176 0
M  V30 4163 H 393.042 -4.73852 -4.40537 0
M  V30 4164 N 393.175 1.03435 -1.18907 0
M  V30 4165 C 394.105 2.13503 -0.945448 0
M  V30 4166 C 395.086 1.69682 0.119189 0
M  V30 4167 O 396.271 1.94169 -0.034707 0
M  V30 4168 C 393.401 3.44004 -0.477316 0
M  V30 4169 C 392.355 4.0148 -1.48316 0
M  V30 4170 C 391.681 5.27537 -0.872311 0
M  V30 4171 C 392.981 4.36921 -2.86177 0
M  V30 4172 H 394.675 2.34141 -1.86597 0
M  V30 4173 H 392.221 1.12523 -0.898584 0
M  V30 4174 H 394.174 4.20372 -0.294204 0
M  V30 4175 H 392.898 3.23072 0.478786 0
M  V30 4176 H 391.557 3.27201 -1.65332 0
M  V30 4177 H 391.205 5.02917 0.0911752 0
M  V30 4178 H 390.905 5.66954 -1.54393 0
M  V30 4179 H 392.429 6.06576 -0.699871 0
M  V30 4180 H 393.843 5.04248 -2.72776 0
M  V30 4181 H 392.24 4.87405 -3.50081 0
M  V30 4182 H 393.31 3.46466 -3.39248 0
M  V30 4183 N 394.653 0.992116 1.22453 0
M  V30 4184 C 396.069 0.702713 1.43297 0
M  V30 4185 C 396.269 -0.726909 1.87932 0
M  V30 4186 O 395.325 -1.49792 2.0327 0
M  V30 4187 C 396.638 1.70762 2.47509 0
M  V30 4188 C 398.186 1.72298 2.61309 0
M  V30 4189 C 398.661 2.71649 3.68742 0
M  V30 4190 N 400.152 2.70239 3.76199 0
M  V30 4191 C 400.887 3.43778 4.58917 0
M  V30 4192 N 400.383 4.26914 5.45633 0
M  V30 4193 N 402.176 3.32487 4.5322 0
M  V30 4194 H 394.327 1.91543 0.917871 0
M  V30 4195 H 396.59 0.826031 0.465162 0
M  V30 4196 H 396.296 2.73059 2.21657 0
M  V30 4197 H 396.17 1.49985 3.46099 0
M  V30 4198 H 398.557 0.706989 2.86506 0
M  V30 4199 H 398.638 1.97143 1.62997 0
M  V30 4200 H 398.282 3.73397 3.44292 0
M  V30 4201 H 398.212 2.44074 4.66622 0
M  V30 4202 H 400.703 2.09912 3.14237 0
M  V30 4203 H 401.016 4.79855 6.05771 0
M  V30 4204 H 399.361 4.31002 5.45218 0
M  V30 4205 H 402.552 2.6698 3.84499 0
M  V30 4206 H 402.725 3.90058 5.17454 0
M  V30 4207 N 396.131 -1.37776 0.765217 0
M  V30 4208 C 397.378 -1.99849 0.326588 0
M  V30 4209 C 397.706 -1.60746 -1.09504 0
M  V30 4210 O 396.961 -0.84202 -1.76659 0
M  V30 4211 C 397.26 -3.5504 0.410053 0
M  V30 4212 C 396.926 -4.13891 1.78899 0
M  V30 4213 C 395.588 -4.29678 2.16635 0
M  V30 4214 C 397.94 -4.46236 2.69301 0
M  V30 4215 C 395.268 -4.7511 3.44221 0
M  V30 4216 C 397.62 -4.93089 3.9629 0
M  V30 4217 C 396.284 -5.07082 4.34078 0
M  V30 4218 H 395.554 -0.7313 0.119507 0
M  V30 4219 H 398.201 -1.64645 0.977968 0
M  V30 4220 H 396.506 -3.90451 -0.324878 0
M  V30 4221 H 398.203 -4.00966 0.0520699 0
M  V30 4222 H 394.793 -4.02026 1.48569 0
M  V30 4223 H 398.977 -4.3363 2.41409 0
M  V30 4224 H 394.233 -4.84129 3.73402 0
M  V30 4225 H 398.407 -5.17084 4.66472 0
M  V30 4226 H 396.034 -5.42046 5.33001 0
M  V30 4227 N 397.609 -0.515225 -1.4894 0
M  V30 4228 C 398.539 0.244628 -2.32215 0
M  V30 4229 C 399.52 0.949136 -1.41157 0
M  V30 4230 O 400.705 0.937783 -1.70057 0
M  V30 4231 C 397.835 1.30096 -3.22013 0
M  V30 4232 C 396.789 0.715486 -4.21977 0
M  V30 4233 C 396.115 1.87339 -5.00808 0
M  V30 4234 C 397.415 -0.302982 -5.2142 0
M  V30 4235 H 399.109 -0.450501 -2.95991 0
M  V30 4236 H 396.655 -0.218098 -1.42339 0
M  V30 4237 H 398.608 1.84037 -3.79089 0
M  V30 4238 H 397.332 2.02547 -2.56207 0
M  V30 4239 H 395.991 0.197715 -3.66066 0
M  V30 4240 H 395.639 2.58592 -4.31438 0
M  V30 4241 H 395.339 1.48764 -5.68457 0
M  V30 4242 H 396.863 2.41686 -5.60732 0
M  V30 4243 H 398.277 0.148802 -5.73107 0
M  V30 4244 H 396.674 -0.60532 -5.97039 0
M  V30 4245 H 397.744 -1.21395 -4.69459 0
M  V30 4246 N 399.087 1.5561 -0.249682 0
M  V30 4247 C 400.364 1.90932 0.424761 0
M  V30 4248 C 400.744 1.17078 1.75658 0
M  V30 4249 O 400.092 0.289176 2.26663 0
M  V30 4250 C 400.302 3.43975 0.590109 0
M  V30 4251 C 401.65 4.15281 0.884714 0
M  V30 4252 O 402.674 3.49729 0.67587 0
M  V30 4253 O 401.533 5.31236 1.28259 0
M  V30 4254 H 398.627 0.794815 0.228468 0
M  V30 4255 H 401.173 1.67135 -0.293954 0
M  V30 4256 H 399.945 3.89748 -0.34818 0
M  V30 4257 H 399.568 3.73644 1.35926 0
M  V30 4258 N 400.565 -0.0233959 1.57583 0
M  V30 4259 C 401.793 -0.724682 1.93794 0
M  V30 4260 C 402.208 -1.68588 0.849912 0
M  V30 4261 O 401.565 -1.81676 -0.173204 0
M  V30 4262 C 401.616 -1.47684 3.29957 0
M  V30 4263 O 401.337 -0.554222 4.3458 0
M  V30 4264 C 402.838 -2.27477 3.80485 0
M  V30 4265 H 400.058 -0.203317 0.639455 0
M  V30 4266 H 402.602 0.0207653 2.04489 0
M  V30 4267 H 400.757 -2.17412 3.20641 0
M  V30 4268 H 401.171 -1.08232 5.13212 0
M  V30 4269 H 402.645 -2.7564 4.78254 0
M  V30 4270 H 403.122 -3.09144 3.11972 0
M  V30 4271 H 403.728 -1.62813 3.92902 0
M  V30 4272 N 402.043 -1.548 -0.295768 0
M  V30 4273 C 402.99 -1.86113 -1.36494 0
M  V30 4274 C 403.96 -0.7105 -1.50137 0
M  V30 4275 O 405.145 -0.959626 -1.64912 0
M  V30 4276 C 402.285 -2.11861 -2.72413 0
M  V30 4277 C 401.398 -3.39471 -2.67177 0
M  V30 4278 C 400.533 -3.55035 -3.95125 0
M  V30 4279 C 399.572 -4.76418 -3.84308 0
M  V30 4280 N 398.709 -4.8876 -5.04042 0
M  V30 4281 H 403.549 -2.77314 -1.09091 0
M  V30 4282 H 401.086 -1.37315 -0.52753 0
M  V30 4283 H 403.044 -2.24786 -3.51464 0
M  V30 4284 H 401.674 -1.2392 -2.98066 0
M  V30 4285 H 400.726 -3.35139 -1.79962 0
M  V30 4286 H 402.038 -4.28646 -2.55076 0
M  V30 4287 H 401.192 -3.67653 -4.82614 0
M  V30 4288 H 399.931 -2.64002 -4.10066 0
M  V30 4289 H 398.936 -4.63827 -2.95202 0
M  V30 4290 H 400.161 -5.68863 -3.70906 0
M  V30 4291 H 398.107 -4.00652 -5.19436 0
M  V30 4292 H 398.024 -5.71945 -4.94384 0
M  V30 4293 H 399.292 -5.0574 -5.93167 0
M  V30 4294 N 403.521 0.559213 -1.47345 0
M  V30 4295 C 404.937 0.884943 -1.32819 0
M  V30 4296 C 405.137 1.98988 -0.317173 0
M  V30 4297 O 404.193 2.51031 0.272011 0
M  V30 4298 C 405.506 1.28007 -2.72093 0
M  V30 4299 C 407.054 1.39161 -2.80363 0
M  V30 4300 C 407.529 1.82031 -4.20272 0
M  V30 4301 N 409.02 1.89185 -4.22804 0
M  V30 4302 C 409.755 2.2368 -5.27973 0
M  V30 4303 N 409.251 2.56802 -6.43447 0
M  V30 4304 N 411.044 2.24436 -5.15349 0
M  V30 4305 H 403.195 -0.170304 -2.11716 0
M  V30 4306 H 405.458 -0.0135247 -0.947904 0
M  V30 4307 H 405.164 0.542027 -3.47498 0
M  V30 4308 H 405.038 2.23665 -3.03733 0
M  V30 4309 H 407.425 2.12048 -2.05231 0
M  V30 4310 H 407.506 0.41696 -2.52379 0
M  V30 4311 H 407.15 1.09715 -4.95908 0
M  V30 4312 H 407.08 2.80495 -4.45679 0
M  V30 4313 H 409.571 1.65982 -3.39497 0
M  V30 4314 H 409.884 2.82144 -7.19454 0
M  V30 4315 H 408.229 2.54387 -6.46771 0
M  V30 4316 H 411.42 1.97998 -4.24163 0
M  V30 4317 H 411.593 2.50989 -5.97418 0
M  V30 4318 N 404.999 1.35443 0.805782 0
M  V30 4319 C 405.909 1.30546 1.94923 0
M  V30 4320 C 406.925 0.210233 1.72725 0
M  V30 4321 O 408.101 0.43975 1.9654 0
M  V30 4322 C 405.166 1.07782 3.29521 0
M  V30 4323 C 404.227 2.26625 3.64609 0
M  V30 4324 C 403.46 2.04938 4.92784 0
M  V30 4325 O 403.683 1.01624 5.61274 0
M  V30 4326 O 402.617 2.9232 5.26149 0
M  V30 4327 H 406.443 2.26779 2.02002 0
M  V30 4328 H 404.028 1.15823 0.943682 0
M  V30 4329 H 405.91 0.969392 4.10098 0
M  V30 4330 H 404.585 0.146003 3.23371 0
M  V30 4331 H 403.492 2.43033 2.84404 0
M  V30 4332 H 404.825 3.18257 3.75464 0
M  V30 4333 N 406.477 -1.02803 1.19454 0
M  V30 4334 C 407.425 -2.13213 0.929673 0
M  V30 4335 C 408.419 -1.69011 -0.114806 0
M  V30 4336 O 409.625 -1.79967 0.0345147 0
M  V30 4337 H 406 -0.69662 0.28324 0
M  V30 4338 H 407.971 -2.32744 1.86743 0
M  V30 4339 C 406.72 -3.4429 0.485797 0
M  V30 4340 H 406.043 -3.7872 1.28105 0
M  V30 4341 H 407.483 -4.22638 0.339582 0
M  V30 4342 C 405.942 -3.27258 -0.800244 0
M  V30 4343 O 406.472 -3.55967 -1.86146 0
M  V30 4344 N 404.678 -2.80545 -0.75781 0
M  V30 4345 H 404.225 -2.57382 0.106039 0
M  V30 4346 H 404.183 -2.6953 -1.61867 0
M  V30 4347 N 407.956 -0.998596 -1.21925 0
M  V30 4348 C 408.919 -0.558679 -2.22287 0
M  V30 4349 C 409.919 0.361525 -1.56683 0
M  V30 4350 O 411.109 0.152695 -1.73529 0
M  V30 4351 C 408.241 0.18661 -3.40389 0
M  V30 4352 H 409.434 -1.4463 -2.62721 0
M  V30 4353 H 406.987 -0.786413 -1.35075 0
M  V30 4354 H 407.722 1.08996 -3.05435 0
M  V30 4355 H 407.507 -0.474188 -3.89222 0
M  V30 4356 H 408.997 0.482367 -4.14805 0
M  V30 4357 N 409.434 1.37368 -0.772513 0
M  V30 4358 C 410.711 1.93839 -0.26188 0
M  V30 4359 C 411.091 1.7061 1.24319 0
M  V30 4360 O 410.439 1.05534 2.02669 0
M  V30 4361 C 410.649 3.43154 -0.636102 0
M  V30 4362 C 411.997 4.20249 -0.606324 0
M  V30 4363 O 413.021 3.5152 -0.575538 0
M  V30 4364 O 411.88 5.42809 -0.634086 0
M  V30 4365 H 408.974 0.82478 -0.0605555 0
M  V30 4366 H 411.52 1.4665 -0.853917 0
M  V30 4367 H 410.292 3.53647 -1.6748 0
M  V30 4368 H 409.915 3.97596 -0.0170516 0
M  V30 4369 N 410.912 0.523116 1.48665 0
M  V30 4370 C 411.822 -0.247406 2.33292 0
M  V30 4371 C 412.838 -0.945769 1.46052 0
M  V30 4372 O 414.014 -0.922253 1.79043 0
M  V30 4373 C 411.079 -1.28487 3.22012 0
M  V30 4374 C 410.14 -0.597592 4.2512 0
M  V30 4375 C 409.373 -1.58563 5.09601 0
M  V30 4376 O 409.596 -2.81763 4.95949 0
M  V30 4377 O 408.53 -1.12879 5.91221 0
M  V30 4378 H 412.356 0.445869 3.00409 0
M  V30 4379 H 409.941 0.284128 1.46673 0
M  V30 4380 H 411.823 -1.88459 3.7691 0
M  V30 4381 H 410.498 -1.96068 2.57564 0
M  V30 4382 H 409.405 0.0424407 3.74076 0
M  V30 4383 H 410.738 0.0361517 4.92187 0
M  V30 4384 N 412.39 -1.55475 0.257931 0
M  V30 4385 C 413.337 -2.21837 -0.636939 0
M  V30 4386 C 414.307 -1.18596 -1.16294 0
M  V30 4387 O 415.492 -1.47081 -1.21539 0
M  V30 4388 C 412.632 -2.9301 -1.82317 0
M  V30 4389 C 411.745 -4.10931 -1.33265 0
M  V30 4390 C 410.88 -4.69791 -2.47931 0
M  V30 4391 C 409.919 -5.7994 -1.95796 0
M  V30 4392 N 409.056 -6.32935 -3.0387 0
M  V30 4393 H 413.896 -2.9793 -0.0643591 0
M  V30 4394 H 411.433 -1.47086 -0.0200031 0
M  V30 4395 H 413.391 -3.3248 -2.52018 0
M  V30 4396 H 412.021 -2.1937 -2.36805 0
M  V30 4397 H 411.073 -3.76699 -0.52931 0
M  V30 4398 H 412.385 -4.90417 -0.910654 0
M  V30 4399 H 411.539 -5.11892 -3.25656 0
M  V30 4400 H 410.278 -3.89545 -2.93438 0
M  V30 4401 H 409.283 -5.37305 -1.16546 0
M  V30 4402 H 410.508 -6.62043 -1.51246 0
M  V30 4403 H 408.454 -5.55591 -3.48791 0
M  V30 4404 H 408.371 -7.07645 -2.66035 0
M  V30 4405 H 409.639 -6.79695 -3.81621 0
M  V30 4406 N 413.868 0.0150385 -1.57593 0
M  V30 4407 C 415.117 0.702115 -1.89085 0
M  V30 4408 C 415.43 1.75764 -0.858277 0
M  V30 4409 O 416.636 2.49829 -1.0629 0
M  V30 4410 C 415.092 1.29992 -3.35604 0
M  V30 4411 C 414.7 0.280007 -4.47124 0
M  V30 4412 C 416.444 1.96606 -3.76227 0
M  V30 4413 C 414.351 0.886949 -5.84711 0
M  V30 4414 H 413.281 0.265997 -0.705522 0
M  V30 4415 H 415.932 -0.0430408 -1.8345 0
M  V30 4416 H 414.314 2.09525 -3.36029 0
M  V30 4417 H 415.488 -0.489631 -4.58191 0
M  V30 4418 H 413.803 -0.284835 -4.15425 0
M  V30 4419 H 416.4 2.42893 -4.76347 0
M  V30 4420 H 416.743 2.79024 -3.08952 0
M  V30 4421 H 417.276 1.23828 -3.78036 0
M  V30 4422 H 414.015 0.101876 -6.55421 0
M  V30 4423 H 413.535 1.6261 -5.77337 0
M  V30 4424 H 415.214 1.39011 -6.3189 0
M  V30 4425 N 415.346 1.54954 0.287554 0
M  V30 4426 C 416.762 1.46469 0.633964 0
M  V30 4427 C 416.962 0.666865 1.90145 0
M  V30 4428 O 416.018 0.179906 2.51858 0
M  V30 4429 C 417.331 2.90556 0.774454 0
M  V30 4430 C 418.879 3.00681 0.869462 0
M  V30 4431 C 419.354 4.45993 1.04184 0
M  V30 4432 N 420.845 4.4976 1.10772 0
M  V30 4433 C 421.58 5.59393 1.25964 0
M  V30 4434 N 421.076 6.78923 1.37968 0
M  V30 4435 N 422.869 5.47107 1.28959 0
M  V30 4436 H 415.02 2.05288 -0.545041 0
M  V30 4437 H 417.283 0.930305 -0.182308 0
M  V30 4438 H 416.989 3.51594 -0.086207 0
M  V30 4439 H 416.863 3.38743 1.6593 0
M  V30 4440 H 419.25 2.39749 1.7206 0
M  V30 4441 H 419.331 2.55769 -0.0396831 0
M  V30 4442 H 418.975 5.07524 0.195422 0
M  V30 4443 H 418.905 4.88548 1.96542 0
M  V30 4444 H 421.396 3.63651 1.02794 0
M  V30 4445 H 421.709 7.58231 1.49353 0
M  V30 4446 H 420.054 6.81763 1.34999 0
M  V30 4447 H 423.245 4.52668 1.19202 0
M  V30 4448 H 423.418 6.32595 1.40455 0
M  V30 4449 N 416.824 -0.551391 1.4764 0
M  V30 4450 C 418.073 -1.30467 1.53822 0
M  V30 4451 C 418.386 -1.94495 0.207661 0
M  V30 4452 O 419.592 -2.71099 0.147533 0
M  V30 4453 C 418.048 -2.36616 2.71184 0
M  V30 4454 C 417.656 -1.78754 4.10793 0
M  V30 4455 C 419.4 -3.13088 2.86663 0
M  V30 4456 C 417.307 -2.82717 5.19447 0
M  V30 4457 H 416.237 -0.490584 0.572576 0
M  V30 4458 H 418.888 -0.58494 1.73927 0
M  V30 4459 H 417.27 -3.11529 2.4447 0
M  V30 4460 H 418.444 -1.10173 4.47435 0
M  V30 4461 H 416.759 -1.14846 4.00249 0
M  V30 4462 H 419.356 -3.90736 3.65007 0
M  V30 4463 H 419.699 -3.67635 1.95321 0
M  V30 4464 H 420.232 -2.45288 3.13175 0
M  V30 4465 H 416.971 -2.33018 6.12685 0
M  V30 4466 H 416.491 -3.4969 4.87316 0
M  V30 4467 H 418.17 -3.46102 5.46646 0
M  V30 4468 N 418.302 -1.35869 -0.798587 0
M  V30 4469 C 419.249 -1.29446 -1.91082 0
M  V30 4470 C 420.219 -0.16487 -1.6528 0
M  V30 4471 O 421.404 -0.349888 -1.87564 0
M  V30 4472 C 418.544 -1.0804 -3.27752 0
M  V30 4473 C 417.657 -2.29993 -3.65687 0
M  V30 4474 C 416.792 -2.01673 -4.91428 0
M  V30 4475 C 415.831 -3.19636 -5.22015 0
M  V30 4476 N 414.968 -2.91039 -6.38937 0
M  V30 4477 H 419.808 -2.24553 -1.95907 0
M  V30 4478 H 417.345 -1.11615 -0.958148 0
M  V30 4479 H 419.303 -0.936586 -4.06551 0
M  V30 4480 H 417.933 -0.16592 -3.22373 0
M  V30 4481 H 416.985 -2.55211 -2.82085 0
M  V30 4482 H 418.297 -3.18052 -3.84245 0
M  V30 4483 H 417.451 -1.84168 -5.78072 0
M  V30 4484 H 416.19 -1.10911 -4.74921 0
M  V30 4485 H 415.195 -3.37709 -4.33858 0
M  V30 4486 H 416.42 -4.11211 -5.40447 0
M  V30 4487 H 414.366 -2.0288 -6.2384 0
M  V30 4488 H 414.283 -3.72635 -6.57784 0
M  V30 4489 H 415.551 -2.77093 -7.28587 0
M  V30 4490 N 419.78 1.02168 -1.19998 0
M  V30 4491 C 421.008 1.79296 -1.03249 0
M  V30 4492 C 421.423 1.84103 0.418502 0
M  V30 4493 O 420.78 1.29031 1.29063 0
M  V30 4494 C 420.831 3.24007 -1.60319 0
M  V30 4495 O 420.552 3.19512 -2.99739 0
M  V30 4496 C 422.053 4.17704 -1.48453 0
M  V30 4497 H 419.273 0.564016 -0.363493 0
M  V30 4498 H 421.817 1.28639 -1.58973 0
M  V30 4499 H 419.972 3.7183 -1.08727 0
M  V30 4500 H 420.386 4.10306 -3.26725 0
M  V30 4501 H 421.86 5.17104 -1.93153 0
M  V30 4502 H 422.337 4.37029 -0.436193 0
M  V30 4503 H 422.943 3.7576 -1.99211 0
M  V30 4504 N 421.258 1.00505 1.21394 0
M  V30 4505 C 422.188 0.585684 2.26035 0
M  V30 4506 C 423.169 -0.393525 1.65485 0
M  V30 4507 O 424.354 -0.281497 1.92149 0
M  V30 4508 C 421.484 -0.0884283 3.47187 0
M  V30 4509 C 420.438 0.810567 4.20254 0
M  V30 4510 C 419.764 0.00286382 5.347 0
M  V30 4511 C 421.064 2.1132 4.77641 0
M  V30 4512 H 422.758 1.46039 2.61368 0
M  V30 4513 H 420.304 0.703648 1.25638 0
M  V30 4514 H 422.257 -0.393286 4.19561 0
M  V30 4515 H 420.981 -0.997766 3.10986 0
M  V30 4516 H 419.64 1.09925 3.49731 0
M  V30 4517 H 419.288 -0.907765 4.94741 0
M  V30 4518 H 418.988 0.601444 5.84514 0
M  V30 4519 H 420.512 -0.295808 6.09883 0
M  V30 4520 H 421.926 1.87148 5.41893 0
M  V30 4521 H 420.323 2.66164 5.37845 0
M  V30 4522 H 421.393 2.78393 3.9702 0
M  V30 4523 N 422.737 -1.36956 0.779787 0
M  V30 4524 C 423.962 -2.04283 0.358224 0
M  V30 4525 C 424.387 -1.58422 -1.01411 0
M  V30 4526 O 423.745 -0.748179 -1.65142 0
M  V30 4527 C 423.793 -3.58152 0.419479 0
M  V30 4528 O 422.897 -4.08342 -0.577142 0
M  V30 4529 H 422.238 -0.645967 0.153698 0
M  V30 4530 H 424.768 -1.75108 1.05822 0
M  V30 4531 H 424.778 -4.07041 0.279636 0
M  V30 4532 H 423.453 -3.90886 1.42061 0
M  V30 4533 H 422.03 -3.70751 -0.399755 0
M  V30 4534 N 424.215 -0.530993 -1.48385 0
M  V30 4535 C 425.145 0.219985 -2.32461 0
M  V30 4536 C 426.126 0.934111 -1.42156 0
M  V30 4537 O 427.311 0.919694 -1.71042 0
M  V30 4538 C 424.441 1.26674 -3.23375 0
M  V30 4539 C 423.395 0.67069 -4.22712 0
M  V30 4540 C 422.721 1.82017 -5.02766 0
M  V30 4541 C 424.021 -0.358268 -5.2107 0
M  V30 4542 H 425.715 -0.48187 -2.95497 0
M  V30 4543 H 423.261 -0.233182 -1.42099 0
M  V30 4544 H 425.214 1.80006 -3.81019 0
M  V30 4545 H 423.938 1.99818 -2.58341 0
M  V30 4546 H 422.597 0.158878 -3.66256 0
M  V30 4547 H 422.245 2.54002 -4.34157 0
M  V30 4548 H 421.945 1.42727 -5.70003 0
M  V30 4549 H 423.469 2.35725 -5.63264 0
M  V30 4550 H 424.883 0.0880081 -5.73232 0
M  V30 4551 H 423.28 -0.66861 -5.96364 0
M  V30 4552 H 424.35 -1.26367 -4.68145 0
M  V30 4553 N 425.693 1.55336 -0.266172 0
M  V30 4554 C 426.941 1.99003 0.35246 0
M  V30 4555 C 427.262 1.15591 1.57047 0
M  V30 4556 O 426.532 0.243268 1.94384 0
M  V30 4557 H 425.112 0.735025 0.133217 0
M  V30 4558 H 427.774 1.91367 -0.369434 0
M  V30 4559 H 426.87 3.05289 0.648453 0
M  V30 4560 N 427.171 -0.0066808 1.57599 0
M  V30 4561 C 428.417 -0.693947 1.90558 0
M  V30 4562 C 428.75 -1.73792 0.866594 0
M  V30 4563 O 428.025 -1.94156 -0.115548 0
M  V30 4564 C 428.308 -1.34317 3.34112 0
M  V30 4565 C 428.161 -0.311189 4.48722 0
M  V30 4566 C 429.48 -2.27116 3.7697 0
M  V30 4567 H 426.599 -0.250803 0.693013 0
M  V30 4568 H 429.241 0.043242 1.89951 0
M  V30 4569 H 427.391 -1.9715 3.3476 0
M  V30 4570 H 429.063 0.316944 4.6021 0
M  V30 4571 H 427.306 0.367253 4.32243 0
M  V30 4572 H 427.977 -0.804366 5.46108 0
M  V30 4573 H 430.453 -1.74306 3.77831 0
M  V30 4574 H 429.329 -2.69511 4.78179 0
M  V30 4575 H 429.59 -3.14743 3.10466 0
M  V30 4576 N 428.649 -1.55105 -0.279332 0
M  V30 4577 C 429.895 -1.75672 -1.01327 0
M  V30 4578 C 430.228 -0.552739 -1.86168 0
M  V30 4579 O 429.503 0.449827 -1.89227 0
M  V30 4580 C 429.786 -3.05825 -1.90114 0
M  V30 4581 C 429.639 -4.36565 -1.08309 0
M  V30 4582 C 430.958 -3.31975 -2.8893 0
M  V30 4583 H 428.077 -0.639149 -0.366957 0
M  V30 4584 H 430.719 -1.87833 -0.286154 0
M  V30 4585 H 428.869 -2.95588 -2.52111 0
M  V30 4586 H 430.541 -4.58751 -0.484314 0
M  V30 4587 H 428.784 -4.32076 -0.386362 0
M  V30 4588 H 429.455 -5.23946 -1.73737 0
M  V30 4589 H 431.931 -3.41963 -2.37067 0
M  V30 4590 H 430.807 -4.2432 -3.48201 0
M  V30 4591 H 431.068 -2.51309 -3.63725 0
M  V30 4592 N 430.127 0.543554 -1.4793 0
M  V30 4593 C 431.376 1.29649 -1.54512 0
M  V30 4594 C 431.689 1.94382 -0.217973 0
M  V30 4595 O 432.895 2.71017 -0.161908 0
M  V30 4596 C 431.351 2.35175 -2.72435 0
M  V30 4597 C 430.959 1.76572 -4.11736 0
M  V30 4598 C 432.703 3.11564 -2.8832 0
M  V30 4599 C 430.61 2.79958 -5.20939 0
M  V30 4600 H 429.54 0.487541 -0.57517 0
M  V30 4601 H 432.191 0.575708 -1.74235 0
M  V30 4602 H 430.573 3.10229 -2.46118 0
M  V30 4603 H 431.747 1.07799 -4.48013 0
M  V30 4604 H 430.062 1.12722 -4.00852 0
M  V30 4605 H 432.659 3.88794 -3.67074 0
M  V30 4606 H 433.002 3.66594 -1.97268 0
M  V30 4607 H 433.535 2.43623 -3.14472 0
M  V30 4608 H 430.274 2.29766 -6.13912 0
M  V30 4609 H 429.794 3.47101 -4.89164 0
M  V30 4610 H 431.473 3.43198 -5.48474 0
M  V30 4611 N 431.605 1.3629 0.791371 0
M  V30 4612 C 433.016 1.27225 1.36641 0
M  V30 4613 C 433.367 -0.0887968 1.95999 0
M  V30 4614 O 432.492 -0.990207 1.92416 0
M  V30 4615 C 433.087 2.30375 2.48421 0
M  V30 4616 C 431.646 2.25004 3.01746 0
M  V30 4617 C 430.793 2.15259 1.7481 0
M  V30 4618 H 433.744 1.47198 0.593173 0
M  V30 4619 H 433.765 1.93905 3.27385 0
M  V30 4620 H 433.277 3.29422 2.05189 0
M  V30 4621 H 431.378 1.29417 3.49403 0
M  V30 4622 H 431.491 3.1761 3.58693 0
M  V30 4623 H 429.855 1.61482 1.96966 0
M  V30 4624 H 430.638 3.16191 1.33709 0
M  V30 4625 N 433.083 -1.0153 1.20538 0
M  V30 4626 C 434.36 -1.72327 0.925343 0
M  V30 4627 C 434.74 -2.03383 -0.565547 0
M  V30 4628 O 434.088 -1.69934 -1.52757 0
M  V30 4629 C 434.298 -2.9902 1.79967 0
M  V30 4630 C 435.646 -3.72258 2.04228 0
M  V30 4631 O 436.67 -3.08979 1.77231 0
M  V30 4632 O 435.529 -4.86053 2.4983 0
M  V30 4633 H 432.623 -0.751099 0.346092 0
M  V30 4634 H 435.169 -1.07366 1.31417 0
M  V30 4635 H 433.941 -2.72402 2.80915 0
M  V30 4636 H 433.564 -3.71721 1.41099 0
M  V30 4637 N 434.561 -1.01147 -1.20859 0
M  V30 4638 C 435.81 -0.693214 -1.89413 0
M  V30 4639 C 436.123 0.779969 -1.79376 0
M  V30 4640 O 437.329 1.21057 -2.43017 0
M  V30 4641 C 435.785 -1.18949 -3.39675 0
M  V30 4642 C 435.393 -2.68921 -3.58309 0
M  V30 4643 C 437.137 -0.94642 -4.13815 0
M  V30 4644 C 435.044 -3.12056 -5.0237 0
M  V30 4645 H 433.974 -0.255595 -0.709357 0
M  V30 4646 H 436.625 -1.22349 -1.36759 0
M  V30 4647 H 435.007 -0.587228 -3.91622 0
M  V30 4648 H 436.181 -3.34652 -3.16772 0
M  V30 4649 H 434.496 -2.91314 -2.97532 0
M  V30 4650 H 437.093 -1.24417 -5.20023 0
M  V30 4651 H 437.436 0.117219 -4.16135 0
M  V30 4652 H 437.969 -1.5118 -3.67953 0
M  V30 4653 H 434.708 -4.17674 -5.05202 0
M  V30 4654 H 434.228 -2.51041 -5.44737 0
M  V30 4655 H 435.907 -3.04403 -5.70918 0
M  V30 4656 N 436.039 1.36541 -0.78704 0
M  V30 4657 C 437.267 2.03561 -0.370199 0
M  V30 4658 C 437.682 1.59347 1.01263 0
M  V30 4659 O 437.039 0.781781 1.64907 0
M  V30 4660 C 437.09 3.59033 -0.421614 0
M  V30 4661 O 436.811 4.01634 -1.7499 0
M  V30 4662 C 438.312 4.433 0.00489763 0
M  V30 4663 H 435.532 0.653346 -0.152904 0
M  V30 4664 H 438.076 1.74566 -1.06522 0
M  V30 4665 H 436.231 3.86746 0.224971 0
M  V30 4666 H 436.645 4.96217 -1.69909 0
M  V30 4667 H 438.119 5.51939 -0.0822184 0
M  V30 4668 H 438.596 4.26285 1.05723 0
M  V30 4669 H 439.202 4.20843 -0.614085 0
M  V30 4670 N 437.518 0.538854 1.48102 0
M  V30 4671 C 438.765 0.0080018 2.02498 0
M  V30 4672 C 439.093 -1.33437 1.41509 0
M  V30 4673 O 438.348 -1.87709 0.553507 0
M  V30 4674 C 438.647 -0.153808 3.57069 0
M  V30 4675 C 438.313 1.11533 4.36888 0
M  V30 4676 C 436.975 1.46314 4.58417 0
M  V30 4677 C 439.327 1.95718 4.83057 0
M  V30 4678 C 436.655 2.6516 5.23361 0
M  V30 4679 C 439.007 3.13751 5.49312 0
M  V30 4680 C 437.671 3.48866 5.69077 0
M  V30 4681 H 436.941 0.00292807 0.740994 0
M  V30 4682 H 439.588 0.706668 1.77984 0
M  V30 4683 H 437.893 -0.935309 3.80472 0
M  V30 4684 H 439.59 -0.579607 3.96789 0
M  V30 4685 H 436.18 0.834484 4.20398 0
M  V30 4686 H 440.364 1.70158 4.66219 0
M  V30 4687 H 435.62 2.92558 5.36861 0
M  V30 4688 H 439.794 3.79282 5.84053 0
M  V30 4689 H 437.421 4.41054 6.19173 0
M  V30 4690 N 438.996 -1.55193 0.274407 0
M  V30 4691 C 440.412 -1.59401 -0.0797543 0
M  V30 4692 C 440.612 -1.29162 -1.54659 0
M  V30 4693 O 439.668 -1.05215 -2.29534 0
M  V30 4694 C 440.981 -2.99257 0.294238 0
M  V30 4695 C 442.529 -3.12072 0.240796 0
M  V30 4696 C 443.004 -4.54194 0.589218 0
M  V30 4697 N 444.495 -4.60033 0.540744 0
M  V30 4698 C 445.23 -5.68027 0.783147 0
M  V30 4699 N 444.726 -6.8417 1.09013 0
M  V30 4700 N 446.519 -5.57572 0.711993 0
M  V30 4701 H 438.67 -1.73113 1.23067 0
M  V30 4702 H 440.933 -0.807197 0.497129 0
M  V30 4703 H 440.639 -3.26217 1.31435 0
M  V30 4704 H 440.513 -3.75427 -0.365281 0
M  V30 4705 H 442.9 -2.84877 -0.770024 0
M  V30 4706 H 442.981 -2.38117 0.934563 0
M  V30 4707 H 442.625 -4.82115 1.59772 0
M  V30 4708 H 442.555 -5.26448 -0.126331 0
M  V30 4709 H 445.046 -3.76599 0.313327 0
M  V30 4710 H 445.359 -7.6243 1.26178 0
M  V30 4711 H 443.704 -6.85787 1.12789 0
M  V30 4712 H 446.895 -4.65714 0.472014 0
M  V30 4713 H 447.068 -6.41659 0.90429 0
M  V30 4714 N 440.474 -0.00167713 -1.576 0
M  V30 4715 C 441.404 0.988091 -2.11563 0
M  V30 4716 C 442.385 1.35736 -1.02517 0
M  V30 4717 O 443.57 1.44082 -1.30208 0
M  V30 4718 C 440.7 2.27941 -2.62031 0
M  V30 4719 C 439.654 2.0517 -3.75619 0
M  V30 4720 C 438.98 3.4033 -4.12407 0
M  V30 4721 C 440.28 1.41294 -5.02825 0
M  V30 4722 H 441.974 0.538771 -2.94513 0
M  V30 4723 H 439.52 0.257712 -1.41675 0
M  V30 4724 H 441.473 2.97539 -2.9841 0
M  V30 4725 H 440.197 2.74989 -1.76205 0
M  V30 4726 H 438.856 1.37998 -3.39635 0
M  V30 4727 H 438.504 3.85085 -3.23603 0
M  V30 4728 H 438.204 3.25909 -4.88935 0
M  V30 4729 H 439.728 4.1124 -4.51347 0
M  V30 4730 H 441.142 2.00851 -5.36965 0
M  V30 4731 H 439.539 1.37356 -5.84169 0
M  V30 4732 H 440.609 0.382362 -4.8339 0
M  V30 4733 N 441.952 1.55251 0.271103 0
M  V30 4734 C 442.915 1.87484 1.31842 0
M  V30 4735 C 443.915 0.749545 1.42262 0
M  V30 4736 O 445.105 1.01771 1.4138 0
M  V30 4737 C 442.237 2.0818 2.69951 0
M  V30 4738 H 443.43 2.81108 1.0449 0
M  V30 4739 H 440.983 1.47771 0.509258 0
M  V30 4740 H 441.718 1.16944 3.02481 0
M  V30 4741 H 441.503 2.90114 2.63774 0
M  V30 4742 H 442.993 2.34385 3.4562 0
M  V30 4743 N 443.43 -0.535701 1.48216 0
M  V30 4744 C 444.377 -1.64083 1.62312 0
M  V30 4745 C 445.347 -1.59448 0.465365 0
M  V30 4746 O 446.532 -1.77959 0.688135 0
M  V30 4747 C 443.672 -3.0236 1.66349 0
M  V30 4748 C 442.785 -3.17273 2.93193 0
M  V30 4749 C 441.92 -4.46075 2.88427 0
M  V30 4750 C 440.959 -4.54496 4.1 0
M  V30 4751 N 440.096 -5.7468 4.03345 0
M  V30 4752 H 444.936 -1.51374 2.5669 0
M  V30 4753 H 442.473 -0.737059 1.27302 0
M  V30 4754 H 444.431 -3.82461 1.66672 0
M  V30 4755 H 443.061 -3.13854 0.754672 0
M  V30 4756 H 442.113 -2.30462 3.02641 0
M  V30 4757 H 443.425 -3.19357 3.83162 0
M  V30 4758 H 442.579 -5.3446 2.87119 0
M  V30 4759 H 441.318 -4.46504 1.96177 0
M  V30 4760 H 440.323 -3.64519 4.11589 0
M  V30 4761 H 441.548 -4.5581 5.03402 0
M  V30 4762 H 439.494 -5.76017 3.13912 0
M  V30 4763 H 439.411 -5.78234 4.87013 0
M  V30 4764 H 440.679 -6.65367 4.06087 0
M  V30 4765 N 444.908 -1.36708 -0.784132 0
M  V30 4766 C 445.818 -1.3363 -1.92822 0
M  V30 4767 C 446.834 -0.237686 -1.72369 0
M  V30 4768 O 448.01 -0.470962 -1.95816 0
M  V30 4769 C 445.075 -1.13011 -3.27764 0
M  V30 4770 C 444.136 -2.32397 -3.60957 0
M  V30 4771 C 443.369 -2.12752 -4.89461 0
M  V30 4772 O 443.592 -1.10541 -5.59586 0
M  V30 4773 O 442.526 -3.00653 -5.21432 0
M  V30 4774 H 446.352 -2.29964 -1.98369 0
M  V30 4775 H 443.937 -1.1731 -0.925136 0
M  V30 4776 H 445.819 -1.03451 -4.08504 0
M  V30 4777 H 444.494 -0.19743 -3.23097 0
M  V30 4778 H 443.401 -2.47527 -2.80502 0
M  V30 4779 H 444.734 -3.2419 -3.70354 0
M  V30 4780 N 446.386 1.0089 -1.21074 0
M  V30 4781 C 447.334 2.11707 -0.963476 0
M  V30 4782 C 448.328 1.69172 0.0879032 0
M  V30 4783 O 449.534 1.79889 -0.0631415 0
M  V30 4784 H 445.909 0.692026 -0.294287 0
M  V30 4785 H 447.88 2.29743 -1.90422 0
M  V30 4786 C 446.629 3.43473 -0.540509 0
M  V30 4787 H 445.952 3.76634 -1.34114 0
M  V30 4788 H 447.392 4.22044 -0.406777 0
M  V30 4789 C 445.851 3.2849 0.748079 0
M  V30 4790 O 446.381 3.58883 1.8046 0
M  V30 4791 N 444.587 2.81715 0.713081 0
M  V30 4792 H 444.134 2.5718 -0.146973 0
M  V30 4793 H 444.092 2.72071 1.57558 0
M  V30 4794 N 447.864 1.01787 1.20321 0
M  V30 4795 C 448.827 0.593972 2.2137 0
M  V30 4796 C 449.827 -0.336553 1.57239 0
M  V30 4797 O 451.017 -0.125069 1.7375 0
M  V30 4798 C 448.149 -0.132433 3.40643 0
M  V30 4799 H 449.342 1.48791 2.60387 0
M  V30 4800 H 446.895 0.807803 1.33807 0
M  V30 4801 H 447.63 -1.04123 3.0713 0
M  V30 4802 H 447.415 0.53605 3.88418 0
M  V30 4803 H 448.905 -0.416314 4.1552 0
M  V30 4804 N 449.342 -1.36122 0.79427 0
M  V30 4805 C 450.274 -2.28683 0.153903 0
M  V30 4806 C 451.287 -1.49707 -0.639669 0
M  V30 4807 O 452.476 -1.7209 -0.474054 0
M  V30 4808 C 449.576 -3.29202 -0.804921 0
M  V30 4809 C 448.749 -4.37358 -0.060366 0
M  V30 4810 C 447.808 -5.17811 -0.935849 0
M  V30 4811 O 446.834 -5.67853 -0.391309 0
M  V30 4812 N 448.036 -5.34721 -2.25951 0
M  V30 4813 H 450.801 -2.84278 0.949008 0
M  V30 4814 H 448.362 -1.4834 0.648611 0
M  V30 4815 H 450.354 -3.79914 -1.39455 0
M  V30 4816 H 448.924 -2.74212 -1.50088 0
M  V30 4817 H 448.144 -3.87746 0.710382 0
M  V30 4818 H 449.432 -5.06777 0.45324 0
M  V30 4819 H 448.83 -4.95687 -2.72601 0
M  V30 4820 H 447.387 -5.88657 -2.79867 0
M  V30 4821 N 450.82 -0.546701 -1.47814 0
M  V30 4822 C 451.753 0.254472 -2.26777 0
M  V30 4823 C 452.731 0.929809 -1.33392 0
M  V30 4824 O 453.915 0.950889 -1.62759 0
M  V30 4825 C 451.042 1.36171 -3.10121 0
M  V30 4826 C 450.088 0.796038 -4.19005 0
M  V30 4827 S 450.921 -0.349191 -5.3436 0
M  V30 4828 C 452.077 0.760122 -6.21267 0
M  V30 4829 H 452.31 -0.415612 -2.94381 0
M  V30 4830 H 449.843 -0.332809 -1.5077 0
M  V30 4831 H 451.801 1.99588 -3.58713 0
M  V30 4832 H 450.462 2.00359 -2.41899 0
M  V30 4833 H 449.655 1.62719 -4.7701 0
M  V30 4834 H 449.257 0.238246 -3.7324 0
M  V30 4835 H 451.549 1.65479 -6.5698 0
M  V30 4836 H 452.492 0.217673 -7.07765 0
M  V30 4837 H 452.9 1.04806 -5.54685 0
M  V30 4838 N 452.299 1.55045 -0.282633 0
M  V30 4839 C 453.262 2.21515 0.588539 0
M  V30 4840 C 454.262 1.19535 1.07554 0
M  V30 4841 O 455.452 1.44391 0.974514 0
M  V30 4842 C 452.584 2.88704 1.8128 0
M  V30 4843 H 453.777 2.99899 0.00806397 0
M  V30 4844 H 451.33 1.56265 -0.0333067 0
M  V30 4845 H 452.065 2.14352 2.43359 0
M  V30 4846 H 451.85 3.63443 1.47144 0
M  V30 4847 H 453.34 3.39465 2.43214 0
M  V30 4848 N 453.777 0.010035 1.57597 0
M  V30 4849 C 454.707 -0.976857 2.12084 0
M  V30 4850 C 455.688 -1.35191 1.03235 0
M  V30 4851 O 456.873 -1.43389 1.3097 0
M  V30 4852 C 454.003 -2.26548 2.63236 0
M  V30 4853 C 452.957 -2.03175 3.76701 0
M  V30 4854 C 452.283 -3.38138 4.14206 0
M  V30 4855 C 453.583 -1.38625 5.03568 0
M  V30 4856 H 455.277 -0.523145 2.94794 0
M  V30 4857 H 452.823 -0.250195 1.4181 0
M  V30 4858 H 454.776 -2.95952 2.99984 0
M  V30 4859 H 453.5 -2.74051 1.77661 0
M  V30 4860 H 452.159 -1.36195 3.40362 0
M  V30 4861 H 451.807 -3.83363 3.25641 0
M  V30 4862 H 451.507 -3.23312 4.90656 0
M  V30 4863 H 453.031 -4.08841 4.53521 0
M  V30 4864 H 454.445 -1.98 5.38023 0
M  V30 4865 H 452.842 -1.34256 5.84889 0
M  V30 4866 H 453.912 -0.356722 4.83586 0
M  V30 4867 N 455.255 -1.55392 -0.262866 0
M  V30 4868 C 456.502 -1.76476 -0.993109 0
M  V30 4869 C 456.83 -0.571479 -1.85915 0
M  V30 4870 O 456.085 0.445733 -1.90556 0
M  V30 4871 C 456.384 -3.02889 -1.89718 0
M  V30 4872 C 456.05 -4.34974 -1.18781 0
M  V30 4873 C 454.712 -4.7087 -0.991699 0
M  V30 4874 C 457.064 -5.16695 -0.683798 0
M  V30 4875 C 454.392 -5.86036 -0.279024 0
M  V30 4876 C 456.744 -6.32598 0.0153327 0
M  V30 4877 C 455.408 -6.67127 0.223062 0
M  V30 4878 H 454.678 -0.64577 -0.363404 0
M  V30 4879 H 457.325 -1.89664 -0.264525 0
M  V30 4880 H 455.63 -2.84644 -2.6923 0
M  V30 4881 H 457.327 -3.16399 -2.46359 0
M  V30 4882 H 453.917 -4.06765 -1.35058 0
M  V30 4883 H 458.101 -4.8943 -0.8229 0
M  V30 4884 H 453.357 -6.11306 -0.107456 0
M  V30 4885 H 457.531 -6.95171 0.413584 0
M  V30 4886 H 455.158 -7.56216 0.777265 0
M  V30 4887 N 456.733 0.527833 -1.48498 0
M  V30 4888 C 457.958 1.313 -1.60546 0
M  V30 4889 C 458.383 1.86199 -0.26672 0
M  V30 4890 O 457.741 1.64513 0.761918 0
M  V30 4891 C 457.789 2.43818 -2.65678 0
M  V30 4892 O 456.893 3.46916 -2.22987 0
M  V30 4893 H 456.234 0.388784 -0.538277 0
M  V30 4894 H 458.764 0.634896 -1.945 0
M  V30 4895 H 458.774 2.89973 -2.87018 0
M  V30 4896 H 457.449 2.03222 -3.62869 0
M  V30 4897 H 456.026 3.06864 -2.11869 0
M  V30 4898 N 458.211 1.37122 0.776871 0
M  V30 4899 C 459.622 1.28667 1.35284 0
M  V30 4900 C 459.973 -0.0680035 1.96082 0
M  V30 4901 O 459.098 -0.969743 1.93455 0
M  V30 4902 C 459.693 2.32997 2.45963 0
M  V30 4903 C 458.252 2.28191 2.99342 0
M  V30 4904 C 457.399 2.17101 1.72517 0
M  V30 4905 H 460.35 1.47819 0.577527 0
M  V30 4906 H 460.371 1.97366 3.2531 0
M  V30 4907 H 459.883 3.3158 2.01684 0
M  V30 4908 H 457.984 1.33115 3.4801 0
M  V30 4909 H 458.097 3.21397 3.55304 0
M  V30 4910 H 456.461 1.63562 1.95242 0
M  V30 4911 H 457.244 3.17591 1.30348 0
M  V30 4912 N 459.689 -1.00246 1.21608 0
M  V30 4913 C 460.919 -1.77373 1.05935 0
M  V30 4914 C 461.327 -1.85059 -0.393686 0
M  V30 4915 O 460.67 -1.31289 -1.28487 0
M  V30 4916 C 460.732 -3.22705 1.58435 0
M  V30 4917 C 460.396 -3.38591 3.06929 0
M  V30 4918 C 461.393 -3.2667 4.04454 0
M  V30 4919 C 459.078 -3.6395 3.46187 0
M  V30 4920 C 461.072 -3.39877 5.39224 0
M  V30 4921 C 458.759 -3.768 4.81108 0
M  V30 4922 C 459.757 -3.6477 5.77436 0
M  V30 4923 O 459.445 -3.77206 7.09909 0
M  V30 4924 H 459.177 -0.56419 0.372378 0
M  V30 4925 H 461.731 -1.26971 1.61454 0
M  V30 4926 H 459.961 -3.74255 0.973147 0
M  V30 4927 H 461.65 -3.81515 1.38568 0
M  V30 4928 H 462.416 -3.06999 3.75468 0
M  V30 4929 H 458.295 -3.72395 2.71741 0
M  V30 4930 H 461.839 -3.30404 6.14393 0
M  V30 4931 H 457.736 -3.95975 5.09779 0
M  V30 4932 H 458.504 -3.94138 7.17355 0
M  V30 4933 N 461.167 -1.02423 -1.1978 0
M  V30 4934 C 462.444 -0.632802 -1.85081 0
M  V30 4935 C 462.824 0.888745 -1.9148 0
M  V30 4936 O 462.172 1.78357 -1.42832 0
M  V30 4937 C 462.382 -1.28947 -3.24305 0
M  V30 4938 C 463.73 -1.40976 -4.00513 0
M  V30 4939 O 464.754 -1.24628 -3.33686 0
M  V30 4940 O 463.613 -1.67467 -5.20209 0
M  V30 4941 H 460.707 -0.219348 -0.79738 0
M  V30 4942 H 463.253 -1.12209 -1.27307 0
M  V30 4943 H 462.025 -2.3288 -3.14456 0
M  V30 4944 H 461.648 -0.787748 -3.89718 0
M  V30 4945 N 462.645 1.35699 -0.801477 0
M  V30 4946 C 463.894 1.98165 -0.375979 0
M  V30 4947 C 464.207 1.64306 1.06127 0
M  V30 4948 O 465.413 2.20097 1.58964 0
M  V30 4949 C 463.869 3.54497 -0.621305 0
M  V30 4950 C 463.477 3.9727 -2.07076 0
M  V30 4951 C 465.221 4.23697 -0.26091 0
M  V30 4952 C 463.128 5.46427 -2.26211 0
M  V30 4953 H 462.058 0.741478 -0.136844 0
M  V30 4954 H 464.709 1.54834 -0.984814 0
M  V30 4955 H 463.091 3.95958 0.0574112 0
M  V30 4956 H 464.265 3.66974 -2.78687 0
M  V30 4957 H 462.58 3.40943 -2.39054 0
M  V30 4958 H 465.177 5.33334 -0.381994 0
M  V30 4959 H 465.52 4.0869 0.792344 0
M  V30 4960 H 466.053 3.87639 -0.893339 0
M  V30 4961 H 462.792 5.66396 -3.29963 0
M  V30 4962 H 462.312 5.78309 -1.59119 0
M  V30 4963 H 463.991 6.12819 -2.07513 0
M  V30 4964 N 464.123 0.554532 1.47522 0
M  V30 4965 C 465.055 -0.232106 2.28022 0
M  V30 4966 C 466.068 -0.881865 1.36847 0
M  V30 4967 O 467.257 -0.756168 1.61692 0
M  V30 4968 C 464.357 -1.34604 3.11022 0
M  V30 4969 C 463.53 -0.793582 4.30141 0
M  V30 4970 C 462.589 -1.79168 4.94758 0
M  V30 4971 O 461.615 -1.33886 5.5323 0
M  V30 4972 N 462.817 -3.12495 4.89211 0
M  V30 4973 H 465.582 0.458407 2.96173 0
M  V30 4974 H 463.143 0.390433 1.57122 0
M  V30 4975 H 465.135 -2.01243 3.51118 0
M  V30 4976 H 463.705 -1.93983 2.45131 0
M  V30 4977 H 462.925 0.0495025 3.94169 0
M  V30 4978 H 464.213 -0.403776 5.07195 0
M  V30 4979 H 463.611 -3.51931 4.42901 0
M  V30 4980 H 462.168 -3.74698 5.33333 0
M  V30 4981 N 465.601 -1.54893 0.290851 0
M  V30 4982 C 467.017 -1.59476 -0.0628432 0
M  V30 4983 C 467.217 -1.30795 -1.5328 0
M  V30 4984 O 466.273 -1.07644 -2.28406 0
M  V30 4985 C 467.586 -2.98928 0.325962 0
M  V30 4986 C 469.134 -3.11799 0.273882 0
M  V30 4987 C 469.609 -4.53544 0.637359 0
M  V30 4988 N 471.1 -4.59433 0.589507 0
M  V30 4989 C 471.835 -5.67164 0.84335 0
M  V30 4990 N 471.331 -6.82975 1.16263 0
M  V30 4991 N 473.124 -5.56786 0.771091 0
M  V30 4992 H 465.275 -1.71798 1.24896 0
M  V30 4993 H 467.538 -0.801879 0.505663 0
M  V30 4994 H 467.244 -3.24805 1.34887 0
M  V30 4995 H 467.118 -3.75793 -0.325441 0
M  V30 4996 H 469.505 -2.85677 -0.739765 0
M  V30 4997 H 469.586 -2.37112 0.959766 0
M  V30 4998 H 469.23 -4.80394 1.64877 0
M  V30 4999 H 469.16 -5.26553 -0.0704866 0
M  V30 5000 H 471.651 -3.76245 0.353252 0
M  V30 5001 H 471.964 -7.61048 1.34257 0
M  V30 5002 H 470.309 -6.84552 1.20057 0
M  V30 5003 H 473.5 -4.65187 0.521383 0
M  V30 5004 H 473.673 -6.40664 0.972295 0
M  V30 5005 N 467.08 -0.0183926 -1.57589 0
M  V30 5006 C 468.496 0.337897 -1.55982 0
M  V30 5007 C 468.696 1.73604 -1.02294 0
M  V30 5008 O 467.752 2.43589 -0.664895 0
M  V30 5009 C 469.065 0.196305 -3.00059 0
M  V30 5010 C 470.613 0.269875 -3.11834 0
M  V30 5011 C 471.088 0.157197 -4.5773 0
M  V30 5012 N 472.579 0.214521 -4.62703 0
M  V30 5013 C 473.314 0.150955 -5.73201 0
M  V30 5014 N 472.81 0.0369212 -6.9279 0
M  V30 5015 N 474.603 0.204162 -5.61729 0
M  V30 5016 H 466.754 -0.93279 -1.90821 0
M  V30 5017 H 469.017 -0.359253 -0.877292 0
M  V30 5018 H 468.723 -0.766383 -3.43248 0
M  V30 5019 H 468.597 0.970908 -3.6449 0
M  V30 5020 H 470.984 1.22302 -2.68563 0
M  V30 5021 H 471.065 -0.534918 -2.50144 0
M  V30 5022 H 470.709 -0.792479 -5.01679 0
M  V30 5023 H 470.639 0.980717 -5.17387 0
M  V30 5024 H 473.13 0.303238 -3.76681 0
M  V30 5025 H 473.443 -0.00518321 -7.728 0
M  V30 5026 H 471.788 0.0022886 -6.95 0
M  V30 5027 H 474.979 0.291575 -4.67191 0
M  V30 5028 H 475.152 0.15116 -6.47824 0
M  V30 5029 N 468.558 1.5553 0.254621 0
M  V30 5030 C 469.788 1.80784 1.00004 0
M  V30 5031 C 470.196 0.59071 1.79742 0
M  V30 5032 O 469.539 -0.449988 1.78103 0
M  V30 5033 C 469.601 2.99268 1.99196 0
M  V30 5034 C 469.265 4.35595 1.38224 0
M  V30 5035 C 470.262 5.13884 0.788611 0
M  V30 5036 C 467.947 4.82281 1.40393 0
M  V30 5037 C 469.941 6.37004 0.224783 0
M  V30 5038 C 467.628 6.05351 0.836243 0
M  V30 5039 C 468.626 6.82551 0.24769 0
M  V30 5040 O 468.314 8.03297 -0.311249 0
M  V30 5041 H 468.046 0.60565 0.300274 0
M  V30 5042 H 470.6 2.03411 0.285143 0
M  V30 5043 H 468.83 2.72377 2.74496 0
M  V30 5044 H 470.519 3.11682 2.60018 0
M  V30 5045 H 471.285 4.78938 0.764423 0
M  V30 5046 H 467.164 4.22189 1.85142 0
M  V30 5047 H 470.708 6.97203 -0.235235 0
M  V30 5048 H 466.605 6.39776 0.857733 0
M  V30 5049 H 467.373 8.1825 -0.20237 0
M  V30 5050 N 470.036 -0.519951 1.48776 0
M  V30 5051 C 471.284 -1.2727 1.56993 0
M  V30 5052 C 471.605 -1.9339 0.25004 0
M  V30 5053 O 470.875 -1.81822 -0.729216 0
M  V30 5054 H 469.455 -0.472732 0.578389 0
M  V30 5055 H 472.117 -0.604234 1.85297 0
M  V30 5056 H 471.213 -2.04669 2.3562 0
M  V30 5057 N 471.514 -1.37532 -0.769588 0
M  V30 5058 C 472.461 -1.3347 -1.88293 0
M  V30 5059 C 473.431 -0.199891 -1.64893 0
M  V30 5060 O 474.616 -0.389594 -1.8678 0
M  V30 5061 C 471.756 -1.14968 -3.25387 0
M  V30 5062 C 470.869 -2.37698 -3.60727 0
M  V30 5063 C 470.004 -2.12051 -4.8704 0
M  V30 5064 C 469.043 -3.30636 -5.15117 0
M  V30 5065 N 468.18 -3.04527 -6.3262 0
M  V30 5066 H 473.02 -2.28658 -1.911 0
M  V30 5067 H 470.557 -1.13622 -0.934257 0
M  V30 5068 H 472.515 -1.02261 -4.04473 0
M  V30 5069 H 471.145 -0.234263 -3.21949 0
M  V30 5070 H 470.197 -2.61137 -2.76608 0
M  V30 5071 H 471.509 -3.26131 -3.77413 0
M  V30 5072 H 470.663 -1.96388 -5.74035 0
M  V30 5073 H 469.402 -1.20959 -4.72462 0
M  V30 5074 H 468.407 -3.46836 -4.26597 0
M  V30 5075 H 469.632 -4.22582 -5.31603 0
M  V30 5076 H 467.578 -2.16067 -6.19396 0
M  V30 5077 H 467.495 -3.86503 -6.49732 0
M  V30 5078 H 468.763 -2.92485 -7.22546 0
M  V30 5079 N 472.992 0.995999 -1.22138 0
M  V30 5080 C 474.403 1.54961 -1.04135 0
M  V30 5081 C 474.754 1.92159 0.396147 0
M  V30 5082 O 473.879 1.74435 1.28069 0
M  V30 5083 C 474.474 2.81581 -1.88408 0
M  V30 5084 C 473.033 3.33396 -1.74712 0
M  V30 5085 C 472.18 2.06509 -1.85066 0
M  V30 5086 H 475.131 0.817436 -1.36028 0
M  V30 5087 H 475.152 3.53822 -1.39966 0
M  V30 5088 H 474.664 2.54476 -2.93025 0
M  V30 5089 H 472.765 3.65416 -0.728159 0
M  V30 5090 H 472.878 4.04208 -2.57202 0
M  V30 5091 H 471.242 2.19925 -1.28472 0
M  V30 5092 H 472.025 1.81804 -2.91208 0
M  V30 5093 N 474.47 1.03057 1.19235 0
M  V30 5094 C 475.717 0.728019 1.88961 0
M  V30 5095 C 476.045 -0.743515 1.79728 0
M  V30 5096 O 475.3 -1.55729 1.1852 0
M  V30 5097 C 475.599 1.1268 3.39172 0
M  V30 5098 C 475.265 2.5969 3.68608 0
M  V30 5099 C 473.927 2.99854 3.76352 0
M  V30 5100 C 476.279 3.54793 3.81801 0
M  V30 5101 C 473.607 4.34031 3.94758 0
M  V30 5102 C 475.959 4.88675 4.0172 0
M  V30 5103 C 474.623 5.28526 4.07697 0
M  V30 5104 H 473.893 0.266401 0.691456 0
M  V30 5105 H 476.54 1.29373 1.41191 0
M  V30 5106 H 474.845 0.479722 3.88852 0
M  V30 5107 H 476.542 0.870203 3.91444 0
M  V30 5108 H 473.132 2.27575 3.63191 0
M  V30 5109 H 477.316 3.24914 3.7516 0
M  V30 5110 H 472.572 4.6444 3.97625 0
M  V30 5111 H 476.746 5.6228 4.1087 0
M  V30 5112 H 474.373 6.32506 4.21712 0
M  V30 5113 N 475.948 -1.35272 0.808662 0
M  V30 5114 C 477.196 -1.98316 0.389233 0
M  V30 5115 C 477.517 -1.64465 -1.04767 0
M  V30 5116 O 476.787 -0.928175 -1.72516 0
M  V30 5117 H 475.367 -0.733585 0.140935 0
M  V30 5118 H 478.029 -1.6515 1.03496 0
M  V30 5119 H 477.125 -3.08123 0.496631 0
M  V30 5120 N 477.426 -0.562348 -1.47226 0
M  V30 5121 C 478.703 0.0256985 -1.95583 0
M  V30 5122 C 479.083 1.48032 -1.50498 0
M  V30 5123 O 478.431 2.15973 -0.746181 0
M  V30 5124 C 478.641 -0.125129 -3.48776 0
M  V30 5125 C 479.989 0.0175728 -4.24596 0
M  V30 5126 O 481.013 -0.0529341 -3.56161 0
M  V30 5127 O 479.872 0.170145 -5.46235 0
M  V30 5128 H 476.966 0.0612565 -0.824728 0
M  V30 5129 H 479.512 -0.629233 -1.57603 0
M  V30 5130 H 478.284 -1.13715 -3.74412 0
M  V30 5131 H 477.907 0.567178 -3.93534 0
M  V30 5132 N 478.904 1.54736 -0.299062 0
M  V30 5133 C 480.153 1.99279 0.311549 0
M  V30 5134 C 480.466 1.19107 1.55154 0
M  V30 5135 O 481.672 1.53908 2.23662 0
M  V30 5136 C 480.128 3.54768 0.605632 0
M  V30 5137 C 479.736 4.43746 -0.615914 0
M  V30 5138 C 481.48 4.07841 1.17754 0
M  V30 5139 C 479.387 5.90663 -0.29509 0
M  V30 5140 H 478.317 0.744359 0.120187 0
M  V30 5141 H 480.968 1.78919 -0.407464 0
M  V30 5142 H 479.35 3.71021 1.38419 0
M  V30 5143 H 480.524 4.39267 -1.39218 0
M  V30 5144 H 478.839 4.01434 -1.10633 0
M  V30 5145 H 481.436 5.15174 1.43179 0
M  V30 5146 H 481.779 3.58324 2.11918 0
M  V30 5147 H 482.312 3.95123 0.460739 0
M  V30 5148 H 479.051 6.44325 -1.20524 0
M  V30 5149 H 478.571 5.98155 0.44394 0
M  V30 5150 H 480.25 6.46916 0.104048 0
M  V30 5151 N 480.382 0.0267497 1.57577 0
M  V30 5152 C 481.345 -0.940916 2.08996 0
M  V30 5153 C 482.345 -1.25561 1.00455 0
M  V30 5154 O 483.535 -1.19634 1.26623 0
M  V30 5155 C 480.667 -2.25814 2.55384 0
M  V30 5156 H 481.86 -0.495628 2.95776 0
M  V30 5157 H 479.413 -0.221241 1.54726 0
M  V30 5158 H 480.148 -2.74976 1.71926 0
M  V30 5159 H 479.933 -2.04285 3.34679 0
M  V30 5160 H 481.423 -2.95178 2.95398 0
M  V30 5161 N 481.861 -1.55662 -0.24637 0
M  V30 5162 C 483.11 -1.7672 -0.972254 0
M  V30 5163 C 483.423 -0.59078 -1.86465 0
M  V30 5164 O 484.629 -0.684391 -2.62732 0
M  V30 5165 C 483.085 -3.12869 -1.7788 0
M  V30 5166 C 482.693 -4.38161 -0.933768 0
M  V30 5167 C 484.437 -3.43265 -2.49738 0
M  V30 5168 C 482.344 -5.6534 -1.73623 0
M  V30 5169 H 481.274 -0.658795 -0.366749 0
M  V30 5170 H 483.925 -1.82092 -0.226902 0
M  V30 5171 H 482.307 -3.01606 -2.56612 0
M  V30 5172 H 483.481 -4.60413 -0.188736 0
M  V30 5173 H 481.796 -4.15102 -0.328488 0
M  V30 5174 H 484.393 -4.35501 -3.10231 0
M  V30 5175 H 484.736 -2.64614 -3.2138 0
M  V30 5176 H 485.269 -3.55746 -1.78016 0
M  V30 5177 H 482.008 -6.46814 -1.06354 0
M  V30 5178 H 481.528 -5.47188 -2.45653 0
M  V30 5179 H 483.207 -6.04616 -2.30323 0
M  V30 5180 N 483.339 0.512053 -1.4905 0
M  V30 5181 C 484.564 1.2959 -1.6193 0
M  V30 5182 C 484.989 1.85906 -0.286454 0
M  V30 5183 O 484.347 1.65312 0.744426 0
M  V30 5184 C 484.395 2.40987 -2.68249 0
M  V30 5185 O 483.499 3.44531 -2.26654 0
M  V30 5186 H 482.84 0.383053 -0.542371 0
M  V30 5187 H 485.37 0.614231 -1.95162 0
M  V30 5188 H 485.38 2.86913 -2.90078 0
M  V30 5189 H 484.055 1.99361 -3.65004 0
M  V30 5190 H 482.632 3.046 -2.15112 0
M  V30 5191 N 484.817 1.37938 0.762283 0
M  V30 5192 C 485.727 1.36681 1.90671 0
M  V30 5193 C 486.743 0.265078 1.71969 0
M  V30 5194 O 487.919 0.502055 1.95042 0
M  V30 5195 C 484.984 1.18211 3.25925 0
M  V30 5196 C 484.045 2.3811 3.57214 0
M  V30 5197 C 483.278 2.20512 4.86014 0
M  V30 5198 O 483.501 1.19429 5.57757 0
M  V30 5199 O 482.435 3.08911 5.16583 0
M  V30 5200 H 486.261 2.33091 1.94685 0
M  V30 5201 H 483.846 1.18767 0.906356 0
M  V30 5202 H 485.728 1.09937 4.06807 0
M  V30 5203 H 484.403 0.248807 3.22742 0
M  V30 5204 H 483.31 2.51958 2.76529 0
M  V30 5205 H 484.643 3.30041 3.65149 0
M  V30 5206 N 486.295 -0.989507 1.22664 0
M  V30 5207 C 487.711 -1.25395 0.987331 0
M  V30 5208 C 487.911 -1.9899 -0.317056 0
M  V30 5209 O 486.967 -2.30141 -1.03882 0
M  V30 5210 C 488.28 -2.06242 2.18826 0
M  V30 5211 C 489.828 -2.19413 2.23219 0
M  V30 5212 C 490.303 -3.03648 3.42873 0
M  V30 5213 N 491.794 -3.11234 3.43056 0
M  V30 5214 C 492.529 -3.7671 4.32293 0
M  V30 5215 N 492.025 -4.44085 5.31752 0
M  V30 5216 N 493.818 -3.73505 4.2006 0
M  V30 5217 H 485.969 -0.496212 2.06522 0
M  V30 5218 H 488.232 -0.281784 0.905153 0
M  V30 5219 H 487.938 -1.59531 3.13437 0
M  V30 5220 H 487.812 -3.06996 2.19165 0
M  V30 5221 H 490.199 -2.65336 1.29154 0
M  V30 5222 H 490.28 -1.18078 2.26917 0
M  V30 5223 H 489.924 -2.58424 4.37241 0
M  V30 5224 H 489.854 -4.05132 3.36416 0
M  V30 5225 H 492.345 -2.63287 2.71088 0
M  V30 5226 H 492.658 -4.91797 5.96117 0
M  V30 5227 H 491.003 -4.42822 5.35662 0
M  V30 5228 H 494.194 -3.20033 3.41609 0
M  V30 5229 H 494.367 -4.24253 4.8981 0
M  V30 5230 N 487.773 -1.03688 -1.18687 0
M  V30 5231 C 489.003 -0.756819 -1.92239 0
M  V30 5232 C 489.411 0.689374 -1.76194 0
M  V30 5233 O 488.754 1.48126 -1.08648 0
M  V30 5234 C 488.816 -1.03851 -3.44173 0
M  V30 5235 C 488.48 -2.47785 -3.83994 0
M  V30 5236 C 489.477 -3.4595 -3.88091 0
M  V30 5237 C 487.162 -2.82397 -4.154 0
M  V30 5238 C 489.156 -4.76779 -4.23038 0
M  V30 5239 C 486.843 -4.13433 -4.50018 0
M  V30 5240 C 487.841 -5.10434 -4.53813 0
M  V30 5241 O 487.529 -6.39122 -4.87625 0
M  V30 5242 H 487.261 -0.275678 -0.617234 0
M  V30 5243 H 489.815 -1.38658 -1.51536 0
M  V30 5244 H 488.045 -0.351612 -3.85098 0
M  V30 5245 H 489.734 -0.746846 -3.9897 0
M  V30 5246 H 490.5 -3.20549 -3.63969 0
M  V30 5247 H 486.379 -2.07568 -4.11627 0
M  V30 5248 H 489.923 -5.52488 -4.25914 0
M  V30 5249 H 485.82 -4.38604 -4.736 0
M  V30 5250 H 486.588 -6.43715 -5.05542 0
M  V30 5251 N 489.251 1.34841 -0.815825 0
M  V30 5252 C 490.528 1.92908 -0.323416 0
M  V30 5253 C 490.908 1.74479 1.18828 0
M  V30 5254 O 490.256 1.11928 1.99209 0
M  V30 5255 C 490.466 3.40957 -0.744952 0
M  V30 5256 C 491.814 4.18107 -0.739716 0
M  V30 5257 O 492.838 3.49511 -0.68708 0
M  V30 5258 O 491.697 5.40517 -0.806456 0
M  V30 5259 H 488.791 0.822436 -0.0867646 0
M  V30 5260 H 491.337 1.4386 -0.90014 0
M  V30 5261 H 490.109 3.4814 -1.78646 0
M  V30 5262 H 489.732 3.97341 -0.143535 0
M  V30 5263 N 490.729 0.570148 1.46925 0
M  V30 5264 C 491.639 -0.173061 2.33961 0
M  V30 5265 C 492.655 -0.898825 1.48987 0
M  V30 5266 O 493.831 -0.864825 1.81887 0
M  V30 5267 C 490.896 -1.18177 3.25937 0
M  V30 5268 C 489.957 -0.462041 4.26806 0
M  V30 5269 C 489.19 -1.4227 5.14388 0
M  V30 5270 O 489.413 -2.65842 5.04662 0
M  V30 5271 O 488.347 -0.940127 5.94513 0
M  V30 5272 H 492.173 0.541216 2.98839 0
M  V30 5273 H 489.758 0.330647 1.45695 0
M  V30 5274 H 491.64 -1.76372 3.82715 0
M  V30 5275 H 490.315 -1.87774 2.63671 0
M  V30 5276 H 489.222 0.161429 3.73752 0
M  V30 5277 H 490.555 0.192719 4.91823 0
M  V30 5278 N 492.207 -1.54576 0.307264 0
M  V30 5279 C 493.137 -2.26708 -0.55907 0
M  V30 5280 C 494.118 -1.26893 -1.1328 0
M  V30 5281 O 495.303 -1.55677 -1.16097 0
M  V30 5282 C 492.433 -3.01259 -1.72801 0
M  V30 5283 C 491.387 -4.08275 -1.28435 0
M  V30 5284 C 490.713 -4.70575 -2.53895 0
M  V30 5285 C 492.013 -5.2068 -0.411038 0
M  V30 5286 H 493.707 -2.9937 0.042576 0
M  V30 5287 H 491.253 -1.43983 0.0219173 0
M  V30 5288 H 493.206 -3.50444 -2.34023 0
M  V30 5289 H 491.93 -2.26187 -2.356 0
M  V30 5290 H 490.589 -3.59949 -0.695161 0
M  V30 5291 H 490.237 -3.92136 -3.15021 0
M  V30 5292 H 489.937 -5.42854 -2.24908 0
M  V30 5293 H 491.461 -5.22527 -3.15908 0
M  V30 5294 H 492.875 -5.65721 -0.929097 0
M  V30 5295 H 491.272 -5.99716 -0.214664 0
M  V30 5296 H 492.342 -4.81629 0.562287 0
M  V30 5297 N 493.685 -0.035106 -1.57561 0
M  V30 5298 C 494.934 0.641604 -1.91223 0
M  V30 5299 C 495.247 1.72944 -0.913761 0
M  V30 5300 O 496.453 2.46321 -1.14185 0
M  V30 5301 C 494.909 1.19249 -3.3957 0
M  V30 5302 C 494.517 0.137616 -4.47789 0
M  V30 5303 C 496.261 1.84537 -3.82291 0
M  V30 5304 C 494.168 0.700478 -5.87237 0
M  V30 5305 H 493.098 0.243417 -0.713627 0
M  V30 5306 H 495.749 -0.101382 -1.8322 0
M  V30 5307 H 494.131 1.98728 -3.42525 0
M  V30 5308 H 495.305 -0.635153 -4.56402 0
M  V30 5309 H 493.62 -0.416855 -4.14308 0
M  V30 5310 H 496.217 2.27616 -4.83834 0
M  V30 5311 H 496.56 2.69054 -3.17672 0
M  V30 5312 H 497.093 1.11739 -3.81784 0
M  V30 5313 H 493.832 -0.106693 -6.55413 0
M  V30 5314 H 493.352 1.4416 -5.82218 0
M  V30 5315 H 495.031 1.18837 -6.35993 0
M  V30 5316 N 495.163 1.55791 0.238111 0
M  V30 5317 C 496.126 1.90239 1.27835 0
M  V30 5318 C 497.126 0.779552 1.4064 0
M  V30 5319 O 498.316 1.04747 1.3919 0
M  V30 5320 C 495.448 2.13859 2.65475 0
M  V30 5321 H 496.641 2.83262 0.985034 0
M  V30 5322 H 494.194 1.48818 0.477799 0
M  V30 5323 H 494.929 1.23334 2.99932 0
M  V30 5324 H 494.714 2.95643 2.57561 0
M  V30 5325 H 496.204 2.41664 3.40571 0
M  V30 5326 N 496.642 -0.504142 1.49319 0
M  V30 5327 C 497.919 -1.26548 1.49147 0
M  V30 5328 C 498.299 -2.09977 0.21744 0
M  V30 5329 O 497.647 -2.14028 -0.800269 0
M  V30 5330 C 497.857 -2.12489 2.76857 0
M  V30 5331 C 499.205 -2.7178 3.26222 0
M  V30 5332 O 500.229 -2.22758 2.77952 0
M  V30 5333 O 499.088 -3.61015 4.10281 0
M  V30 5334 H 496.182 -0.572495 0.596806 0
M  V30 5335 H 498.728 -0.51867 1.61579 0
M  V30 5336 H 497.5 -1.50796 3.61077 0
M  V30 5337 H 497.123 -2.94368 2.6727 0
M  V30 5338 N 498.12 -1.38341 -0.754957 0
M  V30 5339 C 499.531 -1.30803 -1.3322 0
M  V30 5340 C 499.882 0.0368 -1.96165 0
M  V30 5341 O 499.007 0.938844 -1.94974 0
M  V30 5342 C 499.602 -2.3688 -2.42225 0
M  V30 5343 C 498.161 -2.32925 -2.95674 0
M  V30 5344 C 497.308 -2.19819 -1.69042 0
M  V30 5345 H 500.259 -1.48719 -0.553937 0
M  V30 5346 H 500.28 -2.02517 -3.22129 0
M  V30 5347 H 499.792 -3.34747 -1.96383 0
M  V30 5348 H 497.893 -1.38635 -3.45848 0
M  V30 5349 H 498.006 -3.27008 -3.50146 0
M  V30 5350 H 496.37 -1.66648 -1.92615 0
M  V30 5351 H 497.153 -3.19625 -1.25279 0
M  V30 5352 N 499.598 0.982988 -1.23187 0
M  V30 5353 C 500.548 2.05962 -0.977942 0
M  V30 5354 C 501.532 1.60725 0.0751148 0
M  V30 5355 O 502.724 1.76471 -0.136683 0
M  V30 5356 C 499.853 3.38564 -0.568276 0
M  V30 5357 C 498.939 3.90407 -1.6566 0
M  V30 5358 N 499.33 4.15359 -2.88635 0
M  V30 5359 C 497.628 4.18915 -1.53058 0
M  V30 5360 C 498.329 4.57642 -3.5908 0
M  V30 5361 N 497.305 4.6192 -2.86584 0
M  V30 5362 H 501.107 2.23208 -1.91195 0
M  V30 5363 H 498.621 1.16555 -1.13087 0
M  V30 5364 H 500.618 4.15276 -0.36764 0
M  V30 5365 H 499.278 3.22712 0.358713 0
M  V30 5366 H 500.289 4.03258 -3.24966 0
M  V30 5367 H 496.966 4.12081 -0.670506 0
M  V30 5368 H 498.356 4.85488 -4.6449 0
M  V30 5369 N 501.076 1.04316 1.18135 0
M  V30 5370 C 502.322 0.749128 1.88457 0
M  V30 5371 C 502.655 -0.72149 1.803 0
M  V30 5372 O 501.93 -1.52676 1.205 0
M  V30 5373 C 502.213 1.21905 3.38838 0
M  V30 5374 C 502.066 2.75195 3.55792 0
M  V30 5375 C 503.385 0.811085 4.32561 0
M  V30 5376 H 500.504 0.273611 0.684329 0
M  V30 5377 H 503.146 1.29561 1.38975 0
M  V30 5378 H 501.296 0.754137 3.8111 0
M  V30 5379 H 502.968 3.29743 3.22595 0
M  V30 5380 H 501.211 3.14899 2.98364 0
M  V30 5381 H 501.882 3.03135 4.61317 0
M  V30 5382 H 504.358 1.21118 3.98082 0
M  V30 5383 H 503.234 1.16761 5.36338 0
M  V30 5384 H 503.495 -0.285596 4.41177 0
M  V30 5385 N 502.554 -1.34406 0.822964 0
M  V30 5386 C 503.97 -1.51275 0.508727 0
M  V30 5387 C 504.17 -1.76776 -0.967083 0
M  V30 5388 O 503.226 -1.81871 -1.75155 0
M  V30 5389 C 504.539 -2.67765 1.36829 0
M  V30 5390 C 506.087 -2.81647 1.36542 0
M  V30 5391 C 506.562 -4.01181 2.20947 0
M  V30 5392 N 508.053 -4.08388 2.18571 0
M  V30 5393 C 508.788 -5.00036 2.80627 0
M  V30 5394 N 508.284 -5.96906 3.51674 0
M  V30 5395 N 510.077 -4.92908 2.70181 0
M  V30 5396 H 502.228 -1.16113 1.77852 0
M  V30 5397 H 504.491 -0.56947 0.757897 0
M  V30 5398 H 504.197 -2.55551 2.41633 0
M  V30 5399 H 504.071 -3.62779 1.03303 0
M  V30 5400 H 506.458 -2.93303 0.325163 0
M  V30 5401 H 506.539 -1.87443 1.74066 0
M  V30 5402 H 506.183 -3.90286 3.25022 0
M  V30 5403 H 506.113 -4.94599 1.80774 0
M  V30 5404 H 508.604 -3.39051 1.66891 0
M  V30 5405 H 508.917 -6.63468 3.96271 0
M  V30 5406 H 507.262 -5.9703 3.5578 0
M  V30 5407 H 510.453 -4.1619 2.14251 0
M  V30 5408 H 510.626 -5.64137 3.18831 0
M  V30 5409 N 504.032 -0.577932 -1.46621 0
M  V30 5410 C 504.979 0.158048 -2.30258 0
M  V30 5411 C 505.949 0.888669 -1.40328 0
M  V30 5412 O 507.134 0.880283 -1.6928 0
M  V30 5413 C 504.274 1.16884 -3.24703 0
M  V30 5414 C 503.387 0.442163 -4.29731 0
M  V30 5415 C 502.522 1.44007 -5.11308 0
M  V30 5416 C 501.561 0.69952 -6.0809 0
M  V30 5417 N 500.698 1.64525 -6.82551 0
M  V30 5418 H 505.538 -0.561242 -2.92667 0
M  V30 5419 H 503.075 -0.288591 -1.44241 0
M  V30 5420 H 505.033 1.7677 -3.779 0
M  V30 5421 H 503.663 1.85591 -2.64113 0
M  V30 5422 H 502.715 -0.271632 -3.79429 0
M  V30 5423 H 504.027 -0.136992 -4.98612 0
M  V30 5424 H 503.181 2.11186 -5.68758 0
M  V30 5425 H 501.92 2.05315 -4.42377 0
M  V30 5426 H 500.925 0.0139217 -5.49798 0
M  V30 5427 H 502.15 0.091894 -6.79038 0
M  V30 5428 H 500.096 2.24653 -6.16334 0
M  V30 5429 H 500.013 1.11878 -7.47676 0
M  V30 5430 H 501.281 2.30754 -7.44562 0
M  V30 5431 N 505.51 1.54411 -0.315457 0
M  V30 5432 C 506.738 2.04833 0.291738 0
M  V30 5433 C 507.153 1.19203 1.46411 0
M  V30 5434 O 506.51 0.220867 1.81159 0
M  V30 5435 C 506.561 3.53969 0.73404 0
M  V30 5436 O 506.282 4.36346 -0.391682 0
M  V30 5437 C 507.783 4.2045 1.40489 0
M  V30 5438 H 505.003 0.668195 0.0612947 0
M  V30 5439 H 507.547 1.99276 -0.45929 0
M  V30 5440 H 505.702 3.5984 1.43506 0
M  V30 5441 H 506.116 5.24481 -0.0447088 0
M  V30 5442 H 507.59 5.26278 1.66539 0
M  V30 5443 H 508.067 3.71067 2.3496 0
M  V30 5444 H 508.673 4.18694 0.746662 0
M  V30 5445 N 506.988 0.0434614 1.5754 0
M  V30 5446 C 508.218 -0.640905 1.96408 0
M  V30 5447 C 508.626 -1.65365 0.919297 0
M  V30 5448 O 507.969 -1.83395 -0.105795 0
M  V30 5449 C 508.031 -1.39141 3.31482 0
M  V30 5450 C 507.695 -0.535375 4.53853 0
M  V30 5451 C 508.692 0.195335 5.19533 0
M  V30 5452 C 506.377 -0.468564 5.0011 0
M  V30 5453 C 508.371 0.981377 6.298 0
M  V30 5454 C 506.058 0.321171 6.10255 0
M  V30 5455 C 507.056 1.04484 6.74961 0
M  V30 5456 O 506.744 1.8216 7.8299 0
M  V30 5457 H 506.476 -0.180584 0.651433 0
M  V30 5458 H 509.03 0.103848 2.05137 0
M  V30 5459 H 507.26 -2.18162 3.19284 0
M  V30 5460 H 508.949 -1.96526 3.55151 0
M  V30 5461 H 509.715 0.15314 4.84758 0
M  V30 5462 H 505.594 -1.02142 4.49542 0
M  V30 5463 H 509.138 1.54674 6.80237 0
M  V30 5464 H 505.035 0.365032 6.44467 0
M  V30 5465 H 505.803 1.74289 7.99728 0
M  V30 5466 N 508.466 -1.55915 -0.229846 0
M  V30 5467 C 509.715 -1.77742 -0.953455 0
M  V30 5468 C 510.028 -0.610524 -1.85828 0
M  V30 5469 O 511.234 -0.712219 -2.61992 0
M  V30 5470 C 509.69 -3.14738 -1.74551 0
M  V30 5471 C 509.298 -4.39126 -0.887242 0
M  V30 5472 C 511.042 -3.45895 -2.46084 0
M  V30 5473 C 508.949 -5.67149 -1.67617 0
M  V30 5474 H 507.879 -0.662648 -0.359741 0
M  V30 5475 H 510.53 -1.82322 -0.207576 0
M  V30 5476 H 508.912 -3.04311 -2.53399 0
M  V30 5477 H 510.086 -4.60588 -0.139892 0
M  V30 5478 H 508.401 -4.15427 -0.284443 0
M  V30 5479 H 510.998 -4.38767 -3.05594 0
M  V30 5480 H 511.341 -2.68007 -3.18556 0
M  V30 5481 H 511.874 -3.57614 -1.74233 0
M  V30 5482 H 508.613 -6.47906 -0.994881 0
M  V30 5483 H 508.133 -5.49763 -2.39836 0
M  V30 5484 H 509.812 -6.07025 -2.23898 0
M  V30 5485 N 509.944 0.496216 -1.49584 0
M  V30 5486 C 510.892 1.61805 -1.67098 0
M  V30 5487 C 511.886 1.60667 -0.536877 0
M  V30 5488 O 513.092 1.65118 -0.716654 0
M  V30 5489 H 509.467 0.53646 -0.526986 0
M  V30 5490 H 511.438 1.44187 -2.61252 0
M  V30 5491 C 510.187 2.99912 -1.75921 0
M  V30 5492 H 509.51 3.01496 -2.62565 0
M  V30 5493 H 510.95 3.77931 -1.92209 0
M  V30 5494 C 509.409 3.33092 -0.505088 0
M  V30 5495 O 509.939 4.00019 0.367085 0
M  V30 5496 N 508.145 2.88278 -0.366599 0
M  V30 5497 H 507.692 2.33989 -1.07735 0
M  V30 5498 H 507.65 3.10846 0.47142 0
M  V30 5499 N 511.423 1.38739 0.74761 0
M  V30 5500 C 512.386 1.36241 1.84312 0
M  V30 5501 C 513.386 0.261811 1.58654 0
M  V30 5502 O 514.576 0.519031 1.66288 0
M  V30 5503 C 511.708 1.12253 3.21888 0
M  V30 5504 H 512.901 2.33712 1.87933 0
M  V30 5505 H 510.454 1.2412 0.949946 0
M  V30 5506 H 511.189 0.154133 3.23934 0
M  V30 5507 H 510.974 1.91943 3.41907 0
M  V30 5508 H 512.464 1.13215 4.0196 0
M  V30 5509 N 512.901 -0.976442 1.23707 0
M  V30 5510 C 514.317 -1.24341 1.00058 0
M  V30 5511 C 514.517 -1.99315 -0.295932 0
M  V30 5512 O 513.573 -2.3123 -1.01435 0
M  V30 5513 C 514.886 -2.03909 2.21001 0
M  V30 5514 C 516.434 -2.17034 2.25534 0
M  V30 5515 C 516.909 -2.99994 3.46075 0
M  V30 5516 N 518.4 -3.07578 3.46338 0
M  V30 5517 C 519.135 -3.72104 4.36264 0
M  V30 5518 N 518.631 -4.3842 5.36432 0
M  V30 5519 N 520.424 -3.69029 4.23998 0
M  V30 5520 H 512.575 -0.47428 2.07037 0
M  V30 5521 H 514.838 -0.272167 0.908091 0
M  V30 5522 H 514.544 -1.56198 3.15111 0
M  V30 5523 H 514.418 -3.04654 2.22409 0
M  V30 5524 H 516.805 -2.63951 1.31961 0
M  V30 5525 H 516.886 -1.15664 2.28156 0
M  V30 5526 H 516.53 -2.53772 4.39957 0
M  V30 5527 H 516.46 -4.01541 3.40694 0
M  V30 5528 H 518.951 -2.60397 2.73865 0
M  V30 5529 H 519.264 -4.85447 6.013 0
M  V30 5530 H 517.609 -4.37116 5.40328 0
M  V30 5531 H 520.8 -3.16392 3.44984 0
M  V30 5532 H 520.973 -4.19034 4.94282 0
M  V30 5533 N 514.379 -1.04941 -1.1758 0
M  V30 5534 C 515.656 -0.671918 -1.83697 0
M  V30 5535 C 516.036 0.847929 -1.93322 0
M  V30 5536 O 515.384 1.75287 -1.46583 0
M  V30 5537 C 515.594 -1.35797 -3.21497 0
M  V30 5538 C 516.942 -1.4944 -3.97433 0
M  V30 5539 O 517.966 -1.31678 -3.30967 0
M  V30 5540 O 516.825 -1.78463 -5.1654 0
M  V30 5541 H 513.919 -0.236212 -0.792548 0
M  V30 5542 H 516.465 -1.14884 -1.24899 0
M  V30 5543 H 515.237 -2.39498 -3.09446 0
M  V30 5544 H 514.86 -0.870236 -3.8796 0
M  V30 5545 N 515.857 1.33968 -0.830081 0
M  V30 5546 C 517.104 1.98063 -0.421566 0
M  V30 5547 C 517.432 1.65787 1.0171 0
M  V30 5548 O 516.687 0.925348 1.72441 0
M  V30 5549 C 516.986 3.52679 -0.57898 0
M  V30 5550 C 516.652 4.04884 -1.98443 0
M  V30 5551 C 515.314 4.18852 -2.36888 0
M  V30 5552 C 517.666 4.32879 -2.90285 0
M  V30 5553 C 514.994 4.58145 -3.66497 0
M  V30 5554 C 517.346 4.7362 -4.19364 0
M  V30 5555 C 516.01 4.85794 -4.57778 0
M  V30 5556 H 515.28 0.724765 -0.154262 0
M  V30 5557 H 517.927 1.59792 -1.05541 0
M  V30 5558 H 516.232 3.91556 0.138219 0
M  V30 5559 H 517.929 4.00261 -0.243317 0
M  V30 5560 H 514.519 3.9448 -1.67581 0
M  V30 5561 H 518.703 4.21619 -2.61823 0
M  V30 5562 H 513.959 4.65762 -3.96075 0
M  V30 5563 H 518.133 4.9424 -4.90612 0
M  V30 5564 H 515.76 5.15998 -5.58256 0
M  V30 5565 N 517.335 0.585699 1.46312 0
M  V30 5566 C 518.582 0.0724211 2.0237 0
M  V30 5567 C 518.91 -1.28868 1.45683 0
M  V30 5568 O 518.165 -1.85853 0.612945 0
M  V30 5569 C 518.464 -0.0401312 3.57377 0
M  V30 5570 C 518.13 1.25376 4.33119 0
M  V30 5571 C 516.792 1.60824 4.5353 0
M  V30 5572 C 519.144 2.10987 4.76586 0
M  V30 5573 C 516.472 2.81676 5.14661 0
M  V30 5574 C 518.824 3.31068 5.39052 0
M  V30 5575 C 517.488 3.66794 5.5769 0
M  V30 5576 H 516.758 0.0265007 0.740526 0
M  V30 5577 H 519.405 0.762935 1.75646 0
M  V30 5578 H 517.71 -0.813791 3.83255 0
M  V30 5579 H 519.407 -0.453078 3.98432 0
M  V30 5580 H 515.997 0.967808 4.1753 0
M  V30 5581 H 520.181 1.84904 4.60569 0
M  V30 5582 H 515.437 3.0949 5.27282 0
M  V30 5583 H 519.611 3.97672 5.71691 0
M  V30 5584 H 517.238 4.60529 6.04828 0
M  V30 5585 N 518.813 -1.54241 0.323641 0
M  V30 5586 C 519.745 -2.21836 -0.576311 0
M  V30 5587 C 520.758 -1.21837 -1.07979 0
M  V30 5588 O 521.947 -1.48306 -0.99336 0
M  V30 5589 C 519.047 -2.86923 -1.80356 0
M  V30 5590 C 518.22 -4.1306 -1.43875 0
M  V30 5591 C 517.279 -4.6174 -2.52353 0
M  V30 5592 O 516.305 -5.26421 -2.16494 0
M  V30 5593 N 517.507 -4.35974 -3.83284 0
M  V30 5594 H 520.272 -2.997 0.00247987 0
M  V30 5595 H 517.833 -1.61233 0.146848 0
M  V30 5596 H 519.825 -3.16414 -2.52318 0
M  V30 5597 H 518.395 -2.12765 -2.29019 0
M  V30 5598 H 517.615 -3.90334 -0.550752 0
M  V30 5599 H 518.903 -4.95148 -1.17071 0
M  V30 5600 H 518.301 -3.84203 -4.15216 0
M  V30 5601 H 516.858 -4.70119 -4.51477 0
M  V30 5602 N 520.291 -0.0518155 -1.57515 0
M  V30 5603 C 521.519 0.631395 -1.9703 0
M  V30 5604 C 521.934 1.64341 -0.92938 0
M  V30 5605 O 521.291 1.82296 0.0863266 0
M  V30 5606 C 521.342 1.31774 -3.36627 0
M  V30 5607 O 521.063 0.346247 -4.3673 0
M  V30 5608 C 522.564 2.09065 -3.90905 0
M  V30 5609 H 519.784 0.172576 -0.648428 0
M  V30 5610 H 522.328 -0.118306 -2.04158 0
M  V30 5611 H 520.483 2.01867 -3.30649 0
M  V30 5612 H 520.897 0.836226 -5.17791 0
M  V30 5613 H 522.371 2.52508 -4.9086 0
M  V30 5614 H 522.848 2.93908 -3.26366 0
M  V30 5615 H 523.454 1.43882 -4.00223 0
M  V30 5616 N 521.769 1.56035 0.221574 0
M  V30 5617 C 522.699 1.95434 1.2778 0
M  V30 5618 C 523.68 0.822564 1.48889 0
M  V30 5619 O 524.865 1.08486 1.61072 0
M  V30 5620 C 521.995 2.27102 2.62759 0
M  V30 5621 C 520.949 3.4277 2.56306 0
M  V30 5622 C 520.275 3.60043 3.95314 0
M  V30 5623 C 521.575 4.77742 2.11093 0
M  V30 5624 H 523.269 2.83912 0.950504 0
M  V30 5625 H 520.815 1.36596 0.455791 0
M  V30 5626 H 522.768 2.53256 3.36807 0
M  V30 5627 H 521.492 1.35478 2.97176 0
M  V30 5628 H 520.151 3.16664 1.84715 0
M  V30 5629 H 519.799 2.65794 4.27039 0
M  V30 5630 H 519.499 4.37841 3.91879 0
M  V30 5631 H 521.023 3.88545 4.71025 0
M  V30 5632 H 522.437 5.03102 2.74885 0
M  V30 5633 H 520.834 5.58823 2.18716 0
M  V30 5634 H 521.904 4.731 1.06321 0
M  V30 5635 N 523.247 -0.488276 1.49845 0
M  V30 5636 C 524.21 -1.57069 1.66919 0
M  V30 5637 C 525.21 -1.51445 0.540479 0
M  V30 5638 O 526.4 -1.5437 0.807188 0
M  V30 5639 C 523.532 -2.96718 1.67844 0
M  V30 5640 H 524.725 -1.43254 2.63474 0
M  V30 5641 H 522.278 -0.713435 1.39068 0
M  V30 5642 H 523.013 -3.15996 0.7292 0
M  V30 5643 H 522.798 -3.02208 2.49826 0
M  V30 5644 H 524.288 -3.75335 1.83066 0
M  V30 5645 N 524.725 -1.39134 -0.740242 0
M  V30 5646 C 525.635 -1.39697 -1.88473 0
M  V30 5647 C 526.651 -0.292403 -1.71526 0
M  V30 5648 O 527.827 -0.533021 -1.94219 0
M  V30 5649 C 524.892 -1.23382 -3.24003 0
M  V30 5650 C 523.953 -2.43763 -3.53381 0
M  V30 5651 C 523.186 -2.28216 -4.82445 0
M  V30 5652 O 523.409 -1.28288 -5.55786 0
M  V30 5653 O 522.343 -3.1709 -5.11603 0
M  V30 5654 H 526.169 -2.36159 -1.90952 0
M  V30 5655 H 523.754 -1.20194 -0.887346 0
M  V30 5656 H 525.636 -1.16395 -4.05006 0
M  V30 5657 H 524.311 -0.300121 -3.22306 0
M  V30 5658 H 523.218 -2.56325 -2.72485 0
M  V30 5659 H 524.551 -3.35808 -3.59852 0
M  V30 5660 N 526.204 0.969867 -1.24223 0
M  V30 5661 C 527.453 1.70687 -1.07466 0
M  V30 5662 C 527.766 1.91736 0.386861 0
M  V30 5663 O 528.972 2.62986 0.674581 0
M  V30 5664 C 527.428 3.07217 -1.87472 0
M  V30 5665 C 527.036 2.94018 -3.3802 0
M  V30 5666 C 528.78 3.84804 -1.79237 0
M  V30 5667 C 526.687 4.25844 -4.10379 0
M  V30 5668 H 525.617 0.640067 -0.398536 0
M  V30 5669 H 528.268 1.08092 -1.48285 0
M  V30 5670 H 526.65 3.70628 -1.39466 0
M  V30 5671 H 527.824 2.39632 -3.9359 0
M  V30 5672 H 526.139 2.29898 -3.47183 0
M  V30 5673 H 528.736 4.82417 -2.30603 0
M  V30 5674 H 529.079 4.09356 -0.757197 0
M  V30 5675 H 529.612 3.28115 -2.24912 0
M  V30 5676 H 526.351 4.06486 -5.14246 0
M  V30 5677 H 525.871 4.80054 -3.59594 0
M  V30 5678 H 527.55 4.94475 -4.17257 0
M  V30 5679 N 527.682 1.05563 1.17022 0
M  V30 5680 C 528.614 0.617888 2.20714 0
M  V30 5681 C 529.627 -0.320303 1.59618 0
M  V30 5682 O 530.816 -0.112449 1.78145 0
M  V30 5683 C 527.916 -0.115333 3.38704 0
M  V30 5684 C 527.089 0.834493 4.29366 0
M  V30 5685 C 526.148 0.141855 5.26009 0
M  V30 5686 O 525.174 0.777151 5.6387 0
M  V30 5687 N 526.376 -1.11934 5.69606 0
M  V30 5688 H 529.141 1.50981 2.58892 0
M  V30 5689 H 526.702 0.938008 1.31958 0
M  V30 5690 H 528.694 -0.588918 4.00392 0
M  V30 5691 H 527.264 -0.908967 2.99093 0
M  V30 5692 H 526.484 1.48762 3.65053 0
M  V30 5693 H 527.772 1.4791 4.86827 0
M  V30 5694 H 527.17 -1.65574 5.40927 0
M  V30 5695 H 525.727 -1.53692 6.33421 0
M  V30 5696 N 529.16 -1.33526 0.837174 0
M  V30 5697 C 530.407 -1.97837 0.432064 0
M  V30 5698 C 530.735 -1.66324 -1.00829 0
M  V30 5699 O 529.99 -0.93448 -1.71948 0
M  V30 5700 C 530.289 -3.52367 0.597675 0
M  V30 5701 C 529.955 -4.03826 2.00587 0
M  V30 5702 C 528.617 -4.1759 2.39106 0
M  V30 5703 C 530.969 -4.31333 2.92576 0
M  V30 5704 C 528.297 -4.56195 3.68921 0
M  V30 5705 C 530.649 -4.7139 4.2187 0
M  V30 5706 C 529.313 -4.8336 4.60347 0
M  V30 5707 H 528.583 -0.723937 0.158104 0
M  V30 5708 H 531.23 -1.5923 1.06387 0
M  V30 5709 H 529.535 -3.91624 -0.117452 0
M  V30 5710 H 531.232 -4.00126 0.26454 0
M  V30 5711 H 527.822 -3.93586 1.69671 0
M  V30 5712 H 532.006 -4.20224 2.64056 0
M  V30 5713 H 527.262 -4.63655 3.9854 0
M  V30 5714 H 531.436 -4.91631 4.93226 0
M  V30 5715 H 529.063 -5.1303 5.60985 0
M  V30 5716 N 530.638 -0.59345 -1.46 0
M  V30 5717 C 531.548 0.135817 -2.34207 0
M  V30 5718 C 532.564 0.875008 -1.50398 0
M  V30 5719 O 533.74 0.835778 -1.83239 0
M  V30 5720 C 530.805 1.12977 -3.27776 0
M  V30 5721 C 529.866 0.394081 -4.27487 0
M  V30 5722 C 529.099 1.34068 -5.16586 0
M  V30 5723 O 529.322 2.5778 -5.08828 0
M  V30 5724 O 528.256 0.845426 -5.95933 0
M  V30 5725 H 532.082 -0.588691 -2.9794 0
M  V30 5726 H 529.667 -0.353784 -1.45151 0
M  V30 5727 H 531.549 1.70261 -3.85473 0
M  V30 5728 H 530.224 1.83556 -2.66625 0
M  V30 5729 H 529.131 -0.220869 -3.73447 0
M  V30 5730 H 530.464 -0.270939 -4.91454 0
M  V30 5731 N 532.116 1.54067 -0.331816 0
M  V30 5732 C 533.341 2.05599 0.272705 0
M  V30 5733 C 533.766 1.2059 1.44359 0
M  V30 5734 O 533.124 0.216907 1.79998 0
M  V30 5735 C 533.172 3.54188 0.677021 0
M  V30 5736 O 532.276 3.72082 1.77844 0
M  V30 5737 H 531.617 0.662286 0.0476801 0
M  V30 5738 H 534.147 1.98826 -0.482624 0
M  V30 5739 H 534.157 3.96608 0.957415 0
M  V30 5740 H 532.832 4.15513 -0.179325 0
M  V30 5741 H 531.409 3.41566 1.49622 0
M  V30 5742 N 533.594 0.0601682 1.57485 0
M  V30 5743 C 534.842 -0.610386 1.92662 0
M  V30 5744 C 535.163 -1.70849 0.939981 0
M  V30 5745 O 534.433 -1.95895 -0.0137455 0
M  V30 5746 H 533.013 -0.228457 0.711208 0
M  V30 5747 H 535.675 0.115288 1.94559 0
M  V30 5748 H 534.771 -1.0432 2.94149 0
M  V30 5749 N 535.072 -1.5615 -0.213296 0
M  V30 5750 C 536.302 -1.83372 -0.951757 0
M  V30 5751 C 536.71 -0.638158 -1.78113 0
M  V30 5752 O 536.053 0.402609 -1.79234 0
M  V30 5753 C 536.115 -3.04444 -1.91192 0
M  V30 5754 C 535.779 -4.39107 -1.26627 0
M  V30 5755 C 536.776 -5.15794 -0.652087 0
M  V30 5756 C 534.461 -4.85834 -1.27556 0
M  V30 5757 C 536.455 -6.37376 -0.055814 0
M  V30 5758 C 534.142 -6.07356 -0.675451 0
M  V30 5759 C 535.14 -6.82967 -0.0666367 0
M  V30 5760 O 534.828 -8.0219 0.524119 0
M  V30 5761 H 534.56 -0.613398 -0.284111 0
M  V30 5762 H 537.114 -2.04096 -0.231112 0
M  V30 5763 H 535.344 -2.79559 -2.67178 0
M  V30 5764 H 537.033 -3.18466 -2.51662 0
M  V30 5765 H 537.799 -4.80796 -0.637172 0
M  V30 5766 H 533.678 -4.26949 -1.73883 0
M  V30 5767 H 537.222 -6.96334 0.420004 0
M  V30 5768 H 533.119 -6.41825 -0.687806 0
M  V30 5769 H 533.887 -8.17426 0.419243 0
M  V30 5770 N 536.55 0.480323 -1.50102 0
M  V30 5771 C 537.961 1.06142 -1.53593 0
M  V30 5772 C 538.312 1.93335 -0.334055 0
M  V30 5773 O 537.437 2.09188 0.55403 0
M  V30 5774 C 538.032 1.9317 -2.78336 0
M  V30 5775 C 536.591 2.46405 -2.84538 0
M  V30 5776 C 535.738 1.24521 -2.4777 0
M  V30 5777 H 538.689 0.26333 -1.565 0
M  V30 5778 H 538.71 2.78123 -2.59669 0
M  V30 5779 H 538.222 1.29683 -3.65792 0
M  V30 5780 H 536.323 3.13472 -2.01411 0
M  V30 5781 H 536.436 2.82143 -3.87211 0
M  V30 5782 H 534.8 1.57706 -2.00003 0
M  V30 5783 H 535.583 0.627102 -3.37524 0
M  V30 5784 N 538.028 1.39524 0.732853 0
M  V30 5785 C 539.258 1.3994 1.51988 0
M  V30 5786 C 539.666 -0.00727973 1.89199 0
M  V30 5787 O 539.009 -0.989521 1.54771 0
M  V30 5788 C 539.071 2.21026 2.83527 0
M  V30 5789 C 538.735 3.69633 2.68738 0
M  V30 5790 C 539.732 4.62665 2.37143 0
M  V30 5791 C 537.417 4.13244 2.85542 0
M  V30 5792 C 539.411 5.97291 2.22536 0
M  V30 5793 C 537.098 5.47945 2.70554 0
M  V30 5794 C 538.096 6.39783 2.39097 0
M  V30 5795 O 537.784 7.72002 2.24204 0
M  V30 5796 H 537.516 0.479795 0.476206 0
M  V30 5797 H 540.07 1.8399 0.913054 0
M  V30 5798 H 538.3 1.71728 3.46477 0
M  V30 5799 H 539.989 2.13594 3.45156 0
M  V30 5800 H 540.755 4.30272 2.2381 0
M  V30 5801 H 536.634 3.42094 3.09019 0
M  V30 5802 H 540.178 6.68939 1.97905 0
M  V30 5803 H 536.075 5.79928 2.83466 0
M  V30 5804 H 536.843 7.8275 2.39258 0
M  V30 5805 N 539.506 -0.963266 1.24736 0
M  V30 5806 C 540.755 -1.70115 1.08369 0
M  V30 5807 C 541.068 -1.91939 -0.376688 0
M  V30 5808 O 542.274 -2.6334 -0.660624 0
M  V30 5809 C 540.73 -3.06218 1.89099 0
M  V30 5810 C 540.338 -2.92221 3.39574 0
M  V30 5811 C 542.082 -3.83848 1.81275 0
M  V30 5812 C 539.989 -4.23662 4.12631 0
M  V30 5813 H 538.919 -0.637944 0.401924 0
M  V30 5814 H 541.57 -1.07304 1.48856 0
M  V30 5815 H 539.952 -3.69884 1.41429 0
M  V30 5816 H 541.126 -2.37541 3.94856 0
M  V30 5817 H 539.441 -2.28054 3.48397 0
M  V30 5818 H 542.038 -4.81188 2.33158 0
M  V30 5819 H 542.381 -4.08949 0.778895 0
M  V30 5820 H 542.914 -3.26918 2.26649 0
M  V30 5821 H 539.653 -4.03753 5.16395 0
M  V30 5822 H 539.173 -4.78141 3.62135 0
M  V30 5823 H 540.852 -4.92256 4.19873 0
M  V30 5824 N 540.985 -1.06182 -1.16461 0
M  V30 5825 C 541.918 -0.615859 -2.19733 0
M  V30 5826 C 542.896 0.360766 -1.58547 0
M  V30 5827 O 544.08 0.270009 -1.86556 0
M  V30 5828 C 541.207 0.097312 -3.3856 0
M  V30 5829 C 540.253 -0.835889 -4.18229 0
M  V30 5830 S 541.086 -2.33052 -4.82128 0
M  V30 5831 C 542.242 -1.62881 -6.04335 0
M  V30 5832 H 542.475 -1.49079 -2.57221 0
M  V30 5833 H 540.008 -0.874692 -1.27234 0
M  V30 5834 H 541.966 0.502563 -4.07412 0
M  V30 5835 H 540.627 0.948418 -2.99439 0
M  V30 5836 H 539.82 -0.283426 -5.03202 0
M  V30 5837 H 539.422 -1.18097 -3.54865 0
M  V30 5838 H 541.714 -0.933764 -6.71034 0
M  V30 5839 H 542.657 -2.45641 -6.64128 0
M  V30 5840 H 543.065 -1.11189 -5.53441 0
M  V30 5841 N 542.463 1.3308 -0.844243 0
M  V30 5842 C 543.71 1.97605 -0.44255 0
M  V30 5843 C 544.038 1.66856 0.999458 0
M  V30 5844 O 543.293 0.943586 1.7145 0
M  V30 5845 C 543.592 3.52045 -0.616354 0
M  V30 5846 C 543.258 4.02757 -2.02726 0
M  V30 5847 C 541.92 4.16316 -2.41317 0
M  V30 5848 C 544.272 4.29776 -2.9486 0
M  V30 5849 C 541.6 4.54232 -3.71335 0
M  V30 5850 C 543.952 4.69146 -4.24364 0
M  V30 5851 C 542.616 4.80911 -4.62904 0
M  V30 5852 H 541.886 0.723088 -0.161941 0
M  V30 5853 H 544.533 1.58663 -1.0723 0
M  V30 5854 H 542.838 3.91681 0.0966812 0
M  V30 5855 H 544.535 3.99981 -0.285756 0
M  V30 5856 H 541.125 3.9268 -1.71756 0
M  V30 5857 H 545.309 4.18818 -2.6628 0
M  V30 5858 H 540.565 4.61535 -4.00993 0
M  V30 5859 H 544.739 4.89008 -4.95827 0
M  V30 5860 H 542.366 5.10048 -5.63698 0
M  V30 5861 N 543.941 0.601185 1.45683 0
M  V30 5862 C 544.851 -0.123395 2.34275 0
M  V30 5863 C 545.867 -0.86702 1.5086 0
M  V30 5864 O 547.043 -0.826049 1.8368 0
M  V30 5865 C 544.108 -1.11237 3.2837 0
M  V30 5866 C 543.169 -0.371405 4.2769 0
M  V30 5867 C 542.402 -1.31327 5.1729 0
M  V30 5868 O 542.625 -2.55078 5.10188 0
M  V30 5869 O 541.559 -0.813811 5.96373 0
M  V30 5870 H 545.385 0.604483 2.97623 0
M  V30 5871 H 542.97 0.361477 1.44961 0
M  V30 5872 H 544.852 -1.68214 3.8637 0
M  V30 5873 H 543.527 -1.82139 2.67595 0
M  V30 5874 H 542.434 0.24067 3.73325 0
M  V30 5875 H 543.767 0.296998 4.91303 0
M  V30 5876 N 545.419 -1.53889 0.339982 0
M  V30 5877 C 546.696 -1.93084 -0.312719 0
M  V30 5878 C 547.076 -1.2712 -1.68534 0
M  V30 5879 O 546.424 -0.420835 -2.24591 0
M  V30 5880 C 546.634 -3.4683 -0.388558 0
M  V30 5881 C 547.982 -4.19732 -0.641088 0
M  V30 5882 O 549.006 -3.53075 -0.470818 0
M  V30 5883 O 547.865 -5.3781 -0.970685 0
M  V30 5884 H 544.959 -0.806784 -0.18174 0
M  V30 5885 H 547.505 -1.65137 0.390898 0
M  V30 5886 H 546.277 -3.87055 0.574821 0
M  V30 5887 H 545.9 -3.80933 -1.1391 0
M  V30 5888 N 546.897 -0.0685191 -1.57451 0
M  V30 5889 C 548.125 0.610462 -1.97689 0
M  V30 5890 C 548.54 1.63346 -0.946758 0
M  V30 5891 O 547.897 1.82377 0.0669868 0
M  V30 5892 C 547.948 1.28196 -3.38006 0
M  V30 5893 O 547.669 0.299906 -4.37072 0
M  V30 5894 C 549.17 2.04907 -3.931 0
M  V30 5895 H 546.39 0.165689 -0.650222 0
M  V30 5896 H 548.934 -0.139953 -2.04021 0
M  V30 5897 H 547.089 1.98348 -3.32771 0
M  V30 5898 H 547.503 0.78126 -5.18649 0
M  V30 5899 H 548.977 2.47287 -4.93511 0
M  V30 5900 H 549.454 2.9043 -3.29465 0
M  V30 5901 H 550.06 1.39629 -4.01726 0
M  V30 5902 N 548.375 1.56261 0.205012 0
M  V30 5903 C 549.621 1.80306 0.9283 0
M  V30 5904 C 549.954 0.640932 1.83319 0
M  V30 5905 O 549.229 -0.359032 1.91158 0
M  V30 5906 C 549.512 3.14547 1.75306 0
M  V30 5907 C 549.365 4.41236 0.873562 0
M  V30 5908 C 550.684 3.45382 2.72762 0
M  V30 5909 H 547.803 0.655929 0.336044 0
M  V30 5910 H 550.445 1.88984 0.196211 0
M  V30 5911 H 548.595 3.0728 2.37721 0
M  V30 5912 H 550.267 4.60539 0.264887 0
M  V30 5913 H 548.51 4.33427 0.179773 0
M  V30 5914 H 549.181 5.31639 1.48541 0
M  V30 5915 H 551.657 3.52884 2.20481 0
M  V30 5916 H 550.533 4.40449 3.2756 0
M  V30 5917 H 550.794 2.68377 3.51321 0
M  V30 5918 N 549.853 -0.472356 1.50355 0
M  V30 5919 C 550.801 -1.59126 1.69651 0
M  V30 5920 C 551.795 -1.59793 0.56237 0
M  V30 5921 O 553.001 -1.63957 0.742832 0
M  V30 5922 H 549.376 -0.528008 0.535454 0
M  V30 5923 H 551.347 -1.40013 2.63513 0
M  V30 5924 C 550.096 -2.97075 1.8067 0
M  V30 5925 H 549.419 -2.9728 2.67329 0
M  V30 5926 H 550.859 -3.74825 1.98197 0
M  V30 5927 C 549.318 -3.32247 0.558016 0
M  V30 5928 O 549.848 -4.00553 -0.303399 0
M  V30 5929 N 548.054 -2.87659 0.412415 0
M  V30 5930 H 547.601 -2.32246 1.11443 0
M  V30 5931 H 547.559 -3.11556 -0.421908 0
M  V30 5932 N 551.331 -1.39911 -0.725443 0
M  V30 5933 C 552.747 -1.21725 -1.03224 0
M  V30 5934 C 552.947 -0.0855224 -2.01318 0
M  V30 5935 O 552.003 0.55976 -2.46217 0
M  V30 5936 C 553.316 -2.55511 -1.58539 0
M  V30 5937 C 554.864 -2.62439 -1.70572 0
M  V30 5938 C 555.339 -3.9647 -2.29294 0
M  V30 5939 N 556.83 -3.98159 -2.36692 0
M  V30 5940 C 557.565 -4.98647 -2.83088 0
M  V30 5941 N 557.061 -6.0953 -3.2931 0
M  V30 5942 N 558.854 -4.8602 -2.82384 0
M  V30 5943 H 551.005 -2.12267 -0.075048 0
M  V30 5944 H 553.268 -0.943136 -0.0959066 0
M  V30 5945 H 552.974 -3.38926 -0.939249 0
M  V30 5946 H 552.848 -2.75905 -2.57208 0
M  V30 5947 H 555.235 -1.79401 -2.34306 0
M  V30 5948 H 555.316 -2.45885 -0.705297 0
M  V30 5949 H 554.96 -4.79942 -1.66186 0
M  V30 5950 H 554.89 -4.10349 -3.30032 0
M  V30 5951 H 557.381 -3.18085 -2.04035 0
M  V30 5952 H 557.694 -6.82106 -3.6325 0
M  V30 5953 H 556.039 -6.1311 -3.27294 0
M  V30 5954 H 559.23 -3.98493 -2.45603 0
M  V30 5955 H 559.403 -5.64478 -3.18226 0
M  V30 5956 N 552.809 0.956637 -1.25245 0
M  V30 5957 C 553.772 2.03457 -1.05537 0
M  V30 5958 C 554.772 1.60798 -0.00886317 0
M  V30 5959 O 555.962 1.72384 -0.250865 0
M  V30 5960 C 553.094 3.35543 -0.601965 0
M  V30 5961 H 554.287 2.22372 -2.01223 0
M  V30 5962 H 551.84 1.13344 -1.07623 0
M  V30 5963 H 552.575 3.22323 0.357584 0
M  V30 5964 H 552.36 3.67854 -1.35743 0
M  V30 5965 H 553.85 4.14769 -0.485454 0
M  V30 5966 N 554.287 1.06798 1.15896 0
M  V30 5967 C 555.235 0.677525 2.22514 0
M  V30 5968 C 556.229 -0.308994 1.66558 0
M  V30 5969 O 557.435 -0.173308 1.79164 0
M  V30 5970 H 553.81 0.200994 0.724642 0
M  V30 5971 H 555.781 1.5865 2.52731 0
M  V30 5972 C 554.53 0.0854153 3.47595 0
M  V30 5973 H 553.853 0.835645 3.90969 0
M  V30 5974 H 555.293 -0.150199 4.23734 0
M  V30 5975 C 553.752 -1.1724 3.15843 0
M  V30 5976 O 554.282 -2.25965 3.32119 0
M  V30 5977 N 552.488 -1.07636 2.69931 0
M  V30 5978 H 552.035 -0.191559 2.56887 0
M  V30 5979 H 551.993 -1.91876 2.4906 0
M  V30 5980 N 555.766 -1.3263 0.851289 0
M  V30 5981 C 557.177 -1.79653 0.5081 0
M  V30 5982 C 557.528 -1.70327 -0.973815 0
M  V30 5983 O 556.653 -1.25986 -1.75944 0
M  V30 5984 C 557.248 -3.26196 0.915515 0
M  V30 5985 C 555.807 -3.71187 0.624277 0
M  V30 5986 C 554.954 -2.53804 1.11709 0
M  V30 5987 H 557.905 -1.19976 1.03882 0
M  V30 5988 H 557.926 -3.79801 0.230535 0
M  V30 5989 H 557.438 -3.32952 1.99411 0
M  V30 5990 H 555.539 -3.69948 -0.443737 0
M  V30 5991 H 555.652 -4.64132 1.18821 0
M  V30 5992 H 554.016 -2.48964 0.537484 0
M  V30 5993 H 554.799 -2.63315 2.20272 0
M  V30 5994 N 557.244 -0.608902 -1.45362 0
M  V30 5995 C 558.493 -0.10218 -2.01441 0
M  V30 5996 C 558.806 1.27546 -1.48295 0
M  V30 5997 O 560.012 1.87498 -1.96359 0
M  V30 5998 C 558.468 -0.131985 -3.59658 0
M  V30 5999 C 558.076 -1.50956 -4.21801 0
M  V30 6000 C 559.82 0.319427 -4.23296 0
M  V30 6001 C 557.727 -1.49568 -5.72174 0
M  V30 6002 H 556.657 -0.0344314 -0.753213 0
M  V30 6003 H 559.308 -0.764426 -1.6682 0
M  V30 6004 H 557.69 0.596939 -3.91475 0
M  V30 6005 H 558.864 -2.26029 -4.01556 0
M  V30 6006 H 557.179 -1.90318 -3.70362 0
M  V30 6007 H 559.776 0.349013 -5.3356 0
M  V30 6008 H 560.119 1.34237 -3.94064 0
M  V30 6009 H 560.652 -0.356273 -3.96201 0
M  V30 6010 H 557.391 -2.49626 -6.06108 0
M  V30 6011 H 556.911 -0.787542 -5.94607 0
M  V30 6012 H 558.59 -1.21989 -6.35396 0
M  V30 6013 N 558.722 1.53707 -0.348139 0
M  V30 6014 C 559.685 2.23812 0.494058 0
M  V30 6015 C 560.685 1.23989 1.02388 0
M  V30 6016 O 561.875 1.48395 0.912396 0
M  V30 6017 C 559.007 2.96133 1.68872 0
M  V30 6018 H 560.2 2.99663 -0.119141 0
M  V30 6019 H 557.753 1.55983 -0.0995539 0
M  V30 6020 H 558.488 2.24481 2.34049 0
M  V30 6021 H 558.273 3.69357 1.31596 0
M  V30 6022 H 559.763 3.49475 2.28597 0
M  V30 6023 N 560.2 0.0768682 1.57412 0
M  V30 6024 C 561.448 -0.589918 1.93299 0
M  V30 6025 C 561.769 -1.69842 0.958049 0
M  V30 6026 O 561.039 -1.95899 0.00703261 0
M  V30 6027 H 559.619 -0.220901 0.713591 0
M  V30 6028 H 562.281 0.135917 1.94425 0
M  V30 6029 H 561.377 -1.01195 2.95239 0
M  V30 6030 N 561.678 -1.56367 -0.196722 0
M  V30 6031 C 563.094 -1.49916 -0.54749 0
M  V30 6032 C 563.294 -0.77659 -1.85934 0
M  V30 6033 O 562.35 -0.32644 -2.50381 0
M  V30 6034 C 563.663 -2.94577 -0.603734 0
M  V30 6035 C 565.211 -3.05239 -0.692677 0
M  V30 6036 C 565.686 -4.51308 -0.780046 0
M  V30 6037 N 567.177 -4.55453 -0.843616 0
M  V30 6038 C 567.912 -5.65786 -0.931358 0
M  V30 6039 N 567.408 -6.85812 -0.981503 0
M  V30 6040 N 569.201 -5.53695 -0.968421 0
M  V30 6041 H 561.352 -2.01761 0.663803 0
M  V30 6042 H 563.615 -0.918094 0.236238 0
M  V30 6043 H 563.321 -3.50494 0.29105 0
M  V30 6044 H 563.195 -3.47841 -1.45898 0
M  V30 6045 H 565.582 -2.49372 -1.57789 0
M  V30 6046 H 565.663 -2.55103 0.188736 0
M  V30 6047 H 565.307 -5.078 0.100811 0
M  V30 6048 H 565.237 -4.99176 -1.67724 0
M  V30 6049 H 567.728 -3.69025 -0.814176 0
M  V30 6050 H 568.041 -7.65648 -1.04892 0
M  V30 6051 H 566.386 -6.88474 -0.950208 0
M  V30 6052 H 569.577 -4.58848 -0.926072 0
M  V30 6053 H 569.75 -6.39708 -1.03334 0
M  V30 6054 N 563.156 0.464375 -1.50603 0
M  V30 6055 C 564.405 1.21277 -1.61167 0
M  V30 6056 C 564.718 1.92953 -0.320704 0
M  V30 6057 O 565.924 2.69778 -0.30534 0
M  V30 6058 C 564.38 2.20403 -2.84518 0
M  V30 6059 C 563.988 1.54499 -4.20516 0
M  V30 6060 C 565.732 2.95843 -3.0443 0
M  V30 6061 C 563.639 2.51951 -5.35047 0
M  V30 6062 H 562.569 0.456367 -0.600204 0
M  V30 6063 H 565.22 0.48254 -1.77042 0
M  V30 6064 H 563.602 2.96746 -2.62217 0
M  V30 6065 H 564.776 0.83899 -4.53098 0
M  V30 6066 H 563.091 0.913152 -4.06264 0
M  V30 6067 H 565.688 3.6879 -3.87167 0
M  V30 6068 H 566.031 3.55622 -2.16423 0
M  V30 6069 H 566.564 2.26611 -3.26944 0
M  V30 6070 H 563.303 1.96901 -6.25228 0
M  V30 6071 H 562.823 3.20683 -5.06875 0
M  V30 6072 H 564.502 3.13643 -5.65895 0
M  V30 6073 N 564.634 1.40294 0.718013 0
M  V30 6074 C 565.582 1.40536 1.85344 0
M  V30 6075 C 566.576 0.286192 1.66965 0
M  V30 6076 O 567.782 0.457105 1.74099 0
M  V30 6077 H 564.157 0.439236 0.61039 0
M  V30 6078 H 566.128 2.36275 1.82255 0
M  V30 6079 C 564.877 1.28245 3.23185 0
M  V30 6080 H 564.2 2.1364 3.37932 0
M  V30 6081 H 565.64 1.32474 4.02774 0
M  V30 6082 C 564.099 -0.0075503 3.36899 0
M  V30 6083 O 564.629 -0.971391 3.89778 0
M  V30 6084 N 562.835 -0.0762479 2.905 0
M  V30 6085 H 562.382 0.708819 2.47656 0
M  V30 6086 H 562.34 -0.938846 3.00055 0
M  V30 6087 N 566.112 -0.949982 1.2575 0
M  V30 6088 C 567.045 -2.047 1.00862 0
M  V30 6089 C 568.023 -1.62475 -0.0636982 0
M  V30 6090 O 569.207 -1.88343 0.0769153 0
M  V30 6091 C 566.334 -3.34597 0.525613 0
M  V30 6092 C 565.38 -3.95788 1.58916 0
M  V30 6093 S 566.213 -4.31175 3.17567 0
M  V30 6094 C 567.369 -5.64183 2.71013 0
M  V30 6095 H 567.602 -2.25497 1.93749 0
M  V30 6096 H 565.135 -1.09022 1.09332 0
M  V30 6097 H 567.093 -4.09716 0.25359 0
M  V30 6098 H 565.754 -3.11758 -0.382828 0
M  V30 6099 H 564.947 -4.89457 1.20201 0
M  V30 6100 H 564.549 -3.27168 1.81211 0
M  V30 6101 H 566.841 -6.42504 2.14928 0
M  V30 6102 H 567.784 -6.07774 3.6334 0
M  V30 6103 H 568.192 -5.2364 2.1086 0
M  V30 6104 N 567.59 -1.07411 -1.15328 0
M  V30 6105 C 568.815 -0.818856 -1.90551 0
M  V30 6106 C 569.24 0.622194 -1.77512 0
M  V30 6107 O 568.598 1.43484 -1.10824 0
M  V30 6108 C 568.646 -1.23267 -3.38877 0
M  V30 6109 O 567.75 -0.378345 -4.10661 0
M  V30 6110 H 567.091 -0.29827 -0.593238 0
M  V30 6111 H 569.621 -1.43289 -1.46046 0
M  V30 6112 H 569.631 -1.20912 -3.89672 0
M  V30 6113 H 568.306 -2.28226 -3.47686 0
M  V30 6114 H 566.883 -0.464437 -3.69996 0
M  V30 6115 N 569.068 1.32177 -0.85831 0
M  V30 6116 C 570.016 2.30729 -0.294442 0
M  V30 6117 C 571.01 1.59009 0.584165 0
M  V30 6118 O 572.216 1.73713 0.471562 0
M  V30 6119 H 568.591 0.748097 -0.0765171 0
M  V30 6120 H 570.562 2.75774 -1.1398 0
M  V30 6121 C 569.311 3.44098 0.499208 0
M  V30 6122 H 568.634 3.99449 -0.167579 0
M  V30 6123 H 570.074 4.15202 0.859273 0
M  V30 6124 C 568.533 2.91684 1.68588 0
M  V30 6125 O 569.063 2.89481 2.78503 0
M  V30 6126 N 567.269 2.48036 1.51415 0
M  V30 6127 H 566.816 2.50027 0.620006 0
M  V30 6128 H 566.774 2.13322 2.30957 0
M  V30 6129 N 570.547 0.616602 1.45037 0
M  V30 6130 C 571.477 -0.0840787 2.33349 0
M  V30 6131 C 572.458 -0.849641 1.4736 0
M  V30 6132 O 573.643 -0.818407 1.76113 0
M  V30 6133 C 570.773 -1.07604 3.3021 0
M  V30 6134 C 569.727 -0.423096 4.25904 0
M  V30 6135 C 569.053 -1.52394 5.12523 0
M  V30 6136 C 570.353 0.661457 5.18095 0
M  V30 6137 H 572.047 0.653333 2.92185 0
M  V30 6138 H 569.593 0.315634 1.40498 0
M  V30 6139 H 571.546 -1.57485 3.90866 0
M  V30 6140 H 570.27 -1.84416 2.69552 0
M  V30 6141 H 568.929 0.05493 3.66559 0
M  V30 6142 H 568.577 -2.28257 4.48227 0
M  V30 6143 H 568.277 -1.09251 5.77354 0
M  V30 6144 H 569.801 -2.02485 5.76049 0
M  V30 6145 H 571.215 0.246353 5.7277 0
M  V30 6146 H 569.612 1.01517 5.91451 0
M  V30 6147 H 570.682 1.53446 4.59981 0
M  V30 6148 N 572.025 -1.5352 0.356285 0
M  V30 6149 C 573.265 -2.03027 -0.23649 0
M  V30 6150 C 573.629 -1.23813 -1.46746 0
M  V30 6151 O 574.83 -1.63281 -2.13525 0
M  V30 6152 C 573.101 -3.53442 -0.530415 0
M  V30 6153 S 574.66 -4.24836 -1.09819 0
M  V30 6154 H 571.478 -0.707591 -0.0695378 0
M  V30 6155 H 574.08 -1.89077 0.496999 0
M  V30 6156 H 572.784 -4.087 0.373114 0
M  V30 6157 H 572.315 -3.71536 -1.29323 0
M  V30 6158 H 574.33 -4.35228 -2.38309 0
M  V30 6159 N 573.503 -0.0852151 -1.57369 0
M  V30 6160 C 574.728 0.592872 -1.98746 0
M  V30 6161 C 575.153 1.61538 -0.963689 0
M  V30 6162 O 574.511 1.81168 0.069071 0
M  V30 6163 C 574.559 1.22599 -3.39119 0
M  V30 6164 O 573.663 2.34185 -3.39457 0
M  V30 6165 H 573.004 0.151314 -0.646529 0
M  V30 6166 H 575.534 -0.163703 -2.03944 0
M  V30 6167 H 575.544 1.56965 -3.76598 0
M  V30 6168 H 574.219 0.476831 -4.13158 0
M  V30 6169 H 572.796 2.01512 -3.13763 0
M  V30 6170 N 574.981 1.5647 0.188427 0
M  V30 6171 C 575.891 1.98285 1.2538 0
M  V30 6172 C 576.907 0.891535 1.49424 0
M  V30 6173 O 578.083 1.19782 1.61908 0
M  V30 6174 C 575.148 2.31965 2.57669 0
M  V30 6175 C 574.209 3.54838 2.41638 0
M  V30 6176 C 573.442 3.86901 3.67618 0
M  V30 6177 O 573.665 3.20163 4.72072 0
M  V30 6178 O 572.599 4.80309 3.62749 0
M  V30 6179 H 576.425 2.89145 0.928912 0
M  V30 6180 H 574.01 1.44112 0.393955 0
M  V30 6181 H 575.892 2.54673 3.35737 0
M  V30 6182 H 574.567 1.44271 2.89771 0
M  V30 6183 H 573.474 3.37369 1.61658 0
M  V30 6184 H 574.807 4.43019 2.14465 0
M  V30 6185 N 576.459 -0.456382 1.50847 0
M  V30 6186 C 577.708 -1.2042 1.61808 0
M  V30 6187 C 578.021 -1.9278 0.330932 0
M  V30 6188 O 579.227 -2.69612 0.319643 0
M  V30 6189 C 577.683 -2.18891 2.85683 0
M  V30 6190 C 577.291 -1.52267 4.2133 0
M  V30 6191 C 579.035 -2.94224 3.05994 0
M  V30 6192 C 576.942 -2.4911 5.36375 0
M  V30 6193 H 575.872 -0.453177 0.602616 0
M  V30 6194 H 578.523 -0.473144 1.77295 0
M  V30 6195 H 576.905 -2.95351 2.63787 0
M  V30 6196 H 578.079 -0.814949 4.53536 0
M  V30 6197 H 576.394 -0.891594 4.06743 0
M  V30 6198 H 578.991 -3.66732 3.89117 0
M  V30 6199 H 579.334 -3.54469 2.18306 0
M  V30 6200 H 579.867 -2.24874 3.28141 0
M  V30 6201 H 576.606 -1.93582 6.26264 0
M  V30 6202 H 576.126 -3.17991 5.08569 0
M  V30 6203 H 577.805 -3.10637 5.67551 0
M  V30 6204 N 577.937 -1.40673 -0.710563 0
M  V30 6205 C 578.867 -1.44095 -1.83736 0
M  V30 6206 C 579.848 -0.301286 -1.67411 0
M  V30 6207 O 581.033 -0.510618 -1.87367 0
M  V30 6208 C 578.163 -1.30773 -3.21738 0
M  V30 6209 C 577.117 -2.42395 -3.52745 0
M  V30 6210 C 576.443 -2.14147 -4.89944 0
M  V30 6211 C 577.743 -3.84738 -3.53234 0
M  V30 6212 H 579.437 -2.38396 -1.81129 0
M  V30 6213 H 576.983 -1.14746 -0.870017 0
M  V30 6214 H 578.936 -1.31783 -4.00264 0
M  V30 6215 H 577.66 -0.329507 -3.24934 0
M  V30 6216 H 576.319 -2.40643 -2.76562 0
M  V30 6217 H 575.967 -1.14703 -4.89747 0
M  V30 6218 H 575.667 -2.88934 -5.11655 0
M  V30 6219 H 577.191 -2.16848 -5.70797 0
M  V30 6220 H 578.605 -3.88286 -4.2179 0
M  V30 6221 H 577.002 -4.59085 -3.86473 0
M  V30 6222 H 578.072 -4.13962 -2.52514 0
M  V30 6223 N 579.415 0.9433 -1.26252 0
M  V30 6224 C 580.347 2.04542 -1.03417 0
M  V30 6225 C 581.36 1.62799 0.0046911 0
M  V30 6226 O 582.549 1.76944 -0.235146 0
M  V30 6227 C 579.649 3.34511 -0.543671 0
M  V30 6228 C 578.822 4.05033 -1.65128 0
M  V30 6229 C 577.881 5.13273 -1.1592 0
M  V30 6230 O 576.907 5.38095 -1.85586 0
M  V30 6231 N 578.109 5.805 -0.00649279 0
M  V30 6232 H 580.874 2.24699 -1.98319 0
M  V30 6233 H 578.435 1.11264 -1.1761 0
M  V30 6234 H 580.427 4.04212 -0.198703 0
M  V30 6235 H 578.997 3.11042 0.311711 0
M  V30 6236 H 578.217 3.29275 -2.16729 0
M  V30 6237 H 579.505 4.48903 -2.39508 0
M  V30 6238 H 578.903 5.62767 0.575347 0
M  V30 6239 H 577.46 6.51201 0.279416 0
M  V30 6240 N 580.893 1.08022 1.14757 0
M  V30 6241 C 582.139 0.808705 1.85978 0
M  V30 6242 C 582.472 -0.663764 1.82504 0
M  V30 6243 O 581.747 -1.48765 1.25296 0
M  V30 6244 C 582.03 1.32623 3.34788 0
M  V30 6245 C 581.883 2.86375 3.46856 0
M  V30 6246 C 583.202 0.948291 4.29762 0
M  V30 6247 H 580.321 0.295244 0.675278 0
M  V30 6248 H 582.963 1.33917 1.34783 0
M  V30 6249 H 581.113 0.875002 3.78518 0
M  V30 6250 H 582.785 3.39839 3.11941 0
M  V30 6251 H 581.028 3.24232 2.88194 0
M  V30 6252 H 581.699 3.17658 4.51439 0
M  V30 6253 H 584.175 1.33722 3.94028 0
M  V30 6254 H 583.051 1.33765 5.32352 0
M  V30 6255 H 583.312 -0.145094 4.41862 0
M  V30 6256 N 582.371 -1.3172 0.865308 0
M  V30 6257 C 583.319 -2.30569 0.306674 0
M  V30 6258 C 584.313 -1.59317 -0.575724 0
M  V30 6259 O 585.519 -1.73961 -0.462343 0
M  V30 6260 H 581.894 -0.747681 0.0804834 0
M  V30 6261 H 583.865 -2.75165 1.15441 0
M  V30 6262 C 582.614 -3.44358 -0.480952 0
M  V30 6263 H 581.937 -3.99354 0.18876 0
M  V30 6264 H 583.377 -4.15652 -0.837241 0
M  V30 6265 C 581.836 -2.92574 -1.67039 0
M  V30 6266 O 582.366 -2.90954 -2.76964 0
M  V30 6267 N 580.572 -2.48835 -1.50097 0
M  V30 6268 H 580.119 -2.50353 -0.606738 0
M  V30 6269 H 580.077 -2.14543 -2.29823 0
M  V30 6270 N 583.85 -0.624285 -1.44708 0
M  V30 6271 C 585.075 -0.131171 -2.06985 0
M  V30 6272 C 585.5 1.18234 -1.46295 0
M  V30 6273 O 584.858 1.72375 -0.561842 0
M  V30 6274 C 584.906 -0.0226724 -3.60593 0
M  V30 6275 O 584.01 1.02314 -3.99507 0
M  V30 6276 H 583.351 -0.0816556 -0.65896 0
M  V30 6277 H 585.88 -0.859027 -1.85693 0
M  V30 6278 H 585.891 0.170138 -4.07645 0
M  V30 6279 H 584.566 -0.981685 -4.04148 0
M  V30 6280 H 583.143 0.805452 -3.64097 0
M  V30 6281 N 585.328 1.53329 -0.364422 0
M  V30 6282 C 586.291 2.24323 0.470292 0
M  V30 6283 C 587.291 1.25068 1.01067 0
M  V30 6284 O 588.481 1.49354 0.896605 0
M  V30 6285 C 585.613 2.97908 1.65722 0
M  V30 6286 H 586.806 2.9952 -0.150917 0
M  V30 6287 H 584.359 1.55868 -0.116092 0
M  V30 6288 H 585.094 2.2695 2.31655 0
M  V30 6289 H 584.879 3.70732 1.27671 0
M  V30 6290 H 586.369 3.5188 2.24878 0
M  V30 6291 N 586.806 0.0935595 1.57322 0
M  V30 6292 C 588.031 -0.582324 1.99057 0
M  V30 6293 C 588.456 -1.61025 0.972242 0
M  V30 6294 O 587.814 -1.81202 -0.0594622 0
M  V30 6295 C 587.862 -1.20799 3.39765 0
M  V30 6296 O 586.966 -2.32382 3.40694 0
M  V30 6297 H 586.307 -0.147884 0.647323 0
M  V30 6298 H 588.837 0.174516 2.03854 0
M  V30 6299 H 588.847 -1.54966 3.77425 0
M  V30 6300 H 587.522 -0.454914 4.13405 0
M  V30 6301 H 586.099 -1.99845 3.14827 0
M  V30 6302 N 588.284 -1.56567 -0.180126 0
M  V30 6303 C 589.7 -1.50488 -0.531559 0
M  V30 6304 C 589.9 -0.796267 -1.851 0
M  V30 6305 O 588.956 -0.352978 -2.50021 0
M  V30 6306 C 590.269 -2.95201 -0.572456 0
M  V30 6307 C 591.817 -3.05957 -0.660264 0
M  V30 6308 C 592.292 -4.5211 -0.732135 0
M  V30 6309 N 593.783 -4.56322 -0.795262 0
M  V30 6310 C 594.518 -5.66742 -0.871296 0
M  V30 6311 N 594.014 -6.86815 -0.908708 0
M  V30 6312 N 595.807 -5.54691 -0.909639 0
M  V30 6313 H 587.958 -2.01045 0.685165 0
M  V30 6314 H 590.221 -0.915536 0.245962 0
M  V30 6315 H 589.927 -3.50165 0.328208 0
M  V30 6316 H 589.801 -3.49369 -1.422 0
M  V30 6317 H 592.188 -2.51032 -1.55136 0
M  V30 6318 H 592.269 -2.54888 0.215783 0
M  V30 6319 H 591.913 -5.07664 0.154664 0
M  V30 6320 H 591.843 -5.00926 -1.6242 0
M  V30 6321 H 594.334 -3.69868 -0.77499 0
M  V30 6322 H 594.647 -7.66718 -0.967654 0
M  V30 6323 H 592.992 -6.89443 -0.877132 0
M  V30 6324 H 596.183 -4.59804 -0.877353 0
M  V30 6325 H 596.356 -6.40768 -0.965434 0
M  V30 6326 N 589.762 0.448376 -1.51087 0
M  V30 6327 C 590.992 1.21965 -1.66757 0
M  V30 6328 C 591.4 1.85748 -0.359753 0
M  V30 6329 O 590.743 1.71022 0.670604 0
M  V30 6330 C 590.805 2.35284 -2.71812 0
M  V30 6331 C 590.469 1.91957 -4.1473 0
M  V30 6332 C 591.466 1.42921 -4.9987 0
M  V30 6333 C 589.151 1.99985 -4.60772 0
M  V30 6334 C 591.145 1.02485 -6.29107 0
M  V30 6335 C 588.832 1.5916 -5.90009 0
M  V30 6336 C 589.83 1.10491 -6.74004 0
M  V30 6337 O 589.518 0.702413 -8.00825 0
M  V30 6338 H 589.25 0.374125 -0.563034 0
M  V30 6339 H 591.804 0.538927 -1.98204 0
M  V30 6340 H 590.034 3.06599 -2.35657 0
M  V30 6341 H 591.723 2.97184 -2.76472 0
M  V30 6342 H 592.489 1.36123 -4.65506 0
M  V30 6343 H 588.368 2.36814 -3.95525 0
M  V30 6344 H 591.912 0.644271 -6.94619 0
M  V30 6345 H 587.809 1.65626 -6.2389 0
M  V30 6346 H 588.577 0.829248 -8.14288 0
M  V30 6347 N 591.24 1.41047 0.703093 0
M  V30 6348 C 592.517 1.30493 1.45708 0
M  V30 6349 C 592.897 -0.0709892 2.10981 0
M  V30 6350 O 592.245 -1.08471 2.01113 0
M  V30 6351 C 592.455 2.45287 2.48265 0
M  V30 6352 C 593.803 2.86104 3.13735 0
M  V30 6353 O 594.827 2.44971 2.58587 0
M  V30 6354 O 593.686 3.57206 4.13601 0
M  V30 6355 H 590.78 0.513144 0.648546 0
M  V30 6356 H 593.326 1.52995 0.734208 0
M  V30 6357 H 592.098 3.37135 1.98635 0
M  V30 6358 H 591.721 2.24622 3.28071 0
M  V30 6359 N 592.718 -0.936591 1.26751 0
M  V30 6360 C 593.995 -1.66094 1.03306 0
M  V30 6361 C 594.375 -2.06568 -0.435058 0
M  V30 6362 O 593.723 -1.79305 -1.41641 0
M  V30 6363 C 593.933 -2.86969 1.98619 0
M  V30 6364 C 595.281 -3.58516 2.27489 0
M  V30 6365 O 596.305 -2.97082 1.96522 0
M  V30 6366 O 595.164 -4.69181 2.80235 0
M  V30 6367 H 592.258 -0.727568 0.393158 0
M  V30 6368 H 594.804 -0.987914 1.3798 0
M  V30 6369 H 593.576 -2.53985 2.9767 0
M  V30 6370 H 593.199 -3.61996 1.64454 0
M  V30 6371 N 594.196 -1.08629 -1.14182 0
M  V30 6372 C 595.144 -0.71284 -2.21408 0
M  V30 6373 C 596.138 0.282457 -1.67029 0
M  V30 6374 O 597.344 0.144783 -1.79417 0
M  V30 6375 H 593.719 -0.212497 -0.721352 0
M  V30 6376 H 595.69 -1.6265 -2.50175 0
M  V30 6377 C 594.439 -0.140704 -3.47415 0
M  V30 6378 H 593.762 -0.897739 -3.8959 0
M  V30 6379 H 595.202 0.0827677 -4.23919 0
M  V30 6380 C 593.661 1.122 -3.17668 0
M  V30 6381 O 594.191 2.20652 -3.35672 0
M  V30 6382 N 592.397 1.03328 -2.71609 0
M  V30 6383 H 591.944 0.150666 -2.57159 0
M  V30 6384 H 591.902 1.8789 -2.52081 0
M  V30 6385 N 595.674 1.31259 -0.872281 0
M  V30 6386 C 596.604 2.30929 -0.345554 0
M  V30 6387 C 597.585 1.60449 0.5648 0
M  V30 6388 O 598.77 1.8814 0.481335 0
M  V30 6389 C 595.9 3.44348 0.451823 0
M  V30 6390 C 594.854 4.26435 -0.365641 0
M  V30 6391 C 594.18 5.31785 0.557562 0
M  V30 6392 C 595.48 4.97159 -1.60095 0
M  V30 6393 H 597.174 2.75234 -1.17841 0
M  V30 6394 H 594.72 1.3232 -0.568094 0
M  V30 6395 H 596.673 4.13128 0.830854 0
M  V30 6396 H 595.397 2.98816 1.31821 0
M  V30 6397 H 594.056 3.59326 -0.726649 0
M  V30 6398 H 593.704 4.82502 1.4213 0
M  V30 6399 H 593.404 5.87598 0.0144878 0
M  V30 6400 H 594.928 6.03424 0.933387 0
M  V30 6401 H 596.342 5.58523 -1.29323 0
M  V30 6402 H 594.739 5.62779 -2.08327 0
M  V30 6403 H 595.809 4.24012 -2.35249 0
M  V30 6404 N 597.152 0.631951 1.44375 0
M  V30 6405 C 598.429 0.067646 1.95483 0
M  V30 6406 C 598.809 -1.40683 1.57389 0
M  V30 6407 O 598.157 -2.12167 0.848375 0
M  V30 6408 C 598.367 0.291392 3.47781 0
M  V30 6409 C 599.715 0.185028 4.24197 0
M  V30 6410 O 600.739 0.222803 3.55503 0
M  V30 6411 O 599.598 0.0906642 5.46425 0
M  V30 6412 H 596.692 -0.0218379 0.826712 0
M  V30 6413 H 599.238 0.703711 1.54421 0
M  V30 6414 H 598.01 1.31449 3.68561 0
M  V30 6415 H 597.633 -0.378772 3.95792 0
M  V30 6416 N 598.631 -1.53133 0.372548 0
M  V30 6417 C 599.861 -2.05476 -0.215202 0
M  V30 6418 C 600.269 -1.24534 -1.42436 0
M  V30 6419 O 599.612 -0.280771 -1.81542 0
M  V30 6420 C 599.674 -3.53276 -0.666068 0
M  V30 6421 C 599.338 -4.54998 0.427342 0
M  V30 6422 C 600.335 -5.03911 1.27944 0
M  V30 6423 C 598.02 -4.98828 0.589579 0
M  V30 6424 C 600.014 -5.95263 2.27905 0
M  V30 6425 C 597.701 -5.89984 1.59255 0
M  V30 6426 C 598.699 -6.38093 2.43571 0
M  V30 6427 O 598.387 -7.27451 3.42156 0
M  V30 6428 H 598.119 -0.67481 -0.040099 0
M  V30 6429 H 600.673 -1.98409 0.531312 0
M  V30 6430 H 598.903 -3.57904 -1.4643 0
M  V30 6431 H 600.592 -3.88442 -1.1776 0
M  V30 6432 H 601.358 -4.70792 1.16532 0
M  V30 6433 H 597.237 -4.60965 -0.0569456 0
M  V30 6434 H 600.781 -6.32736 2.93753 0
M  V30 6435 H 596.678 -6.22518 1.70711 0
M  V30 6436 H 597.446 -7.45467 3.37967 0
M  V30 6437 N 600.109 -0.101901 -1.5727 0
M  V30 6438 C 601.337 0.568392 -1.98939 0
M  V30 6439 C 601.752 1.61301 -0.981194 0
M  V30 6440 O 601.109 1.82478 0.0282869 0
M  V30 6441 C 601.16 1.20997 -3.40649 0
M  V30 6442 O 600.881 0.207129 -4.3761 0
M  V30 6443 C 602.382 1.96523 -3.97358 0
M  V30 6444 H 599.602 0.15186 -0.65359 0
M  V30 6445 H 602.146 -0.183198 -2.03678 0
M  V30 6446 H 600.301 1.91245 -3.36904 0
M  V30 6447 H 600.715 0.671071 -5.20189 0
M  V30 6448 H 602.189 2.36764 -4.98645 0
M  V30 6449 H 602.666 2.83376 -3.35552 0
M  V30 6450 H 603.272 1.31076 -4.04598 0
M  V30 6451 N 601.587 1.56661 0.17182 0
M  V30 6452 C 602.537 1.92781 1.21736 0
M  V30 6453 C 603.521 0.796065 1.39827 0
M  V30 6454 O 604.713 1.05924 1.41806 0
M  V30 6455 C 601.842 2.29079 2.55691 0
M  V30 6456 C 600.928 3.48765 2.41296 0
M  V30 6457 N 601.319 4.66022 1.96614 0
M  V30 6458 C 599.617 3.53362 2.72124 0
M  V30 6459 C 600.318 5.48159 1.94669 0
M  V30 6460 N 599.294 4.89189 2.37054 0
M  V30 6461 H 603.096 2.80926 0.863592 0
M  V30 6462 H 600.61 1.57889 0.380096 0
M  V30 6463 H 602.607 2.5315 3.31241 0
M  V30 6464 H 601.267 1.42272 2.91871 0
M  V30 6465 H 602.278 4.9025 1.66959 0
M  V30 6466 H 598.955 2.77033 3.12345 0
M  V30 6467 H 600.345 6.52121 1.61826 0
M  V30 6468 N 603.065 -0.440357 1.51323 0
M  V30 6469 C 604.314 -1.18697 1.63076 0
M  V30 6470 C 604.627 -1.92418 0.35136 0
M  V30 6471 O 605.833 -2.69258 0.348221 0
M  V30 6472 C 604.289 -2.15849 2.87988 0
M  V30 6473 C 603.897 -1.47789 4.22921 0
M  V30 6474 C 605.641 -2.90962 3.09098 0
M  V30 6475 C 603.548 -2.43407 5.38987 0
M  V30 6476 H 602.478 -0.44676 0.607389 0
M  V30 6477 H 605.129 -0.454313 1.77787 0
M  V30 6478 H 603.511 -2.92537 2.66905 0
M  V30 6479 H 604.685 -0.7668 4.54375 0
M  V30 6480 H 603 -0.848404 4.07665 0
M  V30 6481 H 605.597 -3.62584 3.92985 0
M  V30 6482 H 605.94 -3.52133 2.22053 0
M  V30 6483 H 606.473 -2.21381 3.30507 0
M  V30 6484 H 603.212 -1.86929 6.28282 0
M  V30 6485 H 602.732 -3.12579 5.11913 0
M  V30 6486 H 604.411 -3.046 5.70813 0
M  V30 6487 N 604.543 -1.41418 -0.695603 0
M  V30 6488 C 605.791 -1.40496 -1.45277 0
M  V30 6489 C 606.112 -0.0149538 -1.94994 0
M  V30 6490 O 605.382 0.9432 -1.71699 0
M  V30 6491 H 603.962 -0.517147 -0.539044 0
M  V30 6492 H 606.624 -1.76656 -0.823321 0
M  V30 6493 H 605.72 -2.09214 -2.31595 0
M  V30 6494 N 606.021 0.929856 -1.27246 0
M  V30 6495 C 606.971 2.01629 -1.06442 0
M  V30 6496 C 607.955 1.60899 0.00687842 0
M  V30 6497 O 609.147 1.75733 -0.211407 0
M  V30 6498 C 606.276 3.35849 -0.711361 0
M  V30 6499 C 605.362 3.8303 -1.82069 0
M  V30 6500 N 605.753 4.02743 -3.05993 0
M  V30 6501 C 604.051 4.12046 -1.70687 0
M  V30 6502 C 604.752 4.42001 -3.78167 0
M  V30 6503 N 603.728 4.4935 -3.05918 0
M  V30 6504 H 607.53 2.14898 -2.00489 0
M  V30 6505 H 605.044 1.11654 -1.17929 0
M  V30 6506 H 607.041 4.13343 -0.543442 0
M  V30 6507 H 605.701 3.23944 0.221517 0
M  V30 6508 H 606.712 3.89112 -3.41778 0
M  V30 6509 H 603.389 4.08866 -0.844681 0
M  V30 6510 H 604.779 4.6535 -4.84664 0
M  V30 6511 N 607.499 1.09233 1.13605 0
M  V30 6512 C 608.776 0.739633 1.81077 0
M  V30 6513 C 609.156 -0.775595 1.96336 0
M  V30 6514 O 608.504 -1.69726 1.52988 0
M  V30 6515 C 608.714 1.47636 3.16235 0
M  V30 6516 C 610.062 1.64087 3.91613 0
M  V30 6517 O 611.086 1.43871 3.25852 0
M  V30 6518 O 609.945 1.97511 5.0956 0
M  V30 6519 H 607.039 0.265464 0.783236 0
M  V30 6520 H 609.585 1.19441 1.20549 0
M  V30 6521 H 608.357 2.50818 3.00344 0
M  V30 6522 H 607.98 1.01362 3.84462 0
M  V30 6523 N 608.977 -1.30795 0.87923 0
M  V30 6524 C 610.226 -1.95636 0.490875 0
M  V30 6525 C 610.539 -1.70214 -0.963674 0
M  V30 6526 O 611.745 -2.28991 -1.45861 0
M  V30 6527 C 610.201 -3.50271 0.826929 0
M  V30 6528 C 609.809 -3.84521 2.29886 0
M  V30 6529 C 611.553 -4.21456 0.507494 0
M  V30 6530 C 609.46 -5.32309 2.57685 0
M  V30 6531 H 608.39 -0.732238 0.179841 0
M  V30 6532 H 611.041 -1.48829 1.07341 0
M  V30 6533 H 609.423 -3.9562 0.173542 0
M  V30 6534 H 610.597 -3.50102 2.99609 0
M  V30 6535 H 608.912 -3.26425 2.58526 0
M  V30 6536 H 611.509 -5.30199 0.692293 0
M  V30 6537 H 611.852 -4.12614 -0.552718 0
M  V30 6538 H 612.385 -3.81772 1.11782 0
M  V30 6539 H 609.124 -5.46195 3.62424 0
M  V30 6540 H 608.644 -5.68048 1.92566 0
M  V30 6541 H 610.323 -5.99678 2.42889 0
M  V30 6542 N 610.455 -0.639598 -1.44038 0
M  V30 6543 C 611.68 -0.153117 -2.06834 0
M  V30 6544 C 612.105 1.16676 -1.47541 0
M  V30 6545 O 611.463 1.71769 -0.580093 0
M  V30 6546 C 611.511 -0.0609169 -3.60549 0
M  V30 6547 O 610.615 0.98071 -4.00569 0
M  V30 6548 H 609.956 -0.0886402 -0.658057 0
M  V30 6549 H 612.486 -0.878674 -1.84771 0
M  V30 6550 H 612.496 0.126892 -4.07803 0
M  V30 6551 H 611.171 -1.0245 -4.03084 0
M  V30 6552 H 609.748 0.766789 -3.64931 0
M  V30 6553 N 611.933 1.52934 -0.380664 0
M  V30 6554 C 613.173 2.03378 0.204161 0
M  V30 6555 C 613.537 1.26132 1.44758 0
M  V30 6556 O 614.738 1.66657 2.109 0
M  V30 6557 C 613.009 3.54241 0.474118 0
M  V30 6558 S 614.568 4.26529 1.03046 0
M  V30 6559 H 611.386 0.708608 0.0582719 0
M  V30 6560 H 613.988 1.88263 -0.527017 0
M  V30 6561 H 612.692 4.08055 -0.438088 0
M  V30 6562 H 612.223 3.73547 1.23396 0
M  V30 6563 H 614.238 4.38964 2.31354 0
M  V30 6564 N 613.412 0.11024 1.57214 0
M  V30 6565 C 614.36 -0.860586 2.16094 0
M  V30 6566 C 615.354 -1.28156 1.1078 0
M  V30 6567 O 616.56 -1.25433 1.29099 0
M  V30 6568 H 612.935 -0.295606 0.691463 0
M  V30 6569 H 614.906 -0.33942 2.96463 0
M  V30 6570 C 613.655 -2.10421 2.768 0
M  V30 6571 H 612.978 -1.7892 3.5753 0
M  V30 6572 H 614.418 -2.76375 3.21547 0
M  V30 6573 C 612.877 -2.88823 1.73444 0
M  V30 6574 O 613.407 -3.839 1.18251 0
M  V30 6575 N 611.613 -2.52649 1.43586 0
M  V30 6576 H 611.16 -1.754 1.8866 0
M  V30 6577 H 611.118 -3.05403 0.746735 0
M  V30 6578 N 614.89 -1.56749 -0.16351 0
M  V30 6579 C 615.82 -2.00042 -1.20438 0
M  V30 6580 C 616.801 -0.877256 -1.45733 0
M  V30 6581 O 617.986 -1.1439 -1.56935 0
M  V30 6582 C 615.116 -2.36697 -2.54149 0
M  V30 6583 C 614.07 -3.52046 -2.43408 0
M  V30 6584 C 613.396 -3.74466 -3.81679 0
M  V30 6585 C 614.696 -4.85247 -1.93216 0
M  V30 6586 H 616.39 -2.87244 -0.844477 0
M  V30 6587 H 613.936 -1.38194 -0.40478 0
M  V30 6588 H 615.889 -2.65582 -3.27176 0
M  V30 6589 H 614.613 -1.46414 -2.91943 0
M  V30 6590 H 613.272 -3.23301 -1.72834 0
M  V30 6591 H 612.92 -2.81461 -4.1688 0
M  V30 6592 H 612.62 -4.52084 -3.75359 0
M  V30 6593 H 614.144 -4.0576 -4.5628 0
M  V30 6594 H 615.558 -5.12957 -2.56023 0
M  V30 6595 H 613.955 -5.66556 -1.97825 0
M  V30 6596 H 615.025 -4.7672 -0.88689 0
M  V30 6597 N 616.368 0.432326 -1.51554 0
M  V30 6598 C 617.616 1.17901 -1.64146 0
M  V30 6599 C 617.937 1.91604 -0.362367 0
M  V30 6600 O 617.207 1.85764 0.621968 0
M  V30 6601 H 615.787 0.438206 -0.604966 0
M  V30 6602 H 618.449 0.495172 -1.88505 0
M  V30 6603 H 617.545 1.90584 -2.47152 0
M  V30 6604 N 617.846 1.41785 0.688094 0
M  V30 6605 C 619.071 1.45117 1.48175 0
M  V30 6606 C 619.496 0.060129 1.88004 0
M  V30 6607 O 618.854 -0.938385 1.55126 0
M  V30 6608 C 618.902 2.37224 2.71583 0
M  V30 6609 O 618.006 1.83443 3.69354 0
M  V30 6610 H 617.347 0.492208 0.445676 0
M  V30 6611 H 619.877 1.86329 0.845145 0
M  V30 6612 H 619.887 2.53353 3.19806 0
M  V30 6613 H 618.562 3.38293 2.41931 0
M  V30 6614 H 617.139 1.76802 3.28322 0
M  V30 6615 N 619.324 -0.923095 1.27737 0
M  V30 6616 C 620.254 -2.04124 1.13383 0
M  V30 6617 C 621.235 -1.70066 0.0340658 0
M  V30 6618 O 622.42 -1.93068 0.209383 0
M  V30 6619 C 619.55 -3.3831 0.785097 0
M  V30 6620 C 618.504 -3.86496 1.8386 0
M  V30 6621 C 617.83 -5.1754 1.34373 0
M  V30 6622 C 619.13 -4.09381 3.24353 0
M  V30 6623 H 620.824 -2.1639 2.06919 0
M  V30 6624 H 618.37 -1.03976 0.996243 0
M  V30 6625 H 620.323 -4.16016 0.671485 0
M  V30 6626 H 619.047 -3.2607 -0.185969 0
M  V30 6627 H 617.706 -3.10987 1.9412 0
M  V30 6628 H 617.354 -5.01696 0.361989 0
M  V30 6629 H 617.054 -5.50751 2.04811 0
M  V30 6630 H 618.578 -5.97811 1.24315 0
M  V30 6631 H 619.992 -4.77641 3.17067 0
M  V30 6632 H 618.389 -4.53906 3.92542 0
M  V30 6633 H 619.459 -3.14515 3.69064 0
M  V30 6634 N 620.802 -1.09834 -1.13024 0
M  V30 6635 C 621.75 -0.736283 -2.20639 0
M  V30 6636 C 622.744 0.264725 -1.67319 0
M  V30 6637 O 623.95 0.125745 -1.7956 0
M  V30 6638 H 620.325 -0.220136 -0.719058 0
M  V30 6639 H 622.296 -1.65295 -2.48436 0
M  V30 6640 C 621.045 -0.177544 -3.47246 0
M  V30 6641 H 620.368 -0.939009 -3.88616 0
M  V30 6642 H 621.808 0.0378007 -4.23983 0
M  V30 6643 C 620.267 1.08824 -3.1884 0
M  V30 6644 O 620.797 2.1708 -3.37993 0
M  V30 6645 N 619.003 1.00442 -2.7269 0
M  V30 6646 H 618.55 0.123383 -2.57304 0
M  V30 6647 H 618.508 1.85206 -2.5406 0
M  V30 6648 N 622.28 1.30327 -0.886154 0
M  V30 6649 C 623.529 1.95373 -0.501243 0
M  V30 6650 C 623.842 1.70722 0.954634 0
M  V30 6651 O 625.048 2.29761 1.44644 0
M  V30 6652 C 623.504 3.49828 -0.845493 0
M  V30 6653 C 623.112 3.83296 -2.31922 0
M  V30 6654 C 624.856 4.2118 -0.529838 0
M  V30 6655 C 622.763 5.30935 -2.60504 0
M  V30 6656 H 621.693 0.731274 -0.183722 0
M  V30 6657 H 624.344 1.48258 -1.08129 0
M  V30 6658 H 622.726 3.95522 -0.19452 0
M  V30 6659 H 623.9 3.48508 -3.01461 0
M  V30 6660 H 622.215 3.2505 -2.60253 0
M  V30 6661 H 624.812 5.29825 -0.720401 0
M  V30 6662 H 625.155 4.12902 0.530828 0
M  V30 6663 H 625.688 3.81173 -1.13806 0
M  V30 6664 H 622.427 5.44265 -3.65316 0
M  V30 6665 H 621.947 5.67019 -1.95575 0
M  V30 6666 H 623.626 5.98381 -2.46066 0
M  V30 6667 N 623.758 0.647228 1.43697 0
M  V30 6668 C 624.721 -0.0385101 2.29168 0
M  V30 6669 C 625.721 -0.756487 1.41894 0
M  V30 6670 O 626.911 -0.598641 1.63591 0
M  V30 6671 C 624.043 -1.06524 3.23829 0
M  V30 6672 H 625.236 0.713445 2.9129 0
M  V30 6673 H 622.789 0.408153 1.50877 0
M  V30 6674 H 623.524 -1.84664 2.66589 0
M  V30 6675 H 623.309 -0.554147 3.88164 0
M  V30 6676 H 624.799 -1.54432 3.87996 0
M  V30 6677 N 625.236 -1.5273 0.388769 0
M  V30 6678 C 626.186 -2.23238 -0.463567 0
M  V30 6679 C 627.17 -1.23606 -1.03007 0
M  V30 6680 O 628.362 -1.48945 -0.956261 0
M  V30 6681 C 625.491 -3.04228 -1.5906 0
M  V30 6682 C 624.577 -4.11255 -1.03587 0
M  V30 6683 N 624.968 -5.0538 -0.206038 0
M  V30 6684 C 623.266 -4.26376 -1.30841 0
M  V30 6685 C 623.967 -5.81613 0.100359 0
M  V30 6686 N 622.943 -5.41264 -0.503447 0
M  V30 6687 H 626.745 -2.93367 0.176978 0
M  V30 6688 H 624.259 -1.61188 0.198046 0
M  V30 6689 H 626.256 -3.53277 -2.21362 0
M  V30 6690 H 624.916 -2.35634 -2.23398 0
M  V30 6691 H 625.927 -5.17663 0.156659 0
M  V30 6692 H 622.604 -3.69011 -1.95287 0
M  V30 6693 H 623.994 -6.67442 0.772676 0
M  V30 6694 N 626.714 -0.118576 -1.57153 0
M  V30 6695 C 627.96 0.540326 -1.95469 0
M  V30 6696 C 628.293 1.66356 -1.00196 0
M  V30 6697 O 627.568 1.94461 -0.039104 0
M  V30 6698 C 627.851 1.07342 -3.43729 0
M  V30 6699 C 627.704 -0.0463732 -4.49776 0
M  V30 6700 C 629.023 1.96442 -3.93826 0
M  V30 6701 H 626.142 0.19494 -0.710751 0
M  V30 6702 H 628.784 -0.19405 -1.89006 0
M  V30 6703 H 626.934 1.69925 -3.49368 0
M  V30 6704 H 628.606 -0.681648 -4.56236 0
M  V30 6705 H 626.849 -0.709574 -4.27957 0
M  V30 6706 H 627.52 0.367856 -5.50773 0
M  V30 6707 H 629.996 1.43731 -3.90488 0
M  V30 6708 H 628.872 2.3066 -4.98084 0
M  V30 6709 H 629.133 2.89077 -3.34495 0
M  V30 6710 N 628.193 1.56834 0.155195 0
M  V30 6711 C 629.126 1.9278 1.22111 0
M  V30 6712 C 630.104 0.792588 1.41975 0
M  V30 6713 O 631.288 1.04743 1.5672 0
M  V30 6714 C 628.415 2.19273 2.58142 0
M  V30 6715 C 627.461 3.41932 2.54921 0
M  V30 6716 S 628.294 4.95769 2.02418 0
M  V30 6717 C 629.45 5.25375 3.40194 0
M  V30 6718 H 629.683 2.82889 0.914393 0
M  V30 6719 H 627.216 1.50133 0.360461 0
M  V30 6720 H 629.174 2.35217 3.36427 0
M  V30 6721 H 627.835 1.29843 2.86007 0
M  V30 6722 H 627.028 3.57721 3.55038 0
M  V30 6723 H 626.63 3.25188 1.8474 0
M  V30 6724 H 628.922 5.1834 4.36268 0
M  V30 6725 H 629.865 6.26889 3.29266 0
M  V30 6726 H 630.273 4.52906 3.36951 0
M  V30 6727 N 629.671 -0.424282 1.51781 0
M  V30 6728 C 630.948 -1.18464 1.55646 0
M  V30 6729 C 631.328 -2.08529 0.328438 0
M  V30 6730 O 630.676 -2.17969 -0.685693 0
M  V30 6731 C 630.886 -1.97514 2.87731 0
M  V30 6732 C 632.234 -2.54106 3.40169 0
M  V30 6733 O 633.258 -2.07711 2.89369 0
M  V30 6734 O 632.117 -3.38759 4.28841 0
M  V30 6735 H 629.211 -0.540055 0.626314 0
M  V30 6736 H 631.757 -0.432291 1.64102 0
M  V30 6737 H 630.529 -1.31444 3.68562 0
M  V30 6738 H 630.152 -2.79787 2.82498 0
M  V30 6739 N 631.149 -1.42148 -0.680565 0
M  V30 6740 C 632.374 -1.45901 -1.47403 0
M  V30 6741 C 632.799 -0.0700985 -1.87969 0
M  V30 6742 O 632.157 0.930145 -1.55621 0
M  V30 6743 C 632.205 -2.38661 -2.70321 0
M  V30 6744 O 631.309 -1.85399 -3.68376 0
M  V30 6745 H 630.65 -0.494565 -0.443059 0
M  V30 6746 H 633.18 -1.86774 -0.835251 0
M  V30 6747 H 633.19 -2.55046 -3.18458 0
M  V30 6748 H 631.865 -3.39571 -2.40134 0
M  V30 6749 H 630.442 -1.78541 -3.2738 0
M  V30 6750 N 632.627 0.916307 -1.28225 0
M  V30 6751 C 634.038 1.48024 -1.13779 0
M  V30 6752 C 634.389 1.94289 0.273139 0
M  V30 6753 O 633.514 1.82226 1.16716 0
M  V30 6754 C 634.109 2.69029 -2.05935 0
M  V30 6755 C 632.668 3.2161 -1.95561 0
M  V30 6756 C 631.815 1.94321 -1.97825 0
M  V30 6757 H 634.766 0.729272 -1.40951 0
M  V30 6758 H 634.787 3.44204 -1.62184 0
M  V30 6759 H 634.299 2.35325 -3.08616 0
M  V30 6760 H 632.4 3.60045 -0.959076 0
M  V30 6761 H 632.513 3.87032 -2.82388 0
M  V30 6762 H 630.877 2.1131 -1.42198 0
M  V30 6763 H 631.66 1.62917 -3.0218 0
M  V30 6764 N 634.105 1.10431 1.1244 0
M  V30 6765 C 635.382 0.758797 1.80282 0
M  V30 6766 C 635.762 -0.754727 1.97147 0
M  V30 6767 O 635.11 -1.68094 1.54779 0
M  V30 6768 C 635.32 1.50982 3.14651 0
M  V30 6769 C 636.668 1.68232 3.8985 0
M  V30 6770 O 637.692 1.47319 3.24308 0
M  V30 6771 O 636.551 2.02905 5.07437 0
M  V30 6772 H 633.645 0.273756 0.780376 0
M  V30 6773 H 636.191 1.20713 1.19275 0
M  V30 6774 H 634.963 2.53989 2.97666 0
M  V30 6775 H 634.586 1.05435 3.83366 0
M  V30 6776 N 635.583 -1.29855 0.893053 0
M  V30 6777 C 636.832 -1.95104 0.511597 0
M  V30 6778 C 637.145 -1.71226 -0.945567 0
M  V30 6779 O 638.351 -2.30525 -1.43424 0
M  V30 6780 C 636.807 -3.49374 0.864034 0
M  V30 6781 C 636.415 -3.82061 2.33952 0
M  V30 6782 C 638.159 -4.20894 0.552167 0
M  V30 6783 C 636.066 -5.29546 2.63316 0
M  V30 6784 H 634.996 -0.73029 0.187597 0
M  V30 6785 H 637.647 -1.47682 1.08914 0
M  V30 6786 H 636.029 -3.95413 0.215493 0
M  V30 6787 H 637.203 -3.46904 3.03305 0
M  V30 6788 H 635.518 -3.23665 2.61973 0
M  V30 6789 H 638.115 -5.29435 0.748489 0
M  V30 6790 H 638.458 -4.13178 -0.508924 0
M  V30 6791 H 638.991 -3.80564 1.15825 0
M  V30 6792 H 635.73 -5.4232 3.68197 0
M  V30 6793 H 635.25 -5.65974 1.9858 0
M  V30 6794 H 636.929 -5.97068 2.49236 0
M  V30 6795 N 637.061 -0.65484 -1.43351 0
M  V30 6796 C 638.309 -0.168559 -2.01396 0
M  V30 6797 C 638.63 1.22235 -1.51933 0
M  V30 6798 O 637.9 1.81685 -0.732627 0
M  V30 6799 H 636.48 -0.0593244 -0.744641 0
M  V30 6800 H 639.142 -0.846871 -1.75539 0
M  V30 6801 H 638.238 -0.154428 -3.11718 0
M  V30 6802 N 638.539 1.52521 -0.396863 0
M  V30 6803 C 639.955 1.5953 -0.0471659 0
M  V30 6804 C 640.155 1.41044 1.43906 0
M  V30 6805 O 639.211 1.23122 2.20448 0
M  V30 6806 C 640.524 2.95972 -0.531113 0
M  V30 6807 C 642.072 3.09172 -0.488024 0
M  V30 6808 C 642.547 4.48075 -0.948281 0
M  V30 6809 N 644.038 4.54281 -0.9046 0
M  V30 6810 C 644.773 5.60007 -1.23205 0
M  V30 6811 N 644.269 6.73343 -1.63036 0
M  V30 6812 N 646.062 5.50151 -1.15282 0
M  V30 6813 H 638.213 1.62786 -1.36435 0
M  V30 6814 H 640.476 0.76514 -0.559701 0
M  V30 6815 H 640.182 3.14741 -1.56942 0
M  V30 6816 H 640.056 3.77143 0.0657922 0
M  V30 6817 H 642.443 2.90095 0.541211 0
M  V30 6818 H 642.524 2.29937 -1.12083 0
M  V30 6819 H 642.168 4.67894 -1.97578 0
M  V30 6820 H 642.098 5.25788 -0.292412 0
M  V30 6821 H 644.589 3.72918 -0.6116 0
M  V30 6822 H 644.902 7.49992 -1.86365 0
M  V30 6823 H 643.247 6.74655 -1.66929 0
M  V30 6824 H 646.438 4.6049 -0.840602 0
M  V30 6825 H 646.611 6.32444 -1.41133 0
M  V30 6826 N 640.017 0.126909 1.57088 0
M  V30 6827 C 641.245 -0.53667 1.99819 0
M  V30 6828 C 641.66 -1.5972 1.00673 0
M  V30 6829 O 641.017 -1.825 0.000747365 0
M  V30 6830 C 641.068 -1.15563 3.42531 0
M  V30 6831 O 640.789 -0.137483 4.37884 0
M  V30 6832 C 642.29 -1.90176 4.00435 0
M  V30 6833 H 639.51 -0.141443 0.655923 0
M  V30 6834 H 642.054 0.215578 2.03361 0
M  V30 6835 H 640.209 -1.85861 3.39904 0
M  V30 6836 H 640.623 -0.588229 5.21191 0
M  V30 6837 H 642.097 -2.28801 5.02349 0
M  V30 6838 H 642.574 -2.78002 3.40017 0
M  V30 6839 H 643.18 -1.24623 4.06632 0
M  V30 6840 N 641.495 -1.56914 -0.146875 0
M  V30 6841 C 642.741 -1.83628 -0.860741 0
M  V30 6842 C 643.074 -0.708528 -1.80813 0
M  V30 6843 O 642.349 0.287838 -1.92358 0
M  V30 6844 C 642.632 -3.20836 -1.63511 0
M  V30 6845 C 642.485 -4.44174 -0.709199 0
M  V30 6846 C 643.804 -3.55268 -2.59756 0
M  V30 6847 H 640.923 -0.667949 -0.311468 0
M  V30 6848 H 643.565 -1.89582 -0.125936 0
M  V30 6849 H 641.715 -3.15891 -2.26153 0
M  V30 6850 H 643.387 -4.61205 -0.0937781 0
M  V30 6851 H 641.63 -4.33796 -0.0187856 0
M  V30 6852 H 642.301 -5.36785 -1.28707 0
M  V30 6853 H 644.777 -3.60824 -2.07232 0
M  V30 6854 H 643.653 -4.52303 -3.10987 0
M  V30 6855 H 643.914 -2.81231 -3.41118 0
M  V30 6856 N 642.974 0.416227 -1.52004 0
M  V30 6857 C 643.884 1.53147 -1.77717 0
M  V30 6858 C 644.9 1.609 -0.662368 0
M  V30 6859 O 646.076 1.77747 -0.946991 0
M  V30 6860 C 643.141 2.88948 -1.91598 0
M  V30 6861 C 642.202 2.9114 -3.15493 0
M  V30 6862 C 641.435 4.20464 -3.28703 0
M  V30 6863 O 641.658 5.13981 -2.47345 0
M  V30 6864 O 640.592 4.29368 -4.21813 0
M  V30 6865 H 644.418 1.34357 -2.72363 0
M  V30 6866 H 642.003 0.601373 -1.36762 0
M  V30 6867 H 643.885 3.69505 -2.02593 0
M  V30 6868 H 642.56 3.07821 -1.00141 0
M  V30 6869 H 641.467 2.09461 -3.09962 0
M  V30 6870 H 642.8 2.77216 -4.06709 0
M  V30 6871 N 644.452 1.42507 0.673017 0
M  V30 6872 C 645.68 1.46473 1.46128 0
M  V30 6873 C 646.095 0.0765912 1.88645 0
M  V30 6874 O 645.452 -0.909057 1.58248 0
M  V30 6875 C 645.503 2.39339 2.70923 0
M  V30 6876 O 645.224 3.72752 2.3019 0
M  V30 6877 C 646.725 2.52343 3.64469 0
M  V30 6878 H 643.945 0.49812 0.449575 0
M  V30 6879 H 646.489 1.87041 0.826802 0
M  V30 6880 H 644.644 2.02019 3.30556 0
M  V30 6881 H 645.058 4.22503 3.10791 0
M  V30 6882 H 646.532 3.2144 4.48754 0
M  V30 6883 H 647.009 1.56189 4.1049 0
M  V30 6884 H 647.615 2.90392 3.10729 0
M  V30 6885 N 645.93 -0.909495 1.28709 0
M  V30 6886 C 646.893 -1.99399 1.13016 0
M  V30 6887 C 647.893 -1.60654 0.068536 0
M  V30 6888 O 649.083 -1.71334 0.314671 0
M  V30 6889 C 646.215 -3.33078 0.726085 0
M  V30 6890 H 647.408 -2.14751 2.09338 0
M  V30 6891 H 644.961 -1.09272 1.11756 0
M  V30 6892 H 645.696 -3.23428 -0.23771 0
M  V30 6893 H 645.481 -3.62562 1.49302 0
M  V30 6894 H 646.971 -4.12681 0.639058 0
M  V30 6895 N 647.408 -1.11026 -1.11852 0
M  V30 6896 C 648.657 -0.851249 -1.82857 0
M  V30 6897 C 648.97 0.62514 -1.85341 0
M  V30 6898 O 650.176 1.00026 -2.52403 0
M  V30 6899 C 648.632 -1.47309 -3.28372 0
M  V30 6900 C 648.24 -2.9832 -3.34229 0
M  V30 6901 C 649.984 -1.29373 -4.04306 0
M  V30 6902 C 647.891 -3.53509 -4.74115 0
M  V30 6903 H 646.821 -0.314794 -0.685143 0
M  V30 6904 H 649.472 -1.33499 -1.25898 0
M  V30 6905 H 647.854 -0.917017 -3.85236 0
M  V30 6906 H 649.028 -3.60295 -2.87271 0
M  V30 6907 H 647.343 -3.15482 -2.71772 0
M  V30 6908 H 649.94 -1.68042 -5.07608 0
M  V30 6909 H 650.283 -0.235879 -4.15631 0
M  V30 6910 H 650.816 -1.8182 -3.53817 0
M  V30 6911 H 647.555 -4.58987 -4.67986 0
M  V30 6912 H 647.075 -2.96305 -5.21501 0
M  V30 6913 H 648.754 -3.51693 -5.43066 0
M  V30 6914 N 648.886 1.2938 -0.899927 0
M  V30 6915 C 650.302 1.48052 -0.596059 0
M  V30 6916 C 650.502 1.82114 0.862372 0
M  V30 6917 O 649.558 1.91774 1.64253 0
M  V30 6918 C 650.871 2.59332 -1.52208 0
M  V30 6919 C 652.419 2.73208 -1.5273 0
M  V30 6920 C 652.894 3.87617 -2.43961 0
M  V30 6921 N 654.385 3.9495 -2.42009 0
M  V30 6922 C 655.12 4.82824 -3.09303 0
M  V30 6923 N 654.616 5.75387 -3.85877 0
M  V30 6924 N 656.409 4.76317 -2.98459 0
M  V30 6925 H 648.56 1.05546 -1.8432 0
M  V30 6926 H 650.823 0.524314 -0.78981 0
M  V30 6927 H 650.529 2.41029 -2.56121 0
M  V30 6928 H 650.403 3.56139 -1.24278 0
M  V30 6929 H 652.79 2.90908 -0.495614 0
M  V30 6930 H 652.871 1.76975 -1.84698 0
M  V30 6931 H 652.515 3.70672 -3.47224 0
M  V30 6932 H 652.445 4.83218 -2.09303 0
M  V30 6933 H 654.936 3.28744 -1.86375 0
M  V30 6934 H 655.249 6.39235 -4.34279 0
M  V30 6935 H 653.594 5.75272 -3.89984 0
M  V30 6936 H 656.785 4.0299 -2.38152 0
M  V30 6937 H 656.958 5.44589 -3.51179 0
M  V30 6938 N 650.364 0.662433 1.43002 0
M  V30 6939 C 651.612 0.179237 2.01304 0
M  V30 6940 C 651.933 -1.21428 1.52579 0
M  V30 6941 O 651.203 -1.81294 0.742252 0
M  V30 6942 H 649.783 0.0632725 0.744316 0
M  V30 6943 H 652.445 0.856169 1.75088 0
M  V30 6944 H 651.541 0.170957 3.11631 0
M  V30 6945 N 651.842 -1.52309 0.404946 0
M  V30 6946 C 652.772 -2.29805 -0.41376 0
M  V30 6947 C 653.753 -1.3384 -1.0498 0
M  V30 6948 O 654.938 -1.62745 -1.05961 0
M  V30 6949 C 652.068 -3.11639 -1.53292 0
M  V30 6950 C 651.022 -4.15616 -1.02211 0
M  V30 6951 C 650.348 -4.8577 -2.23455 0
M  V30 6952 C 651.648 -5.2224 -0.0790725 0
M  V30 6953 H 653.342 -2.98493 0.232878 0
M  V30 6954 H 650.888 -1.43552 0.113441 0
M  V30 6955 H 652.841 -3.64618 -2.11262 0
M  V30 6956 H 651.565 -2.40712 -2.20738 0
M  V30 6957 H 650.224 -3.63641 -0.46484 0
M  V30 6958 H 649.872 -4.11376 -2.89445 0
M  V30 6959 H 649.572 -5.56058 -1.89929 0
M  V30 6960 H 651.096 -5.4156 -2.82038 0
M  V30 6961 H 652.51 -5.70485 -0.567438 0
M  V30 6962 H 650.907 -5.99867 0.167167 0
M  V30 6963 H 651.977 -4.77078 0.867447 0
M  V30 6964 N 653.32 -0.135238 -1.57019 0
M  V30 6965 C 654.548 0.526066 -2.001 0
M  V30 6966 C 654.963 1.59184 -1.01519 0
M  V30 6967 O 654.32 1.82497 -0.0104258 0
M  V30 6968 C 654.371 1.13744 -3.43139 0
M  V30 6969 O 654.092 0.114259 -4.37951 0
M  V30 6970 C 655.593 1.8805 -4.01438 0
M  V30 6971 H 652.813 0.137962 -0.656664 0
M  V30 6972 H 655.357 -0.226359 -2.03243 0
M  V30 6973 H 653.512 1.84056 -3.40885 0
M  V30 6974 H 653.926 0.56058 -5.21496 0
M  V30 6975 H 655.4 2.26133 -5.03555 0
M  V30 6976 H 655.877 2.76194 -3.41487 0
M  V30 6977 H 656.483 1.22464 -4.07287 0
M  V30 6978 N 654.798 1.5699 0.138552 0
M  V30 6979 C 655.761 1.97984 1.15478 0
M  V30 6980 C 656.761 0.867416 1.35398 0
M  V30 6981 O 657.951 1.13387 1.32246 0
M  V30 6982 C 655.083 2.3031 2.51337 0
M  V30 6983 H 656.276 2.88953 0.802896 0
M  V30 6984 H 653.829 1.51555 0.382189 0
M  V30 6985 H 654.564 1.42159 2.91481 0
M  V30 6986 H 654.349 3.11425 2.38237 0
M  V30 6987 H 655.839 2.62834 3.24512 0
M  V30 6988 N 656.276 -0.40816 1.52223 0
M  V30 6989 C 657.522 -1.15673 1.66576 0
M  V30 6990 C 657.855 -1.90141 0.394996 0
M  V30 6991 O 657.13 -1.84798 -0.606613 0
M  V30 6992 C 657.413 -2.15042 2.88841 0
M  V30 6993 C 657.266 -1.44465 4.25969 0
M  V30 6994 C 658.585 -3.15699 3.0663 0
M  V30 6995 H 655.704 -0.41916 0.606196 0
M  V30 6996 H 658.346 -0.442348 1.84779 0
M  V30 6997 H 656.496 -2.75964 2.73452 0
M  V30 6998 H 658.168 -0.866544 4.53088 0
M  V30 6999 H 656.411 -0.746612 4.27327 0
M  V30 7000 H 657.082 -2.16976 5.07568 0
M  V30 7001 H 659.558 -2.64854 3.20923 0
M  V30 7002 H 658.434 -3.82491 3.9369 0
M  V30 7003 H 658.695 -3.83481 2.19987 0
M  V30 7004 N 657.755 -1.42862 -0.66545 0
M  V30 7005 C 658.98 -1.47456 -1.45848 0
M  V30 7006 C 659.405 -0.0900312 -1.87884 0
M  V30 7007 O 658.763 0.913587 -1.56599 0
M  V30 7008 C 658.811 -2.41514 -2.67774 0
M  V30 7009 O 657.915 -1.89296 -3.66389 0
M  V30 7010 H 657.256 -0.499236 -0.437789 0
M  V30 7011 H 659.786 -1.8765 -0.815394 0
M  V30 7012 H 659.796 -2.58409 -3.15735 0
M  V30 7013 H 658.471 -3.42099 -2.36519 0
M  V30 7014 H 657.048 -1.82003 -3.25468 0
M  V30 7015 N 659.233 0.902656 -1.29189 0
M  V30 7016 C 660.51 1.63296 -1.07674 0
M  V30 7017 C 660.89 2.07649 0.380137 0
M  V30 7018 O 660.238 1.82997 1.36837 0
M  V30 7019 C 660.448 2.81603 -2.06158 0
M  V30 7020 C 661.796 3.52359 -2.36914 0
M  V30 7021 O 662.82 2.91767 -2.04329 0
M  V30 7022 O 661.679 4.61586 -2.92576 0
M  V30 7023 H 658.773 0.716889 -0.41231 0
M  V30 7024 H 661.319 0.950984 -1.4055 0
M  V30 7025 H 660.091 2.46004 -3.04299 0
M  V30 7026 H 659.714 3.57508 -1.73993 0
M  V30 7027 N 660.711 1.11618 1.11262 0
M  V30 7028 C 661.644 0.719995 2.16544 0
M  V30 7029 C 662.622 -0.28471 1.60088 0
M  V30 7030 O 663.806 -0.180693 1.87632 0
M  V30 7031 C 660.933 0.0643302 3.38639 0
M  V30 7032 C 659.979 1.03448 4.13764 0
M  V30 7033 S 660.812 2.55789 4.70459 0
M  V30 7034 C 661.968 1.91529 5.95875 0
M  V30 7035 H 662.201 1.61181 2.49816 0
M  V30 7036 H 659.734 0.934401 1.22916 0
M  V30 7037 H 661.692 -0.307609 4.09346 0
M  V30 7038 H 660.353 -0.804471 3.03623 0
M  V30 7039 H 659.546 0.523188 5.01277 0
M  V30 7040 H 659.148 1.34893 3.48826 0
M  V30 7041 H 661.44 1.25286 6.65815 0
M  V30 7042 H 662.383 2.77047 6.51652 0
M  V30 7043 H 662.791 1.37468 5.47506 0
M  V30 7044 N 662.189 -1.289 0.906776 0
M  V30 7045 C 663.414 -1.99939 0.551303 0
M  V30 7046 C 663.839 -1.67366 -0.858496 0
M  V30 7047 O 663.197 -0.902176 -1.57259 0
M  V30 7048 C 663.245 -3.52523 0.758937 0
M  V30 7049 O 662.349 -4.11983 -0.185308 0
M  V30 7050 H 661.69 -0.628376 0.214568 0
M  V30 7051 H 664.22 -1.64225 1.2203 0
M  V30 7052 H 664.23 -4.02522 0.666329 0
M  V30 7053 H 662.905 -3.75566 1.78671 0
M  V30 7054 H 661.482 -3.72873 -0.0445577 0
M  V30 7055 N 663.667 -0.670007 -1.42649 0
M  V30 7056 C 664.617 0.0339546 -2.27975 0
M  V30 7057 C 665.601 0.778295 -1.40824 0
M  V30 7058 O 666.793 0.657997 -1.64315 0
M  V30 7059 C 663.922 0.987899 -3.28779 0
M  V30 7060 C 663.008 0.241153 -4.23414 0
M  V30 7061 N 663.399 -0.751392 -5.00188 0
M  V30 7062 C 661.697 0.480269 -4.43407 0
M  V30 7063 C 662.398 -1.19615 -5.69269 0
M  V30 7064 N 661.374 -0.527045 -5.41039 0
M  V30 7065 H 665.176 -0.727425 -2.84756 0
M  V30 7066 H 662.69 -0.498673 -1.54554 0
M  V30 7067 H 664.687 1.50716 -3.88703 0
M  V30 7068 H 663.347 1.74916 -2.73559 0
M  V30 7069 H 664.358 -1.13075 -5.05405 0
M  V30 7070 H 661.035 1.2214 -3.99234 0
M  V30 7071 H 662.425 -2.01836 -6.40868 0
M  V30 7072 N 665.145 1.52092 -0.413018 0
M  V30 7073 C 666.394 2.01041 0.16287 0
M  V30 7074 C 666.707 1.30288 1.45892 0
M  V30 7075 O 667.913 1.70075 2.11629 0
M  V30 7076 C 666.369 3.58283 0.340806 0
M  V30 7077 C 665.977 4.37955 -0.943377 0
M  V30 7078 C 667.721 4.15452 0.871774 0
M  V30 7079 C 665.628 5.86847 -0.732417 0
M  V30 7080 H 664.558 0.751224 0.0646414 0
M  V30 7081 H 667.209 1.75404 -0.539059 0
M  V30 7082 H 665.591 3.80266 1.10516 0
M  V30 7083 H 666.765 4.2773 -1.71418 0
M  V30 7084 H 665.08 3.92122 -1.40105 0
M  V30 7085 H 667.677 5.24375 1.0457 0
M  V30 7086 H 668.02 3.73057 1.84755 0
M  V30 7087 H 668.553 3.97452 0.166377 0
M  V30 7088 H 665.292 6.33609 -1.67986 0
M  V30 7089 H 664.812 5.998 -0.000980058 0
M  V30 7090 H 666.491 6.45906 -0.376105 0
M  V30 7091 N 666.623 0.143563 1.56945 0
M  V30 7092 C 668.039 -0.212877 1.58174 0
M  V30 7093 C 668.239 -1.64926 1.15766 0
M  V30 7094 O 667.295 -2.37535 0.856361 0
M  V30 7095 C 668.608 0.0427573 3.0067 0
M  V30 7096 C 670.156 -0.0212221 3.12993 0
M  V30 7097 C 670.631 0.207036 4.57532 0
M  V30 7098 N 672.122 0.153845 4.62944 0
M  V30 7099 C 672.857 0.305018 5.72588 0
M  V30 7100 N 672.353 0.513722 6.90893 0
M  V30 7101 N 674.146 0.242862 5.61575 0
M  V30 7102 H 666.297 1.08148 1.82805 0
M  V30 7103 H 668.56 0.427831 0.84597 0
M  V30 7104 H 668.266 1.03672 3.36073 0
M  V30 7105 H 668.14 -0.678195 3.71053 0
M  V30 7106 H 670.527 -1.00574 2.77433 0
M  V30 7107 H 670.608 0.732004 2.45103 0
M  V30 7108 H 670.252 1.18863 4.93795 0
M  V30 7109 H 670.182 -0.566473 5.23544 0
M  V30 7110 H 672.673 -0.00294866 3.779 0
M  V30 7111 H 672.986 0.619273 7.70315 0
M  V30 7112 H 671.331 0.550001 6.9282 0
M  V30 7113 H 674.522 0.0806015 4.68031 0
M  V30 7114 H 674.695 0.364112 6.46976 0
M  V30 7115 N 668.101 -1.57061 -0.130224 0
M  V30 7116 C 669.326 -1.88802 -0.858409 0
M  V30 7117 C 669.751 -0.734353 -1.73173 0
M  V30 7118 O 669.109 0.315529 -1.78533 0
M  V30 7119 C 669.157 -3.19228 -1.67708 0
M  V30 7120 O 668.261 -3.04343 -2.78297 0
M  V30 7121 H 667.602 -0.619849 -0.238083 0
M  V30 7122 H 670.132 -2.04271 -0.115995 0
M  V30 7123 H 670.142 -3.51669 -2.06864 0
M  V30 7124 H 668.817 -4.02793 -1.0359 0
M  V30 7125 H 667.394 -2.83346 -2.42425 0
M  V30 7126 N 669.579 0.400081 -1.52437 0
M  V30 7127 C 670.825 1.14788 -1.67187 0
M  V30 7128 C 671.158 1.89928 -0.405074 0
M  V30 7129 O 670.433 1.85118 0.596804 0
M  V30 7130 C 670.716 2.13507 -2.89977 0
M  V30 7131 C 670.569 1.42204 -4.2673 0
M  V30 7132 C 671.888 3.14069 -3.083 0
M  V30 7133 H 669.007 0.415939 -0.608411 0
M  V30 7134 H 671.649 0.432542 -1.85011 0
M  V30 7135 H 669.799 2.7451 -2.74912 0
M  V30 7136 H 671.471 0.842503 -4.53541 0
M  V30 7137 H 669.714 0.723939 -4.27717 0
M  V30 7138 H 670.385 2.14281 -5.08712 0
M  V30 7139 H 672.861 2.63148 -3.22323 0
M  V30 7140 H 671.737 3.80398 -3.95713 0
M  V30 7141 H 671.998 3.82309 -2.22018 0
M  V30 7142 N 671.057 1.43213 0.657864 0
M  V30 7143 C 672.468 1.39669 1.23893 0
M  V30 7144 C 672.819 0.0984217 1.95953 0
M  V30 7145 O 671.944 -0.8023 2.00978 0
M  V30 7146 C 672.539 2.53004 2.25332 0
M  V30 7147 C 671.098 2.5274 2.78926 0
M  V30 7148 C 670.245 2.30941 1.53497 0
M  V30 7149 H 673.196 1.52181 0.450172 0
M  V30 7150 H 673.217 2.24226 3.07413 0
M  V30 7151 H 672.729 3.4748 1.72856 0
M  V30 7152 H 670.83 1.6213 3.35477 0
M  V30 7153 H 670.943 3.50352 3.26787 0
M  V30 7154 H 669.307 1.7952 1.80678 0
M  V30 7155 H 670.09 3.27496 1.02963 0
M  V30 7156 N 672.536 -0.895792 1.29666 0
M  V30 7157 C 673.761 -1.68528 1.20885 0
M  V30 7158 C 674.186 -1.8673 -0.226595 0
M  V30 7159 O 673.544 -1.39044 -1.16347 0
M  V30 7160 C 673.592 -3.04512 1.93144 0
M  V30 7161 O 672.696 -3.92963 1.25115 0
M  V30 7162 H 672.037 -0.515371 0.418675 0
M  V30 7163 H 674.567 -1.11878 1.71302 0
M  V30 7164 H 674.577 -3.54628 2.0175 0
M  V30 7165 H 673.252 -2.90582 2.97548 0
M  V30 7166 H 671.829 -3.51399 1.24794 0
M  V30 7167 N 674.014 -1.12206 -1.10668 0
M  V30 7168 C 675.263 -0.870595 -1.81944 0
M  V30 7169 C 675.576 0.605447 -1.85994 0
M  V30 7170 O 676.782 0.973433 -2.53449 0
M  V30 7171 C 675.238 -1.50783 -3.26791 0
M  V30 7172 C 674.846 -3.01849 -3.31046 0
M  V30 7173 C 676.59 -1.33653 -4.02911 0
M  V30 7174 C 674.497 -3.58518 -4.70339 0
M  V30 7175 H 673.427 -0.322043 -0.681765 0
M  V30 7176 H 676.078 -1.34827 -1.24475 0
M  V30 7177 H 674.46 -0.957825 -3.84242 0
M  V30 7178 H 675.634 -3.63321 -2.83433 0
M  V30 7179 H 673.949 -3.18346 -2.68411 0
M  V30 7180 H 676.546 -1.73416 -5.05797 0
M  V30 7181 H 676.889 -0.279949 -4.15358 0
M  V30 7182 H 677.422 -1.85562 -3.51868 0
M  V30 7183 H 674.161 -4.63925 -4.63091 0
M  V30 7184 H 673.681 -3.01819 -5.18329 0
M  V30 7185 H 675.36 -3.57434 -5.39305 0
M  V30 7186 N 675.492 1.28418 -0.913599 0
M  V30 7187 C 676.455 2.25564 -0.406624 0
M  V30 7188 C 677.455 1.5387 0.466965 0
M  V30 7189 O 678.645 1.72094 0.270042 0
M  V30 7190 C 675.777 3.38339 0.417053 0
M  V30 7191 H 676.97 2.71926 -1.26477 0
M  V30 7192 H 674.523 1.40098 -0.692986 0
M  V30 7193 H 675.258 2.97339 1.29461 0
M  V30 7194 H 675.043 3.91542 -0.209102 0
M  V30 7195 H 676.533 4.10578 0.762602 0
M  V30 7196 N 676.97 0.677563 1.42291 0
M  V30 7197 C 677.933 0.0101085 2.29198 0
M  V30 7198 C 678.933 -0.726219 1.43467 0
M  V30 7199 O 680.123 -0.563807 1.64824 0
M  V30 7200 C 677.255 -0.996316 3.26016 0
M  V30 7201 H 678.448 0.775071 2.89711 0
M  V30 7202 H 676.001 0.440065 1.49977 0
M  V30 7203 H 676.736 -1.78967 2.70446 0
M  V30 7204 H 676.521 -0.471687 3.89253 0
M  V30 7205 H 678.011 -1.46167 3.91184 0
M  V30 7206 N 678.448 -1.51871 0.421078 0
M  V30 7207 C 679.696 -2.01539 -0.150492 0
M  V30 7208 C 680.017 -1.30803 -1.44623 0
M  V30 7209 O 679.287 -0.437568 -1.90951 0
M  V30 7210 H 677.867 -0.744698 -0.0586041 0
M  V30 7211 H 680.529 -1.8668 0.560059 0
M  V30 7212 H 679.625 -3.10264 -0.338068 0
M  V30 7213 N 679.926 -0.151884 -1.56866 0
M  V30 7214 C 680.874 0.80299 -2.183 0
M  V30 7215 C 681.868 1.25174 -1.14139 0
M  V30 7216 O 683.074 1.21966 -1.3238 0
M  V30 7217 H 679.449 0.277169 -0.699057 0
M  V30 7218 H 681.42 0.260699 -2.97259 0
M  V30 7219 C 680.169 2.03009 -2.82281 0
M  V30 7220 H 679.492 1.69377 -3.62148 0
M  V30 7221 H 680.932 2.67753 -3.28762 0
M  V30 7222 C 679.391 2.84123 -1.81041 0
M  V30 7223 O 679.921 3.8063 -1.28388 0
M  V30 7224 N 678.127 2.48753 -1.50234 0
M  V30 7225 H 677.674 1.70337 -1.93244 0
M  V30 7226 H 677.632 3.03316 -0.827445 0
M  V30 7227 N 681.404 1.57128 0.121893 0
M  V30 7228 C 682.367 1.99197 1.13372 0
M  V30 7229 C 683.367 0.881728 1.3447 0
M  V30 7230 O 684.557 1.14783 1.31036 0
M  V30 7231 C 681.689 2.32963 2.4888 0
M  V30 7232 H 682.882 2.89788 0.772204 0
M  V30 7233 H 680.435 1.51952 0.366093 0
M  V30 7234 H 681.17 1.45243 2.89957 0
M  V30 7235 H 680.955 3.13934 2.34921 0
M  V30 7236 H 682.445 2.66261 3.21706 0
M  V30 7237 N 682.882 -0.391992 1.52647 0
M  V30 7238 C 683.845 -1.46135 1.7657 0
M  V30 7239 C 684.845 -1.47701 0.635698 0
M  V30 7240 O 686.035 -1.48924 0.903728 0
M  V30 7241 C 683.167 -2.85443 1.86374 0
M  V30 7242 H 684.36 -1.26208 2.72051 0
M  V30 7243 H 681.913 -0.623549 1.43323 0
M  V30 7244 H 682.648 -3.10718 0.928685 0
M  V30 7245 H 682.433 -2.85708 2.68539 0
M  V30 7246 H 683.923 -3.62933 2.06566 0
M  V30 7247 N 684.36 -1.4356 -0.65026 0
M  V30 7248 C 685.585 -1.48995 -1.44275 0
M  V30 7249 C 686.01 -0.109954 -1.87778 0
M  V30 7250 O 685.368 0.896926 -1.57559 0
M  V30 7251 C 685.416 -2.44341 -2.65198 0
M  V30 7252 O 684.52 -1.93172 -3.6436 0
M  V30 7253 H 683.861 -0.503852 -0.432469 0
M  V30 7254 H 686.391 -1.88504 -0.795446 0
M  V30 7255 H 686.401 -2.61743 -3.12977 0
M  V30 7256 H 685.076 -3.44588 -2.32877 0
M  V30 7257 H 683.653 -1.85445 -3.23519 0
M  V30 7258 N 685.838 0.888903 -1.30139 0
M  V30 7259 C 686.788 1.9814 -1.12803 0
M  V30 7260 C 687.772 1.60839 -0.0443137 0
M  V30 7261 O 688.964 1.74971 -0.267208 0
M  V30 7262 C 686.093 3.33416 -0.817849 0
M  V30 7263 C 685.179 3.77043 -1.94163 0
M  V30 7264 N 685.57 3.92805 -3.18651 0
M  V30 7265 C 683.868 4.06407 -1.8371 0
M  V30 7266 C 684.569 4.29746 -3.92038 0
M  V30 7267 N 683.545 4.3939 -3.20059 0
M  V30 7268 H 687.347 2.08411 -2.07225 0
M  V30 7269 H 684.861 1.07845 -1.21421 0
M  V30 7270 H 686.858 4.11405 -0.674668 0
M  V30 7271 H 685.518 3.24484 0.118344 0
M  V30 7272 H 686.529 3.78042 -3.53984 0
M  V30 7273 H 683.206 4.05972 -0.974331 0
M  V30 7274 H 684.596 4.49695 -4.99223 0
M  V30 7275 N 687.317 1.12792 1.10072 0
M  V30 7276 C 688.28 0.802264 2.14701 0
M  V30 7277 C 689.28 -0.18515 1.59731 0
M  V30 7278 O 690.47 0.041109 1.74151 0
M  V30 7279 C 687.602 0.19285 3.40354 0
M  V30 7280 H 688.795 1.72932 2.45019 0
M  V30 7281 H 686.348 0.931662 1.25498 0
M  V30 7282 H 687.083 -0.743748 3.15656 0
M  V30 7283 H 686.868 0.903827 3.81541 0
M  V30 7284 H 688.358 -0.0183704 4.17596 0
M  V30 7285 N 688.795 -1.27931 0.920396 0
M  V30 7286 C 690.044 -1.93975 0.552867 0
M  V30 7287 C 690.357 -1.73193 -0.909035 0
M  V30 7288 O 691.563 -2.33515 -1.38502 0
M  V30 7289 C 690.019 -3.47463 0.937947 0
M  V30 7290 C 689.627 -3.77013 2.42003 0
M  V30 7291 C 691.371 -4.19628 0.64132 0
M  V30 7292 C 689.278 -5.23841 2.74489 0
M  V30 7293 H 688.208 -0.726146 0.203046 0
M  V30 7294 H 690.859 -1.45339 1.12022 0
M  V30 7295 H 689.241 -3.94867 0.299317 0
M  V30 7296 H 690.415 -3.40393 3.10595 0
M  V30 7297 H 688.73 -3.18035 2.6878 0
M  V30 7298 H 691.327 -5.27729 0.860622 0
M  V30 7299 H 691.67 -4.14164 -0.421168 0
M  V30 7300 H 692.203 -3.78022 1.23872 0
M  V30 7301 H 688.942 -5.34388 3.79618 0
M  V30 7302 H 688.462 -5.61634 2.1054 0
M  V30 7303 H 690.141 -5.91647 2.61845 0
M  V30 7304 N 690.273 -0.685099 -1.4193 0
M  V30 7305 C 691.521 -0.21124 -2.00993 0
M  V30 7306 C 691.842 1.18985 -1.54491 0
M  V30 7307 O 691.112 1.8009 -0.771 0
M  V30 7308 H 689.692 -0.0751059 -0.743215 0
M  V30 7309 H 692.354 -0.883915 -1.73704 0
M  V30 7310 H 691.45 -0.220513 -3.1132 0
M  V30 7311 N 691.751 1.51645 -0.429126 0
M  V30 7312 C 692.681 2.30434 0.377148 0
M  V30 7313 C 693.662 1.35493 1.02838 0
M  V30 7314 O 694.847 1.6441 1.03359 0
M  V30 7315 C 691.977 3.14038 1.48315 0
M  V30 7316 C 690.931 4.1719 0.955855 0
M  V30 7317 C 690.257 4.89263 2.15698 0
M  V30 7318 C 691.557 5.223 -0.00402136 0
M  V30 7319 H 693.251 2.98085 -0.280336 0
M  V30 7320 H 690.797 1.43354 -0.136265 0
M  V30 7321 H 692.75 3.67933 2.05435 0
M  V30 7322 H 691.474 2.44193 2.16881 0
M  V30 7323 H 690.133 3.64335 0.406929 0
M  V30 7324 H 689.781 4.15929 2.82864 0
M  V30 7325 H 689.481 5.59009 1.81059 0
M  V30 7326 H 691.005 5.45978 2.73387 0
M  V30 7327 H 692.419 5.71315 0.476607 0
M  V30 7328 H 690.816 5.99525 -0.26258 0
M  V30 7329 H 691.886 4.75638 -0.943236 0
M  V30 7330 N 693.229 0.160201 1.56784 0
M  V30 7331 C 694.477 -0.486625 1.96154 0
M  V30 7332 C 694.798 -1.64525 1.04673 0
M  V30 7333 O 694.068 -1.95586 0.110864 0
M  V30 7334 H 692.648 -0.182764 0.724297 0
M  V30 7335 H 695.31 0.238787 1.93432 0
M  V30 7336 H 694.406 -0.854025 3.00188 0
M  V30 7337 N 694.707 -1.5719 -0.113559 0
M  V30 7338 C 695.639 -1.97393 -1.16484 0
M  V30 7339 C 696.652 -0.873964 -1.37352 0
M  V30 7340 O 697.841 -1.15222 -1.36331 0
M  V30 7341 C 694.941 -2.26174 -2.52386 0
M  V30 7342 C 694.114 -3.57479 -2.52046 0
M  V30 7343 C 693.173 -3.74409 -3.69735 0
M  V30 7344 O 692.199 -4.46463 -3.53071 0
M  V30 7345 N 693.401 -3.13588 -4.88511 0
M  V30 7346 H 696.166 -2.88184 -0.822814 0
M  V30 7347 H 693.727 -1.59044 -0.302769 0
M  V30 7348 H 695.719 -2.3471 -3.29687 0
M  V30 7349 H 694.289 -1.41483 -2.7875 0
M  V30 7350 H 693.509 -3.60081 -1.60421 0
M  V30 7351 H 694.797 -4.43775 -2.48881 0
M  V30 7352 H 694.195 -2.55026 -5.04953 0
M  V30 7353 H 692.752 -3.27637 -5.63469 0
M  V30 7354 N 696.185 0.383891 -1.52853 0
M  V30 7355 C 697.118 1.49105 -1.72751 0
M  V30 7356 C 698.096 1.52077 -0.575438 0
M  V30 7357 O 699.28 1.70406 -0.805854 0
M  V30 7358 C 696.407 2.87551 -1.78975 0
M  V30 7359 C 695.453 3.02383 -3.00777 0
M  V30 7360 S 696.286 2.73048 -4.60657 0
M  V30 7361 C 697.442 4.13678 -4.69704 0
M  V30 7362 H 697.675 1.32002 -2.66388 0
M  V30 7363 H 695.208 0.577088 -1.4321 0
M  V30 7364 H 697.166 3.6733 -1.83246 0
M  V30 7365 H 695.827 3.01977 -0.864215 0
M  V30 7366 H 695.02 4.03733 -3.01688 0
M  V30 7367 H 694.622 2.30504 -2.94523 0
M  V30 7368 H 696.914 5.07676 -4.48633 0
M  V30 7369 H 697.857 4.1778 -5.71721 0
M  V30 7370 H 698.265 3.99825 -3.98497 0
M  V30 7371 N 697.663 1.43903 0.642637 0
M  V30 7372 C 698.611 1.50164 1.77634 0
M  V30 7373 C 699.605 0.374294 1.65213 0
M  V30 7374 O 700.811 0.548748 1.71431 0
M  V30 7375 H 697.186 0.470974 0.586249 0
M  V30 7376 H 699.157 2.45603 1.69474 0
M  V30 7377 C 697.906 1.45196 3.15933 0
M  V30 7378 H 697.229 2.31253 3.26132 0
M  V30 7379 H 698.669 1.53638 3.95185 0
M  V30 7380 C 697.128 0.171043 3.36466 0
M  V30 7381 O 697.658 -0.763413 3.94379 0
M  V30 7382 N 695.864 0.077847 2.90496 0
M  V30 7383 H 695.411 0.8391 2.43551 0
M  V30 7384 H 695.369 -0.778473 3.0461 0
M  V30 7385 N 699.141 -0.881989 1.30609 0
M  V30 7386 C 700.071 -2.00413 1.1982 0
M  V30 7387 C 701.052 -1.69871 0.0881538 0
M  V30 7388 O 702.237 -1.92304 0.2707 0
M  V30 7389 C 699.367 -3.35641 0.89233 0
M  V30 7390 C 698.321 -3.80451 1.96064 0
M  V30 7391 C 697.647 -5.13003 1.5077 0
M  V30 7392 C 698.947 -3.98855 3.37213 0
M  V30 7393 H 700.641 -2.09698 2.13699 0
M  V30 7394 H 698.187 -1.00754 1.02882 0
M  V30 7395 H 700.14 -4.13669 0.803497 0
M  V30 7396 H 698.864 -3.26497 -0.0821381 0
M  V30 7397 H 697.523 -3.04654 2.03916 0
M  V30 7398 H 697.171 -5.0029 0.521417 0
M  V30 7399 H 696.871 -5.43956 2.22229 0
M  V30 7400 H 698.395 -5.93554 1.43271 0
M  V30 7401 H 699.809 -4.67312 3.32103 0
M  V30 7402 H 698.206 -4.41188 4.06784 0
M  V30 7403 H 699.276 -3.02614 3.78883 0
M  V30 7404 N 700.619 -1.13374 -1.09472 0
M  V30 7405 C 701.569 -0.77946 -2.14263 0
M  V30 7406 C 702.553 0.226271 -1.59301 0
M  V30 7407 O 703.745 0.0302581 -1.76974 0
M  V30 7408 C 700.874 -0.246635 -3.42413 0
M  V30 7409 C 699.96 -1.28124 -4.04283 0
M  V30 7410 N 700.351 -2.48201 -4.40715 0
M  V30 7411 C 698.649 -1.12892 -4.31476 0
M  V30 7412 C 699.35 -3.14347 -4.8945 0
M  V30 7413 N 698.326 -2.41771 -4.86876 0
M  V30 7414 H 702.128 -1.69305 -2.40235 0
M  V30 7415 H 699.642 -1.01598 -1.26695 0
M  V30 7416 H 701.639 0.0254131 -4.16892 0
M  V30 7417 H 700.299 0.661287 -3.17895 0
M  V30 7418 H 701.31 -2.85511 -4.32093 0
M  V30 7419 H 697.987 -0.279117 -4.16566 0
M  V30 7420 H 699.377 -4.16663 -5.27107 0
M  V30 7421 N 702.098 1.27442 -0.927168 0
M  V30 7422 C 703.346 1.94007 -0.566203 0
M  V30 7423 C 703.667 1.7323 0.895345 0
M  V30 7424 O 702.937 1.07973 1.63459 0
M  V30 7425 H 701.517 0.717917 -0.206409 0
M  V30 7426 H 704.179 1.55161 -1.17945 0
M  V30 7427 H 703.275 3.02401 -0.772028 0
M  V30 7428 N 703.576 0.692616 1.41565 0
M  V30 7429 C 704.806 0.230943 2.05305 0
M  V30 7430 C 705.214 -1.12379 1.52209 0
M  V30 7431 O 704.557 -1.71281 0.663968 0
M  V30 7432 C 704.619 0.107894 3.59338 0
M  V30 7433 C 704.283 1.39419 4.35214 0
M  V30 7434 C 705.28 2.33143 4.64694 0
M  V30 7435 C 702.965 1.64674 4.74539 0
M  V30 7436 C 704.959 3.50385 5.32456 0
M  V30 7437 C 702.646 2.82202 5.42038 0
M  V30 7438 C 703.644 3.74881 5.70923 0
M  V30 7439 O 703.332 4.90351 6.37033 0
M  V30 7440 H 703.064 0.105708 0.667684 0
M  V30 7441 H 705.618 0.94488 1.82376 0
M  V30 7442 H 703.848 -0.661785 3.80995 0
M  V30 7443 H 705.537 -0.316213 4.04666 0
M  V30 7444 H 706.303 2.14887 4.34797 0
M  V30 7445 H 702.182 0.934007 4.51439 0
M  V30 7446 H 705.726 4.22743 5.54918 0
M  V30 7447 H 701.623 3.00376 5.71353 0
M  V30 7448 H 702.391 4.90128 6.55528 0
M  V30 7449 N 705.054 -1.51416 0.437162 0
M  V30 7450 C 705.984 -2.30631 -0.364922 0
M  V30 7451 C 706.965 -1.36037 -1.02118 0
M  V30 7452 O 708.15 -1.64956 -1.02485 0
M  V30 7453 C 705.28 -3.1482 -1.46648 0
M  V30 7454 C 704.234 -4.17691 -0.933717 0
M  V30 7455 C 703.56 -4.904 -2.13101 0
M  V30 7456 C 704.86 -5.2229 0.0317201 0
M  V30 7457 H 706.554 -2.97932 0.29614 0
M  V30 7458 H 704.1 -1.4328 0.143865 0
M  V30 7459 H 706.053 -3.69017 -2.03481 0
M  V30 7460 H 704.777 -2.4534 -2.15583 0
M  V30 7461 H 703.436 -3.64545 -0.387602 0
M  V30 7462 H 703.084 -4.17423 -2.80654 0
M  V30 7463 H 702.784 -5.59962 -1.78092 0
M  V30 7464 H 704.308 -5.4742 -2.70487 0
M  V30 7465 H 705.722 -5.7156 -0.446302 0
M  V30 7466 H 704.119 -5.99378 0.29437 0
M  V30 7467 H 705.189 -4.75131 0.968447 0
M  V30 7468 N 706.532 -0.168513 -1.56696 0
M  V30 7469 C 707.495 0.748928 -2.16619 0
M  V30 7470 C 708.495 1.16007 -1.11351 0
M  V30 7471 O 709.685 1.07748 -1.3688 0
M  V30 7472 C 706.817 2.01904 -2.74677 0
M  V30 7473 H 708.01 0.227317 -2.99037 0
M  V30 7474 H 705.563 0.0810372 -1.5609 0
M  V30 7475 H 706.298 2.58381 -1.95985 0
M  V30 7476 H 706.083 1.73323 -3.51712 0
M  V30 7477 H 707.573 2.67383 -3.20774 0
M  V30 7478 N 708.01 1.57248 0.105221 0
M  V30 7479 C 709.426 1.52853 0.459153 0
M  V30 7480 C 709.626 0.883674 1.8109 0
M  V30 7481 O 708.682 0.471864 2.48052 0
M  V30 7482 C 709.995 2.97596 0.43096 0
M  V30 7483 C 711.543 3.08758 0.513536 0
M  V30 7484 C 712.018 4.55089 0.515593 0
M  V30 7485 N 713.509 4.59597 0.576639 0
M  V30 7486 C 714.244 5.70253 0.599904 0
M  V30 7487 N 713.74 6.90368 0.579985 0
M  V30 7488 N 715.533 5.58399 0.643953 0
M  V30 7489 H 707.684 1.97547 -0.780306 0
M  V30 7490 H 709.947 0.902758 -0.289363 0
M  V30 7491 H 709.653 3.48201 -0.494903 0
M  V30 7492 H 709.527 3.55756 1.2537 0
M  V30 7493 H 711.914 2.58148 1.42982 0
M  V30 7494 H 711.995 2.53568 -0.337148 0
M  V30 7495 H 711.639 5.06348 -0.396701 0
M  V30 7496 H 711.569 5.08105 1.38335 0
M  V30 7497 H 714.06 3.73144 0.597639 0
M  V30 7498 H 714.373 7.70462 0.600741 0
M  V30 7499 H 712.718 6.92843 0.547191 0
M  V30 7500 H 715.909 4.63467 0.656975 0
M  V30 7501 H 716.082 6.44644 0.658616 0
M  V30 7502 N 709.488 -0.375779 1.53054 0
M  V30 7503 C 710.398 -1.48381 1.81715 0
M  V30 7504 C 711.414 -1.59087 0.704795 0
M  V30 7505 O 712.59 -1.75174 0.993785 0
M  V30 7506 C 709.655 -2.83767 1.99192 0
M  V30 7507 C 708.716 -2.82673 3.23102 0
M  V30 7508 C 707.949 -4.11601 3.39736 0
M  V30 7509 O 708.172 -5.07243 2.60885 0
M  V30 7510 O 707.106 -4.18034 4.33049 0
M  V30 7511 H 710.932 -1.27089 2.7583 0
M  V30 7512 H 708.517 -0.564902 1.38308 0
M  V30 7513 H 710.399 -3.64004 2.12318 0
M  V30 7514 H 709.074 -3.05057 1.08267 0
M  V30 7515 H 707.981 -2.0117 3.15407 0
M  V30 7516 H 709.314 -2.66335 4.13916 0
M  V30 7517 N 710.966 -1.44241 -0.634997 0
M  V30 7518 C 712.214 -1.46531 -1.39187 0
M  V30 7519 C 712.535 -0.0976441 -1.94755 0
M  V30 7520 O 711.805 0.869528 -1.75545 0
M  V30 7521 H 710.385 -0.539544 -0.516625 0
M  V30 7522 H 713.047 -1.79989 -0.747655 0
M  V30 7523 H 712.143 -2.18848 -2.22513 0
M  V30 7524 N 712.444 0.87505 -1.31075 0
M  V30 7525 C 713.693 1.62245 -1.19831 0
M  V30 7526 C 714.006 1.94078 0.24357 0
M  V30 7527 O 715.212 2.67265 0.477646 0
M  V30 7528 C 713.668 2.92464 -2.09744 0
M  V30 7529 C 713.276 2.68134 -3.58898 0
M  V30 7530 C 715.02 3.70449 -2.07287 0
M  V30 7531 C 712.927 3.9423 -4.40836 0
M  V30 7532 H 711.857 0.608741 -0.444916 0
M  V30 7533 H 714.508 0.967947 -1.55894 0
M  V30 7534 H 712.89 3.59262 -1.66574 0
M  V30 7535 H 714.064 2.09776 -4.10281 0
M  V30 7536 H 712.379 2.03511 -3.6328 0
M  V30 7537 H 714.976 4.63983 -2.65752 0
M  V30 7538 H 715.319 4.02611 -1.05876 0
M  V30 7539 H 715.852 3.10528 -2.48631 0
M  V30 7540 H 712.591 3.67221 -5.42982 0
M  V30 7541 H 712.111 4.52058 -3.94213 0
M  V30 7542 H 713.79 4.62162 -4.52786 0
M  V30 7543 N 713.922 1.13953 1.08869 0
M  V30 7544 C 714.885 0.824991 2.13838 0
M  V30 7545 C 715.885 -0.168198 1.59918 0
M  V30 7546 O 717.075 0.0595778 1.74098 0
M  V30 7547 C 714.207 0.228938 3.4013 0
M  V30 7548 H 715.4 1.75521 2.43171 0
M  V30 7549 H 712.953 0.94492 1.24503 0
M  V30 7550 H 713.688 -0.710227 3.16427 0
M  V30 7551 H 713.473 0.944243 3.80561 0
M  V30 7552 H 714.963 0.0259223 4.17592 0
M  V30 7553 N 715.4 -1.26948 0.933913 0
M  V30 7554 C 716.63 -1.97898 0.593279 0
M  V30 7555 C 717.038 -1.69806 -0.834412 0
M  V30 7556 O 716.381 -0.958704 -1.56699 0
M  V30 7557 C 716.443 -3.51657 0.746825 0
M  V30 7558 C 716.107 -4.03384 2.14779 0
M  V30 7559 C 717.104 -4.15682 3.12257 0
M  V30 7560 C 714.789 -4.37577 2.46641 0
M  V30 7561 C 716.783 -4.61455 4.39702 0
M  V30 7562 C 714.47 -4.8304 3.7432 0
M  V30 7563 C 715.468 -4.94939 4.70664 0
M  V30 7564 O 715.156 -5.39403 5.96071 0
M  V30 7565 H 714.888 -0.63814 0.223055 0
M  V30 7566 H 717.442 -1.62608 1.2549 0
M  V30 7567 H 715.672 -3.8669 0.0280889 0
M  V30 7568 H 717.361 -4.03821 0.410328 0
M  V30 7569 H 718.127 -3.89519 2.88964 0
M  V30 7570 H 714.006 -4.27554 1.72391 0
M  V30 7571 H 717.55 -4.70658 5.14905 0
M  V30 7572 H 713.447 -5.08646 3.97429 0
M  V30 7573 H 714.215 -5.57641 5.99148 0
M  V30 7574 N 716.879 -0.700114 -1.41195 0
M  V30 7575 C 718.127 -0.232546 -2.00758 0
M  V30 7576 C 718.448 1.1734 -1.55745 0
M  V30 7577 O 717.718 1.79262 -0.790058 0
M  V30 7578 H 716.298 -0.0829845 -0.742376 0
M  V30 7579 H 718.96 -0.902289 -1.72756 0
M  V30 7580 H 718.056 -0.253521 -3.11069 0
M  V30 7581 N 718.357 1.51182 -0.445186 0
M  V30 7582 C 719.582 2.07056 0.119445 0
M  V30 7583 C 720.007 1.30966 1.35016 0
M  V30 7584 O 719.365 0.349827 1.77893 0
M  V30 7585 C 719.413 3.58234 0.412428 0
M  V30 7586 O 718.517 3.84249 1.49754 0
M  V30 7587 H 717.858 0.663998 -0.00157797 0
M  V30 7588 H 720.388 1.94699 -0.628779 0
M  V30 7589 H 720.398 4.02617 0.660583 0
M  V30 7590 H 719.073 4.13038 -0.487049 0
M  V30 7591 H 717.65 3.51724 1.23873 0
M  V30 7592 N 719.835 0.176821 1.56605 0
M  V30 7593 C 721.246 -0.338963 1.83597 0
M  V30 7594 C 721.597 -1.62677 1.09684 0
M  V30 7595 O 720.722 -2.13524 0.351661 0
M  V30 7596 C 721.317 -0.62177 3.33046 0
M  V30 7597 C 719.876 -1.08198 3.60514 0
M  V30 7598 C 719.023 -0.120774 2.77037 0
M  V30 7599 H 721.974 0.400978 1.53551 0
M  V30 7600 H 721.995 -1.47321 3.50823 0
M  V30 7601 H 721.507 0.315692 3.86814 0
M  V30 7602 H 719.608 -2.03435 3.12162 0
M  V30 7603 H 719.721 -0.987329 4.68816 0
M  V30 7604 H 718.085 -0.619192 2.47059 0
M  V30 7605 H 718.868 0.810806 3.33588 0
M  V30 7606 N 721.313 -1.57302 -0.09688 0
M  V30 7607 C 722.223 -2.05258 -1.13606 0
M  V30 7608 C 723.239 -0.977137 -1.43972 0
M  V30 7609 O 724.415 -1.29018 -1.54649 0
M  V30 7610 C 721.48 -2.46593 -2.43706 0
M  V30 7611 C 720.541 -3.68322 -2.20538 0
M  V30 7612 C 719.774 -4.07676 -3.44435 0
M  V30 7613 O 719.997 -3.47141 -4.52603 0
M  V30 7614 O 718.931 -5.00641 -3.34129 0
M  V30 7615 H 722.757 -2.94069 -0.758752 0
M  V30 7616 H 720.342 -1.46164 -0.309263 0
M  V30 7617 H 722.224 -2.73814 -3.20318 0
M  V30 7618 H 720.899 -1.6092 -2.80867 0
M  V30 7619 H 719.806 -3.4622 -1.41713 0
M  V30 7620 H 721.139 -4.54769 -1.88271 0
M  V30 7621 N 722.791 0.367657 -1.53252 0
M  V30 7622 C 723.754 1.43308 -1.78873 0
M  V30 7623 C 724.754 1.46671 -0.659115 0
M  V30 7624 O 725.944 1.47468 -0.927306 0
M  V30 7625 C 723.076 2.82442 -1.90892 0
M  V30 7626 H 724.269 1.21864 -2.74024 0
M  V30 7627 H 721.822 0.600668 -1.44297 0
M  V30 7628 H 722.557 3.09202 -0.978 0
M  V30 7629 H 722.342 2.81399 -2.73051 0
M  V30 7630 H 723.832 3.59601 -2.12314 0
M  V30 7631 N 724.269 1.44576 0.627338 0
M  V30 7632 C 725.199 1.54562 1.75022 0
M  V30 7633 C 726.18 0.398378 1.65369 0
M  V30 7634 O 727.365 0.61899 1.84071 0
M  V30 7635 C 724.495 1.49309 3.13567 0
M  V30 7636 C 723.449 2.62549 3.38012 0
M  V30 7637 C 722.775 2.42348 4.76625 0
M  V30 7638 C 724.075 4.04678 3.30202 0
M  V30 7639 H 725.769 2.4855 1.66922 0
M  V30 7640 H 723.315 1.19624 0.801636 0
M  V30 7641 H 725.268 1.54895 3.919 0
M  V30 7642 H 723.992 0.518392 3.2246 0
M  V30 7643 H 722.651 2.56358 2.62061 0
M  V30 7644 H 722.299 1.43062 4.82226 0
M  V30 7645 H 721.999 3.18273 4.93939 0
M  V30 7646 H 723.523 2.49758 5.57183 0
M  V30 7647 H 724.937 4.12217 3.98435 0
M  V30 7648 H 723.334 4.80836 3.5905 0
M  V30 7649 H 724.404 4.2798 2.27949 0
M  V30 7650 N 725.747 -0.868086 1.31537 0
M  V30 7651 C 727.024 -1.60384 1.11965 0
M  V30 7652 C 727.404 -2.08584 -0.324949 0
M  V30 7653 O 726.752 -1.86561 -1.31937 0
M  V30 7654 C 726.962 -2.76038 2.13551 0
M  V30 7655 C 728.31 -3.45954 2.46173 0
M  V30 7656 O 729.334 -2.86247 2.11993 0
M  V30 7657 O 728.193 -4.53666 3.04711 0
M  V30 7658 H 725.287 -0.705705 0.431172 0
M  V30 7659 H 727.833 -0.913385 1.43022 0
M  V30 7660 H 726.605 -2.37849 3.10714 0
M  V30 7661 H 726.228 -3.52769 1.83411 0
M  V30 7662 N 727.225 -1.14528 -1.08264 0
M  V30 7663 C 728.472 -0.914405 -1.80679 0
M  V30 7664 C 728.8 0.558952 -1.86295 0
M  V30 7665 O 728.055 1.43017 -1.33584 0
M  V30 7666 C 728.354 -1.46226 -3.26117 0
M  V30 7667 C 728.02 -2.95451 -3.40616 0
M  V30 7668 C 726.682 -3.36191 -3.4428 0
M  V30 7669 C 729.034 -3.91399 -3.44175 0
M  V30 7670 C 726.362 -4.71539 -3.49096 0
M  V30 7671 C 728.714 -5.26606 -3.50526 0
M  V30 7672 C 727.378 -5.66856 -3.52464 0
M  V30 7673 H 726.648 -0.334604 -0.661151 0
M  V30 7674 H 729.295 -1.4292 -1.27461 0
M  V30 7675 H 727.6 -0.868442 -3.82054 0
M  V30 7676 H 729.297 -1.25955 -3.80705 0
M  V30 7677 H 725.887 -2.62955 -3.38456 0
M  V30 7678 H 730.071 -3.61004 -3.40573 0
M  V30 7679 H 725.327 -5.02082 -3.4889 0
M  V30 7680 H 729.501 -6.00758 -3.52225 0
M  V30 7681 H 727.128 -6.71718 -3.55948 0
M  V30 7682 N 728.703 1.26451 -0.940633 0
M  V30 7683 C 729.931 1.97868 -0.604642 0
M  V30 7684 C 730.346 1.70051 0.820251 0
M  V30 7685 O 729.703 0.96843 1.54686 0
M  V30 7686 C 729.754 3.51684 -0.836689 0
M  V30 7687 O 729.475 3.78533 -2.20554 0
M  V30 7688 C 730.976 4.40343 -0.511169 0
M  V30 7689 H 728.196 0.631105 -0.227919 0
M  V30 7690 H 730.74 1.60979 -1.26119 0
M  V30 7691 H 728.895 3.86736 -0.226759 0
M  V30 7692 H 729.309 4.73065 -2.26517 0
M  V30 7693 H 730.783 5.47229 -0.724157 0
M  V30 7694 H 731.26 4.35694 0.553815 0
M  V30 7695 H 731.866 4.10834 -1.0998 0
M  V30 7696 N 730.181 0.707592 1.40822 0
M  V30 7697 C 731.129 0.0386643 2.32568 0
M  V30 7698 C 732.123 -0.755653 1.51612 0
M  V30 7699 O 733.329 -0.659921 1.67467 0
M  V30 7700 H 729.704 -0.00629912 0.751974 0
M  V30 7701 H 731.675 0.8293 2.86645 0
M  V30 7702 C 730.424 -0.87496 3.36511 0
M  V30 7703 H 729.747 -0.273157 3.98866 0
M  V30 7704 H 731.187 -1.31111 4.03219 0
M  V30 7705 C 729.646 -1.99672 2.71353 0
M  V30 7706 O 730.176 -3.08676 2.57064 0
M  V30 7707 N 728.382 -1.77799 2.29861 0
M  V30 7708 H 727.929 -0.89147 2.41683 0
M  V30 7709 H 727.887 -2.53036 1.86601 0
M  V30 7710 N 731.66 -1.50943 0.453197 0
M  V30 7711 C 732.59 -2.31005 -0.34044 0
M  V30 7712 C 733.571 -1.37112 -1.00669 0
M  V30 7713 O 734.756 -1.66033 -1.0073 0
M  V30 7714 C 731.886 -3.16358 -1.433 0
M  V30 7715 C 730.84 -4.18658 -0.889363 0
M  V30 7716 C 730.166 -4.92633 -2.07887 0
M  V30 7717 C 731.466 -5.22227 0.0871142 0
M  V30 7718 H 733.16 -2.97601 0.327723 0
M  V30 7719 H 730.706 -1.43119 0.159054 0
M  V30 7720 H 732.659 -3.71155 -1.99555 0
M  V30 7721 H 731.383 -2.47613 -2.12968 0
M  V30 7722 H 730.042 -3.64936 -0.348915 0
M  V30 7723 H 729.69 -4.20376 -2.76211 0
M  V30 7724 H 729.39 -5.61819 -1.72143 0
M  V30 7725 H 730.914 -5.50258 -2.64666 0
M  V30 7726 H 732.328 -5.72001 -0.385656 0
M  V30 7727 H 730.725 -5.99032 0.357926 0
M  V30 7728 H 731.795 -4.74077 1.01879 0
M  V30 7729 N 733.138 -0.185124 -1.56509 0
M  V30 7730 C 734.368 0.461469 -2.0138 0
M  V30 7731 C 734.776 1.56417 -1.06445 0
M  V30 7732 O 734.119 1.83603 -0.0597515 0
M  V30 7733 C 734.181 1.08731 -3.42663 0
M  V30 7734 C 733.845 0.124581 -4.5683 0
M  V30 7735 C 734.842 -0.662295 -5.15664 0
M  V30 7736 C 732.527 0.0163947 -5.02297 0
M  V30 7737 C 734.521 -1.54442 -6.18406 0
M  V30 7738 C 732.208 -0.869301 -6.04885 0
M  V30 7739 C 733.206 -1.64828 -6.62813 0
M  V30 7740 O 732.894 -2.51915 -7.63409 0
M  V30 7741 H 732.626 0.1212 -0.665046 0
M  V30 7742 H 735.18 -0.288119 -2.03369 0
M  V30 7743 H 733.41 1.8853 -3.37629 0
M  V30 7744 H 735.099 1.63753 -3.71403 0
M  V30 7745 H 735.865 -0.588963 -4.81411 0
M  V30 7746 H 731.744 0.61253 -4.56913 0
M  V30 7747 H 735.288 -2.15289 -6.63548 0
M  V30 7748 H 731.185 -0.943786 -6.38563 0
M  V30 7749 H 731.953 -2.45584 -7.80789 0
M  V30 7750 N 734.616 1.57351 0.0885366 0
M  V30 7751 C 735.863 1.86419 0.790824 0
M  V30 7752 C 736.191 0.774561 1.78412 0
M  V30 7753 O 735.446 -0.23119 1.9433 0
M  V30 7754 C 735.745 3.22098 1.5488 0
M  V30 7755 C 735.411 4.4548 0.697025 0
M  V30 7756 C 734.073 4.78975 0.462237 0
M  V30 7757 C 736.425 5.21094 0.105315 0
M  V30 7758 C 733.753 5.85507 -0.374016 0
M  V30 7759 C 736.105 6.28509 -0.718298 0
M  V30 7760 C 734.769 6.60515 -0.963116 0
M  V30 7761 H 734.039 0.682157 0.289383 0
M  V30 7762 H 736.686 1.91429 0.0520961 0
M  V30 7763 H 734.991 3.12803 2.35927 0
M  V30 7764 H 736.688 3.41819 2.09669 0
M  V30 7765 H 733.278 4.19255 0.890137 0
M  V30 7766 H 737.462 4.95544 0.273856 0
M  V30 7767 H 732.718 6.08713 -0.572606 0
M  V30 7768 H 736.892 6.86268 -1.18362 0
M  V30 7769 H 734.519 7.42893 -1.6129 0
M  V30 7770 N 736.094 -0.359525 1.53444 0
M  V30 7771 C 737.324 -1.12036 1.73585 0
M  V30 7772 C 737.732 -1.83335 0.467438 0
M  V30 7773 O 737.075 -1.74641 -0.569753 0
M  V30 7774 C 737.137 -2.19036 2.85068 0
M  V30 7775 C 736.801 -1.67451 4.25217 0
M  V30 7776 C 737.798 -1.13534 5.07352 0
M  V30 7777 C 735.483 -1.72781 4.71648 0
M  V30 7778 C 737.477 -0.656321 6.34012 0
M  V30 7779 C 735.164 -1.2449 5.98285 0
M  V30 7780 C 736.162 -0.710068 6.79299 0
M  V30 7781 O 735.85 -0.234314 8.03558 0
M  V30 7782 H 735.582 -0.340662 0.583888 0
M  V30 7783 H 738.136 -0.422452 2.01009 0
M  V30 7784 H 736.366 -2.92338 2.53131 0
M  V30 7785 H 738.055 -2.80559 2.93328 0
M  V30 7786 H 738.821 -1.08751 4.7265 0
M  V30 7787 H 734.7 -2.13351 4.08659 0
M  V30 7788 H 738.244 -0.238193 6.97193 0
M  V30 7789 H 734.141 -1.28969 6.32485 0
M  V30 7790 H 734.909 -0.353084 8.17738 0
M  V30 7791 N 737.572 -1.44907 -0.619662 0
M  V30 7792 C 738.8 -1.51795 -1.40591 0
M  V30 7793 C 739.215 -0.146553 -1.8823 0
M  V30 7794 O 738.572 0.849698 -1.61513 0
M  V30 7795 C 738.623 -2.49229 -2.61853 0
M  V30 7796 O 738.344 -3.81039 -2.16197 0
M  V30 7797 C 739.845 -2.65696 -3.54853 0
M  V30 7798 H 737.065 -0.514463 -0.430777 0
M  V30 7799 H 739.609 -1.8998 -0.756813 0
M  V30 7800 H 737.764 -2.14149 -3.2283 0
M  V30 7801 H 738.178 -4.33747 -2.94896 0
M  V30 7802 H 739.652 -3.37874 -4.36515 0
M  V30 7803 H 740.129 -1.71316 -4.0441 0
M  V30 7804 H 740.735 -3.01724 -2.99737 0
M  V30 7805 N 739.05 0.861098 -1.31996 0
M  V30 7806 C 740.299 1.60965 -1.21545 0
M  V30 7807 C 740.612 1.94325 0.222972 0
M  V30 7808 O 741.818 2.67757 0.449272 0
M  V30 7809 C 740.274 2.90223 -2.12834 0
M  V30 7810 C 739.882 2.64313 -3.61722 0
M  V30 7811 C 741.626 3.68229 -2.11205 0
M  V30 7812 C 739.533 3.89532 -4.44993 0
M  V30 7813 H 738.463 0.603988 -0.451348 0
M  V30 7814 H 741.114 0.951358 -1.56912 0
M  V30 7815 H 739.496 3.57475 -1.70375 0
M  V30 7816 H 740.67 2.05413 -4.12483 0
M  V30 7817 H 738.985 1.99647 -3.65418 0
M  V30 7818 H 741.582 4.61138 -2.70658 0
M  V30 7819 H 741.925 4.01466 -1.1014 0
M  V30 7820 H 742.458 3.07873 -2.51911 0
M  V30 7821 H 739.197 3.61441 -5.46846 0
M  V30 7822 H 738.717 4.47851 -3.98985 0
M  V30 7823 H 740.396 4.57334 -4.57663 0
M  V30 7824 N 740.528 1.15101 1.07655 0
M  V30 7825 C 741.756 0.947731 1.83918 0
M  V30 7826 C 742.171 -0.503927 1.81951 0
M  V30 7827 O 741.528 -1.34941 1.2287 0
M  V30 7828 C 741.579 1.4503 3.31132 0
M  V30 7829 O 741.3 2.84508 3.33146 0
M  V30 7830 C 742.801 1.28806 4.24174 0
M  V30 7831 H 740.021 0.336786 0.580358 0
M  V30 7832 H 742.565 1.52799 1.35914 0
M  V30 7833 H 740.72 0.912632 3.76497 0
M  V30 7834 H 741.134 3.0723 4.251 0
M  V30 7835 H 742.608 1.6882 5.25551 0
M  V30 7836 H 743.085 0.231851 4.38588 0
M  V30 7837 H 743.691 1.81465 3.84643 0
M  V30 7838 N 742.006 -1.2595 0.947325 0
M  V30 7839 C 743.252 -1.94081 0.608604 0
M  V30 7840 C 743.607 -1.72899 -0.844021 0
M  V30 7841 O 742.9 -1.05908 -1.59669 0
M  V30 7842 C 743.094 -3.46034 0.894158 0
M  V30 7843 C 742.923 -3.81994 2.37299 0
M  V30 7844 C 741.693 -4.04431 3.02925 0
M  V30 7845 C 743.891 -3.90069 3.35188 0
M  V30 7846 N 741.873 -4.27325 4.40757 0
M  V30 7847 C 743.244 -4.17567 4.58299 0
M  V30 7848 C 745.299 -3.72721 3.30127 0
M  V30 7849 C 744.002 -4.2952 5.76979 0
M  V30 7850 C 746.028 -3.8591 4.48138 0
M  V30 7851 C 745.39 -4.13812 5.70034 0
M  V30 7852 H 741.489 -0.73273 0.273187 0
M  V30 7853 H 744.073 -1.51898 1.218 0
M  V30 7854 H 742.244 -3.87131 0.313758 0
M  V30 7855 H 743.976 -4.01396 0.516082 0
M  V30 7856 H 740.731 -4.0003 2.53521 0
M  V30 7857 H 741.155 -4.42792 5.12118 0
M  V30 7858 H 745.797 -3.50172 2.36938 0
M  V30 7859 H 743.515 -4.50888 6.70616 0
M  V30 7860 H 747.101 -3.73882 4.45762 0
M  V30 7861 H 745.981 -4.23791 6.59827 0
M  V30 7862 N 743.484 -0.715051 -1.40445 0
M  V30 7863 C 744.434 -0.038591 -2.27967 0
M  V30 7864 C 745.418 0.733099 -1.43229 0
M  V30 7865 O 746.61 0.605388 -1.66325 0
M  V30 7866 C 743.739 0.882801 -3.31755 0
M  V30 7867 C 742.825 0.106325 -4.23967 0
M  V30 7868 N 743.216 -0.910143 -4.97544 0
M  V30 7869 C 741.514 0.33896 -4.4471 0
M  V30 7870 C 742.215 -1.37665 -5.65175 0
M  V30 7871 N 741.191 -0.698905 -5.39088 0
M  V30 7872 H 744.993 -0.81765 -2.82297 0
M  V30 7873 H 742.507 -0.547591 -1.5289 0
M  V30 7874 H 744.504 1.38273 -3.93302 0
M  V30 7875 H 743.164 1.66124 -2.78985 0
M  V30 7876 H 744.175 -1.29097 -5.01552 0
M  V30 7877 H 740.852 1.09377 -4.02918 0
M  V30 7878 H 742.242 -2.22122 -6.34123 0
M  V30 7879 N 744.962 1.50701 -0.461195 0
M  V30 7880 C 745.925 2.2686 0.326679 0
M  V30 7881 C 746.925 1.31243 0.929085 0
M  V30 7882 O 748.115 1.54754 0.799807 0
M  V30 7883 C 745.247 3.07844 1.46441 0
M  V30 7884 H 746.44 2.97954 -0.341095 0
M  V30 7885 H 743.993 1.54814 -0.214984 0
M  V30 7886 H 744.728 2.41223 2.16753 0
M  V30 7887 H 744.513 3.78101 1.03836 0
M  V30 7888 H 746.003 3.65469 2.02044 0
M  V30 7889 N 746.441 0.193421 1.56409 0
M  V30 7890 C 747.687 -0.446449 1.97825 0
M  V30 7891 C 748.02 -1.61386 1.08019 0
M  V30 7892 O 747.295 -1.94053 0.131839 0
M  V30 7893 C 747.578 -0.908199 3.48459 0
M  V30 7894 C 747.431 0.260914 4.49043 0
M  V30 7895 C 748.75 -1.77428 4.0275 0
M  V30 7896 H 745.869 -0.160807 0.719243 0
M  V30 7897 H 748.511 0.284006 1.87865 0
M  V30 7898 H 746.661 -1.53062 3.57077 0
M  V30 7899 H 748.333 0.898548 4.52464 0
M  V30 7900 H 746.576 0.912949 4.24085 0
M  V30 7901 H 747.247 -0.104657 5.51901 0
M  V30 7902 H 749.723 -1.24936 3.96901 0
M  V30 7903 H 748.599 -2.06633 5.08521 0
M  V30 7904 H 748.86 -2.72788 3.47907 0
M  V30 7905 N 747.919 -1.57396 -0.0801906 0
M  V30 7906 C 748.869 -1.9955 -1.10289 0
M  V30 7907 C 749.853 -0.876234 -1.34948 0
M  V30 7908 O 751.045 -1.14012 -1.35389 0
M  V30 7909 C 748.174 -2.43596 -2.419 0
M  V30 7910 C 747.26 -3.6224 -2.20551 0
M  V30 7911 N 747.651 -4.76693 -1.69109 0
M  V30 7912 C 745.949 -3.68627 -2.51059 0
M  V30 7913 C 746.65 -5.58577 -1.62379 0
M  V30 7914 N 745.626 -5.02178 -2.0813 0
M  V30 7915 H 749.428 -2.85483 -0.698335 0
M  V30 7916 H 746.942 -1.59837 -0.287395 0
M  V30 7917 H 748.939 -2.72031 -3.15919 0
M  V30 7918 H 747.599 -1.59047 -2.8308 0
M  V30 7919 H 748.61 -4.9915 -1.38092 0
M  V30 7920 H 745.287 -2.94772 -2.95661 0
M  V30 7921 H 746.677 -6.60447 -1.2353 0
M  V30 7922 N 749.397 0.351382 -1.53633 0
M  V30 7923 C 750.625 1.11275 -1.74429 0
M  V30 7924 C 751.04 1.82602 -0.479798 0
M  V30 7925 O 750.397 1.74074 0.548125 0
M  V30 7926 C 750.448 2.13223 -2.91921 0
M  V30 7927 O 750.169 1.44798 -4.13479 0
M  V30 7928 C 751.67 3.01797 -3.24706 0
M  V30 7929 H 748.89 0.332153 -0.583023 0
M  V30 7930 H 751.434 0.405974 -2.0043 0
M  V30 7931 H 749.589 2.79477 -2.68274 0
M  V30 7932 H 750.003 2.12839 -4.79374 0
M  V30 7933 H 751.477 3.69282 -4.10286 0
M  V30 7934 H 751.954 3.67387 -2.40673 0
M  V30 7935 H 752.56 2.41141 -3.5033 0
M  V30 7936 N 750.875 1.45233 0.611969 0
M  V30 7937 C 752.1 1.52767 1.40274 0
M  V30 7938 C 752.525 0.159701 1.87421 0
M  V30 7939 O 751.883 -0.854837 1.59882 0
M  V30 7940 C 751.931 2.51286 2.58626 0
M  V30 7941 O 751.035 2.02764 3.59111 0
M  V30 7942 H 750.376 0.515141 0.418958 0
M  V30 7943 H 752.906 1.90547 0.745188 0
M  V30 7944 H 752.916 2.69949 3.05927 0
M  V30 7945 H 751.591 3.50641 2.23659 0
M  V30 7946 H 750.168 1.93957 3.18489 0
M  V30 7947 N 752.353 -0.854086 1.3245 0
M  V30 7948 C 753.286 -1.96654 1.15768 0
M  V30 7949 C 754.264 -1.625 0.0569975 0
M  V30 7950 O 755.448 -1.87254 0.216412 0
M  V30 7951 C 752.575 -3.29776 0.772361 0
M  V30 7952 C 751.621 -3.82909 1.87837 0
M  V30 7953 S 752.454 -4.0643 3.48675 0
M  V30 7954 C 753.61 -5.42526 3.12116 0
M  V30 7955 H 753.843 -2.10504 2.09942 0
M  V30 7956 H 751.376 -1.00612 1.17118 0
M  V30 7957 H 753.334 -4.06706 0.556809 0
M  V30 7958 H 751.995 -3.13739 -0.150519 0
M  V30 7959 H 751.188 -4.79192 1.56177 0
M  V30 7960 H 750.79 -3.12825 2.0498 0
M  V30 7961 H 753.082 -6.24792 2.61996 0
M  V30 7962 H 754.025 -5.79148 4.07422 0
M  V30 7963 H 754.433 -5.06556 2.49121 0
M  V30 7964 N 753.831 -1.1567 -1.07043 0
M  V30 7965 C 755.247 -0.900006 -1.31803 0
M  V30 7966 C 755.447 0.451293 -1.96381 0
M  V30 7967 O 754.503 1.19252 -2.22565 0
M  V30 7968 C 755.816 -2.04334 -2.20609 0
M  V30 7969 C 757.364 -2.07823 -2.34048 0
M  V30 7970 C 757.839 -3.21488 -3.26204 0
M  V30 7971 N 759.33 -3.21156 -3.33786 0
M  V30 7972 C 760.065 -4.05746 -4.05163 0
M  V30 7973 N 759.561 -5.00407 -4.79129 0
M  V30 7974 N 761.354 -3.93759 -4.01136 0
M  V30 7975 H 753.505 -2.02681 -0.635146 0
M  V30 7976 H 755.768 -0.883956 -0.342528 0
M  V30 7977 H 755.474 -3.01895 -1.80423 0
M  V30 7978 H 755.348 -1.97838 -3.21154 0
M  V30 7979 H 757.735 -1.1086 -2.73485 0
M  V30 7980 H 757.816 -2.18386 -1.33197 0
M  V30 7981 H 757.46 -4.18706 -2.87485 0
M  V30 7982 H 757.39 -3.08162 -4.27017 0
M  V30 7983 H 759.881 -2.52606 -2.81067 0
M  V30 7984 H 760.194 -5.61387 -5.31097 0
M  V30 7985 H 758.539 -5.04393 -4.78135 0
M  V30 7986 H 761.73 -3.19115 -3.42466 0
M  V30 7987 H 761.903 -4.59906 -4.56498 0
M  V30 7988 N 755.309 1.25446 -0.953992 0
M  V30 7989 C 756.239 2.28264 -0.491717 0
M  V30 7990 C 757.22 1.63717 0.461617 0
M  V30 7991 O 758.405 1.90821 0.36071 0
M  V30 7992 C 755.535 3.46525 0.231915 0
M  V30 7993 C 754.489 4.23247 -0.636098 0
M  V30 7994 C 753.815 5.34254 0.218238 0
M  V30 7995 C 755.115 4.85971 -1.91389 0
M  V30 7996 H 756.809 2.67183 -1.35106 0
M  V30 7997 H 754.355 1.2844 -0.651095 0
M  V30 7998 H 756.308 4.17576 0.566439 0
M  V30 7999 H 755.032 3.06594 1.12551 0
M  V30 8000 H 753.691 3.53978 -0.953696 0
M  V30 8001 H 753.339 4.90564 1.11156 0
M  V30 8002 H 753.039 5.86501 -0.359232 0
M  V30 8003 H 754.563 6.08138 0.547743 0
M  V30 8004 H 755.977 5.49168 -1.64581 0
M  V30 8005 H 754.374 5.48391 -2.43696 0
M  V30 8006 H 755.444 4.08192 -2.61738 0
M  V30 8007 N 756.787 0.722489 1.40064 0
M  V30 8008 C 757.75 0.0830209 2.2905 0
M  V30 8009 C 758.75 -0.680208 1.45705 0
M  V30 8010 O 759.94 -0.511084 1.66534 0
M  V30 8011 C 757.072 -0.892092 3.29021 0
M  V30 8012 H 758.265 0.866848 2.87099 0
M  V30 8013 H 755.818 0.487556 1.48501 0
M  V30 8014 H 756.553 -1.70273 2.76003 0
M  V30 8015 H 756.338 -0.34761 3.90556 0
M  V30 8016 H 757.828 -1.33648 3.95636 0
M  V30 8017 N 758.265 -1.50454 0.469181 0
M  V30 8018 C 759.681 -1.59124 0.123226 0
M  V30 8019 C 759.881 -1.47749 -1.37013 0
M  V30 8020 O 758.937 -1.335 -2.14322 0
M  V30 8021 C 760.25 -2.93101 0.67172 0
M  V30 8022 C 761.798 -3.06491 0.634978 0
M  V30 8023 C 762.273 -4.43041 1.16098 0
M  V30 8024 N 763.764 -4.49448 1.12031 0
M  V30 8025 C 764.499 -5.53491 1.49784 0
M  V30 8026 N 763.995 -6.64798 1.94976 0
M  V30 8027 N 765.788 -5.44025 1.41399 0
M  V30 8028 H 757.939 -1.56091 1.44046 0
M  V30 8029 H 760.202 -0.737564 0.59557 0
M  V30 8030 H 759.908 -3.06895 1.7178 0
M  V30 8031 H 759.782 -3.77027 0.114222 0
M  V30 8032 H 762.169 -2.92346 -0.402187 0
M  V30 8033 H 762.25 -2.24328 1.22926 0
M  V30 8034 H 761.894 -4.57935 2.19677 0
M  V30 8035 H 761.824 -5.23794 0.542939 0
M  V30 8036 H 764.315 -3.69575 0.788828 0
M  V30 8037 H 764.628 -7.40246 2.21936 0
M  V30 8038 H 762.973 -6.65923 1.98927 0
M  V30 8039 H 766.164 -4.55955 1.05935 0
M  V30 8040 H 766.337 -6.2499 1.71147 0
M  V30 8041 N 759.743 -0.201713 -1.56304 0
M  V30 8042 C 760.653 0.728296 -2.23009 0
M  V30 8043 C 761.669 1.22945 -1.23128 0
M  V30 8044 O 762.845 1.27523 -1.55884 0
M  V30 8045 C 759.91 1.92792 -2.88153 0
M  V30 8046 C 758.971 1.47068 -4.03323 0
M  V30 8047 C 758.204 2.61312 -4.65351 0
M  V30 8048 O 758.427 3.7896 -4.26317 0
M  V30 8049 O 757.361 2.33646 -5.54701 0
M  V30 8050 H 761.187 0.190166 -3.03104 0
M  V30 8051 H 758.772 0.0278725 -1.49374 0
M  V30 8052 H 760.654 2.6289 -3.29343 0
M  V30 8053 H 759.329 2.45452 -2.11033 0
M  V30 8054 H 758.236 0.738299 -3.66742 0
M  V30 8055 H 759.569 0.990666 -4.82127 0
M  V30 8056 N 761.222 1.57436 0.0718424 0
M  V30 8057 C 762.638 1.53792 0.426628 0
M  V30 8058 C 762.838 0.921887 1.79174 0
M  V30 8059 O 761.894 0.524374 2.46995 0
M  V30 8060 C 763.207 2.98443 0.367739 0
M  V30 8061 C 764.755 3.09778 0.447928 0
M  V30 8062 C 765.23 4.5608 0.418946 0
M  V30 8063 N 766.721 4.60716 0.479022 0
M  V30 8064 C 767.456 5.71397 0.47881 0
M  V30 8065 N 766.952 6.91443 0.433417 0
M  V30 8066 N 768.745 5.59639 0.525364 0
M  V30 8067 H 760.896 1.95848 -0.822033 0
M  V30 8068 H 763.159 0.896418 -0.308447 0
M  V30 8069 H 762.865 3.47072 -0.56865 0
M  V30 8070 H 762.739 3.58335 1.17795 0
M  V30 8071 H 765.126 2.61122 1.37474 0
M  V30 8072 H 765.207 2.52796 -0.390857 0
M  V30 8073 H 764.851 5.05393 -0.504016 0
M  V30 8074 H 764.781 5.10925 1.27526 0
M  V30 8075 H 767.272 3.74328 0.518355 0
M  V30 8076 H 767.585 7.71562 0.43718 0
M  V30 8077 H 765.93 6.93847 0.400106 0
M  V30 8078 H 769.121 4.64756 0.558519 0
M  V30 8079 H 769.294 6.45896 0.52173 0
M  V30 8080 N 762.7 -0.34323 1.53817 0
M  V30 8081 C 763.948 -1.0813 1.70741 0
M  V30 8082 C 764.269 -1.89165 0.473461 0
M  V30 8083 O 763.539 -1.89075 -0.512605 0
M  V30 8084 H 762.119 -0.40219 0.629486 0
M  V30 8085 H 764.781 -0.384426 1.91071 0
M  V30 8086 H 763.877 -1.7585 2.57843 0
M  V30 8087 N 764.178 -1.45556 -0.604258 0
M  V30 8088 C 765.125 -1.54482 -1.71476 0
M  V30 8089 C 766.095 -0.390479 -1.61445 0
M  V30 8090 O 767.28 -0.604371 -1.80975 0
M  V30 8091 C 764.42 -1.52064 -3.09791 0
M  V30 8092 C 763.533 -2.78073 -3.30604 0
M  V30 8093 C 762.668 -2.67304 -4.59044 0
M  V30 8094 C 761.707 -3.88352 -4.73127 0
M  V30 8095 N 760.844 -3.76098 -5.9287 0
M  V30 8096 H 765.684 -2.49349 -1.63184 0
M  V30 8097 H 763.221 -1.23725 -0.795641 0
M  V30 8098 H 765.179 -1.48649 -3.89819 0
M  V30 8099 H 763.809 -0.607442 -3.17033 0
M  V30 8100 H 762.861 -2.91561 -2.44329 0
M  V30 8101 H 764.173 -3.67847 -3.36883 0
M  V30 8102 H 763.327 -2.61875 -5.47272 0
M  V30 8103 H 762.066 -1.75135 -4.55169 0
M  V30 8104 H 761.071 -3.94137 -3.83322 0
M  V30 8105 H 762.296 -4.81591 -4.78797 0
M  V30 8106 H 760.242 -2.867 -5.90033 0
M  V30 8107 H 760.159 -4.59509 -6.00323 0
M  V30 8108 H 761.427 -3.74607 -6.83586 0
M  V30 8109 N 765.656 0.84705 -1.32902 0
M  V30 8110 C 766.884 1.63403 -1.26913 0
M  V30 8111 C 767.299 1.88108 0.161483 0
M  V30 8112 O 766.656 1.45546 1.10103 0
M  V30 8113 C 766.707 2.98896 -2.03331 0
M  V30 8114 O 766.428 2.75281 -3.40811 0
M  V30 8115 C 767.929 3.93335 -2.04457 0
M  V30 8116 H 765.149 0.508701 -0.437566 0
M  V30 8117 H 767.693 1.05567 -1.75145 0
M  V30 8118 H 765.848 3.53356 -1.58802 0
M  V30 8119 H 766.262 3.61504 -3.8002 0
M  V30 8120 H 767.736 4.85647 -2.62394 0
M  V30 8121 H 768.213 4.26885 -1.03274 0
M  V30 8122 H 768.819 3.44812 -2.48967 0
M  V30 8123 N 767.134 1.16236 1.06428 0
M  V30 8124 C 768.381 0.943034 1.79201 0
M  V30 8125 C 768.709 -0.529243 1.87161 0
M  V30 8126 O 767.964 -1.40874 1.35842 0
M  V30 8127 C 768.263 1.51396 3.2375 0
M  V30 8128 C 767.929 3.00833 3.35873 0
M  V30 8129 C 766.591 3.41626 3.38888 0
M  V30 8130 C 768.943 3.96825 3.37904 0
M  V30 8131 C 766.271 4.77033 3.4155 0
M  V30 8132 C 768.623 5.32116 3.42104 0
M  V30 8133 C 767.287 5.72392 3.43401 0
M  V30 8134 H 766.557 0.34508 0.655744 0
M  V30 8135 H 769.204 1.44929 1.25171 0
M  V30 8136 H 767.509 0.929114 3.80624 0
M  V30 8137 H 769.206 1.31996 3.78653 0
M  V30 8138 H 765.796 2.68306 3.3423 0
M  V30 8139 H 769.98 3.66376 3.34787 0
M  V30 8140 H 765.236 5.07569 3.40858 0
M  V30 8141 H 769.41 6.06286 3.42623 0
M  V30 8142 H 767.037 6.77296 3.45216 0
M  V30 8143 N 768.612 -1.24939 0.960631 0
M  V30 8144 C 769.575 -2.239 0.49006 0
M  V30 8145 C 770.575 -1.55497 -0.409535 0
M  V30 8146 O 771.765 -1.72978 -0.205984 0
M  V30 8147 C 768.897 -3.39654 -0.291193 0
M  V30 8148 H 770.09 -2.67044 1.36482 0
M  V30 8149 H 767.643 -1.37429 0.744505 0
M  V30 8150 H 768.378 -3.01939 -1.18336 0
M  V30 8151 H 768.163 -3.90496 0.354276 0
M  V30 8152 H 769.653 -4.13125 -0.609693 0
M  V30 8153 N 770.09 -0.729906 -1.39679 0
M  V30 8154 C 771.338 -0.275077 -2.00219 0
M  V30 8155 C 771.659 1.1401 -1.58199 0
M  V30 8156 O 770.929 1.77546 -0.827904 0
M  V30 8157 H 769.509 -0.0987127 -0.740449 0
M  V30 8158 H 772.171 -0.93873 -1.70804 0
M  V30 8159 H 771.267 -0.319446 -3.10461 0
M  V30 8160 N 771.568 1.50203 -0.477153 0
M  V30 8161 C 772.815 2.02358 0.0757385 0
M  V30 8162 C 773.143 1.3587 1.39174 0
M  V30 8163 O 772.398 0.475415 1.89838 0
M  V30 8164 C 772.697 3.56127 0.301325 0
M  V30 8165 C 772.363 4.41126 -0.933725 0
M  V30 8166 C 771.025 4.64075 -1.27233 0
M  V30 8167 C 773.377 4.90737 -1.75576 0
M  V30 8168 C 770.705 5.33878 -2.43292 0
M  V30 8169 C 773.057 5.61816 -2.90768 0
M  V30 8170 C 771.721 5.83016 -3.25036 0
M  V30 8171 H 770.991 0.740482 0.0277147 0
M  V30 8172 H 773.638 1.80754 -0.632467 0
M  V30 8173 H 771.943 3.76279 1.09183 0
M  V30 8174 H 773.64 3.94053 0.743184 0
M  V30 8175 H 770.23 4.23489 -0.659935 0
M  V30 8176 H 774.414 4.72856 -1.50734 0
M  V30 8177 H 769.67 5.48499 -2.70109 0
M  V30 8178 H 773.844 5.99237 -3.54807 0
M  V30 8179 H 771.471 6.36881 -4.15074 0
M  V30 8180 N 773.046 0.209999 1.56195 0
M  V30 8181 C 774.009 -0.691232 2.18528 0
M  V30 8182 C 775.009 -1.13013 1.14388 0
M  V30 8183 O 776.199 -1.04081 1.39688 0
M  V30 8184 C 773.331 -1.94551 2.79934 0
M  V30 8185 H 774.524 -0.147953 2.99535 0
M  V30 8186 H 772.077 -0.0396243 1.5625 0
M  V30 8187 H 772.812 -2.53094 2.02766 0
M  V30 8188 H 772.597 -1.63938 3.56184 0
M  V30 8189 H 774.087 -2.58785 3.2775 0
M  V30 8190 N 774.524 -1.57472 -0.0634922 0
M  V30 8191 C 775.456 -2.00999 -1.10145 0
M  V30 8192 C 776.469 -0.917219 -1.34503 0
M  V30 8193 O 777.658 -1.19501 -1.32596 0
M  V30 8194 C 774.758 -2.34089 -2.45063 0
M  V30 8195 C 773.931 -3.65317 -2.40546 0
M  V30 8196 C 772.99 -3.85982 -3.57637 0
M  V30 8197 O 772.016 -4.5747 -3.38689 0
M  V30 8198 N 773.218 -3.28971 -4.78287 0
M  V30 8199 H 775.983 -2.90656 -0.730714 0
M  V30 8200 H 773.544 -1.59926 -0.252017 0
M  V30 8201 H 775.536 -2.4508 -3.22053 0
M  V30 8202 H 774.106 -1.50279 -2.74107 0
M  V30 8203 H 773.326 -3.65003 -1.48885 0
M  V30 8204 H 774.614 -4.51468 -2.34636 0
M  V30 8205 H 774.012 -2.70962 -4.96584 0
M  V30 8206 H 772.569 -3.45398 -5.5276 0
M  V30 8207 N 776.003 0.335068 -1.53997 0
M  V30 8208 C 777.228 1.09859 -1.75914 0
M  V30 8209 C 777.653 1.81308 -0.500915 0
M  V30 8210 O 777.011 1.72854 0.54693 0
M  V30 8211 C 777.059 2.08122 -2.94478 0
M  V30 8212 O 776.163 3.15805 -2.65219 0
M  V30 8213 H 775.504 0.317313 -0.583274 0
M  V30 8214 H 778.034 0.382872 -2.00986 0
M  V30 8215 H 778.044 2.51195 -3.21504 0
M  V30 8216 H 776.719 1.55517 -3.8573 0
M  V30 8217 H 775.296 2.77489 -2.49107 0
M  V30 8218 N 777.481 1.45874 0.596531 0
M  V30 8219 C 778.897 1.30524 0.918459 0
M  V30 8220 C 779.097 0.266429 1.99731 0
M  V30 8221 O 778.153 -0.335809 2.50257 0
M  V30 8222 C 779.466 2.68747 1.3489 0
M  V30 8223 C 781.014 2.7673 1.46251 0
M  V30 8224 C 781.489 4.15504 1.92667 0
M  V30 8225 N 782.98 4.17853 1.99883 0
M  V30 8226 C 783.715 5.22109 2.37044 0
M  V30 8227 N 783.211 6.36704 2.73094 0
M  V30 8228 N 785.004 5.09471 2.37479 0
M  V30 8229 H 777.155 2.12081 -0.116368 0
M  V30 8230 H 779.418 0.947941 0.0106033 0
M  V30 8231 H 779.124 3.46006 0.630288 0
M  V30 8232 H 778.998 2.97942 2.31323 0
M  V30 8233 H 781.385 1.99768 2.17202 0
M  V30 8234 H 781.466 2.51236 0.481054 0
M  V30 8235 H 781.11 4.92956 1.223 0
M  V30 8236 H 781.04 4.38396 2.91747 0
M  V30 8237 H 783.531 3.35163 1.74568 0
M  V30 8238 H 783.844 7.12041 3.00362 0
M  V30 8239 H 782.189 6.40087 2.70764 0
M  V30 8240 H 785.38 4.18987 2.08728 0
M  V30 8241 H 785.553 5.90837 2.66112 0
M  V30 8242 N 778.959 -0.83999 1.33349 0
M  V30 8243 C 780.189 -1.62492 1.27593 0
M  V30 8244 C 780.597 -1.88559 -0.155597 0
M  V30 8245 O 779.94 -1.46537 -1.10782 0
M  V30 8246 C 780.002 -2.99984 1.98116 0
M  V30 8247 C 779.666 -2.96892 3.47425 0
M  V30 8248 C 780.663 -2.72688 4.42648 0
M  V30 8249 C 778.348 -3.17063 3.89585 0
M  V30 8250 C 780.342 -2.68681 5.78004 0
M  V30 8251 C 778.029 -3.12682 5.25046 0
M  V30 8252 C 779.027 -2.88522 6.19067 0
M  V30 8253 O 778.715 -2.84042 7.52047 0
M  V30 8254 H 778.447 -0.512358 0.440982 0
M  V30 8255 H 781.001 -1.0545 1.76265 0
M  V30 8256 H 779.231 -3.58875 1.44034 0
M  V30 8257 H 780.92 -3.6084 1.85875 0
M  V30 8258 H 781.686 -2.56856 4.114 0
M  V30 8259 H 777.565 -3.34889 3.16813 0
M  V30 8260 H 781.109 -2.49743 6.51363 0
M  V30 8261 H 777.006 -3.28063 5.55918 0
M  V30 8262 H 777.774 -2.99892 7.61582 0
M  V30 8263 N 780.437 -1.16799 -1.0581 0
M  V30 8264 C 781.4 -0.881396 -2.11575 0
M  V30 8265 C 782.4 0.12574 -1.60308 0
M  V30 8266 O 783.59 -0.105716 -1.73879 0
M  V30 8267 C 780.722 -0.319037 -3.39404 0
M  V30 8268 H 781.915 -1.81907 -2.38432 0
M  V30 8269 H 779.468 -0.977597 -1.21954 0
M  V30 8270 H 780.203 0.626082 -3.18199 0
M  V30 8271 H 779.988 -1.04481 -3.77923 0
M  V30 8272 H 781.478 -0.13663 -4.17376 0
M  V30 8273 N 781.915 1.24427 -0.967243 0
M  V30 8274 C 783.14 1.9708 -0.646069 0
M  V30 8275 C 783.565 1.71272 0.777665 0
M  V30 8276 O 782.923 0.976179 1.52776 0
M  V30 8277 C 782.971 3.48501 -0.926266 0
M  V30 8278 O 782.075 4.12398 -0.0114653 0
M  V30 8279 H 781.416 0.617423 -0.244304 0
M  V30 8280 H 783.946 1.58215 -1.29727 0
M  V30 8281 H 783.956 3.98885 -0.857619 0
M  V30 8282 H 782.631 3.66613 -1.96386 0
M  V30 8283 H 781.208 3.72661 -0.133396 0
M  V30 8284 N 783.393 0.737304 1.3929 0
M  V30 8285 C 784.641 0.285691 2.00071 0
M  V30 8286 C 784.962 -1.13169 1.58801 0
M  V30 8287 O 784.232 -1.77104 0.837308 0
M  V30 8288 H 782.812 0.102638 0.739915 0
M  V30 8289 H 785.474 0.947775 1.70303 0
M  V30 8290 H 784.57 0.335906 3.10287 0
M  V30 8291 N 784.871 -1.49948 0.485112 0
M  V30 8292 C 786.148 -1.95186 -0.12726 0
M  V30 8293 C 786.528 -1.42605 -1.5565 0
M  V30 8294 O 785.876 -0.632986 -2.19558 0
M  V30 8295 C 786.086 -3.48955 -0.0562117 0
M  V30 8296 C 787.434 -4.23932 -0.238106 0
M  V30 8297 O 788.458 -3.55955 -0.132145 0
M  V30 8298 O 787.317 -5.44614 -0.453658 0
M  V30 8299 H 784.411 -0.820433 -0.104014 0
M  V30 8300 H 786.957 -1.60659 0.546517 0
M  V30 8301 H 785.729 -3.79814 0.941122 0
M  V30 8302 H 785.352 -3.90056 -0.770834 0
M  V30 8303 N 786.349 -0.21828 -1.56081 0
M  V30 8304 C 787.579 0.41865 -2.02314 0
M  V30 8305 C 787.987 1.54124 -1.09739 0
M  V30 8306 O 787.33 1.83435 -0.0986829 0
M  V30 8307 C 787.392 1.01439 -3.44892 0
M  V30 8308 C 787.056 0.0276523 -4.56992 0
M  V30 8309 C 788.053 -0.771526 -5.14143 0
M  V30 8310 C 785.738 -0.0901537 -5.02219 0
M  V30 8311 C 787.732 -1.67525 -6.14991 0
M  V30 8312 C 785.419 -0.997411 -6.02905 0
M  V30 8313 C 786.417 -1.78851 -6.59167 0
M  V30 8314 O 786.105 -2.68052 -7.57894 0
M  V30 8315 H 785.837 0.107066 -0.667468 0
M  V30 8316 H 788.391 -0.331191 -2.02712 0
M  V30 8317 H 786.621 1.81326 -3.41552 0
M  V30 8318 H 788.31 1.55838 -3.74792 0
M  V30 8319 H 789.076 -0.690945 -4.80053 0
M  V30 8320 H 784.955 0.515474 -4.58109 0
M  V30 8321 H 788.499 -2.29316 -6.58832 0
M  V30 8322 H 784.396 -1.07902 -6.36418 0
M  V30 8323 H 785.164 -2.6209 -7.75404 0
M  V30 8324 N 787.827 1.57504 0.0551401 0
M  V30 8325 C 789.074 1.88055 0.751104 0
M  V30 8326 C 789.402 0.812231 1.76729 0
M  V30 8327 O 788.657 -0.189918 1.94776 0
M  V30 8328 C 788.956 3.25311 1.48013 0
M  V30 8329 C 788.622 4.46858 0.602375 0
M  V30 8330 C 787.284 4.79847 0.360536 0
M  V30 8331 C 789.636 5.212 -0.00524047 0
M  V30 8332 C 786.964 5.84582 -0.498127 0
M  V30 8333 C 789.316 6.26844 -0.851453 0
M  V30 8334 C 787.98 6.58324 -1.103 0
M  V30 8335 H 787.25 0.688142 0.274848 0
M  V30 8336 H 789.897 1.91497 0.0114795 0
M  V30 8337 H 788.202 3.17737 2.29239 0
M  V30 8338 H 789.899 3.46189 2.02371 0
M  V30 8339 H 786.489 4.21049 0.801007 0
M  V30 8340 H 790.673 4.96013 0.168682 0
M  V30 8341 H 785.929 6.07361 -0.701594 0
M  V30 8342 H 790.103 6.83603 -1.32893 0
M  V30 8343 H 787.73 7.39304 -1.77011 0
M  V30 8344 N 789.305 -0.326896 1.54172 0
M  V30 8345 C 790.533 -1.08486 1.76177 0
M  V30 8346 C 790.948 -1.81815 0.508788 0
M  V30 8347 O 790.305 -1.74924 -0.520362 0
M  V30 8348 C 790.356 -2.08552 2.95276 0
M  V30 8349 O 790.077 -1.38202 4.15731 0
M  V30 8350 C 791.578 -2.96593 3.29466 0
M  V30 8351 H 788.798 -0.322835 0.588233 0
M  V30 8352 H 791.342 -0.374036 2.0105 0
M  V30 8353 H 789.497 -2.75174 2.72687 0
M  V30 8354 H 789.911 -2.05186 4.827 0
M  V30 8355 H 791.385 -3.62708 4.16109 0
M  V30 8356 H 791.862 -3.63511 2.46487 0
M  V30 8357 H 792.468 -2.35537 3.54122 0
M  V30 8358 N 790.784 -1.46188 -0.588786 0
M  V30 8359 C 791.716 -1.52319 -1.71265 0
M  V30 8360 C 792.729 -0.412096 -1.57498 0
M  V30 8361 O 793.918 -0.680146 -1.65034 0
M  V30 8362 C 791.018 -1.38164 -3.09458 0
M  V30 8363 C 790.191 -2.63284 -3.49286 0
M  V30 8364 C 789.25 -2.43415 -4.66514 0
M  V30 8365 O 788.276 -3.17113 -4.72682 0
M  V30 8366 N 789.478 -1.49187 -5.61002 0
M  V30 8367 H 792.243 -2.49219 -1.66463 0
M  V30 8368 H 789.804 -1.42167 -0.774601 0
M  V30 8369 H 791.796 -1.22653 -3.85666 0
M  V30 8370 H 790.366 -0.494678 -3.08661 0
M  V30 8371 H 789.586 -2.93779 -2.62845 0
M  V30 8372 H 790.874 -3.46413 -3.7266 0
M  V30 8373 H 790.272 -0.884027 -5.5875 0
M  V30 8374 H 788.829 -1.39642 -6.36666 0
M  V30 8375 N 792.262 0.832906 -1.33792 0
M  V30 8376 C 793.492 1.61813 -1.28453 0
M  V30 8377 C 793.9 1.88639 0.145595 0
M  V30 8378 O 793.243 1.47122 1.10004 0
M  V30 8379 C 793.305 2.98929 -1.99704 0
M  V30 8380 C 792.969 2.95045 -3.48995 0
M  V30 8381 C 793.966 2.70337 -4.44088 0
M  V30 8382 C 791.651 3.14993 -3.91261 0
M  V30 8383 C 793.645 2.65612 -5.79421 0
M  V30 8384 C 791.332 3.09893 -5.26697 0
M  V30 8385 C 792.33 2.85235 -6.20588 0
M  V30 8386 O 792.018 2.8005 -7.53543 0
M  V30 8387 H 791.75 0.510013 -0.443693 0
M  V30 8388 H 794.304 1.04514 -1.76822 0
M  V30 8389 H 792.534 3.58106 -1.45935 0
M  V30 8390 H 794.223 3.59849 -1.87786 0
M  V30 8391 H 794.989 2.54671 -4.12756 0
M  V30 8392 H 790.868 3.33204 -3.18584 0
M  V30 8393 H 794.412 2.46285 -6.52679 0
M  V30 8394 H 790.309 3.2511 -5.5765 0
M  V30 8395 H 791.077 2.95849 -7.63162 0
M  V30 8396 N 793.74 1.17359 1.05189 0
M  V30 8397 C 794.67 0.91365 2.14883 0
M  V30 8398 C 795.651 -0.144365 1.69486 0
M  V30 8399 O 796.836 0.00587861 1.94199 0
M  V30 8400 C 793.966 0.426196 3.44675 0
M  V30 8401 C 792.92 1.4234 4.03638 0
M  V30 8402 C 792.246 0.793902 5.28773 0
M  V30 8403 C 793.546 2.7966 4.41121 0
M  V30 8404 H 795.24 1.831 2.36885 0
M  V30 8405 H 792.786 0.881781 1.13845 0
M  V30 8406 H 794.739 0.231767 4.20762 0
M  V30 8407 H 793.463 -0.526693 3.22325 0
M  V30 8408 H 792.122 1.60457 3.2962 0
M  V30 8409 H 791.77 -0.165824 5.02727 0
M  V30 8410 H 791.47 1.45959 5.69183 0
M  V30 8411 H 792.994 0.609747 6.07548 0
M  V30 8412 H 794.408 2.6526 5.08242 0
M  V30 8413 H 792.805 3.42807 4.92548 0
M  V30 8414 H 793.875 3.34068 3.51464 0
M  V30 8415 N 795.218 -1.23913 0.973828 0
M  V30 8416 C 796.15 -2.24397 0.466763 0
M  V30 8417 C 797.163 -1.57078 -0.427828 0
M  V30 8418 O 798.352 -1.76973 -0.233019 0
M  V30 8419 C 795.452 -3.37141 -0.344798 0
M  V30 8420 C 794.625 -4.34037 0.541349 0
M  V30 8421 C 793.684 -5.2576 -0.215243 0
M  V30 8422 O 792.71 -5.67842 0.39291 0
M  V30 8423 N 793.912 -5.60702 -1.5031 0
M  V30 8424 H 796.677 -2.68536 1.33074 0
M  V30 8425 H 794.238 -1.38017 0.846346 0
M  V30 8426 H 796.23 -3.95476 -0.859133 0
M  V30 8427 H 794.8 -2.92239 -1.10974 0
M  V30 8428 H 794.02 -3.74302 1.23659 0
M  V30 8429 H 795.308 -4.95738 1.1455 0
M  V30 8430 H 794.706 -5.28451 -2.01882 0
M  V30 8431 H 793.263 -6.21538 -1.96301 0
M  V30 8432 N 796.696 -0.74468 -1.38897 0
M  V30 8433 C 797.973 -0.222773 -1.94327 0
M  V30 8434 C 798.353 1.27731 -1.68071 0
M  V30 8435 O 797.701 2.04754 -1.01429 0
M  V30 8436 C 797.911 -0.566836 -3.44366 0
M  V30 8437 C 799.259 -0.521531 -4.21385 0
M  V30 8438 O 800.283 -0.504599 -3.52608 0
M  V30 8439 O 799.142 -0.524595 -5.43976 0
M  V30 8440 H 796.236 -0.0439259 -0.825833 0
M  V30 8441 H 798.782 -0.824197 -1.48341 0
M  V30 8442 H 797.554 -1.60321 -3.56949 0
M  V30 8443 H 797.177 0.0630577 -3.9755 0
M  V30 8444 N 798.174 1.49689 -0.493057 0
M  V30 8445 C 799.451 1.9525 0.116907 0
M  V30 8446 C 799.831 1.43429 1.54892 0
M  V30 8447 O 799.179 0.644621 2.19219 0
M  V30 8448 C 799.389 3.4898 0.037705 0
M  V30 8449 C 800.737 4.24052 0.215621 0
M  V30 8450 O 801.761 3.5602 0.113266 0
M  V30 8451 O 800.62 5.44847 0.42477 0
M  V30 8452 H 797.714 0.820973 0.099662 0
M  V30 8453 H 800.26 1.60367 -0.555029 0
M  V30 8454 H 799.032 3.79309 -0.961251 0
M  V30 8455 H 798.655 3.9046 0.750137 0
M  V30 8456 N 799.652 0.226554 1.55963 0
M  V30 8457 C 800.898 -0.397608 1.99476 0
M  V30 8458 C 801.253 -1.57031 1.11172 0
M  V30 8459 O 800.546 -1.90907 0.162757 0
M  V30 8460 C 800.74 -0.87642 3.46488 0
M  V30 8461 C 800.569 0.248344 4.49014 0
M  V30 8462 C 799.339 0.71638 5.00196 0
M  V30 8463 C 801.537 1.06835 5.03081 0
M  V30 8464 N 799.519 1.81568 5.86435 0
M  V30 8465 C 800.89 2.01641 5.86294 0
M  V30 8466 C 802.945 1.10722 4.85433 0
M  V30 8467 C 801.648 3.0002 6.53743 0
M  V30 8468 C 803.674 2.07921 5.53645 0
M  V30 8469 C 803.036 3.01466 6.3663 0
M  V30 8470 H 799.135 -0.112024 0.773935 0
M  V30 8471 H 801.719 0.339472 1.91718 0
M  V30 8472 H 799.89 -1.58285 3.54684 0
M  V30 8473 H 801.622 -1.47382 3.76909 0
M  V30 8474 H 798.377 0.30409 4.72623 0
M  V30 8475 H 798.801 2.36748 6.34255 0
M  V30 8476 H 803.443 0.397909 4.20923 0
M  V30 8477 H 801.161 3.71911 7.17432 0
M  V30 8478 H 804.747 2.11609 5.41953 0
M  V30 8479 H 803.627 3.75451 6.88481 0
M  V30 8480 N 801.13 -1.57531 -0.0467866 0
M  V30 8481 C 802.062 -2.02156 -1.08007 0
M  V30 8482 C 803.075 -0.931434 -1.33522 0
M  V30 8483 O 804.264 -1.209 -1.31321 0
M  V30 8484 C 801.364 -2.36675 -2.42566 0
M  V30 8485 C 800.537 -3.67848 -2.36658 0
M  V30 8486 C 799.596 -3.89754 -3.53523 0
M  V30 8487 O 798.622 -4.61036 -3.33818 0
M  V30 8488 N 799.824 -3.34025 -4.74771 0
M  V30 8489 H 802.589 -2.91414 -0.699845 0
M  V30 8490 H 800.15 -1.60185 -0.235041 0
M  V30 8491 H 802.142 -2.48482 -3.19435 0
M  V30 8492 H 800.712 -1.53178 -2.72498 0
M  V30 8493 H 799.932 -3.66561 -1.45005 0
M  V30 8494 H 801.22 -4.53931 -2.29835 0
M  V30 8495 H 800.618 -2.76214 -4.93683 0
M  V30 8496 H 799.175 -3.51241 -5.49066 0
M  V30 8497 N 802.608 0.318715 -1.54344 0
M  V30 8498 C 804.019 0.89285 -1.63967 0
M  V30 8499 C 804.37 1.88712 -0.536855 0
M  V30 8500 O 803.495 2.13877 0.329457 0
M  V30 8501 C 804.09 1.62618 -2.97222 0
M  V30 8502 C 802.649 2.14897 -3.09025 0
M  V30 8503 C 801.796 0.975909 -2.5956 0
M  V30 8504 H 804.747 0.0961687 -1.58408 0
M  V30 8505 H 804.768 2.4907 -2.87653 0
M  V30 8506 H 804.28 0.902286 -3.77466 0
M  V30 8507 H 802.381 2.90387 -2.33465 0
M  V30 8508 H 802.494 2.39565 -4.14904 0
M  V30 8509 H 800.858 1.35646 -2.15574 0
M  V30 8510 H 801.641 0.266253 -3.42266 0
M  V30 8511 N 804.086 1.46499 0.581025 0
M  V30 8512 C 805.033 1.5719 1.68997 0
M  V30 8513 C 806.003 0.416114 1.60803 0
M  V30 8514 O 807.188 0.633086 1.79991 0
M  V30 8515 C 804.328 1.56973 3.07333 0
M  V30 8516 C 803.441 2.83298 3.26139 0
M  V30 8517 C 802.576 2.74574 4.54734 0
M  V30 8518 C 801.615 3.9583 4.66889 0
M  V30 8519 N 800.752 3.85482 5.86811 0
M  V30 8520 H 805.592 2.51914 1.59196 0
M  V30 8521 H 803.129 1.24975 0.775857 0
M  V30 8522 H 805.087 1.54832 3.87405 0
M  V30 8523 H 803.717 0.657803 3.16027 0
M  V30 8524 H 802.769 2.95411 2.3966 0
M  V30 8525 H 804.081 3.7316 3.30988 0
M  V30 8526 H 803.235 2.70548 5.43036 0
M  V30 8527 H 801.974 1.82354 4.52325 0
M  V30 8528 H 800.979 4.00186 3.77003 0
M  V30 8529 H 802.204 4.89148 4.71075 0
M  V30 8530 H 800.15 2.96051 5.85397 0
M  V30 8531 H 800.067 4.69002 5.92936 0
M  V30 8532 H 801.335 3.85434 6.7754 0
M  V30 8533 N 805.565 -0.825799 1.34232 0
M  V30 8534 C 806.793 -1.61363 1.29497 0
M  V30 8535 C 807.208 -1.88341 -0.131536 0
M  V30 8536 O 806.565 -1.47279 -1.07773 0
M  V30 8537 C 806.616 -2.95623 2.08061 0
M  V30 8538 O 806.337 -2.69824 3.45147 0
M  V30 8539 C 807.838 -3.90032 2.10688 0
M  V30 8540 H 805.058 -0.501676 0.445603 0
M  V30 8541 H 807.602 -1.02767 1.76803 0
M  V30 8542 H 805.757 -3.50785 1.64404 0
M  V30 8543 H 806.171 -3.55412 3.85723 0
M  V30 8544 H 807.645 -4.81411 2.70087 0
M  V30 8545 H 808.122 -4.25188 1.10052 0
M  V30 8546 H 808.728 -3.40807 2.54422 0
M  V30 8547 N 807.043 -1.17915 -1.04565 0
M  V30 8548 C 808.006 -0.903787 -2.10628 0
M  V30 8549 C 809.006 0.10873 -1.60432 0
M  V30 8550 O 810.196 -0.124152 -1.73757 0
M  V30 8551 C 807.328 -0.355017 -3.39046 0
M  V30 8552 H 808.521 -1.84425 -2.3649 0
M  V30 8553 H 806.074 -0.990477 -1.2091 0
M  V30 8554 H 806.809 0.592297 -3.18845 0
M  V30 8555 H 806.594 -1.08484 -3.76794 0
M  V30 8556 H 808.084 -0.180891 -4.17208 0
M  V30 8557 N 808.521 1.23394 -0.980386 0
M  V30 8558 C 809.468 2.24859 -0.520298 0
M  V30 8559 C 810.438 1.60144 0.440821 0
M  V30 8560 O 811.623 1.87593 0.348369 0
M  V30 8561 C 808.763 3.44675 0.171145 0
M  V30 8562 C 807.876 4.23947 -0.830233 0
M  V30 8563 C 807.011 5.31079 -0.113597 0
M  V30 8564 C 806.05 6.02058 -1.10419 0
M  V30 8565 N 805.187 7.00862 -0.416709 0
M  V30 8566 H 810.027 2.63579 -1.39032 0
M  V30 8567 H 807.564 1.29556 -0.696682 0
M  V30 8568 H 809.522 4.13024 0.588838 0
M  V30 8569 H 808.152 3.06755 1.00504 0
M  V30 8570 H 807.204 3.55016 -1.36631 0
M  V30 8571 H 808.516 4.72945 -1.58508 0
M  V30 8572 H 807.67 6.05622 0.36146 0
M  V30 8573 H 806.409 4.83022 0.673854 0
M  V30 8574 H 805.414 5.26307 -1.59 0
M  V30 8575 H 806.639 6.52203 -1.8923 0
M  V30 8576 H 804.585 6.55057 0.351535 0
M  V30 8577 H 804.502 7.47804 -1.11021 0
M  V30 8578 H 805.77 7.79492 0.0359606 0
M  V30 8579 N 809.999 0.752036 1.385 0
M  V30 8580 C 811.245 0.307958 2.00448 0
M  V30 8581 C 811.578 -1.10702 1.59558 0
M  V30 8582 O 810.853 -1.75788 0.832391 0
M  V30 8583 C 811.136 0.429092 3.57534 0
M  V30 8584 C 810.989 1.88507 4.08393 0
M  V30 8585 C 812.308 -0.178442 4.39738 0
M  V30 8586 H 809.427 0.113373 0.728228 0
M  V30 8587 H 812.069 0.951389 1.64465 0
M  V30 8588 H 810.219 -0.118695 3.88319 0
M  V30 8589 H 811.891 2.49104 3.88259 0
M  V30 8590 H 810.134 2.40066 3.61318 0
M  V30 8591 H 810.805 1.92099 5.17496 0
M  V30 8592 H 813.281 0.28872 4.15097 0
M  V30 8593 H 812.157 -0.0634349 5.48863 0
M  V30 8594 H 812.418 -1.26655 4.23569 0
M  V30 8595 N 811.477 -1.49425 0.500989 0
M  V30 8596 C 812.893 -1.58826 0.156951 0
M  V30 8597 C 813.093 -1.50622 -1.33848 0
M  V30 8598 O 812.149 -1.38016 -2.11442 0
M  V30 8599 C 813.462 -2.91611 0.73374 0
M  V30 8600 C 815.01 -3.05076 0.699846 0
M  V30 8601 C 815.485 -4.40479 1.2547 0
M  V30 8602 N 816.976 -4.4697 1.2154 0
M  V30 8603 C 817.711 -5.50189 1.6149 0
M  V30 8604 N 817.207 -6.60512 2.09034 0
M  V30 8605 N 819 -5.40903 1.52907 0
M  V30 8606 H 811.151 -1.53001 1.47324 0
M  V30 8607 H 813.414 -0.724765 0.61108 0
M  V30 8608 H 813.12 -3.03182 1.78251 0
M  V30 8609 H 812.994 -3.767 0.19417 0
M  V30 8610 H 815.381 -2.93134 -0.340085 0
M  V30 8611 H 815.462 -2.2167 1.27656 0
M  V30 8612 H 815.106 -4.53172 2.29341 0
M  V30 8613 H 815.036 -5.22524 0.653921 0
M  V30 8614 H 817.527 -3.67819 0.867043 0
M  V30 8615 H 817.84 -7.35372 2.37588 0
M  V30 8616 H 816.185 -6.61553 2.13008 0
M  V30 8617 H 819.376 -4.53606 1.15583 0
M  V30 8618 H 819.549 -6.21219 1.84365 0
M  V30 8619 N 812.955 -0.234822 -1.55841 0
M  V30 8620 C 813.918 0.656378 -2.196 0
M  V30 8621 C 814.918 1.11179 -1.16171 0
M  V30 8622 O 816.108 1.01845 -1.41326 0
M  V30 8623 C 813.24 1.90072 -2.82993 0
M  V30 8624 H 814.433 0.100281 -2.99732 0
M  V30 8625 H 811.986 0.0147613 -1.56293 0
M  V30 8626 H 812.721 2.49836 -2.06767 0
M  V30 8627 H 812.506 1.5825 -3.58747 0
M  V30 8628 H 813.996 2.53538 -3.31826 0
M  V30 8629 N 814.433 1.57553 0.0384317 0
M  V30 8630 C 815.363 2.0898 1.04161 0
M  V30 8631 C 816.344 0.99029 1.38301 0
M  V30 8632 O 817.529 1.26499 1.47349 0
M  V30 8633 C 814.659 2.56145 2.34536 0
M  V30 8634 C 813.613 3.70275 2.14663 0
M  V30 8635 C 812.939 4.03612 3.50715 0
M  V30 8636 C 814.239 4.99067 1.54045 0
M  V30 8637 H 815.933 2.93046 0.613548 0
M  V30 8638 H 813.479 1.40973 0.293684 0
M  V30 8639 H 815.432 2.90741 3.05037 0
M  V30 8640 H 814.156 1.6915 2.79385 0
M  V30 8641 H 812.815 3.36013 1.46597 0
M  V30 8642 H 812.463 3.13698 3.93195 0
M  V30 8643 H 812.163 4.80482 3.38247 0
M  V30 8644 H 813.687 4.40735 4.22593 0
M  V30 8645 H 815.101 5.3168 2.14451 0
M  V30 8646 H 813.498 5.80484 1.52178 0
M  V30 8647 H 814.568 4.8226 0.505259 0
M  V30 8648 N 815.911 -0.310526 1.54511 0
M  V30 8649 C 817.158 -1.04691 1.73338 0
M  V30 8650 C 817.486 -1.87584 0.514038 0
M  V30 8651 O 816.741 -1.89096 -0.504119 0
M  V30 8652 C 817.04 -1.98942 2.96912 0
M  V30 8653 C 816.706 -1.321 4.31115 0
M  V30 8654 C 815.368 -1.13603 4.67598 0
M  V30 8655 C 817.72 -0.842362 5.14348 0
M  V30 8656 C 815.048 -0.459102 5.84901 0
M  V30 8657 C 817.4 -0.179202 6.32346 0
M  V30 8658 C 816.064 0.0178111 6.67498 0
M  V30 8659 H 815.334 -0.38309 0.634289 0
M  V30 8660 H 817.981 -0.322723 1.88761 0
M  V30 8661 H 816.286 -2.77856 2.76231 0
M  V30 8662 H 817.983 -2.55972 3.08674 0
M  V30 8663 H 814.573 -1.47502 4.02419 0
M  V30 8664 H 818.757 -0.973013 4.86668 0
M  V30 8665 H 814.013 -0.295385 6.10686 0
M  V30 8666 H 818.187 0.199619 6.96114 0
M  V30 8667 H 815.814 0.544356 7.58249 0
M  V30 8668 N 817.389 -1.46805 -0.573248 0
M  V30 8669 C 818.352 -1.57655 -1.66366 0
M  V30 8670 C 819.352 -0.452905 -1.5429 0
M  V30 8671 O 820.542 -0.717502 -1.58737 0
M  V30 8672 C 817.674 -1.50584 -3.05839 0
M  V30 8673 H 818.867 -2.54842 -1.581 0
M  V30 8674 H 816.42 -1.34756 -0.791868 0
M  V30 8675 H 817.155 -0.547127 -3.19651 0
M  V30 8676 H 816.94 -2.32118 -3.16012 0
M  V30 8677 H 818.43 -1.61282 -3.85199 0
M  V30 8678 N 818.867 0.818669 -1.34668 0
M  V30 8679 C 820.283 1.11243 -1.14443 0
M  V30 8680 C 820.483 2.01435 0.0512212 0
M  V30 8681 O 819.539 2.41854 0.725471 0
M  V30 8682 C 820.852 1.75504 -2.4417 0
M  V30 8683 C 822.4 1.8798 -2.50265 0
M  V30 8684 C 822.875 2.55657 -3.80004 0
M  V30 8685 N 824.366 2.63153 -3.81189 0
M  V30 8686 C 825.101 3.16258 -4.78298 0
M  V30 8687 N 824.597 3.69893 -5.85791 0
M  V30 8688 N 826.39 3.14698 -4.65748 0
M  V30 8689 H 818.541 0.218848 -2.1127 0
M  V30 8690 H 820.804 0.159655 -0.934459 0
M  V30 8691 H 820.51 1.16697 -3.31775 0
M  V30 8692 H 820.384 2.75329 -2.57825 0
M  V30 8693 H 822.771 2.45934 -1.63096 0
M  V30 8694 H 822.852 0.870447 -2.40535 0
M  V30 8695 H 822.496 1.98356 -4.67565 0
M  V30 8696 H 822.426 3.57105 -3.87019 0
M  V30 8697 H 824.917 2.2514 -3.03513 0
M  V30 8698 H 825.23 4.08678 -6.55898 0
M  V30 8699 H 823.575 3.68125 -5.89499 0
M  V30 8700 H 826.766 2.72066 -3.80917 0
M  V30 8701 H 826.939 3.5578 -5.41594 0
M  V30 8702 N 820.346 1.18468 1.03938 0
M  V30 8703 C 821.571 1.00638 1.81347 0
M  V30 8704 C 821.996 -0.440477 1.8287 0
M  V30 8705 O 821.354 -1.31609 1.24695 0
M  V30 8706 C 821.402 1.5673 3.24759 0
M  V30 8707 O 820.506 0.789517 4.04772 0
M  V30 8708 H 819.847 0.356432 0.560225 0
M  V30 8709 H 822.377 1.57253 1.30891 0
M  V30 8710 H 822.387 1.59496 3.75533 0
M  V30 8711 H 821.062 2.62043 3.22965 0
M  V30 8712 H 819.639 0.834267 3.63448 0
M  V30 8713 N 821.824 -1.22873 0.986916 0
M  V30 8714 C 823.072 -1.91084 0.658121 0
M  V30 8715 C 823.393 -1.77304 -0.811675 0
M  V30 8716 O 822.663 -1.15649 -1.58121 0
M  V30 8717 H 821.243 -0.707251 0.240427 0
M  V30 8718 H 823.905 -1.49357 1.25213 0
M  V30 8719 H 823.001 -2.98373 0.915428 0
M  V30 8720 N 823.302 -0.75937 -1.38099 0
M  V30 8721 C 824.551 -0.314864 -1.99227 0
M  V30 8722 C 824.864 1.1113 -1.60964 0
M  V30 8723 O 826.07 1.65657 -2.15105 0
M  V30 8724 C 824.526 -0.512001 -3.56239 0
M  V30 8725 C 824.134 -1.94762 -4.0345 0
M  V30 8726 C 825.878 -0.130497 -4.24299 0
M  V30 8727 C 823.785 -2.09301 -5.53125 0
M  V30 8728 H 822.715 -0.113978 -0.745335 0
M  V30 8729 H 825.366 -0.936736 -1.57789 0
M  V30 8730 H 823.748 0.179144 -3.95595 0
M  V30 8731 H 824.922 -2.67271 -3.75371 0
M  V30 8732 H 823.237 -2.28457 -3.48133 0
M  V30 8733 H 825.834 -0.21781 -5.34256 0
M  V30 8734 H 826.177 0.917644 -4.0606 0
M  V30 8735 H 826.71 -0.773716 -3.90203 0
M  V30 8736 H 823.449 -3.1239 -5.76275 0
M  V30 8737 H 822.969 -1.41261 -5.82928 0
M  V30 8738 H 824.648 -1.88571 -6.1891 0
M  V30 8739 N 824.78 1.49157 -0.508906 0
M  V30 8740 C 826.008 2.06879 0.0293734 0
M  V30 8741 C 826.423 1.36823 1.30095 0
M  V30 8742 O 825.78 0.449034 1.7689 0
M  V30 8743 C 825.831 3.60423 0.278791 0
M  V30 8744 O 825.552 4.27844 -0.942389 0
M  V30 8745 C 827.053 4.34881 0.859825 0
M  V30 8746 H 824.273 0.67057 -0.0240184 0
M  V30 8747 H 826.817 1.91834 -0.708526 0
M  V30 8748 H 824.972 3.75145 0.966689 0
M  V30 8749 H 825.386 5.19671 -0.710097 0
M  V30 8750 H 826.86 5.43161 0.983884 0
M  V30 8751 H 827.337 3.9789 1.85958 0
M  V30 8752 H 827.943 4.24785 0.209152 0
M  V30 8753 N 826.258 0.243083 1.55714 0
M  V30 8754 C 827.188 -0.652336 2.24203 0
M  V30 8755 C 828.169 -1.1843 1.221 0
M  V30 8756 O 829.354 -1.22435 1.50743 0
M  V30 8757 C 826.484 -1.85111 2.93856 0
M  V30 8758 C 825.438 -1.45208 4.02615 0
M  V30 8759 C 824.764 -2.73137 4.59674 0
M  V30 8760 C 826.064 -0.625988 5.18535 0
M  V30 8761 H 827.758 -0.0812504 2.9929 0
M  V30 8762 H 825.304 -0.0376388 1.43951 0
M  V30 8763 H 827.257 -2.48314 3.40468 0
M  V30 8764 H 825.981 -2.44751 2.16251 0
M  V30 8765 H 824.64 -0.843406 3.56766 0
M  V30 8766 H 824.288 -3.30967 3.78774 0
M  V30 8767 H 823.988 -2.47163 5.33089 0
M  V30 8768 H 825.512 -3.37245 5.09017 0
M  V30 8769 H 826.926 -1.16223 5.61396 0
M  V30 8770 H 825.323 -0.462465 5.98315 0
M  V30 8771 H 826.393 0.362652 4.83542 0
M  V30 8772 N 827.736 -1.57571 -0.0300757 0
M  V30 8773 C 829.147 -1.77567 -0.576802 0
M  V30 8774 C 829.498 -0.874034 -1.75656 0
M  V30 8775 O 828.623 -0.0686124 -2.16291 0
M  V30 8776 C 829.218 -3.22016 -1.05315 0
M  V30 8777 C 827.777 -3.43212 -1.5454 0
M  V30 8778 C 826.924 -2.73061 -0.483033 0
M  V30 8779 H 829.875 -1.57483 0.196151 0
M  V30 8780 H 829.896 -3.28474 -1.92055 0
M  V30 8781 H 829.408 -3.87613 -0.194298 0
M  V30 8782 H 827.509 -2.82788 -2.42615 0
M  V30 8783 H 827.622 -4.5182 -1.5936 0
M  V30 8784 H 825.986 -2.36805 -0.937835 0
M  V30 8785 H 826.769 -3.4134 0.366341 0
M  V30 8786 N 829.214 0.302327 -1.54673 0
M  V30 8787 C 830.442 1.05669 -1.77881 0
M  V30 8788 C 830.857 1.80983 -0.537648 0
M  V30 8789 O 830.214 1.7573 0.492467 0
M  V30 8790 C 830.265 2.03828 -2.98557 0
M  V30 8791 O 829.986 1.3157 -4.17877 0
M  V30 8792 C 831.487 2.91314 -3.34143 0
M  V30 8793 H 828.707 0.313436 -0.593295 0
M  V30 8794 H 831.251 0.342003 -2.0162 0
M  V30 8795 H 829.406 2.70801 -2.7703 0
M  V30 8796 H 829.82 1.97481 -4.85903 0
M  V30 8797 H 831.294 3.56042 -4.21827 0
M  V30 8798 H 831.771 3.59544 -2.52239 0
M  V30 8799 H 832.377 2.29874 -3.57824 0
M  V30 8800 N 830.692 1.47107 0.565454 0
M  V30 8801 C 832.108 1.32443 0.890566 0
M  V30 8802 C 832.308 0.308735 1.99121 0
M  V30 8803 O 831.364 -0.28265 2.50913 0
M  V30 8804 C 832.677 2.71548 1.2916 0
M  V30 8805 C 834.225 2.7977 1.40349 0
M  V30 8806 C 834.7 4.19497 1.83811 0
M  V30 8807 N 836.191 4.21998 1.90975 0
M  V30 8808 C 836.926 5.2702 2.25916 0
M  V30 8809 N 836.422 6.42353 2.59527 0
M  V30 8810 N 838.215 5.14393 2.26619 0
M  V30 8811 H 830.366 2.11786 -0.161328 0
M  V30 8812 H 832.629 0.947952 -0.00950631 0
M  V30 8813 H 832.335 3.47265 0.556753 0
M  V30 8814 H 832.209 3.02782 2.24951 0
M  V30 8815 H 834.596 2.0433 2.12916 0
M  V30 8816 H 834.677 2.522 0.427655 0
M  V30 8817 H 834.321 4.95439 1.11816 0
M  V30 8818 H 834.251 4.44486 2.82382 0
M  V30 8819 H 836.742 3.38791 1.6742 0
M  V30 8820 H 837.055 7.18252 2.85191 0
M  V30 8821 H 835.4 6.45687 2.57126 0
M  V30 8822 H 838.591 4.2332 1.99794 0
M  V30 8823 H 838.764 5.96349 2.5352 0
M  V30 8824 N 832.17 -0.811516 1.35101 0
M  V30 8825 C 833.08 -1.95475 1.29718 0
M  V30 8826 C 834.096 -1.72813 0.202909 0
M  V30 8827 O 835.272 -1.96725 0.431414 0
M  V30 8828 C 832.337 -3.29975 1.06385 0
M  V30 8829 C 831.398 -3.65566 2.25077 0
M  V30 8830 C 830.631 -4.93648 2.02848 0
M  V30 8831 O 830.854 -5.617 0.992442 0
M  V30 8832 O 829.788 -5.27384 2.90087 0
M  V30 8833 H 833.614 -2.02961 2.25921 0
M  V30 8834 H 831.199 -0.948583 1.15422 0
M  V30 8835 H 833.081 -4.10506 0.951999 0
M  V30 8836 H 831.756 -3.2343 0.132294 0
M  V30 8837 H 830.663 -2.85432 2.41825 0
M  V30 8838 H 831.996 -3.7681 3.16662 0
M  V30 8839 N 833.648 -1.19017 -1.03309 0
M  V30 8840 C 834.581 -0.867457 -2.1107 0
M  V30 8841 C 835.559 0.173752 -1.61669 0
M  V30 8842 O 836.743 0.0510077 -1.88431 0
M  V30 8843 C 833.87 -0.297459 -3.37391 0
M  V30 8844 C 832.916 -1.31706 -4.05655 0
M  V30 8845 S 833.749 -2.87591 -4.51721 0
M  V30 8846 C 834.905 -2.32122 -5.81266 0
M  V30 8847 H 835.138 -1.78008 -2.38119 0
M  V30 8848 H 832.671 -1.01686 -1.16187 0
M  V30 8849 H 834.629 0.0248889 -4.10492 0
M  V30 8850 H 833.29 0.5934 -3.08444 0
M  V30 8851 H 832.483 -0.867264 -4.96482 0
M  V30 8852 H 832.085 -1.58603 -3.38705 0
M  V30 8853 H 834.377 -1.70855 -6.55603 0
M  V30 8854 H 835.32 -3.2128 -6.31019 0
M  V30 8855 H 835.728 -1.74858 -5.36736 0
M  V30 8856 N 835.127 1.22348 -0.993418 0
M  V30 8857 C 836.373 1.91689 -0.680217 0
M  V30 8858 C 836.728 1.75912 0.779269 0
M  V30 8859 O 836.021 1.11761 1.55628 0
M  V30 8860 C 836.215 3.42477 -1.02197 0
M  V30 8861 C 836.044 3.72923 -2.51313 0
M  V30 8862 C 834.814 3.9291 -3.17726 0
M  V30 8863 C 837.012 3.7736 -3.49434 0
M  V30 8864 N 834.994 4.10672 -4.56313 0
M  V30 8865 C 836.365 4.00269 -4.73481 0
M  V30 8866 C 838.42 3.60211 -3.43733 0
M  V30 8867 C 837.123 4.0781 -5.92523 0
M  V30 8868 C 839.149 3.69011 -4.62152 0
M  V30 8869 C 838.511 3.92371 -5.85 0
M  V30 8870 H 834.61 0.722086 -0.300193 0
M  V30 8871 H 837.194 1.47273 -1.27353 0
M  V30 8872 H 835.365 3.85699 -0.457223 0
M  V30 8873 H 837.097 3.99204 -0.664702 0
M  V30 8874 H 833.852 3.90345 -2.68193 0
M  V30 8875 H 834.276 4.2348 -5.28199 0
M  V30 8876 H 838.918 3.41137 -2.49771 0
M  V30 8877 H 836.636 4.25688 -6.86888 0
M  V30 8878 H 840.222 3.5708 -4.59331 0
M  V30 8879 H 839.102 3.9901 -6.75101 0
M  V30 8880 N 836.605 0.766683 1.37694 0
M  V30 8881 C 837.535 0.163432 2.32927 0
M  V30 8882 C 838.516 -0.688861 1.55527 0
M  V30 8883 O 839.701 -0.627363 1.83787 0
M  V30 8884 C 836.831 -0.720416 3.39746 0
M  V30 8885 C 835.785 0.0301718 4.27989 0
M  V30 8886 C 835.111 -0.972788 5.25776 0
M  V30 8887 C 836.411 1.20623 5.0818 0
M  V30 8888 H 838.105 0.958988 2.83626 0
M  V30 8889 H 835.651 0.462601 1.36367 0
M  V30 8890 H 837.604 -1.15221 4.05342 0
M  V30 8891 H 836.328 -1.54844 2.8756 0
M  V30 8892 H 834.987 0.442685 3.63917 0
M  V30 8893 H 834.635 -1.79522 4.69873 0
M  V30 8894 H 834.335 -0.475145 5.85676 0
M  V30 8895 H 835.859 -1.40362 5.94248 0
M  V30 8896 H 837.273 0.851341 5.66944 0
M  V30 8897 H 835.67 1.63561 5.7738 0
M  V30 8898 H 836.74 2.01281 4.41151 0
M  V30 8899 N 838.083 -1.48885 0.516809 0
M  V30 8900 C 839.03 -2.29408 -0.253125 0
M  V30 8901 C 840 -1.36533 -0.945935 0
M  V30 8902 O 841.185 -1.65495 -0.949527 0
M  V30 8903 C 838.325 -3.19592 -1.30211 0
M  V30 8904 C 837.438 -4.27535 -0.61948 0
M  V30 8905 C 836.573 -5.04916 -1.65026 0
M  V30 8906 C 835.612 -6.04677 -0.950368 0
M  V30 8907 N 834.749 -6.75164 -1.92608 0
M  V30 8908 H 839.589 -2.94738 0.439744 0
M  V30 8909 H 837.126 -1.45311 0.2287 0
M  V30 8910 H 839.084 -3.70267 -1.92245 0
M  V30 8911 H 837.714 -2.56213 -1.96353 0
M  V30 8912 H 836.766 -3.80228 0.114505 0
M  V30 8913 H 838.078 -4.98752 -0.0693016 0
M  V30 8914 H 837.232 -5.59539 -2.34523 0
M  V30 8915 H 835.971 -4.33508 -2.23432 0
M  V30 8916 H 834.976 -5.4927 -0.241252 0
M  V30 8917 H 836.201 -6.78077 -0.372599 0
M  V30 8918 H 834.147 -6.06517 -2.49946 0
M  V30 8919 H 834.064 -7.4241 -1.42699 0
M  V30 8920 H 835.332 -7.34384 -2.61345 0
M  V30 8921 N 839.561 -0.251338 -1.55583 0
M  V30 8922 C 840.491 0.640437 -2.24545 0
M  V30 8923 C 841.472 1.17781 -1.22726 0
M  V30 8924 O 842.657 1.21633 -1.5139 0
M  V30 8925 C 839.787 1.8355 -2.94834 0
M  V30 8926 C 838.741 1.4307 -4.03379 0
M  V30 8927 C 838.067 2.70695 -4.61116 0
M  V30 8928 C 839.367 0.59848 -5.1886 0
M  V30 8929 H 841.061 0.0653772 -2.99329 0
M  V30 8930 H 838.607 0.0300042 -1.43969 0
M  V30 8931 H 840.56 2.46505 -3.4178 0
M  V30 8932 H 839.284 2.43601 -2.17546 0
M  V30 8933 H 837.943 0.824474 -3.57209 0
M  V30 8934 H 837.591 3.28954 -3.80524 0
M  V30 8935 H 837.291 2.44332 -5.34393 0
M  V30 8936 H 838.815 3.34541 -5.10798 0
M  V30 8937 H 840.229 1.13244 -5.62004 0
M  V30 8938 H 838.626 0.430728 -5.98552 0
M  V30 8939 H 839.696 -0.38829 -4.83343 0
M  V30 8940 N 841.039 1.57585 0.0217189 0
M  V30 8941 C 842.455 1.55072 0.377484 0
M  V30 8942 C 842.655 0.978423 1.76151 0
M  V30 8943 O 841.711 0.602688 2.45202 0
M  V30 8944 C 843.024 2.99462 0.272605 0
M  V30 8945 C 844.572 3.11047 0.349148 0
M  V30 8946 C 845.047 4.57182 0.273636 0
M  V30 8947 N 846.538 4.62007 0.332206 0
M  V30 8948 C 847.273 5.72631 0.296782 0
M  V30 8949 N 846.769 6.92472 0.21322 0
M  V30 8950 N 848.562 5.61028 0.347053 0
M  V30 8951 H 840.713 1.93133 -0.883925 0
M  V30 8952 H 842.976 0.886151 -0.33681 0
M  V30 8953 H 842.682 3.45088 -0.67878 0
M  V30 8954 H 842.556 3.61901 1.06335 0
M  V30 8955 H 844.943 2.65364 1.29097 0
M  V30 8956 H 845.024 2.51425 -0.471085 0
M  V30 8957 H 844.668 5.03534 -0.664548 0
M  V30 8958 H 844.598 5.14724 1.11207 0
M  V30 8959 H 847.089 3.75788 0.399003 0
M  V30 8960 H 847.402 7.72563 0.191492 0
M  V30 8961 H 845.747 6.94769 0.179161 0
M  V30 8962 H 848.938 4.66298 0.410378 0
M  V30 8963 H 849.111 6.47229 0.315979 0
M  V30 8964 N 842.517 -0.29412 1.54831 0
M  V30 8965 C 843.794 -1.04847 1.65126 0
M  V30 8966 C 844.174 -2.04996 0.503986 0
M  V30 8967 O 843.522 -2.22996 -0.498496 0
M  V30 8968 C 843.732 -1.72418 3.03435 0
M  V30 8969 C 845.08 -2.24362 3.60481 0
M  V30 8970 O 846.104 -1.8244 3.05932 0
M  V30 8971 O 844.963 -3.01196 4.56008 0
M  V30 8972 H 842.057 -0.485032 0.669831 0
M  V30 8973 H 844.603 -0.291659 1.67175 0
M  V30 8974 H 843.375 -0.997351 3.78376 0
M  V30 8975 H 842.998 -2.54839 3.05193 0
M  V30 8976 N 843.995 -1.47404 -0.557645 0
M  V30 8977 C 845.272 -1.44488 -1.31843 0
M  V30 8978 C 845.652 -0.1416 -2.10625 0
M  V30 8979 O 845 0.876908 -2.11004 0
M  V30 8980 C 845.21 -2.69016 -2.22331 0
M  V30 8981 C 846.558 -3.16212 -2.83364 0
M  V30 8982 O 847.582 -2.69741 -2.32634 0
M  V30 8983 O 846.441 -3.96999 -3.75571 0
M  V30 8984 H 843.535 -0.57578 -0.593639 0
M  V30 8985 H 846.081 -1.59605 -0.576584 0
M  V30 8986 H 844.853 -3.55406 -1.63715 0
M  V30 8987 H 844.476 -2.56484 -3.03812 0
M  V30 8988 N 845.473 0.80434 -1.35529 0
M  V30 8989 C 846.719 1.56385 -1.29118 0
M  V30 8990 C 847.052 1.9374 0.133536 0
M  V30 8991 O 846.327 1.6153 1.08344 0
M  V30 8992 C 846.61 2.85097 -2.19981 0
M  V30 8993 C 846.463 2.54204 -3.7108 0
M  V30 8994 C 847.782 3.86817 -2.09907 0
M  V30 8995 H 844.901 0.567382 -0.470368 0
M  V30 8996 H 847.543 0.925235 -1.6595 0
M  V30 8997 H 845.693 3.39594 -1.88701 0
M  V30 8998 H 847.365 2.05872 -4.12813 0
M  V30 8999 H 845.608 1.87364 -3.91251 0
M  V30 9000 H 846.279 3.46068 -4.30048 0
M  V30 9001 H 848.755 3.41725 -2.37409 0
M  V30 9002 H 847.631 4.7465 -2.75678 0
M  V30 9003 H 847.892 4.28663 -1.08171 0
M  V30 9004 N 846.951 1.19563 1.02676 0
M  V30 9005 C 847.884 0.878638 2.10607 0
M  V30 9006 C 848.862 -0.165176 1.61759 0
M  V30 9007 O 850.046 -0.041014 1.88455 0
M  V30 9008 C 847.173 0.315347 3.37229 0
M  V30 9009 C 846.219 1.33855 4.04951 0
M  V30 9010 S 847.052 2.89982 4.50189 0
M  V30 9011 C 848.208 2.35202 5.80027 0
M  V30 9012 H 848.441 1.79268 2.37171 0
M  V30 9013 H 845.974 1.023 1.15646 0
M  V30 9014 H 847.932 -0.00311911 4.105 0
M  V30 9015 H 846.593 -0.577035 3.08754 0
M  V30 9016 H 845.786 0.893581 4.96015 0
M  V30 9017 H 845.388 1.60397 3.37859 0
M  V30 9018 H 847.68 1.74329 6.54687 0
M  V30 9019 H 848.623 3.24622 6.29306 0
M  V30 9020 H 849.031 1.77702 5.35801 0
M  V30 9021 N 848.429 -1.21819 0.999893 0
M  V30 9022 C 849.845 -1.42847 0.711824 0
M  V30 9023 C 850.045 -1.88391 -0.714928 0
M  V30 9024 O 849.101 -2.0422 -1.48494 0
M  V30 9025 C 850.414 -2.46417 1.72334 0
M  V30 9026 C 851.962 -2.60207 1.73958 0
M  V30 9027 C 852.437 -3.67005 2.73992 0
M  V30 9028 N 853.928 -3.7447 2.72628 0
M  V30 9029 C 854.663 -4.56718 3.46693 0
M  V30 9030 N 854.159 -5.42904 4.3038 0
M  V30 9031 N 855.952 -4.51094 3.35366 0
M  V30 9032 H 848.103 -0.905656 1.92124 0
M  V30 9033 H 850.366 -0.459893 0.828977 0
M  V30 9034 H 850.072 -2.19914 2.74465 0
M  V30 9035 H 849.946 -3.45137 1.52186 0
M  V30 9036 H 852.333 -2.8605 0.725217 0
M  V30 9037 H 852.414 -1.61739 1.98177 0
M  V30 9038 H 852.058 -3.41908 3.75582 0
M  V30 9039 H 851.988 -4.65058 2.4704 0
M  V30 9040 H 854.479 -3.12895 2.11909 0
M  V30 9041 H 854.792 -6.02704 4.83702 0
M  V30 9042 H 853.137 -5.42463 4.34464 0
M  V30 9043 H 856.328 -3.82791 2.69423 0
M  V30 9044 H 856.501 -5.1496 3.93344 0
M  V30 9045 N 849.908 -0.773975 -1.37286 0
M  V30 9046 C 851.138 -0.350249 -2.03609 0
M  V30 9047 C 851.546 1.03313 -1.58502 0
M  V30 9048 O 850.889 1.67118 -0.7627 0
M  V30 9049 C 850.951 -0.317215 -3.58098 0
M  V30 9050 C 850.615 -1.64556 -4.26345 0
M  V30 9051 C 851.612 -2.59839 -4.50311 0
M  V30 9052 C 849.297 -1.92061 -4.64131 0
M  V30 9053 C 851.291 -3.80833 -5.11122 0
M  V30 9054 C 848.978 -3.13325 -5.24663 0
M  V30 9055 C 849.976 -4.0753 -5.48095 0
M  V30 9056 O 849.664 -5.26658 -6.0736 0
M  V30 9057 H 849.396 -0.144456 -0.660385 0
M  V30 9058 H 851.95 -1.0496 -1.76557 0
M  V30 9059 H 850.18 0.438528 -3.84205 0
M  V30 9060 H 851.869 0.0797428 -4.05822 0
M  V30 9061 H 852.635 -2.39872 -4.21529 0
M  V30 9062 H 848.514 -1.19562 -4.45226 0
M  V30 9063 H 852.058 -4.54377 -5.29327 0
M  V30 9064 H 847.955 -3.33177 -5.52869 0
M  V30 9065 H 848.723 -5.27513 -6.25837 0
M  V30 9066 N 851.386 1.48609 -0.524698 0
M  V30 9067 C 852.634 2.02097 0.0112991 0
M  V30 9068 C 852.955 1.40455 1.35268 0
M  V30 9069 O 852.225 0.56807 1.87483 0
M  V30 9070 H 850.805 0.746966 0.00716426 0
M  V30 9071 H 853.467 1.82378 -0.687329 0
M  V30 9072 H 852.563 3.11855 0.123531 0
M  V30 9073 N 852.864 0.259585 1.55447 0
M  V30 9074 C 854.113 -0.362163 1.98422 0
M  V30 9075 C 854.426 -1.58135 1.1512 0
M  V30 9076 O 855.632 -2.27506 1.48166 0
M  V30 9077 C 854.088 -0.695722 3.53111 0
M  V30 9078 C 853.696 0.502784 4.4517 0
M  V30 9079 C 855.44 -1.28096 4.04712 0
M  V30 9080 C 853.347 0.144674 5.91223 0
M  V30 9081 H 852.277 -0.139092 0.74106 0
M  V30 9082 H 854.928 0.361798 1.79898 0
M  V30 9083 H 853.31 -1.47816 3.67378 0
M  V30 9084 H 854.484 1.27994 4.42667 0
M  V30 9085 H 852.799 1.0038 4.0412 0
M  V30 9086 H 855.396 -1.56243 5.11363 0
M  V30 9087 H 855.739 -2.20969 3.52815 0
M  V30 9088 H 856.272 -0.561146 3.93822 0
M  V30 9089 H 853.011 1.04087 6.47183 0
M  V30 9090 H 852.531 -0.596023 5.96831 0
M  V30 9091 H 854.21 -0.268651 6.46442 0
M  V30 9092 N 854.342 -1.57594 -0.0133615 0
M  V30 9093 C 855.572 -1.93969 -0.711295 0
M  V30 9094 C 855.98 -0.859084 -1.68572 0
M  V30 9095 O 855.323 0.171842 -1.82894 0
M  V30 9096 C 855.385 -3.2625 -1.51001 0
M  V30 9097 C 855.049 -4.51628 -0.698645 0
M  V30 9098 C 856.046 -5.19899 0.00791185 0
M  V30 9099 C 853.731 -4.98095 -0.648553 0
M  V30 9100 C 855.725 -6.32928 0.753691 0
M  V30 9101 C 853.412 -6.11017 0.10096 0
M  V30 9102 C 854.41 -6.78289 0.800828 0
M  V30 9103 O 854.098 -7.89048 1.53814 0
M  V30 9104 H 853.83 -0.6445 -0.203951 0
M  V30 9105 H 856.384 -2.05378 0.0298267 0
M  V30 9106 H 854.614 -3.11211 -2.29531 0
M  V30 9107 H 856.303 -3.47835 -2.09202 0
M  V30 9108 H 857.069 -4.84995 -0.0217192 0
M  V30 9109 H 852.948 -4.45568 -1.18282 0
M  V30 9110 H 856.492 -6.85371 1.3005 0
M  V30 9111 H 852.389 -6.45364 0.132459 0
M  V30 9112 H 853.157 -8.05492 1.45345 0
M  V30 9113 N 855.82 0.285905 -1.54985 0
M  V30 9114 C 856.768 1.37302 -1.87752 0
M  V30 9115 C 857.762 1.51763 -0.752616 0
M  V30 9116 O 858.968 1.53701 -0.936805 0
M  V30 9117 H 855.343 0.458935 -0.59572 0
M  V30 9118 H 857.314 1.0691 -2.78591 0
M  V30 9119 C 856.063 2.72885 -2.15474 0
M  V30 9120 H 855.386 2.62545 -3.01513 0
M  V30 9121 H 856.826 3.47925 -2.42331 0
M  V30 9122 C 855.285 3.22989 -0.958124 0
M  V30 9123 O 855.815 4.01268 -0.186219 0
M  V30 9124 N 854.021 2.80503 -0.759354 0
M  V30 9125 H 853.568 2.16961 -1.38874 0
M  V30 9126 H 853.526 3.14375 0.0396937 0
M  V30 9127 N 857.298 1.47698 0.54982 0
M  V30 9128 C 858.23 1.56806 1.67166 0
M  V30 9129 C 859.243 0.453709 1.5635 0
M  V30 9130 O 860.432 0.723663 1.63173 0
M  V30 9131 C 857.532 1.4632 3.05686 0
M  V30 9132 C 856.705 2.72452 3.42182 0
M  V30 9133 C 855.764 2.55698 4.59897 0
M  V30 9134 O 854.79 3.29534 4.64108 0
M  V30 9135 N 855.992 1.64009 5.56849 0
M  V30 9136 H 858.757 2.53545 1.59797 0
M  V30 9137 H 856.318 1.44171 0.736635 0
M  V30 9138 H 858.31 1.32835 3.82279 0
M  V30 9139 H 856.88 0.57634 3.07241 0
M  V30 9140 H 856.1 3.00644 2.54964 0
M  V30 9141 H 857.388 3.56172 3.63344 0
M  V30 9142 H 856.786 1.03186 5.5621 0
M  V30 9143 H 855.343 1.56473 6.3274 0
M  V30 9144 N 858.776 -0.797141 1.35954 0
M  V30 9145 C 859.724 -1.93084 1.29697 0
M  V30 9146 C 860.718 -1.68329 0.190152 0
M  V30 9147 O 861.924 -1.7643 0.3567 0
M  V30 9148 H 858.299 -0.634531 0.403577 0
M  V30 9149 H 860.27 -1.95481 2.25455 0
M  V30 9150 C 859.019 -3.29996 1.09536 0
M  V30 9151 H 858.342 -3.49607 1.93946 0
M  V30 9152 H 859.782 -4.09696 1.09202 0
M  V30 9153 C 858.241 -3.36304 -0.200381 0
M  V30 9154 O 858.771 -3.83579 -1.19291 0
M  V30 9155 N 856.977 -2.89587 -0.242406 0
M  V30 9156 H 856.524 -2.51307 0.565897 0
M  V30 9157 H 856.482 -2.94189 -1.10906 0
M  V30 9158 N 860.254 -1.20106 -1.0204 0
M  V30 9159 C 861.184 -0.970301 -2.12385 0
M  V30 9160 C 862.165 0.099378 -1.69809 0
M  V30 9161 O 863.35 -0.057365 -1.94115 0
M  V30 9162 C 860.48 -0.517431 -3.43424 0
M  V30 9163 C 859.434 -1.52992 -3.99722 0
M  V30 9164 C 858.76 -0.933817 -5.26483 0
M  V30 9165 C 860.06 -2.91257 -4.33551 0
M  V30 9166 H 861.754 -1.89316 -2.31948 0
M  V30 9167 H 859.3 -0.911655 -1.11467 0
M  V30 9168 H 861.253 -0.343243 -4.2 0
M  V30 9169 H 859.977 0.441049 -3.23608 0
M  V30 9170 H 858.636 -1.6914 -3.2525 0
M  V30 9171 H 858.284 0.0324763 -5.0299 0
M  V30 9172 H 857.984 -1.60999 -5.65113 0
M  V30 9173 H 859.508 -0.770614 -6.05718 0
M  V30 9174 H 860.922 -2.78642 -5.0103 0
M  V30 9175 H 859.319 -3.55745 -4.83286 0
M  V30 9176 H 860.389 -3.43269 -3.42483 0
M  V30 9177 N 861.732 1.21287 -1.00634 0
M  V30 9178 C 862.664 2.2308 -0.526094 0
M  V30 9179 C 863.677 1.58157 0.386031 0
M  V30 9180 O 864.866 1.77528 0.186016 0
M  V30 9181 C 861.966 3.37937 0.255289 0
M  V30 9182 C 861.139 4.32449 -0.656236 0
M  V30 9183 C 860.198 5.26145 0.0757714 0
M  V30 9184 O 859.224 5.66601 -0.543325 0
M  V30 9185 N 860.426 5.6449 1.35391 0
M  V30 9186 H 863.191 2.64913 -1.40147 0
M  V30 9187 H 860.752 1.35724 -0.882641 0
M  V30 9188 H 862.744 3.97614 0.753977 0
M  V30 9189 H 861.314 2.95078 1.03187 0
M  V30 9190 H 860.534 3.70892 -1.3354 0
M  V30 9191 H 861.822 4.92526 -1.27653 0
M  V30 9192 H 861.22 5.33617 1.878 0
M  V30 9193 H 859.777 6.26524 1.79753 0
M  V30 9194 N 863.21 0.781244 1.36873 0
M  V30 9195 C 864.173 0.180094 2.28491 0
M  V30 9196 C 865.173 -0.617798 1.48458 0
M  V30 9197 O 866.363 -0.439991 1.68552 0
M  V30 9198 C 863.495 -0.751741 3.32508 0
M  V30 9199 H 864.688 0.987837 2.83164 0
M  V30 9200 H 862.241 0.550102 1.463 0
M  V30 9201 H 862.976 -1.58413 2.82977 0
M  V30 9202 H 862.761 -0.181649 3.91679 0
M  V30 9203 H 864.251 -1.16748 4.00949 0
M  V30 9204 N 864.689 -1.48329 0.532571 0
M  V30 9205 C 865.935 -2.028 -0.000583219 0
M  V30 9206 C 866.268 -1.40858 -1.33688 0
M  V30 9207 O 865.543 -0.555261 -1.86406 0
M  V30 9208 C 865.826 -3.59901 -0.119846 0
M  V30 9209 C 865.679 -4.32318 1.2418 0
M  V30 9210 C 866.998 -4.31904 -0.845372 0
M  V30 9211 H 864.117 -0.736999 0.00126205 0
M  V30 9212 H 866.759 -1.77024 0.690102 0
M  V30 9213 H 864.909 -3.81993 -0.708092 0
M  V30 9214 H 866.581 -4.21637 1.87136 0
M  V30 9215 H 864.824 -3.93635 1.82301 0
M  V30 9216 H 865.495 -5.40697 1.11132 0
M  V30 9217 H 867.971 -4.14658 -0.346159 0
M  V30 9218 H 866.847 -5.41509 -0.897723 0
M  V30 9219 H 867.108 -3.99369 -1.89622 0
M  V30 9220 N 866.167 -0.267825 -1.55308 0
M  V30 9221 C 867.578 0.231344 -1.85261 0
M  V30 9222 C 867.929 1.56006 -1.18982 0
M  V30 9223 O 867.054 2.1111 -0.475554 0
M  V30 9224 C 867.649 0.426537 -3.36104 0
M  V30 9225 C 866.208 0.869945 -3.66209 0
M  V30 9226 C 865.355 -0.0409522 -2.7727 0
M  V30 9227 H 868.306 -0.489821 -1.50952 0
M  V30 9228 H 868.327 1.26616 -3.58816 0
M  V30 9229 H 867.839 -0.540678 -3.84315 0
M  V30 9230 H 865.94 1.84889 -3.23492 0
M  V30 9231 H 866.053 0.712316 -4.73775 0
M  V30 9232 H 864.417 0.474097 -2.50249 0
M  V30 9233 H 865.2 -1.00392 -3.28293 0
M  V30 9234 N 867.645 1.57599 0.00500368 0
M  V30 9235 C 869.056 1.78462 0.54848 0
M  V30 9236 C 869.407 0.901869 1.74243 0
M  V30 9237 O 868.532 0.103014 2.16155 0
M  V30 9238 C 869.127 3.2365 1.00179 0
M  V30 9239 C 867.686 3.45627 1.49061 0
M  V30 9240 C 866.833 2.73794 0.439531 0
M  V30 9241 H 869.784 1.57151 -0.22118 0
M  V30 9242 H 869.805 3.31488 1.86805 0
M  V30 9243 H 869.317 3.87873 0.132607 0
M  V30 9244 H 867.418 2.86612 2.38085 0
M  V30 9245 H 867.531 4.54298 1.52152 0
M  V30 9246 H 865.895 2.38267 0.900043 0
M  V30 9247 H 866.678 3.40714 -0.420599 0
M  V30 9248 N 869.123 -0.277682 1.55134 0
M  V30 9249 C 870.351 -1.02826 1.7954 0
M  V30 9250 C 870.766 -1.80105 0.566373 0
M  V30 9251 O 870.123 -1.76491 -0.464448 0
M  V30 9252 C 870.174 -1.99053 3.01762 0
M  V30 9253 O 869.895 -1.24906 4.19917 0
M  V30 9254 C 871.396 -2.85961 3.38735 0
M  V30 9255 H 868.616 -0.303958 0.598206 0
M  V30 9256 H 871.16 -0.309884 2.02138 0
M  V30 9257 H 869.315 -2.66359 2.81303 0
M  V30 9258 H 869.729 -1.89725 4.88983 0
M  V30 9259 H 871.203 -3.49286 4.27438 0
M  V30 9260 H 871.68 -3.55486 2.57928 0
M  V30 9261 H 872.286 -2.24152 3.61436 0
M  V30 9262 N 870.601 -1.47988 -0.541979 0
M  V30 9263 C 871.849 -1.55086 -1.29587 0
M  V30 9264 C 872.17 -0.221304 -1.9374 0
M  V30 9265 O 871.44 0.756128 -1.80719 0
M  V30 9266 H 870.02 -0.571307 -0.481266 0
M  V30 9267 H 872.682 -1.8438 -0.631675 0
M  V30 9268 H 871.778 -2.32556 -2.08144 0
M  V30 9269 N 872.079 0.78992 -1.36375 0
M  V30 9270 C 873.304 1.58389 -1.33895 0
M  V30 9271 C 873.729 1.8794 0.0774934 0
M  V30 9272 O 873.087 1.4785 1.0493 0
M  V30 9273 C 873.135 2.88201 -2.16732 0
M  V30 9274 O 872.239 3.81778 -1.55946 0
M  V30 9275 H 871.58 0.480471 -0.458305 0
M  V30 9276 H 874.11 0.979119 -1.79651 0
M  V30 9277 H 874.12 3.37475 -2.29292 0
M  V30 9278 H 872.795 2.66019 -3.19698 0
M  V30 9279 H 871.372 3.40371 -1.52323 0
M  V30 9280 N 873.557 1.20646 1.01402 0
M  V30 9281 C 874.806 1.01242 1.7445 0
M  V30 9282 C 875.119 -0.455732 1.90217 0
M  V30 9283 O 876.325 -0.768951 2.60383 0
M  V30 9284 C 874.781 1.76275 3.13776 0
M  V30 9285 C 874.389 3.27201 3.06013 0
M  V30 9286 C 876.133 1.65248 3.91016 0
M  V30 9287 C 874.04 3.9476 4.40362 0
M  V30 9288 H 872.97 0.375202 0.654018 0
M  V30 9289 H 875.621 1.44292 1.13367 0
M  V30 9290 H 874.003 1.26013 3.75415 0
M  V30 9291 H 875.177 3.84695 2.53665 0
M  V30 9292 H 873.492 3.38669 2.42265 0
M  V30 9293 H 876.089 2.13061 4.90417 0
M  V30 9294 H 876.432 0.609128 4.1182 0
M  V30 9295 H 876.965 2.12937 3.3601 0
M  V30 9296 H 873.704 4.99258 4.24761 0
M  V30 9297 H 873.224 3.42054 4.92706 0
M  V30 9298 H 874.903 3.99159 5.09196 0
M  V30 9299 N 875.035 -1.20752 1.01276 0
M  V30 9300 C 876.26 -1.94547 0.718769 0
M  V30 9301 C 876.685 -1.7404 -0.713563 0
M  V30 9302 O 876.043 -1.03221 -1.49047 0
M  V30 9303 C 876.091 -3.44823 1.05497 0
M  V30 9304 O 875.195 -4.12072 0.164516 0
M  V30 9305 H 874.536 -0.607931 0.267051 0
M  V30 9306 H 877.066 -1.53292 1.35509 0
M  V30 9307 H 877.076 -3.95427 1.00507 0
M  V30 9308 H 875.751 -3.59072 2.09858 0
M  V30 9309 H 874.328 -3.71909 0.271615 0
M  V30 9310 N 876.513 -0.788492 -1.36457 0
M  V30 9311 C 877.743 -0.371825 -2.03227 0
M  V30 9312 C 878.151 1.01627 -1.59589 0
M  V30 9313 O 877.494 1.663 -0.780382 0
M  V30 9314 C 877.556 -0.355179 -3.57741 0
M  V30 9315 C 877.22 -1.69069 -4.24576 0
M  V30 9316 C 878.217 -2.64601 -4.47529 0
M  V30 9317 C 875.902 -1.96973 -4.62068 0
M  V30 9318 C 877.896 -3.86232 -5.07054 0
M  V30 9319 C 875.583 -3.18872 -5.2131 0
M  V30 9320 C 876.581 -4.1332 -5.43742 0
M  V30 9321 O 876.269 -5.3307 -6.0174 0
M  V30 9322 H 876.001 -0.151452 -0.658816 0
M  V30 9323 H 878.555 -1.06827 -1.75434 0
M  V30 9324 H 876.785 0.397753 -3.84649 0
M  V30 9325 H 878.474 0.0366955 -4.05883 0
M  V30 9326 H 879.24 -2.44329 -4.18961 0
M  V30 9327 H 875.119 -1.24277 -4.43933 0
M  V30 9328 H 878.663 -4.59965 -5.24478 0
M  V30 9329 H 874.56 -3.39022 -5.49304 0
M  V30 9330 H 875.328 -5.34121 -6.20207 0
M  V30 9331 N 877.991 1.48044 -0.54043 0
M  V30 9332 C 879.24 2.01698 -0.00809961 0
M  V30 9333 C 879.553 1.42184 1.34325 0
M  V30 9334 O 880.759 1.87398 1.96454 0
M  V30 9335 C 879.215 3.59882 0.035933 0
M  V30 9336 C 878.823 4.28384 -1.31115 0
M  V30 9337 C 880.567 4.21346 0.51654 0
M  V30 9338 C 878.474 5.78529 -1.22714 0
M  V30 9339 H 877.404 0.754 0.000742174 0
M  V30 9340 H 880.055 1.70204 -0.685775 0
M  V30 9341 H 878.437 3.88264 0.778906 0
M  V30 9342 H 879.611 4.11663 -2.07051 0
M  V30 9343 H 877.926 3.78837 -1.72834 0
M  V30 9344 H 880.523 5.31351 0.597529 0
M  V30 9345 H 880.866 3.87373 1.52473 0
M  V30 9346 H 881.399 3.97432 -0.171064 0
M  V30 9347 H 878.138 6.17093 -2.21081 0
M  V30 9348 H 877.658 5.97634 -0.50931 0
M  V30 9349 H 879.337 6.40395 -0.92216 0
M  V30 9350 N 879.47 0.276058 1.55163 0
M  V30 9351 C 880.418 -0.626978 2.2399 0
M  V30 9352 C 881.412 -1.15708 1.23725 0
M  V30 9353 O 882.618 -1.1106 1.41653 0
M  V30 9354 H 878.993 -0.220742 0.718872 0
M  V30 9355 H 880.964 -0.0236569 2.98391 0
M  V30 9356 C 879.713 -1.79935 2.97521 0
M  V30 9357 H 879.036 -1.40064 3.74463 0
M  V30 9358 H 880.476 -2.40781 3.48999 0
M  V30 9359 C 878.935 -2.68838 2.03046 0
M  V30 9360 O 879.465 -3.69224 1.58229 0
M  V30 9361 N 877.671 -2.36028 1.69527 0
M  V30 9362 H 877.218 -1.54442 2.06169 0
M  V30 9363 H 877.176 -2.95782 1.06586 0
M  V30 9364 N 880.948 -1.576 0.00335426 0
M  V30 9365 C 881.898 -2.05116 -0.995562 0
M  V30 9366 C 882.882 -0.946535 -1.30113 0
M  V30 9367 O 884.074 -1.21028 -1.29156 0
M  V30 9368 C 881.203 -2.56077 -2.28648 0
M  V30 9369 C 880.289 -3.73422 -2.0104 0
M  V30 9370 N 880.68 -4.84986 -1.43603 0
M  V30 9371 C 878.978 -3.81416 -2.31166 0
M  V30 9372 C 879.679 -5.66399 -1.32542 0
M  V30 9373 N 878.655 -5.12505 -1.81218 0
M  V30 9374 H 882.457 -2.88783 -0.546025 0
M  V30 9375 H 879.971 -1.61135 -0.202265 0
M  V30 9376 H 881.968 -2.88395 -3.01055 0
M  V30 9377 H 880.628 -1.73829 -2.74251 0
M  V30 9378 H 881.639 -5.05768 -1.11439 0
M  V30 9379 H 878.316 -3.1003 -2.7962 0
M  V30 9380 H 879.706 -6.66066 -0.88348 0
M  V30 9381 N 882.426 0.269451 -1.5528 0
M  V30 9382 C 883.389 1.31642 -1.87625 0
M  V30 9383 C 884.389 1.42182 -0.751058 0
M  V30 9384 O 885.579 1.41272 -1.01921 0
M  V30 9385 C 882.711 2.6973 -2.08467 0
M  V30 9386 H 883.904 1.0419 -2.81219 0
M  V30 9387 H 881.457 0.507685 -1.47825 0
M  V30 9388 H 882.192 3.02356 -1.17266 0
M  V30 9389 H 881.977 2.63465 -2.90394 0
M  V30 9390 H 883.467 3.4537 -2.34753 0
M  V30 9391 N 883.904 1.48273 0.534124 0
M  V30 9392 C 885.132 1.59734 1.31501 0
M  V30 9393 C 885.547 0.256047 1.87056 0
M  V30 9394 O 884.904 -0.754086 1.66192 0
M  V30 9395 C 884.955 2.64072 2.46877 0
M  V30 9396 O 884.676 3.92995 1.93613 0
M  V30 9397 C 886.177 2.85933 3.38758 0
M  V30 9398 H 883.397 0.538703 0.40005 0
M  V30 9399 H 885.941 1.9407 0.644762 0
M  V30 9400 H 884.096 2.32606 3.09795 0
M  V30 9401 H 884.51 4.50203 2.69106 0
M  V30 9402 H 885.984 3.62749 4.16073 0
M  V30 9403 H 886.461 1.94603 3.93734 0
M  V30 9404 H 887.067 3.18687 2.81636 0
M  V30 9405 N 885.382 -0.782676 1.36792 0
M  V30 9406 C 886.607 -1.57676 1.34733 0
M  V30 9407 C 887.032 -1.87979 -0.0675253 0
M  V30 9408 O 886.39 -1.48404 -1.04144 0
M  V30 9409 C 886.438 -2.87047 2.18257 0
M  V30 9410 O 885.542 -3.80946 1.57969 0
M  V30 9411 H 884.883 -0.478034 0.460846 0
M  V30 9412 H 887.413 -0.969578 1.80168 0
M  V30 9413 H 887.423 -3.36254 2.31079 0
M  V30 9414 H 886.098 -2.64319 3.21104 0
M  V30 9415 H 884.675 -3.39558 1.54126 0
M  V30 9416 N 886.86 -1.21182 -1.00761 0
M  V30 9417 C 888.085 -1.05411 -1.78615 0
M  V30 9418 C 888.51 0.391837 -1.83973 0
M  V30 9419 O 887.868 1.28256 -1.28141 0
M  V30 9420 C 887.916 -1.65285 -3.20489 0
M  V30 9421 O 887.02 -0.896558 -4.02536 0
M  V30 9422 H 886.361 -0.37116 -0.550578 0
M  V30 9423 H 888.891 -1.60669 -1.26676 0
M  V30 9424 H 888.901 -1.69397 -3.71172 0
M  V30 9425 H 887.576 -2.70514 -3.15904 0
M  V30 9426 H 886.153 -0.930335 -3.61108 0
M  V30 9427 N 888.338 1.20213 -1.01915 0
M  V30 9428 C 889.587 1.88968 -0.705261 0
M  V30 9429 C 889.9 1.79869 0.768531 0
M  V30 9430 O 891.106 2.43783 1.19508 0
M  V30 9431 C 889.562 3.38911 -1.21109 0
M  V30 9432 C 889.17 3.5659 -2.71197 0
M  V30 9433 C 890.914 4.13204 -0.97275 0
M  V30 9434 C 888.821 5.00372 -3.15248 0
M  V30 9435 H 887.751 0.707715 -0.260107 0
M  V30 9436 H 890.402 1.35977 -1.23217 0
M  V30 9437 H 888.784 3.9124 -0.612152 0
M  V30 9438 H 889.958 3.14635 -3.36662 0
M  V30 9439 H 888.273 2.95671 -2.93202 0
M  V30 9440 H 890.87 5.19221 -1.27726 0
M  V30 9441 H 891.213 4.16201 0.09072 0
M  V30 9442 H 891.746 3.66983 -1.5352 0
M  V30 9443 H 888.485 5.02532 -4.20882 0
M  V30 9444 H 888.005 5.43127 -2.54505 0
M  V30 9445 H 889.684 5.68969 -3.08032 0
M  V30 9446 N 889.816 0.795718 1.36037 0
M  V30 9447 C 890.766 0.171437 2.27355 0
M  V30 9448 C 891.75 -0.648346 1.47259 0
M  V30 9449 O 892.942 -0.507386 1.69572 0
M  V30 9450 C 890.071 -0.687876 3.36338 0
M  V30 9451 C 889.157 0.141041 4.23865 0
M  V30 9452 N 889.548 1.19868 4.91391 0
M  V30 9453 C 887.846 -0.0791045 4.4593 0
M  V30 9454 C 888.547 1.70382 5.56188 0
M  V30 9455 N 887.523 1.01202 5.34097 0
M  V30 9456 H 891.325 0.980846 2.7705 0
M  V30 9457 H 888.839 0.635798 1.49437 0
M  V30 9458 H 890.836 -1.15107 4.00694 0
M  V30 9459 H 889.496 -1.49576 2.88196 0
M  V30 9460 H 890.507 1.58119 4.93172 0
M  V30 9461 H 887.184 -0.856993 4.0861 0
M  V30 9462 H 888.574 2.58715 6.20093 0
M  V30 9463 N 891.294 -1.47756 0.548274 0
M  V30 9464 C 892.705 -1.8636 0.112547 0
M  V30 9465 C 893.056 -1.45589 -1.31523 0
M  V30 9466 O 892.181 -0.854874 -1.98799 0
M  V30 9467 C 892.776 -3.38224 0.197473 0
M  V30 9468 C 891.335 -3.75954 -0.183163 0
M  V30 9469 C 890.482 -2.7181 0.549059 0
M  V30 9470 H 893.433 -1.394 0.758506 0
M  V30 9471 H 893.454 -3.75957 -0.586217 0
M  V30 9472 H 892.966 -3.67868 1.23673 0
M  V30 9473 H 891.067 -3.51926 -1.22387 0
M  V30 9474 H 891.18 -4.78801 0.169178 0
M  V30 9475 H 889.544 -2.54699 -0.00682862 0
M  V30 9476 H 890.327 -3.04296 1.5893 0
M  V30 9477 N 892.772 -0.284283 -1.55015 0
M  V30 9478 C 894.021 0.33055 -1.98973 0
M  V30 9479 C 894.334 1.56284 -1.17621 0
M  V30 9480 O 895.54 2.2512 -1.51767 0
M  V30 9481 C 893.996 0.639457 -3.54174 0
M  V30 9482 C 893.604 -0.573543 -4.44313 0
M  V30 9483 C 895.348 1.21641 -4.06699 0
M  V30 9484 C 893.255 -0.238715 -5.90918 0
M  V30 9485 H 892.185 0.127285 -0.743179 0
M  V30 9486 H 894.836 -0.390372 -1.793 0
M  V30 9487 H 893.218 1.41953 -3.69683 0
M  V30 9488 H 894.392 -1.3502 -4.40575 0
M  V30 9489 H 892.707 -1.06797 -4.02472 0
M  V30 9490 H 895.304 1.48088 -5.13784 0
M  V30 9491 H 895.647 2.15328 -3.56286 0
M  V30 9492 H 896.18 0.498422 -3.94665 0
M  V30 9493 H 892.919 -1.1437 -6.45445 0
M  V30 9494 H 892.439 0.500997 -5.97704 0
M  V30 9495 H 894.118 0.165774 -6.46788 0
M  V30 9496 N 894.251 1.57596 -0.0117121 0
M  V30 9497 C 895.497 1.91355 0.671661 0
M  V30 9498 C 895.83 0.886818 1.72769 0
M  V30 9499 O 895.105 -0.0928813 1.94278 0
M  V30 9500 C 895.388 3.35657 1.30409 0
M  V30 9501 C 895.241 4.49055 0.2588 0
M  V30 9502 C 896.56 3.79595 2.22701 0
M  V30 9503 H 893.679 0.695893 0.242698 0
M  V30 9504 H 896.321 1.89887 -0.0654071 0
M  V30 9505 H 894.471 3.37038 1.9323 0
M  V30 9506 H 896.143 4.59809 -0.370631 0
M  V30 9507 H 894.386 4.31785 -0.417672 0
M  V30 9508 H 895.057 5.4701 0.740578 0
M  V30 9509 H 897.533 3.7984 1.69885 0
M  V30 9510 H 896.409 4.81292 2.63912 0
M  V30 9511 H 896.67 3.14118 3.11098 0
M  V30 9512 N 895.729 -0.261212 1.5542 0
M  V30 9513 C 896.692 -1.30645 1.8832 0
M  V30 9514 C 897.692 -1.41782 0.758588 0
M  V30 9515 O 898.882 -1.40729 1.02669 0
M  V30 9516 C 896.014 -2.6862 2.09895 0
M  V30 9517 H 897.207 -1.02698 2.81768 0
M  V30 9518 H 894.76 -0.499838 1.48092 0
M  V30 9519 H 895.495 -3.0173 1.18868 0
M  V30 9520 H 895.28 -2.61921 2.91787 0
M  V30 9521 H 896.77 -3.44121 2.36581 0
M  V30 9522 N 897.207 -1.48554 -0.526253 0
M  V30 9523 C 898.154 -1.63354 -1.63046 0
M  V30 9524 C 899.124 -0.475509 -1.59148 0
M  V30 9525 O 900.309 -0.699453 -1.77517 0
M  V30 9526 C 897.449 -1.68271 -3.01295 0
M  V30 9527 C 896.562 -2.95207 -3.15399 0
M  V30 9528 C 895.697 -2.91262 -4.4423 0
M  V30 9529 C 894.736 -4.12886 -4.51876 0
M  V30 9530 N 893.873 -4.06996 -5.721 0
M  V30 9531 H 898.713 -2.57649 -1.49737 0
M  V30 9532 H 896.25 -1.27769 -0.728938 0
M  V30 9533 H 898.208 -1.69104 -3.81392 0
M  V30 9534 H 896.838 -0.774641 -3.13367 0
M  V30 9535 H 895.89 -3.04102 -2.2853 0
M  V30 9536 H 897.202 -3.85187 -3.1691 0
M  V30 9537 H 896.356 -2.90516 -5.32621 0
M  V30 9538 H 895.095 -1.99016 -4.45246 0
M  V30 9539 H 894.1 -4.13902 -3.61891 0
M  V30 9540 H 895.325 -5.06294 -4.52596 0
M  V30 9541 H 893.271 -3.17573 -5.74006 0
M  V30 9542 H 893.188 -4.90685 -5.75121 0
M  V30 9543 H 894.456 -4.10315 -6.62768 0
M  V30 9544 N 898.685 0.775411 -1.37205 0
M  V30 9545 C 899.934 1.52909 -1.31536 0
M  V30 9546 C 900.247 1.9535 0.0989374 0
M  V30 9547 O 901.453 2.70072 0.278079 0
M  V30 9548 C 899.909 2.761 -2.30861 0
M  V30 9549 C 899.517 2.40773 -3.77799 0
M  V30 9550 C 901.261 3.54052 -2.34195 0
M  V30 9551 C 899.168 3.60444 -4.68865 0
M  V30 9552 H 898.098 0.574061 -0.488845 0
M  V30 9553 H 900.749 0.849642 -1.62645 0
M  V30 9554 H 899.131 3.45916 -1.92764 0
M  V30 9555 H 900.305 1.78764 -4.24712 0
M  V30 9556 H 898.62 1.76004 -3.77375 0
M  V30 9557 H 901.217 4.42992 -2.99437 0
M  V30 9558 H 901.56 3.93649 -1.35449 0
M  V30 9559 H 902.093 2.91229 -2.7098 0
M  V30 9560 H 898.832 3.25932 -5.68725 0
M  V30 9561 H 898.352 4.21571 -4.26659 0
M  V30 9562 H 900.031 4.27302 -4.85821 0
M  V30 9563 N 900.163 1.21714 1.00117 0
M  V30 9564 C 901.073 0.99597 2.12409 0
M  V30 9565 C 902.089 -0.0531431 1.73919 0
M  V30 9566 O 903.265 0.137757 2.00928 0
M  V30 9567 C 900.33 0.567593 3.42022 0
M  V30 9568 C 899.391 1.68936 3.94663 0
M  V30 9569 C 898.624 1.28133 5.1809 0
M  V30 9570 O 898.847 0.156574 5.70185 0
M  V30 9571 O 897.781 2.0947 5.64275 0
M  V30 9572 H 901.607 1.93657 2.33946 0
M  V30 9573 H 899.192 1.00236 1.10784 0
M  V30 9574 H 901.074 0.338664 4.20037 0
M  V30 9575 H 899.749 -0.34424 3.21864 0
M  V30 9576 H 898.656 1.97274 3.17858 0
M  V30 9577 H 899.989 2.57876 4.19238 0
M  V30 9578 N 901.641 -1.19671 1.02551 0
M  V30 9579 C 902.89 -1.88591 0.715272 0
M  V30 9580 C 903.203 -1.80274 -0.758982 0
M  V30 9581 O 904.409 -2.44413 -1.18213 0
M  V30 9582 C 902.865 -3.38264 1.22905 0
M  V30 9583 C 902.473 -3.55146 2.73084 0
M  V30 9584 C 904.217 -4.12683 0.994649 0
M  V30 9585 C 902.124 -4.98693 3.17897 0
M  V30 9586 H 901.054 -0.706326 0.263857 0
M  V30 9587 H 903.705 -1.35322 1.23936 0
M  V30 9588 H 902.087 -3.9091 0.632892 0
M  V30 9589 H 903.261 -3.12845 3.38326 0
M  V30 9590 H 901.576 -2.94112 2.94766 0
M  V30 9591 H 904.173 -5.18536 1.30478 0
M  V30 9592 H 904.516 -4.16243 -0.0686466 0
M  V30 9593 H 905.049 -3.66164 1.55464 0
M  V30 9594 H 901.788 -5.00293 4.23542 0
M  V30 9595 H 901.308 -5.4177 2.57381 0
M  V30 9596 H 902.987 -5.67327 3.11045 0
M  V30 9597 N 903.119 -0.802921 -1.35613 0
M  V30 9598 C 904.535 -0.486214 -1.52014 0
M  V30 9599 C 904.735 0.993219 -1.75321 0
M  V30 9600 O 903.791 1.77835 -1.79251 0
M  V30 9601 C 905.104 -1.32839 -2.69767 0
M  V30 9602 C 906.652 -1.32346 -2.83643 0
M  V30 9603 C 907.127 -2.14967 -4.04417 0
M  V30 9604 N 908.618 -2.12484 -4.11588 0
M  V30 9605 C 909.353 -2.73173 -5.04147 0
M  V30 9606 N 908.849 -3.42774 -6.02061 0
M  V30 9607 N 910.642 -2.62834 -4.96865 0
M  V30 9608 H 902.793 -1.76109 -1.18741 0
M  V30 9609 H 905.056 -0.74936 -0.580658 0
M  V30 9610 H 904.762 -2.37813 -2.5911 0
M  V30 9611 H 904.636 -0.979058 -3.64272 0
M  V30 9612 H 907.023 -0.281586 -2.93753 0
M  V30 9613 H 907.104 -1.71264 -1.90006 0
M  V30 9614 H 906.748 -3.19193 -3.95068 0
M  V30 9615 H 906.678 -1.73411 -4.97228 0
M  V30 9616 H 909.169 -1.61839 -3.41492 0
M  V30 9617 H 909.482 -3.86378 -6.69277 0
M  V30 9618 H 907.827 -3.46878 -6.02246 0
M  V30 9619 H 911.018 -2.08049 -4.19325 0
M  V30 9620 H 911.191 -3.10421 -5.68808 0
M  V30 9621 N 904.597 1.47463 -0.556102 0
M  V30 9622 C 905.544 2.29998 0.192213 0
M  V30 9623 C 906.514 1.38993 0.909403 0
M  V30 9624 O 907.699 1.67954 0.905316 0
M  V30 9625 C 904.839 3.22932 1.21692 0
M  V30 9626 C 903.952 4.29027 0.505908 0
M  V30 9627 C 903.087 5.09114 1.51581 0
M  V30 9628 C 902.126 6.06984 0.789714 0
M  V30 9629 N 901.263 6.80033 1.74639 0
M  V30 9630 H 906.103 2.93468 -0.517734 0
M  V30 9631 H 903.64 1.44654 -0.267147 0
M  V30 9632 H 905.598 3.75234 1.8236 0
M  V30 9633 H 904.228 2.61329 1.89491 0
M  V30 9634 H 903.28 3.7979 -0.215276 0
M  V30 9635 H 904.592 4.9876 -0.062958 0
M  V30 9636 H 903.746 5.6556 2.19606 0
M  V30 9637 H 902.485 4.3928 2.11859 0
M  V30 9638 H 901.49 5.49717 0.0955382 0
M  V30 9639 H 902.715 6.78827 0.192688 0
M  V30 9640 H 900.661 6.12931 2.33777 0
M  V30 9641 H 900.578 7.45933 1.22965 0
M  V30 9642 H 901.846 7.41054 2.41782 0
M  V30 9643 N 906.075 0.2925 1.54862 0
M  V30 9644 C 906.985 -0.597036 2.26876 0
M  V30 9645 C 908.001 -1.15558 1.30086 0
M  V30 9646 O 909.177 -1.18217 1.63054 0
M  V30 9647 C 906.242 -1.75664 2.98903 0
M  V30 9648 C 905.303 -1.23303 4.11212 0
M  V30 9649 C 904.536 -2.33736 4.79795 0
M  V30 9650 O 904.759 -3.53459 4.47686 0
M  V30 9651 O 903.693 -2.00908 5.67379 0
M  V30 9652 H 907.519 -0.0131242 3.03697 0
M  V30 9653 H 905.104 0.0592642 1.49282 0
M  V30 9654 H 906.986 -2.43241 3.4411 0
M  V30 9655 H 905.661 -2.32731 2.24984 0
M  V30 9656 H 904.568 -0.523222 3.70423 0
M  V30 9657 H 905.901 -0.707887 4.87083 0
M  V30 9658 N 907.553 -1.57587 0.0200696 0
M  V30 9659 C 908.801 -1.91046 -0.65922 0
M  V30 9660 C 909.122 -0.896197 -1.73186 0
M  V30 9661 O 908.392 0.0635952 -1.95797 0
M  V30 9662 H 906.972 -0.705163 -0.246483 0
M  V30 9663 H 909.634 -1.94789 0.0657368 0
M  V30 9664 H 908.73 -2.91399 -1.11773 0
M  V30 9665 N 909.032 0.252966 -1.55557 0
M  V30 9666 C 909.979 1.3131 -1.89806 0
M  V30 9667 C 910.949 1.48121 -0.751633 0
M  V30 9668 O 912.134 1.62202 -1.00474 0
M  V30 9669 C 909.274 2.66467 -2.19293 0
M  V30 9670 C 908.387 2.57714 -3.46709 0
M  V30 9671 C 907.522 3.85184 -3.65796 0
M  V30 9672 C 906.561 3.71023 -4.86835 0
M  V30 9673 N 905.698 4.90371 -5.02474 0
M  V30 9674 H 910.538 1.01402 -2.80217 0
M  V30 9675 H 908.075 0.489462 -1.38718 0
M  V30 9676 H 910.033 3.45132 -2.34392 0
M  V30 9677 H 908.663 2.94536 -1.32093 0
M  V30 9678 H 907.715 1.70651 -3.39974 0
M  V30 9679 H 909.027 2.43158 -4.35517 0
M  V30 9680 H 908.181 4.72292 -3.80822 0
M  V30 9681 H 906.92 4.0263 -2.7521 0
M  V30 9682 H 905.925 2.82299 -4.71792 0
M  V30 9683 H 907.15 3.55078 -5.78875 0
M  V30 9684 H 905.096 5.0819 -4.14824 0
M  V30 9685 H 905.013 4.78423 -5.85361 0
M  V30 9686 H 906.281 5.78995 -5.21905 0
M  V30 9687 N 910.51 1.48831 0.518367 0
M  V30 9688 C 911.738 1.6112 1.298 0
M  V30 9689 C 912.153 0.275872 1.86774 0
M  V30 9690 O 911.51 -0.736416 1.66983 0
M  V30 9691 C 911.561 2.66675 2.44063 0
M  V30 9692 O 911.282 3.95027 1.89434 0
M  V30 9693 C 912.783 2.8951 3.35706 0
M  V30 9694 H 910.003 0.542916 0.394314 0
M  V30 9695 H 912.547 1.94743 0.624142 0
M  V30 9696 H 910.702 2.35879 3.07311 0
M  V30 9697 H 911.116 4.53031 2.64316 0
M  V30 9698 H 912.59 3.67142 4.12202 0
M  V30 9699 H 913.067 1.98768 3.91648 0
M  V30 9700 H 913.673 3.21656 2.7824 0
M  V30 9701 N 911.988 -0.768124 1.37614 0
M  V30 9702 C 913.236 -1.52379 1.3276 0
M  V30 9703 C 913.557 -1.94809 -0.0863564 0
M  V30 9704 O 912.827 -1.66568 -1.03112 0
M  V30 9705 H 911.407 -0.565179 0.488448 0
M  V30 9706 H 914.069 -0.913974 1.72141 0
M  V30 9707 H 913.165 -2.4215 1.96901 0
M  V30 9708 N 913.466 -1.22244 -0.994698 0
M  V30 9709 C 914.882 -0.982006 -1.25813 0
M  V30 9710 C 915.082 0.325488 -1.98854 0
M  V30 9711 O 914.138 1.04857 -2.29698 0
M  V30 9712 C 915.451 -2.1795 -2.07167 0
M  V30 9713 C 916.999 -2.22287 -2.20358 0
M  V30 9714 C 917.474 -3.41583 -3.05098 0
M  V30 9715 N 918.965 -3.41734 -3.12686 0
M  V30 9716 C 919.7 -4.30692 -3.78539 0
M  V30 9717 N 919.196 -5.29865 -4.46335 0
M  V30 9718 N 920.989 -4.18473 -3.75283 0
M  V30 9719 H 913.14 -2.0631 -0.504963 0
M  V30 9720 H 915.403 -0.90395 -0.285618 0
M  V30 9721 H 915.109 -3.12758 -1.60858 0
M  V30 9722 H 914.983 -2.17862 -3.07922 0
M  V30 9723 H 917.37 -1.28028 -2.65881 0
M  V30 9724 H 917.451 -2.26414 -1.19039 0
M  V30 9725 H 917.095 -4.36141 -2.60275 0
M  V30 9726 H 917.025 -3.34695 -4.06555 0
M  V30 9727 H 919.516 -2.69969 -2.64433 0
M  V30 9728 H 919.829 -5.94027 -4.9432 0
M  V30 9729 H 918.174 -5.3378 -4.45089 0
M  V30 9730 H 921.365 -3.40249 -3.21478 0
M  V30 9731 H 921.538 -4.88007 -4.26326 0
M  V30 9732 N 914.944 1.19125 -1.03184 0
M  V30 9733 C 916.19 1.89163 -0.731111 0
M  V30 9734 C 916.523 1.79604 0.738662 0
M  V30 9735 O 915.798 1.19037 1.53819 0
M  V30 9736 C 916.081 3.39986 -1.18666 0
M  V30 9737 C 915.934 3.58401 -2.71788 0
M  V30 9738 C 917.253 4.33316 -0.769772 0
M  V30 9739 H 914.372 0.686908 -0.267069 0
M  V30 9740 H 917.014 1.40205 -1.28229 0
M  V30 9741 H 915.164 3.81813 -0.717736 0
M  V30 9742 H 916.836 3.25727 -3.26649 0
M  V30 9743 H 915.079 3.01355 -3.12038 0
M  V30 9744 H 915.75 4.64189 -2.98719 0
M  V30 9745 H 918.226 3.9922 -1.17314 0
M  V30 9746 H 917.102 5.37427 -1.11637 0
M  V30 9747 H 917.363 4.40884 0.327681 0
M  V30 9748 N 916.422 0.810101 1.35185 0
M  V30 9749 C 917.652 0.404109 2.02609 0
M  V30 9750 C 918.06 -0.990748 1.61186 0
M  V30 9751 O 917.403 -1.65038 0.80674 0
M  V30 9752 C 917.465 0.412047 3.57131 0
M  V30 9753 C 917.129 1.75802 4.21832 0
M  V30 9754 C 918.126 2.71687 4.43263 0
M  V30 9755 C 915.811 2.04299 4.58876 0
M  V30 9756 C 917.805 3.9425 5.00845 0
M  V30 9757 C 915.492 3.27125 5.16171 0
M  V30 9758 C 916.49 4.21918 5.37098 0
M  V30 9759 O 916.178 5.42576 5.93184 0
M  V30 9760 H 915.91 0.161914 0.656323 0
M  V30 9761 H 918.464 1.09605 1.73712 0
M  V30 9762 H 916.694 -0.336509 3.85233 0
M  V30 9763 H 918.383 0.0278817 4.0589 0
M  V30 9764 H 919.149 2.50964 4.15021 0
M  V30 9765 H 915.028 1.31324 4.41899 0
M  V30 9766 H 918.572 4.68251 5.17094 0
M  V30 9767 H 914.469 3.47718 5.43841 0
M  V30 9768 H 915.237 5.43921 6.11631 0
M  V30 9769 N 917.9 -1.47166 0.563914 0
M  V30 9770 C 919.13 -2.06546 0.0473599 0
M  V30 9771 C 919.538 -1.41607 -1.25476 0
M  V30 9772 O 918.881 -0.50894 -1.76509 0
M  V30 9773 C 918.943 -3.58873 -0.212249 0
M  V30 9774 C 918.607 -4.45893 1.00144 0
M  V30 9775 C 919.604 -4.83594 1.90873 0
M  V30 9776 C 917.289 -4.87309 1.218 0
M  V30 9777 C 919.283 -5.61519 3.01621 0
M  V30 9778 C 916.97 -5.64997 2.32856 0
M  V30 9779 C 917.968 -6.02013 3.22597 0
M  V30 9780 O 917.656 -6.78135 4.31727 0
M  V30 9781 H 917.388 -0.674441 0.0458823 0
M  V30 9782 H 919.942 -1.9006 0.778865 0
M  V30 9783 H 918.172 -3.73596 -0.998145 0
M  V30 9784 H 919.861 -4.00248 -0.675005 0
M  V30 9785 H 920.627 -4.52192 1.7535 0
M  V30 9786 H 916.506 -4.57959 0.528641 0
M  V30 9787 H 920.05 -5.90331 3.71693 0
M  V30 9788 H 915.947 -5.95813 2.48349 0
M  V30 9789 H 916.715 -6.96537 4.29859 0
M  V30 9790 N 919.378 -0.300708 -1.54705 0
M  V30 9791 C 920.789 0.191995 -1.8571 0
M  V30 9792 C 921.14 1.53447 -1.22264 0
M  V30 9793 O 920.265 2.10054 -0.520226 0
M  V30 9794 C 920.86 0.355148 -3.36933 0
M  V30 9795 C 919.419 0.792071 -3.67972 0
M  V30 9796 C 918.566 -0.099756 -2.77121 0
M  V30 9797 H 921.517 -0.521729 -1.49879 0
M  V30 9798 H 921.538 1.18977 -3.61421 0
M  V30 9799 H 921.05 -0.622075 -3.83082 0
M  V30 9800 H 919.151 1.77986 -3.27341 0
M  V30 9801 H 919.264 0.611661 -4.75179 0
M  V30 9802 H 917.628 0.420909 -2.51198 0
M  V30 9803 H 918.411 -1.07333 -3.2609 0
M  V30 9804 N 920.856 1.57574 -0.0284266 0
M  V30 9805 C 921.819 2.09096 0.938691 0
M  V30 9806 C 922.819 1.00588 1.25454 0
M  V30 9807 O 924.009 1.2675 1.19499 0
M  V30 9808 C 921.141 2.55624 2.25542 0
M  V30 9809 H 922.334 2.95829 0.49248 0
M  V30 9810 H 919.887 1.5475 0.219594 0
M  V30 9811 H 920.622 1.72218 2.74793 0
M  V30 9812 H 920.407 3.34896 2.03929 0
M  V30 9813 H 921.897 2.95712 2.94863 0
M  V30 9814 N 922.334 -0.244713 1.55689 0
M  V30 9815 C 923.745 -0.813603 1.6804 0
M  V30 9816 C 924.096 -1.85936 0.626281 0
M  V30 9817 O 923.221 -2.15206 -0.227038 0
M  V30 9818 C 923.816 -1.48252 3.04642 0
M  V30 9819 C 922.375 -1.99908 3.18926 0
M  V30 9820 C 921.522 -0.850958 2.6392 0
M  V30 9821 H 924.473 -0.0204805 1.58687 0
M  V30 9822 H 924.494 -2.35062 2.99209 0
M  V30 9823 H 924.006 -0.721164 3.81341 0
M  V30 9824 H 922.107 -2.78918 2.47054 0
M  V30 9825 H 922.22 -2.19497 4.25862 0
M  V30 9826 H 920.584 -1.25206 2.21801 0
M  V30 9827 H 921.367 -0.10265 3.43146 0
M  V30 9828 N 923.813 -1.49104 -0.510467 0
M  V30 9829 C 925.06 -1.58112 -1.26518 0
M  V30 9830 C 925.388 -0.263603 -1.92705 0
M  V30 9831 O 924.643 0.747743 -1.80852 0
M  V30 9832 C 924.942 -2.68259 -2.36161 0
M  V30 9833 C 924.608 -4.10069 -1.87495 0
M  V30 9834 C 923.27 -4.48662 -1.73942 0
M  V30 9835 C 925.622 -4.98859 -1.5096 0
M  V30 9836 C 922.95 -5.73829 -1.22217 0
M  V30 9837 C 925.302 -6.24535 -1.00691 0
M  V30 9838 C 923.966 -6.61967 -0.857691 0
M  V30 9839 H 923.236 -0.578574 -0.462962 0
M  V30 9840 H 925.883 -1.82899 -0.567475 0
M  V30 9841 H 924.188 -2.37407 -3.11681 0
M  V30 9842 H 925.885 -2.7244 -2.9424 0
M  V30 9843 H 922.475 -3.79601 -1.99001 0
M  V30 9844 H 926.659 -4.69706 -1.60282 0
M  V30 9845 H 921.915 -6.01539 -1.09368 0
M  V30 9846 H 926.089 -6.9272 -0.71498 0
M  V30 9847 H 923.716 -7.58839 -0.454702 0
M  V30 9848 N 925.291 0.760815 -1.38019 0
M  V30 9849 C 926.224 1.88212 -1.2904 0
M  V30 9850 C 927.202 1.61721 -0.168805 0
M  V30 9851 O 928.386 1.85318 -0.344893 0
M  V30 9852 C 925.513 3.23672 -0.997702 0
M  V30 9853 C 924.559 3.6906 -2.13769 0
M  V30 9854 S 925.392 3.81445 -3.75845 0
M  V30 9855 C 926.548 5.19736 -3.48748 0
M  V30 9856 H 926.781 1.95541 -2.23944 0
M  V30 9857 H 924.314 0.923051 -1.2377 0
M  V30 9858 H 926.272 4.01904 -0.835657 0
M  V30 9859 H 924.933 3.14031 -0.065967 0
M  V30 9860 H 924.126 4.67295 -1.88816 0
M  V30 9861 H 923.728 2.97961 -2.26043 0
M  V30 9862 H 926.02 6.05259 -3.04414 0
M  V30 9863 H 926.963 5.49706 -4.46351 0
M  V30 9864 H 927.371 4.88191 -2.83425 0
M  V30 9865 N 926.769 1.22769 0.988202 0
M  V30 9866 C 927.997 1.08155 1.76381 0
M  V30 9867 C 928.412 -0.367573 1.85187 0
M  V30 9868 O 927.769 -1.25455 1.32541 0
M  V30 9869 C 927.82 1.69193 3.19462 0
M  V30 9870 O 927.541 3.08437 3.11125 0
M  V30 9871 C 929.042 1.59915 4.13451 0
M  V30 9872 H 926.262 0.378908 0.553778 0
M  V30 9873 H 928.806 1.6246 1.24206 0
M  V30 9874 H 926.961 1.18939 3.6869 0
M  V30 9875 H 927.375 3.37916 4.0114 0
M  V30 9876 H 928.849 2.07339 5.1158 0
M  V30 9877 H 929.326 0.556546 4.3566 0
M  V30 9878 H 929.932 2.09497 3.70123 0
M  V30 9879 N 928.247 -1.18576 1.03814 0
M  V30 9880 C 929.195 -2.24166 0.620678 0
M  V30 9881 C 930.189 -1.65718 -0.351282 0
M  V30 9882 O 931.395 -1.78665 -0.218848 0
M  V30 9883 H 927.77 -0.729522 0.182487 0
M  V30 9884 H 929.741 -2.56686 1.52166 0
M  V30 9885 C 928.49 -3.477 -0.00307331 0
M  V30 9886 H 927.813 -3.92969 0.735874 0
M  V30 9887 H 929.253 -4.23214 -0.257988 0
M  V30 9888 C 927.712 -3.12757 -1.2524 0
M  V30 9889 O 928.242 -3.26261 -2.34344 0
M  V30 9890 N 926.448 -2.67104 -1.14471 0
M  V30 9891 H 925.995 -2.56316 -0.256873 0
M  V30 9892 H 925.953 -2.44096 -1.98153 0
M  V30 9893 N 929.725 -0.817259 -1.34754 0
M  V30 9894 C 930.635 -0.236946 -2.334 0
M  V30 9895 C 931.651 0.625685 -1.62361 0
M  V30 9896 O 932.827 0.534921 -1.94166 0
M  V30 9897 C 929.892 0.596215 -3.41535 0
M  V30 9898 C 928.953 -0.288154 -4.28332 0
M  V30 9899 C 928.186 0.505337 -5.31302 0
M  V30 9900 O 928.409 1.73912 -5.43241 0
M  V30 9901 O 927.343 -0.109374 -6.01801 0
M  V30 9902 H 931.169 -1.05327 -2.84851 0
M  V30 9903 H 928.754 -0.579275 -1.37713 0
M  V30 9904 H 930.636 1.07041 -4.07578 0
M  V30 9905 H 929.311 1.38997 -2.92338 0
M  V30 9906 H 928.218 -0.809724 -3.65232 0
M  V30 9907 H 929.551 -1.04612 -4.80955 0
M  V30 9908 N 931.203 1.46865 -0.571711 0
M  V30 9909 C 932.151 2.31897 0.180714 0
M  V30 9910 C 933.145 1.43815 0.895191 0
M  V30 9911 O 934.351 1.60501 0.814828 0
M  V30 9912 H 930.726 0.748032 0.077148 0
M  V30 9913 H 932.697 2.93185 -0.555432 0
M  V30 9914 C 931.446 3.26766 1.18824 0
M  V30 9915 H 930.769 3.94515 0.64789 0
M  V30 9916 H 932.209 3.89067 1.68532 0
M  V30 9917 C 930.668 2.51325 2.2436 0
M  V30 9918 O 931.198 2.26825 3.31532 0
M  V30 9919 N 929.404 2.12079 1.98673 0
M  V30 9920 H 928.951 2.32204 1.1153 0
M  V30 9921 H 928.909 1.61921 2.69498 0
M  V30 9922 N 932.681 0.308908 1.54543 0
M  V30 9923 C 933.611 -0.556657 2.26768 0
M  V30 9924 C 934.592 -1.13145 1.27013 0
M  V30 9925 O 935.777 -1.15931 1.558 0
M  V30 9926 C 932.907 -1.72481 3.01443 0
M  V30 9927 C 931.861 -1.28001 4.08411 0
M  V30 9928 C 931.187 -2.53395 4.70845 0
M  V30 9929 C 932.487 -0.405497 5.20724 0
M  V30 9930 H 934.181 0.0457618 2.99365 0
M  V30 9931 H 931.727 0.0234495 1.43981 0
M  V30 9932 H 933.68 -2.3365 3.50693 0
M  V30 9933 H 932.404 -2.35359 2.26437 0
M  V30 9934 H 931.063 -0.69133 3.60022 0
M  V30 9935 H 930.711 -3.14604 3.92471 0
M  V30 9936 H 930.411 -2.2433 5.43093 0
M  V30 9937 H 931.935 -3.15352 5.22863 0
M  V30 9938 H 933.349 -0.923076 5.6582 0
M  V30 9939 H 931.746 -0.208282 5.99738 0
M  V30 9940 H 932.816 0.567412 4.81569 0
M  V30 9941 N 934.159 -1.57557 0.0367827 0
M  V30 9942 C 935.436 -1.83427 -0.679261 0
M  V30 9943 C 935.816 -0.922274 -1.89888 0
M  V30 9944 O 935.164 0.02025 -2.28491 0
M  V30 9945 C 935.374 -3.32823 -1.05022 0
M  V30 9946 C 936.722 -3.99486 -1.43861 0
M  V30 9947 O 937.746 -3.37364 -1.14297 0
M  V30 9948 O 936.605 -5.0899 -1.98977 0
M  V30 9949 H 933.699 -0.756581 -0.333936 0
M  V30 9950 H 936.245 -1.69575 0.0650494 0
M  V30 9951 H 935.017 -3.90874 -0.182509 0
M  V30 9952 H 934.64 -3.5181 -1.85244 0
M  V30 9953 N 935.637 0.236453 -1.55816 0
M  V30 9954 C 936.57 1.3196 -1.86177 0
M  V30 9955 C 937.548 1.459 -0.717769 0
M  V30 9956 O 938.732 1.61949 -0.964606 0
M  V30 9957 C 935.859 2.69183 -2.05568 0
M  V30 9958 C 934.905 2.72338 -3.28229 0
M  V30 9959 S 935.738 2.27898 -4.84585 0
M  V30 9960 C 936.894 3.67025 -5.06994 0
M  V30 9961 H 937.127 1.06011 -2.77757 0
M  V30 9962 H 934.66 0.437961 -1.48058 0
M  V30 9963 H 936.618 3.48191 -2.17423 0
M  V30 9964 H 935.279 2.92365 -1.14811 0
M  V30 9965 H 934.472 3.7314 -3.38795 0
M  V30 9966 H 934.074 2.01382 -3.15153 0
M  V30 9967 H 936.366 4.62604 -4.94979 0
M  V30 9968 H 937.309 3.61385 -6.08939 0
M  V30 9969 H 937.717 3.60022 -4.34792 0
M  V30 9970 N 937.115 1.49373 0.502552 0
M  V30 9971 C 938.345 1.62252 1.27898 0
M  V30 9972 C 938.753 0.292555 1.86924 0
M  V30 9973 O 938.096 -0.731823 1.68493 0
M  V30 9974 C 938.158 2.63153 2.4493 0
M  V30 9975 C 937.822 4.07541 2.06784 0
M  V30 9976 C 938.819 4.94392 1.60849 0
M  V30 9977 C 936.504 4.53263 2.16466 0
M  V30 9978 C 938.498 6.25003 1.25098 0
M  V30 9979 C 936.185 5.83888 1.80327 0
M  V30 9980 C 937.183 6.69582 1.34718 0
M  V30 9981 O 936.871 7.97773 0.990661 0
M  V30 9982 H 936.603 0.54918 0.394179 0
M  V30 9983 H 939.157 1.96132 0.610031 0
M  V30 9984 H 937.387 2.2445 3.14895 0
M  V30 9985 H 939.076 2.65578 3.06957 0
M  V30 9986 H 939.842 4.60296 1.52816 0
M  V30 9987 H 935.721 3.86731 2.50919 0
M  V30 9988 H 939.265 6.91844 0.894269 0
M  V30 9989 H 935.162 6.17513 1.8801 0
M  V30 9990 H 935.93 8.1077 1.12227 0
M  V30 9991 N 938.594 -0.753485 1.38421 0
M  V30 9992 C 939.526 -1.87692 1.31547 0
M  V30 9993 C 940.539 -1.612 0.227671 0
M  V30 9994 O 941.728 -1.71778 0.485238 0
M  V30 9995 C 938.828 -3.23329 1.01545 0
M  V30 9996 C 938.001 -3.77324 2.21236 0
M  V30 9997 C 937.06 -4.91478 1.87977 0
M  V30 9998 O 936.086 -5.06106 2.60472 0
M  V30 9999 N 937.288 -5.74466 0.834796 0
M  V30 10000 H 940.053 -1.94099 2.28354 0
M  V30 10001 H 937.614 -0.933421 1.32283 0
M  V30 10002 H 939.606 -3.9724 0.773477 0
M  V30 10003 H 938.176 -3.12307 0.135334 0
M  V30 10004 H 937.396 -2.94978 2.61498 0
M  V30 10005 H 938.684 -4.10131 3.01115 0
M  V30 10006 H 938.082 -5.65217 0.233606 0
M  V30 10007 H 936.639 -6.48524 0.652703 0
M  V30 10008 N 940.072 -1.23292 -0.981677 0
M  V30 10009 C 941.349 -0.972514 -1.6971 0
M  V30 10010 C 941.729 0.509244 -2.04866 0
M  V30 10011 O 941.077 1.48013 -1.74082 0
M  V30 10012 C 941.287 -1.88144 -2.93943 0
M  V30 10013 C 942.635 -2.14416 -3.66485 0
M  V30 10014 O 943.659 -1.85684 -3.03974 0
M  V30 10015 O 942.518 -2.63139 -4.78978 0
M  V30 10016 H 939.612 -0.366673 -0.741269 0
M  V30 10017 H 942.158 -1.34328 -1.03701 0
M  V30 10018 H 940.93 -2.8832 -2.64551 0
M  V30 10019 H 940.553 -1.51296 -3.67689 0
M  V30 10020 N 941.55 1.18024 -1.04442 0
M  V30 10021 C 942.513 2.19992 -0.643136 0
M  V30 10022 C 943.513 1.57949 0.301444 0
M  V30 10023 O 944.703 1.73986 0.0863341 0
M  V30 10024 C 941.835 3.40853 0.0565208 0
M  V30 10025 H 943.028 2.57008 -1.54554 0
M  V30 10026 H 940.581 1.31974 -0.837408 0
M  V30 10027 H 941.316 3.09373 0.972553 0
M  V30 10028 H 941.101 3.87128 -0.622439 0
M  V30 10029 H 942.591 4.16344 0.323652 0
M  V30 10030 N 943.028 0.824394 1.34319 0
M  V30 10031 C 944.258 0.425576 2.02169 0
M  V30 10032 C 944.666 -0.973596 1.62227 0
M  V30 10033 O 944.009 -1.64173 0.824199 0
M  V30 10034 C 944.071 0.449902 3.56674 0
M  V30 10035 C 943.735 1.80266 4.19944 0
M  V30 10036 C 944.732 2.76373 4.40357 0
M  V30 10037 C 942.417 2.09155 4.56683 0
M  V30 10038 C 944.411 3.9954 4.96635 0
M  V30 10039 C 942.098 3.32581 5.12672 0
M  V30 10040 C 943.096 4.27591 5.32592 0
M  V30 10041 O 942.784 5.48837 5.87395 0
M  V30 10042 H 942.516 0.168866 0.654569 0
M  V30 10043 H 945.07 1.11441 1.7254 0
M  V30 10044 H 943.3 -0.295631 3.85568 0
M  V30 10045 H 944.989 0.0709302 4.05838 0
M  V30 10046 H 945.755 2.55351 4.12336 0
M  V30 10047 H 941.634 1.36004 4.40481 0
M  V30 10048 H 945.178 4.73709 5.12099 0
M  V30 10049 H 941.075 3.53466 5.40122 0
M  V30 10050 H 941.843 5.50377 6.05828 0
M  V30 10051 N 944.506 -1.46559 0.579492 0
M  V30 10052 C 945.783 -1.956 -0.00287136 0
M  V30 10053 C 946.163 -1.52215 -1.46266 0
M  V30 10054 O 945.511 -0.771335 -2.15088 0
M  V30 10055 C 945.721 -3.48606 0.165824 0
M  V30 10056 C 947.069 -4.24588 0.0319807 0
M  V30 10057 O 948.093 -3.56075 0.094496 0
M  V30 10058 O 946.952 -5.46396 -0.106386 0
M  V30 10059 H 944.046 -0.825387 -0.0516274 0
M  V30 10060 H 946.592 -1.56858 0.647584 0
M  V30 10061 H 945.364 -3.7306 1.18076 0
M  V30 10062 H 944.987 -3.94169 -0.521212 0
M  V30 10063 N 945.984 -0.3171 -1.54377 0
M  V30 10064 C 947.233 0.288271 -1.99629 0
M  V30 10065 C 947.546 1.53754 -1.2091 0
M  V30 10066 O 948.752 2.2185 -1.56508 0
M  V30 10067 C 947.208 0.564188 -3.5545 0
M  V30 10068 C 946.816 -0.667659 -4.42997 0
M  V30 10069 C 948.56 1.12987 -4.09187 0
M  V30 10070 C 946.467 -0.364003 -5.90279 0
M  V30 10071 H 945.397 0.111492 -0.745711 0
M  V30 10072 H 948.048 -0.428317 -1.78431 0
M  V30 10073 H 946.43 1.34079 -3.72611 0
M  V30 10074 H 947.604 -1.44335 -4.37612 0
M  V30 10075 H 945.919 -1.1531 -4.00116 0
M  V30 10076 H 948.516 1.37157 -5.1681 0
M  V30 10077 H 948.859 2.07722 -3.60773 0
M  V30 10078 H 949.392 0.414595 -3.95634 0
M  V30 10079 H 946.131 -1.28035 -6.42874 0
M  V30 10080 H 945.651 0.374102 -5.98632 0
M  V30 10081 H 947.33 0.0285433 -6.46994 0
M  V30 10082 N 947.462 1.57535 -0.0451378 0
M  V30 10083 C 948.71 1.92071 0.628743 0
M  V30 10084 C 949.031 0.923635 1.71738 0
M  V30 10085 O 948.301 -0.0324376 1.95873 0
M  V30 10086 H 946.881 0.708995 0.235233 0
M  V30 10087 H 949.543 1.9466 -0.0967177 0
M  V30 10088 H 948.639 2.9314 1.07123 0
M  V30 10089 N 948.94 -0.228186 1.55939 0
M  V30 10090 C 950.351 -0.795734 1.68893 0
M  V30 10091 C 950.702 -1.85261 0.645967 0
M  V30 10092 O 949.827 -2.15434 -0.2042 0
M  V30 10093 C 950.422 -1.45013 3.06197 0
M  V30 10094 C 948.981 -1.96514 3.21028 0
M  V30 10095 C 948.128 -0.822918 2.64808 0
M  V30 10096 H 951.079 -0.0036485 1.587 0
M  V30 10097 H 951.1 -2.31875 3.01685 0
M  V30 10098 H 950.612 -0.680678 3.82084 0
M  V30 10099 H 948.713 -2.76282 2.49998 0
M  V30 10100 H 948.826 -2.14967 4.28166 0
M  V30 10101 H 947.19 -1.22846 2.23116 0
M  V30 10102 H 947.973 -0.0662493 3.43236 0
M  V30 10103 N 950.418 -1.49637 -0.494624 0
M  V30 10104 C 951.328 -1.69522 -1.62172 0
M  V30 10105 C 952.344 -0.577894 -1.64123 0
M  V30 10106 O 953.52 -0.853382 -1.82426 0
M  V30 10107 C 950.585 -1.7633 -2.9851 0
M  V30 10108 C 949.646 -2.99944 -3.07135 0
M  V30 10109 C 948.879 -3.06419 -4.36971 0
M  V30 10110 O 949.102 -2.20312 -5.26136 0
M  V30 10111 O 948.036 -3.9894 -4.507 0
M  V30 10112 H 951.862 -2.65017 -1.48324 0
M  V30 10113 H 949.447 -1.33454 -0.671603 0
M  V30 10114 H 951.329 -1.83125 -3.7953 0
M  V30 10115 H 950.004 -0.840155 -3.12607 0
M  V30 10116 H 948.911 -2.98664 -2.2528 0
M  V30 10117 H 950.244 -3.9176 -2.97968 0
M  V30 10118 N 951.896 0.746133 -1.38819 0
M  V30 10119 C 952.843 1.86001 -1.36647 0
M  V30 10120 C 953.813 1.6453 -0.227849 0
M  V30 10121 O 954.998 1.86092 -0.421241 0
M  V30 10122 C 952.138 3.23388 -1.20474 0
M  V30 10123 C 951.251 3.5664 -2.43786 0
M  V30 10124 C 950.386 4.8337 -2.20287 0
M  V30 10125 C 949.425 5.09431 -3.39332 0
M  V30 10126 N 948.562 6.2736 -3.1522 0
M  V30 10127 H 953.402 1.87192 -2.31869 0
M  V30 10128 H 950.939 0.914838 -1.15192 0
M  V30 10129 H 952.897 4.02679 -1.09112 0
M  V30 10130 H 951.527 3.21505 -0.288874 0
M  V30 10131 H 950.579 2.72135 -2.65794 0
M  V30 10132 H 951.891 3.71823 -3.3249 0
M  V30 10133 H 951.045 5.70619 -2.06103 0
M  V30 10134 H 949.784 4.70341 -1.28961 0
M  V30 10135 H 948.789 4.20648 -3.54027 0
M  V30 10136 H 950.014 5.24354 -4.31544 0
M  V30 10137 H 947.96 6.15639 -2.26549 0
M  V30 10138 H 947.877 6.43078 -3.97476 0
M  V30 10139 H 949.145 7.17477 -3.04707 0
M  V30 10140 N 953.375 1.23811 0.975125 0
M  V30 10141 C 954.624 1.06741 1.71141 0
M  V30 10142 C 954.937 -0.394986 1.9157 0
M  V30 10143 O 956.143 -0.685723 2.62698 0
M  V30 10144 C 954.599 1.86168 3.08009 0
M  V30 10145 C 954.207 3.36771 2.95448 0
M  V30 10146 C 955.951 1.77604 3.85561 0
M  V30 10147 C 953.858 4.0857 4.2758 0
M  V30 10148 H 952.788 0.395819 0.64175 0
M  V30 10149 H 955.439 1.47825 1.0872 0
M  V30 10150 H 953.821 1.37893 3.71216 0
M  V30 10151 H 954.995 3.92571 2.41298 0
M  V30 10152 H 953.31 3.46205 2.31368 0
M  V30 10153 H 955.907 2.28556 4.83391 0
M  V30 10154 H 956.25 0.739837 4.09673 0
M  V30 10155 H 956.783 2.23519 3.29065 0
M  V30 10156 H 953.522 5.12518 4.08663 0
M  V30 10157 H 953.042 3.57556 4.81574 0
M  V30 10158 H 954.721 4.15157 4.9624 0
M  V30 10159 N 954.853 -1.17469 1.05066 0
M  V30 10160 C 956.102 -1.87032 0.755114 0
M  V30 10161 C 956.415 -1.81844 -0.720572 0
M  V30 10162 O 957.621 -2.46866 -1.13002 0
M  V30 10163 C 956.077 -3.35581 1.30052 0
M  V30 10164 C 955.685 -3.49274 2.80556 0
M  V30 10165 C 957.429 -4.1048 1.08196 0
M  V30 10166 C 955.336 -4.91838 3.28404 0
M  V30 10167 H 954.266 -0.70057 0.278779 0
M  V30 10168 H 956.917 -1.32663 1.26779 0
M  V30 10169 H 955.299 -3.89479 0.715667 0
M  V30 10170 H 956.473 -3.05598 3.44886 0
M  V30 10171 H 954.788 -2.87793 3.00939 0
M  V30 10172 H 957.385 -5.15652 1.41447 0
M  V30 10173 H 957.728 -4.16295 0.0196603 0
M  V30 10174 H 958.261 -3.62784 1.63195 0
M  V30 10175 H 955 -4.91196 4.34058 0
M  V30 10176 H 954.52 -5.36189 2.68815 0
M  V30 10177 H 956.199 -5.60602 3.23009 0
M  V30 10178 N 956.331 -0.831506 -1.3388 0
M  V30 10179 C 957.608 -0.345907 -1.92517 0
M  V30 10180 C 957.988 1.16784 -1.75854 0
M  V30 10181 O 957.336 1.97889 -1.14245 0
M  V30 10182 C 957.546 -0.784692 -3.40064 0
M  V30 10183 C 958.894 -0.78846 -4.17215 0
M  V30 10184 O 959.918 -0.727823 -3.48685 0
M  V30 10185 O 958.777 -0.869481 -5.39539 0
M  V30 10186 H 955.871 -0.0963568 -0.821367 0
M  V30 10187 H 958.417 -0.916868 -1.42799 0
M  V30 10188 H 957.189 -1.82697 -3.46031 0
M  V30 10189 H 956.812 -0.189897 -3.97146 0
M  V30 10190 N 957.809 1.4625 -0.587256 0
M  V30 10191 C 959.037 2.06744 -0.08033 0
M  V30 10192 C 959.452 1.43527 1.2266 0
M  V30 10193 O 958.809 0.542168 1.74261 0
M  V30 10194 C 958.86 3.61394 0.0873469 0
M  V30 10195 O 958.581 4.22247 -1.16785 0
M  V30 10196 C 960.082 4.38828 0.628095 0
M  V30 10197 H 957.302 0.668354 -0.0595301 0
M  V30 10198 H 959.846 1.87808 -0.809217 0
M  V30 10199 H 958.001 3.79742 0.766473 0
M  V30 10200 H 958.415 5.15176 -0.984565 0
M  V30 10201 H 959.889 5.47613 0.694583 0
M  V30 10202 H 960.366 4.07188 1.64606 0
M  V30 10203 H 960.972 4.25297 -0.0163115 0
M  V30 10204 N 959.287 0.325282 1.54207 0
M  V30 10205 C 960.517 -0.278285 2.04717 0
M  V30 10206 C 960.925 -1.46198 1.20095 0
M  V30 10207 O 960.268 -1.82319 0.224813 0
M  V30 10208 C 960.33 -0.774387 3.51061 0
M  V30 10209 C 959.994 0.287225 4.56096 0
M  V30 10210 C 960.991 1.12388 5.07607 0
M  V30 10211 C 958.676 0.435908 5.00405 0
M  V30 10212 C 960.67 2.09492 6.0199 0
M  V30 10213 C 958.357 1.41037 5.94602 0
M  V30 10214 C 959.355 2.23834 6.45281 0
M  V30 10215 O 959.043 3.19625 7.37628 0
M  V30 10216 H 958.775 -0.0608309 0.673257 0
M  V30 10217 H 961.329 0.470049 1.99949 0
M  V30 10218 H 959.559 -1.57366 3.53232 0
M  V30 10219 H 961.248 -1.29649 3.84637 0
M  V30 10220 H 962.014 1.02 4.74153 0
M  V30 10221 H 957.893 -0.198668 4.60572 0
M  V30 10222 H 961.437 2.74157 6.4147 0
M  V30 10223 H 957.334 1.51487 6.27473 0
M  V30 10224 H 958.102 3.14884 7.55507 0
M  V30 10225 N 960.765 -1.57509 0.0534917 0
M  V30 10226 C 961.728 -2.10563 -0.905307 0
M  V30 10227 C 962.728 -1.02571 -1.23838 0
M  V30 10228 O 963.918 -1.28635 -1.17468 0
M  V30 10229 C 961.05 -2.5918 -2.21447 0
M  V30 10230 H 962.243 -2.96575 -0.445354 0
M  V30 10231 H 959.796 -1.55079 -0.194947 0
M  V30 10232 H 960.531 -1.76568 -2.72019 0
M  V30 10233 H 960.316 -3.38098 -1.98575 0
M  V30 10234 H 961.806 -3.00365 -2.90122 0
M  V30 10235 N 962.243 0.219913 -1.56058 0
M  V30 10236 C 963.153 1.29349 -1.95719 0
M  V30 10237 C 964.169 1.5119 -0.861248 0
M  V30 10238 O 965.345 1.64289 -1.16495 0
M  V30 10239 C 962.41 2.6229 -2.26726 0
M  V30 10240 C 961.471 2.48738 -3.49897 0
M  V30 10241 C 960.704 3.75339 -3.79416 0
M  V30 10242 O 960.927 4.78427 -3.10586 0
M  V30 10243 O 959.861 3.72352 -4.72903 0
M  V30 10244 H 963.687 0.986979 -2.87215 0
M  V30 10245 H 961.272 0.42291 -1.43289 0
M  V30 10246 H 963.154 3.408 -2.47857 0
M  V30 10247 H 961.829 2.92619 -1.38404 0
M  V30 10248 H 960.736 1.68422 -3.34043 0
M  V30 10249 H 962.069 2.23347 -4.38608 0
M  V30 10250 N 963.721 1.49897 0.486681 0
M  V30 10251 C 964.684 1.67086 1.56891 0
M  V30 10252 C 965.684 0.54209 1.51387 0
M  V30 10253 O 966.874 0.80883 1.54284 0
M  V30 10254 C 964.006 1.68159 2.96539 0
M  V30 10255 H 965.199 2.63626 1.42974 0
M  V30 10256 H 962.752 1.39143 0.711954 0
M  V30 10257 H 963.487 0.732562 3.15918 0
M  V30 10258 H 963.272 2.50147 3.01942 0
M  V30 10259 H 964.762 1.83466 3.7514 0
M  V30 10260 N 965.199 -0.738761 1.39212 0
M  V30 10261 C 966.427 -1.52801 1.39497 0
M  V30 10262 C 966.842 -1.88797 -0.0114917 0
M  V30 10263 O 966.199 -1.53835 -0.981887 0
M  V30 10264 C 966.25 -2.81793 2.2644 0
M  V30 10265 O 965.971 -2.47328 3.61608 0
M  V30 10266 C 967.472 -3.75844 2.35067 0
M  V30 10267 H 964.692 -0.472322 0.476606 0
M  V30 10268 H 967.236 -0.913153 1.8298 0
M  V30 10269 H 965.391 -3.3962 1.8638 0
M  V30 10270 H 965.805 -3.30162 4.07545 0
M  V30 10271 H 967.279 -4.6326 3.00157 0
M  V30 10272 H 967.756 -4.17329 1.3687 0
M  V30 10273 H 968.362 -3.23937 2.75581 0
M  V30 10274 N 966.677 -1.24326 -0.968545 0
M  V30 10275 C 968.093 -1.00847 -1.23701 0
M  V30 10276 C 968.293 0.283235 -1.99499 0
M  V30 10277 O 967.349 0.999607 -2.31871 0
M  V30 10278 C 968.662 -2.22295 -2.02498 0
M  V30 10279 C 970.21 -2.26911 -2.15593 0
M  V30 10280 C 970.685 -3.47978 -2.97784 0
M  V30 10281 N 972.176 -3.48289 -3.05367 0
M  V30 10282 C 972.911 -4.38625 -3.69318 0
M  V30 10283 N 972.407 -5.39213 -4.34995 0
M  V30 10284 N 974.2 -4.26339 -3.66322 0
M  V30 10285 H 966.351 -2.07335 -0.461087 0
M  V30 10286 H 968.614 -0.909805 -0.26638 0
M  V30 10287 H 968.32 -3.161 -1.54188 0
M  V30 10288 H 968.194 -2.24344 -3.03232 0
M  V30 10289 H 970.581 -1.33639 -2.63106 0
M  V30 10290 H 970.662 -2.28888 -1.14209 0
M  V30 10291 H 970.306 -4.41564 -2.50965 0
M  V30 10292 H 970.236 -3.43244 -3.99364 0
M  V30 10293 H 972.727 -2.75517 -2.58648 0
M  V30 10294 H 973.04 -6.04378 -4.81608 0
M  V30 10295 H 971.385 -5.43101 -4.33667 0
M  V30 10296 H 974.576 -3.46991 -3.14189 0
M  V30 10297 H 974.749 -4.9694 -4.15878 0
M  V30 10298 N 968.156 1.1691 -1.05688 0
M  V30 10299 C 969.106 2.19056 -0.632339 0
M  V30 10300 C 970.09 1.574 0.333797 0
M  V30 10301 O 971.282 1.76361 0.150223 0
M  V30 10302 C 968.411 3.43297 -0.0138209 0
M  V30 10303 C 967.497 4.12042 -1.00408 0
M  V30 10304 N 967.888 4.56535 -2.17737 0
M  V30 10305 C 966.186 4.38139 -0.833663 0
M  V30 10306 C 966.887 5.09644 -2.80425 0
M  V30 10307 N 965.863 5.02153 -2.08191 0
M  V30 10308 H 969.665 2.51165 -1.52621 0
M  V30 10309 H 967.179 1.33294 -0.927707 0
M  V30 10310 H 969.176 4.1576 0.308117 0
M  V30 10311 H 967.836 3.12677 0.87538 0
M  V30 10312 H 968.847 4.50463 -2.55546 0
M  V30 10313 H 965.524 4.175 0.00406684 0
M  V30 10314 H 966.914 5.54153 -3.79952 0
M  V30 10315 N 969.634 0.838594 1.33437 0
M  V30 10316 C 970.88 0.434813 1.98084 0
M  V30 10317 C 971.213 -1.00331 1.66275 0
M  V30 10318 O 970.488 -1.70139 0.942501 0
M  V30 10319 C 970.771 0.655602 3.54082 0
M  V30 10320 C 970.624 2.14097 3.95578 0
M  V30 10321 C 971.943 0.101576 4.39983 0
M  V30 10322 H 969.062 0.159456 0.719544 0
M  V30 10323 H 971.704 1.05406 1.58081 0
M  V30 10324 H 969.854 0.128501 3.88287 0
M  V30 10325 H 971.526 2.73292 3.71631 0
M  V30 10326 H 969.769 2.62558 3.4532 0
M  V30 10327 H 970.44 2.24621 5.04231 0
M  V30 10328 H 972.916 0.552122 4.12421 0
M  V30 10329 H 971.792 0.28575 5.48156 0
M  V30 10330 H 972.053 -0.994616 4.30767 0
M  V30 10331 N 971.112 -1.45937 0.595003 0
M  V30 10332 C 972.389 -1.95592 0.0178748 0
M  V30 10333 C 972.769 -1.53758 -1.44643 0
M  V30 10334 O 972.117 -0.794104 -2.14257 0
M  V30 10335 C 972.327 -3.4841 0.202789 0
M  V30 10336 C 973.675 -4.2453 0.0770121 0
M  V30 10337 O 974.699 -3.55954 0.132257 0
M  V30 10338 O 973.558 -5.46479 -0.0484271 0
M  V30 10339 H 970.652 -0.825888 -0.0428702 0
M  V30 10340 H 973.198 -1.56162 0.664184 0
M  V30 10341 H 971.97 -3.71787 1.22027 0
M  V30 10342 H 971.593 -3.947 -0.479376 0
M  V30 10343 N 972.59 -0.333456 -1.54032 0
M  V30 10344 C 973.522 0.562174 -2.22199 0
M  V30 10345 C 974.535 1.07202 -1.22522 0
M  V30 10346 O 975.724 0.983897 -1.48935 0
M  V30 10347 C 972.824 1.78525 -2.88066 0
M  V30 10348 C 971.997 1.41242 -4.13968 0
M  V30 10349 C 971.056 2.49408 -4.63338 0
M  V30 10350 O 970.082 2.13138 -5.27789 0
M  V30 10351 N 971.284 3.805 -4.38406 0
M  V30 10352 H 974.049 -0.0215629 -2.99692 0
M  V30 10353 H 971.61 -0.157111 -1.61136 0
M  V30 10354 H 973.602 2.50298 -3.18014 0
M  V30 10355 H 972.172 2.2766 -2.14219 0
M  V30 10356 H 971.392 0.525887 -3.90676 0
M  V30 10357 H 972.68 1.13916 -4.95884 0
M  V30 10358 H 972.078 4.12761 -3.86839 0
M  V30 10359 H 970.635 4.48474 -4.72984 0
M  V30 10360 N 974.068 1.57479 -0.061844 0
M  V30 10361 C 975.316 1.92727 0.608336 0
M  V30 10362 C 975.637 0.941799 1.70749 0
M  V30 10363 O 974.907 -0.0116608 1.95897 0
M  V30 10364 H 973.487 0.71145 0.2277 0
M  V30 10365 H 976.149 1.94546 -0.117359 0
M  V30 10366 H 975.245 2.9426 1.04007 0
M  V30 10367 N 975.546 -0.211634 1.56173 0
M  V30 10368 C 976.476 -1.26533 1.96244 0
M  V30 10369 C 977.457 -1.48362 0.832028 0
M  V30 10370 O 978.642 -1.60378 1.0951 0
M  V30 10371 C 975.772 -2.61307 2.2877 0
M  V30 10372 C 974.726 -2.54119 3.44395 0
M  V30 10373 C 974.052 -3.93014 3.62552 0
M  V30 10374 C 975.352 -2.08046 4.79076 0
M  V30 10375 H 977.046 -0.932407 2.84511 0
M  V30 10376 H 974.592 -0.447084 1.36884 0
M  V30 10377 H 976.545 -3.35188 2.55396 0
M  V30 10378 H 975.269 -2.96307 1.37367 0
M  V30 10379 H 973.928 -1.82694 3.17834 0
M  V30 10380 H 973.576 -4.25338 2.68508 0
M  V30 10381 H 973.276 -3.89083 4.40327 0
M  V30 10382 H 974.8 -4.68542 3.91537 0
M  V30 10383 H 976.214 -2.71676 5.04842 0
M  V30 10384 H 974.611 -2.15154 5.60204 0
M  V30 10385 H 975.681 -1.03306 4.73768 0
M  V30 10386 N 977.024 -1.50153 -0.478725 0
M  V30 10387 C 978.249 -1.64776 -1.2595 0
M  V30 10388 C 978.674 -0.327794 -1.85222 0
M  V30 10389 O 978.032 0.707418 -1.66929 0
M  V30 10390 C 978.08 -2.73551 -2.34952 0
M  V30 10391 O 977.184 -2.34273 -3.39397 0
M  V30 10392 H 976.525 -0.550769 -0.370877 0
M  V30 10393 H 979.055 -1.96482 -0.570605 0
M  V30 10394 H 979.065 -2.96397 -2.8038 0
M  V30 10395 H 977.74 -3.69354 -1.91181 0
M  V30 10396 H 976.317 -2.21844 -2.99733 0
M  V30 10397 N 978.502 0.731368 -1.39602 0
M  V30 10398 C 979.432 1.85855 -1.41351 0
M  V30 10399 C 980.413 1.67839 -0.2764 0
M  V30 10400 O 981.598 1.88104 -0.482747 0
M  V30 10401 C 978.728 3.23644 -1.25983 0
M  V30 10402 C 977.682 3.56304 -2.37132 0
M  V30 10403 C 977.008 4.93069 -2.0685 0
M  V30 10404 C 978.308 3.58906 -3.79452 0
M  V30 10405 H 980.002 1.84648 -2.3568 0
M  V30 10406 H 977.548 0.886955 -1.13442 0
M  V30 10407 H 979.501 4.02176 -1.25826 0
M  V30 10408 H 978.225 3.25387 -0.281234 0
M  V30 10409 H 976.884 2.80104 -2.36511 0
M  V30 10410 H 976.532 4.91396 -1.0742 0
M  V30 10411 H 976.232 5.15888 -2.81306 0
M  V30 10412 H 977.756 5.73953 -2.0835 0
M  V30 10413 H 979.17 4.27508 -3.81982 0
M  V30 10414 H 977.567 3.93246 -4.53297 0
M  V30 10415 H 978.637 2.58631 -4.10168 0
M  V30 10416 N 979.98 1.24838 0.961938 0
M  V30 10417 C 981.208 1.11871 1.74047 0
M  V30 10418 C 981.623 -0.328209 1.85925 0
M  V30 10419 O 980.98 -1.22616 1.35173 0
M  V30 10420 C 981.031 1.75931 3.15801 0
M  V30 10421 O 980.752 3.14967 3.04512 0
M  V30 10422 C 982.253 1.68649 4.09966 0
M  V30 10423 H 979.473 0.390569 0.545616 0
M  V30 10424 H 982.017 1.65058 1.20732 0
M  V30 10425 H 980.172 1.26733 3.66084 0
M  V30 10426 H 980.586 3.46349 3.93882 0
M  V30 10427 H 982.06 2.18144 5.07067 0
M  V30 10428 H 982.537 0.648831 4.34381 0
M  V30 10429 H 983.143 2.17301 3.65596 0
M  V30 10430 N 981.458 -1.16348 1.06306 0
M  V30 10431 C 982.388 -2.2291 0.695234 0
M  V30 10432 C 983.369 -1.67208 -0.312343 0
M  V30 10433 O 984.554 -1.93293 -0.187442 0
M  V30 10434 C 981.684 -3.47205 0.0810149 0
M  V30 10435 C 980.638 -4.15801 1.01458 0
M  V30 10436 C 979.964 -5.3405 0.263656 0
M  V30 10437 C 981.264 -4.66766 2.34365 0
M  V30 10438 H 982.958 -2.53934 1.58613 0
M  V30 10439 H 980.504 -1.22056 0.76409 0
M  V30 10440 H 982.457 -4.2098 -0.18818 0
M  V30 10441 H 981.181 -3.15482 -0.844897 0
M  V30 10442 H 979.84 -3.43954 1.26852 0
M  V30 10443 H 979.488 -4.9858 -0.665378 0
M  V30 10444 H 979.188 -5.80885 0.88582 0
M  V30 10445 H 980.712 -6.106 0.00200994 0
M  V30 10446 H 982.126 -5.3212 2.13356 0
M  V30 10447 H 980.523 -5.24223 2.9208 0
M  V30 10448 H 981.593 -3.82969 2.97426 0
M  V30 10449 N 982.937 -0.845659 -1.3299 0
M  V30 10450 C 984.184 -0.444653 -1.97558 0
M  V30 10451 C 984.512 0.997682 -1.66963 0
M  V30 10452 O 983.767 1.71349 -0.94541 0
M  V30 10453 C 984.066 -0.6201 -3.51979 0
M  V30 10454 C 983.732 -2.03155 -4.02541 0
M  V30 10455 C 982.394 -2.4176 -4.16059 0
M  V30 10456 C 984.746 -2.95317 -4.29462 0
M  V30 10457 C 982.074 -3.71818 -4.53837 0
M  V30 10458 C 984.426 -4.24863 -4.68694 0
M  V30 10459 C 983.09 -4.63416 -4.80419 0
M  V30 10460 H 982.36 -0.16271 -0.722915 0
M  V30 10461 H 985.007 -1.07399 -1.58549 0
M  V30 10462 H 983.312 0.092513 -3.91691 0
M  V30 10463 H 985.009 -0.290012 -3.9995 0
M  V30 10464 H 981.599 -1.72174 -3.92497 0
M  V30 10465 H 985.783 -2.66726 -4.18534 0
M  V30 10466 H 981.039 -4.01484 -4.61108 0
M  V30 10467 H 985.213 -4.96347 -4.8848 0
M  V30 10468 H 982.84 -5.6424 -5.09448 0
M  V30 10469 N 984.415 1.45619 -0.602734 0
M  V30 10470 C 985.662 2.02272 -0.0960337 0
M  V30 10471 C 985.99 1.47177 1.27159 0
M  V30 10472 O 985.245 0.634593 1.85125 0
M  V30 10473 C 985.544 3.574 -0.00157909 0
M  V30 10474 C 985.21 4.31626 -1.30422 0
M  V30 10475 C 983.872 4.51622 -1.66106 0
M  V30 10476 C 986.224 4.74091 -2.16535 0
M  V30 10477 C 983.552 5.11338 -2.87663 0
M  V30 10478 C 985.904 5.35151 -3.37336 0
M  V30 10479 C 984.568 5.53371 -3.73278 0
M  V30 10480 H 983.838 0.740166 -0.0351412 0
M  V30 10481 H 986.485 1.74744 -0.783382 0
M  V30 10482 H 984.79 3.84179 0.769008 0
M  V30 10483 H 986.487 3.98934 0.406549 0
M  V30 10484 H 983.077 4.16372 -1.01647 0
M  V30 10485 H 987.261 4.5838 -1.90266 0
M  V30 10486 H 982.517 5.23634 -3.15622 0
M  V30 10487 H 986.691 5.67011 -4.04316 0
M  V30 10488 H 984.318 5.99412 -4.67556 0
M  V30 10489 N 985.893 0.34162 1.53853 0
M  V30 10490 C 987.304 -0.14269 1.86154 0
M  V30 10491 C 987.655 -1.50151 1.2629 0
M  V30 10492 O 986.78 -2.08601 0.575735 0
M  V30 10493 C 987.375 -0.265691 3.37757 0
M  V30 10494 C 985.934 -0.694231 3.69942 0
M  V30 10495 C 985.081 0.173195 2.76759 0
M  V30 10496 H 988.032 0.561284 1.48443 0
M  V30 10497 H 988.053 -1.09352 3.64448 0
M  V30 10498 H 987.565 0.723424 3.81298 0
M  V30 10499 H 985.666 -1.69244 3.31945 0
M  V30 10500 H 985.779 -0.485461 4.76634 0
M  V30 10501 H 984.143 -0.35416 2.52226 0
M  V30 10502 H 984.926 1.15941 3.23129 0
M  V30 10503 N 987.371 -1.57444 0.0701946 0
M  V30 10504 C 988.648 -1.84826 -0.6402 0
M  V30 10505 C 989.028 -0.962344 -1.87889 0
M  V30 10506 O 988.376 -0.0282209 -2.28483 0
M  V30 10507 C 988.586 -3.34976 -0.979382 0
M  V30 10508 C 989.934 -4.02448 -1.35355 0
M  V30 10509 O 990.958 -3.39713 -1.07116 0
M  V30 10510 O 989.817 -5.13096 -1.88136 0
M  V30 10511 H 986.911 -0.763494 -0.317813 0
M  V30 10512 H 989.457 -1.69399 0.101004 0
M  V30 10513 H 988.229 -3.91173 -0.0995576 0
M  V30 10514 H 987.852 -3.5566 -1.7774 0
M  V30 10515 N 988.849 0.203349 -1.56283 0
M  V30 10516 C 990.077 0.941426 -1.84241 0
M  V30 10517 C 990.492 1.77197 -0.651658 0
M  V30 10518 O 989.849 1.78506 0.379713 0
M  V30 10519 C 989.9 1.84429 -3.10915 0
M  V30 10520 O 989.621 1.04729 -4.25398 0
M  V30 10521 C 991.122 2.69474 -3.51993 0
M  V30 10522 H 988.342 0.27507 -0.612027 0
M  V30 10523 H 990.886 0.213088 -2.03387 0
M  V30 10524 H 989.041 2.52635 -2.93691 0
M  V30 10525 H 989.455 1.66179 -4.97478 0
M  V30 10526 H 990.929 3.28495 -4.43616 0
M  V30 10527 H 991.406 3.42775 -2.74594 0
M  V30 10528 H 992.012 2.06652 -3.71719 0
M  V30 10529 N 990.327 1.50405 0.470755 0
M  V30 10530 C 991.29 1.68741 1.5511 0
M  V30 10531 C 992.29 0.558116 1.50804 0
M  V30 10532 O 993.48 0.825149 1.53418 0
M  V30 10533 C 990.612 1.71295 2.94739 0
M  V30 10534 H 991.805 2.65127 1.40169 0
M  V30 10535 H 989.358 1.39891 0.697156 0
M  V30 10536 H 990.093 0.766029 3.15123 0
M  V30 10537 H 989.878 2.53336 2.99271 0
M  V30 10538 H 991.368 1.87434 3.73173 0
M  V30 10539 N 991.805 -0.723954 1.39988 0
M  V30 10540 C 993.033 -1.51313 1.4111 0
M  V30 10541 C 993.448 -1.88798 0.00853333 0
M  V30 10542 O 992.805 -1.54868 -0.965516 0
M  V30 10543 C 992.856 -2.79375 2.29416 0
M  V30 10544 O 992.577 -2.43478 3.64211 0
M  V30 10545 C 994.078 -3.7333 2.3904 0
M  V30 10546 H 991.298 -0.46724 0.481589 0
M  V30 10547 H 993.842 -0.893694 1.83938 0
M  V30 10548 H 991.997 -3.37624 1.89971 0
M  V30 10549 H 992.411 -3.25821 4.11024 0
M  V30 10550 H 993.885 -4.60051 3.05053 0
M  V30 10551 H 994.362 -4.15854 1.41289 0
M  V30 10552 H 994.968 -3.20996 2.79001 0
M  V30 10553 N 993.283 -1.25346 -0.955304 0
M  V30 10554 C 994.511 -1.12793 -1.73451 0
M  V30 10555 C 994.926 0.318344 -1.86097 0
M  V30 10556 O 994.283 1.21897 -1.35821 0
M  V30 10557 C 994.334 -1.77603 -3.14864 0
M  V30 10558 O 994.055 -3.16577 -3.02837 0
M  V30 10559 C 995.556 -1.70821 -4.09066 0
M  V30 10560 H 992.776 -0.393457 -0.543537 0
M  V30 10561 H 995.32 -1.65696 -1.19855 0
M  V30 10562 H 993.475 -1.28673 -3.65407 0
M  V30 10563 H 993.889 -3.48433 -3.92039 0
M  V30 10564 H 995.363 -2.2083 -5.05903 0
M  V30 10565 H 995.84 -0.671858 -4.34031 0
M  V30 10566 H 996.446 -2.19237 -3.64438 0
M  V30 10567 N 994.761 1.15782 -1.06922 0
M  V30 10568 C 996.177 1.38454 -0.793896 0
M  V30 10569 C 996.377 1.92238 0.603875 0
M  V30 10570 O 995.433 2.1253 1.36335 0
M  V30 10571 C 996.746 2.3595 -1.86408 0
M  V30 10572 C 998.294 2.49622 -1.88833 0
M  V30 10573 C 998.769 3.50406 -2.94923 0
M  V30 10574 N 1000.26 3.57938 -2.93997 0
M  V30 10575 C 1001 4.35728 -3.72731 0
M  V30 10576 N 1000.49 5.16888 -4.61301 0
M  V30 10577 N 1002.28 4.30774 -3.61096 0
M  V30 10578 H 994.435 0.792101 -1.97077 0
M  V30 10579 H 996.698 0.410779 -0.85438 0
M  V30 10580 H 996.404 2.03537 -2.86819 0
M  V30 10581 H 996.278 3.35677 -1.72049 0
M  V30 10582 H 998.665 2.81335 -0.890759 0
M  V30 10583 H 998.746 1.49909 -2.0727 0
M  V30 10584 H 998.39 3.19429 -3.94877 0
M  V30 10585 H 998.32 4.49864 -2.73734 0
M  V30 10586 H 1000.81 3.00007 -2.29791 0
M  V30 10587 H 1001.12 5.73477 -5.18019 0
M  V30 10588 H 999.469 5.16209 -4.65353 0
M  V30 10589 H 1002.66 3.66432 -2.91282 0
M  V30 10590 H 1002.83 4.91151 -4.22699 0
M  V30 10591 N 996.239 0.8527 1.3254 0
M  V30 10592 C 997.516 0.376491 1.91942 0
M  V30 10593 C 997.896 -1.13972 1.7769 0
M  V30 10594 O 997.244 -1.96047 1.17379 0
M  V30 10595 C 997.454 0.838694 3.38773 0
M  V30 10596 C 998.802 0.854736 4.15908 0
M  V30 10597 O 999.826 0.783203 3.47483 0
M  V30 10598 O 998.685 0.955207 5.38087 0
M  V30 10599 H 995.779 0.109412 0.81973 0
M  V30 10600 H 998.325 0.93947 1.41322 0
M  V30 10601 H 997.097 1.88179 3.43081 0
M  V30 10602 H 996.72 0.253055 3.96794 0
M  V30 10603 N 997.718 -1.45297 0.610449 0
M  V30 10604 C 998.967 -2.0143 0.104323 0
M  V30 10605 C 999.28 -1.48431 -1.27388 0
M  V30 10606 O 1000.49 -1.96558 -1.87289 0
M  V30 10607 C 998.942 -3.59644 0.135812 0
M  V30 10608 C 998.55 -4.2164 1.51405 0
M  V30 10609 C 1000.29 -4.2333 -0.314922 0
M  V30 10610 C 998.201 -5.72015 1.50176 0
M  V30 10611 H 997.131 -0.753176 0.035233 0
M  V30 10612 H 999.782 -1.66738 0.7662 0
M  V30 10613 H 998.164 -3.91538 -0.592773 0
M  V30 10614 H 999.338 -4.01315 2.26457 0
M  V30 10615 H 997.653 -3.70159 1.90712 0
M  V30 10616 H 1000.25 -5.33597 -0.343335 0
M  V30 10617 H 1000.59 -3.94206 -1.33817 0
M  V30 10618 H 1001.13 -3.96163 0.360489 0
M  V30 10619 H 997.865 -6.05842 2.50271 0
M  V30 10620 H 997.385 -5.94523 0.793869 0
M  V30 10621 H 999.064 -6.35266 1.22665 0
M  V30 10622 N 999.196 -0.349774 -1.5367 0
M  V30 10623 C 1000.14 0.519396 -2.26727 0
M  V30 10624 C 1001.14 1.09673 -1.29105 0
M  V30 10625 O 1002.34 1.04176 -1.46791 0
M  V30 10626 H 998.719 0.186192 -0.728585 0
M  V30 10627 H 1000.69 -0.118736 -2.98164 0
M  V30 10628 C 999.439 1.65535 -3.05767 0
M  V30 10629 H 998.762 1.22038 -3.80719 0
M  V30 10630 H 1000.2 2.23856 -3.6009 0
M  V30 10631 C 998.661 2.58844 -2.15642 0
M  V30 10632 O 999.191 3.61254 -1.75665 0
M  V30 10633 N 997.397 2.27671 -1.80595 0
M  V30 10634 H 996.944 1.44429 -2.13302 0
M  V30 10635 H 996.902 2.90359 -1.20577 0
M  V30 10636 N 1000.67 1.57404 -0.0785433 0
M  V30 10637 C 1001.62 2.13104 0.88631 0
M  V30 10638 C 1002.59 1.04527 1.29086 0
M  V30 10639 O 1003.78 1.32226 1.37553 0
M  V30 10640 C 1000.92 2.70252 2.14611 0
M  V30 10641 C 1000.03 3.93007 1.79358 0
M  V30 10642 C 999.164 4.38376 3 0
M  V30 10643 C 998.203 5.53761 2.60796 0
M  V30 10644 N 997.34 5.94058 3.74219 0
M  V30 10645 H 1002.18 2.95243 0.404452 0
M  V30 10646 H 999.717 1.45894 0.187982 0
M  V30 10647 H 1001.67 3.01497 2.88367 0
M  V30 10648 H 1000.3 1.90868 2.60326 0
M  V30 10649 H 999.357 3.68181 0.956384 0
M  V30 10650 H 1000.67 4.76795 1.4652 0
M  V30 10651 H 999.823 4.71317 3.82027 0
M  V30 10652 H 998.562 3.53455 3.36037 0
M  V30 10653 H 997.567 5.20464 1.77192 0
M  V30 10654 H 998.792 6.40419 2.25922 0
M  V30 10655 H 996.738 5.12085 4.10005 0
M  V30 10656 H 996.655 6.72602 3.45171 0
M  V30 10657 H 997.923 6.31624 4.56805 0
M  V30 10658 N 1002.15 -0.195058 1.56388 0
M  V30 10659 C 1003.11 -1.2254 1.93692 0
M  V30 10660 C 1004.11 -1.38437 0.81804 0
M  V30 10661 O 1005.3 -1.36248 1.08545 0
M  V30 10662 C 1002.44 -2.59476 2.21099 0
M  V30 10663 H 1003.63 -0.906544 2.8587 0
M  V30 10664 H 1001.18 -0.436577 1.50079 0
M  V30 10665 H 1001.92 -2.96417 1.31558 0
M  V30 10666 H 1001.7 -2.4931 3.02634 0
M  V30 10667 H 1003.19 -3.33777 2.50964 0
M  V30 10668 N 1003.63 -1.50653 -0.462772 0
M  V30 10669 C 1004.56 -1.66286 -1.5774 0
M  V30 10670 C 1005.57 -0.544094 -1.53439 0
M  V30 10671 O 1006.76 -0.817566 -1.58676 0
M  V30 10672 C 1003.86 -1.63893 -2.96635 0
M  V30 10673 C 1003.04 -2.91939 -3.25716 0
M  V30 10674 C 1002.1 -2.82076 -4.44206 0
M  V30 10675 O 1001.12 -3.56032 -4.44106 0
M  V30 10676 N 1002.32 -1.96196 -5.4634 0
M  V30 10677 H 1005.09 -2.6243 -1.44742 0
M  V30 10678 H 1002.65 -1.48221 -0.651326 0
M  V30 10679 H 1004.64 -1.54897 -3.73884 0
M  V30 10680 H 1003.21 -0.75449 -3.03358 0
M  V30 10681 H 1002.43 -3.14998 -2.37002 0
M  V30 10682 H 1003.72 -3.7675 -3.4196 0
M  V30 10683 H 1003.12 -1.35439 -5.49247 0
M  V30 10684 H 1001.67 -1.93097 -6.2254 0
M  V30 10685 N 1005.11 0.71652 -1.4037 0
M  V30 10686 C 1006.36 1.47193 -1.37903 0
M  V30 10687 C 1006.67 1.95593 0.0159939 0
M  V30 10688 O 1007.88 2.71009 0.163282 0
M  V30 10689 C 1006.33 2.6606 -2.42363 0
M  V30 10690 C 1005.94 2.24533 -3.87671 0
M  V30 10691 C 1007.68 3.438 -2.49001 0
M  V30 10692 C 1005.59 3.40234 -4.8373 0
M  V30 10693 H 1004.52 0.552811 -0.512753 0
M  V30 10694 H 1007.17 0.779894 -1.66102 0
M  V30 10695 H 1005.55 3.37429 -2.07262 0
M  V30 10696 H 1006.73 1.6059 -4.31911 0
M  V30 10697 H 1005.04 1.59839 -3.845 0
M  V30 10698 H 1007.64 4.29893 -3.17956 0
M  V30 10699 H 1007.98 3.8755 -1.52023 0
M  V30 10700 H 1008.52 2.79474 -2.83088 0
M  V30 10701 H 1005.26 3.01517 -5.82037 0
M  V30 10702 H 1004.78 4.03095 -4.44156 0
M  V30 10703 H 1006.45 4.06312 -5.03507 0
M  V30 10704 N 1006.59 1.25851 0.948643 0
M  V30 10705 C 1007.82 1.13546 1.726 0
M  V30 10706 C 1008.22 -0.312857 1.86595 0
M  V30 10707 O 1007.57 -1.22657 1.36751 0
M  V30 10708 C 1007.63 1.72315 3.15512 0
M  V30 10709 C 1007.29 3.2136 3.24926 0
M  V30 10710 C 1008.29 4.18274 3.08777 0
M  V30 10711 C 1005.98 3.61683 3.48555 0
M  V30 10712 C 1007.97 5.53491 3.16112 0
M  V30 10713 C 1005.66 4.97035 3.55526 0
M  V30 10714 C 1006.65 5.92749 3.3932 0
M  V30 10715 O 1006.34 7.25637 3.45985 0
M  V30 10716 H 1006.07 0.396555 0.547467 0
M  V30 10717 H 1008.63 1.66822 1.19832 0
M  V30 10718 H 1006.86 1.13494 3.6967 0
M  V30 10719 H 1008.55 1.55024 3.7513 0
M  V30 10720 H 1009.31 3.88461 2.90385 0
M  V30 10721 H 1005.19 2.87674 3.60229 0
M  V30 10722 H 1008.74 6.28177 3.0338 0
M  V30 10723 H 1004.63 5.26512 3.73437 0
M  V30 10724 H 1005.4 7.33812 3.62577 0
M  V30 10725 N 1008.06 -1.15214 1.07534 0
M  V30 10726 C 1009.03 -2.18209 0.701237 0
M  V30 10727 C 1010.03 -1.58693 -0.25946 0
M  V30 10728 O 1011.22 -1.74154 -0.0401744 0
M  V30 10729 C 1008.35 -3.40883 0.0338703 0
M  V30 10730 H 1009.54 -2.5282 1.61314 0
M  V30 10731 H 1007.1 -1.29707 0.872105 0
M  V30 10732 H 1007.83 -3.11843 -0.890187 0
M  V30 10733 H 1007.62 -3.85342 0.72486 0
M  V30 10734 H 1009.11 -4.17056 -0.213152 0
M  V30 10735 N 1009.54 -0.859717 -1.32086 0
M  V30 10736 C 1010.79 -0.475565 -1.97762 0
M  V30 10737 C 1011.14 0.959348 -1.66776 0
M  V30 10738 O 1010.44 1.66484 -0.948343 0
M  V30 10739 C 1010.63 -0.657397 -3.51302 0
M  V30 10740 C 1010.46 -2.10843 -3.97209 0
M  V30 10741 C 1009.23 -2.74796 -4.24046 0
M  V30 10742 C 1011.43 -3.07959 -4.11905 0
M  V30 10743 N 1009.41 -4.10758 -4.56236 0
M  V30 10744 C 1010.78 -4.28922 -4.4769 0
M  V30 10745 C 1012.84 -3.04086 -3.94254 0
M  V30 10746 C 1011.54 -5.46518 -4.67665 0
M  V30 10747 C 1013.56 -4.20931 -4.15416 0
M  V30 10748 C 1012.93 -5.40654 -4.51522 0
M  V30 10749 H 1009.03 -0.222859 -0.749572 0
M  V30 10750 H 1011.61 -1.11217 -1.59809 0
M  V30 10751 H 1009.78 -0.0504597 -3.88367 0
M  V30 10752 H 1011.51 -0.242642 -4.03972 0
M  V30 10753 H 1008.27 -2.25805 -4.16304 0
M  V30 10754 H 1008.69 -4.80905 -4.76507 0
M  V30 10755 H 1013.33 -2.12641 -3.65436 0
M  V30 10756 H 1011.05 -6.3849 -4.95335 0
M  V30 10757 H 1014.64 -4.19376 -4.03255 0
M  V30 10758 H 1013.52 -6.29563 -4.67568 0
M  V30 10759 N 1011.02 1.44971 -0.618145 0
M  V30 10760 C 1012.44 1.57077 -0.282666 0
M  V30 10761 C 1012.64 1.60782 1.21456 0
M  V30 10762 O 1011.69 1.54382 1.99806 0
M  V30 10763 C 1013.01 2.84858 -0.963148 0
M  V30 10764 C 1014.55 2.9855 -0.940062 0
M  V30 10765 C 1015.03 4.29115 -1.60076 0
M  V30 10766 N 1016.52 4.35899 -1.56674 0
M  V30 10767 C 1017.25 5.35617 -2.04701 0
M  V30 10768 N 1016.75 6.41813 -2.6086 0
M  V30 10769 N 1018.54 5.27042 -1.95406 0
M  V30 10770 H 1010.69 1.4081 -1.59017 0
M  V30 10771 H 1012.96 0.673914 -0.666741 0
M  V30 10772 H 1012.66 2.88059 -2.0178 0
M  V30 10773 H 1012.54 3.73966 -0.492901 0
M  V30 10774 H 1014.92 2.94909 0.10607 0
M  V30 10775 H 1015.01 2.10825 -1.44868 0
M  V30 10776 H 1014.65 4.33514 -2.64627 0
M  V30 10777 H 1014.58 5.15675 -1.06708 0
M  V30 10778 H 1017.07 3.59766 -1.15659 0
M  V30 10779 H 1017.38 7.14166 -2.95273 0
M  V30 10780 H 1015.73 6.42534 -2.64905 0
M  V30 10781 H 1018.92 4.42987 -1.51263 0
M  V30 10782 H 1019.09 6.04604 -2.33147 0
M  V30 10783 N 1012.5 0.357919 1.53482 0
M  V30 10784 C 1013.45 -0.49217 2.25491 0
M  V30 10785 C 1014.42 -1.08382 1.25867 0
M  V30 10786 O 1015.6 -1.11775 1.54632 0
M  V30 10787 C 1012.74 -1.6299 3.04185 0
M  V30 10788 C 1011.85 -1.06416 4.18688 0
M  V30 10789 C 1010.99 -2.17037 4.84839 0
M  V30 10790 C 1010.03 -1.57889 5.91386 0
M  V30 10791 N 1009.16 -2.6231 6.51259 0
M  V30 10792 H 1014 0.128412 2.97723 0
M  V30 10793 H 1011.54 0.0751423 1.46908 0
M  V30 10794 H 1013.5 -2.29993 3.48079 0
M  V30 10795 H 1012.13 -2.22125 2.34223 0
M  V30 10796 H 1011.18 -0.284635 3.79334 0
M  V30 10797 H 1012.49 -0.591654 4.95279 0
M  V30 10798 H 1011.65 -2.91876 5.31877 0
M  V30 10799 H 1010.39 -2.67636 4.07703 0
M  V30 10800 H 1009.39 -0.815605 5.43717 0
M  V30 10801 H 1010.62 -1.08123 6.70437 0
M  V30 10802 H 1008.56 -3.12137 5.7698 0
M  V30 10803 H 1008.48 -2.19724 7.23365 0
M  V30 10804 H 1009.75 -3.36875 7.02948 0
M  V30 10805 N 1013.98 -1.5736 0.0868897 0
M  V30 10806 C 1015.22 -1.9367 -0.577598 0
M  V30 10807 C 1015.55 -0.968844 -1.69229 0
M  V30 10808 O 1014.82 -0.0195061 -1.9589 0
M  V30 10809 H 1013.4 -0.714983 -0.216353 0
M  V30 10810 H 1016.06 -1.94335 0.148294 0
M  V30 10811 H 1015.15 -2.95877 -0.993128 0
M  V30 10812 N 1015.45 0.186762 -1.56489 0
M  V30 10813 C 1016.7 0.904077 -1.80303 0
M  V30 10814 C 1017.02 1.84073 -0.661538 0
M  V30 10815 O 1018.22 2.59928 -0.784197 0
M  V30 10816 C 1016.68 1.65806 -3.19432 0
M  V30 10817 C 1016.29 0.765807 -4.41406 0
M  V30 10818 C 1018.03 2.36451 -3.52549 0
M  V30 10819 C 1015.94 1.51913 -5.71556 0
M  V30 10820 H 1014.87 0.34133 -0.672317 0
M  V30 10821 H 1017.52 0.157218 -1.82825 0
M  V30 10822 H 1015.9 2.44911 -3.11183 0
M  V30 10823 H 1017.07 0.0128225 -4.60798 0
M  V30 10824 H 1015.39 0.169772 -4.16054 0
M  V30 10825 H 1017.99 2.93378 -4.47027 0
M  V30 10826 H 1018.33 3.11044 -2.7669 0
M  V30 10827 H 1018.86 1.64305 -3.62283 0
M  V30 10828 H 1015.6 0.815829 -6.50403 0
M  V30 10829 H 1015.12 2.24583 -5.56168 0
M  V30 10830 H 1016.8 2.07073 -6.12968 0
M  V30 10831 N 1016.93 1.50896 0.454776 0
M  V30 10832 C 1017.88 1.70947 1.55067 0
M  V30 10833 C 1018.85 0.550899 1.56698 0
M  V30 10834 O 1020.03 0.783352 1.73978 0
M  V30 10835 C 1017.17 1.82455 2.92924 0
M  V30 10836 C 1016.29 3.09919 3.00956 0
M  V30 10837 C 1015.42 3.12125 4.29827 0
M  V30 10838 C 1014.46 4.33975 4.31662 0
M  V30 10839 N 1013.6 4.33828 5.5203 0
M  V30 10840 H 1018.44 2.645 1.37273 0
M  V30 10841 H 1015.98 1.31101 0.667148 0
M  V30 10842 H 1017.93 1.87108 3.72889 0
M  V30 10843 H 1016.56 0.92327 3.09315 0
M  V30 10844 H 1015.62 3.14659 2.13761 0
M  V30 10845 H 1016.93 3.99869 2.98172 0
M  V30 10846 H 1016.08 3.15598 5.18154 0
M  V30 10847 H 1014.82 2.20033 4.35243 0
M  V30 10848 H 1013.83 4.30697 3.41731 0
M  V30 10849 H 1015.05 5.27312 4.27924 0
M  V30 10850 H 1013 3.44598 5.58201 0
M  V30 10851 H 1012.91 5.17566 5.51055 0
M  V30 10852 H 1014.18 4.4147 6.42437 0
M  V30 10853 N 1018.41 -0.709066 1.40748 0
M  V30 10854 C 1019.64 -1.50313 1.42901 0
M  V30 10855 C 1020.06 -1.88072 0.032213 0
M  V30 10856 O 1019.42 -1.53716 -0.96131 0
M  V30 10857 C 1019.47 -2.75074 2.33166 0
M  V30 10858 O 1018.57 -3.72036 1.7794 0
M  V30 10859 H 1017.91 -0.452934 0.485538 0
M  V30 10860 H 1020.44 -0.872712 1.85054 0
M  V30 10861 H 1020.45 -3.23532 2.48578 0
M  V30 10862 H 1019.13 -2.46927 3.34664 0
M  V30 10863 H 1017.7 -3.30911 1.71908 0
M  V30 10864 N 1019.89 -1.26353 -0.941956 0
M  V30 10865 C 1020.82 -1.10341 -2.05784 0
M  V30 10866 C 1021.8 -0.00881565 -1.70098 0
M  V30 10867 O 1022.99 -0.180699 -1.93357 0
M  V30 10868 C 1020.12 -0.734788 -3.39438 0
M  V30 10869 C 1019.07 -1.78103 -3.89183 0
M  V30 10870 C 1018.4 -1.26675 -5.19478 0
M  V30 10871 C 1019.7 -3.1824 -4.14151 0
M  V30 10872 H 1021.39 -2.03684 -2.19438 0
M  V30 10873 H 1018.94 -0.980698 -1.05443 0
M  V30 10874 H 1020.89 -0.609653 -4.16967 0
M  V30 10875 H 1019.61 0.234354 -3.25758 0
M  V30 10876 H 1018.27 -1.89482 -3.13835 0
M  V30 10877 H 1017.92 -0.287472 -5.02178 0
M  V30 10878 H 1017.62 -1.96612 -5.53731 0
M  V30 10879 H 1019.14 -1.15427 -5.99591 0
M  V30 10880 H 1020.56 -3.09942 -4.82296 0
M  V30 10881 H 1018.95 -3.8576 -4.59684 0
M  V30 10882 H 1020.02 -3.64354 -3.19959 0
M  V30 10883 N 1021.37 1.14642 -1.08144 0
M  V30 10884 C 1022.6 1.89209 -0.82966 0
M  V30 10885 C 1023.01 1.78697 0.621604 0
M  V30 10886 O 1022.35 1.14224 1.4387 0
M  V30 10887 C 1022.41 3.39958 -1.16915 0
M  V30 10888 C 1022.07 3.74254 -2.62264 0
M  V30 10889 C 1023.07 3.746 -3.60514 0
M  V30 10890 C 1020.76 4.04316 -2.9805 0
M  V30 10891 C 1022.75 4.04527 -4.92582 0
M  V30 10892 C 1020.44 4.33906 -4.30312 0
M  V30 10893 C 1021.44 4.33995 -5.27388 0
M  V30 10894 O 1021.12 4.62869 -6.57273 0
M  V30 10895 H 1020.86 0.606259 -0.299042 0
M  V30 10896 H 1023.41 1.46132 -1.44342 0
M  V30 10897 H 1021.64 3.83475 -0.498377 0
M  V30 10898 H 1023.33 3.95828 -0.89862 0
M  V30 10899 H 1024.09 3.51466 -3.34211 0
M  V30 10900 H 1019.97 4.03402 -2.23132 0
M  V30 10901 H 1023.52 4.04511 -5.68346 0
M  V30 10902 H 1019.41 4.5651 -4.56365 0
M  V30 10903 H 1020.18 4.80598 -6.62546 0
M  V30 10904 N 1022.85 0.866709 1.31628 0
M  V30 10905 C 1024.08 0.489679 2.00713 0
M  V30 10906 C 1024.48 -0.921492 1.65243 0
M  V30 10907 O 1023.83 -1.61467 0.876012 0
M  V30 10908 C 1023.89 0.563148 3.55062 0
M  V30 10909 C 1023.55 1.93535 4.13996 0
M  V30 10910 C 1024.55 2.90243 4.31341 0
M  V30 10911 C 1022.23 2.23578 4.49798 0
M  V30 10912 C 1024.23 4.15138 4.83673 0
M  V30 10913 C 1021.92 3.48723 5.01832 0
M  V30 10914 C 1022.91 4.44319 5.18719 0
M  V30 10915 O 1022.6 5.67247 5.69637 0
M  V30 10916 H 1022.33 0.189605 0.648865 0
M  V30 10917 H 1024.89 1.16874 1.68907 0
M  V30 10918 H 1023.12 -0.172815 3.86314 0
M  V30 10919 H 1024.81 0.200009 4.05407 0
M  V30 10920 H 1025.57 2.6834 4.04003 0
M  V30 10921 H 1021.45 1.49949 4.35932 0
M  V30 10922 H 1025 4.89762 4.96769 0
M  V30 10923 H 1020.89 3.70471 5.28603 0
M  V30 10924 H 1021.66 5.69372 5.88011 0
M  V30 10925 N 1024.32 -1.44642 0.625825 0
M  V30 10926 C 1025.57 -2.01308 0.125682 0
M  V30 10927 C 1025.89 -1.49773 -1.25807 0
M  V30 10928 O 1027.09 -1.98533 -1.85194 0
M  V30 10929 C 1025.55 -3.59479 0.17395 0
M  V30 10930 C 1025.16 -4.20011 1.55868 0
M  V30 10931 C 1026.9 -4.2364 -0.270005 0
M  V30 10932 C 1024.81 -5.7039 1.56235 0
M  V30 10933 H 1023.74 -0.75276 0.0432194 0
M  V30 10934 H 1026.39 -1.65916 0.783842 0
M  V30 10935 H 1024.77 -3.92145 -0.551212 0
M  V30 10936 H 1025.94 -3.98891 2.307 0
M  V30 10937 H 1024.26 -3.68116 1.94627 0
M  V30 10938 H 1026.86 -5.33931 -0.28672 0
M  V30 10939 H 1027.2 -3.95603 -1.29629 0
M  V30 10940 H 1027.73 -3.95759 0.402487 0
M  V30 10941 H 1024.47 -6.03154 2.56683 0
M  V30 10942 H 1023.99 -5.93648 0.856881 0
M  V30 10943 H 1025.67 -6.33929 1.29396 0
M  V30 10944 N 1025.8 -0.366053 -1.5329 0
M  V30 10945 C 1027.22 -0.0150149 -1.59593 0
M  V30 10946 C 1027.42 1.46719 -1.38116 0
M  V30 10947 O 1026.47 2.22884 -1.18656 0
M  V30 10948 C 1027.79 -0.471374 -2.96982 0
M  V30 10949 C 1029.33 -0.425634 -3.10092 0
M  V30 10950 C 1029.81 -0.857812 -4.49895 0
M  V30 10951 N 1031.3 -0.81289 -4.56011 0
M  V30 10952 C 1032.04 -1.11898 -5.62376 0
M  V30 10953 N 1031.53 -1.49436 -6.76491 0
M  V30 10954 N 1033.32 -1.04174 -5.52362 0
M  V30 10955 H 1025.48 -1.33127 -1.65502 0
M  V30 10956 H 1027.74 -0.544172 -0.776261 0
M  V30 10957 H 1027.44 -1.50569 -3.1784 0
M  V30 10958 H 1027.32 0.141764 -3.76934 0
M  V30 10959 H 1029.71 0.599548 -2.88945 0
M  V30 10960 H 1029.79 -1.07427 -2.32149 0
M  V30 10961 H 1029.43 -1.88111 -4.7178 0
M  V30 10962 H 1029.36 -0.186419 -5.2627 0
M  V30 10963 H 1031.85 -0.536343 -3.74075 0
M  V30 10964 H 1032.16 -1.71217 -7.53594 0
M  V30 10965 H 1030.51 -1.53302 -6.77882 0
M  V30 10966 H 1033.7 -0.747654 -4.62091 0
M  V30 10967 H 1033.87 -1.28362 -6.35159 0
M  V30 10968 N 1027.28 1.57312 -0.0952337 0
M  V30 10969 C 1028.21 2.17056 0.860753 0
M  V30 10970 C 1029.19 1.10394 1.29411 0
M  V30 10971 O 1030.38 1.38532 1.36098 0
M  V30 10972 C 1027.51 2.751 2.11984 0
M  V30 10973 C 1026.46 3.87136 1.8251 0
M  V30 10974 C 1025.79 4.31883 3.15247 0
M  V30 10975 C 1027.09 5.10326 1.11194 0
M  V30 10976 H 1028.78 2.97192 0.362983 0
M  V30 10977 H 1026.33 1.42955 0.173151 0
M  V30 10978 H 1028.28 3.15547 2.79299 0
M  V30 10979 H 1027 1.92219 2.64044 0
M  V30 10980 H 1025.66 3.47229 1.17592 0
M  V30 10981 H 1025.31 3.45893 3.65195 0
M  V30 10982 H 1025.01 5.0742 2.96309 0
M  V30 10983 H 1026.53 4.74964 3.83721 0
M  V30 10984 H 1027.95 5.47942 1.6862 0
M  V30 10985 H 1026.34 5.91293 1.02435 0
M  V30 10986 H 1027.41 4.84807 0.0947227 0
M  V30 10987 N 1028.76 -0.17846 1.56586 0
M  V30 10988 C 1030.17 -0.529957 1.50544 0
M  V30 10989 C 1030.37 -1.85015 0.798237 0
M  V30 10990 O 1029.43 -2.49983 0.355639 0
M  V30 10991 C 1030.74 -0.569314 2.95261 0
M  V30 10992 C 1032.29 -0.657008 3.06027 0
M  V30 10993 C 1032.77 -0.727323 4.52188 0
M  V30 10994 N 1034.26 -0.790406 4.56406 0
M  V30 10995 C 1034.99 -0.865265 5.66834 0
M  V30 10996 N 1034.49 -0.901398 6.86911 0
M  V30 10997 N 1036.28 -0.903736 5.54787 0
M  V30 10998 H 1028.43 0.687304 2.00972 0
M  V30 10999 H 1030.69 0.246936 0.915274 0
M  V30 11000 H 1030.4 0.331934 3.5013 0
M  V30 11001 H 1030.27 -1.41828 3.4952 0
M  V30 11002 H 1032.66 -1.54868 2.51197 0
M  V30 11003 H 1032.74 0.218495 2.54865 0
M  V30 11004 H 1032.39 0.160067 5.07648 0
M  V30 11005 H 1032.32 -1.61887 5.01099 0
M  V30 11006 H 1034.81 -0.771054 3.6995 0
M  V30 11007 H 1035.12 -0.959494 7.6682 0
M  V30 11008 H 1033.47 -0.869795 6.89536 0
M  V30 11009 H 1036.66 -0.872459 4.59898 0
M  V30 11010 H 1036.83 -0.958615 6.4087 0
M  V30 11011 N 1030.24 -1.51135 -0.446768 0
M  V30 11012 C 1031.17 -1.67949 -1.55967 0
M  V30 11013 C 1032.18 -0.560337 -1.52853 0
M  V30 11014 O 1033.37 -0.83435 -1.578 0
M  V30 11015 C 1030.47 -1.6703 -2.9488 0
M  V30 11016 C 1029.64 -2.95377 -3.22601 0
M  V30 11017 C 1028.7 -2.86772 -4.4119 0
M  V30 11018 O 1027.73 -3.60722 -4.40304 0
M  V30 11019 N 1028.93 -2.01979 -5.44228 0
M  V30 11020 H 1031.69 -2.63951 -1.41951 0
M  V30 11021 H 1029.26 -1.48903 -0.635569 0
M  V30 11022 H 1031.25 -1.58854 -3.7222 0
M  V30 11023 H 1029.82 -0.786623 -3.02541 0
M  V30 11024 H 1029.04 -3.17494 -2.33647 0
M  V30 11025 H 1030.33 -3.80356 -3.37945 0
M  V30 11026 H 1029.72 -1.41257 -5.4778 0
M  V30 11027 H 1028.28 -1.99689 -6.20457 0
M  V30 11028 N 1031.71 0.701592 -1.41122 0
M  V30 11029 C 1032.64 1.82815 -1.45262 0
M  V30 11030 C 1033.62 1.67215 -0.311939 0
M  V30 11031 O 1034.81 1.87038 -0.522538 0
M  V30 11032 C 1031.94 3.20899 -1.32819 0
M  V30 11033 C 1030.89 3.51194 -2.44636 0
M  V30 11034 C 1030.22 4.8857 -2.17263 0
M  V30 11035 C 1031.52 3.50777 -3.86979 0
M  V30 11036 H 1033.21 1.79608 -2.39544 0
M  V30 11037 H 1030.76 0.862693 -1.15298 0
M  V30 11038 H 1032.71 3.99417 -1.34329 0
M  V30 11039 H 1031.44 3.24717 -0.350191 0
M  V30 11040 H 1030.1 2.75024 -2.42399 0
M  V30 11041 H 1029.74 4.89007 -1.17819 0
M  V30 11042 H 1029.44 5.09805 -2.92186 0
M  V30 11043 H 1030.97 5.69405 -2.20478 0
M  V30 11044 H 1032.38 4.19309 -3.90964 0
M  V30 11045 H 1030.78 3.83542 -4.61536 0
M  V30 11046 H 1031.85 2.49873 -4.15562 0
M  V30 11047 N 1033.19 1.2685 0.935242 0
M  V30 11048 C 1034.15 1.08975 2.01636 0
M  V30 11049 C 1035.15 0.0361543 1.60759 0
M  V30 11050 O 1036.34 0.280087 1.71934 0
M  V30 11051 C 1033.48 0.658831 3.34473 0
M  V30 11052 H 1034.67 2.04968 2.18925 0
M  V30 11053 H 1032.22 1.09531 1.11501 0
M  V30 11054 H 1032.96 -0.302824 3.22883 0
M  V30 11055 H 1032.74 1.41967 3.65497 0
M  V30 11056 H 1034.23 0.555783 4.13885 0
M  V30 11057 N 1034.67 -1.14067 1.0875 0
M  V30 11058 C 1035.6 -2.21385 0.74236 0
M  V30 11059 C 1036.58 -1.67833 -0.276805 0
M  V30 11060 O 1037.77 -1.93647 -0.1464 0
M  V30 11061 C 1034.9 -3.46956 0.154644 0
M  V30 11062 C 1033.85 -4.13555 1.10255 0
M  V30 11063 C 1033.18 -5.3337 0.376877 0
M  V30 11064 C 1034.48 -4.6169 2.44213 0
M  V30 11065 H 1036.17 -2.50512 1.63964 0
M  V30 11066 H 1033.72 -1.20408 0.789807 0
M  V30 11067 H 1035.67 -4.21284 -0.0988419 0
M  V30 11068 H 1034.39 -3.17203 -0.777789 0
M  V30 11069 H 1033.05 -3.41186 1.34119 0
M  V30 11070 H 1032.7 -4.99879 -0.559472 0
M  V30 11071 H 1032.4 -5.78875 1.00884 0
M  V30 11072 H 1033.92 -6.10458 0.131527 0
M  V30 11073 H 1035.34 -5.27475 2.24595 0
M  V30 11074 H 1033.74 -5.17909 3.03134 0
M  V30 11075 H 1034.81 -3.76574 3.05483 0
M  V30 11076 N 1036.15 -0.873678 -1.31166 0
M  V30 11077 C 1037.06 -0.335726 -2.32185 0
M  V30 11078 C 1038.07 0.556259 -1.64869 0
M  V30 11079 O 1039.25 0.452087 -1.9626 0
M  V30 11080 C 1036.32 0.450822 -3.43756 0
M  V30 11081 C 1035.38 -0.469565 -4.26724 0
M  V30 11082 C 1034.61 0.279538 -5.32967 0
M  V30 11083 O 1034.83 1.50715 -5.50128 0
M  V30 11084 O 1033.77 -0.36452 -6.00795 0
M  V30 11085 H 1037.59 -1.17314 -2.80127 0
M  V30 11086 H 1035.18 -0.637163 -1.35132 0
M  V30 11087 H 1037.06 0.896582 -4.11752 0
M  V30 11088 H 1035.73 1.26472 -2.9797 0
M  V30 11089 H 1034.64 -0.963902 -3.61469 0
M  V30 11090 H 1035.97 -1.24916 -4.76085 0
M  V30 11091 N 1037.63 1.44308 -0.633487 0
M  V30 11092 C 1038.87 2.01624 -0.138643 0
M  V30 11093 C 1039.2 1.50101 1.24477 0
M  V30 11094 O 1038.47 0.705575 1.82752 0
M  V30 11095 H 1037.05 0.745439 -0.0482636 0
M  V30 11096 H 1039.71 1.76777 -0.820719 0
M  V30 11097 H 1038.8 3.11913 -0.108136 0
M  V30 11098 N 1039.1 0.374177 1.53094 0
M  V30 11099 C 1040.33 -0.213325 2.05797 0
M  V30 11100 C 1040.75 -1.41753 1.24706 0
M  V30 11101 O 1040.1 -1.80183 0.289868 0
M  V30 11102 C 1040.16 -0.598367 3.56513 0
M  V30 11103 O 1039.88 0.557983 4.34532 0
M  V30 11104 C 1041.38 -1.24334 4.25507 0
M  V30 11105 H 1038.6 -0.0357398 0.670048 0
M  V30 11106 H 1041.14 0.535035 1.97377 0
M  V30 11107 H 1039.3 -1.29663 3.65056 0
M  V30 11108 H 1039.71 0.244911 5.23928 0
M  V30 11109 H 1041.18 -1.46325 5.32253 0
M  V30 11110 H 1041.66 -2.20622 3.79766 0
M  V30 11111 H 1042.27 -0.586269 4.2124 0
M  V30 11112 N 1040.58 -1.57259 0.103575 0
M  V30 11113 C 1041.49 -2.18018 -0.866327 0
M  V30 11114 C 1042.51 -1.15198 -1.30404 0
M  V30 11115 O 1043.68 -1.47605 -1.37021 0
M  V30 11116 C 1040.75 -2.75533 -2.10434 0
M  V30 11117 C 1039.81 -3.93337 -1.72002 0
M  V30 11118 C 1039.04 -4.481 -2.89901 0
M  V30 11119 O 1039.27 -4.01784 -4.04877 0
M  V30 11120 O 1038.2 -5.39004 -2.67877 0
M  V30 11121 H 1042.03 -3.01322 -0.379338 0
M  V30 11122 H 1039.61 -1.48907 -0.121228 0
M  V30 11123 H 1041.49 -3.12259 -2.8297 0
M  V30 11124 H 1040.17 -1.9527 -2.58169 0
M  V30 11125 H 1039.08 -3.61408 -0.966193 0
M  V30 11126 H 1040.41 -4.74989 -1.29022 0
M  V30 11127 N 1042.06 0.170153 -1.56679 0
M  V30 11128 C 1043.31 0.884902 -1.81252 0
M  V30 11129 C 1043.62 1.83361 -0.681024 0
M  V30 11130 O 1044.83 2.59082 -0.811722 0
M  V30 11131 C 1043.28 1.62408 -3.21172 0
M  V30 11132 C 1042.89 0.718947 -4.42194 0
M  V30 11133 C 1044.64 2.32699 -3.55037 0
M  V30 11134 C 1042.54 1.45843 -5.73135 0
M  V30 11135 H 1041.47 0.33418 -0.675899 0
M  V30 11136 H 1044.12 0.137818 -1.82982 0
M  V30 11137 H 1042.51 2.41596 -3.13763 0
M  V30 11138 H 1043.68 -0.0360521 -4.60786 0
M  V30 11139 H 1042 0.125634 -4.1621 0
M  V30 11140 H 1044.59 2.88621 -4.50114 0
M  V30 11141 H 1044.94 3.08092 -2.79974 0
M  V30 11142 H 1045.47 1.60453 -3.64005 0
M  V30 11143 H 1042.21 0.746799 -6.51232 0
M  V30 11144 H 1041.73 2.18672 -5.58518 0
M  V30 11145 H 1043.41 2.0056 -6.1513 0
M  V30 11146 N 1043.54 1.5137 0.438746 0
M  V30 11147 C 1044.45 1.75424 1.55768 0
M  V30 11148 C 1045.46 0.638409 1.61865 0
M  V30 11149 O 1046.64 0.9205 1.79133 0
M  V30 11150 C 1043.71 1.87288 2.9176 0
M  V30 11151 C 1042.77 3.11137 2.95791 0
M  V30 11152 C 1042 3.22425 4.25297 0
M  V30 11153 O 1042.22 2.39688 5.17596 0
M  V30 11154 O 1041.16 4.15393 4.35583 0
M  V30 11155 H 1044.98 2.70339 1.38386 0
M  V30 11156 H 1042.57 1.35854 0.621609 0
M  V30 11157 H 1044.45 1.97085 3.72472 0
M  V30 11158 H 1043.12 0.955599 3.09273 0
M  V30 11159 H 1042.03 3.06819 2.1404 0
M  V30 11160 H 1043.36 4.02549 2.83223 0
M  V30 11161 N 1045.02 -0.694098 1.41492 0
M  V30 11162 C 1046.26 -1.45127 1.4065 0
M  V30 11163 C 1046.59 -1.94993 0.0170289 0
M  V30 11164 O 1045.86 -1.71799 -0.941372 0
M  V30 11165 H 1044.44 -0.538493 0.51772 0
M  V30 11166 H 1047.1 -0.821441 1.76744 0
M  V30 11167 H 1046.19 -2.31372 2.0946 0
M  V30 11168 N 1046.49 -1.27344 -0.928501 0
M  V30 11169 C 1047.73 -1.14871 -1.69068 0
M  V30 11170 C 1048.1 0.300603 -1.89632 0
M  V30 11171 O 1049.3 0.547743 -2.6316 0
M  V30 11172 C 1047.57 -1.90992 -3.02087 0
M  V30 11173 S 1049.13 -1.94722 -3.93229 0
M  V30 11174 H 1045.95 -0.410095 -0.580812 0
M  V30 11175 H 1048.55 -1.61242 -1.1055 0
M  V30 11176 H 1047.25 -2.95484 -2.84811 0
M  V30 11177 H 1046.78 -1.45112 -3.65658 0
M  V30 11178 H 1048.8 -1.04306 -4.85113 0
M  V30 11179 N 1047.97 1.13488 -1.09353 0
M  V30 11180 C 1049.22 1.85022 -0.830354 0
M  V30 11181 C 1049.55 1.83266 0.64242 0
M  V30 11182 O 1048.83 1.27024 1.47293 0
M  V30 11183 C 1049.11 3.33218 -1.36521 0
M  V30 11184 C 1048.96 3.43491 -2.90404 0
M  V30 11185 C 1050.28 4.28626 -0.998381 0
M  V30 11186 H 1047.4 0.671786 -0.303105 0
M  V30 11187 H 1050.04 1.33211 -1.3548 0
M  V30 11188 H 1048.19 3.77471 -0.919117 0
M  V30 11189 H 1049.86 3.07954 -3.43456 0
M  V30 11190 H 1048.11 2.84391 -3.27573 0
M  V30 11191 H 1048.78 4.47702 -3.22905 0
M  V30 11192 H 1051.25 3.9244 -1.38311 0
M  V30 11193 H 1050.13 5.30754 -1.39968 0
M  V30 11194 H 1050.39 4.42001 0.093517 0
M  V30 11195 N 1049.45 0.880621 1.30701 0
M  V30 11196 C 1050.68 0.510909 2.01009 0
M  V30 11197 C 1051.1 -0.892041 1.65603 0
M  V30 11198 O 1050.46 -1.59045 0.870309 0
M  V30 11199 C 1050.51 0.687759 3.53981 0
M  V30 11200 O 1049.61 -0.268275 4.11526 0
M  V30 11201 H 1048.95 0.201864 0.632572 0
M  V30 11202 H 1051.48 1.18697 1.6665 0
M  V30 11203 H 1051.49 0.585095 4.03783 0
M  V30 11204 H 1050.17 1.71068 3.79089 0
M  V30 11205 H 1048.74 -0.119673 3.72708 0
M  V30 11206 N 1050.93 -1.4397 0.641131 0
M  V30 11207 C 1052.17 -2.03826 0.153071 0
M  V30 11208 C 1052.53 -1.4941 -1.20585 0
M  V30 11209 O 1053.73 -2.00832 -1.78661 0
M  V30 11210 C 1052.01 -3.57085 0.149914 0
M  V30 11211 S 1053.56 -4.37956 -0.272065 0
M  V30 11212 H 1050.38 -0.70793 0.0659981 0
M  V30 11213 H 1052.98 -1.76211 0.846761 0
M  V30 11214 H 1051.69 -3.94194 1.14188 0
M  V30 11215 H 1051.22 -3.89326 -0.564703 0
M  V30 11216 H 1053.23 -4.72542 -1.5139 0
M  V30 11217 N 1052.41 -0.382291 -1.52893 0
M  V30 11218 C 1053.37 0.44408 -2.24857 0
M  V30 11219 C 1054.37 0.996004 -1.26239 0
M  V30 11220 O 1055.56 0.879114 -1.5039 0
M  V30 11221 C 1052.69 1.62234 -2.99822 0
M  V30 11222 H 1053.89 -0.185862 -2.99324 0
M  V30 11223 H 1051.44 -0.134275 -1.55722 0
M  V30 11224 H 1052.17 2.28991 -2.29638 0
M  V30 11225 H 1051.96 1.23336 -3.72197 0
M  V30 11226 H 1053.45 2.20756 -3.54481 0
M  V30 11227 N 1053.89 1.57202 -0.111913 0
M  V30 11228 C 1054.82 2.17957 0.837683 0
M  V30 11229 C 1055.8 1.1176 1.28233 0
M  V30 11230 O 1056.98 1.39967 1.34621 0
M  V30 11231 C 1054.11 2.77333 2.09054 0
M  V30 11232 C 1053.07 3.8905 1.78393 0
M  V30 11233 C 1052.39 4.35203 3.10649 0
M  V30 11234 C 1053.69 5.11477 1.05775 0
M  V30 11235 H 1055.39 2.9756 0.331441 0
M  V30 11236 H 1052.93 1.43131 0.157979 0
M  V30 11237 H 1054.88 3.18492 2.75936 0
M  V30 11238 H 1053.61 1.95009 2.6199 0
M  V30 11239 H 1052.27 3.48456 1.13903 0
M  V30 11240 H 1051.92 3.49747 3.61506 0
M  V30 11241 H 1051.62 5.10534 2.9091 0
M  V30 11242 H 1053.14 4.79007 3.78661 0
M  V30 11243 H 1054.55 5.497 1.62798 0
M  V30 11244 H 1052.95 5.92346 0.961573 0
M  V30 11245 H 1054.02 4.84881 0.043297 0
M  V30 11246 O 1055.4 -0.0276682 1.61476 0
M  V30 11247 H 1056.09 -0.648033 1.82538 0
M  V30 END ATOM
M  V30 BEGIN BOND
M  V30 END BOND
M  V30 END CTAB
M  END
$$$$
