154234
  -OEChem-06181811063D

 51 51  0     1  0  0  0  0  0999 V2000
   -1.0324   -1.2145   -2.1561 O   0  0  0  0  0  0  0  0  0  0  0  0
   -5.0296   -0.6497   -0.1885 O   0  0  0  0  0  0  0  0  0  0  0  0
   -3.4694   -1.6329    1.1514 O   0  0  0  0  0  0  0  0  0  0  0  0
    2.7747    1.2900   -1.4112 O   0  0  0  0  0  0  0  0  0  0  0  0
    1.8371    0.2771    0.4626 N   0  0  0  0  0  0  0  0  0  0  0  0
   -0.3715    1.9821    0.8217 N   0  0  0  0  0  0  0  0  0  0  0  0
   -0.2961    3.7988   -0.7477 N   0  0  0  0  0  0  0  0  0  0  0  0
    0.3135    4.1076    1.4266 N   0  0  0  0  0  0  0  0  0  0  0  0
   -0.4808   -0.3550    0.0570 C   0  0  2  0  0  0  0  0  0  0  0  0
   -1.4790   -1.1384   -0.8054 C   0  0  1  0  0  0  0  0  0  0  0  0
   -0.8535    1.0975   -0.2361 C   0  0  1  0  0  0  0  0  0  0  0  0
    0.9821   -0.6649   -0.2314 C   0  0  2  0  0  0  0  0  0  0  0  0
   -2.7744   -0.3164   -0.7520 C   0  0  2  0  0  0  0  0  0  0  0  0
   -2.3804    1.0797   -0.2506 C   0  0  0  0  0  0  0  0  0  0  0  0
    1.4055   -2.1254    0.0972 C   0  0  0  0  0  0  0  0  0  0  0  0
    1.1217   -2.4842    1.5781 C   0  0  0  0  0  0  0  0  0  0  0  0
    2.8798   -2.4266   -0.2632 C   0  0  0  0  0  0  0  0  0  0  0  0
   -3.7602   -0.9451    0.1841 C   0  0  0  0  0  0  0  0  0  0  0  0
    1.4463   -3.9307    1.9311 C   0  0  0  0  0  0  0  0  0  0  0  0
    3.2300   -2.1849   -1.7254 C   0  0  0  0  0  0  0  0  0  0  0  0
    2.6595    1.1729   -0.1941 C   0  0  0  0  0  0  0  0  0  0  0  0
   -0.1422    3.2117    0.4884 C   0  0  0  0  0  0  0  0  0  0  0  0
    3.4194    2.0511    0.7637 C   0  0  0  0  0  0  0  0  0  0  0  0
   -0.7069   -0.5313    1.1167 H   0  0  0  0  0  0  0  0  0  0  0  0
   -1.5955   -2.1669   -0.4504 H   0  0  0  0  0  0  0  0  0  0  0  0
   -0.4624    1.3585   -1.2266 H   0  0  0  0  0  0  0  0  0  0  0  0
    1.1469   -0.5127   -1.3037 H   0  0  0  0  0  0  0  0  0  0  0  0
   -3.2267   -0.2586   -1.7499 H   0  0  0  0  0  0  0  0  0  0  0  0
   -2.7695    1.8595   -0.9150 H   0  0  0  0  0  0  0  0  0  0  0  0
   -2.7916    1.2826    0.7466 H   0  0  0  0  0  0  0  0  0  0  0  0
    0.7883   -2.7934   -0.5190 H   0  0  0  0  0  0  0  0  0  0  0  0
    1.8108    0.2815    1.4778 H   0  0  0  0  0  0  0  0  0  0  0  0
    1.6824   -1.8259    2.2510 H   0  0  0  0  0  0  0  0  0  0  0  0
    0.0595   -2.3428    1.7996 H   0  0  0  0  0  0  0  0  0  0  0  0
    3.5578   -1.8458    0.3733 H   0  0  0  0  0  0  0  0  0  0  0  0
    3.0965   -3.4821   -0.0656 H   0  0  0  0  0  0  0  0  0  0  0  0
   -1.0065   -0.3176   -2.5290 H   0  0  0  0  0  0  0  0  0  0  0  0
    1.0572   -4.1663    2.9274 H   0  0  0  0  0  0  0  0  0  0  0  0
    2.5249   -4.1095    1.9582 H   0  0  0  0  0  0  0  0  0  0  0  0
    0.9897   -4.6248    1.2187 H   0  0  0  0  0  0  0  0  0  0  0  0
    2.5360   -2.7143   -2.3859 H   0  0  0  0  0  0  0  0  0  0  0  0
    3.2171   -1.1269   -1.9879 H   0  0  0  0  0  0  0  0  0  0  0  0
    4.2393   -2.5564   -1.9319 H   0  0  0  0  0  0  0  0  0  0  0  0
   -5.6912   -1.0536    0.4127 H   0  0  0  0  0  0  0  0  0  0  0  0
    3.5751    3.0327    0.3072 H   0  0  0  0  0  0  0  0  0  0  0  0
    2.8742    2.1917    1.7011 H   0  0  0  0  0  0  0  0  0  0  0  0
    4.3884    1.5918    0.9764 H   0  0  0  0  0  0  0  0  0  0  0  0
   -0.6614    3.3079   -1.5547 H   0  0  0  0  0  0  0  0  0  0  0  0
   -0.0725    4.7790   -0.8843 H   0  0  0  0  0  0  0  0  0  0  0  0
    0.5025    5.0751    1.1888 H   0  0  0  0  0  0  0  0  0  0  0  0
    0.4788    3.8222    2.3857 H   0  0  0  0  0  0  0  0  0  0  0  0
  1 10  1  0  0  0  0
  1 37  1  0  0  0  0
  2 18  1  0  0  0  0
  2 44  1  0  0  0  0
  3 18  2  0  0  0  0
  4 21  2  0  0  0  0
  5 12  1  0  0  0  0
  5 21  1  0  0  0  0
  5 32  1  0  0  0  0
  6 11  1  0  0  0  0
  6 22  2  0  0  0  0
  7 22  1  0  0  0  0
  7 48  1  0  0  0  0
  7 49  1  0  0  0  0
  8 22  1  0  0  0  0
  8 50  1  0  0  0  0
  8 51  1  0  0  0  0
  9 10  1  0  0  0  0
  9 11  1  0  0  0  0
  9 12  1  0  0  0  0
  9 24  1  0  0  0  0
 10 13  1  0  0  0  0
 10 25  1  0  0  0  0
 11 14  1  0  0  0  0
 11 26  1  0  0  0  0
 12 15  1  0  0  0  0
 12 27  1  0  0  0  0
 13 14  1  0  0  0  0
 13 18  1  0  0  0  0
 13 28  1  0  0  0  0
 14 29  1  0  0  0  0
 14 30  1  0  0  0  0
 15 16  1  0  0  0  0
 15 17  1  0  0  0  0
 15 31  1  0  0  0  0
 16 19  1  0  0  0  0
 16 33  1  0  0  0  0
 16 34  1  0  0  0  0
 17 20  1  0  0  0  0
 17 35  1  0  0  0  0
 17 36  1  0  0  0  0
 19 38  1  0  0  0  0
 19 39  1  0  0  0  0
 19 40  1  0  0  0  0
 20 41  1  0  0  0  0
 20 42  1  0  0  0  0
 20 43  1  0  0  0  0
 21 23  1  0  0  0  0
 23 45  1  0  0  0  0
 23 46  1  0  0  0  0
 23 47  1  0  0  0  0
M  END
> <DATABASE_ID>
DB06614

> <DATABASE_NAME>
drugbank

> <ORIGINAL_SOURCE>
PUBCHEM

> <ORIGINAL_SOURCE_URL>
https://pubchem.ncbi.nlm.nih.gov/rest/pug/compound/inchikey/XRQDFNLINLXZLB-CKIKVBCHSA-N/SDF?record_type=3d

> <SMILES>
[H][C@@]1([C@@H](NC(C)=O)C(CC)CC)[C@H](O)[C@H](C[C@H]1NC(N)=N)C(O)=O

> <INCHI_IDENTIFIER>
InChI=1S/C15H28N4O4/c1-4-8(5-2)12(18-7(3)20)11-10(19-15(16)17)6-9(13(11)21)14(22)23/h8-13,21H,4-6H2,1-3H3,(H,18,20)(H,22,23)(H4,16,17,19)/t9-,10+,11+,12-,13+/m0/s1

> <INCHI_KEY>
XRQDFNLINLXZLB-CKIKVBCHSA-N

> <FORMULA>
C15H28N4O4

> <MOLECULAR_WEIGHT>
328.4072

> <EXACT_MASS>
328.211055404

> <JCHEM_ACCEPTOR_COUNT>
7

> <JCHEM_ATOM_COUNT>
51

> <JCHEM_AVERAGE_POLARIZABILITY>
34.84770949633349

> <JCHEM_BIOAVAILABILITY>
1

> <JCHEM_DONOR_COUNT>
6

> <JCHEM_FORMAL_CHARGE>
0

> <JCHEM_GHOSE_FILTER>
0

> <JCHEM_IUPAC>
(1S,2S,3R,4R)-4-carbamimidamido-3-[(1S)-1-acetamido-2-ethylbutyl]-2-hydroxycyclopentane-1-carboxylic acid

> <ALOGPS_LOGP>
-0.27

> <JCHEM_LOGP>
-2.121477642212543

> <ALOGPS_LOGS>
-2.94

> <JCHEM_MDDR_LIKE_RULE>
0

> <JCHEM_NUMBER_OF_RINGS>
1

> <JCHEM_PHYSIOLOGICAL_CHARGE>
0

> <JCHEM_PKA>
14.58599317291571

> <JCHEM_PKA_STRONGEST_ACIDIC>
4.09370159477095

> <JCHEM_PKA_STRONGEST_BASIC>
12.46337485663902

> <JCHEM_POLAR_SURFACE_AREA>
148.52999999999997

> <JCHEM_REFRACTIVITY>
94.46039999999999

> <JCHEM_ROTATABLE_BOND_COUNT>
7

> <JCHEM_RULE_OF_FIVE>
0

> <ALOGPS_SOLUBILITY>
3.80e-01 g/l

> <JCHEM_TRADITIONAL_IUPAC>
peramivir

> <JCHEM_VEBER_RULE>
0

> <DRUGBANK_ID>
DB06614

> <SECONDARY_ACCESSION_NUMBERS>
EXPT00645; DB03655

> <DRUG_GROUPS>
approved; investigational

> <GENERIC_NAME>
Peramivir

> <SYNONYMS>
Peramivir; Peramivir anhydrous

> <PRODUCTS>
Rapivab

> <INTERNATIONAL_BRANDS>
Peramiflu; Rapiacta; Rapivab

> <SALTS>
Peramivir hydrate

$$$$