drugbank_target|P0A9M5 Xanthine phosphoribosyltransferase (DB01972; DB02134; DB02377; DB03942)
 OpenBabel12092120033D

  0  0  0     0  0            999 V3000
M  V30 BEGIN CTAB
M  V30 COUNTS 2396 2424 0 0 0
M  V30 BEGIN ATOM
M  V30 1 H -0.908 1.98254 -0.117106 0
M  V30 2 N 0 1.576 0 0
M  V30 3 C 0.933 2.03868 1.02534 0
M  V30 4 C 1.911 0.928543 1.3348 0
M  V30 5 O 3.095 1.19667 1.45644 0
M  V30 6 C 0.222 2.43627 2.35294 0
M  V30 7 C -0.732 3.65373 2.2001 0
M  V30 8 S 0.101 5.13292 1.52614 0
M  V30 9 C 1.257 5.56322 2.86805 0
M  V30 10 H 1.49 2.90518 0.631377 0
M  V30 11 H -0.977 1.52953 0.210867 0
M  V30 12 H 0.981 2.67203 3.11629 0
M  V30 13 H -0.358 1.57376 2.7183 0
M  V30 14 H -1.165 3.90944 3.18086 0
M  V30 15 H -1.563 3.418 1.51819 0
M  V30 16 H 0.729 5.58782 3.83104 0
M  V30 17 H 1.672 6.56266 2.65933 0
M  V30 18 H 2.08 4.83886 2.90714 0
M  V30 19 N 1.4781 -0.272755 1.55222 0
M  V30 20 C 2.7031 -1.02683 1.80197 0
M  V30 21 C 3.1281 -1.79142 0.573551 0
M  V30 22 O 2.4861 -1.74917 -0.476849 0
M  V30 23 C 2.5341 -1.9609 3.02624 0
M  V30 24 O 1.6381 -3.04863 2.77727 0
M  V30 25 H 0.9791 -0.293557 0.595584 0
M  V30 26 H 3.5091 -0.30159 2.02365 0
M  V30 27 H 3.5191 -2.38039 3.31363 0
M  V30 28 H 2.1941 -1.39851 3.91682 0
M  V30 29 H 0.7711 -2.67228 2.60084 0
M  V30 30 N 2.9562 -1.48159 -0.537278 0
M  V30 31 C 3.8662 -1.64807 -1.6696 0
M  V30 32 C 4.8822 -0.530651 -1.65711 0
M  V30 33 O 6.0582 -0.800784 -1.84796 0
M  V30 34 C 3.1232 -1.67708 -3.03438 0
M  V30 35 C 2.1842 -2.91025 -3.156 0
M  V30 36 C 1.4172 -2.93778 -4.45567 0
M  V30 37 O 1.6402 -2.05153 -5.3223 0
M  V30 38 O 0.5742 -3.85868 -4.61941 0
M  V30 39 H 4.4002 -2.6066 -1.55853 0
M  V30 40 H 1.9852 -1.31475 -0.709549 0
M  V30 41 H 3.8672 -1.7218 -3.84619 0
M  V30 42 H 2.5422 -0.750278 -3.14885 0
M  V30 43 H 1.4492 -2.92089 -2.33741 0
M  V30 44 H 2.7822 -3.83065 -3.09066 0
M  V30 45 N 4.4343 0.785586 -1.36625 0
M  V30 46 C 5.3813 1.89838 -1.31264 0
M  V30 47 C 6.3513 1.65115 -0.180633 0
M  V30 48 O 7.5363 1.87222 -0.36777 0
M  V30 49 C 4.6763 3.26706 -1.11163 0
M  V30 50 C 3.7893 3.63476 -2.33472 0
M  V30 51 C 2.9243 4.89481 -2.06353 0
M  V30 52 C 1.9633 5.18941 -3.24602 0
M  V30 53 N 1.1003 6.36131 -2.97123 0
M  V30 54 H 5.9403 1.93756 -2.26413 0
M  V30 55 H 3.4773 0.947454 -1.12524 0
M  V30 56 H 5.4353 4.05639 -0.975337 0
M  V30 57 H 4.0653 3.222 -0.196674 0
M  V30 58 H 3.1173 2.79636 -2.57891 0
M  V30 59 H 4.4293 3.81193 -3.21704 0
M  V30 60 H 3.5833 5.76288 -1.89675 0
M  V30 61 H 2.3223 4.73841 -1.15437 0
M  V30 62 H 1.3273 4.30615 -3.41834 0
M  V30 63 H 2.5523 5.36498 -4.16349 0
M  V30 64 H 0.4983 6.21875 -2.08823 0
M  V30 65 H 0.4153 6.54198 -3.78894 0
M  V30 66 H 1.6833 7.2591 -2.84033 0
M  V30 67 N 5.9124 1.20967 1.01018 0
M  V30 68 C 7.1424 1.04803 1.78044 0
M  V30 69 C 7.5504 -0.405462 1.84804 0
M  V30 70 O 6.8934 -1.2932 1.30468 0
M  V30 71 C 6.9554 1.56377 3.23707 0
M  V30 72 C 6.6194 3.04767 3.40538 0
M  V30 73 C 7.6164 4.02366 3.29239 0
M  V30 74 C 5.3014 3.43862 3.66147 0
M  V30 75 C 7.2954 5.37049 3.43304 0
M  V30 76 C 4.9824 4.78699 3.79855 0
M  V30 77 C 5.9804 5.75101 3.68439 0
M  V30 78 O 5.6684 7.07493 3.81719 0
M  V30 79 H 5.4004 0.368778 0.56655 0
M  V30 80 H 7.9544 1.60642 1.27997 0
M  V30 81 H 6.1844 0.949297 3.74867 0
M  V30 82 H 7.8734 1.36136 3.8239 0
M  V30 83 H 8.6394 3.73506 3.09384 0
M  V30 84 H 4.5184 2.69364 3.74118 0
M  V30 85 H 8.0624 6.12277 3.34309 0
M  V30 86 H 3.9594 5.07247 3.99213 0
M  V30 87 H 4.7274 7.1483 3.98697 0
M  V30 88 N 7.3905 -1.2043 1.01659 0
M  V30 89 C 8.6395 -1.89118 0.701237 0
M  V30 90 C 8.9525 -1.79705 -0.772358 0
M  V30 91 O 10.1585 -2.43528 -1.20026 0
M  V30 92 C 8.6145 -3.39168 1.20388 0
M  V30 93 C 8.2225 -3.57166 2.70438 0
M  V30 94 C 9.9665 -4.1341 0.963953 0
M  V30 95 C 7.8735 -5.01042 3.14183 0
M  V30 96 H 6.8035 -0.708267 0.2586 0
M  V30 97 H 9.4545 -1.36239 1.22927 0
M  V30 98 H 7.8365 -3.91369 0.603824 0
M  V30 99 H 9.0105 -3.15351 3.35992 0
M  V30 100 H 7.3255 -2.96294 2.92572 0
M  V30 101 H 9.9225 -5.19491 1.26621 0
M  V30 102 H 10.2655 -4.16181 -0.099578 0
M  V30 103 H 10.7985 -3.67309 1.52738 0
M  V30 104 H 7.5375 -5.03426 4.19812 0
M  V30 105 H 7.0575 -5.43668 2.53348 0
M  V30 106 H 8.7365 -5.69623 3.0682 0
M  V30 107 N 8.8686 -0.792821 -1.36206 0
M  V30 108 C 10.1146 -0.36733 -1.99446 0
M  V30 109 C 10.4476 1.05917 -1.62774 0
M  V30 110 O 9.7226 1.7324 -0.88421 0
M  V30 111 C 10.0056 -0.535044 -3.56103 0
M  V30 112 C 9.8586 -2.00548 -4.02617 0
M  V30 113 C 11.1776 0.0478191 -4.40074 0
M  V30 114 H 8.2966 -0.134941 -0.724541 0
M  V30 115 H 10.9386 -0.999794 -1.61568 0
M  V30 116 H 9.0886 0.00336329 -3.885 0
M  V30 117 H 10.7606 -2.60521 -3.80692 0
M  V30 118 H 9.0036 -2.50686 -3.54032 0
M  V30 119 H 9.6746 -2.07377 -5.11565 0
M  V30 120 H 12.1506 -0.411822 -4.14057 0
M  V30 121 H 11.0266 -0.0995336 -5.4881 0
M  V30 122 H 11.2876 1.14025 -4.27142 0
M  V30 123 N 10.3467 1.47872 -0.545128 0
M  V30 124 C 11.5747 2.06889 -0.021084 0
M  V30 125 C 11.9897 1.39955 1.2672 0
M  V30 126 O 11.3467 0.492036 1.75742 0
M  V30 127 C 11.3977 3.60996 0.190817 0
M  V30 128 O 11.1187 4.25419 -1.04644 0
M  V30 129 C 12.6197 4.36849 0.753521 0
M  V30 130 H 9.8397 0.669785 -0.0403635 0
M  V30 131 H 12.3837 1.90049 -0.755095 0
M  V30 132 H 10.5387 3.77391 0.87492 0
M  V30 133 H 10.9527 5.17785 -0.836611 0
M  V30 134 H 12.4267 5.45399 0.851139 0
M  V30 135 H 12.9037 4.02306 1.762 0
M  V30 136 H 13.5097 4.25169 0.105503 0
M  V30 137 N 11.8248 0.280983 1.55075 0
M  V30 138 C 13.0708 -0.327573 2.00745 0
M  V30 139 C 13.4258 -1.53045 1.16598 0
M  V30 140 O 12.7188 -1.90221 0.229451 0
M  V30 141 C 12.9128 -0.754656 3.49342 0
M  V30 142 C 12.7418 0.40529 4.4787 0
M  V30 143 C 11.5118 0.890947 4.97383 0
M  V30 144 C 13.7098 1.24371 4.99035 0
M  V30 145 N 11.6918 2.01975 5.79724 0
M  V30 146 C 13.0628 2.22031 5.7888 0
M  V30 147 C 15.1178 1.27638 4.81262 0
M  V30 148 C 13.8208 3.22709 6.42846 0
M  V30 149 C 15.8468 2.27164 5.46031 0
M  V30 150 C 15.2088 3.23556 6.25692 0
M  V30 151 H 11.3078 -0.0848774 0.77738 0
M  V30 152 H 13.8918 0.406342 1.90413 0
M  V30 153 H 12.0628 -1.45778 3.60005 0
M  V30 154 H 13.7948 -1.34105 3.81835 0
M  V30 155 H 10.5498 0.469262 4.71269 0
M  V30 156 H 10.9738 2.58794 6.25584 0
M  V30 157 H 15.6158 0.544936 4.19274 0
M  V30 158 H 13.3338 3.96784 7.0398 0
M  V30 159 H 16.9198 2.30441 5.34217 0
M  V30 160 H 15.7998 3.99309 6.74924 0
M  V30 161 N 13.3029 -1.57598 0.00835791 0
M  V30 162 C 14.5799 -1.82172 -0.712235 0
M  V30 163 C 14.9599 -0.887873 -1.9152 0
M  V30 164 O 14.3079 0.06146 -2.28417 0
M  V30 165 C 14.5179 -3.30875 -1.11008 0
M  V30 166 C 15.8659 -3.96826 -1.51044 0
M  V30 167 O 16.8899 -3.35248 -1.20364 0
M  V30 168 O 15.7489 -5.05318 -2.08125 0
M  V30 169 H 12.8429 -0.750435 -0.347529 0
M  V30 170 H 15.3889 -1.69665 0.0344523 0
M  V30 171 H 14.1609 -3.90481 -0.252982 0
M  V30 172 H 13.7839 -3.48412 -1.9156 0
M  V30 173 N 14.781 0.264519 -1.55364 0
M  V30 174 C 15.714 1.35297 -1.83766 0
M  V30 175 C 16.692 1.47171 -0.691336 0
M  V30 176 O 17.876 1.63663 -0.935238 0
M  V30 177 C 15.003 2.72847 -2.00679 0
M  V30 178 C 14.049 2.78214 -3.23263 0
M  V30 179 S 14.882 2.36601 -4.80396 0
M  V30 180 C 16.038 3.7611 -5.00292 0
M  V30 181 H 16.271 1.11003 -2.758 0
M  V30 182 H 13.804 0.464596 -1.47244 0
M  V30 183 H 15.762 3.52057 -2.11108 0
M  V30 184 H 14.423 2.94388 -1.09518 0
M  V30 185 H 13.616 3.7919 -3.3201 0
M  V30 186 H 13.218 2.07034 -3.11469 0
M  V30 187 H 15.51 4.71457 -4.86554 0
M  V30 188 H 16.453 3.7231 -6.02321 0
M  V30 189 H 16.861 3.67806 -4.28228 0
M  V30 190 N 16.2591 1.48442 0.529413 0
M  V30 191 C 17.1891 1.65902 1.64313 0
M  V30 192 C 18.1701 0.507897 1.6234 0
M  V30 193 O 19.3551 0.740503 1.79528 0
M  V30 194 C 16.4851 1.69911 3.02898 0
M  V30 195 C 15.4391 2.8453 3.19729 0
M  V30 196 C 14.7651 2.73629 4.59381 0
M  V30 197 C 16.0651 4.25821 3.02447 0
M  V30 198 H 17.7591 2.5914 1.49955 0
M  V30 199 H 15.3051 1.24709 0.719982 0
M  V30 200 H 17.2581 1.80715 3.80684 0
M  V30 201 H 15.9821 0.732524 3.18279 0
M  V30 202 H 14.6411 2.73283 2.44361 0
M  V30 203 H 14.2891 1.74938 4.71599 0
M  V30 204 H 13.9891 3.50541 4.71588 0
M  V30 205 H 15.5131 2.86401 5.39265 0
M  V30 206 H 16.9271 4.37898 3.70024 0
M  V30 207 H 15.3241 5.03735 3.26146 0
M  V30 208 H 16.3941 4.42244 1.98867 0
M  V30 209 N 17.7372 -0.778329 1.37039 0
M  V30 210 C 18.6692 -1.90034 1.2814 0
M  V30 211 C 19.6822 -1.61585 0.198558 0
M  V30 212 O 20.8712 -1.72625 0.454175 0
M  V30 213 C 17.9712 -3.25108 0.956968 0
M  V30 214 C 17.1442 -3.81253 2.14394 0
M  V30 215 C 16.2032 -4.94789 1.79082 0
M  V30 216 O 15.2292 -5.10721 2.51301 0
M  V30 217 N 16.4312 -5.75878 0.731043 0
M  V30 218 H 19.1962 -1.98186 2.24816 0
M  V30 219 H 16.7572 -0.957129 1.30578 0
M  V30 220 H 18.7492 -3.9857 0.701701 0
M  V30 221 H 17.3192 -3.125 0.0789812 0
M  V30 222 H 16.5392 -2.99647 2.56135 0
M  V30 223 H 17.8272 -4.15495 2.93668 0
M  V30 224 H 17.2252 -5.65547 0.131618 0
M  V30 225 H 15.7822 -6.49596 0.535622 0
M  V30 226 N 19.2153 -1.21501 -1.00376 0
M  V30 227 C 20.4643 -1.02718 -1.73586 0
M  V30 228 C 20.7773 0.439589 -1.90596 0
M  V30 229 O 21.9833 0.746848 -2.61026 0
M  V30 230 C 20.4393 -1.78929 -3.1227 0
M  V30 231 C 20.0473 -3.29783 -3.03228 0
M  V30 232 C 21.7913 -1.68557 -3.89601 0
M  V30 233 C 19.6983 -3.98479 -4.36999 0
M  V30 234 H 18.6283 -0.380733 -0.650814 0
M  V30 235 H 21.2793 -1.45248 -1.1214 0
M  V30 236 H 19.6613 -1.29192 -3.74333 0
M  V30 237 H 20.8353 -3.86832 -2.50395 0
M  V30 238 H 19.1503 -3.40711 -2.39385 0
M  V30 239 H 21.7473 -2.17211 -4.88593 0
M  V30 240 H 22.0903 -0.644021 -4.11288 0
M  V30 241 H 22.6233 -2.15778 -3.34193 0
M  V30 242 H 19.3623 -5.02841 -4.20513 0
M  V30 243 H 18.8823 -3.46219 -4.89788 0
M  V30 244 H 20.5613 -4.03462 -5.05794 0
M  V30 245 N 20.6934 1.19889 -1.02296 0
M  V30 246 C 21.6434 2.20777 -0.56934 0
M  V30 247 C 22.6274 1.56379 0.378741 0
M  V30 248 O 23.8194 1.75859 0.200673 0
M  V30 249 C 20.9484 3.43196 0.0845077 0
M  V30 250 C 20.0344 4.14749 -0.88566 0
M  V30 251 N 20.4254 4.62584 -2.04573 0
M  V30 252 C 18.7234 4.40347 -0.707835 0
M  V30 253 C 19.4244 5.17466 -2.65714 0
M  V30 254 N 18.4004 5.0791 -1.93723 0
M  V30 255 H 22.2024 2.55434 -1.45365 0
M  V30 256 H 19.7164 1.35897 -0.88915 0
M  V30 257 H 21.7134 4.14707 0.427067 0
M  V30 258 H 20.3734 3.10042 0.964574 0
M  V30 259 H 21.3844 4.57597 -2.4254 0
M  V30 260 H 18.0614 4.17317 0.12364 0
M  V30 261 H 19.4514 5.64808 -3.63925 0
M  V30 262 N 22.1715 0.800033 1.35784 0
M  V30 263 C 23.1345 0.211565 2.28221 0
M  V30 264 C 24.1345 -0.59728 1.49296 0
M  V30 265 O 25.3245 -0.416721 1.69142 0
M  V30 266 C 22.4565 -0.705846 3.33513 0
M  V30 267 H 23.6495 1.02677 2.81776 0
M  V30 268 H 21.2025 0.570211 1.45528 0
M  V30 269 H 21.9375 -1.54498 2.85133 0
M  V30 270 H 21.7225 -0.127655 3.91892 0
M  V30 271 H 23.2125 -1.11211 4.02519 0
M  V30 272 N 23.6496 -1.47581 0.552962 0
M  V30 273 C 25.0656 -1.5818 0.212424 0
M  V30 274 C 25.2656 -1.55213 -1.28496 0
M  V30 275 O 24.3216 -1.45329 -2.06484 0
M  V30 276 C 25.6346 -2.88865 0.835318 0
M  V30 277 C 27.1826 -3.0244 0.806156 0
M  V30 278 C 27.6576 -4.35819 1.40804 0
M  V30 279 N 29.1486 -4.42444 1.37103 0
M  V30 280 C 29.8836 -5.44202 1.80641 0
M  V30 281 N 29.3796 -6.52795 2.32015 0
M  V30 282 N 31.1726 -5.35222 1.71738 0
M  V30 283 H 23.3236 -1.47753 1.52587 0
M  V30 284 H 25.5866 -0.702941 0.636064 0
M  V30 285 H 25.2926 -2.9676 1.88749 0
M  V30 286 H 25.1666 -3.7579 0.325848 0
M  V30 287 H 27.5536 -2.94144 -0.237317 0
M  V30 288 H 27.6346 -2.17068 1.35334 0
M  V30 289 H 27.2786 -4.44871 2.45056 0
M  V30 290 H 27.2086 -5.19916 0.836338 0
M  V30 291 H 29.6996 -3.6456 0.995202 0
M  V30 292 H 30.0126 -7.26609 2.63171 0
M  V30 293 H 28.3576 -6.53696 2.36023 0
M  V30 294 H 31.5486 -4.49284 1.31382 0
M  V30 295 H 31.7216 -6.14389 2.05987 0
M  V30 296 N 25.1277 -0.289203 -1.54924 0
M  V30 297 C 26.0747 0.592115 -2.23075 0
M  V30 298 C 27.0447 1.13881 -1.20915 0
M  V30 299 O 28.2297 1.18551 -1.495 0
M  V30 300 C 25.3697 1.76376 -2.96623 0
M  V30 301 C 24.4827 1.24959 -4.13533 0
M  V30 302 C 23.6177 2.38416 -4.74691 0
M  V30 303 C 22.6567 1.84072 -5.83767 0
M  V30 304 N 21.7937 2.91057 -6.38929 0
M  V30 305 H 26.6337 0.00432038 -2.98 0
M  V30 306 H 24.1707 -0.00963529 -1.47097 0
M  V30 307 H 26.1287 2.45268 -3.3749 0
M  V30 308 H 24.7587 2.32337 -2.24097 0
M  V30 309 H 23.8107 0.453307 -3.77689 0
M  V30 310 H 25.1227 0.811662 -4.92152 0
M  V30 311 H 24.2767 3.15276 -5.18349 0
M  V30 312 H 23.0157 2.8553 -3.95378 0
M  V30 313 H 22.0207 1.05697 -5.39545 0
M  V30 314 H 23.2457 1.37877 -6.64956 0
M  V30 315 H 21.1917 3.37526 -5.62505 0
M  V30 316 H 21.1087 2.51724 -7.12861 0
M  V30 317 H 22.3767 3.6785 -6.87246 0
M  V30 318 N 26.6058 1.57591 -0.0167156 0
M  V30 319 C 27.5358 2.12496 0.967858 0
M  V30 320 C 28.5168 1.03807 1.34752 0
M  V30 321 O 29.7018 1.31577 1.42833 0
M  V30 322 C 26.8318 2.64194 2.25431 0
M  V30 323 C 25.7858 3.77559 2.01576 0
M  V30 324 C 25.1118 4.15636 3.36379 0
M  V30 325 C 26.4118 5.04151 1.36489 0
M  V30 326 H 28.1058 2.95013 0.510643 0
M  V30 327 H 25.6518 1.41915 0.244181 0
M  V30 328 H 27.6048 3.01236 2.94678 0
M  V30 329 H 26.3288 1.78821 2.73296 0
M  V30 330 H 24.9878 3.40937 1.34751 0
M  V30 331 H 24.6358 3.27263 3.81979 0
M  V30 332 H 24.3358 4.92022 3.21229 0
M  V30 333 H 25.8598 4.5525 4.06915 0
M  V30 334 H 27.2738 5.38857 1.95718 0
M  V30 335 H 25.6708 5.85453 1.31776 0
M  V30 336 H 26.7408 4.83733 0.336219 0
M  V30 337 N 28.0839 -0.256276 1.55502 0
M  V30 338 C 29.0469 -1.30047 1.88734 0
M  V30 339 C 30.0469 -1.4154 0.763086 0
M  V30 340 O 31.2369 -1.40403 1.03115 0
M  V30 341 C 28.3689 -2.67953 2.10747 0
M  V30 342 H 29.5619 -1.01802 2.82093 0
M  V30 343 H 27.1149 -0.495134 1.4825 0
M  V30 344 H 27.8499 -3.01351 1.19825 0
M  V30 345 H 27.6349 -2.60993 2.92617 0
M  V30 346 H 29.1249 -3.43368 2.37673 0
M  V30 347 N 29.562 -1.4872 -0.521534 0
M  V30 348 C 30.787 -1.61101 -1.30618 0
M  V30 349 C 31.212 -0.274611 -1.86085 0
M  V30 350 O 30.57 0.754937 -1.64834 0
M  V30 351 C 30.618 -2.66709 -2.4269 0
M  V30 352 O 29.722 -2.24456 -3.45967 0
M  V30 353 H 29.063 -0.539921 -0.386499 0
M  V30 354 H 31.593 -1.94767 -0.626645 0
M  V30 355 H 31.603 -2.88245 -2.88754 0
M  V30 356 H 30.278 -3.63727 -2.01682 0
M  V30 357 H 28.855 -2.13168 -3.05964 0
M  V30 358 N 31.0401 0.771051 -1.3745 0
M  V30 359 C 32.4561 1.07171 -1.18265 0
M  V30 360 C 32.6561 2.01491 -0.019287 0
M  V30 361 O 31.7121 2.44244 0.640408 0
M  V30 362 C 33.0251 1.66854 -2.50161 0
M  V30 363 C 34.5731 1.79109 -2.56689 0
M  V30 364 C 35.0481 2.42205 -3.88717 0
M  V30 365 N 36.5391 2.49655 -3.90162 0
M  V30 366 C 37.2741 2.9933 -4.8907 0
M  V30 367 N 36.7701 3.49172 -5.98374 0
M  V30 368 N 38.5631 2.9821 -4.76474 0
M  V30 369 H 30.7141 0.144796 -2.11906 0
M  V30 370 H 32.9771 0.126863 -0.939473 0
M  V30 371 H 32.6831 1.05017 -3.35655 0
M  V30 372 H 32.5571 2.6614 -2.673 0
M  V30 373 H 34.9441 2.40077 -1.71601 0
M  V30 374 H 35.0251 0.785757 -2.43433 0
M  V30 375 H 34.6691 1.81875 -4.74219 0
M  V30 376 H 34.5991 3.43345 -3.99276 0
M  V30 377 H 37.0901 2.14383 -3.11205 0
M  V30 378 H 37.4031 3.8548 -6.69795 0
M  V30 379 H 35.7481 3.47275 -6.02018 0
M  V30 380 H 38.9391 2.58572 -3.90203 0
M  V30 381 H 39.1121 3.36613 -5.53711 0
M  V30 382 N 32.5182 1.22032 0.997298 0
M  V30 383 C 33.4482 1.01065 2.10495 0
M  V30 384 C 34.4292 -0.0669542 1.69968 0
M  V30 385 O 35.6142 0.0943987 1.9397 0
M  V30 386 C 32.7442 0.582874 3.42374 0
M  V30 387 C 31.6982 1.60592 3.96729 0
M  V30 388 C 31.0242 1.03412 5.24605 0
M  V30 389 C 32.3242 2.99478 4.27914 0
M  V30 390 H 34.0182 1.93708 2.28292 0
M  V30 391 H 31.5642 0.932761 1.09707 0
M  V30 392 H 33.5172 0.423332 4.19268 0
M  V30 393 H 32.2412 -0.379213 3.24391 0
M  V30 394 H 30.9002 1.75316 3.21963 0
M  V30 395 H 30.5482 0.063518 5.0296 0
M  V30 396 H 30.2482 1.71754 5.61938 0
M  V30 397 H 31.7722 0.886066 6.04137 0
M  V30 398 H 33.1862 2.88153 4.95622 0
M  V30 399 H 31.5832 3.64903 4.76409 0
M  V30 400 H 32.6532 3.49742 3.3587 0
M  V30 401 N 33.9963 -1.19345 1.0293 0
M  V30 402 C 34.9293 -2.21347 0.555029 0
M  V30 403 C 35.9073 -1.57492 -0.404351 0
M  V30 404 O 37.0913 -1.85741 -0.321352 0
M  V30 405 C 34.2183 -3.38163 -0.19064 0
M  V30 406 C 33.2643 -4.20375 0.720236 0
M  V30 407 S 34.0973 -4.88371 2.19668 0
M  V30 408 C 35.2533 -6.08597 1.46153 0
M  V30 409 H 35.4863 -2.61235 1.41929 0
M  V30 410 H 33.0193 -1.29598 0.839272 0
M  V30 411 H 34.9773 -4.05871 -0.614724 0
M  V30 412 H 33.6383 -2.9671 -1.03063 0
M  V30 413 H 32.8313 -5.03793 0.14455 0
M  V30 414 H 32.4333 -3.57987 1.08266 0
M  V30 415 H 34.7253 -6.73354 0.748357 0
M  V30 416 H 35.6683 -6.7065 2.27233 0
M  V30 417 H 36.0763 -5.56297 0.958842 0
M  V30 418 N 35.4744 -0.807222 -1.35358 0
M  V30 419 C 36.8854 -0.44876 -1.81226 0
M  V30 420 C 37.2364 1.02929 -1.67033 0
M  V30 421 O 36.3614 1.79991 -1.20133 0
M  V30 422 C 36.9564 -0.807774 -3.2903 0
M  V30 423 C 35.5154 -0.501901 -3.73039 0
M  V30 424 C 34.6624 -1.03304 -2.57339 0
M  V30 425 H 37.6134 -0.998808 -1.23327 0
M  V30 426 H 37.6344 -0.10554 -3.80354 0
M  V30 427 H 37.1464 -1.88357 -3.39328 0
M  V30 428 H 35.2474 0.565128 -3.68289 0
M  V30 429 H 35.3604 -1.03497 -4.67787 0
M  V30 430 H 33.7244 -0.455339 -2.50597 0
M  V30 431 H 34.5074 -2.11496 -2.70415 0
M  V30 432 N 36.9525 1.47285 -0.560781 0
M  V30 433 C 38.1775 2.07359 -0.0410566 0
M  V30 434 C 38.6025 1.41017 1.24483 0
M  V30 435 O 37.9605 0.486368 1.74654 0
M  V30 436 C 38.0085 3.6035 0.134123 0
M  V30 437 O 37.1125 3.94681 1.19587 0
M  V30 438 H 36.4535 0.661887 -0.0529291 0
M  V30 439 H 38.9835 1.89252 -0.777482 0
M  V30 440 H 38.9935 4.0652 0.347207 0
M  V30 441 H 37.6685 4.08034 -0.805047 0
M  V30 442 H 36.2455 3.60251 0.962987 0
M  V30 443 N 38.4306 0.297415 1.54768 0
M  V30 444 C 39.3406 -0.58983 2.27064 0
M  V30 445 C 40.3566 -1.15144 1.30453 0
M  V30 446 O 41.5326 -1.17699 1.63428 0
M  V30 447 C 38.5976 -1.74714 2.9946 0
M  V30 448 C 37.6586 -1.21997 4.11601 0
M  V30 449 C 36.8916 -2.32212 4.80535 0
M  V30 450 O 37.1146 -3.52036 4.48806 0
M  V30 451 O 36.0486 -1.99106 5.68014 0
M  V30 452 H 39.8746 -0.00348199 3.037 0
M  V30 453 H 37.4596 0.0640035 1.49263 0
M  V30 454 H 39.3416 -2.42147 3.44881 0
M  V30 455 H 38.0166 -2.32016 2.25722 0
M  V30 456 H 36.9236 -0.511458 3.70587 0
M  V30 457 H 38.2566 -0.692419 4.87305 0
M  V30 458 N 39.9087 -1.5758 0.0250728 0
M  V30 459 C 40.8407 -2.06869 -0.986796 0
M  V30 460 C 41.8537 -0.991332 -1.29137 0
M  V30 461 O 43.0427 -1.26761 -1.25674 0
M  V30 462 C 40.1427 -2.47486 -2.31525 0
M  V30 463 C 39.3157 -3.78253 -2.19643 0
M  V30 464 C 38.3747 -4.05464 -3.35388 0
M  V30 465 O 37.4007 -4.75774 -3.12454 0
M  V30 466 N 38.6027 -3.55321 -4.59051 0
M  V30 467 H 41.3677 -2.94302 -0.566276 0
M  V30 468 H 38.9287 -1.6109 -0.161776 0
M  V30 469 H 40.9207 -2.62785 -3.07776 0
M  V30 470 H 39.4907 -1.65441 -2.65232 0
M  V30 471 H 38.7107 -3.7279 -1.28144 0
M  V30 472 H 39.9987 -4.63936 -2.08903 0
M  V30 473 H 39.3967 -2.98431 -4.80578 0
M  V30 474 H 37.9537 -3.75905 -5.32483 0
M  V30 475 N 41.3868 0.248026 -1.55636 0
M  V30 476 C 42.6328 0.973427 -1.78594 0
M  V30 477 C 42.9878 1.83007 -0.593823 0
M  V30 478 O 42.2808 1.87097 0.412961 0
M  V30 479 C 42.4748 1.86819 -3.04686 0
M  V30 480 C 42.3038 1.09965 -4.36048 0
M  V30 481 C 41.0738 0.805204 -4.98843 0
M  V30 482 C 43.2718 0.477783 -5.12076 0
M  V30 483 N 41.2538 0.0124859 -6.13899 0
M  V30 484 C 42.6248 -0.179565 -6.1974 0
M  V30 485 C 44.6798 0.388136 -4.96385 0
M  V30 486 C 43.3828 -0.91795 -7.13419 0
M  V30 487 C 45.4088 -0.336716 -5.90441 0
M  V30 488 C 44.7708 -0.982705 -6.97511 0
M  V30 489 H 40.8698 0.337348 -0.705493 0
M  V30 490 H 43.4538 0.24667 -1.93131 0
M  V30 491 H 41.6248 2.56698 -2.9148 0
M  V30 492 H 43.3568 2.52907 -3.15944 0
M  V30 493 H 40.1118 1.11671 -4.60246 0
M  V30 494 H 40.5358 -0.371933 -6.75978 0
M  V30 495 H 45.1778 0.873237 -4.13684 0
M  V30 496 H 42.8958 -1.41466 -7.95621 0
M  V30 497 H 46.4818 -0.406731 -5.80377 0
M  V30 498 H 45.3618 -1.53464 -7.69037 0
M  V30 499 N 42.8649 1.48995 0.513639 0
M  V30 500 C 43.8119 1.6473 1.61656 0
M  V30 501 C 44.7819 0.488984 1.58739 0
M  V30 502 O 45.9669 0.714478 1.76918 0
M  V30 503 C 43.1069 1.7082 2.99858 0
M  V30 504 C 42.2199 2.9787 3.12885 0
M  V30 505 C 41.3549 2.95017 4.41744 0
M  V30 506 C 40.3939 4.16702 4.48359 0
M  V30 507 N 39.5309 4.11832 5.68629 0
M  V30 508 H 44.3709 2.58909 1.47547 0
M  V30 509 H 41.9079 1.28382 0.71808 0
M  V30 510 H 43.8659 1.72331 3.79944 0
M  V30 511 H 42.4959 0.801181 3.12699 0
M  V30 512 H 41.5479 3.06029 2.25944 0
M  V30 513 H 42.8599 3.8786 3.13633 0
M  V30 514 H 42.0139 2.95021 5.30139 0
M  V30 515 H 40.7529 2.02784 4.43542 0
M  V30 516 H 39.7579 4.16955 3.58369 0
M  V30 517 H 40.9829 5.10113 4.48287 0
M  V30 518 H 38.9289 3.22428 5.71293 0
M  V30 519 H 38.8459 4.95543 5.7094 0
M  V30 520 H 40.1139 4.1592 6.59266 0
M  V30 521 N 44.343 -0.763751 1.37857 0
M  V30 522 C 45.591 -1.51957 1.33243 0
M  V30 523 C 45.912 -1.94835 -0.0801709 0
M  V30 524 O 45.182 -1.66894 -1.02582 0
M  V30 525 H 43.762 -0.563626 0.49024 0
M  V30 526 H 46.424 -0.908504 1.7243 0
M  V30 527 H 45.52 -2.41523 1.97669 0
M  V30 528 N 45.8211 -1.22559 -0.990812 0
M  V30 529 C 47.0701 -1.04553 -1.72486 0
M  V30 530 C 47.3831 0.419349 -1.91052 0
M  V30 531 O 48.5891 0.719121 -2.61803 0
M  V30 532 C 47.0451 -1.82231 -3.10355 0
M  V30 533 C 46.6531 -3.32981 -2.99713 0
M  V30 534 C 48.3971 -1.7268 -3.87791 0
M  V30 535 C 46.3041 -4.03091 -4.32748 0
M  V30 536 H 45.2341 -0.387614 -0.646739 0
M  V30 537 H 47.8851 -1.46429 -1.10593 0
M  V30 538 H 46.2671 -1.33155 -3.72942 0
M  V30 539 H 47.4411 -3.89466 -2.46278 0
M  V30 540 H 45.7561 -3.43231 -2.35758 0
M  V30 541 H 48.3531 -2.22381 -4.86262 0
M  V30 542 H 48.6961 -0.687607 -4.10582 0
M  V30 543 H 49.2291 -2.1931 -3.31885 0
M  V30 544 H 45.9681 -5.07273 -4.15156 0
M  V30 545 H 45.4881 -3.51394 -4.86089 0
M  V30 546 H 47.1671 -4.08804 -5.01486 0
M  V30 547 N 47.2992 1.18797 -1.03562 0
M  V30 548 C 48.5482 1.87978 -0.731235 0
M  V30 549 C 48.8612 1.80911 0.743671 0
M  V30 550 O 50.0672 2.45407 1.16137 0
M  V30 551 C 48.5232 3.3721 -1.25768 0
M  V30 552 C 48.1312 3.52818 -2.76085 0
M  V30 553 C 49.8752 4.11825 -1.0296 0
M  V30 554 C 47.7822 4.9598 -3.22114 0
M  V30 555 H 46.7122 0.704063 -0.269835 0
M  V30 556 H 49.3632 1.34266 -1.25079 0
M  V30 557 H 47.7452 3.90359 -0.666011 0
M  V30 558 H 48.9192 3.09965 -3.40966 0
M  V30 559 H 47.2342 2.91602 -2.97249 0
M  V30 560 H 49.8312 5.17411 -1.34869 0
M  V30 561 H 50.1742 4.16287 0.0333546 0
M  V30 562 H 50.7072 3.64833 -1.58562 0
M  V30 563 H 47.4462 4.96684 -4.27768 0
M  V30 564 H 46.9662 5.39569 -2.61965 0
M  V30 565 H 48.6452 5.6467 -3.15844 0
M  V30 566 N 48.7773 0.814389 1.34928 0
M  V30 567 C 49.7403 0.235759 2.27984 0
M  V30 568 C 50.7403 -0.581412 1.49921 0
M  V30 569 O 51.9303 -0.398758 1.69575 0
M  V30 570 C 49.0623 -0.670433 3.34242 0
M  V30 571 H 50.2553 1.05659 2.80671 0
M  V30 572 H 47.8083 0.585614 1.44915 0
M  V30 573 H 48.5433 -1.51466 2.86755 0
M  V30 574 H 48.3283 -0.0860822 3.92005 0
M  V30 575 H 49.8183 -1.06935 4.03676 0
M  V30 576 N 50.2554 -1.46986 0.568584 0
M  V30 577 C 51.5014 -2.02741 0.0488709 0
M  V30 578 C 51.8344 -1.44077 -1.30214 0
M  V30 579 O 51.1094 -0.600552 -1.84996 0
M  V30 580 C 51.3924 -3.60086 -0.032047 0
M  V30 581 C 51.2454 -4.29162 1.34686 0
M  V30 582 C 52.5644 -4.33838 -0.739798 0
M  V30 583 H 49.6834 -0.736749 0.0192338 0
M  V30 584 H 52.3254 -1.75289 0.733065 0
M  V30 585 H 50.4754 -3.83606 -0.61473 0
M  V30 586 H 52.1474 -4.16948 1.97362 0
M  V30 587 H 50.3904 -3.89073 1.91846 0
M  V30 588 H 51.0614 -5.37826 1.24285 0
M  V30 589 H 53.5374 -4.15378 -0.244939 0
M  V30 590 H 52.4134 -5.43537 -0.765406 0
M  V30 591 H 52.6744 -4.03875 -1.79827 0
M  V30 592 N 51.7335 -0.305618 -1.54608 0
M  V30 593 C 52.9585 0.307562 -2.05107 0
M  V30 594 C 53.3835 1.46385 -1.18123 0
M  V30 595 O 52.7415 1.8034 -0.186324 0
M  V30 596 C 52.7895 0.73704 -3.52987 0
M  V30 597 O 51.8935 1.84134 -3.6901 0
M  V30 598 H 51.2345 0.0589143 -0.661381 0
M  V30 599 H 53.7645 -0.448807 -1.99617 0
M  V30 600 H 53.7745 1.02459 -3.94925 0
M  V30 601 H 52.4495 -0.108773 -4.15758 0
M  V30 602 H 51.0265 1.55398 -3.38978 0
M  V30 603 N 53.2116 1.57565 -0.0334293 0
M  V30 604 C 54.6276 1.56297 0.322997 0
M  V30 605 C 54.8276 1.03945 1.7262 0
M  V30 606 O 53.8836 0.688109 2.42943 0
M  V30 607 C 55.1966 3.00232 0.167664 0
M  V30 608 C 56.7446 3.12078 0.240107 0
M  V30 609 C 57.2196 4.57859 0.113513 0
M  V30 610 N 58.7106 4.62887 0.170359 0
M  V30 611 C 59.4456 5.73319 0.0962517 0
M  V30 612 N 58.9416 6.92794 -0.0291881 0
M  V30 613 N 60.7346 5.61898 0.150551 0
M  V30 614 H 52.8856 1.89923 -0.950956 0
M  V30 615 H 55.1486 0.873824 -0.367608 0
M  V30 616 H 54.8546 3.42501 -0.799102 0
M  V30 617 H 54.7286 3.654 0.936083 0
M  V30 618 H 57.1156 2.69718 1.19733 0
M  V30 619 H 57.1966 2.49623 -0.558763 0
M  V30 620 H 56.8406 5.009 -0.840314 0
M  V30 621 H 56.7706 5.18299 0.931302 0
M  V30 622 H 59.2616 3.76954 0.26728 0
M  V30 623 H 59.5746 7.7276 -0.0789252 0
M  V30 624 H 57.9196 6.94971 -0.0640299 0
M  V30 625 H 61.1106 4.67448 0.246981 0
M  V30 626 H 61.2836 6.47938 0.0893365 0
M  V30 627 N 54.6897 -0.239769 1.55765 0
M  V30 628 C 55.9377 -0.964892 1.77579 0
M  V30 629 C 56.2587 -1.85582 0.598699 0
M  V30 630 O 55.5287 -1.92075 -0.385226 0
M  V30 631 H 54.1087 -0.359265 0.654933 0
M  V30 632 H 56.7707 -0.256001 1.93211 0
M  V30 633 H 55.8667 -1.58243 2.69009 0
M  V30 634 N 56.1678 -1.49265 -0.50573 0
M  V30 635 C 57.4158 -1.582 -1.25766 0
M  V30 636 C 57.7368 -0.268482 -1.93143 0
M  V30 637 O 57.0068 0.711833 -1.8251 0
M  V30 638 H 55.5868 -0.582873 -0.467191 0
M  V30 639 H 58.2488 -1.85865 -0.586525 0
M  V30 640 H 57.3448 -2.37563 -2.02412 0
M  V30 641 N 57.6459 0.756429 -1.3826 0
M  V30 642 C 58.5759 1.88374 -1.37976 0
M  V30 643 C 59.5569 1.68311 -0.246082 0
M  V30 644 O 60.7419 1.88944 -0.44874 0
M  V30 645 C 57.8719 3.25864 -1.20125 0
M  V30 646 C 56.8259 3.60523 -2.30666 0
M  V30 647 C 56.1519 4.9672 -1.97923 0
M  V30 648 C 57.4519 3.65692 -3.72916 0
M  V30 649 H 59.1459 1.88869 -2.32312 0
M  V30 650 H 56.6919 0.907272 -1.11824 0
M  V30 651 H 58.6449 4.0438 -1.18552 0
M  V30 652 H 57.3689 3.25841 -0.222498 0
M  V30 653 H 56.0279 2.84324 -2.3142 0
M  V30 654 H 55.6759 4.93253 -0.985393 0
M  V30 655 H 55.3759 5.20878 -2.71955 0
M  V30 656 H 56.8999 5.77618 -1.97964 0
M  V30 657 H 58.3139 4.34328 -3.74208 0
M  V30 658 H 56.7109 4.01358 -4.4613 0
M  V30 659 H 57.7809 2.65987 -4.05436 0
M  V30 660 N 59.124 1.23083 0.984299 0
M  V30 661 C 60.37 1.06214 1.72761 0
M  V30 662 C 60.703 -0.400584 1.90024 0
M  V30 663 O 59.978 -1.29672 1.44967 0
M  V30 664 C 60.261 1.78375 3.12817 0
M  V30 665 C 60.114 3.32296 3.03149 0
M  V30 666 C 61.433 1.54309 4.12161 0
M  V30 667 H 58.552 0.387251 0.627061 0
M  V30 668 H 61.194 1.51536 1.14616 0
M  V30 669 H 59.344 1.39848 3.62457 0
M  V30 670 H 61.016 3.8032 2.61064 0
M  V30 671 H 59.259 3.6153 2.39747 0
M  V30 672 H 59.93 3.77972 4.02295 0
M  V30 673 H 62.406 1.87791 3.71314 0
M  V30 674 H 61.282 2.07281 5.08258 0
M  V30 675 H 61.543 0.477572 4.39513 0
M  V30 676 N 60.6021 -1.18246 1.0419 0
M  V30 677 C 62.0131 -1.69914 0.773698 0
M  V30 678 C 62.3641 -1.83085 -0.705297 0
M  V30 679 O 61.4891 -1.51123 -1.5489 0
M  V30 680 C 62.0841 -3.08619 1.39784 0
M  V30 681 C 60.6431 -3.57494 1.17792 0
M  V30 682 C 59.7901 -2.34013 1.48773 0
M  V30 683 H 62.7411 -1.02904 1.20816 0
M  V30 684 H 62.7621 -3.71958 0.801714 0
M  V30 685 H 62.2741 -2.99001 2.47426 0
M  V30 686 H 60.3751 -3.72406 0.120295 0
M  V30 687 H 60.4881 -4.40852 1.87581 0
M  V30 688 H 58.8521 -2.37986 0.907463 0
M  V30 689 H 59.6351 -2.27013 2.57527 0
M  V30 690 N 62.0802 -0.821533 -1.34494 0
M  V30 691 C 63.3282 -0.408139 -1.97936 0
M  V30 692 C 63.6492 1.03193 -1.65457 0
M  V30 693 O 62.9192 1.71622 -0.944595 0
M  V30 694 H 61.4992 -0.147928 -0.732206 0
M  V30 695 H 64.1612 -1.05067 -1.64155 0
M  V30 696 H 63.2572 -0.52601 -3.07635 0
M  V30 697 N 63.5583 1.46682 -0.576371 0
M  V30 698 C 64.5213 2.28707 0.150239 0
M  V30 699 C 65.5213 1.38035 0.824794 0
M  V30 700 O 66.7113 1.60476 0.677719 0
M  V30 701 C 63.8433 3.18248 1.22192 0
M  V30 702 H 65.0363 2.94423 -0.570521 0
M  V30 703 H 62.5893 1.52688 -0.334078 0
M  V30 704 H 63.3243 2.57265 1.97447 0
M  V30 705 H 63.1093 3.85 0.742812 0
M  V30 706 H 64.5993 3.80001 1.73172 0
M  V30 707 N 65.0364 0.313813 1.54444 0
M  V30 708 C 65.9664 -0.549454 2.26943 0
M  V30 709 C 66.9474 -1.12741 1.27372 0
M  V30 710 O 68.1324 -1.15436 1.56167 0
M  V30 711 C 65.2624 -1.71523 3.01989 0
M  V30 712 C 64.2164 -1.26703 4.08816 0
M  V30 713 C 63.5424 -2.51898 4.71647 0
M  V30 714 C 64.8424 -0.388962 5.2085 0
M  V30 715 H 66.5364 0.0552661 2.99349 0
M  V30 716 H 64.0824 0.0280207 1.43973 0
M  V30 717 H 66.0354 -2.32535 3.51433 0
M  V30 718 H 64.7594 -2.34639 2.27183 0
M  V30 719 H 63.4184 -0.679896 3.6024 0
M  V30 720 H 63.0664 -3.13356 3.93468 0
M  V30 721 H 62.7664 -2.22605 5.43802 0
M  V30 722 H 64.2904 -3.1369 5.23861 0
M  V30 723 H 65.7044 -0.905107 5.6611 0
M  V30 724 H 64.1014 -0.18924 5.99802 0
M  V30 725 H 65.1714 0.582699 4.81386 0
M  V30 726 N 66.5145 -1.57545 0.0417849 0
M  V30 727 C 67.4445 -2.14009 -0.933929 0
M  V30 728 C 68.4255 -1.05938 -1.33083 0
M  V30 729 O 69.6105 -1.33833 -1.40721 0
M  V30 730 C 66.7405 -2.67747 -2.21199 0
M  V30 731 C 65.6945 -3.80718 -1.95544 0
M  V30 732 C 65.0205 -4.20935 -3.29724 0
M  V30 733 C 66.3205 -5.06258 -1.28452 0
M  V30 734 H 68.0145 -2.95788 -0.463645 0
M  V30 735 H 65.5605 -1.42285 -0.221573 0
M  V30 736 H 67.5135 -3.05886 -2.89848 0
M  V30 737 H 66.2375 -1.83147 -2.70416 0
M  V30 738 H 64.8965 -3.43037 -1.2931 0
M  V30 739 H 64.5445 -3.33298 -3.76724 0
M  V30 740 H 64.2445 -4.9707 -3.13361 0
M  V30 741 H 65.7685 -4.61666 -3.9962 0
M  V30 742 H 67.1825 -5.41903 -1.8712 0
M  V30 743 H 65.5795 -5.87475 -1.22445 0
M  V30 744 H 66.6495 -4.84207 -0.259219 0
M  V30 745 N 67.9926 0.231505 -1.5589 0
M  V30 746 C 68.9556 1.27028 -1.90779 0
M  V30 747 C 69.9556 1.40308 -0.785507 0
M  V30 748 O 71.1456 1.38744 -1.05336 0
M  V30 749 C 68.2776 2.64566 -2.14983 0
M  V30 750 H 69.4706 0.973017 -2.83677 0
M  V30 751 H 67.0236 0.471486 -1.49019 0
M  V30 752 H 67.7586 2.99406 -1.24604 0
M  V30 753 H 67.5436 2.56305 -2.96732 0
M  V30 754 H 69.0336 3.39543 -2.43105 0
M  V30 755 N 69.4707 1.49531 0.497807 0
M  V30 756 C 70.8867 1.36365 0.829266 0
M  V30 757 C 71.0867 0.399184 1.97506 0
M  V30 758 O 70.1427 -0.167977 2.51941 0
M  V30 759 C 71.4557 2.77153 1.16647 0
M  V30 760 C 73.0037 2.85877 1.27449 0
M  V30 761 C 73.4787 4.2744 1.64497 0
M  V30 762 N 74.9697 4.30265 1.7154 0
M  V30 763 C 75.7047 5.3677 2.01656 0
M  V30 764 N 75.2007 6.53516 2.29976 0
M  V30 765 N 76.9937 5.24189 2.02934 0
M  V30 766 H 69.1447 2.10831 -0.257703 0
M  V30 767 H 71.4077 0.946534 -0.0527091 0
M  V30 768 H 71.1137 3.49442 0.397872 0
M  V30 769 H 70.9877 3.12722 2.10915 0
M  V30 770 H 73.3747 2.13824 2.0338 0
M  V30 771 H 73.4557 2.53887 0.312244 0
M  V30 772 H 73.0997 5.00021 0.891151 0
M  V30 773 H 73.0297 4.56896 2.61827 0
M  V30 774 H 75.5207 3.4607 1.51802 0
M  V30 775 H 75.8337 7.30506 2.52153 0
M  V30 776 H 74.1787 6.56737 2.27425 0
M  V30 777 H 77.3697 4.31988 1.80289 0
M  V30 778 H 77.5427 6.07286 2.26071 0
M  V30 779 N 70.9488 -0.749086 1.3866 0
M  V30 780 C 71.8588 -1.89358 1.38494 0
M  V30 781 C 72.8748 -1.71708 0.281476 0
M  V30 782 O 74.0508 -1.94554 0.520643 0
M  V30 783 C 71.1158 -3.24782 1.21316 0
M  V30 784 C 70.1768 -3.54926 2.41508 0
M  V30 785 C 69.4098 -4.83888 2.2514 0
M  V30 786 O 69.6328 -5.56592 1.24746 0
M  V30 787 O 68.5668 -5.13612 3.13826 0
M  V30 788 H 72.3928 -1.92452 2.34938 0
M  V30 789 H 69.9778 -0.894981 1.19626 0
M  V30 790 H 71.8598 -4.05739 1.13814 0
M  V30 791 H 70.5348 -3.2249 0.279592 0
M  V30 792 H 69.4418 -2.74112 2.54585 0
M  V30 793 H 70.7748 -3.61983 3.3351 0
M  V30 794 N 72.4269 -1.23603 -0.977757 0
M  V30 795 C 73.3569 -1.04401 -2.0886 0
M  V30 796 C 74.3379 0.0399052 -1.70053 0
M  V30 797 O 75.5229 -0.125246 -1.93796 0
M  V30 798 C 72.6529 -0.637269 -3.41403 0
M  V30 799 C 71.6069 -1.66883 -3.94124 0
M  V30 800 C 70.9329 -1.11745 -5.22893 0
M  V30 801 C 72.2329 -3.06247 -4.23096 0
M  V30 802 H 73.9269 -1.97316 -2.25182 0
M  V30 803 H 71.4729 -0.950096 -1.08209 0
M  V30 804 H 73.4259 -0.48998 -4.18542 0
M  V30 805 H 72.1499 0.327557 -3.24953 0
M  V30 806 H 70.8089 -1.80416 -3.19133 0
M  V30 807 H 70.4569 -0.143527 -5.02795 0
M  V30 808 H 70.1569 -1.80672 -5.59134 0
M  V30 809 H 71.6809 -0.982067 -6.02651 0
M  V30 810 H 73.0949 -2.96001 -4.90975 0
M  V30 811 H 71.4919 -3.72436 -4.70544 0
M  V30 812 H 72.5619 -3.55041 -3.30263 0
M  V30 813 N 73.905 1.17692 -1.04816 0
M  V30 814 C 75.153 1.87488 -0.754497 0
M  V30 815 C 75.474 1.81205 0.720407 0
M  V30 816 O 74.744 1.23544 1.52032 0
M  V30 817 H 73.324 0.694101 -0.276102 0
M  V30 818 H 75.986 1.42793 -1.32651 0
M  V30 819 H 75.082 2.93328 -1.06606 0
M  V30 820 N 75.3831 0.828654 1.34056 0
M  V30 821 C 76.6321 0.415828 1.97367 0
M  V30 822 C 76.9451 -1.02796 1.6641 0
M  V30 823 O 78.1511 -1.54497 2.23255 0
M  V30 824 C 76.6071 0.692601 3.53173 0
M  V30 825 C 76.2151 2.15038 3.93017 0
M  V30 826 C 77.9591 0.346222 4.23086 0
M  V30 827 C 75.8661 2.37174 5.41758 0
M  V30 828 H 74.7961 0.151755 0.738571 0
M  V30 829 H 77.4471 1.01581 1.52819 0
M  V30 830 H 75.8291 0.0223764 3.95994 0
M  V30 831 H 77.0031 2.86024 3.61285 0
M  V30 832 H 75.3181 2.45875 3.36057 0
M  V30 833 H 77.9151 0.48937 5.32456 0
M  V30 834 H 78.2581 -0.709842 4.10204 0
M  V30 835 H 78.7911 0.971258 3.85761 0
M  V30 836 H 75.5301 3.41308 5.59633 0
M  V30 837 H 75.0501 1.70738 5.74986 0
M  V30 838 H 76.7291 2.19818 6.08514 0
M  V30 839 N 76.8612 -1.46375 0.584142 0
M  V30 840 C 78.2772 -1.57694 0.245929 0
M  V30 841 C 78.4772 -1.57903 -1.25175 0
M  V30 842 O 77.5332 -1.49676 -2.03355 0
M  V30 843 C 78.8462 -2.87028 0.896402 0
M  V30 844 C 80.3942 -3.00662 0.870127 0
M  V30 845 C 80.8692 -4.32734 1.50017 0
M  V30 846 N 82.3602 -4.39436 1.46458 0
M  V30 847 C 83.0952 -5.40248 1.92144 0
M  V30 848 N 82.5912 -6.47726 2.4581 0
M  V30 849 N 84.3842 -5.31459 1.83052 0
M  V30 850 H 76.5352 -1.44483 1.55687 0
M  V30 851 H 78.7982 -0.689291 0.650831 0
M  V30 852 H 78.5042 -2.9269 1.95002 0
M  V30 853 H 78.3782 -3.75014 0.405486 0
M  V30 854 H 80.7652 -2.94581 -0.174871 0
M  V30 855 H 80.8462 -2.14148 1.39908 0
M  V30 856 H 80.4902 -4.39573 2.54437 0
M  V30 857 H 80.4202 -5.18025 0.946432 0
M  V30 858 H 82.9112 -3.62367 1.07231 0
M  V30 859 H 83.2242 -7.20863 2.78525 0
M  V30 860 H 81.5692 -6.48542 2.49836 0
M  V30 861 H 84.7602 -4.46396 1.40883 0
M  V30 862 H 84.9332 -6.09881 2.18973 0
M  V30 863 N 78.3393 -0.321999 -1.54275 0
M  V30 864 C 79.2893 0.560185 -2.21011 0
M  V30 865 C 80.2733 1.08283 -1.19011 0
M  V30 866 O 81.4653 1.02011 -1.44647 0
M  V30 867 C 78.5943 1.72137 -2.97025 0
M  V30 868 C 77.6803 1.21369 -4.06363 0
M  V30 869 N 78.0713 0.425566 -5.04007 0
M  V30 870 C 76.3693 1.49255 -4.20284 0
M  V30 871 C 77.0703 0.152601 -5.815 0
M  V30 872 N 76.0463 0.738294 -5.38563 0
M  V30 873 H 79.8483 -0.049265 -2.93859 0
M  V30 874 H 77.3623 -0.127779 -1.61897 0
M  V30 875 H 79.3593 2.36512 -3.43319 0
M  V30 876 H 78.0193 2.33431 -2.25699 0
M  V30 877 H 79.0303 0.068551 -5.17855 0
M  V30 878 H 75.7073 2.11145 -3.60172 0
M  V30 879 H 77.0973 -0.481764 -6.70171 0
M  V30 880 N 79.8174 1.5752 -0.0501392 0
M  V30 881 C 81.0634 1.92936 0.624798 0
M  V30 882 C 81.3964 0.928685 1.70555 0
M  V30 883 O 80.6714 -0.0454779 1.94447 0
M  V30 884 C 80.9544 3.38737 1.22185 0
M  V30 885 C 80.8074 4.49552 0.149218 0
M  V30 886 C 82.1264 3.84913 2.13378 0
M  V30 887 H 79.2454 0.701604 0.225657 0
M  V30 888 H 81.8874 1.89671 -0.111693 0
M  V30 889 H 80.0374 3.4165 1.84953 0
M  V30 890 H 81.7094 4.58768 -0.482648 0
M  V30 891 H 79.9524 4.30638 -0.522841 0
M  V30 892 H 80.6234 5.48653 0.606966 0
M  V30 893 H 83.0994 3.8387 1.60572 0
M  V30 894 H 81.9754 4.87584 2.52097 0
M  V30 895 H 82.2364 3.21611 3.03346 0
M  V30 896 N 81.2955 -0.223234 1.56011 0
M  V30 897 C 82.5725 -0.972108 1.69733 0
M  V30 898 C 82.9525 -2.02485 0.59691 0
M  V30 899 O 82.3005 -2.25037 -0.396324 0
M  V30 900 C 82.5105 -1.58407 3.10979 0
M  V30 901 C 83.8585 -2.07696 3.70334 0
M  V30 902 O 84.8825 -1.68304 3.1393 0
M  V30 903 O 83.7415 -2.80096 4.69264 0
M  V30 904 H 80.8355 -0.453993 0.691245 0
M  V30 905 H 83.3815 -0.215149 1.68331 0
M  V30 906 H 82.1535 -0.823831 3.82529 0
M  V30 907 H 81.7765 -2.40661 3.16493 0
M  V30 908 N 82.7736 -1.49793 -0.48987 0
M  V30 909 C 84.0016 -1.63568 -1.26701 0
M  V30 910 C 84.4166 -0.311465 -1.86213 0
M  V30 911 O 83.7736 0.704416 -1.68357 0
M  V30 912 C 83.8246 -2.71284 -2.38929 0
M  V30 913 O 83.5456 -3.9857 -1.81861 0
M  V30 914 C 85.0466 -2.95864 -3.3012 0
M  V30 915 H 82.2666 -0.550342 -0.383881 0
M  V30 916 H 84.8106 -1.95898 -0.586864 0
M  V30 917 H 82.9656 -2.417 -3.02753 0
M  V30 918 H 83.3796 -4.57993 -2.55622 0
M  V30 919 H 84.8536 -3.74941 -4.05121 0
M  V30 920 H 85.3306 -2.06206 -3.87783 0
M  V30 921 H 85.9366 -3.26907 -2.72051 0
M  V30 922 N 84.2517 0.741722 -1.39055 0
M  V30 923 C 85.4977 1.50336 -1.36113 0
M  V30 924 C 85.8307 1.94148 0.0450796 0
M  V30 925 O 85.1057 1.66301 1.00868 0
M  V30 926 C 85.3887 2.74773 -2.32749 0
M  V30 927 C 85.2417 2.37023 -3.82283 0
M  V30 928 C 86.5607 3.76846 -2.27322 0
M  V30 929 H 83.6797 0.545351 -0.495743 0
M  V30 930 H 86.3217 0.848624 -1.69995 0
M  V30 931 H 84.4717 3.30639 -2.03986 0
M  V30 932 H 86.1437 1.8684 -4.21768 0
M  V30 933 H 84.3867 1.69334 -3.99385 0
M  V30 934 H 85.0577 3.26104 -4.45376 0
M  V30 935 H 87.5337 3.30548 -2.5274 0
M  V30 936 H 86.4097 4.6159 -2.97028 0
M  V30 937 H 86.6707 4.23286 -1.27599 0
M  V30 938 N 85.7298 1.2412 0.971189 0
M  V30 939 C 86.9698 1.09066 1.7287 0
M  V30 940 C 87.3338 -0.364794 1.88503 0
M  V30 941 O 88.5348 -0.636748 2.61149 0
M  V30 942 C 86.8058 1.80629 3.08396 0
M  V30 943 S 88.3648 1.81263 3.99611 0
M  V30 944 H 85.1828 0.390145 0.594397 0
M  V30 945 H 87.7848 1.57397 1.15959 0
M  V30 946 H 86.4888 2.85647 2.94676 0
M  V30 947 H 86.0198 1.32617 3.70373 0
M  V30 948 H 88.0348 0.877804 4.88374 0
M  V30 949 N 87.2079 -1.17134 1.05439 0
M  V30 950 C 88.4569 -1.86791 0.761049 0
M  V30 951 C 88.7699 -1.82072 -0.714795 0
M  V30 952 O 89.9759 -2.47223 -1.12218 0
M  V30 953 C 88.4319 -3.35166 1.31117 0
M  V30 954 C 88.0399 -3.48381 2.81664 0
M  V30 955 C 89.7839 -4.10134 1.09499 0
M  V30 956 C 87.6909 -4.90793 3.29964 0
M  V30 957 H 86.6209 -0.699681 0.281002 0
M  V30 958 H 89.2719 -1.3226 1.27199 0
M  V30 959 H 87.6539 -3.8925 0.72803 0
M  V30 960 H 88.8279 -3.04502 3.45855 0
M  V30 961 H 87.1429 -2.86836 3.01851 0
M  V30 962 H 89.7399 -5.152 1.43084 0
M  V30 963 H 90.0829 -4.16287 0.0328772 0
M  V30 964 H 90.6159 -3.62264 1.64346 0
M  V30 965 H 87.3549 -4.89816 4.35616 0
M  V30 966 H 86.8749 -5.35333 2.70516 0
M  V30 967 H 88.5539 -5.59573 3.24787 0
M  V30 968 N 88.686 -0.835752 -1.33615 0
M  V30 969 C 89.911 -0.442389 -2.02627 0
M  V30 970 C 90.336 0.947735 -1.62479 0
M  V30 971 O 89.694 1.61907 -0.815826 0
M  V30 972 C 89.742 -0.567216 -3.56111 0
M  V30 973 O 88.846 0.407799 -4.10379 0
M  V30 974 H 88.187 -0.180278 -0.639059 0
M  V30 975 H 90.717 -1.12972 -1.70583 0
M  V30 976 H 90.727 -0.447708 -4.05536 0
M  V30 977 H 89.402 -1.58103 -3.84677 0
M  V30 978 H 87.979 0.246107 -3.72087 0
M  V30 979 N 90.1641 1.46063 -0.591896 0
M  V30 980 C 91.3891 2.07226 -0.0850314 0
M  V30 981 C 91.8141 1.43625 1.21463 0
M  V30 982 O 91.1721 0.523305 1.73583 0
M  V30 983 C 91.2201 3.60554 0.0576567 0
M  V30 984 O 90.3241 3.97128 1.11188 0
M  V30 985 H 89.6651 0.660615 -0.0669568 0
M  V30 986 H 92.1951 1.8756 -0.81745 0
M  V30 987 H 92.2051 4.07165 0.2609 0
M  V30 988 H 90.8801 4.06235 -0.891416 0
M  V30 989 H 89.4571 3.62213 0.886356 0
M  V30 990 N 91.6422 0.330177 1.54103 0
M  V30 991 C 92.8722 -0.271784 2.04805 0
M  V30 992 C 93.2802 -1.45816 1.20559 0
M  V30 993 O 92.6232 -1.82247 0.2306 0
M  V30 994 C 92.6852 -0.763238 3.51305 0
M  V30 995 C 92.3492 0.301705 4.56003 0
M  V30 996 C 93.3462 1.13999 5.07248 0
M  V30 997 C 91.0312 0.451793 5.00264 0
M  V30 998 C 93.0252 2.11402 6.01322 0
M  V30 999 C 90.7122 1.42924 5.94151 0
M  V30 1000 C 91.7102 2.25882 6.44567 0
M  V30 1001 O 91.3982 3.21965 7.3661 0
M  V30 1002 H 91.1302 -0.058693 0.673447 0
M  V30 1003 H 93.6842 0.476395 1.99799 0
M  V30 1004 H 91.9142 -1.56244 3.5373 0
M  V30 1005 H 93.6032 -1.28427 3.85047 0
M  V30 1006 H 94.3692 1.03505 4.73827 0
M  V30 1007 H 90.2482 -0.184044 4.60632 0
M  V30 1008 H 93.7922 2.76192 6.40596 0
M  V30 1009 H 89.6892 1.53479 6.26988 0
M  V30 1010 H 90.4572 3.17281 7.54503 0
M  V30 1011 N 93.1203 -1.57491 0.0584922 0
M  V30 1012 C 94.3973 -1.84346 -0.653918 0
M  V30 1013 C 94.7773 -0.948355 -1.88599 0
M  V30 1014 O 94.1253 -0.0112403 -2.28497 0
M  V30 1015 C 94.3353 -3.34239 -1.00425 0
M  V30 1016 C 95.6833 -4.01431 -1.38342 0
M  V30 1017 O 96.7073 -3.38907 -1.09637 0
M  V30 1018 O 95.5663 -5.11683 -1.91943 0
M  V30 1019 H 92.6603 -0.761112 -0.323478 0
M  V30 1020 H 95.2063 -1.6947 0.0884125 0
M  V30 1021 H 93.9783 -3.91089 -0.128625 0
M  V30 1022 H 93.6013 -3.54329 -1.80378 0
M  V30 1023 N 94.5984 0.214957 -1.56127 0
M  V30 1024 C 95.5484 1.27006 -1.8935 0
M  V30 1025 C 96.5324 1.41969 -0.757202 0
M  V30 1026 O 97.7244 1.44673 -1.01973 0
M  V30 1027 C 94.8534 2.61911 -2.2194 0
M  V30 1028 C 93.9394 2.50822 -3.41978 0
M  V30 1029 N 94.3304 2.09391 -4.60423 0
M  V30 1030 C 92.6284 2.81765 -3.45723 0
M  V30 1031 C 93.3294 2.09712 -5.42582 0
M  V30 1032 N 92.3054 2.50454 -4.82466 0
M  V30 1033 H 96.1074 0.940734 -2.78437 0
M  V30 1034 H 93.6214 0.423492 -1.56781 0
M  V30 1035 H 95.6184 3.38096 -2.43919 0
M  V30 1036 H 94.2784 2.95684 -1.34169 0
M  V30 1037 H 95.2894 1.80416 -4.85459 0
M  V30 1038 H 91.9664 3.19865 -2.68314 0
M  V30 1039 H 93.3564 1.79748 -6.4741 0
M  V30 1040 N 96.0765 1.50051 0.48192 0
M  V30 1041 C 97.3535 1.51009 1.2432 0
M  V30 1042 C 97.7335 0.248587 2.09631 0
M  V30 1043 O 97.0815 -0.768409 2.15192 0
M  V30 1044 C 97.2915 2.79981 2.08355 0
M  V30 1045 C 98.6395 3.3022 2.66908 0
M  V30 1046 O 99.6635 2.81228 2.18607 0
M  V30 1047 O 98.5225 4.15595 3.54884 0
M  V30 1048 H 95.6165 0.605239 0.563573 0
M  V30 1049 H 98.1625 1.62332 0.494627 0
M  V30 1050 H 96.9345 3.63275 1.45419 0
M  V30 1051 H 96.5575 2.7161 2.90368 0
M  V30 1052 N 97.5546 -0.734337 1.39446 0
M  V30 1053 C 98.5026 -1.86971 1.38364 0
M  V30 1054 C 99.4966 -1.67288 0.266687 0
M  V30 1055 O 100.703 -1.74621 0.436755 0
M  V30 1056 H 97.0776 -0.615474 0.432082 0
M  V30 1057 H 99.0486 -1.85 2.34132 0
M  V30 1058 C 97.7976 -3.2466 1.24465 0
M  V30 1059 H 97.1206 -3.40402 2.09682 0
M  V30 1060 H 98.5606 -4.04292 1.27764 0
M  V30 1061 C 97.0196 -3.36867 -0.0468674 0
M  V30 1062 O 97.5496 -3.88618 -1.01681 0
M  V30 1063 N 95.7556 -2.90391 -0.110145 0
M  V30 1064 H 95.3026 -2.48466 0.679868 0
M  V30 1065 H 95.2606 -2.98939 -0.973799 0
M  V30 1066 N 99.0327 -1.24633 -0.964593 0
M  V30 1067 C 99.9647 -0.999302 -2.06268 0
M  V30 1068 C 100.978 0.0323226 -1.62768 0
M  V30 1069 O 102.167 -0.205079 -1.77318 0
M  V30 1070 C 99.2667 -0.486816 -3.35385 0
M  V30 1071 C 98.4397 -1.5823 -4.07777 0
M  V30 1072 C 97.4987 -1.07191 -5.15166 0
M  V30 1073 O 96.5247 -1.76426 -5.41168 0
M  V30 1074 N 97.7267 0.0920373 -5.80427 0
M  V30 1075 H 100.492 -1.94477 -2.28033 0
M  V30 1076 H 98.0527 -1.15704 -1.13244 0
M  V30 1077 H 100.045 -0.130066 -4.04491 0
M  V30 1078 H 98.6147 0.364459 -3.10468 0
M  V30 1079 H 97.8347 -2.11109 -3.32906 0
M  V30 1080 H 99.1227 -2.31854 -4.52903 0
M  V30 1081 H 98.5207 0.670784 -5.61709 0
M  V30 1082 H 97.0777 0.389905 -6.50633 0
M  V30 1083 N 100.511 1.16574 -1.06058 0
M  V30 1084 C 101.927 1.3904 -0.783585 0
M  V30 1085 C 102.127 1.91784 0.618145 0
M  V30 1086 O 101.183 2.11511 1.37911 0
M  V30 1087 C 102.496 2.37329 -1.84649 0
M  V30 1088 C 104.044 2.51018 -1.86973 0
M  V30 1089 C 104.519 3.52588 -2.92311 0
M  V30 1090 N 106.01 3.60113 -2.91329 0
M  V30 1091 C 106.745 4.38486 -3.69482 0
M  V30 1092 N 106.241 5.20302 -4.57447 0
M  V30 1093 N 108.034 4.33446 -3.57885 0
M  V30 1094 H 100.185 0.806725 -1.96483 0
M  V30 1095 H 102.448 0.417117 -0.851303 0
M  V30 1096 H 102.154 2.05663 -2.85299 0
M  V30 1097 H 102.028 3.36946 -1.6955 0
M  V30 1098 H 104.415 2.81989 -0.869827 0
M  V30 1099 H 104.496 1.51445 -2.0615 0
M  V30 1100 H 104.14 3.22354 -3.92492 0
M  V30 1101 H 104.07 4.51886 -2.70383 0
M  V30 1102 H 106.561 3.01707 -2.27555 0
M  V30 1103 H 106.874 5.77311 -5.13743 0
M  V30 1104 H 105.219 5.19653 -4.61503 0
M  V30 1105 H 108.41 3.68586 -2.88551 0
M  V30 1106 H 108.583 4.94279 -4.19037 0
M  V30 1107 N 101.989 0.842826 1.3317 0
M  V30 1108 C 102.899 0.281444 2.32906 0
M  V30 1109 C 103.915 -0.594587 1.63526 0
M  V30 1110 O 105.091 -0.49777 1.95152 0
M  V30 1111 C 102.156 -0.530929 3.42611 0
M  V30 1112 C 101.217 0.369843 4.27704 0
M  V30 1113 C 100.45 -0.403853 5.3217 0
M  V30 1114 O 100.673 -1.63513 5.46461 0
M  V30 1115 O 99.6069 0.224199 6.01482 0
M  V30 1116 H 103.433 1.10744 2.82789 0
M  V30 1117 H 101.018 0.60545 1.36582 0
M  V30 1118 H 102.9 -0.992437 4.09547 0
M  V30 1119 H 101.575 -1.33392 2.94938 0
M  V30 1120 H 100.482 0.879275 3.6362 0
M  V30 1121 H 101.815 1.13771 4.78871 0
M  V30 1122 N 103.467 -1.45747 0.599634 0
M  V30 1123 C 104.397 -2.33235 -0.111306 0
M  V30 1124 C 105.378 -1.46359 -0.866781 0
M  V30 1125 O 106.563 -1.75146 -0.838904 0
M  V30 1126 C 103.693 -3.28932 -1.11451 0
M  V30 1127 C 102.647 -4.25381 -0.472772 0
M  V30 1128 C 101.973 -5.1071 -1.58365 0
M  V30 1129 C 103.273 -5.18831 0.600948 0
M  V30 1130 H 104.967 -2.92927 0.61919 0
M  V30 1131 H 102.513 -1.40857 0.299215 0
M  V30 1132 H 104.466 -3.89002 -1.62036 0
M  V30 1133 H 103.19 -2.67381 -1.8755 0
M  V30 1134 H 101.849 -3.66598 0.0121472 0
M  V30 1135 H 101.497 -4.45533 -2.33473 0
M  V30 1136 H 101.197 -5.7604 -1.15982 0
M  V30 1137 H 102.721 -5.73647 -2.09194 0
M  V30 1138 H 104.135 -5.73019 0.179491 0
M  V30 1139 H 102.532 -5.92595 0.946076 0
M  V30 1140 H 103.602 -4.6174 1.48068 0
M  V30 1141 N 104.945 -0.338344 -1.53925 0
M  V30 1142 C 105.892 0.520845 -2.24846 0
M  V30 1143 C 106.862 1.09976 -1.24477 0
M  V30 1144 O 108.047 1.13735 -1.53196 0
M  V30 1145 C 105.187 1.6685 -3.02084 0
M  V30 1146 C 104.3 1.11739 -4.17299 0
M  V30 1147 C 103.435 2.23193 -4.82036 0
M  V30 1148 C 102.474 1.65407 -5.89328 0
M  V30 1149 N 101.611 2.70582 -6.47866 0
M  V30 1150 H 106.451 -0.0904881 -2.97863 0
M  V30 1151 H 103.988 -0.0564282 -1.46992 0
M  V30 1152 H 105.946 2.34407 -3.45122 0
M  V30 1153 H 104.576 2.2509 -2.31375 0
M  V30 1154 H 103.628 0.332919 -3.7894 0
M  V30 1155 H 104.94 0.654677 -4.94485 0
M  V30 1156 H 104.094 2.98626 -5.28117 0
M  V30 1157 H 102.833 2.72807 -4.04262 0
M  V30 1158 H 101.838 0.884779 -5.42634 0
M  V30 1159 H 103.063 1.16652 -6.69006 0
M  V30 1160 H 101.009 3.1946 -5.72959 0
M  V30 1161 H 100.926 2.28917 -7.20509 0
M  V30 1162 H 102.194 3.45799 -6.98601 0
M  V30 1163 N 106.423 1.57458 -0.0668435 0
M  V30 1164 C 107.669 1.93587 0.6043 0
M  V30 1165 C 108.002 0.946722 1.69561 0
M  V30 1166 O 107.277 -0.0248516 1.94484 0
M  V30 1167 C 107.56 3.40014 1.18585 0
M  V30 1168 C 107.413 4.49685 0.101529 0
M  V30 1169 C 108.732 3.87154 2.09284 0
M  V30 1170 H 105.851 0.703958 0.218202 0
M  V30 1171 H 108.493 1.89542 -0.131804 0
M  V30 1172 H 106.643 3.43592 1.81319 0
M  V30 1173 H 108.315 4.5823 -0.531279 0
M  V30 1174 H 106.558 4.30059 -0.568487 0
M  V30 1175 H 107.229 5.49266 0.54874 0
M  V30 1176 H 109.705 3.85551 1.56491 0
M  V30 1177 H 108.581 4.90231 2.46911 0
M  V30 1178 H 108.842 3.2481 2.99918 0
M  V30 1179 N 107.901 -0.206675 1.56239 0
M  V30 1180 C 108.831 -1.25909 1.96645 0
M  V30 1181 C 109.812 -1.48097 0.836734 0
M  V30 1182 O 110.997 -1.6003 1.10019 0
M  V30 1183 C 108.127 -2.6058 2.29599 0
M  V30 1184 C 107.081 -2.53024 3.452 0
M  V30 1185 C 106.407 -3.91861 3.63798 0
M  V30 1186 C 107.707 -2.06524 4.79734 0
M  V30 1187 H 109.401 -0.923369 2.84806 0
M  V30 1188 H 106.947 -0.442735 1.37025 0
M  V30 1189 H 108.9 -3.34375 2.56459 0
M  V30 1190 H 107.624 -2.95869 1.38307 0
M  V30 1191 H 106.283 -1.81684 3.18412 0
M  V30 1192 H 105.931 -4.24483 2.69857 0
M  V30 1193 H 105.631 -3.87683 4.4156 0
M  V30 1194 H 107.155 -4.67296 3.93022 0
M  V30 1195 H 108.569 -2.70072 5.05702 0
M  V30 1196 H 106.966 -2.13374 5.60885 0
M  V30 1197 H 108.036 -1.01802 4.74093 0
M  V30 1198 N 109.379 -1.50304 -0.473955 0
M  V30 1199 C 110.326 -1.68959 -1.57231 0
M  V30 1200 C 111.296 -0.530899 -1.57387 0
M  V30 1201 O 112.481 -0.761133 -1.74961 0
M  V30 1202 C 109.621 -1.7871 -2.95223 0
M  V30 1203 C 108.734 -3.06061 -3.04878 0
M  V30 1204 C 107.869 -3.06626 -4.33767 0
M  V30 1205 C 106.908 -4.28443 -4.37154 0
M  V30 1206 N 106.045 -4.26763 -5.5751 0
M  V30 1207 H 110.885 -2.6273 -1.40631 0
M  V30 1208 H 108.422 -1.30241 -0.683789 0
M  V30 1209 H 110.38 -1.82344 -3.75242 0
M  V30 1210 H 109.01 -0.883806 -3.10465 0
M  V30 1211 H 108.062 -3.11911 -2.17751 0
M  V30 1212 H 109.374 -3.96039 -3.0324 0
M  V30 1213 H 108.528 -3.08973 -5.22131 0
M  V30 1214 H 107.267 -2.14473 -4.3801 0
M  V30 1215 H 106.272 -4.2631 -3.47188 0
M  V30 1216 H 107.497 -5.2182 -4.34605 0
M  V30 1217 H 105.443 -3.37462 -5.62544 0
M  V30 1218 H 105.36 -5.10507 -5.57601 0
M  V30 1219 H 106.628 -4.33253 -6.48006 0
M  V30 1220 N 110.857 0.726932 -1.39834 0
M  V30 1221 C 112.273 1.03354 -1.21615 0
M  V30 1222 C 112.473 2.01327 -0.08338 0
M  V30 1223 O 111.529 2.46158 0.56238 0
M  V30 1224 C 112.842 1.58811 -2.55342 0
M  V30 1225 C 114.39 1.70851 -2.62257 0
M  V30 1226 C 114.865 2.29716 -3.96225 0
M  V30 1227 N 116.356 2.37116 -3.97907 0
M  V30 1228 C 117.091 2.83619 -4.98345 0
M  V30 1229 N 116.587 3.29958 -6.09179 0
M  V30 1230 N 118.38 2.82901 -4.8572 0
M  V30 1231 H 110.531 0.0773069 -2.12259 0
M  V30 1232 H 112.794 0.0969102 -0.943034 0
M  V30 1233 H 112.5 0.942855 -3.38826 0
M  V30 1234 H 112.374 2.57502 -2.75632 0
M  V30 1235 H 114.761 2.34497 -1.79152 0
M  V30 1236 H 114.842 0.707913 -2.45809 0
M  V30 1237 H 114.486 1.66696 -4.79765 0
M  V30 1238 H 114.416 3.30469 -4.09997 0
M  V30 1239 H 116.907 2.04374 -3.17868 0
M  V30 1240 H 117.22 3.63976 -6.8172 0
M  V30 1241 H 115.565 3.27946 -6.12761 0
M  V30 1242 H 118.756 2.46027 -3.98231 0
M  V30 1243 H 118.929 3.18827 -5.6414 0
M  V30 1244 N 112.336 1.25143 0.95797 0
M  V30 1245 C 113.299 1.05321 2.03569 0
M  V30 1246 C 114.299 0.007152 1.60798 0
M  V30 1247 O 115.489 0.24903 1.72411 0
M  V30 1248 C 112.621 0.598394 3.35607 0
M  V30 1249 H 113.814 2.00986 2.22586 0
M  V30 1250 H 111.367 1.07502 1.13459 0
M  V30 1251 H 112.102 -0.361014 3.22284 0
M  V30 1252 H 111.887 1.35351 3.67998 0
M  V30 1253 H 113.377 0.48104 4.1482 0
M  V30 1254 N 113.814 -1.1601 1.06675 0
M  V30 1255 C 114.724 -2.24156 0.692179 0
M  V30 1256 C 115.74 -1.71507 -0.293513 0
M  V30 1257 O 116.916 -2.009 -0.141861 0
M  V30 1258 C 113.981 -3.46587 0.0884131 0
M  V30 1259 C 113.042 -4.14257 1.12646 0
M  V30 1260 C 112.275 -5.30844 0.551416 0
M  V30 1261 O 112.498 -5.66858 -0.634656 0
M  V30 1262 O 111.432 -5.87848 1.29298 0
M  V30 1263 H 115.258 -2.58513 1.59388 0
M  V30 1264 H 112.843 -1.23599 0.83926 0
M  V30 1265 H 114.725 -4.20679 -0.246361 0
M  V30 1266 H 113.4 -3.13994 -0.786712 0
M  V30 1267 H 112.307 -3.42118 1.51348 0
M  V30 1268 H 113.64 -4.50914 1.97325 0
M  V30 1269 N 115.292 -0.849877 -1.32721 0
M  V30 1270 C 116.54 -0.450032 -1.97026 0
M  V30 1271 C 116.861 0.996604 -1.67609 0
M  V30 1272 O 116.131 1.6958 -0.980786 0
M  V30 1273 H 114.711 -0.163426 -0.728904 0
M  V30 1274 H 117.373 -1.08526 -1.6189 0
M  V30 1275 H 116.469 -0.591146 -3.0645 0
M  V30 1276 N 116.77 1.45427 -0.607355 0
M  V30 1277 C 118.047 1.9557 -0.0344566 0
M  V30 1278 C 118.427 1.54979 1.43334 0
M  V30 1279 O 117.775 0.812241 2.13576 0
M  V30 1280 C 117.985 3.48226 -0.232321 0
M  V30 1281 C 119.333 4.2445 -0.113001 0
M  V30 1282 O 120.357 3.55829 -0.162431 0
M  V30 1283 O 119.216 5.465 0.00209442 0
M  V30 1284 H 116.31 0.826222 0.0358667 0
M  V30 1285 H 118.856 1.55594 -0.6774 0
M  V30 1286 H 117.628 3.70739 -1.25174 0
M  V30 1287 H 117.251 3.95092 0.445896 0
M  V30 1288 N 118.248 0.346503 1.53744 0
M  V30 1289 C 119.496 -0.248612 2.00565 0
M  V30 1290 C 119.817 -1.5083 1.23593 0
M  V30 1291 O 119.087 -1.92858 0.343912 0
M  V30 1292 H 117.667 -0.0948564 0.740953 0
M  V30 1293 H 120.329 0.468341 1.89189 0
M  V30 1294 H 119.425 -0.488994 3.08245 0
M  V30 1295 N 119.726 -1.57421 0.075193 0
M  V30 1296 C 120.636 -2.1642 -0.905511 0
M  V30 1297 C 121.652 -1.12828 -1.32461 0
M  V30 1298 O 122.828 -1.45109 -1.39661 0
M  V30 1299 C 119.893 -2.71693 -2.15369 0
M  V30 1300 C 118.954 -3.90171 -1.79068 0
M  V30 1301 C 118.187 -4.42798 -2.97936 0
M  V30 1302 O 118.41 -3.94416 -4.12058 0
M  V30 1303 O 117.344 -5.34085 -2.77555 0
M  V30 1304 H 121.17 -3.00588 -0.433626 0
M  V30 1305 H 118.755 -1.48664 -0.148067 0
M  V30 1306 H 120.637 -3.07104 -2.88557 0
M  V30 1307 H 119.312 -1.90582 -2.61649 0
M  V30 1308 H 118.219 -3.59606 -1.03122 0
M  V30 1309 H 119.552 -4.72584 -1.37569 0
M  V30 1310 N 121.204 0.198386 -1.56346 0
M  V30 1311 C 122.452 0.91747 -1.80075 0
M  V30 1312 C 122.773 1.83929 -0.647692 0
M  V30 1313 O 122.043 1.93029 0.334166 0
M  V30 1314 H 120.623 0.341774 -0.664228 0
M  V30 1315 H 123.285 0.204684 -1.93822 0
M  V30 1316 H 122.381 1.51055 -2.7311 0
M  V30 1317 N 122.682 1.50554 0.465978 0
M  V30 1318 C 123.929 1.61798 1.21768 0
M  V30 1319 C 124.257 0.320696 1.91838 0
M  V30 1320 O 123.512 -0.693724 1.82992 0
M  V30 1321 C 123.811 2.75152 2.28093 0
M  V30 1322 C 123.477 4.15454 1.75239 0
M  V30 1323 C 122.139 4.53628 1.60546 0
M  V30 1324 C 124.491 5.03121 1.36083 0
M  V30 1325 C 121.819 5.77204 1.05128 0
M  V30 1326 C 124.171 6.27249 0.821056 0
M  V30 1327 C 122.835 6.64221 0.660795 0
M  V30 1328 H 122.105 0.592063 0.445582 0
M  V30 1329 H 124.752 1.84503 0.512927 0
M  V30 1330 H 123.057 2.46556 3.04496 0
M  V30 1331 H 124.754 2.81055 2.86023 0
M  V30 1332 H 121.344 3.85341 1.87644 0
M  V30 1333 H 125.528 4.74257 1.46267 0
M  V30 1334 H 120.784 6.0452 0.91462 0
M  V30 1335 H 124.958 6.94537 0.509018 0
M  V30 1336 H 122.585 7.59854 0.229226 0
M  V30 1337 N 124.16 -0.719506 1.40217 0
M  V30 1338 C 125.409 -1.47486 1.37589 0
M  V30 1339 C 125.722 -1.9559 -0.0201568 0
M  V30 1340 O 126.928 -2.70973 -0.169049 0
M  V30 1341 C 125.384 -2.66575 2.41796 0
M  V30 1342 C 124.992 -2.25358 3.87192 0
M  V30 1343 C 126.736 -3.4433 2.48269 0
M  V30 1344 C 124.643 -3.41262 4.83005 0
M  V30 1345 H 123.573 -0.553901 0.511576 0
M  V30 1346 H 126.224 -0.783427 1.65936 0
M  V30 1347 H 124.606 -3.3787 2.06543 0
M  V30 1348 H 125.78 -1.61509 4.31569 0
M  V30 1349 H 124.095 -1.60657 3.84159 0
M  V30 1350 H 126.692 -4.30569 3.17041 0
M  V30 1351 H 127.035 -3.87872 1.51198 0
M  V30 1352 H 127.568 -2.80076 2.82493 0
M  V30 1353 H 124.307 -3.02755 5.81394 0
M  V30 1354 H 123.827 -4.0404 4.43297 0
M  V30 1355 H 125.506 -4.07383 5.02641 0
M  V30 1356 N 125.638 -1.25649 -0.95132 0
M  V30 1357 C 126.884 -1.10757 -1.69884 0
M  V30 1358 C 127.217 0.350061 -1.91019 0
M  V30 1359 O 126.492 1.25783 -1.48354 0
M  V30 1360 C 126.775 -1.86606 -3.07978 0
M  V30 1361 C 126.628 -3.40217 -2.94232 0
M  V30 1362 C 127.947 -1.65182 -4.07925 0
M  V30 1363 H 125.066 -0.40374 -0.616574 0
M  V30 1364 H 127.708 -1.54521 -1.10558 0
M  V30 1365 H 125.858 -1.49409 -3.58621 0
M  V30 1366 H 127.53 -3.87108 -2.50889 0
M  V30 1367 H 125.773 -3.67759 -2.30078 0
M  V30 1368 H 126.444 -3.88505 -3.92133 0
M  V30 1369 H 128.92 -1.9757 -3.66204 0
M  V30 1370 H 127.796 -2.20683 -5.02583 0
M  V30 1371 H 128.057 -0.593933 -4.38092 0
M  V30 1372 N 127.117 1.15442 -1.07289 0
M  V30 1373 C 128.366 1.85557 -0.790669 0
M  V30 1374 C 128.679 1.83186 0.685739 0
M  V30 1375 O 129.885 2.48977 1.0827 0
M  V30 1376 C 128.341 3.33038 -1.36433 0
M  V30 1377 C 127.949 3.43856 -2.8717 0
M  V30 1378 C 129.693 4.0834 -1.1601 0
M  V30 1379 C 127.6 4.85482 -3.3773 0
M  V30 1380 H 126.53 0.695122 -0.292098 0
M  V30 1381 H 129.181 1.30219 -1.29287 0
M  V30 1382 H 127.563 3.88043 -0.789864 0
M  V30 1383 H 128.737 2.98961 -3.50655 0
M  V30 1384 H 127.052 2.81998 -3.06376 0
M  V30 1385 H 129.649 5.12859 -1.51262 0
M  V30 1386 H 129.992 4.16182 -0.0991007 0
M  V30 1387 H 130.525 3.59603 -1.70089 0
M  V30 1388 H 127.264 4.82823 -4.43353 0
M  V30 1389 H 126.784 5.30961 -2.78999 0
M  V30 1390 H 128.463 5.54335 -3.33648 0
M  V30 1391 N 128.595 0.856903 1.32268 0
M  V30 1392 C 129.872 0.382583 1.91822 0
M  V30 1393 C 130.252 -1.13407 1.78051 0
M  V30 1394 O 129.6 -1.95673 1.18001 0
M  V30 1395 C 129.81 0.849446 3.38505 0
M  V30 1396 C 131.158 0.867936 4.15634 0
M  V30 1397 O 132.182 0.794232 3.47232 0
M  V30 1398 O 131.041 0.972286 5.37781 0
M  V30 1399 H 128.135 0.112014 0.819379 0
M  V30 1400 H 130.681 0.943952 1.41024 0
M  V30 1401 H 129.453 1.89267 3.42482 0
M  V30 1402 H 129.076 0.265652 3.96712 0
M  V30 1403 N 130.073 -1.45103 0.615059 0
M  V30 1404 C 131.35 -1.95549 0.0448276 0
M  V30 1405 C 131.73 -1.55737 -1.4251 0
M  V30 1406 O 131.078 -0.823556 -2.13143 0
M  V30 1407 C 131.288 -3.48098 0.250785 0
M  V30 1408 C 132.636 -4.24384 0.135509 0
M  V30 1409 O 133.66 -3.55738 0.181299 0
M  V30 1410 O 132.519 -5.46493 0.0268878 0
M  V30 1411 H 129.613 -0.8264 -0.0314845 0
M  V30 1412 H 132.159 -1.55232 0.685642 0
M  V30 1413 H 130.931 -3.7007 1.27139 0
M  V30 1414 H 130.554 -3.95323 -0.424937 0
M  V30 1415 N 131.551 -0.354651 -1.53558 0
M  V30 1416 C 132.481 0.489091 -2.2832 0
M  V30 1417 C 133.462 1.09324 -1.30316 0
M  V30 1418 O 134.647 1.11255 -1.59173 0
M  V30 1419 C 131.777 1.63456 -3.0643 0
M  V30 1420 C 130.731 1.1582 -4.12031 0
M  V30 1421 C 130.057 2.39305 -4.7816 0
M  V30 1422 C 131.357 0.250731 -5.21698 0
M  V30 1423 H 133.051 -0.134614 -2.99097 0
M  V30 1424 H 130.597 -0.0661826 -1.43848 0
M  V30 1425 H 132.55 2.23136 -3.57475 0
M  V30 1426 H 131.274 2.28533 -2.33325 0
M  V30 1427 H 129.933 0.584146 -3.61916 0
M  V30 1428 H 129.581 3.02814 -4.01637 0
M  V30 1429 H 129.281 2.08109 -5.49513 0
M  V30 1430 H 130.805 2.99691 -5.31994 0
M  V30 1431 H 132.219 0.754695 -5.68311 0
M  V30 1432 H 130.616 0.0301468 -6.00092 0
M  V30 1433 H 131.686 -0.710125 -4.79672 0
M  V30 1434 N 133.029 1.57378 -0.0835403 0
M  V30 1435 C 134.275 1.94217 0.583733 0
M  V30 1436 C 134.608 0.964653 1.68547 0
M  V30 1437 O 133.883 -0.00422258 1.945 0
M  V30 1438 C 134.166 3.41253 1.14972 0
M  V30 1439 C 134.019 4.49768 0.0538277 0
M  V30 1440 C 135.338 3.89352 2.05166 0
M  V30 1441 H 132.457 0.706233 0.210724 0
M  V30 1442 H 135.099 1.89392 -0.1519 0
M  V30 1443 H 133.249 3.45496 1.77665 0
M  V30 1444 H 134.921 4.57641 -0.579851 0
M  V30 1445 H 133.164 4.29432 -0.614068 0
M  V30 1446 H 133.835 5.49817 0.490452 0
M  V30 1447 H 136.311 3.87189 1.52393 0
M  V30 1448 H 135.187 4.92822 2.41698 0
M  V30 1449 H 135.448 3.27973 2.96456 0
M  V30 1450 N 134.507 -0.190092 1.56449 0
M  V30 1451 C 135.784 -0.935886 1.71757 0
M  V30 1452 C 136.164 -2.01173 0.639726 0
M  V30 1453 O 135.512 -2.25827 -0.348502 0
M  V30 1454 C 135.722 -1.51775 3.1427 0
M  V30 1455 C 137.07 -1.99794 3.74656 0
M  V30 1456 O 138.094 -1.61607 3.1743 0
M  V30 1457 O 136.953 -2.70079 4.751 0
M  V30 1458 H 134.047 -0.439229 0.700719 0
M  V30 1459 H 136.593 -0.179395 1.68749 0
M  V30 1460 H 135.365 -0.742505 3.84191 0
M  V30 1461 H 134.988 -2.33894 3.21527 0
M  V30 1462 N 135.985 -1.50799 -0.457987 0
M  V30 1463 C 137.213 -1.66218 -1.23203 0
M  V30 1464 C 137.628 -0.350894 -1.85511 0
M  V30 1465 O 136.985 0.668546 -1.69814 0
M  V30 1466 C 137.036 -2.76291 -2.33121 0
M  V30 1467 O 136.757 -4.02338 -1.73366 0
M  V30 1468 C 138.258 -3.028 -3.2377 0
M  V30 1469 H 135.478 -0.558361 -0.372121 0
M  V30 1470 H 138.022 -1.97099 -0.545179 0
M  V30 1471 H 136.177 -2.48068 -2.97558 0
M  V30 1472 H 136.591 -4.63312 -2.4585 0
M  V30 1473 H 138.065 -3.8345 -3.97077 0
M  V30 1474 H 138.542 -2.14385 -3.83322 0
M  V30 1475 H 139.148 -3.32604 -2.65056 0
M  V30 1476 N 137.463 0.71206 -1.40597 0
M  V30 1477 C 138.711 1.46907 -1.38791 0
M  V30 1478 C 139.032 1.94998 0.00780391 0
M  V30 1479 O 138.302 1.70587 0.963174 0
M  V30 1480 H 136.882 0.545043 -0.51082 0
M  V30 1481 H 139.544 0.843882 -1.75683 0
M  V30 1482 H 138.64 2.34021 -2.06496 0
M  V30 1483 N 138.941 1.26152 0.944643 0
M  V30 1484 C 140.189 1.11271 1.6871 0
M  V30 1485 C 140.51 -0.345166 1.91921 0
M  V30 1486 O 139.78 -1.24387 1.51343 0
M  V30 1487 H 138.36 0.408783 0.625224 0
M  V30 1488 H 141.022 1.58427 1.1352 0
M  V30 1489 H 140.118 1.62879 2.66227 0
M  V30 1490 N 140.419 -1.14872 1.07899 0
M  V30 1491 C 141.647 -1.89661 0.82683 0
M  V30 1492 C 142.062 -1.78312 -0.620519 0
M  V30 1493 O 141.419 -1.13888 -1.42604 0
M  V30 1494 C 141.47 -3.39817 1.23316 0
M  V30 1495 O 141.191 -3.50845 2.62372 0
M  V30 1496 C 142.692 -4.31615 1.0111 0
M  V30 1497 H 139.912 -0.60092 0.298557 0
M  V30 1498 H 142.456 -1.4551 1.43691 0
M  V30 1499 H 140.611 -3.8161 0.667286 0
M  V30 1500 H 141.025 -4.44076 2.79101 0
M  V30 1501 H 142.499 -5.35367 1.34486 0
M  V30 1502 H 142.976 -4.39169 -0.0522168 0
M  V30 1503 H 143.582 -3.95572 1.56215 0
M  V30 1504 N 141.898 -0.863906 -1.31812 0
M  V30 1505 C 142.861 -0.320212 -2.26952 0
M  V30 1506 C 143.861 0.525369 -1.51975 0
M  V30 1507 O 145.051 0.335547 -1.70938 0
M  V30 1508 C 142.183 0.545919 -3.365 0
M  V30 1509 H 143.376 -1.16004 -2.76556 0
M  V30 1510 H 140.929 -0.638995 -1.42641 0
M  V30 1511 H 141.664 1.40718 -2.92179 0
M  V30 1512 H 141.449 -0.0594674 -3.92055 0
M  V30 1513 H 142.939 0.918796 -4.07367 0
M  V30 1514 N 143.376 1.44774 -0.622745 0
M  V30 1515 C 144.622 2.0242 -0.124083 0
M  V30 1516 C 144.955 1.4881 1.24777 0
M  V30 1517 O 144.23 0.668799 1.8264 0
M  V30 1518 C 144.513 3.59957 -0.101619 0
M  V30 1519 C 144.366 4.23867 -1.50521 0
M  V30 1520 C 145.685 4.36284 0.578272 0
M  V30 1521 H 142.804 0.735528 -0.0465645 0
M  V30 1522 H 145.446 1.72447 -0.797617 0
M  V30 1523 H 143.596 3.85623 0.471934 0
M  V30 1524 H 145.268 4.09336 -2.12701 0
M  V30 1525 H 143.511 3.81684 -2.06154 0
M  V30 1526 H 144.182 5.32843 -1.4416 0
M  V30 1527 H 146.658 4.16001 0.0906057 0
M  V30 1528 H 145.534 5.46004 0.563149 0
M  V30 1529 H 145.795 4.10271 1.64713 0
M  V30 1530 N 144.854 0.36279 1.53368 0
M  V30 1531 C 145.817 -0.472679 2.24273 0
M  V30 1532 C 146.817 -1.012 1.24961 0
M  V30 1533 O 148.007 -0.898194 1.49259 0
M  V30 1534 C 145.139 -1.66039 2.97731 0
M  V30 1535 H 146.332 0.14773 2.99536 0
M  V30 1536 H 143.885 0.114434 1.55881 0
M  V30 1537 H 144.62 -2.31896 2.26704 0
M  V30 1538 H 144.405 -1.28066 3.70596 0
M  V30 1539 H 145.895 -2.25252 3.51641 0
M  V30 1540 N 146.332 -1.57332 0.0918853 0
M  V30 1541 C 147.581 -1.93412 -0.572249 0
M  V30 1542 C 147.894 -0.975515 -1.69538 0
M  V30 1543 O 149.1 -1.22991 -2.42045 0
M  V30 1544 C 147.556 -3.43648 -1.0693 0
M  V30 1545 C 147.164 -4.47994 0.0239049 0
M  V30 1546 C 148.908 -3.88695 -1.70635 0
M  V30 1547 C 146.815 -5.89381 -0.488319 0
M  V30 1548 H 145.745 -0.721939 -0.217532 0
M  V30 1549 H 148.396 -1.82735 0.167369 0
M  V30 1550 H 146.778 -3.49466 -1.8625 0
M  V30 1551 H 147.952 -4.53815 0.799277 0
M  V30 1552 H 146.267 -4.12536 0.565946 0
M  V30 1553 H 148.864 -4.91725 -2.10025 0
M  V30 1554 H 149.207 -3.27166 -2.57426 0
M  V30 1555 H 149.74 -3.85564 -0.979023 0
M  V30 1556 H 146.479 -6.54602 0.342906 0
M  V30 1557 H 145.999 -5.87037 -1.23077 0
M  V30 1558 H 147.678 -6.39863 -0.958317 0
M  V30 1559 N 147.81 0.181792 -1.56548 0
M  V30 1560 C 149.226 0.53316 -1.50431 0
M  V30 1561 C 149.426 1.85184 -0.794297 0
M  V30 1562 O 148.482 2.50058 -0.350318 0
M  V30 1563 C 149.795 0.575597 -2.9514 0
M  V30 1564 C 151.343 0.663519 -3.05886 0
M  V30 1565 C 151.818 0.736946 -4.52032 0
M  V30 1566 N 153.309 0.800118 -4.56237 0
M  V30 1567 C 154.044 0.877327 -5.66649 0
M  V30 1568 N 153.54 0.916016 -6.86718 0
M  V30 1569 N 155.333 0.915542 -5.54594 0
M  V30 1570 H 147.484 -0.683025 -2.01118 0
M  V30 1571 H 149.747 -0.244988 -0.915797 0
M  V30 1572 H 149.453 -0.324482 -3.502 0
M  V30 1573 H 149.327 1.42572 -3.49218 0
M  V30 1574 H 151.714 1.55403 -2.50867 0
M  V30 1575 H 151.795 -0.21307 -2.54911 0
M  V30 1576 H 151.439 -0.149262 -5.07681 0
M  V30 1577 H 151.369 1.62953 -5.00753 0
M  V30 1578 H 153.86 0.778926 -3.69785 0
M  V30 1579 H 154.173 0.975813 -7.66614 0
M  V30 1580 H 152.518 0.884469 -6.89349 0
M  V30 1581 H 155.709 0.882245 -4.59711 0
M  V30 1582 H 155.882 0.972253 -6.40665 0
M  V30 1583 N 149.288 1.51039 0.449983 0
M  V30 1584 C 150.198 1.74261 1.57067 0
M  V30 1585 C 151.214 0.626363 1.62335 0
M  V30 1586 O 152.39 0.907162 1.79812 0
M  V30 1587 C 149.455 1.85114 2.93144 0
M  V30 1588 C 148.516 3.0893 2.98095 0
M  V30 1589 C 147.749 3.19256 4.27681 0
M  V30 1590 O 147.972 2.35835 5.19363 0
M  V30 1591 O 146.906 4.12144 4.38658 0
M  V30 1592 H 150.732 2.69303 1.40391 0
M  V30 1593 H 148.317 1.35389 0.631688 0
M  V30 1594 H 150.199 1.94311 3.73926 0
M  V30 1595 H 148.874 0.932588 3.09975 0
M  V30 1596 H 147.781 3.0522 2.16314 0
M  V30 1597 H 149.114 4.00433 2.86206 0
M  V30 1598 N 150.766 -0.704594 1.40972 0
M  V30 1599 C 151.699 -1.82861 1.36518 0
M  V30 1600 C 152.677 -1.6091 0.23382 0
M  V30 1601 O 153.861 -1.83778 0.419271 0
M  V30 1602 C 150.988 -3.1939 1.12729 0
M  V30 1603 C 150.034 -3.60148 2.28463 0
M  V30 1604 S 150.867 -3.65994 3.90907 0
M  V30 1605 C 152.023 -5.05264 3.69403 0
M  V30 1606 H 152.256 -1.86361 2.3164 0
M  V30 1607 H 149.789 -0.872439 1.27389 0
M  V30 1608 H 151.747 -3.98211 0.996893 0
M  V30 1609 H 150.408 -3.1351 0.192427 0
M  V30 1610 H 149.601 -4.59309 2.07489 0
M  V30 1611 H 149.203 -2.88612 2.37863 0
M  V30 1612 H 151.495 -5.92504 3.28551 0
M  V30 1613 H 152.438 -5.31278 4.68134 0
M  V30 1614 H 152.846 -4.76377 3.02862 0
M  V30 1615 N 152.244 -1.26651 -0.937939 0
M  V30 1616 C 153.474 -1.15006 -1.71631 0
M  V30 1617 C 153.882 0.297026 -1.86854 0
M  V30 1618 O 153.225 1.21493 -1.37786 0
M  V30 1619 C 153.287 -1.74984 -3.14039 0
M  V30 1620 C 152.951 -3.24103 -3.2219 0
M  V30 1621 C 153.948 -4.20877 -3.05219 0
M  V30 1622 C 151.633 -3.64625 -3.45476 0
M  V30 1623 C 153.627 -5.56151 -3.11408 0
M  V30 1624 C 151.314 -5.00032 -3.513 0
M  V30 1625 C 152.312 -5.95604 -3.34282 0
M  V30 1626 O 152 -7.28545 -3.3982 0
M  V30 1627 H 151.732 -0.401183 -0.544085 0
M  V30 1628 H 154.286 -1.67832 -1.18413 0
M  V30 1629 H 152.516 -1.16624 -3.68695 0
M  V30 1630 H 154.205 -1.58199 -3.73802 0
M  V30 1631 H 154.971 -3.90908 -2.87081 0
M  V30 1632 H 150.85 -2.90718 -3.57777 0
M  V30 1633 H 154.394 -6.30727 -2.98043 0
M  V30 1634 H 150.291 -5.29659 -3.68959 0
M  V30 1635 H 151.059 -7.3686 -3.56343 0
M  V30 1636 N 153.722 1.14298 -1.08507 0
M  V30 1637 C 155.133 1.66926 -0.836227 0
M  V30 1638 C 155.484 1.85576 0.63686 0
M  V30 1639 O 154.609 1.56767 1.49175 0
M  V30 1640 C 155.204 3.03219 -1.51142 0
M  V30 1641 C 153.763 3.52876 -1.30979 0
M  V30 1642 C 152.91 2.2833 -1.57356 0
M  V30 1643 H 155.861 0.983491 -1.24552 0
M  V30 1644 H 155.882 3.68726 -0.939211 0
M  V30 1645 H 155.394 2.89612 -2.58353 0
M  V30 1646 H 153.495 3.71703 -0.258429 0
M  V30 1647 H 153.608 4.33586 -2.03814 0
M  V30 1648 H 151.972 2.34454 -0.995164 0
M  V30 1649 H 152.755 2.17298 -2.65775 0
M  V30 1650 N 155.201 0.870884 1.31352 0
M  V30 1651 C 156.148 0.325425 2.28494 0
M  V30 1652 C 157.118 -0.576615 1.5577 0
M  V30 1653 O 158.303 -0.508059 1.83911 0
M  V30 1654 C 155.443 -0.466283 3.41935 0
M  V30 1655 C 154.556 0.463378 4.29508 0
M  V30 1656 C 153.691 -0.342544 5.30094 0
M  V30 1657 C 152.73 0.583486 6.09313 0
M  V30 1658 N 151.867 -0.186244 7.01853 0
M  V30 1659 H 156.707 1.15901 2.74538 0
M  V30 1660 H 154.244 0.58294 1.35056 0
M  V30 1661 H 156.202 -0.941085 4.06447 0
M  V30 1662 H 154.832 -1.26456 2.97 0
M  V30 1663 H 153.884 1.05663 3.65431 0
M  V30 1664 H 155.196 1.1734 4.84802 0
M  V30 1665 H 154.35 -0.879816 6.00287 0
M  V30 1666 H 153.089 -1.08585 4.75458 0
M  V30 1667 H 152.094 1.13251 5.3801 0
M  V30 1668 H 153.319 1.32566 6.66035 0
M  V30 1669 H 151.265 -0.912348 6.49625 0
M  V30 1670 H 151.182 0.464422 7.54572 0
M  V30 1671 H 152.45 -0.704716 7.76308 0
M  V30 1672 N 156.679 -1.44442 0.630414 0
M  V30 1673 C 157.642 -2.29107 -0.0652523 0
M  V30 1674 C 158.642 -1.41002 -0.772995 0
M  V30 1675 O 159.832 -1.62881 -0.617692 0
M  V30 1676 C 156.964 -3.22564 -1.10296 0
M  V30 1677 H 158.157 -2.92103 0.679401 0
M  V30 1678 H 155.71 -1.51343 0.390517 0
M  V30 1679 H 156.445 -2.64416 -1.87762 0
M  V30 1680 H 156.23 -3.87491 -0.59941 0
M  V30 1681 H 157.72 -3.86167 -1.5895 0
M  V30 1682 N 158.157 -0.370918 -1.53173 0
M  V30 1683 C 159.107 0.489588 -2.22681 0
M  V30 1684 C 160.091 1.04442 -1.22395 0
M  V30 1685 O 161.283 0.973578 -1.47819 0
M  V30 1686 C 158.412 1.626 -3.02351 0
M  V30 1687 C 157.498 1.08379 -4.10018 0
M  V30 1688 N 157.889 0.265004 -5.05105 0
M  V30 1689 C 156.187 1.35809 -4.2482 0
M  V30 1690 C 156.888 -0.0324755 -5.81691 0
M  V30 1691 N 155.864 0.566581 -5.40639 0
M  V30 1692 H 159.666 -0.142729 -2.93553 0
M  V30 1693 H 157.18 -0.179221 -1.61408 0
M  V30 1694 H 159.177 2.2547 -3.50669 0
M  V30 1695 H 157.837 2.26132 -2.33011 0
M  V30 1696 H 158.848 -0.0962352 -5.17811 0
M  V30 1697 H 155.525 1.9958 -3.66707 0
M  V30 1698 H 156.915 -0.69473 -6.68299 0
M  V30 1699 N 159.635 1.57281 -0.100228 0
M  V30 1700 C 160.882 1.94537 0.562268 0
M  V30 1701 C 161.21 0.982315 1.67871 0
M  V30 1702 O 160.465 0.00280936 1.957 0
M  V30 1703 C 160.764 3.38305 1.15259 0
M  V30 1704 C 160.43 4.50618 0.159409 0
M  V30 1705 C 159.092 4.81066 -0.113741 0
M  V30 1706 C 161.444 5.18615 -0.518461 0
M  V30 1707 C 158.772 5.76835 -1.07137 0
M  V30 1708 C 161.124 6.15412 -1.46459 0
M  V30 1709 C 159.788 6.44262 -1.74592 0
M  V30 1710 H 159.058 0.711863 0.205748 0
M  V30 1711 H 161.705 1.90679 -0.17715 0
M  V30 1712 H 160.01 3.38766 1.96836 0
M  V30 1713 H 161.707 3.64435 1.67297 0
M  V30 1714 H 158.297 4.2689 0.382491 0
M  V30 1715 H 162.481 4.95264 -0.320581 0
M  V30 1716 H 157.737 5.975 -1.29628 0
M  V30 1717 H 161.911 6.67194 -1.99564 0
M  V30 1718 H 159.538 7.1828 -2.48953 0
M  V30 1719 N 161.113 -0.173488 1.56642 0
M  V30 1720 C 162.359 -0.891784 1.8214 0
M  V30 1721 C 162.692 -1.8199 0.677736 0
M  V30 1722 O 161.967 -1.91842 -0.320446 0
M  V30 1723 C 162.25 -1.68933 3.18015 0
M  V30 1724 C 162.103 -0.784487 4.42906 0
M  V30 1725 C 163.422 -2.65748 3.50808 0
M  V30 1726 H 160.541 -0.322761 0.662567 0
M  V30 1727 H 163.183 -0.158095 1.89341 0
M  V30 1728 H 161.333 -2.31482 3.12007 0
M  V30 1729 H 163.005 -0.172046 4.60979 0
M  V30 1730 H 161.248 -0.0924117 4.33702 0
M  V30 1731 H 161.919 -1.37799 5.34524 0
M  V30 1732 H 164.395 -2.13327 3.57255 0
M  V30 1733 H 163.271 -3.18619 4.4696 0
M  V30 1734 H 163.532 -3.45842 2.75401 0
M  V30 1735 N 162.591 -1.51276 -0.441967 0
M  V30 1736 C 163.819 -1.67516 -1.21434 0
M  V30 1737 C 164.234 -0.37055 -1.85128 0
M  V30 1738 O 163.591 0.650498 -1.70513 0
M  V30 1739 C 163.642 -2.78748 -2.30177 0
M  V30 1740 O 163.363 -4.04154 -1.69089 0
M  V30 1741 C 164.864 -3.06217 -3.20541 0
M  V30 1742 H 162.084 -0.562276 -0.366178 0
M  V30 1743 H 164.628 -1.97666 -0.524244 0
M  V30 1744 H 162.783 -2.5121 -2.94911 0
M  V30 1745 H 163.197 -4.65894 -2.40922 0
M  V30 1746 H 164.671 -3.8764 -3.92987 0
M  V30 1747 H 165.148 -2.18439 -3.81026 0
M  V30 1748 H 165.754 -3.35397 -2.61513 0
M  V30 1749 N 164.069 0.697108 -1.41344 0
M  V30 1750 C 165.318 1.45279 -1.39918 0
M  V30 1751 C 165.631 1.95597 -0.0109624 0
M  V30 1752 O 166.837 2.71208 0.125919 0
M  V30 1753 C 165.293 2.62695 -2.46007 0
M  V30 1754 C 164.901 2.19169 -3.90729 0
M  V30 1755 C 166.645 3.40336 -2.53715 0
M  V30 1756 C 164.552 3.33535 -4.88373 0
M  V30 1757 H 163.482 0.545692 -0.520323 0
M  V30 1758 H 166.133 0.756929 -1.67161 0
M  V30 1759 H 164.515 3.34541 -2.11892 0
M  V30 1760 H 165.689 1.54623 -4.34083 0
M  V30 1761 H 164.004 1.54525 -3.86666 0
M  V30 1762 H 166.601 4.2547 -3.2385 0
M  V30 1763 H 166.944 3.85418 -1.5735 0
M  V30 1764 H 167.477 2.75546 -2.86913 0
M  V30 1765 H 164.216 2.93468 -5.86137 0
M  V30 1766 H 163.736 3.96936 -4.49668 0
M  V30 1767 H 165.415 3.99335 -5.09059 0
M  V30 1768 N 165.547 1.27147 0.931209 0
M  V30 1769 C 166.794 1.13278 1.67852 0
M  V30 1770 C 167.122 -0.32204 1.91815 0
M  V30 1771 O 166.377 -1.25224 1.50391 0
M  V30 1772 C 166.676 1.8579 3.05314 0
M  V30 1773 C 166.342 3.35657 3.01073 0
M  V30 1774 C 165.004 3.76536 2.99623 0
M  V30 1775 C 167.356 4.31299 2.92627 0
M  V30 1776 C 164.684 5.11426 2.87506 0
M  V30 1777 C 167.036 5.66242 2.82051 0
M  V30 1778 C 165.7 6.06418 2.7895 0
M  V30 1779 H 164.97 0.414515 0.614214 0
M  V30 1780 H 167.617 1.57712 1.08624 0
M  V30 1781 H 165.922 1.33854 3.68226 0
M  V30 1782 H 167.619 1.72491 3.62005 0
M  V30 1783 H 164.209 3.03146 3.02986 0
M  V30 1784 H 168.393 4.00692 2.92848 0
M  V30 1785 H 163.649 5.41705 2.83489 0
M  V30 1786 H 167.823 6.40026 2.74481 0
M  V30 1787 H 165.45 7.10895 2.69318 0
M  V30 1788 N 167.025 -1.13721 1.09112 0
M  V30 1789 C 167.988 -2.17222 0.731241 0
M  V30 1790 C 168.988 -1.59035 -0.237566 0
M  V30 1791 O 170.178 -1.74192 -0.0161704 0
M  V30 1792 C 167.31 -3.40804 0.0808443 0
M  V30 1793 H 168.503 -2.50573 1.64783 0
M  V30 1794 H 166.056 -1.28493 0.889897 0
M  V30 1795 H 166.791 -3.1304 -0.847127 0
M  V30 1796 H 166.576 -3.84306 0.777896 0
M  V30 1797 H 168.066 -4.1731 -0.155657 0
M  V30 1798 N 168.503 -0.877838 -1.30888 0
M  V30 1799 C 169.45 -0.337538 -2.28318 0
M  V30 1800 C 170.42 0.568346 -1.56074 0
M  V30 1801 O 171.605 0.498298 -1.84178 0
M  V30 1802 C 168.745 0.448142 -3.42178 0
M  V30 1803 C 167.858 -0.48615 -4.29256 0
M  V30 1804 C 166.993 0.314427 -5.30269 0
M  V30 1805 C 166.032 -0.615791 -6.08995 0
M  V30 1806 N 165.169 0.14902 -7.01942 0
M  V30 1807 H 170.009 -1.17356 -2.73919 0
M  V30 1808 H 167.546 -0.590094 -1.34745 0
M  V30 1809 H 169.504 0.919517 -4.06941 0
M  V30 1810 H 168.134 1.24879 -2.97666 0
M  V30 1811 H 167.186 -1.076 -3.64865 0
M  V30 1812 H 168.498 -1.19909 -4.84173 0
M  V30 1813 H 167.652 0.847969 -6.00745 0
M  V30 1814 H 166.391 1.06062 -4.76027 0
M  V30 1815 H 165.396 -1.16102 -5.37401 0
M  V30 1816 H 166.621 -1.36097 -6.65323 0
M  V30 1817 H 164.567 0.877884 -6.50099 0
M  V30 1818 H 164.484 -0.504433 -7.54315 0
M  V30 1819 H 165.752 0.663537 -7.76671 0
M  V30 1820 N 169.982 1.44106 -0.638065 0
M  V30 1821 C 171.393 1.85316 -0.226894 0
M  V30 1822 C 171.744 1.53399 1.22324 0
M  V30 1823 O 170.869 0.975463 1.93167 0
M  V30 1824 C 171.464 3.3637 -0.405013 0
M  V30 1825 C 170.023 3.76369 -0.0482902 0
M  V30 1826 C 169.17 2.67921 -0.715108 0
M  V30 1827 H 172.121 1.34474 -0.842764 0
M  V30 1828 H 172.142 3.7885 0.354 0
M  V30 1829 H 171.654 3.59569 -1.46053 0
M  V30 1830 H 169.755 3.58784 1.00522 0
M  V30 1831 H 169.868 4.76856 -0.463187 0
M  V30 1832 H 168.232 2.54259 -0.149753 0
M  V30 1833 H 169.015 2.93951 -1.77335 0
M  V30 1834 N 171.46 0.379036 1.52974 0
M  V30 1835 C 172.423 -0.448865 2.24762 0
M  V30 1836 C 173.423 -0.998689 1.26027 0
M  V30 1837 O 174.613 -0.882313 1.50203 0
M  V30 1838 C 171.745 -1.62872 2.99476 0
M  V30 1839 H 172.938 0.179491 2.99362 0
M  V30 1840 H 170.491 0.13096 1.5575 0
M  V30 1841 H 171.226 -2.29479 2.29151 0
M  V30 1842 H 171.011 -1.24128 3.71934 0
M  V30 1843 H 172.501 -2.2151 3.5401 0
M  V30 1844 N 172.938 -1.57226 0.108567 0
M  V30 1845 C 174.186 -1.94448 -0.550853 0
M  V30 1846 C 174.507 -0.992074 -1.67878 0
M  V30 1847 O 173.777 -0.0465 -1.95845 0
M  V30 1848 H 172.357 -0.717897 -0.206479 0
M  V30 1849 H 175.019 -1.94112 0.175062 0
M  V30 1850 H 174.115 -2.97218 -0.952259 0
M  V30 1851 N 174.416 0.165178 -1.56732 0
M  V30 1852 C 175.832 0.517174 -1.50988 0
M  V30 1853 C 176.032 1.84331 -0.813894 0
M  V30 1854 O 175.088 2.49672 -0.37682 0
M  V30 1855 C 176.401 0.544261 -2.95733 0
M  V30 1856 C 177.949 0.631039 -3.06573 0
M  V30 1857 C 178.424 0.68896 -4.52788 0
M  V30 1858 N 179.915 0.751683 -4.5706 0
M  V30 1859 C 180.65 0.817177 -5.67547 0
M  V30 1860 N 180.146 0.843129 -6.8765 0
M  V30 1861 N 181.939 0.856668 -5.55534 0
M  V30 1862 H 174.09 -0.704318 -2.00382 0
M  V30 1863 H 176.353 -0.254687 -0.913148 0
M  V30 1864 H 176.059 -0.361607 -3.49836 0
M  V30 1865 H 175.933 1.3886 -3.5071 0
M  V30 1866 H 178.32 1.52733 -2.52501 0
M  V30 1867 H 178.401 -0.240095 -2.54671 0
M  V30 1868 H 178.045 -0.2031 -5.07494 0
M  V30 1869 H 177.975 1.57633 -5.02454 0
M  V30 1870 H 180.466 0.739661 -3.70591 0
M  V30 1871 H 180.779 0.894448 -7.67606 0
M  V30 1872 H 179.124 0.811304 -6.90248 0
M  V30 1873 H 182.315 0.833437 -4.60621 0
M  V30 1874 H 182.488 0.904247 -6.4166 0
M  V30 1875 N 175.894 1.51508 0.433938 0
M  V30 1876 C 177.305 1.56784 1.01369 0
M  V30 1877 C 177.656 0.393349 1.92217 0
M  V30 1878 O 176.781 -0.489441 2.10792 0
M  V30 1879 C 177.376 2.84144 1.8452 0
M  V30 1880 C 175.935 2.9198 2.37539 0
M  V30 1881 C 175.082 2.51482 1.16843 0
M  V30 1882 H 178.033 1.57236 0.215081 0
M  V30 1883 H 178.054 2.68098 2.70007 0
M  V30 1884 H 177.566 3.69607 1.18373 0
M  V30 1885 H 175.667 2.10955 3.0713 0
M  V30 1886 H 175.78 3.95704 2.70103 0
M  V30 1887 H 174.144 2.04758 1.51481 0
M  V30 1888 H 174.927 3.39293 0.523015 0
M  V30 1889 N 177.372 -0.689602 1.41712 0
M  V30 1890 C 178.302 -1.81577 1.46806 0
M  V30 1891 C 179.283 -1.66945 0.326105 0
M  V30 1892 O 180.468 -1.86588 0.538377 0
M  V30 1893 C 177.598 -3.19762 1.35535 0
M  V30 1894 C 176.552 -3.49107 2.47605 0
M  V30 1895 C 175.878 -4.86711 2.21397 0
M  V30 1896 C 177.178 -3.47483 3.89939 0
M  V30 1897 H 178.872 -1.7757 2.41058 0
M  V30 1898 H 176.418 -0.852887 1.16025 0
M  V30 1899 H 178.371 -3.98263 1.3771 0
M  V30 1900 H 177.095 -3.24409 0.377708 0
M  V30 1901 H 175.754 -2.72959 2.44722 0
M  V30 1902 H 175.402 -4.8799 1.21961 0
M  V30 1903 H 175.102 -5.0731 2.96497 0
M  V30 1904 H 176.626 -5.67515 2.25297 0
M  V30 1905 H 178.04 -4.1598 3.94505 0
M  V30 1906 H 176.437 -3.79615 4.64771 0
M  V30 1907 H 177.507 -2.46341 4.17665 0
M  V30 1908 N 178.85 -1.27639 -0.924453 0
M  V30 1909 C 180.096 -1.14336 -1.67497 0
M  V30 1910 C 180.429 0.309465 -1.91718 0
M  V30 1911 O 179.704 1.22608 -1.50989 0
M  V30 1912 C 179.987 -1.93096 -3.0395 0
M  V30 1913 C 179.84 -3.46381 -2.8695 0
M  V30 1914 C 181.159 -1.73798 -4.0433 0
M  V30 1915 H 178.278 -0.416728 -0.607871 0
M  V30 1916 H 180.92 -1.56832 -1.07256 0
M  V30 1917 H 179.07 -1.56982 -3.55372 0
M  V30 1918 H 180.742 -3.92343 -2.42621 0
M  V30 1919 H 178.985 -3.72557 -2.22225 0
M  V30 1920 H 179.656 -3.96735 -3.83804 0
M  V30 1921 H 182.132 -2.05293 -3.61931 0
M  V30 1922 H 181.008 -2.31294 -4.97789 0
M  V30 1923 H 181.269 -0.686725 -4.36734 0
M  V30 1924 N 180.328 1.1314 -1.09713 0
M  V30 1925 C 181.605 1.80762 -0.747302 0
M  V30 1926 C 181.985 1.96663 0.767265 0
M  V30 1927 O 181.333 1.53706 1.69076 0
M  V30 1928 C 181.543 3.15606 -1.48975 0
M  V30 1929 C 182.891 3.90914 -1.65746 0
M  V30 1930 O 183.915 3.25239 -1.45251 0
M  V30 1931 O 182.774 5.08718 -1.9967 0
M  V30 1932 H 179.868 0.782103 -0.268782 0
M  V30 1933 H 182.414 1.20041 -1.19951 0
M  V30 1934 H 181.186 2.99278 -2.52088 0
M  V30 1935 H 180.809 3.84029 -1.02991 0
M  V30 1936 N 181.806 0.884767 1.30421 0
M  V30 1937 C 183.083 0.423185 1.90967 0
M  V30 1938 C 183.463 -1.09605 1.80416 0
M  V30 1939 O 182.811 -1.93126 1.22125 0
M  V30 1940 C 183.021 0.921056 3.36627 0
M  V30 1941 C 184.369 0.955903 4.137 0
M  V30 1942 O 185.393 0.867706 3.4547 0
M  V30 1943 O 184.252 1.08614 5.35598 0
M  V30 1944 H 181.346 0.129369 0.816819 0
M  V30 1945 H 183.892 0.973653 1.3899 0
M  V30 1946 H 182.664 1.96489 3.3839 0
M  V30 1947 H 182.287 0.349741 3.96059 0
M  V30 1948 N 183.284 -1.43765 0.645699 0
M  V30 1949 C 184.514 -2.05953 0.163318 0
M  V30 1950 C 184.922 -1.48432 -1.17322 0
M  V30 1951 O 184.265 -0.607295 -1.73371 0
M  V30 1952 C 184.327 -3.59499 -0.0103065 0
M  V30 1953 C 183.991 -4.39563 1.25035 0
M  V30 1954 C 184.988 -4.72108 2.17739 0
M  V30 1955 C 182.673 -4.79697 1.48983 0
M  V30 1956 C 184.667 -5.43688 3.3269 0
M  V30 1957 C 182.354 -5.51023 2.64229 0
M  V30 1958 C 183.352 -5.8294 3.55908 0
M  V30 1959 O 183.04 -6.5281 4.69142 0
M  V30 1960 H 182.772 -0.670798 0.0836986 0
M  V30 1961 H 185.326 -1.85384 0.884407 0
M  V30 1962 H 183.556 -3.78613 -0.78669 0
M  V30 1963 H 185.245 -4.03408 -0.449087 0
M  V30 1964 H 186.011 -4.41627 2.00476 0
M  V30 1965 H 181.89 -4.54266 0.785078 0
M  V30 1966 H 185.434 -5.68517 4.04269 0
M  V30 1967 H 181.331 -5.8092 2.81429 0
M  V30 1968 H 182.099 -6.71288 4.6831 0
M  V30 1969 N 184.763 -0.387143 -1.52771 0
M  V30 1970 C 186.009 0.196025 -2.0185 0
M  V30 1971 C 186.342 1.46641 -1.27319 0
M  V30 1972 O 185.617 1.90889 -0.373032 0
M  V30 1973 C 185.9 0.466136 -3.5707 0
M  V30 1974 C 185.753 -0.819385 -4.42274 0
M  V30 1975 C 187.072 1.25768 -4.21747 0
M  V30 1976 H 184.191 0.0697708 -0.73369 0
M  V30 1977 H 186.833 -0.516286 -1.82851 0
M  V30 1978 H 184.983 1.07293 -3.7339 0
M  V30 1979 H 186.655 -1.4563 -4.37709 0
M  V30 1980 H 184.898 -1.43517 -4.09372 0
M  V30 1981 H 185.569 -0.585065 -5.48891 0
M  V30 1982 H 188.045 0.744167 -4.09391 0
M  V30 1983 H 186.921 1.41541 -5.30337 0
M  V30 1984 H 187.182 2.27228 -3.79236 0
M  V30 1985 N 186.241 1.57166 -0.116904 0
M  V30 1986 C 187.487 1.95412 0.542405 0
M  V30 1987 C 187.82 1.00019 1.66463 0
M  V30 1988 O 187.095 0.0370346 1.94465 0
M  V30 1989 C 187.378 3.43615 1.07708 0
M  V30 1990 C 187.231 4.49781 -0.0415868 0
M  V30 1991 C 188.55 3.93616 1.96861 0
M  V30 1992 H 185.669 0.710543 0.195696 0
M  V30 1993 H 188.311 1.89027 -0.192038 0
M  V30 1994 H 186.461 3.49187 1.70296 0
M  V30 1995 H 188.133 4.56308 -0.676793 0
M  V30 1996 H 186.376 4.28033 -0.705019 0
M  V30 1997 H 187.047 5.50733 0.373717 0
M  V30 1998 H 189.523 3.90335 1.44146 0
M  V30 1999 H 188.399 4.97838 2.3119 0
M  V30 2000 H 188.66 3.34188 2.89432 0
M  V30 2001 N 187.719 -0.156864 1.56817 0
M  V30 2002 C 188.996 -0.899244 1.73704 0
M  V30 2003 C 189.376 -1.99771 0.682254 0
M  V30 2004 O 188.724 -2.26515 -0.300522 0
M  V30 2005 C 188.934 -1.45075 3.17418 0
M  V30 2006 C 190.282 -1.91802 3.7881 0
M  V30 2007 O 191.306 -1.54838 3.20786 0
M  V30 2008 O 190.165 -2.5994 4.80722 0
M  V30 2009 H 187.259 -0.424267 0.709878 0
M  V30 2010 H 189.805 -0.143561 1.69092 0
M  V30 2011 H 188.577 -0.660846 3.85679 0
M  V30 2012 H 188.2 -2.27021 3.26416 0
M  V30 2013 N 189.197 -1.51736 -0.425897 0
M  V30 2014 C 190.446 -1.64201 -1.17136 0
M  V30 2015 C 190.759 -0.369705 -1.92074 0
M  V30 2016 O 191.965 -0.373898 -2.68913 0
M  V30 2017 C 190.421 -2.90035 -2.13091 0
M  V30 2018 C 190.029 -4.24312 -1.43747 0
M  V30 2019 C 191.773 -3.1186 -2.87999 0
M  V30 2020 C 189.68 -5.41285 -2.38253 0
M  V30 2021 H 188.61 -0.611624 -0.440944 0
M  V30 2022 H 191.261 -1.78212 -0.437328 0
M  V30 2023 H 189.643 -2.69684 -2.89977 0
M  V30 2024 H 190.817 -4.55086 -0.723408 0
M  V30 2025 H 189.132 -4.08456 -0.809465 0
M  V30 2026 H 191.729 -3.96427 -3.58817 0
M  V30 2027 H 192.072 -2.25403 -3.49999 0
M  V30 2028 H 192.605 -3.32605 -2.18217 0
M  V30 2029 H 189.344 -6.30037 -1.80925 0
M  V30 2030 H 188.864 -5.14872 -3.0768 0
M  V30 2031 H 190.543 -5.73694 -2.99139 0
M  V30 2032 N 190.675 0.682077 -1.42076 0
M  V30 2033 C 192.086 1.26246 -1.37546 0
M  V30 2034 C 192.437 1.96092 -0.0651481 0
M  V30 2035 O 191.562 1.99587 0.836297 0
M  V30 2036 C 192.157 2.29594 -2.49143 0
M  V30 2037 C 190.716 2.83175 -2.47969 0
M  V30 2038 C 189.863 1.57395 -2.28303 0
M  V30 2039 H 192.814 0.475937 -1.51395 0
M  V30 2040 H 192.835 3.11175 -2.18976 0
M  V30 2041 H 192.347 1.78729 -3.44496 0
M  V30 2042 H 190.448 3.3818 -1.56413 0
M  V30 2043 H 190.561 3.32687 -3.44755 0
M  V30 2044 H 188.925 1.83699 -1.76428 0
M  V30 2045 H 189.708 1.08507 -3.25701 0
M  V30 2046 N 192.153 1.28127 0.917671 0
M  V30 2047 C 193.085 1.07517 2.02417 0
M  V30 2048 C 194.098 0.0281099 1.62776 0
M  V30 2049 O 195.287 0.270748 1.76435 0
M  V30 2050 C 192.387 0.610957 3.33347 0
M  V30 2051 C 191.56 1.73255 4.01624 0
M  V30 2052 C 190.619 1.26238 5.10833 0
M  V30 2053 O 189.645 1.96389 5.34247 0
M  V30 2054 N 190.847 0.123448 5.80369 0
M  V30 2055 H 193.612 2.02806 2.20658 0
M  V30 2056 H 191.173 1.19827 1.08871 0
M  V30 2057 H 193.165 0.280101 4.0373 0
M  V30 2058 H 191.735 -0.24898 3.11607 0
M  V30 2059 H 190.955 2.23319 3.24842 0
M  V30 2060 H 192.243 2.48503 4.43986 0
M  V30 2061 H 191.641 -0.461847 5.63812 0
M  V30 2062 H 190.198 -0.148158 6.51632 0
M  V30 2063 N 193.631 -1.12557 1.10312 0
M  V30 2064 C 194.908 -1.80363 0.756878 0
M  V30 2065 C 195.288 -1.97067 -0.756824 0
M  V30 2066 O 194.636 -1.54601 -1.68259 0
M  V30 2067 C 194.846 -3.14812 1.50647 0
M  V30 2068 C 196.194 -3.90029 1.67817 0
M  V30 2069 O 197.218 -3.24464 1.46974 0
M  V30 2070 O 196.077 -5.07652 2.02365 0
M  V30 2071 H 193.171 -0.780667 0.272926 0
M  V30 2072 H 195.717 -1.19404 1.20586 0
M  V30 2073 H 194.489 -2.97936 2.53672 0
M  V30 2074 H 194.112 -3.83478 1.05026 0
M  V30 2075 N 195.109 -0.891671 -1.2995 0
M  V30 2076 C 196.337 -0.52866 -2.00032 0
M  V30 2077 C 196.752 0.884574 -1.66795 0
M  V30 2078 O 196.109 1.5827 -0.908669 0
M  V30 2079 C 196.16 -0.701814 -3.54622 0
M  V30 2080 O 195.881 -2.05942 -3.86678 0
M  V30 2081 C 197.382 -0.342683 -4.41973 0
M  V30 2082 H 194.602 -0.203659 -0.639347 0
M  V30 2083 H 197.146 -1.19881 -1.65677 0
M  V30 2084 H 195.301 -0.0789468 -3.8732 0
M  V30 2085 H 195.715 -2.08291 -4.81368 0
M  V30 2086 H 197.189 -0.514709 -5.49595 0
M  V30 2087 H 197.666 0.71975 -4.33262 0
M  V30 2088 H 198.272 -0.942154 -4.14733 0
M  V30 2089 N 196.587 1.43421 -0.653314 0
M  V30 2090 C 197.833 2.02641 -0.175593 0
M  V30 2091 C 198.188 1.5062 1.19713 0
M  V30 2092 O 197.481 0.689697 1.78756 0
M  V30 2093 C 197.675 3.57176 -0.126623 0
M  V30 2094 C 197.504 4.24191 -1.49306 0
M  V30 2095 C 196.274 4.60257 -2.08547 0
M  V30 2096 C 198.472 4.53193 -2.43148 0
M  V30 2097 N 196.454 5.12345 -3.38194 0
M  V30 2098 C 197.825 5.06601 -3.57429 0
M  V30 2099 C 199.88 4.35161 -2.41949 0
M  V30 2100 C 198.583 5.43875 -4.70736 0
M  V30 2101 C 200.609 4.73498 -3.54336 0
M  V30 2102 C 199.971 5.27039 -4.67343 0
M  V30 2103 H 196.07 0.77441 -0.108686 0
M  V30 2104 H 198.654 1.74596 -0.861638 0
M  V30 2105 H 196.825 3.84784 0.528766 0
M  V30 2106 H 198.557 4.03078 0.36198 0
M  V30 2107 H 195.312 4.45302 -1.61255 0
M  V30 2108 H 195.736 5.42842 -4.04538 0
M  V30 2109 H 200.378 3.9304 -1.55818 0
M  V30 2110 H 198.096 5.8494 -5.57558 0
M  V30 2111 H 201.682 4.61241 -3.5461 0
M  V30 2112 H 200.562 5.56153 -5.52868 0
M  V30 2113 N 198.065 0.39524 1.52563 0
M  V30 2114 C 199.314 -0.186321 2.00838 0
M  V30 2115 C 199.627 -1.47402 1.28577 0
M  V30 2116 O 200.833 -2.13599 1.67593 0
M  V30 2117 C 199.289 -0.382595 3.57861 0
M  V30 2118 C 198.897 0.892202 4.39026 0
M  V30 2119 C 200.641 -0.9202 4.14406 0
M  V30 2120 C 198.548 0.66388 5.87662 0
M  V30 2121 H 197.478 -0.0734041 0.750418 0
M  V30 2122 H 200.129 0.518552 1.76021 0
M  V30 2123 H 198.511 -1.14946 3.7895 0
M  V30 2124 H 199.685 1.66414 4.29701 0
M  V30 2125 H 198 1.35519 3.9373 0
M  V30 2126 H 200.597 -1.10683 5.23119 0
M  V30 2127 H 200.94 -1.89096 3.70875 0
M  V30 2128 H 201.473 -0.212751 3.97231 0
M  V30 2129 H 198.212 1.6058 6.35527 0
M  V30 2130 H 197.732 -0.0690193 5.9976 0
M  V30 2131 H 199.411 0.300699 6.46301 0
M  V30 2132 N 199.544 -1.57102 0.125237 0
M  V30 2133 C 200.454 -2.19191 -0.8362 0
M  V30 2134 C 201.47 -1.16985 -1.28805 0
M  V30 2135 O 202.646 -1.49479 -1.34974 0
M  V30 2136 C 199.711 -2.78407 -2.06617 0
M  V30 2137 C 198.772 -3.9567 -1.66565 0
M  V30 2138 C 198.005 -4.52052 -2.83698 0
M  V30 2139 O 198.228 -4.07326 -3.99302 0
M  V30 2140 O 197.162 -5.42645 -2.60423 0
M  V30 2141 H 200.988 -3.01816 -0.337776 0
M  V30 2142 H 198.573 -1.4906 -0.100695 0
M  V30 2143 H 200.455 -3.16129 -2.7864 0
M  V30 2144 H 199.13 -1.9881 -2.55453 0
M  V30 2145 H 198.037 -3.62705 -0.916296 0
M  V30 2146 H 199.37 -4.76722 -1.22464 0
M  V30 2147 N 201.022 0.148545 -1.56898 0
M  V30 2148 C 201.954 1.20852 -1.9475 0
M  V30 2149 C 202.967 1.39265 -0.843152 0
M  V30 2150 O 204.156 1.38864 -1.12156 0
M  V30 2151 C 201.256 2.57362 -2.20495 0
M  V30 2152 C 200.429 2.59947 -3.51776 0
M  V30 2153 C 199.488 3.77984 -3.6608 0
M  V30 2154 O 198.514 3.62929 -4.38487 0
M  V30 2155 N 199.716 4.95375 -3.02629 0
M  V30 2156 H 202.481 0.886804 -2.86279 0
M  V30 2157 H 200.042 0.338121 -1.5833 0
M  V30 2158 H 202.034 3.34833 -2.27307 0
M  V30 2159 H 200.604 2.81832 -1.35238 0
M  V30 2160 H 199.824 1.68403 -3.56419 0
M  V30 2161 H 201.112 2.58704 -4.38121 0
M  V30 2162 H 200.51 5.10509 -2.43715 0
M  V30 2163 H 199.067 5.70627 -3.15004 0
M  V30 2164 N 202.5 1.5196 0.417844 0
M  V30 2165 C 203.911 1.57851 0.997 0
M  V30 2166 C 204.262 0.413714 1.91789 0
M  V30 2167 O 203.387 -0.467057 2.113 0
M  V30 2168 C 203.982 2.86085 1.81496 0
M  V30 2169 C 202.541 2.94483 2.34428 0
M  V30 2170 C 201.688 2.52707 1.14169 0
M  V30 2171 H 204.639 1.57455 0.198392 0
M  V30 2172 H 204.66 2.70947 2.67148 0
M  V30 2173 H 204.172 3.70842 1.14446 0
M  V30 2174 H 202.273 2.142 3.04875 0
M  V30 2175 H 202.386 3.98546 2.65891 0
M  V30 2176 H 200.75 2.06353 1.49301 0
M  V30 2177 H 201.533 3.39828 0.486999 0
M  V30 2178 N 203.978 -0.674533 1.42435 0
M  V30 2179 C 205.224 -1.43521 1.4413 0
M  V30 2180 C 205.579 -1.92316 0.0567773 0
M  V30 2181 O 204.872 -1.68008 -0.921076 0
M  V30 2182 C 205.066 -2.64767 2.40069 0
M  V30 2183 C 204.895 -2.27836 3.87713 0
M  V30 2184 C 203.665 -2.17183 4.56245 0
M  V30 2185 C 205.863 -1.89466 4.78129 0
M  V30 2186 N 203.845 -1.73358 5.88915 0
M  V30 2187 C 205.216 -1.56561 5.99907 0
M  V30 2188 C 207.271 -1.7646 4.65582 0
M  V30 2189 C 205.974 -1.11957 7.10534 0
M  V30 2190 C 208 -1.3326 5.76191 0
M  V30 2191 C 207.362 -1.0128 6.97081 0
M  V30 2192 H 203.461 -0.521656 0.582579 0
M  V30 2193 H 206.045 -0.778381 1.78464 0
M  V30 2194 H 204.216 -3.28139 2.07796 0
M  V30 2195 H 205.948 -3.3136 2.32342 0
M  V30 2196 H 202.703 -2.3626 4.10461 0
M  V30 2197 H 203.127 -1.53867 6.59283 0
M  V30 2198 H 207.769 -1.99831 3.72595 0
M  V30 2199 H 205.487 -0.873318 8.03367 0
M  V30 2200 H 209.073 -1.23717 5.68494 0
M  V30 2201 H 207.953 -0.683597 7.81215 0
M  V30 2202 N 205.456 -1.28612 -0.910864 0
M  V30 2203 C 206.733 -1.06632 -1.63979 0
M  V30 2204 C 207.113 0.393351 -2.07403 0
M  V30 2205 O 206.461 1.37999 -1.82122 0
M  V30 2206 C 206.671 -2.0436 -2.8291 0
M  V30 2207 C 208.019 -2.34666 -3.5386 0
M  V30 2208 O 209.043 -2.02467 -2.93062 0
M  V30 2209 O 207.902 -2.89631 -4.63439 0
M  V30 2210 H 204.996 -0.407737 -0.7195 0
M  V30 2211 H 207.542 -1.39942 -0.959914 0
M  V30 2212 H 206.314 -3.02727 -2.47936 0
M  V30 2213 H 205.937 -1.71714 -3.58609 0
M  V30 2214 N 206.934 1.1197 -1.10907 0
M  V30 2215 C 207.867 2.16998 -0.706192 0
M  V30 2216 C 208.845 1.59903 0.294897 0
M  V30 2217 O 210.029 1.87513 0.192636 0
M  V30 2218 C 207.156 3.38673 -0.0427664 0
M  V30 2219 C 206.202 4.14414 -1.00811 0
M  V30 2220 S 207.035 4.72079 -2.52789 0
M  V30 2221 C 208.191 5.97083 -1.87731 0
M  V30 2222 H 208.424 2.50837 -1.59587 0
M  V30 2223 H 205.957 1.23508 -0.926555 0
M  V30 2224 H 207.915 4.09142 0.333668 0
M  V30 2225 H 206.576 3.03105 0.823788 0
M  V30 2226 H 205.769 5.016 -0.491259 0
M  V30 2227 H 205.371 3.49678 -1.3267 0
M  V30 2228 H 207.663 6.66599 -1.21044 0
M  V30 2229 H 208.606 6.53403 -2.72892 0
M  V30 2230 H 209.014 5.4837 -1.33979 0
M  V30 2231 N 208.412 0.89855 1.29475 0
M  V30 2232 C 209.66 0.522847 1.9522 0
M  V30 2233 C 209.981 -0.93371 1.71192 0
M  V30 2234 O 209.251 -1.65823 1.04305 0
M  V30 2235 H 207.831 0.190366 0.722336 0
M  V30 2236 H 210.493 1.14459 1.5775 0
M  V30 2237 H 209.589 0.704476 3.04045 0
M  V30 2238 N 209.89 -1.43072 0.660911 0
M  V30 2239 C 211.136 -2.0202 0.177708 0
M  V30 2240 C 211.469 -1.52066 -1.20787 0
M  V30 2241 O 210.744 -0.716987 -1.80802 0
M  V30 2242 C 211.027 -3.59561 0.197019 0
M  V30 2243 C 210.88 -4.19727 1.61706 0
M  V30 2244 C 212.199 -4.37664 -0.462396 0
M  V30 2245 H 209.318 -0.734034 0.0660494 0
M  V30 2246 H 211.96 -1.70272 0.843058 0
M  V30 2247 H 210.11 -3.86739 -0.369527 0
M  V30 2248 H 211.782 -4.03553 2.23479 0
M  V30 2249 H 210.025 -3.76084 2.16201 0
M  V30 2250 H 210.696 -5.28834 1.58237 0
M  V30 2251 H 213.172 -4.16095 0.0197215 0
M  V30 2252 H 212.048 -5.47305 -0.418188 0
M  V30 2253 H 212.309 -4.14493 -1.53778 0
M  V30 2254 N 211.368 -0.403325 -1.52352 0
M  V30 2255 C 212.614 0.174605 -2.02047 0
M  V30 2256 C 212.947 1.45282 -1.28867 0
M  V30 2257 O 212.222 1.90483 -0.393257 0
M  V30 2258 C 212.505 0.428238 -3.57545 0
M  V30 2259 C 212.358 -0.866248 -4.4138 0
M  V30 2260 C 213.677 1.21287 -4.23057 0
M  V30 2261 H 210.796 0.0619851 -0.734389 0
M  V30 2262 H 213.438 -0.53565 -1.82293 0
M  V30 2263 H 211.588 1.03327 -3.74507 0
M  V30 2264 H 213.26 -1.50265 -4.3614 0
M  V30 2265 H 211.503 -1.47851 -4.07827 0
M  V30 2266 H 212.174 -0.643249 -5.48239 0
M  V30 2267 H 214.65 0.700703 -4.10158 0
M  V30 2268 H 213.526 1.35909 -5.31808 0
M  V30 2269 H 213.787 2.23193 -3.81625 0
M  V30 2270 N 212.846 1.57033 -0.133567 0
M  V30 2271 C 214.093 1.95686 0.520877 0
M  V30 2272 C 214.421 1.0177 1.6575 0
M  V30 2273 O 213.676 0.0443195 1.9565 0
M  V30 2274 C 213.975 3.40674 1.08057 0
M  V30 2275 C 213.641 4.50855 0.0637899 0
M  V30 2276 C 212.303 4.80716 -0.215757 0
M  V30 2277 C 214.655 5.17398 -0.62835 0
M  V30 2278 C 211.983 5.74433 -1.19348 0
M  V30 2279 C 214.335 6.12167 -1.5948 0
M  V30 2280 C 212.999 6.40414 -1.88218 0
M  V30 2281 H 212.269 0.716067 0.190602 0
M  V30 2282 H 214.916 1.9026 -0.217556 0
M  V30 2283 H 213.221 3.42865 1.89606 0
M  V30 2284 H 214.918 3.67902 1.59529 0
M  V30 2285 H 211.508 4.27605 0.291855 0
M  V30 2286 H 215.692 4.94472 -0.425562 0
M  V30 2287 H 210.948 5.94616 -1.42272 0
M  V30 2288 H 215.122 6.6281 -2.13671 0
M  V30 2289 H 212.749 7.12838 -2.64133 0
M  V30 2290 N 214.325 -0.140222 1.56975 0
M  V30 2291 C 215.571 -0.852949 1.83991 0
M  V30 2292 C 215.904 -1.80512 0.716187 0
M  V30 2293 O 215.179 -1.92479 -0.279681 0
M  V30 2294 C 215.462 -1.6215 3.21527 0
M  V30 2295 C 215.315 -0.690363 4.4447 0
M  V30 2296 C 216.634 -2.58247 3.56366 0
M  V30 2297 H 213.753 -0.308634 0.669264 0
M  V30 2298 H 216.395 -0.117898 1.89634 0
M  V30 2299 H 214.545 -2.24812 3.16847 0
M  V30 2300 H 216.217 -0.0742264 4.6124 0
M  V30 2301 H 214.46 -0.000396433 4.338 0
M  V30 2302 H 215.131 -1.2643 5.37326 0
M  V30 2303 H 217.607 -2.05701 3.61699 0
M  V30 2304 H 216.483 -3.09067 4.53617 0
M  V30 2305 H 216.744 -3.39923 2.82674 0
M  V30 2306 N 215.803 -1.52179 -0.40978 0
M  V30 2307 C 217.214 -1.58377 -0.988615 0
M  V30 2308 C 217.565 -0.423879 -1.91566 0
M  V30 2309 O 216.69 0.455844 -2.11544 0
M  V30 2310 C 217.285 -2.87044 -1.79976 0
M  V30 2311 C 215.844 -2.95722 -2.32863 0
M  V30 2312 C 214.991 -2.53309 -1.12828 0
M  V30 2313 H 217.942 -1.57558 -0.190039 0
M  V30 2314 H 217.963 -2.7236 -2.65707 0
M  V30 2315 H 217.475 -3.71444 -1.12478 0
M  V30 2316 H 215.576 -2.15814 -3.03735 0
M  V30 2317 H 215.689 -3.99951 -2.63773 0
M  V30 2318 H 214.053 -2.07142 -1.48204 0
M  V30 2319 H 214.836 -3.40082 -0.46897 0
M  V30 2320 N 217.281 0.66697 -1.42791 0
M  V30 2321 C 218.692 1.2478 -1.38877 0
M  V30 2322 C 219.043 1.96012 -0.0859426 0
M  V30 2323 O 218.168 2.00463 0.815081 0
M  V30 2324 C 218.763 2.26938 -2.51564 0
M  V30 2325 C 217.322 2.80529 -2.50959 0
M  V30 2326 C 216.469 1.54965 -2.29959 0
M  V30 2327 H 219.42 0.459853 -1.51892 0
M  V30 2328 H 219.441 3.08834 -2.22265 0
M  V30 2329 H 218.953 1.75065 -3.46372 0
M  V30 2330 H 217.054 3.36502 -1.59991 0
M  V30 2331 H 217.167 3.29012 -3.48265 0
M  V30 2332 H 215.531 1.81817 -1.78366 0
M  V30 2333 H 216.314 1.05047 -3.26833 0
M  V30 2334 N 218.759 1.29093 0.90403 0
M  V30 2335 C 220.008 1.16187 1.64874 0
M  V30 2336 C 220.321 -0.286742 1.93487 0
M  V30 2337 O 221.527 -0.537062 2.66135 0
M  V30 2338 C 219.983 2.03177 2.97064 0
M  V30 2339 C 219.591 3.52836 2.76062 0
M  V30 2340 C 221.335 1.98984 3.74974 0
M  V30 2341 C 219.242 4.31945 4.03952 0
M  V30 2342 H 218.172 0.431246 0.618501 0
M  V30 2343 H 220.823 1.53699 1.00243 0
M  V30 2344 H 219.205 1.5853 3.62883 0
M  V30 2345 H 220.379 4.05507 2.18863 0
M  V30 2346 H 218.694 3.58656 2.11553 0
M  V30 2347 H 221.291 2.55351 4.69787 0
M  V30 2348 H 221.634 0.968815 4.0487 0
M  V30 2349 H 222.167 2.41652 3.15989 0
M  V30 2350 H 218.906 5.34667 3.79225 0
M  V30 2351 H 218.426 3.84045 4.60727 0
M  V30 2352 H 220.105 4.42379 4.72133 0
M  V30 2353 N 220.237 -1.11381 1.11499 0
M  V30 2354 C 221.462 -1.87475 0.887019 0
M  V30 2355 C 221.887 -1.79639 -0.557796 0
M  V30 2356 O 221.245 -1.15924 -1.39396 0
M  V30 2357 C 221.293 -3.34213 1.35403 0
M  V30 2358 O 220.397 -4.0903 0.526146 0
M  V30 2359 H 219.738 -0.582099 0.319463 0
M  V30 2360 H 222.268 -1.40785 1.48461 0
M  V30 2361 H 222.278 -3.8506 1.34881 0
M  V30 2362 H 220.953 -3.39232 2.40612 0
M  V30 2363 H 219.53 -3.68082 0.597522 0
M  V30 2364 N 221.715 -0.905404 -1.28997 0
M  V30 2365 C 222.963 -0.533192 -1.9494 0
M  V30 2366 C 223.284 0.924618 -1.71685 0
M  V30 2367 O 222.554 1.65268 -1.05183 0
M  V30 2368 H 221.134 -0.194194 -0.721317 0
M  V30 2369 H 223.796 -1.15294 -1.57141 0
M  V30 2370 H 222.892 -0.72059 -3.03667 0
M  V30 2371 N 223.193 1.4272 -0.668489 0
M  V30 2372 C 224.609 1.55992 -0.33745 0
M  V30 2373 C 224.809 1.64933 1.15756 0
M  V30 2374 O 223.865 1.61278 1.94282 0
M  V30 2375 C 225.178 2.81314 -1.06222 0
M  V30 2376 C 226.726 2.95078 -1.04394 0
M  V30 2377 C 227.201 4.23252 -1.74991 0
M  V30 2378 N 228.692 4.3015 -1.71829 0
M  V30 2379 C 229.427 5.28127 -2.23315 0
M  V30 2380 N 228.923 6.32293 -2.83156 0
M  V30 2381 N 230.716 5.19882 -2.13726 0
M  V30 2382 H 222.867 1.3516 -1.63846 0
M  V30 2383 H 225.13 0.650174 -0.689912 0
M  V30 2384 H 224.836 2.80823 -2.11734 0
M  V30 2385 H 224.71 3.72012 -0.62344 0
M  V30 2386 H 227.097 2.951 0.0028244 0
M  V30 2387 H 227.178 2.05627 -1.52155 0
M  V30 2388 H 226.822 4.2399 -2.79633 0
M  V30 2389 H 226.752 5.11626 -1.24685 0
M  V30 2390 H 229.243 3.55499 -1.28175 0
M  V30 2391 H 229.556 7.03398 -3.20079 0
M  V30 2392 H 227.901 6.32873 -2.87223 0
M  V30 2393 H 231.092 4.37423 -1.66669 0
M  V30 2394 H 231.265 5.96077 -2.54158 0
M  V30 2395 O 224.71 0.553536 1.51718 0
M  V30 2396 H 225.401 0.050045 1.93635 0
M  V30 END ATOM
M  V30 BEGIN BOND
M  V30 END BOND
M  V30 END CTAB
M  END
$$$$
