drugbank_target|P42971 Penicillin-binding protein 3 (DB00355; DB00493; DB01598; DB04570)
 OpenBabel12092119403D

  0  0  0     0  0            999 V3000
M  V30 BEGIN CTAB
M  V30 COUNTS 10498 10591 0 0 0
M  V30 BEGIN ATOM
M  V30 1 H -0.908 1.98254 -0.117106 0
M  V30 2 N 0 1.576 0 0
M  V30 3 C 0.933 2.03868 1.02534 0
M  V30 4 C 1.911 0.928543 1.3348 0
M  V30 5 O 3.095 1.19667 1.45644 0
M  V30 6 C 0.222 2.43627 2.35294 0
M  V30 7 C -0.732 3.65373 2.2001 0
M  V30 8 S 0.101 5.13292 1.52614 0
M  V30 9 C 1.257 5.56322 2.86805 0
M  V30 10 H 1.49 2.90518 0.631377 0
M  V30 11 H -0.977 1.52953 0.210867 0
M  V30 12 H 0.981 2.67203 3.11629 0
M  V30 13 H -0.358 1.57376 2.7183 0
M  V30 14 H -1.165 3.90944 3.18086 0
M  V30 15 H -1.563 3.418 1.51819 0
M  V30 16 H 0.729 5.58782 3.83104 0
M  V30 17 H 1.672 6.56266 2.65933 0
M  V30 18 H 2.08 4.83886 2.90714 0
M  V30 19 N 1.4781 -0.272755 1.55222 0
M  V30 20 C 2.4081 -1.34136 1.91127 0
M  V30 21 C 3.3891 -1.51513 0.773168 0
M  V30 22 O 4.5741 -1.64552 1.03132 0
M  V30 23 C 1.7041 -2.70083 2.1834 0
M  V30 24 C 0.6581 -2.67437 3.34158 0
M  V30 25 C -0.0159 -4.06938 3.46851 0
M  V30 26 C 1.2841 -2.26686 4.70543 0
M  V30 27 H 2.9781 -1.04333 2.80633 0
M  V30 28 H 0.5241 -0.500454 1.35024 0
M  V30 29 H 2.4771 -3.44952 2.42046 0
M  V30 30 H 1.2011 -3.01469 1.25634 0
M  V30 31 H -0.1399 -1.95026 3.1042 0
M  V30 32 H -0.4919 -4.35547 2.51611 0
M  V30 33 H -0.7919 -4.06062 4.2472 0
M  V30 34 H 0.7321 -4.83545 3.72849 0
M  V30 35 H 2.1461 -2.91277 4.93792 0
M  V30 36 H 0.5431 -2.36971 5.5133 0
M  V30 37 H 1.6131 -1.21818 4.69349 0
M  V30 38 N 2.9562 -1.48159 -0.537278 0
M  V30 39 C 3.9032 -1.62138 -1.64256 0
M  V30 40 C 4.8732 -0.463668 -1.59497 0
M  V30 41 O 6.0582 -0.686241 -1.78032 0
M  V30 42 C 3.1982 -1.66028 -3.02537 0
M  V30 43 C 2.3112 -2.92855 -3.17585 0
M  V30 44 C 1.4462 -2.87952 -4.46382 0
M  V30 45 C 0.4852 -4.09516 -4.54932 0
M  V30 46 N -0.3778 -4.02733 -5.75109 0
M  V30 47 H 4.4622 -2.56529 -1.51647 0
M  V30 48 H 1.9992 -1.27224 -0.738414 0
M  V30 49 H 3.9572 -1.66265 -3.82638 0
M  V30 50 H 2.5872 -0.751331 -3.13934 0
M  V30 51 H 1.6392 -3.02395 -2.30784 0
M  V30 52 H 2.9512 -3.82822 -3.19764 0
M  V30 53 H 2.1052 -2.8655 -5.34765 0
M  V30 54 H 0.8442 -1.95702 -4.46712 0
M  V30 55 H -0.1508 -4.11201 -3.64957 0
M  V30 56 H 1.0742 -5.02917 -4.56346 0
M  V30 57 H -0.9798 -3.13299 -5.76351 0
M  V30 58 H -1.0628 -4.86397 -5.78752 0
M  V30 59 H 0.2052 -4.05379 -6.65799 0
M  V30 60 N 4.4343 0.785586 -1.36625 0
M  V30 61 C 5.3813 1.89838 -1.31264 0
M  V30 62 C 6.3513 1.65115 -0.180633 0
M  V30 63 O 7.5363 1.87222 -0.36777 0
M  V30 64 C 4.6763 3.26706 -1.11163 0
M  V30 65 C 3.7893 3.63476 -2.33472 0
M  V30 66 C 2.9243 4.89481 -2.06353 0
M  V30 67 C 1.9633 5.18941 -3.24602 0
M  V30 68 N 1.1003 6.36131 -2.97123 0
M  V30 69 H 5.9403 1.93756 -2.26413 0
M  V30 70 H 3.4773 0.947454 -1.12524 0
M  V30 71 H 5.4353 4.05639 -0.975337 0
M  V30 72 H 4.0653 3.222 -0.196674 0
M  V30 73 H 3.1173 2.79636 -2.57891 0
M  V30 74 H 4.4293 3.81193 -3.21704 0
M  V30 75 H 3.5833 5.76288 -1.89675 0
M  V30 76 H 2.3223 4.73841 -1.15437 0
M  V30 77 H 1.3273 4.30615 -3.41834 0
M  V30 78 H 2.5523 5.36498 -4.16349 0
M  V30 79 H 0.4983 6.21875 -2.08823 0
M  V30 80 H 0.4153 6.54198 -3.78894 0
M  V30 81 H 1.6833 7.2591 -2.84033 0
M  V30 82 N 5.9124 1.20967 1.01018 0
M  V30 83 C 7.1524 1.03511 1.76252 0
M  V30 84 C 7.5164 -0.42458 1.87247 0
M  V30 85 O 8.7174 -0.719508 2.58991 0
M  V30 86 C 6.9884 1.70726 3.13986 0
M  V30 87 S 8.5474 1.68458 4.05176 0
M  V30 88 H 5.3654 0.371037 0.606508 0
M  V30 89 H 7.9674 1.53628 1.20908 0
M  V30 90 H 6.6714 2.76128 3.03614 0
M  V30 91 H 6.2024 1.20767 3.74405 0
M  V30 92 H 8.2174 0.721987 4.90919 0
M  V30 93 N 7.3905 -1.2043 1.01659 0
M  V30 94 C 8.6395 -1.89118 0.701237 0
M  V30 95 C 8.9525 -1.79705 -0.772358 0
M  V30 96 O 10.1585 -2.43528 -1.20026 0
M  V30 97 C 8.6145 -3.39168 1.20388 0
M  V30 98 C 8.2225 -3.57166 2.70438 0
M  V30 99 C 9.9665 -4.1341 0.963953 0
M  V30 100 C 7.8735 -5.01042 3.14183 0
M  V30 101 H 6.8035 -0.708267 0.2586 0
M  V30 102 H 9.4545 -1.36239 1.22927 0
M  V30 103 H 7.8365 -3.91369 0.603824 0
M  V30 104 H 9.0105 -3.15351 3.35992 0
M  V30 105 H 7.3255 -2.96294 2.92572 0
M  V30 106 H 9.9225 -5.19491 1.26621 0
M  V30 107 H 10.2655 -4.16181 -0.099578 0
M  V30 108 H 10.7985 -3.67309 1.52738 0
M  V30 109 H 7.5375 -5.03426 4.19812 0
M  V30 110 H 7.0575 -5.43668 2.53348 0
M  V30 111 H 8.7365 -5.69623 3.0682 0
M  V30 112 N 8.8686 -0.792821 -1.36206 0
M  V30 113 C 9.7986 -0.207853 -2.32573 0
M  V30 114 C 10.7796 0.659055 -1.56813 0
M  V30 115 O 11.9646 0.592176 -1.84951 0
M  V30 116 C 9.0946 0.655449 -3.41059 0
M  V30 117 C 8.0486 -0.111842 -4.27854 0
M  V30 118 C 7.3746 0.872274 -5.27537 0
M  V30 119 C 8.6746 -1.30299 -5.05786 0
M  V30 120 H 10.3686 -1.01294 -2.81744 0
M  V30 121 H 7.9146 -0.48854 -1.3546 0
M  V30 122 H 9.8676 1.07464 -4.07467 0
M  V30 123 H 8.5916 1.49328 -2.90463 0
M  V30 124 H 7.2506 -0.512053 -3.63006 0
M  V30 125 H 6.8986 1.70523 -4.73214 0
M  V30 126 H 6.5986 0.363291 -5.86476 0
M  V30 127 H 8.1226 1.28996 -5.96818 0
M  V30 128 H 9.5366 -0.959379 -5.65216 0
M  V30 129 H 7.9336 -1.7455 -5.74154 0
M  V30 130 H 9.0036 -2.09663 -4.37229 0
M  V30 131 N 10.3467 1.47872 -0.545128 0
M  V30 132 C 11.2767 2.32661 0.197793 0
M  V30 133 C 12.2577 1.43041 0.920504 0
M  V30 134 O 13.4427 1.71912 0.90333 0
M  V30 135 C 10.5727 3.24569 1.23582 0
M  V30 136 C 9.5267 4.23333 0.630323 0
M  V30 137 C 8.8527 5.0448 1.77211 0
M  V30 138 C 10.1527 5.20704 -0.407974 0
M  V30 139 H 11.8467 2.95024 -0.510045 0
M  V30 140 H 9.3927 1.4187 -0.246731 0
M  V30 141 H 11.3457 3.8272 1.76362 0
M  V30 142 H 10.0697 2.60236 1.97344 0
M  V30 143 H 8.7287 3.6639 0.123922 0
M  V30 144 H 8.3767 4.36561 2.49847 0
M  V30 145 H 8.0767 5.71339 1.37281 0
M  V30 146 H 9.6007 5.65487 2.3034 0
M  V30 147 H 11.0147 5.7329 0.033305 0
M  V30 148 H 9.4117 5.95699 -0.725486 0
M  V30 149 H 10.4817 4.66917 -1.30828 0
M  V30 150 N 11.8248 0.280983 1.55075 0
M  V30 151 C 13.0708 -0.33461 2.00021 0
M  V30 152 C 13.4038 -1.55063 1.16915 0
M  V30 153 O 12.6788 -1.93006 0.240646 0
M  V30 154 C 12.9618 -0.711007 3.53011 0
M  V30 155 C 12.8148 0.512766 4.46868 0
M  V30 156 C 14.1338 -1.54522 4.12081 0
M  V30 157 H 11.2528 -0.120147 0.727141 0
M  V30 158 H 13.8948 0.389097 1.85973 0
M  V30 159 H 12.0448 -1.32761 3.65112 0
M  V30 160 H 13.7168 1.15131 4.46702 0
M  V30 161 H 11.9598 1.14975 4.18286 0
M  V30 162 H 12.6308 0.205556 5.51617 0
M  V30 163 H 15.1068 -1.02442 4.03293 0
M  V30 164 H 13.9828 -1.77739 5.19327 0
M  V30 165 H 14.2438 -2.52813 3.62682 0
M  V30 166 N 13.3029 -1.57598 0.00835791 0
M  V30 167 C 14.5499 -1.90928 -0.674732 0
M  V30 168 C 14.8779 -0.88277 -1.73313 0
M  V30 169 O 14.1329 0.111294 -1.95383 0
M  V30 170 C 14.4319 -3.3101 -1.34787 0
M  V30 171 C 14.0979 -4.48922 -0.421861 0
M  V30 172 C 12.7599 -4.8091 -0.166927 0
M  V30 173 C 15.1119 -5.20755 0.215211 0
M  V30 174 C 12.4399 -5.821 0.733232 0
M  V30 175 C 14.7919 -6.22905 1.1033 0
M  V30 176 C 13.4559 -6.53346 1.36733 0
M  V30 177 H 12.7259 -0.698656 -0.246902 0
M  V30 178 H 15.3729 -1.91387 0.0656779 0
M  V30 179 H 13.6779 -3.26714 -2.16253 0
M  V30 180 H 15.3749 -3.54061 -1.8826 0
M  V30 181 H 11.9649 -4.23934 -0.630729 0
M  V30 182 H 16.1489 -4.9629 0.0312829 0
M  V30 183 H 11.4049 -6.04042 0.945712 0
M  V30 184 H 15.5789 -6.77694 1.60325 0
M  V30 185 H 13.2059 -7.31573 2.06652 0
M  V30 186 N 14.781 0.264519 -1.55364 0
M  V30 187 C 15.711 1.33121 -1.91836 0
M  V30 188 C 16.692 1.51101 -0.781192 0
M  V30 189 O 17.877 1.64003 -1.04003 0
M  V30 190 C 15.007 2.68921 -2.19769 0
M  V30 191 C 13.961 2.65661 -3.35571 0
M  V30 192 C 13.287 4.05093 -3.49004 0
M  V30 193 C 14.587 2.24187 -4.71739 0
M  V30 194 H 16.281 1.02844 -2.81182 0
M  V30 195 H 13.827 0.493286 -1.35287 0
M  V30 196 H 15.78 3.43663 -2.43872 0
M  V30 197 H 14.504 3.00799 -1.27231 0
M  V30 198 H 13.163 1.93377 -3.1145 0
M  V30 199 H 12.811 4.34206 -2.53917 0
M  V30 200 H 12.511 4.03804 -4.26868 0
M  V30 201 H 14.035 4.81561 -3.75408 0
M  V30 202 H 15.449 2.88654 -4.9533 0
M  V30 203 H 13.846 2.34044 -5.52579 0
M  V30 204 H 14.916 1.19327 -4.69988 0
M  V30 205 N 16.2591 1.48442 0.529413 0
M  V30 206 C 17.4991 1.58086 1.29569 0
M  V30 207 C 17.8631 0.249302 1.90375 0
M  V30 208 O 19.0641 0.220738 2.67892 0
M  V30 209 C 17.3351 2.68793 2.35552 0
M  V30 210 S 18.8941 2.98207 3.21898 0
M  V30 211 H 15.7121 0.557922 0.440732 0
M  V30 212 H 18.3141 1.85966 0.603059 0
M  V30 213 H 17.0181 3.64102 1.89363 0
M  V30 214 H 16.5491 2.42817 3.09522 0
M  V30 215 H 18.5641 2.37548 4.35644 0
M  V30 216 N 17.7372 -0.778329 1.37039 0
M  V30 217 C 18.9832 -1.53892 1.32079 0
M  V30 218 C 19.3162 -1.9396 -0.0965386 0
M  V30 219 O 18.5912 -1.63568 -1.05242 0
M  V30 220 C 18.8742 -2.80847 2.25382 0
M  V30 221 C 18.7272 -2.47076 3.75864 0
M  V30 222 C 20.0462 -3.82741 2.1725 0
M  V30 223 H 17.1652 -0.558303 0.48111 0
M  V30 224 H 19.8072 -0.893397 1.67685 0
M  V30 225 H 17.9572 -3.35931 1.95148 0
M  V30 226 H 19.6292 -1.97957 4.16666 0
M  V30 227 H 17.8722 -1.79863 3.94755 0
M  V30 228 H 18.5432 -3.37798 4.36574 0
M  V30 229 H 21.0192 -3.37133 2.43887 0
M  V30 230 H 19.8952 -4.69303 2.84686 0
M  V30 231 H 20.1562 -4.2652 1.16331 0
M  V30 232 N 19.2153 -1.21501 -1.00376 0
M  V30 233 C 20.4633 -1.03095 -1.73827 0
M  V30 234 C 20.7843 0.436341 -1.90055 0
M  V30 235 O 20.0543 1.31466 -1.45236 0
M  V30 236 H 18.6343 -0.378487 -0.644016 0
M  V30 237 H 21.2963 -1.52831 -1.20949 0
M  V30 238 H 20.3923 -1.49991 -2.73695 0
M  V30 239 N 20.6934 1.19889 -1.02296 0
M  V30 240 C 21.6234 2.25141 -0.619174 0
M  V30 241 C 22.6044 1.66051 0.368915 0
M  V30 242 O 23.7894 1.92546 0.252941 0
M  V30 243 C 20.9194 3.4728 0.0368783 0
M  V30 244 C 19.8734 4.19005 -0.872865 0
M  V30 245 C 19.1994 5.34637 -0.0822402 0
M  V30 246 C 20.4994 4.74452 -2.18387 0
M  V30 247 H 22.1934 2.59171 -1.49903 0
M  V30 248 H 19.7394 1.24579 -0.722222 0
M  V30 249 H 21.6924 4.20098 0.330958 0
M  V30 250 H 20.4164 3.12433 0.95149 0
M  V30 251 H 19.0754 3.48061 -1.15105 0
M  V30 252 H 18.7234 4.96034 0.83422 0
M  V30 253 H 18.4234 5.83557 -0.688149 0
M  V30 254 H 19.9474 6.10255 0.205238 0
M  V30 255 H 21.3614 5.39055 -1.95172 0
M  V30 256 H 19.7584 5.33834 -2.74119 0
M  V30 257 H 20.8284 3.92844 -2.84257 0
M  V30 258 N 22.1715 0.800033 1.35784 0
M  V30 259 C 23.4205 0.37387 1.98205 0
M  V30 260 C 23.7335 -1.06302 1.64193 0
M  V30 261 O 24.9395 -1.59198 2.19928 0
M  V30 262 C 23.3955 0.617532 3.54562 0
M  V30 263 C 23.0035 2.06654 3.9749 0
M  V30 264 C 24.7475 0.256401 4.23725 0
M  V30 265 C 22.6545 2.2563 5.46667 0
M  V30 266 H 21.5845 0.136055 0.741623 0
M  V30 267 H 24.2355 0.983166 1.54939 0
M  V30 268 H 22.6175 -0.0616248 3.95952 0
M  V30 269 H 23.7915 2.78296 3.67271 0
M  V30 270 H 22.1065 2.38691 3.41197 0
M  V30 271 H 24.7035 0.376318 5.33374 0
M  V30 272 H 25.0465 -0.796692 4.08606 0
M  V30 273 H 25.5795 0.889214 3.87734 0
M  V30 274 H 22.3185 3.2936 5.66747 0
M  V30 275 H 21.8385 1.58504 5.78478 0
M  V30 276 H 23.5175 2.06861 6.1304 0
M  V30 277 N 23.6496 -1.47581 0.552962 0
M  V30 278 C 24.8976 -2.02082 0.0272703 0
M  V30 279 C 25.2186 -1.4301 -1.32563 0
M  V30 280 O 24.4886 -0.603745 -1.86365 0
M  V30 281 H 23.0686 -0.746966 0.00709182 0
M  V30 282 H 25.7306 -1.81033 0.722008 0
M  V30 283 H 24.8266 -3.12034 -0.0639951 0
M  V30 284 N 25.1277 -0.289203 -1.54924 0
M  V30 285 C 26.0577 0.58549 -2.2604 0
M  V30 286 C 27.0387 1.14753 -1.25562 0
M  V30 287 O 28.2237 1.17906 -1.54311 0
M  V30 288 C 25.3537 1.76305 -2.99222 0
M  V30 289 C 24.3077 1.33191 -4.06748 0
M  V30 290 C 23.6337 2.5937 -4.6758 0
M  V30 291 C 24.9337 0.471775 -5.20165 0
M  V30 292 H 26.6277 -0.00763532 -2.99399 0
M  V30 293 H 24.1737 -0.00511229 -1.43999 0
M  V30 294 H 26.1267 2.38097 -3.47689 0
M  V30 295 H 24.8507 2.38223 -2.23422 0
M  V30 296 H 23.5097 0.737121 -3.59113 0
M  V30 297 H 23.1577 3.19576 -3.88433 0
M  V30 298 H 22.8577 2.31228 -5.40192 0
M  V30 299 H 24.3817 3.21985 -5.18804 0
M  V30 300 H 25.7957 0.995056 -5.64599 0
M  V30 301 H 24.1927 0.284639 -5.99425 0
M  V30 302 H 25.2627 -0.506041 -4.82252 0
M  V30 303 N 26.6058 1.57591 -0.0167156 0
M  V30 304 C 27.8548 1.90461 0.663877 0
M  V30 305 C 28.1678 0.893515 1.73999 0
M  V30 306 O 29.3738 1.11302 2.47637 0
M  V30 307 C 27.8298 3.38155 1.23204 0
M  V30 308 C 27.4378 4.47597 0.189866 0
M  V30 309 C 29.1818 3.80111 1.88986 0
M  V30 310 C 27.0888 5.86379 0.768964 0
M  V30 311 H 26.0188 0.710738 0.251729 0
M  V30 312 H 28.6698 1.83326 -0.0799926 0
M  V30 313 H 27.0518 3.40182 2.02712 0
M  V30 314 H 28.2258 4.57112 -0.581846 0
M  V30 315 H 26.5408 4.14766 -0.368475 0
M  V30 316 H 29.1378 4.81145 2.33247 0
M  V30 317 H 29.4808 3.14511 2.72743 0
M  V30 318 H 30.0138 3.80454 1.16187 0
M  V30 319 H 26.7528 6.55493 -0.0301957 0
M  V30 320 H 26.2728 5.80496 1.50945 0
M  V30 321 H 27.9518 6.34563 1.26251 0
M  V30 322 N 28.0839 -0.256276 1.55502 0
M  V30 323 C 29.3319 -0.983672 1.76545 0
M  V30 324 C 29.6529 -1.86206 0.578982 0
M  V30 325 O 28.9229 -1.91656 -0.405577 0
M  V30 326 H 27.5029 -0.366191 0.651086 0
M  V30 327 H 30.1649 -0.276479 1.92929 0
M  V30 328 H 29.2609 -1.61087 2.67315 0
M  V30 329 N 29.562 -1.4872 -0.521534 0
M  V30 330 C 30.802 -1.58771 -1.28729 0
M  V30 331 C 31.166 -0.259394 -1.9024 0
M  V30 332 O 32.367 -0.234942 -2.67771 0
M  V30 333 C 30.638 -2.70039 -2.34124 0
M  V30 334 S 32.197 -2.9991 -3.20312 0
M  V30 335 H 29.015 -0.560251 -0.437767 0
M  V30 336 H 31.617 -1.86283 -0.593188 0
M  V30 337 H 30.321 -3.65101 -1.87429 0
M  V30 338 H 29.852 -2.44455 -3.08229 0
M  V30 339 H 31.867 -2.39855 -4.34378 0
M  V30 340 N 31.0401 0.771051 -1.3745 0
M  V30 341 C 32.2651 1.56529 -1.36065 0
M  V30 342 C 32.6901 1.88029 0.0515859 0
M  V30 343 O 32.0481 1.49282 1.02882 0
M  V30 344 C 32.0961 2.85187 -2.20683 0
M  V30 345 O 31.2001 3.79593 -1.61193 0
M  V30 346 H 30.5411 0.47411 -0.464883 0
M  V30 347 H 33.0711 0.954269 -1.80983 0
M  V30 348 H 33.0811 3.34283 -2.33921 0
M  V30 349 H 31.7561 2.61588 -3.23334 0
M  V30 350 H 30.3331 3.38239 -1.56999 0
M  V30 351 N 32.5182 1.22032 0.997298 0
M  V30 352 C 33.4652 0.986467 2.08656 0
M  V30 353 C 34.4352 -0.0902671 1.65855 0
M  V30 354 O 35.6202 0.0584294 1.90711 0
M  V30 355 C 32.7602 0.565569 3.40434 0
M  V30 356 C 31.8732 1.71259 3.96604 0
M  V30 357 C 31.0082 1.24011 5.16522 0
M  V30 358 C 30.0472 2.35896 5.64818 0
M  V30 359 N 29.1842 1.89726 6.7598 0
M  V30 360 H 34.0242 1.91892 2.27994 0
M  V30 361 H 31.5612 0.956199 1.11782 0
M  V30 362 H 33.5192 0.302738 4.161 0
M  V30 363 H 32.1492 -0.329879 3.2111 0
M  V30 364 H 31.2012 2.08986 3.17851 0
M  V30 365 H 32.5132 2.55436 4.28432 0
M  V30 366 H 31.6672 0.934395 5.99461 0
M  V30 367 H 30.4062 0.368487 4.86306 0
M  V30 368 H 29.4112 2.67261 4.8047 0
M  V30 369 H 30.6362 3.23567 5.97061 0
M  V30 370 H 28.5822 1.0492 6.47555 0
M  V30 371 H 28.4992 2.67471 7.07103 0
M  V30 372 H 29.7672 1.62211 7.62435 0
M  V30 373 N 33.9963 -1.19345 1.0293 0
M  V30 374 C 35.2243 -1.92997 0.745644 0
M  V30 375 C 35.6393 -1.75519 -0.695589 0
M  V30 376 O 34.9963 -1.07737 -1.47306 0
M  V30 377 C 35.0473 -3.44741 1.08792 0
M  V30 378 O 34.7683 -3.61658 2.47256 0
M  V30 379 C 36.2693 -4.35515 0.827129 0
M  V30 380 H 33.4893 -0.613042 0.272801 0
M  V30 381 H 36.0333 -1.51473 1.3739 0
M  V30 382 H 34.1883 -3.84097 0.504832 0
M  V30 383 H 34.6023 -4.55514 2.60015 0
M  V30 384 H 36.0763 -5.40589 1.11658 0
M  V30 385 H 36.5533 -4.38552 -0.238436 0
M  V30 386 H 37.1593 -4.01841 1.39297 0
M  V30 387 N 35.4744 -0.807222 -1.35358 0
M  V30 388 C 36.7514 -0.311126 -1.9311 0
M  V30 389 C 37.1314 1.19937 -1.73719 0
M  V30 390 O 36.4794 1.99918 -1.10657 0
M  V30 391 C 36.6894 -0.723226 -3.41424 0
M  V30 392 C 38.0374 -0.713078 -4.18569 0
M  V30 393 O 39.0614 -0.664811 -3.49941 0
M  V30 394 O 37.9204 -0.772022 -5.41019 0
M  V30 395 H 35.0144 -0.081526 -0.822972 0
M  V30 396 H 37.5604 -0.890962 -1.4443 0
M  V30 397 H 36.3324 -1.76426 -3.4927 0
M  V30 398 H 35.9554 -0.118232 -3.97424 0
M  V30 399 N 36.9525 1.47285 -0.560781 0
M  V30 400 C 38.1775 2.07359 -0.0410566 0
M  V30 401 C 38.6025 1.41017 1.24483 0
M  V30 402 O 37.9605 0.486368 1.74654 0
M  V30 403 C 38.0085 3.6035 0.134123 0
M  V30 404 O 37.1125 3.94681 1.19587 0
M  V30 405 H 36.4535 0.661887 -0.0529291 0
M  V30 406 H 38.9835 1.89252 -0.777482 0
M  V30 407 H 38.9935 4.0652 0.347207 0
M  V30 408 H 37.6685 4.08034 -0.805047 0
M  V30 409 H 36.2455 3.60251 0.962987 0
M  V30 410 N 38.4306 0.297415 1.54768 0
M  V30 411 C 39.8416 -0.195947 1.85669 0
M  V30 412 C 40.1926 -1.53707 1.21937 0
M  V30 413 O 39.3176 -2.10164 0.515754 0
M  V30 414 C 39.9126 -0.362318 3.36857 0
M  V30 415 C 38.4716 -0.799901 3.67802 0
M  V30 416 C 37.6186 0.0938578 2.77141 0
M  V30 417 H 40.5696 0.518538 1.4999 0
M  V30 418 H 40.5906 -1.19745 3.61167 0
M  V30 419 H 40.1026 0.613921 3.83214 0
M  V30 420 H 38.2036 -1.78682 3.26961 0
M  V30 421 H 38.3166 -0.621773 4.75048 0
M  V30 422 H 36.6806 -0.426254 2.51108 0
M  V30 423 H 37.4636 1.06639 3.26318 0
M  V30 424 N 39.9087 -1.5758 0.0250728 0
M  V30 425 C 40.8187 -2.1343 -0.973905 0
M  V30 426 C 41.8347 -1.08556 -1.35984 0
M  V30 427 O 43.0107 -1.40592 -1.44207 0
M  V30 428 C 40.0757 -2.64703 -2.23904 0
M  V30 429 C 39.1367 -3.84276 -1.91391 0
M  V30 430 C 38.3697 -4.33095 -3.11873 0
M  V30 431 O 38.5927 -3.81107 -4.24398 0
M  V30 432 O 37.5267 -5.24984 -2.94406 0
M  V30 433 H 41.3527 -2.99057 -0.529036 0
M  V30 434 H 38.9377 -1.48118 -0.195288 0
M  V30 435 H 40.8197 -2.97769 -2.98181 0
M  V30 436 H 39.4947 -1.82161 -2.6758 0
M  V30 437 H 38.4017 -3.56143 -1.14511 0
M  V30 438 H 39.7347 -4.67968 -1.52534 0
M  V30 439 N 41.3868 0.248026 -1.55636 0
M  V30 440 C 42.6638 0.998988 -1.68165 0
M  V30 441 C 43.0438 2.03409 -0.564621 0
M  V30 442 O 42.3918 2.24378 0.432076 0
M  V30 443 C 42.6018 1.63334 -3.0842 0
M  V30 444 C 43.9498 2.13562 -3.66983 0
M  V30 445 O 44.9738 1.73277 -3.11213 0
M  V30 446 O 43.8328 2.87526 -4.64749 0
M  V30 447 H 40.9268 0.464933 -0.683935 0
M  V30 448 H 43.4728 0.241902 -1.67967 0
M  V30 449 H 42.2448 0.884583 -3.8117 0
M  V30 450 H 41.8678 2.45666 -3.12624 0
M  V30 451 N 42.8649 1.48995 0.513639 0
M  V30 452 C 44.2809 1.35478 0.843682 0
M  V30 453 C 44.4809 0.378213 1.97919 0
M  V30 454 O 43.5369 -0.194689 2.51748 0
M  V30 455 C 44.8499 2.75901 1.1958 0
M  V30 456 C 46.3979 2.84509 1.30474 0
M  V30 457 C 46.8729 4.25671 1.69021 0
M  V30 458 N 48.3639 4.28422 1.76094 0
M  V30 459 C 49.0989 5.34601 2.07338 0
M  V30 460 N 48.5949 6.5104 2.36894 0
M  V30 461 N 50.3879 5.22007 2.08483 0
M  V30 462 H 42.5389 2.11092 -0.235328 0
M  V30 463 H 44.8019 0.947039 -0.0426669 0
M  V30 464 H 44.5079 3.49001 0.434913 0
M  V30 465 H 44.3819 3.10467 2.1422 0
M  V30 466 H 46.7689 2.11655 2.05637 0
M  V30 467 H 46.8499 2.53542 0.339155 0
M  V30 468 H 46.4939 4.99048 0.944135 0
M  V30 469 H 46.4239 4.54094 2.66658 0
M  V30 470 H 48.9149 3.44441 1.55464 0
M  V30 471 H 49.2279 7.2779 2.59887 0
M  V30 472 H 47.5729 6.54287 2.34378 0
M  V30 473 H 50.7639 4.30051 1.84861 0
M  V30 474 H 50.9369 6.04854 2.325 0
M  V30 475 N 44.343 -0.763751 1.37857 0
M  V30 476 C 45.276 -1.88486 1.28639 0
M  V30 477 C 46.254 -1.61757 0.165363 0
M  V30 478 O 47.438 -1.85391 0.340948 0
M  V30 479 C 44.565 -3.23884 0.990811 0
M  V30 480 C 43.611 -3.69514 2.12983 0
M  V30 481 S 44.444 -3.82244 3.75033 0
M  V30 482 C 45.6 -5.20477 3.47641 0
M  V30 483 H 45.833 -1.96017 2.23527 0
M  V30 484 H 43.366 -0.925684 1.23574 0
M  V30 485 H 45.324 -4.02081 0.827101 0
M  V30 486 H 43.985 -3.14044 0.0592832 0
M  V30 487 H 43.178 -4.67696 1.87821 0
M  V30 488 H 42.78 -2.98441 2.25408 0
M  V30 489 H 45.072 -6.05905 3.03125 0
M  V30 490 H 46.015 -5.50655 4.4518 0
M  V30 491 H 46.423 -4.88793 2.82385 0
M  V30 492 N 45.8211 -1.22559 -0.990812 0
M  V30 493 C 46.7311 -1.01394 -2.11557 0
M  V30 494 C 47.7471 0.0383962 -1.73958 0
M  V30 495 O 48.9231 -0.154787 -2.00804 0
M  V30 496 C 45.9881 -0.596569 -3.41529 0
M  V30 497 C 45.0491 -1.72276 -3.93217 0
M  V30 498 C 44.2821 -1.32521 -5.16985 0
M  V30 499 O 44.5051 -0.204909 -5.70032 0
M  V30 500 O 43.4391 -2.14247 -5.62478 0
M  V30 501 H 47.2651 -1.95633 -2.32296 0
M  V30 502 H 44.8501 -1.01172 -1.0993 0
M  V30 503 H 46.7321 -0.374263 -4.19735 0
M  V30 504 H 45.4071 0.316939 -3.22145 0
M  V30 505 H 44.3141 -1.99961 -3.16174 0
M  V30 506 H 45.6471 -2.61421 -4.17037 0
M  V30 507 N 47.2992 1.18797 -1.03562 0
M  V30 508 C 48.2622 2.20464 -0.626769 0
M  V30 509 C 49.2622 1.57721 0.313173 0
M  V30 510 O 50.4522 1.73917 0.0992615 0
M  V30 511 C 47.5842 3.40802 0.0818498 0
M  V30 512 H 48.7772 2.58149 -1.5264 0
M  V30 513 H 46.3302 1.32593 -0.827578 0
M  V30 514 H 47.0652 3.08642 0.995518 0
M  V30 515 H 46.8502 3.8758 -0.593652 0
M  V30 516 H 48.3402 4.16092 0.354584 0
M  V30 517 N 48.7773 0.814389 1.34928 0
M  V30 518 C 50.0243 0.398423 1.98542 0
M  V30 519 C 50.3523 -1.03638 1.64589 0
M  V30 520 O 49.6073 -1.73509 0.90516 0
M  V30 521 C 49.9063 0.537781 3.53331 0
M  V30 522 C 49.5723 1.93704 4.07172 0
M  V30 523 C 48.2343 2.31984 4.21589 0
M  V30 524 C 50.5863 2.85213 4.36237 0
M  V30 525 C 47.9143 3.61125 4.62391 0
M  V30 526 C 50.2663 4.13809 4.78482 0
M  V30 527 C 48.9303 4.52077 4.91104 0
M  V30 528 H 48.2003 0.145793 0.726516 0
M  V30 529 H 50.8473 1.03669 1.61012 0
M  V30 530 H 49.1523 -0.183906 3.91368 0
M  V30 531 H 50.8493 0.196588 4.00518 0
M  V30 532 H 47.4393 1.62966 3.96409 0
M  V30 533 H 51.6233 2.56885 4.24645 0
M  V30 534 H 46.8793 3.90612 4.70353 0
M  V30 535 H 51.0533 4.84811 4.99932 0
M  V30 536 H 48.6803 5.52196 5.22478 0
M  V30 537 N 50.2554 -1.46986 0.568584 0
M  V30 538 C 51.5014 -2.02741 0.0488709 0
M  V30 539 C 51.8344 -1.44077 -1.30214 0
M  V30 540 O 51.1094 -0.600552 -1.84996 0
M  V30 541 C 51.3924 -3.60086 -0.032047 0
M  V30 542 C 51.2454 -4.29162 1.34686 0
M  V30 543 C 52.5644 -4.33838 -0.739798 0
M  V30 544 H 49.6834 -0.736749 0.0192338 0
M  V30 545 H 52.3254 -1.75289 0.733065 0
M  V30 546 H 50.4754 -3.83606 -0.61473 0
M  V30 547 H 52.1474 -4.16948 1.97362 0
M  V30 548 H 50.3904 -3.89073 1.91846 0
M  V30 549 H 51.0614 -5.37826 1.24285 0
M  V30 550 H 53.5374 -4.15378 -0.244939 0
M  V30 551 H 52.4134 -5.43537 -0.765406 0
M  V30 552 H 52.6744 -4.03875 -1.79827 0
M  V30 553 N 51.7335 -0.305618 -1.54608 0
M  V30 554 C 52.6805 0.568421 -2.23691 0
M  V30 555 C 53.6505 1.12592 -1.22116 0
M  V30 556 O 54.8355 1.16959 -1.50749 0
M  V30 557 C 51.9755 1.7322 -2.98477 0
M  V30 558 C 51.0885 1.20566 -4.14835 0
M  V30 559 C 50.2235 2.33368 -4.77193 0
M  V30 560 C 49.2625 1.7787 -5.85686 0
M  V30 561 N 48.3995 2.84263 -6.4198 0
M  V30 562 H 53.2395 -0.0272867 -2.97988 0
M  V30 563 H 50.7765 -0.0252363 -1.47078 0
M  V30 564 H 52.7345 2.41675 -3.40072 0
M  V30 565 H 51.3645 2.29947 -2.26548 0
M  V30 566 H 50.4165 0.413223 -3.78149 0
M  V30 567 H 51.7285 0.759417 -4.92985 0
M  V30 568 H 50.8825 3.09761 -5.21664 0
M  V30 569 H 49.6215 2.8132 -3.98385 0
M  V30 570 H 48.6265 0.99968 -5.40635 0
M  V30 571 H 49.8515 1.30816 -6.66381 0
M  V30 572 H 47.7975 3.31541 -5.66053 0
M  V30 573 H 47.7145 2.44149 -7.15491 0
M  V30 574 H 48.9825 3.6054 -6.91109 0
M  V30 575 N 53.2116 1.57565 -0.0334293 0
M  V30 576 C 54.1436 2.0739 0.975811 0
M  V30 577 C 55.1566 0.998166 1.2861 0
M  V30 578 O 56.3456 1.27426 1.25 0
M  V30 579 C 53.4456 2.4871 2.30209 0
M  V30 580 C 52.6186 3.79413 2.17634 0
M  V30 581 C 51.6776 4.07237 3.33233 0
M  V30 582 O 50.7036 4.77425 3.09927 0
M  V30 583 N 51.9056 3.5775 4.5716 0
M  V30 584 H 54.6706 2.94598 0.55066 0
M  V30 585 H 52.2316 1.61173 0.15323 0
M  V30 586 H 54.2236 2.64413 3.06378 0
M  V30 587 H 52.7936 1.66845 2.64351 0
M  V30 588 H 52.0136 3.73465 1.26165 0
M  V30 589 H 53.3016 4.65038 2.0644 0
M  V30 590 H 52.6996 3.00976 4.78989 0
M  V30 591 H 51.2566 3.78724 5.30482 0
M  V30 592 N 54.6897 -0.239769 1.55765 0
M  V30 593 C 55.9357 -0.963942 1.79108 0
M  V30 594 C 56.2907 -1.82689 0.60352 0
M  V30 595 O 55.5837 -1.87313 -0.403033 0
M  V30 596 C 55.7777 -1.852 3.05672 0
M  V30 597 C 55.6067 -1.07651 4.36625 0
M  V30 598 C 54.3767 -0.778738 4.99263 0
M  V30 599 C 56.5747 -0.45062 5.12322 0
M  V30 600 N 54.5567 0.0200708 6.13897 0
M  V30 601 C 55.9277 0.212429 6.19636 0
M  V30 602 C 57.9827 -0.361806 4.96584 0
M  V30 603 C 56.6857 0.955772 7.12922 0
M  V30 604 C 58.7117 0.368023 5.90254 0
M  V30 605 C 58.0737 1.01968 6.96981 0
M  V30 606 H 54.1727 -0.333601 0.707272 0
M  V30 607 H 56.7567 -0.236425 1.93259 0
M  V30 608 H 54.9277 -2.55149 2.92837 0
M  V30 609 H 56.6597 -2.51228 3.1728 0
M  V30 610 H 53.4147 -1.09229 4.60832 0
M  V30 611 H 53.8387 0.407777 6.75771 0
M  V30 612 H 58.4807 -0.851286 4.14141 0
M  V30 613 H 56.1987 1.45683 7.9486 0
M  V30 614 H 59.7847 0.437504 5.80153 0
M  V30 615 H 58.6647 1.5754 7.68213 0
M  V30 616 N 56.1678 -1.49265 -0.50573 0
M  V30 617 C 57.1158 -1.66065 -1.62866 0
M  V30 618 C 58.1098 -0.526636 -1.61006 0
M  V30 619 O 59.3158 -0.706126 -1.65571 0
M  V30 620 H 55.6908 -0.52356 -0.539805 0
M  V30 621 H 57.6618 -2.60329 -1.45848 0
M  V30 622 C 56.4108 -1.74008 -3.01026 0
M  V30 623 H 55.7338 -2.6064 -3.03161 0
M  V30 624 H 57.1738 -1.89798 -3.79147 0
M  V30 625 C 55.6328 -0.483868 -3.33407 0
M  V30 626 O 56.1628 0.392548 -3.99777 0
M  V30 627 N 54.3688 -0.348236 -2.88506 0
M  V30 628 H 53.9158 -1.06242 -2.34671 0
M  V30 629 H 53.8738 0.491204 -3.10539 0
M  V30 630 N 57.6459 0.756429 -1.3826 0
M  V30 631 C 58.9229 1.50584 -1.24835 0
M  V30 632 C 59.3029 2.10556 0.151485 0
M  V30 633 O 58.6509 1.96825 1.1607 0
M  V30 634 C 58.8609 2.57448 -2.3563 0
M  V30 635 C 60.2089 3.24429 -2.73917 0
M  V30 636 O 61.2329 2.67751 -2.34921 0
M  V30 637 O 60.0919 4.26937 -3.41156 0
M  V30 638 H 57.1859 0.667664 -0.48801 0
M  V30 639 H 59.7319 0.792083 -1.5008 0
M  V30 640 H 58.5039 2.11362 -3.29305 0
M  V30 641 H 58.1269 3.36408 -2.11933 0
M  V30 642 N 59.124 1.23083 0.984299 0
M  V30 643 C 60.056 0.96636 2.07832 0
M  V30 644 C 61.069 -0.0582135 1.62696 0
M  V30 645 O 62.258 0.176843 1.77622 0
M  V30 646 C 59.358 0.433397 3.36117 0
M  V30 647 C 58.531 1.51722 4.10243 0
M  V30 648 C 57.59 0.989821 5.16807 0
M  V30 649 O 56.616 1.67794 5.43906 0
M  V30 650 N 57.818 -0.184367 5.80207 0
M  V30 651 H 60.583 1.90824 2.31098 0
M  V30 652 H 58.144 1.13888 1.1507 0
M  V30 653 H 60.136 0.065699 4.04647 0
M  V30 654 H 58.706 -0.413806 3.09849 0
M  V30 655 H 57.926 2.05786 3.36223 0
M  V30 656 H 59.214 2.24619 4.56534 0
M  V30 657 H 58.612 -0.760062 5.60571 0
M  V30 658 H 57.169 -0.493366 6.4993 0
M  V30 659 N 60.6021 -1.18246 1.0419 0
M  V30 660 C 61.5341 -2.2142 0.592088 0
M  V30 661 C 62.5471 -1.59233 -0.338909 0
M  V30 662 O 63.7361 -1.78002 -0.133231 0
M  V30 663 C 60.8361 -3.38546 -0.154854 0
M  V30 664 C 60.0091 -4.3031 0.784328 0
M  V30 665 C 59.0681 -5.26138 0.0804583 0
M  V30 666 O 58.0941 -5.64738 0.711292 0
M  V30 667 N 59.2961 -5.68261 -1.18574 0
M  V30 668 H 62.0611 -2.60636 1.47949 0
M  V30 669 H 59.6221 -1.33044 0.922544 0
M  V30 670 H 61.6141 -3.99678 -0.635606 0
M  V30 671 H 60.1841 -2.98012 -0.943811 0
M  V30 672 H 59.4041 -3.66764 1.44491 0
M  V30 673 H 60.6921 -4.8852 1.42218 0
M  V30 674 H 60.0901 -5.38957 -1.71876 0
M  V30 675 H 58.6471 -6.31584 -1.61074 0
M  V30 676 N 62.0802 -0.821533 -1.34494 0
M  V30 677 C 63.3272 -0.408946 -1.98328 0
M  V30 678 C 63.6552 1.02764 -1.65136 0
M  V30 679 O 62.9102 1.73026 -0.914349 0
M  V30 680 C 63.2092 -0.556512 -3.53041 0
M  V30 681 C 62.8752 -1.95861 -4.0614 0
M  V30 682 C 61.5372 -2.34217 -4.20352 0
M  V30 683 C 63.8892 -2.87523 -4.34718 0
M  V30 684 C 61.2172 -3.63572 -4.6047 0
M  V30 685 C 63.5692 -4.1634 -4.76281 0
M  V30 686 C 62.2332 -4.54675 -4.88699 0
M  V30 687 H 61.5032 -0.149644 -0.725732 0
M  V30 688 H 64.1502 -1.04521 -1.6046 0
M  V30 689 H 62.4552 0.163148 -3.9146 0
M  V30 690 H 64.1522 -0.217826 -4.00408 0
M  V30 691 H 60.7422 -1.65066 -3.95539 0
M  V30 692 H 64.9262 -2.59133 -4.23277 0
M  V30 693 H 60.1822 -3.93101 -4.68275 0
M  V30 694 H 64.3562 -4.87455 -4.97354 0
M  V30 695 H 61.9832 -5.54959 -5.19542 0
M  V30 696 N 63.5583 1.46682 -0.576371 0
M  V30 697 C 64.8353 1.95599 0.00703437 0
M  V30 698 C 65.2153 1.51904 1.46589 0
M  V30 699 O 64.5633 0.766755 2.15251 0
M  V30 700 C 64.7733 3.4864 -0.158404 0
M  V30 701 C 66.1213 4.24594 -0.0229439 0
M  V30 702 O 67.1453 3.56094 -0.0869173 0
M  V30 703 O 66.0043 5.46373 0.118015 0
M  V30 704 H 63.0983 0.825275 0.053384 0
M  V30 705 H 65.6443 1.56996 -0.644244 0
M  V30 706 H 64.4163 3.7331 -1.17282 0
M  V30 707 H 64.0393 3.94057 0.5296 0
M  V30 708 N 65.0364 0.313813 1.54444 0
M  V30 709 C 66.3134 -0.345447 1.92525 0
M  V30 710 C 66.6934 -1.70667 1.24242 0
M  V30 711 O 66.0414 -2.25273 0.382654 0
M  V30 712 C 66.2514 -0.44737 3.46121 0
M  V30 713 C 67.5994 -0.712238 4.18584 0
M  V30 714 O 68.6234 -0.530678 3.52225 0
M  V30 715 O 67.4824 -1.06183 5.36085 0
M  V30 716 H 64.5764 -0.195407 0.803583 0
M  V30 717 H 67.1224 0.362813 1.65776 0
M  V30 718 H 65.8944 0.509043 3.87975 0
M  V30 719 H 65.5174 -1.20359 3.78945 0
M  V30 720 N 66.5145 -1.57545 0.0417849 0
M  V30 721 C 67.4475 -2.06514 -0.970928 0
M  V30 722 C 68.4255 -0.963607 -1.30971 0
M  V30 723 O 69.6095 -1.23486 -1.4242 0
M  V30 724 C 66.7365 -2.4978 -2.28752 0
M  V30 725 C 65.7825 -3.71078 -2.10246 0
M  V30 726 S 66.6155 -5.17158 -1.38952 0
M  V30 727 C 67.7715 -5.6373 -2.71954 0
M  V30 728 H 68.0045 -2.9209 -0.554129 0
M  V30 729 H 65.5375 -1.53459 -0.17024 0
M  V30 730 H 67.4955 -2.75371 -3.04435 0
M  V30 731 H 66.1565 -1.64527 -2.67562 0
M  V30 732 H 65.3495 -3.9924 -3.07609 0
M  V30 733 H 64.9515 -3.45705 -1.42704 0
M  V30 734 H 67.2435 -5.68743 -3.68154 0
M  V30 735 H 68.1865 -6.63086 -2.4844 0
M  V30 736 H 68.5945 -4.91424 -2.77782 0
M  V30 737 N 67.9926 0.231505 -1.5589 0
M  V30 738 C 69.2226 0.973092 -1.82248 0
M  V30 739 C 69.6306 1.78845 -0.617328 0
M  V30 740 O 68.9736 1.78752 0.423499 0
M  V30 741 C 69.0356 1.94732 -3.02192 0
M  V30 742 C 68.6996 1.31743 -4.37599 0
M  V30 743 C 69.6966 0.712238 -5.14998 0
M  V30 744 C 67.3816 1.33218 -4.84312 0
M  V30 745 C 69.3756 0.130195 -6.37267 0
M  V30 746 C 67.0626 0.746286 -6.06526 0
M  V30 747 C 68.0606 0.146337 -6.82843 0
M  V30 748 O 67.7486 -0.430465 -8.02747 0
M  V30 749 H 67.4806 0.29125 -0.61004 0
M  V30 750 H 70.0346 0.254915 -2.03812 0
M  V30 751 H 68.2646 2.70422 -2.76422 0
M  V30 752 H 69.9536 2.55362 -3.15508 0
M  V30 753 H 70.7196 0.69324 -4.8002 0
M  V30 754 H 66.5986 1.78854 -4.24891 0
M  V30 755 H 70.1426 -0.33871 -6.96777 0
M  V30 756 H 66.0396 0.762663 -6.40979 0
M  V30 757 H 66.8076 -0.323818 -8.17859 0
M  V30 758 N 69.4707 1.49531 0.497807 0
M  V30 759 C 70.4027 1.62559 1.61578 0
M  V30 760 C 71.4157 0.508134 1.54667 0
M  V30 761 O 72.6047 0.780309 1.60541 0
M  V30 762 C 69.7047 1.56925 3.00379 0
M  V30 763 C 68.8777 2.84257 3.3244 0
M  V30 764 C 67.9367 2.71632 4.50669 0
M  V30 765 O 66.9627 3.4557 4.52294 0
M  V30 766 N 68.1647 1.83391 5.5077 0
M  V30 767 H 70.9297 2.58981 1.50828 0
M  V30 768 H 68.4907 1.4666 0.685743 0
M  V30 769 H 70.4827 1.46129 3.77397 0
M  V30 770 H 69.0527 0.683483 3.05037 0
M  V30 771 H 68.2727 3.09381 2.44289 0
M  V30 772 H 69.5607 3.68666 3.5066 0
M  V30 773 H 68.9587 1.22583 5.52259 0
M  V30 774 H 67.5157 1.78515 6.26878 0
M  V30 775 N 70.9488 -0.749086 1.3866 0
M  V30 776 C 72.1738 -1.54344 1.38538 0
M  V30 777 C 72.5988 -1.88088 -0.0216655 0
M  V30 778 O 71.9568 -1.50899 -1.00494 0
M  V30 779 C 72.0048 -2.8164 2.25192 0
M  V30 780 O 71.1088 -3.7698 1.67212 0
M  V30 781 H 70.4498 -0.466654 0.472367 0
M  V30 782 H 72.9798 -0.925355 1.82478 0
M  V30 783 H 72.9898 -3.30519 2.3921 0
M  V30 784 H 71.6648 -2.56411 3.27454 0
M  V30 785 H 70.2418 -3.35699 1.6236 0
M  V30 786 N 72.4269 -1.23603 -0.977757 0
M  V30 787 C 73.3569 -1.04401 -2.0886 0
M  V30 788 C 74.3379 0.0399052 -1.70053 0
M  V30 789 O 75.5229 -0.125246 -1.93796 0
M  V30 790 C 72.6529 -0.637269 -3.41403 0
M  V30 791 C 71.6069 -1.66883 -3.94124 0
M  V30 792 C 70.9329 -1.11745 -5.22893 0
M  V30 793 C 72.2329 -3.06247 -4.23096 0
M  V30 794 H 73.9269 -1.97316 -2.25182 0
M  V30 795 H 71.4729 -0.950096 -1.08209 0
M  V30 796 H 73.4259 -0.48998 -4.18542 0
M  V30 797 H 72.1499 0.327557 -3.24953 0
M  V30 798 H 70.8089 -1.80416 -3.19133 0
M  V30 799 H 70.4569 -0.143527 -5.02795 0
M  V30 800 H 70.1569 -1.80672 -5.59134 0
M  V30 801 H 71.6809 -0.982067 -6.02651 0
M  V30 802 H 73.0949 -2.96001 -4.90975 0
M  V30 803 H 71.4919 -3.72436 -4.70544 0
M  V30 804 H 72.5619 -3.55041 -3.30263 0
M  V30 805 N 73.905 1.17692 -1.04816 0
M  V30 806 C 75.133 1.91786 -0.776254 0
M  V30 807 C 75.548 1.76604 0.667577 0
M  V30 808 O 74.905 1.10067 1.45573 0
M  V30 809 C 74.956 3.42967 -1.14263 0
M  V30 810 O 74.677 3.57678 -2.52978 0
M  V30 811 C 76.178 4.34144 -0.896311 0
M  V30 812 H 73.398 0.608624 -0.282519 0
M  V30 813 H 75.942 1.49268 -1.39783 0
M  V30 814 H 74.097 3.83245 -0.565874 0
M  V30 815 H 74.511 4.51319 -2.67229 0
M  V30 816 H 75.985 5.38744 -1.20244 0
M  V30 817 H 76.462 4.38876 0.168636 0
M  V30 818 H 77.068 3.99574 -1.45672 0
M  V30 819 N 75.3831 0.828654 1.34056 0
M  V30 820 C 76.3301 0.252567 2.29414 0
M  V30 821 C 77.3001 -0.62588 1.53857 0
M  V30 822 O 78.4851 -0.566312 1.82202 0
M  V30 823 C 75.6251 -0.574831 3.40279 0
M  V30 824 C 74.7381 0.326499 4.30764 0
M  V30 825 C 73.8731 -0.511016 5.28736 0
M  V30 826 C 72.9121 0.389342 6.1086 0
M  V30 827 N 72.0491 -0.409439 7.00905 0
M  V30 828 H 76.8891 1.07108 2.78086 0
M  V30 829 H 74.4261 0.539677 1.36843 0
M  V30 830 H 76.3841 -1.06992 4.03248 0
M  V30 831 H 75.0141 -1.35841 2.92826 0
M  V30 832 H 74.0661 0.939837 3.68607 0
M  V30 833 H 75.3781 1.01857 4.88289 0
M  V30 834 H 74.5321 -1.07035 5.97184 0
M  V30 835 H 73.2711 -1.23657 4.71763 0
M  V30 836 H 72.2761 0.960769 5.4134 0
M  V30 837 H 73.5011 1.1131 6.69916 0
M  V30 838 H 71.4471 -1.11856 6.46393 0
M  V30 839 H 71.3641 0.224126 7.55668 0
M  V30 840 H 72.6321 -0.951336 7.73673 0
M  V30 841 N 76.8612 -1.46375 0.584142 0
M  V30 842 C 78.1382 -1.956 0.0033388 0
M  V30 843 C 78.5182 -1.52679 -1.45782 0
M  V30 844 O 77.8662 -0.77816 -2.14842 0
M  V30 845 C 78.0762 -3.48551 0.176891 0
M  V30 846 C 79.4242 -4.24576 0.0454609 0
M  V30 847 O 80.4482 -3.56043 0.105801 0
M  V30 848 O 79.3072 -5.46427 -0.0890376 0
M  V30 849 H 76.4012 -0.825547 -0.0490066 0
M  V30 850 H 78.9472 -1.56652 0.65256 0
M  V30 851 H 77.7192 -3.72683 1.1926 0
M  V30 852 H 77.3422 -3.94332 -0.508695 0
M  V30 853 N 78.3393 -0.321999 -1.54275 0
M  V30 854 C 79.5853 0.281461 -2.00837 0
M  V30 855 C 79.9183 1.51909 -1.20985 0
M  V30 856 O 79.1933 1.923 -0.291733 0
M  V30 857 C 79.4763 0.617162 -3.54772 0
M  V30 858 C 79.3293 -0.631064 -4.45351 0
M  V30 859 C 80.6483 1.43542 -4.16033 0
M  V30 860 H 77.7673 0.100826 -0.730071 0
M  V30 861 H 80.4093 -0.438268 -1.84876 0
M  V30 862 H 78.5593 1.23034 -3.68504 0
M  V30 863 H 80.2313 -1.26934 -4.43492 0
M  V30 864 H 78.4743 -1.26025 -4.15091 0
M  V30 865 H 79.1453 -0.351735 -5.50878 0
M  V30 866 H 81.6213 0.917134 -4.05867 0
M  V30 867 H 80.4973 1.63907 -5.23856 0
M  V30 868 H 80.7583 2.43108 -3.69257 0
M  V30 869 N 79.8174 1.5752 -0.0501392 0
M  V30 870 C 80.7644 2.1147 0.924603 0
M  V30 871 C 81.7344 1.02182 1.30951 0
M  V30 872 O 82.9194 1.29723 1.39916 0
M  V30 873 C 80.0594 2.66337 2.19451 0
M  V30 874 C 79.1724 3.89708 1.86418 0
M  V30 875 C 78.3074 4.32893 3.07859 0
M  V30 876 C 77.3464 5.48967 2.70742 0
M  V30 877 N 76.4834 5.87211 3.84874 0
M  V30 878 H 81.3234 2.94465 0.457639 0
M  V30 879 H 78.8604 1.45531 0.214266 0
M  V30 880 H 80.8184 2.96247 2.93758 0
M  V30 881 H 79.4484 1.86141 2.63726 0
M  V30 882 H 78.5004 3.66396 1.02264 0
M  V30 883 H 79.8124 4.74074 1.55096 0
M  V30 884 H 78.9664 4.6435 3.90466 0
M  V30 885 H 77.7054 3.47336 3.42358 0
M  V30 886 H 76.7104 5.17183 1.86551 0
M  V30 887 H 77.9354 6.3624 2.37436 0
M  V30 888 H 75.8814 5.04607 4.19175 0
M  V30 889 H 75.7984 6.66266 3.57247 0
M  V30 890 H 77.0664 6.23282 4.68123 0
M  V30 891 N 81.2955 -0.223234 1.56011 0
M  V30 892 C 82.2425 -1.27664 1.92277 0
M  V30 893 C 83.2125 -1.46659 0.779763 0
M  V30 894 O 84.3975 -1.60256 1.03551 0
M  V30 895 C 81.5375 -2.62234 2.24338 0
M  V30 896 C 80.6505 -2.51051 3.51564 0
M  V30 897 C 79.7855 -3.78133 3.7308 0
M  V30 898 C 78.8245 -3.61665 4.93827 0
M  V30 899 N 77.9615 -4.80693 5.11741 0
M  V30 900 H 82.8015 -0.960358 2.82101 0
M  V30 901 H 80.3385 -0.462901 1.39627 0
M  V30 902 H 82.2965 -3.40596 2.40936 0
M  V30 903 H 80.9265 -2.91961 1.3769 0
M  V30 904 H 79.9785 -1.64132 3.43169 0
M  V30 905 H 81.2905 -2.34803 4.40079 0
M  V30 906 H 80.4445 -4.64938 3.89766 0
M  V30 907 H 79.1835 -3.97304 2.82844 0
M  V30 908 H 78.1885 -2.73244 4.77093 0
M  V30 909 H 79.4135 -3.43966 5.85546 0
M  V30 910 H 77.3595 -5.00181 4.24446 0
M  V30 911 H 77.2765 -4.67165 5.94384 0
M  V30 912 H 78.5445 -5.6893 5.3286 0
M  V30 913 N 82.7736 -1.49793 -0.48987 0
M  V30 914 C 83.6836 -1.70036 -1.61632 0
M  V30 915 C 84.6996 -0.583102 -1.63939 0
M  V30 916 O 85.8756 -0.859169 -1.82154 0
M  V30 917 C 82.9406 -1.77277 -2.97949 0
M  V30 918 C 82.0016 -3.00918 -3.06181 0
M  V30 919 C 81.2346 -3.07804 -4.35996 0
M  V30 920 O 81.4576 -2.21982 -5.25433 0
M  V30 921 O 80.3916 -4.00369 -4.49431 0
M  V30 922 H 84.2176 -2.65486 -1.47482 0
M  V30 923 H 81.8026 -1.33666 -0.667362 0
M  V30 924 H 83.6846 -1.84329 -3.78947 0
M  V30 925 H 82.3596 -0.850076 -3.12339 0
M  V30 926 H 81.2666 -2.99377 -2.2433 0
M  V30 927 H 82.5996 -3.92704 -2.96723 0
M  V30 928 N 84.2517 0.741722 -1.39055 0
M  V30 929 C 85.5007 1.49656 -1.35225 0
M  V30 930 C 85.8137 1.95533 0.0512708 0
M  V30 931 O 87.0197 2.7067 0.212138 0
M  V30 932 C 85.4757 2.70389 -2.37525 0
M  V30 933 C 85.0837 2.31489 -3.83558 0
M  V30 934 C 86.8277 3.48236 -2.42759 0
M  V30 935 C 84.7347 3.48903 -4.77515 0
M  V30 936 H 83.6647 0.56197 -0.502699 0
M  V30 937 H 86.3157 0.809727 -1.64668 0
M  V30 938 H 84.6977 3.41113 -2.01142 0
M  V30 939 H 85.8717 1.68354 -4.28945 0
M  V30 940 H 84.1867 1.66749 -3.81554 0
M  V30 941 H 86.7837 4.35558 -3.1015 0
M  V30 942 H 87.1267 3.90229 -1.45008 0
M  V30 943 H 87.6597 2.84535 -2.78002 0
M  V30 944 H 84.3987 3.11966 -5.76504 0
M  V30 945 H 83.9187 4.11041 -4.36813 0
M  V30 946 H 85.5977 4.15328 -4.96096 0
M  V30 947 N 85.7298 1.2412 0.971189 0
M  V30 948 C 86.9548 1.10667 1.75407 0
M  V30 949 C 87.3798 -0.337048 1.85056 0
M  V30 950 O 86.7378 -1.24396 1.31892 0
M  V30 951 C 86.7858 1.74726 3.15441 0
M  V30 952 O 85.8898 1.01566 3.99697 0
M  V30 953 H 85.2308 0.387341 0.539317 0
M  V30 954 H 87.7608 1.64358 1.2185 0
M  V30 955 H 87.7708 1.80341 3.6598 0
M  V30 956 H 86.4458 2.79773 3.07734 0
M  V30 957 H 85.0228 1.03713 3.58187 0
M  V30 958 N 87.2079 -1.17134 1.05439 0
M  V30 959 C 88.1549 -2.21235 0.657539 0
M  V30 960 C 89.1249 -1.62551 -0.341543 0
M  V30 961 O 90.3099 -1.89379 -0.232393 0
M  V30 962 C 87.4499 -3.45076 0.0410575 0
M  V30 963 C 86.5629 -4.18042 1.08927 0
M  V30 964 C 85.6979 -5.29376 0.439848 0
M  V30 965 C 84.7369 -5.94132 1.4722 0
M  V30 966 N 83.8739 -6.96975 0.846756 0
M  V30 967 H 88.7139 -2.54534 1.54972 0
M  V30 968 H 86.2509 -1.25028 0.775006 0
M  V30 969 H 88.2089 -4.15862 -0.33383 0
M  V30 970 H 86.8389 -3.12353 -0.814568 0
M  V30 971 H 85.8909 -3.45945 1.58196 0
M  V30 972 H 87.2029 -4.62306 1.87282 0
M  V30 973 H 86.3569 -6.06699 0.0115125 0
M  V30 974 H 85.0959 -4.86251 -0.375656 0
M  V30 975 H 84.1009 -5.15538 1.91052 0
M  V30 976 H 85.3259 -6.39337 2.28965 0
M  V30 977 H 83.2719 -6.5598 0.0518075 0
M  V30 978 H 83.1889 -7.39565 1.5678 0
M  V30 979 H 84.4569 -7.78239 0.443277 0
M  V30 980 N 88.686 -0.835752 -1.33615 0
M  V30 981 C 89.633 -0.26473 -2.29277 0
M  V30 982 C 90.603 0.617712 -1.54187 0
M  V30 983 O 91.788 0.556641 -1.825 0
M  V30 984 C 88.928 0.556777 -3.40579 0
M  V30 985 C 88.041 -0.349339 -4.30585 0
M  V30 986 C 87.176 0.482969 -5.29 0
M  V30 987 C 86.215 -0.421732 -6.10645 0
M  V30 988 N 85.352 0.372262 -7.01112 0
M  V30 989 H 90.192 -1.08582 -2.77514 0
M  V30 990 H 87.729 -0.546927 -1.36554 0
M  V30 991 H 89.687 1.04852 -4.03809 0
M  V30 992 H 88.317 1.34286 -2.93542 0
M  V30 993 H 87.369 -0.959372 -3.68104 0
M  V30 994 H 88.681 -1.04445 -4.87742 0
M  V30 995 H 87.835 1.03866 -5.97743 0
M  V30 996 H 86.574 1.21153 -4.72412 0
M  V30 997 H 85.579 -0.989464 -5.40823 0
M  V30 998 H 86.804 -1.14861 -6.69316 0
M  V30 999 H 84.75 1.08426 -6.46977 0
M  V30 1000 H 84.667 -0.264198 -7.55538 0
M  V30 1001 H 85.935 0.910293 -7.74167 0
M  V30 1002 N 90.1641 1.46063 -0.591896 0
M  V30 1003 C 91.4411 1.95595 -0.0137119 0
M  V30 1004 C 91.8211 1.5345 1.4497 0
M  V30 1005 O 91.1691 0.789543 2.14426 0
M  V30 1006 C 91.3791 3.48453 -0.195373 0
M  V30 1007 C 92.7271 4.24546 -0.0679765 0
M  V30 1008 O 93.7511 3.55982 -0.124681 0
M  V30 1009 O 92.6101 5.46467 0.0600579 0
M  V30 1010 H 89.7041 0.825795 0.0446279 0
M  V30 1011 H 92.2501 1.56303 -0.660859 0
M  V30 1012 H 91.0221 3.72045 -1.21235 0
M  V30 1013 H 90.6451 3.94597 0.487775 0
M  V30 1014 N 91.6422 0.330177 1.54103 0
M  V30 1015 C 92.8892 -0.270405 2.00686 0
M  V30 1016 C 93.2172 -1.51621 1.21825 0
M  V30 1017 O 92.4722 -1.93536 0.29025 0
M  V30 1018 C 92.7712 -0.643134 3.51566 0
M  V30 1019 C 92.4372 0.504251 4.48072 0
M  V30 1020 C 91.0992 0.819163 4.74176 0
M  V30 1021 C 93.4512 1.27465 5.05373 0
M  V30 1022 C 90.7792 1.90708 5.5484 0
M  V30 1023 C 93.1312 2.35271 5.87223 0
M  V30 1024 C 91.7952 2.67336 6.11627 0
M  V30 1025 H 91.0652 -0.0989482 0.734364 0
M  V30 1026 H 93.7122 0.455324 1.86008 0
M  V30 1027 H 92.0172 -1.44938 3.64006 0
M  V30 1028 H 93.7142 -1.11949 3.85056 0
M  V30 1029 H 90.3042 0.248733 4.27878 0
M  V30 1030 H 94.4882 1.04462 4.85182 0
M  V30 1031 H 89.7442 2.15991 5.71977 0
M  V30 1032 H 93.9182 2.95405 6.30641 0
M  V30 1033 H 91.5452 3.51763 6.73919 0
M  V30 1034 N 93.1203 -1.57491 0.0584922 0
M  V30 1035 C 94.3663 -1.93264 -0.614558 0
M  V30 1036 C 94.6993 -0.937717 -1.7006 0
M  V30 1037 O 93.9743 0.0351652 -1.94468 0
M  V30 1038 C 94.2573 -3.3938 -1.20386 0
M  V30 1039 C 94.1103 -4.49625 -0.125375 0
M  V30 1040 C 95.4293 -3.86039 -2.11334 0
M  V30 1041 H 92.5483 -0.702791 -0.221933 0
M  V30 1042 H 95.1903 -1.8961 0.12175 0
M  V30 1043 H 93.3403 -3.42626 -1.83139 0
M  V30 1044 H 95.0123 -4.58506 0.506971 0
M  V30 1045 H 93.2553 -4.30354 0.545672 0
M  V30 1046 H 93.9263 -5.48967 -0.577861 0
M  V30 1047 H 96.4023 -3.84716 -1.58534 0
M  V30 1048 H 95.2783 -4.88914 -2.49507 0
M  V30 1049 H 95.5393 -3.23215 -3.01636 0
M  V30 1050 N 94.5984 0.214957 -1.56127 0
M  V30 1051 C 95.5464 1.28601 -1.93816 0
M  V30 1052 C 96.5404 1.48175 -0.821016 0
M  V30 1053 O 97.7464 1.49271 -1.0059 0
M  V30 1054 H 94.1214 0.431302 -0.616022 0
M  V30 1055 H 96.0924 0.940991 -2.83175 0
M  V30 1056 C 94.8414 2.62779 -2.27689 0
M  V30 1057 H 94.1644 2.48527 -3.13168 0
M  V30 1058 H 95.6044 3.36517 -2.57939 0
M  V30 1059 C 94.0634 3.18285 -1.10436 0
M  V30 1060 O 94.5934 4.00002 -0.368945 0
M  V30 1061 N 92.7994 2.7675 -0.886433 0
M  V30 1062 H 92.3464 2.10404 -1.48619 0
M  V30 1063 H 92.3044 3.14229 -0.103656 0
M  V30 1064 N 96.0765 1.50051 0.48192 0
M  V30 1065 C 97.4925 1.37237 0.814756 0
M  V30 1066 C 97.6925 0.420109 1.97072 0
M  V30 1067 O 96.7485 -0.141246 2.52105 0
M  V30 1068 C 98.0615 2.78375 1.13701 0
M  V30 1069 C 99.6095 2.87213 1.2441 0
M  V30 1070 C 100.084 4.29161 1.59954 0
M  V30 1071 N 101.575 4.32061 1.66967 0
M  V30 1072 C 102.31 5.38879 1.95952 0
M  V30 1073 N 101.806 6.55918 2.23031 0
M  V30 1074 N 103.599 5.26312 1.97363 0
M  V30 1075 H 95.7505 2.10546 -0.28005 0
M  V30 1076 H 98.0135 0.945921 -0.0627454 0
M  V30 1077 H 97.7195 3.49845 0.360787 0
M  V30 1078 H 97.5935 3.14941 2.07586 0
M  V30 1079 H 99.9805 2.15969 2.01101 0
M  V30 1080 H 100.061 2.54204 0.285299 0
M  V30 1081 H 99.7055 5.00938 0.838067 0
M  V30 1082 H 99.6355 4.59648 2.56966 0
M  V30 1083 H 102.126 3.47661 1.48123 0
M  V30 1084 H 102.439 7.33139 2.44391 0
M  V30 1085 H 100.784 6.59112 2.20447 0
M  V30 1086 H 103.975 4.33876 1.75697 0
M  V30 1087 H 104.148 6.09649 2.19618 0
M  V30 1088 N 97.5546 -0.734337 1.39446 0
M  V30 1089 C 98.7846 -1.52137 1.39778 0
M  V30 1090 C 99.1926 -1.89198 -0.00929312 0
M  V30 1091 O 98.5356 -1.54666 -0.991168 0
M  V30 1092 C 98.5976 -2.83762 2.20724 0
M  V30 1093 C 98.2616 -2.69131 3.69347 0
M  V30 1094 C 99.2586 -2.37635 4.62413 0
M  V30 1095 C 96.9436 -2.85982 4.1294 0
M  V30 1096 C 98.9376 -2.23172 5.97054 0
M  V30 1097 C 96.6246 -2.71137 5.47657 0
M  V30 1098 C 97.6226 -2.39777 6.39528 0
M  V30 1099 O 97.3106 -2.25026 7.71763 0
M  V30 1100 H 97.0426 -0.476717 0.479288 0
M  V30 1101 H 99.5966 -0.915012 1.83893 0
M  V30 1102 H 97.8266 -3.4666 1.71359 0
M  V30 1103 H 99.5156 -3.45383 2.13226 0
M  V30 1104 H 100.282 -2.24267 4.30034 0
M  V30 1105 H 96.1606 -3.09383 3.41765 0
M  V30 1106 H 99.7046 -1.98617 6.68728 0
M  V30 1107 H 95.6016 -2.84083 5.79626 0
M  V30 1108 H 96.3696 -2.40091 7.82495 0
M  V30 1109 N 99.0327 -1.24633 -0.964593 0
M  V30 1110 C 99.9797 -1.04144 -2.05968 0
M  V30 1111 C 100.95 0.046262 -1.66036 0
M  V30 1112 O 102.135 -0.108972 -1.90489 0
M  V30 1113 C 99.2747 -0.65563 -3.38815 0
M  V30 1114 C 98.3877 -1.81714 -3.91923 0
M  V30 1115 C 97.5227 -1.37662 -5.13052 0
M  V30 1116 C 96.5617 -2.50788 -5.58365 0
M  V30 1117 N 95.6987 -2.07582 -6.70712 0
M  V30 1118 H 100.539 -1.9787 -2.22827 0
M  V30 1119 H 98.0757 -0.9855 -1.09208 0
M  V30 1120 H 100.034 -0.412954 -4.15151 0
M  V30 1121 H 98.6637 0.244627 -3.21872 0
M  V30 1122 H 97.7157 -2.1734 -3.12198 0
M  V30 1123 H 99.0277 -2.66705 -4.21509 0
M  V30 1124 H 98.1817 -1.093 -5.96773 0
M  V30 1125 H 96.9207 -0.497293 -4.85158 0
M  V30 1126 H 95.9257 -2.79906 -4.73215 0
M  V30 1127 H 97.1507 -3.39283 -5.88272 0
M  V30 1128 H 95.0967 -1.22051 -6.44546 0
M  V30 1129 H 95.0137 -2.86125 -6.99763 0
M  V30 1130 H 96.2817 -1.82369 -7.57867 0
M  V30 1131 N 100.511 1.16574 -1.06058 0
M  V30 1132 C 101.474 2.19085 -0.673392 0
M  V30 1133 C 102.474 1.5835 0.279648 0
M  V30 1134 O 103.664 1.74088 0.0623488 0
M  V30 1135 C 100.796 3.40899 0.00954234 0
M  V30 1136 H 101.989 2.54853 -1.58081 0
M  V30 1137 H 99.5418 1.30808 -0.855516 0
M  V30 1138 H 100.277 3.10684 0.929826 0
M  V30 1139 H 100.062 3.86233 -0.67573 0
M  V30 1140 H 101.552 4.1675 0.266245 0
M  V30 1141 N 101.989 0.842826 1.3317 0
M  V30 1142 C 103.238 0.436738 1.96915 0
M  V30 1143 C 103.551 -1.01025 1.67491 0
M  V30 1144 O 104.757 -1.5212 2.24881 0
M  V30 1145 C 103.213 0.730021 3.52418 0
M  V30 1146 C 102.821 2.19195 3.90714 0
M  V30 1147 C 104.565 0.391076 4.22695 0
M  V30 1148 C 102.472 2.42907 5.39212 0
M  V30 1149 H 101.402 0.15958 0.736919 0
M  V30 1150 H 104.053 1.03196 1.51733 0
M  V30 1151 H 102.435 0.0643755 3.95948 0
M  V30 1152 H 103.609 2.8984 3.58231 0
M  V30 1153 H 101.924 2.49425 3.33431 0
M  V30 1154 H 104.521 0.545817 5.31907 0
M  V30 1155 H 104.864 -0.666294 4.10933 0
M  V30 1156 H 105.397 1.01212 3.84709 0
M  V30 1157 H 102.136 3.47224 5.55982 0
M  V30 1158 H 101.656 1.76827 5.73142 0
M  V30 1159 H 103.335 2.2626 6.06148 0
M  V30 1160 N 103.467 -1.45747 0.599634 0
M  V30 1161 C 104.697 -2.06369 0.0977132 0
M  V30 1162 C 105.105 -1.44624 -1.21985 0
M  V30 1163 O 104.448 -0.551831 -1.75216 0
M  V30 1164 C 104.51 -3.59284 -0.124673 0
M  V30 1165 C 104.174 -4.43318 1.10987 0
M  V30 1166 C 105.171 -4.78796 2.02609 0
M  V30 1167 C 102.856 -4.84194 1.33647 0
M  V30 1168 C 104.85 -5.53997 3.15224 0
M  V30 1169 C 102.537 -5.5915 2.46565 0
M  V30 1170 C 103.535 -5.93968 3.37182 0
M  V30 1171 O 103.223 -6.67405 4.48136 0
M  V30 1172 H 102.955 -0.673122 0.0623153 0
M  V30 1173 H 105.509 -1.88104 0.824981 0
M  V30 1174 H 103.739 -3.75919 -0.906745 0
M  V30 1175 H 105.428 -4.01775 -0.577201 0
M  V30 1176 H 106.194 -4.47781 1.86325 0
M  V30 1177 H 102.073 -4.56534 0.64016 0
M  V30 1178 H 105.617 -5.81091 3.85978 0
M  V30 1179 H 101.514 -5.89579 2.62805 0
M  V30 1180 H 102.282 -6.85847 4.46717 0
M  V30 1181 N 104.945 -0.338344 -1.53925 0
M  V30 1182 C 105.855 0.529421 -2.28548 0
M  V30 1183 C 106.871 1.11645 -1.3346 0
M  V30 1184 O 108.047 1.13325 -1.66492 0
M  V30 1185 C 105.112 1.66713 -3.03987 0
M  V30 1186 C 104.173 1.11041 -4.14691 0
M  V30 1187 C 103.406 2.19389 -4.86522 0
M  V30 1188 O 103.629 3.40013 -4.57982 0
M  V30 1189 O 102.563 1.83976 -5.73094 0
M  V30 1190 H 106.389 -0.0770399 -3.03602 0
M  V30 1191 H 103.974 -0.103555 -1.49041 0
M  V30 1192 H 105.856 2.32918 -3.5118 0
M  V30 1193 H 104.531 2.25949 -2.31794 0
M  V30 1194 H 103.438 0.413024 -3.71813 0
M  V30 1195 H 104.771 0.562975 -4.8897 0
M  V30 1196 N 106.423 1.57458 -0.0668435 0
M  V30 1197 C 107.355 2.09413 0.931601 0
M  V30 1198 C 108.368 1.02522 1.26464 0
M  V30 1199 O 109.557 1.30049 1.22269 0
M  V30 1200 C 106.657 2.53537 2.24882 0
M  V30 1201 C 105.83 3.83944 2.09537 0
M  V30 1202 C 104.889 4.14214 3.2452 0
M  V30 1203 O 103.915 4.83891 2.9973 0
M  V30 1204 N 105.117 3.67367 4.49469 0
M  V30 1205 H 107.882 2.95699 0.488048 0
M  V30 1206 H 105.443 1.61462 0.119009 0
M  V30 1207 H 107.435 2.70853 3.00701 0
M  V30 1208 H 106.005 1.72415 2.60753 0
M  V30 1209 H 105.225 3.76057 1.18215 0
M  V30 1210 H 106.513 4.69312 1.96529 0
M  V30 1211 H 105.911 3.11068 4.72497 0
M  V30 1212 H 104.468 3.89891 5.2233 0
M  V30 1213 N 107.901 -0.206675 1.56239 0
M  V30 1214 C 108.864 -1.23976 1.92776 0
M  V30 1215 C 109.864 -1.39041 0.807729 0
M  V30 1216 O 111.054 -1.37051 1.0753 0
M  V30 1217 C 108.186 -2.61112 2.19165 0
M  V30 1218 H 109.379 -0.927764 2.85189 0
M  V30 1219 H 106.932 -0.447718 1.4975 0
M  V30 1220 H 107.667 -2.97386 1.29352 0
M  V30 1221 H 107.452 -2.51552 3.00772 0
M  V30 1222 H 108.942 -3.35633 2.48476 0
M  V30 1223 N 109.379 -1.50304 -0.473955 0
M  V30 1224 C 110.627 -1.60832 -1.22382 0
M  V30 1225 C 110.948 -0.30939 -1.9253 0
M  V30 1226 O 110.218 0.67296 -1.83978 0
M  V30 1227 H 108.798 -0.592652 -0.454723 0
M  V30 1228 H 111.46 -1.87068 -0.546968 0
M  V30 1229 H 110.556 -2.41803 -1.97327 0
M  V30 1230 N 110.857 0.726932 -1.39834 0
M  V30 1231 C 112.103 1.48884 -1.377 0
M  V30 1232 C 112.436 1.94185 0.0244852 0
M  V30 1233 O 111.711 1.67361 0.990986 0
M  V30 1234 C 111.994 2.72288 -2.3565 0
M  V30 1235 C 111.847 2.32956 -3.84775 0
M  V30 1236 C 113.166 3.74414 -2.31306 0
M  V30 1237 H 110.285 0.540062 -0.5015 0
M  V30 1238 H 112.927 0.830547 -1.70886 0
M  V30 1239 H 111.077 3.28457 -2.07481 0
M  V30 1240 H 112.749 1.82356 -4.23726 0
M  V30 1241 H 110.992 1.65088 -4.01159 0
M  V30 1242 H 111.663 3.21362 -4.4881 0
M  V30 1243 H 114.139 3.27849 -2.56231 0
M  V30 1244 H 113.015 4.58414 -3.01907 0
M  V30 1245 H 113.276 4.21909 -1.32081 0
M  V30 1246 N 112.336 1.25143 0.95797 0
M  V30 1247 C 113.283 1.05235 2.05412 0
M  V30 1248 C 114.253 -0.0374561 1.66058 0
M  V30 1249 O 115.438 0.119073 1.90428 0
M  V30 1250 C 112.578 0.673589 3.38462 0
M  V30 1251 C 111.691 1.8379 3.90954 0
M  V30 1252 C 110.826 1.40381 5.12315 0
M  V30 1253 C 109.865 2.53746 5.57027 0
M  V30 1254 N 109.002 2.11136 6.69601 0
M  V30 1255 H 113.842 1.99048 2.21774 0
M  V30 1256 H 111.379 0.991277 1.08683 0
M  V30 1257 H 113.337 0.434964 4.14926 0
M  V30 1258 H 111.967 -0.227554 3.21997 0
M  V30 1259 H 111.019 2.18992 3.11041 0
M  V30 1260 H 112.331 2.68937 4.20089 0
M  V30 1261 H 111.485 1.12464 5.96185 0
M  V30 1262 H 110.224 0.523015 4.84887 0
M  V30 1263 H 109.229 2.82412 4.71724 0
M  V30 1264 H 110.454 3.42398 5.86464 0
M  V30 1265 H 108.4 1.25468 6.4389 0
M  V30 1266 H 108.317 2.89832 6.98236 0
M  V30 1267 H 109.585 1.86385 7.56889 0
M  V30 1268 N 113.814 -1.1601 1.06675 0
M  V30 1269 C 114.762 -2.22586 0.675157 0
M  V30 1270 C 115.756 -1.66525 -0.310766 0
M  V30 1271 O 116.962 -1.79145 -0.175215 0
M  V30 1272 H 113.337 -0.724855 0.200223 0
M  V30 1273 H 115.308 -2.52899 1.58381 0
M  V30 1274 C 114.057 -3.47604 0.0817162 0
M  V30 1275 H 113.38 -3.91058 0.831484 0
M  V30 1276 H 114.82 -4.23718 -0.154708 0
M  V30 1277 C 113.279 -3.15718 -1.17576 0
M  V30 1278 O 113.809 -3.31878 -2.26318 0
M  V30 1279 N 112.015 -2.69816 -1.07923 0
M  V30 1280 H 111.562 -2.56866 -0.194293 0
M  V30 1281 H 111.52 -2.48855 -1.92141 0
M  V30 1282 N 115.292 -0.849877 -1.32721 0
M  V30 1283 C 116.222 -0.306308 -2.31482 0
M  V30 1284 C 117.203 0.591952 -1.59468 0
M  V30 1285 O 118.388 0.513199 -1.87296 0
M  V30 1286 C 115.518 0.510204 -3.43532 0
M  V30 1287 C 114.472 -0.293209 -4.26994 0
M  V30 1288 C 113.798 0.647743 -5.30762 0
M  V30 1289 C 115.098 -1.51634 -4.99804 0
M  V30 1290 H 116.792 -1.13153 -2.77195 0
M  V30 1291 H 114.338 -0.545553 -1.33266 0
M  V30 1292 H 116.291 0.900856 -4.11658 0
M  V30 1293 H 115.015 1.36874 -2.96535 0
M  V30 1294 H 113.674 -0.665555 -3.60508 0
M  V30 1295 H 113.322 1.50299 -4.8002 0
M  V30 1296 H 113.022 0.11422 -5.87489 0
M  V30 1297 H 114.546 1.03567 -6.01753 0
M  V30 1298 H 115.96 -1.19824 -5.60638 0
M  V30 1299 H 114.357 -1.98745 -5.66234 0
M  V30 1300 H 115.427 -2.28018 -4.27943 0
M  V30 1301 N 116.77 1.45427 -0.607355 0
M  V30 1302 C 117.717 2.3053 0.111625 0
M  V30 1303 C 118.687 1.4209 0.860216 0
M  V30 1304 O 119.872 1.71019 0.845998 0
M  V30 1305 C 117.012 3.26992 1.10319 0
M  V30 1306 C 116.125 4.30535 0.355493 0
M  V30 1307 C 115.26 5.14105 1.33676 0
M  V30 1308 C 114.299 6.09376 0.576862 0
M  V30 1309 N 113.436 6.85727 1.5074 0
M  V30 1310 H 118.276 2.91477 -0.620093 0
M  V30 1311 H 115.813 1.43631 -0.317594 0
M  V30 1312 H 117.771 3.81385 1.6912 0
M  V30 1313 H 116.401 2.67799 1.80232 0
M  V30 1314 H 115.453 3.78805 -0.348023 0
M  V30 1315 H 116.765 4.98235 -0.237423 0
M  V30 1316 H 115.919 5.72897 1.99684 0
M  V30 1317 H 114.658 4.46423 1.9636 0
M  V30 1318 H 113.663 5.49715 -0.0968519 0
M  V30 1319 H 114.888 6.79085 -0.0449341 0
M  V30 1320 H 112.834 6.20735 2.12189 0
M  V30 1321 H 112.751 7.49778 0.967913 0
M  V30 1322 H 114.019 7.4906 2.15706 0
M  V30 1323 N 118.248 0.346503 1.53744 0
M  V30 1324 C 119.494 -0.249473 2.0126 0
M  V30 1325 C 119.827 -1.49965 1.23386 0
M  V30 1326 O 119.102 -1.91811 0.32229 0
M  V30 1327 C 119.385 -0.560643 3.55709 0
M  V30 1328 C 119.238 0.701836 4.44291 0
M  V30 1329 C 120.557 -1.36905 4.18264 0
M  V30 1330 H 117.676 -0.0891987 0.731582 0
M  V30 1331 H 120.318 0.467624 1.84156 0
M  V30 1332 H 118.468 -1.17156 3.70414 0
M  V30 1333 H 120.14 1.33974 4.41417 0
M  V30 1334 H 118.383 1.32612 4.13033 0
M  V30 1335 H 119.054 0.43933 5.50249 0
M  V30 1336 H 121.53 -0.852448 4.07275 0
M  V30 1337 H 120.406 -1.55553 5.26398 0
M  V30 1338 H 120.667 -2.37203 3.73078 0
M  V30 1339 N 119.726 -1.57421 0.075193 0
M  V30 1340 C 120.954 -1.97946 -0.602076 0
M  V30 1341 C 121.369 -0.953674 -1.62943 0
M  V30 1342 O 120.726 0.0592551 -1.82404 0
M  V30 1343 C 120.777 -3.38546 -1.26762 0
M  V30 1344 O 120.498 -4.37195 -0.281376 0
M  V30 1345 C 121.999 -3.93966 -2.03239 0
M  V30 1346 H 119.219 -0.650918 -0.162931 0
M  V30 1347 H 121.763 -2.03959 0.148601 0
M  V30 1348 H 119.918 -3.33609 -1.96936 0
M  V30 1349 H 120.332 -5.18975 -0.759267 0
M  V30 1350 H 121.806 -4.94555 -2.45193 0
M  V30 1351 H 122.283 -3.30693 -2.8903 0
M  V30 1352 H 122.889 -4.02315 -1.37924 0
M  V30 1353 N 121.204 0.198386 -1.56346 0
M  V30 1354 C 122.167 1.22952 -1.93431 0
M  V30 1355 C 123.167 1.38611 -0.815092 0
M  V30 1356 O 124.357 1.36479 -1.08255 0
M  V30 1357 C 121.489 2.59946 -2.20546 0
M  V30 1358 H 122.682 0.912626 -2.85677 0
M  V30 1359 H 120.235 0.43977 -1.49986 0
M  V30 1360 H 120.97 2.96696 -1.30927 0
M  V30 1361 H 120.755 2.49953 -3.02102 0
M  V30 1362 H 122.245 3.3431 -2.50253 0
M  V30 1363 N 122.682 1.50554 0.465978 0
M  V30 1364 C 123.93 1.61479 1.21528 0
M  V30 1365 C 124.251 0.319596 1.92363 0
M  V30 1366 O 123.521 -0.663194 1.84333 0
M  V30 1367 H 122.101 0.595055 0.451573 0
M  V30 1368 H 124.763 1.87355 0.53704 0
M  V30 1369 H 123.859 2.42846 1.96042 0
M  V30 1370 N 124.16 -0.719506 1.40217 0
M  V30 1371 C 125.07 -1.86378 1.42479 0
M  V30 1372 C 126.086 -1.71073 0.317834 0
M  V30 1373 O 127.262 -1.93406 0.561794 0
M  V30 1374 C 124.327 -3.22136 1.28178 0
M  V30 1375 C 123.388 -3.49723 2.48982 0
M  V30 1376 C 122.621 -4.79004 2.35353 0
M  V30 1377 O 122.844 -5.53821 1.36524 0
M  V30 1378 O 121.778 -5.06839 3.2465 0
M  V30 1379 H 125.604 -1.87425 2.38968 0
M  V30 1380 H 123.189 -0.869405 1.21498 0
M  V30 1381 H 125.071 -4.03234 1.22395 0
M  V30 1382 H 123.746 -3.21825 0.347934 0
M  V30 1383 H 122.653 -2.6865 2.60342 0
M  V30 1384 H 123.986 -3.54828 3.41113 0
M  V30 1385 N 125.638 -1.25649 -0.95132 0
M  V30 1386 C 126.884 -1.10757 -1.69884 0
M  V30 1387 C 127.217 0.350061 -1.91019 0
M  V30 1388 O 126.492 1.25783 -1.48354 0
M  V30 1389 C 126.775 -1.86606 -3.07978 0
M  V30 1390 C 126.628 -3.40217 -2.94232 0
M  V30 1391 C 127.947 -1.65182 -4.07925 0
M  V30 1392 H 125.066 -0.40374 -0.616574 0
M  V30 1393 H 127.708 -1.54521 -1.10558 0
M  V30 1394 H 125.858 -1.49409 -3.58621 0
M  V30 1395 H 127.53 -3.87108 -2.50889 0
M  V30 1396 H 125.773 -3.67759 -2.30078 0
M  V30 1397 H 126.444 -3.88505 -3.92133 0
M  V30 1398 H 128.92 -1.9757 -3.66204 0
M  V30 1399 H 127.796 -2.20683 -5.02583 0
M  V30 1400 H 128.057 -0.593933 -4.38092 0
M  V30 1401 N 127.117 1.15442 -1.07289 0
M  V30 1402 C 128.394 1.82306 -0.708792 0
M  V30 1403 C 128.774 1.94991 0.808807 0
M  V30 1404 O 128.122 1.50085 1.72298 0
M  V30 1405 C 128.332 3.18695 -1.42247 0
M  V30 1406 C 129.68 3.94341 -1.57417 0
M  V30 1407 O 130.704 3.28247 -1.38319 0
M  V30 1408 O 129.563 5.12839 -1.88834 0
M  V30 1409 H 126.657 0.787628 -0.252132 0
M  V30 1410 H 129.203 1.22559 -1.17377 0
M  V30 1411 H 127.975 3.04557 -2.45684 0
M  V30 1412 H 127.598 3.86128 -0.948223 0
M  V30 1413 N 128.595 0.856903 1.32268 0
M  V30 1414 C 129.542 0.301172 2.28827 0
M  V30 1415 C 130.512 -0.593104 1.5515 0
M  V30 1416 O 131.697 -0.527537 1.83362 0
M  V30 1417 C 128.837 -0.502523 3.41422 0
M  V30 1418 C 127.95 0.417797 4.29975 0
M  V30 1419 C 127.085 -0.398749 5.29701 0
M  V30 1420 C 126.124 0.518827 6.09897 0
M  V30 1421 N 125.261 -0.260674 7.01616 0
M  V30 1422 H 130.101 1.12983 2.75751 0
M  V30 1423 H 127.638 0.568582 1.35667 0
M  V30 1424 H 129.596 -0.984141 4.05426 0
M  V30 1425 H 128.226 -1.29599 2.95642 0
M  V30 1426 H 127.278 1.01781 3.66531 0
M  V30 1427 H 128.59 1.12191 4.86019 0
M  V30 1428 H 127.744 -0.943435 5.9932 0
M  V30 1429 H 126.483 -1.13622 4.7428 0
M  V30 1430 H 125.488 1.07538 5.39181 0
M  V30 1431 H 126.713 1.25495 6.67404 0
M  V30 1432 H 124.659 -0.981198 6.4862 0
M  V30 1433 H 124.576 0.384364 7.55022 0
M  V30 1434 H 125.844 -0.787014 7.75517 0
M  V30 1435 N 130.073 -1.45103 0.615059 0
M  V30 1436 C 131.35 -1.95549 0.0448276 0
M  V30 1437 C 131.73 -1.55737 -1.4251 0
M  V30 1438 O 131.078 -0.823556 -2.13143 0
M  V30 1439 C 131.288 -3.48098 0.250785 0
M  V30 1440 C 132.636 -4.24384 0.135509 0
M  V30 1441 O 133.66 -3.55738 0.181299 0
M  V30 1442 O 132.519 -5.46493 0.0268878 0
M  V30 1443 H 129.613 -0.8264 -0.0314845 0
M  V30 1444 H 132.159 -1.55232 0.685642 0
M  V30 1445 H 130.931 -3.7007 1.27139 0
M  V30 1446 H 130.554 -3.95323 -0.424937 0
M  V30 1447 N 131.551 -0.354651 -1.53558 0
M  V30 1448 C 132.828 0.294281 -1.93374 0
M  V30 1449 C 133.208 1.67313 -1.28723 0
M  V30 1450 O 132.556 2.24179 -0.442247 0
M  V30 1451 C 132.766 0.355445 -3.47185 0
M  V30 1452 C 134.114 0.601007 -4.20325 0
M  V30 1453 O 135.138 0.437106 -3.53508 0
M  V30 1454 O 133.997 0.919322 -5.38712 0
M  V30 1455 H 131.091 0.174033 -0.808481 0
M  V30 1456 H 133.637 -0.406638 -1.64756 0
M  V30 1457 H 132.409 -0.611729 -3.86489 0
M  V30 1458 H 132.032 1.1027 -3.82003 0
M  V30 1459 N 133.029 1.57378 -0.0835403 0
M  V30 1460 C 133.961 2.10389 0.909338 0
M  V30 1461 C 134.974 1.03858 1.25369 0
M  V30 1462 O 136.163 1.31338 1.20882 0
M  V30 1463 C 133.263 2.55908 2.2218 0
M  V30 1464 C 132.436 3.86145 2.05453 0
M  V30 1465 C 131.495 4.17633 3.20108 0
M  V30 1466 O 130.521 4.87043 2.94581 0
M  V30 1467 N 131.723 3.72113 4.45547 0
M  V30 1468 H 134.488 2.962 0.456657 0
M  V30 1469 H 132.049 1.61579 0.101877 0
M  V30 1470 H 134.041 2.74027 2.97811 0
M  V30 1471 H 132.611 1.75171 2.58909 0
M  V30 1472 H 131.831 3.7729 1.1422 0
M  V30 1473 H 133.119 4.7137 1.91541 0
M  V30 1474 H 132.517 3.16062 4.69171 0
M  V30 1475 H 131.074 3.95409 5.18165 0
M  V30 1476 N 134.507 -0.190092 1.56449 0
M  V30 1477 C 135.784 -0.935886 1.71757 0
M  V30 1478 C 136.164 -2.01173 0.639726 0
M  V30 1479 O 135.512 -2.25827 -0.348502 0
M  V30 1480 C 135.722 -1.51775 3.1427 0
M  V30 1481 C 137.07 -1.99794 3.74656 0
M  V30 1482 O 138.094 -1.61607 3.1743 0
M  V30 1483 O 136.953 -2.70079 4.751 0
M  V30 1484 H 134.047 -0.439229 0.700719 0
M  V30 1485 H 136.593 -0.179395 1.68749 0
M  V30 1486 H 135.365 -0.742505 3.84191 0
M  V30 1487 H 134.988 -2.33894 3.21527 0
M  V30 1488 N 135.985 -1.50799 -0.457987 0
M  V30 1489 C 136.933 -1.71162 -1.575 0
M  V30 1490 C 137.927 -0.577592 -1.59249 0
M  V30 1491 O 139.133 -0.758443 -1.63241 0
M  V30 1492 H 135.508 -0.540468 -0.522875 0
M  V30 1493 H 137.479 -2.64837 -1.37492 0
M  V30 1494 C 136.228 -1.83496 -2.95338 0
M  V30 1495 H 135.551 -2.70153 -2.94716 0
M  V30 1496 H 136.991 -2.01765 -3.72917 0
M  V30 1497 C 135.45 -0.589694 -3.31699 0
M  V30 1498 O 135.98 0.265163 -4.00824 0
M  V30 1499 N 134.186 -0.439845 -2.87252 0
M  V30 1500 H 133.733 -1.13655 -2.31172 0
M  V30 1501 H 133.691 0.392159 -3.11945 0
M  V30 1502 N 137.463 0.71206 -1.40597 0
M  V30 1503 C 138.41 1.82613 -1.41142 0
M  V30 1504 C 139.38 1.63925 -0.267903 0
M  V30 1505 O 140.565 1.85009 -0.466495 0
M  V30 1506 C 137.705 3.20354 -1.28324 0
M  V30 1507 C 136.818 3.50589 -2.52411 0
M  V30 1508 C 135.953 4.77855 -2.32009 0
M  V30 1509 C 134.992 5.01005 -3.51654 0
M  V30 1510 N 134.129 6.19487 -3.30425 0
M  V30 1511 H 138.969 1.81482 -2.36365 0
M  V30 1512 H 136.506 0.886475 -1.17388 0
M  V30 1513 H 138.464 3.99899 -1.18899 0
M  V30 1514 H 137.094 3.20705 -0.367189 0
M  V30 1515 H 136.146 2.65573 -2.72351 0
M  V30 1516 H 137.458 3.63604 -3.41458 0
M  V30 1517 H 136.612 5.65424 -2.19956 0
M  V30 1518 H 135.351 4.67056 -1.40392 0
M  V30 1519 H 134.356 4.1189 -3.64179 0
M  V30 1520 H 135.581 5.13674 -4.44202 0
M  V30 1521 H 133.527 6.09932 -2.41494 0
M  V30 1522 H 133.444 6.33194 -4.13039 0
M  V30 1523 H 134.712 7.09834 -3.22113 0
M  V30 1524 N 138.941 1.26152 0.944643 0
M  V30 1525 C 140.169 1.14259 1.72489 0
M  V30 1526 C 140.584 -0.302555 1.8636 0
M  V30 1527 O 139.941 -1.20741 1.36849 0
M  V30 1528 C 139.992 1.80266 3.13347 0
M  V30 1529 O 139.713 3.19133 3.00143 0
M  V30 1530 C 141.214 1.74283 4.07603 0
M  V30 1531 H 138.434 0.398051 0.540181 0
M  V30 1532 H 140.978 1.66706 1.18446 0
M  V30 1533 H 139.133 1.31766 3.64303 0
M  V30 1534 H 139.547 3.51744 3.89071 0
M  V30 1535 H 141.021 2.25111 5.04013 0
M  V30 1536 H 141.498 0.708631 4.33446 0
M  V30 1537 H 142.104 2.22319 3.62567 0
M  V30 1538 N 140.419 -1.14872 1.07899 0
M  V30 1539 C 141.352 -2.18794 0.64841 0
M  V30 1540 C 142.33 -1.59065 -0.337189 0
M  V30 1541 O 143.514 -1.86936 -0.242284 0
M  V30 1542 C 140.641 -3.38667 -0.0470417 0
M  V30 1543 C 139.687 -4.16942 0.897884 0
M  V30 1544 S 140.52 -4.78615 2.40183 0
M  V30 1545 C 141.676 -6.0185 1.71834 0
M  V30 1546 H 141.909 -2.5498 1.52881 0
M  V30 1547 H 139.442 -1.25922 0.893484 0
M  V30 1548 H 141.4 -4.08113 -0.442027 0
M  V30 1549 H 140.061 -3.00814 -0.903861 0
M  V30 1550 H 139.254 -5.02726 0.358096 0
M  V30 1551 H 138.856 -3.53073 1.23352 0
M  V30 1552 H 141.148 -6.69574 1.03328 0
M  V30 1553 H 142.091 -6.60408 2.55473 0
M  V30 1554 H 142.499 -5.5173 1.19392 0
M  V30 1555 N 141.898 -0.863906 -1.31812 0
M  V30 1556 C 142.845 -0.313303 -2.28664 0
M  V30 1557 C 143.815 0.584868 -1.55462 0
M  V30 1558 O 145 0.517805 -1.83639 0
M  V30 1559 C 142.14 0.48441 -3.41683 0
M  V30 1560 C 141.253 -0.440594 -4.29747 0
M  V30 1561 C 140.388 0.370652 -5.29905 0
M  V30 1562 C 139.427 -0.551164 -6.09613 0
M  V30 1563 N 138.564 0.223462 -7.01744 0
M  V30 1564 H 143.404 -1.14444 -2.75148 0
M  V30 1565 H 140.941 -0.575769 -1.35364 0
M  V30 1566 H 142.899 0.962627 -4.05943 0
M  V30 1567 H 141.529 1.28029 -2.96325 0
M  V30 1568 H 140.581 -1.03724 -3.65986 0
M  V30 1569 H 141.893 -1.14767 -4.85417 0
M  V30 1570 H 141.047 0.911638 -5.99812 0
M  V30 1571 H 139.786 1.11105 -4.74876 0
M  V30 1572 H 138.791 -1.10396 -5.38603 0
M  V30 1573 H 140.016 -1.29032 -6.66729 0
M  V30 1574 H 137.962 0.946787 -6.49132 0
M  V30 1575 H 137.879 -0.424399 -7.54808 0
M  V30 1576 H 139.147 0.745876 -7.75923 0
M  V30 1577 N 143.376 1.44774 -0.622745 0
M  V30 1578 C 144.326 2.2774 0.108889 0
M  V30 1579 C 145.31 1.38189 0.824175 0
M  V30 1580 O 146.502 1.62063 0.711664 0
M  V30 1581 C 143.631 3.25353 1.09546 0
M  V30 1582 C 142.717 4.22392 0.380232 0
M  V30 1583 N 143.108 5.02388 -0.586535 0
M  V30 1584 C 141.406 4.41588 0.625792 0
M  V30 1585 C 142.107 5.72894 -1.00834 0
M  V30 1586 N 141.083 5.42479 -0.348878 0
M  V30 1587 H 144.885 2.86993 -0.63341 0
M  V30 1588 H 142.399 1.5611 -0.447589 0
M  V30 1589 H 144.396 3.83538 1.63414 0
M  V30 1590 H 143.056 2.6766 1.83815 0
M  V30 1591 H 144.067 5.0885 -0.963975 0
M  V30 1592 H 140.744 3.95003 1.352 0
M  V30 1593 H 142.134 6.47158 -1.80656 0
M  V30 1594 N 144.854 0.36279 1.53368 0
M  V30 1595 C 146.103 -0.22888 2.00397 0
M  V30 1596 C 146.416 -1.50096 1.25421 0
M  V30 1597 O 147.622 -2.17106 1.63025 0
M  V30 1598 C 146.078 -0.458417 3.56969 0
M  V30 1599 C 145.686 0.798877 4.4082 0
M  V30 1600 C 147.43 -1.00789 4.12361 0
M  V30 1601 C 145.337 0.539078 5.88938 0
M  V30 1602 H 144.267 -0.089305 0.748693 0
M  V30 1603 H 146.918 0.481099 1.77081 0
M  V30 1604 H 145.3 -1.22959 3.76427 0
M  V30 1605 H 146.474 1.57262 4.33134 0
M  V30 1606 H 144.789 1.27137 3.96516 0
M  V30 1607 H 147.386 -1.21754 5.20653 0
M  V30 1608 H 147.729 -1.9692 3.66781 0
M  V30 1609 H 148.262 -0.296961 3.9669 0
M  V30 1610 H 145.001 1.47064 6.3879 0
M  V30 1611 H 144.521 -0.196222 5.99479 0
M  V30 1612 H 146.2 0.163542 6.46793 0
M  V30 1613 N 146.332 -1.57332 0.0918853 0
M  V30 1614 C 147.743 -1.81496 -0.437739 0
M  V30 1615 C 148.094 -1.00727 -1.6837 0
M  V30 1616 O 147.219 -0.235694 -2.15113 0
M  V30 1617 C 147.814 -3.29197 -0.800939 0
M  V30 1618 C 146.373 -3.54136 -1.27532 0
M  V30 1619 C 145.52 -2.75979 -0.270392 0
M  V30 1620 H 148.471 -1.55494 0.317366 0
M  V30 1621 H 148.492 -3.42344 -1.66074 0
M  V30 1622 H 148.004 -3.87955 0.106078 0
M  V30 1623 H 146.105 -3.00705 -2.20016 0
M  V30 1624 H 146.218 -4.62792 -1.23938 0
M  V30 1625 H 144.582 -2.43349 -0.751872 0
M  V30 1626 H 145.365 -3.37484 0.629248 0
M  V30 1627 N 147.81 0.181792 -1.56548 0
M  V30 1628 C 149.04 0.914618 -1.85252 0
M  V30 1629 C 149.448 1.76791 -0.673914 0
M  V30 1630 O 148.791 1.80009 0.366416 0
M  V30 1631 C 148.853 1.85019 -3.08234 0
M  V30 1632 C 148.517 1.17754 -4.41569 0
M  V30 1633 C 149.514 0.548035 -5.17003 0
M  V30 1634 C 147.199 1.17742 -4.88305 0
M  V30 1635 C 149.193 -0.0726128 -6.37359 0
M  V30 1636 C 146.88 0.552946 -6.08593 0
M  V30 1637 C 147.878 -0.070978 -6.82963 0
M  V30 1638 O 147.566 -0.685635 -8.00971 0
M  V30 1639 H 147.298 0.271695 -0.618998 0
M  V30 1640 H 149.852 0.189944 -2.0452 0
M  V30 1641 H 148.082 2.61491 -2.84885 0
M  V30 1642 H 149.771 2.45195 -3.23472 0
M  V30 1643 H 150.537 0.540174 -4.81982 0
M  V30 1644 H 146.416 1.65246 -4.30366 0
M  V30 1645 H 149.96 -0.560213 -6.95347 0
M  V30 1646 H 145.857 0.558354 -6.43081 0
M  V30 1647 H 146.625 -0.58385 -8.16415 0
M  V30 1648 N 149.288 1.51039 0.449983 0
M  V30 1649 C 150.235 1.71439 1.54523 0
M  V30 1650 C 151.205 0.555871 1.56522 0
M  V30 1651 O 152.39 0.788871 1.73728 0
M  V30 1652 C 149.53 1.83384 2.92343 0
M  V30 1653 C 148.643 3.10873 2.9997 0
M  V30 1654 C 147.778 3.13488 4.28834 0
M  V30 1655 C 146.817 4.35343 4.30282 0
M  V30 1656 N 145.954 4.35579 5.5065 0
M  V30 1657 H 150.794 2.64934 1.36433 0
M  V30 1658 H 148.331 1.31312 0.662982 0
M  V30 1659 H 150.289 1.88291 3.72293 0
M  V30 1660 H 148.919 0.933086 3.0902 0
M  V30 1661 H 147.971 3.15336 2.12761 0
M  V30 1662 H 149.283 4.00814 2.96901 0
M  V30 1663 H 148.437 3.17241 5.17149 0
M  V30 1664 H 147.176 2.21414 4.34543 0
M  V30 1665 H 146.181 4.3178 3.40362 0
M  V30 1666 H 147.406 5.28668 4.26248 0
M  V30 1667 H 145.352 3.46369 5.57104 0
M  V30 1668 H 145.269 5.19313 5.49409 0
M  V30 1669 H 146.537 4.43507 6.41032 0
M  V30 1670 N 150.766 -0.704594 1.40972 0
M  V30 1671 C 152.012 -1.46675 1.40051 0
M  V30 1672 C 152.345 -1.94199 0.00641102 0
M  V30 1673 O 151.62 -1.68916 -0.964235 0
M  V30 1674 C 151.903 -2.68505 2.39952 0
M  V30 1675 C 151.756 -2.26805 3.88432 0
M  V30 1676 C 153.075 -3.70686 2.37233 0
M  V30 1677 H 150.194 -0.532015 0.510028 0
M  V30 1678 H 152.836 -0.803255 1.72185 0
M  V30 1679 H 150.986 -3.25114 2.1268 0
M  V30 1680 H 152.658 -1.75592 4.26574 0
M  V30 1681 H 150.901 -1.58685 4.03734 0
M  V30 1682 H 151.572 -3.14181 4.53866 0
M  V30 1683 H 154.048 -3.23731 2.61415 0
M  V30 1684 H 152.924 -4.53553 3.09162 0
M  V30 1685 H 153.185 -4.19754 1.38777 0
M  V30 1686 N 152.244 -1.26651 -0.937939 0
M  V30 1687 C 153.469 -1.15279 -1.72411 0
M  V30 1688 C 153.894 0.287866 -1.85884 0
M  V30 1689 O 153.252 1.20855 -1.35143 0
M  V30 1690 C 153.3 -1.83028 -3.10698 0
M  V30 1691 O 152.404 -1.12128 -3.96864 0
M  V30 1692 H 151.745 -0.401504 -0.528858 0
M  V30 1693 H 154.275 -1.67531 -1.1745 0
M  V30 1694 H 154.285 -1.89981 -3.6107 0
M  V30 1695 H 152.96 -2.87833 -3.00208 0
M  V30 1696 H 151.537 -1.13173 -3.55312 0
M  V30 1697 N 153.722 1.14298 -1.08507 0
M  V30 1698 C 154.655 2.18447 -0.660004 0
M  V30 1699 C 155.633 1.59242 0.328749 0
M  V30 1700 O 156.817 1.87062 0.232367 0
M  V30 1701 C 153.944 3.38688 0.0290807 0
M  V30 1702 C 152.99 4.1646 -0.919982 0
M  V30 1703 S 153.823 4.77334 -2.42718 0
M  V30 1704 C 154.979 6.00931 -1.75024 0
M  V30 1705 H 155.212 2.54166 -1.54231 0
M  V30 1706 H 152.745 1.25446 -0.900149 0
M  V30 1707 H 154.703 4.08342 0.420378 0
M  V30 1708 H 153.364 3.01289 0.887895 0
M  V30 1709 H 152.557 5.02529 -0.384751 0
M  V30 1710 H 152.159 3.52414 -1.25223 0
M  V30 1711 H 154.451 6.69017 -1.06877 0
M  V30 1712 H 155.394 6.59044 -2.58971 0
M  V30 1713 H 155.802 5.51089 -1.22317 0
M  V30 1714 N 155.201 0.870884 1.31352 0
M  V30 1715 C 156.149 0.316445 2.30437 0
M  V30 1716 C 157.143 -0.568965 1.59559 0
M  V30 1717 O 158.349 -0.454964 1.74155 0
M  V30 1718 H 154.724 0.0836521 0.747333 0
M  V30 1719 H 156.695 1.16606 2.74673 0
M  V30 1720 C 155.444 -0.46635 3.44558 0
M  V30 1721 H 154.767 0.205687 3.99271 0
M  V30 1722 H 156.207 -0.819614 4.16003 0
M  V30 1723 C 154.666 -1.65797 2.9328 0
M  V30 1724 O 155.196 -2.75728 2.92125 0
M  V30 1725 N 153.402 -1.49041 2.4947 0
M  V30 1726 H 152.949 -0.59612 2.50608 0
M  V30 1727 H 152.907 -2.28911 2.15516 0
M  V30 1728 N 156.679 -1.44442 0.630414 0
M  V30 1729 C 157.907 -2.06414 0.141671 0
M  V30 1730 C 158.322 -1.47105 -1.18345 0
M  V30 1731 O 157.679 -0.593662 -1.72574 0
M  V30 1732 C 157.73 -3.61494 0.0199784 0
M  V30 1733 O 157.451 -4.18594 1.29269 0
M  V30 1734 C 158.952 -4.40499 -0.497544 0
M  V30 1735 H 156.172 -0.666292 0.0793452 0
M  V30 1736 H 158.716 -1.85323 0.864614 0
M  V30 1737 H 156.871 -3.8185 -0.653402 0
M  V30 1738 H 157.285 -5.12026 1.13707 0
M  V30 1739 H 158.759 -5.49433 -0.531708 0
M  V30 1740 H 159.236 -4.11895 -1.52445 0
M  V30 1741 H 159.842 -4.25061 0.142562 0
M  V30 1742 N 158.157 -0.370918 -1.53173 0
M  V30 1743 C 159.105 0.488101 -2.27421 0
M  V30 1744 C 160.099 1.07884 -1.30604 0
M  V30 1745 O 161.305 1.02143 -1.48212 0
M  V30 1746 H 157.68 0.176134 -0.731082 0
M  V30 1747 H 159.651 -0.159815 -2.97972 0
M  V30 1748 C 158.4 1.61306 -3.08019 0
M  V30 1749 H 157.723 1.1678 -3.82364 0
M  V30 1750 H 159.163 2.18872 -3.63141 0
M  V30 1751 C 157.622 2.55848 -2.19188 0
M  V30 1752 O 158.152 3.58799 -1.80626 0
M  V30 1753 N 156.358 2.2516 -1.83715 0
M  V30 1754 H 155.905 1.41476 -2.15273 0
M  V30 1755 H 155.863 2.8867 -1.24567 0
M  V30 1756 N 159.635 1.57281 -0.100228 0
M  V30 1757 C 160.598 2.13158 0.842398 0
M  V30 1758 C 161.598 1.06202 1.20738 0
M  V30 1759 O 162.788 1.32066 1.13597 0
M  V30 1760 C 159.92 2.65639 2.13655 0
M  V30 1761 H 161.113 2.97766 0.357114 0
M  V30 1762 H 158.666 1.5559 0.148823 0
M  V30 1763 H 159.401 1.84566 2.66657 0
M  V30 1764 H 159.186 3.43844 1.88451 0
M  V30 1765 H 160.676 3.08846 2.81077 0
M  V30 1766 N 161.113 -0.173488 1.56642 0
M  V30 1767 C 162.361 -0.888706 1.81512 0
M  V30 1768 C 162.682 -1.82875 0.676872 0
M  V30 1769 O 161.952 -1.93536 -0.303414 0
M  V30 1770 H 160.532 -0.331164 0.669582 0
M  V30 1771 H 163.194 -0.173823 1.94123 0
M  V30 1772 H 162.29 -1.46691 2.75478 0
M  V30 1773 N 162.591 -1.51276 -0.441967 0
M  V30 1774 C 163.538 -1.72256 -1.53612 0
M  V30 1775 C 164.508 -0.564164 -1.56225 0
M  V30 1776 O 165.693 -0.798074 -1.73307 0
M  V30 1777 C 162.833 -1.84932 -2.91366 0
M  V30 1778 C 161.946 -3.12459 -2.98317 0
M  V30 1779 C 161.081 -3.15758 -4.27166 0
M  V30 1780 C 160.12 -4.37619 -4.27967 0
M  V30 1781 N 159.257 -4.38493 -5.48333 0
M  V30 1782 H 164.097 -2.65654 -1.35026 0
M  V30 1783 H 161.634 -1.31662 -0.656009 0
M  V30 1784 H 163.592 -1.90263 -3.7129 0
M  V30 1785 H 162.222 -0.949461 -3.08521 0
M  V30 1786 H 161.274 -3.1646 -2.11086 0
M  V30 1787 H 162.586 -4.02382 -2.94771 0
M  V30 1788 H 161.74 -3.19979 -5.15459 0
M  V30 1789 H 160.479 -2.23715 -4.33362 0
M  V30 1790 H 159.484 -4.33579 -3.38067 0
M  V30 1791 H 160.709 -5.30921 -4.23438 0
M  V30 1792 H 158.655 -3.49318 -5.55259 0
M  V30 1793 H 158.572 -5.22219 -5.46647 0
M  V30 1794 H 159.84 -4.469 -6.38671 0
M  V30 1795 N 164.069 0.697108 -1.41344 0
M  V30 1796 C 165.315 1.4593 -1.40827 0
M  V30 1797 C 165.648 1.94193 -0.0167098 0
M  V30 1798 O 164.923 1.69425 0.955263 0
M  V30 1799 C 165.206 2.67229 -2.41373 0
M  V30 1800 C 165.059 2.24741 -3.8963 0
M  V30 1801 C 166.378 3.69423 -2.39196 0
M  V30 1802 H 163.497 0.529303 -0.512842 0
M  V30 1803 H 166.139 0.794112 -1.72609 0
M  V30 1804 H 164.289 3.23982 -2.14401 0
M  V30 1805 H 165.961 1.73327 -4.27499 0
M  V30 1806 H 164.204 1.56542 -4.0457 0
M  V30 1807 H 164.875 3.1177 -4.55525 0
M  V30 1808 H 167.351 3.2234 -2.63128 0
M  V30 1809 H 166.227 4.51907 -3.11563 0
M  V30 1810 H 166.488 4.19012 -1.41001 0
M  V30 1811 N 165.547 1.27147 0.931209 0
M  V30 1812 C 166.772 1.16191 1.71797 0
M  V30 1813 C 167.197 -0.278004 1.86034 0
M  V30 1814 O 166.555 -1.20137 1.35782 0
M  V30 1815 C 166.603 1.84673 3.09723 0
M  V30 1816 O 165.707 1.14231 3.96264 0
M  V30 1817 H 165.048 0.404303 0.526721 0
M  V30 1818 H 167.578 1.68152 1.1656 0
M  V30 1819 H 167.588 1.91893 3.60057 0
M  V30 1820 H 166.263 2.89421 2.98677 0
M  V30 1821 H 164.84 1.15056 3.54706 0
M  V30 1822 N 167.025 -1.13721 1.09112 0
M  V30 1823 C 168.272 -1.84924 0.825192 0
M  V30 1824 C 168.6 -1.83347 -0.649151 0
M  V30 1825 O 167.855 -1.26449 -1.49362 0
M  V30 1826 C 168.154 -3.32861 1.30146 0
M  V30 1827 C 167.82 -3.54621 2.78486 0
M  V30 1828 C 166.482 -3.60268 3.18999 0
M  V30 1829 C 168.834 -3.62855 3.74146 0
M  V30 1830 C 166.162 -3.71679 4.53951 0
M  V30 1831 C 168.514 -3.75793 5.08883 0
M  V30 1832 C 167.178 -3.79692 5.4899 0
M  V30 1833 H 166.448 -0.676684 0.301959 0
M  V30 1834 H 169.095 -1.3428 1.36533 0
M  V30 1835 H 167.4 -3.85835 0.681064 0
M  V30 1836 H 169.097 -3.86395 1.07236 0
M  V30 1837 H 165.687 -3.50879 2.46134 0
M  V30 1838 H 169.871 -3.57775 3.43963 0
M  V30 1839 H 165.127 -3.72963 4.84467 0
M  V30 1840 H 169.301 -3.81107 5.82864 0
M  V30 1841 H 166.928 -3.88287 6.53558 0
M  V30 1842 N 168.503 -0.877838 -1.30888 0
M  V30 1843 C 169.45 -0.337538 -2.28318 0
M  V30 1844 C 170.42 0.568346 -1.56074 0
M  V30 1845 O 171.605 0.498298 -1.84178 0
M  V30 1846 C 168.745 0.448142 -3.42178 0
M  V30 1847 C 167.858 -0.48615 -4.29256 0
M  V30 1848 C 166.993 0.314427 -5.30269 0
M  V30 1849 C 166.032 -0.615791 -6.08995 0
M  V30 1850 N 165.169 0.14902 -7.01942 0
M  V30 1851 H 170.009 -1.17356 -2.73919 0
M  V30 1852 H 167.546 -0.590094 -1.34745 0
M  V30 1853 H 169.504 0.919517 -4.06941 0
M  V30 1854 H 168.134 1.24879 -2.97666 0
M  V30 1855 H 167.186 -1.076 -3.64865 0
M  V30 1856 H 168.498 -1.19909 -4.84173 0
M  V30 1857 H 167.652 0.847969 -6.00745 0
M  V30 1858 H 166.391 1.06062 -4.76027 0
M  V30 1859 H 165.396 -1.16102 -5.37401 0
M  V30 1860 H 166.621 -1.36097 -6.65323 0
M  V30 1861 H 164.567 0.877884 -6.50099 0
M  V30 1862 H 164.484 -0.504433 -7.54315 0
M  V30 1863 H 165.752 0.663537 -7.76671 0
M  V30 1864 N 169.982 1.44106 -0.638065 0
M  V30 1865 C 170.93 2.3248 0.0748149 0
M  V30 1866 C 171.924 1.47746 0.828702 0
M  V30 1867 O 173.13 1.64049 0.740816 0
M  V30 1868 H 169.505 0.750771 0.0429686 0
M  V30 1869 H 171.476 2.90348 -0.688504 0
M  V30 1870 C 170.225 3.31843 1.03805 0
M  V30 1871 H 169.548 3.97059 0.467375 0
M  V30 1872 H 170.988 3.96345 1.50622 0
M  V30 1873 C 169.447 2.61291 2.1267 0
M  V30 1874 O 169.977 2.41702 3.20847 0
M  V30 1875 N 168.183 2.20915 1.88798 0
M  V30 1876 H 167.73 2.37047 1.00829 0
M  V30 1877 H 167.688 1.74038 2.61836 0
M  V30 1878 N 171.46 0.379036 1.52974 0
M  V30 1879 C 172.688 -0.20679 2.05864 0
M  V30 1880 C 173.103 -1.41356 1.25155 0
M  V30 1881 O 172.46 -1.8009 0.295588 0
M  V30 1882 C 172.511 -0.587045 3.56702 0
M  V30 1883 O 172.232 0.571776 4.34353 0
M  V30 1884 C 173.733 -1.22983 4.25899 0
M  V30 1885 H 170.953 -0.0336123 0.670158 0
M  V30 1886 H 173.497 0.541298 1.97206 0
M  V30 1887 H 171.652 -1.28504 3.65466 0
M  V30 1888 H 172.066 0.261544 5.23847 0
M  V30 1889 H 173.54 -1.44635 5.32715 0
M  V30 1890 H 174.017 -2.19416 3.80465 0
M  V30 1891 H 174.623 -0.572892 4.21424 0
M  V30 1892 N 172.938 -1.57226 0.108567 0
M  V30 1893 C 173.901 -2.13602 -0.831082 0
M  V30 1894 C 174.901 -1.06841 -1.20173 0
M  V30 1895 O 176.091 -1.32666 -1.12895 0
M  V30 1896 C 173.223 -2.66769 -2.12243 0
M  V30 1897 H 174.416 -2.97951 -0.341317 0
M  V30 1898 H 171.969 -1.55667 -0.14057 0
M  V30 1899 H 172.704 -1.85977 -2.65675 0
M  V30 1900 H 172.489 -3.44839 -1.86625 0
M  V30 1901 H 173.979 -3.10332 -2.79435 0
M  V30 1902 N 174.416 0.165178 -1.56732 0
M  V30 1903 C 175.662 0.882112 -1.82611 0
M  V30 1904 C 175.995 1.81628 -0.687378 0
M  V30 1905 O 175.27 1.92009 0.310267 0
M  V30 1906 C 175.553 1.67245 -3.18906 0
M  V30 1907 C 175.406 0.760987 -4.43316 0
M  V30 1908 C 176.725 2.63884 -3.52212 0
M  V30 1909 H 173.844 0.319242 -0.664269 0
M  V30 1910 H 176.486 0.148052 -1.89422 0
M  V30 1911 H 174.636 2.29824 -3.1323 0
M  V30 1912 H 176.308 0.147596 -4.61064 0
M  V30 1913 H 174.551 0.0694102 -4.33744 0
M  V30 1914 H 175.222 1.34962 -5.35247 0
M  V30 1915 H 177.698 2.11429 -3.58381 0
M  V30 1916 H 176.574 3.16245 -4.48643 0
M  V30 1917 H 176.835 3.44377 -2.77231 0
M  V30 1918 N 175.894 1.51508 0.433938 0
M  V30 1919 C 176.824 1.76016 1.53429 0
M  V30 1920 C 177.805 0.610112 1.58782 0
M  V30 1921 O 178.99 0.853177 1.74455 0
M  V30 1922 C 176.12 1.88831 2.9148 0
M  V30 1923 C 175.074 3.04288 3.00987 0
M  V30 1924 C 174.4 3.0229 4.4105 0
M  V30 1925 C 175.7 4.44193 2.74754 0
M  V30 1926 H 177.394 2.68152 1.33171 0
M  V30 1927 H 174.94 1.29035 0.639214 0
M  V30 1928 H 176.893 2.04559 3.6842 0
M  V30 1929 H 175.617 0.933455 3.12976 0
M  V30 1930 H 174.276 2.8827 2.26486 0
M  V30 1931 H 173.924 2.04576 4.59519 0
M  V30 1932 H 173.624 3.79822 4.4834 0
M  V30 1933 H 175.148 3.20116 5.1996 0
M  V30 1934 H 176.562 4.60544 3.41426 0
M  V30 1935 H 174.959 5.23457 2.9345 0
M  V30 1936 H 176.029 4.53996 1.70339 0
M  V30 1937 N 177.372 -0.689602 1.41712 0
M  V30 1938 C 178.319 -1.80345 1.44029 0
M  V30 1939 C 179.289 -1.63478 0.293948 0
M  V30 1940 O 180.474 -1.84244 0.495869 0
M  V30 1941 C 177.614 -3.18272 1.33405 0
M  V30 1942 C 176.727 -3.46529 2.57956 0
M  V30 1943 C 175.862 -4.74103 2.39582 0
M  V30 1944 C 174.901 -4.95347 3.5958 0
M  V30 1945 N 174.038 -6.14151 3.40239 0
M  V30 1946 H 178.878 -1.77698 2.39222 0
M  V30 1947 H 176.415 -0.867688 1.18784 0
M  V30 1948 H 178.373 -3.97956 1.25246 0
M  V30 1949 H 177.003 -3.2008 0.418164 0
M  V30 1950 H 176.055 -2.61207 2.76542 0
M  V30 1951 H 177.367 -3.58126 3.47199 0
M  V30 1952 H 176.521 -5.61853 2.28924 0
M  V30 1953 H 175.26 -4.64763 1.47805 0
M  V30 1954 H 174.265 -4.06044 3.70686 0
M  V30 1955 H 175.49 -5.06542 4.52318 0
M  V30 1956 H 173.436 -6.06013 2.51167 0
M  V30 1957 H 173.353 -6.26543 4.23061 0
M  V30 1958 H 174.621 -7.04619 3.33365 0
M  V30 1959 N 178.85 -1.27639 -0.924453 0
M  V30 1960 C 179.78 -1.13166 -2.04244 0
M  V30 1961 C 180.761 -0.032256 -1.70069 0
M  V30 1962 O 181.946 -0.207328 -1.9309 0
M  V30 1963 C 179.076 -0.781496 -3.38393 0
M  V30 1964 C 178.03 -1.83449 -3.86692 0
M  V30 1965 C 177.356 -1.33822 -5.17683 0
M  V30 1966 C 178.656 -3.23917 -4.09726 0
M  V30 1967 H 180.35 -2.06689 -2.1661 0
M  V30 1968 H 177.896 -0.995136 -1.04082 0
M  V30 1969 H 179.849 -0.667057 -4.16087 0
M  V30 1970 H 178.573 0.189439 -3.2605 0
M  V30 1971 H 177.232 -1.93789 -3.11193 0
M  V30 1972 H 176.88 -0.35665 -5.01734 0
M  V30 1973 H 176.58 -2.04224 -5.50968 0
M  V30 1974 H 178.104 -1.23679 -5.97943 0
M  V30 1975 H 179.518 -3.16559 -4.77978 0
M  V30 1976 H 177.915 -3.92059 -4.54324 0
M  V30 1977 H 178.985 -3.68729 -3.14908 0
M  V30 1978 N 180.328 1.1314 -1.09713 0
M  V30 1979 C 181.238 2.22242 -0.751367 0
M  V30 1980 C 182.254 1.72224 0.247938 0
M  V30 1981 O 183.43 2.01205 0.0885463 0
M  V30 1982 C 180.495 3.46231 -0.180274 0
M  V30 1983 C 179.556 4.11125 -1.2359 0
M  V30 1984 C 178.789 5.29195 -0.691966 0
M  V30 1985 O 179.012 5.68342 0.48414 0
M  V30 1986 O 177.946 5.84214 -1.44838 0
M  V30 1987 H 181.772 2.54197 -1.66186 0
M  V30 1988 H 179.357 1.21331 -0.871735 0
M  V30 1989 H 181.239 4.21185 0.134739 0
M  V30 1990 H 179.914 3.1597 0.703185 0
M  V30 1991 H 178.821 3.37985 -1.60366 0
M  V30 1992 H 180.154 4.45524 -2.09211 0
M  V30 1993 N 181.806 0.884767 1.30421 0
M  V30 1994 C 182.753 0.349642 2.28136 0
M  V30 1995 C 183.723 -0.560061 1.56373 0
M  V30 1996 O 184.908 -0.488524 1.8444 0
M  V30 1997 C 182.048 -0.42999 3.42411 0
M  V30 1998 C 181.161 0.508907 4.28992 0
M  V30 1999 C 180.296 -0.286301 5.30428 0
M  V30 2000 C 179.335 0.648079 6.08659 0
M  V30 2001 N 178.472 -0.111792 7.02011 0
M  V30 2002 H 183.312 1.18807 2.73293 0
M  V30 2003 H 180.849 0.597231 1.3443 0
M  V30 2004 H 182.807 -0.897923 4.07423 0
M  V30 2005 H 181.437 -1.23299 2.98324 0
M  V30 2006 H 180.489 1.09533 3.64289 0
M  V30 2007 H 181.801 1.22475 4.8353 0
M  V30 2008 H 180.955 -0.816098 6.01186 0
M  V30 2009 H 179.694 -1.03536 4.76583 0
M  V30 2010 H 178.699 1.18951 5.36778 0
M  V30 2011 H 179.924 1.39623 6.64592 0
M  V30 2012 H 177.87 -0.843395 6.50556 0
M  V30 2013 H 177.787 0.544429 7.54037 0
M  V30 2014 H 179.055 -0.622339 7.77012 0
M  V30 2015 N 183.284 -1.43765 0.645699 0
M  V30 2016 C 184.512 -2.06253 0.163556 0
M  V30 2017 C 184.927 -1.48352 -1.16778 0
M  V30 2018 O 184.284 -0.611932 -1.71935 0
M  V30 2019 C 184.335 -3.61453 0.0583186 0
M  V30 2020 O 184.056 -4.172 1.33702 0
M  V30 2021 C 185.557 -4.41002 -0.450795 0
M  V30 2022 H 182.777 -0.665413 0.0864077 0
M  V30 2023 H 185.321 -1.84396 0.884222 0
M  V30 2024 H 183.476 -3.82522 -0.612865 0
M  V30 2025 H 183.89 -5.10791 1.19131 0
M  V30 2026 H 185.364 -5.49966 -0.473403 0
M  V30 2027 H 185.841 -4.13488 -1.48068 0
M  V30 2028 H 186.447 -4.24886 0.187637 0
M  V30 2029 N 184.763 -0.387143 -1.52771 0
M  V30 2030 C 186.04 0.253197 -1.93954 0
M  V30 2031 C 186.42 1.64545 -1.32243 0
M  V30 2032 O 185.768 2.23191 -0.489699 0
M  V30 2033 C 185.978 0.281722 -3.47861 0
M  V30 2034 C 187.326 0.511715 -4.21505 0
M  V30 2035 O 188.35 0.362023 -3.54356 0
M  V30 2036 O 187.209 0.804847 -5.40541 0
M  V30 2037 H 184.303 0.156845 -0.811991 0
M  V30 2038 H 186.849 -0.441494 -1.63856 0
M  V30 2039 H 185.621 -0.693571 -3.85104 0
M  V30 2040 H 185.244 1.02142 -3.84256 0
M  V30 2041 N 186.241 1.57166 -0.116904 0
M  V30 2042 C 187.518 1.86645 0.585049 0
M  V30 2043 C 187.898 1.0177 1.84949 0
M  V30 2044 O 187.246 0.0960379 2.28298 0
M  V30 2045 C 187.456 3.37736 0.879507 0
M  V30 2046 C 188.804 4.06289 1.23348 0
M  V30 2047 O 189.828 3.42743 0.969836 0
M  V30 2048 O 188.687 5.18455 1.7282 0
M  V30 2049 H 185.781 0.772593 0.295007 0
M  V30 2050 H 188.327 1.69025 -0.151249 0
M  V30 2051 H 187.099 3.91296 -0.0166136 0
M  V30 2052 H 186.722 3.6078 1.67103 0
M  V30 2053 N 187.719 -0.156864 1.56817 0
M  V30 2054 C 188.629 -1.2136 2.00771 0
M  V30 2055 C 189.645 -1.47598 0.921459 0
M  V30 2056 O 190.821 -1.59462 1.2302 0
M  V30 2057 C 187.886 -2.52943 2.37109 0
M  V30 2058 C 186.947 -2.34439 3.59634 0
M  V30 2059 C 186.18 -3.59748 3.94229 0
M  V30 2060 O 186.403 -4.65526 3.29609 0
M  V30 2061 O 185.337 -3.52998 4.8752 0
M  V30 2062 H 189.163 -0.870468 2.90958 0
M  V30 2063 H 186.748 -0.36484 1.44877 0
M  V30 2064 H 188.63 -3.30538 2.61386 0
M  V30 2065 H 187.305 -2.86806 1.5008 0
M  V30 2066 H 186.212 -1.54828 3.40557 0
M  V30 2067 H 187.545 -2.05496 4.4725 0
M  V30 2068 N 189.197 -1.51736 -0.425897 0
M  V30 2069 C 190.107 -1.76738 -1.54275 0
M  V30 2070 C 191.123 -0.65211 -1.61318 0
M  V30 2071 O 192.299 -0.935654 -1.78346 0
M  V30 2072 C 189.364 -1.89755 -2.90162 0
M  V30 2073 C 188.425 -3.13633 -2.93143 0
M  V30 2074 C 187.658 -3.2602 -4.22548 0
M  V30 2075 O 187.881 -2.44067 -5.15546 0
M  V30 2076 O 186.815 -4.19071 -4.32046 0
M  V30 2077 H 190.641 -2.71502 -1.36089 0
M  V30 2078 H 188.226 -1.36376 -0.610069 0
M  V30 2079 H 190.108 -2.00236 -3.70788 0
M  V30 2080 H 188.783 -0.981785 -3.08452 0
M  V30 2081 H 187.69 -3.08622 -2.11431 0
M  V30 2082 H 189.023 -4.04936 -2.798 0
M  V30 2083 N 190.675 0.682077 -1.42076 0
M  V30 2084 C 191.9 1.47558 -1.45744 0
M  V30 2085 C 192.325 1.87977 -0.0680981 0
M  V30 2086 O 191.683 1.55522 0.9318 0
M  V30 2087 C 191.731 2.70575 -2.38373 0
M  V30 2088 O 190.835 3.68573 -1.85007 0
M  V30 2089 H 190.176 0.443585 -0.494093 0
M  V30 2090 H 192.706 0.837238 -1.86686 0
M  V30 2091 H 192.716 3.18729 -2.54707 0
M  V30 2092 H 191.391 2.40495 -3.39315 0
M  V30 2093 H 189.968 3.2757 -1.78192 0
M  V30 2094 N 192.153 1.28127 0.917671 0
M  V30 2095 C 193.399 1.16232 1.66918 0
M  V30 2096 C 193.754 -0.28701 1.90247 0
M  V30 2097 O 193.047 -1.20586 1.48895 0
M  V30 2098 C 193.241 1.89018 3.03327 0
M  V30 2099 C 193.07 3.4088 2.9331 0
M  V30 2100 C 191.84 4.10214 2.95047 0
M  V30 2101 C 194.038 4.36689 2.71675 0
M  V30 2102 N 192.02 5.48571 2.75577 0
M  V30 2103 C 193.391 5.62382 2.6101 0
M  V30 2104 C 195.446 4.26661 2.56641 0
M  V30 2105 C 194.149 6.79189 2.36843 0
M  V30 2106 C 196.175 5.432 2.33853 0
M  V30 2107 C 195.537 6.67855 2.23939 0
M  V30 2108 H 191.636 0.48024 0.617166 0
M  V30 2109 H 194.22 1.61727 1.08409 0
M  V30 2110 H 192.391 1.45963 3.59929 0
M  V30 2111 H 194.123 1.69541 3.67475 0
M  V30 2112 H 190.878 3.61762 3.05655 0
M  V30 2113 H 191.302 6.21287 2.68945 0
M  V30 2114 H 195.944 3.30998 2.63059 0
M  V30 2115 H 193.662 7.74926 2.29164 0
M  V30 2116 H 197.248 5.37328 2.23091 0
M  V30 2117 H 196.128 7.56511 2.06546 0
M  V30 2118 N 193.631 -1.12557 1.10312 0
M  V30 2119 C 194.579 -2.20325 0.745629 0
M  V30 2120 C 195.573 -1.67429 -0.25763 0
M  V30 2121 O 196.779 -1.79612 -0.118132 0
M  V30 2122 H 193.154 -0.718118 0.223182 0
M  V30 2123 H 195.125 -2.47733 1.66346 0
M  V30 2124 C 193.874 -3.47168 0.192262 0
M  V30 2125 H 193.197 -3.88215 0.955475 0
M  V30 2126 H 194.637 -4.23995 -0.0198274 0
M  V30 2127 C 193.096 -3.19298 -1.07472 0
M  V30 2128 O 193.626 -3.3891 -2.15645 0
M  V30 2129 N 191.832 -2.73113 -0.992847 0
M  V30 2130 H 191.379 -2.57354 -0.112474 0
M  V30 2131 H 191.337 -2.54842 -1.84127 0
M  V30 2132 N 195.109 -0.891671 -1.2995 0
M  V30 2133 C 196.358 -0.509521 -1.95158 0
M  V30 2134 C 196.671 0.947388 -1.71125 0
M  V30 2135 O 197.877 1.43669 -2.30372 0
M  V30 2136 C 196.333 -0.860315 -3.49466 0
M  V30 2137 C 195.941 -2.33545 -3.8231 0
M  V30 2138 C 197.685 -0.547687 -4.20952 0
M  V30 2139 C 195.592 -2.62752 -5.29826 0
M  V30 2140 H 194.522 -0.18682 -0.730489 0
M  V30 2141 H 197.173 -1.08756 -1.47798 0
M  V30 2142 H 195.555 -0.211285 -3.95436 0
M  V30 2143 H 196.729 -3.02936 -3.47227 0
M  V30 2144 H 195.044 -2.61629 -3.23944 0
M  V30 2145 H 197.641 -0.742854 -5.29515 0
M  V30 2146 H 197.984 0.51332 -4.13123 0
M  V30 2147 H 198.517 -1.1542 -3.80688 0
M  V30 2148 H 195.256 -3.6762 -5.42712 0
M  V30 2149 H 194.776 -1.97977 -5.66185 0
M  V30 2150 H 196.455 -2.48601 -5.97333 0
M  V30 2151 N 196.587 1.43421 -0.653314 0
M  V30 2152 C 197.864 1.95361 -0.0966581 0
M  V30 2153 C 198.244 1.59461 1.38331 0
M  V30 2154 O 197.592 0.879777 2.10884 0
M  V30 2155 C 197.802 3.47311 -0.342988 0
M  V30 2156 C 199.15 4.23875 -0.24798 0
M  V30 2157 O 200.174 3.55133 -0.275553 0
M  V30 2158 O 199.033 5.4623 -0.171771 0
M  V30 2159 H 196.127 0.826945 0.00956291 0
M  V30 2160 H 198.673 1.5336 -0.726558 0
M  V30 2161 H 197.445 3.66569 -1.36906 0
M  V30 2162 H 197.068 3.9631 0.319975 0
M  V30 2163 N 198.065 0.39524 1.52563 0
M  V30 2164 C 199.311 -0.177763 2.02622 0
M  V30 2165 C 199.666 -1.43974 1.27629 0
M  V30 2166 O 198.959 -1.87995 0.36992 0
M  V30 2167 C 199.153 -0.493444 3.53977 0
M  V30 2168 C 198.982 0.736392 4.4363 0
M  V30 2169 C 197.752 1.25744 4.89404 0
M  V30 2170 C 199.95 1.61046 4.88435 0
M  V30 2171 N 197.932 2.44421 5.63145 0
M  V30 2172 C 199.303 2.64359 5.60816 0
M  V30 2173 C 201.358 1.62985 4.70468 0
M  V30 2174 C 200.061 3.69505 6.17137 0
M  V30 2175 C 202.087 2.67042 5.27677 0
M  V30 2176 C 201.449 3.69077 5.99968 0
M  V30 2177 H 197.548 -0.0269794 0.781534 0
M  V30 2178 H 200.132 0.546466 1.86874 0
M  V30 2179 H 198.303 -1.18672 3.69826 0
M  V30 2180 H 200.035 -1.05412 3.90731 0
M  V30 2181 H 196.79 0.817546 4.6649 0
M  V30 2182 H 197.214 3.04485 6.04663 0
M  V30 2183 H 201.856 0.854442 4.14076 0
M  V30 2184 H 199.574 4.4791 6.72608 0
M  V30 2185 H 203.16 2.69433 5.15652 0
M  V30 2186 H 202.04 4.48273 6.43444 0
M  V30 2187 N 199.544 -1.57102 0.125237 0
M  V30 2188 C 200.821 -1.86953 -0.575142 0
M  V30 2189 C 201.201 -1.02749 -1.84407 0
M  V30 2190 O 200.549 -0.108144 -2.28244 0
M  V30 2191 C 200.759 -3.38198 -0.861583 0
M  V30 2192 C 202.107 -4.06937 -1.21192 0
M  V30 2193 O 203.131 -3.43252 -0.951645 0
M  V30 2194 O 201.99 -5.19364 -1.70068 0
M  V30 2195 H 199.084 -0.774147 -0.290906 0
M  V30 2196 H 201.63 -1.68942 0.160211 0
M  V30 2197 H 200.402 -3.91282 0.0373647 0
M  V30 2198 H 200.025 -3.61661 -1.65188 0
M  V30 2199 N 201.022 0.148545 -1.56898 0
M  V30 2200 C 202.433 0.708766 -1.72723 0
M  V30 2201 C 202.784 1.81734 -0.739395 0
M  V30 2202 O 201.909 2.16194 0.0943169 0
M  V30 2203 C 202.504 1.29245 -3.13179 0
M  V30 2204 C 201.063 1.79925 -3.30611 0
M  V30 2205 C 200.21 0.687111 -2.68652 0
M  V30 2206 H 203.161 -0.0771063 -1.58513 0
M  V30 2207 H 203.182 2.16224 -3.13093 0
M  V30 2208 H 202.694 0.485382 -3.85053 0
M  V30 2209 H 200.795 2.63203 -2.63732 0
M  V30 2210 H 200.908 1.92903 -4.38549 0
M  V30 2211 H 199.272 1.11335 -2.29078 0
M  V30 2212 H 200.055 -0.108483 -3.43129 0
M  V30 2213 N 202.5 1.5196 0.417844 0
M  V30 2214 C 203.725 1.69717 1.1921 0
M  V30 2215 C 204.15 0.402148 1.83751 0
M  V30 2216 O 203.508 -0.639593 1.69643 0
M  V30 2217 C 203.556 2.82794 2.2374 0
M  V30 2218 O 202.66 2.47756 3.29683 0
M  V30 2219 H 202.001 0.565263 0.348387 0
M  V30 2220 H 204.531 1.98621 0.490985 0
M  V30 2221 H 204.541 3.07452 2.68212 0
M  V30 2222 H 203.216 3.76756 1.76146 0
M  V30 2223 H 201.793 2.33739 2.90552 0
M  V30 2224 N 203.978 -0.674533 1.42435 0
M  V30 2225 C 205.225 -1.43459 1.42919 0
M  V30 2226 C 205.553 -1.94446 0.0457312 0
M  V30 2227 O 204.808 -1.7132 -0.94593 0
M  V30 2228 C 205.107 -2.64767 2.40069 0
M  V30 2229 C 204.773 -2.3232 3.86443 0
M  V30 2230 C 203.435 -2.23182 4.26314 0
M  V30 2231 C 205.787 -2.05977 4.78773 0
M  V30 2232 C 203.115 -1.85827 5.56494 0
M  V30 2233 C 205.467 -1.70125 6.09295 0
M  V30 2234 C 204.131 -1.59498 6.48164 0
M  V30 2235 H 203.401 -0.524952 0.522978 0
M  V30 2236 H 206.048 -0.769097 1.75377 0
M  V30 2237 H 204.353 -3.36349 2.00939 0
M  V30 2238 H 206.05 -3.22949 2.37707 0
M  V30 2239 H 202.64 -2.40334 3.54877 0
M  V30 2240 H 206.824 -2.11969 4.48757 0
M  V30 2241 H 202.08 -1.76168 5.8547 0
M  V30 2242 H 206.254 -1.48767 6.80324 0
M  V30 2243 H 203.881 -1.30322 7.48946 0
M  V30 2244 N 205.456 -1.28612 -0.910864 0
M  V30 2245 C 206.705 -1.15311 -1.65488 0
M  V30 2246 C 207.018 0.296999 -1.93332 0
M  V30 2247 O 208.224 0.551168 -2.65847 0
M  V30 2248 C 206.68 -2.01599 -2.98137 0
M  V30 2249 C 206.288 -3.51367 -2.7793 0
M  V30 2250 C 208.032 -1.96993 -3.76024 0
M  V30 2251 C 205.939 -4.29797 -4.06237 0
M  V30 2252 H 204.869 -0.42796 -0.620779 0
M  V30 2253 H 207.52 -1.53166 -1.01057 0
M  V30 2254 H 205.902 -1.56603 -3.63719 0
M  V30 2255 H 207.076 -4.0434 -2.21011 0
M  V30 2256 H 205.391 -3.57529 -2.13452 0
M  V30 2257 H 207.988 -2.52856 -4.71135 0
M  V30 2258 H 208.331 -0.94733 -4.05378 0
M  V30 2259 H 208.864 -2.39973 -3.17266 0
M  V30 2260 H 205.603 -5.32648 -3.82055 0
M  V30 2261 H 205.123 -3.81596 -4.62757 0
M  V30 2262 H 206.802 -4.39869 -4.74473 0
M  V30 2263 N 206.934 1.1197 -1.10907 0
M  V30 2264 C 208.181 1.83588 -0.854507 0
M  V30 2265 C 208.509 1.84357 0.6199 0
M  V30 2266 O 207.764 1.28809 1.47332 0
M  V30 2267 C 208.063 3.30749 -1.35425 0
M  V30 2268 C 207.729 3.50146 -2.84093 0
M  V30 2269 C 206.391 3.55148 -3.2469 0
M  V30 2270 C 208.743 3.56857 -3.79872 0
M  V30 2271 C 206.071 3.6441 -4.59806 0
M  V30 2272 C 208.423 3.6765 -5.14797 0
M  V30 2273 C 207.087 3.7091 -5.54961 0
M  V30 2274 H 206.357 0.671795 -0.312686 0
M  V30 2275 H 209.004 1.32091 -1.38652 0
M  V30 2276 H 207.309 3.84703 -0.742361 0
M  V30 2277 H 209.006 3.8464 -1.1337 0
M  V30 2278 H 205.596 3.46919 -2.51685 0
M  V30 2279 H 209.78 3.52258 -3.49611 0
M  V30 2280 H 205.036 3.65208 -4.9034 0
M  V30 2281 H 209.21 3.71786 -5.88853 0
M  V30 2282 H 206.837 3.7784 -6.59652 0
M  V30 2283 N 208.412 0.89855 1.29475 0
M  V30 2284 C 209.359 0.373819 2.27753 0
M  V30 2285 C 210.329 -0.543444 1.56958 0
M  V30 2286 O 211.514 -0.468934 1.84948 0
M  V30 2287 C 208.654 -0.393648 3.42848 0
M  V30 2288 C 207.767 0.554379 4.28428 0
M  V30 2289 C 206.902 -0.230026 5.30702 0
M  V30 2290 C 205.941 0.712599 6.07938 0
M  V30 2291 N 205.078 -0.0373283 7.0209 0
M  V30 2292 H 209.918 1.21699 2.72017 0
M  V30 2293 H 207.455 0.611456 1.33789 0
M  V30 2294 H 209.413 -0.85466 4.08352 0
M  V30 2295 H 208.043 -1.20128 2.99615 0
M  V30 2296 H 207.095 1.13391 3.63107 0
M  V30 2297 H 208.407 1.27597 4.82204 0
M  V30 2298 H 207.561 -0.752288 6.02018 0
M  V30 2299 H 206.3 -0.984758 4.77654 0
M  V30 2300 H 205.305 1.24637 5.35486 0
M  V30 2301 H 206.53 1.46664 6.63074 0
M  V30 2302 H 204.476 -0.774348 6.51414 0
M  V30 2303 H 204.393 0.624374 7.53417 0
M  V30 2304 H 205.661 -0.539891 7.77628 0
M  V30 2305 N 209.89 -1.43072 0.660911 0
M  V30 2306 C 210.822 -2.29108 -0.0647641 0
M  V30 2307 C 211.835 -1.42928 -0.779448 0
M  V30 2308 O 213.024 -1.66788 -0.635921 0
M  V30 2309 C 210.124 -3.20032 -1.11503 0
M  V30 2310 C 209.297 -4.34792 -0.476955 0
M  V30 2311 C 208.356 -5.06534 -1.42513 0
M  V30 2312 O 207.382 -5.61538 -0.930771 0
M  V30 2313 N 208.584 -5.1075 -2.75889 0
M  V30 2314 H 211.349 -2.92029 0.673731 0
M  V30 2315 H 208.91 -1.53846 0.50427 0
M  V30 2316 H 210.902 -3.64892 -1.75032 0
M  V30 2317 H 209.472 -2.58658 -1.75541 0
M  V30 2318 H 208.692 -3.92752 0.337572 0
M  V30 2319 H 209.98 -5.0879 -0.0318525 0
M  V30 2320 H 209.378 -4.67447 -3.18606 0
M  V30 2321 H 207.935 -5.59302 -3.347 0
M  V30 2322 N 211.368 -0.403325 -1.52352 0
M  V30 2323 C 212.298 0.416205 -2.29761 0
M  V30 2324 C 213.279 1.05123 -1.33728 0
M  V30 2325 O 214.464 1.06134 -1.62632 0
M  V30 2326 C 211.594 1.53624 -3.11475 0
M  V30 2327 C 210.548 1.02653 -4.15507 0
M  V30 2328 C 209.874 2.23971 -4.85532 0
M  V30 2329 C 211.174 0.08463 -5.22231 0
M  V30 2330 H 212.868 -0.229701 -2.98518 0
M  V30 2331 H 210.414 -0.111913 -1.43564 0
M  V30 2332 H 212.367 2.1165 -3.64393 0
M  V30 2333 H 211.091 2.20994 -2.40477 0
M  V30 2334 H 209.75 0.46871 -3.63591 0
M  V30 2335 H 209.398 2.89883 -4.11068 0
M  V30 2336 H 209.098 1.90521 -5.55856 0
M  V30 2337 H 210.622 2.82614 -5.41259 0
M  V30 2338 H 212.036 0.573509 -5.70424 0
M  V30 2339 H 210.433 -0.160783 -5.99885 0
M  V30 2340 H 211.503 -0.86237 -4.7717 0
M  V30 2341 N 212.846 1.57033 -0.133567 0
M  V30 2342 C 213.809 2.14897 0.796995 0
M  V30 2343 C 214.809 1.0874 1.18458 0
M  V30 2344 O 215.999 1.34446 1.1077 0
M  V30 2345 C 213.131 2.70112 2.07973 0
M  V30 2346 H 214.324 2.98457 0.293873 0
M  V30 2347 H 211.877 1.55871 0.115787 0
M  V30 2348 H 212.612 1.9018 2.62682 0
M  V30 2349 H 212.397 3.47764 1.81115 0
M  V30 2350 H 213.887 3.14738 2.74462 0
M  V30 2351 N 214.325 -0.140222 1.56975 0
M  V30 2352 C 215.602 -0.880769 1.74648 0
M  V30 2353 C 215.982 -1.99036 0.703404 0
M  V30 2354 O 215.33 -2.26821 -0.27648 0
M  V30 2355 C 215.54 -1.417 3.18939 0
M  V30 2356 C 216.888 -1.87774 3.80823 0
M  V30 2357 O 217.912 -1.51427 3.2241 0
M  V30 2358 O 216.771 -2.54827 4.83452 0
M  V30 2359 H 213.865 -0.416713 0.714338 0
M  V30 2360 H 216.411 -0.125618 1.69234 0
M  V30 2361 H 215.183 -0.619902 3.86359 0
M  V30 2362 H 214.806 -2.23546 3.28805 0
M  V30 2363 N 215.803 -1.52179 -0.40978 0
M  V30 2364 C 217.08 -1.56769 -1.16974 0
M  V30 2365 C 217.46 -0.348322 -2.08206 0
M  V30 2366 O 216.808 0.664862 -2.18613 0
M  V30 2367 C 217.018 -2.89603 -1.9476 0
M  V30 2368 C 218.366 -3.42579 -2.50849 0
M  V30 2369 O 219.39 -2.91338 -2.04941 0
M  V30 2370 O 218.249 -4.32054 -3.34652 0
M  V30 2371 H 215.343 -0.631439 -0.534054 0
M  V30 2372 H 217.889 -1.64507 -0.416613 0
M  V30 2373 H 216.661 -3.698 -1.27921 0
M  V30 2374 H 216.284 -2.85155 -2.77079 0
M  V30 2375 N 217.281 0.66697 -1.42791 0
M  V30 2376 C 218.228 1.7803 -1.4688 0
M  V30 2377 C 219.198 1.6299 -0.319919 0
M  V30 2378 O 220.383 1.83432 -0.525118 0
M  V30 2379 C 217.523 3.1611 -1.38451 0
M  V30 2380 C 216.636 3.42381 -2.63437 0
M  V30 2381 C 215.771 4.70232 -2.47094 0
M  V30 2382 C 214.81 4.89564 -3.67415 0
M  V30 2383 N 213.947 6.08661 -3.49966 0
M  V30 2384 H 218.787 1.7387 -2.42019 0
M  V30 2385 H 216.324 0.84868 -1.20149 0
M  V30 2386 H 218.282 3.95914 -1.31561 0
M  V30 2387 H 216.912 3.19374 -0.469033 0
M  V30 2388 H 215.964 2.56774 -2.80662 0
M  V30 2389 H 217.276 3.52557 -3.52853 0
M  V30 2390 H 216.43 5.5814 -2.37834 0
M  V30 2391 H 215.169 4.62353 -1.5518 0
M  V30 2392 H 214.174 4.00096 -3.77099 0
M  V30 2393 H 215.399 4.99282 -4.6032 0
M  V30 2394 H 213.345 6.0194 -2.60776 0
M  V30 2395 H 213.262 6.19733 -4.32975 0
M  V30 2396 H 214.53 6.99226 -3.44532 0
M  V30 2397 N 218.759 1.29093 0.90403 0
M  V30 2398 C 219.987 1.19689 1.68766 0
M  V30 2399 C 220.402 -0.243113 1.87228 0
M  V30 2400 O 219.759 -1.16326 1.40621 0
M  V30 2401 C 219.81 1.90144 3.07453 0
M  V30 2402 O 219.531 3.2852 2.89838 0
M  V30 2403 C 221.032 1.87162 4.01852 0
M  V30 2404 H 218.252 0.415035 0.527244 0
M  V30 2405 H 220.796 1.7039 1.13082 0
M  V30 2406 H 218.951 1.43289 3.59926 0
M  V30 2407 H 219.365 3.63944 3.77684 0
M  V30 2408 H 220.839 2.41032 4.96596 0
M  V30 2409 H 221.316 0.84617 4.30972 0
M  V30 2410 H 221.922 2.33741 3.5531 0
M  V30 2411 N 220.237 -1.11381 1.11499 0
M  V30 2412 C 221.483 -1.83403 0.865512 0
M  V30 2413 C 221.816 -1.84459 -0.607329 0
M  V30 2414 O 221.091 -1.29811 -1.44842 0
M  V30 2415 C 221.374 -3.30552 1.42855 0
M  V30 2416 C 221.227 -3.37886 2.96906 0
M  V30 2417 C 222.546 -4.26643 1.08 0
M  V30 2418 H 219.665 -0.665879 0.31587 0
M  V30 2419 H 222.307 -1.30601 1.37998 0
M  V30 2420 H 220.457 -3.75648 0.990985 0
M  V30 2421 H 222.129 -3.01343 3.49271 0
M  V30 2422 H 220.372 -2.78088 3.32941 0
M  V30 2423 H 221.043 -4.41458 3.31389 0
M  V30 2424 H 223.519 -3.89729 1.45775 0
M  V30 2425 H 222.395 -5.27986 1.50072 0
M  V30 2426 H 222.656 -4.42099 -0.00915037 0
M  V30 2427 N 221.715 -0.905404 -1.28997 0
M  V30 2428 C 222.647 -0.344748 -2.26592 0
M  V30 2429 C 223.66 0.512135 -1.54535 0
M  V30 2430 O 224.849 0.328368 -1.75454 0
M  V30 2431 C 221.949 0.526587 -3.34784 0
M  V30 2432 C 221.122 -0.305871 -4.36329 0
M  V30 2433 C 220.181 0.499209 -5.23827 0
M  V30 2434 O 219.207 -0.0853004 -5.69136 0
M  V30 2435 N 220.409 1.80408 -5.51755 0
M  V30 2436 H 223.174 -1.18359 -2.75338 0
M  V30 2437 H 220.735 -0.770481 -1.42391 0
M  V30 2438 H 222.727 1.07171 -3.90252 0
M  V30 2439 H 221.297 1.26613 -2.85811 0
M  V30 2440 H 220.517 -1.0324 -3.80441 0
M  V30 2441 H 221.805 -0.875773 -5.01206 0
M  V30 2442 H 221.203 2.3016 -5.16762 0
M  V30 2443 H 219.76 2.29621 -6.10014 0
M  V30 2444 N 223.193 1.4272 -0.668489 0
M  V30 2445 C 224.442 2.00846 -0.185389 0
M  V30 2446 C 224.755 1.53442 1.21305 0
M  V30 2447 O 225.961 2.03944 1.79218 0
M  V30 2448 C 224.417 3.58805 -0.280591 0
M  V30 2449 C 224.025 4.15198 -1.68268 0
M  V30 2450 C 225.769 4.24255 0.14412 0
M  V30 2451 C 223.676 5.655 -1.73099 0
M  V30 2452 H 222.606 0.751145 -0.0655475 0
M  V30 2453 H 225.257 1.63516 -0.832752 0
M  V30 2454 H 223.639 3.93608 0.434553 0
M  V30 2455 H 224.813 3.91866 -2.42441 0
M  V30 2456 H 223.128 3.62176 -2.05469 0
M  V30 2457 H 225.725 5.34547 0.128086 0
M  V30 2458 H 226.068 3.99277 1.17827 0
M  V30 2459 H 226.601 3.94389 -0.519798 0
M  V30 2460 H 223.34 5.95268 -2.74475 0
M  V30 2461 H 222.86 5.90842 -1.03274 0
M  V30 2462 H 224.539 6.29808 -1.48158 0
M  V30 2463 N 224.671 0.411399 1.52136 0
M  V30 2464 C 225.604 -0.457614 2.23565 0
M  V30 2465 C 226.582 -1.04613 1.24478 0
M  V30 2466 O 227.766 -1.09356 1.53536 0
M  V30 2467 C 224.893 -1.6354 2.96602 0
M  V30 2468 C 223.939 -1.17005 4.10137 0
M  V30 2469 S 224.772 -0.13333 5.35334 0
M  V30 2470 C 225.928 -1.31638 6.119 0
M  V30 2471 H 226.161 0.148883 2.96927 0
M  V30 2472 H 223.694 0.195713 1.53155 0
M  V30 2473 H 225.652 -2.31074 3.39286 0
M  V30 2474 H 224.313 -2.21324 2.22878 0
M  V30 2475 H 223.506 -2.05005 4.60422 0
M  V30 2476 H 223.108 -0.573319 3.6958 0
M  V30 2477 H 225.4 -2.23957 6.39413 0
M  V30 2478 H 226.343 -0.854014 7.02931 0
M  V30 2479 H 226.751 -1.54321 5.42997 0
M  V30 2480 N 226.149 -1.5696 0.141893 0
M  V30 2481 C 227.374 -2.00754 -0.520838 0
M  V30 2482 C 227.799 -1.0213 -1.57959 0
M  V30 2483 O 227.157 0.00371324 -1.813 0
M  V30 2484 C 227.205 -3.43318 -1.10294 0
M  V30 2485 O 226.309 -3.47679 -2.21795 0
M  V30 2486 H 225.65 -0.651564 -0.127908 0
M  V30 2487 H 228.18 -2.03221 0.23712 0
M  V30 2488 H 228.19 -3.82012 -1.43287 0
M  V30 2489 H 226.865 -4.14608 -0.327574 0
M  V30 2490 H 225.442 -3.20824 -1.9007 0
M  V30 2491 N 227.627 0.131896 -1.57047 0
M  V30 2492 C 228.876 0.84044 -1.83356 0
M  V30 2493 C 229.189 1.81646 -0.725535 0
M  V30 2494 O 230.395 2.57025 -0.874659 0
M  V30 2495 C 228.851 1.54528 -3.25037 0
M  V30 2496 C 228.459 0.610902 -4.43815 0
M  V30 2497 C 230.203 2.23972 -3.60606 0
M  V30 2498 C 228.11 1.31823 -5.76521 0
M  V30 2499 H 227.04 0.317599 -0.683847 0
M  V30 2500 H 229.691 0.0931561 -1.83263 0
M  V30 2501 H 228.073 2.33873 -3.19561 0
M  V30 2502 H 229.247 -0.148407 -4.60561 0
M  V30 2503 H 227.562 0.0241016 -4.16393 0
M  V30 2504 H 230.159 2.77558 -4.57018 0
M  V30 2505 H 230.502 3.01173 -2.87403 0
M  V30 2506 H 231.035 1.51529 -3.6781 0
M  V30 2507 H 227.774 0.587771 -6.52859 0
M  V30 2508 H 227.294 2.04987 -5.63685 0
M  V30 2509 H 228.973 1.855 -6.19838 0
M  V30 2510 N 229.106 1.52395 0.401703 0
M  V30 2511 C 230.016 1.7917 1.51444 0
M  V30 2512 C 231.032 0.677691 1.6026 0
M  V30 2513 O 232.208 0.963909 1.76835 0
M  V30 2514 C 229.273 1.94347 2.87107 0
M  V30 2515 C 228.334 3.18257 2.88116 0
M  V30 2516 C 227.567 3.32701 4.17308 0
M  V30 2517 O 227.79 2.52238 5.11598 0
M  V30 2518 O 226.724 4.25891 4.25324 0
M  V30 2519 H 230.55 2.73633 1.31752 0
M  V30 2520 H 228.135 1.3733 0.588296 0
M  V30 2521 H 230.017 2.06109 3.67555 0
M  V30 2522 H 228.692 1.03073 3.06851 0
M  V30 2523 H 227.599 3.11947 2.06494 0
M  V30 2524 H 228.932 4.09336 2.73322 0
M  V30 2525 N 230.584 -0.659388 1.43143 0
M  V30 2526 C 231.995 -1.24041 1.39537 0
M  V30 2527 C 232.346 -1.95963 0.0963364 0
M  V30 2528 O 231.471 -2.00892 -0.804438 0
M  V30 2529 C 232.066 -2.25601 2.52764 0
M  V30 2530 C 230.625 -2.79195 2.52443 0
M  V30 2531 C 229.772 -1.53743 2.30778 0
M  V30 2532 H 232.723 -0.451792 1.52133 0
M  V30 2533 H 232.744 -3.07651 2.23899 0
M  V30 2534 H 232.256 -1.73226 3.47296 0
M  V30 2535 H 230.357 -3.35649 1.61773 0
M  V30 2536 H 230.47 -3.2716 3.50004 0
M  V30 2537 H 228.834 -1.80869 1.79328 0
M  V30 2538 H 229.617 -1.03312 3.27386 0
M  V30 2539 N 232.062 -1.29571 -0.897171 0
M  V30 2540 C 233.009 -1.14916 -2.00158 0
M  V30 2541 C 233.979 -0.0418149 -1.66047 0
M  V30 2542 O 235.164 -0.209793 -1.89643 0
M  V30 2543 C 232.304 -0.834307 -3.34863 0
M  V30 2544 C 231.417 -2.02234 -3.8174 0
M  V30 2545 C 230.552 -1.64664 -5.05034 0
M  V30 2546 C 229.591 -2.80033 -5.44286 0
M  V30 2547 N 228.728 -2.42843 -6.58765 0
M  V30 2548 H 233.568 -2.09403 -2.12025 0
M  V30 2549 H 231.105 -1.042 -1.0383 0
M  V30 2550 H 233.063 -0.632436 -4.12379 0
M  V30 2551 H 231.693 0.0736656 -3.22716 0
M  V30 2552 H 230.745 -2.33583 -3.00238 0
M  V30 2553 H 232.057 -2.88673 -4.06779 0
M  V30 2554 H 231.211 -1.4078 -5.9014 0
M  V30 2555 H 229.95 -0.753766 -4.8184 0
M  V30 2556 H 228.955 -3.04596 -4.57713 0
M  V30 2557 H 230.18 -3.69989 -5.6946 0
M  V30 2558 H 228.126 -1.56046 -6.3717 0
M  V30 2559 H 228.043 -3.22815 -6.83613 0
M  V30 2560 H 229.311 -2.22285 -7.47134 0
M  V30 2561 N 233.54 1.10788 -1.12088 0
M  V30 2562 C 234.956 1.34691 -0.856186 0
M  V30 2563 C 235.156 1.94791 0.515615 0
M  V30 2564 O 234.212 2.18524 1.26505 0
M  V30 2565 C 235.525 2.27208 -1.9697 0
M  V30 2566 C 237.073 2.40755 -2.00016 0
M  V30 2567 C 237.548 3.36598 -3.1059 0
M  V30 2568 N 239.039 3.44164 -3.10008 0
M  V30 2569 C 239.774 4.18284 -3.92206 0
M  V30 2570 N 239.27 4.95322 -4.84384 0
M  V30 2571 N 241.063 4.13865 -3.80357 0
M  V30 2572 H 233.214 0.70144 -2.00483 0
M  V30 2573 H 235.477 0.371405 -0.872217 0
M  V30 2574 H 235.183 1.90251 -2.958 0
M  V30 2575 H 235.057 3.27485 -1.87172 0
M  V30 2576 H 237.444 2.76982 -1.01808 0
M  V30 2577 H 237.525 1.40305 -2.13888 0
M  V30 2578 H 237.169 3.01096 -4.09028 0
M  V30 2579 H 237.099 4.36918 -2.93956 0
M  V30 2580 H 239.59 2.8922 -2.43228 0
M  V30 2581 H 239.903 5.49267 -5.43623 0
M  V30 2582 H 238.248 4.94459 -4.884 0
M  V30 2583 H 241.439 3.52773 -3.07683 0
M  V30 2584 H 241.612 4.71372 -4.44649 0
M  V30 2585 N 235.018 0.912232 1.28515 0
M  V30 2586 C 236.266 0.543523 1.94654 0
M  V30 2587 C 236.587 -0.9155 1.72173 0
M  V30 2588 O 235.857 -1.64708 1.06058 0
M  V30 2589 H 234.437 0.198017 0.720277 0
M  V30 2590 H 237.099 1.16126 1.56527 0
M  V30 2591 H 236.195 0.736684 3.03281 0
M  V30 2592 N 236.496 -1.42363 0.676048 0
M  V30 2593 C 237.428 -2.29164 -0.0404605 0
M  V30 2594 C 238.441 -1.43747 -0.764245 0
M  V30 2595 O 239.63 -1.67453 -0.618195 0
M  V30 2596 C 236.73 -3.21196 -1.08103 0
M  V30 2597 C 235.903 -4.35273 -0.430812 0
M  V30 2598 C 234.962 -5.08017 -1.37133 0
M  V30 2599 O 233.988 -5.62494 -0.87116 0
M  V30 2600 N 235.19 -5.13647 -2.70456 0
M  V30 2601 H 237.955 -2.91298 0.704667 0
M  V30 2602 H 235.516 -1.53303 0.520559 0
M  V30 2603 H 237.508 -3.66728 -1.71152 0
M  V30 2604 H 236.078 -2.60505 -1.72788 0
M  V30 2605 H 235.298 -3.92372 0.379209 0
M  V30 2606 H 236.586 -5.08795 0.0221132 0
M  V30 2607 H 235.984 -4.708 -3.1363 0
M  V30 2608 H 234.541 -5.62821 -3.28749 0
M  V30 2609 N 237.974 -0.419461 -1.51915 0
M  V30 2610 C 239.223 0.154346 -2.01109 0
M  V30 2611 C 239.536 1.45338 -1.30905 0
M  V30 2612 O 240.742 2.10906 -1.7097 0
M  V30 2613 C 239.198 0.325615 -3.58424 0
M  V30 2614 C 238.806 -0.961934 -4.37551 0
M  V30 2615 C 240.55 0.854155 -4.15818 0
M  V30 2616 C 238.457 -0.757287 -5.86531 0
M  V30 2617 H 237.387 0.0614563 -0.751491 0
M  V30 2618 H 240.038 -0.54649 -1.75173 0
M  V30 2619 H 238.42 1.08903 -3.80731 0
M  V30 2620 H 239.594 -1.7323 -4.26999 0
M  V30 2621 H 237.909 -1.41766 -3.91524 0
M  V30 2622 H 240.506 1.02346 -5.24814 0
M  V30 2623 H 240.849 1.83172 -3.73837 0
M  V30 2624 H 241.382 0.149528 -3.97519 0
M  V30 2625 H 238.121 -1.70671 -6.32892 0
M  V30 2626 H 237.641 -0.0264061 -5.99794 0
M  V30 2627 H 239.32 -0.403482 -6.45741 0
M  V30 2628 N 239.452 1.56882 -0.150215 0
M  V30 2629 C 240.682 2.00302 0.506213 0
M  V30 2630 C 241.09 1.02934 1.58749 0
M  V30 2631 O 240.433 0.0188384 1.8369 0
M  V30 2632 C 240.495 3.40156 1.16337 0
M  V30 2633 C 240.159 4.56439 0.226311 0
M  V30 2634 C 241.156 5.17012 -0.547265 0
M  V30 2635 C 238.841 5.02136 0.128279 0
M  V30 2636 C 240.835 6.21693 -1.40629 0
M  V30 2637 C 238.522 6.06672 -0.734345 0
M  V30 2638 C 239.52 6.6632 -1.50023 0
M  V30 2639 O 239.208 7.68831 -2.34848 0
M  V30 2640 H 238.94 0.662182 0.135984 0
M  V30 2641 H 241.494 2.03961 -0.242746 0
M  V30 2642 H 239.724 3.33346 1.96004 0
M  V30 2643 H 241.413 3.67663 1.71985 0
M  V30 2644 H 242.179 4.82603 -0.48158 0
M  V30 2645 H 238.058 4.55435 0.714157 0
M  V30 2646 H 241.602 6.68179 -2.00455 0
M  V30 2647 H 237.499 6.40507 -0.801309 0
M  V30 2648 H 238.267 7.86065 -2.28131 0
M  V30 2649 N 240.93 -0.123565 1.57115 0
M  V30 2650 C 242.207 -0.862196 1.75572 0
M  V30 2651 C 242.587 -1.98279 0.724475 0
M  V30 2652 O 241.935 -2.27102 -0.252407 0
M  V30 2653 C 242.145 -1.38309 3.20424 0
M  V30 2654 C 243.493 -1.83724 3.82793 0
M  V30 2655 O 244.517 -1.47999 3.23998 0
M  V30 2656 O 243.376 -2.49685 4.86127 0
M  V30 2657 H 240.47 -0.409113 0.718718 0
M  V30 2658 H 243.016 -0.107661 1.69358 0
M  V30 2659 H 241.788 -0.578889 3.86994 0
M  V30 2660 H 241.411 -2.20046 3.31158 0
M  V30 2661 N 242.408 -1.52605 -0.393616 0
M  V30 2662 C 243.355 -1.77055 -1.48054 0
M  V30 2663 C 244.325 -0.61358 -1.54352 0
M  V30 2664 O 245.51 -0.852806 -1.70681 0
M  V30 2665 C 242.65 -1.94108 -2.85335 0
M  V30 2666 C 241.763 -3.21792 -2.88226 0
M  V30 2667 C 240.898 -3.29188 -4.16904 0
M  V30 2668 C 239.937 -4.51013 -4.13828 0
M  V30 2669 N 239.074 -4.55716 -5.34105 0
M  V30 2670 H 243.914 -2.69815 -1.26506 0
M  V30 2671 H 241.451 -1.33683 -0.61379 0
M  V30 2672 H 243.409 -2.01979 -3.65049 0
M  V30 2673 H 242.039 -1.04713 -3.05344 0
M  V30 2674 H 241.091 -3.23015 -2.00911 0
M  V30 2675 H 242.403 -4.11557 -2.8182 0
M  V30 2676 H 241.557 -3.36216 -5.05018 0
M  V30 2677 H 240.296 -2.37389 -4.26026 0
M  V30 2678 H 239.301 -4.44115 -3.24102 0
M  V30 2679 H 240.526 -5.44123 -4.06333 0
M  V30 2680 H 238.472 -3.66807 -5.43865 0
M  V30 2681 H 238.389 -5.39346 -5.29756 0
M  V30 2682 H 239.657 -4.66993 -6.2413 0
M  V30 2683 N 243.887 0.651787 -1.4349 0
M  V30 2684 C 244.835 1.78586 -1.49029 0
M  V30 2685 C 245.829 1.65448 -0.363767 0
M  V30 2686 O 247.035 1.71777 -0.537821 0
M  V30 2687 H 243.41 0.589236 -0.467231 0
M  V30 2688 H 245.381 1.71035 -2.44519 0
M  V30 2689 C 244.13 3.16851 -1.43181 0
M  V30 2690 H 243.453 3.27598 -2.29171 0
M  V30 2691 H 244.893 3.96156 -1.51118 0
M  V30 2692 C 243.352 3.36568 -0.149616 0
M  V30 2693 O 243.882 3.93885 0.788509 0
M  V30 2694 N 242.088 2.90539 -0.0593484 0
M  V30 2695 H 241.635 2.4408 -0.823575 0
M  V30 2696 H 241.593 3.04108 0.797853 0
M  V30 2697 N 245.365 1.30045 0.890287 0
M  V30 2698 C 246.613 1.18327 1.63839 0
M  V30 2699 C 246.934 -0.263455 1.93212 0
M  V30 2700 O 246.204 -1.17856 1.56482 0
M  V30 2701 H 244.784 0.434933 0.607324 0
M  V30 2702 H 247.446 1.631 1.06698 0
M  V30 2703 H 246.542 1.74024 2.59079 0
M  V30 2704 N 246.843 -1.10192 1.12674 0
M  V30 2705 C 247.79 -2.16606 0.796906 0
M  V30 2706 C 248.76 -1.64394 -0.237476 0
M  V30 2707 O 249.945 -1.90474 -0.111484 0
M  V30 2708 C 247.085 -3.44116 0.26043 0
M  V30 2709 C 246.198 -4.10268 1.35293 0
M  V30 2710 C 245.333 -5.25507 0.775621 0
M  V30 2711 C 244.372 -5.83567 1.84706 0
M  V30 2712 N 243.509 -6.90179 1.28829 0
M  V30 2713 H 248.349 -2.44163 1.70846 0
M  V30 2714 H 245.886 -1.19846 0.85295 0
M  V30 2715 H 247.844 -4.17143 -0.0686814 0
M  V30 2716 H 246.474 -3.16901 -0.614274 0
M  V30 2717 H 245.526 -3.35184 1.79877 0
M  V30 2718 H 246.838 -4.4946 2.16303 0
M  V30 2719 H 245.992 -6.05398 0.397327 0
M  V30 2720 H 244.731 -4.87656 -0.0656581 0
M  V30 2721 H 243.736 -5.02344 2.23452 0
M  V30 2722 H 244.961 -6.23482 2.69161 0
M  V30 2723 H 242.907 -6.54322 0.468881 0
M  V30 2724 H 242.824 -7.28097 2.03497 0
M  V30 2725 H 244.092 -7.73844 0.937311 0
M  V30 2726 N 248.321 -0.919034 -1.28029 0
M  V30 2727 C 249.569 -0.553838 -1.94363 0
M  V30 2728 C 249.89 0.906357 -1.72656 0
M  V30 2729 O 249.16 1.64143 -1.0693 0
M  V30 2730 H 247.74 -0.201834 -0.719216 0
M  V30 2731 H 250.402 -1.16954 -1.55909 0
M  V30 2732 H 249.498 -0.752758 -3.02886 0
M  V30 2733 N 249.799 1.42003 -0.683588 0
M  V30 2734 C 250.729 2.33487 -0.024866 0
M  V30 2735 C 251.71 1.51163 0.779975 0
M  V30 2736 O 252.895 1.79739 0.735362 0
M  V30 2737 C 250.025 3.3487 0.920836 0
M  V30 2738 C 248.979 4.27414 0.223958 0
M  V30 2739 C 248.305 5.19074 1.2832 0
M  V30 2740 C 249.605 5.14445 -0.90242 0
M  V30 2741 H 251.299 2.88819 -0.788921 0
M  V30 2742 H 248.845 1.38873 -0.38083 0
M  V30 2743 H 250.798 3.97787 1.39081 0
M  V30 2744 H 249.522 2.77861 1.71642 0
M  V30 2745 H 248.181 3.65904 -0.225864 0
M  V30 2746 H 247.829 4.58387 2.071 0
M  V30 2747 H 247.529 5.81822 0.821995 0
M  V30 2748 H 249.053 5.84867 1.75392 0
M  V30 2749 H 250.467 5.70998 -0.513272 0
M  V30 2750 H 248.864 5.86072 -1.28997 0
M  V30 2751 H 249.934 4.52322 -1.74737 0
M  V30 2752 N 251.277 0.427512 1.51691 0
M  V30 2753 C 252.24 -0.377132 2.26076 0
M  V30 2754 C 253.24 -0.958089 1.29141 0
M  V30 2755 O 254.43 -0.83408 1.52934 0
M  V30 2756 C 251.562 -1.53262 3.04506 0
M  V30 2757 H 252.755 0.27464 2.9864 0
M  V30 2758 H 250.308 0.180445 1.55255 0
M  V30 2759 H 251.043 -2.22072 2.36335 0
M  V30 2760 H 250.828 -1.12232 3.75694 0
M  V30 2761 H 252.318 -2.10135 3.60878 0
M  V30 2762 N 252.755 -1.56801 0.158532 0
M  V30 2763 C 254.001 -1.96781 -0.490405 0
M  V30 2764 C 254.334 -1.04397 -1.63753 0
M  V30 2765 O 253.609 -0.0885805 -1.94298 0
M  V30 2766 C 253.892 -3.4635 -0.985594 0
M  V30 2767 C 253.745 -4.49512 0.160824 0
M  V30 2768 C 255.064 -3.98697 -1.86355 0
M  V30 2769 H 252.183 -0.715482 -0.176788 0
M  V30 2770 H 254.825 -1.88451 0.242088 0
M  V30 2771 H 252.975 -3.53579 -1.60978 0
M  V30 2772 H 254.647 -4.54353 0.797537 0
M  V30 2773 H 252.89 -4.26013 0.818256 0
M  V30 2774 H 253.561 -5.51531 -0.227569 0
M  V30 2775 H 256.037 -3.94019 -1.33746 0
M  V30 2776 H 254.913 -5.03792 -2.17909 0
M  V30 2777 H 255.174 -3.41744 -2.8047 0
M  V30 2778 N 254.233 0.115231 -1.57178 0
M  V30 2779 C 255.181 1.16014 -2.01602 0
M  V30 2780 C 256.175 1.42653 -0.913587 0
M  V30 2781 O 257.381 1.42571 -1.09879 0
M  V30 2782 H 253.756 0.391252 -0.642204 0
M  V30 2783 H 255.727 0.758998 -2.88586 0
M  V30 2784 C 254.476 2.47767 -2.4394 0
M  V30 2785 H 253.799 2.28108 -3.28339 0
M  V30 2786 H 255.239 3.19432 -2.78818 0
M  V30 2787 C 253.698 3.10617 -1.30455 0
M  V30 2788 O 254.228 3.96846 -0.622585 0
M  V30 2789 N 252.434 2.70553 -1.06064 0
M  V30 2790 H 251.981 2.00527 -1.61699 0
M  V30 2791 H 251.939 3.12934 -0.303284 0
M  V30 2792 N 255.711 1.52812 0.385517 0
M  V30 2793 C 256.939 1.71907 1.15133 0
M  V30 2794 C 257.354 0.439004 1.83625 0
M  V30 2795 O 256.711 -0.586765 1.7281 0
M  V30 2796 C 256.762 2.87099 2.19673 0
M  V30 2797 O 256.483 4.10151 1.53973 0
M  V30 2798 C 257.984 3.17902 3.08955 0
M  V30 2799 H 255.204 0.575479 0.345057 0
M  V30 2800 H 257.748 1.99476 0.45052 0
M  V30 2801 H 255.903 2.61982 2.85384 0
M  V30 2802 H 256.317 4.74514 2.23465 0
M  V30 2803 H 257.791 4.01959 3.7833 0
M  V30 2804 H 258.268 2.3243 3.72657 0
M  V30 2805 H 258.874 3.44871 2.48885 0
M  V30 2806 N 257.189 -0.644168 1.43834 0
M  V30 2807 C 258.466 -1.40188 1.36406 0
M  V30 2808 C 258.846 -2.11094 0.0163124 0
M  V30 2809 O 258.194 -2.05426 -1.00062 0
M  V30 2810 C 258.404 -2.3791 2.55343 0
M  V30 2811 C 259.752 -3.01637 2.98832 0
M  V30 2812 O 260.776 -2.48237 2.55455 0
M  V30 2813 O 259.635 -3.98477 3.74003 0
M  V30 2814 H 256.729 -0.626773 0.539523 0
M  V30 2815 H 259.275 -0.670317 1.559 0
M  V30 2816 H 258.047 -1.84525 3.4506 0
M  V30 2817 H 257.67 -3.18503 2.37995 0
M  V30 2818 N 258.668 -1.30515 -0.883378 0
M  V30 2819 C 259.914 -1.19607 -1.63774 0
M  V30 2820 C 260.247 0.248314 -1.92606 0
M  V30 2821 O 259.522 1.17742 -1.54813 0
M  V30 2822 C 259.805 -2.02669 -2.97653 0
M  V30 2823 C 259.658 -3.55335 -2.75784 0
M  V30 2824 C 260.977 -1.86573 -3.98596 0
M  V30 2825 H 258.096 -0.435856 -0.594305 0
M  V30 2826 H 260.738 -1.60165 -1.02212 0
M  V30 2827 H 258.888 -1.68208 -3.50197 0
M  V30 2828 H 260.56 -3.99863 -2.30016 0
M  V30 2829 H 258.803 -3.79438 -2.1026 0
M  V30 2830 H 259.474 -4.08745 -3.70988 0
M  V30 2831 H 261.95 -2.16703 -3.55217 0
M  V30 2832 H 260.826 -2.47014 -4.90179 0
M  V30 2833 H 261.087 -0.825321 -4.34328 0
M  V30 2834 N 260.146 1.09593 -1.13257 0
M  V30 2835 C 261.557 1.63229 -0.906274 0
M  V30 2836 C 261.908 1.8811 0.557578 0
M  V30 2837 O 261.033 1.62953 1.42391 0
M  V30 2838 C 261.628 2.96535 -1.63867 0
M  V30 2839 C 260.187 3.47003 -1.45828 0
M  V30 2840 C 259.334 2.2145 -1.66898 0
M  V30 2841 H 262.285 0.92978 -1.28611 0
M  V30 2842 H 262.306 3.64411 -1.09476 0
M  V30 2843 H 261.818 2.78394 -2.70404 0
M  V30 2844 H 259.919 3.70272 -0.415848 0
M  V30 2845 H 260.032 4.24551 -2.2202 0
M  V30 2846 H 258.396 2.30022 -1.09371 0
M  V30 2847 H 259.179 2.0583 -2.74752 0
M  V30 2848 N 261.624 0.925811 1.2754 0
M  V30 2849 C 262.534 0.428993 2.30644 0
M  V30 2850 C 263.55 -0.489387 1.66976 0
M  V30 2851 O 264.726 -0.372653 1.97922 0
M  V30 2852 C 261.791 -0.311967 3.45294 0
M  V30 2853 C 260.852 0.641098 4.24486 0
M  V30 2854 C 260.085 -0.0645955 5.33661 0
M  V30 2855 O 260.308 -1.28429 5.55754 0
M  V30 2856 O 259.242 0.606265 5.98839 0
M  V30 2857 H 263.068 1.28504 2.75173 0
M  V30 2858 H 260.653 0.691086 1.32455 0
M  V30 2859 H 262.535 -0.729972 4.15029 0
M  V30 2860 H 261.21 -1.14365 3.02824 0
M  V30 2861 H 260.117 1.10874 3.57292 0
M  V30 2862 H 261.45 1.43995 4.70666 0
M  V30 2863 N 263.102 -1.41638 0.69111 0
M  V30 2864 C 264.351 -2.00526 0.217318 0
M  V30 2865 C 264.664 -1.55353 -1.18848 0
M  V30 2866 O 265.87 -2.06769 -1.75951 0
M  V30 2867 C 264.326 -3.58313 0.337639 0
M  V30 2868 C 263.934 -4.12469 1.74852 0
M  V30 2869 C 265.678 -4.24431 -0.0766066 0
M  V30 2870 C 263.585 -5.62675 1.82074 0
M  V30 2871 H 262.515 -0.750008 0.0774893 0
M  V30 2872 H 265.166 -1.6217 0.858661 0
M  V30 2873 H 263.548 -3.9425 -0.371879 0
M  V30 2874 H 264.722 -3.8796 2.48644 0
M  V30 2875 H 263.037 -3.58861 2.11205 0
M  V30 2876 H 265.634 -5.34683 -0.0430284 0
M  V30 2877 H 265.977 -4.01101 -1.1146 0
M  V30 2878 H 266.51 -3.93512 0.582476 0
M  V30 2879 H 263.249 -5.90826 2.83911 0
M  V30 2880 H 262.769 -5.89124 1.12661 0
M  V30 2881 H 264.448 -6.27371 1.58159 0
M  V30 2882 N 264.58 -0.43555 -1.51462 0
M  V30 2883 C 265.828 0.131254 -2.01673 0
M  V30 2884 C 266.149 1.43368 -1.32177 0
M  V30 2885 O 265.419 1.90524 -0.455769 0
M  V30 2886 H 263.999 0.0514954 -0.745223 0
M  V30 2887 H 266.661 -0.577847 -1.86137 0
M  V30 2888 H 265.757 0.308446 -3.10572 0
M  V30 2889 N 266.058 1.56714 -0.166846 0
M  V30 2890 C 267.307 1.95922 0.479318 0
M  V30 2891 C 267.62 1.05529 1.6469 0
M  V30 2892 O 268.826 1.34399 2.35901 0
M  V30 2893 C 267.282 3.48359 0.90412 0
M  V30 2894 C 266.89 4.47369 -0.237621 0
M  V30 2895 C 268.634 3.96394 1.51896 0
M  V30 2896 C 266.541 5.91039 0.206561 0
M  V30 2897 H 265.471 0.731495 0.18284 0
M  V30 2898 H 268.122 1.81728 -0.254363 0
M  V30 2899 H 266.504 3.57955 1.69365 0
M  V30 2900 H 267.678 4.49485 -1.01489 0
M  V30 2901 H 265.993 4.09366 -0.762128 0
M  V30 2902 H 268.59 5.01186 1.86325 0
M  V30 2903 H 268.933 3.39075 2.41524 0
M  V30 2904 H 269.466 3.89796 0.79395 0
M  V30 2905 H 266.205 6.52221 -0.654834 0
M  V30 2906 H 265.725 5.9224 0.949282 0
M  V30 2907 H 267.404 6.43707 0.651939 0
M  V30 2908 N 267.536 -0.106894 1.57237 0
M  V30 2909 C 268.782 -0.81373 1.85759 0
M  V30 2910 C 269.115 -1.78952 0.754315 0
M  V30 2911 O 268.39 -1.93029 -0.23879 0
M  V30 2912 C 268.673 -1.55293 3.24894 0
M  V30 2913 C 268.526 -0.595929 4.45835 0
M  V30 2914 C 269.845 -2.5063 3.61763 0
M  V30 2915 H 266.964 -0.294369 0.67566 0
M  V30 2916 H 269.606 -0.0776472 1.89841 0
M  V30 2917 H 267.756 -2.1804 3.21544 0
M  V30 2918 H 269.428 0.0236262 4.61294 0
M  V30 2919 H 267.671 0.0916191 4.33703 0
M  V30 2920 H 268.342 -1.15004 5.39887 0
M  V30 2921 H 270.818 -1.97982 3.65981 0
M  V30 2922 H 269.694 -2.99376 4.60071 0
M  V30 2923 H 269.955 -3.3385 2.89821 0
M  V30 2924 N 269.014 -1.53014 -0.377408 0
M  V30 2925 C 270.425 -1.60438 -0.954798 0
M  V30 2926 C 270.776 -0.464418 -1.90624 0
M  V30 2927 O 269.901 0.41087 -2.12464 0
M  V30 2928 C 270.496 -2.90797 -1.73847 0
M  V30 2929 C 269.055 -3.00595 -2.26538 0
M  V30 2930 C 268.202 -2.55645 -1.07429 0
M  V30 2931 H 271.153 -1.57926 -0.156575 0
M  V30 2932 H 271.174 -2.77935 -2.5987 0
M  V30 2933 H 270.686 -3.73746 -1.04574 0
M  V30 2934 H 268.787 -2.22208 -2.99089 0
M  V30 2935 H 268.9 -4.05456 -2.5523 0
M  V30 2936 H 267.264 -2.10239 -1.43777 0
M  V30 2937 H 268.047 -3.41 -0.396728 0
M  V30 2938 N 270.492 0.636531 -1.44174 0
M  V30 2939 C 271.74 1.39343 -1.46383 0
M  V30 2940 C 272.061 1.94766 -0.0955715 0
M  V30 2941 O 271.331 1.75452 0.871395 0
M  V30 2942 H 269.911 0.517199 -0.538994 0
M  V30 2943 H 272.573 0.74957 -1.7991 0
M  V30 2944 H 271.669 2.22746 -2.18611 0
M  V30 2945 N 271.97 1.30982 0.876444 0
M  V30 2946 C 272.88 1.2003 2.01569 0
M  V30 2947 C 273.896 0.11838 1.73597 0
M  V30 2948 O 275.072 0.33495 1.98595 0
M  V30 2949 C 272.137 0.901637 3.34771 0
M  V30 2950 C 271.198 2.06979 3.76109 0
M  V30 2951 C 270.431 1.78529 5.02954 0
M  V30 2952 O 270.654 0.717296 5.65872 0
M  V30 2953 O 269.588 2.64019 5.40905 0
M  V30 2954 H 273.414 2.15753 2.13739 0
M  V30 2955 H 270.999 1.10658 1.00375 0
M  V30 2956 H 272.881 0.750645 4.1466 0
M  V30 2957 H 271.556 -0.0256141 3.2369 0
M  V30 2958 H 270.463 2.27616 2.96887 0
M  V30 2959 H 271.796 2.97907 3.91807 0
M  V30 2960 N 273.449 -1.08991 1.13837 0
M  V30 2961 C 274.379 -2.17771 0.842507 0
M  V30 2962 C 275.36 -1.6892 -0.20001 0
M  V30 2963 O 276.545 -1.94113 -0.0579731 0
M  V30 2964 C 273.675 -3.4589 0.312644 0
M  V30 2965 C 272.629 -4.08099 1.28992 0
M  V30 2966 C 271.955 -5.31098 0.619623 0
M  V30 2967 C 273.255 -4.50077 2.65005 0
M  V30 2968 H 274.949 -2.42777 1.75213 0
M  V30 2969 H 272.495 -1.16682 0.843875 0
M  V30 2970 H 274.448 -4.21297 0.0933043 0
M  V30 2971 H 273.172 -3.20419 -0.632382 0
M  V30 2972 H 271.831 -3.34717 1.49533 0
M  V30 2973 H 271.479 -5.0191 -0.33102 0
M  V30 2974 H 271.179 -5.73674 1.27167 0
M  V30 2975 H 272.703 -6.09224 0.409669 0
M  V30 2976 H 274.117 -5.16688 2.48407 0
M  V30 2977 H 272.514 -5.03553 3.26427 0
M  V30 2978 H 273.584 -3.62257 3.22332 0
M  V30 2979 N 274.927 -0.932562 -1.27047 0
M  V30 2980 C 276.175 -0.574422 -1.93765 0
M  V30 2981 C 276.496 0.887993 -1.73608 0
M  V30 2982 O 275.766 1.62999 -1.08665 0
M  V30 2983 H 274.346 -0.209451 -0.717035 0
M  V30 2984 H 277.008 -1.18601 -1.5466 0
M  V30 2985 H 276.104 -0.784841 -3.02071 0
M  V30 2986 N 276.405 1.4127 -0.698611 0
M  V30 2987 C 277.682 1.94955 -0.158762 0
M  V30 2988 C 278.062 1.63781 1.33188 0
M  V30 2989 O 277.41 0.946423 2.07979 0
M  V30 2990 C 277.62 3.46044 -0.453309 0
M  V30 2991 C 278.968 4.22872 -0.382707 0
M  V30 2992 O 279.992 3.54076 -0.388396 0
M  V30 2993 O 278.851 5.45407 -0.345463 0
M  V30 2994 H 275.945 0.82683 -0.0167505 0
M  V30 2995 H 278.491 1.50971 -0.77498 0
M  V30 2996 H 277.263 3.62028 -1.48498 0
M  V30 2997 H 276.886 3.97128 0.19373 0
M  V30 2998 N 277.883 0.443576 1.51229 0
M  V30 2999 C 278.83 -0.364716 2.279 0
M  V30 3000 C 279.8 -1.0114 1.31757 0
M  V30 3001 O 280.985 -1.02912 1.60667 0
M  V30 3002 C 278.125 -1.45644 3.12861 0
M  V30 3003 C 277.238 -0.827269 4.24005 0
M  V30 3004 C 276.373 -1.89456 4.96266 0
M  V30 3005 C 275.412 -1.24416 5.99322 0
M  V30 3006 N 274.549 -2.25309 6.64966 0
M  V30 3007 H 279.389 0.295464 2.96532 0
M  V30 3008 H 276.926 0.157554 1.46254 0
M  V30 3009 H 278.884 -2.10076 3.6045 0
M  V30 3010 H 277.514 -2.08616 2.46331 0
M  V30 3011 H 276.566 -0.0710839 3.80334 0
M  V30 3012 H 277.878 -0.312481 4.9782 0
M  V30 3013 H 277.032 -2.61535 5.47434 0
M  V30 3014 H 275.771 -2.4431 4.22095 0
M  V30 3015 H 274.776 -0.508868 5.4744 0
M  V30 3016 H 276.001 -0.702882 6.75453 0
M  V30 3017 H 273.947 -2.79231 5.93604 0
M  V30 3018 H 273.864 -1.78739 7.34567 0
M  V30 3019 H 275.132 -2.96853 7.20763 0
M  V30 3020 N 279.361 -1.56624 0.175154 0
M  V30 3021 C 280.308 -2.18149 -0.753634 0
M  V30 3022 C 281.278 -1.12265 -1.22417 0
M  V30 3023 O 282.463 -1.40432 -1.29165 0
M  V30 3024 C 279.603 -2.82933 -1.97592 0
M  V30 3025 C 278.716 -4.03289 -1.5486 0
M  V30 3026 C 277.851 -4.55988 -2.72485 0
M  V30 3027 C 276.89 -5.68746 -2.26262 0
M  V30 3028 N 276.027 -6.15938 -3.36994 0
M  V30 3029 H 280.867 -2.9717 -0.222195 0
M  V30 3030 H 278.404 -1.46774 -0.0979422 0
M  V30 3031 H 280.362 -3.18653 -2.69288 0
M  V30 3032 H 278.992 -2.06509 -2.481 0
M  V30 3033 H 278.044 -3.73364 -0.728246 0
M  V30 3034 H 279.356 -4.849 -1.16933 0
M  V30 3035 H 278.51 -4.9391 -3.52332 0
M  V30 3036 H 277.249 -3.73443 -3.13674 0
M  V30 3037 H 276.254 -5.30372 -1.44863 0
M  V30 3038 H 277.479 -6.53095 -1.86127 0
M  V30 3039 H 275.425 -5.36321 -3.77751 0
M  V30 3040 H 275.342 -6.92548 -3.03172 0
M  V30 3041 H 276.61 -6.58511 -4.17114 0
M  V30 3042 N 280.839 0.0985539 -1.57292 0
M  V30 3043 C 281.749 1.13824 -2.05137 0
M  V30 3044 C 282.765 1.44076 -0.975604 0
M  V30 3045 O 283.941 1.54786 -1.28853 0
M  V30 3046 C 281.006 2.43969 -2.46333 0
M  V30 3047 C 280.067 2.2093 -3.68087 0
M  V30 3048 C 279.3 3.44869 -4.0731 0
M  V30 3049 O 279.523 4.52972 -3.46659 0
M  V30 3050 O 278.457 3.34661 -5.00285 0
M  V30 3051 H 282.283 0.761881 -2.93988 0
M  V30 3052 H 279.868 0.310818 -1.46131 0
M  V30 3053 H 281.75 3.20609 -2.73473 0
M  V30 3054 H 280.425 2.81038 -1.60621 0
M  V30 3055 H 279.332 1.42081 -3.46069 0
M  V30 3056 H 280.665 1.88755 -4.54568 0
M  V30 3057 N 282.317 1.53212 0.369288 0
M  V30 3058 C 283.264 1.79388 1.45219 0
M  V30 3059 C 284.234 0.638059 1.53356 0
M  V30 3060 O 285.419 0.879852 1.69302 0
M  V30 3061 C 282.559 1.98623 2.82211 0
M  V30 3062 C 281.672 3.26337 2.8307 0
M  V30 3063 C 280.807 3.35779 4.11614 0
M  V30 3064 C 279.846 4.5754 4.06601 0
M  V30 3065 N 278.983 4.64155 5.26787 0
M  V30 3066 H 283.823 2.71794 1.22198 0
M  V30 3067 H 281.36 1.34642 0.592444 0
M  V30 3068 H 283.318 2.07761 3.61789 0
M  V30 3069 H 281.948 1.09558 3.03639 0
M  V30 3070 H 281 3.26171 1.95747 0
M  V30 3071 H 282.312 4.15988 2.75237 0
M  V30 3072 H 281.466 3.44208 4.99606 0
M  V30 3073 H 280.205 2.44137 4.22195 0
M  V30 3074 H 279.21 4.49215 3.16996 0
M  V30 3075 H 280.435 5.50519 3.97625 0
M  V30 3076 H 278.381 3.75413 5.3796 0
M  V30 3077 H 278.298 5.47706 5.21109 0
M  V30 3078 H 279.566 4.76863 6.16621 0
M  V30 3079 N 283.795 -0.628877 1.44509 0
M  V30 3080 C 285.041 -1.39045 1.47629 0
M  V30 3081 C 285.374 -1.93892 0.109343 0
M  V30 3082 O 284.649 -1.7379 -0.87334 0
M  V30 3083 C 284.932 -2.55408 2.53848 0
M  V30 3084 C 284.785 -2.05896 3.99909 0
M  V30 3085 C 286.104 -3.5759 2.56549 0
M  V30 3086 H 283.223 -0.504232 0.537512 0
M  V30 3087 H 285.865 -0.710854 1.76201 0
M  V30 3088 H 284.015 -3.13384 2.29615 0
M  V30 3089 H 285.687 -1.52734 4.35282 0
M  V30 3090 H 283.93 -1.37061 4.11578 0
M  V30 3091 H 284.601 -2.89681 4.69882 0
M  V30 3092 H 287.077 -3.09419 2.78207 0
M  V30 3093 H 285.953 -4.36527 3.32769 0
M  V30 3094 H 286.214 -4.11808 1.60832 0
M  V30 3095 N 285.273 -1.31445 -0.869486 0
M  V30 3096 C 286.522 -1.20517 -1.61736 0
M  V30 3097 C 286.835 0.235341 -1.94179 0
M  V30 3098 O 288.041 0.466312 -2.67465 0
M  V30 3099 C 286.497 -2.10982 -2.91573 0
M  V30 3100 C 286.105 -3.60032 -2.66611 0
M  V30 3101 C 287.849 -2.08856 -3.69567 0
M  V30 3102 C 285.756 -4.42503 -3.92358 0
M  V30 3103 H 284.686 -0.447493 -0.606849 0
M  V30 3104 H 287.337 -1.56303 -0.96133 0
M  V30 3105 H 285.719 -1.68095 -3.58553 0
M  V30 3106 H 286.893 -4.11167 -2.08035 0
M  V30 3107 H 285.208 -3.64139 -2.0197 0
M  V30 3108 H 287.805 -2.67716 -4.62852 0
M  V30 3109 H 288.148 -1.07582 -4.02159 0
M  V30 3110 H 288.681 -2.49945 -3.09471 0
M  V30 3111 H 285.42 -5.44533 -3.64916 0
M  V30 3112 H 284.94 -3.96125 -4.50383 0
M  V30 3113 H 286.619 -4.54741 -4.60238 0
M  V30 3114 N 286.751 1.08385 -1.14413 0
M  V30 3115 C 287.698 2.15311 -0.831265 0
M  V30 3116 C 288.668 1.64751 0.211292 0
M  V30 3117 O 289.853 1.90627 0.0811674 0
M  V30 3118 C 286.993 3.43658 -0.315143 0
M  V30 3119 C 286.106 4.08064 -1.41802 0
M  V30 3120 C 285.241 5.24207 -0.859126 0
M  V30 3121 C 284.28 5.80554 -1.93967 0
M  V30 3122 N 283.417 6.88042 -1.39793 0
M  V30 3123 H 288.257 2.41415 -1.74708 0
M  V30 3124 H 285.794 1.18474 -0.871909 0
M  V30 3125 H 287.752 4.172 0.00230884 0
M  V30 3126 H 286.382 3.17839 0.56378 0
M  V30 3127 H 285.434 3.3228 -1.85187 0
M  V30 3128 H 286.746 4.45962 -2.23427 0
M  V30 3129 H 285.9 6.04689 -0.49359 0
M  V30 3130 H 284.639 4.87699 -0.011932 0
M  V30 3131 H 283.644 4.98725 -2.31415 0
M  V30 3132 H 284.869 6.19121 -2.79046 0
M  V30 3133 H 282.815 6.53493 -0.572919 0
M  V30 3134 H 282.732 7.24767 -2.15054 0
M  V30 3135 H 284 7.72255 -1.0603 0
M  V30 3136 N 288.23 0.939286 1.26551 0
M  V30 3137 C 289.14 0.453432 2.30176 0
M  V30 3138 C 290.156 -0.471649 1.67486 0
M  V30 3139 O 291.332 -0.35164 1.98306 0
M  V30 3140 C 288.397 -0.275326 3.45605 0
M  V30 3141 C 287.458 0.686084 4.23782 0
M  V30 3142 C 286.691 -0.00798994 5.33699 0
M  V30 3143 O 286.914 -1.22528 5.57085 0
M  V30 3144 O 285.848 0.669746 5.98162 0
M  V30 3145 H 289.674 1.31416 2.73795 0
M  V30 3146 H 287.259 0.705095 1.31715 0
M  V30 3147 H 289.141 -0.685911 4.1578 0
M  V30 3148 H 287.816 -1.11147 3.0402 0
M  V30 3149 H 286.723 1.14658 3.56096 0
M  V30 3150 H 288.056 1.48979 4.69112 0
M  V30 3151 N 289.708 -1.40897 0.706093 0
M  V30 3152 C 290.638 -2.33418 0.0620085 0
M  V30 3153 C 291.619 -1.52385 -0.755827 0
M  V30 3154 O 292.804 -1.80886 -0.706674 0
M  V30 3155 C 289.934 -3.36293 -0.867445 0
M  V30 3156 C 288.888 -4.27716 -0.155932 0
M  V30 3157 C 288.214 -5.2105 -1.20046 0
M  V30 3158 C 289.514 -5.12944 0.984149 0
M  V30 3159 H 291.208 -2.87527 0.83477 0
M  V30 3160 H 288.754 -1.38249 0.402875 0
M  V30 3161 H 290.707 -3.99949 -1.32735 0
M  V30 3162 H 289.431 -2.80556 -1.67199 0
M  V30 3163 H 288.09 -3.65498 0.284047 0
M  V30 3164 H 287.738 -4.61624 -1.99781 0
M  V30 3165 H 287.438 -5.83056 -0.729328 0
M  V30 3166 H 288.962 -5.87584 -1.66066 0
M  V30 3167 H 290.376 -5.70109 0.604048 0
M  V30 3168 H 288.773 -5.83945 1.38304 0
M  V30 3169 H 289.843 -4.49485 1.81911 0
M  V30 3170 N 291.186 -0.45159 -1.50991 0
M  V30 3171 C 292.149 0.341117 -2.26647 0
M  V30 3172 C 293.149 0.937422 -1.30649 0
M  V30 3173 O 294.339 0.809644 -1.54241 0
M  V30 3174 C 291.471 1.48398 -3.06905 0
M  V30 3175 H 292.664 -0.322117 -2.98165 0
M  V30 3176 H 290.217 -0.205122 -1.54948 0
M  V30 3177 H 290.952 2.18284 -2.39838 0
M  V30 3178 H 290.737 1.06241 -3.77432 0
M  V30 3179 H 292.227 2.04367 -3.64176 0
M  V30 3180 N 292.664 1.56529 -0.183458 0
M  V30 3181 C 293.611 2.18546 0.742055 0
M  V30 3182 C 294.581 1.12912 1.2182 0
M  V30 3183 O 295.766 1.41115 1.28418 0
M  V30 3184 C 292.906 2.83977 1.96089 0
M  V30 3185 C 292.019 4.04105 1.52719 0
M  V30 3186 C 291.154 4.57427 2.70063 0
M  V30 3187 C 290.193 5.69938 2.23243 0
M  V30 3188 N 289.33 6.17717 3.33722 0
M  V30 3189 H 294.17 2.97284 0.206432 0
M  V30 3190 H 291.707 1.46823 0.0901571 0
M  V30 3191 H 293.665 3.20077 2.67594 0
M  V30 3192 H 292.295 2.07822 2.47002 0
M  V30 3193 H 291.347 3.73745 0.708436 0
M  V30 3194 H 292.659 4.85513 1.1436 0
M  V30 3195 H 291.813 4.95772 3.49708 0
M  V30 3196 H 290.552 3.75101 3.11689 0
M  V30 3197 H 289.557 5.31133 1.42048 0
M  V30 3198 H 290.782 6.54073 1.82661 0
M  V30 3199 H 288.728 5.38317 3.74902 0
M  V30 3200 H 288.645 6.94146 2.99495 0
M  V30 3201 H 289.913 6.60713 4.13616 0
M  V30 3202 N 294.142 -0.090211 1.57342 0
M  V30 3203 C 295.089 -1.10909 2.02405 0
M  V30 3204 C 296.059 -1.39523 0.901252 0
M  V30 3205 O 297.244 -1.50903 1.1676 0
M  V30 3206 C 294.384 -2.42277 2.45755 0
M  V30 3207 C 293.497 -2.20352 3.71576 0
M  V30 3208 C 292.632 -3.45154 4.03785 0
M  V30 3209 C 291.671 -3.18512 5.22701 0
M  V30 3210 N 290.808 -4.35593 5.50639 0
M  V30 3211 H 295.648 -0.71782 2.89225 0
M  V30 3212 H 293.185 -0.342901 1.43048 0
M  V30 3213 H 295.143 -3.18951 2.68935 0
M  V30 3214 H 293.773 -2.79242 1.61938 0
M  V30 3215 H 292.825 -1.34458 3.55844 0
M  V30 3216 H 294.137 -1.96661 4.58395 0
M  V30 3217 H 293.291 -4.30233 4.27767 0
M  V30 3218 H 292.03 -3.71904 3.15498 0
M  V30 3219 H 291.035 -2.31827 4.98534 0
M  V30 3220 H 292.26 -2.93103 6.12591 0
M  V30 3221 H 290.206 -4.6241 4.6531 0
M  V30 3222 H 290.123 -4.1511 6.31838 0
M  V30 3223 H 291.391 -5.21723 5.7916 0
M  V30 3224 N 295.62 -1.53406 -0.361157 0
M  V30 3225 C 296.55 -1.83136 -1.44857 0
M  V30 3226 C 297.531 -0.685174 -1.5569 0
M  V30 3227 O 298.716 -0.93544 -1.70186 0
M  V30 3228 C 295.846 -2.02522 -2.82138 0
M  V30 3229 C 294.8 -3.18302 -2.86126 0
M  V30 3230 C 294.126 -3.22989 -4.26125 0
M  V30 3231 C 295.426 -4.56796 -2.53248 0
M  V30 3232 H 297.12 -2.74201 -1.20226 0
M  V30 3233 H 294.666 -1.31938 -0.576922 0
M  V30 3234 H 296.619 -2.21904 -3.58241 0
M  V30 3235 H 295.343 -1.08172 -3.08166 0
M  V30 3236 H 294.002 -2.98747 -2.12475 0
M  V30 3237 H 293.65 -2.26267 -4.49235 0
M  V30 3238 H 293.35 -4.00781 -4.29708 0
M  V30 3239 H 294.874 -3.44559 -5.04094 0
M  V30 3240 H 296.288 -4.7631 -3.19064 0
M  V30 3241 H 294.685 -5.36862 -2.68141 0
M  V30 3242 H 295.755 -4.61606 -1.48484 0
M  V30 3243 N 297.098 0.621204 -1.44841 0
M  V30 3244 C 298.375 1.38 -1.38619 0
M  V30 3245 C 298.755 2.11041 -0.0498935 0
M  V30 3246 O 298.103 2.06992 0.967816 0
M  V30 3247 C 298.313 2.33817 -2.59096 0
M  V30 3248 C 299.661 2.96844 -3.03593 0
M  V30 3249 O 300.685 2.44141 -2.59371 0
M  V30 3250 O 299.544 3.92476 -3.80296 0
M  V30 3251 H 296.638 0.61811 -0.549426 0
M  V30 3252 H 299.184 0.645429 -1.56947 0
M  V30 3253 H 297.956 1.79012 -3.47952 0
M  V30 3254 H 297.579 3.14676 -2.43032 0
M  V30 3255 N 298.576 1.31904 0.862503 0
M  V30 3256 C 299.506 1.22782 1.98612 0
M  V30 3257 C 300.487 0.113362 1.69722 0
M  V30 3258 O 301.672 0.299218 1.91881 0
M  V30 3259 C 298.802 0.942058 3.34279 0
M  V30 3260 C 297.756 2.0169 3.77499 0
M  V30 3261 C 297.082 1.58369 5.10709 0
M  V30 3262 C 298.382 3.43096 3.93805 0
M  V30 3263 H 300.076 2.16788 2.06502 0
M  V30 3264 H 297.622 1.04366 0.992154 0
M  V30 3265 H 299.575 0.864818 4.1243 0
M  V30 3266 H 298.299 -0.0336603 3.26583 0
M  V30 3267 H 296.958 2.08416 3.01593 0
M  V30 3268 H 296.606 0.595628 4.99461 0
M  V30 3269 H 296.306 2.30279 5.40597 0
M  V30 3270 H 297.83 1.52067 5.91361 0
M  V30 3271 H 299.244 3.39003 4.62331 0
M  V30 3272 H 297.641 4.13288 4.35101 0
M  V30 3273 H 298.711 3.83334 2.96957 0
M  V30 3274 N 300.054 -1.07777 1.14986 0
M  V30 3275 C 301.282 -1.84018 0.945773 0
M  V30 3276 C 301.697 -1.81897 -0.505863 0
M  V30 3277 O 301.054 -1.22726 -1.35072 0
M  V30 3278 C 301.105 -3.31287 1.44677 0
M  V30 3279 O 300.826 -3.33449 2.84154 0
M  V30 3280 C 302.327 -4.24311 1.28355 0
M  V30 3281 H 299.547 -0.580716 0.336169 0
M  V30 3282 H 302.091 -1.36077 1.52654 0
M  V30 3283 H 300.246 -3.76594 0.908625 0
M  V30 3284 H 300.66 -4.25427 3.06777 0
M  V30 3285 H 302.134 -5.2573 1.68261 0
M  V30 3286 H 302.611 -4.38612 0.227184 0
M  V30 3287 H 303.217 -3.84836 1.81056 0
M  V30 3288 N 301.532 -0.945985 -1.26051 0
M  V30 3289 C 302.442 -0.465633 -2.29933 0
M  V30 3290 C 303.458 0.462761 -1.67733 0
M  V30 3291 O 304.634 0.341118 -1.9849 0
M  V30 3292 C 301.699 0.256994 -3.45746 0
M  V30 3293 C 300.76 -0.708549 -4.23412 0
M  V30 3294 C 299.993 -0.0203135 -5.33696 0
M  V30 3295 O 300.216 1.19571 -5.57726 0
M  V30 3296 O 299.15 -0.701459 -5.97799 0
M  V30 3297 H 302.976 -1.32866 -2.73094 0
M  V30 3298 H 300.561 -0.712071 -1.31339 0
M  V30 3299 H 302.443 0.663852 -4.16138 0
M  V30 3300 H 301.118 1.09533 -3.04605 0
M  V30 3301 H 300.025 -1.16545 -3.55483 0
M  V30 3302 H 301.358 -1.51465 -4.68315 0
M  V30 3303 N 303.011 1.40521 -0.713556 0
M  V30 3304 C 304.288 1.94775 -0.17943 0
M  V30 3305 C 304.668 1.65184 1.31444 0
M  V30 3306 O 304.016 0.968429 2.06963 0
M  V30 3307 C 304.226 3.45543 -0.489986 0
M  V30 3308 C 305.574 4.22442 -0.427536 0
M  V30 3309 O 306.598 3.53644 -0.425929 0
M  V30 3310 O 305.457 5.4501 -0.403292 0
M  V30 3311 H 302.551 0.826606 -0.0255192 0
M  V30 3312 H 305.097 1.5014 -0.790949 0
M  V30 3313 H 303.869 3.60432 -1.5233 0
M  V30 3314 H 303.492 3.97311 0.151598 0
M  V30 3315 N 304.489 0.459591 1.5075 0
M  V30 3316 C 305.766 -0.160371 1.94941 0
M  V30 3317 C 306.146 -1.58048 1.39943 0
M  V30 3318 O 305.494 -2.206 0.595629 0
M  V30 3319 C 305.704 -0.115432 3.48809 0
M  V30 3320 C 307.052 -0.310026 4.23467 0
M  V30 3321 O 308.076 -0.192543 3.55679 0
M  V30 3322 O 306.935 -0.546031 5.43765 0
M  V30 3323 H 304.029 -0.117925 0.818549 0
M  V30 3324 H 306.575 0.519169 1.61563 0
M  V30 3325 H 305.347 0.87652 3.81357 0
M  V30 3326 H 304.97 -0.836928 3.88692 0
M  V30 3327 N 305.967 -1.56429 0.191757 0
M  V30 3328 C 307.216 -1.9666 -0.448088 0
M  V30 3329 C 307.529 -1.08136 -1.62991 0
M  V30 3330 O 308.735 -1.38135 -2.33733 0
M  V30 3331 C 307.191 -3.49753 -0.848585 0
M  V30 3332 C 306.799 -4.46935 0.308764 0
M  V30 3333 C 308.543 -3.9876 -1.4557 0
M  V30 3334 C 306.45 -5.91293 -0.112506 0
M  V30 3335 H 305.38 -0.734312 -0.171179 0
M  V30 3336 H 308.031 -1.81301 0.283242 0
M  V30 3337 H 306.413 -3.60604 -1.63649 0
M  V30 3338 H 307.587 -4.47813 1.08627 0
M  V30 3339 H 305.902 -4.08102 0.827158 0
M  V30 3340 H 308.499 -5.04086 -1.78328 0
M  V30 3341 H 308.842 -3.42875 -2.36099 0
M  V30 3342 H 309.375 -3.9101 -0.731836 0
M  V30 3343 H 306.114 -6.51097 0.758514 0
M  V30 3344 H 305.634 -5.93676 -0.854941 0
M  V30 3345 H 307.313 -6.44663 -0.549448 0
M  V30 3346 N 307.445 0.0818655 -1.57387 0
M  V30 3347 C 308.392 1.09834 -2.0299 0
M  V30 3348 C 309.362 1.39043 -0.908639 0
M  V30 3349 O 310.547 1.50282 -1.17559 0
M  V30 3350 C 307.687 2.40971 -2.47037 0
M  V30 3351 C 306.8 2.18379 -3.7274 0
M  V30 3352 C 305.935 3.43008 -4.0561 0
M  V30 3353 C 304.974 3.15736 -5.24383 0
M  V30 3354 N 304.111 4.32667 -5.52941 0
M  V30 3355 H 308.951 0.702472 -2.89602 0
M  V30 3356 H 306.488 0.33531 -1.43227 0
M  V30 3357 H 308.446 3.1752 -2.70623 0
M  V30 3358 H 307.076 2.78379 -1.63417 0
M  V30 3359 H 306.128 1.32569 -3.56552 0
M  V30 3360 H 307.44 1.94227 -4.59431 0
M  V30 3361 H 306.594 4.27958 -4.30043 0
M  V30 3362 H 305.333 3.70225 -3.17466 0
M  V30 3363 H 304.338 2.2918 -4.99757 0
M  V30 3364 H 305.563 2.8985 -6.14136 0
M  V30 3365 H 303.509 4.59935 -4.67756 0
M  V30 3366 H 303.426 4.11753 -6.34031 0
M  V30 3367 H 304.694 5.18644 -5.81918 0
M  V30 3368 N 308.923 1.53595 0.353017 0
M  V30 3369 C 309.87 1.80919 1.43308 0
M  V30 3370 C 310.84 0.654288 1.5267 0
M  V30 3371 O 312.025 0.897759 1.6836 0
M  V30 3372 C 309.165 2.01605 2.80089 0
M  V30 3373 C 308.278 3.29321 2.79593 0
M  V30 3374 C 307.413 3.40125 4.0803 0
M  V30 3375 C 306.452 4.61826 4.01725 0
M  V30 3376 N 305.589 4.69716 5.21834 0
M  V30 3377 H 310.429 2.73074 1.19308 0
M  V30 3378 H 307.966 1.35263 0.578131 0
M  V30 3379 H 309.924 2.11586 3.59565 0
M  V30 3380 H 308.554 1.12772 3.0246 0
M  V30 3381 H 307.606 3.28229 1.92276 0
M  V30 3382 H 308.918 4.18884 2.70809 0
M  V30 3383 H 308.072 3.49488 4.95927 0
M  V30 3384 H 306.811 2.48601 4.19582 0
M  V30 3385 H 305.816 4.52552 3.12213 0
M  V30 3386 H 307.041 5.54705 3.91764 0
M  V30 3387 H 304.987 3.81097 5.33948 0
M  V30 3388 H 304.904 5.53202 5.1527 0
M  V30 3389 H 306.172 4.83376 6.11529 0
M  V30 3390 N 310.401 -0.613514 1.45168 0
M  V30 3391 C 311.348 -1.72456 1.53387 0
M  V30 3392 C 312.318 -1.6169 0.380191 0
M  V30 3393 O 313.503 -1.81356 0.592836 0
M  V30 3394 C 310.643 -3.10753 1.50088 0
M  V30 3395 C 309.756 -3.32368 2.75963 0
M  V30 3396 C 308.891 -4.60737 2.64376 0
M  V30 3397 C 307.93 -4.7559 3.85332 0
M  V30 3398 N 307.067 -5.95253 3.72315 0
M  V30 3399 H 311.907 -1.64768 2.48305 0
M  V30 3400 H 309.444 -0.803503 1.23216 0
M  V30 3401 H 311.402 -3.90758 1.46164 0
M  V30 3402 H 310.032 -3.17413 0.587243 0
M  V30 3403 H 309.084 -2.4618 2.89999 0
M  V30 3404 H 310.396 -3.39218 3.65695 0
M  V30 3405 H 309.55 -5.48928 2.58385 0
M  V30 3406 H 308.289 -4.56275 1.72233 0
M  V30 3407 H 307.294 -3.85824 3.91688 0
M  V30 3408 H 308.519 -4.81854 4.78533 0
M  V30 3409 H 306.465 -5.91847 2.82937 0
M  V30 3410 H 306.382 -6.03236 4.55677 0
M  V30 3411 H 307.65 -6.85958 3.70246 0
M  V30 3412 N 311.879 -1.3236 -0.855495 0
M  V30 3413 C 312.809 -1.23833 -1.97958 0
M  V30 3414 C 313.79 -0.122361 -1.69659 0
M  V30 3415 O 314.975 -0.30939 -1.9172 0
M  V30 3416 C 312.105 -0.959772 -3.33775 0
M  V30 3417 C 311.059 -2.03689 -3.76424 0
M  V30 3418 C 310.385 -1.61075 -5.09862 0
M  V30 3419 C 311.685 -3.4518 -3.9198 0
M  V30 3420 H 313.379 -2.1788 -2.0535 0
M  V30 3421 H 310.925 -1.04891 -0.986605 0
M  V30 3422 H 312.878 -0.886678 -4.11966 0
M  V30 3423 H 311.602 0.0163404 -3.26596 0
M  V30 3424 H 310.261 -2.10012 -3.00484 0
M  V30 3425 H 309.909 -0.622107 -4.99138 0
M  V30 3426 H 309.609 -2.33143 -5.39368 0
M  V30 3427 H 311.133 -1.55201 -5.90546 0
M  V30 3428 H 312.547 -3.4145 -4.60526 0
M  V30 3429 H 310.944 -4.1559 -4.32903 0
M  V30 3430 H 312.014 -3.84903 -2.94919 0
M  V30 3431 N 313.357 1.07166 -1.15556 0
M  V30 3432 C 314.634 1.76546 -0.842069 0
M  V30 3433 C 315.014 2.00453 0.661939 0
M  V30 3434 O 314.362 1.62452 1.60691 0
M  V30 3435 C 314.572 3.07266 -1.65495 0
M  V30 3436 C 315.92 3.81578 -1.86234 0
M  V30 3437 O 316.944 3.17083 -1.62287 0
M  V30 3438 O 315.803 4.97419 -2.26355 0
M  V30 3439 H 312.897 0.766756 -0.309862 0
M  V30 3440 H 315.443 1.13514 -1.26145 0
M  V30 3441 H 314.215 2.85494 -2.67598 0
M  V30 3442 H 313.838 3.7803 -1.23203 0
M  V30 3443 N 314.835 0.952656 1.25548 0
M  V30 3444 C 315.767 0.428609 2.25157 0
M  V30 3445 C 316.78 -0.454428 1.56329 0
M  V30 3446 O 317.969 -0.263023 1.76552 0
M  V30 3447 C 315.069 -0.401972 3.36508 0
M  V30 3448 C 314.242 0.467601 4.34893 0
M  V30 3449 C 313.301 -0.30445 5.25319 0
M  V30 3450 O 312.327 0.296473 5.68427 0
M  V30 3451 N 313.529 -1.59805 5.5807 0
M  V30 3452 H 316.294 1.28497 2.70756 0
M  V30 3453 H 313.855 0.822798 1.39433 0
M  V30 3454 H 315.847 -0.926134 3.9396 0
M  V30 3455 H 314.417 -1.15918 2.90313 0
M  V30 3456 H 313.637 1.17288 3.76347 0
M  V30 3457 H 314.925 1.06119 4.97611 0
M  V30 3458 H 314.323 -2.10823 5.24948 0
M  V30 3459 H 312.88 -2.06822 6.18116 0
M  V30 3460 N 316.313 -1.40141 0.720998 0
M  V30 3461 C 317.561 -2.0039 0.262323 0
M  V30 3462 C 317.882 -1.57469 -1.15015 0
M  V30 3463 O 317.152 -0.816582 -1.78069 0
M  V30 3464 H 315.732 -0.741063 0.093996 0
M  V30 3465 H 318.394 -1.71398 0.927835 0
M  V30 3466 H 317.49 -3.10658 0.299671 0
M  V30 3467 N 317.792 -0.46758 -1.50504 0
M  V30 3468 C 319.038 0.0808869 -2.03239 0
M  V30 3469 C 319.393 1.37721 -1.34353 0
M  V30 3470 O 318.686 1.86016 -0.459194 0
M  V30 3471 C 318.88 0.323995 -3.55928 0
M  V30 3472 C 318.709 -0.947215 -4.39611 0
M  V30 3473 C 317.479 -1.48951 -4.82848 0
M  V30 3474 C 319.677 -1.84166 -4.80195 0
M  V30 3475 N 317.659 -2.71011 -5.50842 0
M  V30 3476 C 319.03 -2.90815 -5.47564 0
M  V30 3477 C 321.085 -1.85246 -4.62156 0
M  V30 3478 C 319.788 -3.98529 -5.98805 0
M  V30 3479 C 321.814 -2.91914 -5.14335 0
M  V30 3480 C 321.176 -3.97282 -5.81676 0
M  V30 3481 H 317.275 -0.0103394 -0.781932 0
M  V30 3482 H 319.859 -0.635003 -1.84054 0
M  V30 3483 H 318.03 1.00892 -3.75067 0
M  V30 3484 H 319.762 0.866492 -3.95315 0
M  V30 3485 H 316.517 -1.03918 -4.62058 0
M  V30 3486 H 316.941 -3.32988 -5.89447 0
M  V30 3487 H 321.583 -1.05103 -4.09528 0
M  V30 3488 H 319.301 -4.79491 -6.50472 0
M  V30 3489 H 322.887 -2.93729 -5.0221 0
M  V30 3490 H 321.767 -4.78462 -6.21324 0
M  V30 3491 N 319.27 1.56325 -0.20005 0
M  V30 3492 C 320.516 1.98012 0.438059 0
M  V30 3493 C 320.849 1.08702 1.60927 0
M  V30 3494 O 320.124 0.140064 1.93995 0
M  V30 3495 C 320.407 3.48841 0.893419 0
M  V30 3496 C 320.26 4.48928 -0.279947 0
M  V30 3497 C 321.579 4.03498 1.75719 0
M  V30 3498 H 318.698 0.719918 0.157757 0
M  V30 3499 H 321.34 1.87743 -0.291968 0
M  V30 3500 H 319.49 3.57723 1.51547 0
M  V30 3501 H 321.162 4.52079 -0.91772 0
M  V30 3502 H 319.405 4.23694 -0.930919 0
M  V30 3503 H 320.076 5.5194 0.0812601 0
M  V30 3504 H 322.552 3.97427 1.23253 0
M  V30 3505 H 321.428 5.09393 2.04476 0
M  V30 3506 H 321.689 3.4906 2.71311 0
M  V30 3507 N 320.748 -0.0735177 1.57428 0
M  V30 3508 C 321.695 -1.08756 2.0357 0
M  V30 3509 C 322.665 -1.38559 0.916 0
M  V30 3510 O 323.85 -1.49656 1.18354 0
M  V30 3511 C 320.99 -2.39657 2.48311 0
M  V30 3512 C 320.103 -2.16399 3.73892 0
M  V30 3513 C 319.238 -3.40852 4.07423 0
M  V30 3514 C 318.277 -3.1295 5.2605 0
M  V30 3515 N 317.414 -4.29729 5.55228 0
M  V30 3516 H 322.254 -0.687104 2.8997 0
M  V30 3517 H 319.791 -0.327709 1.43403 0
M  V30 3518 H 321.749 -3.16081 2.72303 0
M  V30 3519 H 320.379 -2.77508 1.64891 0
M  V30 3520 H 319.431 -1.30676 3.57251 0
M  V30 3521 H 320.743 -1.91788 4.60455 0
M  V30 3522 H 319.897 -4.25671 4.32306 0
M  V30 3523 H 318.636 -3.68537 3.19425 0
M  V30 3524 H 317.641 -2.26526 5.00965 0
M  V30 3525 H 318.866 -2.86589 6.15665 0
M  V30 3526 H 316.812 -4.57448 4.70188 0
M  V30 3527 H 316.729 -4.08385 6.36206 0
M  V30 3528 H 317.997 -5.1555 5.84661 0
M  V30 3529 N 322.226 -1.5378 -0.344866 0
M  V30 3530 C 323.503 -1.61589 -1.10219 0
M  V30 3531 C 323.883 -0.436316 -2.06542 0
M  V30 3532 O 323.231 0.571543 -2.21237 0
M  V30 3533 C 323.441 -2.97602 -1.82301 0
M  V30 3534 C 324.789 -3.5291 -2.36093 0
M  V30 3535 O 325.813 -2.99768 -1.924 0
M  V30 3536 O 324.672 -4.45859 -3.16026 0
M  V30 3537 H 321.766 -0.653522 -0.506792 0
M  V30 3538 H 324.312 -1.66126 -0.346465 0
M  V30 3539 H 323.084 -3.74893 -1.12121 0
M  V30 3540 H 322.707 -2.9665 -2.64735 0
M  V30 3541 N 323.704 0.605807 -1.45491 0
M  V30 3542 C 324.981 1.36522 -1.40075 0
M  V30 3543 C 325.361 2.10976 -0.0722744 0
M  V30 3544 O 324.709 2.08007 0.945808 0
M  V30 3545 C 324.919 2.31056 -2.61561 0
M  V30 3546 C 326.267 2.93608 -3.06724 0
M  V30 3547 O 327.291 2.41376 -2.61946 0
M  V30 3548 O 326.15 3.88421 -3.84437 0
M  V30 3549 H 323.244 0.612248 -0.555951 0
M  V30 3550 H 325.79 0.628747 -1.57623 0
M  V30 3551 H 324.562 1.75311 -3.49831 0
M  V30 3552 H 324.185 3.12081 -2.46356 0
M  V30 3553 N 325.182 1.32811 0.848464 0
M  V30 3554 C 326.407 1.26882 1.6406 0
M  V30 3555 C 326.832 -0.15913 1.87426 0
M  V30 3556 O 326.19 -1.11258 1.43148 0
M  V30 3557 C 326.238 2.03997 2.97351 0
M  V30 3558 O 325.342 1.39201 3.88197 0
M  V30 3559 H 324.683 0.436982 0.499943 0
M  V30 3560 H 327.213 1.75224 1.0563 0
M  V30 3561 H 327.223 2.14403 3.47124 0
M  V30 3562 H 325.898 3.0783 2.79666 0
M  V30 3563 H 324.475 1.37381 3.46671 0
M  V30 3564 N 326.66 -1.06551 1.16123 0
M  V30 3565 C 327.907 -1.79302 0.941126 0
M  V30 3566 C 328.235 -1.87105 -0.531235 0
M  V30 3567 O 327.49 -1.35692 -1.41018 0
M  V30 3568 C 327.789 -3.23911 1.51052 0
M  V30 3569 C 327.455 -3.36193 3.00475 0
M  V30 3570 C 326.117 -3.39252 3.41265 0
M  V30 3571 C 328.469 -3.38326 3.96465 0
M  V30 3572 C 325.797 -3.42057 4.76669 0
M  V30 3573 C 328.149 -3.4267 5.31752 0
M  V30 3574 C 326.813 -3.4401 5.72026 0
M  V30 3575 H 326.083 -0.656111 0.344382 0
M  V30 3576 H 328.73 -1.25325 1.44796 0
M  V30 3577 H 327.035 -3.80723 0.925063 0
M  V30 3578 H 328.732 -3.78793 1.31593 0
M  V30 3579 H 325.322 -3.34516 2.6795 0
M  V30 3580 H 329.506 -3.35176 3.6602 0
M  V30 3581 H 324.762 -3.41398 5.07206 0
M  V30 3582 H 328.936 -3.43268 6.05921 0
M  V30 3583 H 326.563 -3.45937 6.76928 0
M  V30 3584 N 328.138 -0.959301 -1.25041 0
M  V30 3585 C 329.384 -0.617525 -1.9317 0
M  V30 3586 C 329.717 0.843981 -1.74902 0
M  V30 3587 O 328.992 1.60615 -1.09696 0
M  V30 3588 C 329.275 -0.982736 -3.46431 0
M  V30 3589 C 329.128 -2.50032 -3.73904 0
M  V30 3590 C 330.447 -0.511176 -4.37121 0
M  V30 3591 H 327.566 -0.22582 -0.701552 0
M  V30 3592 H 330.208 -1.19679 -1.4757 0
M  V30 3593 H 328.358 -0.489806 -3.854 0
M  V30 3594 H 330.03 -3.06737 -3.44544 0
M  V30 3595 H 328.273 -2.93598 -3.19348 0
M  V30 3596 H 328.944 -2.70635 -4.81103 0
M  V30 3597 H 331.42 -0.934075 -4.0548 0
M  V30 3598 H 330.296 -0.795361 -5.43107 0
M  V30 3599 H 330.557 0.588834 -4.38161 0
M  V30 3600 N 329.616 1.39756 -0.72842 0
M  V30 3601 C 331.027 1.83498 -0.344289 0
M  V30 3602 C 331.378 1.60868 1.12321 0
M  V30 3603 O 330.503 1.09634 1.86573 0
M  V30 3604 C 331.098 3.33114 -0.618112 0
M  V30 3605 C 329.657 3.753 -0.287549 0
M  V30 3606 C 328.804 2.62831 -0.884048 0
M  V30 3607 H 331.755 1.28842 -0.926578 0
M  V30 3608 H 331.776 3.80334 0.112349 0
M  V30 3609 H 331.288 3.49553 -1.68625 0
M  V30 3610 H 329.389 3.64451 0.775012 0
M  V30 3611 H 329.502 4.72945 -0.765512 0
M  V30 3612 H 327.866 2.52792 -0.311149 0
M  V30 3613 H 328.649 2.82078 -1.95671 0
M  V30 3614 N 331.094 0.475555 1.50254 0
M  V30 3615 C 332.024 -0.30611 2.31485 0
M  V30 3616 C 333.005 -0.986228 1.38591 0
M  V30 3617 O 334.19 -0.982541 1.67511 0
M  V30 3618 C 331.32 -1.38588 3.1845 0
M  V30 3619 C 330.274 -0.827115 4.19932 0
M  V30 3620 C 329.6 -2.00551 4.95665 0
M  V30 3621 C 330.9 0.16463 5.2204 0
M  V30 3622 H 332.594 0.371866 2.97082 0
M  V30 3623 H 330.14 0.180282 1.42867 0
M  V30 3624 H 332.093 -1.94023 3.74076 0
M  V30 3625 H 330.817 -2.09269 2.50747 0
M  V30 3626 H 329.476 -0.294702 3.65414 0
M  V30 3627 H 329.124 -2.6994 4.2443 0
M  V30 3628 H 328.824 -1.63784 5.64313 0
M  V30 3629 H 330.348 -2.56468 5.54127 0
M  V30 3630 H 331.762 -0.300699 5.72511 0
M  V30 3631 H 330.159 0.446813 5.98434 0
M  V30 3632 H 331.229 1.08905 4.72512 0
M  V30 3633 N 332.573 -1.56217 0.208337 0
M  V30 3634 C 333.52 -2.19699 -0.707192 0
M  V30 3635 C 334.49 -1.14836 -1.20008 0
M  V30 3636 O 335.675 -1.4314 -1.26157 0
M  V30 3637 C 332.815 -2.87061 -1.91546 0
M  V30 3638 C 331.928 -4.06483 -1.46271 0
M  V30 3639 C 331.063 -4.61665 -2.62752 0
M  V30 3640 C 330.102 -5.73417 -2.14147 0
M  V30 3641 N 329.239 -6.22948 -3.23853 0
M  V30 3642 H 334.079 -2.97575 -0.159111 0
M  V30 3643 H 331.616 -1.46948 -0.0667874 0
M  V30 3644 H 333.574 -3.24294 -2.62468 0
M  V30 3645 H 332.204 -2.11725 -2.43664 0
M  V30 3646 H 331.256 -3.74825 -0.648886 0
M  V30 3647 H 332.568 -4.87271 -1.06622 0
M  V30 3648 H 331.722 -5.01272 -3.41776 0
M  V30 3649 H 330.461 -3.80013 -3.05682 0
M  V30 3650 H 329.466 -5.33326 -1.33581 0
M  V30 3651 H 330.691 -6.56897 -1.72232 0
M  V30 3652 H 328.637 -5.44213 -3.6629 0
M  V30 3653 H 328.554 -6.98823 -2.88414 0
M  V30 3654 H 329.822 -6.6721 -4.03052 0
M  V30 3655 N 334.051 0.0651679 -1.57465 0
M  V30 3656 C 334.998 1.07675 -2.04144 0
M  V30 3657 C 335.968 1.38071 -0.923335 0
M  V30 3658 O 337.153 1.49026 -1.19146 0
M  V30 3659 C 334.293 2.38337 -2.49579 0
M  V30 3660 C 333.406 2.14413 -3.75035 0
M  V30 3661 C 332.541 3.38686 -4.09225 0
M  V30 3662 C 331.58 3.10156 -5.27702 0
M  V30 3663 N 330.717 4.26778 -5.57499 0
M  V30 3664 H 335.557 0.671716 -2.90331 0
M  V30 3665 H 333.094 0.3201 -1.43575 0
M  V30 3666 H 335.052 3.14632 -2.73975 0
M  V30 3667 H 333.682 2.7663 -1.6636 0
M  V30 3668 H 332.734 1.2878 -3.57939 0
M  V30 3669 H 334.046 1.89344 -4.61466 0
M  V30 3670 H 333.2 4.23373 -4.34558 0
M  V30 3671 H 331.939 3.66837 -3.21374 0
M  V30 3672 H 330.944 2.23866 -5.02159 0
M  V30 3673 H 332.169 2.8332 -6.17176 0
M  V30 3674 H 330.115 4.54948 -4.72608 0
M  V30 3675 H 330.032 4.05005 -6.38362 0
M  V30 3676 H 331.3 5.12443 -5.87386 0
M  V30 3677 N 335.529 1.53961 0.336706 0
M  V30 3678 C 336.775 1.7179 1.07777 0
M  V30 3679 C 337.108 0.483263 1.88091 0
M  V30 3680 O 336.383 -0.519747 1.87427 0
M  V30 3681 C 336.666 2.98558 2.01334 0
M  V30 3682 C 336.519 4.32245 1.24437 0
M  V30 3683 C 337.838 3.21023 3.01052 0
M  V30 3684 H 334.957 0.625089 0.390426 0
M  V30 3685 H 337.599 1.86641 0.35567 0
M  V30 3686 H 335.749 2.86028 2.62908 0
M  V30 3687 H 337.421 4.56637 0.654243 0
M  V30 3688 H 335.664 4.30344 0.546458 0
M  V30 3689 H 336.335 5.17137 1.93063 0
M  V30 3690 H 338.811 3.32929 2.49595 0
M  V30 3691 H 337.687 4.11104 3.6371 0
M  V30 3692 H 337.948 2.37637 3.72802 0
M  V30 3693 N 337.007 -0.598083 1.45811 0
M  V30 3694 C 337.954 -1.7082 1.55207 0
M  V30 3695 C 338.924 -1.61278 0.39732 0
M  V30 3696 O 340.109 -1.80717 0.612038 0
M  V30 3697 C 337.249 -3.09144 1.53376 0
M  V30 3698 C 336.362 -3.29423 2.79472 0
M  V30 3699 C 335.497 -4.57907 2.69248 0
M  V30 3700 C 334.536 -4.71476 3.90354 0
M  V30 3701 N 333.673 -5.9127 3.78608 0
M  V30 3702 H 338.513 -1.62125 2.50039 0
M  V30 3703 H 336.05 -0.790389 1.24062 0
M  V30 3704 H 338.008 -3.89186 1.50301 0
M  V30 3705 H 336.638 -3.16773 0.620876 0
M  V30 3706 H 335.69 -2.43091 2.92594 0
M  V30 3707 H 337.002 -3.3532 3.69272 0
M  V30 3708 H 336.156 -5.46157 2.64192 0
M  V30 3709 H 334.895 -4.54423 1.77063 0
M  V30 3710 H 333.9 -3.81648 3.95759 0
M  V30 3711 H 335.125 -4.76751 4.83617 0
M  V30 3712 H 333.071 -5.88813 2.89199 0
M  V30 3713 H 332.988 -5.98369 4.6205 0
M  V30 3714 H 334.256 -6.81992 3.77501 0
M  V30 3715 N 338.485 -1.33259 -0.841409 0
M  V30 3716 C 339.896 -1.22066 -1.41269 0
M  V30 3717 C 340.247 0.161479 -1.95534 0
M  V30 3718 O 339.372 1.06094 -1.88608 0
M  V30 3719 C 339.967 -2.20996 -2.568 0
M  V30 3720 C 338.526 -2.13649 -3.09888 0
M  V30 3721 C 337.673 -2.08623 -1.82679 0
M  V30 3722 H 340.624 -1.44895 -0.647395 0
M  V30 3723 H 340.645 -1.81621 -3.34356 0
M  V30 3724 H 340.157 -3.2158 -2.17274 0
M  V30 3725 H 338.258 -1.16359 -3.53965 0
M  V30 3726 H 338.371 -3.04079 -3.70234 0
M  V30 3727 H 336.735 -1.54061 -2.02824 0
M  V30 3728 H 337.518 -3.1101 -1.45353 0
M  V30 3729 N 339.963 1.05934 -1.16686 0
M  V30 3730 C 341.24 1.75643 -0.860747 0
M  V30 3731 C 341.62 2.01144 0.640641 0
M  V30 3732 O 340.968 1.64147 1.58959 0
M  V30 3733 C 341.178 3.05493 -1.68745 0
M  V30 3734 C 342.526 3.79581 -1.90271 0
M  V30 3735 O 343.55 3.15344 -1.65641 0
M  V30 3736 O 342.409 4.9499 -2.31618 0
M  V30 3737 H 339.503 0.763426 -0.317977 0
M  V30 3738 H 342.049 1.1217 -1.27342 0
M  V30 3739 H 340.821 2.8264 -2.70611 0
M  V30 3740 H 340.444 3.76702 -1.27206 0
M  V30 3741 N 341.441 0.965919 1.2453 0
M  V30 3742 C 342.373 0.452465 2.2469 0
M  V30 3743 C 343.386 -0.437821 1.56802 0
M  V30 3744 O 344.575 -0.244283 1.76821 0
M  V30 3745 C 341.675 -0.366258 3.36915 0
M  V30 3746 C 340.848 0.513701 4.34373 0
M  V30 3747 C 339.907 -0.248716 5.25612 0
M  V30 3748 O 338.933 0.356745 5.68081 0
M  V30 3749 N 340.135 -1.53877 5.59734 0
M  V30 3750 H 342.9 1.31361 2.69378 0
M  V30 3751 H 340.461 0.837541 1.38553 0
M  V30 3752 H 342.453 -0.884297 3.94921 0
M  V30 3753 H 341.023 -1.12832 2.91526 0
M  V30 3754 H 340.243 1.21273 3.75082 0
M  V30 3755 H 341.531 1.11391 4.96457 0
M  V30 3756 H 340.929 -2.05243 5.27154 0
M  V30 3757 H 339.486 -2.00254 6.20275 0
M  V30 3758 N 342.919 -1.39368 0.735821 0
M  V30 3759 C 343.829 -2.34395 0.0979693 0
M  V30 3760 C 344.845 -1.58361 -0.720968 0
M  V30 3761 O 346.021 -1.90648 -0.649245 0
M  V30 3762 C 343.086 -3.37393 -0.797916 0
M  V30 3763 C 342.147 -4.29287 0.0333662 0
M  V30 3764 C 341.38 -5.27365 -0.819854 0
M  V30 3765 O 341.603 -5.31959 -2.05855 0
M  V30 3766 O 340.537 -6.01389 -0.248079 0
M  V30 3767 H 344.363 -2.90601 0.882315 0
M  V30 3768 H 341.948 -1.40909 0.4965 0
M  V30 3769 H 343.83 -4.00505 -1.31048 0
M  V30 3770 H 342.505 -2.83571 -1.56106 0
M  V30 3771 H 341.412 -3.69395 0.591475 0
M  V30 3772 H 342.745 -4.86317 0.758752 0
M  V30 3773 N 344.397 -0.483516 -1.5 0
M  V30 3774 C 345.344 0.304164 -2.28787 0
M  V30 3775 C 346.314 0.976114 -1.34392 0
M  V30 3776 O 347.499 0.986156 -1.63339 0
M  V30 3777 C 344.639 1.37298 -3.16612 0
M  V30 3778 C 343.752 0.714561 -4.26049 0
M  V30 3779 C 342.887 1.76232 -5.01114 0
M  V30 3780 C 341.926 1.08483 -6.0241 0
M  V30 3781 N 341.063 2.076 -6.70706 0
M  V30 3782 H 345.903 -0.373981 -2.95644 0
M  V30 3783 H 343.44 -0.196275 -1.45785 0
M  V30 3784 H 345.398 2.00445 -3.65893 0
M  V30 3785 H 344.028 2.02012 -2.51776 0
M  V30 3786 H 343.08 -0.0297798 -3.80388 0
M  V30 3787 H 344.392 0.180383 -4.98474 0
M  V30 3788 H 343.546 2.46929 -5.54176 0
M  V30 3789 H 342.285 2.33033 -4.28424 0
M  V30 3790 H 341.29 0.363545 -5.48597 0
M  V30 3791 H 342.515 0.523551 -6.77079 0
M  V30 3792 H 340.461 2.63394 -6.00799 0
M  V30 3793 H 340.378 1.59201 -7.39047 0
M  V30 3794 H 341.646 2.77639 -7.2838 0
M  V30 3795 N 345.875 1.56104 -0.216619 0
M  V30 3796 C 346.805 2.23063 0.690296 0
M  V30 3797 C 347.786 1.20072 1.20485 0
M  V30 3798 O 348.971 1.48643 1.24976 0
M  V30 3799 C 346.101 2.90672 1.90072 0
M  V30 3800 C 345.055 4.00092 1.5202 0
M  V30 3801 C 344.381 4.54972 2.80899 0
M  V30 3802 C 345.681 5.17398 0.71391 0
M  V30 3803 H 347.375 2.99109 0.132038 0
M  V30 3804 H 344.921 1.43866 0.0620664 0
M  V30 3805 H 346.874 3.36204 2.54057 0
M  V30 3806 H 345.598 2.12066 2.48386 0
M  V30 3807 H 344.257 3.55283 0.903839 0
M  V30 3808 H 343.905 3.73102 3.37348 0
M  V30 3809 H 343.605 5.28817 2.56176 0
M  V30 3810 H 345.129 5.0322 3.45836 0
M  V30 3811 H 346.543 5.59342 1.25735 0
M  V30 3812 H 344.94 5.97444 0.563951 0
M  V30 3813 H 346.01 4.84088 -0.280527 0
M  V30 3814 N 347.353 -0.0568162 1.57498 0
M  V30 3815 C 348.599 -0.75422 1.88253 0
M  V30 3816 C 348.932 -1.76461 0.810865 0
M  V30 3817 O 348.207 -1.93691 -0.177259 0
M  V30 3818 C 348.49 -1.44878 3.2967 0
M  V30 3819 C 348.343 -0.453789 4.47505 0
M  V30 3820 C 349.662 -2.38994 3.69554 0
M  V30 3821 H 346.781 -0.272724 0.684683 0
M  V30 3822 H 349.423 -0.0172113 1.89992 0
M  V30 3823 H 347.573 -2.077 3.28318 0
M  V30 3824 H 349.245 0.170371 4.60985 0
M  V30 3825 H 347.488 0.229552 4.33192 0
M  V30 3826 H 348.159 -0.977699 5.43273 0
M  V30 3827 H 350.635 -1.86239 3.72095 0
M  V30 3828 H 349.511 -2.84587 4.69363 0
M  V30 3829 H 349.772 -3.24461 3.00296 0
M  V30 3830 N 348.832 -1.54138 -0.328536 0
M  V30 3831 C 350.057 -1.76378 -1.09112 0
M  V30 3832 C 350.482 -0.508596 -1.81094 0
M  V30 3833 O 349.84 0.539598 -1.73084 0
M  V30 3834 C 349.888 -2.95358 -2.06872 0
M  V30 3835 O 348.992 -2.66556 -3.14677 0
M  V30 3836 H 348.333 -0.584614 -0.314838 0
M  V30 3837 H 350.863 -2.01146 -0.374348 0
M  V30 3838 H 350.873 -3.22566 -2.4983 0
M  V30 3839 H 349.548 -3.86385 -1.5388 0
M  V30 3840 H 348.125 -2.50282 -2.7643 0
M  V30 3841 N 350.31 0.590341 -1.46126 0
M  V30 3842 C 351.22 1.72793 -1.58681 0
M  V30 3843 C 352.236 1.67516 -0.470566 0
M  V30 3844 O 353.412 1.87562 -0.733642 0
M  V30 3845 C 350.477 3.09287 -1.5666 0
M  V30 3846 C 349.538 3.25886 -2.79458 0
M  V30 3847 C 348.771 4.55869 -2.77524 0
M  V30 3848 O 348.994 5.3928 -1.85832 0
M  V30 3849 O 347.928 4.75552 -3.68964 0
M  V30 3850 H 351.754 1.65149 -2.54872 0
M  V30 3851 H 349.339 0.756486 -1.28832 0
M  V30 3852 H 351.221 3.90577 -1.58202 0
M  V30 3853 H 349.896 3.17385 -0.636271 0
M  V30 3854 H 348.803 2.44119 -2.83472 0
M  V30 3855 H 350.136 3.22675 -3.71674 0
M  V30 3856 N 351.788 1.33704 0.83433 0
M  V30 3857 C 352.751 1.24244 1.92603 0
M  V30 3858 C 353.751 0.160383 1.59998 0
M  V30 3859 O 354.941 0.412228 1.69252 0
M  V30 3860 C 352.073 0.91555 3.28376 0
M  V30 3861 H 353.266 2.21287 2.02416 0
M  V30 3862 H 350.819 1.17827 1.02696 0
M  V30 3863 H 351.554 -0.0521886 3.24258 0
M  V30 3864 H 351.339 1.69811 3.53422 0
M  V30 3865 H 352.829 0.874231 4.08347 0
M  V30 3866 N 353.266 -1.05314 1.17247 0
M  V30 3867 C 354.494 -1.81971 0.984593 0
M  V30 3868 C 354.909 -1.82929 -0.467166 0
M  V30 3869 O 354.266 -1.25564 -1.32438 0
M  V30 3870 C 354.317 -3.28143 1.51672 0
M  V30 3871 O 354.038 -3.27347 2.91163 0
M  V30 3872 C 355.539 -4.21493 1.37326 0
M  V30 3873 H 352.759 -0.573455 0.348411 0
M  V30 3874 H 355.303 -1.32808 1.55506 0
M  V30 3875 H 353.458 -3.74582 0.988302 0
M  V30 3876 H 353.872 -4.18824 3.15732 0
M  V30 3877 H 355.346 -5.22043 1.79375 0
M  V30 3878 H 355.823 -4.38031 0.320169 0
M  V30 3879 H 356.429 -3.80909 1.89178 0
M  V30 3880 N 354.744 -0.972509 -1.24016 0
M  V30 3881 C 355.969 -0.654417 -1.96805 0
M  V30 3882 C 356.394 0.770398 -1.716 0
M  V30 3883 O 355.752 1.52361 -0.982647 0
M  V30 3884 C 355.8 -0.941031 -3.48105 0
M  V30 3885 O 354.904 -0.0289472 -4.1239 0
M  V30 3886 H 354.245 -0.24692 -0.616382 0
M  V30 3887 H 356.775 -1.30396 -1.57664 0
M  V30 3888 H 356.785 -0.87452 -3.98517 0
M  V30 3889 H 355.46 -1.97939 -3.65777 0
M  V30 3890 H 354.037 -0.149192 -3.72601 0
M  V30 3891 N 356.222 1.38976 -0.743202 0
M  V30 3892 C 357.152 2.33171 -0.123873 0
M  V30 3893 C 358.133 1.54336 0.71516 0
M  V30 3894 O 359.318 1.82696 0.658467 0
M  V30 3895 C 356.448 3.38474 0.777978 0
M  V30 3896 C 355.402 4.27979 0.0424758 0
M  V30 3897 C 354.728 5.2405 1.06189 0
M  V30 3898 C 356.028 5.10155 -1.1198 0
M  V30 3899 H 357.722 2.85213 -0.910709 0
M  V30 3900 H 355.268 1.37133 -0.439388 0
M  V30 3901 H 357.221 4.03328 1.22084 0
M  V30 3902 H 355.945 2.84891 1.59702 0
M  V30 3903 H 354.604 3.64616 -0.380853 0
M  V30 3904 H 354.252 4.66758 1.87472 0
M  V30 3905 H 353.952 5.84785 0.574485 0
M  V30 3906 H 355.476 5.9178 1.50428 0
M  V30 3907 H 356.89 5.68307 -0.75499 0
M  V30 3908 H 355.287 5.80073 -1.53738 0
M  V30 3909 H 356.357 4.44504 -1.93764 0
M  V30 3910 N 357.7 0.491464 1.49741 0
M  V30 3911 C 358.632 -0.328609 2.26832 0
M  V30 3912 C 359.645 -0.939113 1.32983 0
M  V30 3913 O 360.834 -0.824067 1.58339 0
M  V30 3914 C 357.934 -1.47675 3.05033 0
M  V30 3915 C 357.107 -0.975305 4.26388 0
M  V30 3916 C 356.166 -1.99991 4.86714 0
M  V30 3917 O 355.192 -1.57229 5.47054 0
M  V30 3918 N 356.394 -3.32962 4.75517 0
M  V30 3919 H 359.159 0.332377 2.97851 0
M  V30 3920 H 356.72 0.323441 1.58636 0
M  V30 3921 H 358.712 -2.15954 3.42266 0
M  V30 3922 H 357.282 -2.04206 2.36683 0
M  V30 3923 H 356.502 -0.117723 3.94024 0
M  V30 3924 H 357.79 -0.618531 5.05026 0
M  V30 3925 H 357.188 -3.70399 4.27576 0
M  V30 3926 H 355.745 -3.96982 5.16961 0
M  V30 3927 N 359.178 -1.55987 0.224894 0
M  V30 3928 C 360.426 -1.97998 -0.405099 0
M  V30 3929 C 360.747 -1.11387 -1.60056 0
M  V30 3930 O 360.017 -0.191645 -1.9496 0
M  V30 3931 H 358.597 -0.731235 -0.152658 0
M  V30 3932 H 361.259 -1.92279 0.318567 0
M  V30 3933 H 360.355 -3.03463 -0.729167 0
M  V30 3934 N 360.656 0.0484629 -1.57525 0
M  V30 3935 C 361.902 0.744226 -1.88651 0
M  V30 3936 C 362.235 1.76029 -0.820212 0
M  V30 3937 O 361.51 1.93782 0.166985 0
M  V30 3938 C 361.793 1.43128 -3.30434 0
M  V30 3939 C 361.646 0.43005 -4.47739 0
M  V30 3940 C 362.965 2.37031 -3.70816 0
M  V30 3941 H 360.084 0.269089 -0.68612 0
M  V30 3942 H 362.726 0.00713532 -1.89999 0
M  V30 3943 H 360.876 2.05956 -3.29415 0
M  V30 3944 H 362.548 -0.194816 -4.60888 0
M  V30 3945 H 360.791 -0.252522 -4.33064 0
M  V30 3946 H 361.462 0.948874 -5.43783 0
M  V30 3947 H 363.938 1.84263 -3.73077 0
M  V30 3948 H 362.814 2.82094 -4.70865 0
M  V30 3949 H 363.075 3.22864 -3.02012 0
M  V30 3950 N 362.134 1.5431 0.320358 0
M  V30 3951 C 363.362 1.76636 1.07738 0
M  V30 3952 C 363.777 0.51649 1.81598 0
M  V30 3953 O 363.134 -0.512942 1.75143 0
M  V30 3954 C 363.185 2.96158 2.07299 0
M  V30 3955 O 362.906 4.16313 1.36438 0
M  V30 3956 C 364.407 3.3072 2.95193 0
M  V30 3957 H 361.627 0.589597 0.320339 0
M  V30 3958 H 364.171 2.01207 0.36551 0
M  V30 3959 H 362.326 2.73851 2.74016 0
M  V30 3960 H 362.74 4.83565 2.03138 0
M  V30 3961 H 364.214 4.17643 3.60941 0
M  V30 3962 H 364.691 2.48026 3.62463 0
M  V30 3963 H 365.297 3.55117 2.34034 0
M  V30 3964 N 363.613 -0.582584 1.46437 0
M  V30 3965 C 365.029 -0.905962 1.31394 0
M  V30 3966 C 365.229 -1.99468 0.285476 0
M  V30 3967 O 364.285 -2.50566 -0.311914 0
M  V30 3968 C 365.598 -1.3232 2.70022 0
M  V30 3969 C 367.146 -1.43604 2.78113 0
M  V30 3970 C 367.621 -1.88694 4.17323 0
M  V30 3971 N 369.112 -1.95887 4.19741 0
M  V30 3972 C 369.847 -2.32051 5.24347 0
M  V30 3973 N 369.343 -2.67006 6.39281 0
M  V30 3974 N 371.136 -2.32606 5.11713 0
M  V30 3975 H 363.287 0.1366 2.1196 0
M  V30 3976 H 365.55 -0.00155736 0.947999 0
M  V30 3977 H 365.256 -0.597242 3.46592 0
M  V30 3978 H 365.13 -2.28469 3.00136 0
M  V30 3979 H 367.517 -2.15286 2.01832 0
M  V30 3980 H 367.598 -0.457059 2.51684 0
M  V30 3981 H 367.242 -1.1759 4.941 0
M  V30 3982 H 367.172 -2.8755 4.4116 0
M  V30 3983 H 369.663 -1.71362 3.36814 0
M  V30 3984 H 369.976 -2.93554 7.14875 0
M  V30 3985 H 368.321 -2.64644 6.42642 0
M  V30 3986 H 371.512 -2.04721 4.2096 0
M  V30 3987 H 371.685 -2.60462 5.93349 0
M  V30 3988 N 365.091 -1.34144 -0.827227 0
M  V30 3989 C 366.319 -1.29325 -1.61501 0
M  V30 3990 C 366.734 0.13354 -1.88327 0
M  V30 3991 O 366.091 1.0793 -1.47164 0
M  V30 3992 C 366.142 -2.07746 -2.95844 0
M  V30 3993 O 365.863 -3.4486 -2.70191 0
M  V30 3994 C 367.364 -2.10273 -3.90256 0
M  V30 3995 H 364.584 -0.445069 -0.50215 0
M  V30 3996 H 367.128 -1.76693 -1.02955 0
M  V30 3997 H 365.283 -1.6403 -3.5096 0
M  V30 3998 H 365.697 -3.85345 -3.55822 0
M  V30 3999 H 367.171 -2.69575 -4.81698 0
M  V30 4000 H 367.648 -1.096 -4.25305 0
M  V30 4001 H 368.254 -2.54059 -3.41078 0
M  V30 4002 N 366.569 1.04691 -1.17803 0
M  V30 4003 C 367.517 2.14665 -0.895635 0
M  V30 4004 C 368.511 1.68806 0.141679 0
M  V30 4005 O 369.717 1.79999 -0.00587914 0
M  V30 4006 H 366.092 0.701038 -0.272121 0
M  V30 4007 H 368.063 2.35685 -1.83017 0
M  V30 4008 C 366.812 3.45019 -0.430962 0
M  V30 4009 H 366.135 3.8071 -1.22064 0
M  V30 4010 H 367.575 4.23125 -0.272301 0
M  V30 4011 C 366.034 3.25943 0.852207 0
M  V30 4012 O 366.564 3.5296 1.91786 0
M  V30 4013 N 364.77 2.79304 0.802346 0
M  V30 4014 H 364.317 2.57518 -0.0650788 0
M  V30 4015 H 364.275 2.66921 1.66134 0
M  V30 4016 N 368.047 0.979072 1.23499 0
M  V30 4017 C 369.293 0.648178 1.92163 0
M  V30 4018 C 369.626 -0.816049 1.76222 0
M  V30 4019 O 368.901 -1.58849 1.12237 0
M  V30 4020 C 369.184 1.03773 3.44824 0
M  V30 4021 C 369.037 2.55948 3.69879 0
M  V30 4022 C 370.356 0.580653 4.36253 0
M  V30 4023 H 367.475 0.236952 0.69787 0
M  V30 4024 H 370.117 1.22012 1.45647 0
M  V30 4025 H 368.267 0.551058 3.84572 0
M  V30 4026 H 369.939 3.12179 3.3962 0
M  V30 4027 H 368.182 2.98641 3.14636 0
M  V30 4028 H 368.853 2.78255 4.76737 0
M  V30 4029 H 371.329 0.998465 4.03943 0
M  V30 4030 H 370.205 0.881663 5.41773 0
M  V30 4031 H 370.466 -0.519052 4.39042 0
M  V30 4032 N 369.525 -1.3858 0.750561 0
M  V30 4033 C 370.75 -2.04997 0.314812 0
M  V30 4034 C 371.175 -1.56235 -1.04749 0
M  V30 4035 O 370.533 -0.712981 -1.66692 0
M  V30 4036 C 370.581 -3.58961 0.343415 0
M  V30 4037 O 369.685 -4.07025 -0.663628 0
M  V30 4038 H 369.026 -0.649081 0.139962 0
M  V30 4039 H 371.556 -1.77313 1.02084 0
M  V30 4040 H 371.566 -4.07542 0.193233 0
M  V30 4041 H 370.241 -3.93811 1.33738 0
M  V30 4042 H 368.818 -3.6982 -0.478307 0
M  V30 4043 N 371.003 -0.499398 -1.49478 0
M  V30 4044 C 372.228 0.044722 -2.07352 0
M  V30 4045 C 372.653 1.30207 -1.35749 0
M  V30 4046 O 372.011 1.76516 -0.413732 0
M  V30 4047 C 372.059 0.283013 -3.59488 0
M  V30 4048 O 371.163 1.35804 -3.89398 0
M  V30 4049 H 370.504 -0.0255147 -0.66351 0
M  V30 4050 H 373.034 -0.698561 -1.92305 0
M  V30 4051 H 373.044 0.515007 -4.04737 0
M  V30 4052 H 371.719 -0.635636 -4.11014 0
M  V30 4053 H 370.296 1.11113 -3.55961 0
M  V30 4054 N 372.481 1.55866 -0.233164 0
M  V30 4055 C 373.897 1.59133 0.121988 0
M  V30 4056 C 374.097 1.25016 1.58029 0
M  V30 4057 O 373.153 0.990922 2.32243 0
M  V30 4058 C 374.466 2.99932 -0.214792 0
M  V30 4059 C 376.014 3.12601 -0.157971 0
M  V30 4060 C 376.489 4.55597 -0.46859 0
M  V30 4061 N 377.98 4.61305 -0.418585 0
M  V30 4062 C 378.715 5.69903 -0.63227 0
M  V30 4063 N 378.211 6.86819 -0.90835 0
M  V30 4064 N 380.004 5.59264 -0.563913 0
M  V30 4065 H 372.155 1.76315 -1.18434 0
M  V30 4066 H 374.418 0.820093 -0.475553 0
M  V30 4067 H 374.124 3.29588 -1.22739 0
M  V30 4068 H 373.998 3.74327 0.464691 0
M  V30 4069 H 376.385 2.82735 0.845283 0
M  V30 4070 H 376.466 2.40511 -0.871102 0
M  V30 4071 H 376.11 4.86182 -1.46934 0
M  V30 4072 H 376.04 5.25928 0.265865 0
M  V30 4073 H 378.531 3.77297 -0.213368 0
M  V30 4074 H 378.844 7.65507 -1.05919 0
M  V30 4075 H 377.189 6.88536 -0.945673 0
M  V30 4076 H 380.38 4.66802 -0.348372 0
M  V30 4077 H 380.553 6.43831 -0.733847 0
M  V30 4078 N 373.959 -0.0401083 1.57549 0
M  V30 4079 C 375.189 -0.744115 1.92734 0
M  V30 4080 C 375.597 -1.70005 0.830348 0
M  V30 4081 O 374.94 -1.82576 -0.20286 0
M  V30 4082 C 375.002 -1.56516 3.2364 0
M  V30 4083 C 374.666 -0.7752 4.50377 0
M  V30 4084 C 375.663 -0.0803326 5.19838 0
M  V30 4085 C 373.348 -0.733002 4.96923 0
M  V30 4086 C 375.342 0.646154 6.34116 0
M  V30 4087 C 373.029 -0.00276321 6.111 0
M  V30 4088 C 374.027 0.685585 6.7955 0
M  V30 4089 O 373.715 1.40399 7.91545 0
M  V30 4090 H 373.447 -0.214861 0.640945 0
M  V30 4091 H 376.001 -0.00503675 2.05399 0
M  V30 4092 H 374.231 -2.3478 3.07271 0
M  V30 4093 H 375.92 -2.15076 3.44234 0
M  V30 4094 H 376.686 -0.104035 4.84888 0
M  V30 4095 H 372.565 -1.25827 4.43496 0
M  V30 4096 H 376.109 1.18398 6.87479 0
M  V30 4097 H 372.006 0.0229012 6.45496 0
M  V30 4098 H 372.774 1.31653 8.07843 0
M  V30 4099 N 375.437 -1.54477 -0.31217 0
M  V30 4100 C 376.667 -1.76948 -1.06645 0
M  V30 4101 C 377.075 -0.523593 -1.81811 0
M  V30 4102 O 376.418 0.51578 -1.76311 0
M  V30 4103 C 376.48 -2.91668 -2.10166 0
M  V30 4104 C 376.144 -4.30165 -1.54296 0
M  V30 4105 C 377.141 -5.10603 -0.978793 0
M  V30 4106 C 374.826 -4.76738 -1.58196 0
M  V30 4107 C 376.82 -6.3573 -0.461048 0
M  V30 4108 C 374.507 -6.01831 -1.06034 0
M  V30 4109 C 375.505 -6.81161 -0.500844 0
M  V30 4110 O 375.193 -8.03899 0.0128958 0
M  V30 4111 H 374.925 -0.594088 -0.322546 0
M  V30 4112 H 377.479 -2.02213 -0.360441 0
M  V30 4113 H 375.709 -2.62001 -2.84416 0
M  V30 4114 H 377.398 -3.01817 -2.71406 0
M  V30 4115 H 378.164 -4.75771 -0.941651 0
M  V30 4116 H 374.043 -4.15027 -2.00683 0
M  V30 4117 H 377.587 -6.97596 -0.0236894 0
M  V30 4118 H 373.484 -6.36152 -1.09459 0
M  V30 4119 H 374.252 -8.18437 -0.101457 0
M  V30 4120 N 376.915 0.57481 -1.46744 0
M  V30 4121 C 378.326 1.15695 -1.46532 0
M  V30 4122 C 378.677 1.95068 -0.210425 0
M  V30 4123 O 377.802 2.05241 0.685944 0
M  V30 4124 C 378.397 2.1048 -2.65487 0
M  V30 4125 C 376.956 2.64002 -2.68291 0
M  V30 4126 C 376.103 1.40026 -2.39349 0
M  V30 4127 H 379.054 0.362325 -1.54509 0
M  V30 4128 H 379.075 2.94074 -2.41455 0
M  V30 4129 H 378.587 1.52683 -3.56805 0
M  V30 4130 H 376.688 3.25646 -1.81067 0
M  V30 4131 H 376.801 3.06197 -3.68483 0
M  V30 4132 H 375.165 1.70106 -1.89568 0
M  V30 4133 H 375.948 0.840485 -3.32852 0
M  V30 4134 N 378.394 1.34581 0.820102 0
M  V30 4135 C 379.624 1.29991 1.6058 0
M  V30 4136 C 380.032 -0.127588 1.88769 0
M  V30 4137 O 379.375 -1.08595 1.48165 0
M  V30 4138 C 379.437 2.02548 2.9701 0
M  V30 4139 C 379.101 3.51794 2.91701 0
M  V30 4140 C 380.098 4.46647 2.66087 0
M  V30 4141 C 377.783 3.94249 3.11245 0
M  V30 4142 C 379.777 5.81929 2.60071 0
M  V30 4143 C 377.464 5.2963 3.04853 0
M  V30 4144 C 378.462 6.23282 2.793 0
M  V30 4145 O 378.15 7.56181 2.72847 0
M  V30 4146 H 377.882 0.448539 0.505756 0
M  V30 4147 H 380.436 1.77811 1.02822 0
M  V30 4148 H 378.666 1.49345 3.56697 0
M  V30 4149 H 380.355 1.91211 3.58041 0
M  V30 4150 H 381.121 4.15168 2.5072 0
M  V30 4151 H 377 3.21749 3.30149 0
M  V30 4152 H 380.544 6.54999 2.40046 0
M  V30 4153 H 376.441 5.60727 3.19774 0
M  V30 4154 H 377.209 7.6595 2.88553 0
M  V30 4155 N 379.872 -1.04064 1.18357 0
M  V30 4156 C 381.12 -1.76915 0.977013 0
M  V30 4157 C 381.441 -1.88624 -0.494577 0
M  V30 4158 O 380.711 -1.41125 -1.3587 0
M  V30 4159 H 379.291 -0.65535 0.358504 0
M  V30 4160 H 381.953 -1.25592 1.49039 0
M  V30 4161 H 381.049 -2.78178 1.41504 0
M  V30 4162 N 381.35 -0.985608 -1.22978 0
M  V30 4163 C 382.26 -0.538548 -2.28335 0
M  V30 4164 C 383.276 0.409163 -1.69121 0
M  V30 4165 O 384.452 0.277797 -1.99475 0
M  V30 4166 C 381.517 0.146867 -3.46389 0
M  V30 4167 C 380.578 -0.842896 -4.20944 0
M  V30 4168 C 379.811 -0.190095 -5.33361 0
M  V30 4169 O 380.034 1.01767 -5.61248 0
M  V30 4170 O 378.968 -0.891289 -5.95264 0
M  V30 4171 H 382.794 -1.41487 -2.68729 0
M  V30 4172 H 380.379 -0.753495 -1.29007 0
M  V30 4173 H 382.261 0.531125 -4.1804 0
M  V30 4174 H 380.936 0.997871 -3.07935 0
M  V30 4175 H 379.843 -1.27795 -3.51595 0
M  V30 4176 H 381.176 -1.66287 -4.6326 0
M  V30 4177 N 382.828 1.3818 -0.7579 0
M  V30 4178 C 383.775 2.30416 -0.133057 0
M  V30 4179 C 384.745 1.50398 0.704957 0
M  V30 4180 O 385.93 1.79014 0.660192 0
M  V30 4181 C 383.07 3.36834 0.750813 0
M  V30 4182 C 382.183 4.31879 -0.102297 0
M  V30 4183 C 381.318 5.25368 0.784979 0
M  V30 4184 C 380.357 6.12058 -0.0715046 0
M  V30 4185 N 379.494 6.97832 0.772972 0
M  V30 4186 H 384.334 2.83274 -0.925186 0
M  V30 4187 H 381.871 1.39461 -0.467866 0
M  V30 4188 H 383.829 3.97145 1.27794 0
M  V30 4189 H 382.459 2.85374 1.50868 0
M  V30 4190 H 381.511 3.72991 -0.747095 0
M  V30 4191 H 382.823 4.92921 -0.763552 0
M  V30 4192 H 381.977 5.90818 1.37911 0
M  V30 4193 H 380.716 4.64703 1.47996 0
M  V30 4194 H 379.721 5.456 -0.678272 0
M  V30 4195 H 380.946 6.74793 -0.763606 0
M  V30 4196 H 378.892 6.3971 1.45282 0
M  V30 4197 H 378.809 7.55812 0.168709 0
M  V30 4198 H 380.077 7.67687 1.35194 0
M  V30 4199 N 384.306 0.507319 1.49211 0
M  V30 4200 C 385.534 -0.0315749 2.06876 0
M  V30 4201 C 385.949 -1.30241 1.36685 0
M  V30 4202 O 385.306 -1.76937 0.447152 0
M  V30 4203 C 385.357 -0.282627 3.60393 0
M  V30 4204 O 385.078 0.937835 4.27944 0
M  V30 4205 C 386.579 -0.864453 4.3479 0
M  V30 4206 H 383.799 0.0233048 0.670595 0
M  V30 4207 H 386.343 0.706484 1.91909 0
M  V30 4208 H 384.498 -0.97068 3.75042 0
M  V30 4209 H 384.912 0.704567 5.19746 0
M  V30 4210 H 386.386 -0.989664 5.43056 0
M  V30 4211 H 386.863 -1.86382 3.97692 0
M  V30 4212 H 387.469 -0.213672 4.24763 0
M  V30 4213 N 385.784 -1.5574 0.241426 0
M  V30 4214 C 386.747 -2.19877 -0.647063 0
M  V30 4215 C 387.747 -1.16642 -1.10686 0
M  V30 4216 O 388.937 -1.41757 -1.01245 0
M  V30 4217 C 386.069 -2.83797 -1.88871 0
M  V30 4218 H 387.262 -2.99772 -0.087574 0
M  V30 4219 H 384.815 -1.56298 -0.00813574 0
M  V30 4220 H 385.55 -2.07824 -2.48957 0
M  V30 4221 H 385.335 -3.59414 -1.56728 0
M  V30 4222 H 386.825 -3.32898 -2.52129 0
M  V30 4223 N 387.262 0.0317525 -1.57568 0
M  V30 4224 C 388.212 1.04101 -2.02847 0
M  V30 4225 C 389.196 1.3219 -0.917317 0
M  V30 4226 O 390.388 1.31819 -1.18121 0
M  V30 4227 C 387.517 2.34295 -2.5092 0
M  V30 4228 C 386.603 2.09308 -3.68851 0
M  V30 4229 N 386.994 1.5437 -4.81667 0
M  V30 4230 C 385.292 2.39604 -3.76172 0
M  V30 4231 C 385.993 1.45126 -5.63306 0
M  V30 4232 N 384.969 1.92589 -5.08341 0
M  V30 4233 H 388.771 0.610217 -2.87495 0
M  V30 4234 H 386.285 0.238108 -1.60645 0
M  V30 4235 H 388.282 3.07404 -2.81617 0
M  V30 4236 H 386.942 2.78055 -1.67677 0
M  V30 4237 H 387.953 1.22678 -5.03161 0
M  V30 4238 H 384.63 2.86457 -3.03724 0
M  V30 4239 H 386.02 1.03163 -6.63933 0
M  V30 4240 N 388.74 1.54641 0.303973 0
M  V30 4241 C 389.67 1.88386 1.3796 0
M  V30 4242 C 390.651 0.742485 1.5304 0
M  V30 4243 O 391.836 0.997959 1.66597 0
M  V30 4244 C 388.966 2.12854 2.74427 0
M  V30 4245 C 387.92 3.28702 2.74115 0
M  V30 4246 C 387.246 3.38582 4.13844 0
M  V30 4247 C 388.546 4.65881 2.3612 0
M  V30 4248 H 390.24 2.78474 1.09966 0
M  V30 4249 H 387.786 1.33988 0.527556 0
M  V30 4250 H 389.739 2.35047 3.49758 0
M  V30 4251 H 388.463 1.19535 3.03939 0
M  V30 4252 H 387.122 3.06428 2.0124 0
M  V30 4253 H 386.77 2.42784 4.40528 0
M  V30 4254 H 386.47 4.16453 4.14537 0
M  V30 4255 H 387.994 3.63031 4.90959 0
M  V30 4256 H 389.408 4.87823 3.01167 0
M  V30 4257 H 387.805 5.46444 2.48031 0
M  V30 4258 H 388.875 4.66799 1.3125 0
M  V30 4259 N 390.218 -0.567019 1.47046 0
M  V30 4260 C 391.446 -1.35027 1.56765 0
M  V30 4261 C 391.861 -1.8758 0.214316 0
M  V30 4262 O 391.218 -1.64471 -0.790919 0
M  V30 4263 C 391.269 -2.52698 2.58507 0
M  V30 4264 O 390.99 -2.0232 3.88585 0
M  V30 4265 C 392.491 -3.45043 2.78316 0
M  V30 4266 H 389.711 -0.41195 0.529658 0
M  V30 4267 H 392.255 -0.687832 1.92585 0
M  V30 4268 H 390.41 -3.149 2.25648 0
M  V30 4269 H 390.824 -2.79068 4.44096 0
M  V30 4270 H 392.298 -4.2405 3.53391 0
M  V30 4271 H 392.775 -3.97971 1.85784 0
M  V30 4272 H 393.381 -2.88665 3.12334 0
M  V30 4273 N 391.696 -1.35014 -0.812953 0
M  V30 4274 C 392.944 -1.27678 -1.56661 0
M  V30 4275 C 393.265 0.150359 -1.94419 0
M  V30 4276 O 392.535 1.08532 -1.63088 0
M  V30 4277 H 391.115 -0.469602 -0.580933 0
M  V30 4278 H 393.777 -1.69043 -0.970076 0
M  V30 4279 H 392.873 -1.88833 -2.48492 0
M  V30 4280 N 393.175 1.03435 -1.18907 0
M  V30 4281 C 394.405 1.8012 -1.01195 0
M  V30 4282 C 394.813 1.8395 0.442613 0
M  V30 4283 O 394.156 1.27836 1.31923 0
M  V30 4284 C 394.218 3.26792 -1.49823 0
M  V30 4285 C 393.882 3.46609 -2.97844 0
M  V30 4286 C 394.879 3.37278 -3.95651 0
M  V30 4287 C 392.564 3.73001 -3.36416 0
M  V30 4288 C 394.558 3.54054 -5.30023 0
M  V30 4289 C 392.245 3.89423 -4.70949 0
M  V30 4290 C 393.243 3.79951 -5.67562 0
M  V30 4291 O 392.931 3.95895 -6.99659 0
M  V30 4292 H 392.663 0.573865 -0.357289 0
M  V30 4293 H 395.217 1.31207 -1.58031 0
M  V30 4294 H 393.447 3.76703 -0.873578 0
M  V30 4295 H 395.136 3.85055 -1.28404 0
M  V30 4296 H 395.902 3.16846 -3.67197 0
M  V30 4297 H 391.781 3.79469 -2.61772 0
M  V30 4298 H 395.325 3.46577 -6.05417 0
M  V30 4299 H 391.222 4.09351 -4.99101 0
M  V30 4300 H 391.99 4.13019 -7.06653 0
M  V30 4301 N 394.653 0.992116 1.22453 0
M  V30 4302 C 395.899 0.668523 1.91464 0
M  V30 4303 C 396.232 -0.797313 1.77078 0
M  V30 4304 O 395.507 -1.5765 1.13916 0
M  V30 4305 C 395.79 1.07424 3.43703 0
M  V30 4306 C 395.643 2.59857 3.67143 0
M  V30 4307 C 396.962 0.626891 4.35612 0
M  V30 4308 H 394.081 0.244341 0.695318 0
M  V30 4309 H 396.723 1.2355 1.44345 0
M  V30 4310 H 394.873 0.591816 3.83966 0
M  V30 4311 H 396.545 3.15764 3.3629 0
M  V30 4312 H 394.788 3.01961 3.11451 0
M  V30 4313 H 395.459 2.83296 4.73759 0
M  V30 4314 H 397.935 1.04125 4.02861 0
M  V30 4315 H 396.811 0.939076 5.40807 0
M  V30 4316 H 397.072 -0.472457 4.39568 0
M  V30 4317 N 396.131 -1.37776 0.765217 0
M  V30 4318 C 397.547 -1.53297 0.444108 0
M  V30 4319 C 397.747 -1.72515 -1.04119 0
M  V30 4320 O 396.803 -1.74278 -1.82711 0
M  V30 4321 C 398.116 -2.73328 1.25349 0
M  V30 4322 C 399.664 -2.87185 1.24473 0
M  V30 4323 C 400.139 -4.10191 2.03733 0
M  V30 4324 N 401.63 -4.17291 2.01053 0
M  V30 4325 C 402.365 -5.11488 2.59166 0
M  V30 4326 N 401.861 -6.11285 3.26041 0
M  V30 4327 N 403.654 -5.03924 2.49032 0
M  V30 4328 H 395.805 -1.23552 1.72768 0
M  V30 4329 H 398.068 -0.601103 0.733062 0
M  V30 4330 H 397.774 -2.6557 2.30577 0
M  V30 4331 H 397.648 -3.66834 0.87823 0
M  V30 4332 H 400.035 -2.94418 0.20047 0
M  V30 4333 H 400.116 -1.94657 1.65959 0
M  V30 4334 H 399.76 -4.0372 3.08176 0
M  V30 4335 H 399.69 -5.01821 1.59633 0
M  V30 4336 H 402.181 -3.45825 1.5236 0
M  V30 4337 H 402.494 -6.79678 3.67774 0
M  V30 4338 H 400.839 -6.11583 3.30138 0
M  V30 4339 H 404.03 -4.24902 1.96407 0
M  V30 4340 H 404.203 -5.77152 2.94617 0
M  V30 4341 N 397.609 -0.515225 -1.4894 0
M  V30 4342 C 398.572 0.244681 -2.2789 0
M  V30 4343 C 399.572 0.881166 -1.34507 0
M  V30 4344 O 400.762 0.743497 -1.57537 0
M  V30 4345 C 397.894 1.35247 -3.12923 0
M  V30 4346 H 399.087 -0.448289 -2.96531 0
M  V30 4347 H 396.64 -0.270656 -1.53939 0
M  V30 4348 H 397.375 2.07916 -2.48881 0
M  V30 4349 H 397.16 0.901374 -3.81599 0
M  V30 4350 H 398.65 1.88737 -3.72516 0
M  V30 4351 N 399.087 1.5561 -0.249682 0
M  V30 4352 C 400.336 1.98187 0.37479 0
M  V30 4353 C 400.649 1.14111 1.58865 0
M  V30 4354 O 401.855 1.46714 2.28445 0
M  V30 4355 C 400.311 3.52661 0.718192 0
M  V30 4356 C 399.919 4.45481 -0.474428 0
M  V30 4357 C 401.663 4.03888 1.3067 0
M  V30 4358 C 399.57 5.91303 -0.107026 0
M  V30 4359 H 398.5 0.740159 0.143808 0
M  V30 4360 H 401.151 1.80125 -0.350336 0
M  V30 4361 H 399.533 3.66429 1.50152 0
M  V30 4362 H 400.707 4.43473 -1.25172 0
M  V30 4363 H 399.022 4.04751 -0.978052 0
M  V30 4364 H 401.619 5.10358 1.59496 0
M  V30 4365 H 401.962 3.51401 2.23211 0
M  V30 4366 H 402.495 3.93457 0.586211 0
M  V30 4367 H 399.234 6.47833 -0.999642 0
M  V30 4368 H 398.754 5.9644 0.634013 0
M  V30 4369 H 400.433 6.46258 0.309807 0
M  V30 4370 N 400.565 -0.0233959 1.57583 0
M  V30 4371 C 401.793 -0.724682 1.93794 0
M  V30 4372 C 402.208 -1.68588 0.849912 0
M  V30 4373 O 401.565 -1.81676 -0.173204 0
M  V30 4374 C 401.616 -1.47684 3.29957 0
M  V30 4375 O 401.337 -0.554222 4.3458 0
M  V30 4376 C 402.838 -2.27477 3.80485 0
M  V30 4377 H 400.058 -0.203317 0.639455 0
M  V30 4378 H 402.602 0.0207653 2.04489 0
M  V30 4379 H 400.757 -2.17412 3.20641 0
M  V30 4380 H 401.171 -1.08232 5.13212 0
M  V30 4381 H 402.645 -2.7564 4.78254 0
M  V30 4382 H 403.122 -3.09144 3.11972 0
M  V30 4383 H 403.728 -1.62813 3.92902 0
M  V30 4384 N 402.043 -1.548 -0.295768 0
M  V30 4385 C 403.006 -1.85363 -1.34808 0
M  V30 4386 C 404.006 -0.726817 -1.43436 0
M  V30 4387 O 405.196 -0.995088 -1.42981 0
M  V30 4388 C 402.328 -2.03859 -2.73229 0
M  V30 4389 H 403.521 -2.7941 -1.08949 0
M  V30 4390 H 401.074 -1.46942 -0.532702 0
M  V30 4391 H 401.809 -1.12117 -3.04303 0
M  V30 4392 H 401.594 -2.8588 -2.68356 0
M  V30 4393 H 403.084 -2.28857 -3.49305 0
M  V30 4394 N 403.521 0.559213 -1.47345 0
M  V30 4395 C 404.431 1.69388 -1.62311 0
M  V30 4396 C 405.447 1.6648 -0.505993 0
M  V30 4397 O 406.623 1.85964 -0.773262 0
M  V30 4398 C 403.688 3.05894 -1.63185 0
M  V30 4399 C 402.749 3.19885 -2.86307 0
M  V30 4400 C 401.982 4.49879 -2.87131 0
M  V30 4401 O 402.205 5.35217 -1.97229 0
M  V30 4402 O 401.139 4.67618 -3.78968 0
M  V30 4403 H 404.965 1.59706 -2.58317 0
M  V30 4404 H 402.55 0.728989 -1.30407 0
M  V30 4405 H 404.432 3.87133 -1.66451 0
M  V30 4406 H 403.107 3.15964 -0.70345 0
M  V30 4407 H 402.014 2.38052 -2.88587 0
M  V30 4408 H 403.347 3.14718 -3.78435 0
M  V30 4409 N 404.999 1.35443 0.805782 0
M  V30 4410 C 405.909 1.30546 1.94923 0
M  V30 4411 C 406.925 0.210233 1.72725 0
M  V30 4412 O 408.101 0.43975 1.9654 0
M  V30 4413 C 405.166 1.07782 3.29521 0
M  V30 4414 C 404.227 2.26625 3.64609 0
M  V30 4415 C 403.46 2.04938 4.92784 0
M  V30 4416 O 403.683 1.01624 5.61274 0
M  V30 4417 O 402.617 2.9232 5.26149 0
M  V30 4418 H 406.443 2.26779 2.02002 0
M  V30 4419 H 404.028 1.15823 0.943682 0
M  V30 4420 H 405.91 0.969392 4.10098 0
M  V30 4421 H 404.585 0.146003 3.23371 0
M  V30 4422 H 403.492 2.43033 2.84404 0
M  V30 4423 H 404.825 3.18257 3.75464 0
M  V30 4424 N 406.477 -1.02803 1.19454 0
M  V30 4425 C 407.407 -2.12999 0.956758 0
M  V30 4426 C 408.388 -1.69743 -0.110188 0
M  V30 4427 O 409.573 -1.94148 0.0450038 0
M  V30 4428 C 406.703 -3.43746 0.495553 0
M  V30 4429 C 405.657 -4.00688 1.50443 0
M  V30 4430 C 404.983 -5.27067 0.900275 0
M  V30 4431 C 406.283 -4.35397 2.8849 0
M  V30 4432 H 407.977 -2.33148 1.87836 0
M  V30 4433 H 405.523 -1.12045 0.904539 0
M  V30 4434 H 407.476 -4.2021 0.316493 0
M  V30 4435 H 406.2 -3.23321 -0.461646 0
M  V30 4436 H 404.859 -3.2632 1.67065 0
M  V30 4437 H 404.507 -5.02959 -0.064503 0
M  V30 4438 H 404.207 -5.66127 1.57397 0
M  V30 4439 H 405.731 -6.06196 0.73203 0
M  V30 4440 H 407.145 -5.02795 2.75446 0
M  V30 4441 H 405.542 -4.85541 3.52661 0
M  V30 4442 H 406.612 -3.44662 3.41081 0
M  V30 4443 N 407.956 -0.998596 -1.21925 0
M  V30 4444 C 408.903 -0.553621 -2.24062 0
M  V30 4445 C 409.873 0.416999 -1.6078 0
M  V30 4446 O 411.058 0.320482 -1.88089 0
M  V30 4447 C 408.198 0.119959 -3.44891 0
M  V30 4448 C 407.311 -0.893077 -4.22668 0
M  V30 4449 C 406.446 -0.192424 -5.30851 0
M  V30 4450 C 405.485 -1.19344 -6.00353 0
M  V30 4451 N 404.622 -0.520707 -7.00166 0
M  V30 4452 H 409.462 -1.4293 -2.61486 0
M  V30 4453 H 406.999 -0.715838 -1.28507 0
M  V30 4454 H 408.957 0.527459 -4.13852 0
M  V30 4455 H 407.587 0.959389 -3.08214 0
M  V30 4456 H 406.639 -1.41886 -3.52948 0
M  V30 4457 H 407.951 -1.65512 -4.70539 0
M  V30 4458 H 407.105 0.271515 -6.06092 0
M  V30 4459 H 405.844 0.602075 -4.83969 0
M  V30 4460 H 404.849 -1.66795 -5.23889 0
M  V30 4461 H 406.074 -1.98891 -6.49322 0
M  V30 4462 H 404.02 0.254252 -6.55507 0
M  V30 4463 H 403.937 -1.2211 -7.46073 0
M  V30 4464 H 405.205 -0.0797596 -7.79459 0
M  V30 4465 N 409.434 1.37368 -0.772513 0
M  V30 4466 C 410.381 2.30262 -0.157488 0
M  V30 4467 C 411.351 1.51137 0.688965 0
M  V30 4468 O 412.536 1.79704 0.641168 0
M  V30 4469 C 409.676 3.37611 0.715045 0
M  V30 4470 C 408.789 4.31746 -0.148098 0
M  V30 4471 C 407.924 5.26171 0.729213 0
M  V30 4472 C 406.963 6.11948 -0.136418 0
M  V30 4473 N 406.1 6.98613 0.698914 0
M  V30 4474 H 410.94 2.82277 -0.955179 0
M  V30 4475 H 408.477 1.38957 -0.482631 0
M  V30 4476 H 410.435 3.98479 1.23575 0
M  V30 4477 H 409.065 2.86959 1.47833 0
M  V30 4478 H 408.117 3.72178 -0.786613 0
M  V30 4479 H 409.429 4.92084 -0.81579 0
M  V30 4480 H 408.583 5.92247 1.31637 0
M  V30 4481 H 407.322 4.66246 1.43059 0
M  V30 4482 H 406.327 5.4485 -0.736102 0
M  V30 4483 H 407.552 6.73945 -0.835134 0
M  V30 4484 H 405.498 6.41215 1.38489 0
M  V30 4485 H 405.415 7.55948 0.0885358 0
M  V30 4486 H 406.683 7.69077 1.27044 0
M  V30 4487 N 410.912 0.523116 1.48665 0
M  V30 4488 C 411.859 -0.243398 2.29513 0
M  V30 4489 C 412.829 -0.940139 1.36933 0
M  V30 4490 O 414.014 -0.942503 1.65896 0
M  V30 4491 C 411.154 -1.28855 3.20141 0
M  V30 4492 C 410.267 -0.60135 4.27794 0
M  V30 4493 C 409.402 -1.62884 5.05611 0
M  V30 4494 C 408.441 -0.924726 6.05075 0
M  V30 4495 N 407.578 -1.89744 6.75975 0
M  V30 4496 H 412.418 0.452234 2.94549 0
M  V30 4497 H 409.955 0.234858 1.45213 0
M  V30 4498 H 411.913 -1.90674 3.71079 0
M  V30 4499 H 410.543 -1.95266 2.57043 0
M  V30 4500 H 409.595 0.130623 3.80176 0
M  V30 4501 H 410.907 -0.0481585 4.98777 0
M  V30 4502 H 410.061 -2.32149 5.60528 0
M  V30 4503 H 408.8 -2.21592 4.34452 0
M  V30 4504 H 407.805 -0.217966 5.49368 0
M  V30 4505 H 409.03 -0.343851 6.78229 0
M  V30 4506 H 406.976 -2.47373 6.07571 0
M  V30 4507 H 406.893 -1.3955 7.43009 0
M  V30 4508 H 408.161 -2.58229 7.35485 0
M  V30 4509 N 412.39 -1.55475 0.257931 0
M  V30 4510 C 413.337 -2.21837 -0.636939 0
M  V30 4511 C 414.307 -1.18596 -1.16294 0
M  V30 4512 O 415.492 -1.47081 -1.21539 0
M  V30 4513 C 412.632 -2.9301 -1.82317 0
M  V30 4514 C 411.745 -4.10931 -1.33265 0
M  V30 4515 C 410.88 -4.69791 -2.47931 0
M  V30 4516 C 409.919 -5.7994 -1.95796 0
M  V30 4517 N 409.056 -6.32935 -3.0387 0
M  V30 4518 H 413.896 -2.9793 -0.0643591 0
M  V30 4519 H 411.433 -1.47086 -0.0200031 0
M  V30 4520 H 413.391 -3.3248 -2.52018 0
M  V30 4521 H 412.021 -2.1937 -2.36805 0
M  V30 4522 H 411.073 -3.76699 -0.52931 0
M  V30 4523 H 412.385 -4.90417 -0.910654 0
M  V30 4524 H 411.539 -5.11892 -3.25656 0
M  V30 4525 H 410.278 -3.89545 -2.93438 0
M  V30 4526 H 409.283 -5.37305 -1.16546 0
M  V30 4527 H 410.508 -6.62043 -1.51246 0
M  V30 4528 H 408.454 -5.55591 -3.48791 0
M  V30 4529 H 408.371 -7.07645 -2.66035 0
M  V30 4530 H 409.639 -6.79695 -3.81621 0
M  V30 4531 N 413.868 0.0150385 -1.57593 0
M  V30 4532 C 414.778 1.02791 -2.10882 0
M  V30 4533 C 415.794 1.38702 -1.0506 0
M  V30 4534 O 416.97 1.47739 -1.36877 0
M  V30 4535 C 414.035 2.30568 -2.58919 0
M  V30 4536 C 413.096 2.01108 -3.79281 0
M  V30 4537 C 412.329 3.22794 -4.25018 0
M  V30 4538 O 412.552 4.33959 -3.70183 0
M  V30 4539 O 411.486 3.07672 -5.17322 0
M  V30 4540 H 415.312 0.604973 -2.97613 0
M  V30 4541 H 412.897 0.23292 -1.47573 0
M  V30 4542 H 414.779 3.05662 -2.90084 0
M  V30 4543 H 413.454 2.72129 -1.75293 0
M  V30 4544 H 412.361 1.23537 -3.53114 0
M  V30 4545 H 413.694 1.64394 -4.63935 0
M  V30 4546 N 415.346 1.54954 0.287554 0
M  V30 4547 C 416.594 1.74528 1.01904 0
M  V30 4548 C 416.915 0.541349 1.87335 0
M  V30 4549 O 416.185 -0.444108 1.908 0
M  V30 4550 H 414.765 0.643576 0.379235 0
M  V30 4551 H 417.427 1.92333 0.315294 0
M  V30 4552 H 416.523 2.64015 1.6644 0
M  V30 4553 N 416.824 -0.551391 1.4764 0
M  V30 4554 C 418.052 -1.33357 1.58189 0
M  V30 4555 C 418.467 -1.87342 0.234199 0
M  V30 4556 O 417.824 -1.65301 -0.77343 0
M  V30 4557 C 417.875 -2.49942 2.61173 0
M  V30 4558 O 417.596 -1.98187 3.90709 0
M  V30 4559 C 419.097 -3.42072 2.8196 0
M  V30 4560 H 416.317 -0.40631 0.533998 0
M  V30 4561 H 418.861 -0.667367 1.93304 0
M  V30 4562 H 417.016 -3.12489 2.28975 0
M  V30 4563 H 417.43 -2.74342 4.47031 0
M  V30 4564 H 418.904 -4.20278 3.57869 0
M  V30 4565 H 419.381 -3.95978 1.89995 0
M  V30 4566 H 419.987 -2.85336 3.15378 0
M  V30 4567 N 418.302 -1.35869 -0.798587 0
M  V30 4568 C 419.532 -1.32529 -1.58491 0
M  V30 4569 C 419.94 0.0975405 -1.88948 0
M  V30 4570 O 419.283 1.06224 -1.49874 0
M  V30 4571 C 419.345 -2.07247 -2.9375 0
M  V30 4572 C 419.009 -3.56391 -2.86068 0
M  V30 4573 C 420.006 -4.50824 -2.58947 0
M  V30 4574 C 417.691 -3.9915 -3.04933 0
M  V30 4575 C 419.685 -5.85993 -2.5078 0
M  V30 4576 C 417.372 -5.34413 -2.96389 0
M  V30 4577 C 418.37 -6.27646 -2.69349 0
M  V30 4578 O 418.058 -7.60426 -2.60782 0
M  V30 4579 H 417.79 -0.456529 -0.498556 0
M  V30 4580 H 420.344 -1.79425 -0.999799 0
M  V30 4581 H 418.574 -1.55001 -3.54276 0
M  V30 4582 H 420.263 -1.96883 -3.54954 0
M  V30 4583 H 421.029 -4.19104 -2.44084 0
M  V30 4584 H 416.908 -3.26961 -3.24989 0
M  V30 4585 H 420.452 -6.58735 -2.29595 0
M  V30 4586 H 416.349 -5.65743 -3.10813 0
M  V30 4587 H 417.117 -7.70444 -2.76331 0
M  V30 4588 N 419.78 1.02168 -1.19998 0
M  V30 4589 C 421.005 1.79833 -1.03319 0
M  V30 4590 C 421.43 1.83504 0.413281 0
M  V30 4591 O 420.788 1.26635 1.29743 0
M  V30 4592 C 420.836 3.22396 -1.61533 0
M  V30 4593 O 419.94 4.03555 -0.849519 0
M  V30 4594 H 419.281 0.554872 -0.364709 0
M  V30 4595 H 421.811 1.28542 -1.59179 0
M  V30 4596 H 421.821 3.73124 -1.65054 0
M  V30 4597 H 420.496 3.19039 -2.66809 0
M  V30 4598 H 419.073 3.62169 -0.888129 0
M  V30 4599 N 421.258 1.00505 1.21394 0
M  V30 4600 C 422.535 0.603277 1.86064 0
M  V30 4601 C 422.915 -0.919095 1.90042 0
M  V30 4602 O 422.263 -1.80607 1.39977 0
M  V30 4603 C 422.473 1.23772 3.26315 0
M  V30 4604 C 423.821 1.34586 4.02705 0
M  V30 4605 O 424.845 1.19304 3.35626 0
M  V30 4606 O 423.704 1.59169 5.22807 0
M  V30 4607 H 420.798 0.206634 0.800769 0
M  V30 4608 H 423.344 1.1017 1.29076 0
M  V30 4609 H 422.116 2.27848 3.18121 0
M  V30 4610 H 421.739 0.725648 3.90922 0
M  V30 4611 N 422.737 -1.36956 0.779787 0
M  V30 4612 C 423.965 -2.03755 0.359398 0
M  V30 4613 C 424.38 -1.58807 -1.02106 0
M  V30 4614 O 423.737 -0.773024 -1.6532 0
M  V30 4615 C 423.788 -3.59251 0.402568 0
M  V30 4616 O 423.509 -4.02557 1.72858 0
M  V30 4617 C 425.01 -4.43291 -0.0284068 0
M  V30 4618 H 422.23 -0.654148 0.149437 0
M  V30 4619 H 424.774 -1.75128 1.05595 0
M  V30 4620 H 422.929 -3.86621 -0.245478 0
M  V30 4621 H 423.343 -4.97111 1.67275 0
M  V30 4622 H 424.817 -5.51975 0.0529466 0
M  V30 4623 H 425.294 -4.25719 -1.07982 0
M  V30 4624 H 425.9 -4.21163 0.591758 0
M  V30 4625 N 424.215 -0.530993 -1.48385 0
M  V30 4626 C 425.44 0.000729535 -2.074 0
M  V30 4627 C 425.865 1.27298 -1.3848 0
M  V30 4628 O 425.223 1.75599 -0.451081 0
M  V30 4629 C 425.271 0.206697 -3.60007 0
M  V30 4630 O 424.375 1.27514 -3.92191 0
M  V30 4631 H 423.716 -0.039583 -0.662819 0
M  V30 4632 H 426.246 -0.739194 -1.9078 0
M  V30 4633 H 426.256 0.42904 -4.05738 0
M  V30 4634 H 424.931 -0.722675 -4.09573 0
M  V30 4635 H 423.508 1.03537 -3.58238 0
M  V30 4636 N 425.693 1.55336 -0.266172 0
M  V30 4637 C 426.641 2.23587 0.641228 0
M  V30 4638 C 427.635 1.22986 1.16494 0
M  V30 4639 O 428.841 1.40943 1.1196 0
M  V30 4640 H 425.216 0.717452 0.225315 0
M  V30 4641 H 427.187 2.9837 0.0426561 0
M  V30 4642 C 425.936 2.96369 1.81826 0
M  V30 4643 H 425.259 3.73563 1.42445 0
M  V30 4644 H 426.699 3.47459 2.42998 0
M  V30 4645 C 425.158 2.0133 2.70125 0
M  V30 4646 O 425.688 1.55875 3.70224 0
M  V30 4647 N 423.894 1.6802 2.37102 0
M  V30 4648 H 423.441 2.05181 1.55751 0
M  V30 4649 H 423.399 1.047 2.96454 0
M  V30 4650 N 427.171 -0.0066808 1.57599 0
M  V30 4651 C 428.42 -0.692078 1.89455 0
M  V30 4652 C 428.733 -1.75306 0.867586 0
M  V30 4653 O 429.939 -2.49262 1.07614 0
M  V30 4654 C 428.395 -1.2821 3.36289 0
M  V30 4655 C 428.003 -0.256291 4.47266 0
M  V30 4656 C 429.747 -1.94608 3.77264 0
M  V30 4657 C 427.654 -0.855927 5.85173 0
M  V30 4658 H 426.584 -0.262252 0.706923 0
M  V30 4659 H 429.235 0.052769 1.83424 0
M  V30 4660 H 427.617 -2.0774 3.37135 0
M  V30 4661 H 428.791 0.513923 4.57925 0
M  V30 4662 H 427.106 0.306862 4.15268 0
M  V30 4663 H 429.703 -2.40364 4.77629 0
M  V30 4664 H 430.046 -2.77382 3.10427 0
M  V30 4665 H 430.579 -1.21822 3.78688 0
M  V30 4666 H 427.318 -0.0671161 6.55466 0
M  V30 4667 H 426.838 -1.59546 5.78191 0
M  V30 4668 H 428.517 -1.35658 6.32618 0
M  V30 4669 N 428.649 -1.55105 -0.279332 0
M  V30 4670 C 429.897 -1.75066 -1.00977 0
M  V30 4671 C 430.218 -0.551276 -1.87045 0
M  V30 4672 O 429.488 0.433984 -1.91032 0
M  V30 4673 H 428.068 -0.645578 -0.375816 0
M  V30 4674 H 430.73 -1.92497 -0.305089 0
M  V30 4675 H 429.826 -2.64894 -1.65038 0
M  V30 4676 N 430.127 0.543554 -1.4793 0
M  V30 4677 C 431.376 1.29649 -1.54512 0
M  V30 4678 C 431.689 1.94382 -0.217973 0
M  V30 4679 O 432.895 2.71017 -0.161908 0
M  V30 4680 C 431.351 2.35175 -2.72435 0
M  V30 4681 C 430.959 1.76572 -4.11736 0
M  V30 4682 C 432.703 3.11564 -2.8832 0
M  V30 4683 C 430.61 2.79958 -5.20939 0
M  V30 4684 H 429.54 0.487541 -0.57517 0
M  V30 4685 H 432.191 0.575708 -1.74235 0
M  V30 4686 H 430.573 3.10229 -2.46118 0
M  V30 4687 H 431.747 1.07799 -4.48013 0
M  V30 4688 H 430.062 1.12722 -4.00852 0
M  V30 4689 H 432.659 3.88794 -3.67074 0
M  V30 4690 H 433.002 3.66594 -1.97268 0
M  V30 4691 H 433.535 2.43623 -3.14472 0
M  V30 4692 H 430.274 2.29766 -6.13912 0
M  V30 4693 H 429.794 3.47101 -4.89164 0
M  V30 4694 H 431.473 3.43198 -5.48474 0
M  V30 4695 N 431.605 1.3629 0.791371 0
M  V30 4696 C 432.568 1.30309 1.88553 0
M  V30 4697 C 433.568 0.211204 1.59407 0
M  V30 4698 O 434.758 0.465865 1.67855 0
M  V30 4699 C 431.89 1.01956 3.25297 0
M  V30 4700 H 433.083 2.27614 1.95273 0
M  V30 4701 H 430.636 1.21035 0.988953 0
M  V30 4702 H 431.371 0.050998 3.2426 0
M  V30 4703 H 431.156 1.80968 3.4784 0
M  V30 4704 H 432.646 1.0037 4.05359 0
M  V30 4705 N 433.083 -1.0153 1.20538 0
M  V30 4706 C 434.331 -1.74803 1.01432 0
M  V30 4707 C 434.652 -1.8963 -0.454456 0
M  V30 4708 O 433.922 -1.43975 -1.32846 0
M  V30 4709 H 432.502 -0.647598 0.372324 0
M  V30 4710 H 435.164 -1.22402 1.5167 0
M  V30 4711 H 434.26 -2.75114 1.47373 0
M  V30 4712 N 434.561 -1.01147 -1.20859 0
M  V30 4713 C 435.491 -0.597663 -2.25722 0
M  V30 4714 C 436.472 0.384744 -1.65692 0
M  V30 4715 O 437.657 0.271303 -1.92296 0
M  V30 4716 C 434.787 0.0700149 -3.47229 0
M  V30 4717 C 433.741 -0.832843 -4.19819 0
M  V30 4718 C 433.067 -0.0312202 -5.34691 0
M  V30 4719 C 434.367 -2.1385 -4.76514 0
M  V30 4720 H 436.061 -1.47423 -2.60589 0
M  V30 4721 H 433.607 -0.710301 -1.25263 0
M  V30 4722 H 435.56 0.37103 -4.19763 0
M  V30 4723 H 434.284 0.981259 -3.11511 0
M  V30 4724 H 432.943 -1.11778 -3.49144 0
M  V30 4725 H 432.591 0.881515 -4.95215 0
M  V30 4726 H 432.291 -0.632434 -5.84187 0
M  V30 4727 H 433.815 0.26346 -6.10031 0
M  V30 4728 H 435.229 -1.9002 -5.40893 0
M  V30 4729 H 433.626 -2.69012 -5.36426 0
M  V30 4730 H 434.696 -2.80495 -3.95538 0
M  V30 4731 N 436.039 1.36541 -0.78704 0
M  V30 4732 C 436.949 2.3387 -0.184896 0
M  V30 4733 C 437.965 1.60927 0.661697 0
M  V30 4734 O 439.141 1.92927 0.57804 0
M  V30 4735 C 436.206 3.40122 0.672145 0
M  V30 4736 C 435.267 4.28867 -0.19267 0
M  V30 4737 C 434.5 5.30045 0.623561 0
M  V30 4738 O 434.723 5.39232 1.8597 0
M  V30 4739 O 433.657 6.01895 0.0247068 0
M  V30 4740 H 437.483 2.87126 -0.989562 0
M  V30 4741 H 435.068 1.38969 -0.548455 0
M  V30 4742 H 436.95 4.05093 1.16094 0
M  V30 4743 H 435.625 2.89169 1.45474 0
M  V30 4744 H 434.532 3.66945 -0.728166 0
M  V30 4745 H 435.865 4.83165 -0.938722 0
M  V30 4746 N 437.518 0.538854 1.48102 0
M  V30 4747 C 438.466 -0.232325 2.31437 0
M  V30 4748 C 439.46 -0.927004 1.41785 0
M  V30 4749 O 440.666 -0.850378 1.58646 0
M  V30 4750 H 437.041 -0.0937916 0.746128 0
M  V30 4751 H 439.012 0.489986 2.9435 0
M  V30 4752 C 437.761 -1.26074 3.24038 0
M  V30 4753 H 437.084 -0.735609 3.92974 0
M  V30 4754 H 438.524 -1.77157 3.85216 0
M  V30 4755 C 436.983 -2.29902 2.46265 0
M  V30 4756 O 437.513 -3.36502 2.19384 0
M  V30 4757 N 435.719 -2.03348 2.07601 0
M  V30 4758 H 435.266 -1.16675 2.29662 0
M  V30 4759 H 435.224 -2.73038 1.55877 0
M  V30 4760 N 438.996 -1.55193 0.274407 0
M  V30 4761 C 440.242 -1.99877 -0.343086 0
M  V30 4762 C 440.575 -1.16256 -1.55558 0
M  V30 4763 O 439.85 -0.232462 -1.93106 0
M  V30 4764 C 440.133 -3.52706 -0.725965 0
M  V30 4765 C 439.986 -4.47081 0.493818 0
M  V30 4766 C 441.305 -4.11422 -1.56268 0
M  V30 4767 H 438.424 -0.726625 -0.123229 0
M  V30 4768 H 441.066 -1.86136 0.38121 0
M  V30 4769 H 439.216 -3.64546 -1.34307 0
M  V30 4770 H 440.888 -4.47186 1.13237 0
M  V30 4771 H 439.131 -4.1877 1.13201 0
M  V30 4772 H 439.802 -5.51699 0.18217 0
M  V30 4773 H 442.278 -4.02855 -1.04151 0
M  V30 4774 H 441.154 -5.18568 -1.79939 0
M  V30 4775 H 441.415 -3.61607 -2.54348 0
M  V30 4776 N 440.474 -0.00167713 -1.576 0
M  V30 4777 C 441.704 0.692754 -1.94639 0
M  V30 4778 C 442.112 1.67744 -0.87513 0
M  V30 4779 O 441.455 1.8305 0.154382 0
M  V30 4780 C 441.517 1.47881 -3.27676 0
M  V30 4781 C 441.181 0.655518 -4.52274 0
M  V30 4782 C 442.178 -0.0575214 -5.19868 0
M  V30 4783 C 439.863 0.600994 -4.98692 0
M  V30 4784 C 441.857 -0.814052 -6.3218 0
M  V30 4785 C 439.544 -0.15926 -6.10892 0
M  V30 4786 C 440.542 -0.865515 -6.77494 0
M  V30 4787 O 440.23 -1.61336 -7.87544 0
M  V30 4788 H 439.962 0.197792 -0.646417 0
M  V30 4789 H 442.516 -0.049423 -2.05341 0
M  V30 4790 H 440.746 2.2655 -3.13388 0
M  V30 4791 H 442.435 2.05874 -3.49816 0
M  V30 4792 H 443.201 -0.0245611 -4.84994 0
M  V30 4793 H 439.08 1.14025 -4.46676 0
M  V30 4794 H 442.624 -1.36584 -6.84098 0
M  V30 4795 H 438.521 -0.194035 -6.45208 0
M  V30 4796 H 439.289 -1.53025 -8.04068 0
M  V30 4797 N 441.952 1.55251 0.271103 0
M  V30 4798 C 442.862 1.9136 1.35714 0
M  V30 4799 C 443.878 0.811075 1.5394 0
M  V30 4800 O 445.054 1.11031 1.6803 0
M  V30 4801 C 442.119 2.1798 2.69603 0
M  V30 4802 C 441.18 3.4153 2.60107 0
M  V30 4803 C 440.413 3.66871 3.8761 0
M  V30 4804 O 440.636 2.94689 4.8838 0
M  V30 4805 O 439.57 4.60405 3.87699 0
M  V30 4806 H 443.396 2.83815 1.08088 0
M  V30 4807 H 440.981 1.41821 0.469792 0
M  V30 4808 H 442.863 2.36518 3.48765 0
M  V30 4809 H 441.538 1.28708 2.97012 0
M  V30 4810 H 440.445 3.28325 1.79314 0
M  V30 4811 H 441.778 4.31027 2.37647 0
M  V30 4812 N 443.43 -0.535701 1.48216 0
M  V30 4813 C 444.707 -1.29683 1.46429 0
M  V30 4814 C 445.087 -2.10391 0.172852 0
M  V30 4815 O 444.435 -2.12282 -0.845488 0
M  V30 4816 C 444.645 -2.18313 2.72287 0
M  V30 4817 C 445.993 -2.78639 3.20383 0
M  V30 4818 O 447.017 -2.28604 2.73164 0
M  V30 4819 O 445.876 -3.69636 4.02531 0
M  V30 4820 H 442.97 -0.585026 0.584529 0
M  V30 4821 H 445.516 -0.552827 1.60443 0
M  V30 4822 H 444.288 -1.58421 3.57797 0
M  V30 4823 H 443.911 -2.99971 2.60966 0
M  V30 4824 N 444.908 -1.36708 -0.784132 0
M  V30 4825 C 445.855 -1.31466 -1.89698 0
M  V30 4826 C 446.825 -0.18239 -1.65096 0
M  V30 4827 O 448.01 -0.369762 -1.87183 0
M  V30 4828 C 445.15 -1.1151 -3.26588 0
M  V30 4829 C 444.263 -2.33859 -3.63227 0
M  V30 4830 C 443.398 -2.06873 -4.89262 0
M  V30 4831 C 442.437 -3.25154 -5.18595 0
M  V30 4832 N 441.574 -2.978 -6.35814 0
M  V30 4833 H 446.414 -2.26619 -1.93515 0
M  V30 4834 H 443.951 -1.12625 -0.946256 0
M  V30 4835 H 445.909 -0.979653 -4.05535 0
M  V30 4836 H 444.539 -0.200103 -3.22179 0
M  V30 4837 H 443.591 -2.58188 -2.79362 0
M  V30 4838 H 444.903 -3.22109 -3.8085 0
M  V30 4839 H 444.057 -1.90289 -5.76086 0
M  V30 4840 H 442.796 -1.15942 -4.73718 0
M  V30 4841 H 441.801 -3.42292 -4.30251 0
M  V30 4842 H 443.026 -4.1692 -5.36055 0
M  V30 4843 H 440.972 -2.09485 -6.21653 0
M  V30 4844 H 440.889 -3.7959 -6.53794 0
M  V30 4845 H 442.157 -2.84805 -7.25607 0
M  V30 4846 N 446.386 1.0089 -1.21074 0
M  V30 4847 C 447.316 2.1145 -0.990523 0
M  V30 4848 C 448.297 1.69897 0.0831699 0
M  V30 4849 O 449.482 1.94052 -0.0758853 0
M  V30 4850 C 446.612 3.42914 -0.550177 0
M  V30 4851 C 445.566 3.98244 -1.56799 0
M  V30 4852 C 444.892 5.25568 -0.984013 0
M  V30 4853 C 446.192 4.30752 -2.95381 0
M  V30 4854 H 447.886 2.3013 -1.91521 0
M  V30 4855 H 445.432 1.10592 -0.92225 0
M  V30 4856 H 447.385 4.19653 -0.383305 0
M  V30 4857 H 446.109 3.24014 0.41015 0
M  V30 4858 H 444.768 3.23621 -1.72236 0
M  V30 4859 H 444.416 5.02998 -0.0155216 0
M  V30 4860 H 444.116 5.63551 -1.66384 0
M  V30 4861 H 445.64 6.04955 -0.828378 0
M  V30 4862 H 447.054 4.98349 -2.8341 0
M  V30 4863 H 445.451 4.79869 -3.60341 0
M  V30 4864 H 446.521 3.39192 -3.46521 0
M  V30 4865 N 447.864 1.01787 1.20321 0
M  V30 4866 C 449.28 0.732951 1.41774 0
M  V30 4867 C 449.48 -0.686883 1.89431 0
M  V30 4868 O 448.536 -1.45446 2.06402 0
M  V30 4869 C 449.849 1.75973 2.43832 0
M  V30 4870 C 451.397 1.77802 2.57596 0
M  V30 4871 C 451.872 2.7941 3.62897 0
M  V30 4872 N 453.363 2.78157 3.70382 0
M  V30 4873 C 454.098 3.53434 4.51521 0
M  V30 4874 N 453.594 4.38392 5.36455 0
M  V30 4875 N 455.387 3.42026 4.46066 0
M  V30 4876 H 447.538 1.93447 0.877035 0
M  V30 4877 H 449.801 0.835712 0.447536 0
M  V30 4878 H 449.507 2.77699 2.15815 0
M  V30 4879 H 449.381 1.57292 3.4284 0
M  V30 4880 H 451.768 0.767602 2.84942 0
M  V30 4881 H 451.849 2.00557 1.58779 0
M  V30 4882 H 451.493 3.80616 3.36295 0
M  V30 4883 H 451.423 2.53916 4.61339 0
M  V30 4884 H 453.914 2.16531 3.09714 0
M  V30 4885 H 454.227 4.92596 5.95457 0
M  V30 4886 H 452.572 4.4247 5.35953 0
M  V30 4887 H 455.763 2.75075 3.78749 0
M  V30 4888 H 455.936 4.00946 5.09064 0
M  V30 4889 N 449.342 -1.36122 0.79427 0
M  V30 4890 C 450.59 -1.98718 0.368177 0
M  V30 4891 C 450.911 -1.63345 -1.06506 0
M  V30 4892 O 450.181 -0.909825 -1.73491 0
M  V30 4893 H 448.761 -0.735038 0.133146 0
M  V30 4894 H 451.423 -1.66239 1.01739 0
M  V30 4895 H 450.519 -3.08633 0.463923 0
M  V30 4896 N 450.82 -0.546701 -1.47814 0
M  V30 4897 C 452.048 -0.0232857 -2.06887 0
M  V30 4898 C 452.463 1.26571 -1.4009 0
M  V30 4899 O 451.82 1.7569 -0.493906 0
M  V30 4900 C 451.871 0.186975 -3.61016 0
M  V30 4901 O 451.592 -1.05097 -4.25307 0
M  V30 4902 C 453.093 0.748872 -4.36929 0
M  V30 4903 H 450.313 -0.0410763 -0.669742 0
M  V30 4904 H 452.857 -0.757117 -1.89968 0
M  V30 4905 H 451.012 0.870903 -3.77484 0
M  V30 4906 H 451.426 -0.842121 -5.17695 0
M  V30 4907 H 452.9 0.845334 -5.45489 0
M  V30 4908 H 453.377 1.75772 -4.02493 0
M  V30 4909 H 453.983 0.100979 -4.2518 0
M  V30 4910 N 452.299 1.55045 -0.282633 0
M  V30 4911 C 453.527 2.04168 0.33512 0
M  V30 4912 C 453.942 1.16071 1.48906 0
M  V30 4913 O 453.299 0.182391 1.81586 0
M  V30 4914 C 453.35 3.52332 0.808957 0
M  V30 4915 O 453.071 4.37078 -0.299038 0
M  V30 4916 C 454.572 4.17375 1.49375 0
M  V30 4917 H 451.792 0.666744 0.0754543 0
M  V30 4918 H 454.336 2.00205 -0.416918 0
M  V30 4919 H 452.491 3.56715 1.51106 0
M  V30 4920 H 452.905 5.24458 0.0665514 0
M  V30 4921 H 454.379 5.22627 1.77664 0
M  V30 4922 H 454.856 3.65999 2.42778 0
M  V30 4923 H 455.462 4.17016 0.835305 0
M  V30 4924 N 453.777 0.010035 1.57597 0
M  V30 4925 C 455.025 -0.671371 1.90623 0
M  V30 4926 C 455.346 -1.73753 0.885151 0
M  V30 4927 O 454.616 -1.95752 -0.0760611 0
M  V30 4928 H 453.196 -0.250968 0.703579 0
M  V30 4929 H 455.858 0.0533325 1.94827 0
M  V30 4930 H 454.954 -1.13626 2.90681 0
M  V30 4931 N 455.255 -1.55392 -0.262866 0
M  V30 4932 C 456.501 -1.77657 -0.990424 0
M  V30 4933 C 456.856 -0.576333 -1.83565 0
M  V30 4934 O 456.149 0.430795 -1.86694 0
M  V30 4935 C 456.343 -3.02889 -1.89718 0
M  V30 4936 C 456.172 -4.34979 -1.14121 0
M  V30 4937 C 454.942 -4.98052 -0.852768 0
M  V30 4938 C 457.14 -5.11597 -0.526625 0
M  V30 4939 N 455.122 -6.13859 -0.0710649 0
M  V30 4940 C 456.493 -6.19883 0.12042 0
M  V30 4941 C 458.548 -4.95992 -0.435485 0
M  V30 4942 C 457.251 -7.14262 0.849833 0
M  V30 4943 C 459.277 -5.90735 0.280359 0
M  V30 4944 C 458.639 -6.98417 0.916103 0
M  V30 4945 H 454.738 -0.702242 -0.344064 0
M  V30 4946 H 457.322 -1.92887 -0.265088 0
M  V30 4947 H 455.493 -2.89017 -2.59468 0
M  V30 4948 H 457.225 -3.13516 -2.5591 0
M  V30 4949 H 453.98 -4.5916 -1.16058 0
M  V30 4950 H 454.404 -6.76302 0.307413 0
M  V30 4951 H 459.046 -4.12832 -0.912671 0
M  V30 4952 H 456.764 -7.96935 1.33867 0
M  V30 4953 H 460.35 -5.80738 0.351332 0
M  V30 4954 H 459.23 -7.70467 1.46119 0
M  V30 4955 N 456.733 0.527833 -1.48498 0
M  V30 4956 C 457.68 1.6322 -1.6318 0
M  V30 4957 C 458.65 1.59199 -0.473815 0
M  V30 4958 O 459.835 1.77591 -0.697563 0
M  V30 4959 C 456.975 3.01474 -1.67951 0
M  V30 4960 C 456.088 3.15713 -2.94871 0
M  V30 4961 C 455.223 4.44539 -2.90789 0
M  V30 4962 C 454.262 4.52315 -4.12404 0
M  V30 4963 N 453.399 5.72533 -4.06387 0
M  V30 4964 H 458.239 1.50011 -2.57489 0
M  V30 4965 H 455.776 0.730298 -1.27691 0
M  V30 4966 H 457.734 3.81572 -1.68698 0
M  V30 4967 H 456.364 3.1345 -0.771306 0
M  V30 4968 H 455.416 2.28854 -3.03859 0
M  V30 4969 H 456.728 3.1732 -3.8485 0
M  V30 4970 H 455.882 5.3293 -2.89949 0
M  V30 4971 H 454.621 4.45457 -1.98542 0
M  V30 4972 H 453.626 3.62331 -4.13517 0
M  V30 4973 H 454.851 4.53134 -5.05812 0
M  V30 4974 H 452.797 5.74344 -3.16962 0
M  V30 4975 H 452.714 5.75643 -4.90073 0
M  V30 4976 H 453.982 6.63204 -4.0961 0
M  V30 4977 N 458.211 1.37122 0.776871 0
M  V30 4978 C 459.46 1.31373 1.53049 0
M  V30 4979 C 459.773 -0.101016 1.95339 0
M  V30 4980 O 460.979 -0.280953 2.70042 0
M  V30 4981 C 459.435 2.30567 2.76346 0
M  V30 4982 C 459.043 3.77543 2.41175 0
M  V30 4983 C 460.787 2.33818 3.54301 0
M  V30 4984 C 458.694 4.68481 3.60943 0
M  V30 4985 H 457.624 0.488234 0.574581 0
M  V30 4986 H 460.275 1.62554 0.851372 0
M  V30 4987 H 458.657 1.92396 3.46121 0
M  V30 4988 H 459.831 4.24521 1.79216 0
M  V30 4989 H 458.146 3.77187 1.76405 0
M  V30 4990 H 460.743 2.98965 4.4331 0
M  V30 4991 H 461.086 1.3503 3.93793 0
M  V30 4992 H 461.619 2.7067 2.91518 0
M  V30 4993 H 458.358 5.68378 3.26537 0
M  V30 4994 H 457.878 4.2621 4.22025 0
M  V30 4995 H 459.557 4.85366 4.27819 0
M  V30 4996 N 459.689 -1.00246 1.21608 0
M  V30 4997 C 460.919 -1.77373 1.05935 0
M  V30 4998 C 461.327 -1.85059 -0.393686 0
M  V30 4999 O 460.67 -1.31289 -1.28487 0
M  V30 5000 C 460.732 -3.22705 1.58435 0
M  V30 5001 C 460.396 -3.38591 3.06929 0
M  V30 5002 C 461.393 -3.2667 4.04454 0
M  V30 5003 C 459.078 -3.6395 3.46187 0
M  V30 5004 C 461.072 -3.39877 5.39224 0
M  V30 5005 C 458.759 -3.768 4.81108 0
M  V30 5006 C 459.757 -3.6477 5.77436 0
M  V30 5007 O 459.445 -3.77206 7.09909 0
M  V30 5008 H 459.177 -0.56419 0.372378 0
M  V30 5009 H 461.731 -1.26971 1.61454 0
M  V30 5010 H 459.961 -3.74255 0.973147 0
M  V30 5011 H 461.65 -3.81515 1.38568 0
M  V30 5012 H 462.416 -3.06999 3.75468 0
M  V30 5013 H 458.295 -3.72395 2.71741 0
M  V30 5014 H 461.839 -3.30404 6.14393 0
M  V30 5015 H 457.736 -3.95975 5.09779 0
M  V30 5016 H 458.504 -3.94138 7.17355 0
M  V30 5017 N 461.167 -1.02423 -1.1978 0
M  V30 5018 C 462.413 -0.719051 -1.89625 0
M  V30 5019 C 462.746 0.750083 -1.7913 0
M  V30 5020 O 462.021 1.54574 -1.18056 0
M  V30 5021 C 462.304 -1.16499 -3.40735 0
M  V30 5022 C 462.157 -2.695 -3.60125 0
M  V30 5023 C 463.476 -0.742166 -4.33797 0
M  V30 5024 H 460.595 -0.26269 -0.688595 0
M  V30 5025 H 463.237 -1.27333 -1.41018 0
M  V30 5026 H 461.387 -0.69341 -3.82262 0
M  V30 5027 H 463.059 -3.24569 -3.278 0
M  V30 5028 H 461.302 -3.10113 -3.03336 0
M  V30 5029 H 461.973 -2.95757 -4.66081 0
M  V30 5030 H 464.449 -1.1477 -3.99959 0
M  V30 5031 H 463.325 -1.08213 -5.38127 0
M  V30 5032 H 463.586 0.355747 -4.40666 0
M  V30 5033 N 462.645 1.35699 -0.801477 0
M  V30 5034 C 464.056 1.81415 -0.441073 0
M  V30 5035 C 464.407 1.66595 1.03636 0
M  V30 5036 O 463.532 1.19369 1.80499 0
M  V30 5037 C 464.127 3.29369 -0.793819 0
M  V30 5038 C 462.686 3.73248 -0.486083 0
M  V30 5039 C 461.833 2.57775 -1.02213 0
M  V30 5040 H 464.784 1.23749 -0.993572 0
M  V30 5041 H 464.805 3.80395 -0.0894158 0
M  V30 5042 H 464.317 3.40123 -1.86917 0
M  V30 5043 H 462.418 3.68046 0.580735 0
M  V30 5044 H 462.531 4.68222 -1.01513 0
M  V30 5045 H 460.895 2.50788 -0.444712 0
M  V30 5046 H 461.678 2.71309 -2.10348 0
M  V30 5047 N 464.123 0.554532 1.47522 0
M  V30 5048 C 465.055 -0.232106 2.28022 0
M  V30 5049 C 466.068 -0.881865 1.36847 0
M  V30 5050 O 467.257 -0.756168 1.61692 0
M  V30 5051 C 464.357 -1.34604 3.11022 0
M  V30 5052 C 463.53 -0.793582 4.30141 0
M  V30 5053 C 462.589 -1.79168 4.94758 0
M  V30 5054 O 461.615 -1.33886 5.5323 0
M  V30 5055 N 462.817 -3.12495 4.89211 0
M  V30 5056 H 465.582 0.458407 2.96173 0
M  V30 5057 H 463.143 0.390433 1.57122 0
M  V30 5058 H 465.135 -2.01243 3.51118 0
M  V30 5059 H 463.705 -1.93983 2.45131 0
M  V30 5060 H 462.925 0.0495025 3.94169 0
M  V30 5061 H 464.213 -0.403776 5.07195 0
M  V30 5062 H 463.611 -3.51931 4.42901 0
M  V30 5063 H 462.168 -3.74698 5.33333 0
M  V30 5064 N 465.601 -1.54893 0.290851 0
M  V30 5065 C 466.829 -2.04343 -0.324288 0
M  V30 5066 C 467.244 -1.16859 -1.48289 0
M  V30 5067 O 466.601 -0.192018 -1.81487 0
M  V30 5068 C 466.652 -3.52756 -0.79026 0
M  V30 5069 O 466.373 -4.36913 0.322213 0
M  V30 5070 C 467.874 -4.18161 -1.4716 0
M  V30 5071 H 465.094 -0.667135 -0.0719173 0
M  V30 5072 H 467.638 -1.99981 0.427529 0
M  V30 5073 H 465.793 -3.57511 -1.49213 0
M  V30 5074 H 466.207 -5.24486 -0.0387372 0
M  V30 5075 H 467.681 -5.23562 -1.7489 0
M  V30 5076 H 468.158 -3.67282 -2.40834 0
M  V30 5077 H 468.764 -4.17454 -0.813178 0
M  V30 5078 N 467.08 -0.0183926 -1.57589 0
M  V30 5079 C 468.328 0.661253 -1.90976 0
M  V30 5080 C 468.649 1.73281 -0.894353 0
M  V30 5081 O 467.919 1.9579 0.0656788 0
M  V30 5082 H 466.499 0.247233 -0.704901 0
M  V30 5083 H 469.161 -0.0636639 -1.94796 0
M  V30 5084 H 468.257 1.12083 -2.9128 0
M  V30 5085 N 468.558 1.5553 0.254621 0
M  V30 5086 C 469.468 1.92789 1.33677 0
M  V30 5087 C 470.484 0.827356 1.53071 0
M  V30 5088 O 471.66 1.12807 1.66843 0
M  V30 5089 C 468.725 2.20827 2.67275 0
M  V30 5090 C 467.786 3.4427 2.5647 0
M  V30 5091 C 467.019 3.70961 3.83697 0
M  V30 5092 O 467.242 2.99852 4.85227 0
M  V30 5093 O 466.176 4.64491 3.82794 0
M  V30 5094 H 470.002 2.84945 1.05071 0
M  V30 5095 H 467.587 1.42312 0.454723 0
M  V30 5096 H 469.469 2.40204 3.46237 0
M  V30 5097 H 468.144 1.31851 2.9563 0
M  V30 5098 H 467.051 3.30209 1.75821 0
M  V30 5099 H 468.384 4.33524 2.33062 0
M  V30 5100 N 470.036 -0.519951 1.48776 0
M  V30 5101 C 471.282 -1.27711 1.57536 0
M  V30 5102 C 471.615 -1.92547 0.252866 0
M  V30 5103 O 470.89 -1.7979 -0.742021 0
M  V30 5104 C 471.173 -2.35875 2.72094 0
M  V30 5105 C 471.026 -1.75664 4.1408 0
M  V30 5106 C 472.345 -3.37575 2.82367 0
M  V30 5107 H 469.464 -0.462971 0.573434 0
M  V30 5108 H 472.106 -0.578194 1.80989 0
M  V30 5109 H 470.256 -2.95488 2.52228 0
M  V30 5110 H 471.928 -1.20025 4.45412 0
M  V30 5111 H 470.171 -1.06154 4.20611 0
M  V30 5112 H 470.842 -2.54029 4.90075 0
M  V30 5113 H 473.318 -2.87929 3.00393 0
M  V30 5114 H 472.194 -4.1064 3.64233 0
M  V30 5115 H 472.455 -3.98743 1.90936 0
M  V30 5116 N 471.514 -1.37532 -0.769588 0
M  V30 5117 C 472.763 -1.32183 -1.5235 0
M  V30 5118 C 473.076 0.0906555 -1.9539 0
M  V30 5119 O 474.282 0.266628 -2.70188 0
M  V30 5120 C 472.738 -2.32029 -2.75119 0
M  V30 5121 C 472.346 -3.78816 -2.3917 0
M  V30 5122 C 474.09 -2.35694 -3.53056 0
M  V30 5123 C 471.997 -4.70388 -3.58453 0
M  V30 5124 H 470.927 -0.491275 -0.571984 0
M  V30 5125 H 473.578 -1.63004 -0.842739 0
M  V30 5126 H 471.96 -1.94229 -3.45096 0
M  V30 5127 H 473.134 -4.25466 -1.76962 0
M  V30 5128 H 471.449 -3.78117 -1.74402 0
M  V30 5129 H 474.046 -3.01312 -4.41718 0
M  V30 5130 H 474.389 -1.37117 -3.93071 0
M  V30 5131 H 474.922 -2.72212 -2.90078 0
M  V30 5132 H 471.661 -5.70102 -3.23518 0
M  V30 5133 H 471.181 -4.28442 -4.19758 0
M  V30 5134 H 472.86 -4.87628 -4.25239 0
M  V30 5135 N 472.992 0.995999 -1.22138 0
M  V30 5136 C 473.955 2.06711 -0.990109 0
M  V30 5137 C 474.955 1.60744 0.0422978 0
M  V30 5138 O 476.145 1.73095 -0.195895 0
M  V30 5139 C 473.277 3.37288 -0.49491 0
M  V30 5140 H 474.47 2.28661 -1.94047 0
M  V30 5141 H 472.023 1.16711 -1.03963 0
M  V30 5142 H 472.758 3.21022 0.459948 0
M  V30 5143 H 472.543 3.71986 -1.23971 0
M  V30 5144 H 474.033 4.16103 -0.353253 0
M  V30 5145 N 474.47 1.03057 1.19235 0
M  V30 5146 C 475.38 0.622922 2.26179 0
M  V30 5147 C 476.396 -0.346113 1.70523 0
M  V30 5148 O 477.572 -0.203572 2.00369 0
M  V30 5149 C 474.637 -0.0182063 3.46695 0
M  V30 5150 C 473.698 0.998546 4.17526 0
M  V30 5151 C 472.931 0.387917 5.32288 0
M  V30 5152 O 473.154 -0.808668 5.64639 0
M  V30 5153 O 472.088 1.1116 5.91546 0
M  V30 5154 H 475.914 1.51363 2.63292 0
M  V30 5155 H 473.499 0.800856 1.26122 0
M  V30 5156 H 475.381 -0.375606 4.19723 0
M  V30 5157 H 474.056 -0.882895 3.11427 0
M  V30 5158 H 472.963 1.40756 3.4661 0
M  V30 5159 H 474.296 1.83366 4.56769 0
M  V30 5160 N 475.948 -1.35272 0.808662 0
M  V30 5161 C 476.895 -2.29764 0.218482 0
M  V30 5162 C 477.865 -1.52911 -0.648652 0
M  V30 5163 O 479.05 -1.81341 -0.593297 0
M  V30 5164 C 476.19 -3.39388 -0.625282 0
M  V30 5165 C 475.303 -4.31202 0.262516 0
M  V30 5166 C 474.438 -5.27919 -0.589451 0
M  V30 5167 C 473.477 -6.11371 0.298617 0
M  V30 5168 N 472.614 -7.0022 -0.513443 0
M  V30 5169 H 477.454 -2.79645 1.02968 0
M  V30 5170 H 474.991 -1.37629 0.519303 0
M  V30 5171 H 476.949 -4.01615 -1.12966 0
M  V30 5172 H 475.579 -2.90777 -1.40173 0
M  V30 5173 H 474.631 -3.69962 0.885013 0
M  V30 5174 H 475.943 -4.89748 0.945971 0
M  V30 5175 H 475.097 -5.95529 -1.15888 0
M  V30 5176 H 473.836 -4.69875 -1.30647 0
M  V30 5177 H 472.841 -5.42707 0.880301 0
M  V30 5178 H 474.066 -6.71494 1.01352 0
M  V30 5179 H 472.012 -6.44662 -1.21439 0
M  V30 5180 H 471.929 -7.55917 0.111922 0
M  V30 5181 H 473.197 -7.72175 -1.06608 0
M  V30 5182 N 477.426 -0.562348 -1.47226 0
M  V30 5183 C 478.373 0.182461 -2.30078 0
M  V30 5184 C 479.343 0.903503 -1.39377 0
M  V30 5185 O 480.528 0.898188 -1.68337 0
M  V30 5186 C 477.668 1.20322 -3.23445 0
M  V30 5187 C 476.781 0.487717 -4.29238 0
M  V30 5188 C 475.916 1.49422 -5.09752 0
M  V30 5189 C 474.955 0.763976 -6.07314 0
M  V30 5190 N 474.092 1.71755 -6.80768 0
M  V30 5191 H 478.932 -0.530169 -2.93246 0
M  V30 5192 H 476.469 -0.273276 -1.44539 0
M  V30 5193 H 478.427 1.80768 -3.76004 0
M  V30 5194 H 477.057 1.88382 -2.6213 0
M  V30 5195 H 476.109 -0.231374 -3.79696 0
M  V30 5196 H 477.421 -0.0841003 -4.98729 0
M  V30 5197 H 476.575 2.17206 -5.66486 0
M  V30 5198 H 475.314 2.09995 -4.40174 0
M  V30 5199 H 474.319 0.0722344 -5.49753 0
M  V30 5200 H 475.544 0.16391 -6.78902 0
M  V30 5201 H 473.49 2.31177 -6.13916 0
M  V30 5202 H 473.407 1.19802 -7.46447 0
M  V30 5203 H 474.675 2.38638 -7.42073 0
M  V30 5204 N 478.904 1.54736 -0.299062 0
M  V30 5205 C 479.867 2.22127 0.565012 0
M  V30 5206 C 480.867 1.20669 1.06281 0
M  V30 5207 O 482.057 1.45417 0.959145 0
M  V30 5208 C 479.189 2.90611 1.78208 0
M  V30 5209 H 480.382 2.99891 -0.0237448 0
M  V30 5210 H 477.935 1.5622 -0.0498788 0
M  V30 5211 H 478.67 2.16921 2.41072 0
M  V30 5212 H 478.455 3.64984 1.43281 0
M  V30 5213 H 479.945 3.42026 2.396 0
M  V30 5214 N 480.382 0.0267497 1.57577 0
M  V30 5215 C 481.329 -0.955894 2.10075 0
M  V30 5216 C 482.299 -1.32453 1.00226 0
M  V30 5217 O 483.484 -1.41826 1.27632 0
M  V30 5218 C 480.624 -2.2338 2.6305 0
M  V30 5219 C 479.737 -1.92183 3.86898 0
M  V30 5220 C 478.872 -3.14251 4.28275 0
M  V30 5221 C 477.911 -2.78862 5.44888 0
M  V30 5222 N 477.048 -3.93548 5.81433 0
M  V30 5223 H 481.888 -0.501303 2.93753 0
M  V30 5224 H 479.425 -0.235847 1.45197 0
M  V30 5225 H 481.383 -2.98124 2.91853 0
M  V30 5226 H 480.013 -2.6646 1.82205 0
M  V30 5227 H 479.065 -1.07692 3.64838 0
M  V30 5228 H 480.377 -1.62117 4.7172 0
M  V30 5229 H 479.531 -3.97317 4.58502 0
M  V30 5230 H 478.27 -3.47476 3.42215 0
M  V30 5231 H 477.275 -1.94208 5.14357 0
M  V30 5232 H 478.5 -2.46855 6.32645 0
M  V30 5233 H 476.446 -4.2662 4.98328 0
M  V30 5234 H 476.363 -3.67098 6.6089 0
M  V30 5235 H 477.631 -4.77325 6.16264 0
M  V30 5236 N 481.861 -1.55662 -0.24637 0
M  V30 5237 C 483.138 -1.68272 -0.997198 0
M  V30 5238 C 483.518 -0.566785 -2.03349 0
M  V30 5239 O 482.866 0.429688 -2.24424 0
M  V30 5240 C 483.076 -3.08594 -1.63006 0
M  V30 5241 C 484.424 -3.6721 -2.13171 0
M  V30 5242 O 485.448 -3.11397 -1.72946 0
M  V30 5243 O 484.307 -4.65054 -2.87031 0
M  V30 5244 H 481.401 -0.684429 -0.464205 0
M  V30 5245 H 483.947 -1.67993 -0.240114 0
M  V30 5246 H 482.719 -3.81264 -0.880527 0
M  V30 5247 H 482.342 -3.12886 -2.45333 0
M  V30 5248 N 483.339 0.512053 -1.4905 0
M  V30 5249 C 484.587 1.26436 -1.57665 0
M  V30 5250 C 484.908 1.93255 -0.260293 0
M  V30 5251 O 484.178 1.82206 0.719564 0
M  V30 5252 H 482.758 0.469658 -0.580888 0
M  V30 5253 H 485.42 0.594398 -1.85615 0
M  V30 5254 H 484.516 2.03417 -2.36702 0
M  V30 5255 N 484.817 1.37938 0.762283 0
M  V30 5256 C 485.727 1.36681 1.90671 0
M  V30 5257 C 486.743 0.265078 1.71969 0
M  V30 5258 O 487.919 0.502055 1.95042 0
M  V30 5259 C 484.984 1.18211 3.25925 0
M  V30 5260 C 484.045 2.3811 3.57214 0
M  V30 5261 C 483.278 2.20512 4.86014 0
M  V30 5262 O 483.501 1.19429 5.57757 0
M  V30 5263 O 482.435 3.08911 5.16583 0
M  V30 5264 H 486.261 2.33091 1.94685 0
M  V30 5265 H 483.846 1.18767 0.906356 0
M  V30 5266 H 485.728 1.09937 4.06807 0
M  V30 5267 H 484.403 0.248807 3.22742 0
M  V30 5268 H 483.31 2.51958 2.76529 0
M  V30 5269 H 484.643 3.30041 3.65149 0
M  V30 5270 N 486.295 -0.989507 1.22664 0
M  V30 5271 C 487.572 -1.70326 0.961688 0
M  V30 5272 C 487.952 -2.04537 -0.522279 0
M  V30 5273 O 487.3 -1.73136 -1.49118 0
M  V30 5274 C 487.51 -2.95135 1.86269 0
M  V30 5275 C 488.858 -3.67842 2.12078 0
M  V30 5276 O 489.882 -3.0515 1.83745 0
M  V30 5277 O 488.741 -4.80644 2.60083 0
M  V30 5278 H 485.835 -0.743589 0.361946 0
M  V30 5279 H 488.381 -1.04555 1.33665 0
M  V30 5280 H 487.153 -2.66382 2.8663 0
M  V30 5281 H 486.776 -3.68645 1.48952 0
M  V30 5282 N 487.773 -1.03688 -1.18687 0
M  V30 5283 C 488.703 -0.645407 -2.24403 0
M  V30 5284 C 489.684 0.349511 -1.66471 0
M  V30 5285 O 490.869 0.230453 -1.92828 0
M  V30 5286 C 487.999 -0.00365337 -3.473 0
M  V30 5287 C 486.953 -0.921705 -4.17958 0
M  V30 5288 C 486.279 -0.144629 -5.34504 0
M  V30 5289 C 487.579 -2.23909 -4.71871 0
M  V30 5290 H 489.273 -1.52917 -2.57404 0
M  V30 5291 H 486.819 -0.736711 -1.23728 0
M  V30 5292 H 488.772 0.281908 -4.20456 0
M  V30 5293 H 487.496 0.914963 -3.13522 0
M  V30 5294 H 486.155 -1.19159 -3.46694 0
M  V30 5295 H 485.803 0.776274 -4.96974 0
M  V30 5296 H 485.503 -0.756206 -5.82714 0
M  V30 5297 H 487.027 0.134004 -6.10453 0
M  V30 5298 H 488.441 -2.0145 -5.36741 0
M  V30 5299 H 486.838 -2.8033 -5.30599 0
M  V30 5300 H 487.908 -2.88822 -3.895 0
M  V30 5301 N 489.251 1.34841 -0.815825 0
M  V30 5302 C 490.201 2.27075 -0.205169 0
M  V30 5303 C 491.185 1.48205 0.626414 0
M  V30 5304 O 492.377 1.70306 0.482157 0
M  V30 5305 C 489.506 3.37322 0.637871 0
M  V30 5306 C 488.592 4.23609 -0.203948 0
M  V30 5307 N 488.983 4.89558 -1.27149 0
M  V30 5308 C 487.281 4.45998 0.0128971 0
M  V30 5309 C 487.982 5.53597 -1.7862 0
M  V30 5310 N 486.958 5.32535 -1.0912 0
M  V30 5311 H 490.76 2.75563 -1.02187 0
M  V30 5312 H 488.274 1.48477 -0.657912 0
M  V30 5313 H 490.271 4.02359 1.09146 0
M  V30 5314 H 488.931 2.90385 1.45281 0
M  V30 5315 H 489.942 4.9077 -1.65423 0
M  V30 5316 H 486.619 4.09837 0.79624 0
M  V30 5317 H 488.009 6.16184 -2.67892 0
M  V30 5318 N 490.729 0.570148 1.46925 0
M  V30 5319 C 491.659 -0.158274 2.32963 0
M  V30 5320 C 492.64 -0.896093 1.44583 0
M  V30 5321 O 493.825 -0.874022 1.7342 0
M  V30 5322 C 490.955 -1.18055 3.26619 0
M  V30 5323 C 489.909 -0.558379 4.24342 0
M  V30 5324 C 489.235 -1.68623 5.07415 0
M  V30 5325 C 490.535 0.496295 5.19937 0
M  V30 5326 H 492.229 0.560046 2.94115 0
M  V30 5327 H 489.775 0.270775 1.41431 0
M  V30 5328 H 491.728 -1.69841 3.85658 0
M  V30 5329 H 490.452 -1.92899 2.63548 0
M  V30 5330 H 489.111 -0.0617157 3.66548 0
M  V30 5331 H 488.759 -2.42402 4.40738 0
M  V30 5332 H 488.459 -1.27564 5.73586 0
M  V30 5333 H 489.983 -2.20709 5.69315 0
M  V30 5334 H 491.397 0.0640052 5.73264 0
M  V30 5335 H 489.794 0.82649 5.94381 0
M  V30 5336 H 490.864 1.38735 4.6463 0
M  V30 5337 N 492.207 -1.54576 0.307264 0
M  V30 5338 C 493.435 -2.04675 -0.302597 0
M  V30 5339 C 493.85 -1.18425 -1.47041 0
M  V30 5340 O 493.207 -0.211257 -1.81273 0
M  V30 5341 C 493.258 -3.53575 -0.752801 0
M  V30 5342 O 492.979 -4.36547 0.368536 0
M  V30 5343 C 494.48 -4.19699 -1.42717 0
M  V30 5344 H 491.7 -0.66786 -0.0648374 0
M  V30 5345 H 494.244 -1.99516 0.448716 0
M  V30 5346 H 492.399 -3.59074 -1.45412 0
M  V30 5347 H 492.813 -5.24497 0.0168937 0
M  V30 5348 H 494.287 -5.25388 -1.69327 0
M  V30 5349 H 494.764 -3.69815 -2.36925 0
M  V30 5350 H 495.37 -4.18293 -0.768856 0
M  V30 5351 N 493.685 -0.035106 -1.57561 0
M  V30 5352 C 494.934 0.641604 -1.91223 0
M  V30 5353 C 495.247 1.72944 -0.913761 0
M  V30 5354 O 496.453 2.46321 -1.14185 0
M  V30 5355 C 494.909 1.19249 -3.3957 0
M  V30 5356 C 494.517 0.137616 -4.47789 0
M  V30 5357 C 496.261 1.84537 -3.82291 0
M  V30 5358 C 494.168 0.700478 -5.87237 0
M  V30 5359 H 493.098 0.243417 -0.713627 0
M  V30 5360 H 495.749 -0.101382 -1.8322 0
M  V30 5361 H 494.131 1.98728 -3.42525 0
M  V30 5362 H 495.305 -0.635153 -4.56402 0
M  V30 5363 H 493.62 -0.416855 -4.14308 0
M  V30 5364 H 496.217 2.27616 -4.83834 0
M  V30 5365 H 496.56 2.69054 -3.17672 0
M  V30 5366 H 497.093 1.11739 -3.81784 0
M  V30 5367 H 493.832 -0.106693 -6.55413 0
M  V30 5368 H 493.352 1.4416 -5.82218 0
M  V30 5369 H 495.031 1.18837 -6.35993 0
M  V30 5370 N 495.163 1.55791 0.238111 0
M  V30 5371 C 496.44 1.68798 0.98826 0
M  V30 5372 C 496.82 0.577562 2.03045 0
M  V30 5373 O 496.168 -0.41778 2.24648 0
M  V30 5374 C 496.378 3.09454 1.61367 0
M  V30 5375 C 497.726 3.68335 2.11221 0
M  V30 5376 O 498.75 3.1231 1.71292 0
M  V30 5377 O 497.609 4.6657 2.84561 0
M  V30 5378 H 494.703 0.686881 0.460568 0
M  V30 5379 H 497.249 1.68118 0.231202 0
M  V30 5380 H 496.021 3.81726 0.860295 0
M  V30 5381 H 495.644 3.14182 2.4367 0
M  V30 5382 N 496.642 -0.504142 1.49319 0
M  V30 5383 C 497.891 -1.25507 1.57895 0
M  V30 5384 C 498.204 -1.93735 0.269433 0
M  V30 5385 O 499.41 -2.70492 0.233706 0
M  V30 5386 C 497.866 -2.27869 2.78574 0
M  V30 5387 C 497.474 -1.65594 4.16272 0
M  V30 5388 C 499.218 -3.0381 2.96479 0
M  V30 5389 C 497.125 -2.66048 5.28178 0
M  V30 5390 H 496.055 -0.47212 0.587894 0
M  V30 5391 H 498.706 -0.52931 1.757 0
M  V30 5392 H 497.088 -3.03594 2.54257 0
M  V30 5393 H 498.262 -0.958826 4.50714 0
M  V30 5394 H 496.577 -1.02055 4.037 0
M  V30 5395 H 499.174 -3.78925 3.77253 0
M  V30 5396 H 499.517 -3.61235 2.06918 0
M  V30 5397 H 500.05 -2.352 3.20821 0
M  V30 5398 H 496.789 -2.13408 6.19788 0
M  V30 5399 H 496.309 -3.34009 4.98195 0
M  V30 5400 H 497.988 -3.28536 5.57381 0
M  V30 5401 N 498.12 -1.38341 -0.754957 0
M  V30 5402 C 499.067 -1.3546 -1.86867 0
M  V30 5403 C 500.037 -0.217369 -1.64672 0
M  V30 5404 O 501.222 -0.409383 -1.86356 0
M  V30 5405 C 498.362 -1.18413 -3.24149 0
M  V30 5406 C 497.475 -2.41511 -3.58185 0
M  V30 5407 C 496.61 -2.17205 -4.84763 0
M  V30 5408 C 495.649 -3.36081 -5.11582 0
M  V30 5409 N 494.786 -3.11219 -6.29354 0
M  V30 5410 H 499.626 -2.30672 -1.88664 0
M  V30 5411 H 497.163 -1.14607 -0.922154 0
M  V30 5412 H 499.121 -1.06545 -4.03366 0
M  V30 5413 H 497.751 -0.268397 -3.21682 0
M  V30 5414 H 496.803 -2.64056 -2.73822 0
M  V30 5415 H 498.115 -3.30115 -3.73932 0
M  V30 5416 H 497.269 -2.02465 -5.7192 0
M  V30 5417 H 496.008 -1.25964 -4.71152 0
M  V30 5418 H 495.013 -3.51341 -4.22894 0
M  V30 5419 H 496.238 -4.28196 -5.27091 0
M  V30 5420 H 494.184 -2.22624 -6.17069 0
M  V30 5421 H 494.101 -3.93373 -6.45596 0
M  V30 5422 H 495.369 -3.00132 -7.19403 0
M  V30 5423 N 499.598 0.982988 -1.23187 0
M  V30 5424 C 500.826 1.75921 -1.08901 0
M  V30 5425 C 501.241 1.85341 0.359719 0
M  V30 5426 O 500.598 1.33072 1.24892 0
M  V30 5427 C 500.649 3.18742 -1.70545 0
M  V30 5428 O 500.37 3.09814 -3.09753 0
M  V30 5429 C 501.871 4.1277 -1.61667 0
M  V30 5430 H 499.091 0.552166 -0.381252 0
M  V30 5431 H 501.635 1.23516 -1.62985 0
M  V30 5432 H 499.79 3.68182 -1.20501 0
M  V30 5433 H 500.204 3.99703 -3.39614 0
M  V30 5434 H 501.678 5.10697 -2.09506 0
M  V30 5435 H 502.155 4.3542 -0.575009 0
M  V30 5436 H 502.761 3.69232 -2.11064 0
M  V30 5437 N 501.076 1.04316 1.18135 0
M  V30 5438 C 502.008 0.594444 2.21357 0
M  V30 5439 C 503.021 -0.337215 1.59269 0
M  V30 5440 O 504.21 -0.131337 1.78016 0
M  V30 5441 C 501.31 -0.151251 3.38562 0
M  V30 5442 C 500.483 0.788907 4.30227 0
M  V30 5443 C 499.542 0.0860572 5.2613 0
M  V30 5444 O 498.568 0.717302 5.64662 0
M  V30 5445 N 499.77 -1.17969 5.68387 0
M  V30 5446 H 502.535 1.48227 2.60478 0
M  V30 5447 H 500.096 0.92396 1.32946 0
M  V30 5448 H 502.088 -0.631352 3.99745 0
M  V30 5449 H 500.658 -0.940639 2.98112 0
M  V30 5450 H 499.878 1.44882 3.6661 0
M  V30 5451 H 501.166 1.42738 4.88368 0
M  V30 5452 H 500.564 -1.71302 5.3914 0
M  V30 5453 H 499.121 -1.60402 6.31755 0
M  V30 5454 N 502.554 -1.34406 0.822964 0
M  V30 5455 C 503.487 -2.27407 0.190124 0
M  V30 5456 C 504.465 -1.4889 -0.653486 0
M  V30 5457 O 505.649 -1.78109 -0.617216 0
M  V30 5458 C 502.776 -3.3064 -0.734477 0
M  V30 5459 C 501.822 -4.26488 0.0316099 0
M  V30 5460 S 502.655 -5.17445 1.3788 0
M  V30 5461 C 503.811 -6.24214 0.45907 0
M  V30 5462 H 504.044 -2.80733 0.978586 0
M  V30 5463 H 501.577 -1.41455 0.618866 0
M  V30 5464 H 503.535 -3.90607 -1.26238 0
M  V30 5465 H 502.196 -2.76161 -1.49646 0
M  V30 5466 H 501.389 -4.9951 -0.671285 0
M  V30 5467 H 500.991 -3.70775 0.490066 0
M  V30 5468 H 503.283 -6.76599 -0.349357 0
M  V30 5469 H 504.226 -6.98551 1.15896 0
M  V30 5470 H 504.634 -5.6448 0.0474825 0
M  V30 5471 N 504.032 -0.577932 -1.46621 0
M  V30 5472 C 504.979 0.158048 -2.30258 0
M  V30 5473 C 505.949 0.888669 -1.40328 0
M  V30 5474 O 507.134 0.880283 -1.6928 0
M  V30 5475 C 504.274 1.16884 -3.24703 0
M  V30 5476 C 503.387 0.442163 -4.29731 0
M  V30 5477 C 502.522 1.44007 -5.11308 0
M  V30 5478 C 501.561 0.69952 -6.0809 0
M  V30 5479 N 500.698 1.64525 -6.82551 0
M  V30 5480 H 505.538 -0.561242 -2.92667 0
M  V30 5481 H 503.075 -0.288591 -1.44241 0
M  V30 5482 H 505.033 1.7677 -3.779 0
M  V30 5483 H 503.663 1.85591 -2.64113 0
M  V30 5484 H 502.715 -0.271632 -3.79429 0
M  V30 5485 H 504.027 -0.136992 -4.98612 0
M  V30 5486 H 503.181 2.11186 -5.68758 0
M  V30 5487 H 501.92 2.05315 -4.42377 0
M  V30 5488 H 500.925 0.0139217 -5.49798 0
M  V30 5489 H 502.15 0.091894 -6.79038 0
M  V30 5490 H 500.096 2.24653 -6.16334 0
M  V30 5491 H 500.013 1.11878 -7.47676 0
M  V30 5492 H 501.281 2.30754 -7.44562 0
M  V30 5493 N 505.51 1.54411 -0.315457 0
M  V30 5494 C 506.44 2.27002 0.547039 0
M  V30 5495 C 507.421 1.27492 1.12605 0
M  V30 5496 O 508.606 1.5629 1.15269 0
M  V30 5497 C 505.736 3.02171 1.71201 0
M  V30 5498 C 504.69 4.0895 1.26268 0
M  V30 5499 C 504.016 4.71915 2.51396 0
M  V30 5500 C 505.316 5.20891 0.383419 0
M  V30 5501 H 507.01 2.99343 -0.0584517 0
M  V30 5502 H 504.556 1.4397 -0.0295527 0
M  V30 5503 H 506.509 3.51681 2.32161 0
M  V30 5504 H 505.233 2.27433 2.34397 0
M  V30 5505 H 503.892 3.60312 0.676062 0
M  V30 5506 H 503.54 3.93801 3.12937 0
M  V30 5507 H 503.24 5.44039 2.22026 0
M  V30 5508 H 504.764 5.24195 3.13133 0
M  V30 5509 H 506.178 5.66206 0.899082 0
M  V30 5510 H 504.575 5.99821 0.182857 0
M  V30 5511 H 505.645 4.81324 -0.587821 0
M  V30 5512 N 506.988 0.0434614 1.5754 0
M  V30 5513 C 508.218 -0.640905 1.96408 0
M  V30 5514 C 508.626 -1.65365 0.919297 0
M  V30 5515 O 507.969 -1.83395 -0.105795 0
M  V30 5516 C 508.031 -1.39141 3.31482 0
M  V30 5517 C 507.695 -0.535375 4.53853 0
M  V30 5518 C 508.692 0.195335 5.19533 0
M  V30 5519 C 506.377 -0.468564 5.0011 0
M  V30 5520 C 508.371 0.981377 6.298 0
M  V30 5521 C 506.058 0.321171 6.10255 0
M  V30 5522 C 507.056 1.04484 6.74961 0
M  V30 5523 O 506.744 1.8216 7.8299 0
M  V30 5524 H 506.476 -0.180584 0.651433 0
M  V30 5525 H 509.03 0.103848 2.05137 0
M  V30 5526 H 507.26 -2.18162 3.19284 0
M  V30 5527 H 508.949 -1.96526 3.55151 0
M  V30 5528 H 509.715 0.15314 4.84758 0
M  V30 5529 H 505.594 -1.02142 4.49542 0
M  V30 5530 H 509.138 1.54674 6.80237 0
M  V30 5531 H 505.035 0.365032 6.44467 0
M  V30 5532 H 505.803 1.74289 7.99728 0
M  V30 5533 N 508.466 -1.55915 -0.229846 0
M  V30 5534 C 509.743 -1.6932 -0.979295 0
M  V30 5535 C 510.123 -0.588321 -2.02736 0
M  V30 5536 O 509.471 0.40586 -2.24867 0
M  V30 5537 C 509.681 -3.10305 -1.59724 0
M  V30 5538 C 511.029 -3.6945 -2.09264 0
M  V30 5539 O 512.053 -3.13214 -1.69633 0
M  V30 5540 O 510.912 -4.68072 -2.82082 0
M  V30 5541 H 508.006 -0.689314 -0.456919 0
M  V30 5542 H 510.552 -1.68238 -0.222283 0
M  V30 5543 H 509.324 -3.82177 -0.840039 0
M  V30 5544 H 508.947 -3.1547 -2.42001 0
M  V30 5545 N 509.944 0.496216 -1.49584 0
M  V30 5546 C 510.854 1.62352 -1.69349 0
M  V30 5547 C 511.87 1.64184 -0.576147 0
M  V30 5548 O 513.046 1.82517 -0.85144 0
M  V30 5549 C 510.111 2.98698 -1.76013 0
M  V30 5550 C 509.172 3.07454 -2.99617 0
M  V30 5551 C 508.405 4.37296 -3.05953 0
M  V30 5552 O 508.628 5.2637 -2.19752 0
M  V30 5553 O 507.562 4.51124 -3.9846 0
M  V30 5554 H 511.388 1.48606 -2.64859 0
M  V30 5555 H 508.973 0.673022 -1.33382 0
M  V30 5556 H 510.855 3.79725 -1.82721 0
M  V30 5557 H 509.53 3.12696 -0.836828 0
M  V30 5558 H 508.437 2.25597 -2.98424 0
M  V30 5559 H 509.77 2.98385 -3.91443 0
M  V30 5560 N 511.423 1.38739 0.74761 0
M  V30 5561 C 512.353 1.39173 1.87492 0
M  V30 5562 C 513.334 0.256794 1.6815 0
M  V30 5563 O 514.519 0.460762 1.88655 0
M  V30 5564 C 511.649 1.22197 3.25093 0
M  V30 5565 C 510.603 2.32957 3.59047 0
M  V30 5566 C 509.929 2.01082 4.95449 0
M  V30 5567 C 511.229 3.75237 3.6331 0
M  V30 5568 H 512.923 2.3351 1.87386 0
M  V30 5569 H 510.469 1.12399 0.900134 0
M  V30 5570 H 512.422 1.21124 4.03617 0
M  V30 5571 H 511.146 0.243241 3.25693 0
M  V30 5572 H 509.805 2.33226 2.82845 0
M  V30 5573 H 509.453 1.01678 4.92616 0
M  V30 5574 H 509.153 2.75267 5.19136 0
M  V30 5575 H 510.677 2.01638 5.76346 0
M  V30 5576 H 512.091 3.76966 4.31937 0
M  V30 5577 H 510.488 4.48677 3.98509 0
M  V30 5578 H 511.558 4.07122 2.634 0
M  V30 5579 N 512.901 -0.976442 1.23707 0
M  V30 5580 C 513.848 -2.06952 1.02174 0
M  V30 5581 C 514.818 -1.65984 -0.0621034 0
M  V30 5582 O 516.003 -1.90584 0.0907906 0
M  V30 5583 C 513.143 -3.39425 0.62327 0
M  V30 5584 C 512.256 -3.9364 1.77966 0
M  V30 5585 C 511.391 -5.14343 1.3276 0
M  V30 5586 C 510.43 -5.60733 2.45449 0
M  V30 5587 N 509.567 -6.72662 2.01172 0
M  V30 5588 H 514.407 -2.24704 1.95734 0
M  V30 5589 H 511.944 -1.10143 0.975034 0
M  V30 5590 H 513.902 -4.15526 0.37332 0
M  V30 5591 H 512.532 -3.21624 -0.275329 0
M  V30 5592 H 511.584 -3.14258 2.14351 0
M  V30 5593 H 512.896 -4.24035 2.62671 0
M  V30 5594 H 512.05 -5.97789 1.03601 0
M  V30 5595 H 510.789 -4.8561 0.450975 0
M  V30 5596 H 509.794 -4.75865 2.75378 0
M  V30 5597 H 511.019 -5.91483 3.33654 0
M  V30 5598 H 508.965 -6.45681 1.15895 0
M  V30 5599 H 508.882 -7.02462 2.79434 0
M  V30 5600 H 510.15 -7.59572 1.75129 0
M  V30 5601 N 514.379 -1.04941 -1.1758 0
M  V30 5602 C 515.656 -0.671918 -1.83697 0
M  V30 5603 C 516.036 0.847929 -1.93322 0
M  V30 5604 O 515.384 1.75287 -1.46583 0
M  V30 5605 C 515.594 -1.35797 -3.21497 0
M  V30 5606 C 516.942 -1.4944 -3.97433 0
M  V30 5607 O 517.966 -1.31678 -3.30967 0
M  V30 5608 O 516.825 -1.78463 -5.1654 0
M  V30 5609 H 513.919 -0.236212 -0.792548 0
M  V30 5610 H 516.465 -1.14884 -1.24899 0
M  V30 5611 H 515.237 -2.39498 -3.09446 0
M  V30 5612 H 514.86 -0.870236 -3.8796 0
M  V30 5613 N 515.857 1.33968 -0.830081 0
M  V30 5614 C 517.134 1.92554 -0.343858 0
M  V30 5615 C 517.514 1.7573 1.16971 0
M  V30 5616 O 516.862 1.14035 1.98011 0
M  V30 5617 C 517.072 3.40147 -0.781073 0
M  V30 5618 C 518.42 4.17299 -0.78402 0
M  V30 5619 O 519.444 3.48762 -0.724112 0
M  V30 5620 O 518.303 5.39631 -0.863739 0
M  V30 5621 H 515.397 0.821469 -0.0954827 0
M  V30 5622 H 517.943 1.42897 -0.915348 0
M  V30 5623 H 516.715 3.46225 -1.82329 0
M  V30 5624 H 516.338 3.97166 -0.18567 0
M  V30 5625 N 517.335 0.585699 1.46312 0
M  V30 5626 C 518.56 0.0762461 2.0726 0
M  V30 5627 C 518.985 -1.22071 1.43109 0
M  V30 5628 O 518.343 -1.73804 0.515942 0
M  V30 5629 C 518.391 -0.0729404 3.60526 0
M  V30 5630 O 517.495 -1.1287 3.96654 0
M  V30 5631 H 516.836 0.0641558 0.660893 0
M  V30 5632 H 519.366 0.809492 1.87905 0
M  V30 5633 H 519.376 -0.278158 4.07051 0
M  V30 5634 H 518.051 0.874188 4.06609 0
M  V30 5635 H 516.628 -0.901703 3.61834 0
M  V30 5636 N 518.813 -1.54241 0.323641 0
M  V30 5637 C 520.061 -2.00174 -0.278359 0
M  V30 5638 C 520.382 -1.2134 -1.52648 0
M  V30 5639 O 519.652 -0.315244 -1.93347 0
M  V30 5640 H 518.232 -0.739463 -0.105845 0
M  V30 5641 H 520.894 -1.89864 0.440204 0
M  V30 5642 H 519.99 -3.07486 -0.5347 0
M  V30 5643 N 520.291 -0.0518155 -1.57515 0
M  V30 5644 C 521.254 0.907547 -2.10467 0
M  V30 5645 C 522.254 1.23947 -1.02439 0
M  V30 5646 O 523.444 1.17604 -1.2851 0
M  V30 5647 C 520.576 2.21723 -2.58944 0
M  V30 5648 H 521.769 0.44851 -2.96527 0
M  V30 5649 H 519.322 0.196598 -1.55059 0
M  V30 5650 H 520.057 2.72206 -1.76279 0
M  V30 5651 H 519.842 1.98935 -3.37886 0
M  V30 5652 H 521.332 2.90441 -3.00056 0
M  V30 5653 N 521.769 1.56035 0.221574 0
M  V30 5654 C 522.732 1.91584 1.2581 0
M  V30 5655 C 523.732 0.794425 1.39805 0
M  V30 5656 O 524.922 1.06217 1.38071 0
M  V30 5657 C 522.054 2.16663 2.63192 0
M  V30 5658 H 523.247 2.8429 0.954935 0
M  V30 5659 H 520.8 1.49316 0.461988 0
M  V30 5660 H 521.535 1.26508 2.98607 0
M  V30 5661 H 521.32 2.98358 2.5441 0
M  V30 5662 H 522.81 2.45262 3.37988 0
M  V30 5663 N 523.247 -0.488276 1.49845 0
M  V30 5664 C 524.493 -1.24341 1.6021 0
M  V30 5665 C 524.826 -1.91967 0.293651 0
M  V30 5666 O 524.101 -1.81323 -0.703718 0
M  V30 5667 C 524.384 -2.3005 2.77036 0
M  V30 5668 C 524.237 -1.66842 4.17713 0
M  V30 5669 C 525.556 -3.31509 2.89464 0
M  V30 5670 H 522.675 -0.450704 0.583125 0
M  V30 5671 H 525.317 -0.539673 1.82174 0
M  V30 5672 H 523.467 -2.90071 2.58439 0
M  V30 5673 H 525.139 -1.1055 4.47858 0
M  V30 5674 H 523.382 -0.972079 4.22768 0
M  V30 5675 H 524.053 -2.43576 4.95353 0
M  V30 5676 H 526.529 -2.81493 3.06433 0
M  V30 5677 H 525.405 -4.02822 3.72861 0
M  V30 5678 H 525.666 -3.94603 1.99351 0
M  V30 5679 N 524.725 -1.39134 -0.740242 0
M  V30 5680 C 525.688 -1.37217 -1.83587 0
M  V30 5681 C 526.688 -0.270221 -1.58513 0
M  V30 5682 O 527.878 -0.527843 -1.6601 0
M  V30 5683 C 525.01 -1.13959 -3.21288 0
M  V30 5684 H 526.203 -2.34705 -1.86691 0
M  V30 5685 H 523.756 -1.24622 -0.94335 0
M  V30 5686 H 524.491 -0.17131 -3.23847 0
M  V30 5687 H 524.276 -1.93754 -3.40884 0
M  V30 5688 H 525.766 -1.15346 -4.01354 0
M  V30 5689 N 526.204 0.969867 -1.24223 0
M  V30 5690 C 527.134 2.08191 -1.05729 0
M  V30 5691 C 528.115 1.70075 0.0290765 0
M  V30 5692 O 529.3 1.93712 -0.137583 0
M  V30 5693 C 526.43 3.40991 -0.658995 0
M  V30 5694 C 525.384 3.93054 -1.69389 0
M  V30 5695 C 524.71 5.22171 -1.15072 0
M  V30 5696 C 526.01 4.21137 -3.08935 0
M  V30 5697 H 527.704 2.23921 -1.98746 0
M  V30 5698 H 525.25 1.07602 -0.956967 0
M  V30 5699 H 527.203 4.18221 -0.51662 0
M  V30 5700 H 525.927 3.25155 0.30686 0
M  V30 5701 H 524.586 3.17977 -1.82444 0
M  V30 5702 H 524.234 5.02694 -0.175539 0
M  V30 5703 H 523.934 5.57973 -1.84229 0
M  V30 5704 H 525.458 6.02013 -1.02042 0
M  V30 5705 H 526.872 4.8908 -2.99121 0
M  V30 5706 H 525.269 4.68163 -3.75425 0
M  V30 5707 H 526.339 3.27996 -3.57137 0
M  V30 5708 N 527.682 1.05563 1.17022 0
M  V30 5709 C 528.614 0.617888 2.20714 0
M  V30 5710 C 529.627 -0.320303 1.59618 0
M  V30 5711 O 530.816 -0.112449 1.78145 0
M  V30 5712 C 527.916 -0.115333 3.38704 0
M  V30 5713 C 527.089 0.834493 4.29366 0
M  V30 5714 C 526.148 0.141855 5.26009 0
M  V30 5715 O 525.174 0.777151 5.6387 0
M  V30 5716 N 526.376 -1.11934 5.69606 0
M  V30 5717 H 529.141 1.50981 2.58892 0
M  V30 5718 H 526.702 0.938008 1.31958 0
M  V30 5719 H 528.694 -0.588918 4.00392 0
M  V30 5720 H 527.264 -0.908967 2.99093 0
M  V30 5721 H 526.484 1.48762 3.65053 0
M  V30 5722 H 527.772 1.4791 4.86827 0
M  V30 5723 H 527.17 -1.65574 5.40927 0
M  V30 5724 H 525.727 -1.53692 6.33421 0
M  V30 5725 N 529.16 -1.33526 0.837174 0
M  V30 5726 C 530.571 -1.80182 0.489017 0
M  V30 5727 C 530.922 -1.69285 -0.991826 0
M  V30 5728 O 530.047 -1.24113 -1.77271 0
M  V30 5729 C 530.642 -3.27149 0.880866 0
M  V30 5730 C 529.201 -3.71828 0.584872 0
M  V30 5731 C 528.348 -2.54974 1.09011 0
M  V30 5732 H 531.299 -1.21071 1.02603 0
M  V30 5733 H 531.32 -3.80024 0.190239 0
M  V30 5734 H 530.832 -3.35048 1.95869 0
M  V30 5735 H 528.933 -3.69457 -0.48295 0
M  V30 5736 H 529.046 -4.65366 1.13892 0
M  V30 5737 H 527.41 -2.4952 0.511047 0
M  V30 5738 H 528.193 -2.65637 2.17467 0
M  V30 5739 N 530.638 -0.59345 -1.46 0
M  V30 5740 C 531.585 0.133618 -2.30413 0
M  V30 5741 C 532.555 0.873736 -1.41262 0
M  V30 5742 O 533.74 0.862279 -1.70204 0
M  V30 5743 C 530.88 1.13434 -3.25924 0
M  V30 5744 C 529.993 0.39656 -4.30176 0
M  V30 5745 C 529.128 1.38575 -5.12806 0
M  V30 5746 C 528.167 0.634984 -6.08797 0
M  V30 5747 N 527.304 1.57276 -6.84258 0
M  V30 5748 H 532.144 -0.592252 -2.92055 0
M  V30 5749 H 529.681 -0.303874 -1.43927 0
M  V30 5750 H 531.639 1.72752 -3.79753 0
M  V30 5751 H 530.269 1.82779 -2.66067 0
M  V30 5752 H 529.321 -0.311861 -3.79119 0
M  V30 5753 H 530.633 -0.189869 -4.98438 0
M  V30 5754 H 529.787 2.05141 -5.70966 0
M  V30 5755 H 528.526 2.00611 -4.44529 0
M  V30 5756 H 527.531 -0.0443925 -5.49782 0
M  V30 5757 H 528.756 0.0198678 -6.79097 0
M  V30 5758 H 526.702 2.18103 -6.18682 0
M  V30 5759 H 526.619 1.03941 -7.48821 0
M  V30 5760 H 527.887 2.22844 -7.46968 0
M  V30 5761 N 532.116 1.54067 -0.331816 0
M  V30 5762 C 533.344 2.05131 0.269996 0
M  V30 5763 C 533.759 1.20749 1.45138 0
M  V30 5764 O 533.116 0.240069 1.80914 0
M  V30 5765 C 533.167 3.54728 0.696456 0
M  V30 5766 O 532.888 4.35906 -0.43794 0
M  V30 5767 C 534.389 4.21916 1.36021 0
M  V30 5768 H 531.609 0.668807 0.0542042 0
M  V30 5769 H 534.153 1.98777 -0.4804 0
M  V30 5770 H 532.308 3.61342 1.39681 0
M  V30 5771 H 532.722 5.24404 -0.100334 0
M  V30 5772 H 534.196 5.28015 1.60947 0
M  V30 5773 H 534.673 3.73538 2.31011 0
M  V30 5774 H 535.279 4.19463 0.702212 0
M  V30 5775 N 533.594 0.0601682 1.57485 0
M  V30 5776 C 534.842 -0.610386 1.92662 0
M  V30 5777 C 535.163 -1.70849 0.939981 0
M  V30 5778 O 534.433 -1.95895 -0.0137455 0
M  V30 5779 H 533.013 -0.228457 0.711208 0
M  V30 5780 H 535.675 0.115288 1.94559 0
M  V30 5781 H 534.771 -1.0432 2.94149 0
M  V30 5782 N 535.072 -1.5615 -0.213296 0
M  V30 5783 C 535.982 -1.96265 -1.28519 0
M  V30 5784 C 536.998 -0.86765 -1.50824 0
M  V30 5785 O 538.174 -1.17191 -1.63793 0
M  V30 5786 C 535.239 -2.27836 -2.61327 0
M  V30 5787 C 534.3 -3.50949 -2.47252 0
M  V30 5788 C 533.533 -3.81004 -3.73727 0
M  V30 5789 O 533.756 -3.12612 -4.77106 0
M  V30 5790 O 532.69 -4.74477 -3.70344 0
M  V30 5791 H 536.516 -2.87631 -0.974795 0
M  V30 5792 H 534.101 -1.43467 -0.416832 0
M  V30 5793 H 535.983 -2.49299 -3.39747 0
M  V30 5794 H 534.658 -1.39643 -2.9203 0
M  V30 5795 H 533.565 -3.34754 -1.67004 0
M  V30 5796 H 534.898 -4.39551 -2.21486 0
M  V30 5797 N 536.55 0.480323 -1.50102 0
M  V30 5798 C 537.778 1.25657 -1.64371 0
M  V30 5799 C 538.193 1.86011 -0.323316 0
M  V30 5800 O 537.55 1.68803 0.693682 0
M  V30 5801 C 537.601 2.37197 -2.728 0
M  V30 5802 O 537.322 1.7932 -3.9972 0
M  V30 5803 C 538.823 3.2823 -2.9796 0
M  V30 5804 H 536.043 0.380369 -0.552775 0
M  V30 5805 H 538.587 0.574379 -1.96268 0
M  V30 5806 H 536.742 3.01208 -2.43623 0
M  V30 5807 H 537.156 2.52701 -4.59611 0
M  V30 5808 H 538.63 4.02725 -3.77513 0
M  V30 5809 H 539.107 3.86462 -2.08671 0
M  V30 5810 H 539.713 2.69964 -3.28633 0
M  V30 5811 N 538.028 1.39524 0.732853 0
M  V30 5812 C 538.958 1.41153 1.86005 0
M  V30 5813 C 539.939 0.274614 1.67869 0
M  V30 5814 O 541.124 0.480745 1.88155 0
M  V30 5815 C 538.254 1.25638 3.23778 0
M  V30 5816 C 537.208 2.36752 3.56556 0
M  V30 5817 C 536.534 2.06326 4.93289 0
M  V30 5818 C 537.834 3.79069 3.5931 0
M  V30 5819 H 539.528 2.35484 1.84899 0
M  V30 5820 H 537.074 1.13348 0.888162 0
M  V30 5821 H 539.027 1.25398 4.0231 0
M  V30 5822 H 537.751 0.277772 3.25417 0
M  V30 5823 H 536.41 2.36213 2.80355 0
M  V30 5824 H 536.058 1.06897 4.9151 0
M  V30 5825 H 535.758 2.80757 5.16187 0
M  V30 5826 H 537.282 2.07739 5.74175 0
M  V30 5827 H 538.696 3.81526 4.27914 0
M  V30 5828 H 537.093 4.52878 3.93728 0
M  V30 5829 H 538.163 4.09893 2.59068 0
M  V30 5830 N 539.506 -0.963266 1.24736 0
M  V30 5831 C 540.469 -2.04013 1.04457 0
M  V30 5832 C 541.469 -1.608 0.000335555 0
M  V30 5833 O 542.659 -1.72515 0.241719 0
M  V30 5834 C 539.791 -3.35858 0.584162 0
M  V30 5835 H 540.984 -2.23436 2.00041 0
M  V30 5836 H 538.537 -1.13914 1.07021 0
M  V30 5837 H 539.272 -3.22128 -0.374673 0
M  V30 5838 H 539.057 -3.68568 1.3379 0
M  V30 5839 H 540.547 -4.1502 0.463451 0
M  V30 5840 N 540.985 -1.06182 -1.16461 0
M  V30 5841 C 541.915 -0.692861 -2.22984 0
M  V30 5842 C 542.896 0.314122 -1.67174 0
M  V30 5843 O 544.081 0.189499 -1.93273 0
M  V30 5844 C 541.211 -0.07732 -3.47214 0
M  V30 5845 C 540.165 -1.01015 -4.15909 0
M  V30 5846 C 539.491 -0.257973 -5.34077 0
M  V30 5847 C 540.791 -2.33868 -4.67015 0
M  V30 5848 H 542.485 -1.58343 -2.54102 0
M  V30 5849 H 540.031 -0.76279 -1.22137 0
M  V30 5850 H 541.984 0.19266 -4.20959 0
M  V30 5851 H 540.708 0.848254 -3.15392 0
M  V30 5852 H 539.367 -1.26486 -3.44088 0
M  V30 5853 H 539.015 0.670684 -4.98509 0
M  V30 5854 H 538.715 -0.879638 -5.80979 0
M  V30 5855 H 540.239 0.00448788 -6.106 0
M  V30 5856 H 541.653 -2.1279 -5.32347 0
M  V30 5857 H 540.05 -2.91522 -5.24533 0
M  V30 5858 H 541.12 -2.97019 -3.83286 0
M  V30 5859 N 542.463 1.3308 -0.844243 0
M  V30 5860 C 543.709 1.97898 -0.443206 0
M  V30 5861 C 544.042 1.66699 0.99625 0
M  V30 5862 O 543.317 0.949704 1.69738 0
M  V30 5863 C 543.6 3.53801 -0.670606 0
M  V30 5864 C 543.453 3.94667 -2.15772 0
M  V30 5865 C 544.772 4.39936 -0.120226 0
M  V30 5866 H 541.891 0.718861 -0.162504 0
M  V30 5867 H 544.533 1.57633 -1.06075 0
M  V30 5868 H 542.683 3.88229 -0.14496 0
M  V30 5869 H 544.355 3.70469 -2.74865 0
M  V30 5870 H 542.598 3.44203 -2.6402 0
M  V30 5871 H 543.269 5.03275 -2.26757 0
M  V30 5872 H 545.745 4.12183 -0.5696 0
M  V30 5873 H 544.621 5.4803 -0.308984 0
M  V30 5874 H 544.882 4.31184 0.976347 0
M  V30 5875 N 543.941 0.601185 1.45683 0
M  V30 5876 C 545.166 0.0982245 2.07167 0
M  V30 5877 C 545.591 -1.20546 1.44396 0
M  V30 5878 O 544.949 -1.73247 0.534347 0
M  V30 5879 C 544.997 -0.0346976 3.60583 0
M  V30 5880 O 544.101 -1.08657 3.97828 0
M  V30 5881 H 543.442 0.0711618 0.660176 0
M  V30 5882 H 545.972 0.829376 1.87036 0
M  V30 5883 H 545.982 -0.234969 4.07323 0
M  V30 5884 H 544.657 0.917265 4.05659 0
M  V30 5885 H 543.234 -0.863275 3.6277 0
M  V30 5886 N 545.419 -1.53889 0.339982 0
M  V30 5887 C 546.382 -2.23547 -0.50592 0
M  V30 5888 C 547.382 -1.23445 -1.03044 0
M  V30 5889 O 548.572 -1.47909 -0.920253 0
M  V30 5890 C 545.704 -2.95234 -1.7044 0
M  V30 5891 H 546.897 -2.99722 0.103247 0
M  V30 5892 H 544.45 -1.56033 0.0912804 0
M  V30 5893 H 545.185 -2.23236 -2.35236 0
M  V30 5894 H 544.97 -3.68654 -1.33553 0
M  V30 5895 H 546.46 -3.48258 -2.30447 0
M  V30 5896 N 546.897 -0.0685191 -1.57451 0
M  V30 5897 C 548.308 0.464634 -1.80826 0
M  V30 5898 C 548.659 1.69847 -0.982169 0
M  V30 5899 O 547.784 2.15439 -0.203734 0
M  V30 5900 C 548.379 0.849721 -3.27971 0
M  V30 5901 C 546.938 1.32776 -3.52204 0
M  V30 5902 C 546.085 0.311332 -2.75547 0
M  V30 5903 H 549.036 -0.294248 -1.55948 0
M  V30 5904 H 549.057 1.71138 -3.39841 0
M  V30 5905 H 548.569 -0.0484736 -3.8807 0
M  V30 5906 H 546.67 2.24456 -2.97406 0
M  V30 5907 H 546.783 1.30794 -4.60901 0
M  V30 5908 H 545.147 0.787915 -2.42206 0
M  V30 5909 H 545.93 -0.579078 -3.38381 0
M  V30 5910 N 548.375 1.56261 0.205012 0
M  V30 5911 C 549.6 1.84491 0.947512 0
M  V30 5912 C 550.025 0.650894 1.76479 0
M  V30 5913 O 549.383 -0.40035 1.76824 0
M  V30 5914 C 549.431 3.10863 1.82747 0
M  V30 5915 O 548.535 2.90719 2.925 0
M  V30 5916 H 547.876 0.607783 0.267386 0
M  V30 5917 H 550.406 2.03485 0.213323 0
M  V30 5918 H 550.416 3.41399 2.23407 0
M  V30 5919 H 549.091 3.97392 1.2269 0
M  V30 5920 H 547.668 2.71457 2.55667 0
M  V30 5921 N 549.853 -0.472356 1.50355 0
M  V30 5922 C 551.083 -1.24603 1.64796 0
M  V30 5923 C 551.491 -1.86297 0.330156 0
M  V30 5924 O 550.834 -1.69934 -0.697728 0
M  V30 5925 C 550.896 -2.39578 2.68035 0
M  V30 5926 C 550.56 -1.98531 4.11624 0
M  V30 5927 C 551.557 -1.50856 4.97532 0
M  V30 5928 C 549.242 -2.0729 4.57532 0
M  V30 5929 C 551.236 -1.12481 6.27397 0
M  V30 5930 C 548.923 -1.68527 5.87403 0
M  V30 5931 C 549.921 -1.212 6.7216 0
M  V30 5932 O 549.609 -0.829728 7.99607 0
M  V30 5933 H 549.341 -0.383035 0.55701 0
M  V30 5934 H 551.895 -0.570392 1.97321 0
M  V30 5935 H 550.125 -3.10309 2.30749 0
M  V30 5936 H 551.814 -3.01544 2.71709 0
M  V30 5937 H 552.58 -1.43511 4.63281 0
M  V30 5938 H 548.459 -2.43076 3.91708 0
M  V30 5939 H 552.003 -0.754698 6.93506 0
M  V30 5940 H 547.9 -1.7553 6.21176 0
M  V30 5941 H 548.668 -0.958689 8.12866 0
M  V30 5942 N 551.331 -1.39911 -0.725443 0
M  V30 5943 C 552.608 -1.28158 -1.47766 0
M  V30 5944 C 552.988 0.104545 -2.10841 0
M  V30 5945 O 552.336 1.11657 -1.99361 0
M  V30 5946 C 552.546 -2.41306 -2.52135 0
M  V30 5947 C 553.894 -2.81076 -3.18247 0
M  V30 5948 O 554.918 -2.40827 -2.62452 0
M  V30 5949 O 553.777 -3.50581 -4.19231 0
M  V30 5950 H 550.871 -0.502761 -0.656628 0
M  V30 5951 H 553.417 -1.51808 -0.758456 0
M  V30 5952 H 552.189 -3.33932 -2.03974 0
M  V30 5953 H 551.812 -2.19374 -3.31603 0
M  V30 5954 N 552.809 0.956637 -1.25245 0
M  V30 5955 C 554.22 1.51569 -1.09012 0
M  V30 5956 C 554.571 1.93322 0.334813 0
M  V30 5957 O 553.696 1.78421 1.22454 0
M  V30 5958 C 554.291 2.75444 -1.97271 0
M  V30 5959 C 552.85 3.27669 -1.8523 0
M  V30 5960 C 551.997 2.00517 -1.91542 0
M  V30 5961 H 554.948 0.773746 -1.3856 0
M  V30 5962 H 554.969 3.4919 -1.51151 0
M  V30 5963 H 554.481 2.45024 -3.00973 0
M  V30 5964 H 552.582 3.62914 -0.844045 0
M  V30 5965 H 552.695 3.9582 -2.69932 0
M  V30 5966 H 551.059 2.15727 -1.35404 0
M  V30 5967 H 551.842 1.72448 -2.96844 0
M  V30 5968 N 554.287 1.06798 1.15896 0
M  V30 5969 C 555.235 0.677525 2.22514 0
M  V30 5970 C 556.229 -0.308994 1.66558 0
M  V30 5971 O 557.435 -0.173308 1.79164 0
M  V30 5972 H 553.81 0.200994 0.724642 0
M  V30 5973 H 555.781 1.5865 2.52731 0
M  V30 5974 C 554.53 0.0854153 3.47595 0
M  V30 5975 H 553.853 0.835645 3.90969 0
M  V30 5976 H 555.293 -0.150199 4.23734 0
M  V30 5977 C 553.752 -1.1724 3.15843 0
M  V30 5978 O 554.282 -2.25965 3.32119 0
M  V30 5979 N 552.488 -1.07636 2.69931 0
M  V30 5980 H 552.035 -0.191559 2.56887 0
M  V30 5981 H 551.993 -1.91876 2.4906 0
M  V30 5982 N 555.766 -1.3263 0.851289 0
M  V30 5983 C 557.014 -1.96978 0.452128 0
M  V30 5984 C 557.335 -1.67715 -0.99482 0
M  V30 5985 O 556.605 -0.98259 -1.69476 0
M  V30 5986 H 555.185 -0.72873 0.164202 0
M  V30 5987 H 557.847 -1.61774 1.08698 0
M  V30 5988 H 556.943 -3.06387 0.594407 0
M  V30 5989 N 557.244 -0.608902 -1.45362 0
M  V30 5990 C 558.491 -0.104607 -2.0223 0
M  V30 5991 C 558.819 1.26534 -1.47714 0
M  V30 5992 O 558.074 1.84855 -0.642435 0
M  V30 5993 C 558.373 -0.0167296 -3.57396 0
M  V30 5994 C 558.039 -1.32251 -4.31069 0
M  V30 5995 C 556.701 -1.68019 -4.50914 0
M  V30 5996 C 559.053 -2.18542 -4.73169 0
M  V30 5997 C 556.381 -2.89828 -5.10114 0
M  V30 5998 C 558.733 -3.39602 -5.33717 0
M  V30 5999 C 557.397 -3.7562 -5.51784 0
M  V30 6000 H 556.667 -0.0382785 -0.740011 0
M  V30 6001 H 559.314 -0.790782 -1.7441 0
M  V30 6002 H 557.619 0.752715 -3.84502 0
M  V30 6003 H 559.316 0.389634 -3.99103 0
M  V30 6004 H 555.906 -1.03411 -4.15938 0
M  V30 6005 H 560.09 -1.92208 -4.5757 0
M  V30 6006 H 555.346 -3.17839 -5.22291 0
M  V30 6007 H 559.52 -4.06716 -5.65292 0
M  V30 6008 H 557.147 -4.70093 -5.97425 0
M  V30 6009 N 558.722 1.53707 -0.348139 0
M  V30 6010 C 559.971 2.0017 0.247992 0
M  V30 6011 C 560.284 1.23983 1.51286 0
M  V30 6012 O 561.49 1.60946 2.18652 0
M  V30 6013 C 559.946 3.56515 0.492459 0
M  V30 6014 C 559.554 4.41562 -0.756777 0
M  V30 6015 C 561.298 4.11381 1.0472 0
M  V30 6016 C 559.205 5.89426 -0.482856 0
M  V30 6017 H 558.135 0.747806 0.0964452 0
M  V30 6018 H 560.786 1.77532 -0.464179 0
M  V30 6019 H 559.168 3.75236 1.26545 0
M  V30 6020 H 560.342 4.34615 -1.53122 0
M  V30 6021 H 558.657 3.97711 -1.23348 0
M  V30 6022 H 561.254 5.19468 1.26717 0
M  V30 6023 H 561.597 3.64885 2.00411 0
M  V30 6024 H 562.13 3.96389 0.334801 0
M  V30 6025 H 558.869 6.40164 -1.40962 0
M  V30 6026 H 558.389 5.99264 0.253416 0
M  V30 6027 H 560.068 6.4692 -0.101816 0
M  V30 6028 N 560.2 0.0768682 1.57412 0
M  V30 6029 C 561.447 -0.591085 1.93681 0
M  V30 6030 C 561.775 -1.69311 0.957286 0
M  V30 6031 O 561.03 -1.95682 -0.0262428 0
M  V30 6032 C 561.329 -1.20268 3.36557 0
M  V30 6033 C 560.995 -0.226286 4.50332 0
M  V30 6034 C 559.657 0.0423142 4.81181 0
M  V30 6035 C 562.009 0.441415 5.19327 0
M  V30 6036 C 559.337 0.985616 5.78362 0
M  V30 6037 C 561.689 1.37307 6.17519 0
M  V30 6038 C 560.353 1.65009 6.46783 0
M  V30 6039 H 559.623 -0.216293 0.70873 0
M  V30 6040 H 562.27 0.148824 1.90921 0
M  V30 6041 H 560.575 -2.01844 3.35807 0
M  V30 6042 H 562.272 -1.72688 3.61911 0
M  V30 6043 H 558.862 -0.445821 4.26275 0
M  V30 6044 H 563.046 0.247023 4.95685 0
M  V30 6045 H 558.302 1.20743 5.99359 0
M  V30 6046 H 562.476 1.89637 6.70083 0
M  V30 6047 H 560.103 2.38263 7.21897 0
M  V30 6048 N 561.678 -1.56367 -0.196722 0
M  V30 6049 C 562.926 -1.80172 -0.915554 0
M  V30 6050 C 563.247 -0.649649 -1.8386 0
M  V30 6051 O 562.517 0.332111 -1.93064 0
M  V30 6052 H 561.097 -0.664592 -0.341067 0
M  V30 6053 H 563.759 -1.93844 -0.202622 0
M  V30 6054 H 562.855 -2.7327 -1.50764 0
M  V30 6055 N 563.156 0.464375 -1.50603 0
M  V30 6056 C 564.402 1.21485 -1.63135 0
M  V30 6057 C 564.757 1.89538 -0.33063 0
M  V30 6058 O 564.05 1.79432 0.671903 0
M  V30 6059 C 564.244 2.278 -2.75394 0
M  V30 6060 C 564.073 1.70178 -4.16257 0
M  V30 6061 C 562.843 1.49854 -4.82568 0
M  V30 6062 C 565.041 1.19298 -5.00272 0
M  V30 6063 N 563.023 0.875458 -6.07626 0
M  V30 6064 C 564.394 0.693527 -6.16109 0
M  V30 6065 C 566.449 1.08216 -4.85998 0
M  V30 6066 C 565.152 0.0941808 -7.19238 0
M  V30 6067 C 567.178 0.496745 -5.8931 0
M  V30 6068 C 566.54 0.00770448 -7.044 0
M  V30 6069 H 562.639 0.433184 -0.651057 0
M  V30 6070 H 565.223 0.515748 -1.87745 0
M  V30 6071 H 563.394 2.95129 -2.52495 0
M  V30 6072 H 565.126 2.94814 -2.77249 0
M  V30 6073 H 561.881 1.75269 -4.39975 0
M  V30 6074 H 562.305 0.582135 -6.74493 0
M  V30 6075 H 566.947 1.44617 -3.97298 0
M  V30 6076 H 564.665 -0.28202 -8.07608 0
M  V30 6077 H 568.251 0.413275 -5.8033 0
M  V30 6078 H 567.131 -0.438188 -7.82975 0
M  V30 6079 N 564.634 1.40294 0.718013 0
M  V30 6080 C 565.859 1.41941 1.5122 0
M  V30 6081 C 566.284 0.0202371 1.88089 0
M  V30 6082 O 565.642 -0.971078 1.53101 0
M  V30 6083 C 565.69 2.3141 2.76554 0
M  V30 6084 O 564.794 1.75567 3.73162 0
M  V30 6085 H 564.135 0.482644 0.456016 0
M  V30 6086 H 566.665 1.84494 0.884478 0
M  V30 6087 H 566.675 2.46513 3.25108 0
M  V30 6088 H 565.35 3.33085 2.49053 0
M  V30 6089 H 563.927 1.69798 3.31999 0
M  V30 6090 N 566.112 -0.949982 1.2575 0
M  V30 6091 C 567.389 -1.6718 1.01539 0
M  V30 6092 C 567.769 -2.06095 -0.456942 0
M  V30 6093 O 567.117 -1.77792 -1.43534 0
M  V30 6094 C 567.327 -2.8906 1.95564 0
M  V30 6095 C 568.675 -3.60909 2.23673 0
M  V30 6096 O 569.699 -2.9915 1.9336 0
M  V30 6097 O 568.558 -4.72127 2.75243 0
M  V30 6098 H 565.652 -0.731697 0.385419 0
M  V30 6099 H 568.198 -1.00249 1.36924 0
M  V30 6100 H 566.97 -2.57128 2.94959 0
M  V30 6101 H 566.593 -3.63719 1.60605 0
M  V30 6102 N 567.59 -1.07411 -1.15328 0
M  V30 6103 C 568.537 -0.694995 -2.20087 0
M  V30 6104 C 569.507 0.313904 -1.63107 0
M  V30 6105 O 570.692 0.200216 -1.89747 0
M  V30 6106 C 567.832 -0.0996218 -3.44956 0
M  V30 6107 C 566.945 -1.16007 -4.16133 0
M  V30 6108 C 566.08 -0.529636 -5.28553 0
M  V30 6109 C 565.119 -1.57283 -5.91548 0
M  V30 6110 N 564.256 -0.964932 -6.95438 0
M  V30 6111 H 569.096 -1.5927 -2.51867 0
M  V30 6112 H 566.633 -0.796115 -1.23695 0
M  V30 6113 H 568.591 0.263197 -4.16369 0
M  V30 6114 H 567.221 0.761435 -3.13691 0
M  V30 6115 H 566.273 -1.64045 -3.4321 0
M  V30 6116 H 567.585 -1.95101 -4.59061 0
M  V30 6117 H 566.739 -0.114487 -6.06592 0
M  V30 6118 H 565.478 0.29307 -4.86819 0
M  V30 6119 H 564.483 -1.99775 -5.12221 0
M  V30 6120 H 565.708 -2.39783 -6.35359 0
M  V30 6121 H 563.654 -0.16314 -6.55797 0
M  V30 6122 H 563.571 -1.69311 -7.36797 0
M  V30 6123 H 564.839 -0.575305 -7.77374 0
M  V30 6124 N 569.068 1.32177 -0.85831 0
M  V30 6125 C 569.978 2.32561 -0.308606 0
M  V30 6126 C 570.994 1.64209 0.575462 0
M  V30 6127 O 572.17 1.95719 0.474961 0
M  V30 6128 C 569.235 3.43207 0.490909 0
M  V30 6129 C 568.296 4.27243 -0.419733 0
M  V30 6130 C 567.529 5.32605 0.341719 0
M  V30 6131 O 567.752 5.48332 1.57125 0
M  V30 6132 O 566.686 6.0118 -0.294379 0
M  V30 6133 H 570.512 2.81477 -1.14037 0
M  V30 6134 H 568.097 1.35866 -0.621349 0
M  V30 6135 H 569.979 4.10677 0.944574 0
M  V30 6136 H 568.654 2.96474 1.29941 0
M  V30 6137 H 567.561 3.62569 -0.921652 0
M  V30 6138 H 568.894 4.7751 -1.19352 0
M  V30 6139 N 570.547 0.616602 1.45037 0
M  V30 6140 C 571.793 0.123965 2.03022 0
M  V30 6141 C 572.148 -1.23508 1.47525 0
M  V30 6142 O 571.441 -1.80453 0.643981 0
M  V30 6143 C 571.635 0.0356829 3.57382 0
M  V30 6144 C 571.464 1.38462 4.27853 0
M  V30 6145 C 570.234 1.96766 4.65415 0
M  V30 6146 C 572.432 2.31536 4.59234 0
M  V30 6147 N 570.414 3.25046 5.20786 0
M  V30 6148 C 571.785 3.4442 5.15533 0
M  V30 6149 C 573.84 2.30796 4.41178 0
M  V30 6150 C 572.543 4.56742 5.55679 0
M  V30 6151 C 574.569 3.42171 4.82362 0
M  V30 6152 C 573.931 4.53778 5.38762 0
M  V30 6153 H 570.03 0.0889428 0.776925 0
M  V30 6154 H 572.614 0.816925 1.76733 0
M  V30 6155 H 570.785 -0.62652 3.83314 0
M  V30 6156 H 572.517 -0.464443 4.02026 0
M  V30 6157 H 569.272 1.4987 4.49261 0
M  V30 6158 H 569.696 3.90592 5.52962 0
M  V30 6159 H 574.338 1.45765 3.96878 0
M  V30 6160 H 572.056 5.42491 5.9894 0
M  V30 6161 H 575.642 3.42757 4.70116 0
M  V30 6162 H 574.522 5.38536 5.70043 0
M  V30 6163 N 572.025 -1.5352 0.356285 0
M  V30 6164 C 572.972 -2.25439 -0.494569 0
M  V30 6165 C 573.942 -1.25752 -1.08516 0
M  V30 6166 O 575.127 -1.54513 -1.1194 0
M  V30 6167 C 572.267 -3.04011 -1.63313 0
M  V30 6168 C 571.38 -4.18574 -1.06862 0
M  V30 6169 C 570.515 -4.84607 -2.17552 0
M  V30 6170 C 569.554 -5.91218 -1.58518 0
M  V30 6171 N 568.691 -6.50979 -2.63003 0
M  V30 6172 H 573.531 -2.97737 0.125244 0
M  V30 6173 H 571.068 -1.46916 0.0735789 0
M  V30 6174 H 573.026 -3.47834 -2.30363 0
M  V30 6175 H 571.656 -2.33986 -2.22374 0
M  V30 6176 H 570.708 -3.79303 -0.288672 0
M  V30 6177 H 572.02 -4.95215 -0.596924 0
M  V30 6178 H 571.174 -5.31566 -2.92442 0
M  V30 6179 H 569.913 -4.07418 -2.6807 0
M  V30 6180 H 568.918 -5.4363 -0.821391 0
M  V30 6181 H 570.143 -6.70322 -1.08836 0
M  V30 6182 H 568.089 -5.76648 -3.12751 0
M  V30 6183 H 568.006 -7.23131 -2.20493 0
M  V30 6184 H 569.274 -7.02589 -3.37623 0
M  V30 6185 N 573.503 -0.0852151 -1.57369 0
M  V30 6186 C 574.45 0.877268 -2.13478 0
M  V30 6187 C 575.42 1.28642 -1.05073 0
M  V30 6188 O 576.605 1.36992 -1.32808 0
M  V30 6189 C 573.745 2.13464 -2.71159 0
M  V30 6190 C 572.858 1.77691 -3.93764 0
M  V30 6191 C 571.993 2.98139 -4.39643 0
M  V30 6192 C 571.032 2.58447 -5.54862 0
M  V30 6193 N 570.169 3.71698 -5.95639 0
M  V30 6194 H 575.009 0.391933 -2.95411 0
M  V30 6195 H 572.546 0.181796 -1.45972 0
M  V30 6196 H 574.504 2.87086 -3.02717 0
M  V30 6197 H 573.134 2.59514 -1.91969 0
M  V30 6198 H 572.186 0.940768 -3.68583 0
M  V30 6199 H 573.498 1.44497 -4.77412 0
M  V30 6200 H 572.652 3.80026 -4.72933 0
M  V30 6201 H 571.391 3.34536 -3.54876 0
M  V30 6202 H 570.396 1.74984 -5.21211 0
M  V30 6203 H 571.621 2.23205 -6.41371 0
M  V30 6204 H 569.567 4.07831 -5.13819 0
M  V30 6205 H 569.484 3.42317 -6.74059 0
M  V30 6206 H 570.752 4.54123 -6.33555 0
M  V30 6207 N 574.981 1.5647 0.188427 0
M  V30 6208 C 575.911 1.98101 1.23606 0
M  V30 6209 C 576.892 0.853961 1.47111 0
M  V30 6210 O 578.077 1.11879 1.58735 0
M  V30 6211 C 575.207 2.32624 2.57882 0
M  V30 6212 C 574.161 3.48129 2.48978 0
M  V30 6213 C 573.487 3.68347 3.87588 0
M  V30 6214 C 574.787 4.82112 2.00911 0
M  V30 6215 H 576.481 2.85864 0.890068 0
M  V30 6216 H 574.027 1.37532 0.426714 0
M  V30 6217 H 575.98 2.60343 3.3136 0
M  V30 6218 H 574.704 1.41751 2.94235 0
M  V30 6219 H 573.363 3.20511 1.77956 0
M  V30 6220 H 573.011 2.74793 4.21305 0
M  V30 6221 H 572.711 4.46055 3.82503 0
M  V30 6222 H 574.235 3.98449 4.62678 0
M  V30 6223 H 575.649 5.08819 2.64151 0
M  V30 6224 H 574.046 5.63337 2.06814 0
M  V30 6225 H 575.116 4.75249 0.96262 0
M  V30 6226 N 576.459 -0.456382 1.50847 0
M  V30 6227 C 577.407 -1.57318 1.71329 0
M  V30 6228 C 578.401 -1.59187 0.579287 0
M  V30 6229 O 579.607 -1.6316 0.76018 0
M  V30 6230 H 575.982 -0.5223 0.541024 0
M  V30 6231 H 577.953 -1.3721 2.64983 0
M  V30 6232 C 576.702 -2.95142 1.83811 0
M  V30 6233 H 576.025 -2.94428 2.70467 0
M  V30 6234 H 577.465 -3.72702 2.02161 0
M  V30 6235 C 575.924 -3.31636 0.593224 0
M  V30 6236 O 576.454 -4.00852 -0.260898 0
M  V30 6237 N 574.66 -2.87205 0.442902 0
M  V30 6238 H 574.207 -2.31051 1.13901 0
M  V30 6239 H 574.165 -3.11986 -0.38884 0
M  V30 6240 N 577.937 -1.40673 -0.710563 0
M  V30 6241 C 578.884 -1.41336 -1.82463 0
M  V30 6242 C 579.854 -0.269648 -1.63897 0
M  V30 6243 O 581.039 -0.468463 -1.8496 0
M  V30 6244 C 578.179 -1.28665 -3.20218 0
M  V30 6245 C 577.292 -2.52784 -3.5032 0
M  V30 6246 C 576.427 -2.32517 -4.77608 0
M  V30 6247 C 575.466 -3.52187 -5.0063 0
M  V30 6248 N 574.603 -3.31084 -6.19135 0
M  V30 6249 H 579.443 -2.36558 -1.8123 0
M  V30 6250 H 576.98 -1.17483 -0.885226 0
M  V30 6251 H 578.938 -1.19324 -3.99772 0
M  V30 6252 H 577.568 -0.370602 -3.20666 0
M  V30 6253 H 576.62 -2.72634 -2.65283 0
M  V30 6254 H 577.932 -3.41845 -3.63241 0
M  V30 6255 H 577.086 -2.20558 -5.65189 0
M  V30 6256 H 575.825 -1.40889 -4.66906 0
M  V30 6257 H 574.83 -3.64617 -4.11502 0
M  V30 6258 H 576.055 -4.44749 -5.13201 0
M  V30 6259 H 574.001 -2.42143 -6.09674 0
M  V30 6260 H 573.918 -4.13713 -6.32754 0
M  V30 6261 H 575.186 -3.22868 -7.0949 0
M  V30 6262 N 579.415 0.9433 -1.26252 0
M  V30 6263 C 580.692 1.66639 -1.02424 0
M  V30 6264 C 581.072 2.06335 0.446006 0
M  V30 6265 O 580.42 1.78551 1.42589 0
M  V30 6266 C 580.63 2.88019 -1.97094 0
M  V30 6267 C 581.978 3.59718 -2.25584 0
M  V30 6268 O 583.002 2.9812 -1.94943 0
M  V30 6269 O 581.861 4.7066 -2.77743 0
M  V30 6270 H 578.955 0.729643 -0.389294 0
M  V30 6271 H 581.501 0.995218 -1.37454 0
M  V30 6272 H 580.273 2.5556 -2.96319 0
M  V30 6273 H 579.896 3.62863 -1.62532 0
M  V30 6274 N 580.893 1.08022 1.14757 0
M  V30 6275 C 581.84 0.706657 2.19716 0
M  V30 6276 C 582.81 -0.30525 1.63271 0
M  V30 6277 O 583.995 -0.19015 1.8985 0
M  V30 6278 C 581.135 0.117914 3.44898 0
M  V30 6279 C 580.248 1.18212 4.15512 0
M  V30 6280 C 579.383 0.557659 5.28265 0
M  V30 6281 C 578.422 1.60418 5.90705 0
M  V30 6282 N 577.559 1.0018 6.94916 0
M  V30 6283 H 582.399 1.60603 2.51019 0
M  V30 6284 H 579.936 0.802664 1.23271 0
M  V30 6285 H 581.894 -0.241112 4.16503 0
M  V30 6286 H 580.524 -0.744788 3.1409 0
M  V30 6287 H 579.576 1.65863 3.42335 0
M  V30 6288 H 580.888 1.97533 4.5802 0
M  V30 6289 H 580.042 0.146654 6.06523 0
M  V30 6290 H 578.781 -0.267249 4.86967 0
M  V30 6291 H 577.786 2.02489 5.11154 0
M  V30 6292 H 579.011 2.43149 6.34078 0
M  V30 6293 H 576.957 0.197917 6.55701 0
M  V30 6294 H 576.874 1.73216 7.35889 0
M  V30 6295 H 578.142 0.616523 7.77058 0
M  V30 6296 N 582.371 -1.3172 0.865308 0
M  V30 6297 C 583.319 -2.30569 0.306674 0
M  V30 6298 C 584.313 -1.59317 -0.575724 0
M  V30 6299 O 585.519 -1.73961 -0.462343 0
M  V30 6300 H 581.894 -0.747681 0.0804834 0
M  V30 6301 H 583.865 -2.75165 1.15441 0
M  V30 6302 C 582.614 -3.44358 -0.480952 0
M  V30 6303 H 581.937 -3.99354 0.18876 0
M  V30 6304 H 583.377 -4.15652 -0.837241 0
M  V30 6305 C 581.836 -2.92574 -1.67039 0
M  V30 6306 O 582.366 -2.90954 -2.76964 0
M  V30 6307 N 580.572 -2.48835 -1.50097 0
M  V30 6308 H 580.119 -2.50353 -0.606738 0
M  V30 6309 H 580.077 -2.14543 -2.29823 0
M  V30 6310 N 583.85 -0.624285 -1.44708 0
M  V30 6311 C 584.798 0.0969952 -2.32398 0
M  V30 6312 C 585.792 0.842762 -1.46949 0
M  V30 6313 O 586.998 0.756436 -1.63334 0
M  V30 6314 H 583.373 0.0501306 -0.750327 0
M  V30 6315 H 585.344 -0.660767 -2.90992 0
M  V30 6316 C 584.093 1.06967 -3.30837 0
M  V30 6317 H 583.416 0.505242 -3.96595 0
M  V30 6318 H 584.856 1.54397 -3.94889 0
M  V30 6319 C 583.315 2.15153 -2.5925 0
M  V30 6320 O 583.845 3.23139 -2.3863 0
M  V30 6321 N 582.051 1.90898 -2.19103 0
M  V30 6322 H 581.598 1.03086 -2.36074 0
M  V30 6323 H 581.556 2.63485 -1.71531 0
M  V30 6324 N 585.328 1.53329 -0.364422 0
M  V30 6325 C 586.739 1.86345 0.115039 0
M  V30 6326 C 587.09 1.28505 1.4826 0
M  V30 6327 O 586.215 0.606639 2.07723 0
M  V30 6328 C 586.81 3.38114 0.215522 0
M  V30 6329 C 585.369 3.70932 0.639237 0
M  V30 6330 C 584.516 2.76471 -0.214261 0
M  V30 6331 H 587.467 1.47593 -0.583258 0
M  V30 6332 H 587.488 3.66031 1.0393 0
M  V30 6333 H 587 3.80182 -0.779948 0
M  V30 6334 H 585.101 3.3442 1.64298 0
M  V30 6335 H 585.214 4.77302 0.41465 0
M  V30 6336 H 583.578 2.52724 0.316678 0
M  V30 6337 H 584.361 3.21373 -1.20725 0
M  V30 6338 N 586.806 0.0935595 1.57322 0
M  V30 6339 C 588.053 -0.570509 1.94297 0
M  V30 6340 C 588.381 -1.68286 0.97519 0
M  V30 6341 O 587.636 -1.95699 -0.00548655 0
M  V30 6342 C 587.935 -1.16692 3.37813 0
M  V30 6343 C 587.601 -0.178509 4.50547 0
M  V30 6344 C 586.263 0.0933475 4.81109 0
M  V30 6345 C 588.615 0.496472 5.1883 0
M  V30 6346 C 585.943 1.0469 5.77284 0
M  V30 6347 C 588.295 1.43849 6.16028 0
M  V30 6348 C 586.959 1.71859 6.44997 0
M  V30 6349 H 586.229 -0.208764 0.710984 0
M  V30 6350 H 588.876 0.169066 1.90752 0
M  V30 6351 H 587.181 -1.98271 3.37929 0
M  V30 6352 H 588.878 -1.6884 3.63722 0
M  V30 6353 H 585.468 -0.400584 4.26724 0
M  V30 6354 H 589.652 0.299584 4.95395 0
M  V30 6355 H 584.908 1.27094 5.98044 0
M  V30 6356 H 589.082 1.96734 6.68034 0
M  V30 6357 H 586.709 2.45906 7.19329 0
M  V30 6358 N 588.284 -1.56567 -0.180126 0
M  V30 6359 C 589.509 -1.85975 -0.918041 0
M  V30 6360 C 589.934 -0.678888 -1.75422 0
M  V30 6361 O 589.292 0.372168 -1.77439 0
M  V30 6362 C 589.34 -3.13731 -1.77779 0
M  V30 6363 O 588.444 -2.95335 -2.87838 0
M  V30 6364 H 587.785 -0.61196 -0.257683 0
M  V30 6365 H 590.315 -2.03798 -0.180923 0
M  V30 6366 H 590.325 -3.4491 -2.17948 0
M  V30 6367 H 589 -3.99293 -1.16352 0
M  V30 6368 H 587.577 -2.7549 -2.51316 0
M  V30 6369 N 589.762 0.448376 -1.51087 0
M  V30 6370 C 590.725 1.52588 -1.71025 0
M  V30 6371 C 591.725 1.49958 -0.580442 0
M  V30 6372 O 592.915 1.52176 -0.847833 0
M  V30 6373 C 590.047 2.92163 -1.75652 0
M  V30 6374 H 591.24 1.36218 -2.67179 0
M  V30 6375 H 588.793 0.676313 -1.4091 0
M  V30 6376 H 589.528 3.13951 -0.812724 0
M  V30 6377 H 589.313 2.95478 -2.57751 0
M  V30 6378 H 590.803 3.70349 -1.92953 0
M  V30 6379 N 591.24 1.41047 0.703093 0
M  V30 6380 C 592.187 1.42302 1.81711 0
M  V30 6381 C 593.157 0.278336 1.63751 0
M  V30 6382 O 594.342 0.478266 1.84709 0
M  V30 6383 C 591.482 1.30362 3.19531 0
M  V30 6384 C 590.595 2.54638 3.48975 0
M  V30 6385 C 589.73 2.35047 4.76368 0
M  V30 6386 C 588.769 3.54837 4.98756 0
M  V30 6387 N 587.906 3.34363 6.1737 0
M  V30 6388 H 592.746 2.37516 1.79973 0
M  V30 6389 H 590.283 1.1795 0.878983 0
M  V30 6390 H 592.241 1.21443 3.99134 0
M  V30 6391 H 590.871 0.387602 3.20464 0
M  V30 6392 H 589.923 2.74037 2.63833 0
M  V30 6393 H 591.235 3.43766 3.61423 0
M  V30 6394 H 590.389 2.23552 5.64012 0
M  V30 6395 H 589.128 1.43363 4.66153 0
M  V30 6396 H 588.133 3.66795 4.09563 0
M  V30 6397 H 589.358 4.47464 5.10835 0
M  V30 6398 H 587.304 2.45373 6.08382 0
M  V30 6399 H 587.221 4.17063 6.30551 0
M  V30 6400 H 588.489 3.26626 7.07768 0
M  V30 6401 N 592.718 -0.936591 1.26751 0
M  V30 6402 C 593.965 -1.68331 1.12566 0
M  V30 6403 C 594.293 -1.91677 -0.330168 0
M  V30 6404 O 593.548 -1.49859 -1.2586 0
M  V30 6405 C 593.847 -3.06099 1.84494 0
M  V30 6406 C 593.513 -3.02493 3.34378 0
M  V30 6407 C 592.175 -3.01217 3.75262 0
M  V30 6408 C 594.527 -2.94453 4.30055 0
M  V30 6409 C 591.855 -2.89672 5.10203 0
M  V30 6410 C 594.207 -2.84449 5.65041 0
M  V30 6411 C 592.871 -2.81518 6.0523 0
M  V30 6412 H 592.141 -0.615965 0.411907 0
M  V30 6413 H 594.788 -1.09292 1.5725 0
M  V30 6414 H 593.093 -3.6879 1.32292 0
M  V30 6415 H 594.79 -3.62733 1.70955 0
M  V30 6416 H 591.38 -3.04269 3.01858 0
M  V30 6417 H 595.564 -2.94544 3.99447 0
M  V30 6418 H 590.82 -2.85783 5.40498 0
M  V30 6419 H 594.994 -2.77192 6.38856 0
M  V30 6420 H 592.621 -2.72329 7.09747 0
M  V30 6421 N 594.196 -1.08629 -1.14182 0
M  V30 6422 C 595.144 -0.71284 -2.21408 0
M  V30 6423 C 596.138 0.282457 -1.67029 0
M  V30 6424 O 597.344 0.144783 -1.79417 0
M  V30 6425 H 593.719 -0.212497 -0.721352 0
M  V30 6426 H 595.69 -1.6265 -2.50175 0
M  V30 6427 C 594.439 -0.140704 -3.47415 0
M  V30 6428 H 593.762 -0.897739 -3.8959 0
M  V30 6429 H 595.202 0.0827677 -4.23919 0
M  V30 6430 C 593.661 1.122 -3.17668 0
M  V30 6431 O 594.191 2.20652 -3.35672 0
M  V30 6432 N 592.397 1.03328 -2.71609 0
M  V30 6433 H 591.944 0.150666 -2.57159 0
M  V30 6434 H 591.902 1.8789 -2.52081 0
M  V30 6435 N 595.674 1.31259 -0.872281 0
M  V30 6436 C 596.621 2.28459 -0.327857 0
M  V30 6437 C 597.591 1.55831 0.574957 0
M  V30 6438 O 598.776 1.83965 0.506101 0
M  V30 6439 C 595.916 3.41985 0.462644 0
M  V30 6440 C 595.029 4.29458 -0.467949 0
M  V30 6441 C 594.164 5.30131 0.336903 0
M  V30 6442 C 593.203 6.0925 -0.58997 0
M  V30 6443 N 592.34 7.01872 0.178775 0
M  V30 6444 H 597.18 2.74414 -1.16193 0
M  V30 6445 H 594.717 1.34994 -0.584376 0
M  V30 6446 H 596.675 4.06547 0.936759 0
M  V30 6447 H 595.305 2.97134 1.2614 0
M  V30 6448 H 594.357 3.65318 -1.06052 0
M  V30 6449 H 595.669 4.84677 -1.17856 0
M  V30 6450 H 594.823 6.0038 0.873427 0
M  V30 6451 H 593.562 4.75573 1.08079 0
M  V30 6452 H 592.567 5.37889 -1.13823 0
M  V30 6453 H 593.792 6.65894 -1.33275 0
M  V30 6454 H 591.738 6.49721 0.905435 0
M  V30 6455 H 591.655 7.54522 -0.472452 0
M  V30 6456 H 592.923 7.76382 0.696454 0
M  V30 6457 N 597.152 0.631951 1.44375 0
M  V30 6458 C 598.38 0.143867 2.06399 0
M  V30 6459 C 598.795 -1.18188 1.47231 0
M  V30 6460 O 598.152 -1.72511 0.595498 0
M  V30 6461 C 598.203 0.0238253 3.61492 0
M  V30 6462 O 597.924 1.29715 4.18456 0
M  V30 6463 C 599.425 -0.492856 4.40552 0
M  V30 6464 H 596.645 0.0800542 0.666207 0
M  V30 6465 H 599.189 0.866586 1.85231 0
M  V30 6466 H 597.344 -0.649338 3.81919 0
M  V30 6467 H 597.758 1.14252 5.11905 0
M  V30 6468 H 599.232 -0.525861 5.49489 0
M  V30 6469 H 599.709 -1.52006 4.12057 0
M  V30 6470 H 600.315 0.147085 4.25046 0
M  V30 6471 N 598.631 -1.53133 0.372548 0
M  V30 6472 C 599.861 -2.05476 -0.215202 0
M  V30 6473 C 600.269 -1.24534 -1.42436 0
M  V30 6474 O 599.612 -0.280771 -1.81542 0
M  V30 6475 C 599.674 -3.53276 -0.666068 0
M  V30 6476 C 599.338 -4.54998 0.427342 0
M  V30 6477 C 600.335 -5.03911 1.27944 0
M  V30 6478 C 598.02 -4.98828 0.589579 0
M  V30 6479 C 600.014 -5.95263 2.27905 0
M  V30 6480 C 597.701 -5.89984 1.59255 0
M  V30 6481 C 598.699 -6.38093 2.43571 0
M  V30 6482 O 598.387 -7.27451 3.42156 0
M  V30 6483 H 598.119 -0.67481 -0.040099 0
M  V30 6484 H 600.673 -1.98409 0.531312 0
M  V30 6485 H 598.903 -3.57904 -1.4643 0
M  V30 6486 H 600.592 -3.88442 -1.1776 0
M  V30 6487 H 601.358 -4.70792 1.16532 0
M  V30 6488 H 597.237 -4.60965 -0.0569456 0
M  V30 6489 H 600.781 -6.32736 2.93753 0
M  V30 6490 H 596.678 -6.22518 1.70711 0
M  V30 6491 H 597.446 -7.45467 3.37967 0
M  V30 6492 N 600.109 -0.101901 -1.5727 0
M  V30 6493 C 601.072 0.840129 -2.13247 0
M  V30 6494 C 602.072 1.20625 -1.06331 0
M  V30 6495 O 603.262 1.13456 -1.32186 0
M  V30 6496 C 600.394 2.13372 -2.65867 0
M  V30 6497 H 601.587 0.353945 -2.97804 0
M  V30 6498 H 599.14 0.147167 -1.55606 0
M  V30 6499 H 599.875 2.66461 -1.84849 0
M  V30 6500 H 599.66 1.88085 -3.44044 0
M  V30 6501 H 601.15 2.80748 -3.09145 0
M  V30 6502 N 601.587 1.56661 0.17182 0
M  V30 6503 C 602.998 1.71652 0.734329 0
M  V30 6504 C 603.349 0.712335 1.82812 0
M  V30 6505 O 602.474 -0.126401 2.16031 0
M  V30 6506 C 603.069 3.11226 1.3388 0
M  V30 6507 C 601.628 3.27904 1.84813 0
M  V30 6508 C 600.775 2.67603 0.726917 0
M  V30 6509 H 603.726 1.5861 -0.0535665 0
M  V30 6510 H 603.747 3.09849 2.20849 0
M  V30 6511 H 603.259 3.8429 0.54249 0
M  V30 6512 H 601.36 2.59796 2.6709 0
M  V30 6513 H 601.473 4.35637 1.99392 0
M  V30 6514 H 599.837 2.274 1.14723 0
M  V30 6515 H 600.62 3.43252 -0.0575334 0
M  V30 6516 N 603.065 -0.440357 1.51323 0
M  V30 6517 C 604.313 -1.18769 1.63518 0
M  V30 6518 C 604.634 -1.91793 0.352201 0
M  V30 6519 O 603.904 -1.85432 -0.631811 0
M  V30 6520 H 602.484 -0.441408 0.602634 0
M  V30 6521 H 605.146 -0.505162 1.8824 0
M  V30 6522 H 604.242 -1.91892 2.46138 0
M  V30 6523 N 604.543 -1.41418 -0.695603 0
M  V30 6524 C 605.768 -1.44329 -1.48942 0
M  V30 6525 C 606.193 -0.0501579 -1.88033 0
M  V30 6526 O 605.551 0.946598 -1.54626 0
M  V30 6527 C 605.599 -2.3578 -2.72837 0
M  V30 6528 O 604.703 -1.81482 -3.70322 0
M  V30 6529 H 604.044 -0.489838 -0.44828 0
M  V30 6530 H 606.574 -1.85878 -0.855014 0
M  V30 6531 H 606.584 -2.51654 -3.21145 0
M  V30 6532 H 605.259 -3.37005 -2.43722 0
M  V30 6533 H 603.836 -1.75058 -3.29255 0
M  V30 6534 N 606.021 0.929856 -1.27246 0
M  V30 6535 C 607.249 1.71144 -1.16265 0
M  V30 6536 C 607.664 1.867 0.280786 0
M  V30 6537 O 607.021 1.38249 1.19136 0
M  V30 6538 C 607.072 3.11222 -1.83911 0
M  V30 6539 O 606.793 2.96398 -3.22614 0
M  V30 6540 C 608.294 4.05541 -1.79028 0
M  V30 6541 H 605.514 0.535499 -0.404328 0
M  V30 6542 H 608.058 1.16492 -1.68077 0
M  V30 6543 H 606.213 3.6274 -1.36009 0
M  V30 6544 H 606.627 3.8494 -3.56261 0
M  V30 6545 H 608.101 5.01351 -2.30978 0
M  V30 6546 H 608.578 4.32589 -0.759168 0
M  V30 6547 H 609.184 3.59947 -2.26535 0
M  V30 6548 N 607.499 1.09233 1.13605 0
M  V30 6549 C 608.748 0.82205 1.84188 0
M  V30 6550 C 609.061 -0.654548 1.84323 0
M  V30 6551 O 610.267 -1.04029 2.50779 0
M  V30 6552 C 608.723 1.42066 3.30674 0
M  V30 6553 C 608.331 2.92965 3.38933 0
M  V30 6554 C 610.075 1.22924 4.06313 0
M  V30 6555 C 607.982 3.45922 4.79679 0
M  V30 6556 H 606.912 0.303854 0.690064 0
M  V30 6557 H 609.563 1.31479 1.28006 0
M  V30 6558 H 607.945 0.855613 3.86646 0
M  V30 6559 H 609.119 3.55679 2.92966 0
M  V30 6560 H 607.434 3.11118 2.76757 0
M  V30 6561 H 610.031 1.59945 5.10217 0
M  V30 6562 H 610.374 0.169726 4.15954 0
M  V30 6563 H 610.907 1.76168 3.56665 0
M  V30 6564 H 607.646 4.51484 4.75229 0
M  V30 6565 H 607.166 2.87971 5.26149 0
M  V30 6566 H 608.845 3.43009 5.48592 0
M  V30 6567 N 608.977 -1.30795 0.87923 0
M  V30 6568 C 609.924 -2.28282 0.339968 0
M  V30 6569 C 610.894 -1.56134 -0.566685 0
M  V30 6570 O 612.079 -1.84231 -0.496338 0
M  V30 6571 C 609.219 -3.42225 -0.444501 0
M  V30 6572 C 608.332 -4.29204 0.490717 0
M  V30 6573 C 607.467 -5.30302 -0.308784 0
M  V30 6574 C 606.506 -6.08929 0.622272 0
M  V30 6575 N 605.643 -7.01957 -0.14155 0
M  V30 6576 H 610.483 -2.73794 1.17647 0
M  V30 6577 H 608.02 -1.34682 0.591527 0
M  V30 6578 H 609.978 -4.07038 -0.915186 0
M  V30 6579 H 608.608 -2.97799 -1.24562 0
M  V30 6580 H 607.66 -3.6475 1.07988 0
M  V30 6581 H 608.972 -4.84045 1.20425 0
M  V30 6582 H 608.126 -6.00835 -0.841575 0
M  V30 6583 H 606.865 -4.7614 -1.05556 0
M  V30 6584 H 605.87 -5.37278 1.16674 0
M  V30 6585 H 607.095 -6.65178 1.36804 0
M  V30 6586 H 605.041 -6.50192 -0.870966 0
M  V30 6587 H 604.958 -7.54261 0.51246 0
M  V30 6588 H 606.226 -7.76741 -0.655271 0
M  V30 6589 N 610.455 -0.639598 -1.44038 0
M  V30 6590 C 611.866 -0.228866 -1.85292 0
M  V30 6591 C 612.217 1.22161 -1.53529 0
M  V30 6592 O 611.342 1.93064 -0.977518 0
M  V30 6593 C 611.937 -0.408592 -3.36327 0
M  V30 6594 C 610.496 -0.0522953 -3.76364 0
M  V30 6595 C 609.643 -0.717959 -2.67844 0
M  V30 6596 H 612.594 -0.844194 -1.34384 0
M  V30 6597 H 612.615 0.349968 -3.78887 0
M  V30 6598 H 612.127 -1.46435 -3.59414 0
M  V30 6599 H 610.228 1.0014 -3.58891 0
M  V30 6600 H 610.341 -0.468261 -4.76806 0
M  V30 6601 H 608.705 -0.152459 -2.54243 0
M  V30 6602 H 609.488 -1.77648 -2.93762 0
M  V30 6603 N 611.933 1.52934 -0.380664 0
M  V30 6604 C 613.182 2.00651 0.205477 0
M  V30 6605 C 613.495 1.27164 1.48623 0
M  V30 6606 O 614.701 1.65547 2.15189 0
M  V30 6607 C 613.157 3.57479 0.416726 0
M  V30 6608 C 612.765 4.39857 -0.850268 0
M  V30 6609 C 614.509 4.13509 0.959702 0
M  V30 6610 C 612.416 5.88269 -0.607773 0
M  V30 6611 H 611.346 0.749684 0.0805614 0
M  V30 6612 H 613.997 1.76508 -0.501732 0
M  V30 6613 H 612.379 3.77836 1.18557 0
M  V30 6614 H 613.553 4.31269 -1.62307 0
M  V30 6615 H 611.868 3.95005 -1.31756 0
M  V30 6616 H 614.465 5.22039 1.15669 0
M  V30 6617 H 614.808 3.69054 1.92626 0
M  V30 6618 H 615.341 3.9701 0.250645 0
M  V30 6619 H 612.08 6.3703 -1.54509 0
M  V30 6620 H 611.6 5.99667 0.126247 0
M  V30 6621 H 613.279 6.46558 -0.239014 0
M  V30 6622 N 613.412 0.11024 1.57214 0
M  V30 6623 C 614.375 -0.828808 2.1369 0
M  V30 6624 C 615.375 -1.20059 1.06969 0
M  V30 6625 O 616.565 -1.12754 1.32786 0
M  V30 6626 C 613.697 -2.11959 2.66994 0
M  V30 6627 H 614.89 -0.338146 2.97988 0
M  V30 6628 H 612.443 -0.138913 1.55681 0
M  V30 6629 H 613.178 -2.65476 1.8626 0
M  V30 6630 H 612.963 -1.86258 3.45037 0
M  V30 6631 H 614.453 -2.79105 3.10629 0
M  V30 6632 N 614.89 -1.56749 -0.16351 0
M  V30 6633 C 615.853 -1.96121 -1.18613 0
M  V30 6634 C 616.853 -0.845765 -1.36761 0
M  V30 6635 O 618.043 -1.11268 -1.34033 0
M  V30 6636 C 615.175 -2.26282 -2.54969 0
M  V30 6637 H 616.368 -2.87639 -0.848764 0
M  V30 6638 H 613.921 -1.50928 -0.406251 0
M  V30 6639 H 614.656 -1.37504 -2.93706 0
M  V30 6640 H 614.441 -3.07595 -2.43162 0
M  V30 6641 H 615.931 -2.57638 -3.28653 0
M  V30 6642 N 616.368 0.432326 -1.51554 0
M  V30 6643 C 617.331 1.50765 -1.72634 0
M  V30 6644 C 618.331 1.49334 -0.596314 0
M  V30 6645 O 619.521 1.51268 -0.863925 0
M  V30 6646 C 616.653 2.90284 -1.7874 0
M  V30 6647 H 617.846 1.33377 -2.68609 0
M  V30 6648 H 615.399 0.661329 -1.4162 0
M  V30 6649 H 616.134 3.13071 -0.845977 0
M  V30 6650 H 615.919 2.92727 -2.6087 0
M  V30 6651 H 617.409 3.68282 -1.96871 0
M  V30 6652 N 617.846 1.41785 0.688094 0
M  V30 6653 C 619.095 1.4084 1.44385 0
M  V30 6654 C 619.408 0.0234166 1.95586 0
M  V30 6655 O 620.614 -0.108647 2.71283 0
M  V30 6656 C 619.07 2.47675 2.61123 0
M  V30 6657 C 618.678 3.92116 2.16677 0
M  V30 6658 C 620.422 2.55877 3.38714 0
M  V30 6659 C 618.329 4.90487 3.30419 0
M  V30 6660 H 617.259 0.523787 0.542368 0
M  V30 6661 H 619.91 1.6764 0.74627 0
M  V30 6662 H 618.292 2.14018 3.33185 0
M  V30 6663 H 619.466 4.35059 1.51856 0
M  V30 6664 H 617.781 3.87642 1.5206 0
M  V30 6665 H 620.378 3.26553 4.234 0
M  V30 6666 H 620.721 1.59801 3.84408 0
M  V30 6667 H 621.254 2.88662 2.73714 0
M  V30 6668 H 617.993 5.87994 2.89729 0
M  V30 6669 H 617.513 4.52187 3.94065 0
M  V30 6670 H 619.192 5.11591 3.96085 0
M  V30 6671 N 619.324 -0.923095 1.27737 0
M  V30 6672 C 620.572 -1.66797 1.14119 0
M  V30 6673 C 620.893 -1.92479 -0.312541 0
M  V30 6674 O 620.163 -1.53432 -1.218 0
M  V30 6675 H 618.743 -0.618196 0.419336 0
M  V30 6676 H 621.405 -1.10815 1.60331 0
M  V30 6677 H 620.501 -2.63424 1.67374 0
M  V30 6678 N 620.802 -1.09834 -1.13024 0
M  V30 6679 C 622.051 -0.831806 -1.83749 0
M  V30 6680 C 622.364 0.644763 -1.84668 0
M  V30 6681 O 623.57 1.02697 -2.51327 0
M  V30 6682 C 622.026 -1.43817 -3.29916 0
M  V30 6683 C 621.634 -2.94759 -3.37374 0
M  V30 6684 C 623.378 -1.25077 -4.05655 0
M  V30 6685 C 621.285 -3.48461 -4.77838 0
M  V30 6686 H 620.215 -0.30751 -0.688443 0
M  V30 6687 H 622.866 -1.32156 -1.27307 0
M  V30 6688 H 621.248 -0.876106 -3.86187 0
M  V30 6689 H 622.422 -3.57228 -2.91076 0
M  V30 6690 H 620.737 -3.12581 -2.75103 0
M  V30 6691 H 623.334 -1.62649 -5.09362 0
M  V30 6692 H 623.677 -0.191782 -4.15858 0
M  V30 6693 H 624.21 -1.78057 -3.55725 0
M  V30 6694 H 620.949 -4.53998 -4.72828 0
M  V30 6695 H 620.469 -2.90757 -5.24615 0
M  V30 6696 H 622.148 -3.45914 -5.46766 0
M  V30 6697 N 622.28 1.30327 -0.886154 0
M  V30 6698 C 623.227 2.28099 -0.352069 0
M  V30 6699 C 624.197 1.56433 0.558397 0
M  V30 6700 O 625.382 1.84492 0.486561 0
M  V30 6701 C 622.522 3.42456 0.426346 0
M  V30 6702 C 621.635 4.28938 -0.513472 0
M  V30 6703 C 620.77 5.30458 0.280657 0
M  V30 6704 C 619.809 6.0859 -0.654556 0
M  V30 6705 N 618.946 7.02022 0.104322 0
M  V30 6706 H 623.786 2.73166 -1.19097 0
M  V30 6707 H 621.323 1.34367 -0.598662 0
M  V30 6708 H 623.281 4.07518 0.893587 0
M  V30 6709 H 621.911 2.98455 1.22981 0
M  V30 6710 H 620.963 3.64173 -1.09921 0
M  V30 6711 H 622.275 4.83399 -1.2299 0
M  V30 6712 H 621.429 6.01273 0.8097 0
M  V30 6713 H 620.168 4.76693 1.03029 0
M  V30 6714 H 619.173 5.36651 -1.19522 0
M  V30 6715 H 620.398 6.64443 -1.4033 0
M  V30 6716 H 618.344 6.50645 0.836472 0
M  V30 6717 H 618.261 7.53979 -0.552453 0
M  V30 6718 H 619.529 7.77077 0.614069 0
M  V30 6719 N 623.758 0.647228 1.43697 0
M  V30 6720 C 624.706 -0.0600105 2.32523 0
M  V30 6721 C 625.7 -0.819277 1.48271 0
M  V30 6722 O 626.906 -0.730356 1.64517 0
M  V30 6723 H 623.281 -0.0381872 0.75103 0
M  V30 6724 H 625.252 0.706978 2.89904 0
M  V30 6725 C 624.001 -1.0169 3.32497 0
M  V30 6726 H 623.324 -0.442083 3.97348 0
M  V30 6727 H 624.764 -1.48095 3.97296 0
M  V30 6728 C 623.223 -2.11002 2.6264 0
M  V30 6729 O 623.753 -3.19302 2.4374 0
M  V30 6730 N 621.959 -1.87388 2.22113 0
M  V30 6731 H 621.506 -0.993174 2.37684 0
M  V30 6732 H 621.464 -2.60723 1.75701 0
M  V30 6733 N 625.236 -1.5273 0.388769 0
M  V30 6734 C 626.484 -2.01174 -0.193208 0
M  V30 6735 C 626.805 -1.27705 -1.47365 0
M  V30 6736 O 626.075 -0.396966 -1.91836 0
M  V30 6737 H 624.655 -0.743287 -0.0743871 0
M  V30 6738 H 627.317 -1.87826 0.520336 0
M  V30 6739 H 626.413 -3.09477 -0.403803 0
M  V30 6740 N 626.714 -0.118576 -1.57153 0
M  V30 6741 C 627.942 0.54726 -1.99531 0
M  V30 6742 C 628.357 1.60251 -0.998246 0
M  V30 6743 O 627.714 1.82498 0.00893106 0
M  V30 6744 C 627.765 1.17378 -3.41913 0
M  V30 6745 O 627.486 0.160703 -4.37805 0
M  V30 6746 C 628.987 1.92297 -3.9942 0
M  V30 6747 H 626.207 0.144919 -0.655164 0
M  V30 6748 H 628.751 -0.20479 -2.03472 0
M  V30 6749 H 626.906 1.87661 -3.38913 0
M  V30 6750 H 627.32 0.61586 -5.20872 0
M  V30 6751 H 628.794 2.31462 -5.01128 0
M  V30 6752 H 629.271 2.79801 -3.38538 0
M  V30 6753 H 629.877 1.26777 -4.05965 0
M  V30 6754 N 628.193 1.56834 0.155195 0
M  V30 6755 C 629.123 2.00678 1.19376 0
M  V30 6756 C 630.104 0.884973 1.45266 0
M  V30 6757 O 631.289 1.1522 1.56326 0
M  V30 6758 C 628.419 2.38042 2.5289 0
M  V30 6759 C 627.373 3.53332 2.41538 0
M  V30 6760 C 626.699 3.76485 3.79688 0
M  V30 6761 C 627.999 4.86265 1.9064 0
M  V30 6762 H 629.693 2.87688 0.829232 0
M  V30 6763 H 627.239 1.38407 0.397445 0
M  V30 6764 H 629.192 2.67314 3.25763 0
M  V30 6765 H 627.916 1.4796 2.91162 0
M  V30 6766 H 626.575 3.24213 1.71117 0
M  V30 6767 H 626.223 2.83667 4.15382 0
M  V30 6768 H 625.923 4.54068 3.72956 0
M  V30 6769 H 627.447 4.08174 4.54122 0
M  V30 6770 H 628.861 5.14308 2.53299 0
M  V30 6771 H 627.258 5.67597 1.94818 0
M  V30 6772 H 628.328 4.77184 0.861596 0
M  V30 6773 N 629.671 -0.424282 1.51781 0
M  V30 6774 C 630.618 -1.51591 1.74037 0
M  V30 6775 C 631.588 -1.55556 0.582358 0
M  V30 6776 O 632.773 -1.72364 0.818245 0
M  V30 6777 C 629.913 -2.89188 1.8832 0
M  V30 6778 C 629.026 -2.9465 3.1592 0
M  V30 6779 C 628.161 -4.23452 3.20721 0
M  V30 6780 C 627.2 -4.22831 4.42584 0
M  V30 6781 N 626.337 -5.43178 4.44862 0
M  V30 6782 H 631.177 -1.31917 2.67212 0
M  V30 6783 H 628.714 -0.640599 1.32419 0
M  V30 6784 H 630.672 -3.69044 1.94583 0
M  V30 6785 H 629.302 -3.07392 0.985402 0
M  V30 6786 H 628.354 -2.07378 3.18902 0
M  V30 6787 H 629.666 -2.90055 4.05795 0
M  V30 6788 H 628.82 -5.1169 3.25973 0
M  V30 6789 H 627.559 -4.30722 2.28757 0
M  V30 6790 H 626.564 -3.32984 4.37495 0
M  V30 6791 H 627.789 -4.17213 5.35826 0
M  V30 6792 H 625.735 -5.51145 3.55775 0
M  V30 6793 H 625.652 -5.40515 5.28563 0
M  V30 6794 H 626.92 -6.33412 4.54324 0
M  V30 6795 N 631.149 -1.42148 -0.680565 0
M  V30 6796 C 632.112 -1.4488 -1.77602 0
M  V30 6797 C 633.112 -0.337209 -1.57224 0
M  V30 6798 O 634.302 -0.597778 -1.63622 0
M  V30 6799 C 631.434 -1.27483 -3.16166 0
M  V30 6800 H 632.627 -2.42412 -1.76568 0
M  V30 6801 H 630.18 -1.28511 -0.889645 0
M  V30 6802 H 630.915 -0.30851 -3.22829 0
M  V30 6803 H 630.7 -2.08037 -3.3236 0
M  V30 6804 H 632.19 -1.32265 -3.96101 0
M  V30 6805 N 632.627 0.916307 -1.28225 0
M  V30 6806 C 633.904 1.64429 -1.05936 0
M  V30 6807 C 634.284 2.07234 0.402139 0
M  V30 6808 O 633.632 1.81535 1.3877 0
M  V30 6809 C 633.842 2.83773 -2.03159 0
M  V30 6810 C 635.19 3.54852 -2.33164 0
M  V30 6811 O 636.214 2.93918 -2.01223 0
M  V30 6812 O 635.073 4.64663 -2.87664 0
M  V30 6813 H 632.167 0.721221 -0.404683 0
M  V30 6814 H 634.713 0.965838 -1.39534 0
M  V30 6815 H 633.485 2.49217 -3.01673 0
M  V30 6816 H 633.108 3.59333 -1.70192 0
M  V30 6817 N 634.105 1.10431 1.1244 0
M  V30 6818 C 635.015 0.765502 2.21759 0
M  V30 6819 C 636.031 -0.236966 1.72379 0
M  V30 6820 O 637.207 -0.0757329 2.01258 0
M  V30 6821 C 634.272 0.202316 3.46109 0
M  V30 6822 C 633.333 1.26205 4.1033 0
M  V30 6823 C 632.566 0.725648 5.28744 0
M  V30 6824 O 632.789 -0.447942 5.68638 0
M  V30 6825 O 631.723 1.48555 5.83279 0
M  V30 6826 H 635.549 1.67801 2.53133 0
M  V30 6827 H 633.134 0.879443 1.20773 0
M  V30 6828 H 635.016 -0.107918 4.21262 0
M  V30 6829 H 633.691 -0.683052 3.16411 0
M  V30 6830 H 632.598 1.62514 3.36957 0
M  V30 6831 H 633.931 2.12044 4.44183 0
M  V30 6832 N 635.583 -1.29855 0.893053 0
M  V30 6833 C 636.53 -2.27909 0.364161 0
M  V30 6834 C 637.5 -1.56726 -0.550093 0
M  V30 6835 O 638.685 -1.84747 -0.47677 0
M  V30 6836 C 635.825 -3.42678 -0.408178 0
M  V30 6837 C 634.938 -4.28659 0.536212 0
M  V30 6838 C 634.073 -5.30599 -0.252521 0
M  V30 6839 C 633.112 -6.08234 0.686822 0
M  V30 6840 N 632.249 -7.02068 -0.0670902 0
M  V30 6841 H 637.089 -2.72531 1.20544 0
M  V30 6842 H 634.626 -1.34047 0.605779 0
M  V30 6843 H 636.584 -4.07986 -0.871962 0
M  V30 6844 H 635.214 -2.99103 -1.21397 0
M  V30 6845 H 634.266 -3.63584 1.1185 0
M  V30 6846 H 635.578 -4.8274 1.25552 0
M  V30 6847 H 634.732 -6.01694 -0.777801 0
M  V30 6848 H 633.471 -4.77233 -1.005 0
M  V30 6849 H 632.476 -5.3601 1.22366 0
M  V30 6850 H 633.701 -6.63689 1.43852 0
M  V30 6851 H 631.647 -6.5108 -0.801955 0
M  V30 6852 H 631.564 -7.53675 0.59243 0
M  V30 6853 H 632.832 -7.77392 -0.572851 0
M  V30 6854 N 637.061 -0.65484 -1.43351 0
M  V30 6855 C 638.008 0.0357713 -2.30772 0
M  V30 6856 C 638.978 0.813035 -1.44841 0
M  V30 6857 O 640.163 0.789314 -1.73708 0
M  V30 6858 C 637.303 0.995084 -3.30442 0
M  V30 6859 C 636.416 0.21375 -4.31471 0
M  V30 6860 C 635.551 1.16701 -5.18222 0
M  V30 6861 C 634.59 0.376201 -6.10943 0
M  V30 6862 N 633.727 1.28113 -6.90313 0
M  V30 6863 H 638.567 -0.71559 -2.89281 0
M  V30 6864 H 636.104 -0.364645 -1.42509 0
M  V30 6865 H 638.062 1.5649 -3.86739 0
M  V30 6866 H 636.692 1.7133 -2.7358 0
M  V30 6867 H 635.744 -0.472377 -3.77456 0
M  V30 6868 H 637.056 -0.401103 -4.97185 0
M  V30 6869 H 636.21 1.8074 -5.79153 0
M  V30 6870 H 634.949 1.81577 -4.52638 0
M  V30 6871 H 633.954 -0.277534 -5.49099 0
M  V30 6872 H 635.179 -0.268178 -6.7857 0
M  V30 6873 H 633.125 1.91666 -6.27376 0
M  V30 6874 H 633.042 0.720879 -7.52555 0
M  V30 6875 H 634.31 1.90962 -7.55747 0
M  V30 6876 N 638.539 1.52521 -0.396863 0
M  V30 6877 C 639.767 2.06091 0.18275 0
M  V30 6878 C 640.182 1.26796 1.39886 0
M  V30 6879 O 639.539 0.316585 1.79733 0
M  V30 6880 C 639.59 3.57362 0.545377 0
M  V30 6881 O 639.311 4.33656 -0.622428 0
M  V30 6882 C 640.812 4.27305 1.18004 0
M  V30 6883 H 638.032 0.670504 0.025789 0
M  V30 6884 H 640.576 1.96561 -0.564276 0
M  V30 6885 H 638.731 3.66941 1.2423 0
M  V30 6886 H 639.145 5.23507 -0.322662 0
M  V30 6887 H 640.619 5.34366 1.38408 0
M  V30 6888 H 641.096 3.83 2.1496 0
M  V30 6889 H 641.702 4.22064 0.523671 0
M  V30 6890 N 640.017 0.126909 1.57088 0
M  V30 6891 C 641.266 -0.529024 1.94639 0
M  V30 6892 C 641.579 -1.67323 1.01304 0
M  V30 6893 O 642.785 -2.39245 1.28352 0
M  V30 6894 C 641.241 -0.992483 3.45945 0
M  V30 6895 C 640.849 0.123691 4.47829 0
M  V30 6896 C 642.593 -1.61934 3.924 0
M  V30 6897 C 640.5 -0.356911 5.90322 0
M  V30 6898 H 639.43 -0.201397 0.726605 0
M  V30 6899 H 642.081 0.208032 1.82317 0
M  V30 6900 H 640.463 -1.7842 3.53528 0
M  V30 6901 H 641.637 0.900168 4.51922 0
M  V30 6902 H 639.952 0.657699 4.11173 0
M  V30 6903 H 642.549 -1.9902 4.96281 0
M  V30 6904 H 642.892 -2.50075 3.32819 0
M  V30 6905 H 643.425 -0.892894 3.8765 0
M  V30 6906 H 640.164 0.488636 6.53676 0
M  V30 6907 H 639.684 -1.0997 5.89633 0
M  V30 6908 H 641.363 -0.815547 6.41839 0
M  V30 6909 N 641.495 -1.56914 -0.146875 0
M  V30 6910 C 642.442 -1.98275 -1.18134 0
M  V30 6911 C 643.412 -0.850367 -1.42681 0
M  V30 6912 O 644.597 -1.11244 -1.55014 0
M  V30 6913 C 641.737 -2.36861 -2.5098 0
M  V30 6914 C 640.85 -3.63391 -2.33605 0
M  V30 6915 C 639.985 -3.91079 -3.59486 0
M  V30 6916 C 639.024 -5.10879 -3.37149 0
M  V30 6917 N 638.161 -5.34577 -4.55161 0
M  V30 6918 H 643.001 -2.8645 -0.821622 0
M  V30 6919 H 640.538 -1.41718 -0.394248 0
M  V30 6920 H 642.496 -2.57262 -3.28439 0
M  V30 6921 H 641.126 -1.51766 -2.84898 0
M  V30 6922 H 640.178 -3.50766 -1.47199 0
M  V30 6923 H 641.49 -4.51007 -2.13059 0
M  V30 6924 H 640.644 -4.11979 -4.45374 0
M  V30 6925 H 639.383 -3.01885 -3.83036 0
M  V30 6926 H 638.388 -4.89853 -2.49649 0
M  V30 6927 H 639.613 -6.01626 -3.14997 0
M  V30 6928 H 637.559 -4.48337 -4.78884 0
M  V30 6929 H 637.476 -6.16463 -4.37618 0
M  V30 6930 H 638.744 -5.59975 -5.42263 0
M  V30 6931 N 642.974 0.416227 -1.52004 0
M  V30 6932 C 644.222 1.16153 -1.65387 0
M  V30 6933 C 644.543 1.91208 -0.382669 0
M  V30 6934 O 643.813 1.86413 0.602231 0
M  V30 6935 H 642.393 0.431765 -0.60958 0
M  V30 6936 H 645.055 0.475151 -1.89019 0
M  V30 6937 H 644.151 1.87952 -2.4916 0
M  V30 6938 N 644.452 1.42507 0.673017 0
M  V30 6939 C 645.399 1.46124 1.78651 0
M  V30 6940 C 646.369 0.313007 1.63124 0
M  V30 6941 O 647.554 0.517337 1.83653 0
M  V30 6942 C 644.694 1.3711 3.16694 0
M  V30 6943 C 643.807 2.61983 3.43495 0
M  V30 6944 C 642.942 2.45098 4.71275 0
M  V30 6945 C 641.981 3.65336 4.91117 0
M  V30 6946 N 641.118 3.47383 6.10139 0
M  V30 6947 H 645.958 2.4128 1.74895 0
M  V30 6948 H 643.495 1.19788 0.853766 0
M  V30 6949 H 645.453 1.29881 3.96468 0
M  V30 6950 H 644.083 0.45549 3.1957 0
M  V30 6951 H 643.135 2.79571 2.57961 0
M  V30 6952 H 644.447 3.51355 3.5405 0
M  V30 6953 H 643.601 2.35466 5.59143 0
M  V30 6954 H 642.34 1.53219 4.63007 0
M  V30 6955 H 641.345 3.754 4.0169 0
M  V30 6956 H 642.57 4.58199 5.01229 0
M  V30 6957 H 640.516 2.58222 6.0304 0
M  V30 6958 H 640.433 4.30344 6.21563 0
M  V30 6959 H 641.701 3.41565 7.00681 0
M  V30 6960 N 645.93 -0.909495 1.28709 0
M  V30 6961 C 646.84 -2.04558 1.14861 0
M  V30 6962 C 647.856 -1.73842 0.0741621 0
M  V30 6963 O 649.032 -1.99383 0.2843 0
M  V30 6964 C 646.097 -3.36957 0.816148 0
M  V30 6965 C 645.158 -3.81255 1.97341 0
M  V30 6966 C 644.391 -5.07335 1.65671 0
M  V30 6967 O 644.614 -5.67514 0.573053 0
M  V30 6968 O 643.548 -5.47449 2.50167 0
M  V30 6969 H 647.374 -2.19161 2.10243 0
M  V30 6970 H 644.959 -1.03159 1.08068 0
M  V30 6971 H 646.841 -4.16436 0.644873 0
M  V30 6972 H 645.516 -3.2352 -0.107983 0
M  V30 6973 H 644.423 -3.02584 2.19986 0
M  V30 6974 H 645.756 -3.99261 2.87839 0
M  V30 6975 N 647.408 -1.11026 -1.11852 0
M  V30 6976 C 648.654 -0.867633 -1.83967 0
M  V30 6977 C 649.009 0.600309 -1.82795 0
M  V30 6978 O 648.302 1.43731 -1.26696 0
M  V30 6979 C 648.496 -1.35777 -3.30604 0
M  V30 6980 C 648.325 -2.87183 -3.46058 0
M  V30 6981 C 647.095 -3.55256 -3.59334 0
M  V30 6982 C 649.293 -3.85258 -3.40706 0
M  V30 6983 N 647.275 -4.94923 -3.63215 0
M  V30 6984 C 648.646 -5.1097 -3.51155 0
M  V30 6985 C 650.701 -3.77879 -3.2421 0
M  V30 6986 C 649.404 -6.30171 -3.46809 0
M  V30 6987 C 651.43 -4.96586 -3.2118 0
M  V30 6988 C 650.792 -6.21149 -3.32196 0
M  V30 6989 H 646.891 -0.370574 -0.688621 0
M  V30 6990 H 649.475 -1.41379 -1.33865 0
M  V30 6991 H 647.646 -0.83885 -3.79233 0
M  V30 6992 H 649.378 -1.05874 -3.90606 0
M  V30 6993 H 646.133 -3.05714 -3.61713 0
M  V30 6994 H 646.557 -5.67726 -3.68804 0
M  V30 6995 H 651.199 -2.82485 -3.14582 0
M  V30 6996 H 648.917 -7.25847 -3.55206 0
M  V30 6997 H 652.503 -4.92591 -3.09589 0
M  V30 6998 H 651.383 -7.11463 -3.29834 0
M  V30 6999 N 648.886 1.2938 -0.899927 0
M  V30 7000 C 649.818 2.26737 -0.335139 0
M  V30 7001 C 650.831 1.54316 0.518681 0
M  V30 7002 O 652.02 1.75313 0.335803 0
M  V30 7003 C 649.12 3.34558 0.540774 0
M  V30 7004 C 648.293 4.36455 -0.287372 0
M  V30 7005 C 647.352 5.2361 0.52141 0
M  V30 7006 O 646.378 5.69167 -0.0611735 0
M  V30 7007 N 647.58 5.50985 1.82745 0
M  V30 7008 H 650.345 2.75838 -1.17191 0
M  V30 7009 H 647.906 1.42716 -0.764438 0
M  V30 7010 H 649.898 3.89794 1.08825 0
M  V30 7011 H 648.468 2.85272 1.27823 0
M  V30 7012 H 647.688 3.80875 -1.01626 0
M  V30 7013 H 648.976 5.01573 -0.854518 0
M  V30 7014 H 648.374 5.15781 2.32349 0
M  V30 7015 H 646.931 6.09036 2.32204 0
M  V30 7016 N 650.364 0.662433 1.43002 0
M  V30 7017 C 651.311 -0.0235324 2.30788 0
M  V30 7018 C 652.281 -0.805342 1.4527 0
M  V30 7019 O 653.466 -0.78009 1.74124 0
M  V30 7020 C 650.606 -0.977545 3.30965 0
M  V30 7021 C 649.719 -0.190865 4.31578 0
M  V30 7022 C 648.854 -1.13951 5.18834 0
M  V30 7023 C 647.893 -0.343796 6.11134 0
M  V30 7024 N 647.03 -1.2445 6.90982 0
M  V30 7025 H 651.87 0.730921 2.88897 0
M  V30 7026 H 649.407 0.372197 1.42313 0
M  V30 7027 H 651.365 -1.54437 3.87563 0
M  V30 7028 H 649.995 -1.69877 2.74484 0
M  V30 7029 H 649.047 0.492388 3.772 0
M  V30 7030 H 650.359 0.427464 4.96965 0
M  V30 7031 H 649.513 -1.77666 5.80103 0
M  V30 7032 H 648.252 -1.79174 4.53595 0
M  V30 7033 H 647.257 0.30665 5.48944 0
M  V30 7034 H 648.482 0.304161 6.78419 0
M  V30 7035 H 646.428 -1.88336 6.28383 0
M  V30 7036 H 646.345 -0.680959 7.52927 0
M  V30 7037 H 647.613 -1.86952 7.56749 0
M  V30 7038 N 651.842 -1.52309 0.404946 0
M  V30 7039 C 653.119 -1.94237 -0.230544 0
M  V30 7040 C 653.499 -1.34154 -1.6299 0
M  V30 7041 O 652.847 -0.515713 -2.22604 0
M  V30 7042 C 653.057 -3.48166 -0.241106 0
M  V30 7043 C 654.405 -4.22074 -0.462488 0
M  V30 7044 O 655.429 -3.54754 -0.320644 0
M  V30 7045 O 654.288 -5.41443 -0.741708 0
M  V30 7046 H 651.382 -0.813766 -0.147358 0
M  V30 7047 H 653.928 -1.6333 0.460587 0
M  V30 7048 H 652.7 -3.84269 0.738467 0
M  V30 7049 H 652.323 -3.85422 -0.97651 0
M  V30 7050 N 653.32 -0.135238 -1.57019 0
M  V30 7051 C 654.545 0.529343 -2.00531 0
M  V30 7052 C 654.97 1.58391 -1.01459 0
M  V30 7053 O 654.328 1.81296 0.0113986 0
M  V30 7054 C 654.376 1.11748 -3.42848 0
M  V30 7055 O 653.48 2.23267 -3.46736 0
M  V30 7056 H 652.821 0.130669 -0.651016 0
M  V30 7057 H 655.351 -0.228503 -2.0332 0
M  V30 7058 H 655.361 1.44905 -3.81401 0
M  V30 7059 H 654.036 0.345147 -4.14465 0
M  V30 7060 H 652.613 1.91428 -3.20015 0
M  V30 7061 N 654.798 1.5699 0.138552 0
M  V30 7062 C 656.023 1.88344 0.86841 0
M  V30 7063 C 656.448 0.725159 1.7356 0
M  V30 7064 O 655.806 -0.324992 1.78363 0
M  V30 7065 C 655.854 3.18334 1.69398 0
M  V30 7066 O 654.958 3.02863 2.79907 0
M  V30 7067 H 654.299 0.618577 0.241367 0
M  V30 7068 H 656.829 2.04207 0.126826 0
M  V30 7069 H 656.839 3.50567 2.08726 0
M  V30 7070 H 655.514 4.02238 1.05725 0
M  V30 7071 H 654.091 2.82056 2.43924 0
M  V30 7072 N 656.276 -0.40816 1.52223 0
M  V30 7073 C 657.522 -1.15347 1.67531 0
M  V30 7074 C 657.877 -1.8818 0.400748 0
M  V30 7075 O 657.17 -1.81803 -0.604845 0
M  V30 7076 C 657.364 -2.17422 2.83659 0
M  V30 7077 C 657.193 -1.54611 4.22286 0
M  V30 7078 C 655.963 -1.31841 4.87797 0
M  V30 7079 C 658.161 -1.00648 5.04355 0
M  V30 7080 N 656.143 -0.649338 6.10456 0
M  V30 7081 C 657.514 -0.464384 6.18258 0
M  V30 7082 C 659.569 -0.901041 4.89679 0
M  V30 7083 C 658.272 0.172825 7.19092 0
M  V30 7084 C 660.298 -0.277684 5.90748 0
M  V30 7085 C 659.66 0.253734 7.03943 0
M  V30 7086 H 655.759 -0.408722 0.666686 0
M  V30 7087 H 658.343 -0.445713 1.8953 0
M  V30 7088 H 656.514 -2.85554 2.63274 0
M  V30 7089 H 658.246 -2.84321 2.87999 0
M  V30 7090 H 655.001 -1.58819 4.46176 0
M  V30 7091 H 655.425 -0.3314 6.76188 0
M  V30 7092 H 660.067 -1.29772 4.02392 0
M  V30 7093 H 657.785 0.581564 8.06005 0
M  V30 7094 H 661.371 -0.197605 5.81464 0
M  V30 7095 H 660.251 0.728482 7.80809 0
M  V30 7096 N 657.755 -1.42862 -0.66545 0
M  V30 7097 C 659.003 -1.43546 -1.42264 0
M  V30 7098 C 659.324 -0.0563116 -1.94919 0
M  V30 7099 O 658.594 0.906568 -1.73661 0
M  V30 7100 H 657.174 -0.528464 -0.527953 0
M  V30 7101 H 659.836 -1.78363 -0.785665 0
M  V30 7102 H 658.932 -2.14079 -2.27105 0
M  V30 7103 N 659.233 0.902656 -1.29189 0
M  V30 7104 C 660.481 1.6496 -1.16758 0
M  V30 7105 C 660.802 1.92952 0.28188 0
M  V30 7106 O 660.072 1.55351 1.19344 0
M  V30 7107 H 658.652 0.611447 -0.429118 0
M  V30 7108 H 661.314 1.0825 -1.62074 0
M  V30 7109 H 660.41 2.60728 -1.71544 0
M  V30 7110 N 660.711 1.11618 1.11262 0
M  V30 7111 C 661.941 0.88745 1.86569 0
M  V30 7112 C 662.349 -0.56636 1.80524 0
M  V30 7113 O 661.692 -1.40289 1.18594 0
M  V30 7114 C 661.754 1.27313 3.36202 0
M  V30 7115 C 661.418 2.73649 3.66013 0
M  V30 7116 C 662.415 3.71863 3.63337 0
M  V30 7117 C 660.1 3.10342 3.9496 0
M  V30 7118 C 662.094 5.04788 3.89188 0
M  V30 7119 C 659.781 4.43451 4.20469 0
M  V30 7120 C 660.779 5.40484 4.17572 0
M  V30 7121 O 660.467 6.71195 4.42439 0
M  V30 7122 H 660.199 0.317543 0.596777 0
M  V30 7123 H 662.753 1.48768 1.41624 0
M  V30 7124 H 660.983 0.616062 3.81761 0
M  V30 7125 H 662.672 1.01991 3.92877 0
M  V30 7126 H 663.438 3.44861 3.41022 0
M  V30 7127 H 659.317 2.35431 3.9635 0
M  V30 7128 H 662.861 5.80516 3.86842 0
M  V30 7129 H 658.758 4.70187 4.42261 0
M  V30 7130 H 659.526 6.77012 4.59997 0
M  V30 7131 N 662.189 -1.289 0.906776 0
M  V30 7132 C 663.414 -1.99939 0.551303 0
M  V30 7133 C 663.839 -1.67366 -0.858496 0
M  V30 7134 O 663.197 -0.902176 -1.57259 0
M  V30 7135 C 663.245 -3.52523 0.758937 0
M  V30 7136 O 662.349 -4.11983 -0.185308 0
M  V30 7137 H 661.69 -0.628376 0.214568 0
M  V30 7138 H 664.22 -1.64225 1.2203 0
M  V30 7139 H 664.23 -4.02522 0.666329 0
M  V30 7140 H 662.905 -3.75566 1.78671 0
M  V30 7141 H 661.482 -3.72873 -0.0445577 0
M  V30 7142 N 663.667 -0.670007 -1.42649 0
M  V30 7143 C 664.913 -0.190568 -2.01903 0
M  V30 7144 C 665.246 1.19817 -1.52832 0
M  V30 7145 O 664.521 1.80342 -0.728485 0
M  V30 7146 C 664.804 -0.21991 -3.59428 0
M  V30 7147 C 664.657 -1.64376 -4.18689 0
M  V30 7148 C 665.976 0.434519 -4.3795 0
M  V30 7149 H 663.095 -0.0707219 -0.733599 0
M  V30 7150 H 665.737 -0.853883 -1.69732 0
M  V30 7151 H 663.887 0.344894 -3.86966 0
M  V30 7152 H 665.559 -2.26044 -4.02122 0
M  V30 7153 H 663.802 -2.18591 -3.747 0
M  V30 7154 H 664.473 -1.61601 -5.27815 0
M  V30 7155 H 666.949 -0.0462156 -4.16074 0
M  V30 7156 H 665.825 0.38333 -5.4756 0
M  V30 7157 H 666.086 1.51135 -4.15464 0
M  V30 7158 N 665.145 1.52092 -0.413018 0
M  V30 7159 C 666.373 2.06274 0.160881 0
M  V30 7160 C 666.788 1.28273 1.38533 0
M  V30 7161 O 666.145 0.33563 1.79387 0
M  V30 7162 C 666.196 3.57921 0.507443 0
M  V30 7163 O 665.917 4.32971 -0.668388 0
M  V30 7164 C 667.418 4.28533 1.13465 0
M  V30 7165 H 664.638 0.67074 0.0186759 0
M  V30 7166 H 667.182 1.95951 -0.585092 0
M  V30 7167 H 665.337 3.68238 1.20331 0
M  V30 7168 H 665.751 5.23135 -0.378169 0
M  V30 7169 H 667.225 5.35804 1.32732 0
M  V30 7170 H 667.702 3.85258 2.10886 0
M  V30 7171 H 668.308 4.22595 0.478876 0
M  V30 7172 N 666.623 0.143563 1.56945 0
M  V30 7173 C 668.039 -0.212877 1.58174 0
M  V30 7174 C 668.239 -1.64926 1.15766 0
M  V30 7175 O 667.295 -2.37535 0.856361 0
M  V30 7176 C 668.608 0.0427573 3.0067 0
M  V30 7177 C 670.156 -0.0212221 3.12993 0
M  V30 7178 C 670.631 0.207036 4.57532 0
M  V30 7179 N 672.122 0.153845 4.62944 0
M  V30 7180 C 672.857 0.305018 5.72588 0
M  V30 7181 N 672.353 0.513722 6.90893 0
M  V30 7182 N 674.146 0.242862 5.61575 0
M  V30 7183 H 666.297 1.08148 1.82805 0
M  V30 7184 H 668.56 0.427831 0.84597 0
M  V30 7185 H 668.266 1.03672 3.36073 0
M  V30 7186 H 668.14 -0.678195 3.71053 0
M  V30 7187 H 670.527 -1.00574 2.77433 0
M  V30 7188 H 670.608 0.732004 2.45103 0
M  V30 7189 H 670.252 1.18863 4.93795 0
M  V30 7190 H 670.182 -0.566473 5.23544 0
M  V30 7191 H 672.673 -0.00294866 3.779 0
M  V30 7192 H 672.986 0.619273 7.70315 0
M  V30 7193 H 671.331 0.550001 6.9282 0
M  V30 7194 H 674.522 0.0806015 4.68031 0
M  V30 7195 H 674.695 0.364112 6.46976 0
M  V30 7196 N 668.101 -1.57061 -0.130224 0
M  V30 7197 C 669.347 -1.8453 -0.841216 0
M  V30 7198 C 669.68 -0.727666 -1.80052 0
M  V30 7199 O 668.955 0.267419 -1.92653 0
M  V30 7200 C 669.238 -3.22553 -1.60099 0
M  V30 7201 C 669.091 -4.44901 -0.662048 0
M  V30 7202 C 670.41 -3.58003 -2.55973 0
M  V30 7203 H 667.529 -0.671215 -0.304366 0
M  V30 7204 H 670.171 -1.89705 -0.105821 0
M  V30 7205 H 668.321 -3.18272 -2.22789 0
M  V30 7206 H 669.993 -4.61278 -0.0448559 0
M  V30 7207 H 668.236 -4.33791 0.0272253 0
M  V30 7208 H 668.907 -5.3812 -1.23006 0
M  V30 7209 H 671.383 -3.63002 -2.03393 0
M  V30 7210 H 670.259 -4.55576 -3.06172 0
M  V30 7211 H 670.52 -2.84833 -3.38116 0
M  V30 7212 N 669.579 0.400081 -1.52437 0
M  V30 7213 C 670.804 1.17221 -1.71096 0
M  V30 7214 C 671.229 1.83269 -0.423565 0
M  V30 7215 O 670.587 1.70378 0.619751 0
M  V30 7216 C 670.635 2.20425 -2.85386 0
M  V30 7217 O 669.739 3.26769 -2.51586 0
M  V30 7218 H 669.08 0.341766 -0.569291 0
M  V30 7219 H 671.61 0.467772 -1.99181 0
M  V30 7220 H 671.62 2.64605 -3.10561 0
M  V30 7221 H 670.295 1.71737 -3.78786 0
M  V30 7222 H 668.872 2.87804 -2.37114 0
M  V30 7223 N 671.057 1.43213 0.657864 0
M  V30 7224 C 671.967 1.50448 1.80007 0
M  V30 7225 C 672.983 0.39191 1.69529 0
M  V30 7226 O 674.159 0.645349 1.90781 0
M  V30 7227 C 671.224 1.42062 3.16258 0
M  V30 7228 C 670.285 2.63951 3.38568 0
M  V30 7229 C 669.518 2.55956 4.68318 0
M  V30 7230 O 669.741 1.60473 5.47361 0
M  V30 7231 O 668.675 3.46378 4.92245 0
M  V30 7232 H 672.501 2.4689 1.76858 0
M  V30 7233 H 670.086 1.25163 0.81576 0
M  V30 7234 H 671.968 1.3981 3.97531 0
M  V30 7235 H 670.643 0.487524 3.20008 0
M  V30 7236 H 669.55 2.71776 2.57077 0
M  V30 7237 H 670.883 3.56217 3.39662 0
M  V30 7238 N 672.536 -0.895792 1.29666 0
M  V30 7239 C 673.952 -1.17726 1.07763 0
M  V30 7240 C 674.152 -2.00794 -0.168576 0
M  V30 7241 O 673.208 -2.37213 -0.865244 0
M  V30 7242 C 674.521 -1.89441 2.33522 0
M  V30 7243 C 676.069 -2.02251 2.3888 0
M  V30 7244 C 676.544 -2.77378 3.64452 0
M  V30 7245 N 678.035 -2.8493 3.65198 0
M  V30 7246 C 678.77 -3.43606 4.59045 0
M  V30 7247 N 678.266 -4.03417 5.63228 0
M  V30 7248 N 680.059 -3.41317 4.46608 0
M  V30 7249 H 672.21 -0.341652 2.09634 0
M  V30 7250 H 674.473 -0.213865 0.923561 0
M  V30 7251 H 674.179 -1.35842 3.24407 0
M  V30 7252 H 674.053 -2.89893 2.41334 0
M  V30 7253 H 676.44 -2.55025 1.4848 0
M  V30 7254 H 676.521 -1.0092 2.3505 0
M  V30 7255 H 676.165 -2.25279 4.55205 0
M  V30 7256 H 676.095 -3.79062 3.65541 0
M  V30 7257 H 678.586 -2.42453 2.89871 0
M  V30 7258 H 678.899 -4.46224 6.30955 0
M  V30 7259 H 677.244 -4.01868 5.67033 0
M  V30 7260 H 680.435 -2.93812 3.64407 0
M  V30 7261 H 680.608 -3.86751 5.1993 0
M  V30 7262 N 674.014 -1.12206 -1.10668 0
M  V30 7263 C 674.944 -0.810086 -2.18997 0
M  V30 7264 C 675.925 0.225065 -1.68604 0
M  V30 7265 O 677.11 0.086783 -1.94006 0
M  V30 7266 C 674.24 -0.261262 -3.46316 0
M  V30 7267 C 673.194 -1.2292 -4.09969 0
M  V30 7268 C 672.52 -0.540713 -5.31959 0
M  V30 7269 C 673.82 -2.58295 -4.53962 0
M  V30 7270 H 675.514 -1.7159 -2.45352 0
M  V30 7271 H 673.06 -0.82646 -1.17922 0
M  V30 7272 H 675.013 -0.0307522 -4.21389 0
M  V30 7273 H 673.737 0.679879 -3.19445 0
M  V30 7274 H 672.396 -1.44548 -3.369 0
M  V30 7275 H 672.044 0.405492 -5.01363 0
M  V30 7276 H 671.744 -1.18637 -5.75499 0
M  V30 7277 H 673.268 -0.319184 -6.09765 0
M  V30 7278 H 674.682 -2.40709 -5.20319 0
M  V30 7279 H 673.079 -3.18916 -5.08343 0
M  V30 7280 H 674.149 -3.16918 -3.67002 0
M  V30 7281 N 675.492 1.28418 -0.913599 0
M  V30 7282 C 676.424 2.26368 -0.359169 0
M  V30 7283 C 677.437 1.54858 0.502285 0
M  V30 7284 O 678.626 1.75659 0.31719 0
M  V30 7285 C 675.726 3.35112 0.50526 0
M  V30 7286 C 674.899 4.36126 -0.333648 0
M  V30 7287 C 673.958 5.24134 0.465845 0
M  V30 7288 O 672.984 5.6907 -0.121538 0
M  V30 7289 N 674.186 5.52892 1.76891 0
M  V30 7290 H 676.951 2.74579 -1.2011 0
M  V30 7291 H 674.512 1.41898 -0.779532 0
M  V30 7292 H 676.504 3.90926 1.04684 0
M  V30 7293 H 675.074 2.86611 1.2479 0
M  V30 7294 H 674.294 3.79776 -1.0566 0
M  V30 7295 H 675.582 5.00638 -0.907669 0
M  V30 7296 H 674.98 5.18217 2.26865 0
M  V30 7297 H 673.537 6.11464 2.25732 0
M  V30 7298 N 676.97 0.677563 1.42291 0
M  V30 7299 C 677.902 -0.0380218 2.29168 0
M  V30 7300 C 678.915 -0.762714 1.43828 0
M  V30 7301 O 680.104 -0.616413 1.67519 0
M  V30 7302 C 677.204 -1.07761 3.21311 0
M  V30 7303 C 676.377 -0.42618 4.35319 0
M  V30 7304 C 675.436 -1.36592 5.08162 0
M  V30 7305 O 674.462 -0.865174 5.62586 0
M  V30 7306 N 675.664 -2.69909 5.13935 0
M  V30 7307 H 678.429 0.707766 2.91223 0
M  V30 7308 H 675.99 0.52219 1.53247 0
M  V30 7309 H 677.982 -1.70761 3.6691 0
M  V30 7310 H 676.552 -1.72511 2.60689 0
M  V30 7311 H 675.772 0.383385 3.92331 0
M  V30 7312 H 677.06 0.0275277 5.08793 0
M  V30 7313 H 676.458 -3.13129 4.71134 0
M  V30 7314 H 675.015 -3.2815 5.6317 0
M  V30 7315 N 678.448 -1.51871 0.421078 0
M  V30 7316 C 679.694 -2.02237 -0.151014 0
M  V30 7317 C 680.027 -1.30554 -1.43768 0
M  V30 7318 O 679.302 -0.41546 -1.90011 0
M  V30 7319 C 679.585 -3.5802 -0.386482 0
M  V30 7320 C 679.438 -4.40339 0.9177 0
M  V30 7321 C 680.757 -4.24444 -1.16342 0
M  V30 7322 H 677.876 -0.735062 -0.0534102 0
M  V30 7323 H 680.518 -1.81656 0.556888 0
M  V30 7324 H 678.668 -3.75688 -0.989494 0
M  V30 7325 H 680.34 -4.34357 1.55344 0
M  V30 7326 H 678.583 -4.06073 1.526 0
M  V30 7327 H 679.254 -5.47451 0.707187 0
M  V30 7328 H 681.73 -4.10948 -0.652788 0
M  V30 7329 H 680.606 -5.33358 -1.29693 0
M  V30 7330 H 680.867 -3.84204 -2.18724 0
M  V30 7331 N 679.926 -0.151884 -1.56866 0
M  V30 7332 C 681.203 0.543328 -1.87902 0
M  V30 7333 C 681.583 1.82636 -1.05864 0
M  V30 7334 O 680.931 2.28028 -0.146868 0
M  V30 7335 C 681.141 0.804056 -3.39611 0
M  V30 7336 C 682.489 1.14267 -4.08935 0
M  V30 7337 O 683.513 0.893248 -3.44818 0
M  V30 7338 O 682.372 1.61229 -5.22176 0
M  V30 7339 H 679.466 0.277724 -0.778973 0
M  V30 7340 H 682.012 -0.188862 -1.68646 0
M  V30 7341 H 680.784 -0.103772 -3.91162 0
M  V30 7342 H 680.407 1.59025 -3.64413 0
M  V30 7343 N 681.404 1.57128 0.121893 0
M  V30 7344 C 682.334 2.03165 1.15092 0
M  V30 7345 C 683.315 0.915587 1.43356 0
M  V30 7346 O 684.5 1.1851 1.53847 0
M  V30 7347 C 681.63 2.43352 2.47784 0
M  V30 7348 C 680.584 3.58376 2.33989 0
M  V30 7349 C 679.91 3.84454 3.71617 0
M  V30 7350 C 681.21 4.90199 1.80283 0
M  V30 7351 H 682.904 2.89382 0.768023 0
M  V30 7352 H 680.45 1.39218 0.367998 0
M  V30 7353 H 682.403 2.74163 3.20019 0
M  V30 7354 H 681.127 1.54103 2.87958 0
M  V30 7355 H 679.786 3.2777 1.64202 0
M  V30 7356 H 679.434 2.92414 4.09271 0
M  V30 7357 H 679.134 4.61877 3.6324 0
M  V30 7358 H 680.658 4.17714 4.45362 0
M  V30 7359 H 682.072 5.19565 2.42333 0
M  V30 7360 H 680.469 5.71601 1.82735 0
M  V30 7361 H 681.539 4.78904 0.760184 0
M  V30 7362 N 682.882 -0.391992 1.52647 0
M  V30 7363 C 683.792 -1.503 1.80131 0
M  V30 7364 C 684.808 -1.59825 0.687882 0
M  V30 7365 O 685.984 -1.76218 0.975149 0
M  V30 7366 C 683.049 -2.85863 1.96171 0
M  V30 7367 C 682.11 -2.86084 3.20085 0
M  V30 7368 C 681.343 -4.15181 3.35351 0
M  V30 7369 O 681.566 -5.09981 2.55491 0
M  V30 7370 O 680.5 -4.22603 4.28591 0
M  V30 7371 H 684.326 -1.30007 2.74466 0
M  V30 7372 H 681.911 -0.579539 1.37701 0
M  V30 7373 H 683.793 -3.66236 2.08445 0
M  V30 7374 H 682.468 -3.06189 1.05025 0
M  V30 7375 H 681.375 -2.04504 3.13256 0
M  V30 7376 H 682.708 -2.7071 4.11068 0
M  V30 7377 N 684.36 -1.4356 -0.65026 0
M  V30 7378 C 685.308 -1.49219 -1.78427 0
M  V30 7379 C 686.302 -0.365528 -1.65409 0
M  V30 7380 O 687.508 -0.539649 -1.7172 0
M  V30 7381 H 683.883 -0.467858 -0.588738 0
M  V30 7382 H 685.854 -2.44701 -1.70774 0
M  V30 7383 C 684.603 -1.43519 -3.16698 0
M  V30 7384 H 683.926 -2.2952 -3.27354 0
M  V30 7385 H 685.366 -1.5154 -3.95995 0
M  V30 7386 C 683.825 -0.153197 -3.36552 0
M  V30 7387 O 684.355 0.784317 -3.93969 0
M  V30 7388 N 682.561 -0.0624402 -2.90533 0
M  V30 7389 H 682.108 -0.826172 -2.43992 0
M  V30 7390 H 682.066 0.794616 -3.04193 0
M  V30 7391 N 685.838 0.888903 -1.30139 0
M  V30 7392 C 686.801 1.97576 -1.16174 0
M  V30 7393 C 687.801 1.60525 -0.094086 0
M  V30 7394 O 688.991 1.70812 -0.341889 0
M  V30 7395 C 686.123 3.3188 -0.778983 0
M  V30 7396 H 687.316 2.11393 -2.12728 0
M  V30 7397 H 684.869 1.0748 -1.1348 0
M  V30 7398 H 685.604 3.23765 0.186225 0
M  V30 7399 H 685.389 3.60141 -1.55051 0
M  V30 7400 H 686.879 4.11612 -0.704631 0
M  V30 7401 N 687.317 1.12792 1.10072 0
M  V30 7402 C 688.247 0.821688 2.18565 0
M  V30 7403 C 689.228 -0.21612 1.68721 0
M  V30 7404 O 690.413 -0.0764932 1.94049 0
M  V30 7405 C 687.543 0.279624 3.46172 0
M  V30 7406 C 686.497 1.25092 4.09312 0
M  V30 7407 C 685.823 0.568916 5.31665 0
M  V30 7408 C 687.123 2.60699 4.52585 0
M  V30 7409 H 688.817 1.72888 2.44438 0
M  V30 7410 H 686.363 0.832702 1.17482 0
M  V30 7411 H 688.316 0.053099 4.21367 0
M  V30 7412 H 687.04 -0.662929 3.19801 0
M  V30 7413 H 685.699 1.46332 3.36129 0
M  V30 7414 H 685.347 -0.378898 5.01571 0
M  V30 7415 H 685.047 1.21687 5.74862 0
M  V30 7416 H 686.571 0.351517 6.09587 0
M  V30 7417 H 687.985 2.43465 5.19035 0
M  V30 7418 H 686.382 3.21608 5.06644 0
M  V30 7419 H 687.452 3.1886 3.65317 0
M  V30 7420 N 688.795 -1.27931 0.920396 0
M  V30 7421 C 690.044 -1.93975 0.552867 0
M  V30 7422 C 690.357 -1.73193 -0.909035 0
M  V30 7423 O 691.563 -2.33515 -1.38502 0
M  V30 7424 C 690.019 -3.47463 0.937947 0
M  V30 7425 C 689.627 -3.77013 2.42003 0
M  V30 7426 C 691.371 -4.19628 0.64132 0
M  V30 7427 C 689.278 -5.23841 2.74489 0
M  V30 7428 H 688.208 -0.726146 0.203046 0
M  V30 7429 H 690.859 -1.45339 1.12022 0
M  V30 7430 H 689.241 -3.94867 0.299317 0
M  V30 7431 H 690.415 -3.40393 3.10595 0
M  V30 7432 H 688.73 -3.18035 2.6878 0
M  V30 7433 H 691.327 -5.27729 0.860622 0
M  V30 7434 H 691.67 -4.14164 -0.421168 0
M  V30 7435 H 692.203 -3.78022 1.23872 0
M  V30 7436 H 688.942 -5.34388 3.79618 0
M  V30 7437 H 688.462 -5.61634 2.1054 0
M  V30 7438 H 690.141 -5.91647 2.61845 0
M  V30 7439 N 690.273 -0.685099 -1.4193 0
M  V30 7440 C 691.501 -0.220372 -2.05723 0
M  V30 7441 C 691.916 1.12642 -1.51516 0
M  V30 7442 O 691.273 1.70182 -0.659114 0
M  V30 7443 C 691.324 -0.157974 -3.61155 0
M  V30 7444 O 691.045 -1.45156 -4.13354 0
M  V30 7445 C 692.546 0.329009 -4.42077 0
M  V30 7446 H 689.766 -0.104725 -0.662777 0
M  V30 7447 H 692.31 -0.934736 -1.81887 0
M  V30 7448 H 690.465 0.507144 -3.84066 0
M  V30 7449 H 690.879 -1.33172 -5.07312 0
M  V30 7450 H 692.353 0.321559 -5.51063 0
M  V30 7451 H 692.83 1.36608 -4.17414 0
M  V30 7452 H 693.436 -0.304737 -4.24207 0
M  V30 7453 N 691.751 1.51645 -0.429126 0
M  V30 7454 C 692.976 2.06917 0.141399 0
M  V30 7455 C 693.401 1.29527 1.36398 0
M  V30 7456 O 692.759 0.33094 1.78254 0
M  V30 7457 C 692.807 3.57776 0.4504 0
M  V30 7458 O 691.911 3.82639 1.53821 0
M  V30 7459 H 691.252 0.663978 0.0054647 0
M  V30 7460 H 693.782 1.95355 -0.608093 0
M  V30 7461 H 693.792 4.01894 0.703249 0
M  V30 7462 H 692.467 4.13532 -0.443213 0
M  V30 7463 H 691.044 3.5039 1.27597 0
M  V30 7464 N 693.229 0.160201 1.56784 0
M  V30 7465 C 694.506 -0.533355 1.88188 0
M  V30 7466 C 694.886 -1.82072 1.06831 0
M  V30 7467 O 694.234 -2.27946 0.158959 0
M  V30 7468 C 694.444 -0.786034 3.40033 0
M  V30 7469 C 695.792 -1.12097 4.09536 0
M  V30 7470 O 696.816 -0.874949 3.45287 0
M  V30 7471 O 695.675 -1.58457 5.23023 0
M  V30 7472 H 692.769 -0.273589 0.780434 0
M  V30 7473 H 695.315 0.197803 1.68543 0
M  V30 7474 H 694.087 0.124515 3.91102 0
M  V30 7475 H 693.71 -1.57091 3.65251 0
M  V30 7476 N 694.707 -1.5719 -0.113559 0
M  V30 7477 C 695.655 -2.01725 -1.158 0
M  V30 7478 C 696.649 -0.915105 -1.42556 0
M  V30 7479 O 697.855 -1.10031 -1.42454 0
M  V30 7480 H 694.23 -0.64262 -0.390569 0
M  V30 7481 H 696.201 -2.88666 -0.755926 0
M  V30 7482 C 694.95 -2.44203 -2.47507 0
M  V30 7483 H 694.273 -3.28582 -2.27758 0
M  V30 7484 H 695.713 -2.79158 -3.19135 0
M  V30 7485 C 694.172 -1.30785 -3.10478 0
M  V30 7486 O 694.702 -0.626807 -3.9678 0
M  V30 7487 N 692.908 -1.06352 -2.7044 0
M  V30 7488 H 692.455 -1.61913 -2.00355 0
M  V30 7489 H 692.413 -0.306614 -3.12901 0
M  V30 7490 N 696.185 0.383891 -1.52853 0
M  V30 7491 C 697.434 1.12563 -1.67369 0
M  V30 7492 C 697.747 1.90982 -0.422533 0
M  V30 7493 O 698.953 2.6778 -0.447914 0
M  V30 7494 C 697.409 2.05011 -2.95801 0
M  V30 7495 C 697.017 1.31991 -4.28115 0
M  V30 7496 C 698.761 2.79289 -3.19684 0
M  V30 7497 C 696.668 2.23235 -5.4765 0
M  V30 7498 H 695.598 0.42391 -0.623552 0
M  V30 7499 H 698.249 0.388016 -1.79351 0
M  V30 7500 H 696.631 2.82429 -2.77578 0
M  V30 7501 H 697.805 0.597633 -4.56908 0
M  V30 7502 H 696.12 0.696517 -4.10533 0
M  V30 7503 H 698.717 3.47749 -4.06171 0
M  V30 7504 H 699.06 3.43649 -2.3497 0
M  V30 7505 H 699.593 2.08962 -3.38496 0
M  V30 7506 H 696.332 1.63482 -6.34786 0
M  V30 7507 H 695.852 2.93364 -5.23161 0
M  V30 7508 H 697.531 2.83205 -5.81725 0
M  V30 7509 N 697.663 1.43903 0.642637 0
M  V30 7510 C 698.893 1.49323 1.4278 0
M  V30 7511 C 699.301 0.113058 1.88862 0
M  V30 7512 O 698.644 -0.889089 1.60751 0
M  V30 7513 C 698.706 2.3861 2.68897 0
M  V30 7514 C 698.37 3.85976 2.44687 0
M  V30 7515 C 699.367 4.7681 2.07239 0
M  V30 7516 C 697.052 4.30567 2.58683 0
M  V30 7517 C 699.046 6.10234 1.841 0
M  V30 7518 C 696.733 5.64042 2.35159 0
M  V30 7519 C 697.731 6.53693 1.97925 0
M  V30 7520 O 697.419 7.84698 1.74654 0
M  V30 7521 H 697.151 0.509109 0.444729 0
M  V30 7522 H 699.705 1.89425 0.794195 0
M  V30 7523 H 697.935 1.93415 3.34855 0
M  V30 7524 H 699.624 2.35112 3.30873 0
M  V30 7525 H 700.39 4.43635 1.95993 0
M  V30 7526 H 696.269 3.61054 2.86637 0
M  V30 7527 H 699.813 6.80171 1.54962 0
M  V30 7528 H 695.71 5.96782 2.46011 0
M  V30 7529 H 696.478 7.96382 1.88993 0
M  V30 7530 N 699.141 -0.881989 1.30609 0
M  V30 7531 C 700.388 -1.63405 1.19604 0
M  V30 7532 C 700.716 -1.92905 -0.248574 0
M  V30 7533 O 699.971 -1.55062 -1.19391 0
M  V30 7534 C 700.27 -2.97999 1.97311 0
M  V30 7535 C 699.936 -2.88039 3.46907 0
M  V30 7536 C 698.598 -2.85029 3.877 0
M  V30 7537 C 700.95 -2.75948 4.42156 0
M  V30 7538 C 698.278 -2.67772 5.2203 0
M  V30 7539 C 700.63 -2.60228 5.76597 0
M  V30 7540 C 699.294 -2.55595 6.16626 0
M  V30 7541 H 698.564 -0.597941 0.437662 0
M  V30 7542 H 701.211 -1.02524 1.61744 0
M  V30 7543 H 699.516 -3.62847 1.47815 0
M  V30 7544 H 701.213 -3.55156 1.86186 0
M  V30 7545 H 697.803 -2.91192 3.14492 0
M  V30 7546 H 701.987 -2.77337 4.1158 0
M  V30 7547 H 697.243 -2.62601 5.52133 0
M  V30 7548 H 701.417 -2.49847 6.50038 0
M  V30 7549 H 699.044 -2.41981 7.20659 0
M  V30 7550 N 700.619 -1.13374 -1.09472 0
M  V30 7551 C 701.582 -0.813639 -2.14272 0
M  V30 7552 C 702.582 0.176677 -1.59826 0
M  V30 7553 O 703.772 -0.0503441 -1.74127 0
M  V30 7554 C 700.904 -0.210897 -3.40247 0
M  V30 7555 H 702.097 -1.74229 -2.44099 0
M  V30 7556 H 699.65 -0.938304 -1.25002 0
M  V30 7557 H 700.385 0.726998 -3.16046 0
M  V30 7558 H 700.17 -0.924048 -3.81056 0
M  V30 7559 H 701.66 -0.00377603 -4.176 0
M  V30 7560 N 702.098 1.27442 -0.927168 0
M  V30 7561 C 703.03 2.25975 -0.383158 0
M  V30 7562 C 704.043 1.55382 0.485832 0
M  V30 7563 O 705.232 1.75986 0.298541 0
M  V30 7564 C 702.332 3.35629 0.469688 0
M  V30 7565 C 701.505 4.35747 -0.379886 0
M  V30 7566 C 700.564 5.24598 0.410227 0
M  V30 7567 O 699.59 5.68909 -0.181888 0
M  V30 7568 N 700.792 5.54737 1.71017 0
M  V30 7569 H 703.557 2.7329 -1.23015 0
M  V30 7570 H 701.118 1.41063 -0.794539 0
M  V30 7571 H 703.11 3.92015 1.00532 0
M  V30 7572 H 701.68 2.87919 1.21744 0
M  V30 7573 H 700.9 3.78634 -1.09682 0
M  V30 7574 H 702.188 4.99648 -0.960717 0
M  V30 7575 H 701.586 5.20594 2.21356 0
M  V30 7576 H 700.143 6.13824 2.19234 0
M  V30 7577 N 703.576 0.692616 1.41565 0
M  V30 7578 C 704.524 0.0139952 2.32596 0
M  V30 7579 C 705.518 -0.771691 1.50802 0
M  V30 7580 O 706.724 -0.677646 1.66757 0
M  V30 7581 H 703.099 -0.0142745 0.751865 0
M  V30 7582 H 705.07 0.798851 2.87508 0
M  V30 7583 C 703.819 -0.910602 3.35564 0
M  V30 7584 H 703.142 -0.315446 3.98554 0
M  V30 7585 H 704.582 -1.3538 4.01806 0
M  V30 7586 C 703.041 -2.02539 2.6922 0
M  V30 7587 O 703.571 -3.11386 2.53775 0
M  V30 7588 N 701.777 -1.80227 2.27962 0
M  V30 7589 H 701.324 -0.917054 2.40724 0
M  V30 7590 H 701.282 -2.55001 1.83907 0
M  V30 7591 N 705.054 -1.51416 0.437162 0
M  V30 7592 C 706.017 -2.26312 -0.362729 0
M  V30 7593 C 707.017 -1.29748 -0.949847 0
M  V30 7594 O 708.207 -1.53462 -0.824325 0
M  V30 7595 C 705.339 -3.05475 -1.5132 0
M  V30 7596 H 706.532 -2.98459 0.29365 0
M  V30 7597 H 704.085 -1.55137 0.190327 0
M  V30 7598 H 704.82 -2.37744 -2.20563 0
M  V30 7599 H 704.605 -3.76401 -1.09838 0
M  V30 7600 H 706.095 -3.62209 -2.07833 0
M  V30 7601 N 706.532 -0.168513 -1.56696 0
M  V30 7602 C 707.462 0.758563 -2.20835 0
M  V30 7603 C 708.443 1.24121 -1.1631 0
M  V30 7604 O 709.628 1.29487 -1.4473 0
M  V30 7605 C 706.758 1.9892 -2.8469 0
M  V30 7606 C 705.712 1.64252 -3.95228 0
M  V30 7607 C 705.038 2.94757 -4.46119 0
M  V30 7608 C 706.338 0.872675 -5.14958 0
M  V30 7609 H 708.032 0.223953 -2.98561 0
M  V30 7610 H 705.578 0.106277 -1.43607 0
M  V30 7611 H 707.531 2.64275 -3.28233 0
M  V30 7612 H 706.255 2.5479 -2.04327 0
M  V30 7613 H 704.914 1.01266 -3.52336 0
M  V30 7614 H 704.562 3.48662 -3.62552 0
M  V30 7615 H 704.262 2.72316 -5.2069 0
M  V30 7616 H 705.786 3.61147 -4.92347 0
M  V30 7617 H 707.2 1.42875 -5.55211 0
M  V30 7618 H 705.597 0.747402 -5.95428 0
M  V30 7619 H 706.667 -0.131535 -4.84722 0
M  V30 7620 N 708.01 1.57248 0.105221 0
M  V30 7621 C 709.287 1.76566 0.841647 0
M  V30 7622 C 709.667 0.747566 1.9742 0
M  V30 7623 O 709.015 -0.225886 2.27381 0
M  V30 7624 C 709.225 3.22016 1.3456 0
M  V30 7625 C 710.573 3.84911 1.79244 0
M  V30 7626 O 711.597 3.25703 1.44207 0
M  V30 7627 O 710.456 4.89008 2.43995 0
M  V30 7628 H 707.55 0.723443 0.400698 0
M  V30 7629 H 710.096 1.69472 0.0878893 0
M  V30 7630 H 708.868 3.87644 0.533685 0
M  V30 7631 H 708.491 3.33703 2.16167 0
M  V30 7632 N 709.488 -0.375779 1.53054 0
M  V30 7633 C 710.421 -1.48187 1.7354 0
M  V30 7634 C 711.399 -1.5177 0.583495 0
M  V30 7635 O 712.583 -1.69976 0.81488 0
M  V30 7636 C 709.71 -2.86598 1.80497 0
M  V30 7637 C 708.756 -3.00784 3.02376 0
M  V30 7638 S 709.589 -2.70601 4.62099 0
M  V30 7639 C 710.745 -4.11181 4.71891 0
M  V30 7640 H 710.978 -1.30587 2.67085 0
M  V30 7641 H 708.511 -0.569485 1.43514 0
M  V30 7642 H 710.469 -3.66353 1.85192 0
M  V30 7643 H 709.13 -3.01514 0.880217 0
M  V30 7644 H 708.323 -4.02128 3.03824 0
M  V30 7645 H 707.925 -2.28939 2.95742 0
M  V30 7646 H 710.217 -5.0529 4.51319 0
M  V30 7647 H 711.16 -4.14742 5.73929 0
M  V30 7648 H 711.568 -3.97706 4.00612 0
M  V30 7649 N 710.966 -1.44241 -0.634997 0
M  V30 7650 C 712.214 -1.46531 -1.39187 0
M  V30 7651 C 712.535 -0.0976441 -1.94755 0
M  V30 7652 O 711.805 0.869528 -1.75545 0
M  V30 7653 H 710.385 -0.539544 -0.516625 0
M  V30 7654 H 713.047 -1.79989 -0.747655 0
M  V30 7655 H 712.143 -2.18848 -2.22513 0
M  V30 7656 N 712.444 0.87505 -1.31075 0
M  V30 7657 C 713.407 1.96333 -1.18263 0
M  V30 7658 C 714.407 1.60416 -0.111106 0
M  V30 7659 O 715.597 1.7044 -0.359987 0
M  V30 7660 C 712.729 3.31036 -0.81414 0
M  V30 7661 H 713.922 2.09125 -2.14958 0
M  V30 7662 H 711.475 1.06271 -1.14614 0
M  V30 7663 H 712.21 3.23944 0.151875 0
M  V30 7664 H 711.995 3.58476 -1.58862 0
M  V30 7665 H 713.485 4.10842 -0.748249 0
M  V30 7666 N 713.922 1.13953 1.08869 0
M  V30 7667 C 715.199 0.815768 1.77777 0
M  V30 7668 C 715.579 -0.691624 1.99449 0
M  V30 7669 O 714.927 -1.63085 1.60049 0
M  V30 7670 C 715.137 1.60916 3.09689 0
M  V30 7671 C 716.485 1.80549 3.84301 0
M  V30 7672 O 717.509 1.57562 3.19457 0
M  V30 7673 O 716.368 2.18946 5.00724 0
M  V30 7674 H 713.462 0.298445 0.771271 0
M  V30 7675 H 716.008 1.24446 1.15374 0
M  V30 7676 H 714.78 2.6333 2.89435 0
M  V30 7677 H 714.403 1.17578 3.79817 0
M  V30 7678 N 715.4 -1.26948 0.933913 0
M  V30 7679 C 716.628 -1.98186 0.59414 0
M  V30 7680 C 717.043 -1.69614 -0.829257 0
M  V30 7681 O 716.4 -0.960213 -1.55197 0
M  V30 7682 C 716.451 -3.52123 0.818026 0
M  V30 7683 O 716.172 -3.79698 2.18543 0
M  V30 7684 C 717.673 -4.40608 0.48781 0
M  V30 7685 H 714.893 -0.632305 0.224569 0
M  V30 7686 H 717.437 -1.61646 1.25263 0
M  V30 7687 H 715.592 -3.86851 0.206246 0
M  V30 7688 H 716.006 -4.7426 2.24005 0
M  V30 7689 H 717.48 -5.47606 0.695126 0
M  V30 7690 H 717.957 -4.35394 -0.576913 0
M  V30 7691 H 718.563 -4.11411 1.078 0
M  V30 7692 N 716.879 -0.700114 -1.41195 0
M  V30 7693 C 718.126 -0.233006 -2.01155 0
M  V30 7694 C 718.454 1.16883 -1.55462 0
M  V30 7695 O 717.709 1.80395 -0.758695 0
M  V30 7696 C 718.008 -0.243986 -3.56566 0
M  V30 7697 C 717.674 -1.59397 -4.21786 0
M  V30 7698 C 716.336 -1.96355 -4.39316 0
M  V30 7699 C 718.688 -2.48192 -4.58312 0
M  V30 7700 C 716.016 -3.21683 -4.9065 0
M  V30 7701 C 718.368 -3.72857 -5.11039 0
M  V30 7702 C 717.032 -4.09951 -5.26779 0
M  V30 7703 H 716.302 -0.085263 -0.736078 0
M  V30 7704 H 718.949 -0.9001 -1.69028 0
M  V30 7705 H 717.254 0.506663 -3.8851 0
M  V30 7706 H 718.951 0.135031 -4.00773 0
M  V30 7707 H 715.541 -1.29654 -4.08519 0
M  V30 7708 H 719.725 -2.20918 -4.4442 0
M  V30 7709 H 714.981 -3.50412 -5.01021 0
M  V30 7710 H 719.155 -4.41844 -5.38282 0
M  V30 7711 H 716.782 -5.07136 -5.66319 0
M  V30 7712 N 718.357 1.51182 -0.445186 0
M  V30 7713 C 719.585 2.06568 0.117091 0
M  V30 7714 C 720 1.31182 1.35781 0
M  V30 7715 O 719.357 0.373605 1.78635 0
M  V30 7716 C 719.408 3.58917 0.431408 0
M  V30 7717 O 719.129 4.31456 -0.760078 0
M  V30 7718 C 720.63 4.30843 1.0435 0
M  V30 7719 H 717.85 0.670985 0.00444436 0
M  V30 7720 H 720.394 1.94666 -0.626525 0
M  V30 7721 H 718.549 3.70708 1.12493 0
M  V30 7722 H 718.963 5.22215 -0.489048 0
M  V30 7723 H 720.437 5.38499 1.21337 0
M  V30 7724 H 720.914 3.89644 2.02667 0
M  V30 7725 H 721.52 4.23516 0.38913 0
M  V30 7726 N 719.835 0.176821 1.56605 0
M  V30 7727 C 720.782 -0.751312 2.18229 0
M  V30 7728 C 721.752 -1.22297 1.12395 0
M  V30 7729 O 722.937 -1.29015 1.40569 0
M  V30 7730 C 720.077 -1.97291 2.83143 0
M  V30 7731 C 719.19 -1.54431 4.03454 0
M  V30 7732 C 718.325 -2.72 4.56278 0
M  V30 7733 C 717.364 -2.25657 5.68986 0
M  V30 7734 N 716.501 -3.36338 6.16296 0
M  V30 7735 H 721.341 -0.219033 2.97194 0
M  V30 7736 H 718.878 -0.0963803 1.46784 0
M  V30 7737 H 720.836 -2.68949 3.1894 0
M  V30 7738 H 719.466 -2.4788 2.06773 0
M  V30 7739 H 718.518 -0.724273 3.73441 0
M  V30 7740 H 719.83 -1.16417 4.85024 0
M  V30 7741 H 718.984 -3.51806 4.94285 0
M  V30 7742 H 717.723 -3.13277 3.73777 0
M  V30 7743 H 716.728 -1.44299 5.30526 0
M  V30 7744 H 717.953 -1.85432 6.53293 0
M  V30 7745 H 715.899 -3.7718 5.36723 0
M  V30 7746 H 715.816 -3.02435 6.9287 0
M  V30 7747 H 717.084 -4.16413 6.58954 0
M  V30 7748 N 721.313 -1.57302 -0.09688 0
M  V30 7749 C 722.561 -1.8563 -0.799117 0
M  V30 7750 C 722.882 -0.765263 -1.79356 0
M  V30 7751 O 722.152 0.208657 -1.94786 0
M  V30 7752 H 720.732 -0.684937 -0.298111 0
M  V30 7753 H 723.394 -1.9474 -0.0789341 0
M  V30 7754 H 722.49 -2.82305 -1.3308 0
M  V30 7755 N 722.791 0.367657 -1.53252 0
M  V30 7756 C 723.721 1.45632 -1.8252 0
M  V30 7757 C 724.702 1.55979 -0.678568 0
M  V30 7758 O 725.887 1.70581 -0.928217 0
M  V30 7759 C 723.017 2.82994 -2.01325 0
M  V30 7760 C 721.971 2.87473 -3.17086 0
M  V30 7761 C 721.297 4.2749 -3.21179 0
M  V30 7762 C 722.597 2.55182 -4.55719 0
M  V30 7763 H 724.291 1.21387 -2.73689 0
M  V30 7764 H 721.837 0.58251 -1.31692 0
M  V30 7765 H 723.79 3.59179 -2.20383 0
M  V30 7766 H 722.514 3.08622 -1.06864 0
M  V30 7767 H 721.173 2.13739 -2.97844 0
M  V30 7768 H 720.821 4.5019 -2.24361 0
M  V30 7769 H 720.521 4.31403 -3.98955 0
M  V30 7770 H 722.045 5.0555 -3.42419 0
M  V30 7771 H 723.459 3.21081 -4.74953 0
M  V30 7772 H 721.856 2.70414 -5.3572 0
M  V30 7773 H 722.926 1.5044 -4.60973 0
M  V30 7774 N 724.269 1.44576 0.627338 0
M  V30 7775 C 725.216 1.51734 1.73912 0
M  V30 7776 C 726.186 0.364745 1.62046 0
M  V30 7777 O 727.371 0.575503 1.81914 0
M  V30 7778 C 724.511 1.47116 3.12171 0
M  V30 7779 C 723.624 2.72778 3.34986 0
M  V30 7780 C 722.759 2.59968 4.63239 0
M  V30 7781 C 721.798 3.80776 4.79245 0
M  V30 7782 N 720.935 3.66618 5.98778 0
M  V30 7783 H 725.775 2.46722 1.6713 0
M  V30 7784 H 723.312 1.22444 0.815224 0
M  V30 7785 H 725.27 1.42429 3.92135 0
M  V30 7786 H 723.9 0.556928 3.17959 0
M  V30 7787 H 722.952 2.87637 2.48936 0
M  V30 7788 H 724.264 3.62441 3.42692 0
M  V30 7789 H 723.418 2.53135 5.51369 0
M  V30 7790 H 722.157 1.67872 4.57898 0
M  V30 7791 H 721.162 3.87989 3.89544 0
M  V30 7792 H 722.387 4.73913 4.86398 0
M  V30 7793 H 720.333 2.77277 5.9452 0
M  V30 7794 H 720.25 4.499 6.07557 0
M  V30 7795 H 721.518 3.63684 6.89459 0
M  V30 7796 N 725.747 -0.868086 1.31537 0
M  V30 7797 C 726.975 -1.65402 1.24298 0
M  V30 7798 C 727.39 -1.87827 -0.191389 0
M  V30 7799 O 726.747 -1.43776 -1.12404 0
M  V30 7800 C 726.798 -3.02093 1.9855 0
M  V30 7801 O 726.519 -2.80668 3.36388 0
M  V30 7802 C 728.02 -3.96538 1.98173 0
M  V30 7803 H 725.24 -0.515598 0.429417 0
M  V30 7804 H 727.784 -1.0834 1.73444 0
M  V30 7805 H 725.939 -3.55838 1.53161 0
M  V30 7806 H 726.353 -3.67504 3.74221 0
M  V30 7807 H 727.827 -4.8976 2.54635 0
M  V30 7808 H 728.304 -4.28474 0.964697 0
M  V30 7809 H 728.91 -3.48729 2.4345 0
M  V30 7810 N 727.225 -1.14528 -1.08264 0
M  V30 7811 C 728.472 -0.914405 -1.80679 0
M  V30 7812 C 728.8 0.558952 -1.86295 0
M  V30 7813 O 728.055 1.43017 -1.33584 0
M  V30 7814 C 728.354 -1.46226 -3.26117 0
M  V30 7815 C 728.02 -2.95451 -3.40616 0
M  V30 7816 C 726.682 -3.36191 -3.4428 0
M  V30 7817 C 729.034 -3.91399 -3.44175 0
M  V30 7818 C 726.362 -4.71539 -3.49096 0
M  V30 7819 C 728.714 -5.26606 -3.50526 0
M  V30 7820 C 727.378 -5.66856 -3.52464 0
M  V30 7821 H 726.648 -0.334604 -0.661151 0
M  V30 7822 H 729.295 -1.4292 -1.27461 0
M  V30 7823 H 727.6 -0.868442 -3.82054 0
M  V30 7824 H 729.297 -1.25955 -3.80705 0
M  V30 7825 H 725.887 -2.62955 -3.38456 0
M  V30 7826 H 730.071 -3.61004 -3.40573 0
M  V30 7827 H 725.327 -5.02082 -3.4889 0
M  V30 7828 H 729.501 -6.00758 -3.52225 0
M  V30 7829 H 727.128 -6.71718 -3.55948 0
M  V30 7830 N 728.703 1.26451 -0.940633 0
M  V30 7831 C 729.951 1.93395 -0.586748 0
M  V30 7832 C 730.272 1.7417 0.876921 0
M  V30 7833 O 729.542 1.097 1.62304 0
M  V30 7834 H 728.122 0.715687 -0.214012 0
M  V30 7835 H 730.784 1.53902 -1.19584 0
M  V30 7836 H 729.88 3.01565 -0.804059 0
M  V30 7837 N 730.181 0.707592 1.40822 0
M  V30 7838 C 731.428 0.243671 2.01029 0
M  V30 7839 C 731.756 -1.16057 1.5608 0
M  V30 7840 O 731.011 -1.7999 0.768251 0
M  V30 7841 C 731.31 0.262892 3.56432 0
M  V30 7842 C 730.976 1.61632 4.20935 0
M  V30 7843 C 729.638 1.98682 4.38268 0
M  V30 7844 C 731.99 2.50619 4.5699 0
M  V30 7845 C 729.318 3.2428 4.88937 0
M  V30 7846 C 731.67 3.75562 5.09054 0
M  V30 7847 C 730.334 4.12739 5.24598 0
M  V30 7848 H 729.604 0.0891654 0.735616 0
M  V30 7849 H 732.251 0.909051 1.68548 0
M  V30 7850 H 730.556 -0.486052 3.88773 0
M  V30 7851 H 732.253 -0.113775 4.00839 0
M  V30 7852 H 728.843 1.31818 4.07826 0
M  V30 7853 H 733.027 2.23272 4.43242 0
M  V30 7854 H 728.283 3.53064 4.99155 0
M  V30 7855 H 732.457 4.44692 5.35931 0
M  V30 7856 H 730.084 5.10132 5.63622 0
M  V30 7857 N 731.66 -1.50943 0.453197 0
M  V30 7858 C 732.885 -2.07116 -0.108463 0
M  V30 7859 C 733.31 -1.31681 -1.3432 0
M  V30 7860 O 732.668 -0.359256 -1.77705 0
M  V30 7861 C 732.716 -3.58447 -0.393424 0
M  V30 7862 O 731.82 -3.85038 -1.47714 0
M  V30 7863 H 731.161 -0.66398 0.0050993 0
M  V30 7864 H 733.691 -1.94362 0.639095 0
M  V30 7865 H 733.701 -4.02961 -0.639222 0
M  V30 7866 H 732.376 -4.12774 0.508946 0
M  V30 7867 H 730.953 -3.52376 -1.22006 0
M  V30 7868 N 733.138 -0.185124 -1.56509 0
M  V30 7869 C 734.048 0.751908 -2.22224 0
M  V30 7870 C 735.064 1.24244 -1.21817 0
M  V30 7871 O 736.24 1.29169 -1.54523 0
M  V30 7872 C 733.305 1.95837 -2.86092 0
M  V30 7873 C 732.366 1.51337 -4.01741 0
M  V30 7874 C 731.599 2.66233 -4.62554 0
M  V30 7875 O 731.822 3.8346 -4.22273 0
M  V30 7876 O 730.756 2.39517 -5.52191 0
M  V30 7877 H 734.582 0.222304 -3.02885 0
M  V30 7878 H 732.167 0.0437141 -1.49336 0
M  V30 7879 H 734.049 2.66368 -3.26536 0
M  V30 7880 H 732.724 2.47677 -2.08417 0
M  V30 7881 H 731.631 0.777155 -3.65939 0
M  V30 7882 H 732.964 1.04175 -4.81049 0
M  V30 7883 N 734.616 1.57351 0.0885366 0
M  V30 7884 C 735.893 1.77449 0.822873 0
M  V30 7885 C 736.273 0.768463 1.96616 0
M  V30 7886 O 735.621 -0.201757 2.27608 0
M  V30 7887 C 735.831 3.23425 1.31137 0
M  V30 7888 C 737.179 3.86791 1.75152 0
M  V30 7889 O 738.203 3.27215 1.40745 0
M  V30 7890 O 737.062 4.91568 2.38794 0
M  V30 7891 H 734.156 0.727653 0.393002 0
M  V30 7892 H 736.702 1.69556 0.0699095 0
M  V30 7893 H 735.474 3.88188 0.49254 0
M  V30 7894 H 735.097 3.35977 2.12615 0
M  V30 7895 N 736.094 -0.359525 1.53444 0
M  V30 7896 C 737.34 -1.10315 1.70172 0
M  V30 7897 C 737.673 -1.88788 0.455287 0
M  V30 7898 O 736.948 -1.86635 -0.547514 0
M  V30 7899 C 737.231 -2.05744 2.95536 0
M  V30 7900 C 737.084 -1.3084 4.3035 0
M  V30 7901 C 738.403 -3.05784 3.16518 0
M  V30 7902 H 735.522 -0.399662 0.619225 0
M  V30 7903 H 738.164 -0.383338 1.86093 0
M  V30 7904 H 736.314 -2.67125 2.82093 0
M  V30 7905 H 737.986 -0.721959 4.55615 0
M  V30 7906 H 736.229 -0.610283 4.29486 0
M  V30 7907 H 736.9 -2.00718 5.14214 0
M  V30 7908 H 739.376 -2.5451 3.29187 0
M  V30 7909 H 738.252 -3.69772 4.05659 0
M  V30 7910 H 738.513 -3.76289 2.32076 0
M  V30 7911 N 737.572 -1.44907 -0.619662 0
M  V30 7912 C 738.983 -1.42905 -1.20146 0
M  V30 7913 C 739.334 -0.150341 -1.95623 0
M  V30 7914 O 738.459 0.748732 -2.03034 0
M  V30 7915 C 739.054 -2.58889 -2.18545 0
M  V30 7916 C 737.613 -2.60046 -2.72127 0
M  V30 7917 C 736.76 -2.3493 -1.4732 0
M  V30 7918 H 739.711 -1.53321 -0.409666 0
M  V30 7919 H 739.732 -2.32298 -3.0136 0
M  V30 7920 H 739.244 -3.51941 -1.63583 0
M  V30 7921 H 737.345 -1.70968 -3.3106 0
M  V30 7922 H 737.458 -3.58893 -3.17384 0
M  V30 7923 H 735.822 -1.84248 -1.75855 0
M  V30 7924 H 736.605 -3.3011 -0.942442 0
M  V30 7925 N 739.05 0.861098 -1.31996 0
M  V30 7926 C 740.28 1.64501 -1.24992 0
M  V30 7927 C 740.688 1.88288 0.185576 0
M  V30 7928 O 740.031 1.44756 1.131 0
M  V30 7929 C 740.093 3.03098 -1.93319 0
M  V30 7930 C 739.757 3.02381 -3.42658 0
M  V30 7931 C 740.754 2.79696 -4.38254 0
M  V30 7932 C 738.439 3.23221 -3.84491 0
M  V30 7933 C 740.433 2.77843 -5.73657 0
M  V30 7934 C 738.12 3.20996 -5.20005 0
M  V30 7935 C 739.118 2.98335 -6.14398 0
M  V30 7936 O 738.806 2.95971 -7.47433 0
M  V30 7937 H 738.538 0.519309 -0.432775 0
M  V30 7938 H 741.092 1.08241 -1.74565 0
M  V30 7939 H 739.322 3.61121 -1.38306 0
M  V30 7940 H 741.011 3.63751 -1.8011 0
M  V30 7941 H 741.777 2.63368 -4.07262 0
M  V30 7942 H 737.656 3.39887 -3.11445 0
M  V30 7943 H 741.2 2.60074 -6.47308 0
M  V30 7944 H 737.097 3.36865 -5.50629 0
M  V30 7945 H 737.865 3.1197 -7.56714 0
M  V30 7946 N 740.528 1.15101 1.07655 0
M  V30 7947 C 741.438 0.858869 2.18313 0
M  V30 7948 C 742.454 -0.163641 1.73229 0
M  V30 7949 O 743.63 0.00969541 2.01398 0
M  V30 7950 C 740.695 0.34893 3.4494 0
M  V30 7951 C 739.756 1.43495 4.04608 0
M  V30 7952 C 738.989 0.949253 5.2519 0
M  V30 7953 O 739.212 -0.20636 5.70027 0
M  V30 7954 O 738.146 1.73161 5.76454 0
M  V30 7955 H 741.972 1.78386 2.45788 0
M  V30 7956 H 739.557 0.929876 1.16934 0
M  V30 7957 H 741.439 0.070851 4.2134 0
M  V30 7958 H 740.114 -0.548237 3.19024 0
M  V30 7959 H 739.021 1.7666 3.29761 0
M  V30 7960 H 740.354 2.30692 4.3479 0
M  V30 7961 N 742.006 -1.2595 0.947325 0
M  V30 7962 C 743.253 -1.93463 0.598178 0
M  V30 7963 C 743.581 -1.74271 -0.863705 0
M  V30 7964 O 742.836 -1.07684 -1.63409 0
M  V30 7965 C 743.135 -3.46034 0.894158 0
M  V30 7966 C 742.801 -3.85373 2.3409 0
M  V30 7967 C 741.463 -3.95823 2.73637 0
M  V30 7968 C 743.815 -4.04986 3.2808 0
M  V30 7969 C 741.143 -4.23288 4.06257 0
M  V30 7970 C 743.495 -4.3394 4.60303 0
M  V30 7971 C 742.159 -4.42606 4.99656 0
M  V30 7972 H 741.429 -0.707933 0.218889 0
M  V30 7973 H 744.076 -1.4964 1.19499 0
M  V30 7974 H 742.381 -3.9121 0.214874 0
M  V30 7975 H 744.078 -3.96445 0.602698 0
M  V30 7976 H 740.668 -3.7779 2.02417 0
M  V30 7977 H 744.852 -3.96333 2.9872 0
M  V30 7978 H 740.108 -4.28211 4.36401 0
M  V30 7979 H 744.282 -4.48061 5.33118 0
M  V30 7980 H 741.909 -4.63641 6.02446 0
M  V30 7981 N 743.484 -0.715051 -1.40445 0
M  V30 7982 C 744.895 -0.326763 -1.83818 0
M  V30 7983 C 745.246 1.13851 -1.59789 0
M  V30 7984 O 744.371 1.87611 -1.07848 0
M  V30 7985 C 744.966 -0.586297 -3.33688 0
M  V30 7986 C 743.525 -0.251724 -3.75557 0
M  V30 7987 C 742.672 -0.858928 -2.63662 0
M  V30 7988 H 745.623 -0.914241 -1.2972 0
M  V30 7989 H 745.644 0.148636 -3.8021 0
M  V30 7990 H 745.156 -1.65281 -3.51146 0
M  V30 7991 H 743.257 0.809754 -3.63695 0
M  V30 7992 H 743.37 -0.720348 -4.73654 0
M  V30 7993 H 741.734 -0.287013 -2.53078 0
M  V30 7994 H 742.517 -1.9297 -2.83932 0
M  V30 7995 N 744.962 1.50701 -0.461195 0
M  V30 7996 C 746.211 2.01458 0.0988277 0
M  V30 7997 C 746.524 1.34863 1.41673 0
M  V30 7998 O 747.73 1.76721 2.06111 0
M  V30 7999 C 746.186 3.59186 0.226648 0
M  V30 8000 C 745.794 4.34732 -1.08223 0
M  V30 8001 C 747.538 4.18015 0.73916 0
M  V30 8002 C 745.445 5.8422 -0.918747 0
M  V30 8003 H 744.375 0.7529 0.040709 0
M  V30 8004 H 747.026 1.736 -0.594589 0
M  V30 8005 H 745.408 3.83589 0.983621 0
M  V30 8006 H 746.582 4.22059 -1.84939 0
M  V30 8007 H 744.897 3.87466 -1.52509 0
M  V30 8008 H 747.494 5.27436 0.878347 0
M  V30 8009 H 747.837 3.78746 1.72793 0
M  V30 8010 H 748.37 3.9778 0.0398469 0
M  V30 8011 H 745.109 6.27944 -1.88059 0
M  V30 8012 H 744.629 5.99493 -0.191801 0
M  V30 8013 H 746.308 6.44382 -0.581405 0
M  V30 8014 N 746.441 0.193421 1.56409 0
M  V30 8015 C 747.373 -0.759944 2.16235 0
M  V30 8016 C 748.386 -1.17797 1.12373 0
M  V30 8017 O 749.575 -1.11399 1.39472 0
M  V30 8018 C 746.675 -2.03735 2.70823 0
M  V30 8019 C 745.848 -1.77939 3.9957 0
M  V30 8020 C 744.907 -2.90111 4.39001 0
M  V30 8021 O 743.933 -2.59791 5.06456 0
M  V30 8022 N 745.135 -4.18426 4.02368 0
M  V30 8023 H 747.9 -0.248348 2.98669 0
M  V30 8024 H 745.461 0.0113966 1.61896 0
M  V30 8025 H 747.453 -2.77914 2.94187 0
M  V30 8026 H 746.023 -2.46022 1.92852 0
M  V30 8027 H 745.243 -0.875491 3.84355 0
M  V30 8028 H 746.531 -1.58099 4.83614 0
M  V30 8029 H 745.929 -4.45913 3.48106 0
M  V30 8030 H 744.486 -4.89237 4.30686 0
M  V30 8031 N 747.919 -1.57396 -0.0801906 0
M  V30 8032 C 748.866 -2.03107 -1.09618 0
M  V30 8033 C 749.836 -0.910118 -1.38946 0
M  V30 8034 O 751.021 -1.17719 -1.50156 0
M  V30 8035 C 748.161 -2.47293 -2.40708 0
M  V30 8036 C 747.274 -3.72972 -2.17982 0
M  V30 8037 C 746.409 -4.05975 -3.42576 0
M  V30 8038 C 745.448 -5.24719 -3.15177 0
M  V30 8039 N 744.585 -5.53401 -4.32078 0
M  V30 8040 H 749.425 -2.89677 -0.69939 0
M  V30 8041 H 746.962 -1.43263 -0.333785 0
M  V30 8042 H 748.92 -2.7096 -3.17232 0
M  V30 8043 H 747.55 -1.63713 -2.78205 0
M  V30 8044 H 746.602 -3.56693 -1.32189 0
M  V30 8045 H 747.914 -4.59638 -1.93738 0
M  V30 8046 H 747.068 -4.30498 -4.275 0
M  V30 8047 H 745.807 -3.17859 -3.69887 0
M  V30 8048 H 744.812 -5 -2.28648 0
M  V30 8049 H 746.037 -6.14445 -2.89197 0
M  V30 8050 H 743.983 -4.68245 -4.59437 0
M  V30 8051 H 743.9 -6.34469 -4.11078 0
M  V30 8052 H 745.168 -5.8247 -5.18024 0
M  V30 8053 N 749.397 0.351382 -1.53633 0
M  V30 8054 C 750.622 1.11718 -1.74739 0
M  V30 8055 C 751.047 1.81829 -0.481657 0
M  V30 8056 O 750.405 1.72264 0.565233 0
M  V30 8057 C 750.453 2.11234 -2.92254 0
M  V30 8058 O 749.557 3.186 -2.61855 0
M  V30 8059 H 748.898 0.323482 -0.579875 0
M  V30 8060 H 751.428 0.404167 -2.00568 0
M  V30 8061 H 751.438 2.54591 -3.18822 0
M  V30 8062 H 750.113 1.59599 -3.84058 0
M  V30 8063 H 748.69 2.80115 -2.4615 0
M  V30 8064 N 750.875 1.45233 0.611969 0
M  V30 8065 C 752.1 1.52767 1.40274 0
M  V30 8066 C 752.525 0.159701 1.87421 0
M  V30 8067 O 751.883 -0.854837 1.59882 0
M  V30 8068 C 751.931 2.51286 2.58626 0
M  V30 8069 O 751.035 2.02764 3.59111 0
M  V30 8070 H 750.376 0.515141 0.418958 0
M  V30 8071 H 752.906 1.90547 0.745188 0
M  V30 8072 H 752.916 2.69949 3.05927 0
M  V30 8073 H 751.591 3.50641 2.23659 0
M  V30 8074 H 750.168 1.93957 3.18489 0
M  V30 8075 N 752.353 -0.854086 1.3245 0
M  V30 8076 C 753.602 -1.60318 1.22397 0
M  V30 8077 C 753.915 -1.9444 -0.212664 0
M  V30 8078 O 755.121 -2.67991 -0.435066 0
M  V30 8079 C 753.577 -2.8909 2.1437 0
M  V30 8080 C 753.185 -2.62391 3.63119 0
M  V30 8081 C 754.929 -3.67104 2.13155 0
M  V30 8082 C 752.836 -3.87167 4.47052 0
M  V30 8083 H 751.766 -0.601586 0.454544 0
M  V30 8084 H 754.417 -0.943023 1.57415 0
M  V30 8085 H 752.799 -3.56567 1.72268 0
M  V30 8086 H 753.973 -2.03222 4.13567 0
M  V30 8087 H 752.288 -1.97706 3.66471 0
M  V30 8088 H 754.885 -4.59696 2.731 0
M  V30 8089 H 755.228 -4.00876 1.12268 0
M  V30 8090 H 755.761 -3.06533 2.5354 0
M  V30 8091 H 752.5 -3.58536 5.48755 0
M  V30 8092 H 752.02 -4.45729 4.01355 0
M  V30 8093 H 753.699 -4.549 4.60081 0
M  V30 8094 N 753.831 -1.1567 -1.07043 0
M  V30 8095 C 754.794 -0.858906 -2.12498 0
M  V30 8096 C 755.794 0.142735 -1.60165 0
M  V30 8097 O 756.984 -0.0872678 -1.73981 0
M  V30 8098 C 754.116 -0.283021 -3.39723 0
M  V30 8099 H 755.309 -1.79368 -2.40348 0
M  V30 8100 H 752.862 -0.964608 -1.22984 0
M  V30 8101 H 753.597 0.659796 -3.17517 0
M  V30 8102 H 753.382 -1.00467 -3.7901 0
M  V30 8103 H 754.872 -0.0923543 -4.17498 0
M  V30 8104 N 755.309 1.25446 -0.953992 0
M  V30 8105 C 756.257 2.27909 -0.46478 0
M  V30 8106 C 757.251 1.62904 0.464607 0
M  V30 8107 O 758.457 1.76733 0.341407 0
M  V30 8108 H 754.832 0.74036 -0.131798 0
M  V30 8109 H 756.803 2.66559 -1.34122 0
M  V30 8110 C 755.552 3.46853 0.242589 0
M  V30 8111 H 754.875 3.97105 -0.463418 0
M  V30 8112 H 756.315 4.20432 0.548919 0
M  V30 8113 C 754.774 3.03386 1.46487 0
M  V30 8114 O 755.304 3.09342 2.56262 0
M  V30 8115 N 753.51 2.58584 1.32599 0
M  V30 8116 H 753.057 2.53938 0.432834 0
M  V30 8117 H 753.015 2.29866 2.14497 0
M  V30 8118 N 756.787 0.722489 1.40064 0
M  V30 8119 C 758.064 0.191829 1.94657 0
M  V30 8120 C 758.444 -1.30389 1.66018 0
M  V30 8121 O 757.792 -2.06342 0.981588 0
M  V30 8122 C 758.002 0.511978 3.45224 0
M  V30 8123 C 759.35 0.454426 4.22161 0
M  V30 8124 O 760.374 0.448438 3.53366 0
M  V30 8125 O 759.233 0.437986 5.44742 0
M  V30 8126 H 756.327 0.0307821 0.826427 0
M  V30 8127 H 758.873 0.800493 1.49634 0
M  V30 8128 H 757.645 1.54622 3.59455 0
M  V30 8129 H 757.268 -0.126296 3.97399 0
M  V30 8130 N 758.265 -1.50454 0.469181 0
M  V30 8131 C 759.212 -2.28486 -0.325982 0
M  V30 8132 C 760.182 -1.33455 -0.988893 0
M  V30 8133 O 761.367 -1.6239 -1.0017 0
M  V30 8134 C 758.507 -3.15288 -1.40313 0
M  V30 8135 C 757.62 -4.25348 -0.755183 0
M  V30 8136 C 756.755 -4.9941 -1.81006 0
M  V30 8137 C 755.794 -6.01348 -1.14226 0
M  V30 8138 N 754.931 -6.68695 -2.1399 0
M  V30 8139 H 759.771 -2.95987 0.345753 0
M  V30 8140 H 757.308 -1.45965 0.182355 0
M  V30 8141 H 759.266 -3.63964 -2.03927 0
M  V30 8142 H 757.896 -2.49837 -2.04405 0
M  V30 8143 H 756.948 -3.80399 -0.00651901 0
M  V30 8144 H 758.26 -4.98279 -0.227941 0
M  V30 8145 H 757.414 -5.51794 -2.52206 0
M  V30 8146 H 756.153 -4.26181 -2.3711 0
M  V30 8147 H 755.158 -5.48225 -0.415876 0
M  V30 8148 H 756.383 -6.76548 -0.588135 0
M  V30 8149 H 754.329 -5.98258 -2.69115 0
M  V30 8150 H 754.246 -7.37495 -1.66246 0
M  V30 8151 H 755.514 -7.25697 -2.84576 0
M  V30 8152 N 759.743 -0.201713 -1.56304 0
M  V30 8153 C 760.673 0.71155 -2.22394 0
M  V30 8154 C 761.654 1.21625 -1.18917 0
M  V30 8155 O 762.839 1.26388 -1.47444 0
M  V30 8156 C 759.969 1.92837 -2.88845 0
M  V30 8157 C 758.923 1.55831 -3.98623 0
M  V30 8158 C 758.249 2.85228 -4.52271 0
M  V30 8159 C 759.549 0.763249 -5.16693 0
M  V30 8160 H 761.243 0.160573 -2.98969 0
M  V30 8161 H 758.789 0.0757916 -1.438 0
M  V30 8162 H 760.742 2.57253 -3.33764 0
M  V30 8163 H 759.466 2.50398 -2.09686 0
M  V30 8164 H 758.125 0.9377 -3.54405 0
M  V30 8165 H 757.773 3.40893 -3.69866 0
M  V30 8166 H 757.473 2.6121 -5.26349 0
M  V30 8167 H 758.997 3.50622 -4.99897 0
M  V30 8168 H 760.411 1.31066 -5.58117 0
M  V30 8169 H 758.808 0.620935 -5.96879 0
M  V30 8170 H 759.878 -0.234322 -4.84334 0
M  V30 8171 N 761.222 1.57436 0.0718424 0
M  V30 8172 C 762.499 1.78312 0.804006 0
M  V30 8173 C 762.879 0.789273 1.9579 0
M  V30 8174 O 762.227 -0.177605 2.27809 0
M  V30 8175 C 762.437 3.24798 1.277 0
M  V30 8176 C 763.785 3.88627 1.71039 0
M  V30 8177 O 764.809 3.28689 1.37266 0
M  V30 8178 O 763.668 4.94073 2.33567 0
M  V30 8179 H 760.762 0.73178 0.385262 0
M  V30 8180 H 763.308 1.69621 0.0519219 0
M  V30 8181 H 762.08 3.88688 0.45134 0
M  V30 8182 H 761.703 3.38213 2.0904 0
M  V30 8183 N 762.7 -0.34323 1.53817 0
M  V30 8184 C 763.925 -1.1079 1.75329 0
M  V30 8185 C 764.35 -1.81571 0.491293 0
M  V30 8186 O 763.708 -1.72561 -0.556089 0
M  V30 8187 C 763.756 -2.09681 2.9337 0
M  V30 8188 O 762.86 -3.17207 2.63541 0
M  V30 8189 H 762.201 -0.320402 0.581583 0
M  V30 8190 H 764.731 -0.393525 2.0078 0
M  V30 8191 H 764.741 -2.52897 3.20168 0
M  V30 8192 H 763.416 -1.5756 3.84899 0
M  V30 8193 H 761.993 -2.78806 2.47632 0
M  V30 8194 N 764.178 -1.45556 -0.604258 0
M  V30 8195 C 765.455 -1.40221 -1.36373 0
M  V30 8196 C 765.835 -0.0745195 -2.10968 0
M  V30 8197 O 765.183 0.943594 -2.08107 0
M  V30 8198 C 765.393 -2.61807 -2.30777 0
M  V30 8199 C 766.741 -3.07037 -2.93281 0
M  V30 8200 O 767.765 -2.62203 -2.41097 0
M  V30 8201 O 766.624 -3.8485 -3.88011 0
M  V30 8202 H 763.718 -0.556602 -0.611656 0
M  V30 8203 H 766.264 -1.57689 -0.627069 0
M  V30 8204 H 765.036 -3.50017 -1.74939 0
M  V30 8205 H 764.659 -2.46688 -3.11818 0
M  V30 8206 N 765.656 0.84705 -1.32902 0
M  V30 8207 C 766.905 1.59667 -1.23245 0
M  V30 8208 C 767.218 1.94551 0.202349 0
M  V30 8209 O 768.424 2.68218 0.420847 0
M  V30 8210 C 766.88 2.8795 -2.15901 0
M  V30 8211 C 766.488 2.60461 -3.64505 0
M  V30 8212 C 768.232 3.65968 -2.15098 0
M  V30 8213 C 766.139 3.84791 -4.49099 0
M  V30 8214 H 765.069 0.599167 -0.457728 0
M  V30 8215 H 767.72 0.934662 -1.57912 0
M  V30 8216 H 766.102 3.55648 -1.74157 0
M  V30 8217 H 767.276 2.01026 -4.14639 0
M  V30 8218 H 765.591 1.9576 -3.67515 0
M  V30 8219 H 768.188 4.58241 -2.75534 0
M  V30 8220 H 768.531 4.00275 -1.14392 0
M  V30 8221 H 769.064 3.05184 -2.55162 0
M  V30 8222 H 765.803 3.55621 -5.50649 0
M  V30 8223 H 765.323 4.43594 -4.03713 0
M  V30 8224 H 767.002 4.52454 -4.62487 0
M  V30 8225 N 767.134 1.16236 1.06428 0
M  V30 8226 C 768.064 0.890807 2.1584 0
M  V30 8227 C 769.045 -0.162333 1.69324 0
M  V30 8228 O 770.23 -0.0147191 1.94194 0
M  V30 8229 C 767.36 0.389615 3.45108 0
M  V30 8230 C 766.314 1.38051 4.05125 0
M  V30 8231 C 765.64 0.737773 5.29586 0
M  V30 8232 C 766.94 2.74965 4.44062 0
M  V30 8233 H 768.634 1.80577 2.38814 0
M  V30 8234 H 766.18 0.869657 1.14774 0
M  V30 8235 H 768.133 0.187127 4.20984 0
M  V30 8236 H 766.857 -0.560851 3.21748 0
M  V30 8237 H 765.516 1.56952 3.31303 0
M  V30 8238 H 765.164 -0.219135 5.02522 0
M  V30 8239 H 764.864 1.39914 5.70699 0
M  V30 8240 H 766.388 0.545275 6.0816 0
M  V30 8241 H 767.802 2.59855 5.11027 0
M  V30 8242 H 766.199 3.37563 4.96156 0
M  V30 8243 H 767.269 3.30321 3.54987 0
M  V30 8244 N 768.612 -1.24939 0.960631 0
M  V30 8245 C 769.542 -2.28 0.503815 0
M  V30 8246 C 770.523 -1.63959 -0.452928 0
M  V30 8247 O 771.708 -1.91009 -0.350585 0
M  V30 8248 C 768.838 -3.46643 -0.213535 0
M  V30 8249 C 767.792 -4.22903 0.658535 0
M  V30 8250 C 767.118 -5.34363 -0.189902 0
M  V30 8251 C 768.418 -4.84949 1.93963 0
M  V30 8252 H 770.112 -2.66462 1.36521 0
M  V30 8253 H 767.658 -1.28093 0.657897 0
M  V30 8254 H 769.611 -4.1787 -0.544286 0
M  V30 8255 H 768.335 -3.07187 -1.10923 0
M  V30 8256 H 766.994 -3.53467 0.972455 0
M  V30 8257 H 766.642 -4.91147 -1.08553 0
M  V30 8258 H 766.342 -5.86302 0.390331 0
M  V30 8259 H 767.866 -6.0842 -0.515484 0
M  V30 8260 H 769.28 -5.48288 1.67491 0
M  V30 8261 H 767.677 -5.47091 2.46601 0
M  V30 8262 H 768.747 -4.06799 2.639 0
M  V30 8263 N 770.09 -0.729906 -1.39679 0
M  V30 8264 C 771.053 -0.0951668 -2.29002 0
M  V30 8265 C 772.053 0.672471 -1.46063 0
M  V30 8266 O 773.243 0.502245 -1.66803 0
M  V30 8267 C 770.375 0.874631 -3.29489 0
M  V30 8268 H 771.568 -0.882062 -2.86635 0
M  V30 8269 H 769.121 -0.495424 -1.4824 0
M  V30 8270 H 769.856 1.68807 -2.76902 0
M  V30 8271 H 769.641 0.326893 -3.90735 0
M  V30 8272 H 771.131 1.31548 -3.96339 0
M  V30 8273 N 771.568 1.50203 -0.477153 0
M  V30 8274 C 772.845 1.95115 0.137609 0
M  V30 8275 C 773.225 1.41778 1.56404 0
M  V30 8276 O 772.573 0.621333 2.1989 0
M  V30 8277 C 772.783 3.4892 0.0747168 0
M  V30 8278 C 774.131 4.238 0.260585 0
M  V30 8279 O 775.155 3.5588 0.151021 0
M  V30 8280 O 774.014 5.44366 0.482534 0
M  V30 8281 H 771.108 0.81987 0.108364 0
M  V30 8282 H 773.654 1.60946 -0.537989 0
M  V30 8283 H 772.426 3.80308 -0.920966 0
M  V30 8284 H 772.049 3.89642 0.791509 0
M  V30 8285 N 773.046 0.209999 1.56195 0
M  V30 8286 C 774.274 -0.429996 2.02382 0
M  V30 8287 C 774.689 -1.54159 1.08998 0
M  V30 8288 O 774.046 -1.82239 0.0974856 0
M  V30 8289 C 774.097 -0.972433 3.48175 0
M  V30 8290 O 773.818 0.0948231 4.37997 0
M  V30 8291 C 775.319 -1.68683 4.09952 0
M  V30 8292 H 772.539 -0.106475 0.662498 0
M  V30 8293 H 775.083 0.323072 2.01932 0
M  V30 8294 H 773.238 -1.67582 3.49278 0
M  V30 8295 H 773.652 -0.31113 5.23576 0
M  V30 8296 H 775.126 -2.01851 5.13771 0
M  V30 8297 H 775.603 -2.59587 3.54276 0
M  V30 8298 H 776.209 -1.02893 4.12666 0
M  V30 8299 N 774.524 -1.57472 -0.0634922 0
M  V30 8300 C 775.772 -1.87283 -0.759563 0
M  V30 8301 C 776.093 -0.803135 -1.77693 0
M  V30 8302 O 775.363 0.167293 -1.95184 0
M  V30 8303 H 773.943 -0.691106 -0.283516 0
M  V30 8304 H 776.605 -1.94864 -0.0376091 0
M  V30 8305 H 775.701 -2.85064 -1.27062 0
M  V30 8306 N 776.003 0.335068 -1.53997 0
M  V30 8307 C 777.233 1.0926 -1.75345 0
M  V30 8308 C 777.641 1.82568 -0.496545 0
M  V30 8309 O 776.984 1.75525 0.541897 0
M  V30 8310 C 777.046 2.14473 -2.88516 0
M  V30 8311 C 776.71 1.60665 -4.27827 0
M  V30 8312 C 777.707 1.05448 -5.09094 0
M  V30 8313 C 775.392 1.65255 -4.74337 0
M  V30 8314 C 777.386 0.555372 -6.34976 0
M  V30 8315 C 775.073 1.14956 -6.0019 0
M  V30 8316 C 776.071 0.601907 -6.80343 0
M  V30 8317 O 775.759 0.106445 -8.0383 0
M  V30 8318 H 775.491 0.331329 -0.589234 0
M  V30 8319 H 778.045 0.39042 -2.01655 0
M  V30 8320 H 776.275 2.88274 -2.5775 0
M  V30 8321 H 777.964 2.75857 -2.97755 0
M  V30 8322 H 778.73 1.01218 -4.74321 0
M  V30 8323 H 774.609 2.06822 -4.12002 0
M  V30 8324 H 778.153 0.127245 -6.97484 0
M  V30 8325 H 774.05 1.18891 -6.34457 0
M  V30 8326 H 774.818 0.222944 -8.18196 0
M  V30 8327 N 777.481 1.45874 0.596531 0
M  V30 8328 C 778.729 1.5017 1.35253 0
M  V30 8329 C 779.05 0.149246 1.94428 0
M  V30 8330 O 778.32 -0.82268 1.77789 0
M  V30 8331 H 776.9 0.553052 0.502138 0
M  V30 8332 H 779.562 1.81908 0.699671 0
M  V30 8333 H 778.658 2.24671 2.16632 0
M  V30 8334 N 778.959 -0.83999 1.33349 0
M  V30 8335 C 779.891 -1.95678 1.19344 0
M  V30 8336 C 780.904 -1.62322 0.124692 0
M  V30 8337 O 782.093 -1.74516 0.375012 0
M  V30 8338 C 779.193 -3.29133 0.807771 0
M  V30 8339 C 778.366 -3.9063 1.96792 0
M  V30 8340 C 777.425 -5.02438 1.56341 0
M  V30 8341 O 776.451 -5.21646 2.27759 0
M  V30 8342 N 777.653 -5.78612 0.467767 0
M  V30 8343 H 780.418 -2.08229 2.15548 0
M  V30 8344 H 777.979 -1.01566 1.26079 0
M  V30 8345 H 779.971 -4.01355 0.519282 0
M  V30 8346 H 778.541 -3.12535 -0.063555 0
M  V30 8347 H 777.761 -3.11011 2.4221 0
M  V30 8348 H 779.049 -4.2845 2.74422 0
M  V30 8349 H 778.447 -5.65559 -0.126324 0
M  V30 8350 H 777.004 -6.51362 0.238945 0
M  V30 8351 N 780.437 -1.16799 -1.0581 0
M  V30 8352 C 781.685 -0.950642 -1.78346 0
M  V30 8353 C 782.006 0.522524 -1.87869 0
M  V30 8354 O 781.276 1.3795 -1.39092 0
M  V30 8355 H 779.856 -0.348736 -0.6606 0
M  V30 8356 H 782.518 -1.47158 -1.27791 0
M  V30 8357 H 781.614 -1.37359 -2.80248 0
M  V30 8358 N 781.915 1.24427 -0.967243 0
M  V30 8359 C 782.847 2.24641 -0.454856 0
M  V30 8360 C 783.86 1.56849 0.436152 0
M  V30 8361 O 785.049 1.76846 0.242401 0
M  V30 8362 C 782.149 3.36954 0.362672 0
M  V30 8363 C 781.322 4.34318 -0.518324 0
M  V30 8364 C 780.381 5.25638 0.243122 0
M  V30 8365 O 779.407 5.68043 -0.362791 0
M  V30 8366 N 780.609 5.59897 1.53282 0
M  V30 8367 H 783.374 2.69238 -1.31648 0
M  V30 8368 H 780.935 1.38464 -0.839015 0
M  V30 8369 H 782.927 3.95014 0.880094 0
M  V30 8370 H 781.497 2.91646 1.12522 0
M  V30 8371 H 780.717 3.74953 -1.21672 0
M  V30 8372 H 782.005 4.96338 -1.11919 0
M  V30 8373 H 781.403 5.27373 2.04682 0
M  V30 8374 H 779.96 6.20488 1.99594 0
M  V30 8375 N 783.393 0.737304 1.3929 0
M  V30 8376 C 784.326 0.0475454 2.2815 0
M  V30 8377 C 785.304 -0.745314 1.44512 0
M  V30 8378 O 786.488 -0.727387 1.739 0
M  V30 8379 C 783.615 -0.939803 3.254 0
M  V30 8380 C 782.661 -0.235153 4.25851 0
M  V30 8381 S 783.494 1.05252 5.25055 0
M  V30 8382 C 784.65 0.0678242 6.25863 0
M  V30 8383 H 784.883 0.801117 2.86303 0
M  V30 8384 H 782.416 0.529197 1.45048 0
M  V30 8385 H 784.374 -1.50417 3.81949 0
M  V30 8386 H 783.035 -1.66623 2.66262 0
M  V30 8387 H 782.228 -0.982336 4.94334 0
M  V30 8388 H 781.83 0.257245 3.73114 0
M  V30 8389 H 784.122 -0.771779 6.7309 0
M  V30 8390 H 785.065 0.719858 7.04431 0
M  V30 8391 H 785.473 -0.305604 5.63672 0
M  V30 8392 N 784.871 -1.49948 0.485112 0
M  V30 8393 C 785.803 -2.26691 -0.338222 0
M  V30 8394 C 786.816 -1.32584 -0.944742 0
M  V30 8395 O 788.005 -1.57989 -0.830772 0
M  V30 8396 C 785.105 -3.04405 -1.48966 0
M  V30 8397 C 784.278 -4.25971 -0.993371 0
M  V30 8398 C 783.337 -4.85861 -2.02052 0
M  V30 8399 O 782.363 -5.46382 -1.59547 0
M  V30 8400 N 783.565 -4.74101 -3.34975 0
M  V30 8401 H 786.33 -2.97989 0.319748 0
M  V30 8402 H 783.891 -1.58772 0.316714 0
M  V30 8403 H 785.883 -3.41348 -2.17403 0
M  V30 8404 H 784.453 -2.35815 -2.05207 0
M  V30 8405 H 783.673 -3.93971 -0.134424 0
M  V30 8406 H 784.961 -5.0476 -0.639934 0
M  V30 8407 H 784.359 -4.26002 -3.72208 0
M  V30 8408 H 782.916 -5.15274 -3.9917 0
M  V30 8409 N 786.349 -0.21828 -1.56081 0
M  V30 8410 C 787.282 0.733096 -2.16104 0
M  V30 8411 C 788.26 1.19333 -1.10447 0
M  V30 8412 O 789.444 1.27666 -1.38685 0
M  V30 8413 C 786.571 1.99283 -2.73868 0
M  V30 8414 C 785.617 1.67285 -3.92324 0
M  V30 8415 S 786.45 0.800511 -5.29483 0
M  V30 8416 C 787.606 2.06988 -5.90683 0
M  V30 8417 H 787.839 0.222917 -2.96463 0
M  V30 8418 H 785.372 -0.00300946 -1.544 0
M  V30 8419 H 787.33 2.71618 -3.07789 0
M  V30 8420 H 785.991 2.47414 -1.93508 0
M  V30 8421 H 785.184 2.60874 -4.31232 0
M  V30 8422 H 784.786 1.03016 -3.59533 0
M  V30 8423 H 787.078 3.02019 -6.06457 0
M  V30 8424 H 788.021 1.72476 -6.86773 0
M  V30 8425 H 788.429 2.20893 -5.19487 0
M  V30 8426 N 787.827 1.57504 0.0551401 0
M  V30 8427 C 789.052 1.92682 0.767352 0
M  V30 8428 C 789.477 0.81614 1.69472 0
M  V30 8429 O 788.835 -0.229989 1.79835 0
M  V30 8430 C 788.883 3.26866 1.52286 0
M  V30 8431 O 787.987 3.17274 2.63459 0
M  V30 8432 H 787.328 0.630502 0.208238 0
M  V30 8433 H 789.858 2.04592 0.0184026 0
M  V30 8434 H 789.868 3.61138 1.8985 0
M  V30 8435 H 788.543 4.07276 0.842541 0
M  V30 8436 H 787.12 2.94589 2.2863 0
M  V30 8437 N 789.305 -0.326896 1.54172 0
M  V30 8438 C 790.716 -0.901533 1.63491 0
M  V30 8439 C 791.067 -1.88994 0.52684 0
M  V30 8440 O 790.192 -2.137 -0.340794 0
M  V30 8441 C 790.787 -1.64192 2.96355 0
M  V30 8442 C 789.346 -2.16533 3.07881 0
M  V30 8443 C 788.493 -0.98966 2.59039 0
M  V30 8444 H 791.444 -0.104568 1.58355 0
M  V30 8445 H 791.465 -2.50592 2.86328 0
M  V30 8446 H 790.977 -0.922291 3.76982 0
M  V30 8447 H 789.078 -2.91622 2.31922 0
M  V30 8448 H 789.191 -2.41762 4.13628 0
M  V30 8449 H 787.555 -1.36787 2.14852 0
M  V30 8450 H 788.338 -0.284401 3.4212 0
M  V30 8451 N 790.784 -1.46188 -0.588786 0
M  V30 8452 C 791.714 -1.59148 -1.70863 0
M  V30 8453 C 792.695 -0.442083 -1.64255 0
M  V30 8454 O 793.88 -0.667575 -1.82365 0
M  V30 8455 C 791.01 -1.5757 -3.09498 0
M  V30 8456 C 789.964 -2.71418 -3.30932 0
M  V30 8457 C 789.29 -2.549 -4.70032 0
M  V30 8458 C 790.59 -4.1329 -3.19356 0
M  V30 8459 H 792.284 -2.52889 -1.60274 0
M  V30 8460 H 789.83 -1.21707 -0.769638 0
M  V30 8461 H 791.783 -1.65231 -3.87655 0
M  V30 8462 H 790.507 -0.603705 -3.20972 0
M  V30 8463 H 789.166 -2.63216 -2.55172 0
M  V30 8464 H 788.814 -1.55797 -4.78264 0
M  V30 8465 H 788.514 -3.31257 -4.85327 0
M  V30 8466 H 790.038 -2.64443 -5.50366 0
M  V30 8467 H 791.452 -4.22636 -3.87365 0
M  V30 8468 H 789.849 -4.90187 -3.46175 0
M  V30 8469 H 790.919 -4.33874 -2.16522 0
M  V30 8470 N 792.262 0.832906 -1.33792 0
M  V30 8471 C 793.212 1.93178 -1.21105 0
M  V30 8472 C 794.196 1.60506 -0.112491 0
M  V30 8473 O 795.388 1.73681 -0.341179 0
M  V30 8474 C 792.517 3.29647 -0.958526 0
M  V30 8475 C 791.603 3.68469 -2.0998 0
M  V30 8476 N 791.994 3.78936 -3.35024 0
M  V30 8477 C 790.292 3.98249 -2.00782 0
M  V30 8478 C 790.993 4.12731 -4.09912 0
M  V30 8479 N 789.969 4.25419 -3.38407 0
M  V30 8480 H 793.771 1.99434 -2.15878 0
M  V30 8481 H 791.285 1.02598 -1.25886 0
M  V30 8482 H 793.282 4.08173 -0.848552 0
M  V30 8483 H 791.942 3.24694 -0.019387 0
M  V30 8484 H 792.953 3.62688 -3.69699 0
M  V30 8485 H 789.63 4.01474 -1.14564 0
M  V30 8486 H 791.02 4.28117 -5.17847 0
M  V30 8487 N 793.74 1.17359 1.05189 0
M  V30 8488 C 794.67 0.91365 2.14883 0
M  V30 8489 C 795.651 -0.144365 1.69486 0
M  V30 8490 O 796.836 0.00587861 1.94199 0
M  V30 8491 C 793.966 0.426196 3.44675 0
M  V30 8492 C 792.92 1.4234 4.03638 0
M  V30 8493 C 792.246 0.793902 5.28773 0
M  V30 8494 C 793.546 2.7966 4.41121 0
M  V30 8495 H 795.24 1.831 2.36885 0
M  V30 8496 H 792.786 0.881781 1.13845 0
M  V30 8497 H 794.739 0.231767 4.20762 0
M  V30 8498 H 793.463 -0.526693 3.22325 0
M  V30 8499 H 792.122 1.60457 3.2962 0
M  V30 8500 H 791.77 -0.165824 5.02727 0
M  V30 8501 H 791.47 1.45959 5.69183 0
M  V30 8502 H 792.994 0.609747 6.07548 0
M  V30 8503 H 794.408 2.6526 5.08242 0
M  V30 8504 H 792.805 3.42807 4.92548 0
M  V30 8505 H 793.875 3.34068 3.51464 0
M  V30 8506 N 795.218 -1.23913 0.973828 0
M  V30 8507 C 796.181 -2.23367 0.51378 0
M  V30 8508 C 797.181 -1.55923 -0.39302 0
M  V30 8509 O 798.371 -1.73187 -0.187626 0
M  V30 8510 C 795.503 -3.39944 -0.255152 0
M  V30 8511 H 796.696 -2.65581 1.39307 0
M  V30 8512 H 794.249 -1.36632 0.759039 0
M  V30 8513 H 794.984 -3.03177 -1.15127 0
M  V30 8514 H 794.769 -3.90098 0.395673 0
M  V30 8515 H 796.259 -4.13749 -0.565842 0
M  V30 8516 N 796.696 -0.74468 -1.38897 0
M  V30 8517 C 797.924 -0.307428 -2.04603 0
M  V30 8518 C 798.339 1.06115 -1.56157 0
M  V30 8519 O 797.696 1.67233 -0.730701 0
M  V30 8520 C 797.747 -0.31101 -3.6016 0
M  V30 8521 O 797.468 -1.62557 -4.06825 0
M  V30 8522 C 798.969 0.141213 -4.43075 0
M  V30 8523 H 796.189 -0.132741 -0.657739 0
M  V30 8524 H 798.733 -1.01104 -1.77759 0
M  V30 8525 H 796.888 0.343792 -3.85872 0
M  V30 8526 H 797.302 -1.54569 -5.01207 0
M  V30 8527 H 798.776 0.0875449 -5.51931 0
M  V30 8528 H 799.253 1.18782 -4.22833 0
M  V30 8529 H 799.859 -0.484383 -4.22533 0
M  V30 8530 N 798.174 1.49689 -0.493057 0
M  V30 8531 C 799.137 2.27502 0.278485 0
M  V30 8532 C 800.137 1.33184 0.901037 0
M  V30 8533 O 801.327 1.56415 0.766801 0
M  V30 8534 C 798.459 3.10881 1.39878 0
M  V30 8535 H 799.652 2.97163 -0.404219 0
M  V30 8536 H 797.205 1.54324 -0.247774 0
M  V30 8537 H 797.94 2.45767 2.11587 0
M  V30 8538 H 797.725 3.80219 0.957924 0
M  V30 8539 H 799.215 3.69673 1.94247 0
M  V30 8540 N 799.652 0.226554 1.55963 0
M  V30 8541 C 800.882 -0.407915 2.02533 0
M  V30 8542 C 801.29 -1.53539 1.10554 0
M  V30 8543 O 800.633 -1.8338 0.108409 0
M  V30 8544 C 800.695 -0.996081 3.45425 0
M  V30 8545 C 800.359 -0.00341651 4.57 0
M  V30 8546 C 801.356 0.798782 5.13727 0
M  V30 8547 C 799.041 0.116786 5.02164 0
M  V30 8548 C 801.035 1.70784 6.14094 0
M  V30 8549 C 798.722 1.02937 6.02368 0
M  V30 8550 C 799.72 1.82344 6.5821 0
M  V30 8551 O 799.408 2.72067 7.56462 0
M  V30 8552 H 799.14 -0.103524 0.668026 0
M  V30 8553 H 801.694 0.341937 2.02534 0
M  V30 8554 H 799.924 -1.79512 3.42509 0
M  V30 8555 H 801.613 -1.53848 3.75614 0
M  V30 8556 H 802.379 0.716393 4.7968 0
M  V30 8557 H 798.258 -0.491172 4.58376 0
M  V30 8558 H 801.802 2.32807 6.57607 0
M  V30 8559 H 797.699 1.11276 6.35836 0
M  V30 8560 H 798.467 2.66199 7.74003 0
M  V30 8561 N 801.13 -1.57531 -0.0467866 0
M  V30 8562 C 802.358 -1.92696 -0.753371 0
M  V30 8563 C 802.773 -0.824792 -1.69831 0
M  V30 8564 O 802.13 0.200155 -1.81399 0
M  V30 8565 C 802.181 -3.27728 -1.52566 0
M  V30 8566 O 801.902 -4.3371 -0.618674 0
M  V30 8567 C 803.403 -3.77066 -2.33101 0
M  V30 8568 H 800.623 -0.636367 -0.212788 0
M  V30 8569 H 803.167 -2.04498 -0.00959361 0
M  V30 8570 H 801.322 -3.17378 -2.22148 0
M  V30 8571 H 801.736 -5.11548 -1.15839 0
M  V30 8572 H 803.21 -4.74109 -2.82709 0
M  V30 8573 H 803.687 -3.07348 -3.13741 0
M  V30 8574 H 804.293 -3.90442 -1.68628 0
M  V30 8575 N 802.608 0.318715 -1.54344 0
M  V30 8576 C 804.019 0.89285 -1.63967 0
M  V30 8577 C 804.37 1.88712 -0.536855 0
M  V30 8578 O 803.495 2.13877 0.329457 0
M  V30 8579 C 804.09 1.62618 -2.97222 0
M  V30 8580 C 802.649 2.14897 -3.09025 0
M  V30 8581 C 801.796 0.975909 -2.5956 0
M  V30 8582 H 804.747 0.0961687 -1.58408 0
M  V30 8583 H 804.768 2.4907 -2.87653 0
M  V30 8584 H 804.28 0.902286 -3.77466 0
M  V30 8585 H 802.381 2.90387 -2.33465 0
M  V30 8586 H 802.494 2.39565 -4.14904 0
M  V30 8587 H 800.858 1.35646 -2.15574 0
M  V30 8588 H 801.641 0.266253 -3.42266 0
M  V30 8589 N 804.086 1.46499 0.581025 0
M  V30 8590 C 805.333 1.51896 1.33918 0
M  V30 8591 C 805.661 0.171361 1.93744 0
M  V30 8592 O 804.916 -0.833178 1.77078 0
M  V30 8593 C 805.215 2.56686 2.48691 0
M  V30 8594 C 804.881 4.00656 2.06847 0
M  V30 8595 C 803.543 4.39852 1.9515 0
M  V30 8596 C 805.895 4.91089 1.74589 0
M  V30 8597 C 803.223 5.67345 1.49456 0
M  V30 8598 C 805.575 6.1902 1.30373 0
M  V30 8599 C 804.239 6.57121 1.17255 0
M  V30 8600 H 803.509 0.555826 0.490039 0
M  V30 8601 H 806.156 1.79983 0.654092 0
M  V30 8602 H 804.461 2.22266 3.22653 0
M  V30 8603 H 806.158 2.58091 3.06904 0
M  V30 8604 H 802.748 3.69674 2.16886 0
M  V30 8605 H 806.932 4.61523 1.8251 0
M  V30 8606 H 802.188 5.95635 1.37944 0
M  V30 8607 H 806.362 6.8852 1.04467 0
M  V30 8608 H 803.989 7.55805 0.816236 0
M  V30 8609 N 805.565 -0.825799 1.34232 0
M  V30 8610 C 806.811 -1.58419 1.26614 0
M  V30 8611 C 807.144 -1.93503 -0.164341 0
M  V30 8612 O 806.419 -1.59785 -1.109 0
M  V30 8613 C 806.702 -2.8856 2.15418 0
M  V30 8614 C 806.555 -2.60075 3.66989 0
M  V30 8615 C 807.874 -3.90107 2.03726 0
M  V30 8616 H 804.993 -0.574794 0.461282 0
M  V30 8617 H 807.635 -0.951519 1.64457 0
M  V30 8618 H 805.785 -3.42553 1.83275 0
M  V30 8619 H 807.457 -2.12414 4.09485 0
M  V30 8620 H 805.7 -1.93565 3.88221 0
M  V30 8621 H 806.371 -3.52866 4.24488 0
M  V30 8622 H 808.847 -3.45459 2.31942 0
M  V30 8623 H 807.723 -4.78976 2.68092 0
M  V30 8624 H 807.984 -4.30329 1.01337 0
M  V30 8625 N 807.043 -1.17915 -1.04565 0
M  V30 8626 C 808.32 -0.881187 -1.74627 0
M  V30 8627 C 808.7 0.617123 -2.01878 0
M  V30 8628 O 808.048 1.57032 -1.65991 0
M  V30 8629 C 808.258 -1.72299 -3.03503 0
M  V30 8630 C 809.606 -1.94688 -3.77335 0
M  V30 8631 O 810.63 -1.6931 -3.13389 0
M  V30 8632 O 809.489 -2.37379 -4.92253 0
M  V30 8633 H 806.583 -0.326864 -0.759664 0
M  V30 8634 H 809.129 -1.28642 -1.10676 0
M  V30 8635 H 807.901 -2.73891 -2.79462 0
M  V30 8636 H 807.524 -1.31593 -3.75192 0
M  V30 8637 N 808.521 1.23394 -0.980386 0
M  V30 8638 C 809.469 2.26872 -0.513018 0
M  V30 8639 C 810.463 1.63853 0.429948 0
M  V30 8640 O 811.669 1.77417 0.303842 0
M  V30 8641 H 808.044 0.737398 -0.147473 0
M  V30 8642 H 810.015 2.63654 -1.39746 0
M  V30 8643 C 808.764 3.47289 0.168962 0
M  V30 8644 H 808.087 3.96033 -0.547546 0
M  V30 8645 H 809.527 4.21502 0.459616 0
M  V30 8646 C 807.986 3.06425 1.40019 0
M  V30 8647 O 808.516 3.14708 2.49643 0
M  V30 8648 N 806.722 2.61339 1.27084 0
M  V30 8649 H 806.269 2.54799 0.378872 0
M  V30 8650 H 806.227 2.34364 2.09573 0
M  V30 8651 N 809.999 0.752036 1.385 0
M  V30 8652 C 811.247 0.306895 1.99756 0
M  V30 8653 C 811.568 -1.11478 1.59992 0
M  V30 8654 O 810.838 -1.76206 0.856045 0
M  V30 8655 H 809.418 0.11048 0.738785 0
M  V30 8656 H 812.08 0.965785 1.69289 0
M  V30 8657 H 811.176 0.368797 3.09913 0
M  V30 8658 N 811.477 -1.49425 0.500989 0
M  V30 8659 C 812.754 -1.9531 -0.106551 0
M  V30 8660 C 813.134 -1.44248 -1.54129 0
M  V30 8661 O 812.482 -0.656237 -2.18874 0
M  V30 8662 C 812.692 -3.48995 -0.0191972 0
M  V30 8663 C 814.04 -4.24161 -0.193129 0
M  V30 8664 O 815.064 -3.56075 -0.0943843 0
M  V30 8665 O 813.923 -5.45064 -0.395869 0
M  V30 8666 H 811.017 -0.82149 -0.0953068 0
M  V30 8667 H 813.563 -1.6007 0.563526 0
M  V30 8668 H 812.335 -3.78794 0.981353 0
M  V30 8669 H 811.958 -3.90852 -0.72942 0
M  V30 8670 N 812.955 -0.234822 -1.55841 0
M  V30 8671 C 813.885 0.664217 -2.23854 0
M  V30 8672 C 814.866 1.19076 -1.2147 0
M  V30 8673 O 816.051 1.23232 -1.50091 0
M  V30 8674 C 813.181 1.86666 -2.9287 0
M  V30 8675 C 812.135 1.47341 -4.01839 0
M  V30 8676 C 811.461 2.75571 -4.58219 0
M  V30 8677 C 812.761 0.653479 -5.18196 0
M  V30 8678 H 814.455 0.0971213 -2.99242 0
M  V30 8679 H 812.001 0.0452724 -1.43929 0
M  V30 8680 H 813.954 2.50116 -3.39146 0
M  V30 8681 H 812.678 2.45894 -2.1495 0
M  V30 8682 H 811.337 0.862314 -3.56314 0
M  V30 8683 H 810.985 3.32971 -3.77014 0
M  V30 8684 H 810.685 2.49987 -5.31771 0
M  V30 8685 H 812.209 3.39939 -5.07221 0
M  V30 8686 H 813.623 1.19198 -5.60771 0
M  V30 8687 H 812.02 0.494188 -5.98062 0
M  V30 8688 H 813.09 -0.337004 -4.83728 0
M  V30 8689 N 814.433 1.57553 0.0384317 0
M  V30 8690 C 815.679 1.89121 0.732199 0
M  V30 8691 C 816.012 0.831404 1.75503 0
M  V30 8692 O 815.287 -0.154642 1.93884 0
M  V30 8693 C 815.57 3.31338 1.41021 0
M  V30 8694 C 815.423 4.48004 0.401532 0
M  V30 8695 C 816.742 3.72318 2.34665 0
M  V30 8696 H 813.861 0.687819 0.264715 0
M  V30 8697 H 816.503 1.89999 -0.00496279 0
M  V30 8698 H 814.653 3.3072 2.03854 0
M  V30 8699 H 816.325 4.60755 -0.224159 0
M  V30 8700 H 814.568 4.32895 -0.280092 0
M  V30 8701 H 815.239 5.44377 0.91423 0
M  V30 8702 H 817.715 3.74243 1.81883 0
M  V30 8703 H 816.591 4.72652 2.7909 0
M  V30 8704 H 816.852 3.04062 3.20934 0
M  V30 8705 N 815.911 -0.310526 1.54511 0
M  V30 8706 C 816.858 -1.38264 1.84802 0
M  V30 8707 C 817.828 -1.50808 0.696141 0
M  V30 8708 O 819.013 -1.6582 0.943846 0
M  V30 8709 C 816.153 -2.74422 2.09252 0
M  V30 8710 C 815.266 -2.70405 3.36906 0
M  V30 8711 C 814.401 -3.98495 3.51248 0
M  V30 8712 C 813.44 -3.88836 4.72729 0
M  V30 8713 N 812.577 -5.08683 4.83928 0
M  V30 8714 H 817.417 -1.11732 2.76261 0
M  V30 8715 H 814.954 -0.540609 1.36806 0
M  V30 8716 H 816.912 -3.53593 2.21422 0
M  V30 8717 H 815.542 -2.99235 1.2107 0
M  V30 8718 H 814.594 -1.83151 3.33406 0
M  V30 8719 H 815.906 -2.59155 4.26193 0
M  V30 8720 H 815.06 -4.861 3.63031 0
M  V30 8721 H 813.799 -4.12567 2.60077 0
M  V30 8722 H 812.804 -2.99615 4.60989 0
M  V30 8723 H 814.029 -3.76318 5.65298 0
M  V30 8724 H 811.975 -5.23236 3.95677 0
M  V30 8725 H 811.892 -4.99819 5.67201 0
M  V30 8726 H 813.16 -5.97966 5.00057 0
M  V30 8727 N 817.389 -1.46805 -0.573248 0
M  V30 8728 C 818.8 -1.46655 -1.15539 0
M  V30 8729 C 819.151 -0.2125 -1.95046 0
M  V30 8730 O 818.276 0.683759 -2.05314 0
M  V30 8731 C 818.871 -2.65711 -2.10198 0
M  V30 8732 C 817.43 -2.68572 -2.63716 0
M  V30 8733 C 816.577 -2.39498 -1.39772 0
M  V30 8734 H 819.528 -1.54547 -0.36068 0
M  V30 8735 H 819.549 -2.41768 -2.93817 0
M  V30 8736 H 819.061 -3.56967 -1.52303 0
M  V30 8737 H 817.162 -1.81414 -3.25453 0
M  V30 8738 H 817.275 -3.68809 -3.05805 0
M  V30 8739 H 815.639 -1.89749 -1.69904 0
M  V30 8740 H 816.422 -3.32942 -0.836943 0
M  V30 8741 N 818.867 0.818669 -1.34668 0
M  V30 8742 C 820.095 1.60674 -1.30351 0
M  V30 8743 C 820.51 1.88408 0.121546 0
M  V30 8744 O 819.867 1.47849 1.06991 0
M  V30 8745 C 819.918 2.94516 -2.09625 0
M  V30 8746 O 819.639 2.6799 -3.46573 0
M  V30 8747 C 821.14 3.8891 -2.12754 0
M  V30 8748 H 818.36 0.499306 -0.448258 0
M  V30 8749 H 820.904 1.01828 -1.77345 0
M  V30 8750 H 819.059 3.49908 -1.66262 0
M  V30 8751 H 819.473 3.53361 -3.87603 0
M  V30 8752 H 820.947 4.79972 -2.72637 0
M  V30 8753 H 821.424 4.24599 -1.12306 0
M  V30 8754 H 822.03 3.39453 -2.56225 0
M  V30 8755 N 820.346 1.18468 1.03938 0
M  V30 8756 C 821.276 0.936389 2.13902 0
M  V30 8757 C 822.257 -0.126381 1.6963 0
M  V30 8758 O 823.442 0.0264757 1.94182 0
M  V30 8759 C 820.572 0.462729 3.44204 0
M  V30 8760 C 819.526 1.46613 4.02105 0
M  V30 8761 C 818.852 0.84994 5.27902 0
M  V30 8762 C 820.152 2.84323 4.3813 0
M  V30 8763 H 821.846 1.85602 2.3493 0
M  V30 8764 H 819.392 0.893806 1.12903 0
M  V30 8765 H 821.345 0.276382 4.20493 0
M  V30 8766 H 820.069 -0.492477 3.22866 0
M  V30 8767 H 818.728 1.63944 3.27899 0
M  V30 8768 H 818.376 -0.112493 5.02874 0
M  V30 8769 H 818.076 1.51988 5.67603 0
M  V30 8770 H 819.6 0.674152 6.06867 0
M  V30 8771 H 821.014 2.70636 5.054 0
M  V30 8772 H 819.411 3.48012 4.88884 0
M  V30 8773 H 820.481 3.37776 3.47901 0
M  V30 8774 N 821.824 -1.22873 0.986916 0
M  V30 8775 C 823.073 -1.90772 0.654911 0
M  V30 8776 C 823.386 -1.77768 -0.81595 0
M  V30 8777 O 824.592 -2.40529 -1.25929 0
M  V30 8778 C 823.048 -3.42003 1.12081 0
M  V30 8779 C 822.656 -3.63655 2.61647 0
M  V30 8780 C 824.4 -4.15638 0.862854 0
M  V30 8781 C 822.307 -5.08555 3.01871 0
M  V30 8782 H 821.237 -0.714362 0.241252 0
M  V30 8783 H 823.888 -1.39196 1.19568 0
M  V30 8784 H 822.27 -3.92725 0.508207 0
M  V30 8785 H 823.444 -3.2345 3.28202 0
M  V30 8786 H 821.759 -3.03341 2.8526 0
M  V30 8787 H 824.356 -5.22425 1.13915 0
M  V30 8788 H 824.699 -4.15814 -0.201036 0
M  V30 8789 H 825.232 -3.70924 1.43736 0
M  V30 8790 H 821.971 -5.13514 4.07411 0
M  V30 8791 H 821.491 -5.49684 2.40015 0
M  V30 8792 H 823.17 -5.76936 2.92839 0
M  V30 8793 N 823.302 -0.75937 -1.38099 0
M  V30 8794 C 824.249 -0.135508 -2.30402 0
M  V30 8795 C 825.219 0.703356 -1.50473 0
M  V30 8796 O 826.404 0.658287 -1.79084 0
M  V30 8797 C 823.544 0.747228 -3.36913 0
M  V30 8798 C 822.657 -0.106893 -4.31868 0
M  V30 8799 C 821.792 0.779388 -5.25451 0
M  V30 8800 C 820.831 -0.0780179 -6.1205 0
M  V30 8801 N 819.968 0.765545 -6.97914 0
M  V30 8802 H 824.808 -0.9282 -2.83176 0
M  V30 8803 H 822.345 -0.46935 -1.39411 0
M  V30 8804 H 824.303 1.27371 -3.97281 0
M  V30 8805 H 822.933 1.50565 -2.85535 0
M  V30 8806 H 821.985 -0.751063 -3.72912 0
M  V30 8807 H 823.297 -0.768798 -4.9284 0
M  V30 8808 H 822.451 1.37282 -5.90964 0
M  V30 8809 H 821.19 1.47501 -4.6486 0
M  V30 8810 H 820.195 -0.684078 -5.45528 0
M  V30 8811 H 821.42 -0.770786 -6.74712 0
M  V30 8812 H 819.366 1.44601 -6.39864 0
M  V30 8813 H 819.283 0.160666 -7.55829 0
M  V30 8814 H 820.551 1.34377 -7.6783 0
M  V30 8815 N 824.78 1.49157 -0.508906 0
M  V30 8816 C 825.727 2.2927 0.265288 0
M  V30 8817 C 826.697 1.3603 0.953162 0
M  V30 8818 O 827.882 1.64989 0.958291 0
M  V30 8819 C 825.022 3.18897 1.31904 0
M  V30 8820 C 824.135 4.27201 0.642144 0
M  V30 8821 C 823.27 5.04033 1.67701 0
M  V30 8822 C 822.309 6.04165 0.982422 0
M  V30 8823 N 821.446 6.74133 1.96186 0
M  V30 8824 H 826.286 2.94967 -0.424107 0
M  V30 8825 H 823.823 1.45431 -0.220991 0
M  V30 8826 H 825.781 3.69242 1.94206 0
M  V30 8827 H 824.411 2.55168 1.97709 0
M  V30 8828 H 823.463 3.80283 -0.0943395 0
M  V30 8829 H 824.775 4.98708 0.0957507 0
M  V30 8830 H 823.929 5.58287 2.37487 0
M  V30 8831 H 822.668 4.32317 2.25728 0
M  V30 8832 H 821.673 5.49135 0.270378 0
M  V30 8833 H 822.898 6.7787 0.408554 0
M  V30 8834 H 820.844 6.05183 2.53159 0
M  V30 8835 H 820.761 7.41643 1.46634 0
M  V30 8836 H 822.029 7.32987 2.65236 0
M  V30 8837 N 826.258 0.243083 1.55714 0
M  V30 8838 C 827.535 -0.432851 1.90751 0
M  V30 8839 C 827.915 -1.76153 1.16333 0
M  V30 8840 O 827.263 -2.26783 0.279565 0
M  V30 8841 C 827.473 -0.604685 3.43722 0
M  V30 8842 C 828.821 -0.90231 4.14902 0
M  V30 8843 O 829.845 -0.690689 3.49439 0
M  V30 8844 O 828.704 -1.3051 5.30688 0
M  V30 8845 H 825.798 -0.231835 0.79384 0
M  V30 8846 H 828.344 0.286867 1.67258 0
M  V30 8847 H 827.116 0.331655 3.89892 0
M  V30 8848 H 826.739 -1.37509 3.73065 0
M  V30 8849 N 827.736 -1.57571 -0.0300757 0
M  V30 8850 C 828.961 -1.93879 -0.736601 0
M  V30 8851 C 829.386 -0.842998 -1.68152 0
M  V30 8852 O 828.744 0.20135 -1.80178 0
M  V30 8853 C 828.792 -3.29247 -1.47066 0
M  V30 8854 O 827.896 -3.21426 -2.58378 0
M  V30 8855 H 827.237 -0.633735 -0.198181 0
M  V30 8856 H 829.767 -2.04595 0.0141485 0
M  V30 8857 H 829.777 -3.64113 -1.84081 0
M  V30 8858 H 828.452 -4.08565 -0.77764 0
M  V30 8859 H 827.029 -2.98189 -2.23914 0
M  V30 8860 N 829.214 0.302327 -1.54673 0
M  V30 8861 C 830.146 1.39443 -1.81902 0
M  V30 8862 C 831.159 1.46891 -0.701914 0
M  V30 8863 O 832.348 1.49233 -0.979369 0
M  V30 8864 C 829.448 2.77824 -1.9408 0
M  V30 8865 C 828.621 2.93324 -3.24468 0
M  V30 8866 C 827.68 4.12196 -3.27079 0
M  V30 8867 O 826.706 4.04344 -4.00617 0
M  V30 8868 N 827.908 5.22768 -2.52376 0
M  V30 8869 H 830.673 1.1644 -2.76155 0
M  V30 8870 H 828.234 0.492392 -1.54231 0
M  V30 8871 H 830.226 3.5559 -1.9323 0
M  V30 8872 H 828.796 2.9378 -1.06828 0
M  V30 8873 H 828.016 2.02682 -3.38103 0
M  V30 8874 H 829.304 3.0059 -4.10516 0
M  V30 8875 H 828.702 5.32027 -1.92259 0
M  V30 8876 H 827.259 5.98874 -2.57281 0
M  V30 8877 N 830.692 1.47107 0.565454 0
M  V30 8878 C 831.92 1.56909 1.3486 0
M  V30 8879 C 832.335 0.216312 1.87557 0
M  V30 8880 O 831.692 -0.789168 1.64555 0
M  V30 8881 C 831.743 2.58776 2.52423 0
M  V30 8882 O 831.464 3.888 2.01906 0
M  V30 8883 C 832.965 2.78683 3.44747 0
M  V30 8884 H 830.185 0.530096 0.411387 0
M  V30 8885 H 832.729 1.92658 0.685782 0
M  V30 8886 H 830.884 2.25983 3.1466 0
M  V30 8887 H 831.298 4.44393 2.78595 0
M  V30 8888 H 832.772 3.53842 4.23674 0
M  V30 8889 H 833.249 1.86208 3.97773 0
M  V30 8890 H 833.855 3.12641 2.88333 0
M  V30 8891 N 832.17 -0.811516 1.35101 0
M  V30 8892 C 833.133 -1.90467 1.27495 0
M  V30 8893 C 834.133 -1.59703 0.187516 0
M  V30 8894 O 835.323 -1.68528 0.440896 0
M  V30 8895 C 832.455 -3.26774 0.971154 0
M  V30 8896 H 833.648 -1.98631 2.2469 0
M  V30 8897 H 831.201 -1.00681 1.19553 0
M  V30 8898 H 831.936 -3.243 0.0028557 0
M  V30 8899 H 831.721 -3.50488 1.75785 0
M  V30 8900 H 833.211 -4.06804 0.943414 0
M  V30 8901 N 833.648 -1.19017 -1.03309 0
M  V30 8902 C 834.925 -0.899659 -1.73682 0
M  V30 8903 C 835.305 0.595677 -2.02521 0
M  V30 8904 O 834.653 1.55263 -1.67648 0
M  V30 8905 C 834.863 -1.75508 -3.01659 0
M  V30 8906 C 836.211 -1.98679 -3.75249 0
M  V30 8907 O 837.235 -1.72624 -3.11576 0
M  V30 8908 O 836.094 -2.42587 -4.89708 0
M  V30 8909 H 833.188 -0.334903 -0.756154 0
M  V30 8910 H 835.734 -1.29809 -1.09305 0
M  V30 8911 H 834.506 -2.7684 -2.76542 0
M  V30 8912 H 834.129 -1.35565 -3.73775 0
M  V30 8913 N 835.127 1.22348 -0.993418 0
M  V30 8914 C 836.373 1.91393 -0.67056 0
M  V30 8915 C 836.706 1.77163 0.795428 0
M  V30 8916 O 835.981 1.14084 1.57528 0
M  V30 8917 C 836.264 3.43589 -1.0779 0
M  V30 8918 C 836.117 3.66867 -2.60248 0
M  V30 8919 C 837.436 4.35545 -0.631527 0
M  V30 8920 H 834.555 0.695057 -0.24508 0
M  V30 8921 H 837.197 1.44213 -1.23703 0
M  V30 8922 H 835.347 3.83903 -0.595902 0
M  V30 8923 H 837.019 3.35954 -3.16121 0
M  V30 8924 H 835.262 3.1113 -3.02293 0
M  V30 8925 H 835.933 4.73457 -2.838 0
M  V30 8926 H 838.409 4.0275 -1.04554 0
M  V30 8927 H 837.285 5.40707 -0.944831 0
M  V30 8928 H 837.546 4.39618 0.467779 0
M  V30 8929 N 836.605 0.766683 1.37694 0
M  V30 8930 C 837.851 0.338201 2.00569 0
M  V30 8931 C 838.206 -1.07196 1.59771 0
M  V30 8932 O 837.499 -1.72622 0.831402 0
M  V30 8933 C 837.693 0.413831 3.54996 0
M  V30 8934 C 837.522 1.8298 4.1079 0
M  V30 8935 C 836.292 2.44932 4.41969 0
M  V30 8936 C 838.49 2.78852 4.32141 0
M  V30 8937 N 836.472 3.78353 4.83448 0
M  V30 8938 C 837.843 3.97063 4.76174 0
M  V30 8939 C 839.898 2.76205 4.14265 0
M  V30 8940 C 838.601 5.13003 5.04203 0
M  V30 8941 C 840.627 3.91314 4.43427 0
M  V30 8942 C 839.989 5.08265 4.87694 0
M  V30 8943 H 836.088 0.170693 0.763143 0
M  V30 8944 H 838.672 0.999435 1.67091 0
M  V30 8945 H 836.843 -0.217198 3.87792 0
M  V30 8946 H 838.575 -0.036222 4.04684 0
M  V30 8947 H 835.33 1.9659 4.3087 0
M  V30 8948 H 835.754 4.46937 5.08504 0
M  V30 8949 H 840.396 1.86962 3.79216 0
M  V30 8950 H 838.114 6.0285 5.38142 0
M  V30 8951 H 841.7 3.906 4.31187 0
M  V30 8952 H 840.58 5.95858 5.09827 0
M  V30 8953 N 838.083 -1.48885 0.516809 0
M  V30 8954 C 839.033 -2.26363 -0.272704 0
M  V30 8955 C 840.017 -1.31891 -0.921604 0
M  V30 8956 O 841.209 -1.56514 -0.826589 0
M  V30 8957 C 838.338 -3.16614 -1.32705 0
M  V30 8958 C 837.424 -4.18554 -0.683598 0
M  V30 8959 N 837.815 -5.05308 0.223015 0
M  V30 8960 C 836.113 -4.35931 -0.942351 0
M  V30 8961 C 836.814 -5.7867 0.592918 0
M  V30 8962 N 835.79 -5.43583 -0.042912 0
M  V30 8963 H 839.592 -2.90811 0.424971 0
M  V30 8964 H 837.106 -1.5893 0.333941 0
M  V30 8965 H 839.103 -3.70766 -1.90625 0
M  V30 8966 H 837.763 -2.5372 -2.02624 0
M  V30 8967 H 838.774 -5.14473 0.594818 0
M  V30 8968 H 835.451 -3.84234 -1.6331 0
M  V30 8969 H 836.841 -6.58493 1.33556 0
M  V30 8970 N 839.561 -0.251338 -1.55583 0
M  V30 8971 C 840.508 0.646337 -2.21565 0
M  V30 8972 C 841.478 1.16796 -1.18102 0
M  V30 8973 O 842.663 1.22162 -1.46564 0
M  V30 8974 C 839.803 1.83557 -2.92234 0
M  V30 8975 C 838.916 1.35006 -4.10363 0
M  V30 8976 C 838.051 2.4992 -4.68736 0
M  V30 8977 C 837.09 1.98253 -5.79105 0
M  V30 8978 N 836.227 3.06551 -6.31642 0
M  V30 8979 H 841.067 0.0769881 -2.97901 0
M  V30 8980 H 838.604 0.026238 -1.47077 0
M  V30 8981 H 840.562 2.53425 -3.31408 0
M  V30 8982 H 839.192 2.37733 -2.18364 0
M  V30 8983 H 838.244 0.545274 -3.76472 0
M  V30 8984 H 839.556 0.931435 -4.90026 0
M  V30 8985 H 838.71 3.27823 -5.10507 0
M  V30 8986 H 837.449 2.95086 -3.88298 0
M  V30 8987 H 836.454 1.18822 -5.36807 0
M  V30 8988 H 837.679 1.54051 -6.61396 0
M  V30 8989 H 835.625 3.51143 -5.54107 0
M  V30 8990 H 835.542 2.69033 -7.06511 0
M  V30 8991 H 836.81 3.84499 -6.78071 0
M  V30 8992 N 841.039 1.57585 0.0217189 0
M  V30 8993 C 841.971 2.03849 1.04777 0
M  V30 8994 C 842.984 0.952558 1.32023 0
M  V30 8995 O 844.173 1.22974 1.29381 0
M  V30 8996 C 841.273 2.40504 2.3877 0
M  V30 8997 C 840.446 3.71566 2.30775 0
M  V30 8998 C 839.505 3.95329 3.47277 0
M  V30 8999 O 838.531 4.66289 3.26441 0
M  V30 9000 N 839.733 3.41536 4.69397 0
M  V30 9001 H 842.498 2.92491 0.653395 0
M  V30 9002 H 840.059 1.60538 0.209527 0
M  V30 9003 H 842.051 2.53532 3.15442 0
M  V30 9004 H 840.621 1.57494 2.70027 0
M  V30 9005 H 839.841 3.68822 1.39155 0
M  V30 9006 H 841.129 4.5753 2.22584 0
M  V30 9007 H 840.527 2.84033 4.89226 0
M  V30 9008 H 839.084 3.59932 5.43408 0
M  V30 9009 N 842.517 -0.29412 1.54831 0
M  V30 9010 C 843.763 -1.02999 1.74697 0
M  V30 9011 C 844.096 -1.86687 0.534949 0
M  V30 9012 O 843.371 -1.88789 -0.467863 0
M  V30 9013 C 843.654 -1.93024 3.03996 0
M  V30 9014 C 843.507 -1.1247 4.35512 0
M  V30 9015 C 844.826 -2.92085 3.29203 0
M  V30 9016 H 841.945 -0.373039 0.635618 0
M  V30 9017 H 844.587 -0.304065 1.87551 0
M  V30 9018 H 842.737 -2.5492 2.93169 0
M  V30 9019 H 844.409 -0.528067 4.58268 0
M  V30 9020 H 842.652 -0.427574 4.31688 0
M  V30 9021 H 843.323 -1.78728 5.22265 0
M  V30 9022 H 845.799 -2.40319 3.39685 0
M  V30 9023 H 844.675 -3.52234 4.20978 0
M  V30 9024 H 844.936 -3.66107 2.47827 0
M  V30 9025 N 843.995 -1.47404 -0.557645 0
M  V30 9026 C 845.241 -1.54235 -1.31679 0
M  V30 9027 C 845.574 -0.203782 -1.93128 0
M  V30 9028 O 844.849 0.787536 -1.77843 0
M  V30 9029 C 845.132 -2.66003 -2.42723 0
M  V30 9030 C 844.985 -4.09475 -1.86145 0
M  V30 9031 C 846.304 -2.73685 -3.44652 0
M  V30 9032 H 843.423 -0.561466 -0.477415 0
M  V30 9033 H 846.065 -1.79459 -0.624067 0
M  V30 9034 H 844.215 -2.44627 -3.01811 0
M  V30 9035 H 845.887 -4.42213 -1.31321 0
M  V30 9036 H 844.13 -4.17774 -1.16823 0
M  V30 9037 H 844.801 -4.83451 -2.66418 0
M  V30 9038 H 847.277 -2.92968 -2.95481 0
M  V30 9039 H 846.153 -3.53665 -4.19777 0
M  V30 9040 H 846.414 -1.80726 -4.03473 0
M  V30 9041 N 845.473 0.80434 -1.35529 0
M  V30 9042 C 846.701 1.59283 -1.32048 0
M  V30 9043 C 847.116 1.88527 0.101556 0
M  V30 9044 O 846.473 1.48975 1.05417 0
M  V30 9045 C 846.524 2.92276 -2.12737 0
M  V30 9046 O 846.245 2.64299 -3.49396 0
M  V30 9047 C 847.746 3.86631 -2.16867 0
M  V30 9048 H 844.966 0.494523 -0.453528 0
M  V30 9049 H 847.51 0.999415 -1.78415 0
M  V30 9050 H 845.665 3.48125 -1.69964 0
M  V30 9051 H 846.079 3.4923 -3.91329 0
M  V30 9052 H 847.553 4.77053 -2.77712 0
M  V30 9053 H 848.03 4.23384 -1.16803 0
M  V30 9054 H 848.636 3.36717 -2.59811 0
M  V30 9055 N 846.951 1.19563 1.02676 0
M  V30 9056 C 847.898 0.935291 2.11 0
M  V30 9057 C 848.868 -0.130685 1.65585 0
M  V30 9058 O 850.053 0.0119062 1.90796 0
M  V30 9059 C 847.193 0.482384 3.41712 0
M  V30 9060 C 846.306 1.61537 4.00662 0
M  V30 9061 C 845.441 1.11378 5.19392 0
M  V30 9062 C 844.48 2.22052 5.70403 0
M  V30 9063 N 843.617 1.73185 6.80405 0
M  V30 9064 H 848.457 1.86275 2.32606 0
M  V30 9065 H 845.994 0.928656 1.14081 0
M  V30 9066 H 847.952 0.20118 4.16715 0
M  V30 9067 H 846.582 -0.408086 3.2021 0
M  V30 9068 H 845.634 2.01173 3.22852 0
M  V30 9069 H 846.946 2.44912 4.34534 0
M  V30 9070 H 846.1 0.787935 6.01562 0
M  V30 9071 H 844.839 0.249789 4.8706 0
M  V30 9072 H 843.844 2.55465 4.86845 0
M  V30 9073 H 845.069 3.08911 6.04774 0
M  V30 9074 H 843.015 0.890973 6.49921 0
M  V30 9075 H 842.932 2.50148 7.13416 0
M  V30 9076 H 844.2 1.4357 7.66164 0
M  V30 9077 N 848.429 -1.21819 0.999893 0
M  V30 9078 C 849.339 -2.27691 0.565159 0
M  V30 9079 C 850.355 -1.69587 -0.389398 0
M  V30 9080 O 851.531 -1.99786 -0.254499 0
M  V30 9081 C 848.596 -3.46537 -0.106432 0
M  V30 9082 C 847.657 -4.19932 0.891964 0
M  V30 9083 C 846.89 -5.33103 0.252327 0
M  V30 9084 O 847.113 -5.62398 -0.952103 0
M  V30 9085 O 846.047 -5.94184 0.960698 0
M  V30 9086 H 849.873 -2.67059 1.44613 0
M  V30 9087 H 847.458 -1.28119 0.768499 0
M  V30 9088 H 849.34 -4.18631 -0.482301 0
M  V30 9089 H 848.015 -3.09079 -0.961865 0
M  V30 9090 H 846.922 -3.5008 1.3189 0
M  V30 9091 H 848.255 -4.61287 1.71682 0
M  V30 9092 N 849.908 -0.773975 -1.37286 0
M  V30 9093 C 851.156 -0.338636 -1.99243 0
M  V30 9094 C 851.477 1.08919 -1.61746 0
M  V30 9095 O 850.747 1.74822 -0.88397 0
M  V30 9096 H 849.327 -0.12222 -0.736934 0
M  V30 9097 H 851.989 -0.992595 -1.67731 0
M  V30 9098 H 851.085 -0.418055 -3.09287 0
M  V30 9099 N 851.386 1.48609 -0.524698 0
M  V30 9100 C 852.349 2.28041 0.230166 0
M  V30 9101 C 853.349 1.35065 0.872584 0
M  V30 9102 O 854.539 1.58007 0.73345 0
M  V30 9103 C 851.671 3.13778 1.33252 0
M  V30 9104 H 852.864 2.96239 -0.467161 0
M  V30 9105 H 850.417 1.53763 -0.280452 0
M  V30 9106 H 851.152 2.502 2.06327 0
M  V30 9107 H 850.937 3.82165 0.877058 0
M  V30 9108 H 852.427 3.7371 1.86362 0
M  V30 9109 N 852.864 0.259585 1.55447 0
M  V30 9110 C 853.827 -0.621359 2.20617 0
M  V30 9111 C 854.827 -1.09317 1.17925 0
M  V30 9112 O 856.017 -0.995842 1.42929 0
M  V30 9113 C 853.149 -1.85546 2.85982 0
M  V30 9114 H 854.342 -0.0525833 2.99854 0
M  V30 9115 H 851.895 0.0101055 1.56297 0
M  V30 9116 H 852.63 -2.46515 2.10715 0
M  V30 9117 H 852.415 -1.52523 3.61219 0
M  V30 9118 H 853.905 -2.48227 3.35817 0
M  V30 9119 N 854.342 -1.57594 -0.0133615 0
M  V30 9120 C 855.619 -1.81173 -0.737273 0
M  V30 9121 C 855.999 -0.861395 -1.92726 0
M  V30 9122 O 855.347 0.0929324 -2.28311 0
M  V30 9123 C 855.557 -3.29314 -1.15557 0
M  V30 9124 C 856.905 -3.94707 -1.56498 0
M  V30 9125 O 857.929 -3.33557 -1.24973 0
M  V30 9126 O 856.788 -5.02402 -2.15069 0
M  V30 9127 H 853.882 -0.745575 -0.357837 0
M  V30 9128 H 856.428 -1.69696 0.0110674 0
M  V30 9129 H 855.2 -3.90096 -0.30677 0
M  V30 9130 H 854.823 -3.45739 -1.96343 0
M  V30 9131 N 855.82 0.285905 -1.54985 0
M  V30 9132 C 857.069 1.01691 -1.74189 0
M  V30 9133 C 857.382 1.87908 -0.543135 0
M  V30 9134 O 858.588 2.64389 -0.617305 0
M  V30 9135 C 857.044 1.85785 -3.0824 0
M  V30 9136 C 856.652 1.04497 -4.35642 0
M  V30 9137 C 858.396 2.58393 -3.36798 0
M  V30 9138 C 856.303 1.87955 -5.60738 0
M  V30 9139 H 855.233 0.383396 -0.649248 0
M  V30 9140 H 857.884 0.27317 -1.81455 0
M  V30 9141 H 856.266 2.64205 -2.94978 0
M  V30 9142 H 857.44 0.305847 -4.59784 0
M  V30 9143 H 855.755 0.434023 -4.14132 0
M  V30 9144 H 858.352 3.21214 -4.27464 0
M  V30 9145 H 858.695 3.28011 -2.56349 0
M  V30 9146 H 859.228 1.87012 -3.511 0
M  V30 9147 H 855.967 1.22781 -6.43898 0
M  V30 9148 H 855.487 2.59499 -5.40759 0
M  V30 9149 H 857.166 2.45636 -5.98558 0
M  V30 9150 N 857.298 1.47698 0.54982 0
M  V30 9151 C 858.526 1.5833 1.33188 0
M  V30 9152 C 858.941 0.236193 1.87317 0
M  V30 9153 O 858.298 -0.77167 1.65383 0
M  V30 9154 C 858.349 2.61438 2.49664 0
M  V30 9155 O 858.07 3.9092 1.97771 0
M  V30 9156 C 859.571 2.82324 3.41772 0
M  V30 9157 H 856.791 0.53443 0.405741 0
M  V30 9158 H 859.335 1.93375 0.665309 0
M  V30 9159 H 857.49 2.29307 3.12245 0
M  V30 9160 H 857.904 4.47323 2.73866 0
M  V30 9161 H 859.378 3.58316 4.19897 0
M  V30 9162 H 859.855 1.90416 3.95776 0
M  V30 9163 H 860.461 3.15682 2.85 0
M  V30 9164 N 858.776 -0.797141 1.35954 0
M  V30 9165 C 859.723 -1.90944 1.2965 0
M  V30 9166 C 860.693 -1.65262 0.166628 0
M  V30 9167 O 861.878 -1.87527 0.351883 0
M  V30 9168 C 859.018 -3.27637 1.08389 0
M  V30 9169 C 858.131 -3.65442 2.30382 0
M  V30 9170 C 857.266 -4.91213 2.02195 0
M  V30 9171 C 856.305 -5.21674 3.20191 0
M  V30 9172 N 855.442 -6.38627 2.91719 0
M  V30 9173 H 860.282 -1.95668 2.24762 0
M  V30 9174 H 857.819 -0.95696 1.11717 0
M  V30 9175 H 859.777 -4.06451 0.940912 0
M  V30 9176 H 858.407 -3.22355 0.169351 0
M  V30 9177 H 857.459 -2.81813 2.55511 0
M  V30 9178 H 858.771 -3.83907 3.18461 0
M  V30 9179 H 857.925 -5.77876 1.84783 0
M  V30 9180 H 856.664 -4.74803 1.11416 0
M  V30 9181 H 855.669 -4.33498 3.38171 0
M  V30 9182 H 856.894 -5.40009 4.11786 0
M  V30 9183 H 854.84 -6.23623 2.03543 0
M  V30 9184 H 854.757 -6.57387 3.73334 0
M  V30 9185 H 856.025 -7.28292 2.77868 0
M  V30 9186 N 860.254 -1.20106 -1.0204 0
M  V30 9187 C 861.502 -1.0069 -1.75231 0
M  V30 9188 C 861.823 0.462491 -1.89436 0
M  V30 9189 O 861.093 1.33455 -1.4341 0
M  V30 9190 H 859.673 -0.369576 -0.649171 0
M  V30 9191 H 862.335 -1.51149 -1.23044 0
M  V30 9192 H 861.431 -1.46205 -2.75736 0
M  V30 9193 N 861.732 1.21287 -1.00634 0
M  V30 9194 C 862.662 2.25973 -0.588089 0
M  V30 9195 C 863.643 1.65527 0.391764 0
M  V30 9196 O 864.828 1.92179 0.279452 0
M  V30 9197 C 861.958 3.47197 0.0847336 0
M  V30 9198 C 860.912 4.20168 -0.815039 0
M  V30 9199 C 860.238 5.34699 -0.00855393 0
M  V30 9200 C 861.538 4.77416 -2.11828 0
M  V30 9201 H 863.232 2.61212 -1.46317 0
M  V30 9202 H 860.778 1.25563 -0.704985 0
M  V30 9203 H 862.731 4.19602 0.388821 0
M  V30 9204 H 861.455 3.11092 0.994456 0
M  V30 9205 H 860.114 3.49614 -1.10297 0
M  V30 9206 H 859.762 4.94837 0.902499 0
M  V30 9207 H 859.462 5.84449 -0.607664 0
M  V30 9208 H 860.986 6.09914 0.289317 0
M  V30 9209 H 862.4 5.41694 -1.87725 0
M  V30 9210 H 860.797 5.37561 -2.66736 0
M  V30 9211 H 861.867 3.96724 -2.78816 0
M  V30 9212 N 863.21 0.781244 1.36873 0
M  V30 9213 C 864.157 0.172146 2.30157 0
M  V30 9214 C 865.127 -0.679328 1.51573 0
M  V30 9215 O 866.312 -0.629713 1.80109 0
M  V30 9216 C 863.452 -0.693534 3.38059 0
M  V30 9217 C 862.565 0.175586 4.31643 0
M  V30 9218 C 861.7 -0.695695 5.26625 0
M  V30 9219 C 860.739 0.17538 6.11849 0
M  V30 9220 N 859.876 -0.654416 6.99043 0
M  V30 9221 H 864.716 0.973133 2.81663 0
M  V30 9222 H 862.253 0.491469 1.38647 0
M  V30 9223 H 864.211 -1.21035 3.99257 0
M  V30 9224 H 862.841 -1.46003 2.87894 0
M  V30 9225 H 861.893 0.810295 3.7167 0
M  V30 9226 H 863.205 0.847107 4.91554 0
M  V30 9227 H 862.359 -1.27863 5.93073 0
M  V30 9228 H 861.098 -1.40087 4.67148 0
M  V30 9229 H 860.103 0.77078 5.4437 0
M  V30 9230 H 861.328 0.87803 6.734 0
M  V30 9231 H 859.274 -1.34403 6.42084 0
M  V30 9232 H 859.191 -0.0403998 7.55989 0
M  V30 9233 H 860.459 -1.22144 7.69871 0
M  V30 9234 N 864.689 -1.48329 0.532571 0
M  V30 9235 C 865.937 -2.021 -0.000581206 0
M  V30 9236 C 866.258 -1.4117 -1.34522 0
M  V30 9237 O 865.528 -0.578005 -1.87179 0
M  V30 9238 H 864.108 -0.746993 -0.00320281 0
M  V30 9239 H 866.77 -1.82011 0.696991 0
M  V30 9240 H 865.866 -3.11917 -0.106991 0
M  V30 9241 N 866.167 -0.267825 -1.55308 0
M  V30 9242 C 867.413 0.351556 -1.9973 0
M  V30 9243 C 867.746 1.56049 -1.15596 0
M  V30 9244 O 867.021 1.93203 -0.224274 0
M  V30 9245 C 867.304 0.74091 -3.52395 0
M  V30 9246 C 867.157 -0.474861 -4.47286 0
M  V30 9247 C 868.476 1.5801 -4.10756 0
M  V30 9248 H 865.595 0.126308 -0.726096 0
M  V30 9249 H 868.237 -0.373316 -1.86296 0
M  V30 9250 H 866.387 1.35851 -3.63973 0
M  V30 9251 H 868.059 -1.1134 -4.47662 0
M  V30 9252 H 866.302 -1.11425 -4.19246 0
M  V30 9253 H 866.973 -0.158782 -5.51772 0
M  V30 9254 H 869.449 1.05857 -4.0241 0
M  V30 9255 H 868.325 1.82135 -5.17801 0
M  V30 9256 H 868.586 2.55878 -3.60526 0
M  V30 9257 N 867.645 1.57599 0.00500368 0
M  V30 9258 C 868.891 1.90631 0.691919 0
M  V30 9259 C 869.224 0.868443 1.737 0
M  V30 9260 O 868.499 -0.113482 1.94169 0
M  V30 9261 C 868.782 3.34255 1.33961 0
M  V30 9262 C 868.635 4.48755 0.306413 0
M  V30 9263 C 869.954 3.77211 2.26715 0
M  V30 9264 H 867.073 0.693279 0.250066 0
M  V30 9265 H 869.715 1.89946 -0.0452634 0
M  V30 9266 H 867.865 3.3497 1.96793 0
M  V30 9267 H 869.537 4.60176 -0.321841 0
M  V30 9268 H 867.78 4.32203 -0.371852 0
M  V30 9269 H 868.451 5.46193 0.798554 0
M  V30 9270 H 870.927 3.78017 1.73904 0
M  V30 9271 H 869.803 4.78466 2.69002 0
M  V30 9272 H 870.064 3.10801 3.14413 0
M  V30 9273 N 869.123 -0.277682 1.55134 0
M  V30 9274 C 870.033 -1.36524 1.90783 0
M  V30 9275 C 871.049 -1.54283 0.804542 0
M  V30 9276 O 872.225 -1.68499 1.10318 0
M  V30 9277 C 869.29 -2.70524 2.16835 0
M  V30 9278 C 868.351 -2.61552 3.40424 0
M  V30 9279 C 867.584 -3.89162 3.65224 0
M  V30 9280 O 867.807 -4.89624 2.92616 0
M  V30 9281 O 866.741 -3.89647 4.58758 0
M  V30 9282 H 870.567 -1.0929 2.83354 0
M  V30 9283 H 868.152 -0.475799 1.41621 0
M  V30 9284 H 870.034 -3.49765 2.35038 0
M  V30 9285 H 868.709 -2.97555 1.27448 0
M  V30 9286 H 867.616 -1.80704 3.27562 0
M  V30 9287 H 868.949 -2.39472 4.30016 0
M  V30 9288 N 870.601 -1.47988 -0.541979 0
M  V30 9289 C 871.878 -1.45878 -1.30303 0
M  V30 9290 C 872.258 -0.163931 -2.10463 0
M  V30 9291 O 871.606 0.854479 -2.11922 0
M  V30 9292 C 871.816 -2.71359 -2.19466 0
M  V30 9293 C 873.164 -3.19199 -2.79995 0
M  V30 9294 O 874.188 -2.72193 -2.2976 0
M  V30 9295 O 873.047 -4.00961 -3.71339 0
M  V30 9296 H 870.141 -0.582043 -0.587498 0
M  V30 9297 H 872.687 -1.60207 -0.559623 0
M  V30 9298 H 871.459 -3.57122 -1.59936 0
M  V30 9299 H 871.082 -2.59692 -3.01075 0
M  V30 9300 N 872.079 0.78992 -1.36375 0
M  V30 9301 C 872.989 1.93386 -1.32812 0
M  V30 9302 C 874.005 1.72468 -0.230377 0
M  V30 9303 O 875.181 1.96014 -0.462657 0
M  V30 9304 C 872.246 3.2824 -1.11621 0
M  V30 9305 C 871.307 3.61939 -2.30865 0
M  V30 9306 C 870.54 4.90359 -2.10675 0
M  V30 9307 O 870.763 5.6005 -1.08168 0
M  V30 9308 O 869.697 5.22702 -2.9844 0
M  V30 9309 H 873.523 1.99342 -2.29121 0
M  V30 9310 H 871.108 0.9301 -1.16917 0
M  V30 9311 H 872.99 4.08939 -1.01719 0
M  V30 9312 H 871.665 3.23178 -0.183732 0
M  V30 9313 H 870.572 2.81549 -2.46335 0
M  V30 9314 H 871.905 3.71725 -3.22617 0
M  V30 9315 N 873.557 1.20646 1.01402 0
M  V30 9316 C 874.973 0.961866 1.27359 0
M  V30 9317 C 875.173 -0.357083 1.98311 0
M  V30 9318 O 874.229 -1.08498 2.28001 0
M  V30 9319 C 875.542 2.14627 2.10609 0
M  V30 9320 C 877.09 2.18753 2.23866 0
M  V30 9321 C 877.565 3.36686 3.10494 0
M  V30 9322 N 879.056 3.36716 3.18083 0
M  V30 9323 C 879.791 4.24615 3.85343 0
M  V30 9324 N 879.287 5.22697 4.54708 0
M  V30 9325 N 881.08 4.12449 3.81893 0
M  V30 9326 H 873.231 2.05481 0.537721 0
M  V30 9327 H 875.494 0.899292 0.299963 0
M  V30 9328 H 875.2 3.10159 1.65814 0
M  V30 9329 H 875.074 2.12935 3.11349 0
M  V30 9330 H 877.461 1.23782 2.67885 0
M  V30 9331 H 877.542 2.24492 1.22626 0
M  V30 9332 H 877.186 4.31945 2.67181 0
M  V30 9333 H 877.116 3.28185 4.11828 0
M  V30 9334 H 879.607 2.65728 2.68695 0
M  V30 9335 H 879.92 5.86087 5.03708 0
M  V30 9336 H 878.265 5.26631 4.53525 0
M  V30 9337 H 881.456 3.35091 3.26851 0
M  V30 9338 H 881.629 4.81162 4.34035 0
M  V30 9339 N 875.035 -1.20752 1.01276 0
M  V30 9340 C 876.283 -1.89645 0.698505 0
M  V30 9341 C 876.604 -1.78986 -0.773883 0
M  V30 9342 O 875.874 -1.18977 -1.55632 0
M  V30 9343 H 874.454 -0.701992 0.255375 0
M  V30 9344 H 877.116 -1.46668 1.28353 0
M  V30 9345 H 876.212 -2.96364 0.978512 0
M  V30 9346 N 876.513 -0.788492 -1.36457 0
M  V30 9347 C 877.738 -0.371224 -2.04051 0
M  V30 9348 C 878.163 1.004 -1.59064 0
M  V30 9349 O 877.521 1.64663 -0.758679 0
M  V30 9350 C 877.569 -0.442275 -3.57877 0
M  V30 9351 O 876.673 0.55113 -4.08701 0
M  V30 9352 H 876.014 -0.157808 -0.644975 0
M  V30 9353 H 878.544 -1.06935 -1.74431 0
M  V30 9354 H 878.554 -0.305548 -4.06854 0
M  V30 9355 H 877.229 -1.44547 -3.89973 0
M  V30 9356 H 875.806 0.37614 -3.70998 0
M  V30 9357 N 877.991 1.48044 -0.54043 0
M  V30 9358 C 878.954 2.28273 0.205966 0
M  V30 9359 C 879.954 1.35983 0.858209 0
M  V30 9360 O 881.144 1.58776 0.716651 0
M  V30 9361 C 878.276 3.15174 1.29917 0
M  V30 9362 H 879.469 2.95727 -0.498555 0
M  V30 9363 H 877.022 1.53457 -0.296745 0
M  V30 9364 H 877.757 2.52374 2.03661 0
M  V30 9365 H 877.542 3.83074 0.836475 0
M  V30 9366 H 879.032 3.75666 1.82387 0
M  V30 9367 N 879.47 0.276058 1.55163 0
M  V30 9368 C 880.7 -0.343274 2.03728 0
M  V30 9369 C 881.108 -1.49945 1.15383 0
M  V30 9370 O 880.451 -1.82942 0.166696 0
M  V30 9371 C 880.513 -0.885683 3.48419 0
M  V30 9372 C 880.177 0.141976 4.56779 0
M  V30 9373 C 881.174 0.961816 5.10926 0
M  V30 9374 C 878.859 0.276487 5.01538 0
M  V30 9375 C 880.853 1.90234 6.0835 0
M  V30 9376 C 878.54 1.22049 5.98788 0
M  V30 9377 C 879.538 2.03192 6.52075 0
M  V30 9378 O 879.226 2.95996 7.47423 0
M  V30 9379 H 878.958 -0.0822192 0.670981 0
M  V30 9380 H 881.512 0.406199 2.01343 0
M  V30 9381 H 879.742 -1.68524 3.48047 0
M  V30 9382 H 881.431 -1.4182 3.80318 0
M  V30 9383 H 882.197 0.868637 4.77158 0
M  V30 9384 H 878.076 -0.345095 4.59707 0
M  V30 9385 H 881.62 2.5361 6.49867 0
M  V30 9386 H 877.517 1.31448 6.31974 0
M  V30 9387 H 878.285 2.90688 7.65142 0
M  V30 9388 N 880.948 -1.576 0.00335426 0
M  V30 9389 C 881.88 -2.0549 -1.01521 0
M  V30 9390 C 882.893 -0.973441 -1.30491 0
M  V30 9391 O 884.082 -1.25017 -1.27409 0
M  V30 9392 C 881.182 -2.44272 -2.34914 0
M  V30 9393 C 880.355 -3.75191 -2.24835 0
M  V30 9394 C 879.414 -4.00804 -3.40944 0
M  V30 9395 O 878.44 -4.71423 -3.18981 0
M  V30 9396 N 879.642 -3.48961 -4.63904 0
M  V30 9397 H 882.407 -2.93493 -0.60678 0
M  V30 9398 H 879.968 -1.60851 -0.18396 0
M  V30 9399 H 881.96 -2.58518 -3.11369 0
M  V30 9400 H 880.53 -1.6177 -2.67487 0
M  V30 9401 H 879.75 -3.70989 -1.3327 0
M  V30 9402 H 881.038 -4.61013 -2.15277 0
M  V30 9403 H 880.436 -2.9178 -4.84645 0
M  V30 9404 H 878.993 -3.68531 -5.37613 0
M  V30 9405 N 882.426 0.269451 -1.5528 0
M  V30 9406 C 883.837 0.840233 -1.66724 0
M  V30 9407 C 884.188 1.86909 -0.596621 0
M  V30 9408 O 883.313 2.14817 0.261246 0
M  V30 9409 C 883.908 1.5308 -3.02245 0
M  V30 9410 C 882.467 2.04957 -3.15705 0
M  V30 9411 C 881.614 0.892838 -2.62533 0
M  V30 9412 H 884.565 0.0457236 -1.58634 0
M  V30 9413 H 884.586 2.39792 -2.95432 0
M  V30 9414 H 884.098 0.781741 -3.80145 0
M  V30 9415 H 882.199 2.82813 -2.42585 0
M  V30 9416 H 882.312 2.26244 -4.22316 0
M  V30 9417 H 880.676 1.28719 -2.19781 0
M  V30 9418 H 881.459 0.157229 -3.4294 0
M  V30 9419 N 883.904 1.48273 0.534124 0
M  V30 9420 C 885.15 1.56311 1.29208 0
M  V30 9421 C 885.483 0.234481 1.92779 0
M  V30 9422 O 884.758 -0.759143 1.79073 0
M  V30 9423 C 885.041 2.69831 2.3846 0
M  V30 9424 C 884.894 4.12385 1.79608 0
M  V30 9425 C 886.213 2.79133 3.40254 0
M  V30 9426 H 883.332 0.56899 0.468422 0
M  V30 9427 H 885.974 1.80429 0.595438 0
M  V30 9428 H 884.124 2.49397 2.97881 0
M  V30 9429 H 885.796 4.44246 1.24269 0
M  V30 9430 H 884.039 4.19579 1.10162 0
M  V30 9431 H 884.71 4.87629 2.58693 0
M  V30 9432 H 887.186 2.97632 2.90783 0
M  V30 9433 H 886.062 3.60298 4.14097 0
M  V30 9434 H 886.323 1.87122 4.00547 0
M  V30 9435 N 885.382 -0.782676 1.36792 0
M  V30 9436 C 886.628 -1.54311 1.3159 0
M  V30 9437 C 886.961 -1.93928 -0.102696 0
M  V30 9438 O 886.236 -1.63233 -1.05761 0
M  V30 9439 C 886.519 -2.81561 2.24489 0
M  V30 9440 C 886.372 -2.48268 3.75078 0
M  V30 9441 C 887.691 -3.83428 2.16034 0
M  V30 9442 H 884.81 -0.559828 0.479335 0
M  V30 9443 H 887.452 -0.898717 1.67401 0
M  V30 9444 H 885.602 -3.36549 1.9408 0
M  V30 9445 H 887.274 -1.99279 4.16036 0
M  V30 9446 H 885.517 -1.81116 3.94182 0
M  V30 9447 H 886.188 -3.39183 4.35499 0
M  V30 9448 H 888.664 -3.37905 2.42815 0
M  V30 9449 H 887.54 -4.70204 2.83194 0
M  V30 9450 H 887.801 -4.26887 1.14976 0
M  V30 9451 N 886.86 -1.21182 -1.00761 0
M  V30 9452 C 887.807 -0.968741 -2.09485 0
M  V30 9453 C 888.777 0.104325 -1.65772 0
M  V30 9454 O 889.962 -0.0422587 -1.90753 0
M  V30 9455 C 887.102 -0.536686 -3.40901 0
M  V30 9456 C 886.215 -1.6789 -3.98041 0
M  V30 9457 C 885.35 -1.19627 -5.17555 0
M  V30 9458 C 884.389 -2.31099 -5.66798 0
M  V30 9459 N 883.526 -1.83988 -6.77564 0
M  V30 9460 H 888.366 -1.89952 -2.29613 0
M  V30 9461 H 885.903 -0.946688 -1.12589 0
M  V30 9462 H 887.861 -0.26745 -4.16342 0
M  V30 9463 H 886.491 0.357092 -3.20819 0
M  V30 9464 H 885.543 -2.06284 -3.19611 0
M  V30 9465 H 886.855 -2.51794 -4.30582 0
M  V30 9466 H 886.009 -0.883539 -6.00232 0
M  V30 9467 H 884.748 -0.327244 -4.86601 0
M  V30 9468 H 883.753 -2.63178 -4.82719 0
M  V30 9469 H 884.978 -3.18493 -5.99782 0
M  V30 9470 H 882.924 -0.994257 -6.48422 0
M  V30 9471 H 882.841 -2.61466 -7.09346 0
M  V30 9472 H 884.109 -1.55741 -7.63783 0
M  V30 9473 N 888.338 1.20213 -1.01915 0
M  V30 9474 C 889.586 1.89272 -0.708552 0
M  V30 9475 C 889.907 1.79394 0.76438 0
M  V30 9476 O 889.177 1.198 1.54999 0
M  V30 9477 H 887.757 0.700628 -0.259094 0
M  V30 9478 H 890.419 1.45985 -1.29129 0
M  V30 9479 H 889.515 2.95841 -0.994215 0
M  V30 9480 N 889.816 0.795718 1.36037 0
M  V30 9481 C 891.065 0.367575 1.98322 0
M  V30 9482 C 891.378 -1.06823 1.63854 0
M  V30 9483 O 892.584 -1.59895 2.19421 0
M  V30 9484 C 891.04 0.606272 3.54757 0
M  V30 9485 C 890.648 2.0539 3.98144 0
M  V30 9486 C 892.392 0.242947 4.23804 0
M  V30 9487 C 890.299 2.23893 5.47381 0
M  V30 9488 H 889.229 0.133699 0.742052 0
M  V30 9489 H 891.88 0.978242 1.5525 0
M  V30 9490 H 890.262 -0.0741957 3.9593 0
M  V30 9491 H 891.436 2.77129 3.68152 0
M  V30 9492 H 889.751 2.37607 3.41953 0
M  V30 9493 H 892.348 0.359382 5.33491 0
M  V30 9494 H 892.691 -0.809661 4.08351 0
M  V30 9495 H 893.224 0.876899 3.88015 0
M  V30 9496 H 889.963 3.27559 5.6779 0
M  V30 9497 H 889.483 1.56666 5.78978 0
M  V30 9498 H 891.162 2.04914 6.13693 0
M  V30 9499 N 891.294 -1.47756 0.548274 0
M  V30 9500 C 892.522 -2.06884 0.0254873 0
M  V30 9501 C 892.937 -1.40225 -1.26422 0
M  V30 9502 O 892.294 -0.495776 -1.75637 0
M  V30 9503 C 892.345 -3.61036 -0.183134 0
M  V30 9504 O 892.066 -4.25195 1.05549 0
M  V30 9505 C 893.567 -4.37008 -0.744222 0
M  V30 9506 H 890.787 -0.669697 0.041789 0
M  V30 9507 H 893.331 -1.89888 0.759138 0
M  V30 9508 H 891.486 -3.77576 -0.866886 0
M  V30 9509 H 891.9 -5.17606 0.847629 0
M  V30 9510 H 893.374 -5.45579 -0.839529 0
M  V30 9511 H 893.851 -4.0268 -1.75344 0
M  V30 9512 H 894.457 -4.25191 -0.0964542 0
M  V30 9513 N 892.772 -0.284283 -1.55015 0
M  V30 9514 C 894.018 0.330352 -2.00091 0
M  V30 9515 C 894.351 1.54814 -1.17244 0
M  V30 9516 O 893.626 1.92954 -0.244753 0
M  V30 9517 C 893.909 0.703492 -3.53161 0
M  V30 9518 C 893.762 -0.522275 -4.46758 0
M  V30 9519 C 895.081 1.53645 -4.12409 0
M  V30 9520 H 892.2 0.118599 -0.727395 0
M  V30 9521 H 894.842 -0.393054 -1.8589 0
M  V30 9522 H 892.992 1.31983 -3.65394 0
M  V30 9523 H 894.664 -1.16082 -4.46456 0
M  V30 9524 H 892.907 -1.15865 -4.1804 0
M  V30 9525 H 893.578 -0.217295 -5.51572 0
M  V30 9526 H 896.054 1.01583 -4.0351 0
M  V30 9527 H 894.93 1.76633 -5.19704 0
M  V30 9528 H 895.191 2.5204 -3.63219 0
M  V30 9529 N 894.251 1.57596 -0.0117121 0
M  V30 9530 C 895.214 2.08089 0.960816 0
M  V30 9531 C 896.214 0.992519 1.26514 0
M  V30 9532 O 897.404 1.25475 1.20837 0
M  V30 9533 C 894.536 2.53217 2.28241 0
M  V30 9534 H 895.729 2.9529 0.523829 0
M  V30 9535 H 893.282 1.54508 0.235995 0
M  V30 9536 H 894.017 1.69294 2.76604 0
M  V30 9537 H 893.802 3.32714 2.0747 0
M  V30 9538 H 895.292 2.92568 2.97983 0
M  V30 9539 N 895.729 -0.261212 1.5542 0
M  V30 9540 C 896.977 -0.989272 1.76232 0
M  V30 9541 C 897.298 -1.86389 0.573067 0
M  V30 9542 O 896.568 -1.91526 -0.41166 0
M  V30 9543 H 895.148 -0.368256 0.64992 0
M  V30 9544 H 897.81 -0.282603 1.9284 0
M  V30 9545 H 896.906 -1.61935 2.66802 0
M  V30 9546 N 897.207 -1.48554 -0.526253 0
M  V30 9547 C 898.154 -1.63354 -1.63046 0
M  V30 9548 C 899.124 -0.475509 -1.59148 0
M  V30 9549 O 900.309 -0.699453 -1.77517 0
M  V30 9550 C 897.449 -1.68271 -3.01295 0
M  V30 9551 C 896.562 -2.95207 -3.15399 0
M  V30 9552 C 895.697 -2.91262 -4.4423 0
M  V30 9553 C 894.736 -4.12886 -4.51876 0
M  V30 9554 N 893.873 -4.06996 -5.721 0
M  V30 9555 H 898.713 -2.57649 -1.49737 0
M  V30 9556 H 896.25 -1.27769 -0.728938 0
M  V30 9557 H 898.208 -1.69104 -3.81392 0
M  V30 9558 H 896.838 -0.774641 -3.13367 0
M  V30 9559 H 895.89 -3.04102 -2.2853 0
M  V30 9560 H 897.202 -3.85187 -3.1691 0
M  V30 9561 H 896.356 -2.90516 -5.32621 0
M  V30 9562 H 895.095 -1.99016 -4.45246 0
M  V30 9563 H 894.1 -4.13902 -3.61891 0
M  V30 9564 H 895.325 -5.06294 -4.52596 0
M  V30 9565 H 893.271 -3.17573 -5.74006 0
M  V30 9566 H 893.188 -4.90685 -5.75121 0
M  V30 9567 H 894.456 -4.10315 -6.62768 0
M  V30 9568 N 898.685 0.775411 -1.37205 0
M  V30 9569 C 899.913 1.56446 -1.35397 0
M  V30 9570 C 900.328 1.887 0.0615437 0
M  V30 9571 O 899.685 1.51178 1.02233 0
M  V30 9572 C 899.736 2.87697 -2.18889 0
M  V30 9573 O 899.457 2.56828 -3.54924 0
M  V30 9574 C 900.958 3.81944 -2.25019 0
M  V30 9575 H 898.178 0.484792 -0.463916 0
M  V30 9576 H 900.722 0.961346 -1.80495 0
M  V30 9577 H 898.877 3.44442 -1.7731 0
M  V30 9578 H 899.291 3.40851 -3.98649 0
M  V30 9579 H 900.765 4.71055 -2.87769 0
M  V30 9580 H 901.242 4.20811 -1.25757 0
M  V30 9581 H 901.848 3.3113 -2.66895 0
M  V30 9582 N 900.163 1.21714 1.00117 0
M  V30 9583 C 901.411 1.03465 1.73607 0
M  V30 9584 C 901.732 -0.432295 1.90148 0
M  V30 9585 O 901.002 -1.31157 1.45515 0
M  V30 9586 H 899.582 0.379857 0.643209 0
M  V30 9587 H 902.244 1.53088 1.20624 0
M  V30 9588 H 901.34 1.50574 2.73375 0
M  V30 9589 N 901.641 -1.19671 1.02551 0
M  V30 9590 C 902.869 -1.93233 0.739513 0
M  V30 9591 C 903.284 -1.75298 -0.701158 0
M  V30 9592 O 902.641 -1.07269 -1.47647 0
M  V30 9593 C 902.692 -3.45085 1.07697 0
M  V30 9594 O 902.413 -3.62441 2.46106 0
M  V30 9595 C 903.914 -4.35776 0.813298 0
M  V30 9596 H 901.134 -0.613905 0.270853 0
M  V30 9597 H 903.678 -1.51909 1.36909 0
M  V30 9598 H 901.833 -3.84255 0.492635 0
M  V30 9599 H 902.247 -4.56337 2.58567 0
M  V30 9600 H 903.721 -5.40941 1.09941 0
M  V30 9601 H 904.198 -4.38474 -0.252359 0
M  V30 9602 H 904.804 -4.02282 1.38021 0
M  V30 9603 N 903.119 -0.802921 -1.35613 0
M  V30 9604 C 904.082 -0.216422 -2.28176 0
M  V30 9605 C 905.082 0.594101 -1.49422 0
M  V30 9606 O 906.272 0.41312 -1.6923 0
M  V30 9607 C 903.404 0.698746 -3.33662 0
M  V30 9608 H 904.597 -1.03276 -2.81557 0
M  V30 9609 H 902.15 -0.573307 -1.45406 0
M  V30 9610 H 902.885 1.53891 -2.85461 0
M  V30 9611 H 902.67 0.119314 -3.91918 0
M  V30 9612 H 904.16 1.10354 -4.02755 0
M  V30 9613 N 904.597 1.47463 -0.556102 0
M  V30 9614 C 905.507 2.33785 0.195378 0
M  V30 9615 C 906.523 1.48123 0.913 0
M  V30 9616 O 907.699 1.81053 0.882141 0
M  V30 9617 C 904.764 3.24795 1.21282 0
M  V30 9618 C 903.825 4.26346 0.502747 0
M  V30 9619 C 903.058 5.13007 1.47172 0
M  V30 9620 O 903.281 5.02103 2.70646 0
M  V30 9621 O 902.215 5.93588 0.996814 0
M  V30 9622 H 906.041 2.99341 -0.512676 0
M  V30 9623 H 903.626 1.46004 -0.31673 0
M  V30 9624 H 905.508 3.81015 1.80016 0
M  V30 9625 H 904.183 2.61868 1.90282 0
M  V30 9626 H 903.09 3.73889 -0.125757 0
M  V30 9627 H 904.423 4.91984 -0.145779 0
M  V30 9628 N 906.075 0.2925 1.54862 0
M  V30 9629 C 907.005 -0.580677 2.26165 0
M  V30 9630 C 907.986 -1.14485 1.25806 0
M  V30 9631 O 909.171 -1.17577 1.54562 0
M  V30 9632 C 906.301 -1.75668 2.99596 0
M  V30 9633 C 905.255 -1.32325 4.07031 0
M  V30 9634 C 904.581 -2.58374 4.68131 0
M  V30 9635 C 905.881 -0.460703 5.20264 0
M  V30 9636 H 907.575 0.0140075 2.99397 0
M  V30 9637 H 905.121 0.00817706 1.43998 0
M  V30 9638 H 907.074 -2.37356 3.48195 0
M  V30 9639 H 905.798 -2.37747 2.23928 0
M  V30 9640 H 904.457 -0.729477 3.59269 0
M  V30 9641 H 904.105 -3.18749 3.89112 0
M  V30 9642 H 903.805 -2.30078 5.40683 0
M  V30 9643 H 905.329 -3.2088 5.19489 0
M  V30 9644 H 906.743 -0.983037 5.64809 0
M  V30 9645 H 905.14 -0.271881 5.99484 0
M  V30 9646 H 906.21 0.516304 4.82143 0
M  V30 9647 N 907.553 -1.57587 0.0200696 0
M  V30 9648 C 908.5 -2.09667 -0.964791 0
M  V30 9649 C 909.47 -0.99664 -1.32877 0
M  V30 9650 O 910.655 -1.2703 -1.42366 0
M  V30 9651 C 907.795 -2.62101 -2.24493 0
M  V30 9652 C 906.908 -3.8608 -1.93821 0
M  V30 9653 C 906.043 -4.26939 -3.16064 0
M  V30 9654 C 905.082 -5.43701 -2.81169 0
M  V30 9655 N 904.219 -5.79759 -3.9601 0
M  V30 9656 H 909.059 -2.93538 -0.513751 0
M  V30 9657 H 906.596 -1.45096 -0.242 0
M  V30 9658 H 908.554 -2.90587 -2.99358 0
M  V30 9659 H 907.184 -1.81074 -2.6723 0
M  V30 9660 H 906.236 -3.64378 -1.09237 0
M  V30 9661 H 907.548 -4.71028 -1.64115 0
M  V30 9662 H 906.702 -4.56814 -3.99257 0
M  V30 9663 H 905.441 -3.40739 -3.48924 0
M  V30 9664 H 904.446 -5.13529 -1.96387 0
M  V30 9665 H 905.671 -6.31593 -2.49535 0
M  V30 9666 H 903.617 -4.96516 -4.28729 0
M  V30 9667 H 903.534 -6.59327 -3.69896 0
M  V30 9668 H 904.802 -6.14235 -4.79933 0
M  V30 9669 N 909.032 0.252966 -1.55557 0
M  V30 9670 C 910.26 0.999565 -1.81153 0
M  V30 9671 C 910.675 1.79181 -0.594955 0
M  V30 9672 O 910.032 1.77208 0.436311 0
M  V30 9673 C 910.083 1.94227 -3.04891 0
M  V30 9674 O 909.804 1.18209 -4.21851 0
M  V30 9675 C 911.305 2.80536 -3.43241 0
M  V30 9676 H 908.525 0.294402 -0.602966 0
M  V30 9677 H 911.069 0.277686 -2.02606 0
M  V30 9678 H 909.224 2.6185 -2.85505 0
M  V30 9679 H 909.638 1.81922 -4.9194 0
M  V30 9680 H 911.112 3.42442 -4.32941 0
M  V30 9681 H 911.589 3.51337 -2.6355 0
M  V30 9682 H 912.195 2.18373 -3.64956 0
M  V30 9683 N 910.51 1.48831 0.518367 0
M  V30 9684 C 911.735 1.61379 1.30275 0
M  V30 9685 C 912.16 0.278571 1.86026 0
M  V30 9686 O 911.518 -0.751427 1.64995 0
M  V30 9687 C 911.566 2.67225 2.42122 0
M  V30 9688 O 910.67 2.25192 3.45489 0
M  V30 9689 H 910.011 0.540742 0.385349 0
M  V30 9690 H 912.541 1.949 0.622498 0
M  V30 9691 H 912.551 2.88859 2.8814 0
M  V30 9692 H 911.226 3.64155 2.00907 0
M  V30 9693 H 909.803 2.13819 3.05509 0
M  V30 9694 N 911.988 -0.768124 1.37614 0
M  V30 9695 C 912.935 -1.88151 1.33671 0
M  V30 9696 C 913.905 -1.64871 0.201645 0
M  V30 9697 O 915.09 -1.86739 0.391582 0
M  V30 9698 C 912.23 -3.25264 1.15314 0
M  V30 9699 C 911.343 -3.60473 2.38082 0
M  V30 9700 C 910.478 -4.86814 2.12569 0
M  V30 9701 C 909.517 -5.14765 3.31184 0
M  V30 9702 N 908.654 -6.32295 3.052 0
M  V30 9703 H 913.494 -1.90857 2.28862 0
M  V30 9704 H 911.031 -0.933048 1.13722 0
M  V30 9705 H 912.989 -4.04364 1.02691 0
M  V30 9706 H 911.619 -3.21924 0.237689 0
M  V30 9707 H 910.671 -2.7633 2.61431 0
M  V30 9708 H 911.983 -3.77065 3.26532 0
M  V30 9709 H 911.137 -5.73826 1.96999 0
M  V30 9710 H 909.876 -4.72333 1.21462 0
M  V30 9711 H 908.881 -4.26227 3.4729 0
M  V30 9712 H 910.106 -5.31153 4.23147 0
M  V30 9713 H 908.052 -6.19166 2.16726 0
M  V30 9714 H 907.969 -6.4932 3.87195 0
M  V30 9715 H 909.237 -7.22234 2.93254 0
M  V30 9716 N 913.466 -1.22244 -0.994698 0
M  V30 9717 C 914.743 -0.954459 -1.70732 0
M  V30 9718 C 915.123 0.530945 -2.04314 0
M  V30 9719 O 914.471 1.49851 -1.72502 0
M  V30 9720 C 914.681 -1.85016 -2.95922 0
M  V30 9721 C 916.029 -2.10517 -3.68738 0
M  V30 9722 O 917.053 -1.82449 -3.05926 0
M  V30 9723 O 915.912 -2.58044 -4.81742 0
M  V30 9724 H 913.006 -0.35879 -0.745116 0
M  V30 9725 H 915.552 -1.33221 -1.0512 0
M  V30 9726 H 914.324 -2.85498 -2.67594 0
M  V30 9727 H 913.947 -1.47388 -3.69273 0
M  V30 9728 N 914.944 1.19125 -1.03184 0
M  V30 9729 C 916.221 1.84674 -0.644574 0
M  V30 9730 C 916.601 1.92042 0.876534 0
M  V30 9731 O 915.949 1.43965 1.77444 0
M  V30 9732 C 916.159 3.23477 -1.3101 0
M  V30 9733 C 917.507 3.99608 -1.43524 0
M  V30 9734 O 918.531 3.32886 -1.2675 0
M  V30 9735 O 917.39 5.19132 -1.70776 0
M  V30 9736 H 914.484 0.795968 -0.22442 0
M  V30 9737 H 917.03 1.2659 -1.13018 0
M  V30 9738 H 915.802 3.12967 -2.34878 0
M  V30 9739 H 915.425 3.89209 -0.812547 0
M  V30 9740 N 916.422 0.810101 1.35185 0
M  V30 9741 C 917.369 0.220927 2.2974 0
M  V30 9742 C 918.339 -0.647024 1.5298 0
M  V30 9743 O 919.524 -0.591367 1.81404 0
M  V30 9744 C 916.664 -0.62167 3.39454 0
M  V30 9745 C 915.777 0.267104 4.31173 0
M  V30 9746 C 914.912 -0.583833 5.27982 0
M  V30 9747 C 913.951 0.305123 6.11339 0
M  V30 9748 N 913.088 -0.505992 7.00274 0
M  V30 9749 H 917.928 1.03266 2.79536 0
M  V30 9750 H 915.465 0.520768 1.37573 0
M  V30 9751 H 917.423 -1.12539 4.01735 0
M  V30 9752 H 916.053 -1.39863 2.90926 0
M  V30 9753 H 915.105 0.88895 3.69867 0
M  V30 9754 H 916.417 0.951182 4.89647 0
M  V30 9755 H 915.571 -1.15254 5.95652 0
M  V30 9756 H 914.31 -1.30146 4.70014 0
M  V30 9757 H 913.315 0.886075 5.42613 0
M  V30 9758 H 914.54 1.02067 6.71386 0
M  V30 9759 H 912.486 -1.20753 6.4479 0
M  V30 9760 H 912.403 0.119966 7.55905 0
M  V30 9761 H 913.671 -1.05787 7.72288 0
M  V30 9762 N 917.9 -1.47166 0.563914 0
M  V30 9763 C 919.177 -1.95586 -0.0236172 0
M  V30 9764 C 919.557 -1.50655 -1.47872 0
M  V30 9765 O 918.905 -0.748479 -2.15894 0
M  V30 9766 C 919.115 -3.48762 0.128841 0
M  V30 9767 C 920.463 -4.24598 -0.0130544 0
M  V30 9768 O 921.487 -3.56155 0.0567242 0
M  V30 9769 O 920.346 -5.46253 -0.164332 0
M  V30 9770 H 917.44 -0.824793 -0.0603789 0
M  V30 9771 H 919.986 -1.57536 0.63091 0
M  V30 9772 H 918.758 -3.74291 1.14113 0
M  V30 9773 H 918.381 -3.93594 -0.56299 0
M  V30 9774 N 919.378 -0.300708 -1.54705 0
M  V30 9775 C 920.626 0.308044 -1.99739 0
M  V30 9776 C 920.947 1.54433 -1.19061 0
M  V30 9777 O 920.217 1.93794 -0.286507 0
M  V30 9778 H 918.797 0.116811 -0.73781 0
M  V30 9779 H 921.459 -0.41197 -1.90496 0
M  V30 9780 H 920.555 0.580287 -3.06658 0
M  V30 9781 N 920.856 1.57574 -0.0284266 0
M  V30 9782 C 922.084 1.96071 0.660575 0
M  V30 9783 C 922.499 0.904881 1.65703 0
M  V30 9784 O 921.856 -0.113379 1.82147 0
M  V30 9785 C 921.907 3.34634 1.36756 0
M  V30 9786 O 921.628 4.36167 0.411041 0
M  V30 9787 C 923.129 3.87758 2.14845 0
M  V30 9788 H 920.349 0.645794 0.182183 0
M  V30 9789 H 922.893 2.04311 -0.0879858 0
M  V30 9790 H 921.048 3.27616 2.06753 0
M  V30 9791 H 921.462 5.16493 0.913 0
M  V30 9792 H 922.936 4.87058 2.59767 0
M  V30 9793 H 923.413 3.21967 2.9872 0
M  V30 9794 H 924.019 3.98043 1.49807 0
M  V30 9795 N 922.334 -0.244713 1.55689 0
M  V30 9796 C 923.244 -1.32447 1.93636 0
M  V30 9797 C 924.26 -1.52541 0.837086 0
M  V30 9798 O 925.436 -1.66121 1.13867 0
M  V30 9799 C 922.501 -2.65864 2.22525 0
M  V30 9800 C 921.562 -2.54273 3.45896 0
M  V30 9801 C 920.795 -3.81327 3.73397 0
M  V30 9802 O 921.018 -4.83307 3.02936 0
M  V30 9803 O 919.952 -3.79829 4.66919 0
M  V30 9804 H 923.778 -1.03255 2.85608 0
M  V30 9805 H 921.363 -0.445652 1.42598 0
M  V30 9806 H 923.245 -3.447 2.42404 0
M  V30 9807 H 921.92 -2.94784 1.33731 0
M  V30 9808 H 920.827 -1.73715 3.31321 0
M  V30 9809 H 922.16 -2.30297 4.34999 0
M  V30 9810 N 923.813 -1.49104 -0.510467 0
M  V30 9811 C 924.761 -1.65547 -1.63392 0
M  V30 9812 C 925.755 -0.521522 -1.61172 0
M  V30 9813 O 926.961 -0.700865 -1.65795 0
M  V30 9814 H 923.336 -0.521843 -0.541464 0
M  V30 9815 H 925.307 -2.59864 -1.46673 0
M  V30 9816 C 924.056 -1.73051 -3.01577 0
M  V30 9817 H 923.379 -2.59676 -3.03987 0
M  V30 9818 H 924.819 -1.88594 -3.79748 0
M  V30 9819 C 923.278 -0.47328 -3.33559 0
M  V30 9820 O 923.808 0.405239 -3.99651 0
M  V30 9821 N 922.014 -0.339074 -2.88615 0
M  V30 9822 H 921.561 -1.05497 -2.35007 0
M  V30 9823 H 921.519 0.501061 -3.10382 0
M  V30 9824 N 925.291 0.760815 -1.38019 0
M  V30 9825 C 926.539 1.51673 -1.33566 0
M  V30 9826 C 926.86 1.94852 0.076024 0
M  V30 9827 O 926.13 1.67112 1.02227 0
M  V30 9828 H 924.71 0.562581 -0.491438 0
M  V30 9829 H 927.372 0.904832 -1.72623 0
M  V30 9830 H 926.468 2.41102 -1.98182 0
M  V30 9831 N 926.769 1.22769 0.988202 0
M  V30 9832 C 928.015 1.06672 1.73184 0
M  V30 9833 C 928.37 -0.393434 1.88334 0
M  V30 9834 O 927.663 -1.2876 1.41885 0
M  V30 9835 C 927.857 1.71679 3.13466 0
M  V30 9836 C 927.686 3.23864 3.11997 0
M  V30 9837 C 926.456 3.92991 3.17626 0
M  V30 9838 C 928.654 4.20737 2.95778 0
M  V30 9839 N 926.636 5.32224 3.05959 0
M  V30 9840 C 928.007 5.46831 2.92191 0
M  V30 9841 C 930.062 4.1157 2.80205 0
M  V30 9842 C 928.765 6.64811 2.74624 0
M  V30 9843 C 930.791 5.29205 2.64 0
M  V30 9844 C 930.153 6.5422 2.61104 0
M  V30 9845 H 926.252 0.44481 0.64317 0
M  V30 9846 H 928.836 1.55381 1.17323 0
M  V30 9847 H 927.007 1.25513 3.67561 0
M  V30 9848 H 928.739 1.48629 3.76419 0
M  V30 9849 H 925.494 3.4402 3.25495 0
M  V30 9850 H 925.918 6.05197 3.03423 0
M  V30 9851 H 930.56 3.15697 2.81239 0
M  V30 9852 H 928.278 7.60828 2.72336 0
M  V30 9853 H 931.864 5.23947 2.52925 0
M  V30 9854 H 930.744 7.43713 2.48719 0
M  V30 9855 N 928.247 -1.18576 1.03814 0
M  V30 9856 C 929.494 -1.88493 0.740036 0
M  V30 9857 C 929.822 -1.80198 -0.732056 0
M  V30 9858 O 929.077 -1.19509 -1.54971 0
M  V30 9859 C 929.376 -3.38448 1.14837 0
M  V30 9860 C 929.042 -3.66947 2.62031 0
M  V30 9861 C 927.704 -3.74435 3.02244 0
M  V30 9862 C 930.056 -3.79534 3.57217 0
M  V30 9863 C 927.384 -3.91986 4.36536 0
M  V30 9864 C 929.736 -3.986 4.91223 0
M  V30 9865 C 928.4 -4.04323 5.31111 0
M  V30 9866 H 927.67 -0.689746 0.270798 0
M  V30 9867 H 930.317 -1.40364 1.3027 0
M  V30 9868 H 928.622 -3.88539 0.504472 0
M  V30 9869 H 930.319 -3.90882 0.89511 0
M  V30 9870 H 926.909 -3.61734 2.29883 0
M  V30 9871 H 931.093 -3.73083 3.27296 0
M  V30 9872 H 926.349 -3.9466 4.66962 0
M  V30 9873 H 930.523 -4.07281 5.64885 0
M  V30 9874 H 928.15 -4.17676 6.35178 0
M  V30 9875 N 929.725 -0.817259 -1.34754 0
M  V30 9876 C 930.971 -0.403244 -1.98751 0
M  V30 9877 C 931.304 1.02963 -1.64658 0
M  V30 9878 O 930.579 1.71617 -0.915314 0
M  V30 9879 C 930.862 -0.599188 -3.5508 0
M  V30 9880 C 930.715 -2.07777 -3.98934 0
M  V30 9881 C 932.034 -0.0315656 -4.40089 0
M  V30 9882 H 929.153 -0.147988 -0.721989 0
M  V30 9883 H 931.795 -1.02877 -1.59738 0
M  V30 9884 H 929.945 -0.0667116 -3.88443 0
M  V30 9885 H 931.617 -2.67345 -3.75931 0
M  V30 9886 H 929.86 -2.57031 -3.49453 0
M  V30 9887 H 930.531 -2.16571 -5.07741 0
M  V30 9888 H 933.007 -0.48644 -4.13247 0
M  V30 9889 H 931.883 -0.198507 -5.48541 0
M  V30 9890 H 932.144 1.06302 -4.2913 0
M  V30 9891 N 931.203 1.46865 -0.571711 0
M  V30 9892 C 932.451 2.0203 -0.0530022 0
M  V30 9893 C 932.772 1.44687 1.30731 0
M  V30 9894 O 932.042 0.627429 1.85581 0
M  V30 9895 H 930.622 0.746815 -0.0166035 0
M  V30 9896 H 933.284 1.80099 -0.745003 0
M  V30 9897 H 932.38 3.12091 0.0242538 0
M  V30 9898 N 932.681 0.308908 1.54543 0
M  V30 9899 C 933.911 -0.299983 2.04411 0
M  V30 9900 C 934.319 -1.47463 1.18538 0
M  V30 9901 O 933.662 -1.82547 0.205463 0
M  V30 9902 C 933.724 -0.811579 3.50219 0
M  V30 9903 C 933.388 0.238834 4.56375 0
M  V30 9904 C 934.385 1.06997 5.08771 0
M  V30 9905 C 932.07 0.382808 5.00839 0
M  V30 9906 C 934.064 2.03096 6.04178 0
M  V30 9907 C 931.751 1.34723 5.96065 0
M  V30 9908 C 932.749 2.16978 6.47618 0
M  V30 9909 O 932.437 3.11783 7.40977 0
M  V30 9910 H 932.169 -0.0679682 0.672574 0
M  V30 9911 H 934.723 0.448815 2.00437 0
M  V30 9912 H 932.953 -1.61104 3.51543 0
M  V30 9913 H 934.642 -1.33721 3.83241 0
M  V30 9914 H 935.408 0.969654 4.75208 0
M  V30 9915 H 931.287 -0.247507 4.60335 0
M  V30 9916 H 934.831 2.67338 6.44342 0
M  V30 9917 H 930.728 1.44824 6.29044 0
M  V30 9918 H 931.496 3.06853 7.58804 0
M  V30 9919 N 934.159 -1.57557 0.0367827 0
M  V30 9920 C 935.436 -1.83427 -0.679261 0
M  V30 9921 C 935.816 -0.922274 -1.89888 0
M  V30 9922 O 935.164 0.02025 -2.28491 0
M  V30 9923 C 935.374 -3.32823 -1.05022 0
M  V30 9924 C 936.722 -3.99486 -1.43861 0
M  V30 9925 O 937.746 -3.37364 -1.14297 0
M  V30 9926 O 936.605 -5.0899 -1.98977 0
M  V30 9927 H 933.699 -0.756581 -0.333936 0
M  V30 9928 H 936.245 -1.69575 0.0650494 0
M  V30 9929 H 935.017 -3.90874 -0.182509 0
M  V30 9930 H 934.64 -3.5181 -1.85244 0
M  V30 9931 N 935.637 0.236453 -1.55816 0
M  V30 9932 C 936.867 0.978873 -1.81939 0
M  V30 9933 C 937.275 1.79041 -0.611647 0
M  V30 9934 O 936.618 1.78616 0.429172 0
M  V30 9935 C 936.68 1.9569 -3.01572 0
M  V30 9936 C 936.344 1.33131 -4.37178 0
M  V30 9937 C 937.341 0.728585 -5.1477 0
M  V30 9938 C 935.026 1.34755 -4.83887 0
M  V30 9939 C 937.02 0.150427 -6.37222 0
M  V30 9940 C 934.707 0.765539 -6.06286 0
M  V30 9941 C 935.705 0.168017 -6.82793 0
M  V30 9942 O 935.393 -0.404976 -8.02879 0
M  V30 9943 H 935.125 0.293186 -0.609113 0
M  V30 9944 H 937.679 0.261384 -2.0373 0
M  V30 9945 H 935.909 2.71298 -2.75562 0
M  V30 9946 H 937.598 2.56362 -3.14695 0
M  V30 9947 H 938.364 0.708477 -4.79797 0
M  V30 9948 H 934.243 1.80202 -4.24321 0
M  V30 9949 H 937.787 -0.316586 -6.96881 0
M  V30 9950 H 933.684 0.78301 -6.40733 0
M  V30 9951 H 934.452 -0.29785 -8.17958 0
M  V30 9952 N 937.115 1.49373 0.502552 0
M  V30 9953 C 938.025 1.68659 1.63068 0
M  V30 9954 C 939.041 0.569182 1.64427 0
M  V30 9955 O 940.217 0.843695 1.82876 0
M  V30 9956 C 937.282 1.74745 2.99441 0
M  V30 9957 C 936.343 2.98311 3.08721 0
M  V30 9958 C 935.576 3.04097 4.38589 0
M  V30 9959 O 935.799 2.17519 5.27297 0
M  V30 9960 O 934.733 3.96544 4.52809 0
M  V30 9961 H 938.559 2.64226 1.49727 0
M  V30 9962 H 936.144 1.33096 0.67867 0
M  V30 9963 H 938.026 1.8111 3.80496 0
M  V30 9964 H 936.701 0.823565 3.13048 0
M  V30 9965 H 935.608 2.97465 2.2686 0
M  V30 9966 H 936.941 3.90174 3.00041 0
M  V30 9967 N 938.594 -0.753485 1.38421 0
M  V30 9968 C 939.542 -1.8886 1.35774 0
M  V30 9969 C 940.536 -1.67639 0.243608 0
M  V30 9970 O 941.742 -1.75206 0.412649 0
M  V30 9971 H 938.117 -0.62137 0.42356 0
M  V30 9972 H 940.088 -1.88209 2.3156 0
M  V30 9973 C 938.837 -3.26344 1.19979 0
M  V30 9974 H 938.16 -3.43259 2.04971 0
M  V30 9975 H 939.6 -4.06015 1.22181 0
M  V30 9976 C 938.059 -3.36771 -0.0932867 0
M  V30 9977 O 938.589 -3.8718 -1.07027 0
M  V30 9978 N 936.795 -2.90212 -0.150154 0
M  V30 9979 H 936.342 -2.4938 0.645562 0
M  V30 9980 H 936.3 -2.97569 -1.0149 0
M  V30 9981 N 940.072 -1.23292 -0.981677 0
M  V30 9982 C 941.019 -1.01296 -2.07383 0
M  V30 9983 C 941.989 0.069139 -1.65956 0
M  V30 9984 O 943.174 -0.0827108 -1.90621 0
M  V30 9985 C 940.314 -0.608876 -3.39686 0
M  V30 9986 C 939.427 -1.76296 -3.9439 0
M  V30 9987 C 938.562 -1.30578 -5.14901 0
M  V30 9988 C 937.601 -2.4307 -5.61768 0
M  V30 9989 N 936.738 -1.98319 -6.73509 0
M  V30 9990 H 941.578 -1.9478 -2.25532 0
M  V30 9991 H 939.115 -0.970356 -1.10555 0
M  V30 9992 H 941.073 -0.355702 -4.15681 0
M  V30 9993 H 939.703 0.288961 -3.21504 0
M  V30 9994 H 938.755 -2.13017 -3.15163 0
M  V30 9995 H 940.067 -2.60871 -4.25145 0
M  V30 9996 H 939.221 -1.01066 -5.98223 0
M  V30 9997 H 937.96 -0.430386 -4.85797 0
M  V30 9998 H 936.965 -2.73358 -4.77028 0
M  V30 9999 H 938.19 -3.31144 -5.92892 0
M  V30 10000 H 936.136 -1.13157 -6.46167 0
M  V30 10001 H 936.053 -2.76454 -7.0364 0
M  V30 10002 H 937.321 -1.71907 -7.60308 0
M  V30 10003 N 941.55 1.18024 -1.04442 0
M  V30 10004 C 942.827 1.8398 -0.664125 0
M  V30 10005 C 943.207 1.92961 0.856116 0
M  V30 10006 O 942.555 1.45839 1.75907 0
M  V30 10007 C 942.765 3.22069 -1.34433 0
M  V30 10008 C 944.113 3.98063 -1.47754 0
M  V30 10009 O 945.137 3.31523 -1.30274 0
M  V30 10010 O 943.996 5.17291 -1.76272 0
M  V30 10011 H 941.09 0.793543 -0.23285 0
M  V30 10012 H 943.636 1.25385 -1.14354 0
M  V30 10013 H 942.408 3.10458 -2.38184 0
M  V30 10014 H 942.031 3.88325 -0.853782 0
M  V30 10015 N 943.028 0.824394 1.34319 0
M  V30 10016 C 943.958 0.262077 2.32025 0
M  V30 10017 C 944.939 -0.622277 1.58309 0
M  V30 10018 O 946.124 -0.548848 1.86283 0
M  V30 10019 C 943.254 -0.57567 3.42496 0
M  V30 10020 C 942.208 0.21167 4.27476 0
M  V30 10021 C 941.534 -0.748913 5.29429 0
M  V30 10022 C 942.834 1.42068 5.02607 0
M  V30 10023 H 944.528 1.07842 2.79304 0
M  V30 10024 H 942.074 0.520022 1.34282 0
M  V30 10025 H 944.027 -0.979251 4.09864 0
M  V30 10026 H 942.751 -1.42508 2.93869 0
M  V30 10027 H 941.41 0.596636 3.61712 0
M  V30 10028 H 941.058 -1.59432 4.77064 0
M  V30 10029 H 940.758 -0.226313 5.87164 0
M  V30 10030 H 942.282 -1.15032 5.99667 0
M  V30 10031 H 943.696 1.09103 5.62823 0
M  V30 10032 H 942.093 1.87903 5.69923 0
M  V30 10033 H 943.163 2.1981 4.32217 0
M  V30 10034 N 944.506 -1.46559 0.579492 0
M  V30 10035 C 945.436 -2.33059 -0.143437 0
M  V30 10036 C 946.417 -1.4515 -0.886868 0
M  V30 10037 O 947.602 -1.73973 -0.862961 0
M  V30 10038 C 944.732 -3.27364 -1.15973 0
M  V30 10039 C 943.686 -4.24689 -0.531348 0
M  V30 10040 C 943.012 -5.08479 -1.65388 0
M  V30 10041 C 944.312 -5.1961 0.529391 0
M  V30 10042 H 946.006 -2.93753 0.578762 0
M  V30 10043 H 943.552 -1.41256 0.279775 0
M  V30 10044 H 945.505 -3.86732 -1.67382 0
M  V30 10045 H 944.229 -2.64771 -1.91217 0
M  V30 10046 H 942.888 -3.6658 -0.0383749 0
M  V30 10047 H 942.536 -4.42273 -2.3959 0
M  V30 10048 H 942.236 -5.74387 -1.23909 0
M  V30 10049 H 943.76 -5.70709 -2.17079 0
M  V30 10050 H 945.174 -5.73212 0.100506 0
M  V30 10051 H 943.571 -5.93843 0.86432 0
M  V30 10052 H 944.641 -4.63737 1.4169 0
M  V30 10053 N 945.984 -0.3171 -1.54377 0
M  V30 10054 C 947.23 0.287836 -2.00747 0
M  V30 10055 C 947.563 1.52292 -1.20502 0
M  V30 10056 O 946.838 1.92391 -0.285626 0
M  V30 10057 C 947.121 0.628423 -3.54574 0
M  V30 10058 C 946.974 -0.616922 -4.45549 0
M  V30 10059 C 948.293 1.44862 -4.15575 0
M  V30 10060 H 945.412 0.103144 -0.729747 0
M  V30 10061 H 948.054 -0.432396 -1.85014 0
M  V30 10062 H 946.204 1.24203 -3.68111 0
M  V30 10063 H 947.876 -1.25526 -4.43893 0
M  V30 10064 H 946.119 -1.24706 -4.15489 0
M  V30 10065 H 946.79 -0.334243 -5.50987 0
M  V30 10066 H 949.266 0.930015 -4.05574 0
M  V30 10067 H 948.142 1.6557 -5.23333 0
M  V30 10068 H 948.403 2.44279 -3.68484 0
M  V30 10069 N 947.462 1.57535 -0.0451378 0
M  V30 10070 C 948.425 2.1008 0.916461 0
M  V30 10071 C 949.425 1.01913 1.2438 0
M  V30 10072 O 950.615 1.2801 1.18148 0
M  V30 10073 C 947.747 2.58001 2.22818 0
M  V30 10074 H 948.94 2.96334 0.461076 0
M  V30 10075 H 946.493 1.54974 0.203169 0
M  V30 10076 H 947.228 1.75123 2.72951 0
M  V30 10077 H 947.013 3.3704 2.00366 0
M  V30 10078 H 948.503 2.98822 2.9171 0
M  V30 10079 N 948.94 -0.228186 1.55939 0
M  V30 10080 C 949.873 -1.30971 1.86874 0
M  V30 10081 C 950.851 -1.45517 0.725496 0
M  V30 10082 O 952.035 -1.61436 0.973181 0
M  V30 10083 C 949.162 -2.68089 2.06992 0
M  V30 10084 C 948.208 -2.70594 3.29669 0
M  V30 10085 S 949.041 -2.25325 4.85787 0
M  V30 10086 C 950.197 -3.64331 5.08934 0
M  V30 10087 H 950.43 -1.04536 2.78315 0
M  V30 10088 H 947.963 -0.430103 1.48288 0
M  V30 10089 H 949.921 -3.47033 2.19267 0
M  V30 10090 H 948.582 -2.91752 1.16359 0
M  V30 10091 H 947.775 -3.71338 3.4077 0
M  V30 10092 H 947.377 -1.99708 3.16216 0
M  V30 10093 H 949.669 -4.59972 4.97425 0
M  V30 10094 H 950.612 -3.58151 6.10847 0
M  V30 10095 H 951.02 -3.57711 4.36695 0
M  V30 10096 N 950.418 -1.49637 -0.494624 0
M  V30 10097 C 951.351 -1.61387 -1.61337 0
M  V30 10098 C 952.329 -0.462704 -1.55878 0
M  V30 10099 O 953.513 -0.679103 -1.75842 0
M  V30 10100 C 950.64 -1.57471 -2.99867 0
M  V30 10101 C 949.686 -2.77863 -3.23565 0
M  V30 10102 S 950.519 -4.3946 -3.05999 0
M  V30 10103 C 951.675 -4.382 -4.46914 0
M  V30 10104 H 951.908 -2.56024 -1.51126 0
M  V30 10105 H 949.441 -1.38607 -0.680253 0
M  V30 10106 H 951.399 -1.55898 -3.79745 0
M  V30 10107 H 950.06 -0.641107 -3.07488 0
M  V30 10108 H 949.253 -2.71361 -4.24711 0
M  V30 10109 H 948.855 -2.76882 -2.51421 0
M  V30 10110 H 951.147 -4.10312 -5.3912 0
M  V30 10111 H 952.09 -5.39645 -4.58464 0
M  V30 10112 H 952.498 -3.68197 -4.27891 0
M  V30 10113 N 951.896 0.746133 -1.38819 0
M  V30 10114 C 953.145 1.50085 -1.34749 0
M  V30 10115 C 953.458 1.95516 0.0574786 0
M  V30 10116 O 954.664 2.70601 0.22073 0
M  V30 10117 C 953.12 2.71141 -2.36665 0
M  V30 10118 C 952.728 2.32706 -3.82821 0
M  V30 10119 C 954.472 3.49005 -2.41652 0
M  V30 10120 C 952.379 3.50418 -4.76405 0
M  V30 10121 H 951.309 0.563563 -0.500912 0
M  V30 10122 H 953.96 0.814951 -1.6441 0
M  V30 10123 H 952.342 3.4175 -2.00058 0
M  V30 10124 H 953.516 1.69715 -4.28408 0
M  V30 10125 H 951.831 1.67959 -3.81023 0
M  V30 10126 H 954.428 4.36541 -3.08766 0
M  V30 10127 H 954.771 3.90687 -1.43769 0
M  V30 10128 H 955.304 2.85416 -2.77097 0
M  V30 10129 H 952.043 3.13795 -5.75511 0
M  V30 10130 H 951.563 4.12426 -4.35505 0
M  V30 10131 H 953.242 4.16901 -4.94775 0
M  V30 10132 N 953.375 1.23811 0.975125 0
M  V30 10133 C 954.307 0.981779 2.07108 0
M  V30 10134 C 955.32 -0.0461211 1.62735 0
M  V30 10135 O 956.509 0.190039 1.77486 0
M  V30 10136 C 953.609 0.458364 3.35786 0
M  V30 10137 C 952.782 1.54767 4.09104 0
M  V30 10138 C 951.841 1.0282 5.16057 0
M  V30 10139 O 950.867 1.71831 5.42644 0
M  V30 10140 N 952.069 -0.141243 5.80328 0
M  V30 10141 H 954.834 1.92537 2.29673 0
M  V30 10142 H 952.395 1.1474 1.14221 0
M  V30 10143 H 954.387 0.0957686 4.04587 0
M  V30 10144 H 952.957 -0.390768 3.10148 0
M  V30 10145 H 952.177 2.08279 3.34684 0
M  V30 10146 H 953.465 2.28006 4.54853 0
M  V30 10147 H 952.863 -0.718382 5.6112 0
M  V30 10148 H 951.42 -0.445052 6.50279 0
M  V30 10149 N 954.853 -1.17469 1.05066 0
M  V30 10150 C 955.801 -2.23495 0.644418 0
M  V30 10151 C 956.795 -1.66081 -0.333685 0
M  V30 10152 O 958.001 -1.78887 -0.199886 0
M  V30 10153 H 954.376 -0.727546 0.190214 0
M  V30 10154 H 956.347 -2.55058 1.5488 0
M  V30 10155 C 955.096 -3.47684 0.0338051 0
M  V30 10156 H 954.419 -3.92167 0.777513 0
M  V30 10157 H 955.859 -4.23464 -0.213086 0
M  V30 10158 C 954.318 -3.14067 -1.21915 0
M  V30 10159 O 954.848 -3.28728 -2.3087 0
M  V30 10160 N 953.054 -2.68304 -1.11631 0
M  V30 10161 H 952.601 -2.56574 -0.229673 0
M  V30 10162 H 952.559 -2.46184 -1.95553 0
M  V30 10163 N 956.331 -0.831506 -1.3388 0
M  V30 10164 C 957.577 -0.424302 -1.98312 0
M  V30 10165 C 957.91 1.01211 -1.65741 0
M  V30 10166 O 957.185 1.70636 -0.933464 0
M  V30 10167 C 957.468 -0.636815 -3.54424 0
M  V30 10168 C 957.321 -2.11997 -3.96708 0
M  V30 10169 C 958.64 -0.0782411 -4.4003 0
M  V30 10170 H 955.759 -0.155637 -0.720379 0
M  V30 10171 H 958.401 -1.04566 -1.58638 0
M  V30 10172 H 956.551 -0.107907 -3.8835 0
M  V30 10173 H 958.223 -2.71317 -3.73075 0
M  V30 10174 H 956.466 -2.60723 -3.46707 0
M  V30 10175 H 957.137 -2.21944 -5.05416 0
M  V30 10176 H 959.613 -0.530243 -4.12708 0
M  V30 10177 H 958.489 -0.256676 -5.483 0
M  V30 10178 H 958.75 1.01745 -4.30233 0
M  V30 10179 N 957.809 1.4625 -0.587256 0
M  V30 10180 C 958.741 2.28482 0.181256 0
M  V30 10181 C 959.754 1.38777 0.851163 0
M  V30 10182 O 960.943 1.63336 0.719963 0
M  V30 10183 C 958.043 3.13944 1.27643 0
M  V30 10184 C 957.216 4.31802 0.697569 0
M  V30 10185 C 956.275 4.98626 1.68102 0
M  V30 10186 O 955.301 5.56075 1.21529 0
M  V30 10187 N 956.503 4.96051 3.0152 0
M  V30 10188 H 959.268 2.95079 -0.524267 0
M  V30 10189 H 956.829 1.56213 -0.425336 0
M  V30 10190 H 958.821 3.55513 1.93371 0
M  V30 10191 H 957.391 2.49391 1.88475 0
M  V30 10192 H 956.611 3.93961 -0.137293 0
M  V30 10193 H 957.899 5.07969 0.290696 0
M  V30 10194 H 957.297 4.5063 3.41978 0
M  V30 10195 H 955.854 5.41547 3.62725 0
M  V30 10196 N 959.287 0.325282 1.54207 0
M  V30 10197 C 960.564 -0.33113 1.92777 0
M  V30 10198 C 960.944 -1.69739 1.25506 0
M  V30 10199 O 960.292 -2.24983 0.399385 0
M  V30 10200 C 960.502 -0.421636 3.46444 0
M  V30 10201 C 961.85 -0.681111 4.19101 0
M  V30 10202 O 962.874 -0.504488 3.52609 0
M  V30 10203 O 961.733 -1.02196 5.3686 0
M  V30 10204 H 958.827 -0.18943 0.805013 0
M  V30 10205 H 961.373 0.375123 1.65502 0
M  V30 10206 H 960.145 0.537862 3.87586 0
M  V30 10207 H 959.768 -1.1754 3.79829 0
M  V30 10208 N 960.765 -1.57509 0.0534917 0
M  V30 10209 C 962.181 -1.56696 -0.303067 0
M  V30 10210 C 962.381 -1.06135 -1.71282 0
M  V30 10211 O 961.437 -0.71899 -2.42047 0
M  V30 10212 C 962.75 -3.00421 -0.129418 0
M  V30 10213 C 964.298 -3.12358 -0.200346 0
M  V30 10214 C 964.773 -4.57967 -0.0551971 0
M  V30 10215 N 966.264 -4.63066 -0.111398 0
M  V30 10216 C 966.999 -5.73395 -0.0232344 0
M  V30 10217 N 966.495 -6.92701 0.11741 0
M  V30 10218 N 968.288 -5.62045 -0.078984 0
M  V30 10219 H 960.439 -1.88696 0.975064 0
M  V30 10220 H 962.702 -0.869072 0.378706 0
M  V30 10221 H 962.408 -3.41456 0.842653 0
M  V30 10222 H 962.282 -3.66563 -0.889476 0
M  V30 10223 H 964.669 -2.71221 -1.16289 0
M  V30 10224 H 964.75 -2.48891 0.590506 0
M  V30 10225 H 964.394 -4.9979 0.904034 0
M  V30 10226 H 964.324 -5.19443 -0.865223 0
M  V30 10227 H 966.815 -3.77263 -0.219256 0
M  V30 10228 H 967.128 -7.72597 0.177326 0
M  V30 10229 H 965.473 -6.94833 0.152526 0
M  V30 10230 H 968.664 -4.67725 -0.187434 0
M  V30 10231 H 968.837 -6.48 -0.00681731 0
M  V30 10232 N 962.243 0.219913 -1.56058 0
M  V30 10233 C 963.491 0.942199 -1.78793 0
M  V30 10234 C 963.812 1.84804 -0.622284 0
M  V30 10235 O 963.082 1.9255 0.360735 0
M  V30 10236 H 961.662 0.350895 -0.659455 0
M  V30 10237 H 964.324 0.231376 -1.93522 0
M  V30 10238 H 963.42 1.54804 -2.71002 0
M  V30 10239 N 963.721 1.49897 0.486681 0
M  V30 10240 C 964.969 1.59789 1.23742 0
M  V30 10241 C 965.29 0.293056 1.92785 0
M  V30 10242 O 964.56 -0.688534 1.83401 0
M  V30 10243 H 963.14 0.588775 0.459731 0
M  V30 10244 H 965.802 1.86597 0.562808 0
M  V30 10245 H 964.898 2.40121 1.9937 0
M  V30 10246 N 965.199 -0.738761 1.39212 0
M  V30 10247 C 966.424 -1.5331 1.39681 0
M  V30 10248 C 966.849 -1.88098 -0.00768715 0
M  V30 10249 O 966.207 -1.51642 -0.993699 0
M  V30 10250 C 966.255 -2.79958 2.27279 0
M  V30 10251 O 965.359 -3.75727 1.70008 0
M  V30 10252 H 964.7 -0.463131 0.475821 0
M  V30 10253 H 967.23 -0.911768 1.83161 0
M  V30 10254 H 967.24 -3.28732 2.41659 0
M  V30 10255 H 965.915 -2.5397 3.29351 0
M  V30 10256 H 964.492 -3.34483 1.64851 0
M  V30 10257 N 966.677 -1.24326 -0.968545 0
M  V30 10258 C 967.627 -1.00191 -2.04807 0
M  V30 10259 C 968.611 0.0563524 -1.60801 0
M  V30 10260 O 969.803 -0.157268 -1.763 0
M  V30 10261 C 966.932 -0.607749 -3.37878 0
M  V30 10262 C 966.018 -1.70204 -3.88447 0
M  V30 10263 N 966.409 -2.93463 -4.11962 0
M  V30 10264 C 964.707 -1.57936 -4.171 0
M  V30 10265 C 965.408 -3.64397 -4.5342 0
M  V30 10266 N 964.384 -2.91956 -4.58544 0
M  V30 10267 H 968.186 -1.93786 -2.20962 0
M  V30 10268 H 965.7 -1.1444 -1.15227 0
M  V30 10269 H 967.697 -0.416079 -4.14819 0
M  V30 10270 H 966.357 0.321026 -3.23109 0
M  V30 10271 H 967.368 -3.2965 -3.99438 0
M  V30 10272 H 964.045 -0.718552 -4.1127 0
M  V30 10273 H 965.435 -4.70125 -4.80034 0
M  V30 10274 N 968.156 1.1691 -1.05688 0
M  V30 10275 C 969.386 1.90927 -0.789339 0
M  V30 10276 C 969.794 1.77339 0.659369 0
M  V30 10277 O 969.137 1.11147 1.4626 0
M  V30 10278 C 969.199 3.42361 -1.09677 0
M  V30 10279 C 968.863 3.79733 -2.54267 0
M  V30 10280 C 969.86 3.82163 -3.52487 0
M  V30 10281 C 967.545 4.10547 -2.89406 0
M  V30 10282 C 969.539 4.14884 -4.8389 0
M  V30 10283 C 967.226 4.42936 -4.21011 0
M  V30 10284 C 968.224 4.45084 -5.18063 0
M  V30 10285 O 967.912 4.76707 -6.47307 0
M  V30 10286 H 967.644 0.612466 -0.286115 0
M  V30 10287 H 970.198 1.4916 -1.4121 0
M  V30 10288 H 968.428 3.84446 -0.416924 0
M  V30 10289 H 970.117 3.97645 -0.814456 0
M  V30 10290 H 970.883 3.58476 -3.26681 0
M  V30 10291 H 966.762 4.08044 -2.14525 0
M  V30 10292 H 970.306 4.16475 -5.59638 0
M  V30 10293 H 966.203 4.66088 -4.46579 0
M  V30 10294 H 966.971 4.94544 -6.52203 0
M  V30 10295 N 969.634 0.838594 1.33437 0
M  V30 10296 C 970.88 0.434813 1.98084 0
M  V30 10297 C 971.213 -1.00331 1.66275 0
M  V30 10298 O 970.488 -1.70139 0.942501 0
M  V30 10299 C 970.771 0.655602 3.54082 0
M  V30 10300 C 970.624 2.14097 3.95578 0
M  V30 10301 C 971.943 0.101576 4.39983 0
M  V30 10302 H 969.062 0.159456 0.719544 0
M  V30 10303 H 971.704 1.05406 1.58081 0
M  V30 10304 H 969.854 0.128501 3.88287 0
M  V30 10305 H 971.526 2.73292 3.71631 0
M  V30 10306 H 969.769 2.62558 3.4532 0
M  V30 10307 H 970.44 2.24621 5.04231 0
M  V30 10308 H 972.916 0.552122 4.12421 0
M  V30 10309 H 971.792 0.28575 5.48156 0
M  V30 10310 H 972.053 -0.994616 4.30767 0
M  V30 10311 N 971.112 -1.45937 0.595003 0
M  V30 10312 C 972.358 -2.0262 0.0854317 0
M  V30 10313 C 972.691 -1.46402 -1.27594 0
M  V30 10314 O 971.966 -0.633823 -1.83883 0
M  V30 10315 C 972.249 -3.60085 0.0329075 0
M  V30 10316 C 972.102 -4.26663 1.42405 0
M  V30 10317 C 973.421 -4.35101 -0.661426 0
M  V30 10318 H 970.54 -0.736282 0.0325196 0
M  V30 10319 H 973.182 -1.73938 0.764563 0
M  V30 10320 H 971.332 -3.84652 -0.545439 0
M  V30 10321 H 973.004 -4.13321 2.04851 0
M  V30 10322 H 971.247 -3.85549 1.98833 0
M  V30 10323 H 971.918 -5.35497 1.33965 0
M  V30 10324 H 974.394 -4.15753 -0.169977 0
M  V30 10325 H 973.27 -5.44829 -0.667243 0
M  V30 10326 H 973.531 -4.07053 -1.72513 0
M  V30 10327 N 972.59 -0.333456 -1.54032 0
M  V30 10328 C 973.5 0.536674 -2.28379 0
M  V30 10329 C 974.516 1.12068 -1.33104 0
M  V30 10330 O 975.692 1.13853 -1.66131 0
M  V30 10331 C 972.757 1.67677 -3.03456 0
M  V30 10332 C 971.818 1.12357 -4.14336 0
M  V30 10333 C 971.051 2.20933 -4.85823 0
M  V30 10334 O 971.274 3.41466 -4.569 0
M  V30 10335 O 970.208 1.85795 -5.72507 0
M  V30 10336 H 974.034 -0.0674003 -3.03625 0
M  V30 10337 H 971.619 -0.098823 -1.49073 0
M  V30 10338 H 973.501 2.34032 -3.50438 0
M  V30 10339 H 972.176 2.26684 -2.31076 0
M  V30 10340 H 971.083 0.424827 -3.7168 0
M  V30 10341 H 972.416 0.578497 -4.88789 0
M  V30 10342 N 974.068 1.57479 -0.061844 0
M  V30 10343 C 975.015 2.12152 0.908862 0
M  V30 10344 C 975.985 1.03152 1.30188 0
M  V30 10345 O 977.17 1.3076 1.38948 0
M  V30 10346 C 974.31 2.6796 2.17465 0
M  V30 10347 C 973.423 3.91083 1.83517 0
M  V30 10348 C 972.558 4.35169 3.04633 0
M  V30 10349 C 971.597 5.50964 2.66655 0
M  V30 10350 N 970.734 5.90055 3.80499 0
M  V30 10351 H 975.574 2.94797 0.435743 0
M  V30 10352 H 973.111 1.45686 0.203445 0
M  V30 10353 H 975.069 2.98421 2.91548 0
M  V30 10354 H 973.699 1.88096 2.62335 0
M  V30 10355 H 972.751 3.67146 0.995381 0
M  V30 10356 H 974.063 4.75214 1.51569 0
M  V30 10357 H 973.217 4.67239 3.87005 0
M  V30 10358 H 971.956 3.49871 3.39767 0
M  V30 10359 H 970.961 5.18556 1.82703 0
M  V30 10360 H 972.186 6.37986 2.32702 0
M  V30 10361 H 970.132 5.07708 4.15414 0
M  V30 10362 H 970.049 6.68903 3.52285 0
M  V30 10363 H 971.317 6.26744 4.63479 0
M  V30 10364 N 975.546 -0.211634 1.56173 0
M  V30 10365 C 976.509 -1.24588 1.92381 0
M  V30 10366 C 977.509 -1.39297 0.803311 0
M  V30 10367 O 978.699 -1.37392 1.07094 0
M  V30 10368 C 975.831 -2.61807 2.18335 0
M  V30 10369 H 977.024 -0.936814 2.84893 0
M  V30 10370 H 974.577 -0.452471 1.49607 0
M  V30 10371 H 975.312 -2.97795 1.28407 0
M  V30 10372 H 975.097 -2.52506 2.99972 0
M  V30 10373 H 976.587 -3.3642 2.4741 0
M  V30 10374 N 977.024 -1.50153 -0.478725 0
M  V30 10375 C 977.971 -1.68458 -1.57767 0
M  V30 10376 C 978.941 -0.5259 -1.57555 0
M  V30 10377 O 980.126 -0.755574 -1.75202 0
M  V30 10378 C 977.266 -1.77772 -2.95789 0
M  V30 10379 C 976.379 -3.05092 -3.05848 0
M  V30 10380 C 975.514 -3.05247 -4.34739 0
M  V30 10381 C 974.553 -4.27053 -4.38512 0
M  V30 10382 N 973.69 -4.24991 -5.58862 0
M  V30 10383 H 978.53 -2.62282 -1.41464 0
M  V30 10384 H 976.067 -1.30023 -0.687921 0
M  V30 10385 H 978.025 -1.81152 -3.75819 0
M  V30 10386 H 976.655 -0.873944 -3.10744 0
M  V30 10387 H 975.707 -3.11219 -2.1874 0
M  V30 10388 H 977.019 -3.95075 -3.04495 0
M  V30 10389 H 976.173 -3.07314 -5.23109 0
M  V30 10390 H 974.912 -2.13081 -4.38689 0
M  V30 10391 H 973.917 -4.25206 -3.4854 0
M  V30 10392 H 975.142 -5.20437 -4.36259 0
M  V30 10393 H 973.088 -3.35674 -5.63612 0
M  V30 10394 H 973.005 -5.08734 -5.59219 0
M  V30 10395 H 974.273 -4.31193 -6.49379 0
M  V30 10396 N 978.502 0.731368 -1.39602 0
M  V30 10397 C 979.449 1.84541 -1.38612 0
M  V30 10398 C 980.419 1.64279 -0.245287 0
M  V30 10399 O 981.604 1.85635 -0.440954 0
M  V30 10400 C 978.744 3.22092 -1.23897 0
M  V30 10401 C 977.857 3.54034 -2.47555 0
M  V30 10402 C 976.992 4.81007 -2.25402 0
M  V30 10403 C 976.031 5.05804 -3.44716 0
M  V30 10404 N 975.168 6.23981 -3.21857 0
M  V30 10405 H 980.008 1.84722 -2.33841 0
M  V30 10406 H 977.545 0.902569 -1.16156 0
M  V30 10407 H 979.503 4.01499 -1.13376 0
M  V30 10408 H 978.133 3.2118 -0.322958 0
M  V30 10409 H 977.185 2.69301 -2.68665 0
M  V30 10410 H 978.497 3.68275 -3.36415 0
M  V30 10411 H 977.651 5.68401 -2.12143 0
M  V30 10412 H 976.39 4.68946 -1.33943 0
M  V30 10413 H 975.395 4.1687 -3.58468 0
M  V30 10414 H 976.62 5.19747 -4.37081 0
M  V30 10415 H 974.566 6.13202 -2.33065 0
M  V30 10416 H 974.483 6.38826 -4.04274 0
M  V30 10417 H 975.751 7.14205 -3.123 0
M  V30 10418 N 979.98 1.24838 0.961938 0
M  V30 10419 C 980.912 1.00369 2.06055 0
M  V30 10420 C 981.925 -0.0288583 1.62774 0
M  V30 10421 O 983.114 0.208853 1.77274 0
M  V30 10422 C 980.214 0.493953 3.35281 0
M  V30 10423 C 979.387 1.59097 4.07439 0
M  V30 10424 C 978.446 1.08288 5.14937 0
M  V30 10425 O 977.472 1.77577 5.40791 0
M  V30 10426 N 978.674 -0.0796836 5.80445 0
M  V30 10427 H 981.439 1.94962 2.27618 0
M  V30 10428 H 979 1.15945 1.12997 0
M  V30 10429 H 980.992 0.138675 4.04462 0
M  V30 10430 H 979.562 -0.357851 3.10545 0
M  V30 10431 H 978.782 2.11817 3.32456 0
M  V30 10432 H 980.07 2.32817 4.52409 0
M  V30 10433 H 979.468 -0.658827 5.6185 0
M  V30 10434 H 978.025 -0.376057 6.50714 0
M  V30 10435 N 981.458 -1.16348 1.06306 0
M  V30 10436 C 982.705 -1.86881 0.779852 0
M  V30 10437 C 983.033 -1.8171 -0.693668 0
M  V30 10438 O 982.288 -1.22769 -1.52401 0
M  V30 10439 C 982.587 -3.35936 1.21991 0
M  V30 10440 C 982.253 -3.61307 2.69756 0
M  V30 10441 C 980.915 -3.6794 3.10119 0
M  V30 10442 C 983.267 -3.71871 3.65187 0
M  V30 10443 C 980.595 -3.82639 4.44752 0
M  V30 10444 C 982.947 -3.88091 4.99568 0
M  V30 10445 C 981.611 -3.92967 5.39568 0
M  V30 10446 H 980.881 -0.683847 0.285368 0
M  V30 10447 H 983.528 -1.37569 1.33218 0
M  V30 10448 H 981.833 -3.87381 0.586774 0
M  V30 10449 H 983.53 -3.88895 0.977821 0
M  V30 10450 H 980.12 -3.56777 2.37504 0
M  V30 10451 H 984.304 -3.66057 3.35136 0
M  V30 10452 H 979.56 -3.84666 4.75228 0
M  V30 10453 H 983.734 -3.95207 5.73397 0
M  V30 10454 H 981.361 -4.04109 6.43895 0
M  V30 10455 N 982.937 -0.845659 -1.3299 0
M  V30 10456 C 983.869 -0.241097 -2.27928 0
M  V30 10457 C 984.882 0.582048 -1.5204 0
M  V30 10458 O 986.071 0.408008 -1.73774 0
M  V30 10459 C 983.171 0.678652 -3.32035 0
M  V30 10460 C 982.344 -0.106652 -4.3727 0
M  V30 10461 C 981.403 0.737478 -5.21006 0
M  V30 10462 O 980.429 0.174231 -5.68933 0
M  V30 10463 N 981.631 2.05372 -5.42957 0
M  V30 10464 H 984.396 -1.05685 -2.80448 0
M  V30 10465 H 981.957 -0.704771 -1.45755 0
M  V30 10466 H 983.949 1.24849 -3.84961 0
M  V30 10467 H 982.519 1.3951 -2.79742 0
M  V30 10468 H 981.739 -0.857897 -3.84752 0
M  V30 10469 H 983.027 -0.646386 -5.04677 0
M  V30 10470 H 982.425 2.53478 -5.05733 0
M  V30 10471 H 980.982 2.5719 -5.98913 0
M  V30 10472 N 984.415 1.45619 -0.602734 0
M  V30 10473 C 985.64 2.07157 -0.100429 0
M  V30 10474 C 986.065 1.44524 1.20393 0
M  V30 10475 O 985.423 0.536191 1.7319 0
M  V30 10476 C 985.471 3.60587 0.0308604 0
M  V30 10477 O 984.575 3.97944 1.08234 0
M  V30 10478 H 983.916 0.6601 -0.0718643 0
M  V30 10479 H 986.446 1.86948 -0.831366 0
M  V30 10480 H 986.456 4.07348 0.230634 0
M  V30 10481 H 985.131 4.05561 -0.921581 0
M  V30 10482 H 983.708 3.62862 0.859414 0
M  V30 10483 N 985.893 0.34162 1.53853 0
M  V30 10484 C 986.841 -0.531412 2.26448 0
M  V30 10485 C 987.835 -1.10357 1.28521 0
M  V30 10486 O 989.041 -1.04953 1.46236 0
M  V30 10487 H 985.416 -0.190054 0.727588 0
M  V30 10488 H 987.387 0.102922 2.98222 0
M  V30 10489 C 986.136 -1.67154 3.04885 0
M  V30 10490 H 985.459 -1.24055 3.80066 0
M  V30 10491 H 986.899 -2.25762 3.58898 0
M  V30 10492 C 985.358 -2.59984 2.14266 0
M  V30 10493 O 985.888 -3.62181 1.73746 0
M  V30 10494 N 984.094 -2.28625 1.79385 0
M  V30 10495 H 983.641 -1.45559 2.12533 0
M  V30 10496 H 983.599 -2.90995 1.19035 0
M  V30 10497 O 987.41 -1.60131 0.209831 0
M  V30 10498 H 988.101 -1.90077 -0.372866 0
M  V30 END ATOM
M  V30 BEGIN BOND
M  V30 END BOND
M  V30 END CTAB
M  END
$$$$
