drugbank_target|P19367 Hexokinase-1 (DB02007; DB02379; DB04395; DB06266)
 OpenBabel12092119473D

  0  0  0     0  0            999 V3000
M  V30 BEGIN CTAB
M  V30 COUNTS 14411 14520 0 0 0
M  V30 BEGIN ATOM
M  V30 1 H -0.908 1.98254 -0.117106 0
M  V30 2 N 0 1.576 0 0
M  V30 3 C 0.933 2.03868 1.02534 0
M  V30 4 C 1.911 0.928543 1.3348 0
M  V30 5 O 3.095 1.19667 1.45644 0
M  V30 6 C 0.222 2.43627 2.35294 0
M  V30 7 C -0.732 3.65373 2.2001 0
M  V30 8 S 0.101 5.13292 1.52614 0
M  V30 9 C 1.257 5.56322 2.86805 0
M  V30 10 H 1.49 2.90518 0.631377 0
M  V30 11 H -0.977 1.52953 0.210867 0
M  V30 12 H 0.981 2.67203 3.11629 0
M  V30 13 H -0.358 1.57376 2.7183 0
M  V30 14 H -1.165 3.90944 3.18086 0
M  V30 15 H -1.563 3.418 1.51819 0
M  V30 16 H 0.729 5.58782 3.83104 0
M  V30 17 H 1.672 6.56266 2.65933 0
M  V30 18 H 2.08 4.83886 2.90714 0
M  V30 19 N 1.4781 -0.272755 1.55222 0
M  V30 20 C 2.7271 -1.00211 1.75045 0
M  V30 21 C 3.0401 -1.87441 0.559046 0
M  V30 22 O 4.2461 -2.63856 0.639698 0
M  V30 23 C 2.7021 -1.83165 3.09804 0
M  V30 24 C 2.3101 -1.008 4.36513 0
M  V30 25 C 4.0541 -2.55529 3.38977 0
M  V30 26 C 1.9611 -1.83194 5.62311 0
M  V30 27 H 0.8911 -0.377878 0.652476 0
M  V30 28 H 3.5421 -0.257776 1.8168 0
M  V30 29 H 1.9241 -2.61694 2.97207 0
M  V30 30 H 3.0981 -0.266855 4.60027 0
M  V30 31 H 1.4131 -0.398897 4.14485 0
M  V30 32 H 4.0101 -3.17578 4.30172 0
M  V30 33 H 4.3531 -3.25825 2.59121 0
M  V30 34 H 4.8861 -1.84029 3.52673 0
M  V30 35 H 1.6251 -1.17318 6.44916 0
M  V30 36 H 1.1451 -2.54905 5.4294 0
M  V30 37 H 2.8241 -2.40552 6.00619 0
M  V30 38 N 2.9562 -1.48159 -0.537278 0
M  V30 39 C 3.9192 -1.61665 -1.62472 0
M  V30 40 C 4.9192 -0.490395 -1.5314 0
M  V30 41 O 6.1092 -0.755998 -1.5694 0
M  V30 42 C 3.2412 -1.57997 -3.02076 0
M  V30 43 H 4.4342 -2.58621 -1.51839 0
M  V30 44 H 1.9872 -1.36647 -0.758771 0
M  V30 45 H 2.7222 -0.624913 -3.18222 0
M  V30 46 H 2.5072 -2.39755 -3.10258 0
M  V30 47 H 3.9972 -1.70627 -3.81151 0
M  V30 48 N 4.4343 0.785586 -1.36625 0
M  V30 49 C 5.3973 1.87999 -1.31107 0
M  V30 50 C 6.3973 1.59316 -0.217959 0
M  V30 51 O 7.5873 1.67656 -0.472977 0
M  V30 52 C 4.7193 3.24861 -1.03334 0
M  V30 53 H 5.9123 1.94307 -2.2844 0
M  V30 54 H 3.4653 0.983813 -1.21453 0
M  V30 55 H 4.2003 3.24235 -0.0647432 0
M  V30 56 H 3.9853 3.4707 -1.82441 0
M  V30 57 H 5.4753 4.04929 -1.02088 0
M  V30 58 N 5.9124 1.20967 1.01018 0
M  V30 59 C 6.8444 0.922059 2.09835 0
M  V30 60 C 7.8574 -0.0927106 1.62536 0
M  V30 61 O 9.0464 0.139127 1.77957 0
M  V30 62 C 6.1464 0.362004 3.36961 0
M  V30 63 C 5.3194 1.42986 4.13369 0
M  V30 64 C 4.3784 0.879976 5.1879 0
M  V30 65 O 3.4044 1.56219 5.47343 0
M  V30 66 N 4.6064 -0.307396 5.79686 0
M  V30 67 H 7.3714 1.8588 2.35093 0
M  V30 68 H 4.9324 1.11422 1.1746 0
M  V30 69 H 6.9244 -0.0201474 4.04695 0
M  V30 70 H 5.4944 -0.479437 3.08902 0
M  V30 71 H 4.7144 1.98608 3.40512 0
M  V30 72 H 6.0024 2.14885 4.61196 0
M  V30 73 H 5.4004 -0.878796 5.58832 0
M  V30 74 H 3.9574 -0.631115 6.48737 0
M  V30 75 N 7.3905 -1.2043 1.01659 0
M  V30 76 C 8.3205 -2.25466 0.607226 0
M  V30 77 C 9.3015 -1.65853 -0.377716 0
M  V30 78 O 10.4865 -1.92409 -0.263149 0
M  V30 79 C 7.6165 -3.47256 -0.0552949 0
M  V30 80 C 6.5705 -4.19462 0.850632 0
M  V30 81 C 5.8965 -5.34673 0.0538859 0
M  V30 82 C 7.1965 -4.75603 2.15868 0
M  V30 83 H 8.8905 -2.59962 1.48526 0
M  V30 84 H 6.4365 -1.2496 0.715605 0
M  V30 85 H 8.3895 -4.19917 -0.353233 0
M  V30 86 H 7.1135 -3.11924 -0.968045 0
M  V30 87 H 5.7725 -3.48667 1.13257 0
M  V30 88 H 5.4205 -4.95585 -0.860514 0
M  V30 89 H 5.1205 -5.83913 0.657192 0
M  V30 90 H 6.6445 -6.10138 -0.237598 0
M  V30 91 H 8.0585 -5.40083 1.92311 0
M  V30 92 H 6.4555 -5.3528 2.71284 0
M  V30 93 H 7.5255 -3.94346 2.82169 0
M  V30 94 N 8.8686 -0.792821 -1.36206 0
M  V30 95 C 9.7986 -0.207853 -2.32573 0
M  V30 96 C 10.7796 0.659055 -1.56813 0
M  V30 97 O 11.9646 0.592176 -1.84951 0
M  V30 98 C 9.0946 0.655449 -3.41059 0
M  V30 99 C 8.0486 -0.111842 -4.27854 0
M  V30 100 C 7.3746 0.872274 -5.27537 0
M  V30 101 C 8.6746 -1.30299 -5.05786 0
M  V30 102 H 10.3686 -1.01294 -2.81744 0
M  V30 103 H 7.9146 -0.48854 -1.3546 0
M  V30 104 H 9.8676 1.07464 -4.07467 0
M  V30 105 H 8.5916 1.49328 -2.90463 0
M  V30 106 H 7.2506 -0.512053 -3.63006 0
M  V30 107 H 6.8986 1.70523 -4.73214 0
M  V30 108 H 6.5986 0.363291 -5.86476 0
M  V30 109 H 8.1226 1.28996 -5.96818 0
M  V30 110 H 9.5366 -0.959379 -5.65216 0
M  V30 111 H 7.9336 -1.7455 -5.74154 0
M  V30 112 H 9.0036 -2.09663 -4.37229 0
M  V30 113 N 10.3467 1.47872 -0.545128 0
M  V30 114 C 11.3097 2.28337 0.198717 0
M  V30 115 C 12.3097 1.36255 0.853888 0
M  V30 116 O 13.4997 1.59003 0.711606 0
M  V30 117 C 10.6317 3.15585 1.28915 0
M  V30 118 H 11.8247 2.95567 -0.507941 0
M  V30 119 H 9.3777 1.53362 -0.301616 0
M  V30 120 H 10.1127 2.53019 2.02859 0
M  V30 121 H 9.8977 3.83337 0.824309 0
M  V30 122 H 11.3877 3.76243 1.81194 0
M  V30 123 N 11.8248 0.280983 1.55075 0
M  V30 124 C 13.0548 -0.336804 2.03836 0
M  V30 125 C 13.4628 -1.49577 1.15859 0
M  V30 126 O 12.8058 -1.82888 0.172503 0
M  V30 127 C 12.8678 -0.874616 3.48699 0
M  V30 128 C 12.5318 0.156478 4.56732 0
M  V30 129 C 13.5288 0.978032 5.10618 0
M  V30 130 C 11.2138 0.292409 5.01448 0
M  V30 131 C 13.2078 1.92165 6.07743 0
M  V30 132 C 10.8948 1.23949 5.98398 0
M  V30 133 C 11.8928 2.05261 6.51427 0
M  V30 134 O 11.5808 2.98367 7.4648 0
M  V30 135 H 11.3128 -0.0800885 0.671239 0
M  V30 136 H 13.8668 0.412589 2.01213 0
M  V30 137 H 12.0968 -1.67418 3.4858 0
M  V30 138 H 13.7858 -1.40612 3.80766 0
M  V30 139 H 14.5518 0.883782 4.7688 0
M  V30 140 H 10.4308 -0.330498 4.59814 0
M  V30 141 H 13.9748 2.55672 6.49059 0
M  V30 142 H 9.8718 1.33454 6.31554 0
M  V30 143 H 10.6398 2.93116 7.64215 0
M  V30 144 N 13.3029 -1.57598 0.00835791 0
M  V30 145 C 14.5329 -1.94931 -0.684496 0
M  V30 146 C 14.9409 -0.882233 -1.67372 0
M  V30 147 O 14.2839 0.146621 -1.83114 0
M  V30 148 C 14.3459 -3.283 -1.4649 0
M  V30 149 C 14.0099 -4.52548 -0.63634 0
M  V30 150 C 15.0069 -5.19839 0.0795586 0
M  V30 151 C 12.6919 -4.98942 -0.579849 0
M  V30 152 C 14.6859 -6.3183 0.840843 0
M  V30 153 C 12.3729 -6.10819 0.185155 0
M  V30 154 C 13.3709 -6.77121 0.894227 0
M  V30 155 O 13.0589 -7.86853 1.64673 0
M  V30 156 H 12.7909 -0.647249 -0.19505 0
M  V30 157 H 15.3449 -2.05318 0.0581272 0
M  V30 158 H 13.5749 -3.14345 -2.2522 0
M  V30 159 H 15.2639 -3.50685 -2.04389 0
M  V30 160 H 16.0299 -4.84979 0.0451202 0
M  V30 161 H 11.9089 -4.47155 -1.1213 0
M  V30 162 H 15.4529 -6.83513 1.39483 0
M  V30 163 H 11.3499 -6.4512 0.221384 0
M  V30 164 H 12.1179 -8.03412 1.56432 0
M  V30 165 N 14.781 0.264519 -1.55364 0
M  V30 166 C 16.028 0.994986 -1.7637 0
M  V30 167 C 16.356 1.85976 -0.5695 0
M  V30 168 O 15.611 1.90509 0.44776 0
M  V30 169 C 15.91 1.9004 -3.02687 0
M  V30 170 C 15.576 1.19243 -4.34847 0
M  V30 171 C 14.238 0.996709 -4.70764 0
M  V30 172 C 16.59 0.689296 -5.16622 0
M  V30 173 C 13.918 0.285261 -5.86006 0
M  V30 174 C 16.27 -0.00860079 -6.32599 0
M  V30 175 C 14.934 -0.215963 -6.67151 0
M  V30 176 H 14.204 0.364091 -0.645383 0
M  V30 177 H 16.851 0.266543 -1.89636 0
M  V30 178 H 15.156 2.69533 -2.84357 0
M  V30 179 H 16.853 2.46695 -3.16137 0
M  V30 180 H 13.443 1.3549 -4.06621 0
M  V30 181 H 17.627 0.828108 -4.89342 0
M  V30 182 H 12.883 0.113961 -6.11294 0
M  V30 183 H 17.057 -0.406186 -6.95214 0
M  V30 184 H 14.684 -0.769217 -7.56298 0
M  V30 185 N 16.2591 1.48442 0.529413 0
M  V30 186 C 17.4871 1.60151 1.30994 0
M  V30 187 C 17.9021 0.261985 1.86973 0
M  V30 188 O 17.2591 -0.748805 1.66431 0
M  V30 189 C 17.3101 2.64854 2.46038 0
M  V30 190 O 17.0311 3.93608 1.92365 0
M  V30 191 C 18.5321 2.87007 3.37849 0
M  V30 192 H 15.7521 0.539971 0.398338 0
M  V30 193 H 18.2961 1.94273 0.638597 0
M  V30 194 H 16.4511 2.33589 3.09055 0
M  V30 195 H 16.8651 4.51055 2.67675 0
M  V30 196 H 18.3391 3.64068 4.14919 0
M  V30 197 H 18.8161 1.95852 3.93114 0
M  V30 198 H 19.4221 3.19579 2.80623 0
M  V30 199 N 17.7372 -0.778329 1.37039 0
M  V30 200 C 18.6472 -1.92253 1.34446 0
M  V30 201 C 19.6632 -1.72267 0.244991 0
M  V30 202 O 20.8392 -1.95615 0.479258 0
M  V30 203 C 17.9042 -3.27282 1.144 0
M  V30 204 C 16.9652 -3.59969 2.33925 0
M  V30 205 C 16.1982 -4.88555 2.14825 0
M  V30 206 O 16.4212 -5.59113 1.12912 0
M  V30 207 O 15.3552 -5.20153 3.02861 0
M  V30 208 H 19.1812 -1.97392 2.30803 0
M  V30 209 H 16.7662 -0.920154 1.17701 0
M  V30 210 H 18.6482 -4.08062 1.05182 0
M  V30 211 H 17.3232 -3.23011 0.211124 0
M  V30 212 H 16.2302 -2.7945 2.48714 0
M  V30 213 H 17.5632 -3.68976 3.25757 0
M  V30 214 N 19.2153 -1.21501 -1.00376 0
M  V30 215 C 20.1453 -0.999478 -2.11028 0
M  V30 216 C 21.1263 0.0759671 -1.6993 0
M  V30 217 O 22.3113 -0.0841106 -1.94018 0
M  V30 218 C 19.4413 -0.564709 -3.42678 0
M  V30 219 C 18.3953 -1.58486 -3.97576 0
M  V30 220 C 17.7213 -1.00628 -5.25146 0
M  V30 221 C 19.0213 -2.97204 -4.29496 0
M  V30 222 H 20.7153 -1.92495 -2.29317 0
M  V30 223 H 18.2613 -0.92693 -1.102 0
M  V30 224 H 20.2143 -0.401091 -4.19487 0
M  V30 225 H 18.9383 0.396411 -3.24185 0
M  V30 226 H 17.5973 -1.73606 -3.22888 0
M  V30 227 H 17.2453 -0.0368439 -5.02987 0
M  V30 228 H 16.9453 -1.68771 -5.62841 0
M  V30 229 H 18.4693 -0.854015 -6.04598 0
M  V30 230 H 19.8833 -2.8552 -4.97143 0
M  V30 231 H 18.2803 -3.62372 -4.78338 0
M  V30 232 H 19.3503 -3.47956 -3.3772 0
M  V30 233 N 20.6934 1.19889 -1.02296 0
M  V30 234 C 21.6404 2.22901 -0.598651 0
M  V30 235 C 22.6104 1.61588 0.384521 0
M  V30 236 O 23.7954 1.88697 0.282522 0
M  V30 237 C 20.9354 3.45063 0.0504476 0
M  V30 238 C 20.0484 4.20783 -0.978053 0
M  V30 239 C 19.1834 5.30356 -0.299338 0
M  V30 240 C 18.2224 5.97826 -1.31416 0
M  V30 241 N 17.3594 6.98975 -0.661667 0
M  V30 242 H 22.1994 2.58554 -1.48169 0
M  V30 243 H 19.7364 1.27039 -0.741584 0
M  V30 244 H 21.6944 4.14831 0.443971 0
M  V30 245 H 20.3244 3.10084 0.897097 0
M  V30 246 H 19.3764 3.50018 -1.48969 0
M  V30 247 H 20.6884 4.67109 -1.74958 0
M  V30 248 H 19.8424 6.06516 0.149347 0
M  V30 249 H 18.5814 4.85084 0.504445 0
M  V30 250 H 17.5864 5.20422 -1.77317 0
M  V30 251 H 18.8114 6.45183 -2.11933 0
M  V30 252 H 16.7574 6.55886 0.122132 0
M  V30 253 H 16.6744 7.43461 -1.37117 0
M  V30 254 H 17.9424 7.7914 -0.236785 0
M  V30 255 N 22.1715 0.800033 1.35784 0
M  V30 256 C 23.4485 0.30088 1.93272 0
M  V30 257 C 23.8285 -1.20857 1.73081 0
M  V30 258 O 23.1765 -2.00502 1.09596 0
M  V30 259 C 23.3865 0.70511 3.41803 0
M  V30 260 C 24.7345 0.690871 4.18942 0
M  V30 261 O 25.7585 0.646244 3.50289 0
M  V30 262 O 24.6175 0.74332 5.41421 0
M  V30 263 H 21.7115 0.0771605 0.823393 0
M  V30 264 H 24.2575 0.88329 1.449 0
M  V30 265 H 23.0295 1.74571 3.50201 0
M  V30 266 H 22.6525 0.0971541 3.97481 0
M  V30 267 N 23.6496 -1.47581 0.552962 0
M  V30 268 C 24.9266 -1.95563 -0.0381515 0
M  V30 269 C 25.3066 -1.49552 -1.48988 0
M  V30 270 O 24.6546 -0.732414 -2.16444 0
M  V30 271 C 24.8646 -3.48848 0.102919 0
M  V30 272 C 26.2126 -4.24577 -0.0446082 0
M  V30 273 O 27.2366 -3.56187 0.0302548 0
M  V30 274 O 26.0956 -5.46116 -0.204923 0
M  V30 275 H 23.1896 -0.824321 -0.0665067 0
M  V30 276 H 25.7356 -1.58001 0.619186 0
M  V30 277 H 24.5076 -3.75129 1.11328 0
M  V30 278 H 24.1306 -3.93165 -0.592224 0
M  V30 279 N 25.1277 -0.289203 -1.54924 0
M  V30 280 C 26.0597 0.625583 -2.20497 0
M  V30 281 C 27.0727 1.10667 -1.19402 0
M  V30 282 O 28.2617 1.02615 -1.46056 0
M  V30 283 C 25.3617 1.86702 -2.82835 0
M  V30 284 C 24.5347 1.5304 -4.09753 0
M  V30 285 C 23.5937 2.62576 -4.56005 0
M  V30 286 O 22.6197 2.28167 -5.21468 0
M  V30 287 N 23.8217 3.92901 -4.27328 0
M  V30 288 H 26.5867 0.0642801 -2.99631 0
M  V30 289 H 24.1477 -0.110896 -1.6152 0
M  V30 290 H 26.1397 2.59304 -3.10715 0
M  V30 291 H 24.7097 2.33702 -2.07611 0
M  V30 292 H 23.9297 0.637564 -3.8901 0
M  V30 293 H 25.2177 1.28072 -4.92418 0
M  V30 294 H 24.6157 4.23671 -3.74859 0
M  V30 295 H 23.1727 4.61837 -4.59946 0
M  V30 296 N 26.6058 1.57591 -0.0167156 0
M  V30 297 C 27.8518 1.91567 0.665582 0
M  V30 298 C 28.1848 0.892298 1.72487 0
M  V30 299 O 27.4598 -0.0867127 1.94307 0
M  V30 300 C 27.7428 3.36069 1.29342 0
M  V30 301 C 27.5958 4.49135 0.244541 0
M  V30 302 C 28.9148 3.803 2.21495 0
M  V30 303 H 26.0338 0.69666 0.240488 0
M  V30 304 H 28.6758 1.89866 -0.0714356 0
M  V30 305 H 26.8258 3.3765 1.92158 0
M  V30 306 H 28.4978 4.59689 -0.385228 0
M  V30 307 H 26.7408 4.3165 -0.431379 0
M  V30 308 H 27.4118 5.47242 0.723207 0
M  V30 309 H 29.8878 3.80377 1.68678 0
M  V30 310 H 28.7638 4.82127 2.62382 0
M  V30 311 H 29.0248 3.15104 3.101 0
M  V30 312 N 28.0839 -0.256276 1.55502 0
M  V30 313 C 29.0309 -1.31714 1.89526 0
M  V30 314 C 30.0009 -1.4828 0.748479 0
M  V30 315 O 31.1859 -1.62416 1.00128 0
M  V30 316 C 28.3259 -2.66933 2.18725 0
M  V30 317 C 27.4389 -2.58452 3.4616 0
M  V30 318 C 26.5739 -3.85961 3.64976 0
M  V30 319 C 25.6129 -3.72059 4.86044 0
M  V30 320 N 24.7499 -4.9144 5.01429 0
M  V30 321 H 29.5899 -1.01998 2.80001 0
M  V30 322 H 27.1269 -0.492413 1.38613 0
M  V30 323 H 29.0849 -3.4563 2.33657 0
M  V30 324 H 27.7149 -2.94816 1.31466 0
M  V30 325 H 26.7669 -1.71374 3.3961 0
M  V30 326 H 28.0789 -2.44085 4.34999 0
M  V30 327 H 27.2329 -4.73101 3.79816 0
M  V30 328 H 25.9719 -4.03215 2.74353 0
M  V30 329 H 24.9769 -2.83302 4.7119 0
M  V30 330 H 26.2019 -3.56309 5.78118 0
M  V30 331 H 24.1479 -5.09072 4.13741 0
M  V30 332 H 24.0649 -4.79668 5.84341 0
M  V30 333 H 25.3329 -5.80104 5.20672 0
M  V30 334 N 29.562 -1.4872 -0.521534 0
M  V30 335 C 30.509 -1.63871 -1.62527 0
M  V30 336 C 31.479 -0.480559 -1.58996 0
M  V30 337 O 32.664 -0.705085 -1.77294 0
M  V30 338 C 29.804 -1.69227 -3.00759 0
M  V30 339 C 28.917 -2.96207 -3.14461 0
M  V30 340 C 28.052 -2.92671 -4.43303 0
M  V30 341 C 27.091 -4.14318 -4.50563 0
M  V30 342 N 26.228 -4.0881 -5.70805 0
M  V30 343 H 31.068 -2.58123 -1.48918 0
M  V30 344 H 28.605 -1.28 -0.724878 0
M  V30 345 H 30.563 -1.70314 -3.80853 0
M  V30 346 H 29.193 -0.784586 -3.1312 0
M  V30 347 H 28.245 -3.04826 -2.27564 0
M  V30 348 H 29.557 -3.86192 -3.15686 0
M  V30 349 H 28.711 -2.92206 -5.31696 0
M  V30 350 H 27.45 -2.00429 -4.44612 0
M  V30 351 H 26.455 -4.15049 -3.60575 0
M  V30 352 H 27.68 -5.07729 -4.50986 0
M  V30 353 H 25.626 -3.19394 -5.72995 0
M  V30 354 H 25.543 -4.92509 -5.7356 0
M  V30 355 H 26.811 -4.12418 -6.61462 0
M  V30 356 N 31.0401 0.771051 -1.3745 0
M  V30 357 C 32.2891 1.52491 -1.3202 0
M  V30 358 C 32.6021 1.9538 0.0927347 0
M  V30 359 O 33.8081 2.70159 0.269503 0
M  V30 360 C 32.2641 2.75366 -2.31736 0
M  V30 361 C 31.8721 2.39573 -3.78562 0
M  V30 362 C 33.6161 3.53307 -2.35318 0
M  V30 363 C 31.5231 3.58954 -4.70007 0
M  V30 364 H 30.4531 0.572506 -0.490666 0
M  V30 365 H 33.1041 0.844474 -1.62914 0
M  V30 366 H 31.4861 3.45303 -1.93861 0
M  V30 367 H 32.6601 1.77415 -4.25277 0
M  V30 368 H 30.9751 1.74805 -3.77932 0
M  V30 369 H 33.5721 4.42039 -3.00842 0
M  V30 370 H 33.9151 3.93217 -1.36698 0
M  V30 371 H 34.4481 2.90367 -2.71904 0
M  V30 372 H 31.1871 3.24125 -5.69757 0
M  V30 373 H 30.7071 4.20214 -4.27996 0
M  V30 374 H 32.3861 4.25758 -4.87175 0
M  V30 375 N 32.5182 1.22032 0.997298 0
M  V30 376 C 33.7952 0.950823 1.70935 0
M  V30 377 C 34.1752 -0.535292 2.042 0
M  V30 378 O 33.5232 -1.50217 1.72183 0
M  V30 379 C 33.7332 1.84386 2.96315 0
M  V30 380 C 35.0812 2.09732 3.69185 0
M  V30 381 O 36.1052 1.81798 3.06314 0
M  V30 382 O 34.9642 2.57018 4.82291 0
M  V30 383 H 32.0582 0.357204 0.745878 0
M  V30 384 H 34.6042 1.32997 1.05404 0
M  V30 385 H 33.3762 2.84928 2.68201 0
M  V30 386 H 32.9992 1.46602 3.69586 0
M  V30 387 N 33.9963 -1.19345 1.0293 0
M  V30 388 C 34.9433 -2.2258 0.610464 0
M  V30 389 C 35.9133 -1.6179 -0.375946 0
M  V30 390 O 37.0983 -1.88844 -0.272511 0
M  V30 391 C 34.2383 -3.45085 -0.0321473 0
M  V30 392 C 33.3513 -4.20258 1.00035 0
M  V30 393 C 32.4863 -5.3019 0.32746 0
M  V30 394 C 31.5253 -5.97121 1.34584 0
M  V30 395 N 30.6623 -6.98615 0.698726 0
M  V30 396 H 35.5023 -2.57764 1.49538 0
M  V30 397 H 33.0393 -1.26644 0.748311 0
M  V30 398 H 34.9973 -4.15061 -0.421966 0
M  V30 399 H 33.6273 -3.10555 -0.88064 0
M  V30 400 H 32.6793 -3.49223 1.50823 0
M  V30 401 H 33.9913 -4.66175 1.77433 0
M  V30 402 H 33.1453 -6.06587 -0.11718 0
M  V30 403 H 31.8843 -4.85345 -0.478713 0
M  V30 404 H 30.8893 -5.19474 1.80074 0
M  V30 405 H 32.1143 -6.4405 2.15352 0
M  V30 406 H 30.0603 -6.55942 -0.0873471 0
M  V30 407 H 29.9773 -7.42724 1.41058 0
M  V30 408 H 31.2453 -7.79004 0.278102 0
M  V30 409 N 35.4744 -0.807222 -1.35358 0
M  V30 410 C 36.7044 -0.399796 -2.02695 0
M  V30 411 C 37.1124 0.994176 -1.60974 0
M  V30 412 O 36.4554 1.65209 -0.803226 0
M  V30 413 C 36.5174 -0.404445 -3.57218 0
M  V30 414 C 36.1814 -1.74904 -4.22206 0
M  V30 415 C 37.1784 -2.70743 -4.4384 0
M  V30 416 C 34.8634 -2.03322 -4.5931 0
M  V30 417 C 36.8574 -3.93183 -5.01683 0
M  V30 418 C 34.5444 -3.26026 -5.16866 0
M  V30 419 C 35.5424 -4.20774 -5.37994 0
M  V30 420 O 35.2304 -5.41312 -5.94337 0
M  V30 421 H 34.9624 -0.160517 -0.656666 0
M  V30 422 H 37.5164 -1.09235 -1.73945 0
M  V30 423 H 35.7464 0.344707 -3.85161 0
M  V30 424 H 37.4354 -0.0192429 -4.05895 0
M  V30 425 H 38.2014 -2.5008 -4.15554 0
M  V30 426 H 34.0804 -1.30384 -4.42178 0
M  V30 427 H 37.6244 -4.6715 -5.1809 0
M  V30 428 H 33.5214 -3.46559 -5.44579 0
M  V30 429 H 34.2894 -5.42618 -6.12787 0
M  V30 430 N 36.9525 1.47285 -0.560781 0
M  V30 431 C 37.8825 2.32857 0.173105 0
M  V30 432 C 38.8635 1.44009 0.905281 0
M  V30 433 O 40.0485 1.7286 0.885046 0
M  V30 434 C 37.1785 3.25861 1.20133 0
M  V30 435 C 36.1325 4.23978 0.585388 0
M  V30 436 C 35.4585 5.06332 1.7185 0
M  V30 437 C 36.7585 5.20242 -0.463178 0
M  V30 438 H 38.4525 2.94466 -0.541307 0
M  V30 439 H 35.9985 1.41601 -0.261764 0
M  V30 440 H 37.9515 3.84569 1.72293 0
M  V30 441 H 36.6755 2.62315 1.94573 0
M  V30 442 H 35.3345 3.66501 0.085054 0
M  V30 443 H 34.9825 4.39186 2.45203 0
M  V30 444 H 34.6825 5.72762 1.31213 0
M  V30 445 H 36.2065 5.67899 2.24329 0
M  V30 446 H 37.6205 5.73293 -0.027502 0
M  V30 447 H 36.0175 5.94896 -0.788627 0
M  V30 448 H 37.0875 4.65504 -1.35773 0
M  V30 449 N 38.4306 0.297415 1.54768 0
M  V30 450 C 39.6606 -0.315165 2.04182 0
M  V30 451 C 40.0686 -1.4834 1.17439 0
M  V30 452 O 39.4116 -1.82695 0.191891 0
M  V30 453 C 39.4736 -0.837583 3.49607 0
M  V30 454 C 39.1376 0.204912 4.5654 0
M  V30 455 C 40.1346 1.03214 5.09552 0
M  V30 456 C 37.8196 0.345578 5.0111 0
M  V30 457 C 39.8136 1.986 6.05671 0
M  V30 458 C 37.5006 1.30289 5.97049 0
M  V30 459 C 38.4986 2.12159 6.49213 0
M  V30 460 O 38.1866 3.06268 7.43273 0
M  V30 461 H 37.9186 -0.0729646 0.672051 0
M  V30 462 H 40.4726 0.433907 2.00765 0
M  V30 463 H 38.7026 -1.63712 3.50336 0
M  V30 464 H 40.3916 -1.36566 3.82236 0
M  V30 465 H 41.1576 0.934312 4.75916 0
M  V30 466 H 37.0366 -0.28171 4.60138 0
M  V30 467 H 40.5806 2.62542 6.46311 0
M  V30 468 H 36.4776 1.40145 6.30103 0
M  V30 469 H 37.2456 3.01205 7.61064 0
M  V30 470 N 39.9087 -1.5758 0.0250728 0
M  V30 471 C 40.8717 -2.08896 -0.943139 0
M  V30 472 C 41.8717 -1.00321 -1.25668 0
M  V30 473 O 43.0617 -1.26495 -1.19769 0
M  V30 474 C 40.1937 -2.55143 -2.26086 0
M  V30 475 H 41.3867 -2.95723 -0.498775 0
M  V30 476 H 38.9397 -1.54703 -0.222888 0
M  V30 477 H 39.6747 -1.71633 -2.75159 0
M  V30 478 H 39.4597 -3.34461 -2.04641 0
M  V30 479 H 40.9497 -2.95083 -2.95492 0
M  V30 480 N 41.3868 0.248026 -1.55636 0
M  V30 481 C 42.3198 1.3334 -1.85191 0
M  V30 482 C 43.2978 1.46429 -0.706906 0
M  V30 483 O 44.4818 1.62662 -0.952544 0
M  V30 484 C 41.6088 2.70703 -2.03562 0
M  V30 485 C 40.6548 2.7477 -3.26196 0
M  V30 486 S 41.4878 2.31493 -4.82878 0
M  V30 487 C 42.6438 3.70783 -5.04253 0
M  V30 488 H 42.8768 1.08072 -2.76962 0
M  V30 489 H 40.4098 0.448952 -1.47729 0
M  V30 490 H 42.3678 3.49798 -2.1483 0
M  V30 491 H 41.0288 2.9321 -1.12635 0
M  V30 492 H 40.2218 3.75648 -3.36013 0
M  V30 493 H 39.8238 2.03719 -3.13647 0
M  V30 494 H 42.1158 4.6627 -4.91527 0
M  V30 495 H 43.0588 3.65901 -6.06236 0
M  V30 496 H 43.4668 3.63244 -4.32105 0
M  V30 497 N 42.8649 1.48995 0.513639 0
M  V30 498 C 44.2809 1.35478 0.843682 0
M  V30 499 C 44.4809 0.378213 1.97919 0
M  V30 500 O 43.5369 -0.194689 2.51748 0
M  V30 501 C 44.8499 2.75901 1.1958 0
M  V30 502 C 46.3979 2.84509 1.30474 0
M  V30 503 C 46.8729 4.25671 1.69021 0
M  V30 504 N 48.3639 4.28422 1.76094 0
M  V30 505 C 49.0989 5.34601 2.07338 0
M  V30 506 N 48.5949 6.5104 2.36894 0
M  V30 507 N 50.3879 5.22007 2.08483 0
M  V30 508 H 42.5389 2.11092 -0.235328 0
M  V30 509 H 44.8019 0.947039 -0.0426669 0
M  V30 510 H 44.5079 3.49001 0.434913 0
M  V30 511 H 44.3819 3.10467 2.1422 0
M  V30 512 H 46.7689 2.11655 2.05637 0
M  V30 513 H 46.8499 2.53542 0.339155 0
M  V30 514 H 46.4939 4.99048 0.944135 0
M  V30 515 H 46.4239 4.54094 2.66658 0
M  V30 516 H 48.9149 3.44441 1.55464 0
M  V30 517 H 49.2279 7.2779 2.59887 0
M  V30 518 H 47.5729 6.54287 2.34378 0
M  V30 519 H 50.7639 4.30051 1.84861 0
M  V30 520 H 50.9369 6.04854 2.325 0
M  V30 521 N 44.343 -0.763751 1.37857 0
M  V30 522 C 45.273 -1.89103 1.36975 0
M  V30 523 C 46.254 -1.68439 0.237152 0
M  V30 524 O 47.439 -1.8918 0.438713 0
M  V30 525 C 44.569 -3.26496 1.18395 0
M  V30 526 C 43.523 -3.61741 2.28751 0
M  V30 527 C 42.849 -4.97762 1.95286 0
M  V30 528 C 44.149 -3.67665 3.70972 0
M  V30 529 H 45.843 -1.90099 2.31307 0
M  V30 530 H 43.389 -0.91319 1.11341 0
M  V30 531 H 45.342 -4.05003 1.16406 0
M  V30 532 H 44.066 -3.25955 0.205215 0
M  V30 533 H 42.725 -2.85547 2.29909 0
M  V30 534 H 42.373 -4.93769 0.959221 0
M  V30 535 H 42.073 -5.22313 2.69189 0
M  V30 536 H 43.597 -5.7866 1.94898 0
M  V30 537 H 45.011 -4.36307 3.719 0
M  V30 538 H 43.408 -4.03718 4.43995 0
M  V30 539 H 44.478 -2.68134 4.0402 0
M  V30 540 N 45.8211 -1.22559 -0.990812 0
M  V30 541 C 47.0461 -1.07862 -1.77145 0
M  V30 542 C 47.4711 0.366447 -1.84496 0
M  V30 543 O 46.8291 1.26478 -1.29896 0
M  V30 544 C 46.8771 -1.69686 -3.18181 0
M  V30 545 O 45.9811 -0.951946 -4.01263 0
M  V30 546 H 45.3221 -0.378712 -0.545411 0
M  V30 547 H 47.8521 -1.62399 -1.2445 0
M  V30 548 H 47.8621 -1.74496 -3.68802 0
M  V30 549 H 46.5371 -2.74841 -3.12146 0
M  V30 550 H 45.1141 -0.980011 -3.59792 0
M  V30 551 N 47.2992 1.18797 -1.03562 0
M  V30 552 C 48.5762 1.84469 -0.650434 0
M  V30 553 C 48.9562 1.92319 0.870433 0
M  V30 554 O 48.3042 1.44528 1.76986 0
M  V30 555 C 48.5142 3.2306 -1.32036 0
M  V30 556 C 49.8622 3.9915 -1.44792 0
M  V30 557 O 50.8862 3.32481 -1.27806 0
M  V30 558 O 49.7452 5.18587 -1.72423 0
M  V30 559 H 46.8392 0.795251 -0.226946 0
M  V30 560 H 49.3852 1.26231 -1.13419 0
M  V30 561 H 48.1572 3.1222 -2.3587 0
M  V30 562 H 47.7802 3.88949 -0.8249 0
M  V30 563 N 48.7773 0.814389 1.34928 0
M  V30 564 C 49.6873 0.231978 2.3345 0
M  V30 565 C 50.7033 -0.629139 1.62228 0
M  V30 566 O 51.8793 -0.539052 1.94052 0
M  V30 567 C 48.9443 -0.603482 3.41407 0
M  V30 568 C 48.0053 0.279037 4.28392 0
M  V30 569 C 47.2383 -0.516643 5.31193 0
M  V30 570 O 47.4613 -1.75068 5.4287 0
M  V30 571 O 46.3953 0.0965652 6.01823 0
M  V30 572 H 50.2213 1.04721 2.85074 0
M  V30 573 H 47.8063 0.576343 1.37836 0
M  V30 574 H 49.6883 -1.07908 4.0735 0
M  V30 575 H 48.3633 -1.39618 2.92042 0
M  V30 576 H 47.2703 0.801948 3.65403 0
M  V30 577 H 48.6033 1.03588 4.81176 0
M  V30 578 N 50.2554 -1.46986 0.568584 0
M  V30 579 C 51.4834 -2.0683 0.0539956 0
M  V30 580 C 51.8984 -1.41953 -1.24478 0
M  V30 581 O 51.2554 -0.519933 -1.74937 0
M  V30 582 C 51.3064 -3.61254 -0.133362 0
M  V30 583 O 51.0274 -4.237 1.11399 0
M  V30 584 C 52.5284 -4.37992 -0.683927 0
M  V30 585 H 49.7484 -0.669058 0.0510141 0
M  V30 586 H 52.2924 -1.88824 0.785234 0
M  V30 587 H 50.4474 -3.78735 -0.81477 0
M  V30 588 H 50.8614 -5.16388 0.91888 0
M  V30 589 H 52.3354 -5.46684 -0.764263 0
M  V30 590 H 52.8124 -4.05058 -1.69778 0
M  V30 591 H 53.4184 -4.25283 -0.0378494 0
M  V30 592 N 51.7335 -0.305618 -1.54608 0
M  V30 593 C 52.6635 0.561482 -2.26649 0
M  V30 594 C 53.6445 1.13415 -1.26772 0
M  V30 595 O 54.8295 1.16262 -1.55553 0
M  V30 596 C 51.9595 1.73122 -3.01075 0
M  V30 597 C 50.9135 1.2887 -4.08138 0
M  V30 598 C 50.2395 2.54396 -4.70305 0
M  V30 599 C 51.5395 0.416578 -5.20636 0
M  V30 600 H 53.2335 -0.0393902 -2.99374 0
M  V30 601 H 50.7795 -0.020385 -1.43986 0
M  V30 602 H 52.7325 2.34396 -3.50195 0
M  V30 603 H 51.4565 2.3584 -2.25936 0
M  V30 604 H 50.1155 0.698991 -3.59875 0
M  V30 605 H 49.7635 3.15439 -3.918 0
M  V30 606 H 49.4635 2.25486 -5.42614 0
M  V30 607 H 50.9875 3.16464 -5.2219 0
M  V30 608 H 52.4015 0.935116 -5.65622 0
M  V30 609 H 50.7985 0.221046 -5.99693 0
M  V30 610 H 51.8685 -0.557162 -4.81688 0
M  V30 611 N 53.2116 1.57565 -0.0334293 0
M  V30 612 C 54.4606 1.91155 0.643639 0
M  V30 613 C 54.7736 0.91192 1.73042 0
M  V30 614 O 55.9796 1.13923 2.46442 0
M  V30 615 C 54.4356 3.39443 1.1961 0
M  V30 616 C 54.0436 4.47774 0.142381 0
M  V30 617 C 55.7876 3.82094 1.84944 0
M  V30 618 C 53.6946 5.87162 0.706727 0
M  V30 619 H 52.6246 0.713368 0.244176 0
M  V30 620 H 55.2756 1.8323 -0.0994323 0
M  V30 621 H 53.6576 3.42313 1.99092 0
M  V30 622 H 54.8316 4.56469 -0.630296 0
M  V30 623 H 53.1466 4.14352 -0.412446 0
M  V30 624 H 55.7436 4.83591 2.2813 0
M  V30 625 H 56.0866 3.17386 2.69392 0
M  V30 626 H 56.6196 3.81665 1.12145 0
M  V30 627 H 53.3586 6.55424 -0.0997178 0
M  V30 628 H 52.8786 5.82064 1.44779 0
M  V30 629 H 54.5576 6.35866 1.19514 0
M  V30 630 N 54.6897 -0.239769 1.55765 0
M  V30 631 C 55.9667 -0.990056 1.68693 0
M  V30 632 C 56.3467 -2.03107 0.5754 0
M  V30 633 O 55.6947 -2.24604 -0.42017 0
M  V30 634 C 55.9047 -1.61696 3.09282 0
M  V30 635 C 57.2527 -2.11613 3.6811 0
M  V30 636 O 58.2767 -1.71624 3.12127 0
M  V30 637 O 57.1357 -2.85057 4.66267 0
M  V30 638 H 54.2297 -0.461299 0.686391 0
M  V30 639 H 56.7757 -0.232991 1.68093 0
M  V30 640 H 55.5477 -0.864357 3.81634 0
M  V30 641 H 55.1707 -2.44005 3.13923 0
M  V30 642 N 56.1678 -1.49265 -0.50573 0
M  V30 643 C 57.4168 -1.57761 -1.25675 0
M  V30 644 C 57.7298 -0.267371 -1.93764 0
M  V30 645 O 58.9358 -0.230827 -2.70517 0
M  V30 646 C 57.3918 -2.78332 -2.28165 0
M  V30 647 C 56.9998 -4.16096 -1.66037 0
M  V30 648 C 58.7438 -2.96155 -3.04125 0
M  V30 649 C 56.6508 -5.27895 -2.6661 0
M  V30 650 H 55.5808 -0.587391 -0.472745 0
M  V30 651 H 58.2318 -1.75644 -0.53118 0
M  V30 652 H 56.6138 -2.53934 -3.03865 0
M  V30 653 H 57.7878 -4.50612 -0.963622 0
M  V30 654 H 56.1028 -4.03591 -1.02484 0
M  V30 655 H 58.6998 -3.76849 -3.79327 0
M  V30 656 H 59.0428 -2.06534 -3.61455 0
M  V30 657 H 59.5758 -3.2057 -2.35541 0
M  V30 658 H 56.3148 -6.1956 -2.14068 0
M  V30 659 H 55.8348 -4.97839 -3.34539 0
M  V30 660 H 57.5138 -5.57031 -3.29129 0
M  V30 661 N 57.6459 0.756429 -1.3826 0
M  V30 662 C 58.5789 1.87802 -1.29637 0
M  V30 663 C 59.5569 1.61667 -0.173939 0
M  V30 664 O 60.7409 1.85208 -0.350775 0
M  V30 665 C 57.8679 3.23354 -1.00797 0
M  V30 666 C 56.9139 3.68379 -2.14939 0
M  V30 667 S 57.7469 3.8025 -3.77054 0
M  V30 668 C 58.9029 5.18626 -3.50396 0
M  V30 669 H 59.1359 1.94829 -2.24564 0
M  V30 670 H 56.6689 0.919117 -1.24063 0
M  V30 671 H 58.6269 4.01637 -0.848413 0
M  V30 672 H 57.2879 3.14008 -0.0759369 0
M  V30 673 H 56.4809 4.66693 -1.90299 0
M  V30 674 H 56.0829 2.97242 -2.26988 0
M  V30 675 H 58.3749 6.04289 -3.06334 0
M  V30 676 H 59.3179 5.48286 -4.48094 0
M  V30 677 H 59.7259 4.87289 -2.84973 0
M  V30 678 N 59.124 1.23083 0.984299 0
M  V30 679 C 60.352 1.08714 1.76037 0
M  V30 680 C 60.767 -0.361691 1.85303 0
M  V30 681 O 60.124 -1.25034 1.32939 0
M  V30 682 C 60.175 1.70206 3.18923 0
M  V30 683 O 59.896 3.09423 3.10144 0
M  V30 684 C 61.397 1.61227 4.12941 0
M  V30 685 H 58.617 0.380664 0.552572 0
M  V30 686 H 61.161 1.62853 1.23689 0
M  V30 687 H 59.316 1.20109 3.6831 0
M  V30 688 H 59.73 3.39188 4.00065 0
M  V30 689 H 61.204 2.08962 5.10919 0
M  V30 690 H 61.681 0.570375 4.35481 0
M  V30 691 H 62.287 2.10671 3.69456 0
M  V30 692 N 60.6021 -1.18246 1.0419 0
M  V30 693 C 62.0181 -1.40269 0.761366 0
M  V30 694 C 62.2181 -1.90777 -0.648578 0
M  V30 695 O 61.2741 -2.0929 -1.41258 0
M  V30 696 C 62.5871 -2.40237 1.8085 0
M  V30 697 C 64.1351 -2.53961 1.82955 0
M  V30 698 C 64.6101 -3.57194 2.86664 0
M  V30 699 N 66.1011 -3.64702 2.85563 0
M  V30 700 C 66.8361 -4.44309 3.6246 0
M  V30 701 N 66.3321 -5.27514 4.49111 0
M  V30 702 N 68.1251 -4.39084 3.50944 0
M  V30 703 H 60.2761 -0.837882 1.95175 0
M  V30 704 H 62.5391 -0.430608 0.84456 0
M  V30 705 H 62.2451 -2.10176 2.81991 0
M  V30 706 H 62.1191 -3.39601 1.64168 0
M  V30 707 H 64.5061 -2.83338 0.824855 0
M  V30 708 H 64.5871 -1.54706 2.03715 0
M  V30 709 H 64.2311 -3.28558 3.87314 0
M  V30 710 H 64.1611 -4.5613 2.6316 0
M  V30 711 H 66.6521 -3.05289 2.22727 0
M  V30 712 H 66.9651 -5.85411 5.04493 0
M  V30 713 H 65.3101 -5.2693 4.53178 0
M  V30 714 H 68.5011 -3.7313 2.82651 0
M  V30 715 H 68.6741 -5.00883 4.11121 0
M  V30 716 N 62.0802 -0.821533 -1.34494 0
M  V30 717 C 63.3272 -0.408946 -1.98328 0
M  V30 718 C 63.6552 1.02764 -1.65136 0
M  V30 719 O 62.9102 1.73026 -0.914349 0
M  V30 720 C 63.2092 -0.556512 -3.53041 0
M  V30 721 C 62.8752 -1.95861 -4.0614 0
M  V30 722 C 61.5372 -2.34217 -4.20352 0
M  V30 723 C 63.8892 -2.87523 -4.34718 0
M  V30 724 C 61.2172 -3.63572 -4.6047 0
M  V30 725 C 63.5692 -4.1634 -4.76281 0
M  V30 726 C 62.2332 -4.54675 -4.88699 0
M  V30 727 H 61.5032 -0.149644 -0.725732 0
M  V30 728 H 64.1502 -1.04521 -1.6046 0
M  V30 729 H 62.4552 0.163148 -3.9146 0
M  V30 730 H 64.1522 -0.217826 -4.00408 0
M  V30 731 H 60.7422 -1.65066 -3.95539 0
M  V30 732 H 64.9262 -2.59133 -4.23277 0
M  V30 733 H 60.1822 -3.93101 -4.68275 0
M  V30 734 H 64.3562 -4.87455 -4.97354 0
M  V30 735 H 61.9832 -5.54959 -5.19542 0
M  V30 736 N 63.5583 1.46682 -0.576371 0
M  V30 737 C 64.9743 1.57822 -0.237562 0
M  V30 738 C 65.1743 1.57237 1.26011 0
M  V30 739 O 64.2303 1.48596 2.04146 0
M  V30 740 C 65.5433 2.87499 -0.881168 0
M  V30 741 C 67.0913 3.01119 -0.85417 0
M  V30 742 C 67.5663 4.33524 -1.4772 0
M  V30 743 N 69.0573 4.40207 -1.44125 0
M  V30 744 C 69.7923 5.4126 -1.89276 0
M  V30 745 N 69.2883 6.49021 -2.42371 0
M  V30 746 N 71.0813 5.32422 -1.80231 0
M  V30 747 H 63.2323 1.45306 -1.54919 0
M  V30 748 H 65.4953 0.692733 -0.647167 0
M  V30 749 H 65.2013 2.9372 -1.93447 0
M  V30 750 H 65.0753 3.75224 -0.385592 0
M  V30 751 H 67.4623 2.94485 0.190491 0
M  V30 752 H 67.5433 2.14887 -1.3877 0
M  V30 753 H 67.1873 4.40916 -2.52103 0
M  V30 754 H 67.1173 5.1852 -0.918947 0
M  V30 755 H 69.6083 3.62931 -1.05307 0
M  V30 756 H 69.9213 7.2233 -2.74698 0
M  V30 757 H 68.2663 6.49858 -2.46393 0
M  V30 758 H 71.4573 4.47137 -1.38514 0
M  V30 759 H 71.6303 6.11034 -2.15735 0
M  V30 760 N 65.0364 0.313813 1.54444 0
M  V30 761 C 65.9834 -0.55655 2.23989 0
M  V30 762 C 66.9534 -1.11943 1.22711 0
M  V30 763 O 68.1384 -1.16158 1.51367 0
M  V30 764 C 65.2784 -1.71635 2.99392 0
M  V30 765 C 64.3914 -1.18364 4.15468 0
M  V30 766 C 63.5264 -2.30834 4.78424 0
M  V30 767 C 62.5654 -1.74762 5.86622 0
M  V30 768 N 61.7024 -2.80855 6.43479 0
M  V30 769 H 66.5424 0.0430893 2.97969 0
M  V30 770 H 64.0794 0.0330359 1.47063 0
M  V30 771 H 66.0374 -2.39868 3.41349 0
M  V30 772 H 64.6674 -2.28742 2.27765 0
M  V30 773 H 63.7194 -0.393163 3.78363 0
M  V30 774 H 65.0314 -0.733262 4.93381 0
M  V30 775 H 64.1854 -3.0699 5.23299 0
M  V30 776 H 62.9244 -2.79204 3.99871 0
M  V30 777 H 61.9294 -0.970995 5.41158 0
M  V30 778 H 63.1544 -1.2728 6.67066 0
M  V30 779 H 61.1004 -3.28535 5.67804 0
M  V30 780 H 61.0174 -2.40351 7.16776 0
M  V30 781 H 62.2854 -3.5687 6.93011 0
M  V30 782 N 66.5145 -1.57545 0.0417849 0
M  V30 783 C 67.4245 -2.14451 -0.951213 0
M  V30 784 C 68.4405 -1.09992 -1.34825 0
M  V30 785 O 69.6165 -1.42114 -1.42708 0
M  V30 786 C 66.6815 -2.67063 -2.21084 0
M  V30 787 C 65.7425 -3.86284 -1.87304 0
M  V30 788 C 64.9755 -4.36378 -3.07261 0
M  V30 789 O 65.1985 -3.85587 -4.20332 0
M  V30 790 O 64.1325 -5.28077 -2.88822 0
M  V30 791 H 67.9585 -2.99601 -0.497287 0
M  V30 792 H 65.5435 -1.48317 -0.179567 0
M  V30 793 H 67.4255 -3.00914 -2.95006 0
M  V30 794 H 66.1005 -1.84989 -2.65633 0
M  V30 795 H 65.0075 -3.57338 -1.10727 0
M  V30 796 H 66.3405 -4.6956 -1.47562 0
M  V30 797 N 67.9926 0.231505 -1.5589 0
M  V30 798 C 68.9256 1.31369 -1.86595 0
M  V30 799 C 69.9036 1.45671 -0.722397 0
M  V30 800 O 71.0876 1.61642 -0.969743 0
M  V30 801 C 68.2146 2.68529 -2.06421 0
M  V30 802 C 67.2606 2.71295 -3.29092 0
M  V30 803 S 68.0936 2.26358 -4.85306 0
M  V30 804 C 69.2496 3.65414 -5.08157 0
M  V30 805 H 69.4826 1.05128 -2.78092 0
M  V30 806 H 67.0156 0.433259 -1.48197 0
M  V30 807 H 68.9736 3.47499 -2.18528 0
M  V30 808 H 67.6346 2.91999 -1.15738 0
M  V30 809 H 66.8276 3.72063 -3.39978 0
M  V30 810 H 66.4296 2.0038 -3.15791 0
M  V30 811 H 68.7216 4.6103 -4.96445 0
M  V30 812 H 69.6646 3.5945 -6.10083 0
M  V30 813 H 70.0726 3.5864 -4.35933 0
M  V30 814 N 69.4707 1.49531 0.497807 0
M  V30 815 C 70.4177 1.66436 1.59899 0
M  V30 816 C 71.3877 0.505793 1.58212 0
M  V30 817 O 72.5727 0.733202 1.7615 0
M  V30 818 C 69.7127 1.7399 2.98029 0
M  V30 819 C 68.8257 3.01172 3.09708 0
M  V30 820 C 67.9607 2.99686 4.38591 0
M  V30 821 C 66.9997 4.21434 4.43914 0
M  V30 822 N 66.1367 4.1784 5.64229 0
M  V30 823 H 70.9767 2.60459 1.44793 0
M  V30 824 H 68.5137 1.29137 0.704423 0
M  V30 825 H 70.4717 1.76352 3.78095 0
M  V30 826 H 69.1017 0.834301 3.11832 0
M  V30 827 H 68.1537 3.08408 2.22685 0
M  V30 828 H 69.4657 3.91165 3.09502 0
M  V30 829 H 68.6197 3.00628 5.2698 0
M  V30 830 H 67.3587 2.07477 4.41367 0
M  V30 831 H 66.3637 4.20733 3.53926 0
M  V30 832 H 67.5887 5.14839 4.42851 0
M  V30 833 H 65.5347 3.28469 5.67841 0
M  V30 834 H 65.4517 5.01571 5.65652 0
M  V30 835 H 66.7197 4.22889 6.54817 0
M  V30 836 N 70.9488 -0.749086 1.3866 0
M  V30 837 C 71.8968 -1.88428 1.36373 0
M  V30 838 C 72.8908 -1.67561 0.248929 0
M  V30 839 O 74.0968 -1.75074 0.41821 0
M  V30 840 H 70.4718 -0.620023 0.42553 0
M  V30 841 H 72.4428 -1.87473 2.32156 0
M  V30 842 C 71.1918 -3.25961 1.21014 0
M  V30 843 H 70.5148 -3.42607 2.06059 0
M  V30 844 H 71.9548 -4.05625 1.23469 0
M  V30 845 C 70.4138 -3.36799 -0.0825941 0
M  V30 846 O 70.9438 -3.87517 -1.05797 0
M  V30 847 N 69.1498 -2.90258 -0.140939 0
M  V30 848 H 68.6968 -2.49174 0.653477 0
M  V30 849 H 68.6548 -2.97889 -1.00545 0
M  V30 850 N 72.4269 -1.23603 -0.977757 0
M  V30 851 C 73.6749 -1.06759 -1.71601 0
M  V30 852 C 73.9959 0.395929 -1.90938 0
M  V30 853 O 73.2659 1.28356 -1.47992 0
M  V30 854 H 71.8459 -0.392062 -0.635843 0
M  V30 855 H 74.5079 -1.55362 -1.1768 0
M  V30 856 H 73.6039 -1.55763 -2.70452 0
M  V30 857 N 73.905 1.17692 -1.04816 0
M  V30 858 C 74.835 2.23777 -0.666791 0
M  V30 859 C 75.816 1.66796 0.33361 0
M  V30 860 O 77.001 1.93039 0.212042 0
M  V30 861 C 74.131 3.47281 -0.0367933 0
M  V30 862 C 73.085 4.17059 -0.961546 0
M  V30 863 C 72.411 5.34342 -0.195626 0
M  V30 864 C 73.711 4.69713 -2.28402 0
M  V30 865 H 75.405 2.55933 -1.55367 0
M  V30 866 H 72.951 1.23019 -0.748484 0
M  V30 867 H 74.904 4.20706 0.241775 0
M  V30 868 H 73.628 3.14381 0.885004 0
M  V30 869 H 72.287 3.45541 -1.22462 0
M  V30 870 H 71.935 4.97692 0.728816 0
M  V30 871 H 71.635 5.81966 -0.811775 0
M  V30 872 H 73.159 6.10553 0.0757473 0
M  V30 873 H 74.573 5.34794 -2.06563 0
M  V30 874 H 72.97 5.279 -2.8538 0
M  V30 875 H 74.04 3.86726 -2.92525 0
M  V30 876 N 75.3831 0.828654 1.34056 0
M  V30 877 C 76.6081 0.431637 2.02859 0
M  V30 878 C 77.0331 -0.956339 1.61975 0
M  V30 879 O 76.3911 -1.62338 0.807228 0
M  V30 880 C 76.4391 0.548323 3.56407 0
M  V30 881 O 75.5431 -0.429556 4.10157 0
M  V30 882 H 74.8841 0.176886 0.640006 0
M  V30 883 H 77.4141 1.12066 1.71179 0
M  V30 884 H 77.4241 0.426196 4.05768 0
M  V30 885 H 76.0991 1.5606 3.8551 0
M  V30 886 H 74.6761 -0.265836 3.71951 0
M  V30 887 N 76.8612 -1.46375 0.584142 0
M  V30 888 C 78.2772 -1.57694 0.245929 0
M  V30 889 C 78.4772 -1.57903 -1.25175 0
M  V30 890 O 77.5332 -1.49676 -2.03355 0
M  V30 891 C 78.8462 -2.87028 0.896402 0
M  V30 892 C 80.3942 -3.00662 0.870127 0
M  V30 893 C 80.8692 -4.32734 1.50017 0
M  V30 894 N 82.3602 -4.39436 1.46458 0
M  V30 895 C 83.0952 -5.40248 1.92144 0
M  V30 896 N 82.5912 -6.47726 2.4581 0
M  V30 897 N 84.3842 -5.31459 1.83052 0
M  V30 898 H 76.5352 -1.44483 1.55687 0
M  V30 899 H 78.7982 -0.689291 0.650831 0
M  V30 900 H 78.5042 -2.9269 1.95002 0
M  V30 901 H 78.3782 -3.75014 0.405486 0
M  V30 902 H 80.7652 -2.94581 -0.174871 0
M  V30 903 H 80.8462 -2.14148 1.39908 0
M  V30 904 H 80.4902 -4.39573 2.54437 0
M  V30 905 H 80.4202 -5.18025 0.946432 0
M  V30 906 H 82.9112 -3.62367 1.07231 0
M  V30 907 H 83.2242 -7.20863 2.78525 0
M  V30 908 H 81.5692 -6.48542 2.49836 0
M  V30 909 H 84.7602 -4.46396 1.40883 0
M  V30 910 H 84.9332 -6.09881 2.18973 0
M  V30 911 N 78.3393 -0.321999 -1.54275 0
M  V30 912 C 79.6163 0.335232 -1.92706 0
M  V30 913 C 79.9963 1.70006 -1.25145 0
M  V30 914 O 79.3443 2.25067 -0.394596 0
M  V30 915 C 79.5543 0.429008 -3.46353 0
M  V30 916 C 80.9023 0.690029 -4.18956 0
M  V30 917 O 81.9263 0.511992 -3.52501 0
M  V30 918 O 80.7853 1.03338 -5.36641 0
M  V30 919 H 77.8793 0.191143 -0.804608 0
M  V30 920 H 80.4253 -0.3716 -1.65581 0
M  V30 921 H 79.1973 -0.529611 -3.87699 0
M  V30 922 H 78.8203 1.18348 -3.79578 0
M  V30 923 N 79.8174 1.5752 -0.0501392 0
M  V30 924 C 81.0644 1.9265 0.623874 0
M  V30 925 C 81.3924 0.928411 1.70912 0
M  V30 926 O 80.6474 -0.0594525 1.9561 0
M  V30 927 C 80.9464 3.34467 1.25963 0
M  V30 928 C 80.6124 4.49883 0.302689 0
M  V30 929 C 79.2744 4.81184 0.0393636 0
M  V30 930 C 81.6264 5.20002 -0.353205 0
M  V30 931 C 78.9544 5.79951 -0.887308 0
M  V30 932 C 81.3064 6.1976 -1.26806 0
M  V30 933 C 79.9704 6.49491 -1.54007 0
M  V30 934 H 79.2404 0.704957 0.228292 0
M  V30 935 H 81.8874 1.91146 -0.116398 0
M  V30 936 H 80.1924 3.32333 2.07514 0
M  V30 937 H 81.8894 3.58928 1.78806 0
M  V30 938 H 78.4794 4.25457 0.518109 0
M  V30 939 H 82.6634 4.96033 -0.162854 0
M  V30 940 H 77.9194 6.01322 -1.10553 0
M  V30 941 H 82.0934 6.73205 -1.78236 0
M  V30 942 H 79.7204 7.25837 -2.25976 0
M  V30 943 N 81.2955 -0.223234 1.56011 0
M  V30 944 C 82.2435 -1.29627 1.93131 0
M  V30 945 C 83.2375 -1.48608 0.813146 0
M  V30 946 O 84.4435 -1.49802 0.997966 0
M  V30 947 H 80.8185 -0.434563 0.613726 0
M  V30 948 H 82.7895 -0.955995 2.82672 0
M  V30 949 C 81.5385 -2.63983 2.26292 0
M  V30 950 H 80.8615 -2.50185 3.11846 0
M  V30 951 H 82.3015 -3.3788 2.56151 0
M  V30 952 C 80.7605 -3.18866 1.08747 0
M  V30 953 O 81.2905 -4.00192 0.347727 0
M  V30 954 N 79.4965 -2.77217 0.871743 0
M  V30 955 H 79.0435 -2.1119 1.47501 0
M  V30 956 H 79.0015 -3.1428 0.0869905 0
M  V30 957 N 82.7736 -1.49793 -0.48987 0
M  V30 958 C 84.1846 -1.52914 -1.07118 0
M  V30 959 C 84.5356 -0.321738 -1.93544 0
M  V30 960 O 83.6606 0.567338 -2.08831 0
M  V30 961 C 84.2556 -2.771 -1.94938 0
M  V30 962 C 82.8146 -2.82963 -2.48212 0
M  V30 963 C 81.9616 -2.46972 -1.26096 0
M  V30 964 H 84.9126 -1.56329 -0.273289 0
M  V30 965 H 84.9336 -2.57892 -2.79771 0
M  V30 966 H 84.4456 -3.64959 -1.32009 0
M  V30 967 H 82.5466 -1.99411 -3.14748 0
M  V30 968 H 82.6596 -3.85406 -2.84603 0
M  V30 969 H 81.0236 -1.98994 -1.58976 0
M  V30 970 H 81.8066 -3.37118 -0.648581 0
M  V30 971 N 84.2517 0.741722 -1.39055 0
M  V30 972 C 85.4797 1.53098 -1.39171 0
M  V30 973 C 85.8947 1.88794 0.0155099 0
M  V30 974 O 85.2517 1.53626 0.985159 0
M  V30 975 C 85.3027 2.82274 -2.2584 0
M  V30 976 O 85.0237 2.48097 -3.61081 0
M  V30 977 C 86.5247 3.76343 -2.34266 0
M  V30 978 H 83.7447 0.473335 -0.4756 0
M  V30 979 H 86.2887 0.917045 -1.82785 0
M  V30 980 H 84.4437 3.40015 -1.85656 0
M  V30 981 H 84.8577 3.31029 -4.06842 0
M  V30 982 H 86.3317 4.63898 -2.9917 0
M  V30 983 H 86.8087 4.17619 -1.35982 0
M  V30 984 H 87.4147 3.24523 -2.74891 0
M  V30 985 N 85.7298 1.2412 0.971189 0
M  V30 986 C 86.6928 1.03156 2.04674 0
M  V30 987 C 87.6928 -0.00990322 1.60797 0
M  V30 988 O 88.8828 0.230729 1.72665 0
M  V30 989 C 86.0148 0.562765 3.36223 0
M  V30 990 H 87.2078 1.98614 2.24705 0
M  V30 991 H 84.7608 1.06293 1.14593 0
M  V30 992 H 85.4958 -0.395176 3.21883 0
M  V30 993 H 85.2808 1.31441 3.69413 0
M  V30 994 H 86.7708 0.437015 4.15307 0
M  V30 995 N 87.2079 -1.17134 1.05439 0
M  V30 996 C 88.4359 -1.91372 0.786414 0
M  V30 997 C 88.8509 -1.76955 -0.658202 0
M  V30 998 O 88.2079 -1.10838 -1.44987 0
M  V30 999 C 88.2589 -3.42356 1.1608 0
M  V30 1000 O 87.9799 -3.56332 2.54871 0
M  V30 1001 C 89.4809 -4.33663 0.919322 0
M  V30 1002 H 86.7009 -0.607118 0.285743 0
M  V30 1003 H 89.2449 -1.48525 1.40572 0
M  V30 1004 H 87.3999 -3.82939 0.586191 0
M  V30 1005 H 87.8139 -4.49896 2.69618 0
M  V30 1006 H 89.2879 -5.38099 1.231 0
M  V30 1007 H 89.7649 -4.38959 -0.145359 0
M  V30 1008 H 90.3709 -3.98796 1.47789 0
M  V30 1009 N 88.686 -0.835752 -1.33615 0
M  V30 1010 C 89.932 -0.430596 -1.98176 0
M  V30 1011 C 90.265 1.00684 -1.66061 0
M  V30 1012 O 89.54 1.70339 -0.938877 0
M  V30 1013 C 89.823 -0.648065 -3.5422 0
M  V30 1014 C 89.676 -2.13255 -3.96033 0
M  V30 1015 C 90.995 -0.0922113 -4.40003 0
M  V30 1016 H 88.114 -0.157924 -0.719881 0
M  V30 1017 H 90.756 -1.05069 -1.58305 0
M  V30 1018 H 88.906 -0.120237 -3.88314 0
M  V30 1019 H 90.578 -2.725 -3.72211 0
M  V30 1020 H 88.821 -2.61823 -3.45878 0
M  V30 1021 H 89.492 -2.23547 -5.04708 0
M  V30 1022 H 91.968 -0.543343 -4.12537 0
M  V30 1023 H 90.844 -0.274083 -5.48215 0
M  V30 1024 H 91.105 1.00378 -4.30554 0
M  V30 1025 N 90.1641 1.46063 -0.591896 0
M  V30 1026 C 91.1111 2.30399 0.136069 0
M  V30 1027 C 92.0811 1.41169 0.875238 0
M  V30 1028 O 93.2661 1.70112 0.86409 0
M  V30 1029 C 90.4061 3.25804 1.13781 0
M  V30 1030 C 89.5191 4.30134 0.401137 0
M  V30 1031 C 88.6541 5.12659 1.39121 0
M  V30 1032 C 87.6931 6.0873 0.641462 0
M  V30 1033 N 86.8301 6.8409 1.58004 0
M  V30 1034 H 91.6701 2.92118 -0.589144 0
M  V30 1035 H 89.2071 1.43959 -0.302342 0
M  V30 1036 H 91.1651 3.79569 1.73156 0
M  V30 1037 H 89.7951 2.65872 1.83062 0
M  V30 1038 H 88.8471 3.79152 -0.307826 0
M  V30 1039 H 90.1591 4.98458 -0.184565 0
M  V30 1040 H 89.3131 5.70747 2.05749 0
M  V30 1041 H 88.0521 4.44316 2.01084 0
M  V30 1042 H 87.0571 5.49786 -0.0385419 0
M  V30 1043 H 88.2821 6.79095 0.0270945 0
M  V30 1044 H 86.2281 6.18449 2.18761 0
M  V30 1045 H 86.1451 7.48709 1.04738 0
M  V30 1046 H 87.4131 7.4673 2.23639 0
M  V30 1047 N 91.6422 0.330177 1.54103 0
M  V30 1048 C 92.5752 -0.575477 2.20825 0
M  V30 1049 C 93.5532 -1.11064 1.18758 0
M  V30 1050 O 94.7372 -1.17341 1.47524 0
M  V30 1051 C 91.8642 -1.79032 2.87516 0
M  V30 1052 C 90.9102 -1.38581 4.03358 0
M  V30 1053 S 91.7432 -0.416911 5.33875 0
M  V30 1054 C 92.8992 -1.63889 6.04062 0
M  V30 1055 H 93.1322 -0.00872114 2.97299 0
M  V30 1056 H 90.6652 0.114254 1.53977 0
M  V30 1057 H 92.6232 -2.48734 3.2656 0
M  V30 1058 H 91.2842 -2.32827 2.10832 0
M  V30 1059 H 90.4772 -2.29123 4.48908 0
M  V30 1060 H 90.0792 -0.768419 3.66021 0
M  V30 1061 H 92.3712 -2.57536 6.26643 0
M  V30 1062 H 93.3142 -1.22542 6.97416 0
M  V30 1063 H 93.7222 -1.82887 5.34053 0
M  V30 1064 N 93.1203 -1.57491 0.0584922 0
M  V30 1065 C 94.0503 -2.14988 -0.911178 0
M  V30 1066 C 95.0313 -1.07343 -1.31952 0
M  V30 1067 O 96.2163 -1.35318 -1.39294 0
M  V30 1068 C 93.3463 -2.70078 -2.18347 0
M  V30 1069 C 92.3003 -3.82771 -1.91495 0
M  V30 1070 C 91.6263 -4.24408 -3.25241 0
M  V30 1071 C 92.9263 -5.07592 -1.23075 0
M  V30 1072 H 94.6203 -2.96263 -0.432246 0
M  V30 1073 H 92.1663 -1.42512 -0.206469 0
M  V30 1074 H 94.1193 -3.08943 -2.86587 0
M  V30 1075 H 92.8433 -1.86005 -2.68458 0
M  V30 1076 H 91.5023 -3.44389 -1.25664 0
M  V30 1077 H 91.1503 -3.37275 -3.73168 0
M  V30 1078 H 90.8503 -5.00366 -3.08071 0
M  V30 1079 H 92.3743 -4.65879 -3.94701 0
M  V30 1080 H 93.7883 -5.43857 -1.81362 0
M  V30 1081 H 92.1853 -5.88741 -1.16207 0
M  V30 1082 H 93.2553 -4.84454 -0.207847 0
M  V30 1083 N 94.5984 0.214957 -1.56127 0
M  V30 1084 C 96.0094 0.781386 -1.69562 0
M  V30 1085 C 96.3604 1.84707 -0.66165 0
M  V30 1086 O 95.4854 2.156 0.185927 0
M  V30 1087 C 96.0804 1.42411 -3.07416 0
M  V30 1088 C 94.6394 1.93786 -3.22683 0
M  V30 1089 C 93.7864 0.800438 -2.65496 0
M  V30 1090 H 96.7374 -0.00980633 -1.58697 0
M  V30 1091 H 96.7584 2.29309 -3.0364 0
M  V30 1092 H 96.2704 0.64826 -3.82648 0
M  V30 1093 H 94.3714 2.74152 -2.52332 0
M  V30 1094 H 94.4844 2.1133 -4.29973 0
M  V30 1095 H 92.8484 1.2095 -2.2415 0
M  V30 1096 H 93.6314 0.0371471 -3.4328 0
M  V30 1097 N 96.0765 1.50051 0.48192 0
M  V30 1098 C 97.3045 1.64237 1.25832 0
M  V30 1099 C 97.7195 0.321336 1.86045 0
M  V30 1100 O 97.0765 -0.695478 1.68729 0
M  V30 1101 C 97.1275 2.72548 2.37487 0
M  V30 1102 O 96.8485 3.99529 1.79745 0
M  V30 1103 C 98.3495 2.9761 3.28547 0
M  V30 1104 H 95.5695 0.55237 0.380957 0
M  V30 1105 H 98.1135 1.96207 0.576467 0
M  V30 1106 H 96.2685 2.43303 3.01467 0
M  V30 1107 H 96.6825 4.59342 2.5319 0
M  V30 1108 H 98.1565 3.77084 4.03127 0
M  V30 1109 H 98.6335 2.0826 3.86684 0
M  V30 1110 H 99.2395 3.28345 2.70314 0
M  V30 1111 N 97.5546 -0.734337 1.39446 0
M  V30 1112 C 98.8016 -1.49391 1.36706 0
M  V30 1113 C 99.1296 -1.94465 -0.0367813 0
M  V30 1114 O 98.3846 -1.67154 -1.01774 0
M  V30 1115 C 98.6836 -2.74711 2.28623 0
M  V30 1116 C 98.3496 -2.48501 3.76242 0
M  V30 1117 C 97.0116 -2.41062 4.16464 0
M  V30 1118 C 99.3636 -2.26098 4.69606 0
M  V30 1119 C 96.6916 -2.09262 5.48112 0
M  V30 1120 C 99.0436 -1.95814 6.01531 0
M  V30 1121 C 97.7076 -1.86845 6.40816 0
M  V30 1122 H 96.9776 -0.546661 0.500243 0
M  V30 1123 H 99.6246 -0.842788 1.71957 0
M  V30 1124 H 97.9296 -3.44569 1.86492 0
M  V30 1125 H 99.6266 -3.32741 2.23796 0
M  V30 1126 H 96.2166 -2.55169 3.44364 0
M  V30 1127 H 100.401 -2.30812 4.39363 0
M  V30 1128 H 95.6566 -2.00841 5.77471 0
M  V30 1129 H 99.8306 -1.77488 6.73403 0
M  V30 1130 H 97.4576 -1.6197 7.42745 0
M  V30 1131 N 99.0327 -1.24633 -0.964593 0
M  V30 1132 C 100.279 -1.08949 -1.71049 0
M  V30 1133 C 100.612 0.370302 -1.90637 0
M  V30 1134 O 99.8867 1.27349 -1.47011 0
M  V30 1135 C 100.17 -1.83329 -3.0994 0
M  V30 1136 C 100.023 -3.37077 -2.97824 0
M  V30 1137 C 101.342 -1.60846 -4.09654 0
M  V30 1138 H 98.4607 -0.397178 -0.620821 0
M  V30 1139 H 101.103 -1.5334 -1.12191 0
M  V30 1140 H 99.2527 -1.45597 -3.60186 0
M  V30 1141 H 100.925 -3.84425 -2.5498 0
M  V30 1142 H 99.1677 -3.65298 -2.33965 0
M  V30 1143 H 99.8387 -3.84324 -3.96231 0
M  V30 1144 H 102.315 -1.93674 -3.68279 0
M  V30 1145 H 101.191 -2.1534 -5.04896 0
M  V30 1146 H 101.452 -0.547434 -4.38698 0
M  V30 1147 N 100.511 1.16574 -1.06058 0
M  V30 1148 C 101.927 1.3904 -0.783585 0
M  V30 1149 C 102.127 1.91784 0.618145 0
M  V30 1150 O 101.183 2.11511 1.37911 0
M  V30 1151 C 102.496 2.37329 -1.84649 0
M  V30 1152 C 104.044 2.51018 -1.86973 0
M  V30 1153 C 104.519 3.52588 -2.92311 0
M  V30 1154 N 106.01 3.60113 -2.91329 0
M  V30 1155 C 106.745 4.38486 -3.69482 0
M  V30 1156 N 106.241 5.20302 -4.57447 0
M  V30 1157 N 108.034 4.33446 -3.57885 0
M  V30 1158 H 100.185 0.806725 -1.96483 0
M  V30 1159 H 102.448 0.417117 -0.851303 0
M  V30 1160 H 102.154 2.05663 -2.85299 0
M  V30 1161 H 102.028 3.36946 -1.6955 0
M  V30 1162 H 104.415 2.81989 -0.869827 0
M  V30 1163 H 104.496 1.51445 -2.0615 0
M  V30 1164 H 104.14 3.22354 -3.92492 0
M  V30 1165 H 104.07 4.51886 -2.70383 0
M  V30 1166 H 106.561 3.01707 -2.27555 0
M  V30 1167 H 106.874 5.77311 -5.13743 0
M  V30 1168 H 105.219 5.19653 -4.61503 0
M  V30 1169 H 108.41 3.68586 -2.88551 0
M  V30 1170 H 108.583 4.94279 -4.19037 0
M  V30 1171 N 101.989 0.842826 1.3317 0
M  V30 1172 C 103.214 0.453129 2.02389 0
M  V30 1173 C 103.639 -0.939105 1.6298 0
M  V30 1174 O 102.997 -1.61472 0.8244 0
M  V30 1175 C 103.045 0.586094 3.55805 0
M  V30 1176 O 102.149 -0.386029 4.10589 0
M  V30 1177 H 101.49 0.183664 0.638094 0
M  V30 1178 H 104.02 1.13875 1.69981 0
M  V30 1179 H 104.03 0.469209 4.05293 0
M  V30 1180 H 102.705 1.6014 3.83833 0
M  V30 1181 H 101.282 -0.226371 3.72212 0
M  V30 1182 N 103.467 -1.45747 0.599634 0
M  V30 1183 C 104.716 -2.01502 0.0893511 0
M  V30 1184 C 105.029 -1.4748 -1.28488 0
M  V30 1185 O 106.235 -1.95161 -1.88745 0
M  V30 1186 C 104.691 -3.59735 0.109082 0
M  V30 1187 C 104.299 -4.22754 1.48267 0
M  V30 1188 C 106.043 -4.23085 -0.346374 0
M  V30 1189 C 103.95 -5.73115 1.45921 0
M  V30 1190 H 102.88 -0.753417 0.0296347 0
M  V30 1191 H 105.531 -1.67303 0.753788 0
M  V30 1192 H 103.913 -3.91087 -0.621854 0
M  V30 1193 H 105.087 -4.02987 2.23468 0
M  V30 1194 H 103.402 -3.71567 1.87955 0
M  V30 1195 H 105.999 -5.33327 -0.38298 0
M  V30 1196 H 106.342 -3.93201 -1.36743 0
M  V30 1197 H 106.875 -3.9642 0.331038 0
M  V30 1198 H 103.614 -6.07685 2.45762 0
M  V30 1199 H 103.134 -5.95097 0.749665 0
M  V30 1200 H 104.813 -6.3616 1.17941 0
M  V30 1201 N 104.945 -0.338344 -1.53925 0
M  V30 1202 C 106.356 0.146651 -1.86123 0
M  V30 1203 C 106.707 1.5042 -1.2597 0
M  V30 1204 O 105.832 2.08723 -0.571294 0
M  V30 1205 C 106.427 0.272879 -3.37699 0
M  V30 1206 C 104.986 0.702103 -3.69794 0
M  V30 1207 C 104.133 -0.167304 -2.76795 0
M  V30 1208 H 107.084 -0.558123 -1.48562 0
M  V30 1209 H 107.105 1.10128 -3.64214 0
M  V30 1210 H 106.617 -0.715307 -3.81451 0
M  V30 1211 H 104.718 1.6995 -3.31584 0
M  V30 1212 H 104.831 0.495604 -4.7653 0
M  V30 1213 H 103.195 0.359527 -2.5215 0
M  V30 1214 H 103.978 -1.15253 -3.23375 0
M  V30 1215 N 106.423 1.57458 -0.0668435 0
M  V30 1216 C 107.7 1.8469 0.644132 0
M  V30 1217 C 108.08 0.958343 1.88093 0
M  V30 1218 O 107.428 0.0233579 2.28488 0
M  V30 1219 C 107.638 3.34767 0.986509 0
M  V30 1220 C 108.986 4.02159 1.36212 0
M  V30 1221 O 110.01 3.39484 1.07839 0
M  V30 1222 O 108.869 5.12694 1.89227 0
M  V30 1223 H 105.963 0.762816 0.319437 0
M  V30 1224 H 108.509 1.6942 -0.0973986 0
M  V30 1225 H 107.281 3.91151 0.107883 0
M  V30 1226 H 106.904 3.55281 1.78497 0
M  V30 1227 N 107.901 -0.206675 1.56239 0
M  V30 1228 C 109.149 -0.927007 1.79586 0
M  V30 1229 C 109.47 -1.8427 0.637929 0
M  V30 1230 O 108.74 -1.92849 -0.344398 0
M  V30 1231 H 107.32 -0.345292 0.662407 0
M  V30 1232 H 109.982 -0.21496 1.93711 0
M  V30 1233 H 109.078 -1.52501 2.72305 0
M  V30 1234 N 109.379 -1.50304 -0.473955 0
M  V30 1235 C 110.604 -1.65175 -1.25427 0
M  V30 1236 C 111.029 -0.333673 -1.85117 0
M  V30 1237 O 110.387 0.702114 -1.67153 0
M  V30 1238 C 110.435 -2.74295 -2.34082 0
M  V30 1239 O 109.539 -2.35349 -3.38651 0
M  V30 1240 H 108.88 -0.551944 -0.369126 0
M  V30 1241 H 111.41 -1.96662 -0.564364 0
M  V30 1242 H 111.42 -2.97285 -2.79438 0
M  V30 1243 H 110.095 -3.69959 -1.90008 0
M  V30 1244 H 108.672 -2.22794 -2.99027 0
M  V30 1245 N 110.857 0.726932 -1.39834 0
M  V30 1246 C 111.767 1.87131 -1.41489 0
M  V30 1247 C 112.783 1.71239 -0.308757 0
M  V30 1248 O 113.959 1.93701 -0.551529 0
M  V30 1249 C 111.024 3.22811 -1.26468 0
M  V30 1250 C 110.085 3.51039 -2.47124 0
M  V30 1251 C 109.318 4.80245 -2.3281 0
M  V30 1252 O 109.541 5.54537 -1.33585 0
M  V30 1253 O 108.475 5.08554 -3.21957 0
M  V30 1254 H 112.301 1.8869 -2.3797 0
M  V30 1255 H 109.886 0.875837 -1.21035 0
M  V30 1256 H 111.768 4.03877 -1.20255 0
M  V30 1257 H 110.443 3.22005 -0.330862 0
M  V30 1258 H 109.35 2.70027 -2.58914 0
M  V30 1259 H 110.683 3.56632 -3.39227 0
M  V30 1260 N 112.336 1.25143 0.95797 0
M  V30 1261 C 113.283 1.05235 2.05412 0
M  V30 1262 C 114.253 -0.0374561 1.66058 0
M  V30 1263 O 115.438 0.119073 1.90428 0
M  V30 1264 C 112.578 0.673589 3.38462 0
M  V30 1265 C 111.691 1.8379 3.90954 0
M  V30 1266 C 110.826 1.40381 5.12315 0
M  V30 1267 C 109.865 2.53746 5.57027 0
M  V30 1268 N 109.002 2.11136 6.69601 0
M  V30 1269 H 113.842 1.99048 2.21774 0
M  V30 1270 H 111.379 0.991277 1.08683 0
M  V30 1271 H 113.337 0.434964 4.14926 0
M  V30 1272 H 111.967 -0.227554 3.21997 0
M  V30 1273 H 111.019 2.18992 3.11041 0
M  V30 1274 H 112.331 2.68937 4.20089 0
M  V30 1275 H 111.485 1.12464 5.96185 0
M  V30 1276 H 110.224 0.523015 4.84887 0
M  V30 1277 H 109.229 2.82412 4.71724 0
M  V30 1278 H 110.454 3.42398 5.86464 0
M  V30 1279 H 108.4 1.25468 6.4389 0
M  V30 1280 H 108.317 2.89832 6.98236 0
M  V30 1281 H 109.585 1.86385 7.56889 0
M  V30 1282 N 113.814 -1.1601 1.06675 0
M  V30 1283 C 115.062 -1.86264 0.784229 0
M  V30 1284 C 115.383 -1.82328 -0.691488 0
M  V30 1285 O 114.653 -1.25947 -1.50047 0
M  V30 1286 H 113.233 -0.689621 0.28711 0
M  V30 1287 H 115.895 -1.40664 1.34906 0
M  V30 1288 H 114.991 -2.91595 1.11259 0
M  V30 1289 N 115.292 -0.849877 -1.32721 0
M  V30 1290 C 116.569 -0.372405 -1.92022 0
M  V30 1291 C 116.949 1.1435 -1.77447 0
M  V30 1292 O 116.297 1.96296 -1.16962 0
M  V30 1293 C 116.507 -0.831482 -3.3895 0
M  V30 1294 C 117.855 -0.845882 -4.16089 0
M  V30 1295 O 118.879 -0.775806 -3.47649 0
M  V30 1296 O 117.738 -0.943753 -5.38289 0
M  V30 1297 H 114.832 -0.107667 -0.819961 0
M  V30 1298 H 117.378 -0.93646 -1.41522 0
M  V30 1299 H 116.15 -1.87448 -3.4348 0
M  V30 1300 H 115.773 -0.24461 -3.96847 0
M  V30 1301 N 116.77 1.45427 -0.607355 0
M  V30 1302 C 118.017 2.02241 -0.102455 0
M  V30 1303 C 118.345 1.4758 1.26691 0
M  V30 1304 O 117.6 0.640468 1.84923 0
M  V30 1305 C 117.899 3.57398 -0.0129263 0
M  V30 1306 C 117.565 4.3121 -1.31792 0
M  V30 1307 C 116.227 4.51092 -1.67539 0
M  V30 1308 C 118.579 4.73401 -2.18039 0
M  V30 1309 C 115.907 5.10422 -2.89285 0
M  V30 1310 C 118.259 5.34078 -3.39034 0
M  V30 1311 C 116.923 5.52184 -3.75033 0
M  V30 1312 H 116.193 0.740051 -0.037491 0
M  V30 1313 H 118.84 1.74494 -0.788926 0
M  V30 1314 H 117.145 3.84421 0.756806 0
M  V30 1315 H 118.842 3.99061 0.393881 0
M  V30 1316 H 115.432 4.16047 -1.02968 0
M  V30 1317 H 119.616 4.57774 -1.91721 0
M  V30 1318 H 114.872 5.22629 -3.17283 0
M  V30 1319 H 119.046 5.65724 -4.06115 0
M  V30 1320 H 116.673 5.97925 -4.69457 0
M  V30 1321 N 118.248 0.346503 1.53744 0
M  V30 1322 C 119.497 -0.250122 2.00143 0
M  V30 1323 C 119.81 -1.51418 1.23822 0
M  V30 1324 O 121.016 -2.18823 1.60713 0
M  V30 1325 C 119.472 -0.496252 3.56462 0
M  V30 1326 C 119.08 0.752077 4.41642 0
M  V30 1327 C 120.824 -1.05157 4.11269 0
M  V30 1328 C 118.731 0.476583 5.89477 0
M  V30 1329 H 117.661 -0.0972409 0.747703 0
M  V30 1330 H 120.312 0.46229 1.77581 0
M  V30 1331 H 118.694 -1.26944 3.75102 0
M  V30 1332 H 119.868 1.5266 4.34778 0
M  V30 1333 H 118.183 1.22925 3.97842 0
M  V30 1334 H 120.78 -1.27269 5.19333 0
M  V30 1335 H 121.123 -2.00799 3.64672 0
M  V30 1336 H 121.656 -0.339019 3.96353 0
M  V30 1337 H 118.395 1.4028 6.40314 0
M  V30 1338 H 117.915 -0.259794 5.99237 0
M  V30 1339 H 119.594 0.0949315 6.4693 0
M  V30 1340 N 119.726 -1.57421 0.075193 0
M  V30 1341 C 120.689 -2.11791 -0.876203 0
M  V30 1342 C 121.689 -1.04268 -1.22412 0
M  V30 1343 O 122.879 -1.30242 -1.15684 0
M  V30 1344 C 120.011 -2.62207 -2.17854 0
M  V30 1345 H 121.204 -2.9716 -0.40444 0
M  V30 1346 H 118.757 -1.55333 -0.173557 0
M  V30 1347 H 119.492 -1.803 -2.6956 0
M  V30 1348 H 119.277 -3.40802 -1.93897 0
M  V30 1349 H 120.767 -3.04335 -2.85955 0
M  V30 1350 N 121.204 0.198386 -1.56346 0
M  V30 1351 C 122.134 1.24865 -1.9731 0
M  V30 1352 C 123.115 1.47651 -0.844576 0
M  V30 1353 O 124.3 1.59444 -1.10866 0
M  V30 1354 C 121.43 2.59358 -2.30977 0
M  V30 1355 C 120.384 2.5119 -3.46537 0
M  V30 1356 C 119.71 3.89926 -3.65871 0
M  V30 1357 C 121.01 2.03977 -4.80823 0
M  V30 1358 H 122.704 0.908252 -2.85291 0
M  V30 1359 H 120.25 0.435462 -1.37258 0
M  V30 1360 H 122.203 3.33011 -2.58228 0
M  V30 1361 H 120.927 2.95132 -1.39874 0
M  V30 1362 H 119.586 1.79993 -3.19371 0
M  V30 1363 H 119.234 4.23046 -2.72105 0
M  V30 1364 H 118.934 3.85336 -4.4361 0
M  V30 1365 H 120.458 4.65205 -3.95495 0
M  V30 1366 H 121.872 2.67386 -5.07127 0
M  V30 1367 H 120.269 2.10397 -5.62008 0
M  V30 1368 H 121.339 0.992861 -4.74626 0
M  V30 1369 N 122.682 1.50554 0.465978 0
M  V30 1370 C 123.959 1.5232 1.22712 0
M  V30 1371 C 124.339 0.270807 2.09356 0
M  V30 1372 O 123.687 -0.745541 2.15995 0
M  V30 1373 C 123.897 2.82175 2.05374 0
M  V30 1374 C 125.245 3.33033 2.6339 0
M  V30 1375 O 126.269 2.83531 2.15612 0
M  V30 1376 O 125.128 4.19336 3.50456 0
M  V30 1377 H 122.222 0.611183 0.557122 0
M  V30 1378 H 124.768 1.62847 0.477381 0
M  V30 1379 H 123.54 3.64797 1.41558 0
M  V30 1380 H 123.163 2.74675 2.87471 0
M  V30 1381 N 124.16 -0.719506 1.40217 0
M  V30 1382 C 125.09 -1.8465 1.42922 0
M  V30 1383 C 126.071 -1.67599 0.29062 0
M  V30 1384 O 127.256 -1.87688 0.498677 0
M  V30 1385 C 124.386 -3.22565 1.28722 0
M  V30 1386 C 123.34 -3.54281 2.40144 0
M  V30 1387 C 122.666 -4.91298 2.11023 0
M  V30 1388 C 123.966 -3.55676 3.82481 0
M  V30 1389 H 125.66 -1.82644 2.37237 0
M  V30 1390 H 123.206 -0.877305 1.1419 0
M  V30 1391 H 125.159 -4.01095 1.29232 0
M  V30 1392 H 123.883 -3.25137 0.308811 0
M  V30 1393 H 122.542 -2.78088 2.38877 0
M  V30 1394 H 122.19 -4.90468 1.11582 0
M  V30 1395 H 121.89 -5.13485 2.8567 0
M  V30 1396 H 123.414 -5.72166 2.13209 0
M  V30 1397 H 124.828 -4.24254 3.85592 0
M  V30 1398 H 123.225 -3.89388 4.56614 0
M  V30 1399 H 124.295 -2.55144 4.12346 0
M  V30 1400 N 125.638 -1.25649 -0.95132 0
M  V30 1401 C 126.886 -1.10375 -1.69298 0
M  V30 1402 C 127.207 0.355339 -1.91735 0
M  V30 1403 O 126.477 1.25188 -1.50681 0
M  V30 1404 H 125.057 -0.405461 -0.627384 0
M  V30 1405 H 127.719 -1.57823 -1.14358 0
M  V30 1406 H 126.815 -1.61465 -2.67087 0
M  V30 1407 N 127.117 1.15442 -1.07289 0
M  V30 1408 C 128.365 1.85845 -0.794096 0
M  V30 1409 C 128.686 1.82692 0.681809 0
M  V30 1410 O 127.956 1.26741 1.49377 0
M  V30 1411 H 126.536 0.688089 -0.290763 0
M  V30 1412 H 129.198 1.39947 -1.3565 0
M  V30 1413 H 128.294 2.91001 -1.12804 0
M  V30 1414 N 128.595 0.856903 1.32268 0
M  V30 1415 C 129.82 0.474569 2.01897 0
M  V30 1416 C 130.245 -0.921766 1.63967 0
M  V30 1417 O 129.603 -1.60589 0.84148 0
M  V30 1418 C 129.651 0.623799 3.55164 0
M  V30 1419 O 128.755 -0.342459 4.10976 0
M  V30 1420 H 128.096 0.190422 0.63611 0
M  V30 1421 H 130.626 1.15672 1.68764 0
M  V30 1422 H 130.636 0.512169 4.04773 0
M  V30 1423 H 129.311 1.64202 3.82113 0
M  V30 1424 H 127.888 -0.18688 3.72431 0
M  V30 1425 N 130.073 -1.45103 0.615059 0
M  V30 1426 C 131.298 -2.07064 0.117988 0
M  V30 1427 C 131.723 -1.4554 -1.19163 0
M  V30 1428 O 131.081 -0.550855 -1.72729 0
M  V30 1429 C 131.129 -3.606 -0.000288387 0
M  V30 1430 O 130.233 -3.98847 -1.04856 0
M  V30 1431 H 129.574 -0.659467 0.0774581 0
M  V30 1432 H 132.104 -1.86236 0.847186 0
M  V30 1433 H 132.114 -4.07529 -0.196091 0
M  V30 1434 H 130.789 -4.04765 0.955932 0
M  V30 1435 H 129.366 -3.63577 -0.828619 0
M  V30 1436 N 131.551 -0.354651 -1.53558 0
M  V30 1437 C 132.798 0.238443 -2.01091 0
M  V30 1438 C 133.126 1.49663 -1.24222 0
M  V30 1439 O 132.381 1.93049 -0.321003 0
M  V30 1440 C 132.68 0.587121 -3.52545 0
M  V30 1441 C 132.346 -0.575472 -4.47213 0
M  V30 1442 C 131.008 -0.894497 -4.72813 0
M  V30 1443 C 133.36 -1.35489 -5.03281 0
M  V30 1444 C 130.688 -1.99511 -5.51736 0
M  V30 1445 C 133.04 -2.44583 -5.83405 0
M  V30 1446 C 131.704 -2.77033 -6.07296 0
M  V30 1447 H 130.974 0.0872526 -0.735845 0
M  V30 1448 H 133.621 -0.484859 -1.8526 0
M  V30 1449 H 131.926 1.39129 -3.66265 0
M  V30 1450 H 133.623 1.05809 -3.86789 0
M  V30 1451 H 130.213 -0.316774 -4.27428 0
M  V30 1452 H 134.397 -1.12167 -4.83459 0
M  V30 1453 H 129.653 -2.25063 -5.68469 0
M  V30 1454 H 133.827 -3.05401 -6.25862 0
M  V30 1455 H 131.454 -3.6244 -6.68237 0
M  V30 1456 N 133.029 1.57378 -0.0835403 0
M  V30 1457 C 134.445 1.57246 0.273109 0
M  V30 1458 C 134.645 1.09385 1.69225 0
M  V30 1459 O 133.701 0.765051 2.40631 0
M  V30 1460 C 135.014 3.00614 0.0720628 0
M  V30 1461 C 136.562 3.12684 0.1407 0
M  V30 1462 C 137.037 4.57989 -0.0322094 0
M  V30 1463 N 138.528 4.63194 0.0230085 0
M  V30 1464 C 139.263 5.73335 -0.0861941 0
M  V30 1465 N 138.759 6.9235 -0.24958 0
M  V30 1466 N 140.552 5.62093 -0.0282886 0
M  V30 1467 H 132.703 1.86801 -1.0109 0
M  V30 1468 H 134.966 0.861687 -0.395222 0
M  V30 1469 H 134.672 3.39786 -0.907662 0
M  V30 1470 H 134.546 3.68193 0.81936 0
M  V30 1471 H 136.933 2.73391 1.11092 0
M  V30 1472 H 137.014 2.47719 -0.637896 0
M  V30 1473 H 136.658 4.97973 -0.999247 0
M  V30 1474 H 136.588 5.21 0.765937 0
M  V30 1475 H 139.079 3.77613 0.14722 0
M  V30 1476 H 139.392 7.72117 -0.324733 0
M  V30 1477 H 137.737 6.94415 -0.285097 0
M  V30 1478 H 140.928 4.67997 0.0981408 0
M  V30 1479 H 141.101 6.47895 -0.116845 0
M  V30 1480 N 134.507 -0.190092 1.56449 0
M  V30 1481 C 135.756 -0.907912 1.80111 0
M  V30 1482 C 136.069 -1.84214 0.657619 0
M  V30 1483 O 137.275 -2.60094 0.778663 0
M  V30 1484 C 135.731 -1.66485 3.19078 0
M  V30 1485 C 135.339 -0.7752 4.41242 0
M  V30 1486 C 137.083 -2.37201 3.52045 0
M  V30 1487 C 134.99 -1.53129 5.71231 0
M  V30 1488 H 133.92 -0.34276 0.671589 0
M  V30 1489 H 136.571 -0.161109 1.82791 0
M  V30 1490 H 134.953 -2.45572 3.10661 0
M  V30 1491 H 136.127 -0.0226298 4.60794 0
M  V30 1492 H 134.442 -0.178627 4.16017 0
M  V30 1493 H 137.039 -2.94329 4.46402 0
M  V30 1494 H 137.382 -3.11632 2.76028 0
M  V30 1495 H 137.915 -1.65075 3.61932 0
M  V30 1496 H 134.654 -0.82967 6.50228 0
M  V30 1497 H 134.174 -2.25767 5.55688 0
M  V30 1498 H 135.853 -2.08377 6.12526 0
M  V30 1499 N 135.985 -1.50799 -0.457987 0
M  V30 1500 C 136.915 -1.73553 -1.5621 0
M  V30 1501 C 137.896 -0.584774 -1.59732 0
M  V30 1502 O 139.081 -0.825314 -1.7579 0
M  V30 1503 C 136.211 -1.84169 -2.94447 0
M  V30 1504 C 135.165 -2.99461 -3.0579 0
M  V30 1505 C 134.491 -2.95235 -4.45803 0
M  V30 1506 C 135.791 -4.39766 -2.81786 0
M  V30 1507 H 137.485 -2.66 -1.37421 0
M  V30 1508 H 135.031 -1.28002 -0.659662 0
M  V30 1509 H 136.984 -1.98672 -3.71628 0
M  V30 1510 H 135.708 -0.883545 -3.14422 0
M  V30 1511 H 134.367 -2.8463 -2.31044 0
M  V30 1512 H 134.015 -1.97239 -4.62715 0
M  V30 1513 H 133.715 -3.72642 -4.54326 0
M  V30 1514 H 135.239 -3.11803 -5.24987 0
M  V30 1515 H 136.653 -4.55054 -3.4871 0
M  V30 1516 H 135.05 -5.18722 -3.0174 0
M  V30 1517 H 136.12 -4.51229 -1.7754 0
M  V30 1518 N 137.463 0.71206 -1.40597 0
M  V30 1519 C 138.879 1.02058 -1.22704 0
M  V30 1520 C 139.079 2.01228 -0.104729 0
M  V30 1521 O 138.135 2.4674 0.53624 0
M  V30 1522 C 139.448 1.56094 -2.57012 0
M  V30 1523 C 140.996 1.6806 -2.64054 0
M  V30 1524 C 141.471 2.25501 -3.9864 0
M  V30 1525 N 142.962 2.32882 -4.004 0
M  V30 1526 C 143.697 2.78317 -5.01325 0
M  V30 1527 N 143.193 3.23478 -6.12645 0
M  V30 1528 N 144.986 2.77733 -4.88693 0
M  V30 1529 H 137.137 0.0547896 -2.12329 0
M  V30 1530 H 139.4 0.0869027 -0.944008 0
M  V30 1531 H 139.106 0.906865 -3.39807 0
M  V30 1532 H 138.98 2.54564 -2.78347 0
M  V30 1533 H 141.367 2.32583 -1.81629 0
M  V30 1534 H 141.448 0.681802 -2.46546 0
M  V30 1535 H 141.092 1.61598 -4.81506 0
M  V30 1536 H 141.022 3.26102 -4.13479 0
M  V30 1537 H 143.513 2.00991 -3.20017 0
M  V30 1538 H 143.826 3.56725 -6.85542 0
M  V30 1539 H 142.171 3.21429 -6.16205 0
M  V30 1540 H 145.362 2.4179 -4.00818 0
M  V30 1541 H 145.535 3.12826 -5.67489 0
M  V30 1542 N 138.941 1.26152 0.944643 0
M  V30 1543 C 140.187 1.11657 1.69294 0
M  V30 1544 C 140.52 -0.339926 1.91202 0
M  V30 1545 O 139.795 -1.24994 1.49019 0
M  V30 1546 C 140.078 1.88236 3.06984 0
M  V30 1547 C 139.931 3.41772 2.92424 0
M  V30 1548 C 141.25 1.67343 4.07043 0
M  V30 1549 H 138.369 0.407004 0.614424 0
M  V30 1550 H 141.011 1.55106 1.09737 0
M  V30 1551 H 139.161 1.51308 3.57824 0
M  V30 1552 H 140.833 3.88433 2.48832 0
M  V30 1553 H 139.076 3.68974 2.28124 0
M  V30 1554 H 139.747 3.90579 3.90067 0
M  V30 1555 H 142.223 1.99509 3.65151 0
M  V30 1556 H 141.099 2.23346 5.01406 0
M  V30 1557 H 141.36 0.617158 4.37771 0
M  V30 1558 N 140.419 -1.14872 1.07899 0
M  V30 1559 C 141.351 -2.19425 0.662231 0
M  V30 1560 C 142.364 -1.60231 -0.288079 0
M  V30 1561 O 143.553 -1.78336 -0.076534 0
M  V30 1562 C 140.653 -3.38867 -0.0470695 0
M  V30 1563 C 139.826 -4.27597 0.920831 0
M  V30 1564 C 138.885 -5.25616 0.247805 0
M  V30 1565 O 137.911 -5.62189 0.890599 0
M  V30 1566 N 139.113 -5.71746 -1.00435 0
M  V30 1567 H 141.878 -2.55797 1.56166 0
M  V30 1568 H 139.439 -1.30042 0.964404 0
M  V30 1569 H 141.431 -4.01497 -0.50813 0
M  V30 1570 H 140.001 -3.00864 -0.848523 0
M  V30 1571 H 139.221 -3.61982 1.56087 0
M  V30 1572 H 140.509 -4.83748 1.57688 0
M  V30 1573 H 139.907 -5.44153 -1.54642 0
M  V30 1574 H 138.464 -6.36389 -1.40899 0
M  V30 1575 N 141.898 -0.863906 -1.31812 0
M  V30 1576 C 143.144 -0.472535 -1.97218 0
M  V30 1577 C 143.477 0.971394 -1.68159 0
M  V30 1578 O 142.752 1.68309 -0.974798 0
M  V30 1579 C 143.035 -0.723054 -3.52766 0
M  V30 1580 C 142.888 -2.21608 -3.91421 0
M  V30 1581 C 144.207 -0.185522 -4.39709 0
M  V30 1582 H 141.326 -0.173158 -0.71637 0
M  V30 1583 H 143.968 -1.08403 -1.56041 0
M  V30 1584 H 142.118 -0.202577 -3.87971 0
M  V30 1585 H 143.79 -2.80334 -3.66347 0
M  V30 1586 H 142.033 -2.691 -3.40246 0
M  V30 1587 H 142.704 -2.34203 -4.99853 0
M  V30 1588 H 145.18 -0.630726 -4.11292 0
M  V30 1589 H 144.056 -0.390306 -5.47511 0
M  V30 1590 H 144.317 0.912229 -4.32586 0
M  V30 1591 N 143.376 1.44774 -0.622745 0
M  V30 1592 C 144.324 2.32387 0.0994683 0
M  V30 1593 C 145.318 1.46859 0.844326 0
M  V30 1594 O 146.524 1.63254 0.758174 0
M  V30 1595 H 142.899 0.750273 0.0509291 0
M  V30 1596 H 144.87 2.91062 -0.65767 0
M  V30 1597 C 143.619 3.30723 1.07319 0
M  V30 1598 H 142.942 3.96541 0.509462 0
M  V30 1599 H 144.382 3.94725 1.54817 0
M  V30 1600 C 142.841 2.59021 2.15429 0
M  V30 1601 O 143.371 2.38286 3.23393 0
M  V30 1602 N 141.577 2.189 1.91131 0
M  V30 1603 H 141.124 2.35964 1.03337 0
M  V30 1604 H 141.082 1.71251 2.63668 0
M  V30 1605 N 144.854 0.36279 1.53368 0
M  V30 1606 C 145.804 -0.501391 2.22419 0
M  V30 1607 C 146.788 -1.0509 1.2184 0
M  V30 1608 O 147.98 -0.981404 1.47301 0
M  V30 1609 C 145.109 -1.64201 3.01484 0
M  V30 1610 C 144.195 -1.10552 4.09438 0
M  V30 1611 N 144.586 -0.291788 5.04958 0
M  V30 1612 C 142.884 -1.3806 4.24094 0
M  V30 1613 C 143.585 0.00162655 5.817 0
M  V30 1614 N 142.561 -0.595244 5.40331 0
M  V30 1615 H 146.363 0.127159 2.93625 0
M  V30 1616 H 143.877 0.170658 1.61501 0
M  V30 1617 H 145.874 -2.27326 3.49469 0
M  V30 1618 H 144.534 -2.27365 2.31809 0
M  V30 1619 H 145.545 0.0687731 5.17854 0
M  V30 1620 H 142.222 -2.01522 3.65644 0
M  V30 1621 H 143.612 0.659278 6.68658 0
M  V30 1622 N 146.332 -1.57332 0.0918853 0
M  V30 1623 C 147.242 -2.17368 -0.882505 0
M  V30 1624 C 148.258 -1.14226 -1.31257 0
M  V30 1625 O 149.434 -1.46582 -1.38115 0
M  V30 1626 C 146.499 -2.73962 -2.12476 0
M  V30 1627 C 145.56 -3.92048 -1.7492 0
M  V30 1628 C 144.793 -4.45933 -2.93223 0
M  V30 1629 O 145.016 -3.98764 -4.07852 0
M  V30 1630 O 143.95 -5.36999 -2.71875 0
M  V30 1631 H 147.776 -3.01031 -0.40172 0
M  V30 1632 H 145.361 -1.48813 -0.132291 0
M  V30 1633 H 147.243 -3.10147 -2.85283 0
M  V30 1634 H 145.918 -1.93347 -2.59613 0
M  V30 1635 H 144.825 -3.6068 -0.993025 0
M  V30 1636 H 146.158 -4.74017 -1.32548 0
M  V30 1637 N 147.81 0.181792 -1.56548 0
M  V30 1638 C 148.757 1.22521 -1.95595 0
M  V30 1639 C 149.727 1.4454 -0.818373 0
M  V30 1640 O 150.912 1.57454 -1.07763 0
M  V30 1641 C 148.052 2.56193 -2.31212 0
M  V30 1642 C 147.165 2.41641 -3.58097 0
M  V30 1643 C 146.3 3.68108 -3.82975 0
M  V30 1644 C 145.339 3.48445 -5.03242 0
M  V30 1645 N 144.476 4.66956 -5.24306 0
M  V30 1646 H 149.316 0.885226 -2.84548 0
M  V30 1647 H 146.853 0.425718 -1.40805 0
M  V30 1648 H 148.811 3.34088 -2.49882 0
M  V30 1649 H 147.441 2.88208 -1.45382 0
M  V30 1650 H 146.493 1.54976 -3.474 0
M  V30 1651 H 147.805 2.23052 -4.46149 0
M  V30 1652 H 146.959 4.54441 -4.01956 0
M  V30 1653 H 145.698 3.89666 -2.93278 0
M  V30 1654 H 144.703 2.60499 -4.8417 0
M  V30 1655 H 145.928 3.2832 -5.9446 0
M  V30 1656 H 143.874 4.88752 -4.37559 0
M  V30 1657 H 143.791 4.51242 -6.06561 0
M  V30 1658 H 145.059 5.54602 -5.47756 0
M  V30 1659 N 149.288 1.51039 0.449983 0
M  V30 1660 C 150.236 1.71995 1.5659 0
M  V30 1661 C 151.23 0.586029 1.5894 0
M  V30 1662 O 152.436 0.76709 1.62837 0
M  V30 1663 H 148.811 0.543233 0.520001 0
M  V30 1664 H 150.782 2.65562 1.36085 0
M  V30 1665 C 149.531 1.8506 2.9436 0
M  V30 1666 H 148.854 2.71712 2.93279 0
M  V30 1667 H 150.294 2.0374 3.71842 0
M  V30 1668 C 148.753 0.607277 3.31382 0
M  V30 1669 O 149.283 -0.243903 4.00959 0
M  V30 1670 N 147.489 0.455073 2.87015 0
M  V30 1671 H 147.036 1.14879 2.30566 0
M  V30 1672 H 146.994 -0.375611 3.12148 0
M  V30 1673 N 150.766 -0.704594 1.40972 0
M  V30 1674 C 151.698 -1.82974 1.38033 0
M  V30 1675 C 152.711 -1.60305 0.283931 0
M  V30 1676 O 153.9 -1.69975 0.545042 0
M  V30 1677 C 151 -3.19578 1.12795 0
M  V30 1678 C 150.173 -3.69352 2.34302 0
M  V30 1679 C 149.232 -4.84601 2.05058 0
M  V30 1680 O 148.258 -4.96682 2.7802 0
M  V30 1681 N 149.46 -5.71194 1.03528 0
M  V30 1682 H 152.225 -1.85991 2.35005 0
M  V30 1683 H 149.786 -0.886567 1.35468 0
M  V30 1684 H 151.778 -3.9429 0.911987 0
M  V30 1685 H 150.348 -3.11642 0.24452 0
M  V30 1686 H 149.568 -2.85649 2.71659 0
M  V30 1687 H 150.856 -3.99345 3.1528 0
M  V30 1688 H 150.254 -5.64054 0.431217 0
M  V30 1689 H 148.811 -6.45843 0.879205 0
M  V30 1690 N 152.244 -1.26651 -0.937939 0
M  V30 1691 C 153.192 -1.08308 -2.05845 0
M  V30 1692 C 154.186 -0.0090757 -1.69398 0
M  V30 1693 O 155.392 -0.166007 -1.79233 0
M  V30 1694 H 151.767 -0.333416 -0.674046 0
M  V30 1695 H 153.738 -2.03261 -2.18467 0
M  V30 1696 C 152.487 -0.736229 -3.39816 0
M  V30 1697 H 151.81 -1.55453 -3.6834 0
M  V30 1698 H 153.25 -0.64769 -4.19024 0
M  V30 1699 C 151.709 0.558824 -3.32233 0
M  V30 1700 O 152.239 1.59621 -3.68624 0
M  V30 1701 N 150.445 0.550657 -2.85335 0
M  V30 1702 H 149.992 -0.293943 -2.55917 0
M  V30 1703 H 149.95 1.41726 -2.80644 0
M  V30 1704 N 153.722 1.14298 -1.08507 0
M  V30 1705 C 154.968 1.85633 -0.816581 0
M  V30 1706 C 155.301 1.82784 0.656021 0
M  V30 1707 O 154.576 1.25926 1.48233 0
M  V30 1708 C 154.859 3.34223 -1.34041 0
M  V30 1709 C 154.712 3.45639 -2.87843 0
M  V30 1710 C 156.031 4.29356 -0.9665 0
M  V30 1711 H 153.15 0.67402 -0.298104 0
M  V30 1712 H 155.792 1.34214 -1.34487 0
M  V30 1713 H 153.942 3.78144 -0.89104 0
M  V30 1714 H 155.614 3.10498 -3.41158 0
M  V30 1715 H 153.857 2.86817 -3.25451 0
M  V30 1716 H 154.528 4.50089 -3.19569 0
M  V30 1717 H 157.004 3.93457 -1.35391 0
M  V30 1718 H 155.88 5.3178 -1.3602 0
M  V30 1719 H 156.141 4.41919 0.126362 0
M  V30 1720 N 155.201 0.870884 1.31352 0
M  V30 1721 C 156.151 0.298889 2.26032 0
M  V30 1722 C 157.135 -0.564595 1.50669 0
M  V30 1723 O 158.327 -0.411323 1.72154 0
M  V30 1724 C 155.456 -0.497842 3.39671 0
M  V30 1725 C 154.542 0.378937 4.22404 0
M  V30 1726 N 154.933 1.47284 4.83881 0
M  V30 1727 C 153.231 0.171535 4.4567 0
M  V30 1728 C 153.932 2.01359 5.45738 0
M  V30 1729 N 152.908 1.31047 5.27568 0
M  V30 1730 H 156.71 1.13494 2.71102 0
M  V30 1731 H 154.224 0.718745 1.45629 0
M  V30 1732 H 156.221 -0.924155 4.06528 0
M  V30 1733 H 154.881 -1.33149 2.96144 0
M  V30 1734 H 155.892 1.85575 4.8351 0
M  V30 1735 H 152.569 -0.626091 4.12779 0
M  V30 1736 H 153.959 2.93143 6.0458 0
M  V30 1737 N 156.679 -1.44442 0.630414 0
M  V30 1738 C 157.612 -2.27862 -0.124247 0
M  V30 1739 C 158.59 -1.38495 -0.851931 0
M  V30 1740 O 159.774 -1.67935 -0.856166 0
M  V30 1741 C 156.901 -3.17407 -1.18197 0
M  V30 1742 C 155.947 -4.22875 -0.554892 0
M  V30 1743 S 156.78 -5.31485 0.654489 0
M  V30 1744 C 157.936 -6.246 -0.40326 0
M  V30 1745 H 158.169 -2.91519 0.583435 0
M  V30 1746 H 155.702 -1.48618 0.418565 0
M  V30 1747 H 157.66 -3.69549 -1.78728 0
M  V30 1748 H 156.321 -2.52971 -1.86184 0
M  V30 1749 H 155.514 -4.85542 -1.35148 0
M  V30 1750 H 155.116 -3.73992 -0.0242105 0
M  V30 1751 H 157.408 -6.65375 -1.27602 0
M  V30 1752 H 158.351 -7.07851 0.187813 0
M  V30 1753 H 158.759 -5.59775 -0.728837 0
M  V30 1754 N 158.157 -0.370918 -1.53173 0
M  V30 1755 C 159.067 0.480823 -2.2962 0
M  V30 1756 C 160.083 1.08789 -1.35798 0
M  V30 1757 O 161.259 1.09768 -1.68858 0
M  V30 1758 C 158.324 1.60227 -3.07454 0
M  V30 1759 C 157.385 1.0222 -4.16953 0
M  V30 1760 C 156.618 2.0902 -4.91066 0
M  V30 1761 O 156.841 3.30222 -4.65091 0
M  V30 1762 O 155.775 1.71778 -5.76867 0
M  V30 1763 H 159.601 -0.141421 -3.03371 0
M  V30 1764 H 157.186 -0.135146 -1.48787 0
M  V30 1765 H 159.068 2.25417 -3.56041 0
M  V30 1766 H 157.743 2.20982 -2.36535 0
M  V30 1767 H 156.65 0.334064 -3.72605 0
M  V30 1768 H 157.983 0.459131 -4.90054 0
M  V30 1769 N 159.635 1.57281 -0.100228 0
M  V30 1770 C 160.86 1.99302 0.573881 0
M  V30 1771 C 161.285 0.979059 1.60611 0
M  V30 1772 O 160.643 -0.0517803 1.81226 0
M  V30 1773 C 160.691 3.40274 1.19358 0
M  V30 1774 O 159.795 3.41676 2.30935 0
M  V30 1775 H 159.136 0.647944 0.145138 0
M  V30 1776 H 161.666 2.03779 -0.183156 0
M  V30 1777 H 161.676 3.78078 1.53365 0
M  V30 1778 H 160.351 4.13594 0.437385 0
M  V30 1779 H 158.928 3.15672 1.98509 0
M  V30 1780 N 161.113 -0.173488 1.56642 0
M  V30 1781 C 162.023 -1.23482 1.99473 0
M  V30 1782 C 163.039 -1.48567 0.905752 0
M  V30 1783 O 164.215 -1.60758 1.21321 0
M  V30 1784 C 161.28 -2.55444 2.34413 0
M  V30 1785 C 160.341 -2.38241 3.57127 0
M  V30 1786 C 159.574 -3.63909 3.90392 0
M  V30 1787 O 159.797 -4.68996 3.24653 0
M  V30 1788 O 158.731 -3.58149 4.83749 0
M  V30 1789 H 162.557 -0.901279 2.90018 0
M  V30 1790 H 160.142 -0.380185 1.44482 0
M  V30 1791 H 162.024 -3.33292 2.57865 0
M  V30 1792 H 160.699 -2.88382 1.4703 0
M  V30 1793 H 159.606 -1.58431 3.38896 0
M  V30 1794 H 160.939 -2.10228 4.45045 0
M  V30 1795 N 162.591 -1.51276 -0.441967 0
M  V30 1796 C 163.837 -1.63958 -1.19355 0
M  V30 1797 C 164.17 -0.352543 -1.90973 0
M  V30 1798 O 163.445 0.647627 -1.83401 0
M  V30 1799 C 163.728 -2.83979 -2.21422 0
M  V30 1800 C 163.581 -4.22646 -1.53918 0
M  V30 1801 C 164.9 -2.99521 -3.22451 0
M  V30 1802 H 162.019 -0.596709 -0.432559 0
M  V30 1803 H 164.661 -1.83748 -0.483398 0
M  V30 1804 H 162.811 -2.67237 -2.81987 0
M  V30 1805 H 164.483 -4.51045 -0.967256 0
M  V30 1806 H 162.726 -4.25558 -0.841615 0
M  V30 1807 H 163.397 -5.02609 -2.28229 0
M  V30 1808 H 165.873 -3.14944 -2.71937 0
M  V30 1809 H 164.749 -3.85072 -3.91166 0
M  V30 1810 H 165.01 -2.11391 -3.88287 0
M  V30 1811 N 164.069 0.697108 -1.41344 0
M  V30 1812 C 165.299 1.48377 -1.43763 0
M  V30 1813 C 165.707 1.89156 -0.0408726 0
M  V30 1814 O 165.05 1.57239 0.949812 0
M  V30 1815 C 165.112 2.7781 -2.2817 0
M  V30 1816 C 164.776 2.59244 -3.76353 0
M  V30 1817 C 165.773 2.25292 -4.68551 0
M  V30 1818 C 163.458 2.74933 -4.20378 0
M  V30 1819 C 165.452 2.07264 -6.02761 0
M  V30 1820 C 163.139 2.56521 -5.54653 0
M  V30 1821 C 164.137 2.22737 -6.4566 0
M  V30 1822 O 163.825 2.04485 -7.77458 0
M  V30 1823 H 163.557 0.463842 -0.491759 0
M  V30 1824 H 166.111 0.865934 -1.86255 0
M  V30 1825 H 164.341 3.41995 -1.8049 0
M  V30 1826 H 166.03 3.39608 -2.22309 0
M  V30 1827 H 166.796 2.12787 -4.35829 0
M  V30 1828 H 162.675 3.00213 -3.49848 0
M  V30 1829 H 166.219 1.80817 -6.73759 0
M  V30 1830 H 162.116 2.68616 -5.86955 0
M  V30 1831 H 162.884 2.1926 -7.88586 0
M  V30 1832 N 165.547 1.27147 0.931209 0
M  V30 1833 C 166.824 1.0401 1.65654 0
M  V30 1834 C 167.204 -0.426297 2.06751 0
M  V30 1835 O 166.552 -1.40879 1.79904 0
M  V30 1836 C 166.762 1.99834 2.86125 0
M  V30 1837 C 168.11 2.29007 3.57549 0
M  V30 1838 O 169.134 1.97779 2.96246 0
M  V30 1839 O 167.993 2.82222 4.67989 0
M  V30 1840 H 165.087 0.396239 0.725895 0
M  V30 1841 H 167.633 1.38397 0.982056 0
M  V30 1842 H 166.405 2.98744 2.52721 0
M  V30 1843 H 166.028 1.65987 3.61295 0
M  V30 1844 N 167.025 -1.13721 1.09112 0
M  V30 1845 C 168.253 -1.88773 0.846899 0
M  V30 1846 C 168.668 -1.7896 -0.601572 0
M  V30 1847 O 168.025 -1.15394 -1.41388 0
M  V30 1848 C 168.076 -3.3849 1.26913 0
M  V30 1849 O 167.797 -3.48043 2.66079 0
M  V30 1850 C 169.298 -4.30518 1.05682 0
M  V30 1851 H 166.518 -0.59772 0.304914 0
M  V30 1852 H 169.062 -1.43977 1.45227 0
M  V30 1853 H 167.217 -3.80881 0.707723 0
M  V30 1854 H 167.631 -4.4109 2.83795 0
M  V30 1855 H 169.105 -5.3391 1.40156 0
M  V30 1856 H 169.582 -4.392 -0.00563416 0
M  V30 1857 H 170.188 -3.93893 1.60402 0
M  V30 1858 N 168.503 -0.877838 -1.30888 0
M  V30 1859 C 169.914 -0.544193 -1.78593 0
M  V30 1860 C 170.265 0.939301 -1.72254 0
M  V30 1861 O 169.39 1.7337 -1.29505 0
M  V30 1862 C 169.985 -0.98105 -3.24285 0
M  V30 1863 C 168.544 -0.698935 -3.69854 0
M  V30 1864 C 167.691 -1.168 -2.51502 0
M  V30 1865 H 170.642 -1.06278 -1.17859 0
M  V30 1866 H 170.663 -0.307009 -3.79259 0
M  V30 1867 H 170.175 -2.06079 -3.28866 0
M  V30 1868 H 168.276 0.369112 -3.70767 0
M  V30 1869 H 168.389 -1.28148 -4.61644 0
M  V30 1870 H 166.753 -0.587535 -2.47831 0
M  V30 1871 H 167.536 -2.25533 -2.58824 0
M  V30 1872 N 169.982 1.44106 -0.638065 0
M  V30 1873 C 170.892 2.34513 0.0637334 0
M  V30 1874 C 171.908 1.53018 0.828346 0
M  V30 1875 O 173.084 1.85723 0.779036 0
M  V30 1876 C 170.149 3.31095 1.02844 0
M  V30 1877 C 169.21 4.28497 0.26244 0
M  V30 1878 C 168.443 5.20465 1.1812 0
M  V30 1879 O 168.666 5.16514 2.42011 0
M  V30 1880 O 167.6 5.98251 0.661774 0
M  V30 1881 H 171.426 2.95989 -0.68003 0
M  V30 1882 H 169.011 1.43994 -0.398252 0
M  V30 1883 H 170.893 3.90526 1.58327 0
M  V30 1884 H 169.568 2.72144 1.7527 0
M  V30 1885 H 168.475 3.72592 -0.335602 0
M  V30 1886 H 169.808 4.90388 -0.421936 0
M  V30 1887 N 171.46 0.379036 1.52974 0
M  V30 1888 C 172.408 -0.476033 2.27677 0
M  V30 1889 C 173.402 -1.0719 1.31174 0
M  V30 1890 O 174.608 -1.01355 1.48752 0
M  V30 1891 H 170.983 -0.172255 0.732006 0
M  V30 1892 H 172.954 0.175615 2.97883 0
M  V30 1893 C 171.703 -1.5967 3.0887 0
M  V30 1894 H 171.026 -1.1475 3.82978 0
M  V30 1895 H 172.466 -2.16943 3.64296 0
M  V30 1896 C 170.925 -2.54682 2.20542 0
M  V30 1897 O 171.455 -3.57836 1.82527 0
M  V30 1898 N 169.661 -2.24183 1.84907 0
M  V30 1899 H 169.208 -1.40333 2.1602 0
M  V30 1900 H 169.166 -2.88006 1.26096 0
M  V30 1901 N 172.938 -1.57226 0.108567 0
M  V30 1902 C 174.187 -1.94008 -0.551703 0
M  V30 1903 C 174.5 -0.993442 -1.68494 0
M  V30 1904 O 175.706 -1.25551 -2.40726 0
M  V30 1905 C 174.162 -3.44763 -1.03279 0
M  V30 1906 C 173.77 -4.47943 0.0714193 0
M  V30 1907 C 175.514 -3.90483 -1.66503 0
M  V30 1908 C 173.421 -5.89865 -0.425779 0
M  V30 1909 H 172.351 -0.724206 -0.209863 0
M  V30 1910 H 175.002 -1.82547 0.186741 0
M  V30 1911 H 173.384 -3.51422 -1.82533 0
M  V30 1912 H 174.558 -4.52942 0.847365 0
M  V30 1913 H 172.873 -4.11913 0.609669 0
M  V30 1914 H 175.47 -4.93925 -2.04798 0
M  V30 1915 H 175.813 -3.29877 -2.53942 0
M  V30 1916 H 176.346 -3.86581 -0.938074 0
M  V30 1917 H 173.085 -6.54202 0.412316 0
M  V30 1918 H 172.605 -5.88309 -1.16843 0
M  V30 1919 H 174.284 -6.40844 -0.890397 0
M  V30 1920 N 174.416 0.165178 -1.56732 0
M  V30 1921 C 175.662 0.882112 -1.82611 0
M  V30 1922 C 175.995 1.81628 -0.687378 0
M  V30 1923 O 175.27 1.92009 0.310267 0
M  V30 1924 C 175.553 1.67245 -3.18906 0
M  V30 1925 C 175.406 0.760987 -4.43316 0
M  V30 1926 C 176.725 2.63884 -3.52212 0
M  V30 1927 H 173.844 0.319242 -0.664269 0
M  V30 1928 H 176.486 0.148052 -1.89422 0
M  V30 1929 H 174.636 2.29824 -3.1323 0
M  V30 1930 H 176.308 0.147596 -4.61064 0
M  V30 1931 H 174.551 0.0694102 -4.33744 0
M  V30 1932 H 175.222 1.34962 -5.35247 0
M  V30 1933 H 177.698 2.11429 -3.58381 0
M  V30 1934 H 176.574 3.16245 -4.48643 0
M  V30 1935 H 176.835 3.44377 -2.77231 0
M  V30 1936 N 175.894 1.51508 0.433938 0
M  V30 1937 C 176.844 1.69451 1.52546 0
M  V30 1938 C 177.828 0.548474 1.51263 0
M  V30 1939 O 179.02 0.804529 1.57659 0
M  V30 1940 C 176.149 1.82604 2.90707 0
M  V30 1941 C 175.235 3.03002 2.96733 0
M  V30 1942 N 175.626 4.26121 2.72496 0
M  V30 1943 C 173.924 3.02327 3.27894 0
M  V30 1944 C 174.625 5.07407 2.84452 0
M  V30 1945 N 173.601 4.42126 3.16269 0
M  V30 1946 H 177.403 2.62305 1.32564 0
M  V30 1947 H 174.917 1.49202 0.641297 0
M  V30 1948 H 176.914 1.93569 3.69238 0
M  V30 1949 H 175.574 0.909339 3.11707 0
M  V30 1950 H 176.585 4.55009 2.4736 0
M  V30 1951 H 173.262 2.20301 3.54646 0
M  V30 1952 H 174.652 6.15422 2.69639 0
M  V30 1953 N 177.372 -0.689602 1.41712 0
M  V30 1954 C 178.62 -1.4468 1.4111 0
M  V30 1955 C 178.941 -1.94986 0.0232196 0
M  V30 1956 O 178.211 -1.72097 -0.935913 0
M  V30 1957 H 176.791 -0.536847 0.519427 0
M  V30 1958 H 179.453 -0.815825 1.77004 0
M  V30 1959 H 178.549 -2.30706 2.10193 0
M  V30 1960 N 178.85 -1.27639 -0.924453 0
M  V30 1961 C 180.075 -1.17101 -1.71179 0
M  V30 1962 C 180.5 0.268134 -1.86179 0
M  V30 1963 O 179.858 1.19415 -1.36418 0
M  V30 1964 C 179.906 -1.86313 -3.08739 0
M  V30 1965 O 179.01 -1.16331 -3.95652 0
M  V30 1966 H 178.351 -0.407091 -0.524569 0
M  V30 1967 H 180.881 -1.68767 -1.15666 0
M  V30 1968 H 180.891 -1.938 -3.59034 0
M  V30 1969 H 179.566 -2.91001 -2.97138 0
M  V30 1970 H 178.143 -1.16935 -3.54091 0
M  V30 1971 N 180.328 1.1314 -1.09713 0
M  V30 1972 C 181.576 1.84119 -0.833338 0
M  V30 1973 C 181.897 1.84097 0.642904 0
M  V30 1974 O 181.167 1.29881 1.46655 0
M  V30 1975 H 179.747 0.681766 -0.305293 0
M  V30 1976 H 182.409 1.37038 -1.38588 0
M  V30 1977 H 181.505 2.88543 -1.18951 0
M  V30 1978 N 181.806 0.884767 1.30421 0
M  V30 1979 C 183.031 0.517288 2.00845 0
M  V30 1980 C 183.456 -0.886779 1.65885 0
M  V30 1981 O 182.814 -1.58768 0.875354 0
M  V30 1982 C 182.862 0.698994 3.5376 0
M  V30 1983 O 181.966 -0.255208 4.1161 0
M  V30 1984 H 181.307 0.203872 0.631927 0
M  V30 1985 H 183.837 1.19225 1.66272 0
M  V30 1986 H 183.847 0.597912 4.03595 0
M  V30 1987 H 182.522 1.72271 3.78544 0
M  V30 1988 H 181.099 -0.10784 3.72744 0
M  V30 1989 N 183.284 -1.43765 0.645699 0
M  V30 1990 C 184.216 -2.29027 -0.0890605 0
M  V30 1991 C 185.229 -1.42093 -0.794563 0
M  V30 1992 O 186.418 -1.66104 -0.653575 0
M  V30 1993 C 183.518 -3.18831 -1.14891 0
M  V30 1994 C 182.691 -4.34261 -0.523043 0
M  V30 1995 C 181.75 -5.04994 -1.47878 0
M  V30 1996 O 180.776 -5.6052 -0.990277 0
M  V30 1997 N 181.978 -5.07795 -2.81291 0
M  V30 1998 H 184.743 -2.92727 0.64272 0
M  V30 1999 H 182.304 -1.54373 0.487924 0
M  V30 2000 H 184.296 -3.63015 -1.78892 0
M  V30 2001 H 182.866 -2.56782 -1.78275 0
M  V30 2002 H 182.086 -3.93088 0.295896 0
M  V30 2003 H 183.374 -5.08728 -0.0858147 0
M  V30 2004 H 182.772 -4.64042 -3.23546 0
M  V30 2005 H 181.329 -5.55721 -3.40614 0
M  V30 2006 N 184.763 -0.387143 -1.52771 0
M  V30 2007 C 185.693 0.440551 -2.29306 0
M  V30 2008 C 186.674 1.06535 -1.32606 0
M  V30 2009 O 187.859 1.07853 -1.61497 0
M  V30 2010 C 184.989 1.56919 -3.09829 0
M  V30 2011 C 183.943 1.07054 -4.14395 0
M  V30 2012 C 183.269 2.29109 -4.83129 0
M  V30 2013 C 184.569 0.140015 -5.22112 0
M  V30 2014 H 186.263 -0.198026 -2.98744 0
M  V30 2015 H 183.809 -0.09668 -1.43675 0
M  V30 2016 H 185.762 2.15503 -3.62128 0
M  V30 2017 H 184.486 2.23532 -2.3812 0
M  V30 2018 H 183.145 0.507247 -3.63074 0
M  V30 2019 H 182.793 2.94227 -4.0797 0
M  V30 2020 H 182.493 1.96406 -5.53804 0
M  V30 2021 H 184.017 2.88339 -5.38231 0
M  V30 2022 H 185.431 0.633978 -5.69784 0
M  V30 2023 H 183.828 -0.0971485 -6.00021 0
M  V30 2024 H 184.898 -0.811711 -4.78058 0
M  V30 2025 N 186.241 1.57166 -0.116904 0
M  V30 2026 C 187.488 1.95123 0.541603 0
M  V30 2027 C 187.816 1.00006 1.6682 0
M  V30 2028 O 187.071 0.0235658 1.95686 0
M  V30 2029 C 187.37 3.39508 1.11664 0
M  V30 2030 C 187.036 4.50762 0.111606 0
M  V30 2031 C 185.698 4.80918 -0.164758 0
M  V30 2032 C 188.05 5.18036 -0.573438 0
M  V30 2033 C 185.378 5.75666 -1.13249 0
M  V30 2034 C 187.73 6.13824 -1.52978 0
M  V30 2035 C 186.394 6.42374 -1.81415 0
M  V30 2036 H 185.664 0.714005 0.198187 0
M  V30 2037 H 188.311 1.9048 -0.197365 0
M  V30 2038 H 186.616 3.40835 1.93232 0
M  V30 2039 H 188.313 3.66189 1.63422 0
M  V30 2040 H 184.903 4.27272 0.337192 0
M  V30 2041 H 189.087 4.94896 -0.373092 0
M  V30 2042 H 184.343 5.96092 -1.35958 0
M  V30 2043 H 188.517 6.65039 -2.06629 0
M  V30 2044 H 186.144 7.15599 -2.56557 0
M  V30 2045 N 187.719 -0.156864 1.56817 0
M  V30 2046 C 188.996 -0.899244 1.73704 0
M  V30 2047 C 189.376 -1.99771 0.682254 0
M  V30 2048 O 188.724 -2.26515 -0.300522 0
M  V30 2049 C 188.934 -1.45075 3.17418 0
M  V30 2050 C 190.282 -1.91802 3.7881 0
M  V30 2051 O 191.306 -1.54838 3.20786 0
M  V30 2052 O 190.165 -2.5994 4.80722 0
M  V30 2053 H 187.259 -0.424267 0.709878 0
M  V30 2054 H 189.805 -0.143561 1.69092 0
M  V30 2055 H 188.577 -0.660846 3.85679 0
M  V30 2056 H 188.2 -2.27021 3.26416 0
M  V30 2057 N 189.197 -1.51736 -0.425897 0
M  V30 2058 C 190.147 -1.70258 -1.51645 0
M  V30 2059 C 191.131 -0.556488 -1.5097 0
M  V30 2060 O 192.323 -0.812879 -1.5723 0
M  V30 2061 C 189.452 -1.84143 -2.89735 0
M  V30 2062 C 188.538 -3.04572 -2.95122 0
M  V30 2063 N 188.929 -4.2756 -2.70233 0
M  V30 2064 C 187.227 -3.04061 -3.26286 0
M  V30 2065 C 187.928 -5.08908 -2.81757 0
M  V30 2066 N 186.904 -4.43797 -3.13919 0
M  V30 2067 H 190.706 -2.63004 -1.31172 0
M  V30 2068 H 188.22 -1.4954 -0.633375 0
M  V30 2069 H 190.217 -1.95525 -3.68206 0
M  V30 2070 H 188.877 -0.925857 -3.1122 0
M  V30 2071 H 189.888 -4.56315 -2.44943 0
M  V30 2072 H 186.565 -2.22179 -3.53473 0
M  V30 2073 H 187.955 -6.16843 -2.66372 0
M  V30 2074 N 190.675 0.682077 -1.42076 0
M  V30 2075 C 191.921 1.44428 -1.42367 0
M  V30 2076 C 192.254 1.94164 -0.0373056 0
M  V30 2077 O 191.529 1.70429 0.937239 0
M  V30 2078 C 191.812 2.64654 -2.44194 0
M  V30 2079 C 191.665 2.20596 -3.91991 0
M  V30 2080 C 192.984 3.66865 -2.431 0
M  V30 2081 H 190.103 0.523834 -0.518428 0
M  V30 2082 H 192.745 0.77576 -1.73442 0
M  V30 2083 H 190.895 3.2169 -2.17826 0
M  V30 2084 H 192.567 1.68783 -4.29313 0
M  V30 2085 H 190.81 1.52242 -4.06208 0
M  V30 2086 H 191.481 3.06921 -4.58807 0
M  V30 2087 H 193.957 3.19531 -2.66532 0
M  V30 2088 H 192.833 4.48577 -3.16339 0
M  V30 2089 H 193.094 4.17493 -1.45437 0
M  V30 2090 N 192.153 1.28127 0.917671 0
M  V30 2091 C 193.116 1.11744 2.00115 0
M  V30 2092 C 194.116 0.0583052 1.60694 0
M  V30 2093 O 195.306 0.303755 1.71531 0
M  V30 2094 C 192.438 0.704862 3.33533 0
M  V30 2095 H 193.631 2.07966 2.16079 0
M  V30 2096 H 191.184 1.11058 1.09981 0
M  V30 2097 H 191.919 -0.258299 3.2327 0
M  V30 2098 H 191.704 1.4699 3.63505 0
M  V30 2099 H 193.194 0.612768 4.1308 0
M  V30 2100 N 193.631 -1.12557 1.10312 0
M  V30 2101 C 194.541 -2.21841 0.763142 0
M  V30 2102 C 195.557 -1.72354 -0.238801 0
M  V30 2103 O 196.733 -2.01249 -0.0778746 0
M  V30 2104 C 193.798 -3.46131 0.198632 0
M  V30 2105 C 192.859 -4.10464 1.25769 0
M  V30 2106 C 192.092 -5.28821 0.72002 0
M  V30 2107 O 192.315 -5.6859 -0.453993 0
M  V30 2108 O 191.249 -5.83437 1.47935 0
M  V30 2109 H 195.075 -2.53312 1.67532 0
M  V30 2110 H 192.66 -1.20867 0.878157 0
M  V30 2111 H 194.542 -4.2125 -0.112401 0
M  V30 2112 H 193.217 -3.16338 -0.686419 0
M  V30 2113 H 192.124 -3.3713 1.62156 0
M  V30 2114 H 193.457 -4.44408 2.11571 0
M  V30 2115 N 195.109 -0.891671 -1.2995 0
M  V30 2116 C 196.349 -0.520296 -1.97667 0
M  V30 2117 C 196.713 0.914797 -1.68806 0
M  V30 2118 O 197.914 1.39263 -2.29911 0
M  V30 2119 C 196.185 -0.795222 -3.48441 0
M  V30 2120 S 197.744 -0.526953 -4.35624 0
M  V30 2121 H 194.562 -0.19333 -0.684211 0
M  V30 2122 H 197.164 -1.15238 -1.57926 0
M  V30 2123 H 195.868 -1.83805 -3.66938 0
M  V30 2124 H 195.399 -0.15095 -3.9311 0
M  V30 2125 H 197.414 0.631533 -4.92165 0
M  V30 2126 N 196.587 1.43421 -0.653314 0
M  V30 2127 C 197.517 2.33487 0.0246656 0
M  V30 2128 C 198.498 1.49475 0.811863 0
M  V30 2129 O 199.683 1.78139 0.773322 0
M  V30 2130 C 196.813 3.32841 0.99166 0
M  V30 2131 C 195.767 4.26842 0.314568 0
M  V30 2132 C 195.093 5.16236 1.39302 0
M  V30 2133 C 196.393 5.16243 -0.793095 0
M  V30 2134 H 198.087 2.90427 -0.727481 0
M  V30 2135 H 195.633 1.39649 -0.351287 0
M  V30 2136 H 197.586 3.94747 1.47487 0
M  V30 2137 H 196.31 2.74158 1.77497 0
M  V30 2138 H 194.969 3.663 -0.148199 0
M  V30 2139 H 194.617 4.53891 2.16776 0
M  V30 2140 H 194.317 5.79948 0.945223 0
M  V30 2141 H 195.841 5.81015 1.87759 0
M  V30 2142 H 197.255 5.71958 -0.392039 0
M  V30 2143 H 195.652 5.88676 -1.16536 0
M  V30 2144 H 196.722 4.55927 -1.65103 0
M  V30 2145 N 198.065 0.39524 1.52563 0
M  V30 2146 C 199.313 -0.184678 2.01254 0
M  V30 2147 C 199.634 -1.46822 1.28329 0
M  V30 2148 O 198.904 -1.91666 0.405094 0
M  V30 2149 H 197.484 -0.0712355 0.743596 0
M  V30 2150 H 200.146 0.528293 1.87603 0
M  V30 2151 H 199.242 -0.390681 3.09645 0
M  V30 2152 N 199.544 -1.57102 0.125237 0
M  V30 2153 C 200.821 -1.86953 -0.575142 0
M  V30 2154 C 201.201 -1.02749 -1.84407 0
M  V30 2155 O 200.549 -0.108144 -2.28244 0
M  V30 2156 C 200.759 -3.38198 -0.861583 0
M  V30 2157 C 202.107 -4.06937 -1.21192 0
M  V30 2158 O 203.131 -3.43252 -0.951645 0
M  V30 2159 O 201.99 -5.19364 -1.70068 0
M  V30 2160 H 199.084 -0.774147 -0.290906 0
M  V30 2161 H 201.63 -1.68942 0.160211 0
M  V30 2162 H 200.402 -3.91282 0.0373647 0
M  V30 2163 H 200.025 -3.61661 -1.65188 0
M  V30 2164 N 201.022 0.148545 -1.56898 0
M  V30 2165 C 202.269 0.861418 -1.83264 0
M  V30 2166 C 202.597 1.81239 -0.705883 0
M  V30 2167 O 201.852 1.93305 0.305212 0
M  V30 2168 C 202.151 1.67064 -3.1595 0
M  V30 2169 C 201.817 0.866591 -4.42494 0
M  V30 2170 C 200.479 0.644762 -4.76861 0
M  V30 2171 C 202.831 0.30418 -5.20312 0
M  V30 2172 C 200.159 -0.15021 -5.86508 0
M  V30 2173 C 202.511 -0.477824 -6.30793 0
M  V30 2174 C 201.175 -0.710244 -6.63711 0
M  V30 2175 H 200.445 0.315215 -0.670612 0
M  V30 2176 H 203.092 0.125142 -1.91091 0
M  V30 2177 H 201.397 2.47698 -3.03567 0
M  V30 2178 H 203.094 2.22566 -3.33565 0
M  V30 2179 H 199.684 1.04955 -4.15551 0
M  V30 2180 H 203.868 0.462844 -4.94137 0
M  V30 2181 H 199.124 -0.339796 -6.10455 0
M  V30 2182 H 203.298 -0.92076 -6.90286 0
M  V30 2183 H 200.925 -1.3281 -7.48509 0
M  V30 2184 N 202.5 1.5196 0.417844 0
M  V30 2185 C 203.433 1.69387 1.52916 0
M  V30 2186 C 204.411 0.541419 1.53321 0
M  V30 2187 O 205.595 0.767695 1.72159 0
M  V30 2188 C 202.722 1.72525 2.91467 0
M  V30 2189 C 201.768 2.93967 3.09008 0
M  V30 2190 S 202.601 4.54461 2.83242 0
M  V30 2191 C 203.757 4.60372 4.24038 0
M  V30 2192 H 203.99 2.63382 1.37903 0
M  V30 2193 H 201.523 1.41889 0.608845 0
M  V30 2194 H 203.481 1.75018 3.7132 0
M  V30 2195 H 202.142 0.796733 3.03827 0
M  V30 2196 H 201.335 2.92619 4.10353 0
M  V30 2197 H 200.937 2.89316 2.37007 0
M  V30 2198 H 203.229 4.37213 5.17544 0
M  V30 2199 H 204.172 5.62273 4.30412 0
M  V30 2200 H 204.58 3.89492 4.08602 0
M  V30 2201 N 203.978 -0.674533 1.42435 0
M  V30 2202 C 204.888 -1.81751 1.48337 0
M  V30 2203 C 205.904 -1.69975 0.372099 0
M  V30 2204 O 207.08 -1.91521 0.62304 0
M  V30 2205 C 204.145 -3.17895 1.38361 0
M  V30 2206 C 203.206 -3.41625 2.59982 0
M  V30 2207 C 202.439 -4.71274 2.50473 0
M  V30 2208 O 202.662 -5.49197 1.54075 0
M  V30 2209 O 201.596 -4.96254 3.4061 0
M  V30 2210 H 205.422 -1.79728 2.44809 0
M  V30 2211 H 203.007 -0.830312 1.24202 0
M  V30 2212 H 204.889 -3.99136 1.35161 0
M  V30 2213 H 203.564 -3.20555 0.450144 0
M  V30 2214 H 202.471 -2.60231 2.68757 0
M  V30 2215 H 203.804 -3.43796 3.52229 0
M  V30 2216 N 205.456 -1.28612 -0.910864 0
M  V30 2217 C 206.403 -1.12786 -2.01365 0
M  V30 2218 C 207.373 -0.024201 -1.66082 0
M  V30 2219 O 208.558 -0.189667 -1.89855 0
M  V30 2220 C 205.698 -0.798743 -3.35729 0
M  V30 2221 C 204.811 -1.98173 -3.83864 0
M  V30 2222 C 203.946 -1.59298 -5.06752 0
M  V30 2223 C 202.985 -2.74245 -5.47226 0
M  V30 2224 N 202.122 -2.35842 -6.61304 0
M  V30 2225 H 206.962 -2.07142 -2.14234 0
M  V30 2226 H 204.499 -1.03093 -1.0493 0
M  V30 2227 H 206.457 -0.588662 -4.13026 0
M  V30 2228 H 205.087 0.10789 -3.2262 0
M  V30 2229 H 204.139 -2.30386 -3.02699 0
M  V30 2230 H 205.451 -2.84343 -4.09818 0
M  V30 2231 H 204.605 -1.34513 -5.916 0
M  V30 2232 H 203.344 -0.702618 -4.82612 0
M  V30 2233 H 202.349 -2.99725 -4.60918 0
M  V30 2234 H 203.574 -3.63928 -5.73353 0
M  V30 2235 H 201.52 -1.49279 -6.38789 0
M  V30 2236 H 201.437 -3.15546 -6.86998 0
M  V30 2237 H 202.705 -2.14348 -7.4945 0
M  V30 2238 N 206.934 1.1197 -1.10907 0
M  V30 2239 C 208.35 1.35591 -0.841852 0
M  V30 2240 C 208.55 1.94233 0.536246 0
M  V30 2241 O 207.606 2.1717 1.28816 0
M  V30 2242 C 208.919 2.29284 -1.94549 0
M  V30 2243 C 210.467 2.42862 -1.97451 0
M  V30 2244 C 210.942 3.39873 -3.07002 0
M  V30 2245 N 212.433 3.47433 -3.06341 0
M  V30 2246 C 213.168 4.22421 -3.87748 0
M  V30 2247 N 212.664 5.00432 -4.79103 0
M  V30 2248 N 214.457 4.17876 -3.75946 0
M  V30 2249 H 206.608 0.722664 -1.99728 0
M  V30 2250 H 208.871 0.380635 -0.868229 0
M  V30 2251 H 208.577 1.93378 -2.93765 0
M  V30 2252 H 208.451 3.29452 -1.83688 0
M  V30 2253 H 210.838 2.78046 -0.988645 0
M  V30 2254 H 210.919 1.42566 -2.12388 0
M  V30 2255 H 210.563 3.05417 -4.05811 0
M  V30 2256 H 210.493 4.40011 -2.89306 0
M  V30 2257 H 212.984 2.91784 -2.40147 0
M  V30 2258 H 213.297 5.55002 -5.37766 0
M  V30 2259 H 211.642 4.99612 -4.83128 0
M  V30 2260 H 214.833 3.56016 -3.03924 0
M  V30 2261 H 215.006 4.76061 -4.39624 0
M  V30 2262 N 208.412 0.89855 1.29475 0
M  V30 2263 C 209.359 0.373819 2.27753 0
M  V30 2264 C 210.329 -0.543444 1.56958 0
M  V30 2265 O 211.514 -0.468934 1.84948 0
M  V30 2266 C 208.654 -0.393648 3.42848 0
M  V30 2267 C 207.767 0.554379 4.28428 0
M  V30 2268 C 206.902 -0.230026 5.30702 0
M  V30 2269 C 205.941 0.712599 6.07938 0
M  V30 2270 N 205.078 -0.0373283 7.0209 0
M  V30 2271 H 209.918 1.21699 2.72017 0
M  V30 2272 H 207.455 0.611456 1.33789 0
M  V30 2273 H 209.413 -0.85466 4.08352 0
M  V30 2274 H 208.043 -1.20128 2.99615 0
M  V30 2275 H 207.095 1.13391 3.63107 0
M  V30 2276 H 208.407 1.27597 4.82204 0
M  V30 2277 H 207.561 -0.752288 6.02018 0
M  V30 2278 H 206.3 -0.984758 4.77654 0
M  V30 2279 H 205.305 1.24637 5.35486 0
M  V30 2280 H 206.53 1.46664 6.63074 0
M  V30 2281 H 204.476 -0.774348 6.51414 0
M  V30 2282 H 204.393 0.624374 7.53417 0
M  V30 2283 H 205.661 -0.539891 7.77628 0
M  V30 2284 N 209.89 -1.43072 0.660911 0
M  V30 2285 C 211.139 -2.00942 0.174735 0
M  V30 2286 C 211.452 -1.52797 -1.22117 0
M  V30 2287 O 212.658 -2.02991 -1.80297 0
M  V30 2288 C 211.114 -3.58948 0.261559 0
M  V30 2289 C 210.722 -4.16085 1.66064 0
M  V30 2290 C 212.466 -4.24173 -0.166617 0
M  V30 2291 C 210.373 -5.6641 1.70098 0
M  V30 2292 H 209.303 -0.751483 0.0615631 0
M  V30 2293 H 211.954 -1.63955 0.824069 0
M  V30 2294 H 210.336 -3.93372 -0.455421 0
M  V30 2295 H 211.51 -3.93147 2.40359 0
M  V30 2296 H 209.825 -3.6326 2.03546 0
M  V30 2297 H 212.422 -5.34471 -0.156433 0
M  V30 2298 H 212.765 -3.98647 -1.19943 0
M  V30 2299 H 213.298 -3.94659 0.498875 0
M  V30 2300 H 210.037 -5.96715 2.71315 0
M  V30 2301 H 209.557 -5.91382 1.00139 0
M  V30 2302 H 211.236 -6.30585 1.44816 0
M  V30 2303 N 211.368 -0.403325 -1.52352 0
M  V30 2304 C 212.315 0.425011 -2.26853 0
M  V30 2305 C 213.285 1.04598 -1.29029 0
M  V30 2306 O 214.47 1.07135 -1.57882 0
M  V30 2307 C 211.61 1.53888 -3.08889 0
M  V30 2308 C 210.723 0.939396 -4.21663 0
M  V30 2309 C 209.858 2.02547 -4.91068 0
M  V30 2310 C 208.897 1.40263 -5.95813 0
M  V30 2311 N 208.034 2.4286 -6.58759 0
M  V30 2312 H 212.874 -0.21674 -2.97211 0
M  V30 2313 H 210.411 -0.118722 -1.4662 0
M  V30 2314 H 212.369 2.19558 -3.54753 0
M  V30 2315 H 210.999 2.15074 -2.40714 0
M  V30 2316 H 210.051 0.171898 -3.80011 0
M  V30 2317 H 211.363 0.44436 -4.96817 0
M  V30 2318 H 210.517 2.75958 -5.40308 0
M  V30 2319 H 209.256 2.55415 -4.15469 0
M  V30 2320 H 208.261 0.653833 -5.45898 0
M  V30 2321 H 209.486 0.881719 -6.73352 0
M  V30 2322 H 207.432 2.94871 -5.85992 0
M  V30 2323 H 207.349 1.98152 -7.2957 0
M  V30 2324 H 208.617 3.15858 -7.12639 0
M  V30 2325 N 212.846 1.57033 -0.133567 0
M  V30 2326 C 214.123 1.87256 0.56522 0
M  V30 2327 C 214.503 1.03726 1.83859 0
M  V30 2328 O 213.851 0.120247 2.28183 0
M  V30 2329 C 214.061 3.3865 0.843636 0
M  V30 2330 C 215.409 4.07574 1.19032 0
M  V30 2331 O 216.433 3.43752 0.933429 0
M  V30 2332 O 215.292 5.20259 1.67312 0
M  V30 2333 H 212.386 0.775678 0.286796 0
M  V30 2334 H 214.932 1.68855 -0.169168 0
M  V30 2335 H 213.704 3.91257 -0.0581149 0
M  V30 2336 H 213.327 3.62532 1.63268 0
M  V30 2337 N 214.325 -0.140222 1.56975 0
M  V30 2338 C 215.272 -1.17292 1.98774 0
M  V30 2339 C 216.242 -1.4232 0.856408 0
M  V30 2340 O 217.427 -1.54541 1.119 0
M  V30 2341 C 214.567 -2.49973 2.37923 0
M  V30 2342 C 213.68 -2.32062 3.64378 0
M  V30 2343 C 212.815 -3.57825 3.926 0
M  V30 2344 C 211.854 -3.3498 5.12303 0
M  V30 2345 N 210.991 -4.52891 5.36502 0
M  V30 2346 H 215.831 -0.809472 2.86795 0
M  V30 2347 H 213.368 -0.388237 1.41884 0
M  V30 2348 H 215.326 -3.27346 2.58652 0
M  V30 2349 H 213.956 -2.84252 1.52972 0
M  V30 2350 H 213.008 -1.45711 3.51387 0
M  V30 2351 H 214.32 -2.11145 4.51906 0
M  V30 2352 H 213.474 -4.43624 4.13863 0
M  V30 2353 H 212.213 -3.81753 3.03506 0
M  V30 2354 H 211.218 -2.4757 4.90906 0
M  V30 2355 H 212.443 -3.12444 6.02956 0
M  V30 2356 H 210.389 -4.76979 4.50363 0
M  V30 2357 H 210.306 -4.35001 6.18312 0
M  V30 2358 H 211.574 -5.39884 5.62268 0
M  V30 2359 N 215.803 -1.52179 -0.40978 0
M  V30 2360 C 216.75 -1.75475 -1.49924 0
M  V30 2361 C 217.72 -0.597175 -1.54994 0
M  V30 2362 O 218.905 -0.834655 -1.71575 0
M  V30 2363 C 216.045 -1.9107 -2.87378 0
M  V30 2364 C 215.158 -3.18717 -2.91622 0
M  V30 2365 C 214.293 -3.24747 -4.20372 0
M  V30 2366 C 213.332 -4.46598 -4.18588 0
M  V30 2367 N 212.469 -4.50025 -5.38908 0
M  V30 2368 H 217.309 -2.68458 -1.29361 0
M  V30 2369 H 214.846 -1.33024 -0.627934 0
M  V30 2370 H 216.804 -1.98096 -3.6717 0
M  V30 2371 H 215.434 -1.01469 -3.06437 0
M  V30 2372 H 214.486 -3.20866 -2.04326 0
M  V30 2373 H 215.798 -4.08544 -2.86169 0
M  V30 2374 H 214.952 -3.30841 -5.08556 0
M  V30 2375 H 213.691 -2.32857 -4.28519 0
M  V30 2376 H 212.696 -4.40652 -3.28794 0
M  V30 2377 H 213.921 -5.39783 -4.12081 0
M  V30 2378 H 211.867 -3.61017 -5.47725 0
M  V30 2379 H 211.784 -5.33697 -5.35447 0
M  V30 2380 H 213.052 -4.60347 -6.29048 0
M  V30 2381 N 217.281 0.66697 -1.42791 0
M  V30 2382 C 218.211 1.79218 -1.49677 0
M  V30 2383 C 219.192 1.66405 -0.352623 0
M  V30 2384 O 220.377 1.85708 -0.567993 0
M  V30 2385 C 217.507 3.17565 -1.40605 0
M  V30 2386 C 216.461 3.45124 -2.53127 0
M  V30 2387 C 215.787 4.83127 -2.29112 0
M  V30 2388 C 217.087 3.41236 -3.95418 0
M  V30 2389 H 218.781 1.73713 -2.43853 0
M  V30 2390 H 216.327 0.83432 -1.17367 0
M  V30 2391 H 218.28 3.96022 -1.44029 0
M  V30 2392 H 217.004 3.23767 -0.429271 0
M  V30 2393 H 215.663 2.69031 -2.49034 0
M  V30 2394 H 215.311 4.85988 -1.29709 0
M  V30 2395 H 215.011 5.02528 -3.04531 0
M  V30 2396 H 216.535 5.63859 -2.34297 0
M  V30 2397 H 217.949 4.09651 -4.01073 0
M  V30 2398 H 216.346 3.72173 -4.70752 0
M  V30 2399 H 217.416 2.39665 -4.21532 0
M  V30 2400 N 218.759 1.29093 0.90403 0
M  V30 2401 C 220.17 1.15186 1.46932 0
M  V30 2402 C 220.521 -0.254587 1.94541 0
M  V30 2403 O 219.646 -1.14972 1.83332 0
M  V30 2404 C 220.241 2.08492 2.67051 0
M  V30 2405 C 218.8 1.98621 3.19729 0
M  V30 2406 C 217.947 1.9967 1.92425 0
M  V30 2407 H 220.898 1.41641 0.715789 0
M  V30 2408 H 220.919 1.65461 3.42641 0
M  V30 2409 H 220.431 3.10847 2.3237 0
M  V30 2410 H 218.532 0.993389 3.59114 0
M  V30 2411 H 218.645 2.86068 3.8432 0
M  V30 2412 H 217.009 1.44208 2.09943 0
M  V30 2413 H 217.792 3.03721 1.60026 0
M  V30 2414 N 220.237 -1.11381 1.11499 0
M  V30 2415 C 221.483 -1.83403 0.865512 0
M  V30 2416 C 221.816 -1.84459 -0.607329 0
M  V30 2417 O 221.091 -1.29811 -1.44842 0
M  V30 2418 C 221.374 -3.30552 1.42855 0
M  V30 2419 C 221.227 -3.37886 2.96906 0
M  V30 2420 C 222.546 -4.26643 1.08 0
M  V30 2421 H 219.665 -0.665879 0.31587 0
M  V30 2422 H 222.307 -1.30601 1.37998 0
M  V30 2423 H 220.457 -3.75648 0.990985 0
M  V30 2424 H 222.129 -3.01343 3.49271 0
M  V30 2425 H 220.372 -2.78088 3.32941 0
M  V30 2426 H 221.043 -4.41458 3.31389 0
M  V30 2427 H 223.519 -3.89729 1.45775 0
M  V30 2428 H 222.395 -5.27986 1.50072 0
M  V30 2429 H 222.656 -4.42099 -0.00915037 0
M  V30 2430 N 221.715 -0.905404 -1.28997 0
M  V30 2431 C 222.963 -0.533192 -1.9494 0
M  V30 2432 C 223.284 0.924618 -1.71685 0
M  V30 2433 O 222.554 1.65268 -1.05183 0
M  V30 2434 H 221.134 -0.194194 -0.721317 0
M  V30 2435 H 223.796 -1.15294 -1.57141 0
M  V30 2436 H 222.892 -0.72059 -3.03667 0
M  V30 2437 N 223.193 1.4272 -0.668489 0
M  V30 2438 C 224.44 2.01624 -0.18814 0
M  V30 2439 C 224.768 1.5282 1.20317 0
M  V30 2440 O 224.023 0.718323 1.8204 0
M  V30 2441 C 224.322 3.57021 -0.164499 0
M  V30 2442 C 223.988 4.25232 -1.49962 0
M  V30 2443 C 222.65 4.4358 -1.8652 0
M  V30 2444 C 225.002 4.63727 -2.37921 0
M  V30 2445 C 222.33 4.97694 -3.10674 0
M  V30 2446 C 224.682 5.19218 -3.6138 0
M  V30 2447 C 223.346 5.3578 -3.98115 0
M  V30 2448 H 222.616 0.737795 -0.0688454 0
M  V30 2449 H 225.263 1.70991 -0.862225 0
M  V30 2450 H 223.568 3.87285 0.593079 0
M  V30 2451 H 225.265 4.00372 0.224271 0
M  V30 2452 H 221.855 4.11306 -1.20522 0
M  V30 2453 H 226.039 4.4923 -2.10964 0
M  V30 2454 H 221.295 5.08702 -3.39164 0
M  V30 2455 H 225.469 5.4799 -4.29743 0
M  V30 2456 H 223.096 5.77475 -4.94395 0
M  V30 2457 N 224.671 0.411399 1.52136 0
M  V30 2458 C 225.899 -0.163076 2.06256 0
M  V30 2459 C 226.314 -1.3867 1.28125 0
M  V30 2460 O 225.671 -1.79423 0.333721 0
M  V30 2461 C 225.722 -0.511252 3.57867 0
M  V30 2462 O 225.443 0.66378 4.33042 0
M  V30 2463 C 226.944 -1.13921 4.28412 0
M  V30 2464 H 224.164 -0.0193897 0.67072 0
M  V30 2465 H 226.708 0.583007 1.96013 0
M  V30 2466 H 224.863 -1.20723 3.6811 0
M  V30 2467 H 225.277 0.372601 5.23175 0
M  V30 2468 H 226.751 -1.33302 5.35663 0
M  V30 2469 H 227.228 -2.11296 3.85033 0
M  V30 2470 H 227.834 -0.483373 4.22544 0
M  V30 2471 N 226.149 -1.5696 0.141893 0
M  V30 2472 C 227.396 -1.9596 -0.510492 0
M  V30 2473 C 227.724 -1.02648 -1.65208 0
M  V30 2474 O 226.979 -0.0546947 -1.95624 0
M  V30 2475 C 227.278 -3.41242 -1.06249 0
M  V30 2476 C 226.944 -4.50882 -0.0398791 0
M  V30 2477 C 225.606 -4.80595 0.241247 0
M  V30 2478 C 227.958 -5.17058 0.65578 0
M  V30 2479 C 225.286 -5.73792 1.22393 0
M  V30 2480 C 227.638 -6.11313 1.62724 0
M  V30 2481 C 226.302 -6.39407 1.91612 0
M  V30 2482 H 225.572 -0.717068 -0.186802 0
M  V30 2483 H 228.219 -1.90142 0.227643 0
M  V30 2484 H 226.524 -3.43866 -1.87785 0
M  V30 2485 H 228.221 -3.68742 -1.57576 0
M  V30 2486 H 224.811 -4.27754 -0.269174 0
M  V30 2487 H 228.995 -4.94239 0.451779 0
M  V30 2488 H 224.251 -5.93853 1.45424 0
M  V30 2489 H 228.425 -6.61668 2.17183 0
M  V30 2490 H 226.052 -7.11427 2.6791 0
M  V30 2491 N 227.627 0.131896 -1.57047 0
M  V30 2492 C 228.852 0.860418 -1.8871 0
M  V30 2493 C 229.277 1.73251 -0.73251 0
M  V30 2494 O 228.635 1.785 0.317429 0
M  V30 2495 C 228.683 1.68047 -3.19049 0
M  V30 2496 O 227.787 2.7862 -3.04047 0
M  V30 2497 H 227.128 0.238743 -0.619595 0
M  V30 2498 H 229.658 0.118169 -2.04258 0
M  V30 2499 H 229.668 2.07238 -3.51449 0
M  V30 2500 H 228.343 1.04018 -4.02682 0
M  V30 2501 H 226.92 2.42726 -2.83088 0
M  V30 2502 N 229.106 1.52395 0.401703 0
M  V30 2503 C 230.353 1.66817 1.14796 0
M  V30 2504 C 230.681 0.401772 1.90305 0
M  V30 2505 O 229.936 -0.615487 1.85769 0
M  V30 2506 C 230.235 2.84578 2.16217 0
M  V30 2507 C 229.901 4.22513 1.5746 0
M  V30 2508 C 228.563 4.60029 1.41161 0
M  V30 2509 C 230.915 5.0844 1.14622 0
M  V30 2510 C 228.243 5.81144 0.80552 0
M  V30 2511 C 230.595 6.30167 0.55428 0
M  V30 2512 C 229.259 6.66426 0.378482 0
M  V30 2513 H 228.529 0.610428 0.420069 0
M  V30 2514 H 231.176 1.86512 0.434212 0
M  V30 2515 H 229.481 2.59248 2.93764 0
M  V30 2516 H 231.178 2.92933 2.73845 0
M  V30 2517 H 227.768 3.92953 1.71132 0
M  V30 2518 H 231.952 4.80034 1.26021 0
M  V30 2519 H 227.208 6.07855 0.657399 0
M  V30 2520 H 231.382 6.96071 0.213983 0
M  V30 2521 H 229.009 7.60143 -0.0932606 0
M  V30 2522 N 230.584 -0.659388 1.43143 0
M  V30 2523 C 231.995 -1.24041 1.39537 0
M  V30 2524 C 232.346 -1.95963 0.0963364 0
M  V30 2525 O 231.471 -2.00892 -0.804438 0
M  V30 2526 C 232.066 -2.25601 2.52764 0
M  V30 2527 C 230.625 -2.79195 2.52443 0
M  V30 2528 C 229.772 -1.53743 2.30778 0
M  V30 2529 H 232.723 -0.451792 1.52133 0
M  V30 2530 H 232.744 -3.07651 2.23899 0
M  V30 2531 H 232.256 -1.73226 3.47296 0
M  V30 2532 H 230.357 -3.35649 1.61773 0
M  V30 2533 H 230.47 -3.2716 3.50004 0
M  V30 2534 H 228.834 -1.80869 1.79328 0
M  V30 2535 H 229.617 -1.03312 3.27386 0
M  V30 2536 N 232.062 -1.29571 -0.897171 0
M  V30 2537 C 233.302 -1.18959 -1.66217 0
M  V30 2538 C 233.666 0.254271 -1.90309 0
M  V30 2539 O 234.867 0.483407 -2.64417 0
M  V30 2540 C 233.138 -1.98302 -2.9734 0
M  V30 2541 S 234.697 -2.04253 -3.88364 0
M  V30 2542 H 231.515 -0.424137 -0.570639 0
M  V30 2543 H 234.117 -1.6389 -1.06585 0
M  V30 2544 H 232.821 -3.02342 -2.77521 0
M  V30 2545 H 232.352 -1.53986 -3.62011 0
M  V30 2546 H 234.367 -1.16105 -4.82425 0
M  V30 2547 N 233.54 1.10788 -1.12088 0
M  V30 2548 C 234.472 2.16816 -0.743213 0
M  V30 2549 C 235.485 1.6119 0.228412 0
M  V30 2550 O 236.674 1.78497 0.0102931 0
M  V30 2551 C 233.774 3.38809 -0.0787313 0
M  V30 2552 C 232.947 4.23885 -1.0789 0
M  V30 2553 C 232.006 5.24334 -0.442713 0
M  V30 2554 O 231.032 5.58497 -1.09864 0
M  V30 2555 N 232.234 5.75079 0.791457 0
M  V30 2556 H 234.999 2.49825 -1.65552 0
M  V30 2557 H 232.56 1.26373 -1.012 0
M  V30 2558 H 234.552 4.03107 0.358766 0
M  V30 2559 H 233.122 3.03805 0.736275 0
M  V30 2560 H 232.342 3.55939 -1.69414 0
M  V30 2561 H 233.63 4.77562 -1.75533 0
M  V30 2562 H 233.028 5.49517 1.3434 0
M  V30 2563 H 231.585 6.4118 1.17183 0
M  V30 2564 N 235.018 0.912232 1.28515 0
M  V30 2565 C 235.95 0.35676 2.26406 0
M  V30 2566 C 236.963 -0.503933 1.54804 0
M  V30 2567 O 238.152 -0.319059 1.75625 0
M  V30 2568 C 235.252 -0.508825 3.35058 0
M  V30 2569 C 234.425 0.329007 4.36161 0
M  V30 2570 C 233.484 -0.471422 5.24084 0
M  V30 2571 O 232.51 0.115482 5.69083 0
M  V30 2572 N 233.712 -1.77479 5.52704 0
M  V30 2573 H 236.477 1.19818 2.74707 0
M  V30 2574 H 234.038 0.778022 1.4198 0
M  V30 2575 H 236.03 -1.051 3.90815 0
M  V30 2576 H 234.6 -1.25095 2.86478 0
M  V30 2577 H 233.82 1.05256 3.79888 0
M  V30 2578 H 235.108 0.90234 5.00735 0
M  V30 2579 H 234.506 -2.27417 5.17975 0
M  V30 2580 H 233.063 -2.26382 6.11224 0
M  V30 2581 N 236.496 -1.42363 0.676048 0
M  V30 2582 C 237.721 -2.06377 0.205705 0
M  V30 2583 C 238.146 -1.50463 -1.12883 0
M  V30 2584 O 237.504 -0.623619 -1.70237 0
M  V30 2585 C 237.552 -3.60277 0.152655 0
M  V30 2586 O 236.656 -4.02935 -0.87845 0
M  V30 2587 H 235.997 -0.655588 0.105359 0
M  V30 2588 H 238.527 -1.82475 0.925412 0
M  V30 2589 H 238.537 -4.07993 -0.0230675 0
M  V30 2590 H 237.212 -4.00346 1.12675 0
M  V30 2591 H 235.789 -3.66764 -0.673668 0
M  V30 2592 N 237.974 -0.419461 -1.51915 0
M  V30 2593 C 238.921 0.400927 -2.27291 0
M  V30 2594 C 239.891 1.03224 -1.30131 0
M  V30 2595 O 241.076 1.05455 -1.59009 0
M  V30 2596 C 238.216 1.50603 -3.10504 0
M  V30 2597 C 237.329 0.89462 -4.22635 0
M  V30 2598 C 236.464 1.97328 -4.93189 0
M  V30 2599 C 235.503 1.33935 -5.97267 0
M  V30 2600 N 234.64 2.3586 -6.61298 0
M  V30 2601 H 239.48 -0.248251 -2.96964 0
M  V30 2602 H 237.017 -0.134266 -1.46486 0
M  V30 2603 H 238.975 2.15783 -3.57062 0
M  V30 2604 H 237.605 2.12509 -2.42981 0
M  V30 2605 H 236.657 0.131583 -3.80172 0
M  V30 2606 H 237.969 0.391641 -4.9726 0
M  V30 2607 H 237.123 2.70211 -5.43204 0
M  V30 2608 H 235.862 2.50994 -4.18155 0
M  V30 2609 H 234.867 0.595896 -5.46561 0
M  V30 2610 H 236.092 0.810252 -6.74249 0
M  V30 2611 H 234.038 2.88639 -5.89087 0
M  V30 2612 H 233.955 1.90403 -7.3163 0
M  V30 2613 H 235.223 3.08282 -7.15949 0
M  V30 2614 N 239.452 1.56882 -0.150215 0
M  V30 2615 C 240.701 1.95403 0.500071 0
M  V30 2616 C 241.014 1.03777 1.658 0
M  V30 2617 O 242.22 1.31889 2.37313 0
M  V30 2618 C 240.676 3.4738 0.941018 0
M  V30 2619 C 240.284 4.47596 -0.190158 0
M  V30 2620 C 242.028 3.9476 1.56091 0
M  V30 2621 C 239.935 5.90787 0.269237 0
M  V30 2622 H 238.865 0.729515 0.190588 0
M  V30 2623 H 241.516 1.81988 -0.235074 0
M  V30 2624 H 239.898 3.56138 1.73152 0
M  V30 2625 H 241.072 4.50536 -0.967157 0
M  V30 2626 H 239.387 4.10151 -0.718666 0
M  V30 2627 H 241.984 4.99181 1.9163 0
M  V30 2628 H 242.327 3.36494 2.45107 0
M  V30 2629 H 242.86 3.88932 0.835249 0
M  V30 2630 H 239.599 6.52879 -0.585621 0
M  V30 2631 H 239.119 5.912 1.01204 0
M  V30 2632 H 240.798 6.42979 0.720176 0
M  V30 2633 N 240.93 -0.123565 1.57115 0
M  V30 2634 C 242.207 -0.862196 1.75572 0
M  V30 2635 C 242.587 -1.98279 0.724475 0
M  V30 2636 O 241.935 -2.27102 -0.252407 0
M  V30 2637 C 242.145 -1.38309 3.20424 0
M  V30 2638 C 243.493 -1.83724 3.82793 0
M  V30 2639 O 244.517 -1.47999 3.23998 0
M  V30 2640 O 243.376 -2.49685 4.86127 0
M  V30 2641 H 240.47 -0.409113 0.718718 0
M  V30 2642 H 243.016 -0.107661 1.69358 0
M  V30 2643 H 241.788 -0.578889 3.86994 0
M  V30 2644 H 241.411 -2.20046 3.31158 0
M  V30 2645 N 242.408 -1.52605 -0.393616 0
M  V30 2646 C 243.318 -1.79971 -1.50492 0
M  V30 2647 C 244.334 -0.686181 -1.59899 0
M  V30 2648 O 245.51 -0.973274 -1.76322 0
M  V30 2649 C 242.575 -1.95867 -2.86072 0
M  V30 2650 C 241.636 -3.19781 -2.86424 0
M  V30 2651 C 240.869 -3.34909 -4.15538 0
M  V30 2652 O 241.092 -2.54948 -5.10253 0
M  V30 2653 O 240.026 -4.28141 -4.23059 0
M  V30 2654 H 243.852 -2.74328 -1.30299 0
M  V30 2655 H 241.437 -1.3764 -0.581005 0
M  V30 2656 H 243.319 -2.08056 -3.66457 0
M  V30 2657 H 241.994 -1.04699 -3.063 0
M  V30 2658 H 240.901 -3.13038 -2.04837 0
M  V30 2659 H 242.234 -4.1078 -2.71147 0
M  V30 2660 N 243.887 0.651787 -1.4349 0
M  V30 2661 C 244.85 1.74647 -1.48429 0
M  V30 2662 C 245.85 1.56513 -0.368817 0
M  V30 2663 O 247.04 1.62385 -0.630623 0
M  V30 2664 C 244.172 3.13533 -1.33827 0
M  V30 2665 H 245.365 1.71649 -2.4592 0
M  V30 2666 H 242.918 0.863573 -1.30277 0
M  V30 2667 H 243.653 3.22142 -0.37349 0
M  V30 2668 H 243.438 3.28101 -2.14691 0
M  V30 2669 H 244.928 3.93356 -1.40218 0
M  V30 2670 N 245.365 1.30045 0.890287 0
M  V30 2671 C 246.614 1.17929 1.63633 0
M  V30 2672 C 246.927 -0.266204 1.9378 0
M  V30 2673 O 248.133 -0.508804 2.6669 0
M  V30 2674 C 246.589 2.06317 2.94892 0
M  V30 2675 C 246.197 3.55745 2.72305 0
M  V30 2676 C 247.941 2.0295 3.72843 0
M  V30 2677 C 245.848 4.36205 3.99348 0
M  V30 2678 H 244.778 0.437782 0.613892 0
M  V30 2679 H 247.429 1.54754 0.986075 0
M  V30 2680 H 245.811 1.6237 3.61182 0
M  V30 2681 H 246.985 4.07805 2.1455 0
M  V30 2682 H 245.3 3.6088 2.07737 0
M  V30 2683 H 247.897 2.60319 4.67053 0
M  V30 2684 H 248.24 1.0117 4.0382 0
M  V30 2685 H 248.773 2.4499 3.13408 0
M  V30 2686 H 245.512 5.38659 3.73533 0
M  V30 2687 H 245.032 3.8891 4.56628 0
M  V30 2688 H 246.711 4.47362 4.67415 0
M  V30 2689 N 246.843 -1.10192 1.12674 0
M  V30 2690 C 247.773 -2.18652 0.819362 0
M  V30 2691 C 248.754 -1.68698 -0.217915 0
M  V30 2692 O 249.939 -1.94041 -0.0785581 0
M  V30 2693 C 247.069 -3.46202 0.27594 0
M  V30 2694 C 246.023 -4.09444 1.24656 0
M  V30 2695 C 245.349 -5.31725 0.563258 0
M  V30 2696 C 246.649 -4.52863 2.60217 0
M  V30 2697 H 248.343 -2.44622 1.72628 0
M  V30 2698 H 245.889 -1.17571 0.831451 0
M  V30 2699 H 247.842 -4.21372 0.0486149 0
M  V30 2700 H 246.566 -3.1973 -0.666331 0
M  V30 2701 H 245.225 -3.36284 1.45974 0
M  V30 2702 H 244.873 -5.0153 -0.384235 0
M  V30 2703 H 244.573 -5.74991 1.21075 0
M  V30 2704 H 246.097 -6.09624 0.34503 0
M  V30 2705 H 247.511 -5.19294 2.42913 0
M  V30 2706 H 245.908 -5.06986 3.21068 0
M  V30 2707 H 246.978 -3.65656 3.18471 0
M  V30 2708 N 248.321 -0.919034 -1.28029 0
M  V30 2709 C 249.57 -0.550802 -1.94034 0
M  V30 2710 C 249.883 0.910877 -1.73096 0
M  V30 2711 O 251.089 1.3875 -2.33368 0
M  V30 2712 C 249.545 -0.934249 -3.47563 0
M  V30 2713 C 249.153 -2.41602 -3.7727 0
M  V30 2714 C 250.897 -0.636854 -4.19696 0
M  V30 2715 C 248.804 -2.73932 -5.24133 0
M  V30 2716 H 247.734 -0.202273 -0.726362 0
M  V30 2717 H 250.385 -1.11867 -1.45458 0
M  V30 2718 H 248.767 -0.295115 -3.94899 0
M  V30 2719 H 249.941 -3.10233 -3.40723 0
M  V30 2720 H 248.256 -2.68441 -3.18321 0
M  V30 2721 H 250.853 -0.855005 -5.2782 0
M  V30 2722 H 251.196 0.425575 -4.14119 0
M  V30 2723 H 251.729 -1.23469 -3.78154 0
M  V30 2724 H 248.468 -3.79049 -5.34792 0
M  V30 2725 H 247.988 -2.09942 -5.61858 0
M  V30 2726 H 249.667 -2.61215 -5.91925 0
M  V30 2727 N 249.799 1.42003 -0.683588 0
M  V30 2728 C 251.027 2.05746 -0.218182 0
M  V30 2729 C 251.442 1.51396 1.12804 0
M  V30 2730 O 250.799 0.657303 1.70252 0
M  V30 2731 C 250.85 3.61171 -0.154131 0
M  V30 2732 O 250.571 4.13508 -1.44716 0
M  V30 2733 C 252.072 4.42042 0.333713 0
M  V30 2734 H 249.292 0.662888 -0.10402 0
M  V30 2735 H 251.836 1.81987 -0.9328 0
M  V30 2736 H 249.991 3.84012 0.511231 0
M  V30 2737 H 250.405 5.07453 -1.32632 0
M  V30 2738 H 251.879 5.51028 0.327423 0
M  V30 2739 H 252.356 4.17269 1.37053 0
M  V30 2740 H 252.962 4.24239 -0.300222 0
M  V30 2741 N 251.277 0.427512 1.51691 0
M  V30 2742 C 252.523 -0.134744 2.02953 0
M  V30 2743 C 252.878 -1.41235 1.30654 0
M  V30 2744 O 252.171 -1.87168 0.409713 0
M  V30 2745 C 252.365 -0.418249 3.54944 0
M  V30 2746 C 252.194 0.830327 4.41968 0
M  V30 2747 C 250.964 1.36097 4.86627 0
M  V30 2748 C 253.162 1.7137 4.84909 0
M  V30 2749 N 251.144 2.56311 5.57833 0
M  V30 2750 C 252.515 2.76195 5.55082 0
M  V30 2751 C 254.57 1.72928 4.66905 0
M  V30 2752 C 253.273 3.82512 6.09161 0
M  V30 2753 C 255.299 2.78175 5.21894 0
M  V30 2754 C 254.661 3.8172 5.92004 0
M  V30 2755 H 250.76 -0.0103958 0.781931 0
M  V30 2756 H 253.344 0.585981 1.85673 0
M  V30 2757 H 251.515 -1.10801 3.7226 0
M  V30 2758 H 253.247 -0.970999 3.92879 0
M  V30 2759 H 250.002 0.916311 4.64651 0
M  V30 2760 H 250.426 3.17242 5.98069 0
M  V30 2761 H 255.068 0.942081 4.12171 0
M  V30 2762 H 252.786 4.62077 6.62956 0
M  V30 2763 H 256.372 2.8031 5.09821 0
M  V30 2764 H 255.252 4.61821 6.33791 0
M  V30 2765 N 252.755 -1.56801 0.158532 0
M  V30 2766 C 253.983 -2.00859 -0.496303 0
M  V30 2767 C 254.398 -1.03871 -1.57659 0
M  V30 2768 O 253.755 -0.0375165 -1.82461 0
M  V30 2769 C 253.806 -3.4479 -1.08638 0
M  V30 2770 O 253.527 -4.38072 -0.0492322 0
M  V30 2771 C 255.028 -4.04185 -1.8207 0
M  V30 2772 H 252.248 -0.65864 -0.128199 0
M  V30 2773 H 254.792 -2.02885 0.256506 0
M  V30 2774 H 252.947 -3.43579 -1.78975 0
M  V30 2775 H 253.361 -5.2227 -0.483102 0
M  V30 2776 H 254.835 -5.06857 -2.18633 0
M  V30 2777 H 255.312 -3.45549 -2.71095 0
M  V30 2778 H 255.918 -4.0906 -1.16405 0
M  V30 2779 N 254.233 0.115231 -1.57178 0
M  V30 2780 C 255.18 1.14115 -2.00615 0
M  V30 2781 C 256.15 1.40939 -0.878941 0
M  V30 2782 O 257.335 1.52741 -1.14345 0
M  V30 2783 C 254.475 2.46156 -2.4187 0
M  V30 2784 C 253.588 2.26236 -3.68024 0
M  V30 2785 C 252.723 3.51534 -3.98243 0
M  V30 2786 C 251.762 3.26787 -5.17568 0
M  V30 2787 N 250.899 4.44298 -5.43639 0
M  V30 2788 H 255.739 0.763743 -2.88047 0
M  V30 2789 H 253.276 0.365615 -1.42484 0
M  V30 2790 H 255.234 3.23189 -2.63827 0
M  V30 2791 H 253.864 2.81783 -1.57475 0
M  V30 2792 H 252.916 1.40102 -3.5366 0
M  V30 2793 H 254.228 2.03929 -4.55208 0
M  V30 2794 H 253.382 4.36984 -4.20868 0
M  V30 2795 H 252.121 3.76876 -3.09541 0
M  V30 2796 H 251.126 2.39729 -4.94783 0
M  V30 2797 H 252.351 3.02812 -6.0785 0
M  V30 2798 H 250.297 4.69754 -4.57895 0
M  V30 2799 H 250.214 4.25109 -6.25154 0
M  V30 2800 H 251.482 5.3087 -5.70786 0
M  V30 2801 N 255.711 1.52812 0.385517 0
M  V30 2802 C 257.127 1.4214 0.725829 0
M  V30 2803 C 257.327 0.544589 1.94001 0
M  V30 2804 O 256.383 0.0193693 2.52493 0
M  V30 2805 C 257.696 2.85042 0.957668 0
M  V30 2806 C 259.244 2.94543 1.05892 0
M  V30 2807 C 259.719 4.38464 1.32337 0
M  V30 2808 N 261.21 4.41804 1.39151 0
M  V30 2809 C 261.945 5.5025 1.61285 0
M  V30 2810 N 261.441 6.68775 1.80866 0
M  V30 2811 N 263.234 5.37798 1.63492 0
M  V30 2812 H 255.385 2.08338 -0.413383 0
M  V30 2813 H 257.648 0.940016 -0.122775 0
M  V30 2814 H 257.354 3.51431 0.137568 0
M  V30 2815 H 257.228 3.27505 1.87137 0
M  V30 2816 H 259.615 2.28321 1.86959 0
M  V30 2817 H 259.696 2.55504 0.123057 0
M  V30 2818 H 259.34 5.05254 0.517793 0
M  V30 2819 H 259.27 4.75059 2.27214 0
M  V30 2820 H 261.761 3.56377 1.25713 0
M  V30 2821 H 262.074 7.47197 1.97271 0
M  V30 2822 H 260.419 6.71797 1.78083 0
M  V30 2823 H 263.61 4.44171 1.47749 0
M  V30 2824 H 263.783 6.22382 1.80402 0
M  V30 2825 N 257.189 -0.644168 1.43834 0
M  V30 2826 C 258.436 -1.40395 1.4593 0
M  V30 2827 C 258.764 -1.94305 0.0869658 0
M  V30 2828 O 258.019 -1.73288 -0.909378 0
M  V30 2829 C 258.318 -2.59615 2.45631 0
M  V30 2830 C 257.984 -2.2407 3.91284 0
M  V30 2831 C 256.646 -2.14089 4.30952 0
M  V30 2832 C 258.998 -1.95775 4.83034 0
M  V30 2833 C 256.326 -1.73981 5.6031 0
M  V30 2834 C 258.678 -1.57163 6.12766 0
M  V30 2835 C 257.342 -1.45713 6.51402 0
M  V30 2836 H 256.612 -0.513741 0.533995 0
M  V30 2837 H 259.259 -0.731724 1.76969 0
M  V30 2838 H 257.564 -3.32011 2.08028 0
M  V30 2839 H 259.261 -3.17834 2.44504 0
M  V30 2840 H 255.851 -2.32753 3.59895 0
M  V30 2841 H 260.035 -2.02403 4.53152 0
M  V30 2842 H 255.291 -1.63709 5.89075 0
M  V30 2843 H 259.465 -1.34303 6.83327 0
M  V30 2844 H 257.092 -1.14406 7.51542 0
M  V30 2845 N 258.668 -1.30515 -0.883378 0
M  V30 2846 C 259.615 -1.17032 -1.98927 0
M  V30 2847 C 260.585 -0.0594241 -1.65994 0
M  V30 2848 O 261.77 -0.229895 -1.8941 0
M  V30 2849 C 258.91 -0.869777 -3.33959 0
M  V30 2850 C 258.023 -2.06271 -3.79574 0
M  V30 2851 C 257.158 -1.70011 -5.03259 0
M  V30 2852 C 256.197 -2.8579 -5.41286 0
M  V30 2853 N 255.334 -2.49816 -6.56153 0
M  V30 2854 H 260.174 -2.1164 -2.09792 0
M  V30 2855 H 257.711 -1.05296 -1.02719 0
M  V30 2856 H 259.669 -0.676138 -4.11685 0
M  V30 2857 H 258.299 0.0394332 -3.22776 0
M  V30 2858 H 257.351 -2.36755 -2.97744 0
M  V30 2859 H 258.663 -2.92971 -4.03694 0
M  V30 2860 H 257.817 -1.47032 -5.88614 0
M  V30 2861 H 256.556 -0.804829 -4.81013 0
M  V30 2862 H 255.561 -3.09434 -4.54456 0
M  V30 2863 H 256.786 -3.76008 -5.65504 0
M  V30 2864 H 254.732 -1.62795 -6.35479 0
M  V30 2865 H 254.649 -3.30048 -6.8015 0
M  V30 2866 H 255.917 -2.30197 -7.44735 0
M  V30 2867 N 260.146 1.09593 -1.13257 0
M  V30 2868 C 261.109 2.14359 -0.811358 0
M  V30 2869 C 262.109 1.59808 0.178377 0
M  V30 2870 O 263.299 1.74132 -0.0484911 0
M  V30 2871 C 260.431 3.40269 -0.207276 0
M  V30 2872 H 261.624 2.44284 -1.73969 0
M  V30 2873 H 259.177 1.25102 -0.936973 0
M  V30 2874 H 259.912 3.15969 0.73036 0
M  V30 2875 H 259.697 3.81154 -0.919992 0
M  V30 2876 H 261.187 4.176 0.000667944 0
M  V30 2877 N 261.624 0.925811 1.2754 0
M  V30 2878 C 262.849 0.580924 1.99098 0
M  V30 2879 C 263.274 -0.833555 1.68622 0
M  V30 2880 O 262.632 -1.55903 0.925422 0
M  V30 2881 C 262.68 0.811186 3.51358 0
M  V30 2882 O 261.784 -0.124129 4.12213 0
M  V30 2883 H 261.125 0.223873 0.625122 0
M  V30 2884 H 263.655 1.24455 1.62395 0
M  V30 2885 H 263.665 0.72601 4.01489 0
M  V30 2886 H 262.34 1.84227 3.72872 0
M  V30 2887 H 260.917 0.0108006 3.72898 0
M  V30 2888 N 263.102 -1.41638 0.69111 0
M  V30 2889 C 264.35 -2.00902 0.219758 0
M  V30 2890 C 264.671 -1.54994 -1.18329 0
M  V30 2891 O 263.941 -0.778628 -1.79762 0
M  V30 2892 H 262.521 -0.74289 0.0782558 0
M  V30 2893 H 265.183 -1.73327 0.891271 0
M  V30 2894 H 264.279 -3.11224 0.233708 0
M  V30 2895 N 264.58 -0.43555 -1.51462 0
M  V30 2896 C 265.826 0.131709 -2.02372 0
M  V30 2897 C 266.159 1.42516 -1.3192 0
M  V30 2898 O 265.434 1.89606 -0.433573 0
M  V30 2899 C 265.717 0.352301 -3.58373 0
M  V30 2900 C 265.57 -0.959676 -4.39443 0
M  V30 2901 C 266.889 1.12286 -4.25535 0
M  V30 2902 H 264.008 0.0463936 -0.735538 0
M  V30 2903 H 266.65 -0.574197 -1.81116 0
M  V30 2904 H 264.8 0.9536 -3.76615 0
M  V30 2905 H 266.472 -1.59482 -4.32855 0
M  V30 2906 H 264.715 -1.56468 -4.04599 0
M  V30 2907 H 265.386 -0.759394 -5.46752 0
M  V30 2908 H 267.862 0.613545 -4.11552 0
M  V30 2909 H 266.738 1.24598 -5.34571 0
M  V30 2910 H 266.999 2.15048 -3.86273 0
M  V30 2911 N 266.058 1.56714 -0.166846 0
M  V30 2912 C 266.968 2.21331 0.777791 0
M  V30 2913 C 267.984 1.20358 1.25658 0
M  V30 2914 O 269.16 1.53005 1.30964 0
M  V30 2915 C 266.225 2.83787 1.99163 0
M  V30 2916 C 265.286 3.99947 1.56016 0
M  V30 2917 C 264.519 4.59415 2.71613 0
M  V30 2918 O 264.742 4.17769 3.88362 0
M  V30 2919 O 263.676 5.49359 2.45945 0
M  V30 2920 H 267.502 3.02605 0.257636 0
M  V30 2921 H 265.087 1.49275 0.0611393 0
M  V30 2922 H 266.969 3.23405 2.70161 0
M  V30 2923 H 265.644 2.05513 2.50092 0
M  V30 2924 H 264.551 3.65007 0.819809 0
M  V30 2925 H 265.884 4.79801 1.09782 0
M  V30 2926 N 267.536 -0.106894 1.57237 0
M  V30 2927 C 268.784 -0.810921 1.85117 0
M  V30 2928 C 269.105 -1.7984 0.753827 0
M  V30 2929 O 268.375 -1.94649 -0.221056 0
M  V30 2930 H 266.955 -0.302466 0.683025 0
M  V30 2931 H 269.617 -0.0913324 1.94686 0
M  V30 2932 H 268.713 -1.34875 2.81452 0
M  V30 2933 N 269.014 -1.53014 -0.377408 0
M  V30 2934 C 269.977 -1.77957 -1.44444 0
M  V30 2935 C 270.977 -0.649763 -1.47087 0
M  V30 2936 O 272.167 -0.917897 -1.48055 0
M  V30 2937 C 269.299 -1.89089 -2.83651 0
M  V30 2938 H 270.492 -2.73243 -1.23606 0
M  V30 2939 H 268.045 -1.43912 -0.609844 0
M  V30 2940 H 268.78 -0.958293 -3.09818 0
M  V30 2941 H 268.565 -2.71254 -2.83132 0
M  V30 2942 H 270.055 -2.1002 -3.60945 0
M  V30 2943 N 270.492 0.636531 -1.44174 0
M  V30 2944 C 271.769 1.39463 -1.37148 0
M  V30 2945 C 272.149 2.11082 -0.027507 0
M  V30 2946 O 271.497 2.05954 0.989716 0
M  V30 2947 C 271.707 2.36552 -2.56601 0
M  V30 2948 C 273.055 3.00048 -3.00427 0
M  V30 2949 O 274.079 2.46878 -2.56767 0
M  V30 2950 O 272.938 3.96488 -3.76111 0
M  V30 2951 H 270.032 0.623903 -0.542839 0
M  V30 2952 H 272.578 0.662039 -1.56253 0
M  V30 2953 H 271.35 1.82692 -3.46034 0
M  V30 2954 H 270.973 3.17236 -2.39681 0
M  V30 2955 N 271.97 1.30982 0.876444 0
M  V30 2956 C 273.216 1.20474 1.63138 0
M  V30 2957 C 273.549 -0.238096 1.92735 0
M  V30 2958 O 272.824 -1.1692 1.55435 0
M  V30 2959 C 273.107 2.04244 2.96574 0
M  V30 2960 C 272.96 3.56793 2.73896 0
M  V30 2961 C 274.279 1.88684 3.97601 0
M  V30 2962 H 271.398 0.439001 0.591985 0
M  V30 2963 H 274.04 1.60704 1.01361 0
M  V30 2964 H 272.19 1.70063 3.493 0
M  V30 2965 H 273.862 4.01077 2.27892 0
M  V30 2966 H 272.105 3.80548 2.08245 0
M  V30 2967 H 272.776 4.10706 3.68815 0
M  V30 2968 H 275.252 2.18584 3.54062 0
M  V30 2969 H 274.128 2.4961 4.88862 0
M  V30 2970 H 274.389 0.848343 4.33884 0
M  V30 2971 N 273.449 -1.08991 1.13837 0
M  V30 2972 C 274.695 -1.81526 0.90422 0
M  V30 2973 C 275.028 -1.85706 -0.568066 0
M  V30 2974 O 274.303 -1.32855 -1.42056 0
M  V30 2975 C 274.586 -3.27447 1.49835 0
M  V30 2976 C 274.439 -3.31512 3.04006 0
M  V30 2977 C 275.758 -4.24256 1.17025 0
M  V30 2978 H 272.877 -0.659029 0.329923 0
M  V30 2979 H 275.519 -1.27644 1.40737 0
M  V30 2980 H 273.669 -3.73462 1.07044 0
M  V30 2981 H 275.341 -2.93867 3.55584 0
M  V30 2982 H 273.584 -2.70963 3.38765 0
M  V30 2983 H 274.255 -4.34329 3.40679 0
M  V30 2984 H 276.731 -3.86549 1.54009 0
M  V30 2985 H 275.607 -5.24684 1.61237 0
M  V30 2986 H 275.868 -4.42019 0.0846274 0
M  V30 2987 N 274.927 -0.932562 -1.27047 0
M  V30 2988 C 275.874 -0.434072 -2.26681 0
M  V30 2989 C 276.844 0.501639 -1.58344 0
M  V30 2990 O 278.029 0.419734 -1.86126 0
M  V30 2991 C 275.169 0.30261 -3.43771 0
M  V30 2992 C 274.282 -0.667774 -4.26808 0
M  V30 2993 C 273.417 0.0892393 -5.31125 0
M  V30 2994 C 272.456 -0.873532 -6.05835 0
M  V30 2995 N 271.593 -0.148832 -7.01942 0
M  V30 2996 H 276.433 -1.28868 -2.68695 0
M  V30 2997 H 273.97 -0.646713 -1.32121 0
M  V30 2998 H 275.928 0.746092 -4.10474 0
M  V30 2999 H 274.558 1.12142 -3.02695 0
M  V30 3000 H 273.61 -1.22978 -3.59973 0
M  V30 3001 H 274.922 -1.40337 -4.78651 0
M  V30 3002 H 274.076 0.592409 -6.03801 0
M  V30 3003 H 272.815 0.85777 -4.80097 0
M  V30 3004 H 271.82 -1.38791 -5.31994 0
M  V30 3005 H 273.045 -1.64193 -6.58952 0
M  V30 3006 H 270.991 0.601365 -6.53238 0
M  V30 3007 H 270.908 -0.82391 -7.51497 0
M  V30 3008 H 272.176 0.333527 -7.78786 0
M  V30 3009 N 276.405 1.4127 -0.698611 0
M  V30 3010 C 277.335 2.33447 -0.049629 0
M  V30 3011 C 278.316 1.51982 0.763898 0
M  V30 3012 O 279.501 1.80509 0.716257 0
M  V30 3013 C 276.631 3.35828 0.885267 0
M  V30 3014 C 275.585 4.27627 0.178613 0
M  V30 3015 C 274.911 5.20406 1.22807 0
M  V30 3016 C 276.211 5.13459 -0.956933 0
M  V30 3017 H 277.905 2.87966 -0.81951 0
M  V30 3018 H 275.451 1.38461 -0.395538 0
M  V30 3019 H 277.404 3.9924 1.34854 0
M  V30 3020 H 276.128 2.79666 1.68685 0
M  V30 3021 H 274.787 3.65643 -0.26466 0
M  V30 3022 H 274.435 4.60558 2.02226 0
M  V30 3023 H 274.135 5.82661 0.760239 0
M  V30 3024 H 275.659 5.86695 1.69179 0
M  V30 3025 H 277.073 5.70421 -0.573805 0
M  V30 3026 H 275.47 5.8467 -1.35205 0
M  V30 3027 H 276.54 4.50443 -1.79524 0
M  V30 3028 N 277.883 0.443576 1.51229 0
M  V30 3029 C 278.813 -0.355142 2.30783 0
M  V30 3030 C 279.794 -1.0154 1.36468 0
M  V30 3031 O 280.979 -1.01785 1.65389 0
M  V30 3032 C 278.109 -1.45312 3.15439 0
M  V30 3033 C 277.063 -0.916002 4.18083 0
M  V30 3034 C 276.389 -2.1102 4.91299 0
M  V30 3035 C 277.689 0.0538602 5.22272 0
M  V30 3036 H 279.383 0.308767 2.97804 0
M  V30 3037 H 276.929 0.149937 1.43217 0
M  V30 3038 H 278.882 -2.01914 3.69876 0
M  V30 3039 H 277.606 -2.14541 2.46252 0
M  V30 3040 H 276.265 -0.372145 3.64706 0
M  V30 3041 H 275.913 -2.78882 4.18609 0
M  V30 3042 H 275.613 -1.75717 5.60712 0
M  V30 3043 H 277.137 -2.68164 5.48562 0
M  V30 3044 H 278.551 -0.422069 5.71744 0
M  V30 3045 H 276.948 0.319776 5.99247 0
M  V30 3046 H 278.018 0.98858 4.74716 0
M  V30 3047 N 279.361 -1.56624 0.175154 0
M  V30 3048 C 280.309 -2.19468 -0.770495 0
M  V30 3049 C 281.303 -1.15985 -1.23466 0
M  V30 3050 O 282.509 -1.34176 -1.19987 0
M  V30 3051 H 278.884 -0.703095 -0.266761 0
M  V30 3052 H 280.855 -2.97613 -0.216542 0
M  V30 3053 C 279.604 -2.85264 -1.98796 0
M  V30 3054 H 278.927 -3.64623 -1.63983 0
M  V30 3055 H 280.367 -3.327 -2.62843 0
M  V30 3056 C 278.826 -1.85239 -2.81404 0
M  V30 3057 O 279.356 -1.34024 -3.78682 0
M  V30 3058 N 277.562 -1.53911 -2.46495 0
M  V30 3059 H 277.109 -1.95751 -1.67449 0
M  V30 3060 H 277.067 -0.872382 -3.02054 0
M  V30 3061 N 280.839 0.0985539 -1.57292 0
M  V30 3062 C 281.786 1.11981 -2.01814 0
M  V30 3063 C 282.756 1.39999 -0.89384 0
M  V30 3064 O 283.941 1.5152 -1.15958 0
M  V30 3065 C 281.081 2.43577 -2.44467 0
M  V30 3066 C 280.194 2.2232 -3.70402 0
M  V30 3067 C 279.329 3.4729 -4.01949 0
M  V30 3068 C 278.368 3.2128 -5.21005 0
M  V30 3069 N 277.505 4.38507 -5.48321 0
M  V30 3070 H 282.345 0.733149 -2.88841 0
M  V30 3071 H 279.882 0.350482 -1.42864 0
M  V30 3072 H 281.84 3.20373 -2.6724 0
M  V30 3073 H 280.47 2.80097 -1.60455 0
M  V30 3074 H 279.522 1.36343 -3.55126 0
M  V30 3075 H 280.834 1.99089 -4.57345 0
M  V30 3076 H 279.988 4.32495 -4.25479 0
M  V30 3077 H 278.727 3.73572 -3.13521 0
M  V30 3078 H 277.732 2.34468 -4.97298 0
M  V30 3079 H 278.957 2.96348 -6.11028 0
M  V30 3080 H 276.903 4.64871 -4.62851 0
M  V30 3081 H 276.82 4.18455 -6.29628 0
M  V30 3082 H 278.088 5.24787 -5.76385 0
M  V30 3083 N 282.317 1.53212 0.369288 0
M  V30 3084 C 283.28 1.7872 1.43498 0
M  V30 3085 C 284.28 0.657554 1.46741 0
M  V30 3086 O 285.47 0.925736 1.47566 0
M  V30 3087 C 282.602 1.90591 2.82645 0
M  V30 3088 H 283.795 2.73894 1.22156 0
M  V30 3089 H 281.348 1.44233 0.602203 0
M  V30 3090 H 282.083 0.974709 3.09306 0
M  V30 3091 H 281.868 2.72751 2.8169 0
M  V30 3092 H 283.358 2.11931 3.59826 0
M  V30 3093 N 283.795 -0.628877 1.44509 0
M  V30 3094 C 285.044 -1.38437 1.4669 0
M  V30 3095 C 285.357 -1.95322 0.104272 0
M  V30 3096 O 286.563 -2.715 0.00362163 0
M  V30 3097 C 285.019 -2.50659 2.5826 0
M  V30 3098 C 284.627 -2.00277 4.0074 0
M  V30 3099 C 286.371 -3.27844 2.69664 0
M  V30 3100 C 284.278 -3.09854 5.0373 0
M  V30 3101 H 283.208 -0.520245 0.545766 0
M  V30 3102 H 285.859 -0.676313 1.70582 0
M  V30 3103 H 284.241 -3.2405 2.27612 0
M  V30 3104 H 285.415 -1.33736 4.40966 0
M  V30 3105 H 283.73 -1.35901 3.93599 0
M  V30 3106 H 286.327 -4.09534 3.43781 0
M  V30 3107 H 286.67 -3.77471 1.75559 0
M  V30 3108 H 287.203 -2.61543 2.99733 0
M  V30 3109 H 283.942 -2.65168 5.99472 0
M  V30 3110 H 283.462 -3.7503 4.68095 0
M  V30 3111 H 285.141 -3.74592 5.27532 0
M  V30 3112 N 285.273 -1.31445 -0.869486 0
M  V30 3113 C 286.22 -1.19135 -1.97675 0
M  V30 3114 C 287.19 -0.0770266 -1.65921 0
M  V30 3115 O 288.375 -0.249972 -1.89155 0
M  V30 3116 C 285.515 -0.905149 -3.33018 0
M  V30 3117 C 284.628 -2.10285 -3.77365 0
M  V30 3118 C 283.763 -1.75339 -5.01427 0
M  V30 3119 C 282.802 -2.91515 -5.38224 0
M  V30 3120 N 281.939 -2.56762 -6.53466 0
M  V30 3121 H 286.779 -2.13853 -2.07535 0
M  V30 3122 H 284.316 -1.06379 -1.01597 0
M  V30 3123 H 286.274 -0.719765 -4.10944 0
M  V30 3124 H 284.904 0.00519624 -3.228 0
M  V30 3125 H 283.956 -2.39899 -2.95216 0
M  V30 3126 H 285.268 -2.97237 -4.00564 0
M  V30 3127 H 284.422 -1.53266 -5.87022 0
M  V30 3128 H 283.161 -0.855801 -4.80133 0
M  V30 3129 H 282.166 -3.14237 -4.51149 0
M  V30 3130 H 283.391 -3.81985 -5.61484 0
M  V30 3131 H 281.337 -1.69526 -6.33717 0
M  V30 3132 H 281.254 -3.37243 -6.76612 0
M  V30 3133 H 282.522 -2.38083 -7.42251 0
M  V30 3134 N 286.751 1.08385 -1.14413 0
M  V30 3135 C 287.698 2.15311 -0.831265 0
M  V30 3136 C 288.668 1.64751 0.211292 0
M  V30 3137 O 289.853 1.90627 0.0811674 0
M  V30 3138 C 286.993 3.43658 -0.315143 0
M  V30 3139 C 286.106 4.08064 -1.41802 0
M  V30 3140 C 285.241 5.24207 -0.859126 0
M  V30 3141 C 284.28 5.80554 -1.93967 0
M  V30 3142 N 283.417 6.88042 -1.39793 0
M  V30 3143 H 288.257 2.41415 -1.74708 0
M  V30 3144 H 285.794 1.18474 -0.871909 0
M  V30 3145 H 287.752 4.172 0.00230884 0
M  V30 3146 H 286.382 3.17839 0.56378 0
M  V30 3147 H 285.434 3.3228 -1.85187 0
M  V30 3148 H 286.746 4.45962 -2.23427 0
M  V30 3149 H 285.9 6.04689 -0.49359 0
M  V30 3150 H 284.639 4.87699 -0.011932 0
M  V30 3151 H 283.644 4.98725 -2.31415 0
M  V30 3152 H 284.869 6.19121 -2.79046 0
M  V30 3153 H 282.815 6.53493 -0.572919 0
M  V30 3154 H 282.732 7.24767 -2.15054 0
M  V30 3155 H 284 7.72255 -1.0603 0
M  V30 3156 N 288.23 0.939286 1.26551 0
M  V30 3157 C 289.646 0.641304 1.46149 0
M  V30 3158 C 289.846 -0.805964 1.84679 0
M  V30 3159 O 288.902 -1.58278 1.96734 0
M  V30 3160 C 290.215 1.6011 2.54529 0
M  V30 3161 C 291.763 1.6106 2.68382 0
M  V30 3162 C 292.238 2.55765 3.79932 0
M  V30 3163 N 293.729 2.5404 3.87322 0
M  V30 3164 C 294.464 3.24004 4.73085 0
M  V30 3165 N 293.96 4.03388 5.63249 0
M  V30 3166 N 295.753 3.12965 4.66914 0
M  V30 3167 H 287.904 1.87478 0.998285 0
M  V30 3168 H 290.167 0.805559 0.499779 0
M  V30 3169 H 289.873 2.63412 2.33039 0
M  V30 3170 H 289.747 1.35171 3.52149 0
M  V30 3171 H 292.134 0.584835 2.89247 0
M  V30 3172 H 292.215 1.90053 1.71212 0
M  V30 3173 H 291.859 3.58458 3.5982 0
M  V30 3174 H 291.789 2.24063 4.76554 0
M  V30 3175 H 294.28 1.96396 3.22858 0
M  V30 3176 H 294.593 4.5373 6.25579 0
M  V30 3177 H 292.938 4.07489 5.63008 0
M  V30 3178 H 296.129 2.50432 3.95476 0
M  V30 3179 H 296.302 3.67759 5.33533 0
M  V30 3180 N 289.708 -1.40897 0.706093 0
M  V30 3181 C 290.956 -2.00657 0.241054 0
M  V30 3182 C 291.277 -1.56241 -1.16678 0
M  V30 3183 O 290.547 -0.79765 -1.78926 0
M  V30 3184 H 289.127 -0.742018 0.0861308 0
M  V30 3185 H 291.789 -1.72372 0.909604 0
M  V30 3186 H 290.885 -3.10958 0.266705 0
M  V30 3187 N 291.186 -0.45159 -1.50991 0
M  V30 3188 C 292.463 0.170707 -1.94854 0
M  V30 3189 C 292.843 1.58788 -1.39103 0
M  V30 3190 O 292.191 2.20913 -0.583921 0
M  V30 3191 C 292.401 0.133929 -3.48743 0
M  V30 3192 C 293.749 0.33248 -4.23296 0
M  V30 3193 O 294.773 0.211403 -3.55572 0
M  V30 3194 O 293.632 0.57486 -5.43468 0
M  V30 3195 H 290.726 0.122264 -0.817912 0
M  V30 3196 H 293.272 -0.510594 -1.61836 0
M  V30 3197 H 292.044 -0.856283 -3.81816 0
M  V30 3198 H 291.667 0.857529 -3.88242 0
M  V30 3199 N 292.664 1.56529 -0.183458 0
M  V30 3200 C 293.894 2.01331 0.463612 0
M  V30 3201 C 294.302 1.06278 1.5653 0
M  V30 3202 O 293.645 0.0577976 1.83609 0
M  V30 3203 C 293.707 3.42547 1.09096 0
M  V30 3204 C 293.371 4.56817 0.129442 0
M  V30 3205 C 294.368 5.15734 -0.656807 0
M  V30 3206 C 292.053 5.02295 0.02174 0
M  V30 3207 C 294.047 6.1857 -1.53784 0
M  V30 3208 C 291.734 6.04978 -0.862864 0
M  V30 3209 C 292.732 6.62988 -1.64123 0
M  V30 3210 O 292.42 7.63677 -2.51103 0
M  V30 3211 H 292.152 0.664917 0.121907 0
M  V30 3212 H 294.706 2.034 -0.285954 0
M  V30 3213 H 292.936 3.37428 1.88889 0
M  V30 3214 H 294.625 3.71228 1.64148 0
M  V30 3215 H 295.391 4.81473 -0.583839 0
M  V30 3216 H 291.27 4.56847 0.617392 0
M  V30 3217 H 294.814 6.63777 -2.14583 0
M  V30 3218 H 290.711 6.38663 -0.93699 0
M  V30 3219 H 291.479 7.81049 -2.44753 0
M  V30 3220 N 294.142 -0.090211 1.57342 0
M  V30 3221 C 295.419 -0.824761 1.77361 0
M  V30 3222 C 295.799 -1.96698 0.76637 0
M  V30 3223 O 295.147 -2.27586 -0.204179 0
M  V30 3224 C 295.357 -1.31481 3.23286 0
M  V30 3225 C 296.705 -1.75563 3.86604 0
M  V30 3226 O 297.729 -1.41093 3.27065 0
M  V30 3227 O 296.588 -2.39317 4.91314 0
M  V30 3228 H 293.682 -0.393776 0.727234 0
M  V30 3229 H 296.228 -0.0717138 1.69548 0
M  V30 3230 H 295 -0.496671 3.88135 0
M  V30 3231 H 294.623 -2.12973 3.35751 0
M  V30 3232 N 295.62 -1.53406 -0.361157 0
M  V30 3233 C 296.583 -1.79479 -1.42548 0
M  V30 3234 C 297.583 -0.665327 -1.4639 0
M  V30 3235 O 298.773 -0.933549 -1.47073 0
M  V30 3236 C 295.905 -1.92087 -2.8163 0
M  V30 3237 H 297.098 -2.74538 -1.20701 0
M  V30 3238 H 294.651 -1.4455 -0.594546 0
M  V30 3239 H 295.386 -0.991099 -3.08784 0
M  V30 3240 H 295.171 -2.74241 -2.80239 0
M  V30 3241 H 296.661 -2.13836 -3.58697 0
M  V30 3242 N 297.098 0.621204 -1.44841 0
M  V30 3243 C 298.046 1.75385 -1.52784 0
M  V30 3244 C 299.04 1.64639 -0.398779 0
M  V30 3245 O 300.246 1.70598 -0.574137 0
M  V30 3246 H 296.621 0.579193 -0.479625 0
M  V30 3247 H 298.592 1.6581 -2.48092 0
M  V30 3248 C 297.341 3.13742 -1.4987 0
M  V30 3249 H 296.664 3.22663 -2.36069 0
M  V30 3250 H 298.104 3.92861 -1.59487 0
M  V30 3251 C 296.563 3.36175 -0.220973 0
M  V30 3252 O 297.093 3.95469 0.704782 0
M  V30 3253 N 295.299 2.90348 -0.120963 0
M  V30 3254 H 294.846 2.42278 -0.875162 0
M  V30 3255 H 294.804 3.05732 0.733168 0
M  V30 3256 N 298.576 1.31904 0.862503 0
M  V30 3257 C 299.825 1.21373 1.61094 0
M  V30 3258 C 300.138 -0.22504 1.94301 0
M  V30 3259 O 301.344 -0.452121 2.67709 0
M  V30 3260 C 299.8 2.12525 2.9045 0
M  V30 3261 C 299.408 3.61441 2.64697 0
M  V30 3262 C 301.152 2.10813 3.68454 0
M  V30 3263 C 299.059 4.44578 3.90006 0
M  V30 3264 H 297.989 0.450705 0.604468 0
M  V30 3265 H 300.64 1.56811 0.953027 0
M  V30 3266 H 299.022 1.69994 3.57656 0
M  V30 3267 H 300.196 4.12264 2.05851 0
M  V30 3268 H 298.511 3.65205 2.00036 0
M  V30 3269 H 301.108 2.70167 4.61426 0
M  V30 3270 H 301.451 1.09713 4.01583 0
M  V30 3271 H 301.984 2.51583 3.08141 0
M  V30 3272 H 298.723 5.46461 3.62023 0
M  V30 3273 H 298.243 3.98508 4.48276 0
M  V30 3274 H 299.922 4.57176 4.5782 0
M  V30 3275 N 300.054 -1.07777 1.14986 0
M  V30 3276 C 301.3 -1.80557 0.923422 0
M  V30 3277 C 301.633 -1.86298 -0.548337 0
M  V30 3278 O 300.908 -1.34354 -1.40639 0
M  V30 3279 C 301.191 -3.25839 1.53299 0
M  V30 3280 C 301.044 -3.28269 3.07505 0
M  V30 3281 C 302.363 -4.22991 1.21518 0
M  V30 3282 H 299.482 -0.655493 0.336894 0
M  V30 3283 H 302.124 -1.26144 1.42083 0
M  V30 3284 H 300.274 -3.72306 1.10999 0
M  V30 3285 H 301.946 -2.90079 3.58681 0
M  V30 3286 H 300.189 -2.67355 3.4162 0
M  V30 3287 H 300.86 -4.30691 3.45266 0
M  V30 3288 H 303.336 -3.84894 1.581 0
M  V30 3289 H 302.212 -5.22945 1.66793 0
M  V30 3290 H 302.473 -4.41904 0.131505 0
M  V30 3291 N 301.532 -0.945985 -1.26051 0
M  V30 3292 C 302.495 -0.463897 -2.24456 0
M  V30 3293 C 303.495 0.427655 -1.55009 0
M  V30 3294 O 304.685 0.226157 -1.72726 0
M  V30 3295 C 301.817 0.330812 -3.39291 0
M  V30 3296 H 303.01 -1.33357 -2.68619 0
M  V30 3297 H 300.563 -0.728416 -1.38289 0
M  V30 3298 H 301.298 1.21852 -3.00537 0
M  V30 3299 H 301.083 -0.308679 -3.90883 0
M  V30 3300 H 302.573 0.657865 -4.12386 0
M  V30 3301 N 303.011 1.40521 -0.713556 0
M  V30 3302 C 304.257 2.01221 -0.252564 0
M  V30 3303 C 304.59 1.56444 1.1506 0
M  V30 3304 O 303.865 0.783597 1.78017 0
M  V30 3305 C 304.148 3.58582 -0.330332 0
M  V30 3306 C 304.001 4.13437 -1.77173 0
M  V30 3307 C 305.32 4.39079 0.299641 0
M  V30 3308 H 302.439 0.731077 -0.0932471 0
M  V30 3309 H 305.081 1.67026 -0.905673 0
M  V30 3310 H 303.231 3.87844 0.225737 0
M  V30 3311 H 304.903 3.9498 -2.38303 0
M  V30 3312 H 303.146 3.67801 -2.3001 0
M  V30 3313 H 303.817 5.22597 -1.77755 0
M  V30 3314 H 306.293 4.15735 -0.174139 0
M  V30 3315 H 305.169 5.4848 0.214771 0
M  V30 3316 H 305.43 4.19915 1.38288 0
M  V30 3317 N 304.489 0.459591 1.5075 0
M  V30 3318 C 305.735 -0.0994966 2.02556 0
M  V30 3319 C 306.068 -1.40399 1.3417 0
M  V30 3320 O 305.343 -1.88892 0.463683 0
M  V30 3321 C 305.626 -0.295242 3.58888 0
M  V30 3322 C 305.479 1.02947 4.37861 0
M  V30 3323 C 306.798 -1.05502 4.27267 0
M  V30 3324 H 303.917 -0.034686 0.736183 0
M  V30 3325 H 306.559 0.602938 1.8018 0
M  V30 3326 H 304.709 -0.893563 3.78084 0
M  V30 3327 H 306.381 1.66348 4.30263 0
M  V30 3328 H 304.624 1.62885 4.02058 0
M  V30 3329 H 305.295 0.846281 5.45474 0
M  V30 3330 H 307.771 -0.547993 4.12476 0
M  V30 3331 H 306.647 -1.16077 5.36486 0
M  V30 3332 H 306.908 -2.08875 3.89645 0
M  V30 3333 N 305.967 -1.56429 0.191757 0
M  V30 3334 C 306.915 -2.20273 -0.747174 0
M  V30 3335 C 307.909 -1.17288 -1.22229 0
M  V30 3336 O 309.115 -1.35441 -1.18557 0
M  V30 3337 H 305.49 -0.705885 -0.259289 0
M  V30 3338 H 307.461 -2.97826 -0.184963 0
M  V30 3339 C 306.21 -2.87356 -1.95759 0
M  V30 3340 H 305.533 -3.66341 -1.60106 0
M  V30 3341 H 306.973 -3.3547 -2.59299 0
M  V30 3342 C 305.432 -1.88213 -2.79423 0
M  V30 3343 O 305.962 -1.38033 -3.7724 0
M  V30 3344 N 304.168 -1.56516 -2.44849 0
M  V30 3345 H 303.715 -1.97516 -1.65364 0
M  V30 3346 H 303.673 -0.904369 -3.01112 0
M  V30 3347 N 307.445 0.0818655 -1.57387 0
M  V30 3348 C 308.722 0.815343 -1.77796 0
M  V30 3349 C 309.102 1.96289 -0.77679 0
M  V30 3350 O 308.45 2.27691 0.192106 0
M  V30 3351 C 308.66 1.29765 -3.23978 0
M  V30 3352 C 310.008 1.7351 -3.8753 0
M  V30 3353 O 311.032 1.39356 -3.27808 0
M  V30 3354 O 309.891 2.36708 -4.92576 0
M  V30 3355 H 306.985 0.389914 -0.729312 0
M  V30 3356 H 309.531 0.0627213 -1.69584 0
M  V30 3357 H 308.303 0.47608 -3.88393 0
M  V30 3358 H 307.926 2.11189 -3.36875 0
M  V30 3359 N 308.923 1.53595 0.353017 0
M  V30 3360 C 310.151 1.74311 1.1146 0
M  V30 3361 C 310.566 0.477854 1.82653 0
M  V30 3362 O 309.923 -0.549977 1.74016 0
M  V30 3363 C 309.974 2.91694 2.13534 0
M  V30 3364 O 309.695 4.13325 1.45238 0
M  V30 3365 C 311.196 3.24384 3.02142 0
M  V30 3366 H 308.416 0.582669 0.332773 0
M  V30 3367 H 310.96 2.00386 0.408107 0
M  V30 3368 H 309.115 2.67977 2.79763 0
M  V30 3369 H 309.529 4.79148 2.13349 0
M  V30 3370 H 311.003 4.09893 3.69718 0
M  V30 3371 H 311.48 2.40282 3.67643 0
M  V30 3372 H 312.086 3.50073 2.41514 0
M  V30 3373 N 310.401 -0.613514 1.45168 0
M  V30 3374 C 311.647 -1.37471 1.49096 0
M  V30 3375 C 311.98 -1.93765 0.129901 0
M  V30 3376 O 311.255 -1.74707 -0.854858 0
M  V30 3377 C 311.538 -2.52701 2.56542 0
M  V30 3378 C 311.391 -2.01643 4.0207 0
M  V30 3379 C 312.71 -3.54849 2.60327 0
M  V30 3380 H 309.829 -0.498502 0.54283 0
M  V30 3381 H 312.471 -0.692125 1.76945 0
M  V30 3382 H 310.621 -3.10931 2.32926 0
M  V30 3383 H 312.293 -1.48108 4.36877 0
M  V30 3384 H 310.536 -1.32688 4.13009 0
M  V30 3385 H 311.207 -2.84681 4.72928 0
M  V30 3386 H 313.683 -3.0645 2.81474 0
M  V30 3387 H 312.559 -4.32973 3.37381 0
M  V30 3388 H 312.82 -4.10079 1.6519 0
M  V30 3389 N 311.879 -1.3236 -0.855495 0
M  V30 3390 C 313.127 -1.22629 -1.60644 0
M  V30 3391 C 313.448 0.212136 -1.93843 0
M  V30 3392 O 312.718 1.13666 -1.59552 0
M  V30 3393 H 311.298 -0.450882 -0.595579 0
M  V30 3394 H 313.96 -1.65871 -1.02337 0
M  V30 3395 H 313.056 -1.80832 -2.54374 0
M  V30 3396 N 313.357 1.07166 -1.15556 0
M  V30 3397 C 314.585 1.83514 -0.955519 0
M  V30 3398 C 315 1.82163 0.49621 0
M  V30 3399 O 314.357 1.23441 1.34419 0
M  V30 3400 C 314.408 3.30515 -1.46432 0
M  V30 3401 O 314.129 3.31937 -2.85918 0
M  V30 3402 C 315.63 4.23625 -1.30603 0
M  V30 3403 H 312.85 0.578926 -0.339244 0
M  V30 3404 H 315.394 1.35265 -1.53374 0
M  V30 3405 H 313.549 3.76106 -0.928584 0
M  V30 3406 H 313.963 4.23794 -3.09029 0
M  V30 3407 H 315.437 5.24831 -1.71047 0
M  V30 3408 H 315.914 4.38485 -0.250441 0
M  V30 3409 H 316.52 3.83871 -1.83094 0
M  V30 3410 N 314.835 0.952656 1.25548 0
M  V30 3411 C 315.768 0.415525 2.24385 0
M  V30 3412 C 316.746 -0.502046 1.54655 0
M  V30 3413 O 317.93 -0.436875 1.83368 0
M  V30 3414 C 315.057 -0.401734 3.36309 0
M  V30 3415 C 314.103 0.455949 4.24056 0
M  V30 3416 S 314.936 1.88698 5.01152 0
M  V30 3417 C 316.092 1.07809 6.16545 0
M  V30 3418 H 316.325 1.25315 2.69599 0
M  V30 3419 H 313.858 0.756587 1.34592 0
M  V30 3420 H 315.816 -0.867329 4.01233 0
M  V30 3421 H 314.477 -1.21416 2.89684 0
M  V30 3422 H 313.67 -0.170776 5.03711 0
M  V30 3423 H 313.272 0.856675 3.64056 0
M  V30 3424 H 315.564 0.325816 6.76716 0
M  V30 3425 H 316.507 1.84849 6.83547 0
M  V30 3426 H 316.915 0.60909 5.61204 0
M  V30 3427 N 316.313 -1.40141 0.720998 0
M  V30 3428 C 317.246 -2.2819 0.020916 0
M  V30 3429 C 318.224 -1.43633 -0.762129 0
M  V30 3430 O 319.408 -1.7304 -0.747633 0
M  V30 3431 C 316.535 -3.24281 -0.977715 0
M  V30 3432 C 315.581 -4.25548 -0.284836 0
M  V30 3433 S 316.414 -5.26247 0.991169 0
M  V30 3434 C 317.57 -6.259 -0.0052214 0
M  V30 3435 H 317.803 -2.87218 0.767649 0
M  V30 3436 H 315.336 -1.45656 0.512233 0
M  V30 3437 H 317.294 -3.80167 -1.54865 0
M  V30 3438 H 315.955 -2.643 -1.69719 0
M  V30 3439 H 315.148 -4.93154 -1.03996 0
M  V30 3440 H 314.75 -3.73389 0.213684 0
M  V30 3441 H 317.042 -6.72143 -0.850279 0
M  V30 3442 H 317.985 -7.05224 0.637599 0
M  V30 3443 H 318.393 -5.63277 -0.371366 0
M  V30 3444 N 317.792 -0.46758 -1.50504 0
M  V30 3445 C 319.02 0.0864133 -2.06719 0
M  V30 3446 C 319.435 1.33819 -1.33184 0
M  V30 3447 O 318.792 1.78061 -0.400083 0
M  V30 3448 C 318.843 0.378079 -3.59517 0
M  V30 3449 O 318.564 -0.824044 -4.3028 0
M  V30 3450 C 320.065 0.979426 -4.32345 0
M  V30 3451 H 317.285 -0.00551697 -0.670977 0
M  V30 3452 H 319.829 -0.655354 -1.93715 0
M  V30 3453 H 317.984 1.06977 -3.72337 0
M  V30 3454 H 318.398 -0.566518 -5.21432 0
M  V30 3455 H 319.872 1.1333 -5.40241 0
M  V30 3456 H 320.349 1.9686 -3.9261 0
M  V30 3457 H 320.955 0.326216 -4.24047 0
M  V30 3458 N 319.27 1.56325 -0.20005 0
M  V30 3459 C 320.51 1.99619 0.439519 0
M  V30 3460 C 320.874 1.08423 1.58456 0
M  V30 3461 O 322.075 1.40973 2.28867 0
M  V30 3462 C 320.346 3.46314 0.883258 0
M  V30 3463 S 321.905 4.11634 1.51997 0
M  V30 3464 H 318.723 0.697007 0.140363 0
M  V30 3465 H 321.325 1.93118 -0.304282 0
M  V30 3466 H 320.029 4.10381 0.0398967 0
M  V30 3467 H 319.56 3.56643 1.6604 0
M  V30 3468 H 321.575 4.09049 2.8088 0
M  V30 3469 N 320.748 -0.0735177 1.57428 0
M  V30 3470 C 321.996 -0.771472 1.86796 0
M  V30 3471 C 322.317 -1.78201 0.791804 0
M  V30 3472 O 321.587 -1.95074 -0.179718 0
M  V30 3473 H 320.167 -0.28791 0.689287 0
M  V30 3474 H 322.829 -0.0500161 1.94836 0
M  V30 3475 H 321.925 -1.28874 2.8425 0
M  V30 3476 N 322.226 -1.5378 -0.344866 0
M  V30 3477 C 323.456 -1.74646 -1.10374 0
M  V30 3478 C 323.864 -0.48491 -1.8288 0
M  V30 3479 O 323.207 0.553062 -1.75177 0
M  V30 3480 C 323.269 -2.87145 -2.16306 0
M  V30 3481 C 322.933 -4.26795 -1.63386 0
M  V30 3482 C 323.93 -5.08412 -1.08688 0
M  V30 3483 C 321.615 -4.73276 -1.68272 0
M  V30 3484 C 323.609 -6.34609 -0.595792 0
M  V30 3485 C 321.296 -5.99446 -1.18776 0
M  V30 3486 C 322.294 -6.79946 -0.645215 0
M  V30 3487 O 321.982 -8.03745 -0.157626 0
M  V30 3488 H 321.714 -0.587112 -0.335075 0
M  V30 3489 H 324.268 -2.01403 -0.403252 0
M  V30 3490 H 322.498 -2.55909 -2.89909 0
M  V30 3491 H 324.187 -2.95992 -2.77747 0
M  V30 3492 H 324.953 -4.73666 -1.04236 0
M  V30 3493 H 320.832 -4.10677 -2.09442 0
M  V30 3494 H 324.376 -6.97389 -0.171654 0
M  V30 3495 H 320.273 -6.33687 -1.22928 0
M  V30 3496 H 321.041 -8.18038 -0.275037 0
M  V30 3497 N 323.704 0.605807 -1.45491 0
M  V30 3498 C 324.981 1.36522 -1.40075 0
M  V30 3499 C 325.361 2.10976 -0.0722744 0
M  V30 3500 O 324.709 2.08007 0.945808 0
M  V30 3501 C 324.919 2.31056 -2.61561 0
M  V30 3502 C 326.267 2.93608 -3.06724 0
M  V30 3503 O 327.291 2.41376 -2.61946 0
M  V30 3504 O 326.15 3.88421 -3.84437 0
M  V30 3505 H 323.244 0.612248 -0.555951 0
M  V30 3506 H 325.79 0.628747 -1.57623 0
M  V30 3507 H 324.562 1.75311 -3.49831 0
M  V30 3508 H 324.185 3.12081 -2.46356 0
M  V30 3509 N 325.182 1.32811 0.848464 0
M  V30 3510 C 326.459 1.14334 1.58704 0
M  V30 3511 C 326.839 -0.293948 2.09043 0
M  V30 3512 O 326.187 -1.29153 1.88499 0
M  V30 3513 C 326.397 2.17626 2.72837 0
M  V30 3514 C 327.745 2.51282 3.42261 0
M  V30 3515 O 328.769 2.16219 2.83068 0
M  V30 3516 O 327.628 3.11413 4.49093 0
M  V30 3517 H 324.722 0.441601 0.699226 0
M  V30 3518 H 327.268 1.44362 0.892053 0
M  V30 3519 H 326.04 3.14211 2.3321 0
M  V30 3520 H 325.663 1.88628 3.50008 0
M  V30 3521 N 326.66 -1.06551 1.16123 0
M  V30 3522 C 327.592 -2.13908 0.823171 0
M  V30 3523 C 328.605 -1.61926 -0.16843 0
M  V30 3524 O 329.794 -1.78412 0.055962 0
M  V30 3525 C 326.894 -3.38283 0.204424 0
M  V30 3526 C 326.067 -4.19589 1.23548 0
M  V30 3527 C 325.126 -5.2233 0.637011 0
M  V30 3528 O 324.152 -5.54034 1.30516 0
M  V30 3529 N 325.354 -5.77621 -0.577474 0
M  V30 3530 H 328.119 -2.43508 1.74711 0
M  V30 3531 H 325.68 -1.2253 1.05821 0
M  V30 3532 H 327.672 -4.0416 -0.208909 0
M  V30 3533 H 326.242 -3.06329 -0.623012 0
M  V30 3534 H 325.462 -3.49406 1.82507 0
M  V30 3535 H 326.75 -4.70718 1.93137 0
M  V30 3536 H 326.148 -5.54125 -1.13853 0
M  V30 3537 H 324.705 -6.45087 -0.933053 0
M  V30 3538 N 328.138 -0.959301 -1.25041 0
M  V30 3539 C 329.088 -0.453888 -2.23436 0
M  V30 3540 C 330.072 0.459461 -1.542 0
M  V30 3541 O 331.264 0.291752 -1.74579 0
M  V30 3542 C 328.393 0.262667 -3.42294 0
M  V30 3543 C 327.479 -0.669022 -4.1879 0
M  V30 3544 N 327.87 -1.80267 -4.72586 0
M  V30 3545 C 326.168 -0.47814 -4.4343 0
M  V30 3546 C 326.869 -2.38475 -5.3057 0
M  V30 3547 N 325.845 -1.67078 -5.17287 0
M  V30 3548 H 329.647 -1.319 -2.6264 0
M  V30 3549 H 327.161 -0.817358 -1.40332 0
M  V30 3550 H 329.158 0.641911 -4.11929 0
M  V30 3551 H 327.818 1.12432 -3.04613 0
M  V30 3552 H 328.829 -2.18442 -4.69578 0
M  V30 3553 H 325.506 0.340249 -4.16111 0
M  V30 3554 H 326.896 -3.34094 -5.8295 0
M  V30 3555 N 329.616 1.39756 -0.72842 0
M  V30 3556 C 330.856 2.025 -0.278078 0
M  V30 3557 C 331.22 1.5654 1.11173 0
M  V30 3558 O 332.421 2.11435 1.65978 0
M  V30 3559 C 330.692 3.55489 -0.369139 0
M  V30 3560 S 332.251 4.388 0.00232983 0
M  V30 3561 H 329.069 0.702534 -0.109391 0
M  V30 3562 H 331.671 1.70672 -0.95348 0
M  V30 3563 H 330.375 3.86429 -1.38204 0
M  V30 3564 H 329.906 3.92061 0.324308 0
M  V30 3565 H 331.921 4.80954 1.22055 0
M  V30 3566 N 331.094 0.475555 1.50254 0
M  V30 3567 C 332.004 -0.321501 2.32387 0
M  V30 3568 C 333.02 -0.991755 1.42969 0
M  V30 3569 O 334.196 -0.978747 1.76018 0
M  V30 3570 C 331.261 -1.38667 3.17762 0
M  V30 3571 C 330.322 -0.732538 4.23004 0
M  V30 3572 C 329.555 -1.74695 5.04299 0
M  V30 3573 O 329.778 -2.97399 4.86734 0
M  V30 3574 O 328.712 -1.31631 5.8733 0
M  V30 3575 H 332.538 0.350071 3.01676 0
M  V30 3576 H 330.123 0.237321 1.47503 0
M  V30 3577 H 332.005 -2.00354 3.70724 0
M  V30 3578 H 330.68 -2.04163 2.51196 0
M  V30 3579 H 329.587 -0.0765902 3.74022 0
M  V30 3580 H 330.92 -0.120452 4.92053 0
M  V30 3581 N 332.573 -1.56217 0.208337 0
M  V30 3582 C 333.819 -1.98242 -0.427552 0
M  V30 3583 C 334.152 -1.09554 -1.60348 0
M  V30 3584 O 333.427 -0.15035 -1.93918 0
M  V30 3585 C 333.71 -3.4931 -0.874907 0
M  V30 3586 C 333.563 -4.48773 0.303751 0
M  V30 3587 C 334.882 -4.04424 -1.73577 0
M  V30 3588 H 332.001 -0.720744 -0.153936 0
M  V30 3589 H 334.643 -1.87586 0.30192 0
M  V30 3590 H 332.793 -3.58522 -1.49648 0
M  V30 3591 H 334.465 -4.51586 0.941682 0
M  V30 3592 H 332.708 -4.23194 0.953375 0
M  V30 3593 H 333.379 -5.51976 -0.0519883 0
M  V30 3594 H 335.855 -3.98075 -1.21143 0
M  V30 3595 H 334.731 -5.1047 -2.01771 0
M  V30 3596 H 334.992 -3.50494 -2.69456 0
M  V30 3597 N 334.051 0.0651679 -1.57465 0
M  V30 3598 C 335.299 0.761555 -1.87202 0
M  V30 3599 C 335.62 1.77778 -0.801243 0
M  V30 3600 O 334.89 1.95166 0.16937 0
M  V30 3601 H 333.47 0.284251 -0.690804 0
M  V30 3602 H 336.132 0.0396827 -1.9486 0
M  V30 3603 H 335.228 1.27365 -2.84929 0
M  V30 3604 N 335.529 1.53961 0.336706 0
M  V30 3605 C 336.459 1.85417 1.41925 0
M  V30 3606 C 337.44 0.709856 1.5458 0
M  V30 3607 O 338.625 0.962396 1.68676 0
M  V30 3608 C 335.755 2.06985 2.78881 0
M  V30 3609 C 334.709 3.22813 2.81026 0
M  V30 3610 C 334.035 3.29727 4.20932 0
M  V30 3611 C 335.335 4.60767 2.45949 0
M  V30 3612 H 337.029 2.76079 1.15848 0
M  V30 3613 H 334.575 1.32839 0.555859 0
M  V30 3614 H 336.528 2.27575 3.54665 0
M  V30 3615 H 335.252 1.13061 3.06406 0
M  V30 3616 H 333.911 3.0209 2.07695 0
M  V30 3617 H 333.559 2.33385 4.45579 0
M  V30 3618 H 333.259 4.07566 4.23277 0
M  V30 3619 H 334.783 3.52536 4.98549 0
M  V30 3620 H 336.197 4.81325 3.11446 0
M  V30 3621 H 334.594 5.4106 2.59566 0
M  V30 3622 H 335.664 4.6391 1.41122 0
M  V30 3623 N 337.007 -0.598083 1.45811 0
M  V30 3624 C 338.256 -1.35295 1.49594 0
M  V30 3625 C 338.569 -1.95057 0.145679 0
M  V30 3626 O 339.775 -2.71431 0.0612099 0
M  V30 3627 C 338.231 -2.45124 2.63519 0
M  V30 3628 C 337.839 -1.91732 4.04899 0
M  V30 3629 C 339.583 -3.2205 2.76558 0
M  V30 3630 C 337.49 -2.991 5.1019 0
M  V30 3631 H 336.42 -0.508552 0.556679 0
M  V30 3632 H 339.071 -0.639977 1.71978 0
M  V30 3633 H 337.453 -3.19149 2.34435 0
M  V30 3634 H 338.627 -1.24352 4.43704 0
M  V30 3635 H 336.942 -1.27522 3.96393 0
M  V30 3636 H 339.539 -4.0215 3.52391 0
M  V30 3637 H 339.882 -3.73663 1.83526 0
M  V30 3638 H 340.415 -2.55127 3.05213 0
M  V30 3639 H 337.154 -2.52393 6.04961 0
M  V30 3640 H 336.674 -3.65017 4.75944 0
M  V30 3641 H 338.353 -3.63318 5.35359 0
M  V30 3642 N 338.485 -1.33259 -0.841409 0
M  V30 3643 C 339.734 -1.23921 -1.59143 0
M  V30 3644 C 340.047 0.1941 -1.94635 0
M  V30 3645 O 341.253 0.409474 -2.68394 0
M  V30 3646 C 339.709 -2.17119 -2.87032 0
M  V30 3647 C 339.317 -3.65606 -2.58914 0
M  V30 3648 C 341.061 -2.16648 -3.65053 0
M  V30 3649 C 338.968 -4.50726 -3.82884 0
M  V30 3650 H 337.898 -0.460264 -0.597221 0
M  V30 3651 H 340.549 -1.58307 -0.927959 0
M  V30 3652 H 338.931 -1.75663 -3.54906 0
M  V30 3653 H 340.105 -4.15487 -1.99267 0
M  V30 3654 H 338.42 -3.68341 -1.942 0
M  V30 3655 H 341.017 -2.77474 -4.57069 0
M  V30 3656 H 341.36 -1.16088 -3.99787 0
M  V30 3657 H 341.893 -2.56453 -3.041 0
M  V30 3658 H 338.632 -5.52151 -3.53283 0
M  V30 3659 H 338.152 -4.0559 -4.41879 0
M  V30 3660 H 339.831 -4.64401 -4.50489 0
M  V30 3661 N 339.963 1.05934 -1.16686 0
M  V30 3662 C 341.211 1.78447 -0.948744 0
M  V30 3663 C 341.532 1.87813 0.524523 0
M  V30 3664 O 340.802 1.38945 1.38098 0
M  V30 3665 H 339.382 0.660971 -0.348033 0
M  V30 3666 H 342.044 1.27947 -1.47022 0
M  V30 3667 H 341.14 2.80394 -1.37061 0
M  V30 3668 N 341.441 0.965919 1.2453 0
M  V30 3669 C 342.669 0.644385 1.96609 0
M  V30 3670 C 343.084 -0.785823 1.71669 0
M  V30 3671 O 342.441 -1.52703 0.999399 0
M  V30 3672 C 342.492 0.907375 3.49927 0
M  V30 3673 O 342.213 2.28136 3.74013 0
M  V30 3674 C 343.714 0.599784 4.39224 0
M  V30 3675 H 340.934 0.240588 0.626385 0
M  V30 3676 H 343.478 1.29337 1.58405 0
M  V30 3677 H 341.633 0.304631 3.862 0
M  V30 3678 H 342.047 2.36002 4.68405 0
M  V30 3679 H 343.521 0.834263 5.45659 0
M  V30 3680 H 343.998 -0.465921 4.36722 0
M  V30 3681 H 344.604 1.18235 4.08535 0
M  V30 3682 N 342.919 -1.39368 0.735821 0
M  V30 3683 C 344.167 -2.00101 0.283562 0
M  V30 3684 C 344.488 -1.5868 -1.13338 0
M  V30 3685 O 343.758 -0.835423 -1.77193 0
M  V30 3686 H 342.338 -0.740024 0.101851 0
M  V30 3687 H 345 -1.70404 0.945962 0
M  V30 3688 H 344.096 -3.10323 0.332604 0
M  V30 3689 N 344.397 -0.483516 -1.5 0
M  V30 3690 C 345.625 0.0644831 -2.06799 0
M  V30 3691 C 346.04 1.32399 -1.34596 0
M  V30 3692 O 345.397 1.77626 -0.418946 0
M  V30 3693 C 345.448 0.339927 -3.59898 0
M  V30 3694 O 345.169 -0.869635 -4.29382 0
M  V30 3695 C 346.67 0.933515 -4.33359 0
M  V30 3696 H 343.89 -0.0126333 -0.670881 0
M  V30 3697 H 346.434 -0.675864 -1.93009 0
M  V30 3698 H 344.589 1.03022 -3.7345 0
M  V30 3699 H 345.003 -0.62179 -5.20801 0
M  V30 3700 H 346.477 1.07593 -5.41413 0
M  V30 3701 H 346.954 1.92685 -3.94676 0
M  V30 3702 H 347.56 0.281221 -4.24369 0
M  V30 3703 N 345.875 1.56104 -0.216619 0
M  V30 3704 C 346.823 2.21434 0.712036 0
M  V30 3705 C 347.817 1.19218 1.20348 0
M  V30 3706 O 349.023 1.3731 1.16387 0
M  V30 3707 H 345.398 0.70992 0.248026 0
M  V30 3708 H 347.369 2.98083 0.137558 0
M  V30 3709 C 346.118 2.90434 1.91163 0
M  V30 3710 H 345.441 3.68842 1.54258 0
M  V30 3711 H 346.881 3.39552 2.5393 0
M  V30 3712 C 345.34 1.92635 2.76394 0
M  V30 3713 O 345.87 1.44017 3.74996 0
M  V30 3714 N 344.076 1.60392 2.42328 0
M  V30 3715 H 343.623 2.00122 1.622 0
M  V30 3716 H 343.581 0.952159 2.99635 0
M  V30 3717 N 347.353 -0.0568162 1.57498 0
M  V30 3718 C 348.316 -1.05038 2.03715 0
M  V30 3719 C 349.316 -1.30709 0.936577 0
M  V30 3720 O 350.506 -1.26178 1.20103 0
M  V30 3721 C 347.638 -2.39034 2.43055 0
M  V30 3722 H 348.831 -0.651715 2.92733 0
M  V30 3723 H 346.384 -0.302947 1.53336 0
M  V30 3724 H 347.119 -2.83703 1.57108 0
M  V30 3725 H 346.904 -2.21739 3.2338 0
M  V30 3726 H 348.394 -3.10421 2.79336 0
M  V30 3727 N 348.832 -1.54138 -0.328536 0
M  V30 3728 C 350.072 -1.73827 -1.07534 0
M  V30 3729 C 350.436 -0.498777 -1.85408 0
M  V30 3730 O 351.637 -0.572937 -2.62623 0
M  V30 3731 C 349.908 -2.97573 -1.97952 0
M  V30 3732 S 351.467 -3.38143 -2.79652 0
M  V30 3733 H 348.285 -0.611287 -0.36311 0
M  V30 3734 H 350.887 -1.92306 -0.351931 0
M  V30 3735 H 349.591 -3.85939 -1.39569 0
M  V30 3736 H 349.122 -2.81603 -2.74706 0
M  V30 3737 H 351.137 -2.93052 -4.00418 0
M  V30 3738 N 350.31 0.590341 -1.46126 0
M  V30 3739 C 351.54 1.37304 -1.54373 0
M  V30 3740 C 351.948 1.88332 -0.181071 0
M  V30 3741 O 351.291 1.63852 0.830559 0
M  V30 3742 C 351.353 2.6012 -2.48149 0
M  V30 3743 C 351.017 2.30613 -3.94546 0
M  V30 3744 C 352.014 1.89915 -4.83971 0
M  V30 3745 C 349.699 2.42993 -4.39613 0
M  V30 3746 C 351.693 1.61981 -6.16475 0
M  V30 3747 C 349.38 2.14672 -5.72153 0
M  V30 3748 C 350.378 1.7423 -6.60404 0
M  V30 3749 O 350.066 1.46251 -7.90485 0
M  V30 3750 H 349.798 0.426086 -0.524811 0
M  V30 3751 H 352.352 0.72539 -1.92165 0
M  V30 3752 H 350.582 3.27664 -2.05361 0
M  V30 3753 H 352.271 3.22182 -2.46887 0
M  V30 3754 H 353.037 1.79872 -4.50412 0
M  V30 3755 H 348.916 2.73435 -3.71153 0
M  V30 3756 H 352.46 1.30341 -6.85315 0
M  V30 3757 H 348.357 2.24337 -6.05263 0
M  V30 3758 H 349.125 1.6016 -8.02677 0
M  V30 3759 N 351.788 1.33704 0.83433 0
M  V30 3760 C 352.721 1.18675 1.94914 0
M  V30 3761 C 353.699 0.0811145 1.62398 0
M  V30 3762 O 354.883 0.244186 1.86912 0
M  V30 3763 C 352.01 0.821231 3.28593 0
M  V30 3764 C 351.056 1.93501 3.80079 0
M  V30 3765 S 351.889 3.54671 4.01209 0
M  V30 3766 C 353.045 3.20136 5.37833 0
M  V30 3767 H 353.278 2.13043 2.07364 0
M  V30 3768 H 350.811 1.18598 0.988624 0
M  V30 3769 H 352.769 0.617123 4.05835 0
M  V30 3770 H 351.43 -0.103927 3.13928 0
M  V30 3771 H 350.623 1.63273 4.76821 0
M  V30 3772 H 350.225 2.09601 3.09747 0
M  V30 3773 H 352.517 2.71242 6.20833 0
M  V30 3774 H 353.46 4.15975 5.73036 0
M  V30 3775 H 353.868 2.56613 5.02802 0
M  V30 3776 N 353.266 -1.05314 1.17247 0
M  V30 3777 C 354.176 -2.16538 0.90268 0
M  V30 3778 C 355.192 -1.73523 -0.128707 0
M  V30 3779 O 356.368 -2.01337 0.0502701 0
M  V30 3780 C 353.433 -3.44167 0.418356 0
M  V30 3781 C 352.494 -4.01635 1.51618 0
M  V30 3782 C 351.727 -5.23171 1.05487 0
M  V30 3783 O 351.95 -5.70327 -0.0914715 0
M  V30 3784 O 350.884 -5.72848 1.8474 0
M  V30 3785 H 354.71 -2.42145 1.83302 0
M  V30 3786 H 352.295 -1.15037 0.953246 0
M  V30 3787 H 354.177 -4.21112 0.155726 0
M  V30 3788 H 352.852 -3.20063 -0.48385 0
M  V30 3789 H 351.759 -3.26135 1.83268 0
M  V30 3790 H 353.092 -4.30053 2.39405 0
M  V30 3791 N 354.744 -0.972509 -1.24016 0
M  V30 3792 C 355.654 -0.5143 -2.28893 0
M  V30 3793 C 356.67 0.427078 -1.68677 0
M  V30 3794 O 357.846 0.298939 -1.99169 0
M  V30 3795 C 354.911 0.183598 -3.46214 0
M  V30 3796 C 353.972 -0.798202 -4.21814 0
M  V30 3797 C 353.205 -0.133514 -5.33533 0
M  V30 3798 O 353.428 1.07714 -5.60137 0
M  V30 3799 O 352.362 -0.828103 -5.96176 0
M  V30 3800 H 356.188 -1.38629 -2.70214 0
M  V30 3801 H 353.773 -0.739769 -1.29799 0
M  V30 3802 H 355.655 0.575433 -4.17453 0
M  V30 3803 H 354.33 1.03048 -3.0686 0
M  V30 3804 H 353.237 -1.24059 -3.52931 0
M  V30 3805 H 354.57 -1.61364 -4.64997 0
M  V30 3806 N 356.222 1.38976 -0.743202 0
M  V30 3807 C 357.152 2.33171 -0.123873 0
M  V30 3808 C 358.133 1.54336 0.71516 0
M  V30 3809 O 359.318 1.82696 0.658467 0
M  V30 3810 C 356.448 3.38474 0.777978 0
M  V30 3811 C 355.402 4.27979 0.0424758 0
M  V30 3812 C 354.728 5.2405 1.06189 0
M  V30 3813 C 356.028 5.10155 -1.1198 0
M  V30 3814 H 357.722 2.85213 -0.910709 0
M  V30 3815 H 355.268 1.37133 -0.439388 0
M  V30 3816 H 357.221 4.03328 1.22084 0
M  V30 3817 H 355.945 2.84891 1.59702 0
M  V30 3818 H 354.604 3.64616 -0.380853 0
M  V30 3819 H 354.252 4.66758 1.87472 0
M  V30 3820 H 353.952 5.84785 0.574485 0
M  V30 3821 H 355.476 5.9178 1.50428 0
M  V30 3822 H 356.89 5.68307 -0.75499 0
M  V30 3823 H 355.287 5.80073 -1.53738 0
M  V30 3824 H 356.357 4.44504 -1.93764 0
M  V30 3825 N 357.7 0.491464 1.49741 0
M  V30 3826 C 359.116 0.146835 1.58923 0
M  V30 3827 C 359.316 -1.34804 1.49767 0
M  V30 3828 O 358.372 -2.12317 1.36667 0
M  V30 3829 C 359.685 0.715157 2.92072 0
M  V30 3830 C 361.233 0.680407 3.05515 0
M  V30 3831 C 361.708 1.22663 4.41269 0
M  V30 3832 N 363.199 1.18691 4.47735 0
M  V30 3833 C 363.934 1.57984 5.51207 0
M  V30 3834 N 363.43 2.04824 6.6183 0
M  V30 3835 N 365.223 1.49459 5.41866 0
M  V30 3836 H 357.374 1.46347 1.53936 0
M  V30 3837 H 359.637 0.606453 0.728642 0
M  V30 3838 H 359.343 1.76317 3.04311 0
M  V30 3839 H 359.217 0.17018 3.76816 0
M  V30 3840 H 361.604 -0.358743 2.92911 0
M  V30 3841 H 361.685 1.26242 2.22478 0
M  V30 3842 H 361.329 2.26451 4.54623 0
M  V30 3843 H 361.259 0.620637 5.2293 0
M  V30 3844 H 363.75 0.843605 3.68364 0
M  V30 3845 H 364.063 2.32901 7.3687 0
M  V30 3846 H 362.408 2.08791 6.62896 0
M  V30 3847 H 365.599 1.12692 4.54333 0
M  V30 3848 H 365.772 1.80406 6.22381 0
M  V30 3849 N 359.178 -1.55987 0.224894 0
M  V30 3850 C 360.128 -2.17076 -0.697296 0
M  V30 3851 C 361.112 -1.12006 -1.15514 0
M  V30 3852 O 362.304 -1.37985 -1.10857 0
M  V30 3853 C 359.433 -2.85679 -1.90374 0
M  V30 3854 C 358.519 -3.97977 -1.46543 0
M  V30 3855 N 358.91 -5.00359 -0.739909 0
M  V30 3856 C 357.208 -4.10128 -1.75245 0
M  V30 3857 C 357.909 -5.79407 -0.515939 0
M  V30 3858 N 356.885 -5.32892 -1.07364 0
M  V30 3859 H 360.687 -2.93592 -0.134594 0
M  V30 3860 H 358.201 -1.62379 0.0262885 0
M  V30 3861 H 360.198 -3.27857 -2.57518 0
M  V30 3862 H 358.858 -2.1066 -2.47088 0
M  V30 3863 H 359.869 -5.16412 -0.392253 0
M  V30 3864 H 356.546 -3.46263 -2.33255 0
M  V30 3865 H 357.936 -6.71872 0.0617349 0
M  V30 3866 N 360.656 0.0484629 -1.57525 0
M  V30 3867 C 361.905 0.742065 -1.87553 0
M  V30 3868 C 362.218 1.77545 -0.820802 0
M  V30 3869 O 363.424 2.52027 -1.00967 0
M  V30 3870 C 361.88 1.37081 -3.32771 0
M  V30 3871 C 361.488 0.374786 -4.4643 0
M  V30 3872 C 363.232 2.04542 -3.71972 0
M  V30 3873 C 361.139 1.01077 -5.82698 0
M  V30 3874 H 360.069 0.280903 -0.699721 0
M  V30 3875 H 362.72 -0.00411877 -1.835 0
M  V30 3876 H 361.102 2.16605 -3.31509 0
M  V30 3877 H 362.276 -0.392331 -4.59127 0
M  V30 3878 H 360.591 -0.196653 -4.15935 0
M  V30 3879 H 363.188 2.52943 -4.71088 0
M  V30 3880 H 363.531 2.85515 -3.02964 0
M  V30 3881 H 364.064 1.31819 -3.75325 0
M  V30 3882 H 360.803 0.240878 -6.55057 0
M  V30 3883 H 360.323 1.74819 -5.73758 0
M  V30 3884 H 362.002 1.52383 -6.28799 0
M  V30 3885 N 362.134 1.5431 0.320358 0
M  V30 3886 C 363.411 1.63322 1.07635 0
M  V30 3887 C 363.791 0.46912 2.05821 0
M  V30 3888 O 363.139 -0.536274 2.22118 0
M  V30 3889 C 363.349 3.00465 1.77544 0
M  V30 3890 C 364.697 3.56621 2.30449 0
M  V30 3891 O 365.721 3.02791 1.87606 0
M  V30 3892 O 364.58 4.5083 3.08892 0
M  V30 3893 H 361.674 0.661502 0.496331 0
M  V30 3894 H 364.22 1.66656 0.319992 0
M  V30 3895 H 362.992 3.76629 1.06143 0
M  V30 3896 H 362.615 3.00824 2.59982 0
M  V30 3897 N 363.613 -0.582584 1.46437 0
M  V30 3898 C 364.543 -1.70187 1.59871 0
M  V30 3899 C 365.524 -1.64066 0.449042 0
M  V30 3900 O 366.709 -1.82081 0.6753 0
M  V30 3901 C 363.839 -3.08827 1.58881 0
M  V30 3902 C 362.793 -3.29779 2.72819 0
M  V30 3903 C 362.119 -4.68947 2.5689 0
M  V30 3904 C 363.419 -3.17601 4.1464 0
M  V30 3905 H 365.113 -1.592 2.53566 0
M  V30 3906 H 362.659 -0.764472 1.22032 0
M  V30 3907 H 364.612 -3.86951 1.66873 0
M  V30 3908 H 363.336 -3.20713 0.617306 0
M  V30 3909 H 361.995 -2.54054 2.64296 0
M  V30 3910 H 361.643 -4.77599 1.57823 0
M  V30 3911 H 361.343 -4.83919 3.33312 0
M  V30 3912 H 362.867 -5.4924 2.66773 0
M  V30 3913 H 364.281 -3.8557 4.24274 0
M  V30 3914 H 362.678 -3.44094 4.9165 0
M  V30 3915 H 363.748 -2.14681 4.34788 0
M  V30 3916 N 365.091 -1.34144 -0.827227 0
M  V30 3917 C 366.337 -1.26446 -1.58554 0
M  V30 3918 C 366.67 0.1664 -1.93486 0
M  V30 3919 O 365.945 1.1107 -1.59667 0
M  V30 3920 C 366.228 -2.15111 -2.8879 0
M  V30 3921 C 366.081 -3.66712 -2.60465 0
M  V30 3922 C 367.4 -2.03311 -3.90324 0
M  V30 3923 H 364.519 -0.46067 -0.575284 0
M  V30 3924 H 367.161 -1.64356 -0.953269 0
M  V30 3925 H 365.311 -1.8291 -3.42748 0
M  V30 3926 H 366.983 -4.09259 -2.1285 0
M  V30 3927 H 365.226 -3.88014 -1.93978 0
M  V30 3928 H 365.897 -4.24112 -3.53317 0
M  V30 3929 H 368.373 -2.31574 -3.45706 0
M  V30 3930 H 367.249 -2.67582 -4.79261 0
M  V30 3931 H 367.51 -1.00879 -4.30437 0
M  V30 3932 N 366.569 1.04691 -1.17803 0
M  V30 3933 C 367.479 2.16057 -0.914151 0
M  V30 3934 C 368.495 1.73589 0.119503 0
M  V30 3935 O 369.671 2.01308 -0.0609468 0
M  V30 3936 C 366.736 3.4394 -0.436603 0
M  V30 3937 C 365.797 4.00825 -1.53746 0
M  V30 3938 C 365.03 5.22604 -1.0826 0
M  V30 3939 O 365.253 5.70367 0.0612244 0
M  V30 3940 O 364.187 5.7186 -1.87775 0
M  V30 3941 H 368.013 2.41169 -1.84584 0
M  V30 3942 H 365.598 1.1453 -0.959334 0
M  V30 3943 H 367.48 4.21024 -0.178057 0
M  V30 3944 H 366.155 3.20316 0.466869 0
M  V30 3945 H 365.062 3.25158 -1.84995 0
M  V30 3946 H 366.395 4.28778 -2.41683 0
M  V30 3947 N 368.047 0.979072 1.23499 0
M  V30 3948 C 369.295 0.645941 1.91499 0
M  V30 3949 C 369.616 -0.822948 1.76784 0
M  V30 3950 O 368.886 -1.58854 1.14639 0
M  V30 3951 H 367.466 0.235919 0.708767 0
M  V30 3952 H 370.128 1.2426 1.50152 0
M  V30 3953 H 369.224 0.896411 2.9895 0
M  V30 3954 N 369.525 -1.3858 0.750561 0
M  V30 3955 C 370.802 -1.94231 0.231009 0
M  V30 3956 C 371.182 -1.68611 -1.27018 0
M  V30 3957 O 370.53 -1.02296 -2.04323 0
M  V30 3958 C 370.74 -3.44123 0.581428 0
M  V30 3959 C 372.088 -4.2116 0.539389 0
M  V30 3960 O 373.112 -3.52391 0.519541 0
M  V30 3961 O 371.971 -5.43749 0.54765 0
M  V30 3962 H 369.065 -0.825639 0.0474263 0
M  V30 3963 H 371.611 -1.4799 0.830478 0
M  V30 3964 H 370.383 -3.56267 1.61833 0
M  V30 3965 H 370.006 -3.97573 -0.0462047 0
M  V30 3966 N 371.003 -0.499398 -1.49478 0
M  V30 3967 C 371.913 0.284489 -2.32869 0
M  V30 3968 C 372.929 0.968885 -1.44529 0
M  V30 3969 O 374.105 0.95062 -1.77553 0
M  V30 3970 C 371.17 1.33594 -3.19928 0
M  V30 3971 C 370.231 0.665149 -4.24116 0
M  V30 3972 C 369.464 1.6665 -5.07014 0
M  V30 3973 O 369.687 2.89618 -4.91404 0
M  V30 3974 O 368.621 1.22271 -5.8935 0
M  V30 3975 H 372.447 -0.39802 -3.01081 0
M  V30 3976 H 370.032 -0.260758 -1.47107 0
M  V30 3977 H 371.914 1.94431 -3.73864 0
M  V30 3978 H 370.589 2.0014 -2.54412 0
M  V30 3979 H 369.496 0.0170769 -3.74096 0
M  V30 3980 H 370.829 0.0421555 -4.92182 0
M  V30 3981 N 372.481 1.55866 -0.233164 0
M  V30 3982 C 373.729 1.9821 0.394593 0
M  V30 3983 C 374.05 1.12234 1.59463 0
M  V30 3984 O 373.32 0.201981 1.94856 0
M  V30 3985 H 371.9 0.732034 0.148778 0
M  V30 3986 H 374.562 1.92107 -0.32876 0
M  V30 3987 H 373.658 3.03845 0.713063 0
M  V30 3988 N 373.959 -0.0401083 1.57549 0
M  V30 3989 C 375.375 -0.395556 1.54621 0
M  V30 3990 C 375.575 -1.77281 0.957799 0
M  V30 3991 O 374.631 -2.45888 0.574031 0
M  V30 3992 C 375.944 -0.307535 2.99123 0
M  V30 3993 C 377.492 -0.385425 3.10618 0
M  V30 3994 C 377.967 -0.326973 4.56831 0
M  V30 3995 N 379.458 -0.386102 4.61588 0
M  V30 3996 C 380.193 -0.363591 5.72246 0
M  V30 3997 N 379.689 -0.29402 6.92176 0
M  V30 3998 N 381.482 -0.412503 5.60584 0
M  V30 3999 H 373.633 0.861325 1.94152 0
M  V30 4000 H 375.896 0.326445 0.890021 0
M  V30 4001 H 375.602 0.638461 3.45856 0
M  V30 4002 H 375.476 -1.10552 3.60636 0
M  V30 4003 H 377.863 -1.32185 2.63839 0
M  V30 4004 H 377.944 0.44171 2.51957 0
M  V30 4005 H 377.588 0.605738 5.04275 0
M  V30 4006 H 377.518 -1.17207 5.13391 0
M  V30 4007 H 380.009 -0.442832 3.75296 0
M  V30 4008 H 380.322 -0.28164 7.72287 0
M  V30 4009 H 378.667 -0.260232 6.94513 0
M  V30 4010 H 381.858 -0.464769 4.65787 0
M  V30 4011 H 382.031 -0.391492 6.46816 0
M  V30 4012 N 375.437 -1.54477 -0.31217 0
M  V30 4013 C 376.37 -1.79519 -1.40884 0
M  V30 4014 C 377.348 -0.645753 -1.49227 0
M  V30 4015 O 378.532 -0.884468 -1.66461 0
M  V30 4016 C 375.659 -1.92194 -2.78889 0
M  V30 4017 C 374.705 -3.14555 -2.88023 0
M  V30 4018 S 375.538 -4.72893 -2.51262 0
M  V30 4019 C 376.694 -4.8849 -3.91317 0
M  V30 4020 H 376.927 -2.72256 -1.19432 0
M  V30 4021 H 374.46 -1.45746 -0.509654 0
M  V30 4022 H 376.418 -2.00182 -3.58382 0
M  V30 4023 H 375.079 -1.00414 -2.97617 0
M  V30 4024 H 374.272 -3.20193 -3.89221 0
M  V30 4025 H 373.874 -3.04955 -2.16514 0
M  V30 4026 H 376.166 -4.71826 -4.86196 0
M  V30 4027 H 377.109 -5.90588 -3.90656 0
M  V30 4028 H 377.517 -4.16715 -3.80801 0
M  V30 4029 N 376.915 0.57481 -1.46744 0
M  V30 4030 C 378.155 1.34369 -1.54027 0
M  V30 4031 C 378.519 1.91051 -0.190642 0
M  V30 4032 O 379.72 2.68444 -0.138255 0
M  V30 4033 C 377.991 2.43706 -2.61423 0
M  V30 4034 S 379.55 3.30915 -2.88167 0
M  V30 4035 H 376.368 0.45768 -0.544105 0
M  V30 4036 H 378.97 0.659959 -1.84024 0
M  V30 4037 H 377.674 2.0047 -3.58106 0
M  V30 4038 H 377.205 3.16842 -2.33184 0
M  V30 4039 H 379.22 4.42742 -2.24039 0
M  V30 4040 N 378.394 1.34581 0.820102 0
M  V30 4041 C 379.643 1.26437 1.57151 0
M  V30 4042 C 379.956 -0.163111 1.94919 0
M  V30 4043 O 381.162 -0.366722 2.69012 0
M  V30 4044 C 379.618 2.21658 2.83541 0
M  V30 4045 C 379.226 3.69679 2.53065 0
M  V30 4046 C 380.97 2.22428 3.61561 0
M  V30 4047 C 378.877 4.56761 3.75664 0
M  V30 4048 H 377.807 0.469707 0.589823 0
M  V30 4049 H 380.458 1.59763 0.902656 0
M  V30 4050 H 378.84 1.81287 3.52067 0
M  V30 4051 H 380.014 4.18605 1.92631 0
M  V30 4052 H 378.329 3.71384 1.88316 0
M  V30 4053 H 380.926 2.8471 4.52597 0
M  V30 4054 H 381.269 1.22434 3.97889 0
M  V30 4055 H 381.802 2.61259 2.99981 0
M  V30 4056 H 378.541 5.57702 3.44454 0
M  V30 4057 H 378.061 4.12568 4.35371 0
M  V30 4058 H 379.74 4.71509 4.43044 0
M  V30 4059 N 379.872 -1.04064 1.18357 0
M  V30 4060 C 380.82 -2.14187 0.907007 0
M  V30 4061 C 381.814 -1.68879 -0.132725 0
M  V30 4062 O 383.02 -1.79993 0.0154248 0
M  V30 4063 H 379.395 -0.699585 0.275835 0
M  V30 4064 H 381.366 -2.34711 1.84264 0
M  V30 4065 C 380.115 -3.44785 0.449254 0
M  V30 4066 H 379.438 -3.80058 1.24081 0
M  V30 4067 H 380.878 -4.22974 0.294737 0
M  V30 4068 C 379.337 -3.26391 -0.834909 0
M  V30 4069 O 379.867 -3.53973 -1.89911 0
M  V30 4070 N 378.073 -2.79726 -0.787523 0
M  V30 4071 H 377.62 -2.5748 0.0787347 0
M  V30 4072 H 377.578 -2.67798 -1.64716 0
M  V30 4073 N 381.35 -0.985608 -1.22978 0
M  V30 4074 C 382.578 -0.675582 -1.95559 0
M  V30 4075 C 382.993 0.758413 -1.72897 0
M  V30 4076 O 382.35 1.51094 -1.02357 0
M  V30 4077 C 382.401 -0.96293 -3.48439 0
M  V30 4078 O 382.122 -2.34057 -3.70336 0
M  V30 4079 C 383.623 -0.669585 -4.38214 0
M  V30 4080 H 380.843 -0.250523 -0.622478 0
M  V30 4081 H 383.387 -1.3184 -1.56328 0
M  V30 4082 H 381.542 -0.366033 -3.85667 0
M  V30 4083 H 381.956 -2.43424 -4.64591 0
M  V30 4084 H 383.43 -0.920967 -5.44263 0
M  V30 4085 H 383.907 0.396383 -4.37408 0
M  V30 4086 H 384.513 -1.2472 -4.06602 0
M  V30 4087 N 382.828 1.3818 -0.7579 0
M  V30 4088 C 383.738 2.3421 -0.135247 0
M  V30 4089 C 384.754 1.59487 0.695683 0
M  V30 4090 O 385.93 1.91657 0.618832 0
M  V30 4091 C 382.995 3.3862 0.744139 0
M  V30 4092 C 382.056 4.2918 -0.101658 0
M  V30 4093 C 381.289 5.28603 0.735851 0
M  V30 4094 O 381.512 5.35166 1.97366 0
M  V30 4095 O 380.446 6.01707 0.152372 0
M  V30 4096 H 384.272 2.8916 -0.928436 0
M  V30 4097 H 381.857 1.40101 -0.518855 0
M  V30 4098 H 383.739 4.02539 1.2466 0
M  V30 4099 H 382.414 2.86019 1.51575 0
M  V30 4100 H 381.321 3.68407 -0.650167 0
M  V30 4101 H 382.654 4.85048 -0.836024 0
M  V30 4102 N 384.306 0.507319 1.49211 0
M  V30 4103 C 385.552 -0.0269732 2.03382 0
M  V30 4104 C 385.907 -1.34111 1.37957 0
M  V30 4105 O 385.2 -1.84733 0.508351 0
M  V30 4106 C 385.394 -0.229513 3.56662 0
M  V30 4107 C 385.223 1.06344 4.36945 0
M  V30 4108 C 383.993 1.617 4.78729 0
M  V30 4109 C 386.191 1.96833 4.75143 0
M  V30 4110 N 384.173 2.8552 5.43463 0
M  V30 4111 C 385.544 3.0523 5.39661 0
M  V30 4112 C 387.599 1.97434 4.57082 0
M  V30 4113 C 386.302 4.14265 5.88028 0
M  V30 4114 C 388.328 3.05448 5.06414 0
M  V30 4115 C 387.69 4.12564 5.70938 0
M  V30 4116 H 383.789 0.0310673 0.781383 0
M  V30 4117 H 386.373 0.683579 1.82305 0
M  V30 4118 H 384.544 -0.909127 3.7761 0
M  V30 4119 H 386.276 -0.761377 3.97473 0
M  V30 4120 H 383.031 1.16132 4.59141 0
M  V30 4121 H 383.455 3.48499 5.80412 0
M  V30 4122 H 388.097 1.15924 4.06597 0
M  V30 4123 H 385.815 4.96569 6.3753 0
M  V30 4124 H 389.401 3.06941 4.94246 0
M  V30 4125 H 388.281 4.94767 6.0842 0
M  V30 4126 N 385.784 -1.5574 0.241426 0
M  V30 4127 C 387.032 -1.98417 -0.384075 0
M  V30 4128 C 387.353 -1.13078 -1.58866 0
M  V30 4129 O 386.623 -0.212312 -1.94746 0
M  V30 4130 H 385.203 -0.732813 -0.144894 0
M  V30 4131 H 387.865 -1.9193 0.338943 0
M  V30 4132 H 386.961 -3.04219 -0.696939 0
M  V30 4133 N 387.262 0.0317525 -1.57568 0
M  V30 4134 C 388.225 1.01783 -2.0536 0
M  V30 4135 C 389.225 1.29203 -0.957253 0
M  V30 4136 O 390.415 1.24251 -1.22095 0
M  V30 4137 C 387.547 2.35137 -2.46827 0
M  V30 4138 H 388.74 0.605062 -2.93733 0
M  V30 4139 H 386.293 0.278514 -1.53799 0
M  V30 4140 H 387.028 2.81168 -1.61602 0
M  V30 4141 H 386.813 2.16566 -3.26866 0
M  V30 4142 H 388.303 3.05938 -2.84239 0
M  V30 4143 N 388.74 1.54641 0.303973 0
M  V30 4144 C 389.987 1.7378 1.03955 0
M  V30 4145 C 390.315 0.521986 1.87365 0
M  V30 4146 O 389.57 -0.496099 1.89308 0
M  V30 4147 C 389.869 2.97753 1.97681 0
M  V30 4148 C 389.535 4.31671 1.30271 0
M  V30 4149 C 388.197 4.68075 1.11619 0
M  V30 4150 C 390.549 5.147 0.82055 0
M  V30 4151 C 387.877 5.8509 0.434304 0
M  V30 4152 C 390.229 6.32416 0.152395 0
M  V30 4153 C 388.893 6.67484 -0.0461067 0
M  V30 4154 H 388.163 0.635908 0.380398 0
M  V30 4155 H 390.81 1.88896 0.314718 0
M  V30 4156 H 389.115 2.77406 2.76682 0
M  V30 4157 H 390.812 3.09756 2.54661 0
M  V30 4158 H 387.402 4.03041 1.45795 0
M  V30 4159 H 391.586 4.87077 0.952374 0
M  V30 4160 H 386.842 6.10806 0.269495 0
M  V30 4161 H 391.016 6.96023 -0.229126 0
M  V30 4162 H 388.643 7.58011 -0.576494 0
M  V30 4163 N 390.218 -0.567019 1.47046 0
M  V30 4164 C 391.466 -1.322 1.52864 0
M  V30 4165 C 391.787 -1.94088 0.188388 0
M  V30 4166 O 391.057 -1.7941 -0.786693 0
M  V30 4167 H 389.637 -0.490894 0.563056 0
M  V30 4168 H 392.299 -0.662879 1.83281 0
M  V30 4169 H 391.395 -2.12062 2.2899 0
M  V30 4170 N 391.696 -1.35014 -0.812953 0
M  V30 4171 C 392.973 -1.18502 -1.55617 0
M  V30 4172 C 393.353 0.238421 -2.09749 0
M  V30 4173 O 392.701 1.2411 -1.91857 0
M  V30 4174 C 392.911 -2.24783 -2.66971 0
M  V30 4175 C 394.259 -2.60268 -3.35478 0
M  V30 4176 O 395.283 -2.23648 -2.77236 0
M  V30 4177 O 394.142 -3.2321 -4.40678 0
M  V30 4178 H 391.236 -0.459984 -0.687272 0
M  V30 4179 H 393.782 -1.46677 -0.853464 0
M  V30 4180 H 392.554 -3.20284 -2.24798 0
M  V30 4181 H 392.177 -1.97841 -3.44884 0
M  V30 4182 N 393.175 1.03435 -1.18907 0
M  V30 4183 C 394.452 1.73778 -0.89781 0
M  V30 4184 C 394.832 2.02458 0.597832 0
M  V30 4185 O 394.18 1.67482 1.55441 0
M  V30 4186 C 394.39 3.01845 -1.75187 0
M  V30 4187 C 395.738 3.7546 -1.9828 0
M  V30 4188 O 396.762 3.11759 -1.72293 0
M  V30 4189 O 395.621 4.89966 -2.42065 0
M  V30 4190 H 392.715 0.75651 -0.334098 0
M  V30 4191 H 395.261 1.09444 -1.29693 0
M  V30 4192 H 394.033 2.76836 -2.76545 0
M  V30 4193 H 393.656 3.73919 -1.35167 0
M  V30 4194 N 394.653 0.992116 1.22453 0
M  V30 4195 C 395.901 0.666215 1.90804 0
M  V30 4196 C 396.222 -0.804152 1.77647 0
M  V30 4197 O 395.492 -1.57629 1.16318 0
M  V30 4198 H 394.072 0.243423 0.706225 0
M  V30 4199 H 396.734 1.25845 1.48825 0
M  V30 4200 H 395.83 0.928069 2.97982 0
M  V30 4201 N 396.131 -1.37776 0.765217 0
M  V30 4202 C 397.356 -2.04651 0.336537 0
M  V30 4203 C 397.781 -1.57337 -1.03086 0
M  V30 4204 O 397.139 -0.730621 -1.65927 0
M  V30 4205 C 397.187 -3.58577 0.381468 0
M  V30 4206 O 396.291 -4.07706 -0.62042 0
M  V30 4207 H 395.632 -0.64756 0.146838 0
M  V30 4208 H 398.162 -1.76221 1.03959 0
M  V30 4209 H 398.172 -4.07314 0.236448 0
M  V30 4210 H 396.847 -3.9237 1.37907 0
M  V30 4211 H 395.424 -3.70306 -0.439056 0
M  V30 4212 N 397.609 -0.515225 -1.4894 0
M  V30 4213 C 398.539 0.244628 -2.32215 0
M  V30 4214 C 399.52 0.949136 -1.41157 0
M  V30 4215 O 400.705 0.937783 -1.70057 0
M  V30 4216 C 397.835 1.30096 -3.22013 0
M  V30 4217 C 396.789 0.715486 -4.21977 0
M  V30 4218 C 396.115 1.87339 -5.00808 0
M  V30 4219 C 397.415 -0.302982 -5.2142 0
M  V30 4220 H 399.109 -0.450501 -2.95991 0
M  V30 4221 H 396.655 -0.218098 -1.42339 0
M  V30 4222 H 398.608 1.84037 -3.79089 0
M  V30 4223 H 397.332 2.02547 -2.56207 0
M  V30 4224 H 395.991 0.197715 -3.66066 0
M  V30 4225 H 395.639 2.58592 -4.31438 0
M  V30 4226 H 395.339 1.48764 -5.68457 0
M  V30 4227 H 396.863 2.41686 -5.60732 0
M  V30 4228 H 398.277 0.148802 -5.73107 0
M  V30 4229 H 396.674 -0.60532 -5.97039 0
M  V30 4230 H 397.744 -1.21395 -4.69459 0
M  V30 4231 N 399.087 1.5561 -0.249682 0
M  V30 4232 C 399.997 2.25143 0.659375 0
M  V30 4233 C 401.013 1.2685 1.19101 0
M  V30 4234 O 402.189 1.59732 1.22669 0
M  V30 4235 C 399.254 2.93945 1.8384 0
M  V30 4236 C 398.315 4.07655 1.34596 0
M  V30 4237 C 397.548 4.73167 2.46878 0
M  V30 4238 O 397.771 4.37768 3.65671 0
M  V30 4239 O 396.705 5.61623 2.16478 0
M  V30 4240 H 400.531 3.03545 0.0968698 0
M  V30 4241 H 398.116 1.49389 -0.018074 0
M  V30 4242 H 399.998 3.37271 2.52638 0
M  V30 4243 H 398.673 2.18481 2.38847 0
M  V30 4244 H 397.58 3.68839 0.625174 0
M  V30 4245 H 398.913 4.84946 0.841941 0
M  V30 4246 N 400.565 -0.0233959 1.57583 0
M  V30 4247 C 401.842 -0.748794 1.807 0
M  V30 4248 C 402.222 -1.9327 0.849106 0
M  V30 4249 O 401.57 -2.28247 -0.107468 0
M  V30 4250 C 401.78 -1.17651 3.28571 0
M  V30 4251 C 403.128 -1.59008 3.93702 0
M  V30 4252 O 404.152 -1.27094 3.32755 0
M  V30 4253 O 403.011 -2.18264 5.01022 0
M  V30 4254 H 400.105 -0.362578 0.743281 0
M  V30 4255 H 402.651 0.000261958 1.697 0
M  V30 4256 H 401.423 -0.331603 3.89892 0
M  V30 4257 H 401.046 -1.98541 3.44481 0
M  V30 4258 N 402.043 -1.548 -0.295768 0
M  V30 4259 C 403.292 -1.73538 -1.02798 0
M  V30 4260 C 403.605 -0.531159 -1.8825 0
M  V30 4261 O 404.811 -0.600458 -2.64777 0
M  V30 4262 C 403.267 -3.07051 -1.87744 0
M  V30 4263 C 402.875 -4.34968 -1.07269 0
M  V30 4264 C 404.619 -3.35146 -2.60533 0
M  V30 4265 C 402.526 -5.5953 -1.91521 0
M  V30 4266 H 401.456 -0.646794 -0.387522 0
M  V30 4267 H 404.107 -1.81278 -0.284718 0
M  V30 4268 H 402.489 -2.93289 -2.66078 0
M  V30 4269 H 403.663 -4.5958 -0.335117 0
M  V30 4270 H 401.978 -4.13847 -0.460384 0
M  V30 4271 H 404.575 -4.2541 -3.23929 0
M  V30 4272 H 404.918 -2.54255 -3.29636 0
M  V30 4273 H 405.451 -3.49902 -1.89244 0
M  V30 4274 H 402.19 -6.43103 -1.26878 0
M  V30 4275 H 401.71 -5.39096 -2.62937 0
M  V30 4276 H 403.389 -5.96982 -2.49442 0
M  V30 4277 N 403.521 0.559213 -1.47345 0
M  V30 4278 C 404.937 0.884943 -1.32819 0
M  V30 4279 C 405.137 1.98988 -0.317173 0
M  V30 4280 O 404.193 2.51031 0.272011 0
M  V30 4281 C 405.506 1.28007 -2.72093 0
M  V30 4282 C 407.054 1.39161 -2.80363 0
M  V30 4283 C 407.529 1.82031 -4.20272 0
M  V30 4284 N 409.02 1.89185 -4.22804 0
M  V30 4285 C 409.755 2.2368 -5.27973 0
M  V30 4286 N 409.251 2.56802 -6.43447 0
M  V30 4287 N 411.044 2.24436 -5.15349 0
M  V30 4288 H 403.195 -0.170304 -2.11716 0
M  V30 4289 H 405.458 -0.0135247 -0.947904 0
M  V30 4290 H 405.164 0.542027 -3.47498 0
M  V30 4291 H 405.038 2.23665 -3.03733 0
M  V30 4292 H 407.425 2.12048 -2.05231 0
M  V30 4293 H 407.506 0.41696 -2.52379 0
M  V30 4294 H 407.15 1.09715 -4.95908 0
M  V30 4295 H 407.08 2.80495 -4.45679 0
M  V30 4296 H 409.571 1.65982 -3.39497 0
M  V30 4297 H 409.884 2.82144 -7.19454 0
M  V30 4298 H 408.229 2.54387 -6.46771 0
M  V30 4299 H 411.42 1.97998 -4.24163 0
M  V30 4300 H 411.593 2.50989 -5.97418 0
M  V30 4301 N 404.999 1.35443 0.805782 0
M  V30 4302 C 406.227 1.31878 1.59423 0
M  V30 4303 C 406.642 -0.103562 1.88516 0
M  V30 4304 O 405.999 -1.05575 1.48863 0
M  V30 4305 C 406.05 2.12426 2.92502 0
M  V30 4306 O 405.771 3.49115 2.6467 0
M  V30 4307 C 407.272 2.16455 3.86862 0
M  V30 4308 H 404.492 0.453002 0.495005 0
M  V30 4309 H 407.036 1.78309 1.00131 0
M  V30 4310 H 405.191 1.69593 3.48306 0
M  V30 4311 H 405.605 3.90957 3.49647 0
M  V30 4312 H 407.079 2.77204 4.77349 0
M  V30 4313 H 407.556 1.16352 4.23508 0
M  V30 4314 H 408.162 2.59453 3.36993 0
M  V30 4315 N 406.477 -1.02803 1.19454 0
M  V30 4316 C 407.387 -2.14575 0.948408 0
M  V30 4317 C 408.403 -1.73757 -0.091871 0
M  V30 4318 O 409.579 -2.01185 0.0929654 0
M  V30 4319 C 406.644 -3.43202 0.491265 0
M  V30 4320 C 405.705 -3.98328 1.60103 0
M  V30 4321 C 404.938 -5.20816 1.16561 0
M  V30 4322 O 405.161 -5.70392 0.0295238 0
M  V30 4323 O 404.095 -5.68801 1.96849 0
M  V30 4324 H 407.921 -2.38202 1.88397 0
M  V30 4325 H 405.506 -1.12989 0.977433 0
M  V30 4326 H 407.388 -4.20687 0.245015 0
M  V30 4327 H 406.063 -3.21018 -0.415851 0
M  V30 4328 H 404.97 -3.22174 1.90144 0
M  V30 4329 H 406.303 -4.24879 2.48473 0
M  V30 4330 N 407.956 -0.998596 -1.21925 0
M  V30 4331 C 409.203 -0.677663 -1.90824 0
M  V30 4332 C 409.531 0.790905 -1.77693 0
M  V30 4333 O 408.786 1.58817 -1.14349 0
M  V30 4334 C 409.085 -1.03648 -3.42041 0
M  V30 4335 C 408.751 -2.49825 -3.75364 0
M  V30 4336 C 407.413 -2.8977 -3.8417 0
M  V30 4337 C 409.765 -3.44545 -3.91073 0
M  V30 4338 C 407.093 -4.23412 -4.06127 0
M  V30 4339 C 409.445 -4.77853 -4.14535 0
M  V30 4340 C 408.109 -5.17531 -4.21566 0
M  V30 4341 H 407.379 -0.247975 -0.698276 0
M  V30 4342 H 410.026 -1.25584 -1.44571 0
M  V30 4343 H 408.331 -0.376457 -3.89987 0
M  V30 4344 H 410.028 -0.766113 -3.93614 0
M  V30 4345 H 406.618 -2.17866 -3.69097 0
M  V30 4346 H 410.802 -3.14853 -3.83642 0
M  V30 4347 H 406.058 -4.53734 -4.09799 0
M  V30 4348 H 410.232 -5.51189 -4.25633 0
M  V30 4349 H 407.859 -6.21102 -4.38333 0
M  V30 4350 N 409.434 1.37368 -0.772513 0
M  V30 4351 C 410.711 1.93839 -0.26188 0
M  V30 4352 C 411.091 1.7061 1.24319 0
M  V30 4353 O 410.439 1.05534 2.02669 0
M  V30 4354 C 410.649 3.43154 -0.636102 0
M  V30 4355 C 411.997 4.20249 -0.606324 0
M  V30 4356 O 413.021 3.5152 -0.575538 0
M  V30 4357 O 411.88 5.42809 -0.634086 0
M  V30 4358 H 408.974 0.82478 -0.0605555 0
M  V30 4359 H 411.52 1.4665 -0.853917 0
M  V30 4360 H 410.292 3.53647 -1.6748 0
M  V30 4361 H 409.915 3.97596 -0.0170516 0
M  V30 4362 N 410.912 0.523116 1.48665 0
M  V30 4363 C 412.328 0.180511 1.58576 0
M  V30 4364 C 412.528 -1.31597 1.52592 0
M  V30 4365 O 411.584 -2.0937 1.4114 0
M  V30 4366 C 412.897 0.776949 2.90489 0
M  V30 4367 C 414.445 0.745058 3.04003 0
M  V30 4368 C 414.92 1.31995 4.38567 0
M  V30 4369 N 416.411 1.28162 4.45117 0
M  V30 4370 C 417.146 1.6964 5.47731 0
M  V30 4371 N 416.642 2.18816 6.57337 0
M  V30 4372 N 418.435 1.6092 5.38573 0
M  V30 4373 H 410.586 1.4958 1.50797 0
M  V30 4374 H 412.849 0.621772 0.715614 0
M  V30 4375 H 412.555 1.82732 3.00503 0
M  V30 4376 H 412.429 0.25007 3.7637 0
M  V30 4377 H 414.816 -0.296532 2.93606 0
M  V30 4378 H 414.897 1.30933 2.1975 0
M  V30 4379 H 414.541 2.36043 4.49718 0
M  V30 4380 H 414.471 0.731418 5.21496 0
M  V30 4381 H 416.962 0.92155 3.66491 0
M  V30 4382 H 417.275 2.48478 7.31764 0
M  V30 4383 H 415.62 2.22805 6.58318 0
M  V30 4384 H 418.811 1.22304 4.5184 0
M  V30 4385 H 418.984 1.93567 6.18414 0
M  V30 4386 N 412.39 -1.55475 0.257931 0
M  V30 4387 C 413.3 -2.2549 -0.647425 0
M  V30 4388 C 414.316 -1.2748 -1.18427 0
M  V30 4389 O 415.492 -1.6038 -1.2182 0
M  V30 4390 C 412.557 -2.94916 -1.82278 0
M  V30 4391 C 411.618 -4.08363 -1.32432 0
M  V30 4392 C 410.851 -4.74469 -2.44366 0
M  V30 4393 O 411.074 -4.39701 -3.63344 0
M  V30 4394 O 410.008 -5.62763 -2.13497 0
M  V30 4395 H 413.834 -3.03593 -0.0807707 0
M  V30 4396 H 411.419 -1.49377 0.0259962 0
M  V30 4397 H 413.301 -3.38606 -2.50846 0
M  V30 4398 H 411.976 -2.19744 -2.37685 0
M  V30 4399 H 410.883 -3.69166 -0.605605 0
M  V30 4400 H 412.216 -4.85385 -0.816211 0
M  V30 4401 N 413.868 0.0150385 -1.57593 0
M  V30 4402 C 415.117 0.702115 -1.89085 0
M  V30 4403 C 415.43 1.75764 -0.858277 0
M  V30 4404 O 416.636 2.49829 -1.0629 0
M  V30 4405 C 415.092 1.29992 -3.35604 0
M  V30 4406 C 414.7 0.280007 -4.47124 0
M  V30 4407 C 416.444 1.96606 -3.76227 0
M  V30 4408 C 414.351 0.886949 -5.84711 0
M  V30 4409 H 413.281 0.265997 -0.705522 0
M  V30 4410 H 415.932 -0.0430408 -1.8345 0
M  V30 4411 H 414.314 2.09525 -3.36029 0
M  V30 4412 H 415.488 -0.489631 -4.58191 0
M  V30 4413 H 413.803 -0.284835 -4.15425 0
M  V30 4414 H 416.4 2.42893 -4.76347 0
M  V30 4415 H 416.743 2.79024 -3.08952 0
M  V30 4416 H 417.276 1.23828 -3.78036 0
M  V30 4417 H 414.015 0.101876 -6.55421 0
M  V30 4418 H 413.535 1.6261 -5.77337 0
M  V30 4419 H 415.214 1.39011 -6.3189 0
M  V30 4420 N 415.346 1.54954 0.287554 0
M  V30 4421 C 416.623 1.65569 1.04146 0
M  V30 4422 C 417.003 0.512672 2.0478 0
M  V30 4423 O 416.351 -0.489038 2.23205 0
M  V30 4424 C 416.561 3.04163 1.71131 0
M  V30 4425 C 417.909 3.61429 2.22832 0
M  V30 4426 O 418.933 3.06702 1.81141 0
M  V30 4427 O 417.792 4.57281 2.9926 0
M  V30 4428 H 414.886 0.671881 0.482188 0
M  V30 4429 H 417.432 1.67297 0.28457 0
M  V30 4430 H 416.204 3.78796 0.981303 0
M  V30 4431 H 415.827 3.06271 2.53543 0
M  V30 4432 N 416.824 -0.551391 1.4764 0
M  V30 4433 C 418.24 -0.877887 1.33287 0
M  V30 4434 C 418.44 -1.98817 0.327721 0
M  V30 4435 O 417.496 -2.51171 -0.258695 0
M  V30 4436 C 418.809 -1.26563 2.72768 0
M  V30 4437 C 420.357 -1.37673 2.81097 0
M  V30 4438 C 420.832 -1.79799 4.21232 0
M  V30 4439 N 422.323 -1.8694 4.23802 0
M  V30 4440 C 423.058 -2.20876 5.29151 0
M  V30 4441 N 422.554 -2.53386 6.448 0
M  V30 4442 N 424.347 -2.217 5.16532 0
M  V30 4443 H 416.498 0.18153 2.11623 0
M  V30 4444 H 418.761 0.0185514 0.947818 0
M  V30 4445 H 418.467 -0.523591 3.47781 0
M  V30 4446 H 418.341 -2.22052 3.04915 0
M  V30 4447 H 420.728 -2.10956 2.06353 0
M  V30 4448 H 420.809 -0.40357 2.52596 0
M  V30 4449 H 420.453 -1.07083 4.96483 0
M  V30 4450 H 420.383 -2.78128 4.4716 0
M  V30 4451 H 422.874 -1.64179 3.40373 0
M  V30 4452 H 423.187 -2.78325 7.20941 0
M  V30 4453 H 421.532 -2.50953 6.48111 0
M  V30 4454 H 424.723 -1.95745 4.25207 0
M  V30 4455 H 424.896 -2.47818 5.98741 0
M  V30 4456 N 418.302 -1.35869 -0.798587 0
M  V30 4457 C 419.55 -1.29332 -1.55298 0
M  V30 4458 C 419.871 0.129729 -1.94568 0
M  V30 4459 O 419.141 1.06796 -1.6423 0
M  V30 4460 H 417.721 -0.475737 -0.57592 0
M  V30 4461 H 420.383 -1.70062 -0.952093 0
M  V30 4462 H 419.479 -1.91458 -2.46476 0
M  V30 4463 N 419.78 1.02168 -1.19998 0
M  V30 4464 C 421.005 1.79833 -1.03319 0
M  V30 4465 C 421.43 1.83504 0.413281 0
M  V30 4466 O 420.788 1.26635 1.29743 0
M  V30 4467 C 420.836 3.22396 -1.61533 0
M  V30 4468 O 419.94 4.03555 -0.849519 0
M  V30 4469 H 419.281 0.554872 -0.364709 0
M  V30 4470 H 421.811 1.28542 -1.59179 0
M  V30 4471 H 421.821 3.73124 -1.65054 0
M  V30 4472 H 420.496 3.19039 -2.66809 0
M  V30 4473 H 419.073 3.62169 -0.888129 0
M  V30 4474 N 421.258 1.00505 1.21394 0
M  V30 4475 C 422.188 0.585684 2.26035 0
M  V30 4476 C 423.169 -0.393525 1.65485 0
M  V30 4477 O 424.354 -0.281497 1.92149 0
M  V30 4478 C 421.484 -0.0884283 3.47187 0
M  V30 4479 C 420.438 0.810567 4.20254 0
M  V30 4480 C 419.764 0.00286382 5.347 0
M  V30 4481 C 421.064 2.1132 4.77641 0
M  V30 4482 H 422.758 1.46039 2.61368 0
M  V30 4483 H 420.304 0.703648 1.25638 0
M  V30 4484 H 422.257 -0.393286 4.19561 0
M  V30 4485 H 420.981 -0.997766 3.10986 0
M  V30 4486 H 419.64 1.09925 3.49731 0
M  V30 4487 H 419.288 -0.907765 4.94741 0
M  V30 4488 H 418.988 0.601444 5.84514 0
M  V30 4489 H 420.512 -0.295808 6.09883 0
M  V30 4490 H 421.926 1.87148 5.41893 0
M  V30 4491 H 420.323 2.66164 5.37845 0
M  V30 4492 H 421.393 2.78393 3.9702 0
M  V30 4493 N 422.737 -1.36956 0.779787 0
M  V30 4494 C 423.685 -2.32053 0.15942 0
M  V30 4495 C 424.679 -1.55333 -0.675878 0
M  V30 4496 O 425.885 -1.70668 -0.57204 0
M  V30 4497 H 422.26 -0.751286 0.0327707 0
M  V30 4498 H 424.231 -2.8195 0.977078 0
M  V30 4499 C 422.98 -3.40602 -0.698977 0
M  V30 4500 H 422.303 -3.99746 -0.0655966 0
M  V30 4501 H 423.743 -4.09486 -1.09989 0
M  V30 4502 C 422.202 -2.81359 -1.85307 0
M  V30 4503 O 422.732 -2.72751 -2.94906 0
M  V30 4504 N 420.938 -2.38786 -1.65619 0
M  V30 4505 H 420.485 -2.45987 -0.764725 0
M  V30 4506 H 420.443 -1.99493 -2.43002 0
M  V30 4507 N 424.215 -0.530993 -1.48385 0
M  V30 4508 C 425.626 -0.0907905 -1.86479 0
M  V30 4509 C 425.977 1.33213 -1.44044 0
M  V30 4510 O 425.102 1.99783 -0.831615 0
M  V30 4511 C 425.697 -0.157987 -3.38431 0
M  V30 4512 C 424.256 0.227026 -3.75715 0
M  V30 4513 C 423.403 -0.5173 -2.72432 0
M  V30 4514 H 426.354 -0.742186 -1.40276 0
M  V30 4515 H 426.375 0.630053 -3.75247 0
M  V30 4516 H 425.887 -1.19372 -3.69286 0
M  V30 4517 H 423.988 1.26486 -3.50474 0
M  V30 4518 H 424.101 -0.113288 -4.78966 0
M  V30 4519 H 422.465 0.0365527 -2.54674 0
M  V30 4520 H 423.248 -1.55368 -3.0613 0
M  V30 4521 N 425.693 1.55336 -0.266172 0
M  V30 4522 C 426.941 1.99003 0.35246 0
M  V30 4523 C 427.262 1.15591 1.57047 0
M  V30 4524 O 426.532 0.243268 1.94384 0
M  V30 4525 H 425.112 0.735025 0.133217 0
M  V30 4526 H 427.774 1.91367 -0.369434 0
M  V30 4527 H 426.87 3.05289 0.648453 0
M  V30 4528 N 427.171 -0.0066808 1.57599 0
M  V30 4529 C 428.118 -1.00024 2.08 0
M  V30 4530 C 429.088 -1.34549 0.973943 0
M  V30 4531 O 430.273 -1.44502 1.24595 0
M  V30 4532 C 427.413 -2.2891 2.58252 0
M  V30 4533 C 426.526 -2.00346 3.82734 0
M  V30 4534 C 425.661 -3.23265 4.21513 0
M  V30 4535 C 424.7 -2.90357 5.3885 0
M  V30 4536 N 423.837 -4.05793 5.72954 0
M  V30 4537 H 428.677 -0.563499 2.92624 0
M  V30 4538 H 426.214 -0.266592 1.44664 0
M  V30 4539 H 428.172 -3.04247 2.85464 0
M  V30 4540 H 426.802 -2.70265 1.76512 0
M  V30 4541 H 425.854 -1.15406 3.62471 0
M  V30 4542 H 427.166 -1.72086 4.68175 0
M  V30 4543 H 426.32 -4.06953 4.49971 0
M  V30 4544 H 425.059 -3.54657 3.34768 0
M  V30 4545 H 424.064 -2.05075 5.10122 0
M  V30 4546 H 425.289 -2.60219 6.27266 0
M  V30 4547 H 423.235 -4.37094 4.89167 0
M  V30 4548 H 423.152 -3.81034 6.52954 0
M  V30 4549 H 424.42 -4.90289 6.06001 0
M  V30 4550 N 428.649 -1.55105 -0.279332 0
M  V30 4551 C 429.581 -1.83952 -1.36727 0
M  V30 4552 C 430.594 -0.723642 -1.45833 0
M  V30 4553 O 431.783 -1.00141 -1.47763 0
M  V30 4554 C 428.883 -1.98183 -2.74912 0
M  V30 4555 C 428.056 -3.28787 -2.88475 0
M  V30 4556 C 427.115 -3.33162 -4.07295 0
M  V30 4557 O 426.141 -4.06576 -3.98353 0
M  V30 4558 N 427.343 -2.60109 -5.18964 0
M  V30 4559 H 430.108 -2.77853 -1.12328 0
M  V30 4560 H 427.669 -1.54945 -0.469442 0
M  V30 4561 H 429.661 -1.98488 -3.52682 0
M  V30 4562 H 428.231 -1.11177 -2.92162 0
M  V30 4563 H 427.451 -3.41075 -1.97641 0
M  V30 4564 H 428.739 -4.14933 -2.94463 0
M  V30 4565 H 428.137 -2.00136 -5.29115 0
M  V30 4566 H 426.694 -2.66143 -5.94988 0
M  V30 4567 N 430.127 0.543554 -1.4793 0
M  V30 4568 C 431.057 1.65888 -1.64327 0
M  V30 4569 C 432.038 1.62818 -0.492383 0
M  V30 4570 O 433.223 1.80226 -0.723338 0
M  V30 4571 C 430.353 3.04506 -1.67013 0
M  V30 4572 C 429.307 3.2243 -2.81466 0
M  V30 4573 C 428.633 4.61972 -2.69233 0
M  V30 4574 C 429.933 3.06496 -4.22915 0
M  V30 4575 H 431.627 1.52421 -2.57698 0
M  V30 4576 H 429.173 0.731849 -1.24016 0
M  V30 4577 H 431.126 3.82391 -1.77074 0
M  V30 4578 H 429.85 3.18964 -0.70212 0
M  V30 4579 H 428.509 2.46957 -2.70938 0
M  V30 4580 H 428.157 4.73247 -1.7043 0
M  V30 4581 H 427.857 4.74911 -3.46025 0
M  V30 4582 H 429.381 5.41974 -2.81242 0
M  V30 4583 H 430.795 3.74186 -4.34348 0
M  V30 4584 H 429.192 3.30938 -5.006 0
M  V30 4585 H 430.262 2.03077 -4.40327 0
M  V30 4586 N 431.605 1.3629 0.791371 0
M  V30 4587 C 432.852 1.30412 1.54916 0
M  V30 4588 C 433.18 -0.117162 1.94147 0
M  V30 4589 O 432.435 -1.08599 1.62803 0
M  V30 4590 C 432.734 2.17068 2.8393 0
M  V30 4591 C 432.4 3.65645 2.63846 0
M  V30 4592 C 431.062 4.0614 2.58077 0
M  V30 4593 C 433.414 4.59855 2.45322 0
M  V30 4594 C 430.742 5.3899 2.31748 0
M  V30 4595 C 433.094 5.9292 2.2052 0
M  V30 4596 C 431.758 6.32542 2.13183 0
M  V30 4597 H 431.028 0.47721 0.566879 0
M  V30 4598 H 433.675 1.68325 0.913172 0
M  V30 4599 H 431.98 1.72085 3.51986 0
M  V30 4600 H 433.677 2.09846 3.4171 0
M  V30 4601 H 430.267 3.33518 2.69191 0
M  V30 4602 H 434.451 4.29443 2.48782 0
M  V30 4603 H 429.707 5.68672 2.24548 0
M  V30 4604 H 433.881 6.65487 2.05182 0
M  V30 4605 H 431.508 7.35412 1.92544 0
M  V30 4606 N 433.083 -1.0153 1.20538 0
M  V30 4607 C 433.993 -2.13557 0.971113 0
M  V30 4608 C 435.009 -1.73845 -0.0734366 0
M  V30 4609 O 436.185 -2.01075 0.114299 0
M  V30 4610 C 433.25 -3.42661 0.527639 0
M  V30 4611 C 432.311 -3.96608 1.64319 0
M  V30 4612 C 431.544 -5.1955 1.22078 0
M  V30 4613 O 431.767 -5.70329 0.0900198 0
M  V30 4614 O 430.701 -5.66681 2.02871 0
M  V30 4615 H 434.527 -2.3619 1.90913 0
M  V30 4616 H 432.112 -1.11946 0.989362 0
M  V30 4617 H 433.994 -4.20404 0.289621 0
M  V30 4618 H 432.669 -3.21441 -0.381779 0
M  V30 4619 H 431.576 -3.20139 1.93551 0
M  V30 4620 H 432.909 -4.22219 2.52966 0
M  V30 4621 N 434.561 -1.01147 -1.20859 0
M  V30 4622 C 435.508 -0.577354 -2.23462 0
M  V30 4623 C 436.478 0.399922 -1.61214 0
M  V30 4624 O 437.663 0.300515 -1.88419 0
M  V30 4625 C 434.803 0.083372 -3.44999 0
M  V30 4626 C 433.916 -0.937856 -4.21697 0
M  V30 4627 C 433.051 -0.248717 -5.30617 0
M  V30 4628 C 432.09 -1.25705 -5.99053 0
M  V30 4629 N 431.227 -0.594939 -6.99575 0
M  V30 4630 H 436.067 -1.45695 -2.59956 0
M  V30 4631 H 433.604 -0.729428 -1.27741 0
M  V30 4632 H 435.562 0.483535 -4.14388 0
M  V30 4633 H 434.192 0.926645 -3.09214 0
M  V30 4634 H 433.244 -1.45622 -3.51423 0
M  V30 4635 H 434.556 -1.70493 -4.68757 0
M  V30 4636 H 433.71 0.207215 -6.06346 0
M  V30 4637 H 432.449 0.55071 -4.84581 0
M  V30 4638 H 431.454 -1.72343 -5.2209 0
M  V30 4639 H 432.679 -2.05767 -6.47176 0
M  V30 4640 H 430.625 0.184713 -6.5574 0
M  V30 4641 H 430.542 -1.30017 -7.44736 0
M  V30 4642 H 431.81 -0.162427 -7.79331 0
M  V30 4643 N 436.039 1.36541 -0.78704 0
M  V30 4644 C 436.972 2.27831 -0.129765 0
M  V30 4645 C 437.95 1.47105 0.692732 0
M  V30 4646 O 439.134 1.7641 0.664222 0
M  V30 4647 C 436.261 3.28577 0.821883 0
M  V30 4648 C 435.307 4.26422 0.0814771 0
M  V30 4649 S 436.14 5.20919 -1.24112 0
M  V30 4650 C 437.296 6.25212 -0.293409 0
M  V30 4651 H 437.529 2.83229 -0.903811 0
M  V30 4652 H 435.062 1.43046 -0.581144 0
M  V30 4653 H 437.02 3.87123 1.3655 0
M  V30 4654 H 435.681 2.72096 1.56916 0
M  V30 4655 H 434.874 4.97554 0.803485 0
M  V30 4656 H 434.476 3.71944 -0.391589 0
M  V30 4657 H 436.768 6.75435 0.528622 0
M  V30 4658 H 437.711 7.01378 -0.973344 0
M  V30 4659 H 438.119 5.64407 0.102196 0
M  V30 4660 N 437.518 0.538854 1.48102 0
M  V30 4661 C 438.764 0.00801365 2.02798 0
M  V30 4662 C 439.097 -1.3309 1.41424 0
M  V30 4663 O 438.372 -1.86169 0.563158 0
M  V30 4664 C 438.655 -0.104589 3.59948 0
M  V30 4665 C 438.508 1.26012 4.31788 0
M  V30 4666 C 439.827 -0.827055 4.32259 0
M  V30 4667 H 436.946 0.00438624 0.736987 0
M  V30 4668 H 439.588 0.6976 1.7673 0
M  V30 4669 H 437.738 -0.691893 3.82289 0
M  V30 4670 H 439.41 1.88922 4.2084 0
M  V30 4671 H 437.653 1.83968 3.92859 0
M  V30 4672 H 438.324 1.13424 5.40221 0
M  V30 4673 H 440.8 -0.328578 4.14801 0
M  V30 4674 H 439.676 -0.87476 5.41885 0
M  V30 4675 H 439.937 -1.87927 4.0017 0
M  V30 4676 N 438.996 -1.55193 0.274407 0
M  V30 4677 C 440.221 -2.04446 -0.348824 0
M  V30 4678 C 440.646 -1.15149 -1.48735 0
M  V30 4679 O 440.004 -0.149952 -1.80679 0
M  V30 4680 C 440.052 -3.51431 -0.808009 0
M  V30 4681 O 439.156 -3.65225 -1.91531 0
M  V30 4682 H 438.497 -0.66006 -0.0722276 0
M  V30 4683 H 441.027 -2.00481 0.408498 0
M  V30 4684 H 441.037 -3.92781 -1.10395 0
M  V30 4685 H 439.712 -4.15892 0.0249865 0
M  V30 4686 H 438.289 -3.35778 -1.62196 0
M  V30 4687 N 440.474 -0.00167713 -1.576 0
M  V30 4688 C 441.722 0.681471 -1.90264 0
M  V30 4689 C 442.043 1.7422 -0.875924 0
M  V30 4690 O 441.313 1.95709 0.0864412 0
M  V30 4691 H 439.893 0.254696 -0.702239 0
M  V30 4692 H 442.555 -0.0429996 -1.94853 0
M  V30 4693 H 441.651 1.15166 -2.90075 0
M  V30 4694 N 441.952 1.55251 0.271103 0
M  V30 4695 C 442.885 1.83191 1.36075 0
M  V30 4696 C 443.863 0.685091 1.47463 0
M  V30 4697 O 445.047 0.928292 1.64058 0
M  V30 4698 C 442.174 1.99521 2.73696 0
M  V30 4699 C 441.22 3.22081 2.79582 0
M  V30 4700 S 442.053 4.79388 2.38636 0
M  V30 4701 C 443.209 4.98693 3.78228 0
M  V30 4702 H 443.442 2.75327 1.12171 0
M  V30 4703 H 440.975 1.47046 0.470833 0
M  V30 4704 H 442.933 2.09613 3.52948 0
M  V30 4705 H 441.594 1.0827 2.9485 0
M  V30 4706 H 440.787 3.304 3.80594 0
M  V30 4707 H 440.389 3.10589 2.08352 0
M  V30 4708 H 442.681 4.84551 4.73515 0
M  V30 4709 H 443.624 6.00738 3.7486 0
M  V30 4710 H 444.032 4.26665 3.69618 0
M  V30 4711 N 443.43 -0.535701 1.48216 0
M  V30 4712 C 444.66 -1.3148 1.59363 0
M  V30 4713 C 445.068 -1.8753 0.250844 0
M  V30 4714 O 444.411 -1.66821 -0.769174 0
M  V30 4715 C 444.473 -2.50731 2.57632 0
M  V30 4716 C 444.137 -2.15811 4.02833 0
M  V30 4717 C 445.134 -1.71822 4.90686 0
M  V30 4718 C 442.819 -2.26509 4.48329 0
M  V30 4719 C 444.813 -1.3899 6.22062 0
M  V30 4720 C 442.5 -1.93289 5.79726 0
M  V30 4721 C 443.498 -1.49599 6.66415 0
M  V30 4722 O 443.186 -1.16812 7.95368 0
M  V30 4723 H 442.918 -0.406315 0.540263 0
M  V30 4724 H 445.472 -0.653569 1.94725 0
M  V30 4725 H 443.702 -3.19817 2.1738 0
M  V30 4726 H 445.391 -3.12797 2.58675 0
M  V30 4727 H 446.157 -1.63031 4.56778 0
M  V30 4728 H 442.036 -2.59471 3.81045 0
M  V30 4729 H 445.58 -1.04816 6.89681 0
M  V30 4730 H 441.477 -2.01718 6.13172 0
M  V30 4731 H 442.245 -1.30259 8.08069 0
M  V30 4732 N 444.908 -1.36708 -0.784132 0
M  V30 4733 C 445.838 -1.34153 -1.91116 0
M  V30 4734 C 446.819 -0.212121 -1.68772 0
M  V30 4735 O 448.004 -0.410581 -1.8981 0
M  V30 4736 C 445.134 -1.13535 -3.28218 0
M  V30 4737 C 444.088 -2.23356 -3.65097 0
M  V30 4738 C 443.414 -1.87875 -5.00607 0
M  V30 4739 C 444.714 -3.65473 -3.73131 0
M  V30 4740 H 446.408 -2.28459 -1.93512 0
M  V30 4741 H 443.954 -1.09973 -0.929618 0
M  V30 4742 H 445.907 -1.10381 -4.06687 0
M  V30 4743 H 444.631 -0.156804 -3.26223 0
M  V30 4744 H 443.29 -2.25645 -2.88929 0
M  V30 4745 H 442.938 -0.885814 -4.95139 0
M  V30 4746 H 442.638 -2.61406 -5.26252 0
M  V30 4747 H 444.162 -1.86286 -5.81489 0
M  V30 4748 H 445.576 -3.65382 -4.41779 0
M  V30 4749 H 443.973 -4.37953 -4.10265 0
M  V30 4750 H 445.043 -3.99995 -2.74102 0
M  V30 4751 N 446.386 1.0089 -1.21074 0
M  V30 4752 C 447.634 1.74262 -1.02358 0
M  V30 4753 C 447.955 1.89869 0.444393 0
M  V30 4754 O 447.225 1.44677 1.32081 0
M  V30 4755 H 445.805 0.645615 -0.375754 0
M  V30 4756 H 448.467 1.21596 -1.52317 0
M  V30 4757 H 447.563 2.74328 -1.4883 0
M  V30 4758 N 447.864 1.01787 1.20321 0
M  V30 4759 C 448.774 0.598898 2.26827 0
M  V30 4760 C 449.79 -0.36418 1.70146 0
M  V30 4761 O 450.966 -0.224812 2.00141 0
M  V30 4762 C 448.031 -0.0549769 3.46656 0
M  V30 4763 C 447.092 0.954205 4.18561 0
M  V30 4764 C 446.325 0.331439 5.3267 0
M  V30 4765 O 446.548 -0.86851 5.63749 0
M  V30 4766 O 445.482 1.0488 5.92692 0
M  V30 4767 H 449.308 1.48562 2.64883 0
M  V30 4768 H 446.893 0.787434 1.26964 0
M  V30 4769 H 448.775 -0.420102 4.19301 0
M  V30 4770 H 447.45 -0.915876 3.10473 0
M  V30 4771 H 446.357 1.37072 3.48083 0
M  V30 4772 H 447.69 1.78511 4.58688 0
M  V30 4773 N 449.342 -1.36122 0.79427 0
M  V30 4774 C 450.272 -2.32551 0.210328 0
M  V30 4775 C 451.253 -1.56884 -0.657386 0
M  V30 4776 O 452.438 -1.85014 -0.590207 0
M  V30 4777 C 449.568 -3.41128 -0.651819 0
M  V30 4778 C 448.522 -4.27842 0.116395 0
M  V30 4779 C 447.848 -5.2763 -0.86666 0
M  V30 4780 C 449.148 -5.05647 1.30837 0
M  V30 4781 H 450.842 -2.81636 1.01594 0
M  V30 4782 H 448.388 -1.35407 0.489981 0
M  V30 4783 H 450.341 -4.07581 -1.07031 0
M  V30 4784 H 449.065 -2.90622 -1.49019 0
M  V30 4785 H 447.724 -3.62952 0.515915 0
M  V30 4786 H 447.372 -4.73395 -1.70019 0
M  V30 4787 H 447.072 -5.86514 -0.35705 0
M  V30 4788 H 448.596 -5.96955 -1.28361 0
M  V30 4789 H 450.01 -5.65113 0.965393 0
M  V30 4790 H 448.407 -5.73967 1.75161 0
M  V30 4791 H 449.477 -4.37006 2.10128 0
M  V30 4792 N 450.82 -0.546701 -1.47814 0
M  V30 4793 C 452.066 -0.0187684 -2.02791 0
M  V30 4794 C 452.399 1.32338 -1.42128 0
M  V30 4795 O 451.674 1.85867 -0.573023 0
M  V30 4796 C 451.957 0.0854985 -3.59998 0
M  V30 4797 C 451.81 -1.283 -4.31114 0
M  V30 4798 C 453.129 0.80412 -4.32691 0
M  V30 4799 H 450.248 -0.0082946 -0.736953 0
M  V30 4800 H 452.89 -0.706962 -1.76358 0
M  V30 4801 H 451.04 0.671609 -3.82651 0
M  V30 4802 H 452.712 -1.91151 -4.19832 0
M  V30 4803 H 450.955 -1.86049 -3.91878 0
M  V30 4804 H 451.626 -1.16287 -5.39612 0
M  V30 4805 H 454.102 0.306576 -4.14969 0
M  V30 4806 H 452.978 0.846011 -5.42341 0
M  V30 4807 H 453.239 1.85802 -4.01161 0
M  V30 4808 N 452.299 1.55045 -0.282633 0
M  V30 4809 C 453.715 1.59441 0.0712997 0
M  V30 4810 C 453.915 1.2998 1.53972 0
M  V30 4811 O 452.971 1.06431 2.28973 0
M  V30 4812 C 454.284 2.99097 -0.310104 0
M  V30 4813 C 455.832 3.1194 -0.257343 0
M  V30 4814 C 456.307 4.53875 -0.613297 0
M  V30 4815 N 457.798 4.5974 -0.565134 0
M  V30 4816 C 458.533 5.67603 -0.81326 0
M  V30 4817 N 458.029 6.83582 -1.1264 0
M  V30 4818 N 459.822 5.57187 -0.741553 0
M  V30 4819 H 451.973 1.72458 -1.23984 0
M  V30 4820 H 454.236 0.804549 -0.501403 0
M  V30 4821 H 453.942 3.25516 -1.33163 0
M  V30 4822 H 453.816 3.75616 0.345366 0
M  V30 4823 H 456.203 2.85281 0.754905 0
M  V30 4824 H 456.284 2.37618 -0.947178 0
M  V30 4825 H 455.928 4.81261 -1.62327 0
M  V30 4826 H 455.858 5.26508 0.09841 0
M  V30 4827 H 458.349 3.76427 -0.333294 0
M  V30 4828 H 458.662 7.6175 -1.30219 0
M  V30 4829 H 457.007 6.85179 -1.16425 0
M  V30 4830 H 460.198 4.65457 -0.496705 0
M  V30 4831 H 460.371 6.41171 -0.938306 0
M  V30 4832 N 453.777 0.010035 1.57597 0
M  V30 4833 C 454.707 -0.976857 2.12084 0
M  V30 4834 C 455.688 -1.35191 1.03235 0
M  V30 4835 O 456.873 -1.43389 1.3097 0
M  V30 4836 C 454.003 -2.26548 2.63236 0
M  V30 4837 C 452.957 -2.03175 3.76701 0
M  V30 4838 C 452.283 -3.38138 4.14206 0
M  V30 4839 C 453.583 -1.38625 5.03568 0
M  V30 4840 H 455.277 -0.523145 2.94794 0
M  V30 4841 H 452.823 -0.250195 1.4181 0
M  V30 4842 H 454.776 -2.95952 2.99984 0
M  V30 4843 H 453.5 -2.74051 1.77661 0
M  V30 4844 H 452.159 -1.36195 3.40362 0
M  V30 4845 H 451.807 -3.83363 3.25641 0
M  V30 4846 H 451.507 -3.23312 4.90656 0
M  V30 4847 H 453.031 -4.08841 4.53521 0
M  V30 4848 H 454.445 -1.98 5.38023 0
M  V30 4849 H 452.842 -1.34256 5.84889 0
M  V30 4850 H 453.912 -0.356722 4.83586 0
M  V30 4851 N 455.255 -1.55392 -0.262866 0
M  V30 4852 C 456.504 -1.75679 -0.990943 0
M  V30 4853 C 456.817 -0.57097 -1.87081 0
M  V30 4854 O 458.023 -0.656486 -2.63444 0
M  V30 4855 C 456.479 -3.10964 -1.81188 0
M  V30 4856 C 456.087 -4.37146 -0.980188 0
M  V30 4857 C 457.831 -3.40597 -2.53365 0
M  V30 4858 C 455.738 -5.63466 -1.7961 0
M  V30 4859 H 454.668 -0.654868 -0.373716 0
M  V30 4860 H 457.319 -1.81841 -0.246203 0
M  V30 4861 H 455.701 -2.98867 -2.59797 0
M  V30 4862 H 456.875 -4.60187 -0.237558 0
M  V30 4863 H 455.19 -4.14731 -0.372497 0
M  V30 4864 H 457.787 -4.32186 -3.14833 0
M  V30 4865 H 458.13 -2.6119 -3.24169 0
M  V30 4866 H 458.663 -3.53838 -1.81779 0
M  V30 4867 H 455.402 -6.4565 -1.13209 0
M  V30 4868 H 454.922 -5.44552 -2.51443 0
M  V30 4869 H 456.601 -6.02139 -2.36723 0
M  V30 4870 N 456.733 0.527833 -1.48498 0
M  V30 4871 C 457.663 1.64136 -1.66077 0
M  V30 4872 C 458.644 1.62286 -0.509625 0
M  V30 4873 O 459.829 1.79449 -0.742413 0
M  V30 4874 C 456.959 3.02717 -1.70234 0
M  V30 4875 C 455.913 3.19426 -2.8487 0
M  V30 4876 C 455.239 4.5909 -2.74118 0
M  V30 4877 C 456.539 3.01993 -4.26142 0
M  V30 4878 H 458.233 1.4968 -2.593 0
M  V30 4879 H 455.779 0.718654 -1.24785 0
M  V30 4880 H 457.732 3.80491 -1.8112 0
M  V30 4881 H 456.456 3.18201 -0.735911 0
M  V30 4882 H 455.115 2.4407 -2.73542 0
M  V30 4883 H 454.763 4.71413 -1.7544 0
M  V30 4884 H 454.463 4.71214 -3.51042 0
M  V30 4885 H 455.987 5.3896 -2.86974 0
M  V30 4886 H 457.401 3.69558 -4.38292 0
M  V30 4887 H 455.798 3.2561 -5.04082 0
M  V30 4888 H 456.868 1.98396 -4.42456 0
M  V30 4889 N 458.211 1.37122 0.776871 0
M  V30 4890 C 459.457 1.32243 1.53752 0
M  V30 4891 C 459.79 -0.0944745 1.9397 0
M  V30 4892 O 459.065 -1.05068 1.6368 0
M  V30 4893 C 459.348 2.25681 2.80607 0
M  V30 4894 C 459.201 3.76127 2.46676 0
M  V30 4895 C 460.52 2.17657 3.82509 0
M  V30 4896 H 457.639 0.481704 0.557791 0
M  V30 4897 H 460.281 1.6778 0.891612 0
M  V30 4898 H 458.431 1.95505 3.35723 0
M  V30 4899 H 460.103 4.16877 1.97513 0
M  V30 4900 H 458.346 3.94946 1.79443 0
M  V30 4901 H 459.017 4.36933 3.37333 0
M  V30 4902 H 461.493 2.44245 3.36873 0
M  V30 4903 H 460.369 2.85185 4.69 0
M  V30 4904 H 460.63 1.16785 4.26396 0
M  V30 4905 N 459.689 -1.00246 1.21608 0
M  V30 4906 C 460.636 -2.09073 0.977613 0
M  V30 4907 C 461.606 -1.65815 -0.097297 0
M  V30 4908 O 462.791 -1.90734 0.0503445 0
M  V30 4909 C 459.931 -3.40671 0.551133 0
M  V30 4910 C 459.044 -3.97326 1.69576 0
M  V30 4911 C 458.179 -5.17043 1.2182 0
M  V30 4912 C 457.218 -5.65813 2.335 0
M  V30 4913 N 456.355 -6.76778 1.86859 0
M  V30 4914 H 461.195 -2.28806 1.90924 0
M  V30 4915 H 458.732 -1.12186 0.951452 0
M  V30 4916 H 460.69 -4.16225 0.285097 0
M  V30 4917 H 459.32 -3.20967 -0.343489 0
M  V30 4918 H 458.372 -3.18734 2.07637 0
M  V30 4919 H 459.684 -4.29511 2.53617 0
M  V30 4920 H 458.838 -5.99852 0.908975 0
M  V30 4921 H 457.577 -4.86458 0.347869 0
M  V30 4922 H 456.582 -4.81599 2.65222 0
M  V30 4923 H 457.807 -5.98427 3.21033 0
M  V30 4924 H 455.753 -6.47994 1.02174 0
M  V30 4925 H 455.67 -7.08231 2.64471 0
M  V30 4926 H 456.938 -7.63116 1.58978 0
M  V30 4927 N 461.167 -1.02423 -1.1978 0
M  V30 4928 C 462.1 -0.545641 -2.21581 0
M  V30 4929 C 463.078 0.411024 -1.57319 0
M  V30 4930 O 464.262 0.329223 -1.85603 0
M  V30 4931 C 461.389 0.204973 -3.38079 0
M  V30 4932 C 460.435 -0.70241 -4.20676 0
M  V30 4933 S 461.268 -2.17595 -4.89298 0
M  V30 4934 C 462.424 -1.43572 -6.09211 0
M  V30 4935 H 462.657 -1.4082 -2.61834 0
M  V30 4936 H 460.19 -0.833771 -1.29952 0
M  V30 4937 H 462.148 0.631924 -4.05607 0
M  V30 4938 H 460.809 1.0432 -2.9627 0
M  V30 4939 H 460.002 -0.123193 -5.03849 0
M  V30 4940 H 459.604 -1.06747 -3.58442 0
M  V30 4941 H 461.896 -0.719806 -6.73665 0
M  V30 4942 H 462.839 -2.24388 -6.71607 0
M  V30 4943 H 463.247 -0.935252 -5.56699 0
M  V30 4944 N 462.645 1.35699 -0.801477 0
M  V30 4945 C 463.608 2.28199 -0.213994 0
M  V30 4946 C 464.608 1.49359 0.595691 0
M  V30 4947 O 465.798 1.69186 0.414921 0
M  V30 4948 C 462.93 3.33587 0.702297 0
M  V30 4949 H 464.123 2.81666 -1.02976 0
M  V30 4950 H 461.676 1.45467 -0.571759 0
M  V30 4951 H 462.411 2.85297 1.54195 0
M  V30 4952 H 462.196 3.91906 0.123484 0
M  V30 4953 H 463.686 4.02638 1.10783 0
M  V30 4954 N 464.123 0.554532 1.47522 0
M  V30 4955 C 465.07 -0.19466 2.29978 0
M  V30 4956 C 466.04 -0.910882 1.38896 0
M  V30 4957 O 467.225 -0.907102 1.67858 0
M  V30 4958 C 464.365 -1.22035 3.22802 0
M  V30 4959 C 463.478 -0.510474 4.28973 0
M  V30 4960 C 462.613 -1.52123 5.08952 0
M  V30 4961 C 461.652 -0.796173 6.069 0
M  V30 4962 N 460.789 -1.75363 6.79847 0
M  V30 4963 H 465.629 0.51461 2.93523 0
M  V30 4964 H 463.166 0.265607 1.44682 0
M  V30 4965 H 465.124 -1.8276 3.7504 0
M  V30 4966 H 463.754 -1.89769 2.61127 0
M  V30 4967 H 462.806 0.211234 3.79813 0
M  V30 4968 H 464.118 0.0576503 4.98767 0
M  V30 4969 H 463.272 -2.20207 5.65326 0
M  V30 4970 H 462.011 -2.12327 4.39054 0
M  V30 4971 H 461.016 -0.101388 5.49707 0
M  V30 4972 H 462.241 -0.199911 6.78806 0
M  V30 4973 H 460.187 -2.3443 6.12682 0
M  V30 4974 H 460.104 -1.23759 7.45801 0
M  V30 4975 H 461.372 -2.4257 7.40797 0
M  V30 4976 N 465.601 -1.54893 0.290851 0
M  V30 4977 C 466.511 -2.26812 -0.59945 0
M  V30 4978 C 467.527 -1.29963 -1.15696 0
M  V30 4979 O 468.703 -1.62928 -1.18391 0
M  V30 4980 C 465.768 -2.98716 -1.75982 0
M  V30 4981 C 464.829 -4.1108 -1.2374 0
M  V30 4982 C 464.062 -4.79546 -2.34246 0
M  V30 4983 O 464.285 -4.47309 -3.53936 0
M  V30 4984 O 463.219 -5.67165 -2.01512 0
M  V30 4985 H 467.045 -3.03696 -0.0163561 0
M  V30 4986 H 464.63 -1.49289 0.0576755 0
M  V30 4987 H 466.512 -3.43851 -2.43607 0
M  V30 4988 H 465.187 -2.24737 -2.3297 0
M  V30 4989 H 464.094 -3.70367 -0.527163 0
M  V30 4990 H 465.427 -4.87007 -0.71307 0
M  V30 4991 N 467.08 -0.0183926 -1.57589 0
M  V30 4992 C 468.328 0.661253 -1.90976 0
M  V30 4993 C 468.649 1.73281 -0.894353 0
M  V30 4994 O 467.919 1.9579 0.0656788 0
M  V30 4995 H 466.499 0.247233 -0.704901 0
M  V30 4996 H 469.161 -0.0636639 -1.94796 0
M  V30 4997 H 468.257 1.12083 -2.9128 0
M  V30 4998 N 468.558 1.5553 0.254621 0
M  V30 4999 C 469.488 1.9268 1.31897 0
M  V30 5000 C 470.469 0.790797 1.506 0
M  V30 5001 O 471.654 1.05045 1.63337 0
M  V30 5002 C 468.784 2.21477 2.67517 0
M  V30 5003 C 467.738 3.37256 2.63519 0
M  V30 5004 C 467.064 3.51576 4.02862 0
M  V30 5005 C 468.364 4.73157 2.21179 0
M  V30 5006 H 470.058 2.81832 1.01051 0
M  V30 5007 H 467.604 1.35599 0.484662 0
M  V30 5008 H 469.557 2.46055 3.42104 0
M  V30 5009 H 468.281 1.29144 2.99982 0
M  V30 5010 H 466.94 3.12675 1.9139 0
M  V30 5011 H 466.588 2.56676 4.32581 0
M  V30 5012 H 466.288 4.2943 4.01078 0
M  V30 5013 H 467.812 3.78467 4.79161 0
M  V30 5014 H 469.226 4.97158 2.85494 0
M  V30 5015 H 467.623 5.54058 2.30521 0
M  V30 5016 H 468.693 4.70739 1.16332 0
M  V30 5017 N 470.036 -0.519951 1.48776 0
M  V30 5018 C 470.966 -1.63253 1.66945 0
M  V30 5019 C 471.947 -1.62014 0.518224 0
M  V30 5020 O 473.132 -1.79053 0.751919 0
M  V30 5021 C 470.262 -3.0181 1.71836 0
M  V30 5022 C 469.216 -3.17911 2.8656 0
M  V30 5023 C 468.542 -4.5763 2.76548 0
M  V30 5024 C 469.842 -2.99729 4.27738 0
M  V30 5025 H 471.536 -1.48302 2.6009 0
M  V30 5026 H 469.082 -0.712026 1.25165 0
M  V30 5027 H 471.035 -3.79525 1.83135 0
M  V30 5028 H 469.759 -3.17806 0.752775 0
M  V30 5029 H 468.418 -2.42616 2.74833 0
M  V30 5030 H 468.066 -4.70476 1.77937 0
M  V30 5031 H 467.766 -4.69346 3.53536 0
M  V30 5032 H 469.29 -5.37431 2.89828 0
M  V30 5033 H 470.704 -3.67228 4.40246 0
M  V30 5034 H 469.101 -3.22932 5.05801 0
M  V30 5035 H 470.171 -1.96047 4.43502 0
M  V30 5036 N 471.514 -1.37532 -0.769588 0
M  V30 5037 C 472.761 -1.3286 -1.52822 0
M  V30 5038 C 473.089 0.0862597 -1.94309 0
M  V30 5039 O 472.344 1.05995 -1.6451 0
M  V30 5040 C 472.643 -2.21558 -2.8044 0
M  V30 5041 C 472.309 -3.69796 -2.57996 0
M  V30 5042 C 470.971 -4.10194 -2.51583 0
M  V30 5043 C 473.323 -4.63699 -2.37976 0
M  V30 5044 C 470.651 -5.42608 -2.23144 0
M  V30 5045 C 473.003 -5.96353 -2.1106 0
M  V30 5046 C 471.667 -6.35853 -2.03093 0
M  V30 5047 H 470.937 -0.486168 -0.559215 0
M  V30 5048 H 473.584 -1.69757 -0.886277 0
M  V30 5049 H 471.889 -1.77663 -3.49204 0
M  V30 5050 H 473.586 -2.15256 -3.38328 0
M  V30 5051 H 470.176 -3.37759 -2.63851 0
M  V30 5052 H 474.36 -4.33346 -2.41919 0
M  V30 5053 H 469.616 -5.72173 -2.15472 0
M  V30 5054 H 473.79 -6.68667 -1.94568 0
M  V30 5055 H 471.417 -7.38382 -1.8082 0
M  V30 5056 N 472.992 0.995999 -1.22138 0
M  V30 5057 C 473.902 2.11985 -1.00496 0
M  V30 5058 C 474.918 1.7394 0.0457701 0
M  V30 5059 O 476.094 2.00868 -0.146273 0
M  V30 5060 C 473.159 3.41779 -0.582086 0
M  V30 5061 C 472.22 3.93943 -1.70608 0
M  V30 5062 C 471.453 5.17542 -1.30328 0
M  V30 5063 O 471.676 5.70114 -0.180743 0
M  V30 5064 O 470.61 5.63382 -2.11861 0
M  V30 5065 H 474.436 2.33123 -1.94647 0
M  V30 5066 H 472.021 1.10358 -1.00705 0
M  V30 5067 H 473.903 4.1989 -0.356467 0
M  V30 5068 H 472.578 3.22007 0.330592 0
M  V30 5069 H 471.485 3.17019 -1.98619 0
M  V30 5070 H 472.818 4.18141 -2.59651 0
M  V30 5071 N 474.47 1.03057 1.19235 0
M  V30 5072 C 475.718 0.726581 1.88587 0
M  V30 5073 C 476.039 -0.747227 1.80115 0
M  V30 5074 O 475.309 -1.53849 1.21274 0
M  V30 5075 H 473.889 0.265768 0.698124 0
M  V30 5076 H 476.551 1.30516 1.44746 0
M  V30 5077 H 475.647 1.0224 2.94879 0
M  V30 5078 N 475.948 -1.35272 0.808662 0
M  V30 5079 C 477.364 -1.51806 0.492653 0
M  V30 5080 C 477.564 -1.7574 -0.985778 0
M  V30 5081 O 476.62 -1.80003 -1.77074 0
M  V30 5082 C 477.933 -2.69202 1.33981 0
M  V30 5083 C 479.481 -2.8308 1.33547 0
M  V30 5084 C 479.956 -4.03502 2.16679 0
M  V30 5085 N 481.447 -4.10684 2.14227 0
M  V30 5086 C 482.182 -5.02984 2.75308 0
M  V30 5087 N 481.678 -6.00603 3.45323 0
M  V30 5088 N 483.471 -4.95746 2.64938 0
M  V30 5089 H 475.622 -1.17993 1.76611 0
M  V30 5090 H 477.885 -0.577476 0.751814 0
M  V30 5091 H 477.591 -2.581 2.38909 0
M  V30 5092 H 477.465 -3.63854 0.994491 0
M  V30 5093 H 479.852 -2.93631 0.294036 0
M  V30 5094 H 479.933 -1.89278 1.72068 0
M  V30 5095 H 479.577 -3.93711 3.20864 0
M  V30 5096 H 479.507 -4.96489 1.75517 0
M  V30 5097 H 481.998 -3.40802 1.63285 0
M  V30 5098 H 482.311 -6.67633 3.89212 0
M  V30 5099 H 480.656 -6.0077 3.49428 0
M  V30 5100 H 483.847 -4.18439 2.09825 0
M  V30 5101 H 484.02 -5.67487 3.12829 0
M  V30 5102 N 477.426 -0.562348 -1.47226 0
M  V30 5103 C 478.675 -0.038041 -2.01664 0
M  V30 5104 C 478.988 1.32199 -1.44162 0
M  V30 5105 O 480.194 1.9365 -1.90294 0
M  V30 5106 C 478.65 -0.0174958 -3.59896 0
M  V30 5107 C 478.258 -1.3746 -4.2639 0
M  V30 5108 C 480.002 0.453934 -4.22066 0
M  V30 5109 C 477.909 -1.31289 -5.76643 0
M  V30 5110 H 476.839 -0.0104511 -0.753928 0
M  V30 5111 H 479.49 -0.710966 -1.69167 0
M  V30 5112 H 477.872 0.721182 -3.89378 0
M  V30 5113 H 479.046 -2.1314 -4.08544 0
M  V30 5114 H 477.361 -1.78438 -3.7623 0
M  V30 5115 H 479.958 0.518584 -5.32179 0
M  V30 5116 H 480.301 1.46706 -3.89594 0
M  V30 5117 H 480.834 -0.230044 -3.97134 0
M  V30 5118 H 477.573 -2.30217 -6.13743 0
M  V30 5119 H 477.093 -0.597973 -5.96812 0
M  V30 5120 H 478.772 -1.01713 -6.38955 0
M  V30 5121 N 478.904 1.54736 -0.299062 0
M  V30 5122 C 480.132 2.04512 0.313447 0
M  V30 5123 C 480.547 1.17643 1.47667 0
M  V30 5124 O 479.904 0.20164 1.81383 0
M  V30 5125 C 479.955 3.53171 0.771542 0
M  V30 5126 O 479.676 4.36736 -0.345379 0
M  V30 5127 C 481.177 4.18936 1.4494 0
M  V30 5128 H 478.397 0.667507 0.0683784 0
M  V30 5129 H 480.941 1.99752 -0.438129 0
M  V30 5130 H 479.096 3.58298 1.47314 0
M  V30 5131 H 479.51 5.24499 0.0109219 0
M  V30 5132 H 480.984 5.24482 1.72111 0
M  V30 5133 H 481.461 3.68554 2.38883 0
M  V30 5134 H 482.067 4.17879 0.791028 0
M  V30 5135 N 480.382 0.0267497 1.57577 0
M  V30 5136 C 481.793 -0.512413 1.79531 0
M  V30 5137 C 482.144 -1.72391 0.936791 0
M  V30 5138 O 481.269 -2.15903 0.146543 0
M  V30 5139 C 481.864 -0.936378 3.25603 0
M  V30 5140 C 480.423 -1.42067 3.4856 0
M  V30 5141 C 479.57 -0.384278 2.74624 0
M  V30 5142 H 482.521 0.252797 1.56674 0
M  V30 5143 H 482.542 -1.80088 3.35184 0
M  V30 5144 H 482.054 -0.0544332 3.88062 0
M  V30 5145 H 480.155 -2.32262 2.9135 0
M  V30 5146 H 480.268 -1.42968 4.57271 0
M  V30 5147 H 478.632 -0.851855 2.40032 0
M  V30 5148 H 479.415 0.489159 3.39797 0
M  V30 5149 N 481.861 -1.55662 -0.24637 0
M  V30 5150 C 482.771 -1.93495 -1.32653 0
M  V30 5151 C 483.787 -0.835462 -1.5263 0
M  V30 5152 O 484.963 -1.1369 -1.66242 0
M  V30 5153 C 482.028 -2.22242 -2.66101 0
M  V30 5154 C 481.089 -3.45625 -2.54641 0
M  V30 5155 C 480.322 -3.72991 -3.81724 0
M  V30 5156 O 480.545 -3.02421 -4.8363 0
M  V30 5157 O 479.479 -4.66515 -3.80325 0
M  V30 5158 H 483.305 -2.85498 -1.03559 0
M  V30 5159 H 480.89 -1.42551 -0.44717 0
M  V30 5160 H 482.772 -2.42037 -3.44958 0
M  V30 5161 H 481.447 -1.33417 -2.94926 0
M  V30 5162 H 480.354 -3.31136 -1.74067 0
M  V30 5163 H 481.687 -4.34754 -2.3076 0
M  V30 5164 N 483.339 0.512053 -1.4905 0
M  V30 5165 C 484.269 1.62365 -1.67809 0
M  V30 5166 C 485.25 1.61737 -0.526809 0
M  V30 5167 O 486.435 1.78651 -0.761404 0
M  V30 5168 C 483.565 3.00895 -1.73435 0
M  V30 5169 C 482.519 3.16387 -2.88242 0
M  V30 5170 C 481.845 4.56157 -2.78971 0
M  V30 5171 C 483.145 2.97457 -4.29321 0
M  V30 5172 H 484.839 1.46921 -2.60873 0
M  V30 5173 H 482.385 0.705379 -1.2554 0
M  V30 5174 H 484.338 3.78549 -1.85145 0
M  V30 5175 H 483.062 3.17403 -0.769619 0
M  V30 5176 H 481.721 2.41155 -2.76116 0
M  V30 5177 H 481.369 4.69525 -1.8043 0
M  V30 5178 H 481.069 4.67465 -3.5602 0
M  V30 5179 H 482.593 5.35886 -2.92675 0
M  V30 5180 H 484.007 3.64888 -4.42187 0
M  V30 5181 H 482.404 3.20245 -5.07507 0
M  V30 5182 H 483.474 1.93692 -4.44535 0
M  V30 5183 N 484.817 1.37938 0.762283 0
M  V30 5184 C 485.747 1.37176 1.88958 0
M  V30 5185 C 486.728 0.238945 1.68413 0
M  V30 5186 O 487.913 0.440726 1.89133 0
M  V30 5187 C 485.043 1.18742 3.2637 0
M  V30 5188 C 483.997 2.29136 3.61498 0
M  V30 5189 C 483.323 1.95816 4.97554 0
M  V30 5190 C 484.623 3.71363 3.6727 0
M  V30 5191 H 486.317 2.31509 1.89853 0
M  V30 5192 H 483.863 1.11438 0.912005 0
M  V30 5193 H 485.816 1.16837 4.04879 0
M  V30 5194 H 484.54 0.208683 3.25933 0
M  V30 5195 H 483.199 2.30213 2.85303 0
M  V30 5196 H 482.847 0.964475 4.93667 0
M  V30 5197 H 482.547 2.69745 5.22026 0
M  V30 5198 H 484.071 1.95513 5.78452 0
M  V30 5199 H 485.485 3.72364 4.35911 0
M  V30 5200 H 483.882 4.44425 4.03245 0
M  V30 5201 H 484.952 4.04305 2.67704 0
M  V30 5202 N 486.295 -0.989507 1.22664 0
M  V30 5203 C 487.523 -1.76496 1.07967 0
M  V30 5204 C 487.938 -1.85148 -0.369543 0
M  V30 5205 O 487.295 -1.32408 -1.25596 0
M  V30 5206 C 487.346 -3.19642 1.68853 0
M  V30 5207 O 487.067 -3.11453 3.08105 0
M  V30 5208 C 488.568 -4.13621 1.59475 0
M  V30 5209 H 485.788 -0.55418 0.378319 0
M  V30 5210 H 488.332 -1.24378 1.62328 0
M  V30 5211 H 486.487 -3.68816 1.18547 0
M  V30 5212 H 486.901 -4.01499 3.37489 0
M  V30 5213 H 488.375 -5.11801 2.06795 0
M  V30 5214 H 488.852 -4.35718 0.55191 0
M  V30 5215 H 489.458 -3.70346 2.09103 0
M  V30 5216 N 487.773 -1.03688 -1.18687 0
M  V30 5217 C 489.189 -0.755413 -1.4059 0
M  V30 5218 C 489.389 0.656659 -1.905 0
M  V30 5219 O 488.445 1.42144 -2.08689 0
M  V30 5220 C 489.758 -1.7983 -2.41001 0
M  V30 5221 C 491.306 -1.81877 -2.54735 0
M  V30 5222 C 491.781 -2.85148 -3.58406 0
M  V30 5223 N 493.272 -2.84015 -3.6591 0
M  V30 5224 C 494.007 -3.60573 -4.45841 0
M  V30 5225 N 493.503 -4.46871 -5.29413 0
M  V30 5226 N 495.296 -3.49079 -4.40568 0
M  V30 5227 H 487.447 -1.94818 -0.846148 0
M  V30 5228 H 489.71 -0.842727 -0.434184 0
M  V30 5229 H 489.416 -2.81097 -2.1137 0
M  V30 5230 H 489.29 -1.62727 -3.40294 0
M  V30 5231 H 491.677 -0.812836 -2.83685 0
M  V30 5232 H 491.758 -2.03057 -1.55568 0
M  V30 5233 H 491.402 -3.85918 -3.30197 0
M  V30 5234 H 491.332 -2.61224 -4.57241 0
M  V30 5235 H 493.823 -2.21431 -3.0623 0
M  V30 5236 H 494.136 -5.02007 -5.87545 0
M  V30 5237 H 492.481 -4.5094 -5.28846 0
M  V30 5238 H 495.672 -2.81066 -3.74325 0
M  V30 5239 H 495.845 -4.08994 -5.02621 0
M  V30 5240 N 489.251 1.34841 -0.815825 0
M  V30 5241 C 490.499 1.98107 -0.399744 0
M  V30 5242 C 490.82 1.65019 1.03894 0
M  V30 5243 O 490.09 0.937311 1.72021 0
M  V30 5244 H 488.67 0.732827 -0.144823 0
M  V30 5245 H 491.332 1.64599 -1.0437 0
M  V30 5246 H 490.428 3.07856 -0.512965 0
M  V30 5247 N 490.729 0.570148 1.46925 0
M  V30 5248 C 491.676 -0.170257 2.30171 0
M  V30 5249 C 492.646 -0.896099 1.39855 0
M  V30 5250 O 493.831 -0.889248 1.68811 0
M  V30 5251 C 490.971 -1.18605 3.24079 0
M  V30 5252 C 490.084 -0.464947 4.29491 0
M  V30 5253 C 489.219 -1.46716 5.10537 0
M  V30 5254 C 488.258 -0.731758 6.0771 0
M  V30 5255 N 487.395 -1.68142 6.81669 0
M  V30 5256 H 492.235 0.545713 2.92961 0
M  V30 5257 H 489.772 0.280938 1.44392 0
M  V30 5258 H 491.73 -1.78771 3.76957 0
M  V30 5259 H 490.36 -1.86989 2.63125 0
M  V30 5260 H 489.412 0.251506 3.79568 0
M  V30 5261 H 490.724 0.110548 4.98677 0
M  V30 5262 H 489.878 -2.14199 5.6763 0
M  V30 5263 H 488.617 -2.07658 4.41282 0
M  V30 5264 H 487.622 -0.0430787 5.49783 0
M  V30 5265 H 488.847 -0.127904 6.7898 0
M  V30 5266 H 486.793 -2.27918 6.15134 0
M  V30 5267 H 486.71 -1.15841 7.47072 0
M  V30 5268 H 487.978 -2.347 7.43328 0
M  V30 5269 N 492.207 -1.54576 0.307264 0
M  V30 5270 C 493.454 -2.00263 -0.300167 0
M  V30 5271 C 493.782 -1.19561 -1.53413 0
M  V30 5272 O 493.037 -0.261487 -1.93945 0
M  V30 5273 C 493.336 -3.50572 -0.695253 0
M  V30 5274 C 493.002 -4.48771 0.437679 0
M  V30 5275 C 491.664 -4.7534 0.748681 0
M  V30 5276 C 494.016 -5.0721 1.19949 0
M  V30 5277 C 491.344 -5.5761 1.8245 0
M  V30 5278 C 493.696 -5.90651 2.26527 0
M  V30 5279 C 492.36 -6.15528 2.58227 0
M  V30 5280 H 491.63 -0.732814 -0.109839 0
M  V30 5281 H 494.277 -1.86664 0.427661 0
M  V30 5282 H 492.582 -3.61814 -1.50326 0
M  V30 5283 H 494.279 -3.83352 -1.17653 0
M  V30 5284 H 490.869 -4.282 0.185187 0
M  V30 5285 H 495.053 -4.86679 0.972474 0
M  V30 5286 H 490.309 -5.75121 2.07476 0
M  V30 5287 H 494.483 -6.34957 2.86011 0
M  V30 5288 H 492.11 -6.79066 3.4172 0
M  V30 5289 N 493.685 -0.035106 -1.57561 0
M  V30 5290 C 494.633 0.962707 -2.11742 0
M  V30 5291 C 495.627 1.33296 -1.0454 0
M  V30 5292 O 496.833 1.31449 -1.22968 0
M  V30 5293 H 493.208 0.32826 -0.676572 0
M  V30 5294 H 495.179 0.48048 -2.94506 0
M  V30 5295 C 493.928 2.23388 -2.66445 0
M  V30 5296 H 493.251 1.95774 -3.48587 0
M  V30 5297 H 494.691 2.91402 -3.07995 0
M  V30 5298 C 493.15 2.96769 -1.59467 0
M  V30 5299 O 493.68 3.89105 -0.998 0
M  V30 5300 N 491.886 2.59212 -1.31369 0
M  V30 5301 H 491.433 1.84202 -1.80076 0
M  V30 5302 H 491.391 3.08618 -0.600173 0
M  V30 5303 N 495.163 1.55791 0.238111 0
M  V30 5304 C 496.391 1.82098 0.982233 0
M  V30 5305 C 496.806 0.612025 1.78605 0
M  V30 5306 O 496.163 -0.419381 1.77616 0
M  V30 5307 C 496.214 3.0673 1.91309 0
M  V30 5308 O 495.935 4.2296 1.14179 0
M  V30 5309 C 497.436 3.45903 2.77248 0
M  V30 5310 H 494.656 0.605748 0.288635 0
M  V30 5311 H 497.2 2.02862 0.258341 0
M  V30 5312 H 495.355 2.87991 2.59114 0
M  V30 5313 H 495.769 4.93653 1.7722 0
M  V30 5314 H 497.243 4.36189 3.38295 0
M  V30 5315 H 497.72 2.66891 3.48806 0
M  V30 5316 H 498.326 3.67024 2.14881 0
M  V30 5317 N 496.642 -0.504142 1.49319 0
M  V30 5318 C 497.867 -1.28729 1.62615 0
M  V30 5319 C 498.292 -1.85752 0.296309 0
M  V30 5320 O 497.65 -1.65704 -0.735649 0
M  V30 5321 C 497.698 -2.39561 2.69524 0
M  V30 5322 O 496.802 -3.43324 2.28478 0
M  V30 5323 H 496.143 -0.380172 0.544395 0
M  V30 5324 H 498.673 -0.603872 1.95485 0
M  V30 5325 H 498.683 -2.8537 2.91595 0
M  V30 5326 H 497.358 -1.97423 3.66056 0
M  V30 5327 H 495.935 -3.03455 2.16725 0
M  V30 5328 N 498.12 -1.38341 -0.754957 0
M  V30 5329 C 499.397 -1.24995 -1.50451 0
M  V30 5330 C 499.777 0.149244 -2.10572 0
M  V30 5331 O 499.125 1.15861 -1.96948 0
M  V30 5332 C 499.335 -2.35904 -2.57197 0
M  V30 5333 C 500.683 -2.74262 -3.24138 0
M  V30 5334 O 501.707 -2.35205 -2.67501 0
M  V30 5335 O 500.566 -3.4161 -4.26574 0
M  V30 5336 H 497.66 -0.48872 -0.667144 0
M  V30 5337 H 500.206 -1.50165 -0.790486 0
M  V30 5338 H 498.978 -3.2953 -2.11011 0
M  V30 5339 H 498.601 -2.12291 -3.36182 0
M  V30 5340 N 499.598 0.982988 -1.23187 0
M  V30 5341 C 500.844 1.72648 -1.06398 0
M  V30 5342 C 501.177 1.90066 0.398561 0
M  V30 5343 O 500.452 1.45105 1.29518 0
M  V30 5344 C 500.735 3.12627 -1.78707 0
M  V30 5345 C 500.588 3.02795 -3.32618 0
M  V30 5346 C 501.907 4.11997 -1.54747 0
M  V30 5347 H 499.026 0.626649 -0.387918 0
M  V30 5348 H 501.668 1.14455 -1.51658 0
M  V30 5349 H 499.818 3.62308 -1.40234 0
M  V30 5350 H 501.49 2.60659 -3.80598 0
M  V30 5351 H 499.733 2.39362 -3.61785 0
M  V30 5352 H 500.404 4.01893 -3.78399 0
M  V30 5353 H 502.88 3.71114 -1.88186 0
M  V30 5354 H 501.756 5.08037 -2.07821 0
M  V30 5355 H 502.017 4.39462 -0.482249 0
M  V30 5356 N 501.076 1.04316 1.18135 0
M  V30 5357 C 502.301 0.768047 1.92655 0
M  V30 5358 C 502.726 -0.66904 1.758 0
M  V30 5359 O 502.084 -1.46372 1.06981 0
M  V30 5360 C 502.132 1.14239 3.42026 0
M  V30 5361 O 501.236 0.269333 4.1152 0
M  V30 5362 H 500.577 0.282436 0.600937 0
M  V30 5363 H 503.107 1.39367 1.49793 0
M  V30 5364 H 503.117 1.10538 3.92741 0
M  V30 5365 H 501.792 2.18928 3.53615 0
M  V30 5366 H 500.369 0.366175 3.71098 0
M  V30 5367 N 502.554 -1.34406 0.822964 0
M  V30 5368 C 503.517 -2.2783 0.250271 0
M  V30 5369 C 504.517 -1.50288 -0.571854 0
M  V30 5370 O 505.707 -1.69825 -0.387952 0
M  V30 5371 C 502.839 -3.34663 -0.649137 0
M  V30 5372 H 504.032 -2.79992 1.07444 0
M  V30 5373 H 501.585 -1.44539 0.594829 0
M  V30 5374 H 502.32 -2.87714 -1.49637 0
M  V30 5375 H 502.105 -3.92052 -0.0611199 0
M  V30 5376 H 503.595 -4.04349 -1.04363 0
M  V30 5377 N 504.032 -0.577932 -1.46621 0
M  V30 5378 C 505.281 -0.0594281 -2.01612 0
M  V30 5379 C 505.594 1.30663 -1.45556 0
M  V30 5380 O 506.8 1.91621 -1.92337 0
M  V30 5381 C 505.256 -0.0556666 -3.59857 0
M  V30 5382 C 504.864 -1.41975 -4.24908 0
M  V30 5383 C 506.608 0.409143 -4.22524 0
M  V30 5384 C 504.515 -1.37397 -5.75218 0
M  V30 5385 H 503.445 -0.0184469 -0.753774 0
M  V30 5386 H 506.096 -0.728869 -1.68404 0
M  V30 5387 H 504.478 0.679843 -3.90121 0
M  V30 5388 H 505.652 -2.17461 -4.0626 0
M  V30 5389 H 503.967 -1.82419 -3.74316 0
M  V30 5390 H 506.564 0.46211 -5.32699 0
M  V30 5391 H 506.907 1.42565 -3.91128 0
M  V30 5392 H 507.44 -0.272152 -3.96868 0
M  V30 5393 H 504.179 -2.36714 -6.11267 0
M  V30 5394 H 503.699 -0.661239 -5.96144 0
M  V30 5395 H 505.378 -1.08484 -6.3784 0
M  V30 5396 N 505.51 1.54411 -0.315457 0
M  V30 5397 C 506.42 2.27737 0.56329 0
M  V30 5398 C 507.436 1.31787 1.13614 0
M  V30 5399 O 508.612 1.64791 1.15784 0
M  V30 5400 C 505.677 3.01478 1.71207 0
M  V30 5401 C 504.738 4.12997 1.17185 0
M  V30 5402 C 503.971 4.83212 2.26588 0
M  V30 5403 O 504.194 4.52884 3.46775 0
M  V30 5404 O 503.128 5.70299 1.92463 0
M  V30 5405 H 506.954 3.03683 -0.0319614 0
M  V30 5406 H 504.539 1.49178 -0.0814188 0
M  V30 5407 H 506.421 3.47683 2.38106 0
M  V30 5408 H 505.096 2.28414 2.29366 0
M  V30 5409 H 504.003 3.71159 0.468174 0
M  V30 5410 H 505.336 4.8808 0.635501 0
M  V30 5411 N 506.988 0.0434614 1.5754 0
M  V30 5412 C 507.935 -0.93356 2.11077 0
M  V30 5413 C 508.905 -1.31383 1.01626 0
M  V30 5414 O 510.09 -1.40465 1.29129 0
M  V30 5415 C 507.23 -2.20578 2.65404 0
M  V30 5416 C 506.343 -1.88068 3.88914 0
M  V30 5417 C 505.478 -3.09691 4.31584 0
M  V30 5418 C 504.517 -2.73067 5.47815 0
M  V30 5419 N 503.654 -3.87359 5.85574 0
M  V30 5420 H 508.494 -0.470118 2.94268 0
M  V30 5421 H 506.031 -0.220434 1.45439 0
M  V30 5422 H 507.989 -2.95011 2.94999 0
M  V30 5423 H 506.619 -2.64513 1.85021 0
M  V30 5424 H 505.671 -1.03816 3.6596 0
M  V30 5425 H 506.983 -1.57104 4.73413 0
M  V30 5426 H 506.137 -3.92431 4.62691 0
M  V30 5427 H 504.876 -3.43827 3.45882 0
M  V30 5428 H 503.881 -1.88742 5.16388 0
M  V30 5429 H 505.106 -2.40131 6.35227 0
M  V30 5430 H 503.052 -4.21311 5.02825 0
M  V30 5431 H 502.969 -3.60068 6.64746 0
M  V30 5432 H 504.237 -4.70761 6.21292 0
M  V30 5433 N 508.466 -1.55915 -0.229846 0
M  V30 5434 C 509.414 -1.9258 -1.30444 0
M  V30 5435 C 510.408 -0.806839 -1.48951 0
M  V30 5436 O 511.614 -0.991606 -1.50224 0
M  V30 5437 H 507.989 -0.611878 -0.437161 0
M  V30 5438 H 509.96 -2.82264 -0.96797 0
M  V30 5439 C 508.709 -2.25171 -2.6494 0
M  V30 5440 H 508.032 -3.10782 -2.51504 0
M  V30 5441 H 509.472 -2.54716 -3.38963 0
M  V30 5442 C 507.931 -1.07394 -3.19324 0
M  V30 5443 O 508.461 -0.330759 -4.00336 0
M  V30 5444 N 506.667 -0.859984 -2.77584 0
M  V30 5445 H 506.214 -1.46605 -2.11813 0
M  V30 5446 H 506.172 -0.0736671 -3.14314 0
M  V30 5447 N 509.944 0.496216 -1.49584 0
M  V30 5448 C 510.891 1.59722 -1.66606 0
M  V30 5449 C 511.861 1.58158 -0.507477 0
M  V30 5450 O 513.046 1.76072 -0.735076 0
M  V30 5451 C 510.186 2.97844 -1.74308 0
M  V30 5452 C 509.299 3.09388 -3.01502 0
M  V30 5453 C 508.434 4.38271 -3.00153 0
M  V30 5454 C 507.473 4.43466 -4.21906 0
M  V30 5455 N 506.61 5.63784 -4.1844 0
M  V30 5456 H 511.45 1.44515 -2.60613 0
M  V30 5457 H 508.987 0.703048 -1.29212 0
M  V30 5458 H 510.945 3.77907 -1.76754 0
M  V30 5459 H 509.575 3.11743 -0.837619 0
M  V30 5460 H 508.627 2.22357 -3.08645 0
M  V30 5461 H 509.939 3.09085 -3.91494 0
M  V30 5462 H 509.093 5.2666 -3.01188 0
M  V30 5463 H 507.832 4.41146 -2.07947 0
M  V30 5464 H 506.837 3.53478 -4.21109 0
M  V30 5465 H 508.062 4.42303 -5.1531 0
M  V30 5466 H 506.008 5.67491 -3.29074 0
M  V30 5467 H 505.925 5.65118 -5.02173 0
M  V30 5468 H 507.193 6.54367 -4.23585 0
M  V30 5469 N 511.423 1.38739 0.74761 0
M  V30 5470 C 512.333 1.38696 1.89211 0
M  V30 5471 C 513.349 0.283303 1.71678 0
M  V30 5472 O 514.525 0.522713 1.94498 0
M  V30 5473 C 511.59 1.21662 3.24653 0
M  V30 5474 C 510.651 2.41886 3.54669 0
M  V30 5475 C 509.884 2.25655 4.83648 0
M  V30 5476 O 510.107 1.25339 5.56459 0
M  V30 5477 O 509.041 3.14372 5.13277 0
M  V30 5478 H 512.867 2.35143 1.92202 0
M  V30 5479 H 510.452 1.19721 0.893708 0
M  V30 5480 H 512.334 1.14246 4.05618 0
M  V30 5481 H 511.009 0.283024 3.2246 0
M  V30 5482 H 509.916 2.54877 2.73841 0
M  V30 5483 H 511.249 3.33895 3.61628 0
M  V30 5484 N 512.901 -0.976442 1.23707 0
M  V30 5485 C 514.149 -1.71487 1.06942 0
M  V30 5486 C 514.47 -1.9098 -0.393897 0
M  V30 5487 O 513.74 -1.48128 -1.28198 0
M  V30 5488 H 512.32 -0.635425 0.392739 0
M  V30 5489 H 514.982 -1.17515 1.55487 0
M  V30 5490 H 514.078 -2.70286 1.56051 0
M  V30 5491 N 514.379 -1.04941 -1.1758 0
M  V30 5492 C 515.309 -0.669172 -2.23706 0
M  V30 5493 C 516.29 0.331835 -1.66832 0
M  V30 5494 O 517.475 0.209988 -1.93061 0
M  V30 5495 C 514.605 -0.0404889 -3.47276 0
M  V30 5496 C 513.559 -0.965983 -4.16957 0
M  V30 5497 C 512.885 -0.201312 -5.34321 0
M  V30 5498 C 514.185 -2.28902 -4.69469 0
M  V30 5499 H 515.879 -1.55639 -2.55767 0
M  V30 5500 H 513.425 -0.749793 -1.22939 0
M  V30 5501 H 515.378 0.237298 -4.20731 0
M  V30 5502 H 514.102 0.881658 -3.14475 0
M  V30 5503 H 512.761 -1.22829 -3.45411 0
M  V30 5504 H 512.409 0.723519 -4.97769 0
M  V30 5505 H 512.109 -0.817968 -5.81879 0
M  V30 5506 H 513.633 0.0692499 -6.10561 0
M  V30 5507 H 515.047 -2.07132 -5.34574 0
M  V30 5508 H 513.444 -2.85942 -5.27596 0
M  V30 5509 H 514.514 -2.92937 -3.86414 0
M  V30 5510 N 515.857 1.33968 -0.830081 0
M  V30 5511 C 516.807 2.26845 -0.229242 0
M  V30 5512 C 517.791 1.48862 0.610659 0
M  V30 5513 O 518.983 1.70808 0.464067 0
M  V30 5514 C 516.112 3.3798 0.602057 0
M  V30 5515 C 515.198 4.23369 -0.248866 0
M  V30 5516 N 515.589 4.88182 -1.32334 0
M  V30 5517 C 513.887 4.45987 -0.0344077 0
M  V30 5518 C 514.588 5.51671 -1.84482 0
M  V30 5519 N 513.564 5.31348 -1.14762 0
M  V30 5520 H 517.366 2.74464 -1.05104 0
M  V30 5521 H 514.88 1.4777 -0.673623 0
M  V30 5522 H 516.877 4.03494 1.04873 0
M  V30 5523 H 515.537 2.9191 1.42193 0
M  V30 5524 H 516.548 4.88988 -1.70619 0
M  V30 5525 H 513.225 4.10658 0.752727 0
M  V30 5526 H 514.615 6.13308 -2.74413 0
M  V30 5527 N 517.335 0.585699 1.46312 0
M  V30 5528 C 518.283 -0.158577 2.32059 0
M  V30 5529 C 519.277 -0.881427 1.44662 0
M  V30 5530 O 520.483 -0.799476 1.61271 0
M  V30 5531 H 516.858 -0.0700066 0.748734 0
M  V30 5532 H 518.829 0.583383 2.92642 0
M  V30 5533 C 517.578 -1.15701 3.27885 0
M  V30 5534 H 516.901 -0.610215 3.95116 0
M  V30 5535 H 518.341 -1.64812 3.90657 0
M  V30 5536 C 516.8 -2.21951 2.53455 0
M  V30 5537 O 517.33 -3.29352 2.29978 0
M  V30 5538 N 515.536 -1.9664 2.13965 0
M  V30 5539 H 515.083 -1.09309 2.33258 0
M  V30 5540 H 515.041 -2.6794 1.64485 0
M  V30 5541 N 518.813 -1.54241 0.323641 0
M  V30 5542 C 519.776 -2.22997 -0.529602 0
M  V30 5543 C 520.776 -1.22345 -1.04347 0
M  V30 5544 O 521.966 -1.46924 -0.935889 0
M  V30 5545 C 519.098 -2.93409 -1.73562 0
M  V30 5546 H 520.291 -2.99815 0.0714518 0
M  V30 5547 H 517.844 -1.56121 0.0747258 0
M  V30 5548 H 518.579 -2.20729 -2.37591 0
M  V30 5549 H 518.364 -3.67217 -1.37456 0
M  V30 5550 H 519.854 -3.45794 -2.34128 0
M  V30 5551 N 520.291 -0.0518155 -1.57515 0
M  V30 5552 C 521.238 0.922352 -2.11569 0
M  V30 5553 C 522.208 1.30842 -1.02321 0
M  V30 5554 O 523.393 1.39778 -1.29872 0
M  V30 5555 C 520.533 2.19167 -2.6657 0
M  V30 5556 C 519.646 1.86003 -3.89906 0
M  V30 5557 C 518.781 3.07398 -4.33221 0
M  V30 5558 C 517.82 2.70158 -5.49255 0
M  V30 5559 N 516.957 3.84248 -5.8762 0
M  V30 5560 H 521.797 0.454506 -2.94514 0
M  V30 5561 H 519.334 0.212718 -1.45554 0
M  V30 5562 H 521.292 2.93443 -2.96559 0
M  V30 5563 H 519.922 2.63528 -1.86421 0
M  V30 5564 H 518.974 1.01874 -3.66505 0
M  V30 5565 H 520.286 1.54592 -4.74239 0
M  V30 5566 H 519.44 3.89972 -4.64765 0
M  V30 5567 H 518.179 3.41988 -3.477 0
M  V30 5568 H 517.184 1.86001 -5.17382 0
M  V30 5569 H 518.409 2.36759 -6.36492 0
M  V30 5570 H 516.355 4.18638 -5.05053 0
M  V30 5571 H 516.272 3.56538 -6.66646 0
M  V30 5572 H 517.54 4.6746 -6.2378 0
M  V30 5573 N 521.769 1.56035 0.221574 0
M  V30 5574 C 522.679 1.95581 1.29558 0
M  V30 5575 C 523.695 0.859639 1.51282 0
M  V30 5576 O 524.871 1.16321 1.64413 0
M  V30 5577 C 521.936 2.26447 2.62531 0
M  V30 5578 C 520.997 3.49632 2.4911 0
M  V30 5579 C 520.23 3.79017 3.75742 0
M  V30 5580 O 520.453 3.10077 4.78757 0
M  V30 5581 O 519.387 4.72507 3.72855 0
M  V30 5582 H 523.213 2.8711 0.990035 0
M  V30 5583 H 520.798 1.43244 0.424434 0
M  V30 5584 H 522.68 2.47494 3.41064 0
M  V30 5585 H 521.355 1.38092 2.92766 0
M  V30 5586 H 520.262 3.33864 1.68777 0
M  V30 5587 H 521.595 4.3837 2.23814 0
M  V30 5588 N 523.247 -0.488276 1.49845 0
M  V30 5589 C 524.496 -1.23826 1.59217 0
M  V30 5590 C 524.809 -1.93439 0.289966 0
M  V30 5591 O 526.015 -2.70229 0.262382 0
M  V30 5592 C 524.471 -2.24902 2.80976 0
M  V30 5593 C 524.079 -1.6117 4.18005 0
M  V30 5594 C 525.823 -3.00648 2.99685 0
M  V30 5595 C 523.73 -2.60431 5.3097 0
M  V30 5596 H 522.66 -0.465858 0.592868 0
M  V30 5597 H 525.311 -0.510645 1.76252 0
M  V30 5598 H 523.693 -3.0088 2.57463 0
M  V30 5599 H 524.867 -0.910968 4.51706 0
M  V30 5600 H 523.182 -0.97767 4.0476 0
M  V30 5601 H 525.779 -3.74903 3.81251 0
M  V30 5602 H 526.122 -3.5902 2.10738 0
M  V30 5603 H 526.655 -2.31784 3.23297 0
M  V30 5604 H 523.394 -2.06823 6.22017 0
M  V30 5605 H 522.914 -3.28707 5.01709 0
M  V30 5606 H 524.593 -3.22606 5.60834 0
M  V30 5607 N 524.725 -1.39134 -0.740242 0
M  V30 5608 C 525.655 -1.40165 -1.86751 0
M  V30 5609 C 526.636 -0.265708 -1.68012 0
M  V30 5610 O 527.821 -0.47076 -1.88408 0
M  V30 5611 C 524.951 -1.2392 -3.2444 0
M  V30 5612 C 523.905 -2.34858 -3.57807 0
M  V30 5613 C 523.231 -2.03707 -4.94376 0
M  V30 5614 C 524.531 -3.77159 -3.61315 0
M  V30 5615 H 526.225 -2.345 -1.86145 0
M  V30 5616 H 523.771 -1.12875 -0.89416 0
M  V30 5617 H 525.724 -1.23263 -4.02969 0
M  V30 5618 H 524.448 -0.26051 -3.25559 0
M  V30 5619 H 523.107 -2.34723 -2.81604 0
M  V30 5620 H 522.755 -1.04289 -4.9207 0
M  V30 5621 H 522.455 -2.78016 -5.17669 0
M  V30 5622 H 523.979 -2.04691 -5.75268 0
M  V30 5623 H 525.393 -3.79252 -4.29931 0
M  V30 5624 H 523.79 -4.50784 -3.96124 0
M  V30 5625 H 524.86 -4.08513 -2.61238 0
M  V30 5626 N 526.204 0.969867 -1.24223 0
M  V30 5627 C 527.432 1.74756 -1.10761 0
M  V30 5628 C 527.847 1.85713 0.340041 0
M  V30 5629 O 527.204 1.34389 1.23474 0
M  V30 5630 C 527.255 3.16915 -1.73917 0
M  V30 5631 O 526.976 3.06511 -3.13021 0
M  V30 5632 C 528.477 4.11032 -1.66036 0
M  V30 5633 H 525.697 0.548092 -0.387087 0
M  V30 5634 H 528.241 1.2178 -1.64286 0
M  V30 5635 H 526.396 3.66884 -1.244 0
M  V30 5636 H 526.81 3.96079 -3.43834 0
M  V30 5637 H 528.284 5.08446 -2.14911 0
M  V30 5638 H 528.761 4.34785 -0.621159 0
M  V30 5639 H 529.367 3.66972 -2.14969 0
M  V30 5640 N 527.682 1.05563 1.17022 0
M  V30 5641 C 529.098 0.777684 1.39371 0
M  V30 5642 C 529.298 -0.626269 1.91521 0
M  V30 5643 O 528.354 -1.38806 2.10924 0
M  V30 5644 C 529.667 1.83642 2.3811 0
M  V30 5645 C 531.215 1.85907 2.51809 0
M  V30 5646 C 531.69 2.90813 3.53824 0
M  V30 5647 N 533.181 2.898 3.61345 0
M  V30 5648 C 533.916 3.6762 4.40049 0
M  V30 5649 N 533.412 4.55237 5.22237 0
M  V30 5650 N 535.205 3.56044 4.34959 0
M  V30 5651 H 527.356 1.9614 0.815047 0
M  V30 5652 H 529.619 0.849527 0.420722 0
M  V30 5653 H 529.325 2.84425 2.06871 0
M  V30 5654 H 529.199 1.6812 3.37662 0
M  V30 5655 H 531.586 0.857865 2.82356 0
M  V30 5656 H 531.667 2.05506 1.52318 0
M  V30 5657 H 531.311 3.91122 3.24015 0
M  V30 5658 H 531.241 2.68465 4.53028 0
M  V30 5659 H 533.732 2.26274 3.02669 0
M  V30 5660 H 534.045 5.11291 5.79484 0
M  V30 5661 H 532.39 4.59296 5.21605 0
M  V30 5662 H 535.581 2.86986 3.69806 0
M  V30 5663 H 535.754 4.16938 4.96051 0
M  V30 5664 N 529.16 -1.33526 0.837174 0
M  V30 5665 C 530.09 -2.31764 0.284206 0
M  V30 5666 C 531.071 -1.58896 -0.607142 0
M  V30 5667 O 532.256 -1.86798 -0.531047 0
M  V30 5668 C 529.386 -3.43029 -0.542962 0
M  V30 5669 C 528.34 -4.27255 0.252451 0
M  V30 5670 C 527.666 -5.3012 -0.69836 0
M  V30 5671 C 528.966 -5.01229 1.46858 0
M  V30 5672 H 530.66 -2.78262 1.10502 0
M  V30 5673 H 528.206 -1.3378 0.532812 0
M  V30 5674 H 530.159 -4.1078 -0.940096 0
M  V30 5675 H 528.883 -2.95216 -1.39697 0
M  V30 5676 H 527.542 -3.61127 0.631124 0
M  V30 5677 H 527.19 -4.78564 -1.54872 0
M  V30 5678 H 526.89 -5.87353 -0.170274 0
M  V30 5679 H 528.414 -6.00737 -1.09305 0
M  V30 5680 H 529.828 -5.61756 1.14469 0
M  V30 5681 H 528.225 -5.68104 1.93333 0
M  V30 5682 H 529.295 -4.301 2.23924 0
M  V30 5683 N 530.638 -0.59345 -1.46 0
M  V30 5684 C 531.886 -0.082988 -2.0193 0
M  V30 5685 C 532.207 1.28569 -1.46612 0
M  V30 5686 O 531.477 1.84629 -0.654909 0
M  V30 5687 H 530.057 -0.0276882 -0.746487 0
M  V30 5688 H 532.719 -0.771657 -1.78973 0
M  V30 5689 H 531.815 -0.022079 -3.12092 0
M  V30 5690 N 532.116 1.54067 -0.331816 0
M  V30 5691 C 533.362 2.01012 0.268667 0
M  V30 5692 C 533.695 1.2195 1.51136 0
M  V30 5693 O 532.97 0.303972 1.9211 0
M  V30 5694 C 533.253 3.55158 0.59456 0
M  V30 5695 C 533.106 4.4494 -0.659409 0
M  V30 5696 C 534.425 4.16939 1.4089 0
M  V30 5697 H 531.544 0.730698 0.0961756 0
M  V30 5698 H 534.186 1.84593 -0.450031 0
M  V30 5699 H 532.336 3.6928 1.20685 0
M  V30 5700 H 534.008 4.42675 -1.29756 0
M  V30 5701 H 532.251 4.1428 -1.28665 0
M  V30 5702 H 532.922 5.50643 -0.386804 0
M  V30 5703 H 535.398 4.06443 0.891272 0
M  V30 5704 H 534.274 5.24889 1.60569 0
M  V30 5705 H 534.535 3.70798 2.40752 0
M  V30 5706 N 533.594 0.0601682 1.57485 0
M  V30 5707 C 534.504 -0.926121 2.15546 0
M  V30 5708 C 535.52 -1.33532 1.11558 0
M  V30 5709 O 536.696 -1.4104 1.4377 0
M  V30 5710 C 533.761 -2.17952 2.69625 0
M  V30 5711 C 532.822 -1.82783 3.88444 0
M  V30 5712 C 532.055 -3.02148 4.39935 0
M  V30 5713 O 532.278 -4.15803 3.90466 0
M  V30 5714 O 531.212 -2.82639 5.31412 0
M  V30 5715 H 535.038 -0.462289 3.00161 0
M  V30 5716 H 532.623 -0.162246 1.48516 0
M  V30 5717 H 534.505 -2.91474 3.04337 0
M  V30 5718 H 533.18 -2.63456 1.88077 0
M  V30 5719 H 532.087 -1.06549 3.58606 0
M  V30 5720 H 533.42 -1.42072 4.7125 0
M  V30 5721 N 535.072 -1.5615 -0.213296 0
M  V30 5722 C 536.483 -1.69645 -0.779582 0
M  V30 5723 C 536.834 -0.663615 -1.84636 0
M  V30 5724 O 535.959 0.183633 -2.15619 0
M  V30 5725 C 536.554 -3.07567 -1.42084 0
M  V30 5726 C 535.113 -3.22889 -1.93442 0
M  V30 5727 C 534.26 -2.65581 -0.797612 0
M  V30 5728 H 537.211 -1.58696 0.0114951 0
M  V30 5729 H 537.232 -3.03884 -2.28986 0
M  V30 5730 H 536.744 -3.82716 -0.644187 0
M  V30 5731 H 534.845 -2.52623 -2.73884 0
M  V30 5732 H 534.958 -4.30197 -2.10872 0
M  V30 5733 H 533.322 -2.24278 -1.20712 0
M  V30 5734 H 534.105 -3.43284 -0.033494 0
M  V30 5735 N 536.55 0.480323 -1.50102 0
M  V30 5736 C 537.775 1.26126 -1.64642 0
M  V30 5737 C 538.2 1.85257 -0.325823 0
M  V30 5738 O 537.558 1.66854 0.709194 0
M  V30 5739 C 537.606 2.35243 -2.73301 0
M  V30 5740 O 536.71 3.39646 -2.33911 0
M  V30 5741 H 536.051 0.371463 -0.550374 0
M  V30 5742 H 538.581 0.572696 -1.96421 0
M  V30 5743 H 538.591 2.80695 -2.96098 0
M  V30 5744 H 537.266 1.91574 -3.6915 0
M  V30 5745 H 535.843 2.99969 -2.21525 0
M  V30 5746 N 538.028 1.39524 0.732853 0
M  V30 5747 C 539.305 1.27373 1.48444 0
M  V30 5748 C 539.685 -0.115725 2.10783 0
M  V30 5749 O 539.033 -1.12713 1.98766 0
M  V30 5750 C 539.243 2.39966 2.53412 0
M  V30 5751 C 540.591 2.79384 3.19733 0
M  V30 5752 O 541.615 2.39431 2.63725 0
M  V30 5753 O 540.474 3.48353 4.21085 0
M  V30 5754 H 537.568 0.499272 0.659285 0
M  V30 5755 H 540.114 1.51403 0.766496 0
M  V30 5756 H 538.886 3.32845 2.05742 0
M  V30 5757 H 538.509 2.17612 3.32762 0
M  V30 5758 N 539.506 -0.963266 1.24736 0
M  V30 5759 C 540.783 -1.68248 0.9976 0
M  V30 5760 C 541.163 -2.05599 -0.478776 0
M  V30 5761 O 540.511 -1.7626 -1.45412 0
M  V30 5762 C 540.721 -2.91118 1.92487 0
M  V30 5763 C 542.069 -3.63261 2.19833 0
M  V30 5764 O 543.093 -3.01184 1.90176 0
M  V30 5765 O 541.952 -4.75019 2.7022 0
M  V30 5766 H 539.046 -0.735744 0.377637 0
M  V30 5767 H 541.592 -1.01696 1.35853 0
M  V30 5768 H 540.364 -2.60242 2.92215 0
M  V30 5769 H 539.987 -3.65402 1.56738 0
M  V30 5770 N 540.985 -1.06182 -1.16461 0
M  V30 5771 C 542.262 -0.691364 -1.82974 0
M  V30 5772 C 542.642 0.827377 -1.9421 0
M  V30 5773 O 541.99 1.73723 -1.48434 0
M  V30 5774 C 542.2 -1.39199 -3.20038 0
M  V30 5775 C 543.548 -1.53647 -3.95825 0
M  V30 5776 O 544.572 -1.35181 -3.29552 0
M  V30 5777 O 543.431 -1.83932 -5.14618 0
M  V30 5778 H 540.525 -0.244605 -0.789998 0
M  V30 5779 H 543.071 -1.16203 -1.23673 0
M  V30 5780 H 541.843 -2.42766 -3.06888 0
M  V30 5781 H 541.466 -0.911335 -3.87015 0
M  V30 5782 N 542.463 1.3308 -0.844243 0
M  V30 5783 C 543.703 1.99414 -0.448697 0
M  V30 5784 C 544.067 1.65398 0.975058 0
M  V30 5785 O 545.268 2.24741 1.47461 0
M  V30 5786 C 543.539 3.51081 -0.669089 0
M  V30 5787 S 545.098 4.37241 -0.369564 0
M  V30 5788 H 541.916 0.690736 -0.168538 0
M  V30 5789 H 544.518 1.61977 -1.0947 0
M  V30 5790 H 543.222 3.73326 -1.70457 0
M  V30 5791 H 542.753 3.93399 -0.00913211 0
M  V30 5792 H 544.768 4.89568 0.808552 0
M  V30 5793 N 543.941 0.601185 1.45683 0
M  V30 5794 C 545.187 0.0940202 2.02582 0
M  V30 5795 C 545.52 -1.26972 1.46941 0
M  V30 5796 O 544.795 -1.83613 0.641612 0
M  V30 5797 C 545.078 0.0481715 3.60068 0
M  V30 5798 C 544.931 1.44212 4.26055 0
M  V30 5799 C 546.25 -0.642975 4.35378 0
M  V30 5800 H 543.369 0.0356404 0.736138 0
M  V30 5801 H 546.011 0.771929 1.73612 0
M  V30 5802 H 544.161 -0.529128 3.8488 0
M  V30 5803 H 545.833 2.06601 4.12449 0
M  V30 5804 H 544.076 2.00465 3.84703 0
M  V30 5805 H 544.747 1.36234 5.34925 0
M  V30 5806 H 547.223 -0.152351 4.15821 0
M  V30 5807 H 546.099 -0.644141 5.45107 0
M  V30 5808 H 546.36 -1.70785 4.0778 0
M  V30 5809 N 545.419 -1.53889 0.339982 0
M  V30 5810 C 546.644 -2.05741 -0.261798 0
M  V30 5811 C 547.069 -1.21354 -1.43718 0
M  V30 5812 O 546.427 -0.22645 -1.7988 0
M  V30 5813 C 546.475 -3.54542 -0.658228 0
M  V30 5814 O 545.579 -3.7302 -1.75869 0
M  V30 5815 H 544.92 -0.662529 -0.0441672 0
M  V30 5816 H 547.45 -1.98568 0.493161 0
M  V30 5817 H 547.46 -3.9711 -0.936368 0
M  V30 5818 H 546.135 -4.15412 0.201358 0
M  V30 5819 H 544.712 -3.42355 -1.47809 0
M  V30 5820 N 546.897 -0.0685191 -1.57451 0
M  V30 5821 C 548.143 0.602239 -1.93652 0
M  V30 5822 C 548.476 1.6946 -0.948526 0
M  V30 5823 O 547.751 1.94487 0.022782 0
M  V30 5824 C 548.034 1.18223 -3.4014 0
M  V30 5825 C 547.887 0.0967431 -4.49696 0
M  V30 5826 C 549.206 2.08872 -3.87377 0
M  V30 5827 H 546.325 0.217453 -0.70419 0
M  V30 5828 H 548.967 -0.133821 -1.89528 0
M  V30 5829 H 547.117 1.80953 -3.43785 0
M  V30 5830 H 548.789 -0.536155 -4.58174 0
M  V30 5831 H 547.032 -0.573063 -4.29998 0
M  V30 5832 H 547.703 0.542894 -5.49324 0
M  V30 5833 H 550.179 1.56081 -3.85717 0
M  V30 5834 H 549.055 2.46389 -4.90493 0
M  V30 5835 H 549.316 2.99572 -3.25129 0
M  V30 5836 N 548.375 1.56261 0.205012 0
M  V30 5837 C 549.307 1.90266 1.27795 0
M  V30 5838 C 550.32 0.792397 1.42214 0
M  V30 5839 O 551.509 1.07077 1.42817 0
M  V30 5840 C 548.609 2.11074 2.65143 0
M  V30 5841 C 547.782 3.42176 2.7246 0
M  V30 5842 C 546.841 3.52216 3.90936 0
M  V30 5843 O 545.867 4.25119 3.78501 0
M  V30 5844 N 547.069 2.84573 5.05963 0
M  V30 5845 H 549.834 2.82896 0.989434 0
M  V30 5846 H 547.395 1.57008 0.394981 0
M  V30 5847 H 549.387 2.15089 3.4281 0
M  V30 5848 H 547.957 1.2499 2.86524 0
M  V30 5849 H 547.177 3.50116 1.81142 0
M  V30 5850 H 548.465 4.28509 2.74331 0
M  V30 5851 H 547.863 2.25152 5.18963 0
M  V30 5852 H 546.42 2.94228 5.81613 0
M  V30 5853 N 549.853 -0.472356 1.50355 0
M  V30 5854 C 550.803 -1.56809 1.65514 0
M  V30 5855 C 551.787 -1.5261 0.509801 0
M  V30 5856 O 552.979 -1.59655 0.764145 0
M  V30 5857 C 550.108 -2.9526 1.75146 0
M  V30 5858 C 549.194 -3.04348 2.95353 0
M  V30 5859 N 549.585 -2.83253 4.19048 0
M  V30 5860 C 547.883 -3.35482 2.93884 0
M  V30 5861 C 548.584 -2.97273 5.00003 0
M  V30 5862 N 547.56 -3.27418 4.33934 0
M  V30 5863 H 551.362 -1.39197 2.58846 0
M  V30 5864 H 548.876 -0.67906 1.47521 0
M  V30 5865 H 550.873 -3.74044 1.8411 0
M  V30 5866 H 549.533 -3.1392 0.829717 0
M  V30 5867 H 550.544 -2.5886 4.48567 0
M  V30 5868 H 547.221 -3.60138 2.11204 0
M  V30 5869 H 548.611 -2.85214 6.08361 0
M  V30 5870 N 551.331 -1.39911 -0.725443 0
M  V30 5871 C 552.577 -1.37858 -1.48738 0
M  V30 5872 C 552.91 0.0224187 -1.94187 0
M  V30 5873 O 552.185 0.989204 -1.67466 0
M  V30 5874 C 552.468 -2.3594 -2.72038 0
M  V30 5875 C 552.321 -3.85023 -2.32546 0
M  V30 5876 C 553.64 -2.31704 -3.74167 0
M  V30 5877 H 550.759 -0.502074 -0.539528 0
M  V30 5878 H 553.401 -1.70974 -0.828728 0
M  V30 5879 H 551.551 -2.0783 -3.28236 0
M  V30 5880 H 553.223 -4.2392 -1.81905 0
M  V30 5881 H 551.466 -4.01334 -1.64661 0
M  V30 5882 H 552.137 -4.49152 -3.20884 0
M  V30 5883 H 554.613 -2.5658 -3.27576 0
M  V30 5884 H 553.489 -3.02395 -4.58092 0
M  V30 5885 H 553.75 -1.3253 -4.21768 0
M  V30 5886 N 552.809 0.956637 -1.25245 0
M  V30 5887 C 554.049 1.71585 -1.11076 0
M  V30 5888 C 554.413 1.88916 0.34277 0
M  V30 5889 O 555.614 2.61875 0.606227 0
M  V30 5890 C 553.885 3.06267 -1.84215 0
M  V30 5891 S 555.444 3.97469 -1.85914 0
M  V30 5892 H 552.262 0.589803 -0.397055 0
M  V30 5893 H 554.864 1.14114 -1.58739 0
M  V30 5894 H 553.568 2.91322 -2.89067 0
M  V30 5895 H 553.099 3.688 -1.36931 0
M  V30 5896 H 555.114 4.87316 -0.93474 0
M  V30 5897 N 554.287 1.06798 1.15896 0
M  V30 5898 C 555.515 0.808694 1.90441 0
M  V30 5899 C 555.93 -0.637506 1.77711 0
M  V30 5900 O 555.287 -1.43684 1.12522 0
M  V30 5901 C 555.338 1.20068 3.40978 0
M  V30 5902 O 555.059 2.59013 3.53333 0
M  V30 5903 C 556.56 0.96987 4.3256 0
M  V30 5904 H 553.78 0.292809 0.603742 0
M  V30 5905 H 556.324 1.42296 1.46874 0
M  V30 5906 H 554.479 0.630842 3.82229 0
M  V30 5907 H 554.893 2.7485 4.46719 0
M  V30 5908 H 556.367 1.29371 5.36626 0
M  V30 5909 H 556.844 -0.0941209 4.39099 0
M  V30 5910 H 557.45 1.52433 3.97044 0
M  V30 5911 N 555.766 -1.3263 0.851289 0
M  V30 5912 C 557.015 -1.96633 0.449267 0
M  V30 5913 C 557.328 -1.68131 -0.999562 0
M  V30 5914 O 558.534 -2.25845 -1.50685 0
M  V30 5915 C 556.99 -3.51946 0.752446 0
M  V30 5916 C 556.598 -3.89311 2.21678 0
M  V30 5917 C 558.342 -4.22437 0.417983 0
M  V30 5918 C 556.249 -5.37655 2.46336 0
M  V30 5919 H 555.179 -0.735888 0.164269 0
M  V30 5920 H 557.83 -1.51073 1.0416 0
M  V30 5921 H 556.212 -3.95899 0.0895858 0
M  V30 5922 H 557.386 -3.56378 2.92115 0
M  V30 5923 H 555.701 -3.31836 2.51543 0
M  V30 5924 H 558.298 -5.31549 0.579674 0
M  V30 5925 H 558.641 -4.11349 -0.640115 0
M  V30 5926 H 559.174 -3.84057 1.03659 0
M  V30 5927 H 555.913 -5.5376 3.50757 0
M  V30 5928 H 555.433 -5.72005 1.80473 0
M  V30 5929 H 557.112 -6.04695 2.30115 0
M  V30 5930 N 557.244 -0.608902 -1.45362 0
M  V30 5931 C 558.49 -0.104762 -2.02529 0
M  V30 5932 C 558.823 1.26191 -1.47613 0
M  V30 5933 O 558.098 1.8327 -0.65134 0
M  V30 5934 C 558.381 -0.0672661 -3.60037 0
M  V30 5935 C 558.234 -1.4647 -4.25284 0
M  V30 5936 C 559.553 0.619877 -4.35713 0
M  V30 5937 H 556.672 -0.0395438 -0.735938 0
M  V30 5938 H 559.314 -0.781126 -1.73201 0
M  V30 5939 H 557.464 0.50871 -3.85155 0
M  V30 5940 H 559.136 -2.08785 -4.11347 0
M  V30 5941 H 557.379 -2.02502 -3.83634 0
M  V30 5942 H 558.05 -1.39069 -5.34195 0
M  V30 5943 H 560.526 0.130297 -4.15896 0
M  V30 5944 H 559.402 0.615224 -5.45441 0
M  V30 5945 H 559.663 1.68621 -4.0868 0
M  V30 5946 N 558.722 1.53707 -0.348139 0
M  V30 5947 C 559.947 2.05877 0.250883 0
M  V30 5948 C 560.372 1.22115 1.43072 0
M  V30 5949 O 559.73 0.235986 1.79758 0
M  V30 5950 C 559.778 3.54886 0.639416 0
M  V30 5951 O 558.882 3.73948 1.73888 0
M  V30 5952 H 558.223 0.662754 0.040653 0
M  V30 5953 H 560.753 1.98303 -0.503685 0
M  V30 5954 H 560.763 3.97601 0.915295 0
M  V30 5955 H 559.438 4.153 -0.223386 0
M  V30 5956 H 558.015 3.43134 1.45991 0
M  V30 5957 N 560.2 0.0768682 1.57412 0
M  V30 5958 C 561.447 -0.591085 1.93681 0
M  V30 5959 C 561.775 -1.69311 0.957286 0
M  V30 5960 O 561.03 -1.95682 -0.0262428 0
M  V30 5961 C 561.329 -1.20268 3.36557 0
M  V30 5962 C 560.995 -0.226286 4.50332 0
M  V30 5963 C 559.657 0.0423142 4.81181 0
M  V30 5964 C 562.009 0.441415 5.19327 0
M  V30 5965 C 559.337 0.985616 5.78362 0
M  V30 5966 C 561.689 1.37307 6.17519 0
M  V30 5967 C 560.353 1.65009 6.46783 0
M  V30 5968 H 559.623 -0.216293 0.70873 0
M  V30 5969 H 562.27 0.148824 1.90921 0
M  V30 5970 H 560.575 -2.01844 3.35807 0
M  V30 5971 H 562.272 -1.72688 3.61911 0
M  V30 5972 H 558.862 -0.445821 4.26275 0
M  V30 5973 H 563.046 0.247023 4.95685 0
M  V30 5974 H 558.302 1.20743 5.99359 0
M  V30 5975 H 562.476 1.89637 6.70083 0
M  V30 5976 H 560.103 2.38263 7.21897 0
M  V30 5977 N 561.678 -1.56367 -0.196722 0
M  V30 5978 C 563.094 -1.49916 -0.54749 0
M  V30 5979 C 563.294 -0.77659 -1.85934 0
M  V30 5980 O 562.35 -0.32644 -2.50381 0
M  V30 5981 C 563.663 -2.94577 -0.603734 0
M  V30 5982 C 565.211 -3.05239 -0.692677 0
M  V30 5983 C 565.686 -4.51308 -0.780046 0
M  V30 5984 N 567.177 -4.55453 -0.843616 0
M  V30 5985 C 567.912 -5.65786 -0.931358 0
M  V30 5986 N 567.408 -6.85812 -0.981503 0
M  V30 5987 N 569.201 -5.53695 -0.968421 0
M  V30 5988 H 561.352 -2.01761 0.663803 0
M  V30 5989 H 563.615 -0.918094 0.236238 0
M  V30 5990 H 563.321 -3.50494 0.29105 0
M  V30 5991 H 563.195 -3.47841 -1.45898 0
M  V30 5992 H 565.582 -2.49372 -1.57789 0
M  V30 5993 H 565.663 -2.55103 0.188736 0
M  V30 5994 H 565.307 -5.078 0.100811 0
M  V30 5995 H 565.237 -4.99176 -1.67724 0
M  V30 5996 H 567.728 -3.69025 -0.814176 0
M  V30 5997 H 568.041 -7.65648 -1.04892 0
M  V30 5998 H 566.386 -6.88474 -0.950208 0
M  V30 5999 H 569.577 -4.58848 -0.926072 0
M  V30 6000 H 569.75 -6.39708 -1.03334 0
M  V30 6001 N 563.156 0.464375 -1.50603 0
M  V30 6002 C 564.381 1.24372 -1.65971 0
M  V30 6003 C 564.806 1.84901 -0.345453 0
M  V30 6004 O 564.164 1.67596 0.691457 0
M  V30 6005 C 564.212 2.32331 -2.7578 0
M  V30 6006 O 563.316 3.37146 -2.375 0
M  V30 6007 H 562.657 0.365604 -0.554283 0
M  V30 6008 H 565.187 0.55183 -1.97018 0
M  V30 6009 H 565.197 2.77539 -2.99059 0
M  V30 6010 H 563.872 1.87648 -3.71162 0
M  V30 6011 H 562.449 2.97602 -2.24694 0
M  V30 6012 N 564.634 1.40294 0.718013 0
M  V30 6013 C 565.597 1.4012 1.81381 0
M  V30 6014 C 566.597 0.295405 1.58063 0
M  V30 6015 O 567.787 0.554187 1.6515 0
M  V30 6016 C 564.919 1.19056 3.19435 0
M  V30 6017 H 566.112 2.37645 1.82933 0
M  V30 6018 H 563.665 1.26107 0.923405 0
M  V30 6019 H 564.4 0.222809 3.23534 0
M  V30 6020 H 564.185 1.99152 3.37758 0
M  V30 6021 H 565.675 1.21716 3.99468 0
M  V30 6022 N 566.112 -0.949982 1.2575 0
M  V30 6023 C 567.06 -2.06869 1.06339 0
M  V30 6024 C 568.054 -1.69399 -0.00708901 0
M  V30 6025 O 569.26 -1.79383 0.148897 0
M  V30 6026 H 565.635 -0.677197 0.326969 0
M  V30 6027 H 567.606 -2.20396 2.01167 0
M  V30 6028 C 566.355 -3.40503 0.703769 0
M  V30 6029 H 565.678 -3.69807 1.51931 0
M  V30 6030 H 567.118 -4.19623 0.607677 0
M  V30 6031 C 565.577 -3.31685 -0.5905 0
M  V30 6032 O 566.107 -3.67085 -1.63131 0
M  V30 6033 N 564.313 -2.84797 -0.577859 0
M  V30 6034 H 563.86 -2.56186 0.26951 0
M  V30 6035 H 563.818 -2.79279 -1.44398 0
M  V30 6036 N 567.59 -1.07411 -1.15328 0
M  V30 6037 C 568.52 -0.716472 -2.22236 0
M  V30 6038 C 569.501 0.296373 -1.67498 0
M  V30 6039 O 570.686 0.168989 -1.93463 0
M  V30 6040 C 567.816 -0.114142 -3.47112 0
M  V30 6041 C 566.77 -1.05421 -4.14814 0
M  V30 6042 C 566.096 -0.314604 -5.33774 0
M  V30 6043 C 567.396 -2.38808 -4.64508 0
M  V30 6044 H 569.09 -1.61029 -2.52408 0
M  V30 6045 H 566.636 -0.775702 -1.21321 0
M  V30 6046 H 568.589 0.148001 -4.2114 0
M  V30 6047 H 567.313 0.814755 -3.16274 0
M  V30 6048 H 565.972 -1.30128 -3.42728 0
M  V30 6049 H 565.62 0.617772 -4.99192 0
M  V30 6050 H 565.32 -0.941209 -5.80013 0
M  V30 6051 H 566.844 -0.0602747 -6.1057 0
M  V30 6052 H 568.258 -2.18424 -5.3006 0
M  V30 6053 H 566.655 -2.97069 -5.21412 0
M  V30 6054 H 567.725 -3.01067 -3.80114 0
M  V30 6055 N 569.068 1.32177 -0.85831 0
M  V30 6056 C 570.314 1.97417 -0.46417 0
M  V30 6057 C 570.647 1.67746 0.978514 0
M  V30 6058 O 569.922 0.967654 1.68721 0
M  V30 6059 C 570.205 3.53069 -0.708094 0
M  V30 6060 C 570.058 3.92357 -2.19946 0
M  V30 6061 C 571.377 4.39783 -0.166881 0
M  V30 6062 H 568.496 0.717097 -0.17012 0
M  V30 6063 H 571.138 1.56499 -1.07741 0
M  V30 6064 H 569.288 3.88054 -0.186128 0
M  V30 6065 H 570.96 3.67533 -2.78779 0
M  V30 6066 H 569.203 3.41384 -2.67656 0
M  V30 6067 H 569.874 5.00841 -2.32082 0
M  V30 6068 H 572.35 4.11556 -0.613285 0
M  V30 6069 H 571.226 5.47671 -0.367093 0
M  V30 6070 H 571.487 4.32196 0.930559 0
M  V30 6071 N 570.547 0.616602 1.45037 0
M  V30 6072 C 571.51 -0.0871112 2.29034 0
M  V30 6073 C 572.51 -0.786414 1.40258 0
M  V30 6074 O 573.7 -0.633207 1.62284 0
M  V30 6075 C 570.832 -1.13369 3.21497 0
M  V30 6076 H 572.025 0.651497 2.92738 0
M  V30 6077 H 569.578 0.376058 1.51709 0
M  V30 6078 H 570.313 -1.90277 2.62612 0
M  V30 6079 H 570.098 -0.636358 3.86902 0
M  V30 6080 H 571.588 -1.62627 3.84633 0
M  V30 6081 N 572.025 -1.5352 0.356285 0
M  V30 6082 C 572.988 -2.24071 -0.482182 0
M  V30 6083 C 573.988 -1.24531 -1.01729 0
M  V30 6084 O 575.178 -1.48876 -0.904513 0
M  V30 6085 C 572.31 -2.97025 -1.67299 0
M  V30 6086 H 573.503 -2.99596 0.135031 0
M  V30 6087 H 571.056 -1.55928 0.107825 0
M  V30 6088 H 571.791 -2.25719 -2.32855 0
M  V30 6089 H 571.576 -3.7005 -1.29636 0
M  V30 6090 H 573.066 -3.50683 -2.26741 0
M  V30 6091 N 573.503 -0.0852151 -1.57369 0
M  V30 6092 C 574.731 0.58946 -1.98325 0
M  V30 6093 C 575.146 1.62333 -0.96403 0
M  V30 6094 O 574.503 1.82438 0.0476395 0
M  V30 6095 C 574.554 1.24604 -3.39347 0
M  V30 6096 O 574.275 0.253532 -4.37366 0
M  V30 6097 C 575.776 2.00726 -3.95252 0
M  V30 6098 H 572.996 0.158783 -0.651942 0
M  V30 6099 H 575.54 -0.161584 -2.03861 0
M  V30 6100 H 573.695 1.94808 -3.34856 0
M  V30 6101 H 574.109 0.726207 -5.19448 0
M  V30 6102 H 575.583 2.42039 -4.96106 0
M  V30 6103 H 576.06 2.86919 -3.32527 0
M  V30 6104 H 576.666 1.3536 -4.03185 0
M  V30 6105 N 574.981 1.5647 0.188427 0
M  V30 6106 C 575.911 1.98101 1.23606 0
M  V30 6107 C 576.892 0.853961 1.47111 0
M  V30 6108 O 578.077 1.11879 1.58735 0
M  V30 6109 C 575.207 2.32624 2.57882 0
M  V30 6110 C 574.161 3.48129 2.48978 0
M  V30 6111 C 573.487 3.68347 3.87588 0
M  V30 6112 C 574.787 4.82112 2.00911 0
M  V30 6113 H 576.481 2.85864 0.890068 0
M  V30 6114 H 574.027 1.37532 0.426714 0
M  V30 6115 H 575.98 2.60343 3.3136 0
M  V30 6116 H 574.704 1.41751 2.94235 0
M  V30 6117 H 573.363 3.20511 1.77956 0
M  V30 6118 H 573.011 2.74793 4.21305 0
M  V30 6119 H 572.711 4.46055 3.82503 0
M  V30 6120 H 574.235 3.98449 4.62678 0
M  V30 6121 H 575.649 5.08819 2.64151 0
M  V30 6122 H 574.046 5.63337 2.06814 0
M  V30 6123 H 575.116 4.75249 0.96262 0
M  V30 6124 N 576.459 -0.456382 1.50847 0
M  V30 6125 C 577.707 -1.20497 1.62249 0
M  V30 6126 C 578.028 -1.92156 0.331839 0
M  V30 6127 O 577.298 -1.84751 -0.651443 0
M  V30 6128 H 575.878 -0.447775 0.597918 0
M  V30 6129 H 578.54 -0.525099 1.87693 0
M  V30 6130 H 577.636 -1.94492 2.44089 0
M  V30 6131 N 577.937 -1.40673 -0.710563 0
M  V30 6132 C 578.9 -1.4108 -1.80635 0
M  V30 6133 C 579.9 -0.303783 -1.57904 0
M  V30 6134 O 581.09 -0.562937 -1.64853 0
M  V30 6135 C 578.222 -1.20748 -3.18799 0
M  V30 6136 H 579.415 -2.38612 -1.81671 0
M  V30 6137 H 576.968 -1.26595 -0.916704 0
M  V30 6138 H 577.703 -0.239964 -3.23411 0
M  V30 6139 H 577.488 -2.00941 -3.36698 0
M  V30 6140 H 578.978 -1.23833 -3.98817 0
M  V30 6141 N 579.415 0.9433 -1.26252 0
M  V30 6142 C 580.664 1.68369 -1.11062 0
M  V30 6143 C 580.977 1.92514 0.346104 0
M  V30 6144 O 582.183 2.64358 0.618646 0
M  V30 6145 C 580.639 3.03171 -1.93946 0
M  V30 6146 C 580.247 2.86782 -3.4418 0
M  V30 6147 C 581.991 3.80916 -1.87359 0
M  V30 6148 C 579.898 4.17044 -4.19319 0
M  V30 6149 H 578.828 0.631469 -0.412023 0
M  V30 6150 H 581.479 1.04922 -1.50544 0
M  V30 6151 H 579.861 3.67587 -1.47296 0
M  V30 6152 H 581.035 2.31229 -3.98585 0
M  V30 6153 H 579.35 2.22482 -3.51981 0
M  V30 6154 H 581.947 4.77417 -2.40784 0
M  V30 6155 H 582.29 4.07658 -0.843857 0
M  V30 6156 H 582.823 3.2327 -2.31821 0
M  V30 6157 H 579.562 3.95487 -5.22753 0
M  V30 6158 H 579.082 4.72319 -3.69696 0
M  V30 6159 H 580.761 4.85513 -4.27651 0
M  V30 6160 N 580.893 1.08022 1.14757 0
M  V30 6161 C 581.823 0.728248 2.21853 0
M  V30 6162 C 582.804 -0.287486 1.67653 0
M  V30 6163 O 583.989 -0.158727 1.9355 0
M  V30 6164 C 581.119 0.132549 3.47047 0
M  V30 6165 C 580.073 1.07619 4.14249 0
M  V30 6166 C 579.399 0.342907 5.33599 0
M  V30 6167 C 580.699 2.41268 4.63235 0
M  V30 6168 H 582.393 1.62365 2.51551 0
M  V30 6169 H 579.939 0.782125 1.20908 0
M  V30 6170 H 581.892 -0.125665 4.21213 0
M  V30 6171 H 580.616 -0.797971 3.16702 0
M  V30 6172 H 579.275 1.31944 3.42033 0
M  V30 6173 H 578.923 -0.59129 4.99513 0
M  V30 6174 H 578.623 0.971955 5.79506 0
M  V30 6175 H 580.147 0.0926538 6.1053 0
M  V30 6176 H 581.561 2.21232 5.28894 0
M  V30 6177 H 579.958 2.9983 5.19829 0
M  V30 6178 H 581.028 3.03079 3.78512 0
M  V30 6179 N 582.371 -1.3172 0.865308 0
M  V30 6180 C 583.319 -2.30569 0.306674 0
M  V30 6181 C 584.313 -1.59317 -0.575724 0
M  V30 6182 O 585.519 -1.73961 -0.462343 0
M  V30 6183 H 581.894 -0.747681 0.0804834 0
M  V30 6184 H 583.865 -2.75165 1.15441 0
M  V30 6185 C 582.614 -3.44358 -0.480952 0
M  V30 6186 H 581.937 -3.99354 0.18876 0
M  V30 6187 H 583.377 -4.15652 -0.837241 0
M  V30 6188 C 581.836 -2.92574 -1.67039 0
M  V30 6189 O 582.366 -2.90954 -2.76964 0
M  V30 6190 N 580.572 -2.48835 -1.50097 0
M  V30 6191 H 580.119 -2.50353 -0.606738 0
M  V30 6192 H 580.077 -2.14543 -2.29823 0
M  V30 6193 N 583.85 -0.624285 -1.44708 0
M  V30 6194 C 585.266 -0.289322 -1.56956 0
M  V30 6195 C 585.466 1.20773 -1.61295 0
M  V30 6196 O 584.522 1.9915 -1.55227 0
M  V30 6197 C 585.835 -0.975215 -2.84447 0
M  V30 6198 C 587.383 -0.952709 -2.98148 0
M  V30 6199 C 587.858 -1.61893 -4.28433 0
M  V30 6200 N 589.349 -1.5852 -4.35231 0
M  V30 6201 C 590.084 -2.06969 -5.34744 0
M  V30 6202 N 589.58 -2.63579 -6.40701 0
M  V30 6203 N 591.373 -1.97638 -5.26209 0
M  V30 6204 H 583.524 -1.59612 -1.40135 0
M  V30 6205 H 585.787 -0.669592 -0.671081 0
M  V30 6206 H 585.493 -2.02999 -2.87201 0
M  V30 6207 H 585.367 -0.508749 -3.73753 0
M  V30 6208 H 587.754 0.093568 -2.94952 0
M  V30 6209 H 587.835 -1.4576 -2.10209 0
M  V30 6210 H 587.479 -2.66463 -4.32389 0
M  V30 6211 H 587.409 -1.08893 -5.15218 0
M  V30 6212 H 589.899 -1.17183 -3.59272 0
M  V30 6213 H 590.213 -2.98298 -7.12908 0
M  V30 6214 H 588.558 -2.67626 -6.41406 0
M  V30 6215 H 591.749 -1.5314 -4.42341 0
M  V30 6216 H 591.922 -2.35708 -6.03611 0
M  V30 6217 N 585.328 1.53329 -0.364422 0
M  V30 6218 C 586.258 2.28627 0.474543 0
M  V30 6219 C 587.239 1.31009 1.08492 0
M  V30 6220 O 588.424 1.59878 1.10239 0
M  V30 6221 C 585.554 3.07465 1.61501 0
M  V30 6222 C 584.508 4.1276 1.13194 0
M  V30 6223 C 583.834 4.79674 2.36255 0
M  V30 6224 C 585.134 5.21847 0.217507 0
M  V30 6225 H 586.828 2.99005 -0.153656 0
M  V30 6226 H 584.374 1.43803 -0.0753406 0
M  V30 6227 H 586.327 3.58889 2.20855 0
M  V30 6228 H 585.051 2.34775 2.27042 0
M  V30 6229 H 583.71 3.62281 0.56109 0
M  V30 6230 H 583.358 4.03557 3.00251 0
M  V30 6231 H 583.058 5.50827 2.04606 0
M  V30 6232 H 584.582 5.33892 2.96297 0
M  V30 6233 H 585.996 5.6878 0.718493 0
M  V30 6234 H 584.393 6.00099 -0.00806408 0
M  V30 6235 H 585.463 4.7921 -0.740653 0
M  V30 6236 N 586.806 0.0935595 1.57322 0
M  V30 6237 C 588.222 -0.263091 1.57417 0
M  V30 6238 C 588.422 -1.68526 1.1046 0
M  V30 6239 O 587.478 -2.40139 0.780357 0
M  V30 6240 C 588.791 -0.0529201 3.00653 0
M  V30 6241 C 590.339 -0.120788 3.12767 0
M  V30 6242 C 590.814 0.0613707 4.57959 0
M  V30 6243 N 592.305 0.00648534 4.632 0
M  V30 6244 C 593.04 0.122699 5.73269 0
M  V30 6245 N 592.536 0.29366 6.92177 0
M  V30 6246 N 594.329 0.0640787 5.62063 0
M  V30 6247 H 586.48 1.02277 1.86154 0
M  V30 6248 H 588.743 0.4007 0.859153 0
M  V30 6249 H 588.449 0.929279 3.39201 0
M  V30 6250 H 588.323 -0.795899 3.68708 0
M  V30 6251 H 590.71 -1.09349 2.74093 0
M  V30 6252 H 590.791 0.653656 2.47307 0
M  V30 6253 H 590.435 1.03093 4.97327 0
M  V30 6254 H 590.365 -0.732748 5.21477 0
M  V30 6255 H 592.856 -0.123173 3.77699 0
M  V30 6256 H 593.169 0.37389 7.71895 0
M  V30 6257 H 591.514 0.329307 6.94219 0
M  V30 6258 H 594.705 -0.0683396 4.6805 0
M  V30 6259 H 594.878 0.158097 6.47807 0
M  V30 6260 N 588.284 -1.56567 -0.180126 0
M  V30 6261 C 589.561 -1.7235 -0.924931 0
M  V30 6262 C 589.941 -0.652523 -2.00762 0
M  V30 6263 O 589.289 0.334115 -2.26044 0
M  V30 6264 C 589.499 -3.1523 -1.49771 0
M  V30 6265 C 590.847 -3.75921 -1.97405 0
M  V30 6266 O 591.871 -3.18452 -1.59583 0
M  V30 6267 O 590.73 -4.7681 -2.67048 0
M  V30 6268 H 587.824 -0.703502 -0.434758 0
M  V30 6269 H 590.37 -1.6886 -0.168647 0
M  V30 6270 H 589.142 -3.84656 -0.718027 0
M  V30 6271 H 588.765 -3.23009 -2.31842 0
M  V30 6272 N 589.762 0.448376 -1.51087 0
M  V30 6273 C 590.71 1.56407 -1.72161 0
M  V30 6274 C 591.704 1.58878 -0.587721 0
M  V30 6275 O 592.91 1.62755 -0.768822 0
M  V30 6276 H 589.285 0.519423 -0.543786 0
M  V30 6277 H 591.256 1.35803 -2.65707 0
M  V30 6278 C 590.005 2.94163 -1.85373 0
M  V30 6279 H 589.328 2.9299 -2.72024 0
M  V30 6280 H 590.768 3.71625 -2.04135 0
M  V30 6281 C 589.227 3.31317 -0.610803 0
M  V30 6282 O 589.757 4.00985 0.239636 0
M  V30 6283 N 587.963 2.86966 -0.458127 0
M  V30 6284 H 587.51 2.30443 -1.15124 0
M  V30 6285 H 587.468 3.12188 0.372289 0
M  V30 6286 N 591.24 1.41047 0.703093 0
M  V30 6287 C 592.187 1.42302 1.81711 0
M  V30 6288 C 593.157 0.278336 1.63751 0
M  V30 6289 O 594.342 0.478266 1.84709 0
M  V30 6290 C 591.482 1.30362 3.19531 0
M  V30 6291 C 590.595 2.54638 3.48975 0
M  V30 6292 C 589.73 2.35047 4.76368 0
M  V30 6293 C 588.769 3.54837 4.98756 0
M  V30 6294 N 587.906 3.34363 6.1737 0
M  V30 6295 H 592.746 2.37516 1.79973 0
M  V30 6296 H 590.283 1.1795 0.878983 0
M  V30 6297 H 592.241 1.21443 3.99134 0
M  V30 6298 H 590.871 0.387602 3.20464 0
M  V30 6299 H 589.923 2.74037 2.63833 0
M  V30 6300 H 591.235 3.43766 3.61423 0
M  V30 6301 H 590.389 2.23552 5.64012 0
M  V30 6302 H 589.128 1.43363 4.66153 0
M  V30 6303 H 588.133 3.66795 4.09563 0
M  V30 6304 H 589.358 4.47464 5.10835 0
M  V30 6305 H 587.304 2.45373 6.08382 0
M  V30 6306 H 587.221 4.17063 6.30551 0
M  V30 6307 H 588.489 3.26626 7.07768 0
M  V30 6308 N 592.718 -0.936591 1.26751 0
M  V30 6309 C 593.966 -1.67998 1.12343 0
M  V30 6310 C 594.287 -1.92137 -0.332938 0
M  V30 6311 O 593.557 -1.52132 -1.23421 0
M  V30 6312 H 592.137 -0.622609 0.412756 0
M  V30 6313 H 594.799 -1.12509 1.59147 0
M  V30 6314 H 593.895 -2.65185 1.64571 0
M  V30 6315 N 594.196 -1.08629 -1.14182 0
M  V30 6316 C 595.424 -0.838889 -1.8913 0
M  V30 6317 C 595.839 0.609153 -1.78703 0
M  V30 6318 O 595.196 1.41876 -1.14794 0
M  V30 6319 C 595.247 -1.25477 -3.39025 0
M  V30 6320 O 594.968 -2.64601 -3.49167 0
M  V30 6321 C 596.469 -1.03856 -4.30963 0
M  V30 6322 H 593.689 -0.302377 -0.599007 0
M  V30 6323 H 596.233 -1.44615 -1.44592 0
M  V30 6324 H 594.388 -0.691571 -3.81177 0
M  V30 6325 H 594.802 -2.81922 -4.42289 0
M  V30 6326 H 596.276 -1.37892 -5.345 0
M  V30 6327 H 596.753 0.0242522 -4.39193 0
M  V30 6328 H 597.359 -1.58731 -3.94569 0
M  V30 6329 N 595.674 1.31259 -0.872281 0
M  V30 6330 C 597.085 1.78822 -0.536617 0
M  V30 6331 C 597.436 1.71855 0.946594 0
M  V30 6332 O 596.561 1.28769 1.73918 0
M  V30 6333 C 597.156 3.24698 -0.967294 0
M  V30 6334 C 595.715 3.70147 -0.683251 0
M  V30 6335 C 594.862 2.51994 -1.15733 0
M  V30 6336 H 597.813 1.18308 -1.05777 0
M  V30 6337 H 597.834 3.79386 -0.290929 0
M  V30 6338 H 597.346 3.29737 -2.04683 0
M  V30 6339 H 595.447 3.70607 0.384825 0
M  V30 6340 H 595.56 4.62183 -1.2619 0
M  V30 6341 H 593.924 2.48078 -0.577024 0
M  V30 6342 H 594.707 2.59778 -2.24434 0
M  V30 6343 N 597.152 0.631951 1.44375 0
M  V30 6344 C 598.568 0.297642 1.568 0
M  V30 6345 C 598.768 -1.19916 1.61934 0
M  V30 6346 O 597.824 -1.98324 1.56281 0
M  V30 6347 C 599.137 0.990286 2.83926 0
M  V30 6348 C 600.685 0.968507 2.97639 0
M  V30 6349 C 601.16 1.64163 4.27568 0
M  V30 6350 N 602.651 1.60826 4.34384 0
M  V30 6351 C 603.386 2.09802 5.33639 0
M  V30 6352 N 602.882 2.66973 6.39294 0
M  V30 6353 N 604.675 2.00426 5.25153 0
M  V30 6354 H 596.826 1.60353 1.39286 0
M  V30 6355 H 599.089 0.673142 0.667521 0
M  V30 6356 H 598.795 2.04519 2.8612 0
M  V30 6357 H 598.669 0.528563 3.73478 0
M  V30 6358 H 601.056 -0.0779247 2.94997 0
M  V30 6359 H 601.137 1.46873 2.09433 0
M  V30 6360 H 600.781 2.68752 4.3097 0
M  V30 6361 H 600.711 1.11624 5.14634 0
M  V30 6362 H 603.202 1.19087 3.58646 0
M  V30 6363 H 603.515 3.02074 7.11316 0
M  V30 6364 H 601.86 2.71024 6.39977 0
M  V30 6365 H 605.051 1.55483 4.41523 0
M  V30 6366 H 605.224 2.38906 6.02352 0
M  V30 6367 N 598.631 -1.53133 0.372548 0
M  V30 6368 C 599.561 -2.28876 -0.462412 0
M  V30 6369 C 600.542 -1.31583 -1.07796 0
M  V30 6370 O 601.727 -1.60461 -1.09389 0
M  V30 6371 C 598.857 -3.08317 -1.59868 0
M  V30 6372 C 597.811 -4.13355 -1.11003 0
M  V30 6373 C 597.137 -4.8092 -2.33708 0
M  V30 6374 C 598.437 -5.21955 -0.18983 0
M  V30 6375 H 600.131 -2.9892 0.169511 0
M  V30 6376 H 597.677 -1.43761 0.0829658 0
M  V30 6377 H 599.63 -3.60055 -2.18949 0
M  V30 6378 H 598.354 -2.35976 -2.25794 0
M  V30 6379 H 597.013 -3.62573 -0.541869 0
M  V30 6380 H 596.661 -4.05144 -2.98106 0
M  V30 6381 H 596.361 -5.51904 -2.01682 0
M  V30 6382 H 597.885 -5.35455 -2.93462 0
M  V30 6383 H 599.299 -5.69153 -0.688319 0
M  V30 6384 H 597.696 -6.00087 0.0398887 0
M  V30 6385 H 598.766 -4.78811 0.766057 0
M  V30 6386 N 600.109 -0.101901 -1.5727 0
M  V30 6387 C 601.525 0.254739 -1.57554 0
M  V30 6388 C 601.725 1.67937 -1.11352 0
M  V30 6389 O 600.781 2.39722 -0.793081 0
M  V30 6390 C 602.094 0.036975 -3.00677 0
M  V30 6391 C 603.642 0.104199 -3.12827 0
M  V30 6392 C 604.117 -0.0856565 -4.5792 0
M  V30 6393 N 605.608 -0.0310498 -4.6319 0
M  V30 6394 C 606.343 -0.153099 -5.73196 0
M  V30 6395 N 605.839 -0.330364 -6.92012 0
M  V30 6396 N 607.632 -0.0938854 -5.62022 0
M  V30 6397 H 599.783 -1.03263 -1.85609 0
M  V30 6398 H 602.046 -0.405251 -0.857016 0
M  V30 6399 H 601.752 -0.947254 -3.38703 0
M  V30 6400 H 601.626 0.776335 -3.69124 0
M  V30 6401 H 604.013 1.07894 -2.74669 0
M  V30 6402 H 604.094 -0.666762 -2.46957 0
M  V30 6403 H 603.738 -1.05729 -4.96773 0
M  V30 6404 H 603.668 0.705082 -5.21858 0
M  V30 6405 H 606.159 0.103141 -3.77759 0
M  V30 6406 H 606.472 -0.41482 -7.71686 0
M  V30 6407 H 604.817 -0.366119 -6.94035 0
M  V30 6408 H 608.008 0.0435168 -4.6808 0
M  V30 6409 H 608.181 -0.19245 -6.47714 0
M  V30 6410 N 601.587 1.56661 0.17182 0
M  V30 6411 C 602.815 1.861 0.904115 0
M  V30 6412 C 603.23 0.687227 1.75848 0
M  V30 6413 O 602.587 -0.343671 1.79235 0
M  V30 6414 C 602.638 3.14568 1.78127 0
M  V30 6415 O 602.359 4.27422 0.961366 0
M  V30 6416 C 603.86 3.5735 2.62327 0
M  V30 6417 H 601.08 0.617445 0.262684 0
M  V30 6418 H 603.624 2.03775 0.172068 0
M  V30 6419 H 601.779 2.98721 2.46666 0
M  V30 6420 H 602.193 5.00725 1.56123 0
M  V30 6421 H 603.667 4.50144 3.1949 0
M  V30 6422 H 604.144 2.81445 3.37173 0
M  V30 6423 H 604.75 3.75807 1.99121 0
M  V30 6424 N 603.065 -0.440357 1.51323 0
M  V30 6425 C 604.293 -1.21255 1.67645 0
M  V30 6426 C 604.708 -1.85088 0.37252 0
M  V30 6427 O 604.065 -1.70582 -0.648683 0
M  V30 6428 C 604.116 -2.29881 2.78993 0
M  V30 6429 O 603.837 -1.68659 4.04334 0
M  V30 6430 C 605.338 -3.20214 3.06558 0
M  V30 6431 H 602.558 -0.36558 0.562666 0
M  V30 6432 H 605.102 -0.52214 1.97722 0
M  V30 6433 H 603.257 -2.94643 2.51524 0
M  V30 6434 H 603.671 -2.40426 4.6615 0
M  V30 6435 H 605.145 -3.92575 3.88058 0
M  V30 6436 H 605.622 -3.80794 2.18844 0
M  V30 6437 H 606.228 -2.61156 3.35675 0
M  V30 6438 N 604.543 -1.41418 -0.695603 0
M  V30 6439 C 605.789 -1.40982 -1.4578 0
M  V30 6440 C 606.122 -0.0187763 -1.94191 0
M  V30 6441 O 605.397 0.95346 -1.69527 0
M  V30 6442 C 605.68 -2.41657 -2.66972 0
M  V30 6443 C 605.533 -3.89869 -2.24327 0
M  V30 6444 C 606.852 -2.39589 -3.69168 0
M  V30 6445 H 603.971 -0.513405 -0.528757 0
M  V30 6446 H 606.613 -1.72693 -0.792275 0
M  V30 6447 H 604.763 -2.14746 -3.23754 0
M  V30 6448 H 606.435 -4.27683 -1.72872 0
M  V30 6449 H 604.678 -4.04737 -1.56111 0
M  V30 6450 H 605.349 -4.55857 -3.11285 0
M  V30 6451 H 607.825 -2.63471 -3.2206 0
M  V30 6452 H 606.701 -3.12044 -4.51575 0
M  V30 6453 H 606.962 -1.41447 -4.18862 0
M  V30 6454 N 606.021 0.929856 -1.27246 0
M  V30 6455 C 607.269 1.674 -1.13233 0
M  V30 6456 C 607.59 1.92311 0.322744 0
M  V30 6457 O 606.86 1.52784 1.22612 0
M  V30 6458 H 605.44 0.620411 -0.416052 0
M  V30 6459 H 608.102 1.11663 -1.59741 0
M  V30 6460 H 607.198 2.64308 -1.65975 0
M  V30 6461 N 607.499 1.09233 1.13605 0
M  V30 6462 C 608.745 0.828385 1.8511 0
M  V30 6463 C 609.078 -0.64437 1.83198 0
M  V30 6464 O 608.353 -1.47428 1.26867 0
M  V30 6465 C 608.636 1.36167 3.33363 0
M  V30 6466 C 608.489 2.90038 3.438 0
M  V30 6467 C 609.808 0.993819 4.28732 0
M  V30 6468 H 606.927 0.30239 0.672108 0
M  V30 6469 H 609.569 1.35339 1.33355 0
M  V30 6470 H 607.719 0.9151 3.77569 0
M  V30 6471 H 609.391 3.43128 3.08319 0
M  V30 6472 H 607.634 3.27271 2.84739 0
M  V30 6473 H 608.305 3.22428 4.48045 0
M  V30 6474 H 610.781 1.37893 3.92587 0
M  V30 6475 H 609.657 1.39403 5.30903 0
M  V30 6476 H 609.918 -0.0982206 4.41991 0
M  V30 6477 N 608.977 -1.30795 0.87923 0
M  V30 6478 C 610.254 -1.91145 0.415086 0
M  V30 6479 C 610.634 -1.7995 -1.10368 0
M  V30 6480 O 609.982 -1.21305 -1.93642 0
M  V30 6481 C 610.192 -3.37014 0.906778 0
M  V30 6482 C 611.54 -4.14101 0.938358 0
M  V30 6483 O 612.564 -3.45834 0.853053 0
M  V30 6484 O 611.423 -5.36054 1.06342 0
M  V30 6485 H 608.517 -0.81736 0.125905 0
M  V30 6486 H 611.063 -1.39401 0.967753 0
M  V30 6487 H 609.835 -3.3922 1.95053 0
M  V30 6488 H 609.458 -3.96204 0.332948 0
M  V30 6489 N 610.455 -0.639598 -1.44038 0
M  V30 6490 C 611.703 -0.147188 -2.01563 0
M  V30 6491 C 612.024 1.2384 -1.50628 0
M  V30 6492 O 611.294 1.82452 -0.713316 0
M  V30 6493 H 609.874 -0.0514231 -0.745228 0
M  V30 6494 H 612.536 -0.828205 -1.76428 0
M  V30 6495 H 611.632 -0.121358 -3.11864 0
M  V30 6496 N 611.933 1.52934 -0.380664 0
M  V30 6497 C 613.158 2.06363 0.207157 0
M  V30 6498 C 613.583 1.25122 1.4045 0
M  V30 6499 O 612.941 0.274062 1.79217 0
M  V30 6500 C 612.989 3.56162 0.563996 0
M  V30 6501 O 612.093 3.77552 1.65917 0
M  V30 6502 H 611.434 0.663468 0.0265859 0
M  V30 6503 H 613.964 1.9719 -0.545635 0
M  V30 6504 H 613.974 3.99453 0.830752 0
M  V30 6505 H 612.649 4.14732 -0.311427 0
M  V30 6506 H 611.226 3.46154 1.3868 0
M  V30 6507 N 613.412 0.11024 1.57214 0
M  V30 6508 C 614.342 -0.840002 2.17867 0
M  V30 6509 C 615.323 -1.28352 1.11624 0
M  V30 6510 O 616.508 -1.3477 1.39824 0
M  V30 6511 C 613.638 -2.09349 2.77111 0
M  V30 6512 C 612.592 -1.78807 3.8886 0
M  V30 6513 C 611.918 -3.11112 4.34872 0
M  V30 6514 C 613.218 -1.0632 5.11364 0
M  V30 6515 H 614.912 -0.334608 2.97524 0
M  V30 6516 H 612.458 -0.159502 1.43114 0
M  V30 6517 H 614.411 -2.76275 3.18198 0
M  V30 6518 H 613.135 -2.62198 1.9473 0
M  V30 6519 H 611.794 -1.14273 3.48335 0
M  V30 6520 H 611.442 -3.61877 3.49362 0
M  V30 6521 H 611.142 -2.91453 5.10224 0
M  V30 6522 H 612.666 -3.79171 4.78604 0
M  V30 6523 H 614.08 -1.63383 5.49526 0
M  V30 6524 H 612.477 -0.967876 5.92243 0
M  V30 6525 H 613.547 -0.0484569 4.84876 0
M  V30 6526 N 614.89 -1.56749 -0.16351 0
M  V30 6527 C 616.12 -1.86307 -0.892936 0
M  V30 6528 C 616.528 -0.6945 -1.75992 0
M  V30 6529 O 615.871 0.345384 -1.80424 0
M  V30 6530 C 615.933 -3.10372 -1.81409 0
M  V30 6531 C 615.597 -4.42913 -1.12593 0
M  V30 6532 C 616.594 -5.17608 -0.487661 0
M  V30 6533 C 614.279 -4.89646 -1.12035 0
M  V30 6534 C 616.273 -6.3723 0.14699 0
M  V30 6535 C 613.96 -6.09197 -0.481883 0
M  V30 6536 C 614.958 -6.82834 0.150678 0
M  V30 6537 O 614.646 -8.00116 0.779065 0
M  V30 6538 H 614.378 -0.622126 -0.264452 0
M  V30 6539 H 616.932 -2.04728 -0.166063 0
M  V30 6540 H 615.162 -2.87917 -2.58148 0
M  V30 6541 H 616.851 -3.26312 -2.41403 0
M  V30 6542 H 617.617 -4.8258 -0.483888 0
M  V30 6543 H 613.496 -4.32265 -1.60212 0
M  V30 6544 H 617.04 -6.94646 0.641325 0
M  V30 6545 H 612.937 -6.43688 -0.483266 0
M  V30 6546 H 613.705 -8.15678 0.679089 0
M  V30 6547 N 616.368 0.432326 -1.51554 0
M  V30 6548 C 617.315 1.52512 -1.7323 0
M  V30 6549 C 618.285 1.55863 -0.5741 0
M  V30 6550 O 619.47 1.72796 -0.809093 0
M  V30 6551 C 616.61 2.90183 -1.86783 0
M  V30 6552 C 615.723 2.96322 -3.14352 0
M  V30 6553 C 614.858 4.25147 -3.18471 0
M  V30 6554 C 613.897 4.25172 -4.40335 0
M  V30 6555 N 613.034 5.45529 -4.41975 0
M  V30 6556 H 617.874 1.33332 -2.66508 0
M  V30 6557 H 615.411 0.647613 -1.32077 0
M  V30 6558 H 617.369 3.70071 -1.92623 0
M  V30 6559 H 615.999 3.0791 -0.969087 0
M  V30 6560 H 615.051 2.09066 -3.17798 0
M  V30 6561 H 616.363 2.92203 -4.04251 0
M  V30 6562 H 615.517 5.13411 -3.23255 0
M  V30 6563 H 614.256 4.31929 -2.2647 0
M  V30 6564 H 613.261 3.353 -4.35723 0
M  V30 6565 H 614.486 4.20049 -5.33606 0
M  V30 6566 H 612.432 5.53024 -3.52847 0
M  V30 6567 H 612.349 5.43311 -5.25689 0
M  V30 6568 H 613.617 6.35812 -4.50958 0
M  V30 6569 N 617.846 1.41785 0.688094 0
M  V30 6570 C 619.074 1.44915 1.47673 0
M  V30 6571 C 619.489 0.0565786 1.88715 0
M  V30 6572 O 618.846 -0.92579 1.57275 0
M  V30 6573 C 618.897 2.36452 2.73446 0
M  V30 6574 O 618.618 3.7029 2.34131 0
M  V30 6575 C 620.119 2.48463 3.67125 0
M  V30 6576 H 617.339 0.493324 0.454832 0
M  V30 6577 H 619.883 1.86153 0.846594 0
M  V30 6578 H 618.038 1.98502 3.3268 0
M  V30 6579 H 618.452 4.19183 3.15255 0
M  V30 6580 H 619.926 3.16662 4.52138 0
M  V30 6581 H 620.403 1.51826 4.12123 0
M  V30 6582 H 621.009 2.8708 3.13792 0
M  V30 6583 N 619.324 -0.923095 1.27737 0
M  V30 6584 C 620.274 -2.01061 1.0751 0
M  V30 6585 C 621.258 -1.609 0.00165451 0
M  V30 6586 O 622.45 -1.75618 0.220724 0
M  V30 6587 C 619.579 -3.35467 0.729162 0
M  V30 6588 C 618.665 -3.82059 1.84098 0
M  V30 6589 N 619.056 -4.01115 3.08124 0
M  V30 6590 C 617.354 -4.11135 1.7287 0
M  V30 6591 C 618.055 -4.39989 3.80506 0
M  V30 6592 N 617.031 -4.47721 3.08297 0
M  V30 6593 H 620.833 -2.13832 2.01626 0
M  V30 6594 H 618.347 -1.11027 1.18519 0
M  V30 6595 H 620.344 -4.13049 0.565355 0
M  V30 6596 H 619.004 -3.24056 -0.204334 0
M  V30 6597 H 620.015 -3.87294 3.43836 0
M  V30 6598 H 616.692 -4.08412 0.866352 0
M  V30 6599 H 618.082 -4.62773 4.87125 0
M  V30 6600 N 620.802 -1.09834 -1.13024 0
M  V30 6601 C 622.213 -0.855651 -1.65938 0
M  V30 6602 C 622.564 0.615159 -1.86307 0
M  V30 6603 O 621.689 1.47335 -1.58497 0
M  V30 6604 C 622.284 -1.5467 -3.01434 0
M  V30 6605 C 620.843 -1.35088 -3.51323 0
M  V30 6606 C 619.99 -1.6001 -2.26478 0
M  V30 6607 H 622.941 -1.25691 -0.968889 0
M  V30 6608 H 622.962 -0.982179 -3.67605 0
M  V30 6609 H 622.474 -2.61715 -2.86578 0
M  V30 6610 H 620.575 -0.30179 -3.71376 0
M  V30 6611 H 620.688 -2.0886 -4.31178 0
M  V30 6612 H 619.052 -1.02246 -2.33276 0
M  V30 6613 H 619.835 -2.68293 -2.14182 0
M  V30 6614 N 622.28 1.30327 -0.886154 0
M  V30 6615 C 623.212 2.27079 -0.311072 0
M  V30 6616 C 624.225 1.53758 0.53502 0
M  V30 6617 O 625.414 1.74947 0.354378 0
M  V30 6618 C 622.514 3.33965 0.576228 0
M  V30 6619 C 621.687 4.36735 -0.241064 0
M  V30 6620 C 620.746 5.23028 0.576916 0
M  V30 6621 O 619.772 5.692 -0.000802231 0
M  V30 6622 N 620.974 5.49016 1.88579 0
M  V30 6623 H 623.739 2.77065 -1.14259 0
M  V30 6624 H 621.3 1.43519 -0.749258 0
M  V30 6625 H 623.292 3.88618 1.12953 0
M  V30 6626 H 621.862 2.839 1.30842 0
M  V30 6627 H 621.082 3.81932 -0.975805 0
M  V30 6628 H 622.37 5.02451 -0.801272 0
M  V30 6629 H 621.768 5.13288 2.37806 0
M  V30 6630 H 620.325 6.06539 2.38651 0
M  V30 6631 N 623.758 0.647228 1.43697 0
M  V30 6632 C 624.988 0.16551 2.05936 0
M  V30 6633 C 625.396 -1.17164 1.48557 0
M  V30 6634 O 624.739 -1.73307 0.60914 0
M  V30 6635 C 624.801 -0.00648082 3.59499 0
M  V30 6636 C 624.465 1.25503 4.39429 0
M  V30 6637 C 625.462 2.18241 4.71876 0
M  V30 6638 C 623.147 1.49494 4.79538 0
M  V30 6639 C 625.141 3.33268 5.43333 0
M  V30 6640 C 622.828 2.64815 5.50742 0
M  V30 6641 C 623.826 3.56528 5.82561 0
M  V30 6642 O 623.514 4.69836 6.52311 0
M  V30 6643 H 623.246 0.0844124 0.670709 0
M  V30 6644 H 625.8 0.88638 1.8529 0
M  V30 6645 H 624.03 -0.782661 3.78697 0
M  V30 6646 H 625.719 -0.444794 4.03456 0
M  V30 6647 H 626.485 2.00946 4.41413 0
M  V30 6648 H 622.364 0.789912 4.54182 0
M  V30 6649 H 625.908 4.04874 5.68087 0
M  V30 6650 H 621.805 2.82047 5.8062 0
M  V30 6651 H 622.573 4.69024 6.70789 0
M  V30 6652 N 625.236 -1.5273 0.388769 0
M  V30 6653 C 626.461 -2.0647 -0.19621 0
M  V30 6654 C 626.886 -1.25865 -1.39784 0
M  V30 6655 O 626.244 -0.283562 -1.79069 0
M  V30 6656 C 626.292 -3.56456 -0.5451 0
M  V30 6657 O 625.396 -3.78426 -1.63912 0
M  V30 6658 H 624.737 -0.663599 -0.023067 0
M  V30 6659 H 627.267 -1.96898 0.556084 0
M  V30 6660 H 627.277 -3.99888 -0.809557 0
M  V30 6661 H 625.952 -4.14561 0.333417 0
M  V30 6662 H 624.529 -3.46884 -1.36842 0
M  V30 6663 N 626.714 -0.118576 -1.57153 0
M  V30 6664 C 628.13 0.238014 -1.57815 0
M  V30 6665 C 628.33 1.66747 -1.13127 0
M  V30 6666 O 627.386 2.38867 -0.818462 0
M  V30 6667 C 628.699 0.00508207 -3.007 0
M  V30 6668 C 630.247 0.0710139 -3.12919 0
M  V30 6669 C 630.722 -0.13422 -4.57803 0
M  V30 6670 N 632.213 -0.0801755 -4.63131 0
M  V30 6671 C 632.948 -0.213885 -5.73001 0
M  V30 6672 N 632.444 -0.403742 -6.91623 0
M  V30 6673 N 634.237 -0.15349 -5.6189 0
M  V30 6674 H 626.388 -1.05226 -1.84503 0
M  V30 6675 H 628.651 -0.414318 -0.852669 0
M  V30 6676 H 628.357 -0.983125 -3.3768 0
M  V30 6677 H 628.231 0.73714 -3.69927 0
M  V30 6678 H 630.618 1.04975 -2.75798 0
M  V30 6679 H 630.699 -0.692918 -2.46236 0
M  V30 6680 H 630.343 -1.10992 -4.95624 0
M  V30 6681 H 630.273 0.649692 -5.22577 0
M  V30 6682 H 632.764 0.0630689 -3.77847 0
M  V30 6683 H 633.077 -0.496645 -7.71202 0
M  V30 6684 H 631.422 -0.43971 -6.93608 0
M  V30 6685 H 634.613 -0.00613174 -4.681 0
M  V30 6686 H 634.786 -0.261138 -6.47474 0
M  V30 6687 N 628.193 1.56834 0.155195 0
M  V30 6688 C 629.609 1.51315 0.50755 0
M  V30 6689 C 629.809 0.825614 1.83809 0
M  V30 6690 O 628.865 0.39271 2.49427 0
M  V30 6691 C 630.178 2.96074 0.52542 0
M  V30 6692 C 631.726 3.06968 0.611505 0
M  V30 6693 C 632.201 4.53218 0.660115 0
M  V30 6694 N 633.692 4.5753 0.722564 0
M  V30 6695 C 634.427 5.68056 0.781023 0
M  V30 6696 N 633.923 6.88173 0.799327 0
M  V30 6697 N 635.716 5.56068 0.821278 0
M  V30 6698 H 627.867 1.9993 -0.717063 0
M  V30 6699 H 630.13 0.911507 -0.260496 0
M  V30 6700 H 629.836 3.49599 -0.383875 0
M  V30 6701 H 629.71 3.51587 1.36624 0
M  V30 6702 H 632.097 2.53468 1.51122 0
M  V30 6703 H 632.178 2.54513 -0.256306 0
M  V30 6704 H 631.822 5.07354 -0.23541 0
M  V30 6705 H 631.752 5.03447 1.5443 0
M  V30 6706 H 634.243 3.71054 0.716049 0
M  V30 6707 H 634.556 7.6816 0.845553 0
M  V30 6708 H 632.901 6.90751 0.767337 0
M  V30 6709 H 636.092 4.61142 0.804091 0
M  V30 6710 H 636.265 6.42223 0.863372 0
M  V30 6711 N 629.671 -0.424282 1.51781 0
M  V30 6712 C 630.918 -1.1726 1.65095 0
M  V30 6713 C 631.246 -1.90881 0.373477 0
M  V30 6714 O 630.501 -1.84835 -0.642997 0
M  V30 6715 C 630.8 -2.20418 2.81337 0
M  V30 6716 C 630.466 -1.63715 4.20129 0
M  V30 6717 C 629.128 -1.47975 4.57883 0
M  V30 6718 C 631.48 -1.22157 5.06682 0
M  V30 6719 C 628.808 -0.891703 5.79884 0
M  V30 6720 C 631.16 -0.647767 6.29275 0
M  V30 6721 C 629.824 -0.477371 6.65791 0
M  V30 6722 H 629.094 -0.429085 0.604125 0
M  V30 6723 H 631.741 -0.461852 1.85847 0
M  V30 6724 H 630.046 -2.97581 2.54859 0
M  V30 6725 H 631.743 -2.78163 2.88836 0
M  V30 6726 H 628.333 -1.76946 3.90369 0
M  V30 6727 H 632.517 -1.33133 4.7811 0
M  V30 6728 H 627.773 -0.747563 6.06813 0
M  V30 6729 H 631.947 -0.317291 6.95677 0
M  V30 6730 H 629.574 -0.0195936 7.60197 0
M  V30 6731 N 631.149 -1.42148 -0.680565 0
M  V30 6732 C 632.099 -1.41634 -1.78672 0
M  V30 6733 C 633.083 -0.288494 -1.58293 0
M  V30 6734 O 634.275 -0.530295 -1.68869 0
M  V30 6735 C 631.404 -1.31558 -3.17092 0
M  V30 6736 C 630.49 -2.49265 -3.43115 0
M  V30 6737 N 630.881 -3.74702 -3.39753 0
M  V30 6738 C 629.179 -2.43401 -3.73727 0
M  V30 6739 C 629.88 -4.52854 -3.651 0
M  V30 6740 N 628.856 -3.83181 -3.85582 0
M  V30 6741 H 632.658 -2.3652 -1.74458 0
M  V30 6742 H 630.172 -1.36415 -0.881171 0
M  V30 6743 H 632.169 -1.29272 -3.96351 0
M  V30 6744 H 630.829 -0.376696 -3.22508 0
M  V30 6745 H 631.84 -4.07378 -3.19787 0
M  V30 6746 H 628.517 -1.58062 -3.86423 0
M  V30 6747 H 629.907 -5.61827 -3.6851 0
M  V30 6748 N 632.627 0.916307 -1.28225 0
M  V30 6749 C 633.574 2.01841 -1.11932 0
M  V30 6750 C 634.544 1.66091 -0.0171604 0
M  V30 6751 O 635.729 1.89934 -0.181617 0
M  V30 6752 C 632.869 3.36065 -0.784504 0
M  V30 6753 C 631.982 3.847 -1.96544 0
M  V30 6754 C 631.117 5.07423 -1.57149 0
M  V30 6755 C 630.156 5.48384 -2.71922 0
M  V30 6756 N 629.293 6.62298 -2.33037 0
M  V30 6757 H 634.133 2.1511 -2.06232 0
M  V30 6758 H 631.67 1.05366 -1.02647 0
M  V30 6759 H 633.628 4.13272 -0.571148 0
M  V30 6760 H 632.258 3.22571 0.121565 0
M  V30 6761 H 631.31 3.03673 -2.291 0
M  V30 6762 H 632.622 4.1102 -2.82603 0
M  V30 6763 H 631.776 5.92165 -1.32004 0
M  V30 6764 H 630.515 4.82906 -0.682153 0
M  V30 6765 H 629.52 4.62184 -2.97768 0
M  V30 6766 H 630.745 5.7489 -3.61494 0
M  V30 6767 H 628.691 6.39416 -1.4657 0
M  V30 6768 H 628.608 6.8833 -3.12631 0
M  V30 6769 H 629.876 7.50352 -2.11169 0
M  V30 6770 N 634.105 1.10431 1.1244 0
M  V30 6771 C 635.333 0.868872 1.87772 0
M  V30 6772 C 635.748 -0.580645 1.7965 0
M  V30 6773 O 635.105 -1.40031 1.17036 0
M  V30 6774 C 635.156 1.30855 3.36986 0
M  V30 6775 O 634.877 2.70123 3.44914 0
M  V30 6776 C 636.378 1.107 4.29256 0
M  V30 6777 H 633.598 0.311868 0.59412 0
M  V30 6778 H 636.142 1.46897 1.42273 0
M  V30 6779 H 634.297 0.752126 3.80029 0
M  V30 6780 H 634.711 2.88923 4.37748 0
M  V30 6781 H 636.185 1.46378 5.32238 0
M  V30 6782 H 636.662 0.0456228 4.39176 0
M  V30 6783 H 637.268 1.64988 3.91994 0
M  V30 6784 N 635.583 -1.29855 0.893053 0
M  V30 6785 C 636.513 -2.3035 0.382249 0
M  V30 6786 C 637.494 -1.61328 -0.539203 0
M  V30 6787 O 638.679 -1.88882 -0.451342 0
M  V30 6788 C 635.809 -3.45024 -0.396983 0
M  V30 6789 C 634.763 -4.258 0.433437 0
M  V30 6790 C 634.089 -5.32605 -0.472889 0
M  V30 6791 C 635.389 -4.94549 1.67984 0
M  V30 6792 H 637.083 -2.73325 1.22205 0
M  V30 6793 H 634.629 -1.314 0.589073 0
M  V30 6794 H 636.582 -4.14398 -0.765024 0
M  V30 6795 H 635.306 -3.00875 -1.2705 0
M  V30 6796 H 633.965 -3.58125 0.783723 0
M  V30 6797 H 633.613 -4.84702 -1.34435 0
M  V30 6798 H 633.313 -5.87547 0.0789958 0
M  V30 6799 H 634.837 -6.04832 -0.837269 0
M  V30 6800 H 636.251 -5.56395 1.38192 0
M  V30 6801 H 634.648 -5.59393 2.17254 0
M  V30 6802 H 635.718 -4.20215 2.41965 0
M  V30 6803 N 637.061 -0.65484 -1.43351 0
M  V30 6804 C 638.477 -0.32255 -1.56307 0
M  V30 6805 C 638.677 1.17324 -1.63821 0
M  V30 6806 O 637.733 1.95813 -1.59417 0
M  V30 6807 C 639.046 -1.03533 -2.82314 0
M  V30 6808 C 640.594 -1.01574 -2.9606 0
M  V30 6809 C 641.069 -1.70945 -4.24902 0
M  V30 6810 N 642.56 -1.67716 -4.3177 0
M  V30 6811 C 643.295 -2.18265 -5.30234 0
M  V30 6812 N 642.791 -2.7711 -6.34966 0
M  V30 6813 N 644.584 -2.08756 -5.21898 0
M  V30 6814 H 636.735 -1.62549 -1.36717 0
M  V30 6815 H 638.998 -0.683676 -0.656727 0
M  V30 6816 H 638.704 -2.09045 -2.8283 0
M  V30 6817 H 638.578 -0.587913 -3.7259 0
M  V30 6818 H 640.965 0.0309834 -2.95084 0
M  V30 6819 H 641.046 -1.50186 -2.07069 0
M  V30 6820 H 640.69 -2.75574 -4.26639 0
M  V30 6821 H 640.62 -1.19797 -5.12793 0
M  V30 6822 H 643.111 -1.24777 -3.56706 0
M  V30 6823 H 643.424 -3.13353 -7.06421 0
M  V30 6824 H 641.769 -2.81171 -6.35585 0
M  V30 6825 H 644.96 -1.62488 -4.38994 0
M  V30 6826 H 645.133 -2.48459 -5.98475 0
M  V30 6827 N 638.539 1.52521 -0.396863 0
M  V30 6828 C 639.955 1.5953 -0.0471659 0
M  V30 6829 C 640.155 1.41044 1.43906 0
M  V30 6830 O 639.211 1.23122 2.20448 0
M  V30 6831 C 640.524 2.95972 -0.531113 0
M  V30 6832 C 642.072 3.09172 -0.488024 0
M  V30 6833 C 642.547 4.48075 -0.948281 0
M  V30 6834 N 644.038 4.54281 -0.9046 0
M  V30 6835 C 644.773 5.60007 -1.23205 0
M  V30 6836 N 644.269 6.73343 -1.63036 0
M  V30 6837 N 646.062 5.50151 -1.15282 0
M  V30 6838 H 638.213 1.62786 -1.36435 0
M  V30 6839 H 640.476 0.76514 -0.559701 0
M  V30 6840 H 640.182 3.14741 -1.56942 0
M  V30 6841 H 640.056 3.77143 0.0657922 0
M  V30 6842 H 642.443 2.90095 0.541211 0
M  V30 6843 H 642.524 2.29937 -1.12083 0
M  V30 6844 H 642.168 4.67894 -1.97578 0
M  V30 6845 H 642.098 5.25788 -0.292412 0
M  V30 6846 H 644.589 3.72918 -0.6116 0
M  V30 6847 H 644.902 7.49992 -1.86365 0
M  V30 6848 H 643.247 6.74655 -1.66929 0
M  V30 6849 H 646.438 4.6049 -0.840602 0
M  V30 6850 H 646.611 6.32444 -1.41133 0
M  V30 6851 N 640.017 0.126909 1.57088 0
M  V30 6852 C 640.947 -0.816847 2.18746 0
M  V30 6853 C 641.928 -1.27161 1.12979 0
M  V30 6854 O 643.113 -1.33279 1.41246 0
M  V30 6855 C 640.243 -2.06398 2.79315 0
M  V30 6856 C 639.197 -1.74673 3.90735 0
M  V30 6857 C 638.523 -3.06482 4.38147 0
M  V30 6858 C 639.823 -1.0089 5.12463 0
M  V30 6859 H 641.517 -0.303032 2.97863 0
M  V30 6860 H 639.063 -0.144314 1.43275 0
M  V30 6861 H 641.016 -2.72885 3.2111 0
M  V30 6862 H 639.74 -2.60118 1.975 0
M  V30 6863 H 638.399 -1.10572 3.49527 0
M  V30 6864 H 638.047 -3.58152 3.5318 0
M  V30 6865 H 637.747 -2.86025 5.13287 0
M  V30 6866 H 639.271 -3.74073 4.82599 0
M  V30 6867 H 640.685 -1.57546 5.51228 0
M  V30 6868 H 639.082 -0.905006 5.93237 0
M  V30 6869 H 640.152 0.00297335 4.849 0
M  V30 6870 N 641.495 -1.56914 -0.146875 0
M  V30 6871 C 642.741 -1.83628 -0.860741 0
M  V30 6872 C 643.074 -0.708528 -1.80813 0
M  V30 6873 O 642.349 0.287838 -1.92358 0
M  V30 6874 C 642.632 -3.20836 -1.63511 0
M  V30 6875 C 642.485 -4.44174 -0.709199 0
M  V30 6876 C 643.804 -3.55268 -2.59756 0
M  V30 6877 H 640.923 -0.667949 -0.311468 0
M  V30 6878 H 643.565 -1.89582 -0.125936 0
M  V30 6879 H 641.715 -3.15891 -2.26153 0
M  V30 6880 H 643.387 -4.61205 -0.0937781 0
M  V30 6881 H 641.63 -4.33796 -0.0187856 0
M  V30 6882 H 642.301 -5.36785 -1.28707 0
M  V30 6883 H 644.777 -3.60824 -2.07232 0
M  V30 6884 H 643.653 -4.52303 -3.10987 0
M  V30 6885 H 643.914 -2.81231 -3.41118 0
M  V30 6886 N 642.974 0.416227 -1.52004 0
M  V30 6887 C 644.385 0.995319 -1.57957 0
M  V30 6888 C 644.736 1.91744 -0.415754 0
M  V30 6889 O 643.861 2.11349 0.464808 0
M  V30 6890 C 644.456 1.81191 -2.86278 0
M  V30 6891 C 643.015 2.34115 -2.94732 0
M  V30 6892 C 642.162 1.139 -2.52828 0
M  V30 6893 H 645.113 0.196716 -1.57476 0
M  V30 6894 H 645.134 2.66859 -2.71231 0
M  V30 6895 H 644.646 1.14051 -3.70963 0
M  V30 6896 H 642.747 3.04647 -2.14525 0
M  V30 6897 H 642.86 2.65466 -3.98829 0
M  V30 6898 H 641.224 1.49081 -2.06511 0
M  V30 6899 H 642.007 0.483383 -3.3988 0
M  V30 6900 N 644.452 1.42507 0.673017 0
M  V30 6901 C 645.729 1.33554 1.42908 0
M  V30 6902 C 646.109 -0.0262211 2.11084 0
M  V30 6903 O 645.457 -1.04181 2.03368 0
M  V30 6904 C 645.667 2.50498 2.43006 0
M  V30 6905 C 647.015 2.92694 3.07596 0
M  V30 6906 O 648.039 2.50401 2.53333 0
M  V30 6907 O 646.898 3.65899 4.05931 0
M  V30 6908 H 643.992 0.526785 0.637516 0
M  V30 6909 H 646.538 1.54518 0.701591 0
M  V30 6910 H 645.31 3.41272 1.9144 0
M  V30 6911 H 644.933 2.3153 3.23233 0
M  V30 6912 N 645.93 -0.909495 1.28709 0
M  V30 6913 C 647.155 -1.69801 1.1909 0
M  V30 6914 C 647.58 -1.86479 -0.246388 0
M  V30 6915 O 646.938 -1.37802 -1.17815 0
M  V30 6916 C 646.986 -3.06543 1.89904 0
M  V30 6917 O 646.09 -3.94268 1.2094 0
M  V30 6918 H 645.431 -0.519783 0.413185 0
M  V30 6919 H 647.961 -1.13689 1.70106 0
M  V30 6920 H 647.971 -3.56748 1.97977 0
M  V30 6921 H 646.646 -2.93722 2.94449 0
M  V30 6922 H 645.223 -3.52702 1.2106 0
M  V30 6923 N 647.408 -1.11026 -1.11852 0
M  V30 6924 C 648.685 -0.768347 -1.79877 0
M  V30 6925 C 649.065 0.744261 -1.97545 0
M  V30 6926 O 648.413 1.67271 -1.55669 0
M  V30 6927 C 648.623 -1.52648 -3.13846 0
M  V30 6928 C 649.971 -1.70297 -3.88953 0
M  V30 6929 O 650.995 -1.49037 -3.23522 0
M  V30 6930 O 649.854 -2.05593 -5.06353 0
M  V30 6931 H 646.948 -0.277891 -0.778913 0
M  V30 6932 H 649.494 -1.21343 -1.18633 0
M  V30 6933 H 648.266 -2.55564 -2.96315 0
M  V30 6934 H 647.889 -1.07466 -3.82801 0
M  V30 6935 N 648.886 1.2938 -0.899927 0
M  V30 6936 C 650.132 1.9584 -0.526742 0
M  V30 6937 C 650.465 1.70774 0.924651 0
M  V30 6938 O 649.74 1.02084 1.65557 0
M  V30 6939 C 650.023 3.50638 -0.820062 0
M  V30 6940 C 649.876 3.85161 -2.32317 0
M  V30 6941 C 651.195 4.3903 -0.30671 0
M  V30 6942 H 648.314 0.711322 -0.192848 0
M  V30 6943 H 650.956 1.52992 -1.12665 0
M  V30 6944 H 649.106 3.87265 -0.309491 0
M  V30 6945 H 650.778 3.58477 -2.9033 0
M  V30 6946 H 649.021 3.32696 -2.78381 0
M  V30 6947 H 649.692 4.93204 -2.47898 0
M  V30 6948 H 652.168 4.09396 -0.743908 0
M  V30 6949 H 651.044 5.46226 -0.541144 0
M  V30 6950 H 651.305 4.34937 0.792588 0
M  V30 6951 N 650.364 0.662433 1.43002 0
M  V30 6952 C 651.78 0.330835 1.56133 0
M  V30 6953 C 651.98 -1.16454 1.64441 0
M  V30 6954 O 651.036 -1.94964 1.60453 0
M  V30 6955 C 652.349 1.05029 2.81761 0
M  V30 6956 C 653.897 1.03142 2.95518 0
M  V30 6957 C 654.372 1.73196 4.2399 0
M  V30 6958 N 655.863 1.70004 4.30875 0
M  V30 6959 C 656.598 2.21074 5.29069 0
M  V30 6960 N 656.094 2.80473 6.33488 0
M  V30 6961 N 657.887 2.1152 5.20784 0
M  V30 6962 H 650.038 1.63272 1.35853 0
M  V30 6963 H 652.301 0.687149 0.653092 0
M  V30 6964 H 652.007 2.10542 2.81718 0
M  V30 6965 H 651.881 0.607664 3.72273 0
M  V30 6966 H 654.268 -0.0153339 2.95096 0
M  V30 6967 H 654.349 1.51282 2.0627 0
M  V30 6968 H 653.993 2.77833 4.25172 0
M  V30 6969 H 653.923 1.22515 5.1215 0
M  V30 6970 H 656.414 1.26667 3.56039 0
M  V30 6971 H 656.727 3.17094 7.04749 0
M  V30 6972 H 655.072 2.84538 6.34085 0
M  V30 6973 H 658.263 1.64814 4.38126 0
M  V30 6974 H 658.436 2.51629 5.97149 0
M  V30 6975 N 651.842 -1.52309 0.404946 0
M  V30 6976 C 653.089 -2.01767 -0.1722 0
M  V30 6977 C 653.417 -1.29075 -1.45498 0
M  V30 6978 O 652.672 -0.3843 -1.9189 0
M  V30 6979 C 652.971 -3.54284 -0.470895 0
M  V30 6980 C 652.637 -4.45079 0.722194 0
M  V30 6981 C 651.299 -4.69617 1.04946 0
M  V30 6982 C 653.651 -4.98555 1.51962 0
M  V30 6983 C 650.979 -5.44878 2.17543 0
M  V30 6984 C 653.331 -5.75049 2.63632 0
M  V30 6985 C 651.995 -5.9786 2.9685 0
M  V30 6986 H 651.265 -0.738316 -0.0630125 0
M  V30 6987 H 653.912 -1.83566 0.545506 0
M  V30 6988 H 652.217 -3.70642 -1.27012 0
M  V30 6989 H 653.914 -3.90058 -0.930346 0
M  V30 6990 H 650.504 -4.26155 0.457131 0
M  V30 6991 H 654.688 -4.79509 1.28002 0
M  V30 6992 H 649.944 -5.60762 2.43631 0
M  V30 6993 H 654.118 -6.15483 3.25813 0
M  V30 6994 H 651.745 -6.5596 3.84215 0
M  V30 6995 N 653.32 -0.135238 -1.57019 0
M  V30 6996 C 654.25 0.805235 -2.19176 0
M  V30 6997 C 655.231 1.2656 -1.13651 0
M  V30 6998 O 656.416 1.32528 -1.4195 0
M  V30 6999 C 653.546 2.04914 -2.80406 0
M  V30 7000 C 652.5 1.72598 -3.91655 0
M  V30 7001 C 651.826 3.04154 -4.39766 0
M  V30 7002 C 653.126 0.981709 -5.12991 0
M  V30 7003 H 654.82 0.287232 -2.98019 0
M  V30 7004 H 652.366 0.136714 -1.4335 0
M  V30 7005 H 654.319 2.71178 -3.22553 0
M  V30 7006 H 653.043 2.59067 -1.98877 0
M  V30 7007 H 651.702 1.08717 -3.50109 0
M  V30 7008 H 651.35 3.56274 -3.55075 0
M  V30 7009 H 651.05 2.83299 -5.14796 0
M  V30 7010 H 652.574 3.71509 -4.84576 0
M  V30 7011 H 653.988 1.5462 -5.52056 0
M  V30 7012 H 652.385 0.873533 -5.93708 0
M  V30 7013 H 653.455 -0.0286887 -4.84892 0
M  V30 7014 N 654.798 1.5699 0.138552 0
M  V30 7015 C 655.728 2.01933 1.17241 0
M  V30 7016 C 656.709 0.90033 1.44319 0
M  V30 7017 O 657.894 1.16872 1.55095 0
M  V30 7018 C 655.024 2.40711 2.50351 0
M  V30 7019 C 653.978 3.55874 2.37776 0
M  V30 7020 C 653.304 3.80491 3.75674 0
M  V30 7021 C 654.604 4.8826 1.85472 0
M  V30 7022 H 656.298 2.88551 0.798672 0
M  V30 7023 H 653.844 1.3882 0.382743 0
M  V30 7024 H 655.797 2.70754 3.22909 0
M  V30 7025 H 654.521 1.5104 2.89576 0
M  V30 7026 H 653.18 3.2601 1.67669 0
M  V30 7027 H 652.828 2.88057 4.12349 0
M  V30 7028 H 652.528 4.57998 3.68119 0
M  V30 7029 H 654.052 4.12967 4.49767 0
M  V30 7030 H 655.466 5.16965 2.4783 0
M  V30 7031 H 653.863 5.69631 1.88787 0
M  V30 7032 H 654.933 4.78071 0.810935 0
M  V30 7033 N 656.276 -0.40816 1.52223 0
M  V30 7034 C 657.501 -1.18127 1.70472 0
M  V30 7035 C 657.926 -1.83491 0.41384 0
M  V30 7036 O 657.284 -1.70047 -0.628778 0
M  V30 7037 C 657.332 -2.21935 2.84213 0
M  V30 7038 O 656.436 -3.28099 2.4985 0
M  V30 7039 H 655.777 -0.344781 0.56747 0
M  V30 7040 H 658.307 -0.478328 1.9893 0
M  V30 7041 H 658.317 -2.66248 3.09153 0
M  V30 7042 H 656.992 -1.73744 3.7787 0
M  V30 7043 H 655.569 -2.89058 2.35584 0
M  V30 7044 N 657.755 -1.42862 -0.66545 0
M  V30 7045 C 658.665 -1.49491 -1.80803 0
M  V30 7046 C 659.681 -0.382914 -1.69734 0
M  V30 7047 O 660.857 -0.635223 -1.9112 0
M  V30 7048 C 657.922 -1.40383 -3.17007 0
M  V30 7049 C 656.983 -2.62152 -3.39963 0
M  V30 7050 C 656.216 -2.53469 -4.69669 0
M  V30 7051 O 656.439 -1.57568 -5.48205 0
M  V30 7052 O 655.373 -3.43763 -4.94075 0
M  V30 7053 H 659.199 -2.45949 -1.78165 0
M  V30 7054 H 656.784 -1.24728 -0.822387 0
M  V30 7055 H 658.666 -1.377 -3.98267 0
M  V30 7056 H 657.341 -0.470546 -3.20262 0
M  V30 7057 H 656.248 -2.70409 -2.58515 0
M  V30 7058 H 657.581 -3.54411 -3.41546 0
M  V30 7059 N 659.233 0.902656 -1.29189 0
M  V30 7060 C 660.458 1.69167 -1.19989 0
M  V30 7061 C 660.883 1.86607 0.236495 0
M  V30 7062 O 660.241 1.38425 1.17082 0
M  V30 7063 C 660.289 3.05532 -1.91527 0
M  V30 7064 O 659.393 3.93621 -1.2303 0
M  V30 7065 H 658.734 0.517584 -0.415936 0
M  V30 7066 H 661.264 1.12785 -1.70706 0
M  V30 7067 H 661.274 3.55693 -1.99866 0
M  V30 7068 H 659.949 2.92156 -2.96003 0
M  V30 7069 H 658.526 3.52055 -1.22928 0
M  V30 7070 N 660.711 1.11618 1.11262 0
M  V30 7071 C 661.959 0.864469 1.82678 0
M  V30 7072 C 662.28 -0.611564 1.85162 0
M  V30 7073 O 661.55 -1.44429 1.32352 0
M  V30 7074 H 660.13 0.316821 0.676486 0
M  V30 7075 H 662.792 1.40894 1.34666 0
M  V30 7076 H 661.888 1.23832 2.86482 0
M  V30 7077 N 662.189 -1.289 0.906776 0
M  V30 7078 C 663.414 -1.99939 0.551303 0
M  V30 7079 C 663.839 -1.67366 -0.858496 0
M  V30 7080 O 663.197 -0.902176 -1.57259 0
M  V30 7081 C 663.245 -3.52523 0.758937 0
M  V30 7082 O 662.349 -4.11983 -0.185308 0
M  V30 7083 H 661.69 -0.628376 0.214568 0
M  V30 7084 H 664.22 -1.64225 1.2203 0
M  V30 7085 H 664.23 -4.02522 0.666329 0
M  V30 7086 H 662.905 -3.75566 1.78671 0
M  V30 7087 H 661.482 -3.72873 -0.0445577 0
M  V30 7088 N 663.667 -0.670007 -1.42649 0
M  V30 7089 C 664.915 -0.18991 -2.01206 0
M  V30 7090 C 665.236 1.20617 -1.53221 0
M  V30 7091 O 664.506 1.80898 -0.751856 0
M  V30 7092 H 663.086 -0.0672189 -0.743969 0
M  V30 7093 H 665.748 -0.865442 -1.74631 0
M  V30 7094 H 664.844 -0.187481 -3.11536 0
M  V30 7095 N 665.145 1.52092 -0.413018 0
M  V30 7096 C 666.092 2.27119 0.410558 0
M  V30 7097 C 667.062 1.29692 1.03774 0
M  V30 7098 O 668.247 1.58561 1.06128 0
M  V30 7099 C 665.387 3.09863 1.51918 0
M  V30 7100 C 664.5 4.22252 0.912528 0
M  V30 7101 C 663.635 4.92348 1.99417 0
M  V30 7102 C 662.674 5.96694 1.36466 0
M  V30 7103 N 661.811 6.60292 2.38661 0
M  V30 7104 H 666.651 2.97067 -0.235661 0
M  V30 7105 H 664.188 1.46542 -0.128055 0
M  V30 7106 H 666.146 3.56144 2.17295 0
M  V30 7107 H 664.776 2.42078 2.13537 0
M  V30 7108 H 663.828 3.80113 0.147697 0
M  V30 7109 H 665.14 4.9709 0.412717 0
M  V30 7110 H 664.294 5.42054 2.72512 0
M  V30 7111 H 663.033 4.17087 2.52764 0
M  V30 7112 H 662.038 5.46304 0.61906 0
M  V30 7113 H 663.263 6.73899 0.838827 0
M  V30 7114 H 661.209 5.87858 2.91134 0
M  V30 7115 H 661.126 7.30816 1.93503 0
M  V30 7116 H 662.394 7.14635 3.11314 0
M  V30 7117 N 666.623 0.143563 1.56945 0
M  V30 7118 C 667.871 -0.507402 1.95627 0
M  V30 7119 C 668.192 -1.65626 1.02922 0
M  V30 7120 O 667.462 -1.95693 0.0901136 0
M  V30 7121 H 666.042 -0.190436 0.722318 0
M  V30 7122 H 668.704 0.218257 1.93674 0
M  V30 7123 H 667.8 -0.885816 2.99265 0
M  V30 7124 N 668.101 -1.57061 -0.130224 0
M  V30 7125 C 669.064 -1.98593 -1.14426 0
M  V30 7126 C 670.064 -0.874584 -1.34936 0
M  V30 7127 O 671.254 -1.14086 -1.31643 0
M  V30 7128 C 668.386 -2.31639 -2.50112 0
M  V30 7129 H 669.579 -2.89374 -0.787561 0
M  V30 7130 H 667.132 -1.51756 -0.374146 0
M  V30 7131 H 667.867 -1.43703 -2.90723 0
M  V30 7132 H 667.652 -3.12684 -2.36583 0
M  V30 7133 H 669.142 -2.64551 -3.23114 0
M  V30 7134 N 669.579 0.400081 -1.52437 0
M  V30 7135 C 670.542 1.4707 -1.75793 0
M  V30 7136 C 671.542 1.48036 -0.627856 0
M  V30 7137 O 672.732 1.49401 -0.895817 0
M  V30 7138 C 669.864 2.86427 -1.84858 0
M  V30 7139 H 671.057 1.27649 -2.71377 0
M  V30 7140 H 668.61 0.631141 -1.42991 0
M  V30 7141 H 669.345 3.11207 -0.912194 0
M  V30 7142 H 669.13 2.87128 -2.6702 0
M  V30 7143 H 670.62 3.64023 -2.04638 0
M  V30 7144 N 671.057 1.43213 0.657864 0
M  V30 7145 C 671.99 1.42456 1.78273 0
M  V30 7146 C 672.968 0.286598 1.60054 0
M  V30 7147 O 674.152 0.479467 1.823 0
M  V30 7148 C 671.279 1.23169 3.15511 0
M  V30 7149 C 670.325 2.40181 3.52442 0
M  V30 7150 S 671.158 4.02729 3.52944 0
M  V30 7151 C 672.314 3.85816 4.92846 0
M  V30 7152 H 672.547 2.37642 1.78644 0
M  V30 7153 H 670.08 1.30188 0.830084 0
M  V30 7154 H 672.038 1.12728 3.94719 0
M  V30 7155 H 670.699 0.295398 3.12708 0
M  V30 7156 H 669.892 2.22478 4.52239 0
M  V30 7157 H 669.494 2.47224 2.80636 0
M  V30 7158 H 671.786 3.47853 5.81381 0
M  V30 7159 H 672.729 4.85348 5.15599 0
M  V30 7160 H 673.137 3.18361 4.66162 0
M  V30 7161 N 672.536 -0.895792 1.29666 0
M  V30 7162 C 673.782 -1.64908 1.18039 0
M  V30 7163 C 674.115 -1.9236 -0.266682 0
M  V30 7164 O 673.39 -1.53682 -1.19214 0
M  V30 7165 C 673.673 -2.99574 1.99819 0
M  V30 7166 C 673.526 -2.79163 3.52687 0
M  V30 7167 C 674.845 -4.00358 1.82761 0
M  V30 7168 H 671.964 -0.598437 0.430165 0
M  V30 7169 H 674.606 -1.03736 1.59182 0
M  V30 7170 H 672.756 -3.51786 1.64859 0
M  V30 7171 H 674.428 -2.33821 3.9765 0
M  V30 7172 H 672.671 -2.13871 3.77414 0
M  V30 7173 H 673.342 -3.74871 4.05186 0
M  V30 7174 H 675.818 -3.57268 2.13304 0
M  V30 7175 H 674.694 -4.92514 2.42325 0
M  V30 7176 H 674.955 -4.35096 0.783839 0
M  V30 7177 N 674.014 -1.12206 -1.10668 0
M  V30 7178 C 675.242 -0.898635 -1.86366 0
M  V30 7179 C 675.657 0.551991 -1.80551 0
M  V30 7180 O 675.014 1.38152 -1.19249 0
M  V30 7181 C 675.065 -1.36199 -3.34861 0
M  V30 7182 O 674.786 -2.75576 -3.40573 0
M  V30 7183 C 676.287 -1.17515 -4.2744 0
M  V30 7184 H 673.507 -0.321281 -0.589084 0
M  V30 7185 H 676.051 -1.49142 -1.39918 0
M  V30 7186 H 674.206 -0.81249 -3.78784 0
M  V30 7187 H 674.62 -2.95851 -4.33096 0
M  V30 7188 H 676.094 -1.54827 -5.29842 0
M  V30 7189 H 676.571 -0.115486 -4.39048 0
M  V30 7190 H 677.177 -1.71203 -3.89319 0
M  V30 7191 N 675.492 1.28418 -0.913599 0
M  V30 7192 C 676.455 2.25564 -0.406624 0
M  V30 7193 C 677.455 1.5387 0.466965 0
M  V30 7194 O 678.645 1.72094 0.270042 0
M  V30 7195 C 675.777 3.38339 0.417053 0
M  V30 7196 H 676.97 2.71926 -1.26477 0
M  V30 7197 H 674.523 1.40098 -0.692986 0
M  V30 7198 H 675.258 2.97339 1.29461 0
M  V30 7199 H 675.043 3.91542 -0.209102 0
M  V30 7200 H 676.533 4.10578 0.762602 0
M  V30 7201 N 676.97 0.677563 1.42291 0
M  V30 7202 C 678.216 0.201272 2.01799 0
M  V30 7203 C 678.549 -1.19004 1.53465 0
M  V30 7204 O 677.824 -1.79953 0.738039 0
M  V30 7205 C 678.107 0.238968 3.59306 0
M  V30 7206 C 677.96 1.66594 4.17812 0
M  V30 7207 C 679.279 -0.411287 4.38174 0
M  V30 7208 H 676.398 0.0746114 0.733214 0
M  V30 7209 H 679.04 0.862872 1.69276 0
M  V30 7210 H 677.19 -0.324368 3.87144 0
M  V30 7211 H 678.862 2.28173 4.00917 0
M  V30 7212 H 677.105 2.20576 3.73536 0
M  V30 7213 H 677.776 1.64398 5.26951 0
M  V30 7214 H 680.252 0.0682804 4.16044 0
M  V30 7215 H 679.128 -0.354286 5.47755 0
M  V30 7216 H 679.389 -1.4893 4.1626 0
M  V30 7217 N 678.448 -1.51871 0.421078 0
M  V30 7218 C 679.411 -2.25914 -0.386712 0
M  V30 7219 C 680.411 -1.28733 -0.963555 0
M  V30 7220 O 681.601 -1.52579 -0.840556 0
M  V30 7221 C 678.733 -3.03853 -1.54551 0
M  V30 7222 H 679.926 -2.98754 0.261978 0
M  V30 7223 H 677.479 -1.5533 0.173862 0
M  V30 7224 H 678.214 -2.35392 -2.23072 0
M  V30 7225 H 677.999 -3.75215 -1.13824 0
M  V30 7226 H 679.489 -3.59984 -2.11663 0
M  V30 7227 N 679.926 -0.151884 -1.56866 0
M  V30 7228 C 681.156 0.504081 -2.00356 0
M  V30 7229 C 681.564 1.58639 -1.03103 0
M  V30 7230 O 680.907 1.83688 -0.0207931 0
M  V30 7231 C 680.969 1.15975 -3.40279 0
M  V30 7232 C 680.633 0.221453 -4.56463 0
M  V30 7233 C 681.63 -0.552766 -5.16953 0
M  V30 7234 C 679.315 0.122936 -5.0215 0
M  V30 7235 C 681.309 -1.4129 -6.21543 0
M  V30 7236 C 678.996 -0.740801 -6.06593 0
M  V30 7237 C 679.994 -1.50732 -6.6616 0
M  V30 7238 O 679.682 -2.35666 -7.68581 0
M  V30 7239 H 679.414 0.135279 -0.662326 0
M  V30 7240 H 681.968 -0.244916 -2.03935 0
M  V30 7241 H 680.198 1.95649 -3.33554 0
M  V30 7242 H 681.887 1.71594 -3.67846 0
M  V30 7243 H 682.653 -0.486716 -4.82552 0
M  V30 7244 H 678.532 0.70931 -4.5551 0
M  V30 7245 H 682.076 -2.01166 -6.67966 0
M  V30 7246 H 677.973 -0.808125 -6.40421 0
M  V30 7247 H 678.741 -2.28967 -7.85822 0
M  V30 7248 N 681.404 1.57128 0.121893 0
M  V30 7249 C 682.82 1.52357 0.47534 0
M  V30 7250 C 683.02 0.864417 1.82017 0
M  V30 7251 O 682.076 0.445529 2.48538 0
M  V30 7252 C 683.389 2.97122 0.4625 0
M  V30 7253 C 684.937 3.08196 0.546255 0
M  V30 7254 C 685.412 4.54516 0.563833 0
M  V30 7255 N 686.903 4.58959 0.625353 0
M  V30 7256 C 687.638 5.69585 0.660354 0
M  V30 7257 N 687.134 6.89714 0.653175 0
M  V30 7258 N 688.927 5.57685 0.703143 0
M  V30 7259 H 681.078 1.98364 -0.75931 0
M  V30 7260 H 683.341 0.905777 -0.279772 0
M  V30 7261 H 683.047 3.48706 -0.457943 0
M  V30 7262 H 682.921 3.54406 1.29136 0
M  V30 7263 H 685.308 2.56617 1.45712 0
M  V30 7264 H 685.389 2.53912 -0.310234 0
M  V30 7265 H 685.033 5.06741 -0.342974 0
M  V30 7266 H 684.963 5.06609 1.43716 0
M  V30 7267 H 687.454 3.72489 0.637182 0
M  V30 7268 H 687.767 7.69781 0.682425 0
M  V30 7269 H 686.112 6.92223 0.620646 0
M  V30 7270 H 689.303 4.62744 0.706095 0
M  V30 7271 H 689.476 6.43909 0.726952 0
M  V30 7272 N 682.882 -0.391992 1.52647 0
M  V30 7273 C 683.812 -1.48517 1.8018 0
M  V30 7274 C 684.793 -1.57039 0.653667 0
M  V30 7275 O 685.978 -1.72036 0.900962 0
M  V30 7276 C 683.108 -2.86161 1.96797 0
M  V30 7277 C 682.062 -2.92481 3.12472 0
M  V30 7278 C 681.388 -4.32546 3.14338 0
M  V30 7279 C 682.688 -2.624 4.51601 0
M  V30 7280 H 684.382 -1.25726 2.71723 0
M  V30 7281 H 681.928 -0.603387 1.30749 0
M  V30 7282 H 683.881 -3.62639 2.14641 0
M  V30 7283 H 682.605 -3.10283 1.01941 0
M  V30 7284 H 681.264 -2.18451 2.94406 0
M  V30 7285 H 680.912 -4.53703 2.1717 0
M  V30 7286 H 680.612 -4.37695 3.92042 0
M  V30 7287 H 682.136 -5.10934 3.34333 0
M  V30 7288 H 683.55 -3.28596 4.69785 0
M  V30 7289 H 681.947 -2.78903 5.3135 0
M  V30 7290 H 683.017 -1.57754 4.58521 0
M  V30 7291 N 684.36 -1.4356 -0.65026 0
M  V30 7292 C 685.323 -1.48615 -1.74489 0
M  V30 7293 C 686.323 -0.370483 -1.56474 0
M  V30 7294 O 687.513 -0.632351 -1.62317 0
M  V30 7295 C 684.645 -1.34161 -3.13391 0
M  V30 7296 H 685.838 -2.46103 -1.71387 0
M  V30 7297 H 683.391 -1.30369 -0.862186 0
M  V30 7298 H 684.126 -0.376918 -3.22102 0
M  V30 7299 H 683.911 -2.1504 -3.27872 0
M  V30 7300 H 685.401 -1.40637 -3.93206 0
M  V30 7301 N 685.838 0.888903 -1.30139 0
M  V30 7302 C 686.748 2.02705 -1.18101 0
M  V30 7303 C 687.764 1.73702 -0.101809 0
M  V30 7304 O 688.94 1.98906 -0.315984 0
M  V30 7305 C 686.005 3.35616 -0.869651 0
M  V30 7306 C 685.066 3.78067 -2.03381 0
M  V30 7307 C 684.299 5.04635 -1.73721 0
M  V30 7308 O 684.522 5.66531 -0.663267 0
M  V30 7309 O 683.456 5.43399 -2.58845 0
M  V30 7310 H 687.282 2.15788 -2.13704 0
M  V30 7311 H 684.867 1.01426 -1.09695 0
M  V30 7312 H 686.749 4.15358 -0.711043 0
M  V30 7313 H 685.424 3.23651 0.0565002 0
M  V30 7314 H 684.331 2.99046 -2.24772 0
M  V30 7315 H 685.664 3.94631 -2.94155 0
M  V30 7316 N 687.317 1.12792 1.10072 0
M  V30 7317 C 688.249 0.757003 2.16338 0
M  V30 7318 C 689.262 -0.218144 1.61332 0
M  V30 7319 O 690.451 0.0010727 1.785 0
M  V30 7320 C 687.551 0.100303 3.38752 0
M  V30 7321 C 686.724 1.10586 4.2319 0
M  V30 7322 C 685.783 0.47609 5.24042 0
M  V30 7323 O 684.809 1.13418 5.57786 0
M  V30 7324 N 686.011 -0.754823 5.75572 0
M  V30 7325 H 688.776 1.6714 2.48766 0
M  V30 7326 H 686.337 1.02003 1.25726 0
M  V30 7327 H 688.329 -0.333092 4.03327 0
M  V30 7328 H 686.899 -0.716915 3.04268 0
M  V30 7329 H 686.119 1.71677 3.54853 0
M  V30 7330 H 687.407 1.78571 4.76435 0
M  V30 7331 H 686.805 -1.30838 5.50362 0
M  V30 7332 H 685.362 -1.13098 6.41913 0
M  V30 7333 N 688.795 -1.27931 0.920396 0
M  V30 7334 C 689.745 -2.24727 0.384966 0
M  V30 7335 C 690.729 -1.52715 -0.506661 0
M  V30 7336 O 691.921 -1.73599 -0.345298 0
M  V30 7337 C 689.05 -3.41324 -0.3678 0
M  V30 7338 C 688.136 -4.20649 0.539925 0
M  V30 7339 N 688.527 -4.77906 1.6565 0
M  V30 7340 C 686.825 -4.4469 0.341557 0
M  V30 7341 C 687.526 -5.37652 2.22047 0
M  V30 7342 N 686.502 -5.2218 1.51093 0
M  V30 7343 H 690.304 -2.66572 1.23761 0
M  V30 7344 H 687.818 -1.42779 0.773819 0
M  V30 7345 H 689.815 -4.0976 -0.768277 0
M  V30 7346 H 688.475 -3.01012 -1.21746 0
M  V30 7347 H 689.486 -4.76073 2.03899 0
M  V30 7348 H 686.163 -4.14868 -0.468045 0
M  V30 7349 H 687.553 -5.92948 3.1601 0
M  V30 7350 N 690.273 -0.685099 -1.4193 0
M  V30 7351 C 691.689 -0.355632 -1.55587 0
M  V30 7352 C 691.889 1.13823 -1.66273 0
M  V30 7353 O 690.945 1.92387 -1.63534 0
M  V30 7354 C 692.258 -1.09498 -2.80055 0
M  V30 7355 C 693.806 -1.07831 -2.93839 0
M  V30 7356 C 694.281 -1.79919 -4.21181 0
M  V30 7357 N 695.772 -1.76837 -4.28115 0
M  V30 7358 C 696.507 -2.29463 -5.25485 0
M  V30 7359 N 696.003 -2.90516 -6.28945 0
M  V30 7360 N 697.796 -2.19779 -5.17353 0
M  V30 7361 H 689.947 -1.65412 -1.33239 0
M  V30 7362 H 692.21 -0.697453 -0.642078 0
M  V30 7363 H 691.916 -2.14997 -2.78333 0
M  V30 7364 H 691.79 -0.666813 -3.71259 0
M  V30 7365 H 694.177 -0.0316152 -2.95083 0
M  V30 7366 H 694.258 -1.54545 -2.03837 0
M  V30 7367 H 693.902 -2.84562 -4.20698 0
M  V30 7368 H 693.832 -1.30647 -5.10136 0
M  V30 7369 H 696.323 -1.32315 -3.53979 0
M  V30 7370 H 696.636 -3.28266 -6.99615 0
M  V30 7371 H 694.981 -2.94589 -6.29478 0
M  V30 7372 H 698.172 -1.71763 -4.35448 0
M  V30 7373 H 698.345 -2.61097 -5.9307 0
M  V30 7374 N 691.751 1.51645 -0.429126 0
M  V30 7375 C 692.683 2.25279 0.422124 0
M  V30 7376 C 693.696 1.28986 0.993299 0
M  V30 7377 O 694.885 1.54797 0.888836 0
M  V30 7378 C 691.985 2.98666 1.60162 0
M  V30 7379 C 691.158 4.2199 1.15078 0
M  V30 7380 C 690.217 4.78028 2.19946 0
M  V30 7381 O 689.243 5.40084 1.79716 0
M  V30 7382 N 690.445 4.61342 3.5234 0
M  V30 7383 H 693.21 2.98971 -0.208931 0
M  V30 7384 H 690.771 1.59838 -0.257568 0
M  V30 7385 H 692.763 3.33044 2.29922 0
M  V30 7386 H 691.333 2.28036 2.13818 0
M  V30 7387 H 690.553 3.932 0.280552 0
M  V30 7388 H 691.841 5.02037 0.826831 0
M  V30 7389 H 691.239 4.11894 3.87763 0
M  V30 7390 H 689.796 5.00104 4.18019 0
M  V30 7391 N 693.229 0.160201 1.56784 0
M  V30 7392 C 694.478 -0.487619 1.95717 0
M  V30 7393 C 694.791 -1.65136 1.0483 0
M  V30 7394 O 695.997 -2.36468 1.33398 0
M  V30 7395 C 694.453 -0.91888 3.47972 0
M  V30 7396 C 694.061 0.218655 4.47466 0
M  V30 7397 C 695.805 -1.53575 3.95746 0
M  V30 7398 C 693.712 -0.231614 5.90946 0
M  V30 7399 H 692.642 -0.185939 0.730714 0
M  V30 7400 H 695.293 0.246657 1.81835 0
M  V30 7401 H 693.675 -1.70881 3.57234 0
M  V30 7402 H 694.849 0.995825 4.49911 0
M  V30 7403 H 693.164 0.744767 4.09685 0
M  V30 7404 H 695.761 -1.88448 5.00391 0
M  V30 7405 H 696.104 -2.42959 3.38048 0
M  V30 7406 H 696.637 -0.810467 3.89456 0
M  V30 7407 H 693.376 0.62718 6.52493 0
M  V30 7408 H 692.896 -0.974379 5.91833 0
M  V30 7409 H 694.575 -0.67922 6.43425 0
M  V30 7410 N 694.707 -1.5719 -0.113559 0
M  V30 7411 C 695.617 -2.04041 -1.15777 0
M  V30 7412 C 696.633 -0.961812 -1.45001 0
M  V30 7413 O 697.809 -1.2737 -1.56009 0
M  V30 7414 C 694.874 -2.43994 -2.46308 0
M  V30 7415 C 693.935 -3.65962 -2.24433 0
M  V30 7416 C 693.168 -4.04 -3.4874 0
M  V30 7417 O 693.391 -3.42321 -4.56259 0
M  V30 7418 O 692.325 -4.97069 -3.3942 0
M  V30 7419 H 696.151 -2.93248 -0.789899 0
M  V30 7420 H 693.736 -1.45828 -0.324748 0
M  V30 7421 H 695.618 -2.70401 -3.23204 0
M  V30 7422 H 694.293 -1.57932 -2.82558 0
M  V30 7423 H 693.2 -3.44697 -1.45377 0
M  V30 7424 H 694.533 -4.52746 -1.93084 0
M  V30 7425 N 696.185 0.383891 -1.52853 0
M  V30 7426 C 697.095 1.49343 -1.80925 0
M  V30 7427 C 698.111 1.59458 -0.696348 0
M  V30 7428 O 699.287 1.75698 -0.984481 0
M  V30 7429 C 696.352 2.84819 -1.97684 0
M  V30 7430 C 695.413 2.84382 -3.21598 0
M  V30 7431 C 694.646 4.13397 -3.37548 0
M  V30 7432 O 694.869 5.08619 -2.58192 0
M  V30 7433 O 693.803 4.20325 -4.30826 0
M  V30 7434 H 697.629 1.2855 -2.75152 0
M  V30 7435 H 695.214 0.572229 -1.38007 0
M  V30 7436 H 697.096 3.65125 -2.10385 0
M  V30 7437 H 695.771 3.05627 -1.06647 0
M  V30 7438 H 694.678 2.0284 -3.14336 0
M  V30 7439 H 696.011 2.68526 -4.12498 0
M  V30 7440 N 697.663 1.43903 0.642637 0
M  V30 7441 C 698.891 1.4954 1.42988 0
M  V30 7442 C 699.306 0.116588 1.8844 0
M  V30 7443 O 698.663 -0.875285 1.60141 0
M  V30 7444 C 698.714 2.45031 2.65785 0
M  V30 7445 O 698.435 3.77551 2.22232 0
M  V30 7446 C 699.936 2.60017 3.59035 0
M  V30 7447 H 697.156 0.507544 0.438907 0
M  V30 7448 H 699.7 1.88752 0.786942 0
M  V30 7449 H 697.855 2.08985 3.26196 0
M  V30 7450 H 698.269 4.29001 3.01759 0
M  V30 7451 H 699.743 3.30887 4.41835 0
M  V30 7452 H 700.22 1.64861 4.07084 0
M  V30 7453 H 700.826 2.96918 3.045 0
M  V30 7454 N 699.141 -0.881989 1.30609 0
M  V30 7455 C 700.071 -2.00413 1.1982 0
M  V30 7456 C 701.052 -1.69871 0.0881538 0
M  V30 7457 O 702.237 -1.92304 0.2707 0
M  V30 7458 C 699.367 -3.35641 0.89233 0
M  V30 7459 C 698.321 -3.80451 1.96064 0
M  V30 7460 C 697.647 -5.13003 1.5077 0
M  V30 7461 C 698.947 -3.98855 3.37213 0
M  V30 7462 H 700.641 -2.09698 2.13699 0
M  V30 7463 H 698.187 -1.00754 1.02882 0
M  V30 7464 H 700.14 -4.13669 0.803497 0
M  V30 7465 H 698.864 -3.26497 -0.0821381 0
M  V30 7466 H 697.523 -3.04654 2.03916 0
M  V30 7467 H 697.171 -5.0029 0.521417 0
M  V30 7468 H 696.871 -5.43956 2.22229 0
M  V30 7469 H 698.395 -5.93554 1.43271 0
M  V30 7470 H 699.809 -4.67312 3.32103 0
M  V30 7471 H 698.206 -4.41188 4.06784 0
M  V30 7472 H 699.276 -3.02614 3.78883 0
M  V30 7473 N 700.619 -1.13374 -1.09472 0
M  V30 7474 C 701.582 -0.813639 -2.14272 0
M  V30 7475 C 702.582 0.176677 -1.59826 0
M  V30 7476 O 703.772 -0.0503441 -1.74127 0
M  V30 7477 C 700.904 -0.210897 -3.40247 0
M  V30 7478 H 702.097 -1.74229 -2.44099 0
M  V30 7479 H 699.65 -0.938304 -1.25002 0
M  V30 7480 H 700.385 0.726998 -3.16046 0
M  V30 7481 H 700.17 -0.924048 -3.81056 0
M  V30 7482 H 701.66 -0.00377603 -4.176 0
M  V30 7483 N 702.098 1.27442 -0.927168 0
M  V30 7484 C 703.048 2.24519 -0.396878 0
M  V30 7485 C 704.032 1.52981 0.498555 0
M  V30 7486 O 705.224 1.7378 0.336087 0
M  V30 7487 C 702.353 3.41514 0.349694 0
M  V30 7488 C 701.439 4.20357 -0.562226 0
M  V30 7489 N 701.83 4.7702 -1.68182 0
M  V30 7490 C 700.128 4.44503 -0.365135 0
M  V30 7491 C 700.829 5.36467 -2.24895 0
M  V30 7492 N 699.805 5.21371 -1.5386 0
M  V30 7493 H 703.607 2.65911 -1.25173 0
M  V30 7494 H 701.121 1.42366 -0.78138 0
M  V30 7495 H 703.118 4.10161 0.746536 0
M  V30 7496 H 701.778 3.01653 1.20148 0
M  V30 7497 H 702.789 4.74985 -2.06421 0
M  V30 7498 H 699.466 4.15111 0.446037 0
M  V30 7499 H 700.856 5.91264 -3.1915 0
M  V30 7500 N 703.576 0.692616 1.41565 0
M  V30 7501 C 704.823 0.222335 2.01276 0
M  V30 7502 C 705.151 -1.17706 1.5484 0
M  V30 7503 O 704.406 -1.80795 0.749118 0
M  V30 7504 C 704.705 0.225073 3.56691 0
M  V30 7505 C 704.371 1.57158 4.22625 0
M  V30 7506 C 703.033 1.94022 4.40351 0
M  V30 7507 C 705.385 2.45758 4.59622 0
M  V30 7508 C 702.713 3.19076 4.92349 0
M  V30 7509 C 705.065 3.70141 5.13009 0
M  V30 7510 C 703.729 4.07152 5.28946 0
M  V30 7511 H 702.999 0.0813581 0.73652 0
M  V30 7512 H 705.646 0.891123 1.69503 0
M  V30 7513 H 703.951 -0.527259 3.88236 0
M  V30 7514 H 705.648 -0.156283 4.00695 0
M  V30 7515 H 702.238 1.27486 4.09201 0
M  V30 7516 H 706.422 2.18558 4.45585 0
M  V30 7517 H 701.678 3.4775 5.02872 0
M  V30 7518 H 705.852 4.38983 5.40617 0
M  V30 7519 H 703.479 5.04125 5.69001 0
M  V30 7520 N 705.054 -1.51416 0.437162 0
M  V30 7521 C 706.004 -2.24599 -0.392311 0
M  V30 7522 C 706.988 -1.2682 -0.990221 0
M  V30 7523 O 708.18 -1.51912 -0.908391 0
M  V30 7524 C 705.309 -3.09134 -1.49301 0
M  V30 7525 C 704.395 -4.14342 -0.904503 0
M  V30 7526 N 704.786 -5.0578 -0.0451511 0
M  V30 7527 C 703.084 -4.30323 -1.1721 0
M  V30 7528 C 703.785 -5.81 0.285344 0
M  V30 7529 N 702.761 -5.42591 -0.330993 0
M  V30 7530 H 706.563 -2.92655 0.270221 0
M  V30 7531 H 704.077 -1.60476 0.249226 0
M  V30 7532 H 706.074 -3.6014 -2.10011 0
M  V30 7533 H 704.734 -2.42622 -2.15788 0
M  V30 7534 H 705.745 -5.16903 0.321271 0
M  V30 7535 H 702.422 -3.75037 -1.83448 0
M  V30 7536 H 703.812 -6.64646 0.984626 0
M  V30 7537 N 706.532 -0.168513 -1.56696 0
M  V30 7538 C 707.462 0.758563 -2.20835 0
M  V30 7539 C 708.443 1.24121 -1.1631 0
M  V30 7540 O 709.628 1.29487 -1.4473 0
M  V30 7541 C 706.758 1.9892 -2.8469 0
M  V30 7542 C 705.712 1.64252 -3.95228 0
M  V30 7543 C 705.038 2.94757 -4.46119 0
M  V30 7544 C 706.338 0.872675 -5.14958 0
M  V30 7545 H 708.032 0.223953 -2.98561 0
M  V30 7546 H 705.578 0.106277 -1.43607 0
M  V30 7547 H 707.531 2.64275 -3.28233 0
M  V30 7548 H 706.255 2.5479 -2.04327 0
M  V30 7549 H 704.914 1.01266 -3.52336 0
M  V30 7550 H 704.562 3.48662 -3.62552 0
M  V30 7551 H 704.262 2.72316 -5.2069 0
M  V30 7552 H 705.786 3.61147 -4.92347 0
M  V30 7553 H 707.2 1.42875 -5.55211 0
M  V30 7554 H 705.597 0.747402 -5.95428 0
M  V30 7555 H 706.667 -0.131535 -4.84722 0
M  V30 7556 N 708.01 1.57248 0.105221 0
M  V30 7557 C 709.238 1.89768 0.82437 0
M  V30 7558 C 709.653 0.761192 1.72775 0
M  V30 7559 O 709.01 -0.267342 1.80531 0
M  V30 7560 C 709.061 3.2184 1.64625 0
M  V30 7561 O 708.782 4.31115 0.779217 0
M  V30 7562 C 710.283 3.68155 2.46935 0
M  V30 7563 H 707.503 0.628031 0.236259 0
M  V30 7564 H 710.047 2.04321 0.085485 0
M  V30 7565 H 708.202 3.08915 2.33775 0
M  V30 7566 H 708.616 5.06897 1.34745 0
M  V30 7567 H 710.09 4.6329 3.00111 0
M  V30 7568 H 710.567 2.95492 3.24932 0
M  V30 7569 H 711.173 3.83914 1.83002 0
M  V30 7570 N 709.488 -0.375779 1.53054 0
M  V30 7571 C 710.435 -1.45978 1.78771 0
M  V30 7572 C 711.405 -1.53625 0.631552 0
M  V30 7573 O 712.59 -1.69674 0.872667 0
M  V30 7574 C 709.73 -2.8305 1.97425 0
M  V30 7575 C 708.843 -2.84451 3.25134 0
M  V30 7576 C 707.978 -4.13034 3.34031 0
M  V30 7577 C 707.017 -4.08536 4.55812 0
M  V30 7578 N 706.154 -5.2875 4.61918 0
M  V30 7579 H 710.994 -1.23349 2.71273 0
M  V30 7580 H 708.531 -0.598147 1.3439 0
M  V30 7581 H 710.489 -3.62666 2.06225 0
M  V30 7582 H 709.119 -3.04101 1.0827 0
M  V30 7583 H 708.171 -1.97127 3.25338 0
M  V30 7584 H 709.483 -2.76998 4.14818 0
M  V30 7585 H 708.637 -5.0106 3.42087 0
M  V30 7586 H 707.376 -4.23226 2.42345 0
M  V30 7587 H 706.381 -3.18897 4.47867 0
M  V30 7588 H 707.606 -3.99955 5.48828 0
M  V30 7589 H 705.552 -5.39547 3.73129 0
M  V30 7590 H 705.469 -5.23426 5.45492 0
M  V30 7591 H 706.737 -6.18637 4.74245 0
M  V30 7592 N 710.966 -1.44241 -0.634997 0
M  V30 7593 C 712.243 -1.37296 -1.39317 0
M  V30 7594 C 712.623 -0.0297532 -2.11079 0
M  V30 7595 O 711.971 0.987524 -2.06059 0
M  V30 7596 C 712.181 -2.56853 -2.36279 0
M  V30 7597 C 713.529 -3.00747 -2.99728 0
M  V30 7598 O 714.553 -2.5703 -2.46605 0
M  V30 7599 O 713.412 -3.76533 -3.96087 0
M  V30 7600 H 710.506 -0.543503 -0.623325 0
M  V30 7601 H 713.052 -1.56324 -0.660376 0
M  V30 7602 H 711.824 -3.46228 -1.82324 0
M  V30 7603 H 711.447 -2.40019 -3.16981 0
M  V30 7604 N 712.444 0.87505 -1.31075 0
M  V30 7605 C 713.377 1.98471 -1.12625 0
M  V30 7606 C 714.355 1.6257 -0.0311379 0
M  V30 7607 O 715.539 1.87574 -0.186594 0
M  V30 7608 C 712.666 3.30963 -0.719799 0
M  V30 7609 C 711.712 3.85849 -1.81722 0
M  V30 7610 S 712.545 4.11926 -3.42165 0
M  V30 7611 C 713.701 5.47423 -3.03445 0
M  V30 7612 H 713.934 2.13817 -2.06566 0
M  V30 7613 H 711.467 1.02463 -1.15502 0
M  V30 7614 H 713.425 4.07541 -0.492035 0
M  V30 7615 H 712.086 3.1346 0.200413 0
M  V30 7616 H 711.279 4.81616 -1.48533 0
M  V30 7617 H 710.881 3.16046 -1.99977 0
M  V30 7618 H 713.173 6.28881 -2.52023 0
M  V30 7619 H 714.116 5.85557 -3.98157 0
M  V30 7620 H 714.524 5.10455 -2.41031 0
M  V30 7621 N 713.922 1.13953 1.08869 0
M  V30 7622 C 714.852 0.844824 2.17681 0
M  V30 7623 C 715.833 -0.198213 1.68941 0
M  V30 7624 O 717.018 -0.0559073 1.9412 0
M  V30 7625 C 714.148 0.316325 3.45856 0
M  V30 7626 C 713.102 1.29426 4.07962 0
M  V30 7627 C 712.428 0.625275 5.31031 0
M  V30 7628 C 713.728 2.65484 4.49795 0
M  V30 7629 H 715.422 1.75471 2.42591 0
M  V30 7630 H 712.968 0.845116 1.16592 0
M  V30 7631 H 714.921 0.0977876 4.21287 0
M  V30 7632 H 713.645 -0.628972 3.20486 0
M  V30 7633 H 712.304 1.49889 3.34558 0
M  V30 7634 H 711.952 -0.325678 5.01945 0
M  V30 7635 H 711.652 1.27777 5.73539 0
M  V30 7636 H 713.176 0.416152 6.0918 0
M  V30 7637 H 714.59 2.48957 5.16424 0
M  V30 7638 H 712.987 3.26963 5.03205 0
M  V30 7639 H 714.057 3.22717 3.61914 0
M  V30 7640 N 715.4 -1.26948 0.933913 0
M  V30 7641 C 716.33 -2.29017 0.45534 0
M  V30 7642 C 717.311 -1.62961 -0.487605 0
M  V30 7643 O 718.496 -1.90223 -0.391022 0
M  V30 7644 C 715.626 -3.46112 -0.287015 0
M  V30 7645 C 714.58 -4.24205 0.568682 0
M  V30 7646 C 713.906 -5.3384 -0.303206 0
M  V30 7647 C 715.206 -4.88954 1.83633 0
M  V30 7648 H 716.9 -2.69298 1.30839 0
M  V30 7649 H 714.446 -1.29459 0.630579 0
M  V30 7650 H 716.399 -4.16622 -0.6328 0
M  V30 7651 H 715.123 -3.04765 -1.17414 0
M  V30 7652 H 713.782 -3.5545 0.897261 0
M  V30 7653 H 713.43 -4.88734 -1.18947 0
M  V30 7654 H 713.13 -5.86998 0.265879 0
M  V30 7655 H 714.654 -6.0719 -0.644423 0
M  V30 7656 H 716.068 -5.51717 1.55823 0
M  V30 7657 H 714.465 -5.52198 2.34941 0
M  V30 7658 H 715.535 -4.12305 2.55211 0
M  V30 7659 N 716.879 -0.700114 -1.41195 0
M  V30 7660 C 717.789 -0.0382854 -2.34569 0
M  V30 7661 C 718.805 0.761036 -1.56474 0
M  V30 7662 O 719.981 0.697553 -1.88934 0
M  V30 7663 C 717.046 0.883522 -3.35253 0
M  V30 7664 C 716.107 0.0758957 -4.29233 0
M  V30 7665 C 715.34 0.9538 -5.25108 0
M  V30 7666 O 715.563 2.19326 -5.26547 0
M  V30 7667 O 714.497 0.401049 -6.00562 0
M  V30 7668 H 718.323 -0.808073 -2.92752 0
M  V30 7669 H 715.908 -0.460479 -1.42127 0
M  V30 7670 H 717.79 1.41199 -3.9704 0
M  V30 7671 H 716.465 1.63272 -2.79506 0
M  V30 7672 H 715.372 -0.497274 -3.7078 0
M  V30 7673 H 716.705 -0.634741 -4.8809 0
M  V30 7674 N 718.357 1.51182 -0.445186 0
M  V30 7675 C 719.603 2.02452 0.11882 0
M  V30 7676 C 719.936 1.32824 1.41673 0
M  V30 7677 O 719.211 0.445637 1.89326 0
M  V30 7678 C 719.494 3.5859 0.329475 0
M  V30 7679 C 719.347 4.38823 -0.987638 0
M  V30 7680 C 720.666 4.26241 1.09575 0
M  V30 7681 H 717.785 0.735819 0.0417092 0
M  V30 7682 H 720.427 1.80747 -0.585718 0
M  V30 7683 H 718.577 3.77214 0.9296 0
M  V30 7684 H 720.249 4.3183 -1.62235 0
M  V30 7685 H 718.492 4.03594 -1.59041 0
M  V30 7686 H 719.163 5.46257 -0.794192 0
M  V30 7687 H 721.639 4.11934 0.587328 0
M  V30 7688 H 720.515 5.35354 1.21191 0
M  V30 7689 H 720.776 3.87635 2.12584 0
M  V30 7690 N 719.835 0.176821 1.56605 0
M  V30 7691 C 720.782 -0.751312 2.18229 0
M  V30 7692 C 721.752 -1.22297 1.12395 0
M  V30 7693 O 722.937 -1.29015 1.40569 0
M  V30 7694 C 720.077 -1.97291 2.83143 0
M  V30 7695 C 719.19 -1.54431 4.03454 0
M  V30 7696 C 718.325 -2.72 4.56278 0
M  V30 7697 C 717.364 -2.25657 5.68986 0
M  V30 7698 N 716.501 -3.36338 6.16296 0
M  V30 7699 H 721.341 -0.219033 2.97194 0
M  V30 7700 H 718.878 -0.0963803 1.46784 0
M  V30 7701 H 720.836 -2.68949 3.1894 0
M  V30 7702 H 719.466 -2.4788 2.06773 0
M  V30 7703 H 718.518 -0.724273 3.73441 0
M  V30 7704 H 719.83 -1.16417 4.85024 0
M  V30 7705 H 718.984 -3.51806 4.94285 0
M  V30 7706 H 717.723 -3.13277 3.73777 0
M  V30 7707 H 716.728 -1.44299 5.30526 0
M  V30 7708 H 717.953 -1.85432 6.53293 0
M  V30 7709 H 715.899 -3.7718 5.36723 0
M  V30 7710 H 715.816 -3.02435 6.9287 0
M  V30 7711 H 717.084 -4.16413 6.58954 0
M  V30 7712 N 721.313 -1.57302 -0.09688 0
M  V30 7713 C 722.26 -2.01933 -1.11766 0
M  V30 7714 C 723.23 -0.895329 -1.39904 0
M  V30 7715 O 724.415 -1.16119 -1.51397 0
M  V30 7716 C 721.555 -2.44726 -2.43317 0
M  V30 7717 C 720.668 -3.70639 -2.21925 0
M  V30 7718 C 719.803 -4.02318 -3.46862 0
M  V30 7719 C 718.842 -5.21346 -3.20725 0
M  V30 7720 N 717.979 -5.48787 -4.37924 0
M  V30 7721 H 722.819 -2.88919 -0.730075 0
M  V30 7722 H 720.356 -1.42901 -0.348962 0
M  V30 7723 H 722.314 -2.6758 -3.20088 0
M  V30 7724 H 720.944 -1.60753 -2.79926 0
M  V30 7725 H 719.996 -3.55271 -1.35965 0
M  V30 7726 H 721.308 -4.57557 -1.98603 0
M  V30 7727 H 720.462 -4.25939 -4.32042 0
M  V30 7728 H 719.201 -3.13918 -3.73238 0
M  V30 7729 H 718.206 -4.97547 -2.33938 0
M  V30 7730 H 719.431 -6.11343 -2.95697 0
M  V30 7731 H 717.377 -4.63346 -4.64378 0
M  V30 7732 H 717.294 -6.30073 -4.17785 0
M  V30 7733 H 718.562 -5.76943 -5.24173 0
M  V30 7734 N 722.791 0.367657 -1.53252 0
M  V30 7735 C 724.207 0.709191 -1.42978 0
M  V30 7736 C 724.407 1.93352 -0.567193 0
M  V30 7737 O 723.463 2.52453 -0.0488349 0
M  V30 7738 C 724.776 0.924338 -2.86141 0
M  V30 7739 C 726.324 1.02448 -2.95759 0
M  V30 7740 C 726.799 1.27211 -4.39979 0
M  V30 7741 N 728.29 1.33986 -4.43398 0
M  V30 7742 C 729.025 1.54852 -5.52095 0
M  V30 7743 N 728.521 1.73049 -6.7084 0
M  V30 7744 N 730.314 1.57205 -5.39669 0
M  V30 7745 H 722.465 -0.437669 -2.07842 0
M  V30 7746 H 724.728 -0.133737 -0.938519 0
M  V30 7747 H 724.434 0.0965455 -3.51567 0
M  V30 7748 H 724.308 1.83302 -3.29667 0
M  V30 7749 H 726.695 1.84282 -2.30487 0
M  V30 7750 H 726.776 0.0932301 -2.5563 0
M  V30 7751 H 726.42 0.458792 -5.05824 0
M  V30 7752 H 726.35 2.21654 -4.77679 0
M  V30 7753 H 728.841 1.21545 -3.5782 0
M  V30 7754 H 729.154 1.88538 -7.49449 0
M  V30 7755 H 727.499 1.70231 -6.7383 0
M  V30 7756 H 730.69 1.42555 -4.45865 0
M  V30 7757 H 730.863 1.73126 -6.24445 0
M  V30 7758 N 724.269 1.44576 0.627338 0
M  V30 7759 C 725.202 1.46206 1.75212 0
M  V30 7760 C 726.18 0.320483 1.5941 0
M  V30 7761 O 727.364 0.518028 1.81242 0
M  V30 7762 C 724.491 1.29834 3.12827 0
M  V30 7763 C 723.537 2.47603 3.47268 0
M  V30 7764 S 724.37 4.10125 3.44322 0
M  V30 7765 C 725.526 3.96183 4.84551 0
M  V30 7766 H 725.759 2.41378 1.73563 0
M  V30 7767 H 723.292 1.3192 0.802283 0
M  V30 7768 H 725.25 1.21075 3.92239 0
M  V30 7769 H 723.911 0.361662 3.12011 0
M  V30 7770 H 723.104 2.3202 4.47418 0
M  V30 7771 H 722.706 2.53121 2.75329 0
M  V30 7772 H 724.998 3.60107 5.73872 0
M  V30 7773 H 725.941 4.96176 5.05188 0
M  V30 7774 H 726.349 3.28177 4.59304 0
M  V30 7775 N 725.747 -0.868086 1.31537 0
M  V30 7776 C 727.163 -1.15414 1.10235 0
M  V30 7777 C 727.363 -2.01106 -0.125947 0
M  V30 7778 O 726.419 -2.38994 -0.814734 0
M  V30 7779 C 727.732 -1.84445 2.37488 0
M  V30 7780 C 729.28 -1.97139 2.43116 0
M  V30 7781 C 729.755 -2.69585 3.70254 0
M  V30 7782 N 731.246 -2.77119 3.71159 0
M  V30 7783 C 731.981 -3.33791 4.6623 0
M  V30 7784 N 731.477 -3.9138 5.71659 0
M  V30 7785 N 733.27 -3.31767 4.53747 0
M  V30 7786 H 725.421 -0.297109 2.10312 0
M  V30 7787 H 727.684 -0.194227 0.92789 0
M  V30 7788 H 727.39 -1.2893 3.27215 0
M  V30 7789 H 727.264 -2.84709 2.47428 0
M  V30 7790 H 729.651 -2.51818 1.53856 0
M  V30 7791 H 729.732 -0.95912 2.37138 0
M  V30 7792 H 729.376 -2.15572 4.59881 0
M  V30 7793 H 729.306 -3.71223 3.73499 0
M  V30 7794 H 731.797 -2.3625 2.94948 0
M  V30 7795 H 732.11 -4.3274 6.40278 0
M  V30 7796 H 730.455 -3.8975 5.7543 0
M  V30 7797 H 733.646 -2.86016 3.70557 0
M  V30 7798 H 733.819 -3.75636 5.28017 0
M  V30 7799 N 727.225 -1.14528 -1.08264 0
M  V30 7800 C 728.188 -0.83632 -2.13397 0
M  V30 7801 C 729.188 0.159715 -1.60005 0
M  V30 7802 O 730.378 -0.0688098 -1.74064 0
M  V30 7803 C 727.51 -0.246973 -3.40004 0
M  V30 7804 H 728.703 -1.76808 -2.42237 0
M  V30 7805 H 726.256 -0.951509 -1.24 0
M  V30 7806 H 726.991 0.693436 -3.168 0
M  V30 7807 H 726.776 -0.964412 -3.80055 0
M  V30 7808 H 728.266 -0.0480679 -4.17572 0
M  V30 7809 N 728.703 1.26451 -0.940633 0
M  V30 7810 C 729.613 2.30128 -0.455881 0
M  V30 7811 C 730.629 1.67536 0.469867 0
M  V30 7812 O 731.805 1.98344 0.349529 0
M  V30 7813 C 728.87 3.45634 0.271648 0
M  V30 7814 C 727.931 4.23709 -0.690594 0
M  V30 7815 C 727.164 5.337 0.00231047 0
M  V30 7816 O 727.387 5.57215 1.21935 0
M  V30 7817 O 726.321 5.98091 -0.676111 0
M  V30 7818 H 730.147 2.73655 -1.31707 0
M  V30 7819 H 727.732 1.3164 -0.706497 0
M  V30 7820 H 729.614 4.15853 0.681486 0
M  V30 7821 H 728.289 3.04138 1.10824 0
M  V30 7822 H 727.196 3.55974 -1.15037 0
M  V30 7823 H 728.529 4.68953 -1.49478 0
M  V30 7824 N 730.181 0.707592 1.40822 0
M  V30 7825 C 731.114 -0.000859377 2.282 0
M  V30 7826 C 732.092 -0.7758 1.42899 0
M  V30 7827 O 733.276 -0.76411 1.72318 0
M  V30 7828 C 730.403 -1.00861 3.23334 0
M  V30 7829 C 729.449 -0.32543 4.25257 0
M  V30 7830 S 730.282 0.940908 5.27169 0
M  V30 7831 C 731.438 -0.0649459 6.25866 0
M  V30 7832 H 731.671 0.740207 2.87938 0
M  V30 7833 H 729.204 0.498311 1.46138 0
M  V30 7834 H 731.162 -1.58485 3.78672 0
M  V30 7835 H 729.823 -1.72233 2.62668 0
M  V30 7836 H 729.016 -1.08697 4.92139 0
M  V30 7837 H 728.618 0.178044 3.73576 0
M  V30 7838 H 730.91 -0.914377 6.71301 0
M  V30 7839 H 731.853 0.570276 7.058 0
M  V30 7840 H 732.261 -0.425098 5.62897 0
M  V30 7841 N 731.66 -1.50943 0.453197 0
M  V30 7842 C 732.57 -2.31884 -0.355963 0
M  V30 7843 C 733.586 -1.41481 -1.01287 0
M  V30 7844 O 734.762 -1.74546 -1.00477 0
M  V30 7845 C 731.827 -3.15668 -1.43369 0
M  V30 7846 C 730.888 -4.2187 -0.795253 0
M  V30 7847 C 730.121 -5.0165 -1.82162 0
M  V30 7848 O 730.344 -4.82266 -3.04592 0
M  V30 7849 O 729.278 -5.85311 -1.40336 0
M  V30 7850 H 733.104 -3.02162 0.305248 0
M  V30 7851 H 730.689 -1.47839 0.215398 0
M  V30 7852 H 732.571 -3.67709 -2.05836 0
M  V30 7853 H 731.246 -2.48137 -2.07869 0
M  V30 7854 H 730.153 -3.73867 -0.132106 0
M  V30 7855 H 731.486 -4.9182 -0.193484 0
M  V30 7856 N 733.138 -0.185124 -1.56509 0
M  V30 7857 C 734.068 0.735098 -2.21627 0
M  V30 7858 C 735.049 1.2288 -1.1762 0
M  V30 7859 O 736.234 1.27945 -1.46095 0
M  V30 7860 C 733.364 1.95889 -2.86783 0
M  V30 7861 C 732.318 1.6005 -3.96948 0
M  V30 7862 C 731.644 2.90009 -4.4922 0
M  V30 7863 C 732.944 0.818008 -5.15855 0
M  V30 7864 H 734.638 0.192274 -2.98782 0
M  V30 7865 H 732.184 0.0910393 -1.43712 0
M  V30 7866 H 734.137 2.60779 -3.31017 0
M  V30 7867 H 732.861 2.52608 -2.07018 0
M  V30 7868 H 731.52 0.975237 -3.5339 0
M  V30 7869 H 731.168 3.44797 -3.6623 0
M  V30 7870 H 730.868 2.66778 -5.23549 0
M  V30 7871 H 732.392 3.55904 -4.9615 0
M  V30 7872 H 733.806 1.36979 -5.56695 0
M  V30 7873 H 732.203 0.684207 -5.96187 0
M  V30 7874 H 733.273 -0.182939 -4.84555 0
M  V30 7875 N 734.616 1.57351 0.0885366 0
M  V30 7876 C 735.864 1.86051 0.789262 0
M  V30 7877 C 736.185 0.774763 1.78948 0
M  V30 7878 O 735.455 -0.198324 1.94894 0
M  V30 7879 H 734.035 0.686508 0.294475 0
M  V30 7880 H 736.697 1.94779 0.0686055 0
M  V30 7881 H 735.793 2.83007 1.31581 0
M  V30 7882 N 736.094 -0.359525 1.53444 0
M  V30 7883 C 737.024 -1.44662 1.8329 0
M  V30 7884 C 738.005 -1.55617 0.68683 0
M  V30 7885 O 739.19 -1.70086 0.93725 0
M  V30 7886 C 736.32 -2.81923 2.02822 0
M  V30 7887 C 735.274 -2.85787 3.18606 0
M  V30 7888 C 734.6 -4.25781 3.23442 0
M  V30 7889 C 735.9 -2.52762 4.57065 0
M  V30 7890 H 737.594 -1.19934 2.74329 0
M  V30 7891 H 735.14 -0.575517 1.31999 0
M  V30 7892 H 737.093 -3.58005 2.22285 0
M  V30 7893 H 735.817 -3.08051 1.085 0
M  V30 7894 H 734.476 -2.12157 2.98973 0
M  V30 7895 H 734.124 -4.48994 2.26745 0
M  V30 7896 H 733.824 -4.29281 4.01238 0
M  V30 7897 H 735.348 -5.03727 3.45096 0
M  V30 7898 H 736.762 -3.18557 4.76649 0
M  V30 7899 H 735.159 -2.67569 5.37147 0
M  V30 7900 H 736.229 -1.47993 4.61764 0
M  V30 7901 N 737.572 -1.44907 -0.619662 0
M  V30 7902 C 738.988 -1.29046 -0.939107 0
M  V30 7903 C 739.188 -0.23462 -2.00129 0
M  V30 7904 O 738.244 0.37558 -2.49691 0
M  V30 7905 C 739.557 -2.66567 -1.39149 0
M  V30 7906 C 741.105 -2.74368 -1.50635 0
M  V30 7907 C 741.58 -4.12386 -1.99253 0
M  V30 7908 N 743.071 -4.1462 -2.06506 0
M  V30 7909 C 743.806 -5.18272 -2.4532 0
M  V30 7910 N 743.302 -6.32278 -2.83189 0
M  V30 7911 N 745.095 -5.05628 -2.45554 0
M  V30 7912 H 737.246 -2.12239 0.0826135 0
M  V30 7913 H 739.509 -0.947652 -0.0256829 0
M  V30 7914 H 739.215 -3.4496 -0.685254 0
M  V30 7915 H 739.089 -2.94224 -2.36034 0
M  V30 7916 H 741.476 -1.96287 -2.20353 0
M  V30 7917 H 741.557 -2.50439 -0.520963 0
M  V30 7918 H 741.201 -4.90947 -1.30127 0
M  V30 7919 H 741.131 -4.33699 -2.98684 0
M  V30 7920 H 743.622 -3.32343 -1.79878 0
M  V30 7921 H 743.935 -7.07172 -3.11652 0
M  V30 7922 H 742.28 -6.35699 -2.80913 0
M  V30 7923 H 745.471 -4.15613 -2.15367 0
M  V30 7924 H 745.644 -5.86529 -2.75478 0
M  V30 7925 N 739.05 0.861098 -1.31996 0
M  V30 7926 C 739.997 1.96912 -1.20392 0
M  V30 7927 C 740.967 1.65869 -0.0875899 0
M  V30 7928 O 742.152 1.88992 -0.262011 0
M  V30 7929 C 739.292 3.32435 -0.926335 0
M  V30 7930 C 738.405 3.76018 -2.12684 0
M  V30 7931 C 737.54 5.00301 -1.78529 0
M  V30 7932 C 736.579 5.36357 -2.94937 0
M  V30 7933 N 735.716 6.51818 -2.60917 0
M  V30 7934 H 740.556 2.06169 -2.1517 0
M  V30 7935 H 738.093 1.00917 -1.07024 0
M  V30 7936 H 740.051 4.10478 -0.745917 0
M  V30 7937 H 738.681 3.22796 -0.0153578 0
M  V30 7938 H 737.733 2.93683 -2.41774 0
M  V30 7939 H 739.045 3.98664 -2.99781 0
M  V30 7940 H 738.199 5.86034 -1.57001 0
M  V30 7941 H 736.938 4.79578 -0.886356 0
M  V30 7942 H 735.943 4.49139 -3.17103 0
M  V30 7943 H 737.168 5.59041 -3.85552 0
M  V30 7944 H 735.114 6.32624 -1.73558 0
M  V30 7945 H 735.031 6.7445 -3.41544 0
M  V30 7946 H 736.299 7.4072 -2.42804 0
M  V30 7947 N 740.528 1.15101 1.07655 0
M  V30 7948 C 741.46 0.802722 2.14684 0
M  V30 7949 C 742.473 -0.183874 1.61758 0
M  V30 7950 O 743.662 0.0389349 1.78458 0
M  V30 7951 C 740.762 0.172135 3.38463 0
M  V30 7952 C 739.935 1.19538 4.20749 0
M  V30 7953 C 738.994 0.58714 5.22914 0
M  V30 7954 O 738.02 1.25224 5.55255 0
M  V30 7955 N 739.222 -0.632566 5.77043 0
M  V30 7956 H 741.987 1.72379 2.45164 0
M  V30 7957 H 739.548 1.04647 1.23534 0
M  V30 7958 H 741.54 -0.247465 4.03943 0
M  V30 7959 H 740.11 -0.652214 3.0572 0
M  V30 7960 H 739.33 1.79165 3.51132 0
M  V30 7961 H 740.618 1.88636 4.7254 0
M  V30 7962 H 740.016 -1.19135 5.53013 0
M  V30 7963 H 738.573 -0.994566 6.44167 0
M  V30 7964 N 742.006 -1.2595 0.947325 0
M  V30 7965 C 743.234 -1.97544 0.615127 0
M  V30 7966 C 743.649 -1.70484 -0.811221 0
M  V30 7967 O 743.006 -0.97662 -1.5417 0
M  V30 7968 C 743.057 -3.51236 0.855328 0
M  V30 7969 O 742.778 -3.77359 2.22558 0
M  V30 7970 C 744.279 -4.40066 0.534515 0
M  V30 7971 H 741.499 -0.629888 0.231263 0
M  V30 7972 H 744.043 -1.60308 1.26971 0
M  V30 7973 H 742.198 -3.8661 0.247266 0
M  V30 7974 H 742.612 -4.71857 2.29022 0
M  V30 7975 H 744.086 -5.46838 0.753168 0
M  V30 7976 H 744.563 -4.35982 -0.530701 0
M  V30 7977 H 745.169 -4.10245 1.12158 0
M  V30 7978 N 743.484 -0.715051 -1.40445 0
M  V30 7979 C 744.434 -0.038591 -2.27967 0
M  V30 7980 C 745.418 0.733099 -1.43229 0
M  V30 7981 O 746.61 0.605388 -1.66325 0
M  V30 7982 C 743.739 0.882801 -3.31755 0
M  V30 7983 C 742.825 0.106325 -4.23967 0
M  V30 7984 N 743.216 -0.910143 -4.97544 0
M  V30 7985 C 741.514 0.33896 -4.4471 0
M  V30 7986 C 742.215 -1.37665 -5.65175 0
M  V30 7987 N 741.191 -0.698905 -5.39088 0
M  V30 7988 H 744.993 -0.81765 -2.82297 0
M  V30 7989 H 742.507 -0.547591 -1.5289 0
M  V30 7990 H 744.504 1.38273 -3.93302 0
M  V30 7991 H 743.164 1.66124 -2.78985 0
M  V30 7992 H 744.175 -1.29097 -5.01552 0
M  V30 7993 H 740.852 1.09377 -4.02918 0
M  V30 7994 H 742.242 -2.22122 -6.34123 0
M  V30 7995 N 744.962 1.50701 -0.461195 0
M  V30 7996 C 745.91 2.29918 0.352231 0
M  V30 7997 C 746.904 1.36778 0.999403 0
M  V30 7998 O 748.11 1.54015 0.931639 0
M  V30 7999 H 744.485 0.740249 0.132423 0
M  V30 8000 H 746.456 2.96497 -0.336424 0
M  V30 8001 C 745.205 3.17052 1.42736 0
M  V30 8002 H 744.528 3.88623 0.938747 0
M  V30 8003 H 745.968 3.75493 1.96928 0
M  V30 8004 C 744.427 2.3399 2.42384 0
M  V30 8005 O 744.957 2.01608 3.47444 0
M  V30 8006 N 743.163 1.96758 2.13857 0
M  V30 8007 H 742.71 2.23292 1.28447 0
M  V30 8008 H 742.668 1.41484 2.80766 0
M  V30 8009 N 746.441 0.193421 1.56409 0
M  V30 8010 C 747.389 -0.744829 2.20352 0
M  V30 8011 C 748.383 -1.22104 1.17418 0
M  V30 8012 O 749.589 -1.18413 1.35567 0
M  V30 8013 H 745.964 -0.258538 0.70616 0
M  V30 8014 H 747.935 -0.181794 2.97846 0
M  V30 8015 C 746.684 -1.95453 2.87565 0
M  V30 8016 H 746.007 -1.59716 3.66512 0
M  V30 8017 H 747.447 -2.58942 3.35745 0
M  V30 8018 C 745.906 -2.79223 1.8851 0
M  V30 8019 O 746.436 -3.77093 1.38434 0
M  V30 8020 N 744.642 -2.44682 1.56777 0
M  V30 8021 H 744.189 -1.65153 1.97692 0
M  V30 8022 H 744.147 -3.01016 0.907573 0
M  V30 8023 N 747.919 -1.57396 -0.0801906 0
M  V30 8024 C 748.882 -2.02133 -1.0805 0
M  V30 8025 C 749.882 -0.91707 -1.32085 0
M  V30 8026 O 751.072 -1.18217 -1.27947 0
M  V30 8027 C 748.204 -2.39479 -2.42616 0
M  V30 8028 H 749.397 -2.91733 -0.6951 0
M  V30 8029 H 746.95 -1.52869 -0.325677 0
M  V30 8030 H 747.685 -1.52879 -2.86004 0
M  V30 8031 H 747.47 -3.20052 -2.26515 0
M  V30 8032 H 748.96 -2.74697 -3.14534 0
M  V30 8033 N 749.397 0.351382 -1.53633 0
M  V30 8034 C 750.643 1.09411 -1.70754 0
M  V30 8035 C 750.976 1.88544 -0.465293 0
M  V30 8036 O 750.251 1.86923 0.537608 0
M  V30 8037 C 750.534 2.04173 -2.96623 0
M  V30 8038 C 750.387 1.28556 -4.31038 0
M  V30 8039 C 751.706 3.04102 -3.18136 0
M  V30 8040 H 748.825 0.396373 -0.621335 0
M  V30 8041 H 751.467 0.373464 -1.86293 0
M  V30 8042 H 749.617 2.65625 -2.83506 0
M  V30 8043 H 751.289 0.697786 -4.55992 0
M  V30 8044 H 749.532 0.587498 -4.29803 0
M  V30 8045 H 750.203 1.97989 -5.15271 0
M  V30 8046 H 752.679 2.5276 -3.30532 0
M  V30 8047 H 751.555 3.67616 -4.07615 0
M  V30 8048 H 751.816 3.75053 -2.34068 0
M  V30 8049 N 750.875 1.45233 0.611969 0
M  V30 8050 C 752.121 1.49242 1.37312 0
M  V30 8051 C 752.454 0.131963 1.93751 0
M  V30 8052 O 751.729 -0.852999 1.74798 0
M  V30 8053 C 752.012 2.56811 2.52428 0
M  V30 8054 C 751.865 4.02284 2.01215 0
M  V30 8055 C 753.184 2.60705 3.54572 0
M  V30 8056 H 750.303 0.54336 0.497925 0
M  V30 8057 H 752.945 1.77019 0.690242 0
M  V30 8058 H 751.095 2.33256 3.10683 0
M  V30 8059 H 752.767 4.37035 1.47643 0
M  V30 8060 H 751.01 4.1315 1.32248 0
M  V30 8061 H 751.681 4.7323 2.84178 0
M  V30 8062 H 754.157 2.81799 3.06151 0
M  V30 8063 H 753.033 3.37841 4.32614 0
M  V30 8064 H 753.294 1.65627 4.09903 0
M  V30 8065 N 752.353 -0.854086 1.3245 0
M  V30 8066 C 753.3 -1.96271 1.21434 0
M  V30 8067 C 754.27 -1.6582 0.0963851 0
M  V30 8068 O 755.455 -1.88851 0.27203 0
M  V30 8069 C 752.595 -3.31939 0.943952 0
M  V30 8070 C 751.708 -3.74885 2.14675 0
M  V30 8071 C 750.843 -4.99347 1.81179 0
M  V30 8072 C 749.882 -5.34785 2.97777 0
M  V30 8073 N 749.019 -6.50425 2.6437 0
M  V30 8074 H 753.859 -2.05025 2.16261 0
M  V30 8075 H 751.396 -1.00348 1.07558 0
M  V30 8076 H 753.354 -4.10076 0.767675 0
M  V30 8077 H 751.984 -3.22784 0.0324763 0
M  V30 8078 H 751.036 -2.92396 2.43328 0
M  V30 8079 H 752.348 -3.97068 3.01891 0
M  V30 8080 H 751.502 -5.85193 1.60107 0
M  V30 8081 H 750.241 -4.79101 0.911777 0
M  V30 8082 H 749.246 -4.47451 3.1948 0
M  V30 8083 H 750.471 -5.56988 3.88511 0
M  V30 8084 H 748.417 -6.31695 1.7691 0
M  V30 8085 H 748.334 -6.7263 3.45116 0
M  V30 8086 H 749.602 -7.39422 2.46729 0
M  V30 8087 N 753.831 -1.1567 -1.07043 0
M  V30 8088 C 754.764 -0.799867 -2.13723 0
M  V30 8089 C 755.742 0.225098 -1.61034 0
M  V30 8090 O 756.926 0.11093 -1.88173 0
M  V30 8091 C 754.053 -0.18997 -3.38167 0
M  V30 8092 C 753.099 -1.18733 -4.0964 0
M  V30 8093 S 753.932 -2.73074 -4.60642 0
M  V30 8094 C 755.088 -2.13512 -5.88356 0
M  V30 8095 H 755.321 -1.70342 -2.43661 0
M  V30 8096 H 752.854 -0.979377 -1.19363 0
M  V30 8097 H 754.812 0.155471 -4.10205 0
M  V30 8098 H 753.473 0.691229 -3.064 0
M  V30 8099 H 752.666 -0.708873 -4.9899 0
M  V30 8100 H 752.268 -1.47747 -3.43579 0
M  V30 8101 H 754.56 -1.49911 -6.60706 0
M  V30 8102 H 755.503 -3.01042 -6.40921 0
M  V30 8103 H 755.911 -1.57693 -5.42027 0
M  V30 8104 N 755.309 1.25446 -0.953992 0
M  V30 8105 C 756.239 2.28264 -0.491717 0
M  V30 8106 C 757.22 1.63717 0.461617 0
M  V30 8107 O 758.405 1.90821 0.36071 0
M  V30 8108 C 755.535 3.46525 0.231915 0
M  V30 8109 C 754.489 4.23247 -0.636098 0
M  V30 8110 C 753.815 5.34254 0.218238 0
M  V30 8111 C 755.115 4.85971 -1.91389 0
M  V30 8112 H 756.809 2.67183 -1.35106 0
M  V30 8113 H 754.355 1.2844 -0.651095 0
M  V30 8114 H 756.308 4.17576 0.566439 0
M  V30 8115 H 755.032 3.06594 1.12551 0
M  V30 8116 H 753.691 3.53978 -0.953696 0
M  V30 8117 H 753.339 4.90564 1.11156 0
M  V30 8118 H 753.039 5.86501 -0.359232 0
M  V30 8119 H 754.563 6.08138 0.547743 0
M  V30 8120 H 755.977 5.49168 -1.64581 0
M  V30 8121 H 754.374 5.48391 -2.43696 0
M  V30 8122 H 755.444 4.08192 -2.61738 0
M  V30 8123 N 756.787 0.722489 1.40064 0
M  V30 8124 C 758.198 0.336507 1.83642 0
M  V30 8125 C 758.549 -1.13002 1.6039 0
M  V30 8126 O 757.674 -1.87036 1.08842 0
M  V30 8127 C 758.269 0.603985 3.33373 0
M  V30 8128 C 756.828 0.271637 3.75419 0
M  V30 8129 C 755.975 0.872898 2.63203 0
M  V30 8130 H 758.926 0.921108 1.29233 0
M  V30 8131 H 758.947 -0.128471 3.80283 0
M  V30 8132 H 758.459 1.67141 3.50265 0
M  V30 8133 H 756.56 -0.790455 3.64119 0
M  V30 8134 H 756.673 0.745457 4.73265 0
M  V30 8135 H 755.037 0.300431 2.52922 0
M  V30 8136 H 755.82 1.94473 2.82905 0
M  V30 8137 N 758.265 -1.50454 0.469181 0
M  V30 8138 C 759.49 -2.0722 -0.0864892 0
M  V30 8139 C 759.915 -1.33098 -1.32916 0
M  V30 8140 O 759.273 -0.378084 -1.77314 0
M  V30 8141 C 759.321 -3.58845 -0.355384 0
M  V30 8142 O 758.425 -3.86583 -1.43622 0
M  V30 8143 H 757.766 -0.663889 0.0121414 0
M  V30 8144 H 760.296 -1.93674 0.659674 0
M  V30 8145 H 760.306 -4.03617 -0.596447 0
M  V30 8146 H 758.981 -4.12211 0.552698 0
M  V30 8147 H 757.558 -3.5365 -1.18262 0
M  V30 8148 N 759.743 -0.201713 -1.56304 0
M  V30 8149 C 760.99 0.435307 -1.97766 0
M  V30 8150 C 761.318 1.61169 -1.0888 0
M  V30 8151 O 760.573 1.95272 -0.12934 0
M  V30 8152 C 760.872 0.931432 -3.45049 0
M  V30 8153 C 760.538 -0.132287 -4.50706 0
M  V30 8154 C 759.2 -0.424552 -4.79323 0
M  V30 8155 C 761.552 -0.852703 -5.14177 0
M  V30 8156 C 758.88 -1.4421 -5.68701 0
M  V30 8157 C 761.232 -1.85944 -6.04655 0
M  V30 8158 C 759.896 -2.15884 -6.31625 0
M  V30 8159 H 759.166 0.15929 -0.723676 0
M  V30 8160 H 761.813 -0.300069 -1.89134 0
M  V30 8161 H 760.118 1.7452 -3.50785 0
M  V30 8162 H 761.815 1.43383 -3.74489 0
M  V30 8163 H 758.405 0.105671 -4.2847 0
M  V30 8164 H 762.589 -0.640139 -4.92154 0
M  V30 8165 H 757.845 -1.6799 -5.87869 0
M  V30 8166 H 762.019 -2.42286 -6.52894 0
M  V30 8167 H 759.646 -2.94875 -7.0068 0
M  V30 8168 N 761.222 1.57436 0.0718424 0
M  V30 8169 C 762.468 1.87525 0.772149 0
M  V30 8170 C 762.801 0.79399 1.77227 0
M  V30 8171 O 762.076 -0.195733 1.93513 0
M  V30 8172 C 762.359 3.28272 1.48018 0
M  V30 8173 C 762.212 4.47052 0.49647 0
M  V30 8174 C 763.531 3.67256 2.42509 0
M  V30 8175 H 760.65 0.682049 0.279245 0
M  V30 8176 H 763.292 1.89967 0.03534 0
M  V30 8177 H 761.442 3.26321 2.10824 0
M  V30 8178 H 763.114 4.61127 -0.126375 0
M  V30 8179 H 761.357 4.33392 -0.188205 0
M  V30 8180 H 762.028 5.42315 1.02949 0
M  V30 8181 H 764.504 3.70301 1.89781 0
M  V30 8182 H 763.38 4.66626 2.89053 0
M  V30 8183 H 763.641 2.97186 3.27312 0
M  V30 8184 N 762.7 -0.34323 1.53817 0
M  V30 8185 C 764.116 -0.686355 1.44088 0
M  V30 8186 C 764.316 -1.92426 0.597882 0
M  V30 8187 O 763.372 -2.52343 0.0889918 0
M  V30 8188 C 764.685 -0.878698 2.87575 0
M  V30 8189 C 766.233 -0.977296 2.97352 0
M  V30 8190 C 766.708 -1.20195 4.41947 0
M  V30 8191 N 768.199 -1.26915 4.45474 0
M  V30 8192 C 768.934 -1.46049 5.54488 0
M  V30 8193 N 768.43 -1.62354 6.73508 0
M  V30 8194 N 770.223 -1.48599 5.42102 0
M  V30 8195 H 762.374 0.470679 2.07119 0
M  V30 8196 H 764.637 0.148652 0.936273 0
M  V30 8197 H 764.343 -0.040602 3.51677 0
M  V30 8198 H 764.217 -1.78034 3.32541 0
M  V30 8199 H 766.604 -1.80591 2.3339 0
M  V30 8200 H 766.685 -0.0525498 2.55746 0
M  V30 8201 H 766.329 -0.378262 5.06489 0
M  V30 8202 H 766.259 -2.14027 4.81145 0
M  V30 8203 H 768.75 -1.15837 3.59708 0
M  V30 8204 H 769.063 -1.76591 7.52353 0
M  V30 8205 H 767.408 -1.5949 6.76453 0
M  V30 8206 H 770.599 -1.35443 4.48077 0
M  V30 8207 H 770.772 -1.6317 6.2712 0
M  V30 8208 N 764.178 -1.45556 -0.604258 0
M  V30 8209 C 765.594 -1.30035 -0.925368 0
M  V30 8210 C 765.794 -0.255833 -1.99869 0
M  V30 8211 O 764.85 0.349076 -2.50075 0
M  V30 8212 C 766.163 -2.68028 -1.36314 0
M  V30 8213 C 767.711 -2.75951 -1.47717 0
M  V30 8214 C 768.186 -4.14476 -1.94868 0
M  V30 8215 N 769.677 -4.16787 -2.02097 0
M  V30 8216 C 770.412 -5.20845 -2.39809 0
M  V30 8217 N 769.908 -6.35246 -2.76467 0
M  V30 8218 N 771.701 -5.08204 -2.40177 0
M  V30 8219 H 763.852 -2.1214 0.10512 0
M  V30 8220 H 766.115 -0.947871 -0.0156303 0
M  V30 8221 H 765.821 -3.45667 -0.648628 0
M  V30 8222 H 765.695 -2.96711 -2.329 0
M  V30 8223 H 768.082 -1.98613 -2.18258 0
M  V30 8224 H 768.163 -2.50977 -0.494371 0
M  V30 8225 H 767.807 -4.923 -1.24912 0
M  V30 8226 H 767.737 -4.36843 -2.94068 0
M  V30 8227 H 770.228 -3.34233 -1.76343 0
M  V30 8228 H 770.541 -7.10438 -3.04134 0
M  V30 8229 H 768.886 -6.38642 -2.74155 0
M  V30 8230 H 772.077 -4.17874 -2.10947 0
M  V30 8231 H 772.25 -5.89417 -2.69242 0
M  V30 8232 N 765.656 0.84705 -1.32902 0
M  V30 8233 C 766.884 1.63403 -1.26913 0
M  V30 8234 C 767.299 1.88108 0.161483 0
M  V30 8235 O 766.656 1.45546 1.10103 0
M  V30 8236 C 766.707 2.98896 -2.03331 0
M  V30 8237 O 766.428 2.75281 -3.40811 0
M  V30 8238 C 767.929 3.93335 -2.04457 0
M  V30 8239 H 765.149 0.508701 -0.437566 0
M  V30 8240 H 767.693 1.05567 -1.75145 0
M  V30 8241 H 765.848 3.53356 -1.58802 0
M  V30 8242 H 766.262 3.61504 -3.8002 0
M  V30 8243 H 767.736 4.85647 -2.62394 0
M  V30 8244 H 768.213 4.26885 -1.03274 0
M  V30 8245 H 768.819 3.44812 -2.48967 0
M  V30 8246 N 767.134 1.16236 1.06428 0
M  V30 8247 C 768.545 0.950942 1.60667 0
M  V30 8248 C 768.896 -0.505491 1.89576 0
M  V30 8249 O 768.021 -1.37843 1.66818 0
M  V30 8250 C 768.616 1.71982 2.91904 0
M  V30 8251 C 767.175 1.55342 3.4285 0
M  V30 8252 C 766.322 1.72942 2.16763 0
M  V30 8253 H 769.273 1.31126 0.893959 0
M  V30 8254 H 769.294 1.19483 3.61253 0
M  V30 8255 H 768.806 2.77978 2.70831 0
M  V30 8256 H 766.907 0.5178 3.68985 0
M  V30 8257 H 767.02 2.33643 4.18267 0
M  V30 8258 H 765.384 1.15673 2.26918 0
M  V30 8259 H 766.167 2.80324 1.98175 0
M  V30 8260 N 768.612 -1.24939 0.960631 0
M  V30 8261 C 769.889 -1.88118 0.535807 0
M  V30 8262 C 770.269 -1.86605 -0.987009 0
M  V30 8263 O 769.617 -1.33375 -1.85536 0
M  V30 8264 C 769.827 -3.30565 1.11927 0
M  V30 8265 C 771.175 -4.07296 1.19981 0
M  V30 8266 O 772.199 -3.39709 1.07126 0
M  V30 8267 O 771.058 -5.28206 1.40218 0
M  V30 8268 H 768.152 -0.807698 0.177631 0
M  V30 8269 H 770.698 -1.32964 1.05445 0
M  V30 8270 H 769.47 -3.26128 2.16231 0
M  V30 8271 H 769.093 -3.93284 0.584245 0
M  V30 8272 N 770.09 -0.729906 -1.39679 0
M  V30 8273 C 771.338 -0.275077 -2.00219 0
M  V30 8274 C 771.659 1.1401 -1.58199 0
M  V30 8275 O 770.929 1.77546 -0.827904 0
M  V30 8276 H 769.509 -0.0987127 -0.740449 0
M  V30 8277 H 772.171 -0.93873 -1.70804 0
M  V30 8278 H 771.267 -0.319446 -3.10461 0
M  V30 8279 N 771.568 1.50203 -0.477153 0
M  V30 8280 C 772.796 2.0677 0.0732489 0
M  V30 8281 C 773.211 1.34033 1.32968 0
M  V30 8282 O 772.568 0.411412 1.77802 0
M  V30 8283 C 772.619 3.59751 0.35518 0
M  V30 8284 O 772.34 4.29747 -0.851425 0
M  V30 8285 C 773.841 4.3296 0.951877 0
M  V30 8286 H 771.061 0.670929 -0.00978923 0
M  V30 8287 H 773.605 1.93293 -0.667676 0
M  V30 8288 H 771.76 3.7301 1.04605 0
M  V30 8289 H 772.174 5.2106 -0.599708 0
M  V30 8290 H 773.648 5.40952 1.09888 0
M  V30 8291 H 774.125 3.93856 1.94356 0
M  V30 8292 H 774.731 4.24246 0.299208 0
M  V30 8293 N 773.046 0.209999 1.56195 0
M  V30 8294 C 773.956 -0.716459 2.23392 0
M  V30 8295 C 774.972 -1.22291 1.23778 0
M  V30 8296 O 776.148 -1.26694 1.56558 0
M  V30 8297 C 773.213 -1.91261 2.89172 0
M  V30 8298 C 772.274 -1.44927 4.04097 0
M  V30 8299 C 771.507 -2.5884 4.66731 0
M  V30 8300 O 771.73 -3.76693 4.2832 0
M  V30 8301 O 770.664 -2.30701 5.55932 0
M  V30 8302 H 774.49 -0.174089 3.03201 0
M  V30 8303 H 772.075 -0.0199505 1.49387 0
M  V30 8304 H 773.957 -2.6114 3.30733 0
M  V30 8305 H 772.632 -2.4433 2.12331 0
M  V30 8306 H 771.539 -0.718839 3.67129 0
M  V30 8307 H 772.872 -0.965084 4.82646 0
M  V30 8308 N 774.524 -1.57472 -0.0634922 0
M  V30 8309 C 775.472 -2.05307 -1.09323 0
M  V30 8310 C 776.466 -0.959995 -1.39572 0
M  V30 8311 O 777.672 -1.14507 -1.38882 0
M  V30 8312 H 774.047 -0.65472 -0.369927 0
M  V30 8313 H 776.018 -2.90925 -0.663707 0
M  V30 8314 C 774.767 -2.51954 -2.39613 0
M  V30 8315 H 774.09 -3.35662 -2.1719 0
M  V30 8316 H 775.53 -2.89169 -3.10092 0
M  V30 8317 C 773.989 -1.40596 -3.06161 0
M  V30 8318 O 774.519 -0.752722 -3.94585 0
M  V30 8319 N 772.725 -1.14902 -2.66919 0
M  V30 8320 H 772.272 -1.68205 -1.95102 0
M  V30 8321 H 772.23 -0.406006 -3.11767 0
M  V30 8322 N 776.003 0.335068 -1.53997 0
M  V30 8323 C 777.251 1.07223 -1.71312 0
M  V30 8324 C 777.572 1.88911 -0.483486 0
M  V30 8325 O 776.842 1.89344 0.50257 0
M  V30 8326 H 775.422 0.398846 -0.63161 0
M  V30 8327 H 778.084 0.374288 -1.91272 0
M  V30 8328 H 777.18 1.7448 -2.58772 0
M  V30 8329 N 777.481 1.45874 0.596531 0
M  V30 8330 C 778.758 1.40942 1.35627 0
M  V30 8331 C 779.138 0.0857066 2.10926 0
M  V30 8332 O 778.486 -0.932544 2.08605 0
M  V30 8333 C 778.696 2.63027 2.29386 0
M  V30 8334 C 780.044 3.08588 2.91649 0
M  V30 8335 O 781.068 2.63478 2.39704 0
M  V30 8336 O 779.927 3.86902 3.85965 0
M  V30 8337 H 777.021 0.559838 0.608696 0
M  V30 8338 H 779.567 1.5802 0.618698 0
M  V30 8339 H 778.339 3.5094 1.7308 0
M  V30 8340 H 777.962 2.48338 3.10506 0
M  V30 8341 N 778.959 -0.83999 1.33349 0
M  V30 8342 C 780.206 -1.59517 1.24742 0
M  V30 8343 C 780.534 -1.93598 -0.187077 0
M  V30 8344 O 779.789 -1.58782 -1.14398 0
M  V30 8345 C 780.088 -2.91571 2.06691 0
M  V30 8346 C 779.754 -2.76856 3.55895 0
M  V30 8347 C 778.416 -2.72551 3.96572 0
M  V30 8348 C 780.768 -2.61741 4.50712 0
M  V30 8349 C 778.096 -2.51028 5.30285 0
M  V30 8350 C 780.448 -2.41752 5.84584 0
M  V30 8351 C 779.112 -2.35848 6.24445 0
M  V30 8352 H 778.382 -0.583714 0.456463 0
M  V30 8353 H 781.029 -0.973261 1.64924 0
M  V30 8354 H 779.334 -3.57961 1.59284 0
M  V30 8355 H 781.031 -3.49053 1.9739 0
M  V30 8356 H 777.621 -2.81039 3.23597 0
M  V30 8357 H 781.805 -2.64102 4.20195 0
M  V30 8358 H 777.061 -2.44903 5.60208 0
M  V30 8359 H 781.235 -2.2904 6.57658 0
M  V30 8360 H 778.862 -2.18931 7.27993 0
M  V30 8361 N 780.437 -1.16799 -1.0581 0
M  V30 8362 C 781.367 -0.902241 -2.15364 0
M  V30 8363 C 782.348 0.153351 -1.69407 0
M  V30 8364 O 783.533 0.00442032 -1.94199 0
M  V30 8365 C 780.663 -0.407911 -3.44896 0
M  V30 8366 C 779.617 -1.40197 -4.04387 0
M  V30 8367 C 778.943 -0.765848 -5.29187 0
M  V30 8368 C 780.243 -2.77316 -4.42598 0
M  V30 8369 H 781.937 -1.81841 -2.37853 0
M  V30 8370 H 779.483 -0.875731 -1.14311 0
M  V30 8371 H 781.436 -0.20945 -4.20879 0
M  V30 8372 H 780.16 0.54378 -3.22041 0
M  V30 8373 H 778.819 -1.58707 -3.30466 0
M  V30 8374 H 778.467 0.192482 -5.02632 0
M  V30 8375 H 778.167 -1.42939 -5.69949 0
M  V30 8376 H 779.691 -0.577519 -6.07863 0
M  V30 8377 H 781.105 -2.62561 -5.09642 0
M  V30 8378 H 779.502 -3.4019 -4.94359 0
M  V30 8379 H 780.572 -3.32199 -3.53231 0
M  V30 8380 N 781.915 1.24427 -0.967243 0
M  V30 8381 C 782.878 2.23637 -0.501927 0
M  V30 8382 C 783.878 1.55712 0.401283 0
M  V30 8383 O 785.068 1.73085 0.196808 0
M  V30 8384 C 782.2 3.39804 0.273176 0
M  V30 8385 H 783.393 2.66317 -1.37897 0
M  V30 8386 H 780.946 1.37033 -0.751783 0
M  V30 8387 H 781.681 3.02562 1.16733 0
M  V30 8388 H 781.466 3.90303 -0.37498 0
M  V30 8389 H 782.956 4.13443 0.587776 0
M  V30 8390 N 783.393 0.737304 1.3929 0
M  V30 8391 C 784.323 0.113988 2.33222 0
M  V30 8392 C 785.304 -0.721695 1.54031 0
M  V30 8393 O 786.489 -0.666206 1.82415 0
M  V30 8394 C 783.619 -0.792319 3.38141 0
M  V30 8395 C 782.573 -0.0606178 4.27957 0
M  V30 8396 C 781.899 -1.08409 5.23595 0
M  V30 8397 C 783.199 1.09817 5.10625 0
M  V30 8398 H 784.893 0.898611 2.85596 0
M  V30 8399 H 782.439 0.433571 1.37318 0
M  V30 8400 H 784.392 -1.23793 4.02807 0
M  V30 8401 H 783.116 -1.60908 2.84211 0
M  V30 8402 H 781.775 0.365393 3.64775 0
M  V30 8403 H 781.423 -1.89449 4.6596 0
M  V30 8404 H 781.123 -0.599269 5.84536 0
M  V30 8405 H 782.647 -1.52936 5.91137 0
M  V30 8406 H 784.061 0.730892 5.68622 0
M  V30 8407 H 782.458 1.51278 5.80719 0
M  V30 8408 H 783.528 1.91878 4.45321 0
M  V30 8409 N 784.871 -1.49948 0.485112 0
M  V30 8410 C 786.148 -1.95186 -0.12726 0
M  V30 8411 C 786.528 -1.42605 -1.5565 0
M  V30 8412 O 785.876 -0.632986 -2.19558 0
M  V30 8413 C 786.086 -3.48955 -0.0562117 0
M  V30 8414 C 787.434 -4.23932 -0.238106 0
M  V30 8415 O 788.458 -3.55955 -0.132145 0
M  V30 8416 O 787.317 -5.44614 -0.453658 0
M  V30 8417 H 784.411 -0.820433 -0.104014 0
M  V30 8418 H 786.957 -1.60659 0.546517 0
M  V30 8419 H 785.729 -3.79814 0.941122 0
M  V30 8420 H 785.352 -3.90056 -0.770834 0
M  V30 8421 N 786.349 -0.21828 -1.56081 0
M  V30 8422 C 787.279 0.687922 -2.23136 0
M  V30 8423 C 788.26 1.20357 -1.202 0
M  V30 8424 O 789.445 1.24817 -1.48776 0
M  V30 8425 C 786.575 1.89762 -2.90874 0
M  V30 8426 C 785.529 1.51595 -4.00254 0
M  V30 8427 C 784.855 2.80415 -4.55271 0
M  V30 8428 C 786.155 0.708404 -5.17474 0
M  V30 8429 H 787.849 0.128854 -2.99123 0
M  V30 8430 H 785.395 0.0605354 -1.43873 0
M  V30 8431 H 787.348 2.53699 -3.36474 0
M  V30 8432 H 786.072 2.4816 -2.1233 0
M  V30 8433 H 784.731 0.900058 -3.55379 0
M  V30 8434 H 784.379 3.36951 -3.73461 0
M  V30 8435 H 784.079 2.55613 -5.2909 0
M  V30 8436 H 785.603 3.453 -5.03587 0
M  V30 8437 H 787.017 1.2514 -5.59476 0
M  V30 8438 H 785.414 0.557593 -5.97504 0
M  V30 8439 H 786.484 -0.285679 -4.84058 0
M  V30 8440 N 787.827 1.57504 0.0551401 0
M  V30 8441 C 789.075 1.87684 0.74962 0
M  V30 8442 C 789.396 0.812547 1.77264 0
M  V30 8443 O 788.666 -0.15694 1.9527 0
M  V30 8444 H 787.246 0.6926 0.279846 0
M  V30 8445 H 789.908 1.94881 0.0272745 0
M  V30 8446 H 789.004 2.85734 1.25548 0
M  V30 8447 N 789.305 -0.326896 1.54172 0
M  V30 8448 C 790.553 -1.06313 1.71878 0
M  V30 8449 C 790.874 -1.88652 0.493498 0
M  V30 8450 O 790.144 -1.89608 -0.492522 0
M  V30 8451 H 788.724 -0.39549 0.633716 0
M  V30 8452 H 791.386 -0.364139 1.91468 0
M  V30 8453 H 790.482 -1.73105 2.59694 0
M  V30 8454 N 790.784 -1.46188 -0.588786 0
M  V30 8455 C 792.012 -1.54743 -1.37339 0
M  V30 8456 C 792.427 -0.186446 -1.87877 0
M  V30 8457 O 791.784 0.815247 -1.63279 0
M  V30 8458 C 791.835 -2.54727 -2.56508 0
M  V30 8459 O 791.556 -3.85539 -2.08066 0
M  V30 8460 C 793.057 -2.73163 -3.49137 0
M  V30 8461 H 790.277 -0.523484 -0.419768 0
M  V30 8462 H 792.821 -1.91543 -0.716345 0
M  V30 8463 H 790.976 -2.20948 -3.18215 0
M  V30 8464 H 791.39 -4.39905 -2.85629 0
M  V30 8465 H 792.864 -3.47057 -4.2925 0
M  V30 8466 H 793.341 -1.79856 -4.00685 0
M  V30 8467 H 793.947 -3.08014 -2.9327 0
M  V30 8468 N 792.262 0.832906 -1.33792 0
M  V30 8469 C 793.21 1.96455 -1.24532 0
M  V30 8470 C 794.204 1.68774 -0.145455 0
M  V30 8471 O 795.41 1.77314 -0.309797 0
M  V30 8472 H 791.785 0.645008 -0.386611 0
M  V30 8473 H 793.756 2.01389 -2.20193 0
M  V30 8474 C 792.505 3.32784 -1.00748 0
M  V30 8475 H 791.828 3.54626 -1.84609 0
M  V30 8476 H 793.268 4.12447 -0.98301 0
M  V30 8477 C 791.727 3.35654 0.289475 0
M  V30 8478 O 792.257 3.80281 1.29419 0
M  V30 8479 N 790.463 2.88843 0.3191 0
M  V30 8480 H 790.01 2.52719 -0.499069 0
M  V30 8481 H 789.968 2.91145 1.18667 0
M  V30 8482 N 793.74 1.17359 1.05189 0
M  V30 8483 C 794.987 0.961987 1.78191 0
M  V30 8484 C 795.315 -0.509363 1.87712 0
M  V30 8485 O 794.57 -1.39425 1.37329 0
M  V30 8486 C 794.869 1.54821 3.22126 0
M  V30 8487 C 794.535 3.04378 3.32663 0
M  V30 8488 C 793.197 3.45201 3.35246 0
M  V30 8489 C 795.549 4.00387 3.33677 0
M  V30 8490 C 792.877 4.80629 3.36471 0
M  V30 8491 C 795.229 5.35715 3.36441 0
M  V30 8492 C 793.893 5.76002 3.37311 0
M  V30 8493 H 793.163 0.352016 0.652047 0
M  V30 8494 H 795.81 1.46249 1.23627 0
M  V30 8495 H 794.115 0.969432 3.79617 0
M  V30 8496 H 795.812 1.36004 3.77232 0
M  V30 8497 H 792.402 2.71836 3.31366 0
M  V30 8498 H 796.586 3.69906 3.30882 0
M  V30 8499 H 791.842 5.11155 3.35455 0
M  V30 8500 H 796.016 6.09886 3.36173 0
M  V30 8501 H 793.643 6.80919 3.38013 0
M  V30 8502 N 795.218 -1.23913 0.973828 0
M  V30 8503 C 796.634 -1.44325 0.681363 0
M  V30 8504 C 796.834 -1.86832 -0.754728 0
M  V30 8505 O 795.89 -2.01024 -1.52793 0
M  V30 8506 C 797.203 -2.50017 1.67069 0
M  V30 8507 C 798.751 -2.63838 1.68399 0
M  V30 8508 C 799.226 -3.72734 2.66145 0
M  V30 8509 N 800.717 -3.80169 2.64624 0
M  V30 8510 C 801.452 -4.6397 3.36927 0
M  V30 8511 N 800.948 -5.51911 4.18767 0
M  V30 8512 N 802.741 -4.58106 3.25722 0
M  V30 8513 H 794.892 -0.946204 1.9016 0
M  V30 8514 H 797.155 -0.477374 0.819035 0
M  V30 8515 H 796.861 -2.25686 2.69738 0
M  V30 8516 H 796.735 -3.48287 1.4483 0
M  V30 8517 H 799.122 -2.87524 0.664379 0
M  V30 8518 H 799.203 -1.65906 1.94702 0
M  V30 8519 H 798.847 -3.49797 3.68245 0
M  V30 8520 H 798.777 -4.70193 2.3712 0
M  V30 8521 H 801.268 -3.17319 2.05224 0
M  V30 8522 H 801.581 -6.12828 4.70809 0
M  V30 8523 H 799.926 -5.51556 4.2286 0
M  V30 8524 H 803.117 -3.8842 2.61242 0
M  V30 8525 H 803.29 -5.23188 3.82333 0
M  V30 8526 N 796.696 -0.74468 -1.38897 0
M  V30 8527 C 797.942 -0.297324 -2.00609 0
M  V30 8528 C 798.275 1.11547 -1.58968 0
M  V30 8529 O 797.55 1.76227 -0.823057 0
M  V30 8530 C 797.833 -0.410125 -3.57757 0
M  V30 8531 C 797.686 -1.86338 -4.09387 0
M  V30 8532 C 799.005 0.20176 -4.39637 0
M  V30 8533 H 796.124 -0.109509 -0.728819 0
M  V30 8534 H 798.766 -0.942653 -1.64967 0
M  V30 8535 H 796.916 0.139287 -3.8825 0
M  V30 8536 H 798.588 -2.47042 -3.89574 0
M  V30 8537 H 796.831 -2.38146 -3.62586 0
M  V30 8538 H 797.502 -1.89352 -5.18507 0
M  V30 8539 H 799.978 -0.266703 -4.15244 0
M  V30 8540 H 798.854 0.0925415 -5.48822 0
M  V30 8541 H 799.115 1.289 -4.22891 0
M  V30 8542 N 798.174 1.49689 -0.493057 0
M  V30 8543 C 799.104 2.31826 0.279073 0
M  V30 8544 C 800.085 1.39733 0.969987 0
M  V30 8545 O 801.27 1.68646 0.962925 0
M  V30 8546 C 798.4 3.20046 1.34862 0
M  V30 8547 C 797.354 4.20869 0.77805 0
M  V30 8548 C 796.68 4.97971 1.94753 0
M  V30 8549 C 797.98 5.21813 -0.225543 0
M  V30 8550 H 799.674 2.96627 -0.406512 0
M  V30 8551 H 797.22 1.42647 -0.196943 0
M  V30 8552 H 799.173 3.76315 1.89645 0
M  V30 8553 H 797.897 2.53172 2.06328 0
M  V30 8554 H 796.556 3.65733 0.252036 0
M  V30 8555 H 796.204 4.27552 2.64969 0
M  V30 8556 H 795.904 5.66186 1.57187 0
M  V30 8557 H 797.428 5.57082 2.49984 0
M  V30 8558 H 798.842 5.72823 0.233864 0
M  V30 8559 H 797.239 5.97872 -0.516622 0
M  V30 8560 H 798.309 4.71209 -1.14412 0
M  V30 8561 N 799.652 0.226554 1.55963 0
M  V30 8562 C 800.582 -0.676079 2.23498 0
M  V30 8563 C 801.563 -1.19718 1.20837 0
M  V30 8564 O 802.748 -1.24027 1.49436 0
M  V30 8565 C 799.878 -1.88217 2.91876 0
M  V30 8566 C 798.832 -1.4947 4.01052 0
M  V30 8567 C 798.158 -2.77997 4.56751 0
M  V30 8568 C 799.458 -0.680951 5.17842 0
M  V30 8569 H 801.152 -0.112989 2.99187 0
M  V30 8570 H 798.698 -0.0529046 1.43903 0
M  V30 8571 H 800.651 -2.51911 3.37815 0
M  V30 8572 H 799.375 -2.47031 2.13643 0
M  V30 8573 H 798.034 -0.881199 3.55852 0
M  V30 8574 H 797.682 -3.34966 3.75243 0
M  V30 8575 H 797.382 -2.52803 5.30438 0
M  V30 8576 H 798.906 -3.42625 5.05411 0
M  V30 8577 H 800.32 -1.22171 5.60131 0
M  V30 8578 H 798.717 -0.525898 5.97791 0
M  V30 8579 H 799.787 0.311346 4.83899 0
M  V30 8580 N 801.13 -1.57531 -0.0467866 0
M  V30 8581 C 802.376 -1.8873 -0.742218 0
M  V30 8582 C 802.709 -0.822084 -1.75941 0
M  V30 8583 O 801.984 0.164922 -1.938 0
M  V30 8584 C 802.267 -3.30586 -1.42776 0
M  V30 8585 C 802.12 -4.47785 -0.425285 0
M  V30 8586 C 803.439 -3.71068 -2.36636 0
M  V30 8587 H 800.558 -0.686406 -0.268359 0
M  V30 8588 H 803.2 -1.89999 -0.00511341 0
M  V30 8589 H 801.35 -3.29634 -2.05605 0
M  V30 8590 H 803.022 -4.60867 0.199721 0
M  V30 8591 H 801.265 -4.33037 0.25713 0
M  V30 8592 H 801.936 -5.43884 -0.943086 0
M  V30 8593 H 804.412 -3.73273 -1.83866 0
M  V30 8594 H 803.288 -4.71165 -2.81593 0
M  V30 8595 H 803.549 -3.02355 -3.22542 0
M  V30 8596 N 802.608 0.318715 -1.54344 0
M  V30 8597 C 803.555 1.39242 -1.84066 0
M  V30 8598 C 804.525 1.51175 -0.688134 0
M  V30 8599 O 805.71 1.66318 -0.935039 0
M  V30 8600 C 802.85 2.75528 -2.07794 0
M  V30 8601 C 801.963 2.72187 -3.35467 0
M  V30 8602 C 801.098 4.00352 -3.4913 0
M  V30 8603 C 800.137 3.91338 -4.7066 0
M  V30 8604 N 799.274 5.11242 -4.81224 0
M  V30 8605 H 804.114 1.13196 -2.75664 0
M  V30 8606 H 801.651 0.547857 -1.36517 0
M  V30 8607 H 803.609 3.54763 -2.19543 0
M  V30 8608 H 802.239 2.99873 -1.19482 0
M  V30 8609 H 801.291 1.84917 -3.3243 0
M  V30 8610 H 802.603 2.61411 -4.24812 0
M  V30 8611 H 801.757 4.88019 -3.60448 0
M  V30 8612 H 800.496 4.1394 -2.57886 0
M  V30 8613 H 799.501 3.02055 -4.59394 0
M  V30 8614 H 800.726 3.7931 -5.63294 0
M  V30 8615 H 798.672 5.25327 -3.92897 0
M  V30 8616 H 798.589 5.0282 -5.64543 0
M  V30 8617 H 799.857 6.0061 -4.96879 0
M  V30 8618 N 804.086 1.46499 0.581025 0
M  V30 8619 C 805.335 1.51162 1.3354 0
M  V30 8620 C 805.648 0.168433 1.94873 0
M  V30 8621 O 806.854 0.092883 2.71341 0
M  V30 8622 C 805.31 2.66362 2.42032 0
M  V30 8623 C 804.918 4.07109 1.86994 0
M  V30 8624 C 806.662 2.80297 3.188 0
M  V30 8625 C 804.569 5.13645 2.93125 0
M  V30 8626 H 803.499 0.562576 0.502021 0
M  V30 8627 H 806.15 1.72713 0.619863 0
M  V30 8628 H 804.532 2.38143 3.16392 0
M  V30 8629 H 805.706 4.45125 1.19166 0
M  V30 8630 H 804.021 3.97854 1.22887 0
M  V30 8631 H 806.618 3.5706 3.9801 0
M  V30 8632 H 806.961 1.87875 3.71495 0
M  V30 8633 H 807.494 3.0817 2.51547 0
M  V30 8634 H 804.233 6.07866 2.45315 0
M  V30 8635 H 803.753 4.80172 3.59437 0
M  V30 8636 H 805.432 5.39562 3.57046 0
M  V30 8637 N 805.565 -0.825799 1.34232 0
M  V30 8638 C 806.981 -1.11848 1.13851 0
M  V30 8639 C 807.181 -2.01405 -0.0619031 0
M  V30 8640 O 806.237 -2.41465 -0.738287 0
M  V30 8641 C 807.55 -1.76797 2.43235 0
M  V30 8642 C 809.098 -1.89304 2.49265 0
M  V30 8643 C 809.573 -2.57669 3.78643 0
M  V30 8644 N 811.064 -2.65171 3.79788 0
M  V30 8645 C 811.799 -3.1879 4.76614 0
M  V30 8646 N 811.295 -3.72995 5.83821 0
M  V30 8647 N 813.088 -3.17164 4.64073 0
M  V30 8648 H 805.239 -0.230049 2.11151 0
M  V30 8649 H 807.502 -0.164609 0.9336 0
M  V30 8650 H 807.208 -1.18455 3.31152 0
M  V30 8651 H 807.082 -2.76693 2.56361 0
M  V30 8652 H 809.469 -2.46796 1.6179 0
M  V30 8653 H 809.55 -0.883191 2.4007 0
M  V30 8654 H 809.194 -2.00833 4.66507 0
M  V30 8655 H 809.124 -3.59152 3.8512 0
M  V30 8656 H 811.615 -2.26746 3.02315 0
M  V30 8657 H 811.928 -4.12151 6.53721 0
M  V30 8658 H 810.273 -3.71246 5.87538 0
M  V30 8659 H 813.464 -2.74082 3.79469 0
M  V30 8660 H 813.637 -3.58647 5.397 0
M  V30 8661 N 807.043 -1.17915 -1.04565 0
M  V30 8662 C 808.268 -0.996749 -1.81878 0
M  V30 8663 C 808.693 0.450169 -1.82634 0
M  V30 8664 O 808.051 1.32268 -1.23995 0
M  V30 8665 C 808.099 -1.55005 -3.25585 0
M  V30 8666 O 807.203 -0.76804 -4.05185 0
M  V30 8667 H 806.544 -0.353456 -0.562108 0
M  V30 8668 H 809.074 -1.56557 -1.31723 0
M  V30 8669 H 809.084 -1.57503 -3.76373 0
M  V30 8670 H 807.759 -2.60327 -3.2435 0
M  V30 8671 H 806.336 -0.81498 -3.63885 0
M  V30 8672 N 808.521 1.23394 -0.980386 0
M  V30 8673 C 809.769 1.91431 -0.647978 0
M  V30 8674 C 810.09 1.76871 0.821066 0
M  V30 8675 O 809.36 1.14808 1.58732 0
M  V30 8676 H 807.94 0.708516 -0.236673 0
M  V30 8677 H 810.602 1.50019 -1.2442 0
M  V30 8678 H 809.698 2.98854 -0.899592 0
M  V30 8679 N 809.999 0.752036 1.385 0
M  V30 8680 C 810.946 0.123288 2.3047 0
M  V30 8681 C 811.916 -0.711326 1.50098 0
M  V30 8682 O 813.101 -0.667775 1.78733 0
M  V30 8683 C 810.241 -0.765085 3.36512 0
M  V30 8684 C 809.354 0.0839885 4.31918 0
M  V30 8685 C 808.489 -0.807243 5.25031 0
M  V30 8686 C 807.528 0.0455583 6.12083 0
M  V30 8687 N 806.665 -0.802547 6.97498 0
M  V30 8688 H 811.505 0.913169 2.83664 0
M  V30 8689 H 809.042 0.46195 1.39658 0
M  V30 8690 H 811 -1.29476 3.966 0
M  V30 8691 H 809.63 -1.52077 2.84732 0
M  V30 8692 H 808.682 0.731276 3.73305 0
M  V30 8693 H 809.994 0.74265 4.9324 0
M  V30 8694 H 809.148 -1.40414 5.90228 0
M  V30 8695 H 807.887 -1.49964 4.64071 0
M  V30 8696 H 806.892 0.655137 5.45883 0
M  V30 8697 H 808.117 0.734994 6.75111 0
M  V30 8698 H 806.063 -1.47992 6.39089 0
M  V30 8699 H 805.98 -0.200747 7.55733 0
M  V30 8700 H 807.248 -1.38447 7.67107 0
M  V30 8701 N 811.477 -1.49425 0.500989 0
M  V30 8702 C 812.424 -2.29126 -0.277443 0
M  V30 8703 C 813.394 -1.35522 -0.960363 0
M  V30 8704 O 814.579 -1.64479 -0.967027 0
M  V30 8705 C 811.719 -3.18193 -1.33593 0
M  V30 8706 C 810.832 -4.26854 -0.664791 0
M  V30 8707 C 809.967 -5.03137 -1.70372 0
M  V30 8708 C 809.006 -6.03635 -1.01445 0
M  V30 8709 N 808.143 -6.73083 -1.99758 0
M  V30 8710 H 812.983 -2.95187 0.408458 0
M  V30 8711 H 810.52 -1.45546 0.213275 0
M  V30 8712 H 812.478 -3.68207 -1.96161 0
M  V30 8713 H 811.108 -2.54116 -1.9906 0
M  V30 8714 H 810.16 -3.80328 0.0741708 0
M  V30 8715 H 811.472 -4.9865 -0.122197 0
M  V30 8716 H 810.626 -5.5702 -2.40445 0
M  V30 8717 H 809.365 -4.31114 -2.28017 0
M  V30 8718 H 808.37 -5.48984 -0.299496 0
M  V30 8719 H 809.595 -6.77644 -0.444497 0
M  V30 8720 H 807.541 -6.03832 -2.56365 0
M  V30 8721 H 807.458 -7.40855 -1.50565 0
M  V30 8722 H 808.726 -7.3157 -2.69119 0
M  V30 8723 N 812.955 -0.234822 -1.55841 0
M  V30 8724 C 814.371 0.120295 -1.59146 0
M  V30 8725 C 814.571 1.57896 -1.25184 0
M  V30 8726 O 813.627 2.32138 -0.993393 0
M  V30 8727 C 814.94 -0.217984 -2.99909 0
M  V30 8728 C 816.488 -0.161298 -3.12584 0
M  V30 8729 C 816.963 -0.473438 -4.55546 0
M  V30 8730 N 818.454 -0.423494 -4.6126 0
M  V30 8731 C 819.189 -0.638334 -5.69836 0
M  V30 8732 N 818.685 -0.915659 -6.86722 0
M  V30 8733 N 820.478 -0.569864 -5.59204 0
M  V30 8734 H 812.629 -1.18622 -1.76189 0
M  V30 8735 H 814.892 -0.476426 -0.819587 0
M  V30 8736 H 814.598 -1.2309 -3.29457 0
M  V30 8737 H 814.472 0.460707 -3.74376 0
M  V30 8738 H 816.859 0.842274 -2.82825 0
M  V30 8739 H 816.94 -0.873661 -2.40418 0
M  V30 8740 H 816.584 -1.47451 -4.86025 0
M  V30 8741 H 816.514 0.260268 -5.25956 0
M  V30 8742 H 819.005 -0.217383 -3.77274 0
M  V30 8743 H 819.318 -1.06734 -7.65394 0
M  V30 8744 H 817.663 -0.953 -6.88435 0
M  V30 8745 H 820.854 -0.35334 -4.66765 0
M  V30 8746 H 821.027 -0.740698 -6.43753 0
M  V30 8747 N 814.433 1.57553 0.0384317 0
M  V30 8748 C 815.661 1.93093 0.743141 0
M  V30 8749 C 816.076 0.833787 1.69391 0
M  V30 8750 O 815.433 -0.190532 1.81503 0
M  V30 8751 C 815.484 3.28533 1.50826 0
M  V30 8752 O 815.205 4.34032 0.595665 0
M  V30 8753 C 816.706 3.78297 2.31098 0
M  V30 8754 H 813.926 0.637486 0.20941 0
M  V30 8755 H 816.47 2.045 -0.00125154 0
M  V30 8756 H 814.625 3.18552 2.20462 0
M  V30 8757 H 815.039 5.12155 1.13124 0
M  V30 8758 H 816.513 4.75602 2.80191 0
M  V30 8759 H 816.99 3.09008 3.12107 0
M  V30 8760 H 817.596 3.91331 1.66555 0
M  V30 8761 N 815.911 -0.310526 1.54511 0
M  V30 8762 C 817.157 -1.04846 1.73595 0
M  V30 8763 C 817.49 -1.87244 0.515118 0
M  V30 8764 O 816.765 -1.88282 -0.48786 0
M  V30 8765 C 817.048 -1.96237 3.01932 0
M  V30 8766 C 816.901 -1.17082 4.34295 0
M  V30 8767 C 818.22 -2.9556 3.26086 0
M  V30 8768 H 815.339 -0.37976 0.631626 0
M  V30 8769 H 817.981 -0.32394 1.87218 0
M  V30 8770 H 816.131 -2.58015 2.90449 0
M  V30 8771 H 817.803 -0.576643 4.57682 0
M  V30 8772 H 816.046 -0.473336 4.3121 0
M  V30 8773 H 816.717 -1.84257 5.20339 0
M  V30 8774 H 819.193 -2.43908 3.37117 0
M  V30 8775 H 818.069 -3.5668 4.17218 0
M  V30 8776 H 818.33 -3.68715 2.4393 0
M  V30 8777 N 817.389 -1.46805 -0.573248 0
M  V30 8778 C 818.299 -1.60687 -1.70929 0
M  V30 8779 C 819.315 -0.490084 -1.66956 0
M  V30 8780 O 820.491 -0.755482 -1.86693 0
M  V30 8781 C 817.556 -1.60259 -3.07438 0
M  V30 8782 C 816.617 -2.83242 -3.22603 0
M  V30 8783 C 815.85 -2.82825 -4.52599 0
M  V30 8784 O 816.073 -1.92113 -5.37074 0
M  V30 8785 O 815.007 -3.74489 -4.71213 0
M  V30 8786 H 818.833 -2.56782 -1.62163 0
M  V30 8787 H 816.418 -1.29706 -0.741399 0
M  V30 8788 H 818.3 -1.6275 -3.88704 0
M  V30 8789 H 816.975 -0.673268 -3.16621 0
M  V30 8790 H 815.882 -2.86302 -2.40794 0
M  V30 8791 H 817.215 -3.75415 -3.18315 0
M  V30 8792 N 818.867 0.818669 -1.34668 0
M  V30 8793 C 819.8 1.93516 -1.20941 0
M  V30 8794 C 820.778 1.62292 -0.100061 0
M  V30 8795 O 821.962 1.86614 -0.265983 0
M  V30 8796 C 819.089 3.27612 -0.859524 0
M  V30 8797 C 818.135 3.77794 -1.97923 0
M  V30 8798 S 818.968 3.97043 -3.59329 0
M  V30 8799 C 820.124 5.3406 -3.2639 0
M  V30 8800 H 820.357 2.04864 -2.15449 0
M  V30 8801 H 817.89 0.974716 -1.19744 0
M  V30 8802 H 819.848 4.05087 -0.664444 0
M  V30 8803 H 818.509 3.14028 0.0672835 0
M  V30 8804 H 817.702 4.74883 -1.68827 0
M  V30 8805 H 817.304 3.0728 -2.13202 0
M  V30 8806 H 819.596 6.17626 -2.78469 0
M  V30 8807 H 820.539 5.68143 -4.22634 0
M  V30 8808 H 820.947 4.99773 -2.62464 0
M  V30 8809 N 820.346 1.18468 1.03938 0
M  V30 8810 C 821.296 0.880799 2.103 0
M  V30 8811 C 822.28 -0.150008 1.60199 0
M  V30 8812 O 823.472 0.054213 1.76917 0
M  V30 8813 C 820.601 0.409723 3.40846 0
M  V30 8814 C 819.687 1.47267 3.9771 0
M  V30 8815 N 820.078 2.68945 4.28371 0
M  V30 8816 C 818.376 1.33349 4.25598 0
M  V30 8817 C 819.077 3.37341 4.73894 0
M  V30 8818 N 818.053 2.64725 4.74786 0
M  V30 8819 H 821.855 1.80574 2.31884 0
M  V30 8820 H 819.369 1.07527 1.21703 0
M  V30 8821 H 821.366 0.17352 4.16539 0
M  V30 8822 H 820.026 -0.508862 3.20688 0
M  V30 8823 H 821.037 3.05801 4.17978 0
M  V30 8824 H 817.714 0.477548 4.1476 0
M  V30 8825 H 819.104 4.41338 5.06627 0
M  V30 8826 N 821.824 -1.22873 0.986916 0
M  V30 8827 C 822.772 -2.26597 0.525043 0
M  V30 8828 C 823.766 -1.64079 -0.421252 0
M  V30 8829 O 824.972 -1.77576 -0.294429 0
M  V30 8830 H 821.347 -0.736606 0.151381 0
M  V30 8831 H 823.318 -2.62909 1.41142 0
M  V30 8832 C 822.067 -3.47374 -0.150542 0
M  V30 8833 H 821.39 -3.95737 0.568541 0
M  V30 8834 H 822.83 -4.21739 -0.437256 0
M  V30 8835 C 821.289 -3.07163 -1.38392 0
M  V30 8836 O 821.819 -3.16028 -2.47971 0
M  V30 8837 N 820.025 -2.62009 -1.25697 0
M  V30 8838 H 819.572 -2.54996 -0.365355 0
M  V30 8839 H 819.53 -2.35472 -2.08327 0
M  V30 8840 N 823.302 -0.75937 -1.38099 0
M  V30 8841 C 824.249 -0.135508 -2.30402 0
M  V30 8842 C 825.219 0.703356 -1.50473 0
M  V30 8843 O 826.404 0.658287 -1.79084 0
M  V30 8844 C 823.544 0.747228 -3.36913 0
M  V30 8845 C 822.657 -0.106893 -4.31868 0
M  V30 8846 C 821.792 0.779388 -5.25451 0
M  V30 8847 C 820.831 -0.0780179 -6.1205 0
M  V30 8848 N 819.968 0.765545 -6.97914 0
M  V30 8849 H 824.808 -0.9282 -2.83176 0
M  V30 8850 H 822.345 -0.46935 -1.39411 0
M  V30 8851 H 824.303 1.27371 -3.97281 0
M  V30 8852 H 822.933 1.50565 -2.85535 0
M  V30 8853 H 821.985 -0.751063 -3.72912 0
M  V30 8854 H 823.297 -0.768798 -4.9284 0
M  V30 8855 H 822.451 1.37282 -5.90964 0
M  V30 8856 H 821.19 1.47501 -4.6486 0
M  V30 8857 H 820.195 -0.684078 -5.45528 0
M  V30 8858 H 821.42 -0.770786 -6.74712 0
M  V30 8859 H 819.366 1.44601 -6.39864 0
M  V30 8860 H 819.283 0.160666 -7.55829 0
M  V30 8861 H 820.551 1.34377 -7.6783 0
M  V30 8862 N 824.78 1.49157 -0.508906 0
M  V30 8863 C 826.029 2.0167 0.0346854 0
M  V30 8864 C 826.342 1.39302 1.37311 0
M  V30 8865 O 827.548 1.83189 2.00385 0
M  V30 8866 C 826.004 3.59725 0.112261 0
M  V30 8867 C 825.612 4.31069 -1.21999 0
M  V30 8868 C 827.356 4.20155 0.605798 0
M  V30 8869 C 825.263 5.81001 -1.10415 0
M  V30 8870 H 824.193 0.753814 0.0167355 0
M  V30 8871 H 826.844 1.7162 -0.649518 0
M  V30 8872 H 825.226 3.86525 0.861087 0
M  V30 8873 H 826.4 4.15962 -1.98273 0
M  V30 8874 H 824.715 3.82418 -1.64759 0
M  V30 8875 H 827.312 5.29964 0.710102 0
M  V30 8876 H 827.655 3.84051 1.60656 0
M  V30 8877 H 828.188 3.97705 -0.0867239 0
M  V30 8878 H 824.927 6.21643 -2.07941 0
M  V30 8879 H 824.447 5.9858 -0.382428 0
M  V30 8880 H 826.126 6.42207 -0.786116 0
M  V30 8881 N 826.258 0.243083 1.55714 0
M  V30 8882 C 827.488 -0.38641 2.02954 0
M  V30 8883 C 827.896 -1.52358 1.12177 0
M  V30 8884 O 827.239 -1.83255 0.127853 0
M  V30 8885 C 827.301 -0.959388 3.46462 0
M  V30 8886 C 826.965 0.0450546 4.56978 0
M  V30 8887 C 827.962 0.853224 5.12851 0
M  V30 8888 C 825.647 0.170041 5.02012 0
M  V30 8889 C 827.641 1.77288 6.12248 0
M  V30 8890 C 825.328 1.0932 6.01242 0
M  V30 8891 C 826.326 1.89315 6.56238 0
M  V30 8892 O 826.014 2.80075 7.53534 0
M  V30 8893 H 825.746 -0.0964333 0.669086 0
M  V30 8894 H 828.3 0.363399 2.0216 0
M  V30 8895 H 826.53 -1.75869 3.44394 0
M  V30 8896 H 828.219 -1.49856 3.77224 0
M  V30 8897 H 828.985 0.767229 4.78893 0
M  V30 8898 H 824.864 -0.442528 4.58871 0
M  V30 8899 H 828.408 2.39768 6.55101 0
M  V30 8900 H 824.305 1.18013 6.3462 0
M  V30 8901 H 825.073 2.74393 7.71136 0
M  V30 8902 N 827.736 -1.57571 -0.0300757 0
M  V30 8903 C 828.699 -2.05468 -1.01565 0
M  V30 8904 C 829.699 -0.958628 -1.29101 0
M  V30 8905 O 830.889 -1.22228 -1.24121 0
M  V30 8906 C 828.021 -2.47077 -2.34874 0
M  V30 8907 H 829.214 -2.93797 -0.601936 0
M  V30 8908 H 826.767 -1.53828 -0.276878 0
M  V30 8909 H 827.502 -1.61901 -2.80996 0
M  V30 8910 H 827.287 -3.27097 -2.16218 0
M  V30 8911 H 828.777 -2.84564 -3.05635 0
M  V30 8912 N 829.214 0.302327 -1.54673 0
M  V30 8913 C 830.463 1.03533 -1.73101 0
M  V30 8914 C 830.776 1.88473 -0.523174 0
M  V30 8915 O 831.982 2.65029 -0.589229 0
M  V30 8916 C 830.438 1.89043 -3.06252 0
M  V30 8917 C 830.046 1.09112 -4.3451 0
M  V30 8918 C 831.79 2.61951 -3.34039 0
M  V30 8919 C 829.697 1.93891 -5.58713 0
M  V30 8920 H 828.627 0.390261 -0.645145 0
M  V30 8921 H 831.278 0.2924 -1.81155 0
M  V30 8922 H 829.66 2.67319 -2.92159 0
M  V30 8923 H 830.834 0.354596 -4.59434 0
M  V30 8924 H 829.149 0.477923 -4.13648 0
M  V30 8925 H 831.746 3.25729 -4.24033 0
M  V30 8926 H 832.089 3.30711 -2.52855 0
M  V30 8927 H 832.622 1.90725 -3.49097 0
M  V30 8928 H 829.361 1.29604 -6.4256 0
M  V30 8929 H 828.881 2.6522 -5.37976 0
M  V30 8930 H 830.56 2.51971 -5.95919 0
M  V30 8931 N 830.692 1.47107 0.565454 0
M  V30 8932 C 832.103 1.47266 1.1476 0
M  V30 8933 C 832.454 0.222841 1.9493 0
M  V30 8934 O 831.579 -0.672862 2.05673 0
M  V30 8935 C 832.174 2.66822 2.08785 0
M  V30 8936 C 830.733 2.69967 2.62288 0
M  V30 8937 C 829.88 2.40236 1.38499 0
M  V30 8938 H 832.831 1.54736 0.352479 0
M  V30 8939 H 832.852 2.43323 2.92531 0
M  V30 8940 H 832.364 3.5777 1.50408 0
M  V30 8941 H 830.465 1.83137 3.24487 0
M  V30 8942 H 830.578 3.70426 3.03845 0
M  V30 8943 H 828.942 1.90648 1.68895 0
M  V30 8944 H 829.725 3.33381 0.819274 0
M  V30 8945 N 832.17 -0.811516 1.35101 0
M  V30 8946 C 833.419 -1.56343 1.27435 0
M  V30 8947 C 833.732 -1.95019 -0.150696 0
M  V30 8948 O 834.938 -2.6924 -0.349586 0
M  V30 8949 C 833.394 -2.82124 2.23459 0
M  V30 8950 C 833.002 -2.50706 3.71283 0
M  V30 8951 C 834.746 -3.60137 2.24726 0
M  V30 8952 C 832.653 -3.72748 4.59143 0
M  V30 8953 H 831.583 -0.58682 0.473453 0
M  V30 8954 H 834.234 -0.892465 1.60335 0
M  V30 8955 H 832.616 -3.50905 1.83525 0
M  V30 8956 H 833.79 -1.89962 4.19823 0
M  V30 8957 H 832.105 -1.85947 3.72576 0
M  V30 8958 H 834.702 -4.50775 2.87587 0
M  V30 8959 H 835.045 -3.97101 1.24965 0
M  V30 8960 H 835.578 -2.98311 2.63164 0
M  V30 8961 H 832.317 -3.40896 5.59884 0
M  V30 8962 H 831.837 -4.32735 4.15332 0
M  V30 8963 H 833.516 -4.40033 4.74321 0
M  V30 8964 N 833.648 -1.19017 -1.03309 0
M  V30 8965 C 834.558 -0.939303 -2.14975 0
M  V30 8966 C 835.574 0.0992359 -1.73717 0
M  V30 8967 O 836.75 -0.0844362 -2.01223 0
M  V30 8968 C 833.815 -0.476712 -3.43407 0
M  V30 8969 C 832.876 -1.58413 -3.99003 0
M  V30 8970 C 832.109 -1.14352 -5.21305 0
M  V30 8971 O 832.332 -0.00534408 -5.704 0
M  V30 8972 O 831.266 -1.94436 -5.6963 0
M  V30 8973 H 835.092 -1.87386 -2.38998 0
M  V30 8974 H 832.677 -0.972635 -1.13403 0
M  V30 8975 H 834.559 -0.22718 -4.20787 0
M  V30 8976 H 833.234 0.429455 -3.20839 0
M  V30 8977 H 832.141 -1.88777 -3.22977 0
M  V30 8978 H 833.474 -2.4667 -4.25928 0
M  V30 8979 N 835.127 1.22348 -0.993418 0
M  V30 8980 C 836.376 1.90422 -0.665019 0
M  V30 8981 C 836.689 1.78199 0.806512 0
M  V30 8982 O 837.895 2.41193 1.24652 0
M  V30 8983 C 836.351 3.41403 -1.13893 0
M  V30 8984 C 835.959 3.62262 -2.63572 0
M  V30 8985 C 837.703 4.15175 -0.884884 0
M  V30 8986 C 835.61 5.06947 -3.04564 0
M  V30 8987 H 834.54 0.713073 -0.245037 0
M  V30 8988 H 837.191 1.3856 -1.20305 0
M  V30 8989 H 835.573 3.9245 -0.529027 0
M  V30 8990 H 836.747 3.21705 -3.29913 0
M  V30 8991 H 835.062 3.01824 -2.86865 0
M  V30 8992 H 837.659 5.21813 -1.16684 0
M  V30 8993 H 838.002 4.15915 0.178982 0
M  V30 8994 H 838.535 3.70157 -1.45701 0
M  V30 8995 H 835.274 5.11346 -4.10128 0
M  V30 8996 H 834.794 5.48404 -2.42927 0
M  V30 8997 H 836.473 5.75374 -2.95894 0
M  V30 8998 N 836.605 0.766683 1.37694 0
M  V30 8999 C 837.538 0.0959288 2.27998 0
M  V30 9000 C 838.516 -0.714493 1.46061 0
M  V30 9001 O 839.7 -0.690337 1.75404 0
M  V30 9002 C 836.827 -0.87057 3.27321 0
M  V30 9003 C 835.873 -0.144771 4.26254 0
M  V30 9004 S 836.706 1.16365 5.22704 0
M  V30 9005 C 837.862 0.200564 6.25579 0
M  V30 9006 H 838.095 0.861666 2.84539 0
M  V30 9007 H 835.628 0.559845 1.43893 0
M  V30 9008 H 837.586 -1.42282 3.85053 0
M  V30 9009 H 836.247 -1.60938 2.69737 0
M  V30 9010 H 835.44 -0.877259 4.96307 0
M  V30 9011 H 835.042 0.33633 3.72485 0
M  V30 9012 H 837.334 -0.628833 6.74575 0
M  V30 9013 H 838.277 0.869117 7.02746 0
M  V30 9014 H 838.685 -0.185972 5.64194 0
M  V30 9015 N 838.083 -1.48885 0.516809 0
M  V30 9016 C 839.015 -2.27357 -0.290061 0
M  V30 9017 C 840.028 -1.34558 -0.916406 0
M  V30 9018 O 841.217 -1.59715 -0.797073 0
M  V30 9019 C 838.317 -3.07496 -1.42476 0
M  V30 9020 C 837.49 -4.27982 -0.902793 0
M  V30 9021 C 836.549 -4.90038 -1.91701 0
M  V30 9022 O 835.575 -5.49643 -1.47922 0
M  V30 9023 N 836.777 -4.811 -3.24843 0
M  V30 9024 H 839.542 -2.97244 0.382884 0
M  V30 9025 H 837.103 -1.58064 0.35032 0
M  V30 9026 H 839.095 -3.45882 -2.10113 0
M  V30 9027 H 837.665 -2.40115 -2.00159 0
M  V30 9028 H 836.885 -3.94167 -0.0508272 0
M  V30 9029 H 838.173 -5.06003 -0.532723 0
M  V30 9030 H 837.571 -4.33801 -3.63088 0
M  V30 9031 H 836.128 -5.23625 -3.8815 0
M  V30 9032 N 839.561 -0.251338 -1.55583 0
M  V30 9033 C 840.809 0.371434 -1.98657 0
M  V30 9034 C 841.13 1.58143 -1.14087 0
M  V30 9035 O 840.4 1.94607 -0.224708 0
M  V30 9036 H 838.98 0.140225 -0.733721 0
M  V30 9037 H 841.642 -0.351157 -1.9171 0
M  V30 9038 H 840.738 0.677554 -3.04657 0
M  V30 9039 N 841.039 1.57585 0.0217189 0
M  V30 9040 C 842.267 1.93871 0.722619 0
M  V30 9041 C 842.682 0.851706 1.68498 0
M  V30 9042 O 842.039 -0.17127 1.81695 0
M  V30 9043 C 842.09 3.30114 1.47333 0
M  V30 9044 O 841.811 4.34639 0.549597 0
M  V30 9045 C 843.312 3.80727 2.27072 0
M  V30 9046 H 840.532 0.639671 0.202637 0
M  V30 9047 H 843.076 2.04487 -0.0229414 0
M  V30 9048 H 841.231 3.20872 2.17071 0
M  V30 9049 H 841.645 5.13326 1.07686 0
M  V30 9050 H 843.119 4.78547 2.75131 0
M  V30 9051 H 843.596 3.12301 3.08812 0
M  V30 9052 H 844.202 3.93075 1.62395 0
M  V30 9053 N 842.517 -0.29412 1.54831 0
M  V30 9054 C 843.765 -1.02643 1.74094 0
M  V30 9055 C 844.086 -1.87563 0.533402 0
M  V30 9056 O 843.356 -1.9061 -0.452192 0
M  V30 9057 H 841.936 -0.381959 0.641963 0
M  V30 9058 H 844.598 -0.323444 1.92197 0
M  V30 9059 H 843.694 -1.67558 2.63307 0
M  V30 9060 N 843.995 -1.47404 -0.557645 0
M  V30 9061 C 844.905 -1.62491 -1.69216 0
M  V30 9062 C 845.921 -0.507764 -1.66426 0
M  V30 9063 O 847.097 -0.775241 -1.85882 0
M  V30 9064 C 844.162 -1.63511 -3.05721 0
M  V30 9065 C 843.223 -2.86648 -3.1958 0
M  V30 9066 C 842.456 -2.87609 -4.49574 0
M  V30 9067 O 842.679 -1.97799 -5.35006 0
M  V30 9068 O 841.613 -3.79465 -4.67215 0
M  V30 9069 H 845.439 -2.58487 -1.59431 0
M  V30 9070 H 843.024 -1.30485 -0.7276 0
M  V30 9071 H 844.906 -1.66863 -3.86956 0
M  V30 9072 H 843.581 -0.706812 -3.15889 0
M  V30 9073 H 842.488 -2.8884 -2.37744 0
M  V30 9074 H 843.821 -3.7877 -3.14316 0
M  V30 9075 N 845.473 0.80434 -1.35529 0
M  V30 9076 C 846.383 1.94784 -1.30753 0
M  V30 9077 C 847.399 1.72703 -0.212071 0
M  V30 9078 O 848.575 1.96494 -0.441841 0
M  V30 9079 C 845.64 3.29406 -1.08133 0
M  V30 9080 C 844.701 3.64367 -2.27013 0
M  V30 9081 C 843.934 4.92566 -2.05463 0
M  V30 9082 O 844.157 5.61166 -1.02222 0
M  V30 9083 O 843.091 5.25838 -2.92879 0
M  V30 9084 H 846.917 2.01761 -2.26994 0
M  V30 9085 H 844.502 0.942448 -1.15924 0
M  V30 9086 H 846.384 4.09995 -0.973756 0
M  V30 9087 H 845.059 3.23355 -0.149444 0
M  V30 9088 H 843.966 2.84146 -2.43335 0
M  V30 9089 H 845.299 3.75125 -3.18656 0
M  V30 9090 N 846.951 1.19563 1.02676 0
M  V30 9091 C 847.881 0.959024 2.12897 0
M  V30 9092 C 848.862 -0.108382 1.69754 0
M  V30 9093 O 850.047 0.0470698 1.94143 0
M  V30 9094 C 847.177 0.499211 3.43693 0
M  V30 9095 C 846.131 1.5087 4.00528 0
M  V30 9096 C 845.457 0.905884 5.2697 0
M  V30 9097 C 846.757 2.88954 4.3509 0
M  V30 9098 H 848.451 1.88084 2.32948 0
M  V30 9099 H 845.997 0.905731 1.11949 0
M  V30 9100 H 847.95 0.320965 4.20176 0
M  V30 9101 H 846.674 -0.458205 3.2337 0
M  V30 9102 H 845.333 1.67413 3.26142 0
M  V30 9103 H 844.981 -0.0591506 5.02965 0
M  V30 9104 H 844.681 1.58 5.65959 0
M  V30 9105 H 846.205 0.73848 6.06118 0
M  V30 9106 H 847.619 2.75981 5.02501 0
M  V30 9107 H 846.016 3.53177 4.85166 0
M  V30 9108 H 847.086 3.41447 3.44299 0
M  V30 9109 N 848.429 -1.21819 0.999893 0
M  V30 9110 C 849.676 -1.90752 0.679694 0
M  V30 9111 C 850.004 -1.77777 -0.789014 0
M  V30 9112 O 849.259 -1.14518 -1.58695 0
M  V30 9113 C 849.558 -3.4193 1.04012 0
M  V30 9114 C 849.224 -3.75098 2.50225 0
M  V30 9115 C 847.886 -3.83861 2.90179 0
M  V30 9116 C 850.238 -3.90706 3.44961 0
M  V30 9117 C 847.566 -4.05676 4.23844 0
M  V30 9118 C 849.918 -4.14027 4.78294 0
M  V30 9119 C 848.582 -4.21016 5.17979 0
M  V30 9120 H 847.852 -0.698012 0.248718 0
M  V30 9121 H 850.499 -1.44437 1.25738 0
M  V30 9122 H 848.804 -3.89947 0.380606 0
M  V30 9123 H 850.501 -3.93532 0.770301 0
M  V30 9124 H 847.091 -3.68865 2.18258 0
M  V30 9125 H 851.275 -3.83307 3.15261 0
M  V30 9126 H 846.531 -4.09316 4.5417 0
M  V30 9127 H 850.705 -4.25046 5.51642 0
M  V30 9128 H 848.332 -4.37672 6.21568 0
M  V30 9129 N 849.908 -0.773975 -1.37286 0
M  V30 9130 C 851.185 -0.263942 -1.93811 0
M  V30 9131 C 851.565 1.24138 -1.70743 0
M  V30 9132 O 850.913 2.02557 -1.05749 0
M  V30 9133 C 851.123 -0.639753 -3.43086 0
M  V30 9134 C 852.471 -0.610796 -4.20184 0
M  V30 9135 O 853.495 -0.579278 -3.51458 0
M  V30 9136 O 852.354 -0.639862 -5.42741 0
M  V30 9137 H 849.448 -0.0614331 -0.824715 0
M  V30 9138 H 851.994 -0.855477 -1.46559 0
M  V30 9139 H 850.766 -1.67856 -3.53469 0
M  V30 9140 H 850.389 -0.0212827 -3.97594 0
M  V30 9141 N 851.386 1.48609 -0.524698 0
M  V30 9142 C 852.336 2.26505 0.260696 0
M  V30 9143 C 853.32 1.32378 0.914597 0
M  V30 9144 O 854.512 1.5695 0.818277 0
M  V30 9145 C 851.641 3.17313 1.31024 0
M  V30 9146 C 850.727 4.18911 0.661391 0
M  V30 9147 N 851.118 5.05183 -0.24981 0
M  V30 9148 C 849.416 4.36425 0.91922 0
M  V30 9149 C 850.117 5.78348 -0.623598 0
M  V30 9150 N 849.093 5.43598 0.0140839 0
M  V30 9151 H 852.895 2.90582 -0.440388 0
M  V30 9152 H 850.409 1.5875 -0.342364 0
M  V30 9153 H 852.406 3.71772 1.88656 0
M  V30 9154 H 851.066 2.54791 2.01275 0
M  V30 9155 H 852.077 5.1415 -0.622093 0
M  V30 9156 H 848.754 3.85095 1.6127 0
M  V30 9157 H 850.144 6.57775 -1.37046 0
M  V30 9158 N 852.864 0.259585 1.55447 0
M  V30 9159 C 854.113 -0.362163 1.98422 0
M  V30 9160 C 854.426 -1.58135 1.1512 0
M  V30 9161 O 855.632 -2.27506 1.48166 0
M  V30 9162 C 854.088 -0.695722 3.53111 0
M  V30 9163 C 853.696 0.502784 4.4517 0
M  V30 9164 C 855.44 -1.28096 4.04712 0
M  V30 9165 C 853.347 0.144674 5.91223 0
M  V30 9166 H 852.277 -0.139092 0.74106 0
M  V30 9167 H 854.928 0.361798 1.79898 0
M  V30 9168 H 853.31 -1.47816 3.67378 0
M  V30 9169 H 854.484 1.27994 4.42667 0
M  V30 9170 H 852.799 1.0038 4.0412 0
M  V30 9171 H 855.396 -1.56243 5.11363 0
M  V30 9172 H 855.739 -2.20969 3.52815 0
M  V30 9173 H 856.272 -0.561146 3.93822 0
M  V30 9174 H 853.011 1.04087 6.47183 0
M  V30 9175 H 852.531 -0.596023 5.96831 0
M  V30 9176 H 854.21 -0.268651 6.46442 0
M  V30 9177 N 854.342 -1.57594 -0.0133615 0
M  V30 9178 C 855.588 -1.90262 -0.702019 0
M  V30 9179 C 855.921 -0.859219 -1.74158 0
M  V30 9180 O 855.196 0.123778 -1.94106 0
M  V30 9181 C 855.479 -3.3354 -1.35732 0
M  V30 9182 C 855.332 -4.48586 -0.330208 0
M  V30 9183 C 856.651 -3.76004 -2.28712 0
M  V30 9184 H 853.77 -0.691943 -0.253739 0
M  V30 9185 H 856.412 -1.89967 0.0351894 0
M  V30 9186 H 854.562 -3.33921 -1.98567 0
M  V30 9187 H 856.234 -4.6034 0.297433 0
M  V30 9188 H 854.477 -4.32394 0.348926 0
M  V30 9189 H 855.148 -5.45762 -0.827508 0
M  V30 9190 H 857.624 -3.77089 -1.75906 0
M  V30 9191 H 856.5 -4.77032 -2.71535 0
M  V30 9192 H 856.761 -3.09129 -3.16056 0
M  V30 9193 N 855.82 0.285905 -1.54985 0
M  V30 9194 C 857.045 1.04207 -1.7932 0
M  V30 9195 C 857.47 1.79622 -0.558343 0
M  V30 9196 O 856.828 1.74506 0.491661 0
M  V30 9197 C 856.876 1.98648 -3.0095 0
M  V30 9198 O 855.98 3.07207 -2.75132 0
M  V30 9199 H 855.321 0.298596 -0.593074 0
M  V30 9200 H 857.851 0.318736 -2.02102 0
M  V30 9201 H 857.861 2.4084 -3.29333 0
M  V30 9202 H 856.536 1.43167 -3.90482 0
M  V30 9203 H 855.113 2.69423 -2.57809 0
M  V30 9204 N 857.298 1.47698 0.54982 0
M  V30 9205 C 858.538 1.56286 1.31735 0
M  V30 9206 C 858.902 0.223042 1.907 0
M  V30 9207 O 860.103 0.183798 2.68171 0
M  V30 9208 C 858.374 2.65522 2.39234 0
M  V30 9209 S 859.933 2.93742 3.25977 0
M  V30 9210 H 856.751 0.551795 0.448378 0
M  V30 9211 H 859.353 1.85118 0.628629 0
M  V30 9212 H 858.057 3.61457 1.94362 0
M  V30 9213 H 857.588 2.38528 3.12838 0
M  V30 9214 H 859.603 2.31522 4.38876 0
M  V30 9215 N 858.776 -0.797141 1.35954 0
M  V30 9216 C 860.025 -1.54983 1.29086 0
M  V30 9217 C 860.338 -1.95167 -0.130003 0
M  V30 9218 O 861.544 -2.69596 -0.32101 0
M  V30 9219 C 860 -2.79738 2.26439 0
M  V30 9220 C 859.608 -2.46753 3.73921 0
M  V30 9221 C 861.352 -3.57733 2.28533 0
M  V30 9222 C 859.259 -3.67858 4.63071 0
M  V30 9223 H 858.189 -0.581766 0.479651 0
M  V30 9224 H 860.84 -0.87541 1.61273 0
M  V30 9225 H 859.222 -3.48939 1.87236 0
M  V30 9226 H 860.396 -1.85499 4.21814 0
M  V30 9227 H 858.711 -1.81985 3.74527 0
M  V30 9228 H 861.308 -4.47699 2.92351 0
M  V30 9229 H 861.651 -3.95754 1.29169 0
M  V30 9230 H 862.184 -2.95504 2.66313 0
M  V30 9231 H 858.923 -3.34939 5.63468 0
M  V30 9232 H 858.443 -4.28305 4.19898 0
M  V30 9233 H 860.122 -4.34977 4.78961 0
M  V30 9234 N 860.254 -1.20106 -1.0204 0
M  V30 9235 C 861.479 -1.0351 -1.79723 0
M  V30 9236 C 861.904 0.411328 -1.83548 0
M  V30 9237 O 861.262 1.29608 -1.26773 0
M  V30 9238 C 861.31 -1.61876 -3.22224 0
M  V30 9239 O 860.414 -0.853813 -4.03465 0
M  V30 9240 H 859.755 -0.365299 -0.554484 0
M  V30 9241 H 862.285 -1.59316 -1.28373 0
M  V30 9242 H 862.295 -1.65451 -3.72948 0
M  V30 9243 H 860.97 -2.67148 -3.18755 0
M  V30 9244 H 859.547 -0.891983 -3.62075 0
M  V30 9245 N 861.732 1.21287 -1.00634 0
M  V30 9246 C 863.009 1.86 -0.605257 0
M  V30 9247 C 863.389 1.90139 0.917072 0
M  V30 9248 O 862.737 1.40169 1.80458 0
M  V30 9249 C 862.947 3.26183 -1.24119 0
M  V30 9250 C 864.295 4.02562 -1.35015 0
M  V30 9251 O 865.319 3.35499 -1.19661 0
M  V30 9252 O 864.178 5.22638 -1.59726 0
M  V30 9253 H 861.272 0.800549 -0.207486 0
M  V30 9254 H 863.818 1.28959 -1.10307 0
M  V30 9255 H 862.59 3.17878 -2.28186 0
M  V30 9256 H 862.213 3.90845 -0.729807 0
M  V30 9257 N 863.21 0.781244 1.36873 0
M  V30 9258 C 864.457 0.349889 1.99454 0
M  V30 9259 C 864.785 -1.07621 1.62013 0
M  V30 9260 O 864.04 -1.75665 0.86258 0
M  V30 9261 C 864.339 0.45146 3.54537 0
M  V30 9262 C 864.005 1.83718 4.11775 0
M  V30 9263 C 862.667 2.21634 4.2712 0
M  V30 9264 C 865.019 2.7449 4.43063 0
M  V30 9265 C 862.347 3.49742 4.7106 0
M  V30 9266 C 864.699 4.02017 4.88431 0
M  V30 9267 C 863.363 4.39967 5.01982 0
M  V30 9268 H 862.633 0.128033 0.729855 0
M  V30 9269 H 865.28 0.997117 1.63493 0
M  V30 9270 H 863.585 -0.279288 3.90803 0
M  V30 9271 H 865.282 0.0988609 4.00878 0
M  V30 9272 H 861.872 1.53251 4.00265 0
M  V30 9273 H 866.056 2.46453 4.30783 0
M  V30 9274 H 861.312 3.79026 4.79738 0
M  V30 9275 H 865.486 4.72475 5.11605 0
M  V30 9276 H 863.113 5.39291 5.35788 0
M  V30 9277 N 864.689 -1.48329 0.532571 0
M  V30 9278 C 865.619 -2.32485 -0.217511 0
M  V30 9279 C 866.6 -1.42255 -0.932598 0
M  V30 9280 O 867.785 -1.7114 -0.917873 0
M  V30 9281 C 864.915 -3.23509 -1.26329 0
M  V30 9282 C 863.869 -4.22784 -0.666191 0
M  V30 9283 C 863.195 -5.0296 -1.81482 0
M  V30 9284 C 864.495 -5.21031 0.363813 0
M  V30 9285 H 866.189 -2.95445 0.485014 0
M  V30 9286 H 863.735 -1.42075 0.234694 0
M  V30 9287 H 865.688 -3.81211 -1.79601 0
M  V30 9288 H 864.412 -2.58554 -1.99543 0
M  V30 9289 H 863.071 -3.66272 -0.15498 0
M  V30 9290 H 862.719 -4.34427 -2.5354 0
M  V30 9291 H 862.419 -5.70154 -1.4212 0
M  V30 9292 H 863.943 -5.63514 -2.35126 0
M  V30 9293 H 865.357 -5.73241 -0.0819079 0
M  V30 9294 H 863.754 -5.96292 0.674956 0
M  V30 9295 H 864.824 -4.6801 1.26865 0
M  V30 9296 N 866.167 -0.267825 -1.55308 0
M  V30 9297 C 867.444 0.402449 -1.91415 0
M  V30 9298 C 867.824 1.7428 -1.1912 0
M  V30 9299 O 867.172 2.2631 -0.315609 0
M  V30 9300 C 867.382 0.549926 -3.4464 0
M  V30 9301 C 868.73 0.836188 -4.16285 0
M  V30 9302 O 869.754 0.635009 -3.50494 0
M  V30 9303 O 868.613 1.22051 -5.32697 0
M  V30 9304 H 865.707 0.219177 -0.797427 0
M  V30 9305 H 868.253 -0.313439 -1.6678 0
M  V30 9306 H 867.025 -0.393641 -3.89315 0
M  V30 9307 H 866.648 1.31556 -3.75205 0
M  V30 9308 N 867.645 1.57599 0.00500368 0
M  V30 9309 C 868.875 1.94344 0.700998 0
M  V30 9310 C 869.283 0.868011 1.68114 0
M  V30 9311 O 868.626 -0.16214 1.82983 0
M  V30 9312 C 868.688 3.27046 1.49268 0
M  V30 9313 C 868.352 4.51992 0.674684 0
M  V30 9314 C 869.349 5.19888 -0.0354833 0
M  V30 9315 C 867.034 4.98432 0.622129 0
M  V30 9316 C 869.028 6.3252 -0.787246 0
M  V30 9317 C 866.715 6.10954 -0.133362 0
M  V30 9318 C 867.713 6.77855 -0.836788 0
M  V30 9319 O 867.401 7.88221 -1.57996 0
M  V30 9320 H 867.133 0.645572 0.20053 0
M  V30 9321 H 869.687 2.0536 -0.040718 0
M  V30 9322 H 867.917 3.12424 2.27877 0
M  V30 9323 H 869.606 3.4894 2.07355 0
M  V30 9324 H 870.372 4.85 -0.00400159 0
M  V30 9325 H 866.251 4.46189 1.15917 0
M  V30 9326 H 869.795 6.84671 -1.33683 0
M  V30 9327 H 865.692 6.45285 -0.166682 0
M  V30 9328 H 866.46 8.0471 -1.49615 0
M  V30 9329 N 869.123 -0.277682 1.55134 0
M  V30 9330 C 870.056 -1.3685 1.82612 0
M  V30 9331 C 871.034 -1.47752 0.678833 0
M  V30 9332 O 872.218 -1.6445 0.921329 0
M  V30 9333 C 869.345 -2.74539 1.98359 0
M  V30 9334 C 868.391 -2.80945 3.20893 0
M  V30 9335 S 869.224 -2.40666 4.78373 0
M  V30 9336 C 870.38 -3.80338 4.97085 0
M  V30 9337 H 870.613 -1.13338 2.74849 0
M  V30 9338 H 868.146 -0.477063 1.46845 0
M  V30 9339 H 870.104 -3.53834 2.08115 0
M  V30 9340 H 868.765 -2.95306 1.07019 0
M  V30 9341 H 867.958 -3.81992 3.28783 0
M  V30 9342 H 867.56 -2.09667 3.09703 0
M  V30 9343 H 869.852 -4.75565 4.8254 0
M  V30 9344 H 870.795 -3.77403 5.99143 0
M  V30 9345 H 871.203 -3.71424 4.25094 0
M  V30 9346 N 870.601 -1.47988 -0.541979 0
M  V30 9347 C 871.849 -1.55086 -1.29587 0
M  V30 9348 C 872.17 -0.221304 -1.9374 0
M  V30 9349 O 871.44 0.756128 -1.80719 0
M  V30 9350 H 870.02 -0.571307 -0.481266 0
M  V30 9351 H 872.682 -1.8438 -0.631675 0
M  V30 9352 H 871.778 -2.32556 -2.08144 0
M  V30 9353 N 872.079 0.78992 -1.36375 0
M  V30 9354 C 873.328 1.54296 -1.29906 0
M  V30 9355 C 873.641 1.95234 0.119651 0
M  V30 9356 O 874.847 2.69762 0.306708 0
M  V30 9357 C 873.303 2.78533 -2.27919 0
M  V30 9358 C 872.911 2.44767 -3.75224 0
M  V30 9359 C 874.655 3.56516 -2.30427 0
M  V30 9360 C 872.562 3.65397 -4.65015 0
M  V30 9361 H 871.492 0.579214 -0.482729 0
M  V30 9362 H 874.143 0.866845 -1.61735 0
M  V30 9363 H 872.525 3.47941 -1.89084 0
M  V30 9364 H 873.699 1.83259 -4.22792 0
M  V30 9365 H 872.014 1.79996 -3.75487 0
M  V30 9366 H 874.611 4.46143 -2.94722 0
M  V30 9367 H 874.954 3.95063 -1.31266 0
M  V30 9368 H 875.487 2.94087 -2.67876 0
M  V30 9369 H 872.226 3.31946 -5.65236 0
M  V30 9370 H 871.746 4.26072 -4.22164 0
M  V30 9371 H 873.425 4.32431 -4.81261 0
M  V30 9372 N 873.557 1.20646 1.01402 0
M  V30 9373 C 874.504 0.957618 2.09996 0
M  V30 9374 C 875.474 -0.113115 1.65714 0
M  V30 9375 O 876.659 0.032142 1.90773 0
M  V30 9376 C 873.799 0.5186 3.41181 0
M  V30 9377 C 872.912 1.65777 3.98926 0
M  V30 9378 C 872.047 1.16881 5.18182 0
M  V30 9379 C 871.086 2.2809 5.68015 0
M  V30 9380 N 870.223 1.80392 6.7853 0
M  V30 9381 H 875.063 1.88732 2.30617 0
M  V30 9382 H 872.6 0.940703 1.13089 0
M  V30 9383 H 874.558 0.245367 4.16478 0
M  V30 9384 H 873.188 -0.3741 3.20625 0
M  V30 9385 H 872.24 2.04586 3.207 0
M  V30 9386 H 873.552 2.49507 4.31912 0
M  V30 9387 H 872.706 0.851694 6.00692 0
M  V30 9388 H 871.445 0.301434 4.86768 0
M  V30 9389 H 870.45 2.60614 4.84108 0
M  V30 9390 H 871.675 3.15308 6.01463 0
M  V30 9391 H 869.621 0.959856 6.4894 0
M  V30 9392 H 869.538 2.57701 7.10722 0
M  V30 9393 H 870.806 1.51688 7.64598 0
M  V30 9394 N 875.035 -1.20752 1.01276 0
M  V30 9395 C 876.283 -1.89645 0.698505 0
M  V30 9396 C 876.604 -1.78986 -0.773883 0
M  V30 9397 O 875.874 -1.18977 -1.55632 0
M  V30 9398 H 874.454 -0.701992 0.255375 0
M  V30 9399 H 877.116 -1.46668 1.28353 0
M  V30 9400 H 876.212 -2.96364 0.978512 0
M  V30 9401 N 876.513 -0.788492 -1.36457 0
M  V30 9402 C 877.924 -0.423742 -1.81828 0
M  V30 9403 C 878.275 1.05221 -1.65599 0
M  V30 9404 O 877.4 1.8163 -1.17641 0
M  V30 9405 C 877.995 -0.762354 -3.30112 0
M  V30 9406 C 876.554 -0.450445 -3.73695 0
M  V30 9407 C 875.701 -0.997482 -2.58738 0
M  V30 9408 H 878.652 -0.981718 -1.24692 0
M  V30 9409 H 878.673 -0.0531136 -3.80463 0
M  V30 9410 H 878.185 -1.83662 -3.41891 0
M  V30 9411 H 876.286 0.615829 -3.67476 0
M  V30 9412 H 876.399 -0.970408 -4.69169 0
M  V30 9413 H 874.763 -0.420761 -2.51201 0
M  V30 9414 H 875.546 -2.07749 -2.73304 0
M  V30 9415 N 877.991 1.48044 -0.54043 0
M  V30 9416 C 879.407 1.58354 -0.199006 0
M  V30 9417 C 879.607 1.54118 1.29807 0
M  V30 9418 O 878.663 1.43573 2.07709 0
M  V30 9419 C 879.976 2.89563 -0.810797 0
M  V30 9420 C 881.524 3.03113 -0.780486 0
M  V30 9421 C 881.999 4.36997 -1.37104 0
M  V30 9422 N 883.49 4.43591 -1.33347 0
M  V30 9423 C 884.225 5.45714 -1.76021 0
M  V30 9424 N 883.721 6.54738 -2.26473 0
M  V30 9425 N 885.514 5.36659 -1.67194 0
M  V30 9426 H 877.665 1.49041 -1.51329 0
M  V30 9427 H 879.928 0.708309 -0.630081 0
M  V30 9428 H 879.634 2.9835 -1.86227 0
M  V30 9429 H 879.508 3.76053 -0.293977 0
M  V30 9430 H 881.895 2.93932 0.262246 0
M  V30 9431 H 881.976 2.18207 -1.33489 0
M  V30 9432 H 881.62 4.46932 -2.41276 0
M  V30 9433 H 881.55 5.20607 -0.792229 0
M  V30 9434 H 884.041 3.65391 -0.964259 0
M  V30 9435 H 884.354 7.28814 -2.57002 0
M  V30 9436 H 882.699 6.55673 -2.30473 0
M  V30 9437 H 885.89 4.50382 -1.27569 0
M  V30 9438 H 886.063 6.16113 -2.00771 0
M  V30 9439 N 879.47 0.276058 1.55163 0
M  V30 9440 C 880.403 -0.652386 2.18676 0
M  V30 9441 C 881.381 -1.15151 1.148 0
M  V30 9442 O 882.565 -1.22431 1.43328 0
M  V30 9443 C 879.692 -1.88982 2.81076 0
M  V30 9444 C 878.738 -1.52609 3.98262 0
M  V30 9445 S 879.571 -0.603445 5.32089 0
M  V30 9446 C 880.727 -1.84923 5.97958 0
M  V30 9447 H 880.96 -0.112733 2.97086 0
M  V30 9448 H 878.493 0.0603118 1.54282 0
M  V30 9449 H 880.451 -2.60007 3.17658 0
M  V30 9450 H 879.112 -2.40061 2.02557 0
M  V30 9451 H 878.305 -2.44689 4.40617 0
M  V30 9452 H 877.907 -0.89601 3.63108 0
M  V30 9453 H 880.199 -2.79303 6.17249 0
M  V30 9454 H 881.142 -1.46868 6.92702 0
M  V30 9455 H 881.55 -2.0146 5.27327 0
M  V30 9456 N 880.948 -1.576 0.00335426 0
M  V30 9457 C 882.359 -1.7875 -0.539008 0
M  V30 9458 C 882.71 -0.911097 -1.73763 0
M  V30 9459 O 881.835 -0.114476 -2.16097 0
M  V30 9460 C 882.43 -3.24177 -0.984611 0
M  V30 9461 C 880.989 -3.46412 -1.47226 0
M  V30 9462 C 880.136 -2.74024 -0.425004 0
M  V30 9463 H 883.087 -1.57032 0.229511 0
M  V30 9464 H 883.108 -3.32474 -1.85044 0
M  V30 9465 H 882.62 -3.87938 -0.112035 0
M  V30 9466 H 880.721 -2.8787 -2.36562 0
M  V30 9467 H 880.834 -4.55098 -1.49741 0
M  V30 9468 H 879.198 -2.38741 -0.887394 0
M  V30 9469 H 879.981 -3.40486 0.438662 0
M  V30 9470 N 882.426 0.269451 -1.5528 0
M  V30 9471 C 883.356 1.33729 -1.91413 0
M  V30 9472 C 884.337 1.51348 -0.776391 0
M  V30 9473 O 885.522 1.64332 -1.03482 0
M  V30 9474 C 882.652 2.69618 -2.18914 0
M  V30 9475 C 881.606 2.66725 -3.34726 0
M  V30 9476 C 880.932 4.06199 -3.47716 0
M  V30 9477 C 882.232 2.25684 -4.71025 0
M  V30 9478 H 883.926 1.03736 -2.80854 0
M  V30 9479 H 881.472 0.497579 -1.3513 0
M  V30 9480 H 883.425 3.44436 -2.42779 0
M  V30 9481 H 882.149 3.01201 -1.26275 0
M  V30 9482 H 880.808 1.94365 -3.10834 0
M  V30 9483 H 880.456 4.3501 -2.52537 0
M  V30 9484 H 880.156 4.05157 -4.25583 0
M  V30 9485 H 881.68 4.8275 -3.73877 0
M  V30 9486 H 883.094 2.90225 -4.94411 0
M  V30 9487 H 881.491 2.35797 -5.51833 0
M  V30 9488 H 882.561 1.20819 -4.69607 0
M  V30 9489 N 883.904 1.48273 0.534124 0
M  V30 9490 C 885.152 1.55771 1.28762 0
M  V30 9491 C 885.473 0.231575 1.9362 0
M  V30 9492 O 884.743 -0.746533 1.81118 0
M  V30 9493 H 883.323 0.573851 0.47823 0
M  V30 9494 H 885.985 1.84712 0.621888 0
M  V30 9495 H 885.081 2.33657 2.06908 0
M  V30 9496 N 885.382 -0.782676 1.36792 0
M  V30 9497 C 886.629 -1.54083 1.31395 0
M  V30 9498 C 886.957 -1.94217 -0.104797 0
M  V30 9499 O 886.212 -1.63491 -1.0756 0
M  V30 9500 C 886.511 -2.82542 2.18872 0
M  V30 9501 C 886.177 -2.61512 3.67317 0
M  V30 9502 C 884.839 -2.55486 4.07775 0
M  V30 9503 C 887.191 -2.42389 4.61407 0
M  V30 9504 C 884.519 -2.28311 5.40454 0
M  V30 9505 C 886.871 -2.1674 5.94312 0
M  V30 9506 C 885.535 -2.09151 6.33887 0
M  V30 9507 H 884.805 -0.563829 0.48081 0
M  V30 9508 H 887.452 -0.902436 1.68903 0
M  V30 9509 H 885.757 -3.50883 1.74323 0
M  V30 9510 H 887.454 -3.40367 2.12017 0
M  V30 9511 H 884.044 -2.67062 3.35225 0
M  V30 9512 H 888.228 -2.46043 4.31018 0
M  V30 9513 H 883.484 -2.20922 5.70091 0
M  V30 9514 H 887.658 -2.0094 6.6678 0
M  V30 9515 H 885.285 -1.87857 7.36623 0
M  V30 9516 N 886.86 -1.21182 -1.00761 0
M  V30 9517 C 888.088 -1.05335 -1.78079 0
M  V30 9518 C 888.503 0.396988 -1.84579 0
M  V30 9519 O 887.86 1.27548 -1.30529 0
M  V30 9520 C 887.911 -1.64089 -3.22113 0
M  V30 9521 O 887.632 -3.03448 -3.15992 0
M  V30 9522 C 889.133 -1.53318 -4.15943 0
M  V30 9523 H 886.353 -0.37005 -0.559736 0
M  V30 9524 H 888.897 -1.60463 -1.26775 0
M  V30 9525 H 887.052 -1.13059 -3.70535 0
M  V30 9526 H 887.466 -3.31492 -4.06465 0
M  V30 9527 H 888.94 -1.99174 -5.14814 0
M  V30 9528 H 889.417 -0.487166 -4.3649 0
M  V30 9529 H 890.023 -2.03582 -3.73409 0
M  V30 9530 N 888.338 1.20213 -1.01915 0
M  V30 9531 C 889.585 1.89647 -0.709955 0
M  V30 9532 C 889.913 1.7901 0.760631 0
M  V30 9533 O 889.168 1.17028 1.56853 0
M  V30 9534 C 889.467 3.40232 -1.09438 0
M  V30 9535 C 889.133 3.7107 -2.5616 0
M  V30 9536 C 887.795 3.79196 -2.96249 0
M  V30 9537 C 890.147 3.85169 -3.51133 0
M  V30 9538 C 887.475 3.98882 -4.30244 0
M  V30 9539 C 889.827 4.06365 -4.8482 0
M  V30 9540 C 888.491 4.12722 -5.24611 0
M  V30 9541 H 887.761 0.693967 -0.259791 0
M  V30 9542 H 890.408 1.42419 -1.2802 0
M  V30 9543 H 888.713 3.89292 -0.442596 0
M  V30 9544 H 890.41 3.92257 -0.832811 0
M  V30 9545 H 887 3.65346 -2.24099 0
M  V30 9546 H 891.184 3.78243 -3.21319 0
M  V30 9547 H 886.44 4.02039 -4.60624 0
M  V30 9548 H 890.614 4.16216 -5.58334 0
M  V30 9549 H 888.241 4.27728 -6.28453 0
M  V30 9550 N 889.816 0.795718 1.36037 0
M  V30 9551 C 891.041 0.38204 2.03851 0
M  V30 9552 C 891.466 -0.995553 1.59594 0
M  V30 9553 O 890.824 -1.64258 0.767401 0
M  V30 9554 C 890.872 0.461248 3.57638 0
M  V30 9555 O 889.976 -0.529448 4.08987 0
M  V30 9556 H 889.317 0.161227 0.644129 0
M  V30 9557 H 891.847 1.07858 1.73861 0
M  V30 9558 H 891.857 0.32712 4.06687 0
M  V30 9559 H 890.532 1.46613 3.89201 0
M  V30 9560 H 889.109 -0.35646 3.71192 0
M  V30 9561 N 891.294 -1.47756 0.548274 0
M  V30 9562 C 892.541 -2.02489 0.0208955 0
M  V30 9563 C 892.869 -1.42356 -1.32533 0
M  V30 9564 O 892.124 -0.565448 -1.87353 0
M  V30 9565 C 892.423 -3.5716 -0.131069 0
M  V30 9566 C 892.089 -4.36169 1.14313 0
M  V30 9567 C 890.751 -4.57476 1.4923 0
M  V30 9568 C 893.103 -4.81801 1.9879 0
M  V30 9569 C 890.431 -5.21662 2.68487 0
M  V30 9570 C 892.783 -5.47303 3.17242 0
M  V30 9571 C 891.447 -5.66844 3.52483 0
M  V30 9572 H 890.717 -0.740961 0.00764621 0
M  V30 9573 H 893.364 -1.77531 0.717987 0
M  V30 9574 H 891.669 -3.8106 -0.911063 0
M  V30 9575 H 893.366 -3.9715 -0.55433 0
M  V30 9576 H 889.956 -4.19858 0.861235 0
M  V30 9577 H 894.14 -4.65126 1.73123 0
M  V30 9578 H 889.396 -5.34987 2.95971 0
M  V30 9579 H 893.57 -5.81626 3.82994 0
M  V30 9580 H 891.197 -6.16352 4.44988 0
M  V30 9581 N 892.772 -0.284283 -1.55015 0
M  V30 9582 C 894.183 0.211681 -1.85496 0
M  V30 9583 C 894.534 1.54735 -1.2063 0
M  V30 9584 O 893.659 2.10594 -0.497918 0
M  V30 9585 C 894.254 0.390864 -3.36538 0
M  V30 9586 C 892.813 0.831055 -3.67111 0
M  V30 9587 C 891.96 -0.0703581 -2.77211 0
M  V30 9588 H 894.911 -0.505803 -1.50424 0
M  V30 9589 H 894.932 1.22803 -3.60138 0
M  V30 9590 H 894.444 -0.581409 -3.8372 0
M  V30 9591 H 892.545 1.81447 -3.25434 0
M  V30 9592 H 892.658 0.662026 -4.74504 0
M  V30 9593 H 891.022 0.447528 -2.50737 0
M  V30 9594 H 891.805 -1.03868 -3.2721 0
M  V30 9595 N 894.251 1.57596 -0.0117121 0
M  V30 9596 C 895.491 1.92932 0.675031 0
M  V30 9597 C 895.855 0.887004 1.70283 0
M  V30 9598 O 897.056 1.12599 2.4408 0
M  V30 9599 C 895.327 3.3327 1.29098 0
M  V30 9600 S 896.886 3.90509 2.00121 0
M  V30 9601 H 893.704 0.675226 0.22269 0
M  V30 9602 H 896.306 1.9537 -0.071208 0
M  V30 9603 H 895.01 4.0696 0.530262 0
M  V30 9604 H 894.541 3.34233 2.0749 0
M  V30 9605 H 896.556 3.72532 3.27771 0
M  V30 9606 N 895.729 -0.261212 1.5542 0
M  V30 9607 C 896.661 -1.34571 1.85535 0
M  V30 9608 C 897.674 -1.44979 0.740612 0
M  V30 9609 O 898.863 -1.46584 1.01859 0
M  V30 9610 C 895.963 -2.7258 2.01378 0
M  V30 9611 C 895.136 -2.84618 3.32131 0
M  V30 9612 C 894.195 -4.03379 3.37893 0
M  V30 9613 O 893.221 -3.93581 4.11197 0
M  V30 9614 N 894.423 -5.15893 2.66148 0
M  V30 9615 H 897.188 -1.09078 2.79145 0
M  V30 9616 H 894.749 -0.451327 1.55482 0
M  V30 9617 H 896.741 -3.50342 2.0259 0
M  V30 9618 H 895.311 -2.90844 1.14579 0
M  V30 9619 H 894.531 -1.93647 3.43358 0
M  V30 9620 H 895.819 -2.896 4.18341 0
M  V30 9621 H 895.217 -5.26743 2.06297 0
M  V30 9622 H 893.774 -5.91842 2.73069 0
M  V30 9623 N 897.207 -1.48554 -0.526253 0
M  V30 9624 C 898.139 -1.59446 -1.6465 0
M  V30 9625 C 899.152 -0.478525 -1.55608 0
M  V30 9626 O 900.341 -0.74953 -1.62001 0
M  V30 9627 C 897.441 -1.51164 -3.03319 0
M  V30 9628 C 896.614 -2.77861 -3.37805 0
M  V30 9629 C 895.673 -2.62982 -4.5577 0
M  V30 9630 O 894.699 -3.36876 -4.58806 0
M  V30 9631 N 895.901 -1.72847 -5.5417 0
M  V30 9632 H 898.666 -2.56055 -1.55743 0
M  V30 9633 H 896.227 -1.45325 -0.713606 0
M  V30 9634 H 898.219 -1.389 -3.80117 0
M  V30 9635 H 896.789 -0.625147 -3.06285 0
M  V30 9636 H 896.009 -3.04663 -2.50149 0
M  V30 9637 H 897.297 -3.61908 -3.57632 0
M  V30 9638 H 896.695 -1.12022 -5.54498 0
M  V30 9639 H 895.252 -1.6652 -6.3017 0
M  V30 9640 N 898.685 0.775411 -1.37205 0
M  V30 9641 C 899.913 1.56446 -1.35397 0
M  V30 9642 C 900.328 1.887 0.0615437 0
M  V30 9643 O 899.685 1.51178 1.02233 0
M  V30 9644 C 899.736 2.87697 -2.18889 0
M  V30 9645 O 899.457 2.56828 -3.54924 0
M  V30 9646 C 900.958 3.81944 -2.25019 0
M  V30 9647 H 898.178 0.484792 -0.463916 0
M  V30 9648 H 900.722 0.961346 -1.80495 0
M  V30 9649 H 898.877 3.44442 -1.7731 0
M  V30 9650 H 899.291 3.40851 -3.98649 0
M  V30 9651 H 900.765 4.71055 -2.87769 0
M  V30 9652 H 901.242 4.20811 -1.25757 0
M  V30 9653 H 901.848 3.3113 -2.66895 0
M  V30 9654 N 900.163 1.21714 1.00117 0
M  V30 9655 C 901.388 1.06357 1.78054 0
M  V30 9656 C 901.813 -0.382075 1.84179 0
M  V30 9657 O 901.171 -1.27575 1.28819 0
M  V30 9658 C 901.219 1.66982 3.19608 0
M  V30 9659 O 900.323 0.917892 4.02055 0
M  V30 9660 H 899.664 0.374074 0.548602 0
M  V30 9661 H 902.194 1.61338 1.25822 0
M  V30 9662 H 902.204 1.71363 3.70268 0
M  V30 9663 H 900.879 2.72185 3.14465 0
M  V30 9664 H 899.456 0.949473 3.6061 0
M  V30 9665 N 901.641 -1.19671 1.02551 0
M  V30 9666 C 902.571 -2.25009 0.623965 0
M  V30 9667 C 903.552 -1.66129 -0.36538 0
M  V30 9668 O 904.737 -1.92599 -0.248842 0
M  V30 9669 C 901.867 -3.47287 -0.0294869 0
M  V30 9670 C 900.821 -4.18818 0.881781 0
M  V30 9671 C 900.147 -5.34618 0.0936189 0
M  V30 9672 C 901.447 -4.73986 2.19396 0
M  V30 9673 H 903.141 -2.58851 1.50454 0
M  V30 9674 H 900.687 -1.24425 0.724872 0
M  V30 9675 H 902.64 -4.20168 -0.322016 0
M  V30 9676 H 901.364 -3.12635 -0.944838 0
M  V30 9677 H 900.023 -3.47815 1.15845 0
M  V30 9678 H 899.671 -4.9621 -0.823661 0
M  V30 9679 H 899.371 -5.83409 0.700568 0
M  V30 9680 H 900.895 -6.10297 -0.192249 0
M  V30 9681 H 902.309 -5.38639 1.96319 0
M  V30 9682 H 900.706 -5.3325 2.75254 0
M  V30 9683 H 901.776 -3.92238 2.85092 0
M  V30 9684 N 903.119 -0.802921 -1.35613 0
M  V30 9685 C 904.396 -0.304993 -1.93208 0
M  V30 9686 C 904.776 1.20488 -1.73337 0
M  V30 9687 O 904.124 2.00268 -1.10022 0
M  V30 9688 C 904.334 -0.712383 -3.41652 0
M  V30 9689 C 905.682 -0.699785 -4.18794 0
M  V30 9690 O 906.706 -0.653698 -3.5015 0
M  V30 9691 O 905.565 -0.754842 -5.41262 0
M  V30 9692 H 902.659 -0.0789127 -0.823226 0
M  V30 9693 H 905.205 -0.886372 -1.44712 0
M  V30 9694 H 903.977 -1.75316 -3.49829 0
M  V30 9695 H 903.6 -0.105614 -3.9746 0
M  V30 9696 N 904.597 1.47463 -0.556102 0
M  V30 9697 C 905.56 2.28478 0.181743 0
M  V30 9698 C 906.56 1.36886 0.843738 0
M  V30 9699 O 907.75 1.59527 0.69977 0
M  V30 9700 C 904.882 3.16534 1.26566 0
M  V30 9701 H 906.075 2.95182 -0.529892 0
M  V30 9702 H 903.628 1.53134 -0.313005 0
M  V30 9703 H 904.363 2.5452 2.00973 0
M  V30 9704 H 904.148 3.83939 0.795798 0
M  V30 9705 H 905.638 3.77579 1.78393 0
M  V30 9706 N 906.075 0.2925 1.54862 0
M  V30 9707 C 907.323 -0.318633 1.99572 0
M  V30 9708 C 907.644 -1.55062 1.1824 0
M  V30 9709 O 906.914 -1.93943 0.276226 0
M  V30 9710 H 905.494 -0.120722 0.737181 0
M  V30 9711 H 908.156 0.401862 1.90712 0
M  V30 9712 H 907.252 -0.596542 3.06346 0
M  V30 9713 N 907.553 -1.57587 0.0200696 0
M  V30 9714 C 908.802 -1.90602 -0.659822 0
M  V30 9715 C 909.115 -0.897216 -1.73808 0
M  V30 9716 O 910.321 -1.11829 -2.47399 0
M  V30 9717 C 908.777 -3.38416 -1.22484 0
M  V30 9718 C 908.385 -4.47637 -0.180339 0
M  V30 9719 C 910.129 -3.80513 -1.88176 0
M  V30 9720 C 908.036 -5.86542 -0.756482 0
M  V30 9721 H 906.966 -0.711272 -0.250216 0
M  V30 9722 H 909.617 -1.83308 0.0838942 0
M  V30 9723 H 907.999 -3.40613 -2.01987 0
M  V30 9724 H 909.173 -4.56987 0.591573 0
M  V30 9725 H 907.488 -4.14687 0.377302 0
M  V30 9726 H 910.085 -4.8164 -2.32222 0
M  V30 9727 H 910.428 -3.15091 -2.72073 0
M  V30 9728 H 910.961 -3.80701 -1.15377 0
M  V30 9729 H 907.7 -6.55485 0.0441468 0
M  V30 9730 H 907.22 -5.80816 -1.49709 0
M  V30 9731 H 908.899 -6.3483 -1.249 0
M  V30 9732 N 909.032 0.252966 -1.55557 0
M  V30 9733 C 909.962 1.31691 -1.9282 0
M  V30 9734 C 910.943 1.50516 -0.7924 0
M  V30 9735 O 912.128 1.63225 -1.05219 0
M  V30 9736 C 909.258 2.67281 -2.21762 0
M  V30 9737 C 908.212 2.6316 -3.37536 0
M  V30 9738 C 907.538 4.02488 -3.52005 0
M  V30 9739 C 908.838 2.20675 -4.73392 0
M  V30 9740 H 910.532 1.00751 -2.81939 0
M  V30 9741 H 908.078 0.483219 -1.3565 0
M  V30 9742 H 910.031 3.41842 -2.46419 0
M  V30 9743 H 908.755 2.99845 -1.29463 0
M  V30 9744 H 907.414 1.91057 -3.12878 0
M  V30 9745 H 907.062 4.32307 -2.57137 0
M  V30 9746 H 906.762 4.00621 -4.29857 0
M  V30 9747 H 908.286 4.78758 -3.78977 0
M  V30 9748 H 909.7 2.84965 -4.97461 0
M  V30 9749 H 908.097 2.29931 -5.54303 0
M  V30 9750 H 909.167 1.15831 -4.70862 0
M  V30 9751 N 910.51 1.48831 0.518367 0
M  V30 9752 C 911.759 1.5669 1.27008 0
M  V30 9753 C 912.072 0.250934 1.93984 0
M  V30 9754 O 913.278 0.207884 2.70703 0
M  V30 9755 C 911.734 2.76387 2.30517 0
M  V30 9756 C 911.342 4.14673 1.69559 0
M  V30 9757 C 913.086 2.93566 3.06625 0
M  V30 9758 C 910.993 5.25616 2.71076 0
M  V30 9759 H 909.923 0.583362 0.477708 0
M  V30 9760 H 912.574 1.75187 0.546052 0
M  V30 9761 H 910.956 2.51348 3.06006 0
M  V30 9762 H 912.13 4.49779 1.00179 0
M  V30 9763 H 910.445 4.02708 1.05902 0
M  V30 9764 H 913.042 3.7362 3.82508 0
M  V30 9765 H 913.385 2.03462 3.63193 0
M  V30 9766 H 913.918 3.18562 2.38251 0
M  V30 9767 H 910.657 6.17723 2.19313 0
M  V30 9768 H 910.177 4.94985 3.38748 0
M  V30 9769 H 911.856 5.5422 3.3384 0
M  V30 9770 N 911.988 -0.768124 1.37614 0
M  V30 9771 C 913.216 -1.55726 1.36224 0
M  V30 9772 C 913.631 -1.8873 -0.0515357 0
M  V30 9773 O 912.988 -1.51718 -1.0143 0
M  V30 9774 C 913.039 -2.86533 2.20412 0
M  V30 9775 O 912.76 -2.54942 3.56281 0
M  V30 9776 C 914.261 -3.80745 2.27041 0
M  V30 9777 H 911.481 -0.482325 0.46648 0
M  V30 9778 H 914.025 -0.95176 1.81002 0
M  V30 9779 H 912.18 -3.43496 1.79134 0
M  V30 9780 H 912.594 -3.38732 4.00451 0
M  V30 9781 H 914.068 -4.69523 2.90263 0
M  V30 9782 H 914.545 -4.20138 1.27987 0
M  V30 9783 H 915.151 -3.2971 2.68647 0
M  V30 9784 N 913.466 -1.22244 -0.994698 0
M  V30 9785 C 914.712 -1.05752 -1.73747 0
M  V30 9786 C 915.067 0.403416 -1.88123 0
M  V30 9787 O 914.36 1.29511 -1.412 0
M  V30 9788 C 914.554 -1.70014 -3.14372 0
M  V30 9789 C 914.383 -3.22205 -3.1371 0
M  V30 9790 C 913.153 -3.91301 -3.19705 0
M  V30 9791 C 915.351 -4.19163 -2.98005 0
M  V30 9792 N 913.333 -5.30594 -3.08778 0
M  V30 9793 C 914.704 -5.45274 -2.95087 0
M  V30 9794 C 916.759 -4.10078 -2.82383 0
M  V30 9795 C 915.462 -6.63345 -2.78146 0
M  V30 9796 C 917.488 -5.27797 -2.66803 0
M  V30 9797 C 916.85 -6.52826 -2.6457 0
M  V30 9798 H 912.949 -0.441393 -0.64552 0
M  V30 9799 H 915.533 -1.54757 -1.18146 0
M  V30 9800 H 913.704 -1.23562 -3.68221 0
M  V30 9801 H 915.436 -1.46631 -3.77202 0
M  V30 9802 H 912.191 -3.42289 -3.27315 0
M  V30 9803 H 912.615 -6.0358 -3.06628 0
M  V30 9804 H 917.257 -3.14201 -2.82909 0
M  V30 9805 H 914.975 -7.59373 -2.76367 0
M  V30 9806 H 918.561 -5.22598 -2.557 0
M  V30 9807 H 917.441 -7.42383 -2.5266 0
M  V30 9808 N 914.944 1.19125 -1.03184 0
M  V30 9809 C 916.172 1.92838 -0.74975 0
M  V30 9810 C 916.587 1.75667 0.691851 0
M  V30 9811 O 915.944 1.0805 1.47076 0
M  V30 9812 C 915.995 3.44509 -1.09525 0
M  V30 9813 O 915.716 3.6113 -2.48025 0
M  V30 9814 C 917.217 4.35338 -0.836397 0
M  V30 9815 H 914.437 0.61246 -0.274105 0
M  V30 9816 H 916.981 1.5118 -1.37712 0
M  V30 9817 H 915.136 3.83988 -0.513006 0
M  V30 9818 H 915.55 4.54959 -2.60984 0
M  V30 9819 H 917.024 5.4035 -1.12808 0
M  V30 9820 H 917.501 4.38602 0.229102 0
M  V30 9821 H 918.107 4.01544 -1.40152 0
M  V30 9822 N 916.422 0.810101 1.35185 0
M  V30 9823 C 917.369 0.220927 2.2974 0
M  V30 9824 C 918.339 -0.647024 1.5298 0
M  V30 9825 O 919.524 -0.591367 1.81404 0
M  V30 9826 C 916.664 -0.62167 3.39454 0
M  V30 9827 C 915.777 0.267104 4.31173 0
M  V30 9828 C 914.912 -0.583833 5.27982 0
M  V30 9829 C 913.951 0.305123 6.11339 0
M  V30 9830 N 913.088 -0.505992 7.00274 0
M  V30 9831 H 917.928 1.03266 2.79536 0
M  V30 9832 H 915.465 0.520768 1.37573 0
M  V30 9833 H 917.423 -1.12539 4.01735 0
M  V30 9834 H 916.053 -1.39863 2.90926 0
M  V30 9835 H 915.105 0.88895 3.69867 0
M  V30 9836 H 916.417 0.951182 4.89647 0
M  V30 9837 H 915.571 -1.15254 5.95652 0
M  V30 9838 H 914.31 -1.30146 4.70014 0
M  V30 9839 H 913.315 0.886075 5.42613 0
M  V30 9840 H 914.54 1.02067 6.71386 0
M  V30 9841 H 912.486 -1.20753 6.4479 0
M  V30 9842 H 912.403 0.119966 7.55905 0
M  V30 9843 H 913.671 -1.05787 7.72288 0
M  V30 9844 N 917.9 -1.47166 0.563914 0
M  V30 9845 C 919.148 -2.02056 0.0422873 0
M  V30 9846 C 919.469 -1.43992 -1.31497 0
M  V30 9847 O 918.739 -0.617578 -1.85911 0
M  V30 9848 H 917.319 -0.746893 0.0126427 0
M  V30 9849 H 919.981 -1.80492 0.735441 0
M  V30 9850 H 919.077 -3.12073 -0.0408044 0
M  V30 9851 N 919.378 -0.300708 -1.54705 0
M  V30 9852 C 920.625 0.308654 -2.00134 0
M  V30 9853 C 920.953 1.53918 -1.1891 0
M  V30 9854 O 920.208 1.94054 -0.253263 0
M  V30 9855 C 920.507 0.710108 -3.50275 0
M  V30 9856 C 920.173 -0.418651 -4.48952 0
M  V30 9857 C 918.835 -0.728524 -4.75653 0
M  V30 9858 C 921.187 -1.17797 -5.07714 0
M  V30 9859 C 918.515 -1.80085 -5.58378 0
M  V30 9860 C 920.867 -2.24022 -5.91606 0
M  V30 9861 C 919.531 -2.55616 -6.16617 0
M  V30 9862 H 918.801 0.112945 -0.732342 0
M  V30 9863 H 921.448 -0.419744 -1.86843 0
M  V30 9864 H 919.753 1.51859 -3.61173 0
M  V30 9865 H 921.45 1.19277 -3.8285 0
M  V30 9866 H 918.04 -0.167034 -4.28274 0
M  V30 9867 H 922.224 -0.951835 -4.87087 0
M  V30 9868 H 917.48 -2.05036 -5.75995 0
M  V30 9869 H 921.654 -2.83317 -6.36164 0
M  V30 9870 H 919.281 -3.38839 -6.80509 0
M  V30 9871 N 920.856 1.57574 -0.0284266 0
M  V30 9872 C 921.803 2.10176 0.953658 0
M  V30 9873 C 922.773 1.00367 1.32347 0
M  V30 9874 O 923.958 1.27783 1.4169 0
M  V30 9875 C 921.098 2.63287 2.231 0
M  V30 9876 C 920.211 3.87102 1.91771 0
M  V30 9877 C 919.346 4.28609 3.13795 0
M  V30 9878 C 918.385 5.45184 2.78282 0
M  V30 9879 N 917.522 5.81851 3.92929 0
M  V30 9880 H 922.362 2.93806 0.498176 0
M  V30 9881 H 919.899 1.45222 0.234302 0
M  V30 9882 H 921.857 2.9217 2.97813 0
M  V30 9883 H 920.487 1.82489 2.66266 0
M  V30 9884 H 919.539 3.64952 1.07303 0
M  V30 9885 H 920.851 4.71892 1.61615 0
M  V30 9886 H 920.005 4.58925 3.96829 0
M  V30 9887 H 918.744 3.42585 3.47112 0
M  V30 9888 H 917.749 5.14563 1.93661 0
M  V30 9889 H 918.974 6.32907 2.46182 0
M  V30 9890 H 916.92 4.98782 4.2609 0
M  V30 9891 H 916.837 6.6128 3.66395 0
M  V30 9892 H 918.105 6.16772 4.76669 0
M  V30 9893 N 922.334 -0.244713 1.55689 0
M  V30 9894 C 923.297 -1.2864 1.89695 0
M  V30 9895 C 924.297 -1.40969 0.773583 0
M  V30 9896 O 925.487 -1.39632 1.04156 0
M  V30 9897 C 922.619 -2.66379 2.12732 0
M  V30 9898 H 923.812 -0.997033 2.82841 0
M  V30 9899 H 921.365 -0.484103 1.48614 0
M  V30 9900 H 922.1 -3.00452 1.22062 0
M  V30 9901 H 921.885 -2.58812 2.94549 0
M  V30 9902 H 923.375 -3.41592 2.40218 0
M  V30 9903 N 923.813 -1.49104 -0.510467 0
M  V30 9904 C 925.041 -1.61806 -1.28944 0
M  V30 9905 C 925.456 -0.285774 -1.86625 0
M  V30 9906 O 924.813 0.727551 -1.67371 0
M  V30 9907 C 924.864 -2.67966 -2.42645 0
M  V30 9908 O 924.585 -3.96026 -1.87337 0
M  V30 9909 C 926.086 -2.91286 -3.34166 0
M  V30 9910 H 923.306 -0.544999 -0.391429 0
M  V30 9911 H 925.85 -1.95071 -0.613805 0
M  V30 9912 H 924.005 -2.37505 -3.06056 0
M  V30 9913 H 924.419 -4.54427 -2.61909 0
M  V30 9914 H 925.893 -3.69323 -4.1025 0
M  V30 9915 H 926.37 -2.00842 -3.90588 0
M  V30 9916 H 926.976 -3.23127 -2.76531 0
M  V30 9917 N 925.291 0.760815 -1.38019 0
M  V30 9918 C 926.568 1.5098 -1.24356 0
M  V30 9919 C 926.948 2.10507 0.158169 0
M  V30 9920 O 926.296 1.96455 1.16695 0
M  V30 9921 C 926.506 2.58195 -2.34811 0
M  V30 9922 C 927.854 3.25297 -2.72886 0
M  V30 9923 O 928.878 2.68496 -2.34069 0
M  V30 9924 O 927.737 4.28018 -3.39799 0
M  V30 9925 H 924.831 0.66921 -0.485888 0
M  V30 9926 H 927.377 0.796844 -1.49828 0
M  V30 9927 H 926.149 2.12406 -3.28633 0
M  V30 9928 H 925.772 3.37079 -2.10864 0
M  V30 9929 N 926.769 1.22769 0.988202 0
M  V30 9930 C 928.009 1.06673 1.74356 0
M  V30 9931 C 928.373 -0.390737 1.87982 0
M  V30 9932 O 929.574 -0.672677 2.60247 0
M  V30 9933 C 927.845 1.76361 3.10856 0
M  V30 9934 S 929.404 1.75738 4.02071 0
M  V30 9935 H 926.222 0.381917 0.599717 0
M  V30 9936 H 928.824 1.55784 1.18117 0
M  V30 9937 H 927.528 2.81559 2.98584 0
M  V30 9938 H 927.059 1.27501 3.72165 0
M  V30 9939 H 929.074 0.810418 4.89537 0
M  V30 9940 N 928.247 -1.18576 1.03814 0
M  V30 9941 C 929.493 -1.88773 0.741132 0
M  V30 9942 C 929.826 -1.79993 -0.729127 0
M  V30 9943 O 929.101 -1.19851 -1.53186 0
M  V30 9944 C 929.384 -3.39352 1.20468 0
M  V30 9945 C 929.237 -3.56955 2.73684 0
M  V30 9946 C 930.556 -4.32901 0.792741 0
M  V30 9947 H 927.675 -0.685482 0.270708 0
M  V30 9948 H 930.317 -1.39523 1.2897 0
M  V30 9949 H 928.467 -3.81427 0.737974 0
M  V30 9950 H 930.139 -3.2399 3.28372 0
M  V30 9951 H 928.382 -2.99696 3.13632 0
M  V30 9952 H 929.053 -4.62598 3.01176 0
M  V30 9953 H 931.529 -3.98592 1.1943 0
M  V30 9954 H 930.405 -5.36828 1.14486 0
M  V30 9955 H 930.666 -4.41052 -0.304295 0
M  V30 9956 N 929.725 -0.817259 -1.34754 0
M  V30 9957 C 930.973 -0.401852 -1.98065 0
M  V30 9958 C 931.294 1.03718 -1.65129 0
M  V30 9959 O 930.564 1.71921 -0.939141 0
M  V30 9960 H 929.144 -0.145603 -0.732672 0
M  V30 9961 H 931.806 -1.04545 -1.64488 0
M  V30 9962 H 930.902 -0.516241 -3.07801 0
M  V30 9963 N 931.203 1.46865 -0.571711 0
M  V30 9964 C 932.153 2.27219 0.188503 0
M  V30 9965 C 933.137 1.35221 0.872019 0
M  V30 9966 O 934.329 1.59474 0.76793 0
M  V30 9967 C 931.458 3.21321 1.20862 0
M  V30 9968 C 930.544 4.20803 0.527783 0
M  V30 9969 N 930.935 5.04132 -0.410403 0
M  V30 9970 C 929.233 4.39128 0.779909 0
M  V30 9971 C 929.934 5.76071 -0.80728 0
M  V30 9972 N 928.91 5.43368 -0.158865 0
M  V30 9973 H 932.712 2.89034 -0.532611 0
M  V30 9974 H 930.226 1.57581 -0.392696 0
M  V30 9975 H 932.223 3.77586 1.76733 0
M  V30 9976 H 930.883 2.61065 1.93067 0
M  V30 9977 H 931.894 5.11911 -0.785351 0
M  V30 9978 H 928.571 3.90031 1.48937 0
M  V30 9979 H 929.961 6.53082 -1.57903 0
M  V30 9980 N 932.681 0.308908 1.54543 0
M  V30 9981 C 933.958 -0.351558 1.92415 0
M  V30 9982 C 934.338 -1.71061 1.23699 0
M  V30 9983 O 933.686 -2.25394 0.3755 0
M  V30 9984 C 933.896 -0.458357 3.45977 0
M  V30 9985 C 935.244 -0.725524 4.18355 0
M  V30 9986 O 936.268 -0.541859 3.52054 0
M  V30 9987 O 935.127 -1.07884 5.35745 0
M  V30 9988 H 932.221 -0.197957 0.802958 0
M  V30 9989 H 934.767 0.357548 1.65891 0
M  V30 9990 H 933.539 0.496723 3.88134 0
M  V30 9991 H 933.162 -1.21562 3.78561 0
M  V30 9992 N 934.159 -1.57557 0.0367827 0
M  V30 9993 C 935.405 -1.92399 -0.641133 0
M  V30 9994 C 935.738 -0.914191 -1.71336 0
M  V30 9995 O 935.013 0.0619616 -1.94401 0
M  V30 9996 C 935.296 -3.37689 -1.25052 0
M  V30 9997 C 935.149 -4.4941 -0.187326 0
M  V30 9998 C 936.468 -3.8309 -2.16634 0
M  V30 9999 H 933.587 -0.699666 -0.231597 0
M  V30 10000 H 936.229 -1.89759 0.0956083 0
M  V30 10001 H 934.379 -3.40069 -1.87843 0
M  V30 10002 H 936.051 -4.59161 0.443736 0
M  V30 10003 H 934.294 -4.31065 0.486313 0
M  V30 10004 H 934.965 -5.48119 -0.653459 0
M  V30 10005 H 937.441 -3.82494 -1.63821 0
M  V30 10006 H 936.317 -4.85429 -2.56222 0
M  V30 10007 H 936.578 -3.19028 -3.06062 0
M  V30 10008 N 935.637 0.236453 -1.55816 0
M  V30 10009 C 936.883 0.964439 -1.784 0
M  V30 10010 C 937.216 1.84573 -0.603868 0
M  V30 10011 O 936.491 1.90395 0.397473 0
M  V30 10012 C 936.774 1.81608 -3.10951 0
M  V30 10013 C 936.627 0.962283 -4.39386 0
M  V30 10014 C 937.946 2.79665 -3.39817 0
M  V30 10015 H 935.065 0.349192 -0.649026 0
M  V30 10016 H 937.707 0.234247 -1.8855 0
M  V30 10017 H 935.857 2.43864 -3.02428 0
M  V30 10018 H 937.529 0.35762 -4.59912 0
M  V30 10019 H 935.772 0.267062 -4.32977 0
M  V30 10020 H 936.443 1.59222 -5.28538 0
M  V30 10021 H 938.919 2.27546 -3.4837 0
M  V30 10022 H 937.795 3.36367 -4.33761 0
M  V30 10023 H 938.056 3.56657 -2.61244 0
M  V30 10024 N 937.115 1.49373 0.502552 0
M  V30 10025 C 938.343 1.62488 1.28084 0
M  V30 10026 C 938.758 0.295667 1.86471 0
M  V30 10027 O 938.115 -0.718664 1.67754 0
M  V30 10028 C 938.166 2.69249 2.4122 0
M  V30 10029 O 937.887 3.97014 1.85234 0
M  V30 10030 C 939.388 2.93054 3.32617 0
M  V30 10031 H 936.608 0.547068 0.388533 0
M  V30 10032 H 939.152 1.95394 0.603452 0
M  V30 10033 H 937.307 2.39125 3.04792 0
M  V30 10034 H 937.721 4.55809 2.59496 0
M  V30 10035 H 939.195 3.71493 4.08285 0
M  V30 10036 H 939.672 2.02911 3.89517 0
M  V30 10037 H 940.278 3.24589 2.74813 0
M  V30 10038 N 938.594 -0.753485 1.38421 0
M  V30 10039 C 939.524 -1.8808 1.38377 0
M  V30 10040 C 940.505 -1.68258 0.249664 0
M  V30 10041 O 941.69 -1.88848 0.45276 0
M  V30 10042 C 938.82 -3.25608 1.20818 0
M  V30 10043 C 937.774 -3.60032 2.31433 0
M  V30 10044 C 937.1 -4.96297 1.9898 0
M  V30 10045 C 938.4 -3.64898 3.73694 0
M  V30 10046 H 940.094 -1.88375 2.32713 0
M  V30 10047 H 937.64 -0.90489 1.12017 0
M  V30 10048 H 939.593 -4.04127 1.19412 0
M  V30 10049 H 938.317 -3.25793 0.229433 0
M  V30 10050 H 936.976 -2.83831 2.32025 0
M  V30 10051 H 936.624 -4.93043 0.995889 0
M  V30 10052 H 936.324 -5.20298 2.73063 0
M  V30 10053 H 937.848 -5.77196 1.99193 0
M  V30 10054 H 939.262 -4.33531 3.75132 0
M  V30 10055 H 937.659 -4.00407 4.46983 0
M  V30 10056 H 938.729 -2.65124 4.06002 0
M  V30 10057 N 940.072 -1.23292 -0.981677 0
M  V30 10058 C 941.002 -1.03738 -2.09191 0
M  V30 10059 C 941.983 0.0453041 -1.7004 0
M  V30 10060 O 943.168 -0.119092 -1.93834 0
M  V30 10061 C 940.298 -0.626426 -3.41604 0
M  V30 10062 C 939.252 -1.65631 -3.94652 0
M  V30 10063 C 938.578 -1.10084 -5.23245 0
M  V30 10064 C 939.878 -3.04903 -4.24066 0
M  V30 10065 H 941.572 -1.966 -2.25807 0
M  V30 10066 H 939.118 -0.946656 -1.0851 0
M  V30 10067 H 941.071 -0.476689 -4.18695 0
M  V30 10068 H 939.795 0.337873 -3.24848 0
M  V30 10069 H 938.454 -1.79402 -3.19704 0
M  V30 10070 H 938.102 -0.127562 -5.02838 0
M  V30 10071 H 937.802 -1.78896 -5.59705 0
M  V30 10072 H 939.326 -0.962928 -6.02959 0
M  V30 10073 H 940.74 -2.94441 -4.91912 0
M  V30 10074 H 939.137 -3.70941 -4.71724 0
M  V30 10075 H 940.207 -3.53991 -3.31389 0
M  V30 10076 N 941.55 1.18024 -1.04442 0
M  V30 10077 C 942.966 1.40107 -0.76435 0
M  V30 10078 C 943.166 1.90914 0.644516 0
M  V30 10079 O 942.222 2.0959 1.40813 0
M  V30 10080 C 943.535 2.39851 -1.81361 0
M  V30 10081 C 945.083 2.53571 -1.83496 0
M  V30 10082 C 945.558 3.56583 -2.87424 0
M  V30 10083 N 947.049 3.64094 -2.86339 0
M  V30 10084 C 947.784 4.43537 -3.63405 0
M  V30 10085 N 947.28 5.26557 -4.50233 0
M  V30 10086 N 949.073 4.38336 -3.51877 0
M  V30 10087 H 941.224 0.833726 -1.95353 0
M  V30 10088 H 943.487 0.42881 -0.845474 0
M  V30 10089 H 943.193 2.09576 -2.82438 0
M  V30 10090 H 943.067 3.39251 -1.6489 0
M  V30 10091 H 945.454 2.83161 -0.830883 0
M  V30 10092 H 945.535 1.54272 -2.04044 0
M  V30 10093 H 945.179 3.27733 -3.88012 0
M  V30 10094 H 945.109 4.55569 -2.6413 0
M  V30 10095 H 947.6 3.04814 -2.23376 0
M  V30 10096 H 947.913 5.84336 -5.05738 0
M  V30 10097 H 946.258 5.25964 -4.54298 0
M  V30 10098 H 949.449 3.72528 -2.83444 0
M  V30 10099 H 949.622 5.00007 -4.12186 0
M  V30 10100 N 943.028 0.824394 1.34319 0
M  V30 10101 C 944.305 0.335692 1.92698 0
M  V30 10102 C 944.685 -1.17715 1.75232 0
M  V30 10103 O 944.033 -1.98493 1.13194 0
M  V30 10104 C 944.243 0.766647 3.40475 0
M  V30 10105 C 945.591 0.766323 4.17627 0
M  V30 10106 O 946.615 0.709321 3.49066 0
M  V30 10107 O 945.474 0.840856 5.39992 0
M  V30 10108 H 942.568 0.0919996 0.821867 0
M  V30 10109 H 945.114 0.909282 1.43283 0
M  V30 10110 H 943.886 1.80859 3.46995 0
M  V30 10111 H 943.509 0.168833 3.97241 0
M  V30 10112 N 944.506 -1.46559 0.579492 0
M  V30 10113 C 945.469 -2.28739 -0.145371 0
M  V30 10114 C 946.469 -1.38211 -0.821854 0
M  V30 10115 O 947.659 -1.6062 -0.674302 0
M  V30 10116 C 944.791 -3.18507 -1.21515 0
M  V30 10117 H 945.984 -2.94301 0.576786 0
M  V30 10118 H 943.537 -1.52616 0.337327 0
M  V30 10119 H 944.272 -2.57685 -1.96899 0
M  V30 10120 H 944.057 -3.85157 -0.734616 0
M  V30 10121 H 945.547 -3.80369 -1.72363 0
M  V30 10122 N 945.984 -0.3171 -1.54377 0
M  V30 10123 C 947.233 0.288271 -1.99629 0
M  V30 10124 C 947.546 1.53754 -1.2091 0
M  V30 10125 O 948.752 2.2185 -1.56508 0
M  V30 10126 C 947.208 0.564188 -3.5545 0
M  V30 10127 C 946.816 -0.667659 -4.42997 0
M  V30 10128 C 948.56 1.12987 -4.09187 0
M  V30 10129 C 946.467 -0.364003 -5.90279 0
M  V30 10130 H 945.397 0.111492 -0.745711 0
M  V30 10131 H 948.048 -0.428317 -1.78431 0
M  V30 10132 H 946.43 1.34079 -3.72611 0
M  V30 10133 H 947.604 -1.44335 -4.37612 0
M  V30 10134 H 945.919 -1.1531 -4.00116 0
M  V30 10135 H 948.516 1.37157 -5.1681 0
M  V30 10136 H 948.859 2.07722 -3.60773 0
M  V30 10137 H 949.392 0.414595 -3.95634 0
M  V30 10138 H 946.131 -1.28035 -6.42874 0
M  V30 10139 H 945.651 0.374102 -5.98632 0
M  V30 10140 H 947.33 0.0285433 -6.46994 0
M  V30 10141 N 947.462 1.57535 -0.0451378 0
M  V30 10142 C 948.409 2.11176 0.931313 0
M  V30 10143 C 949.379 1.01765 1.31275 0
M  V30 10144 O 950.564 1.29279 1.40327 0
M  V30 10145 C 947.704 2.65639 2.20295 0
M  V30 10146 C 946.817 3.89114 1.87654 0
M  V30 10147 C 945.952 4.31914 3.09232 0
M  V30 10148 C 944.991 5.48105 2.72484 0
M  V30 10149 N 944.128 5.85986 3.86736 0
M  V30 10150 H 948.968 2.94318 0.466986 0
M  V30 10151 H 946.505 1.45462 0.218886 0
M  V30 10152 H 948.463 2.95312 2.94697 0
M  V30 10153 H 947.093 1.85303 2.64316 0
M  V30 10154 H 946.145 3.6607 1.03427 0
M  V30 10155 H 947.457 4.7358 1.56601 0
M  V30 10156 H 946.611 4.63108 3.91939 0
M  V30 10157 H 945.35 3.46247 3.43459 0
M  V30 10158 H 944.355 5.16589 1.88192 0
M  V30 10159 H 945.58 6.35482 2.39455 0
M  V30 10160 H 943.526 5.03273 4.20775 0
M  V30 10161 H 943.443 6.65129 3.5936 0
M  V30 10162 H 944.711 6.21793 4.701 0
M  V30 10163 N 948.94 -0.228186 1.55939 0
M  V30 10164 C 950.356 -0.577583 1.48782 0
M  V30 10165 C 950.556 -1.87461 0.738972 0
M  V30 10166 O 949.612 -2.50988 0.275929 0
M  V30 10167 C 950.925 -0.662961 2.93301 0
M  V30 10168 C 952.473 -0.754035 3.03782 0
M  V30 10169 C 952.948 -0.870815 4.49645 0
M  V30 10170 N 954.439 -0.935208 4.53661 0
M  V30 10171 C 955.174 -1.04516 5.63794 0
M  V30 10172 N 954.67 -1.11948 6.83696 0
M  V30 10173 N 956.463 -1.07978 5.51631 0
M  V30 10174 H 948.614 0.623018 2.03057 0
M  V30 10175 H 950.877 0.217692 0.922667 0
M  V30 10176 H 950.583 0.220375 3.51009 0
M  V30 10177 H 950.457 -1.52876 3.44831 0
M  V30 10178 H 952.844 -1.62782 2.46143 0
M  V30 10179 H 952.925 0.137301 2.55431 0
M  V30 10180 H 952.569 -0.0015186 5.079 0
M  V30 10181 H 952.499 -1.77747 4.95695 0
M  V30 10182 H 954.99 -0.88836 3.6731 0
M  V30 10183 H 955.303 -1.20297 7.6338 0
M  V30 10184 H 953.648 -1.08873 6.8642 0
M  V30 10185 H 956.839 -1.01833 4.56889 0
M  V30 10186 H 957.012 -1.16202 6.37496 0
M  V30 10187 N 950.418 -1.49637 -0.494624 0
M  V30 10188 C 951.834 -1.36541 -0.826361 0
M  V30 10189 C 952.034 -0.403386 -1.97421 0
M  V30 10190 O 951.09 0.162614 -2.51976 0
M  V30 10191 C 952.403 -2.77401 -1.16057 0
M  V30 10192 C 953.951 -2.86148 -1.26841 0
M  V30 10193 C 954.426 -4.27789 -1.63587 0
M  V30 10194 N 955.917 -4.3063 -1.70624 0
M  V30 10195 C 956.652 -5.37198 -2.00514 0
M  V30 10196 N 956.148 -6.54004 -2.28584 0
M  V30 10197 N 957.941 -5.2462 -2.01818 0
M  V30 10198 H 950.092 -2.10776 0.26219 0
M  V30 10199 H 952.355 -0.946419 0.0547235 0
M  V30 10200 H 952.061 -3.49526 -0.390434 0
M  V30 10201 H 951.935 -3.1317 -2.10249 0
M  V30 10202 H 954.322 -2.14256 -2.02925 0
M  V30 10203 H 954.403 -2.53953 -0.30684 0
M  V30 10204 H 954.047 -5.00209 -0.880507 0
M  V30 10205 H 953.977 -4.57453 -2.60854 0
M  V30 10206 H 956.468 -3.46393 -1.51065 0
M  V30 10207 H 956.781 -7.31041 -2.50598 0
M  V30 10208 H 955.126 -6.57219 -2.26027 0
M  V30 10209 H 958.317 -4.32371 -1.79369 0
M  V30 10210 H 958.49 -6.07765 -2.24778 0
M  V30 10211 N 951.896 0.746133 -1.38819 0
M  V30 10212 C 952.806 1.89063 -1.38897 0
M  V30 10213 C 953.822 1.71648 -0.28513 0
M  V30 10214 O 954.998 1.94443 -0.524783 0
M  V30 10215 C 952.063 3.24523 -1.22007 0
M  V30 10216 C 951.124 3.54411 -2.42263 0
M  V30 10217 C 950.357 4.83408 -2.26169 0
M  V30 10218 O 950.58 5.56325 -1.25931 0
M  V30 10219 O 949.514 5.12943 -3.14918 0
M  V30 10220 H 953.34 1.91951 -2.35347 0
M  V30 10221 H 950.925 0.892433 -1.19816 0
M  V30 10222 H 952.807 4.05496 -1.14677 0
M  V30 10223 H 951.482 3.2243 -0.286455 0
M  V30 10224 H 950.389 2.73569 -2.55168 0
M  V30 10225 H 951.722 3.61273 -3.3428 0
M  V30 10226 N 953.375 1.23811 0.975125 0
M  V30 10227 C 954.285 1.0408 2.10249 0
M  V30 10228 C 955.301 -0.0162404 1.73992 0
M  V30 10229 O 956.477 0.180346 2.00591 0
M  V30 10230 C 953.542 0.640013 3.40741 0
M  V30 10231 C 952.603 1.7727 3.90991 0
M  V30 10232 C 951.836 1.39094 5.15256 0
M  V30 10233 O 952.059 0.277483 5.69725 0
M  V30 10234 O 950.993 2.21392 5.59704 0
M  V30 10235 H 954.819 1.98575 2.29786 0
M  V30 10236 H 952.404 1.02563 1.08633 0
M  V30 10237 H 954.286 0.427684 4.19224 0
M  V30 10238 H 952.961 -0.27589 3.22522 0
M  V30 10239 H 951.868 2.03971 3.13602 0
M  V30 10240 H 953.201 2.66711 4.13674 0
M  V30 10241 N 954.853 -1.17469 1.05066 0
M  V30 10242 C 956.1 -1.87698 0.759987 0
M  V30 10243 C 956.428 -1.80964 -0.712902 0
M  V30 10244 O 955.683 -1.21146 -1.53695 0
M  V30 10245 C 955.982 -3.37211 1.18421 0
M  V30 10246 C 955.648 -3.64148 2.65909 0
M  V30 10247 C 954.31 -3.71209 3.06199 0
M  V30 10248 C 956.662 -3.75724 3.61222 0
M  V30 10249 C 953.99 -3.87334 4.40669 0
M  V30 10250 C 956.342 -3.93368 4.95424 0
M  V30 10251 C 955.006 -3.98667 5.3537 0
M  V30 10252 H 954.276 -0.686835 0.278099 0
M  V30 10253 H 956.923 -1.38975 1.31751 0
M  V30 10254 H 955.228 -3.87982 0.545654 0
M  V30 10255 H 956.925 -3.89911 0.936518 0
M  V30 10256 H 953.515 -3.59276 2.33707 0
M  V30 10257 H 957.699 -3.69591 3.31235 0
M  V30 10258 H 952.955 -3.89685 4.71122 0
M  V30 10259 H 957.129 -4.01267 5.69173 0
M  V30 10260 H 954.756 -4.10915 6.39572 0
M  V30 10261 N 956.331 -0.831506 -1.3388 0
M  V30 10262 C 957.608 -0.345907 -1.92517 0
M  V30 10263 C 957.988 1.16784 -1.75854 0
M  V30 10264 O 957.336 1.97889 -1.14245 0
M  V30 10265 C 957.546 -0.784692 -3.40064 0
M  V30 10266 C 958.894 -0.78846 -4.17215 0
M  V30 10267 O 959.918 -0.727823 -3.48685 0
M  V30 10268 O 958.777 -0.869481 -5.39539 0
M  V30 10269 H 955.871 -0.0963568 -0.821367 0
M  V30 10270 H 958.417 -0.916868 -1.42799 0
M  V30 10271 H 957.189 -1.82697 -3.46031 0
M  V30 10272 H 956.812 -0.189897 -3.97146 0
M  V30 10273 N 957.809 1.4625 -0.587256 0
M  V30 10274 C 958.739 2.33132 0.131076 0
M  V30 10275 C 959.72 1.45619 0.879158 0
M  V30 10276 O 960.905 1.74428 0.853723 0
M  V30 10277 C 958.035 3.27975 1.14236 0
M  V30 10278 C 956.989 4.24965 0.508819 0
M  V30 10279 C 956.315 5.09349 1.62689 0
M  V30 10280 C 957.615 5.19322 -0.55694 0
M  V30 10281 H 959.309 2.93442 -0.594333 0
M  V30 10282 H 956.855 1.41106 -0.287263 0
M  V30 10283 H 958.808 3.87614 1.65328 0
M  V30 10284 H 957.532 2.65781 1.8981 0
M  V30 10285 H 956.191 3.66595 0.0189337 0
M  V30 10286 H 955.839 4.43537 2.37242 0
M  V30 10287 H 955.539 5.75036 1.20861 0
M  V30 10288 H 957.063 5.71852 2.14049 0
M  V30 10289 H 958.477 5.73151 -0.130903 0
M  V30 10290 H 956.874 5.93376 -0.895801 0
M  V30 10291 H 957.944 4.62979 -1.44148 0
M  V30 10292 N 959.287 0.325282 1.54207 0
M  V30 10293 C 960.564 -0.33113 1.92777 0
M  V30 10294 C 960.944 -1.69739 1.25506 0
M  V30 10295 O 960.292 -2.24983 0.399385 0
M  V30 10296 C 960.502 -0.421636 3.46444 0
M  V30 10297 C 961.85 -0.681111 4.19101 0
M  V30 10298 O 962.874 -0.504488 3.52609 0
M  V30 10299 O 961.733 -1.02196 5.3686 0
M  V30 10300 H 958.827 -0.18943 0.805013 0
M  V30 10301 H 961.373 0.375123 1.65502 0
M  V30 10302 H 960.145 0.537862 3.87586 0
M  V30 10303 H 959.768 -1.1754 3.79829 0
M  V30 10304 N 960.765 -1.57509 0.0534917 0
M  V30 10305 C 962.011 -1.93068 -0.62069 0
M  V30 10306 C 962.344 -0.932313 -1.70357 0
M  V30 10307 O 961.619 0.0413393 -1.94456 0
M  V30 10308 C 961.902 -3.38997 -1.21463 0
M  V30 10309 C 961.755 -4.49583 -0.13965 0
M  V30 10310 C 963.074 -3.85366 -2.12558 0
M  V30 10311 H 960.193 -0.702083 -0.224163 0
M  V30 10312 H 962.835 -1.89647 0.115729 0
M  V30 10313 H 960.985 -3.42043 -1.84226 0
M  V30 10314 H 962.657 -4.58664 0.492411 0
M  V30 10315 H 960.9 -4.30525 0.532006 0
M  V30 10316 H 961.571 -5.48781 -0.595287 0
M  V30 10317 H 964.047 -3.8421 -1.59755 0
M  V30 10318 H 962.923 -4.8812 -2.51058 0
M  V30 10319 H 963.184 -3.22256 -3.02661 0
M  V30 10320 N 962.243 0.219913 -1.56058 0
M  V30 10321 C 963.489 0.945463 -1.79412 0
M  V30 10322 C 963.822 1.83922 -0.62341 0
M  V30 10323 O 963.097 1.90806 0.377256 0
M  V30 10324 C 963.38 1.783 -3.1286 0
M  V30 10325 C 963.233 0.915626 -4.40382 0
M  V30 10326 C 964.552 2.76045 -3.42764 0
M  V30 10327 H 961.671 0.342288 -0.652693 0
M  V30 10328 H 964.313 0.214235 -1.88788 0
M  V30 10329 H 962.463 2.40642 -3.04998 0
M  V30 10330 H 964.135 0.30882 -4.60265 0
M  V30 10331 H 962.378 0.221124 -4.33236 0
M  V30 10332 H 963.049 1.53607 -5.30197 0
M  V30 10333 H 965.525 2.23838 -3.50764 0
M  V30 10334 H 964.401 3.31748 -4.37304 0
M  V30 10335 H 964.662 3.53866 -2.65012 0
M  V30 10336 N 963.721 1.49897 0.486681 0
M  V30 10337 C 964.684 1.67086 1.56891 0
M  V30 10338 C 965.684 0.54209 1.51387 0
M  V30 10339 O 966.874 0.80883 1.54284 0
M  V30 10340 C 964.006 1.68159 2.96539 0
M  V30 10341 H 965.199 2.63626 1.42974 0
M  V30 10342 H 962.752 1.39143 0.711954 0
M  V30 10343 H 963.487 0.732562 3.15918 0
M  V30 10344 H 963.272 2.50147 3.01942 0
M  V30 10345 H 964.762 1.83466 3.7514 0
M  V30 10346 N 965.199 -0.738761 1.39212 0
M  V30 10347 C 966.445 -1.50046 1.36433 0
M  V30 10348 C 966.778 -1.94157 -0.0409474 0
M  V30 10349 O 966.053 -1.66515 -1.00514 0
M  V30 10350 C 966.336 -2.74277 2.33333 0
M  V30 10351 C 966.189 -2.36209 3.82786 0
M  V30 10352 C 967.508 -3.76361 2.28123 0
M  V30 10353 H 964.627 -0.544294 0.496903 0
M  V30 10354 H 967.269 -0.845005 1.70175 0
M  V30 10355 H 965.419 -3.30204 2.04689 0
M  V30 10356 H 967.091 -1.85942 4.22165 0
M  V30 10357 H 965.334 -1.68483 3.99745 0
M  V30 10358 H 966.005 -3.25156 4.46069 0
M  V30 10359 H 968.481 -3.30009 2.53443 0
M  V30 10360 H 967.357 -4.60957 2.9801 0
M  V30 10361 H 967.618 -4.23013 1.28499 0
M  V30 10362 N 966.677 -1.24326 -0.968545 0
M  V30 10363 C 967.923 -1.08406 -1.71394 0
M  V30 10364 C 968.256 0.376353 -1.90518 0
M  V30 10365 O 967.531 1.27816 -1.46606 0
M  V30 10366 C 967.814 -1.82344 -3.1052 0
M  V30 10367 C 967.667 -3.3613 -2.98893 0
M  V30 10368 C 968.986 -1.59545 -4.10163 0
M  V30 10369 H 966.105 -0.395205 -0.622079 0
M  V30 10370 H 968.747 -1.52983 -1.12677 0
M  V30 10371 H 966.897 -1.44452 -3.60646 0
M  V30 10372 H 968.569 -3.83614 -2.56199 0
M  V30 10373 H 966.812 -3.64553 -2.35124 0
M  V30 10374 H 967.483 -3.83064 -3.97449 0
M  V30 10375 H 969.959 -1.92504 -3.68892 0
M  V30 10376 H 968.835 -2.13736 -5.05577 0
M  V30 10377 H 969.096 -0.533503 -4.38869 0
M  V30 10378 N 968.156 1.1691 -1.05688 0
M  V30 10379 C 969.104 2.2315 -0.656262 0
M  V30 10380 C 970.098 1.66256 0.324873 0
M  V30 10381 O 971.304 1.7899 0.190397 0
M  V30 10382 H 967.679 0.726527 -0.19407 0
M  V30 10383 H 969.65 2.54233 -1.56231 0
M  V30 10384 C 968.399 3.47661 -0.0522431 0
M  V30 10385 H 967.722 3.91749 -0.798299 0
M  V30 10386 H 969.162 4.23571 0.190626 0
M  V30 10387 C 967.621 3.14709 1.20248 0
M  V30 10388 O 968.151 3.29947 2.29124 0
M  V30 10389 N 966.357 2.68892 1.10207 0
M  V30 10390 H 965.904 2.56692 0.216063 0
M  V30 10391 H 965.862 2.47218 1.94244 0
M  V30 10392 N 969.634 0.838594 1.33437 0
M  V30 10393 C 970.911 0.356112 1.92331 0
M  V30 10394 C 971.291 -1.1585 1.76471 0
M  V30 10395 O 970.639 -1.97281 1.15293 0
M  V30 10396 C 970.849 0.802715 3.39643 0
M  V30 10397 C 972.197 0.810575 4.16791 0
M  V30 10398 O 973.221 0.746304 3.48294 0
M  V30 10399 O 972.08 0.898082 5.3907 0
M  V30 10400 H 969.174 0.100711 0.820845 0
M  V30 10401 H 971.72 0.924428 1.42311 0
M  V30 10402 H 970.492 1.84529 3.45057 0
M  V30 10403 H 970.115 0.210956 3.9704 0
M  V30 10404 N 971.112 -1.45937 0.595003 0
M  V30 10405 C 972.34 -2.06698 0.091293 0
M  V30 10406 C 972.755 -1.44176 -1.21897 0
M  V30 10407 O 972.112 -0.551402 -1.73971 0
M  V30 10408 C 972.163 -3.61436 -0.0681801 0
M  V30 10409 O 971.884 -4.21622 1.19023 0
M  V30 10410 C 973.385 -4.39155 -0.604814 0
M  V30 10411 H 970.605 -0.668029 0.0630737 0
M  V30 10412 H 973.149 -1.87376 0.819165 0
M  V30 10413 H 971.304 -3.80143 -0.746324 0
M  V30 10414 H 971.718 -5.14647 1.01187 0
M  V30 10415 H 973.192 -5.47973 -0.665532 0
M  V30 10416 H 973.669 -4.08055 -1.62444 0
M  V30 10417 H 974.275 -4.25282 0.0388658 0
M  V30 10418 N 972.59 -0.333456 -1.54032 0
M  V30 10419 C 973.836 0.266527 -2.01041 0
M  V30 10420 C 974.169 1.51006 -1.2211 0
M  V30 10421 O 973.444 1.92078 -0.306016 0
M  V30 10422 C 973.727 0.59078 -3.55221 0
M  V30 10423 C 973.58 -0.664143 -4.4487 0
M  V30 10424 C 974.899 1.40447 -4.17088 0
M  V30 10425 H 972.018 0.0953979 -0.7308 0
M  V30 10426 H 974.66 -0.451995 -1.84545 0
M  V30 10427 H 972.81 1.20292 -3.69408 0
M  V30 10428 H 974.482 -1.30227 -4.42537 0
M  V30 10429 H 972.725 -1.29106 -4.14143 0
M  V30 10430 H 973.396 -0.392664 -5.50602 0
M  V30 10431 H 975.872 0.886946 -4.06537 0
M  V30 10432 H 974.748 1.6001 -5.2506 0
M  V30 10433 H 975.009 2.40357 -3.71054 0
M  V30 10434 N 974.068 1.57479 -0.061844 0
M  V30 10435 C 975.316 1.92727 0.608336 0
M  V30 10436 C 975.637 0.941799 1.70749 0
M  V30 10437 O 974.907 -0.0116608 1.95897 0
M  V30 10438 H 973.487 0.71145 0.2277 0
M  V30 10439 H 976.149 1.94546 -0.117359 0
M  V30 10440 H 975.245 2.9426 1.04007 0
M  V30 10441 N 975.546 -0.211634 1.56173 0
M  V30 10442 C 976.774 -0.951184 1.83739 0
M  V30 10443 C 977.189 -1.7754 0.642252 0
M  V30 10444 O 976.546 -1.78302 -0.389174 0
M  V30 10445 C 976.597 -1.86075 3.09933 0
M  V30 10446 O 976.318 -1.06983 4.24837 0
M  V30 10447 C 977.819 -2.71337 3.50559 0
M  V30 10448 H 975.039 -0.278312 0.61056 0
M  V30 10449 H 977.583 -0.223871 2.03271 0
M  V30 10450 H 975.738 -2.54189 2.92347 0
M  V30 10451 H 976.152 -1.68815 4.9659 0
M  V30 10452 H 977.626 -3.30843 4.41868 0
M  V30 10453 H 978.103 -3.44226 2.72773 0
M  V30 10454 H 978.709 -2.0862 3.70618 0
M  V30 10455 N 977.024 -1.50153 -0.478725 0
M  V30 10456 C 977.957 -1.63089 -1.59616 0
M  V30 10457 C 978.935 -0.479211 -1.55378 0
M  V30 10458 O 980.119 -0.697715 -1.75112 0
M  V30 10459 C 977.246 -1.60643 -2.9818 0
M  V30 10460 C 976.292 -2.81279 -3.206 0
M  V30 10461 S 977.125 -4.42681 -3.0132 0
M  V30 10462 C 978.281 -4.42915 -4.42241 0
M  V30 10463 H 978.514 -2.57612 -1.48402 0
M  V30 10464 H 976.047 -1.39321 -0.665513 0
M  V30 10465 H 978.005 -1.59917 -3.7807 0
M  V30 10466 H 976.666 -0.673684 -3.0679 0
M  V30 10467 H 975.859 -2.7585 -4.21809 0
M  V30 10468 H 975.461 -2.79533 -2.4847 0
M  V30 10469 H 977.753 -4.16007 -5.34737 0
M  V30 10470 H 978.696 -5.44477 -4.52715 0
M  V30 10471 H 979.104 -3.72715 -4.23962 0
M  V30 10472 N 978.502 0.731368 -1.39602 0
M  V30 10473 C 979.435 1.85433 -1.33004 0
M  V30 10474 C 980.413 1.61327 -0.20307 0
M  V30 10475 O 981.597 1.84545 -0.384124 0
M  V30 10476 C 978.724 3.21483 -1.06613 0
M  V30 10477 C 977.77 3.64443 -2.21549 0
M  V30 10478 S 978.603 3.73387 -3.83852 0
M  V30 10479 C 979.759 5.12222 -3.59694 0
M  V30 10480 H 979.992 1.90747 -2.28041 0
M  V30 10481 H 977.525 0.89659 -1.25701 0
M  V30 10482 H 979.483 4.00041 -0.920719 0
M  V30 10483 H 978.144 3.1382 -0.132563 0
M  V30 10484 H 977.337 4.63185 -1.98686 0
M  V30 10485 H 976.939 2.93099 -2.32312 0
M  V30 10486 H 979.231 5.98666 -3.17184 0
M  V30 10487 H 980.174 5.40115 -4.5791 0
M  V30 10488 H 980.582 4.8207 -2.93716 0
M  V30 10489 N 979.98 1.24838 0.961938 0
M  V30 10490 C 981.208 1.11871 1.74047 0
M  V30 10491 C 981.623 -0.328209 1.85925 0
M  V30 10492 O 980.98 -1.22616 1.35173 0
M  V30 10493 C 981.031 1.75931 3.15801 0
M  V30 10494 O 980.752 3.14967 3.04512 0
M  V30 10495 C 982.253 1.68649 4.09966 0
M  V30 10496 H 979.473 0.390569 0.545616 0
M  V30 10497 H 982.017 1.65058 1.20732 0
M  V30 10498 H 980.172 1.26733 3.66084 0
M  V30 10499 H 980.586 3.46349 3.93882 0
M  V30 10500 H 982.06 2.18144 5.07067 0
M  V30 10501 H 982.537 0.648831 4.34381 0
M  V30 10502 H 983.143 2.17301 3.65596 0
M  V30 10503 N 981.458 -1.16348 1.06306 0
M  V30 10504 C 982.698 -1.88556 0.789055 0
M  V30 10505 C 983.062 -1.79849 -0.672179 0
M  V30 10506 O 984.263 -2.46984 -1.06078 0
M  V30 10507 C 982.534 -3.34069 1.27016 0
M  V30 10508 S 984.093 -4.24128 1.12522 0
M  V30 10509 H 980.911 -0.65084 0.286232 0
M  V30 10510 H 983.513 -1.40443 1.36 0
M  V30 10511 H 982.217 -3.37944 2.32856 0
M  V30 10512 H 981.748 -3.87231 0.693963 0
M  V30 10513 H 983.763 -4.96168 0.0562142 0
M  V30 10514 N 982.937 -0.845659 -1.3299 0
M  V30 10515 C 983.9 -0.288905 -2.27372 0
M  V30 10516 C 984.9 0.546263 -1.51237 0
M  V30 10517 O 986.09 0.359072 -1.70459 0
M  V30 10518 C 983.222 0.59224 -3.35716 0
M  V30 10519 H 984.415 -1.12181 -2.78128 0
M  V30 10520 H 981.968 -0.619276 -1.43508 0
M  V30 10521 H 982.703 1.44732 -2.90212 0
M  V30 10522 H 982.488 -0.00543255 -3.921 0
M  V30 10523 H 983.978 0.974848 -4.06062 0
M  V30 10524 N 984.415 1.45619 -0.602734 0
M  V30 10525 C 985.645 2.06348 -0.102105 0
M  V30 10526 C 986.053 1.44884 1.21677 0
M  V30 10527 O 985.396 0.555559 1.75098 0
M  V30 10528 C 985.458 3.59309 0.117026 0
M  V30 10529 C 985.122 4.43081 -1.11931 0
M  V30 10530 C 986.119 4.78364 -2.03627 0
M  V30 10531 C 983.804 4.83908 -1.34677 0
M  V30 10532 C 985.798 5.53325 -3.16403 0
M  V30 10533 C 983.485 5.58624 -2.47754 0
M  V30 10534 C 984.483 5.93249 -3.38445 0
M  V30 10535 O 984.171 6.6645 -4.49555 0
M  V30 10536 H 983.903 0.672988 -0.0637478 0
M  V30 10537 H 986.457 1.87928 -0.828983 0
M  V30 10538 H 984.687 3.76111 0.898742 0
M  V30 10539 H 986.376 4.01897 0.568649 0
M  V30 10540 H 987.142 4.47384 -1.87277 0
M  V30 10541 H 983.021 4.56396 -0.649875 0
M  V30 10542 H 986.565 5.80268 -3.87214 0
M  V30 10543 H 982.462 5.89019 -2.64059 0
M  V30 10544 H 983.23 6.84895 -4.48175 0
M  V30 10545 N 985.893 0.34162 1.53853 0
M  V30 10546 C 986.803 -0.524555 2.2866 0
M  V30 10547 C 987.819 -1.1136 1.33697 0
M  V30 10548 O 988.995 -1.1297 1.66732 0
M  V30 10549 C 986.06 -1.66065 3.04341 0
M  V30 10550 C 985.121 -1.10158 4.14926 0
M  V30 10551 C 984.354 -2.18353 4.86988 0
M  V30 10552 O 984.577 -3.39038 4.58704 0
M  V30 10553 O 983.511 -1.82756 5.73484 0
M  V30 10554 H 987.337 0.0835014 3.03585 0
M  V30 10555 H 984.922 0.106727 1.49018 0
M  V30 10556 H 986.804 -2.3217 3.51674 0
M  V30 10557 H 985.479 -2.25456 2.32275 0
M  V30 10558 H 984.386 -0.405109 3.719 0
M  V30 10559 H 985.719 -0.552567 4.89088 0
M  V30 10560 N 987.371 -1.57444 0.0701946 0
M  V30 10561 C 988.281 -2.16132 -0.912377 0
M  V30 10562 C 989.297 -1.12406 -1.32819 0
M  V30 10563 O 990.473 -1.44665 -1.40121 0
M  V30 10564 C 987.538 -2.71008 -2.16231 0
M  V30 10565 C 986.599 -3.896 -1.80306 0
M  V30 10566 C 985.832 -4.4185 -2.9934 0
M  V30 10567 O 986.055 -3.93106 -4.13309 0
M  V30 10568 O 984.989 -5.33201 -2.7925 0
M  V30 10569 H 988.815 -3.00449 -0.443167 0
M  V30 10570 H 986.4 -1.48617 -0.152786 0
M  V30 10571 H 988.282 -3.06186 -2.8953 0
M  V30 10572 H 986.957 -1.8975 -2.62253 0
M  V30 10573 H 985.864 -3.59277 -1.04264 0
M  V30 10574 H 987.197 -4.72145 -1.39068 0
M  V30 10575 N 988.849 0.203349 -1.56283 0
M  V30 10576 C 990.26 0.768764 -1.70138 0
M  V30 10577 C 990.611 1.8421 -0.675358 0
M  V30 10578 O 989.736 2.15732 0.1699 0
M  V30 10579 C 990.331 1.40123 -3.08466 0
M  V30 10580 C 988.89 1.91382 -3.24114 0
M  V30 10581 C 988.037 0.780685 -2.66084 0
M  V30 10582 H 990.988 -0.0215997 -1.58685 0
M  V30 10583 H 991.009 2.27046 -3.05336 0
M  V30 10584 H 990.521 0.619805 -3.83119 0
M  V30 10585 H 988.622 2.7227 -2.54362 0
M  V30 10586 H 988.735 2.08128 -4.31531 0
M  V30 10587 H 987.099 1.19281 -2.25042 0
M  V30 10588 H 987.882 0.0116351 -3.43298 0
M  V30 10589 N 990.327 1.50405 0.470755 0
M  V30 10590 C 991.555 1.65168 1.24608 0
M  V30 10591 C 991.97 0.335153 1.85801 0
M  V30 10592 O 991.327 -0.682919 1.69241 0
M  V30 10593 C 991.378 2.74305 2.35455 0
M  V30 10594 O 991.099 4.00854 1.76771 0
M  V30 10595 C 992.6 3.00044 3.26326 0
M  V30 10596 H 989.82 0.555186 0.376842 0
M  V30 10597 H 992.364 1.9663 0.56187 0
M  V30 10598 H 990.519 2.45536 2.99651 0
M  V30 10599 H 990.933 4.61211 2.49769 0
M  V30 10600 H 992.407 3.8007 4.00313 0
M  V30 10601 H 992.884 2.11128 3.85126 0
M  V30 10602 H 993.49 3.30345 2.67866 0
M  V30 10603 N 991.805 -0.723954 1.39988 0
M  V30 10604 C 993.045 -1.49624 1.39255 0
M  V30 10605 C 993.409 -1.91998 -0.00860198 0
M  V30 10606 O 994.61 -2.6843 -0.141002 0
M  V30 10607 C 992.881 -2.69514 2.34728 0
M  V30 10608 S 994.44 -3.59027 2.5228 0
M  V30 10609 H 991.258 -0.511661 0.493685 0
M  V30 10610 H 993.86 -0.847322 1.76184 0
M  V30 10611 H 992.564 -2.36541 3.35375 0
M  V30 10612 H 992.095 -3.39325 1.99053 0
M  V30 10613 H 994.11 -4.63597 1.76896 0
M  V30 10614 N 993.283 -1.25346 -0.955304 0
M  V30 10615 C 994.193 -1.07412 -2.08566 0
M  V30 10616 C 995.209 -0.0114424 -1.73996 0
M  V30 10617 O 996.385 -0.212236 -2.00279 0
M  V30 10618 C 993.45 -0.694141 -3.3968 0
M  V30 10619 C 992.511 -1.83468 -3.88121 0
M  V30 10620 C 991.744 -1.47274 -5.12978 0
M  V30 10621 O 991.967 -0.368086 -5.69211 0
M  V30 10622 O 990.901 -2.30269 -5.56111 0
M  V30 10623 H 994.727 -2.02206 -2.26598 0
M  V30 10624 H 992.312 -1.04279 -1.06988 0
M  V30 10625 H 994.194 -0.494325 -4.18491 0
M  V30 10626 H 992.869 0.224545 -3.2292 0
M  V30 10627 H 991.776 -2.08935 -3.10318 0
M  V30 10628 H 993.109 -2.73258 -4.09379 0
M  V30 10629 N 994.761 1.15782 -1.06922 0
M  V30 10630 C 996.007 1.86741 -0.790922 0
M  V30 10631 C 996.34 1.81863 0.681149 0
M  V30 10632 O 995.615 1.23871 1.49954 0
M  V30 10633 C 995.898 3.36038 -1.29422 0
M  V30 10634 C 995.751 3.49573 -2.83052 0
M  V30 10635 C 997.07 4.30647 -0.907239 0
M  V30 10636 H 994.189 0.678064 -0.288787 0
M  V30 10637 H 996.831 1.36054 -1.32624 0
M  V30 10638 H 994.981 3.79336 -0.838843 0
M  V30 10639 H 996.653 3.1517 -3.36847 0
M  V30 10640 H 994.896 2.91275 -3.21467 0
M  V30 10641 H 995.567 4.5445 -3.13335 0
M  V30 10642 H 998.043 3.95286 -1.29956 0
M  V30 10643 H 996.919 5.33604 -1.28679 0
M  V30 10644 H 997.18 4.41703 0.187251 0
M  V30 10645 N 996.239 0.8527 1.3254 0
M  V30 10646 C 997.487 0.454224 1.96929 0
M  V30 10647 C 997.808 -0.993034 1.67821 0
M  V30 10648 O 997.078 -1.69371 0.984393 0
M  V30 10649 H 995.658 0.164977 0.728554 0
M  V30 10650 H 998.32 1.0887 1.61658 0
M  V30 10651 H 997.416 0.597667 3.06324 0
M  V30 10652 N 997.718 -1.45297 0.610449 0
M  V30 10653 C 998.648 -2.33311 -0.0939698 0
M  V30 10654 C 999.629 -1.46999 -0.85588 0
M  V30 10655 O 1000.81 -1.75764 -0.825865 0
M  V30 10656 C 997.944 -3.29751 -1.09003 0
M  V30 10657 C 996.898 -4.2572 -0.441146 0
M  V30 10658 C 996.224 -5.11873 -1.54566 0
M  V30 10659 C 997.524 -5.1837 0.639489 0
M  V30 10660 H 999.218 -2.92459 0.640941 0
M  V30 10661 H 996.764 -1.40631 0.309675 0
M  V30 10662 H 998.717 -3.90195 -1.59141 0
M  V30 10663 H 997.441 -2.68768 -1.85557 0
M  V30 10664 H 996.1 -3.66579 0.0393908 0
M  V30 10665 H 995.748 -4.47256 -2.30155 0
M  V30 10666 H 995.448 -5.76886 -1.11698 0
M  V30 10667 H 996.972 -5.75185 -2.04925 0
M  V30 10668 H 998.386 -5.7287 0.22207 0
M  V30 10669 H 996.783 -5.91876 0.990089 0
M  V30 10670 H 997.853 -4.60627 1.51495 0
M  V30 10671 N 999.196 -0.349774 -1.5367 0
M  V30 10672 C 1000.44 0.245862 -2.00196 0
M  V30 10673 C 1000.76 1.51154 -1.24144 0
M  V30 10674 O 1001.96 2.18481 -1.61178 0
M  V30 10675 C 1000.42 0.488665 -3.56567 0
M  V30 10676 C 1000.03 -0.761475 -4.41481 0
M  V30 10677 C 1001.77 1.04282 -4.11492 0
M  V30 10678 C 999.679 -0.489128 -5.89374 0
M  V30 10679 H 998.609 0.0956493 -0.747909 0
M  V30 10680 H 1001.26 -0.466068 -1.77483 0
M  V30 10681 H 999.642 1.26145 -3.75371 0
M  V30 10682 H 1000.82 -1.53585 -4.34452 0
M  V30 10683 H 999.131 -1.23771 -3.9758 0
M  V30 10684 H 1001.73 1.26164 -5.19603 0
M  V30 10685 H 1002.07 2.00023 -3.65098 0
M  V30 10686 H 1002.6 0.330582 -3.96424 0
M  V30 10687 H 999.343 -1.41643 -6.40014 0
M  V30 10688 H 998.863 0.247039 -5.99291 0
M  V30 10689 H 1000.54 -0.1087 -6.46909 0
M  V30 10690 N 1000.67 1.57404 -0.0785433 0
M  V30 10691 C 1001.92 1.94031 0.589896 0
M  V30 10692 C 1002.25 0.959297 1.68852 0
M  V30 10693 O 1001.53 -0.0103978 1.94497 0
M  V30 10694 C 1001.81 3.40886 1.16055 0
M  V30 10695 C 1001.66 4.49748 0.0681072 0
M  V30 10696 C 1002.98 3.88699 2.06401 0
M  V30 10697 H 1000.1 0.70556 0.212965 0
M  V30 10698 H 1002.74 1.89439 -0.145886 0
M  V30 10699 H 1000.89 3.4493 1.78761 0
M  V30 10700 H 1002.57 4.57823 -0.565318 0
M  V30 10701 H 1000.81 4.29625 -0.600431 0
M  V30 10702 H 1001.48 5.49658 0.507906 0
M  V30 10703 H 1003.96 3.86703 1.53622 0
M  V30 10704 H 1002.83 4.92052 2.43261 0
M  V30 10705 H 1003.09 3.2703 2.97496 0
M  V30 10706 N 1002.15 -0.195058 1.56388 0
M  V30 10707 C 1003.4 -0.913636 1.8027 0
M  V30 10708 C 1003.72 -1.83791 0.651606 0
M  V30 10709 O 1002.99 -1.931 -0.330057 0
M  V30 10710 H 1001.57 -0.34036 0.664954 0
M  V30 10711 H 1004.23 -0.200559 1.93865 0
M  V30 10712 H 1003.33 -1.50473 2.7343 0
M  V30 10713 N 1003.63 -1.50653 -0.462772 0
M  V30 10714 C 1004.86 -1.65826 -1.23731 0
M  V30 10715 C 1005.27 -0.345002 -1.85621 0
M  V30 10716 O 1004.63 0.673935 -1.69601 0
M  V30 10717 C 1004.68 -2.7555 -2.33997 0
M  V30 10718 O 1004.4 -4.01785 -1.74643 0
M  V30 10719 C 1005.9 -3.0177 -3.2473 0
M  V30 10720 H 1003.12 -0.557177 -0.373892 0
M  V30 10721 H 1005.67 -1.96925 -0.551434 0
M  V30 10722 H 1003.82 -2.47122 -2.98345 0
M  V30 10723 H 1004.24 -4.62529 -2.4732 0
M  V30 10724 H 1005.71 -3.82188 -3.98292 0
M  V30 10725 H 1006.19 -2.13167 -3.84001 0
M  V30 10726 H 1006.79 -3.31761 -2.66111 0
M  V30 10727 N 1005.11 0.71652 -1.4037 0
M  V30 10728 C 1006.36 1.47347 -1.38324 0
M  V30 10729 C 1006.68 1.94995 0.0139949 0
M  V30 10730 O 1005.95 1.7028 0.968585 0
M  V30 10731 H 1004.53 0.546662 -0.509087 0
M  V30 10732 H 1007.19 0.849455 -1.75415 0
M  V30 10733 H 1006.29 2.34675 -2.05752 0
M  V30 10734 N 1006.59 1.25851 0.948643 0
M  V30 10735 C 1007.81 1.13813 1.73382 0
M  V30 10736 C 1008.24 -0.303615 1.85633 0
M  V30 10737 O 1007.59 -1.21997 1.34114 0
M  V30 10738 C 1007.64 1.80388 3.12238 0
M  V30 10739 O 1006.75 1.08759 3.978 0
M  V30 10740 H 1006.09 0.397006 0.532243 0
M  V30 10741 H 1008.62 1.66529 1.18866 0
M  V30 10742 H 1008.63 1.86913 3.62667 0
M  V30 10743 H 1007.3 2.85278 3.02637 0
M  V30 10744 H 1005.88 1.10157 3.56258 0
M  V30 10745 N 1008.06 -1.15214 1.07534 0
M  V30 10746 C 1009.01 -2.22078 0.69168 0
M  V30 10747 C 1010.01 -1.66751 -0.298382 0
M  V30 10748 O 1011.21 -1.7927 -0.161897 0
M  V30 10749 H 1007.59 -0.723347 0.205604 0
M  V30 10750 H 1009.56 -2.51716 1.60256 0
M  V30 10751 C 1008.31 -3.47534 0.107546 0
M  V30 10752 H 1007.63 -3.90429 0.860522 0
M  V30 10753 H 1009.07 -4.23821 -0.123215 0
M  V30 10754 C 1007.53 -3.16583 -1.15226 0
M  V30 10755 O 1008.06 -3.33551 -2.23845 0
M  V30 10756 N 1006.27 -2.70611 -1.05915 0
M  V30 10757 H 1005.81 -2.57004 -0.175198 0
M  V30 10758 H 1005.77 -2.50277 -1.90287 0
M  V30 10759 N 1009.54 -0.859717 -1.32086 0
M  V30 10760 C 1010.51 -0.313005 -2.27053 0
M  V30 10761 C 1011.51 0.530191 -1.51808 0
M  V30 10762 O 1012.7 0.340972 -1.7083 0
M  V30 10763 C 1009.83 0.5566 -3.36325 0
M  V30 10764 H 1011.02 -1.15125 -2.76923 0
M  V30 10765 H 1008.57 -0.634463 -1.42843 0
M  V30 10766 H 1009.31 1.41645 -2.91731 0
M  V30 10767 H 1009.09 -0.0470197 -3.92072 0
M  V30 10768 H 1010.58 0.931725 -4.07073 0
M  V30 10769 N 1011.02 1.44971 -0.618145 0
M  V30 10770 C 1012.26 2.04044 -0.120625 0
M  V30 10771 C 1012.62 1.47472 1.22947 0
M  V30 10772 O 1013.83 1.97965 1.81834 0
M  V30 10773 C 1012.1 3.57279 -0.0930863 0
M  V30 10774 S 1013.66 4.37468 0.341705 0
M  V30 10775 H 1010.47 0.708891 -0.0547272 0
M  V30 10776 H 1013.08 1.77535 -0.818621 0
M  V30 10777 H 1011.78 3.95961 -1.07903 0
M  V30 10778 H 1011.31 3.88378 0.62657 0
M  V30 10779 H 1013.33 4.70073 1.58888 0
M  V30 10780 N 1012.5 0.357919 1.53482 0
M  V30 10781 C 1013.73 -0.234799 2.05261 0
M  V30 10782 C 1014.14 -1.43618 1.23169 0
M  V30 10783 O 1013.48 -1.81801 0.263435 0
M  V30 10784 C 1013.54 -0.699748 3.52624 0
M  V30 10785 C 1013.21 0.383905 4.55385 0
M  V30 10786 C 1014.2 1.23129 5.05109 0
M  V30 10787 C 1011.89 0.541953 4.99368 0
M  V30 10788 C 1013.88 2.22214 5.97411 0
M  V30 10789 C 1011.57 1.53618 5.91477 0
M  V30 10790 C 1012.57 2.37471 6.40388 0
M  V30 10791 O 1012.25 3.35199 7.30682 0
M  V30 10792 H 1011.99 -0.0465364 0.674396 0
M  V30 10793 H 1014.54 0.512355 1.98907 0
M  V30 10794 H 1012.77 -1.49838 3.5649 0
M  V30 10795 H 1014.46 -1.21461 3.87301 0
M  V30 10796 H 1015.23 1.12035 4.71883 0
M  V30 10797 H 1011.1 -0.100929 4.6089 0
M  V30 10798 H 1014.65 2.87702 6.35511 0
M  V30 10799 H 1010.55 1.64763 6.24118 0
M  V30 10800 H 1011.31 3.30838 7.48658 0
M  V30 10801 N 1013.98 -1.5736 0.0868897 0
M  V30 10802 C 1014.91 -2.09211 -0.911382 0
M  V30 10803 C 1015.89 -1.00072 -1.28157 0
M  V30 10804 O 1017.07 -1.27514 -1.38825 0
M  V30 10805 C 1014.2 -2.56229 -2.21504 0
M  V30 10806 C 1013.24 -3.76948 -1.99531 0
M  V30 10807 S 1014.08 -5.20926 -1.24083 0
M  V30 10808 C 1015.23 -5.71288 -2.55697 0
M  V30 10809 H 1015.47 -2.93557 -0.470245 0
M  V30 10810 H 1013 -1.53883 -0.126218 0
M  V30 10811 H 1014.96 -2.83978 -2.96424 0
M  V30 10812 H 1013.62 -1.72123 -2.6274 0
M  V30 10813 H 1012.81 -4.07887 -2.96048 0
M  V30 10814 H 1012.41 -3.4965 -1.32744 0
M  V30 10815 H 1014.71 -5.79054 -3.51714 0
M  V30 10816 H 1015.65 -6.6993 -2.29347 0
M  V30 10817 H 1016.06 -4.99178 -2.63594 0
M  V30 10818 N 1015.45 0.186762 -1.56489 0
M  V30 10819 C 1016.36 1.25169 -1.98419 0
M  V30 10820 C 1017.38 1.49329 -0.893124 0
M  V30 10821 O 1018.56 1.61781 -1.19954 0
M  V30 10822 C 1015.62 2.57422 -2.32239 0
M  V30 10823 C 1014.68 2.4126 -3.55095 0
M  V30 10824 C 1013.92 3.67206 -3.87292 0
M  V30 10825 O 1014.14 4.71731 -3.20665 0
M  V30 10826 O 1013.07 3.62238 -4.80695 0
M  V30 10827 H 1016.9 0.925834 -2.89244 0
M  V30 10828 H 1014.48 0.392421 -1.44154 0
M  V30 10829 H 1016.37 3.35466 -2.5503 0
M  V30 10830 H 1015.04 2.89618 -1.44579 0
M  V30 10831 H 1013.95 1.61299 -3.37541 0
M  V30 10832 H 1015.28 2.13994 -4.43247 0
M  V30 10833 N 1016.93 1.50896 0.454776 0
M  V30 10834 C 1017.84 1.73762 1.5762 0
M  V30 10835 C 1018.86 0.621206 1.62533 0
M  V30 10836 O 1020.03 0.901449 1.801 0
M  V30 10837 C 1017.1 1.84183 2.9373 0
M  V30 10838 C 1016.16 3.07982 2.99075 0
M  V30 10839 C 1015.39 3.17896 4.28693 0
M  V30 10840 O 1015.62 2.34184 5.20109 0
M  V30 10841 O 1014.55 4.10749 4.39964 0
M  V30 10842 H 1018.38 2.68856 1.41245 0
M  V30 10843 H 1015.96 1.35187 0.635984 0
M  V30 10844 H 1017.84 1.93123 3.74542 0
M  V30 10845 H 1016.52 0.922742 3.10269 0
M  V30 10846 H 1015.43 3.04531 2.17282 0
M  V30 10847 H 1016.76 3.99523 2.87476 0
M  V30 10848 N 1018.41 -0.709066 1.40748 0
M  V30 10849 C 1019.34 -1.83293 1.35937 0
M  V30 10850 C 1020.32 -1.60983 0.22871 0
M  V30 10851 O 1021.51 -1.8391 0.413435 0
M  V30 10852 C 1018.63 -3.19746 1.11714 0
M  V30 10853 C 1017.68 -3.60872 2.27319 0
M  V30 10854 S 1018.51 -3.67233 3.89743 0
M  V30 10855 C 1019.67 -5.06434 3.67797 0
M  V30 10856 H 1019.9 -1.87095 2.31047 0
M  V30 10857 H 1017.43 -0.876479 1.27111 0
M  V30 10858 H 1019.39 -3.98526 0.984245 0
M  V30 10859 H 1018.05 -3.1357 0.182472 0
M  V30 10860 H 1017.25 -4.59965 2.06029 0
M  V30 10861 H 1016.85 -2.89366 2.36946 0
M  V30 10862 H 1019.14 -5.93544 3.26668 0
M  V30 10863 H 1020.08 -5.32761 4.66445 0
M  V30 10864 H 1020.49 -4.77336 3.01348 0
M  V30 10865 N 1019.89 -1.26353 -0.941956 0
M  V30 10866 C 1020.84 -1.07842 -2.04056 0
M  V30 10867 C 1021.81 0.0163064 -1.66092 0
M  V30 10868 O 1022.99 -0.143313 -1.90261 0
M  V30 10869 C 1020.13 -0.716636 -3.37577 0
M  V30 10870 C 1019.24 -1.88754 -3.88582 0
M  V30 10871 C 1018.38 -1.46893 -5.10486 0
M  V30 10872 C 1017.42 -2.60819 -5.53751 0
M  V30 10873 N 1016.56 -2.19646 -6.66858 0
M  V30 10874 H 1021.4 -2.01856 -2.19221 0
M  V30 10875 H 1018.93 -1.00504 -1.07412 0
M  V30 10876 H 1020.89 -0.487768 -4.14339 0
M  V30 10877 H 1019.52 0.18653 -3.22261 0
M  V30 10878 H 1018.57 -2.22936 -3.08227 0
M  V30 10879 H 1019.88 -2.74264 -4.1663 0
M  V30 10880 H 1019.04 -1.20047 -5.94705 0
M  V30 10881 H 1017.78 -0.584721 -4.84182 0
M  V30 10882 H 1016.78 -2.88396 -4.6809 0
M  V30 10883 H 1018.01 -3.49838 -5.82057 0
M  V30 10884 H 1015.95 -1.33657 -6.4224 0
M  V30 10885 H 1015.87 -2.987 -6.94489 0
M  V30 10886 H 1017.14 -1.96009 -7.54454 0
M  V30 10887 N 1021.37 1.14642 -1.08144 0
M  V30 10888 C 1022.32 2.21708 -0.703448 0
M  V30 10889 C 1023.31 1.66907 0.289535 0
M  V30 10890 O 1024.52 1.79354 0.152387 0
M  V30 10891 H 1020.89 0.722247 -0.209437 0
M  V30 10892 H 1022.86 2.50862 -1.61588 0
M  V30 10893 C 1021.61 3.47472 -0.125975 0
M  V30 10894 H 1020.93 3.89967 -0.881216 0
M  V30 10895 H 1022.37 4.2388 0.100737 0
M  V30 10896 C 1020.83 3.17189 1.13546 0
M  V30 10897 O 1021.36 3.34733 2.22073 0
M  V30 10898 N 1019.57 2.71169 1.04479 0
M  V30 10899 H 1019.12 2.57093 0.161566 0
M  V30 10900 H 1019.07 2.51282 1.88957 0
M  V30 10901 N 1022.85 0.866709 1.31628 0
M  V30 10902 C 1024.09 0.476731 1.97117 0
M  V30 10903 C 1024.42 -0.967813 1.68366 0
M  V30 10904 O 1023.7 -1.68101 0.978377 0
M  V30 10905 C 1023.98 0.730561 3.52611 0
M  V30 10906 C 1023.84 2.2244 3.90948 0
M  V30 10907 C 1025.15 0.19488 4.39668 0
M  V30 10908 H 1022.27 0.174682 0.715999 0
M  V30 10909 H 1024.92 1.08735 1.5581 0
M  V30 10910 H 1023.07 0.210834 3.87927 0
M  V30 10911 H 1024.74 2.81113 3.6575 0
M  V30 10912 H 1022.98 2.69824 3.39673 0
M  V30 10913 H 1023.65 2.35266 4.99353 0
M  V30 10914 H 1026.13 0.639478 4.11157 0
M  V30 10915 H 1025 0.401958 5.47426 0
M  V30 10916 H 1025.26 -0.90302 4.32779 0
M  V30 10917 N 1024.32 -1.44642 0.625825 0
M  V30 10918 C 1025.23 -2.34451 -0.0836134 0
M  V30 10919 C 1026.25 -1.5231 -0.841289 0
M  V30 10920 O 1027.43 -1.85056 -0.794754 0
M  V30 10921 C 1024.49 -3.30211 -1.05648 0
M  V30 10922 C 1023.55 -4.28259 -0.298759 0
M  V30 10923 C 1022.78 -5.19444 -1.22528 0
M  V30 10924 O 1023.01 -5.14444 -2.46382 0
M  V30 10925 O 1021.94 -5.97668 -0.71247 0
M  V30 10926 H 1025.77 -2.96555 0.654912 0
M  V30 10927 H 1023.35 -1.44327 0.386029 0
M  V30 10928 H 1025.23 -3.8917 -1.61632 0
M  V30 10929 H 1023.91 -2.70648 -1.77571 0
M  V30 10930 H 1022.82 -3.72863 0.304001 0
M  V30 10931 H 1024.15 -4.90728 0.380345 0
M  V30 10932 N 1025.8 -0.366053 -1.5329 0
M  V30 10933 C 1026.73 0.523781 -2.22108 0
M  V30 10934 C 1027.71 1.08262 -1.21318 0
M  V30 10935 O 1028.9 1.13866 -1.50222 0
M  V30 10936 C 1026.02 1.72273 -2.91616 0
M  V30 10937 C 1025.07 1.29129 -4.06482 0
M  V30 10938 S 1025.9 0.292195 -5.34702 0
M  V30 10939 C 1027.06 1.49746 -6.07723 0
M  V30 10940 H 1027.29 -0.0606687 -2.97238 0
M  V30 10941 H 1024.82 -0.15016 -1.53668 0
M  V30 10942 H 1026.78 2.41045 -3.32277 0
M  V30 10943 H 1025.44 2.27843 -2.16209 0
M  V30 10944 H 1024.64 2.18583 -4.54134 0
M  V30 10945 H 1024.24 0.682783 -3.67715 0
M  V30 10946 H 1026.53 2.4284 -6.32483 0
M  V30 10947 H 1027.47 1.06232 -7.00086 0
M  V30 10948 H 1027.88 1.70373 -5.38176 0
M  V30 10949 N 1027.28 1.57312 -0.0952337 0
M  V30 10950 C 1028.53 1.94646 0.569284 0
M  V30 10951 C 1028.86 0.977152 1.67825 0
M  V30 10952 O 1028.13 0.0102318 1.94497 0
M  V30 10953 C 1028.42 3.42098 1.12433 0
M  V30 10954 C 1028.27 4.49795 0.0204016 0
M  V30 10955 C 1029.59 3.90866 2.02266 0
M  V30 10956 H 1026.71 0.707779 0.205469 0
M  V30 10957 H 1029.35 1.89274 -0.16597 0
M  V30 10958 H 1027.5 3.46807 1.75092 0
M  V30 10959 H 1029.17 4.57198 -0.613845 0
M  V30 10960 H 1027.41 4.28964 -0.645965 0
M  V30 10961 H 1028.09 5.50166 0.449579 0
M  V30 10962 H 1030.56 3.88311 1.49512 0
M  V30 10963 H 1029.44 4.94604 2.38029 0
M  V30 10964 H 1029.7 3.30167 2.9401 0
M  V30 10965 N 1028.76 -0.17846 1.56586 0
M  V30 10966 C 1029.67 -1.24115 1.9908 0
M  V30 10967 C 1030.68 -1.48854 0.901031 0
M  V30 10968 O 1031.86 -1.61142 1.2081 0
M  V30 10969 C 1028.92 -2.56187 2.33601 0
M  V30 10970 C 1027.99 -2.39373 3.56369 0
M  V30 10971 C 1027.22 -3.65147 3.89234 0
M  V30 10972 O 1027.44 -4.70024 3.23162 0
M  V30 10973 O 1026.38 -3.59683 4.82609 0
M  V30 10974 H 1030.2 -0.910482 2.89731 0
M  V30 10975 H 1027.79 -0.38477 1.4436 0
M  V30 10976 H 1029.67 -3.34109 2.56806 0
M  V30 10977 H 1028.34 -2.88847 1.46113 0
M  V30 10978 H 1027.25 -1.59506 3.38391 0
M  V30 10979 H 1028.58 -2.1164 4.44375 0
M  V30 10980 N 1030.24 -1.51135 -0.446768 0
M  V30 10981 C 1031.48 -1.63013 -1.19461 0
M  V30 10982 C 1031.8 -0.344067 -1.91941 0
M  V30 10983 O 1031.07 0.639666 -1.85162 0
M  V30 10984 H 1029.65 -0.600757 -0.443959 0
M  V30 10985 H 1032.32 -1.88024 -0.513137 0
M  V30 10986 H 1031.41 -2.45322 -1.92933 0
M  V30 10987 N 1031.71 0.701592 -1.41122 0
M  V30 10988 C 1032.99 1.45569 -1.30648 0
M  V30 10989 C 1033.37 2.10988 0.068744 0
M  V30 10990 O 1032.72 2.01228 1.08257 0
M  V30 10991 C 1032.93 2.48003 -2.45551 0
M  V30 10992 C 1034.28 3.13431 -2.86437 0
M  V30 10993 O 1035.3 2.58327 -2.45247 0
M  V30 10994 O 1034.16 4.13221 -3.57646 0
M  V30 10995 H 1031.25 0.648 -0.513834 0
M  V30 10996 H 1033.8 0.73258 -1.53073 0
M  V30 10997 H 1032.57 1.98276 -3.37346 0
M  V30 10998 H 1032.19 3.27832 -2.24971 0
M  V30 10999 N 1033.19 1.2685 0.935242 0
M  V30 11000 C 1034.12 1.04717 2.0388 0
M  V30 11001 C 1035.14 0.00567507 1.62799 0
M  V30 11002 O 1036.33 0.246408 1.76791 0
M  V30 11003 C 1033.43 0.56496 3.34158 0
M  V30 11004 C 1032.6 1.67704 4.03973 0
M  V30 11005 C 1031.66 1.19186 5.12524 0
M  V30 11006 O 1030.68 1.89008 5.36903 0
M  V30 11007 N 1031.89 0.0434554 5.80484 0
M  V30 11008 H 1034.65 1.99746 2.23431 0
M  V30 11009 H 1032.21 1.18316 1.10512 0
M  V30 11010 H 1034.2 0.224436 4.04077 0
M  V30 11011 H 1032.77 -0.291899 3.11234 0
M  V30 11012 H 1031.99 2.18821 3.27889 0
M  V30 11013 H 1033.28 2.42361 4.47368 0
M  V30 11014 H 1032.68 -0.539502 5.63122 0
M  V30 11015 H 1031.24 -0.237946 6.51366 0
M  V30 11016 N 1034.67 -1.14067 1.0875 0
M  V30 11017 C 1035.92 -1.84819 0.817698 0
M  V30 11018 C 1036.24 -1.83545 -0.658488 0
M  V30 11019 O 1035.51 -1.28633 -1.47751 0
M  V30 11020 H 1034.09 -0.68433 0.299502 0
M  V30 11021 H 1036.75 -1.38208 1.37421 0
M  V30 11022 H 1035.85 -2.89541 1.16501 0
M  V30 11023 N 1036.15 -0.873678 -1.31166 0
M  V30 11024 C 1037.08 -0.289389 -2.27366 0
M  V30 11025 C 1038.09 0.549667 -1.5324 0
M  V30 11026 O 1039.28 0.371056 -1.74601 0
M  V30 11027 C 1036.38 0.60807 -3.334 0
M  V30 11028 C 1035.56 -0.199379 -4.36945 0
M  V30 11029 C 1034.61 0.626798 -5.22454 0
M  V30 11030 O 1033.64 0.0535121 -5.69175 0
M  V30 11031 N 1034.84 1.93809 -5.47191 0
M  V30 11032 H 1037.61 -1.1161 -2.78143 0
M  V30 11033 H 1035.17 -0.735529 -1.44228 0
M  V30 11034 H 1037.16 1.16656 -3.87522 0
M  V30 11035 H 1035.73 1.33545 -2.82638 0
M  V30 11036 H 1034.95 -0.939316 -3.82845 0
M  V30 11037 H 1036.24 -0.75329 -5.03193 0
M  V30 11038 H 1035.64 2.42693 -5.10995 0
M  V30 11039 H 1034.19 2.44428 -6.04234 0
M  V30 11040 N 1037.63 1.44308 -0.633487 0
M  V30 11041 C 1038.56 2.27887 0.119397 0
M  V30 11042 C 1039.54 1.38676 0.848981 0
M  V30 11043 O 1040.72 1.68116 0.85259 0
M  V30 11044 C 1037.85 3.17658 1.17521 0
M  V30 11045 C 1036.89 4.22992 0.54589 0
M  V30 11046 S 1037.73 5.31345 -0.6658 0
M  V30 11047 C 1038.88 6.24684 0.389965 0
M  V30 11048 H 1039.12 2.91394 -0.589638 0
M  V30 11049 H 1036.65 1.48529 -0.421727 0
M  V30 11050 H 1038.61 3.69929 1.77941 0
M  V30 11051 H 1037.27 2.53367 1.85645 0
M  V30 11052 H 1036.46 4.85828 1.34115 0
M  V30 11053 H 1036.06 3.73996 0.0162506 0
M  V30 11054 H 1038.36 6.65645 1.26185 0
M  V30 11055 H 1039.3 7.07809 -0.202878 0
M  V30 11056 H 1039.71 5.59929 0.716922 0
M  V30 11057 N 1039.1 0.374177 1.53094 0
M  V30 11058 C 1040.34 -0.21278 2.03289 0
M  V30 11059 C 1040.71 -1.45291 1.25517 0
M  V30 11060 O 1041.91 -2.11605 1.65761 0
M  V30 11061 C 1040.18 -0.48913 3.54037 0
M  V30 11062 S 1041.74 -1.04853 4.26088 0
M  V30 11063 H 1038.56 -0.0612752 0.708355 0
M  V30 11064 H 1041.16 0.519031 1.88484 0
M  V30 11065 H 1039.86 0.420786 4.08237 0
M  V30 11066 H 1039.39 -1.24978 3.7302 0
M  V30 11067 H 1041.41 -2.33213 4.3798 0
M  V30 11068 N 1040.58 -1.57259 0.103575 0
M  V30 11069 C 1041.83 -1.93832 -0.55786 0
M  V30 11070 C 1042.14 -0.988087 -1.68808 0
M  V30 11071 O 1043.35 -1.24786 -2.41124 0
M  V30 11072 C 1041.81 -3.44433 -1.04373 0
M  V30 11073 C 1041.41 -4.47963 0.0571971 0
M  V30 11074 C 1043.16 -3.89953 -1.67742 0
M  V30 11075 C 1041.07 -5.89727 -0.444505 0
M  V30 11076 H 1040 -0.723536 -0.212161 0
M  V30 11077 H 1042.65 -1.82606 0.180944 0
M  V30 11078 H 1041.03 -3.50841 -1.83648 0
M  V30 11079 H 1042.2 -4.53209 0.83298 0
M  V30 11080 H 1040.52 -4.12104 0.596588 0
M  V30 11081 H 1043.11 -4.93272 -2.06365 0
M  V30 11082 H 1043.46 -3.2907 -2.54988 0
M  V30 11083 H 1043.99 -3.86281 -0.950342 0
M  V30 11084 H 1040.73 -6.5433 0.391543 0
M  V30 11085 H 1040.25 -5.87935 -1.18711 0
M  V30 11086 H 1041.93 -6.40558 -0.910739 0
M  V30 11087 N 1042.06 0.170153 -1.56679 0
M  V30 11088 C 1043.01 1.22997 -1.9742 0
M  V30 11089 C 1044 1.45762 -0.863117 0
M  V30 11090 O 1045.21 1.46328 -1.04824 0
M  V30 11091 H 1041.58 0.413482 -0.628122 0
M  V30 11092 H 1043.55 0.859502 -2.85754 0
M  V30 11093 C 1042.3 2.5615 -2.35122 0
M  V30 11094 H 1041.63 2.39456 -3.20158 0
M  V30 11095 H 1043.07 3.28991 -2.67471 0
M  V30 11096 C 1041.53 3.14992 -1.19507 0
M  V30 11097 O 1042.06 3.98781 -0.483357 0
M  V30 11098 N 1040.26 2.74098 -0.965332 0
M  V30 11099 H 1039.81 2.06062 -1.54585 0
M  V30 11100 H 1039.77 3.13803 -0.193611 0
M  V30 11101 N 1043.54 1.5137 0.438746 0
M  V30 11102 C 1044.47 1.67264 1.55236 0
M  V30 11103 C 1045.45 0.520238 1.54053 0
M  V30 11104 O 1046.63 0.743897 1.73201 0
M  V30 11105 C 1043.76 1.68492 2.93816 0
M  V30 11106 C 1042.81 2.8968 3.1303 0
M  V30 11107 S 1043.64 4.50514 2.89478 0
M  V30 11108 C 1044.8 4.54485 4.30342 0
M  V30 11109 H 1045.03 2.61456 1.4152 0
M  V30 11110 H 1042.56 1.41036 0.628341 0
M  V30 11111 H 1044.52 1.69884 3.73697 0
M  V30 11112 H 1043.18 0.754787 3.04896 0
M  V30 11113 H 1042.37 2.86936 4.14347 0
M  V30 11114 H 1041.98 2.86022 2.40972 0
M  V30 11115 H 1044.27 4.30039 5.2352 0
M  V30 11116 H 1045.21 5.56288 4.3812 0
M  V30 11117 H 1045.62 3.83824 4.13931 0
M  V30 11118 N 1045.02 -0.694098 1.41492 0
M  V30 11119 C 1045.93 -1.83778 1.45818 0
M  V30 11120 C 1046.94 -1.70471 0.348639 0
M  V30 11121 O 1048.12 -1.92361 0.596588 0
M  V30 11122 C 1045.18 -3.19771 1.33967 0
M  V30 11123 C 1044.24 -3.45175 2.5525 0
M  V30 11124 C 1043.48 -4.74681 2.43955 0
M  V30 11125 O 1043.7 -5.51268 1.46491 0
M  V30 11126 O 1042.63 -5.00901 3.33739 0
M  V30 11127 H 1046.46 -1.83084 2.42309 0
M  V30 11128 H 1044.05 -0.847349 1.23046 0
M  V30 11129 H 1045.93 -4.00961 1.29648 0
M  V30 11130 H 1044.6 -3.21145 0.405926 0
M  V30 11131 H 1043.51 -2.6391 2.65146 0
M  V30 11132 H 1044.84 -3.48617 3.47458 0
M  V30 11133 N 1046.49 -1.27344 -0.928501 0
M  V30 11134 C 1047.74 -1.14813 -1.67897 0
M  V30 11135 C 1048.1 0.303129 -1.89997 0
M  V30 11136 O 1047.39 1.21844 -1.47867 0
M  V30 11137 C 1047.58 -1.86439 -3.04918 0
M  V30 11138 C 1047.41 -3.38381 -2.96189 0
M  V30 11139 C 1046.18 -4.07698 -2.98514 0
M  V30 11140 C 1048.38 -4.3437 -2.75367 0
M  V30 11141 N 1046.36 -5.46215 -2.80218 0
M  V30 11142 C 1047.73 -5.60149 -2.65768 0
M  V30 11143 C 1049.79 -4.2447 -2.60249 0
M  V30 11144 C 1048.49 -6.77157 -2.42593 0
M  V30 11145 C 1050.52 -5.41198 -2.3845 0
M  V30 11146 C 1049.88 -6.65933 -2.29593 0
M  V30 11147 H 1045.98 -0.47499 -0.621215 0
M  V30 11148 H 1048.56 -1.60802 -1.09776 0
M  V30 11149 H 1046.73 -1.42907 -3.61154 0
M  V30 11150 H 1048.46 -1.6642 -3.68899 0
M  V30 11151 H 1045.22 -3.59158 -3.08711 0
M  V30 11152 H 1045.64 -6.18985 -2.74203 0
M  V30 11153 H 1050.29 -3.28756 -2.65856 0
M  V30 11154 H 1048 -7.72955 -2.35725 0
M  V30 11155 H 1051.59 -5.35417 -2.27639 0
M  V30 11156 H 1050.47 -7.54732 -2.12952 0
M  V30 11157 N 1047.97 1.13488 -1.09353 0
M  V30 11158 C 1049.22 1.84383 -0.827488 0
M  V30 11159 C 1049.54 1.83892 0.648745 0
M  V30 11160 O 1048.81 1.29415 1.47066 0
M  V30 11161 H 1047.39 0.682732 -0.303127 0
M  V30 11162 H 1050.05 1.37477 -1.38152 0
M  V30 11163 H 1049.15 2.88919 -1.18035 0
M  V30 11164 N 1049.45 0.880621 1.30701 0
M  V30 11165 C 1050.41 0.349087 2.26526 0
M  V30 11166 C 1051.41 -0.505973 1.52632 0
M  V30 11167 O 1052.6 -0.313751 1.71351 0
M  V30 11168 C 1049.74 -0.503023 3.37168 0
M  V30 11169 H 1050.93 1.19516 2.75056 0
M  V30 11170 H 1048.48 0.657107 1.41816 0
M  V30 11171 H 1049.22 -1.36986 2.93948 0
M  V30 11172 H 1049 0.109389 3.91947 0
M  V30 11173 H 1050.49 -0.866845 4.08504 0
M  V30 11174 N 1050.93 -1.4397 0.641131 0
M  V30 11175 C 1052.18 -2.01946 0.149629 0
M  V30 11176 C 1052.5 -1.50496 -1.23212 0
M  V30 11177 O 1051.76 -0.683453 -1.83378 0
M  V30 11178 C 1052.06 -3.5727 0.0963368 0
M  V30 11179 C 1051.72 -4.28016 1.4182 0
M  V30 11180 C 1050.39 -4.47059 1.78021 0
M  V30 11181 C 1052.74 -4.68183 2.29028 0
M  V30 11182 C 1050.07 -5.03532 3.01119 0
M  V30 11183 C 1052.42 -5.26019 3.51406 0
M  V30 11184 C 1051.08 -5.4328 3.87818 0
M  V30 11185 H 1050.35 -0.738974 0.0547531 0
M  V30 11186 H 1053 -1.72605 0.829436 0
M  V30 11187 H 1051.3 -3.86083 -0.666879 0
M  V30 11188 H 1053 -3.99871 -0.300635 0
M  V30 11189 H 1049.59 -4.13531 1.12651 0
M  V30 11190 H 1053.78 -4.53175 2.02353 0
M  V30 11191 H 1049.03 -5.15082 3.29395 0
M  V30 11192 H 1053.21 -5.56092 4.19208 0
M  V30 11193 H 1050.83 -5.86805 4.83284 0
M  V30 11194 N 1052.41 -0.382291 -1.52893 0
M  V30 11195 C 1053.66 0.201734 -2.01091 0
M  V30 11196 C 1053.98 1.47905 -1.2708 0
M  V30 11197 O 1053.25 1.92002 -0.38883 0
M  V30 11198 H 1051.83 0.0775373 -0.742965 0
M  V30 11199 H 1054.49 -0.512369 -1.88045 0
M  V30 11200 H 1053.58 0.416919 -3.09303 0
M  V30 11201 N 1053.89 1.57202 -0.111913 0
M  V30 11202 C 1055.16 1.86459 0.590972 0
M  V30 11203 C 1055.54 1.01182 1.85271 0
M  V30 11204 O 1054.89 0.0887891 2.28327 0
M  V30 11205 C 1055.1 3.37455 0.890225 0
M  V30 11206 C 1056.45 4.05895 1.24638 0
M  V30 11207 O 1057.47 3.42433 0.980713 0
M  V30 11208 O 1056.33 5.17903 1.74466 0
M  V30 11209 H 1053.43 0.771652 0.297459 0
M  V30 11210 H 1055.97 1.69072 -0.145882 0
M  V30 11211 H 1054.74 3.913 -0.00419012 0
M  V30 11212 H 1054.37 3.60248 1.68248 0
M  V30 11213 N 1055.36 -0.161842 1.56767 0
M  V30 11214 C 1056.31 -1.21948 1.98069 0
M  V30 11215 C 1057.31 -1.45303 0.870835 0
M  V30 11216 O 1058.51 -1.45771 1.05598 0
M  V30 11217 H 1054.89 -0.410145 0.630306 0
M  V30 11218 H 1056.86 -0.844336 2.86205 0
M  V30 11219 C 1055.61 -2.549 2.36477 0
M  V30 11220 H 1054.93 -2.37755 3.21423 0
M  V30 11221 H 1056.37 -3.27568 2.69212 0
M  V30 11222 C 1054.83 -3.14353 1.21176 0
M  V30 11223 O 1055.36 -3.98519 0.504499 0
M  V30 11224 N 1053.56 -2.73582 0.979855 0
M  V30 11225 H 1053.11 -2.05239 1.55675 0
M  V30 11226 H 1053.07 -3.13696 0.21025 0
M  V30 11227 N 1056.84 -1.516 -0.430713 0
M  V30 11228 C 1058.09 -1.64271 -1.17726 0
M  V30 11229 C 1058.41 -0.364406 -1.91565 0
M  V30 11230 O 1057.68 0.619991 -1.8583 0
M  V30 11231 H 1056.26 -0.605432 -0.437562 0
M  V30 11232 H 1058.92 -1.88557 -0.493166 0
M  V30 11233 H 1058.02 -2.47355 -1.90321 0
M  V30 11234 N 1058.32 0.686584 -1.41858 0
M  V30 11235 C 1059.56 1.45879 -1.43173 0
M  V30 11236 C 1059.92 1.91953 -0.0423059 0
M  V30 11237 O 1061.12 2.68709 0.069783 0
M  V30 11238 C 1059.4 2.63196 -2.41791 0
M  V30 11239 S 1060.95 3.52212 -2.6171 0
M  V30 11240 H 1057.77 0.498391 -0.507077 0
M  V30 11241 H 1060.37 0.800313 -1.78368 0
M  V30 11242 H 1059.08 2.27566 -3.41529 0
M  V30 11243 H 1058.61 3.33928 -2.0798 0
M  V30 11244 H 1060.62 4.58744 -1.89125 0
M  V30 11245 N 1059.8 1.27835 0.921735 0
M  V30 11246 C 1060.73 1.136 2.04003 0
M  V30 11247 C 1061.71 0.0358756 1.70062 0
M  V30 11248 O 1062.89 0.211438 1.93046 0
M  V30 11249 C 1060.02 0.788697 3.38226 0
M  V30 11250 C 1058.98 1.84272 3.863 0
M  V30 11251 C 1058.3 1.34923 5.17397 0
M  V30 11252 C 1059.6 3.24788 4.09035 0
M  V30 11253 H 1061.3 2.07149 2.1617 0
M  V30 11254 H 1058.84 0.997349 1.0387 0
M  V30 11255 H 1060.8 0.675911 4.15944 0
M  V30 11256 H 1059.52 -0.182499 3.2609 0
M  V30 11257 H 1058.18 1.94451 3.1078 0
M  V30 11258 H 1057.83 0.367328 5.01657 0
M  V30 11259 H 1057.53 2.05397 5.50532 0
M  V30 11260 H 1059.05 1.24951 5.97678 0
M  V30 11261 H 1060.47 3.17575 4.77304 0
M  V30 11262 H 1058.86 3.93025 4.53488 0
M  V30 11263 H 1059.93 3.69398 3.14122 0
M  V30 11264 N 1061.28 -1.12907 1.09954 0
M  V30 11265 C 1062.55 -1.80602 0.751148 0
M  V30 11266 C 1062.93 -1.96826 -0.763077 0
M  V30 11267 O 1062.28 -1.54066 -1.68749 0
M  V30 11268 C 1062.49 -3.15289 1.49646 0
M  V30 11269 C 1063.84 -3.9056 1.66578 0
M  V30 11270 O 1064.86 -3.24929 1.45943 0
M  V30 11271 O 1063.72 -5.08292 2.00752 0
M  V30 11272 H 1060.82 -0.781529 0.270446 0
M  V30 11273 H 1063.36 -1.19786 1.20206 0
M  V30 11274 H 1062.13 -2.9874 2.52725 0
M  V30 11275 H 1061.76 -3.83809 1.03808 0
M  V30 11276 N 1062.75 -0.88754 -1.30232 0
M  V30 11277 C 1064.03 -0.427249 -1.90877 0
M  V30 11278 C 1064.41 1.0922 -1.80649 0
M  V30 11279 O 1063.76 1.92866 -1.22536 0
M  V30 11280 C 1063.97 -0.928219 -3.3643 0
M  V30 11281 C 1065.32 -0.964706 -4.13496 0
M  V30 11282 O 1066.34 -0.875057 -3.45284 0
M  V30 11283 O 1065.2 -1.09754 -5.35366 0
M  V30 11284 H 1062.29 -0.131107 -0.816541 0
M  V30 11285 H 1064.84 -0.976609 -1.38782 0
M  V30 11286 H 1063.61 -1.97209 -3.37971 0
M  V30 11287 H 1063.23 -0.358169 -3.95983 0
M  V30 11288 N 1064.23 1.43628 -0.648757 0
M  V30 11289 C 1065.48 2.01083 -0.157692 0
M  V30 11290 C 1065.79 1.51756 1.23408 0
M  V30 11291 O 1067 2.01455 1.82012 0
M  V30 11292 C 1065.46 3.59157 -0.231118 0
M  V30 11293 C 1065.06 4.17478 -1.6253 0
M  V30 11294 C 1066.81 4.24016 0.202573 0
M  V30 11295 C 1064.72 5.67832 -1.6529 0
M  V30 11296 H 1063.65 0.751977 -0.0551897 0
M  V30 11297 H 1066.3 1.64648 -0.810139 0
M  V30 11298 H 1064.68 3.92972 0.488755 0
M  V30 11299 H 1065.85 3.9517 -2.37017 0
M  V30 11300 H 1064.17 3.64973 -2.00459 0
M  V30 11301 H 1066.76 5.34319 0.20174 0
M  V30 11302 H 1067.11 3.97616 1.23319 0
M  V30 11303 H 1067.64 3.95068 -0.465398 0
M  V30 11304 H 1064.38 5.98994 -2.66246 0
M  V30 11305 H 1063.9 5.92209 -0.951217 0
M  V30 11306 H 1065.58 6.3179 -1.39465 0
M  V30 11307 N 1065.71 0.390394 1.52688 0
M  V30 11308 C 1067.13 0.0404028 1.59549 0
M  V30 11309 C 1067.33 -1.44503 1.40432 0
M  V30 11310 O 1066.38 -2.20968 1.22187 0
M  V30 11311 C 1067.7 0.518561 2.96195 0
M  V30 11312 C 1069.24 0.474913 3.09376 0
M  V30 11313 C 1069.72 0.929278 4.48473 0
M  V30 11314 N 1071.21 0.885335 4.5466 0
M  V30 11315 C 1071.94 1.2083 5.60524 0
M  V30 11316 N 1071.44 1.6018 6.74028 0
M  V30 11317 N 1073.23 1.12949 5.50635 0
M  V30 11318 H 1065.38 1.35743 1.63363 0
M  V30 11319 H 1067.65 0.556453 0.767505 0
M  V30 11320 H 1067.35 1.55606 3.15404 0
M  V30 11321 H 1067.23 -0.081779 3.77111 0
M  V30 11322 H 1069.61 -0.553503 2.89863 0
M  V30 11323 H 1069.7 1.11107 2.3041 0
M  V30 11324 H 1069.34 1.95593 4.68728 0
M  V30 11325 H 1069.27 0.270121 5.25907 0
M  V30 11326 H 1071.76 0.595787 3.73174 0
M  V30 11327 H 1072.07 1.83184 7.50775 0
M  V30 11328 H 1070.42 1.64067 6.75357 0
M  V30 11329 H 1073.61 0.821074 4.60843 0
M  V30 11330 H 1073.78 1.3845 6.33037 0
M  V30 11331 N 1067.19 -1.57141 0.120249 0
M  V30 11332 C 1068.42 -1.99589 -0.545136 0
M  V30 11333 C 1068.83 -0.999951 -1.60145 0
M  V30 11334 O 1068.19 0.00698897 -1.82499 0
M  V30 11335 C 1068.24 -3.42038 -1.17014 0
M  V30 11336 O 1067.96 -4.37822 -0.156044 0
M  V30 11337 C 1069.46 -3.99625 -1.91872 0
M  V30 11338 H 1066.68 -0.655318 -0.144222 0
M  V30 11339 H 1069.23 -2.0345 0.206955 0
M  V30 11340 H 1067.38 -3.39113 -1.873 0
M  V30 11341 H 1067.79 -5.20937 -0.610317 0
M  V30 11342 H 1069.27 -5.01374 -2.30928 0
M  V30 11343 H 1069.75 -3.38836 -2.7944 0
M  V30 11344 H 1070.35 -4.061 -1.26345 0
M  V30 11345 N 1068.67 0.153526 -1.5685 0
M  V30 11346 C 1069.62 1.19478 -1.94188 0
M  V30 11347 C 1070.6 1.38889 -0.812329 0
M  V30 11348 O 1071.79 1.4056 -1.07572 0
M  V30 11349 C 1068.92 2.53 -2.32047 0
M  V30 11350 C 1068.01 2.37209 -3.51557 0
M  V30 11351 N 1068.4 1.91162 -4.68285 0
M  V30 11352 C 1066.7 2.67981 -3.56514 0
M  V30 11353 C 1067.4 1.88259 -5.50394 0
M  V30 11354 N 1066.37 2.31329 -4.91923 0
M  V30 11355 H 1070.18 0.830748 -2.81915 0
M  V30 11356 H 1067.69 0.361643 -1.58322 0
M  V30 11357 H 1069.69 3.28264 -2.56998 0
M  V30 11358 H 1068.35 2.90191 -1.45669 0
M  V30 11359 H 1069.36 1.61227 -4.92165 0
M  V30 11360 H 1066.03 3.0909 -2.80659 0
M  V30 11361 H 1067.42 1.54205 -6.53965 0
M  V30 11362 N 1070.14 1.51827 0.422667 0
M  V30 11363 C 1071.37 1.68803 1.19117 0
M  V30 11364 C 1071.78 0.391228 1.85111 0
M  V30 11365 O 1071.13 -0.64148 1.72136 0
M  V30 11366 C 1071.19 2.75767 2.30636 0
M  V30 11367 C 1070.85 4.17929 1.8489 0
M  V30 11368 C 1071.85 5.02223 1.34416 0
M  V30 11369 C 1069.53 4.641 1.92136 0
M  V30 11370 C 1071.53 6.30756 0.917925 0
M  V30 11371 C 1069.21 5.92626 1.49123 0
M  V30 11372 C 1070.21 6.75782 0.990352 0
M  V30 11373 O 1069.9 8.01902 0.566386 0
M  V30 11374 H 1069.63 0.569303 0.364514 0
M  V30 11375 H 1072.19 1.9909 0.505208 0
M  V30 11376 H 1070.42 2.40827 3.02555 0
M  V30 11377 H 1072.11 2.81476 2.92448 0
M  V30 11378 H 1072.87 4.67749 1.28202 0
M  V30 11379 H 1068.75 3.99488 2.30066 0
M  V30 11380 H 1072.29 6.95612 0.52628 0
M  V30 11381 H 1068.19 6.26611 1.55012 0
M  V30 11382 H 1068.96 8.15579 0.690918 0
M  V30 11383 N 1071.62 -0.679052 1.4222 0
M  V30 11384 C 1072.9 -1.43473 1.32947 0
M  V30 11385 C 1073.28 -2.11071 -0.0351689 0
M  V30 11386 O 1072.63 -2.02925 -1.05042 0
M  V30 11387 C 1072.84 -2.44065 2.49466 0
M  V30 11388 C 1074.19 -3.08834 2.91387 0
M  V30 11389 O 1075.21 -2.54392 2.49325 0
M  V30 11390 O 1074.07 -4.07478 3.64175 0
M  V30 11391 H 1071.16 -0.639743 0.524078 0
M  V30 11392 H 1073.71 -0.708134 1.54219 0
M  V30 11393 H 1072.48 -1.92884 3.40457 0
M  V30 11394 H 1072.1 -3.24212 2.30158 0
M  V30 11395 N 1073.1 -1.28322 -0.914942 0
M  V30 11396 C 1074.52 -1.06003 -1.19313 0
M  V30 11397 C 1074.72 0.198366 -2.00521 0
M  V30 11398 O 1073.77 0.900364 -2.35902 0
M  V30 11399 C 1075.09 -2.30684 -1.92887 0
M  V30 11400 C 1076.63 -2.35851 -2.05775 0
M  V30 11401 C 1077.11 -3.60295 -2.82757 0
M  V30 11402 N 1078.6 -3.60928 -2.9032 0
M  V30 11403 C 1079.33 -4.53894 -3.50383 0
M  V30 11404 N 1078.83 -5.57178 -4.11734 0
M  V30 11405 N 1080.62 -4.41492 -3.4791 0
M  V30 11406 H 1072.77 -2.09104 -0.372735 0
M  V30 11407 H 1075.04 -0.920285 -0.227552 0
M  V30 11408 H 1074.74 -3.22355 -1.40643 0
M  V30 11409 H 1074.62 -2.37003 -2.93444 0
M  V30 11410 H 1077 -1.44678 -2.57201 0
M  V30 11411 H 1077.09 -2.33526 -1.04399 0
M  V30 11412 H 1076.73 -4.51811 -2.32011 0
M  V30 11413 H 1076.66 -3.59873 -3.84446 0
M  V30 11414 H 1079.15 -2.8624 -2.46729 0
M  V30 11415 H 1079.46 -6.24261 -4.55541 0
M  V30 11416 H 1077.81 -5.61005 -4.10242 0
M  V30 11417 H 1081 -3.60005 -2.99189 0
M  V30 11418 H 1081.17 -5.14132 -3.94427 0
M  V30 11419 N 1074.58 1.12322 -1.10551 0
M  V30 11420 C 1075.51 2.20176 -0.777486 0
M  V30 11421 C 1076.49 1.68252 0.250069 0
M  V30 11422 O 1077.67 1.93856 0.115574 0
M  V30 11423 C 1074.8 3.46666 -0.209822 0
M  V30 11424 C 1073.76 4.11749 -1.1682 0
M  V30 11425 C 1073.08 5.32703 -0.461684 0
M  V30 11426 C 1074.38 4.57746 -2.51527 0
M  V30 11427 H 1076.08 2.47872 -1.67928 0
M  V30 11428 H 1073.62 1.19136 -0.808863 0
M  V30 11429 H 1075.58 4.21388 0.0318068 0
M  V30 11430 H 1074.3 3.18401 0.727226 0
M  V30 11431 H 1072.96 3.39009 -1.3953 0
M  V30 11432 H 1072.61 5.00706 0.479875 0
M  V30 11433 H 1072.31 5.77197 -1.1008 0
M  V30 11434 H 1073.83 6.10172 -0.228629 0
M  V30 11435 H 1075.25 5.23835 -2.32958 0
M  V30 11436 H 1073.64 5.13021 -3.11335 0
M  V30 11437 H 1074.71 3.71667 -3.11435 0
M  V30 11438 N 1076.06 0.894434 1.2976 0
M  V30 11439 C 1077.3 0.518435 1.96061 0
M  V30 11440 C 1077.64 -0.931882 1.70381 0
M  V30 11441 O 1076.91 -1.65988 1.01381 0
M  V30 11442 C 1077.19 0.80519 3.50982 0
M  V30 11443 C 1077.05 2.30683 3.86142 0
M  V30 11444 C 1078.37 0.288096 4.39156 0
M  V30 11445 H 1075.48 0.18983 0.712133 0
M  V30 11446 H 1078.13 1.12016 1.53468 0
M  V30 11447 H 1076.28 0.293071 3.87393 0
M  V30 11448 H 1077.95 2.88808 3.59705 0
M  V30 11449 H 1076.19 2.76968 3.33873 0
M  V30 11450 H 1076.86 2.45805 4.94251 0
M  V30 11451 H 1079.34 0.726547 4.09708 0
M  V30 11452 H 1078.21 0.517985 5.4645 0
M  V30 11453 H 1078.48 -0.811018 4.34597 0
M  V30 11454 N 1077.53 -1.43282 0.656365 0
M  V30 11455 C 1078.81 -1.9534 0.100816 0
M  V30 11456 C 1079.19 -1.59755 -1.37992 0
M  V30 11457 O 1078.54 -0.884264 -2.10697 0
M  V30 11458 C 1078.75 -3.47237 0.35038 0
M  V30 11459 C 1080.1 -4.23822 0.257001 0
M  V30 11460 O 1081.12 -3.55073 0.283111 0
M  V30 11461 O 1079.98 -5.46192 0.183397 0
M  V30 11462 H 1077.07 -0.826963 -0.00780287 0
M  V30 11463 H 1079.62 -1.53205 0.72982 0
M  V30 11464 H 1078.39 -3.66276 1.37685 0
M  V30 11465 H 1078.02 -3.96378 -0.311539 0
M  V30 11466 N 1079.01 -0.398486 -1.52479 0
M  V30 11467 C 1079.92 0.439328 -2.3045 0
M  V30 11468 C 1080.94 1.06322 -1.37738 0
M  V30 11469 O 1082.12 1.06704 -1.7081 0
M  V30 11470 C 1079.18 1.54655 -3.10294 0
M  V30 11471 C 1078.24 0.946824 -4.18729 0
M  V30 11472 C 1077.47 2.00129 -4.94757 0
M  V30 11473 O 1077.7 3.2178 -4.70971 0
M  V30 11474 O 1076.63 1.61345 -5.79872 0
M  V30 11475 H 1080.46 -0.196118 -3.03066 0
M  V30 11476 H 1078.04 -0.161961 -1.4852 0
M  V30 11477 H 1079.92 2.18958 -3.60049 0
M  V30 11478 H 1078.6 2.1668 -2.40482 0
M  V30 11479 H 1077.51 0.266802 -3.73147 0
M  V30 11480 H 1078.84 0.370664 -4.90802 0
M  V30 11481 N 1080.49 1.57075 -0.12858 0
M  V30 11482 C 1081.72 1.99586 0.533769 0
M  V30 11483 C 1082.13 1.00737 1.60152 0
M  V30 11484 O 1081.47 -0.00647783 1.83699 0
M  V30 11485 C 1081.53 3.3852 1.21014 0
M  V30 11486 C 1081.2 4.56084 0.289191 0
M  V30 11487 C 1082.2 5.17717 -0.475963 0
M  V30 11488 C 1079.88 5.01912 0.197467 0
M  V30 11489 C 1081.87 6.23572 -1.32048 0
M  V30 11490 C 1079.56 6.07626 -0.65067 0
M  V30 11491 C 1080.56 6.68324 -1.40826 0
M  V30 11492 O 1080.25 7.71995 -2.2423 0
M  V30 11493 H 1079.98 0.660245 0.145096 0
M  V30 11494 H 1082.53 2.04276 -0.214615 0
M  V30 11495 H 1080.76 3.30613 2.00579 0
M  V30 11496 H 1082.45 3.65258 1.77036 0
M  V30 11497 H 1083.22 4.83221 -0.415027 0
M  V30 11498 H 1079.1 4.54407 0.776853 0
M  V30 11499 H 1082.64 6.70878 -1.91228 0
M  V30 11500 H 1078.54 6.41551 -0.712965 0
M  V30 11501 H 1079.31 7.89135 -2.17276 0
M  V30 11502 N 1081.97 -0.145205 1.5693 0
M  V30 11503 C 1083.19 -0.876386 1.87974 0
M  V30 11504 C 1083.62 -1.73866 0.717795 0
M  V30 11505 O 1082.98 -1.78224 -0.332551 0
M  V30 11506 C 1083.03 -1.70746 3.17613 0
M  V30 11507 O 1082.13 -2.81188 3.01674 0
M  V30 11508 H 1081.47 -0.243987 0.617549 0
M  V30 11509 H 1084 -0.135482 2.04151 0
M  V30 11510 H 1084.01 -2.1021 3.49679 0
M  V30 11511 H 1082.69 -1.07429 4.01786 0
M  V30 11512 H 1081.26 -2.45117 2.81019 0
M  V30 11513 N 1083.45 -1.52049 -0.414609 0
M  V30 11514 C 1084.38 -1.77956 -1.51175 0
M  V30 11515 C 1085.36 -0.630282 -1.57992 0
M  V30 11516 O 1086.54 -0.875324 -1.73354 0
M  V30 11517 C 1083.67 -1.92527 -2.89051 0
M  V30 11518 C 1082.63 -3.08096 -2.97087 0
M  V30 11519 C 1081.95 -3.07882 -4.37164 0
M  V30 11520 C 1083.25 -4.47656 -2.69075 0
M  V30 11521 H 1084.95 -2.69827 -1.29746 0
M  V30 11522 H 1082.49 -1.29839 -0.62273 0
M  V30 11523 H 1084.45 -2.09234 -3.65786 0
M  V30 11524 H 1083.17 -0.973235 -3.11762 0
M  V30 11525 H 1081.83 -2.91131 -2.22797 0
M  V30 11526 H 1081.48 -2.10411 -4.56877 0
M  V30 11527 H 1081.18 -3.85501 -4.43467 0
M  V30 11528 H 1082.7 -3.26712 -5.15841 0
M  V30 11529 H 1084.12 -4.64855 -3.35534 0
M  V30 11530 H 1082.51 -5.27151 -2.8676 0
M  V30 11531 H 1083.58 -4.56129 -1.64544 0
M  V30 11532 N 1084.93 0.6715 -1.42579 0
M  V30 11533 C 1085.87 1.80623 -1.46554 0
M  V30 11534 C 1086.87 1.65934 -0.340932 0
M  V30 11535 O 1088.07 1.72502 -0.514098 0
M  V30 11536 H 1084.45 0.595619 -0.459067 0
M  V30 11537 H 1086.42 1.74388 -2.42139 0
M  V30 11538 C 1085.17 3.18794 -1.38801 0
M  V30 11539 H 1084.49 3.30725 -2.24635 0
M  V30 11540 H 1085.93 3.98201 -1.45645 0
M  V30 11541 C 1084.39 3.36742 -0.103219 0
M  V30 11542 O 1084.92 3.92761 0.842715 0
M  V30 11543 N 1083.13 2.90594 -0.0193034 0
M  V30 11544 H 1082.67 2.45192 -0.78986 0
M  V30 11545 H 1082.63 3.0298 0.839686 0
M  V30 11546 N 1086.4 1.28806 0.908124 0
M  V30 11547 C 1087.37 1.13228 1.99279 0
M  V30 11548 C 1088.37 0.0702456 1.60646 0
M  V30 11549 O 1089.56 0.316494 1.71301 0
M  V30 11550 C 1086.69 0.729629 3.33 0
M  V30 11551 H 1087.88 2.09566 2.14528 0
M  V30 11552 H 1085.43 1.11872 1.09153 0
M  V30 11553 H 1086.17 -0.234268 3.23453 0
M  V30 11554 H 1085.95 1.49688 3.62403 0
M  V30 11555 H 1087.44 0.643449 4.12613 0
M  V30 11556 N 1087.88 -1.11734 1.11145 0
M  V30 11557 C 1089.13 -1.83043 0.856717 0
M  V30 11558 C 1089.45 -1.84901 -0.619407 0
M  V30 11559 O 1088.72 -1.31738 -1.44989 0
M  V30 11560 H 1087.3 -0.677823 0.31395 0
M  V30 11561 H 1089.96 -1.35262 1.40322 0
M  V30 11562 H 1089.06 -2.87005 1.22616 0
M  V30 11563 N 1089.36 -0.901303 -1.29284 0
M  V30 11564 C 1090.31 -0.378666 -2.27672 0
M  V30 11565 C 1091.28 0.540102 -1.57074 0
M  V30 11566 O 1092.46 0.464997 -1.85047 0
M  V30 11567 C 1089.6 0.38635 -3.42931 0
M  V30 11568 C 1088.71 -0.563496 -4.28309 0
M  V30 11569 C 1087.85 0.218731 -5.30749 0
M  V30 11570 C 1086.89 -0.725536 -6.07785 0
M  V30 11571 N 1086.03 0.0223854 -7.02096 0
M  V30 11572 H 1090.87 -1.22277 -2.71758 0
M  V30 11573 H 1088.4 -0.614302 -1.33659 0
M  V30 11574 H 1090.36 0.845967 -4.08533 0
M  V30 11575 H 1088.99 1.1949 -2.9987 0
M  V30 11576 H 1088.04 -1.14163 -3.62865 0
M  V30 11577 H 1089.35 -1.28623 -4.81931 0
M  V30 11578 H 1088.51 0.739473 -6.02177 0
M  V30 11579 H 1087.25 0.97459 -4.77863 0
M  V30 11580 H 1086.25 -1.25776 -5.3522 0
M  V30 11581 H 1087.48 -1.48075 -6.6276 0
M  V30 11582 H 1085.42 0.760482 -6.51577 0
M  V30 11583 H 1085.34 -0.640408 -7.53283 0
M  V30 11584 H 1086.61 0.523339 -7.77741 0
M  V30 11585 N 1090.84 1.42931 -0.663954 0
M  V30 11586 C 1091.77 2.29122 0.0598878 0
M  V30 11587 C 1092.78 1.43094 0.776404 0
M  V30 11588 O 1093.97 1.66923 0.63237 0
M  V30 11589 C 1091.07 3.20268 1.10822 0
M  V30 11590 C 1090.24 4.34892 0.4677 0
M  V30 11591 C 1089.3 5.06836 1.41435 0
M  V30 11592 O 1088.33 5.61735 0.918818 0
M  V30 11593 N 1089.53 5.11336 2.74801 0
M  V30 11594 H 1092.3 2.91885 -0.679945 0
M  V30 11595 H 1089.86 1.53739 -0.507543 0
M  V30 11596 H 1091.85 3.65264 1.74255 0
M  V30 11597 H 1090.42 2.59031 1.7499 0
M  V30 11598 H 1089.64 3.92679 -0.34593 0
M  V30 11599 H 1090.93 5.08796 0.0210237 0
M  V30 11600 H 1090.33 4.68124 3.1761 0
M  V30 11601 H 1088.88 5.60013 3.33509 0
M  V30 11602 N 1092.32 0.406567 1.52266 0
M  V30 11603 C 1093.73 0.0573228 1.59497 0
M  V30 11604 C 1093.93 -1.43005 1.41957 0
M  V30 11605 O 1092.99 -2.19659 1.24523 0
M  V30 11606 C 1094.3 0.549947 2.95628 0
M  V30 11607 C 1095.85 0.5077 3.08855 0
M  V30 11608 C 1096.32 0.976792 4.47463 0
M  V30 11609 N 1097.81 0.933508 4.53696 0
M  V30 11610 C 1098.55 1.26769 5.59211 0
M  V30 11611 N 1098.05 1.6732 6.72292 0
M  V30 11612 N 1099.84 1.18782 5.49406 0
M  V30 11613 H 1091.99 1.37468 1.61914 0
M  V30 11614 H 1094.25 0.564562 0.76156 0
M  V30 11615 H 1093.96 1.58943 3.13736 0
M  V30 11616 H 1093.83 -0.0417767 3.77177 0
M  V30 11617 H 1096.22 -0.522728 2.90433 0
M  V30 11618 H 1096.3 1.13545 2.29219 0
M  V30 11619 H 1095.94 2.00554 4.66627 0
M  V30 11620 H 1095.87 0.325885 5.25591 0
M  V30 11621 H 1098.37 0.635333 3.72521 0
M  V30 11622 H 1098.68 1.91137 7.4879 0
M  V30 11623 H 1097.02 1.71221 6.73579 0
M  V30 11624 H 1100.21 0.869906 4.59946 0
M  V30 11625 H 1100.39 1.45157 6.31533 0
M  V30 11626 N 1093.79 -1.57004 0.136909 0
M  V30 11627 C 1095.02 -1.99866 -0.523177 0
M  V30 11628 C 1095.43 -1.01584 -1.59616 0
M  V30 11629 O 1094.78 -0.00326426 -1.837 0
M  V30 11630 C 1094.84 -3.39157 -1.19217 0
M  V30 11631 C 1094.5 -4.56231 -0.265 0
M  V30 11632 C 1095.5 -5.17457 0.503412 0
M  V30 11633 C 1093.18 -5.02009 -0.170846 0
M  V30 11634 C 1095.18 -6.22863 1.35353 0
M  V30 11635 C 1092.86 -6.07273 0.682884 0
M  V30 11636 C 1093.86 -6.67568 1.44369 0
M  V30 11637 O 1093.55 -7.70795 2.28321 0
M  V30 11638 H 1093.28 -0.661005 -0.141593 0
M  V30 11639 H 1095.84 -2.04159 0.225445 0
M  V30 11640 H 1094.07 -3.31672 -1.98823 0
M  V30 11641 H 1095.76 -3.66191 -1.75096 0
M  V30 11642 H 1096.52 -4.82994 0.440648 0
M  V30 11643 H 1092.4 -4.54813 -0.752744 0
M  V30 11644 H 1095.94 -6.69855 1.94783 0
M  V30 11645 H 1091.84 -6.41163 0.746978 0
M  V30 11646 H 1092.61 -7.87971 2.21458 0
M  V30 11647 N 1095.27 0.136881 -1.57004 0
M  V30 11648 C 1096.18 1.18793 -2.023 0
M  V30 11649 C 1097.2 1.46412 -0.94018 0
M  V30 11650 O 1098.37 1.57883 -1.2504 0
M  V30 11651 C 1095.44 2.49903 -2.40311 0
M  V30 11652 C 1094.5 2.29841 -3.6259 0
M  V30 11653 C 1093.73 3.54699 -3.98779 0
M  V30 11654 O 1093.96 4.61291 -3.3551 0
M  V30 11655 O 1092.89 3.46761 -4.91976 0
M  V30 11656 H 1096.72 0.833345 -2.92043 0
M  V30 11657 H 1094.3 0.346361 -1.4533 0
M  V30 11658 H 1096.18 3.27183 -2.65574 0
M  V30 11659 H 1094.86 2.84872 -1.5372 0
M  V30 11660 H 1093.77 1.50478 -3.42501 0
M  V30 11661 H 1095.1 1.99784 -4.4983 0
M  V30 11662 N 1096.75 1.52266 0.40654 0
M  V30 11663 C 1097.7 1.75794 1.4955 0
M  V30 11664 C 1098.67 0.600472 1.54866 0
M  V30 11665 O 1099.85 0.838305 1.71397 0
M  V30 11666 C 1096.99 1.91682 2.86971 0
M  V30 11667 C 1096.11 3.19337 2.90943 0
M  V30 11668 C 1095.24 3.25641 4.1968 0
M  V30 11669 C 1094.28 4.47488 4.17637 0
M  V30 11670 N 1093.42 4.51171 5.37949 0
M  V30 11671 H 1098.26 2.68733 1.28789 0
M  V30 11672 H 1095.79 1.33157 0.625102 0
M  V30 11673 H 1097.75 1.98877 3.66748 0
M  V30 11674 H 1096.38 1.02121 3.06221 0
M  V30 11675 H 1095.43 3.21301 2.03642 0
M  V30 11676 H 1096.75 4.09153 2.85299 0
M  V30 11677 H 1095.9 3.31922 5.07851 0
M  V30 11678 H 1094.64 2.33769 4.28023 0
M  V30 11679 H 1093.64 4.41351 3.27856 0
M  V30 11680 H 1094.87 5.40659 4.10932 0
M  V30 11681 H 1092.81 3.62182 5.46955 0
M  V30 11682 H 1092.73 5.34835 5.3431 0
M  V30 11683 H 1094 4.61685 6.28066 0
M  V30 11684 N 1098.23 -0.663929 1.42933 0
M  V30 11685 C 1099.16 -1.78876 1.41699 0
M  V30 11686 C 1100.14 -1.60174 0.27981 0
M  V30 11687 O 1101.32 -1.82502 0.471735 0
M  V30 11688 C 1098.45 -3.1603 1.2183 0
M  V30 11689 C 1097.5 -3.53457 2.38685 0
M  V30 11690 S 1098.33 -3.54648 4.01229 0
M  V30 11691 C 1099.49 -4.94477 3.83723 0
M  V30 11692 H 1099.72 -1.7965 2.36882 0
M  V30 11693 H 1097.25 -0.835596 1.29835 0
M  V30 11694 H 1099.21 -3.95193 1.11054 0
M  V30 11695 H 1097.87 -3.1283 0.282139 0
M  V30 11696 H 1097.06 -4.53178 2.20559 0
M  V30 11697 H 1096.67 -2.81681 2.46032 0
M  V30 11698 H 1098.96 -5.82851 3.45386 0
M  V30 11699 H 1099.9 -5.17652 4.83158 0
M  V30 11700 H 1100.31 -4.67507 3.16382 0
M  V30 11701 N 1099.71 -1.29285 -0.901281 0
M  V30 11702 C 1100.96 -1.16538 -1.64626 0
M  V30 11703 C 1101.27 0.282623 -1.93547 0
M  V30 11704 O 1102.47 0.531396 -2.66249 0
M  V30 11705 C 1100.93 -2.03809 -2.96631 0
M  V30 11706 C 1100.54 -3.53423 -2.75311 0
M  V30 11707 C 1102.28 -1.99782 -3.7455 0
M  V30 11708 C 1100.19 -4.32804 -4.03032 0
M  V30 11709 H 1099.12 -0.432561 -0.617581 0
M  V30 11710 H 1101.77 -1.53912 -0.999159 0
M  V30 11711 H 1100.15 -1.59302 -3.62545 0
M  V30 11712 H 1101.33 -4.05971 -2.18 0
M  V30 11713 H 1099.64 -3.59106 -2.10789 0
M  V30 11714 H 1102.24 -2.5635 -4.69243 0
M  V30 11715 H 1102.58 -0.97743 -4.04663 0
M  V30 11716 H 1103.11 -2.42324 -3.15474 0
M  V30 11717 H 1099.85 -5.35473 -3.78086 0
M  V30 11718 H 1099.37 -3.85025 -4.59909 0
M  V30 11719 H 1101.05 -4.43383 -4.71191 0
M  V30 11720 N 1101.18 1.11143 -1.11736 0
M  V30 11721 C 1102.41 1.87285 -0.891007 0
M  V30 11722 C 1102.83 1.79758 0.553971 0
M  V30 11723 O 1102.19 1.16221 1.39149 0
M  V30 11724 C 1102.24 3.33924 -1.36114 0
M  V30 11725 O 1101.34 4.08917 -0.534851 0
M  V30 11726 H 1100.69 0.581418 -0.320701 0
M  V30 11727 H 1103.22 1.40469 -1.4876 0
M  V30 11728 H 1103.23 3.84772 -1.35701 0
M  V30 11729 H 1101.9 3.38719 -2.41334 0
M  V30 11730 H 1100.48 3.67954 -0.605355 0
M  V30 11731 N 1102.66 0.908147 1.28804 0
M  V30 11732 C 1103.91 0.53734 1.94826 0
M  V30 11733 C 1104.23 -0.920962 1.71882 0
M  V30 11734 O 1103.5 -1.65043 1.05534 0
M  V30 11735 H 1102.08 0.195729 0.720902 0
M  V30 11736 H 1104.74 1.15628 1.56895 0
M  V30 11737 H 1103.84 0.727052 3.03513 0
M  V30 11738 N 1104.14 -1.42577 0.671525 0
M  V30 11739 C 1105.07 -2.28124 -0.0589347 0
M  V30 11740 C 1106.05 -1.40878 -0.811915 0
M  V30 11741 O 1107.24 -1.70318 -0.807717 0
M  V30 11742 C 1104.36 -3.20662 -1.09057 0
M  V30 11743 C 1103.41 -4.24291 -0.43355 0
M  V30 11744 S 1104.24 -5.29393 0.806442 0
M  V30 11745 C 1105.4 -6.25498 -0.224204 0
M  V30 11746 H 1105.63 -2.89728 0.666689 0
M  V30 11747 H 1103.16 -1.47359 0.460959 0
M  V30 11748 H 1105.12 -3.74516 -1.68071 0
M  V30 11749 H 1103.78 -2.582 -1.78862 0
M  V30 11750 H 1102.98 -4.89213 -1.21186 0
M  V30 11751 H 1102.58 -3.73908 0.0829136 0
M  V30 11752 H 1104.87 -6.68757 -1.08492 0
M  V30 11753 H 1105.81 -7.07023 0.390469 0
M  V30 11754 H 1106.22 -5.61633 -0.568214 0
M  V30 11755 N 1105.62 -0.414636 -1.52048 0
M  V30 11756 C 1106.85 0.158456 -2.05991 0
M  V30 11757 C 1107.26 1.38947 -1.28415 0
M  V30 11758 O 1106.6 1.80698 -0.330728 0
M  V30 11759 C 1106.66 0.568392 -3.54978 0
M  V30 11760 C 1106.33 -0.552654 -4.53646 0
M  V30 11761 C 1107.32 -1.41791 -5.00191 0
M  V30 11762 C 1105.01 -0.726917 -4.97012 0
M  V30 11763 C 1107 -2.44234 -5.88752 0
M  V30 11764 C 1104.69 -1.75464 -5.85368 0
M  V30 11765 C 1105.69 -2.61075 -6.31133 0
M  V30 11766 O 1105.37 -3.62087 -7.17738 0
M  V30 11767 H 1105.11 0.0214746 -0.675659 0
M  V30 11768 H 1107.66 -0.585825 -1.96869 0
M  V30 11769 H 1105.89 1.36504 -3.61806 0
M  V30 11770 H 1107.58 1.07003 -3.91542 0
M  V30 11771 H 1108.35 -1.29471 -4.67399 0
M  V30 11772 H 1104.22 -0.0701964 -4.60947 0
M  V30 11773 H 1107.77 -3.1109 -6.24395 0
M  V30 11774 H 1103.67 -1.87813 -6.17573 0
M  V30 11775 H 1104.43 -3.58396 -7.35863 0
M  V30 11776 N 1107.1 1.56929 -0.145233 0
M  V30 11777 C 1108.03 2.19685 0.791263 0
M  V30 11778 C 1109.01 1.14455 1.25833 0
M  V30 11779 O 1110.19 1.42791 1.31622 0
M  V30 11780 C 1107.32 2.81705 2.03124 0
M  V30 11781 C 1106.28 3.92746 1.70101 0
M  V30 11782 C 1105.6 4.41694 3.01347 0
M  V30 11783 C 1106.9 5.13606 0.949025 0
M  V30 11784 H 1108.6 2.98196 0.26825 0
M  V30 11785 H 1106.14 1.43434 0.127584 0
M  V30 11786 H 1108.1 3.24273 2.69119 0
M  V30 11787 H 1106.82 2.00523 2.57795 0
M  V30 11788 H 1105.48 3.50794 1.06486 0
M  V30 11789 H 1105.13 3.57336 3.54006 0
M  V30 11790 H 1104.83 5.1659 2.80016 0
M  V30 11791 H 1106.35 4.86931 3.68416 0
M  V30 11792 H 1107.76 5.53029 1.51102 0
M  V30 11793 H 1106.16 5.94252 0.835711 0
M  V30 11794 H 1107.23 4.84863 -0.0595631 0
M  V30 11795 N 1108.58 -0.128553 1.57075 0
M  V30 11796 C 1109.82 -0.836355 1.83982 0
M  V30 11797 C 1110.14 -1.80862 0.728971 0
M  V30 11798 O 1109.41 -1.94326 -0.247859 0
M  V30 11799 H 1107.99 -0.31185 0.678792 0
M  V30 11800 H 1110.66 -0.118153 1.94542 0
M  V30 11801 H 1109.75 -1.38741 2.79567 0
M  V30 11802 N 1110.05 -1.5248 -0.398459 0
M  V30 11803 C 1110.96 -1.79492 -1.51062 0
M  V30 11804 C 1111.98 -0.681101 -1.60116 0
M  V30 11805 O 1113.16 -0.967671 -1.7663 0
M  V30 11806 C 1110.22 -1.94958 -2.86692 0
M  V30 11807 C 1109.28 -3.1887 -2.87438 0
M  V30 11808 C 1108.51 -3.33588 -4.16599 0
M  V30 11809 O 1108.74 -2.53327 -5.11059 0
M  V30 11810 O 1107.67 -4.26795 -4.24416 0
M  V30 11811 H 1111.5 -2.73913 -1.31169 0
M  V30 11812 H 1109.08 -1.37455 -0.585372 0
M  V30 11813 H 1110.96 -2.06891 -3.67116 0
M  V30 11814 H 1109.64 -1.03726 -3.06631 0
M  V30 11815 H 1108.55 -3.12386 -2.0583 0
M  V30 11816 H 1109.88 -4.09917 -2.7245 0
M  V30 11817 N 1111.53 0.65634 -1.43283 0
M  V30 11818 C 1112.78 1.41212 -1.44021 0
M  V30 11819 C 1113.09 1.95485 -0.0669783 0
M  V30 11820 O 1114.3 2.71457 0.0481909 0
M  V30 11821 C 1112.76 2.55541 -2.5343 0
M  V30 11822 C 1112.36 2.07889 -3.96845 0
M  V30 11823 C 1114.11 3.3293 -2.63359 0
M  V30 11824 C 1112.01 3.19411 -4.97726 0
M  V30 11825 H 1110.94 0.530566 -0.535739 0
M  V30 11826 H 1113.6 0.708743 -1.6926 0
M  V30 11827 H 1111.98 3.28335 -2.21387 0
M  V30 11828 H 1113.15 1.42127 -4.38334 0
M  V30 11829 H 1111.47 1.43388 -3.90933 0
M  V30 11830 H 1114.06 4.1602 -3.35903 0
M  V30 11831 H 1114.41 3.80753 -1.68324 0
M  V30 11832 H 1114.94 2.67216 -2.94687 0
M  V30 11833 H 1111.68 2.7656 -5.94302 0
M  V30 11834 H 1111.2 3.83895 -4.60853 0
M  V30 11835 H 1112.88 3.84591 -5.20287 0
M  V30 11836 N 1113.01 1.29761 0.894412 0
M  V30 11837 C 1114.26 1.18214 1.64782 0
M  V30 11838 C 1114.59 -0.264635 1.92388 0
M  V30 11839 O 1113.86 -1.19051 1.53809 0
M  V30 11840 C 1114.15 2.00138 2.99361 0
M  V30 11841 C 1114 3.52984 2.78787 0
M  V30 11842 C 1115.32 1.83187 4.00163 0
M  V30 11843 H 1112.44 0.430802 0.597979 0
M  V30 11844 H 1115.08 1.59292 1.03566 0
M  V30 11845 H 1113.23 1.65233 3.51611 0
M  V30 11846 H 1114.9 3.97898 2.33398 0
M  V30 11847 H 1113.14 3.77642 2.13469 0
M  V30 11848 H 1113.82 4.05585 3.7444 0
M  V30 11849 H 1116.29 2.13684 3.57041 0
M  V30 11850 H 1115.17 2.42849 4.92255 0
M  V30 11851 H 1115.43 0.788469 4.35012 0
M  V30 11852 N 1114.49 -1.10549 1.12324 0
M  V30 11853 C 1115.9 -1.34508 0.85905 0
M  V30 11854 C 1116.1 -1.94901 -0.511468 0
M  V30 11855 O 1115.16 -2.18793 -1.2604 0
M  V30 11856 C 1116.47 -2.26788 1.97453 0
M  V30 11857 C 1118.02 -2.40328 2.00528 0
M  V30 11858 C 1118.5 -3.35936 3.11305 0
M  V30 11859 N 1119.99 -3.43504 3.1074 0
M  V30 11860 C 1120.72 -4.17449 3.93096 0
M  V30 11861 N 1120.22 -4.9429 4.85437 0
M  V30 11862 N 1122.01 -4.13055 3.81237 0
M  V30 11863 H 1114.16 -0.697171 2.00632 0
M  V30 11864 H 1116.42 -0.369548 0.873005 0
M  V30 11865 H 1116.13 -1.89621 2.96204 0
M  V30 11866 H 1116 -3.27086 1.87869 0
M  V30 11867 H 1118.39 -2.76765 1.02397 0
M  V30 11868 H 1118.47 -1.39849 2.14186 0
M  V30 11869 H 1118.12 -3.00225 4.09667 0
M  V30 11870 H 1118.05 -4.36291 2.94886 0
M  V30 11871 H 1120.54 -2.88702 2.43843 0
M  V30 11872 H 1120.85 -5.48109 5.4479 0
M  V30 11873 H 1119.2 -4.93419 4.89452 0
M  V30 11874 H 1122.39 -3.52117 3.08433 0
M  V30 11875 H 1122.56 -4.70424 4.45651 0
M  V30 11876 N 1115.97 -0.914965 -1.28321 0
M  V30 11877 C 1116.91 -0.394477 -2.29231 0
M  V30 11878 C 1117.91 0.514481 -1.61398 0
M  V30 11879 O 1119.11 0.395591 -1.75599 0
M  V30 11880 H 1115.49 -0.108969 -0.744063 0
M  V30 11881 H 1117.46 -1.25862 -2.70557 0
M  V30 11882 C 1116.21 0.349134 -3.45943 0
M  V30 11883 H 1115.53 -0.341087 -3.98342 0
M  V30 11884 H 1116.97 0.677944 -4.18545 0
M  V30 11885 C 1115.43 1.55747 -2.98738 0
M  V30 11886 O 1115.96 2.65654 -3.01315 0
M  V30 11887 N 1114.17 1.40488 -2.54384 0
M  V30 11888 H 1113.71 0.510716 -2.52487 0
M  V30 11889 H 1113.67 2.21464 -2.23161 0
M  V30 11890 N 1117.44 1.42219 -0.679077 0
M  V30 11891 C 1118.69 2.00703 -0.200309 0
M  V30 11892 C 1119.01 1.54339 1.20161 0
M  V30 11893 O 1120.21 2.0527 1.77698 0
M  V30 11894 C 1118.67 3.58586 -0.307248 0
M  V30 11895 C 1118.28 4.13937 -1.71349 0
M  V30 11896 C 1120.02 4.24351 0.112588 0
M  V30 11897 C 1117.93 5.64198 -1.77297 0
M  V30 11898 H 1116.86 0.750638 -0.0711279 0
M  V30 11899 H 1119.51 1.62893 -0.844881 0
M  V30 11900 H 1117.89 3.93921 0.40529 0
M  V30 11901 H 1119.06 3.90054 -2.45346 0
M  V30 11902 H 1117.38 3.60639 -2.08155 0
M  V30 11903 H 1119.98 5.34627 0.0883578 0
M  V30 11904 H 1120.32 4.00142 1.14857 0
M  V30 11905 H 1120.85 3.93992 -0.549093 0
M  V30 11906 H 1117.59 5.93211 -2.78892 0
M  V30 11907 H 1117.11 5.90058 -1.07662 0
M  V30 11908 H 1118.79 6.2869 -1.52835 0
M  V30 11909 N 1118.92 0.422693 1.51826 0
M  V30 11910 C 1119.85 -0.386913 2.30272 0
M  V30 11911 C 1120.83 -1.03411 1.35056 0
M  V30 11912 O 1122.02 -1.04055 1.6397 0
M  V30 11913 C 1119.15 -1.49645 3.13407 0
M  V30 11914 C 1118.1 -0.973532 4.16781 0
M  V30 11915 C 1117.43 -2.1777 4.88344 0
M  V30 11916 C 1118.73 -0.0181194 5.22297 0
M  V30 11917 H 1120.42 0.267697 2.98201 0
M  V30 11918 H 1117.97 0.130186 1.4341 0
M  V30 11919 H 1119.92 -2.06993 3.67059 0
M  V30 11920 H 1118.64 -2.17914 2.43272 0
M  V30 11921 H 1117.3 -0.42237 3.64159 0
M  V30 11922 H 1116.95 -2.84625 4.14726 0
M  V30 11923 H 1116.65 -1.83427 5.58237 0
M  V30 11924 H 1118.18 -2.75699 5.44814 0
M  V30 11925 H 1119.59 -0.500822 5.71108 0
M  V30 11926 H 1117.99 0.237163 5.99631 0
M  V30 11927 H 1119.06 0.923065 4.76033 0
M  V30 11928 N 1120.4 -1.5685 0.153553 0
M  V30 11929 C 1121.65 -1.95509 -0.495911 0
M  V30 11930 C 1121.96 -1.04129 -1.65579 0
M  V30 11931 O 1123.17 -1.32394 -2.37032 0
M  V30 11932 C 1121.62 -3.47579 -0.933622 0
M  V30 11933 C 1121.23 -4.47555 0.199684 0
M  V30 11934 C 1122.98 -3.95092 -1.55251 0
M  V30 11935 C 1120.88 -5.90843 -0.256663 0
M  V30 11936 H 1119.81 -0.729919 -0.189035 0
M  V30 11937 H 1122.46 -1.81938 0.238947 0
M  V30 11938 H 1120.85 -3.56506 -1.72394 0
M  V30 11939 H 1122.02 -4.50329 0.976744 0
M  V30 11940 H 1120.33 -4.09997 0.727394 0
M  V30 11941 H 1122.93 -4.99588 -1.90567 0
M  V30 11942 H 1123.27 -3.37015 -2.4439 0
M  V30 11943 H 1123.81 -3.89109 -0.826969 0
M  V30 11944 H 1120.55 -6.52753 0.599515 0
M  V30 11945 H 1120.07 -5.91414 -0.999458 0
M  V30 11946 H 1121.75 -6.43131 -0.70649 0
M  V30 11947 N 1121.88 0.120221 -1.57141 0
M  V30 11948 C 1123.15 0.858458 -1.75755 0
M  V30 11949 C 1123.53 1.98124 -0.728693 0
M  V30 11950 O 1122.88 2.27155 0.247573 0
M  V30 11951 C 1123.09 1.37627 -3.20718 0
M  V30 11952 C 1124.44 1.82909 -3.83183 0
M  V30 11953 O 1125.46 1.47309 -3.24312 0
M  V30 11954 O 1124.32 2.4865 -4.86657 0
M  V30 11955 H 1121.42 0.407583 -0.719587 0
M  V30 11956 H 1123.96 0.104057 -1.69381 0
M  V30 11957 H 1122.74 0.570651 -3.87117 0
M  V30 11958 H 1122.36 2.19341 -3.31625 0
M  V30 11959 N 1123.36 1.52689 0.390367 0
M  V30 11960 C 1124.6 1.67666 1.13553 0
M  V30 11961 C 1124.93 0.415903 1.90001 0
M  V30 11962 O 1124.19 -0.601664 1.86222 0
M  V30 11963 C 1124.49 2.86177 2.14096 0
M  V30 11964 C 1124.15 4.23671 1.54316 0
M  V30 11965 C 1122.81 4.61066 1.37739 0
M  V30 11966 C 1125.17 5.09278 1.1084 0
M  V30 11967 C 1122.49 5.81727 0.76231 0
M  V30 11968 C 1124.85 6.30562 0.507433 0
M  V30 11969 C 1123.51 6.66689 0.328945 0
M  V30 11970 H 1122.78 0.613533 0.415521 0
M  V30 11971 H 1125.43 1.8683 0.420339 0
M  V30 11972 H 1123.73 2.61424 2.9183 0
M  V30 11973 H 1125.43 2.9496 2.7166 0
M  V30 11974 H 1122.02 3.94214 1.68207 0
M  V30 11975 H 1126.2 4.80957 1.2245 0
M  V30 11976 H 1121.46 6.08327 0.612208 0
M  V30 11977 H 1125.63 6.96211 0.162248 0
M  V30 11978 H 1123.26 7.60052 -0.149748 0
M  V30 11979 N 1124.83 -0.648732 1.43629 0
M  V30 11980 C 1126.06 -1.4362 1.48932 0
M  V30 11981 C 1126.48 -1.88487 0.108599 0
M  V30 11982 O 1125.83 -1.59768 -0.882066 0
M  V30 11983 C 1125.89 -2.66822 2.43903 0
M  V30 11984 O 1125.61 -2.2383 3.76606 0
M  V30 11985 C 1127.11 -3.60134 2.58493 0
M  V30 11986 H 1124.33 -0.441055 0.505679 0
M  V30 11987 H 1126.87 -0.794936 1.88417 0
M  V30 11988 H 1125.03 -3.27079 2.07601 0
M  V30 11989 H 1125.44 -3.03575 4.27718 0
M  V30 11990 H 1126.91 -4.43234 3.29011 0
M  V30 11991 H 1127.39 -4.07779 1.63134 0
M  V30 11992 H 1128 -3.05756 2.95624 0
M  V30 11993 N 1126.31 -1.30234 -0.887518 0
M  V30 11994 C 1127.26 -1.164 -1.99298 0
M  V30 11995 C 1128.23 -0.0541536 -1.66012 0
M  V30 11996 O 1129.41 -0.223881 -1.89482 0
M  V30 11997 C 1126.55 -0.859169 -3.34234 0
M  V30 11998 C 1125.67 -2.05065 -3.80227 0
M  V30 11999 C 1124.8 -1.68413 -5.03796 0
M  V30 12000 C 1123.84 -2.8407 -5.4219 0
M  V30 12001 N 1122.98 -2.47732 -6.56942 0
M  V30 12002 H 1127.82 -2.10973 -2.10463 0
M  V30 12003 H 1125.36 -1.04969 -1.03053 0
M  V30 12004 H 1127.31 -0.663064 -4.11897 0
M  V30 12005 H 1125.94 0.0496808 -3.22762 0
M  V30 12006 H 1125 -2.35808 -2.98494 0
M  V30 12007 H 1126.31 -2.91688 -4.04623 0
M  V30 12008 H 1125.46 -1.45162 -5.89078 0
M  V30 12009 H 1124.2 -0.789553 -4.81266 0
M  V30 12010 H 1123.21 -3.0799 -4.55437 0
M  V30 12011 H 1124.43 -3.74211 -5.66695 0
M  V30 12012 H 1122.38 -1.60777 -6.35993 0
M  V30 12013 H 1122.29 -3.27887 -6.81195 0
M  V30 12014 H 1123.56 -2.27831 -7.45462 0
M  V30 12015 N 1127.79 1.09952 -1.12909 0
M  V30 12016 C 1128.74 2.16436 -0.801514 0
M  V30 12017 C 1129.71 1.64444 0.233976 0
M  V30 12018 O 1130.89 1.90497 0.10743 0
M  V30 12019 C 1128.03 3.4406 -0.267753 0
M  V30 12020 C 1127.15 4.09979 -1.36165 0
M  V30 12021 C 1126.28 5.25341 -0.786803 0
M  V30 12022 C 1125.32 5.83172 -1.85948 0
M  V30 12023 N 1124.46 6.89904 -1.30298 0
M  V30 12024 H 1129.3 2.43799 -1.71365 0
M  V30 12025 H 1126.83 1.19665 -0.855499 0
M  V30 12026 H 1128.79 4.17157 0.0598031 0
M  V30 12027 H 1127.42 3.17031 0.607528 0
M  V30 12028 H 1126.47 3.34801 -1.8059 0
M  V30 12029 H 1127.79 4.48999 -2.17259 0
M  V30 12030 H 1126.94 6.05312 -0.410211 0
M  V30 12031 H 1125.68 4.87669 0.055279 0
M  V30 12032 H 1124.68 5.01867 -2.24521 0
M  V30 12033 H 1125.91 6.22907 -2.70487 0
M  V30 12034 H 1123.85 6.54221 -0.482806 0
M  V30 12035 H 1123.77 7.27662 -2.05046 0
M  V30 12036 H 1125.04 7.73643 -0.953779 0
M  V30 12037 N 1129.27 0.921757 1.27833 0
M  V30 12038 C 1130.52 0.557974 1.94245 0
M  V30 12039 C 1130.84 -0.90268 1.72849 0
M  V30 12040 O 1130.11 -1.63915 1.07279 0
M  V30 12041 H 1128.69 0.203364 0.718785 0
M  V30 12042 H 1131.35 1.17286 1.5566 0
M  V30 12043 H 1130.45 0.759202 3.02725 0
M  V30 12044 N 1130.75 -1.41857 0.686609 0
M  V30 12045 C 1131.99 -2.01368 0.213801 0
M  V30 12046 C 1132.32 -1.5434 -1.18361 0
M  V30 12047 O 1131.58 -0.741447 -1.81111 0
M  V30 12048 C 1131.88 -3.56783 0.209951 0
M  V30 12049 C 1131.54 -4.23288 1.55365 0
M  V30 12050 C 1130.2 -4.41169 1.92154 0
M  V30 12051 C 1132.56 -4.6066 2.43807 0
M  V30 12052 C 1129.88 -4.93697 3.16986 0
M  V30 12053 C 1132.24 -5.14573 3.67963 0
M  V30 12054 C 1130.9 -5.30667 4.04906 0
M  V30 12055 H 1130.17 -0.736858 0.0782352 0
M  V30 12056 H 1132.82 -1.69879 0.88393 0
M  V30 12057 H 1131.12 -3.88009 -0.543712 0
M  V30 12058 H 1132.82 -4.00625 -0.173267 0
M  V30 12059 H 1129.41 -4.09738 1.2575 0
M  V30 12060 H 1133.59 -4.46507 2.16668 0
M  V30 12061 H 1128.85 -5.04342 3.45615 0
M  V30 12062 H 1133.02 -5.42473 4.36687 0
M  V30 12063 H 1130.65 -5.71133 5.01709 0
M  V30 12064 N 1132.22 -0.430739 -1.51599 0
M  V30 12065 C 1133.15 0.374695 -2.30474 0
M  V30 12066 C 1134.14 1.02694 -1.35602 0
M  V30 12067 O 1135.32 1.03184 -1.6452 0
M  V30 12068 C 1132.45 1.47981 -3.14196 0
M  V30 12069 C 1131.4 0.951415 -4.17291 0
M  V30 12070 C 1130.73 2.15177 -4.89492 0
M  V30 12071 C 1132.03 -0.00957951 -5.22299 0
M  V30 12072 H 1133.72 -0.283508 -2.98055 0
M  V30 12073 H 1131.27 -0.13779 -1.43339 0
M  V30 12074 H 1133.22 2.05043 -3.68151 0
M  V30 12075 H 1131.95 2.16621 -2.44424 0
M  V30 12076 H 1130.61 0.403052 -3.64378 0
M  V30 12077 H 1130.25 2.82421 -4.1623 0
M  V30 12078 H 1129.95 1.80464 -5.59202 0
M  V30 12079 H 1131.48 2.72806 -5.46269 0
M  V30 12080 H 1132.89 0.470527 -5.71366 0
M  V30 12081 H 1131.29 -0.268959 -5.99497 0
M  V30 12082 H 1132.36 -0.948297 -4.75537 0
M  V30 12083 N 1133.7 1.56767 -0.161869 0
M  V30 12084 C 1134.95 1.96594 0.485496 0
M  V30 12085 C 1135.28 1.04743 1.63887 0
M  V30 12086 O 1134.53 0.079602 1.95538 0
M  V30 12087 C 1134.83 3.42567 1.01894 0
M  V30 12088 C 1134.5 4.50897 -0.0175419 0
M  V30 12089 C 1133.16 4.80249 -0.302429 0
M  V30 12090 C 1135.51 5.16181 -0.721572 0
M  V30 12091 C 1132.84 5.72187 -1.2969 0
M  V30 12092 C 1135.19 6.09191 -1.70496 0
M  V30 12093 C 1133.86 6.36915 -1.99739 0
M  V30 12094 H 1133.13 0.719388 0.177656 0
M  V30 12095 H 1135.77 1.89837 -0.251839 0
M  V30 12096 H 1134.08 3.4623 1.83391 0
M  V30 12097 H 1135.77 3.70719 1.52867 0
M  V30 12098 H 1132.36 4.28062 0.21468 0
M  V30 12099 H 1136.55 4.93624 -0.514681 0
M  V30 12100 H 1131.8 5.91953 -1.52974 0
M  V30 12101 H 1135.98 6.58849 -2.25591 0
M  V30 12102 H 1133.61 7.07958 -2.76948 0
M  V30 12103 N 1135.18 -0.111886 1.57202 0
M  V30 12104 C 1136.6 -0.465629 1.52657 0
M  V30 12105 C 1136.8 -1.81463 0.875989 0
M  V30 12106 O 1135.85 -2.4825 0.461345 0
M  V30 12107 C 1137.17 -0.443571 2.9741 0
M  V30 12108 C 1138.71 -0.52662 3.08538 0
M  V30 12109 C 1139.19 -0.53488 4.54866 0
M  V30 12110 N 1140.68 -0.596117 4.59348 0
M  V30 12111 C 1141.41 -0.624073 5.69994 0
M  V30 12112 N 1140.91 -0.609245 6.90116 0
M  V30 12113 N 1142.7 -0.667619 5.58121 0
M  V30 12114 H 1134.85 0.771925 1.97876 0
M  V30 12115 H 1137.12 0.285534 0.903977 0
M  V30 12116 H 1136.82 0.480138 3.48407 0
M  V30 12117 H 1136.7 -1.26876 3.55221 0
M  V30 12118 H 1139.08 -1.44075 2.57539 0
M  V30 12119 H 1139.17 0.326396 2.53709 0
M  V30 12120 H 1138.81 0.375233 5.06512 0
M  V30 12121 H 1138.74 -1.40488 5.07514 0
M  V30 12122 H 1141.23 -0.613452 3.72888 0
M  V30 12123 H 1141.54 -0.633396 7.702 0
M  V30 12124 H 1139.89 -0.576557 6.92604 0
M  V30 12125 H 1143.08 -0.676616 4.63184 0
M  V30 12126 H 1143.25 -0.685938 6.44359 0
M  V30 12127 N 1136.66 -1.52894 -0.382264 0
M  V30 12128 C 1137.91 -1.67933 -1.1244 0
M  V30 12129 C 1138.23 -0.425166 -1.90309 0
M  V30 12130 O 1137.5 0.560557 -1.87709 0
M  V30 12131 H 1136.08 -0.619047 -0.418079 0
M  V30 12132 H 1138.74 -1.90031 -0.432928 0
M  V30 12133 H 1137.84 -2.53285 -1.82355 0
M  V30 12134 N 1138.14 0.641106 -1.43971 0
M  V30 12135 C 1139.07 1.76645 -1.46046 0
M  V30 12136 C 1140.08 1.58881 -0.355049 0
M  V30 12137 O 1141.27 1.67379 -0.620207 0
M  V30 12138 C 1138.37 3.14237 -1.26918 0
M  V30 12139 C 1137.54 3.5855 -2.50521 0
M  V30 12140 C 1136.6 4.74986 -2.26438 0
M  V30 12141 O 1135.63 4.83807 -2.99866 0
M  V30 12142 N 1136.83 5.66016 -1.28866 0
M  V30 12143 H 1139.6 1.75339 -2.43056 0
M  V30 12144 H 1137.16 0.82535 -1.39282 0
M  V30 12145 H 1139.15 3.89837 -1.0867 0
M  V30 12146 H 1137.72 3.10244 -0.383082 0
M  V30 12147 H 1136.94 2.73265 -2.84112 0
M  V30 12148 H 1138.23 3.84906 -3.32754 0
M  V30 12149 H 1137.63 5.61574 -0.682018 0
M  V30 12150 H 1136.18 6.41286 -1.16599 0
M  V30 12151 N 1139.62 1.30703 0.880598 0
M  V30 12152 C 1140.86 1.19142 1.62752 0
M  V30 12153 C 1141.18 -0.251795 1.93973 0
M  V30 12154 O 1142.38 -0.488971 2.67061 0
M  V30 12155 C 1140.84 2.08503 2.93351 0
M  V30 12156 C 1140.45 3.57758 2.69653 0
M  V30 12157 C 1142.19 2.05715 3.71324 0
M  V30 12158 C 1140.1 4.39161 3.96096 0
M  V30 12159 H 1139.03 0.442332 0.610622 0
M  V30 12160 H 1141.68 1.55483 0.974547 0
M  V30 12161 H 1140.06 1.65049 3.59965 0
M  V30 12162 H 1141.24 4.09388 2.11513 0
M  V30 12163 H 1139.55 3.62414 2.0505 0
M  V30 12164 H 1142.15 2.63783 4.65105 0
M  V30 12165 H 1142.49 1.04168 4.03057 0
M  V30 12166 H 1143.02 2.47313 3.11579 0
M  V30 12167 H 1139.76 5.4142 3.69519 0
M  V30 12168 H 1139.28 3.92293 4.53725 0
M  V30 12169 H 1140.96 4.50823 4.64077 0
M  V30 12170 N 1141.09 -1.09351 1.1349 0
M  V30 12171 C 1142.32 -1.85844 0.92069 0
M  V30 12172 C 1142.74 -1.80616 -0.525303 0
M  V30 12173 O 1142.1 -1.1842 -1.37282 0
M  V30 12174 C 1142.15 -3.31716 1.4141 0
M  V30 12175 O 1141.25 -4.08014 0.599838 0
M  V30 12176 H 1140.59 -0.576242 0.32991 0
M  V30 12177 H 1143.12 -1.38084 1.50976 0
M  V30 12178 H 1143.13 -3.82564 1.41805 0
M  V30 12179 H 1141.81 -3.34837 2.46692 0
M  V30 12180 H 1140.39 -3.66944 0.663816 0
M  V30 12181 N 1142.57 -0.928524 -1.27343 0
M  V30 12182 C 1143.48 -0.433901 -2.30553 0
M  V30 12183 C 1144.5 0.485832 -1.6708 0
M  V30 12184 O 1145.67 0.36844 -1.98001 0
M  V30 12185 C 1142.74 0.304617 -3.45359 0
M  V30 12186 C 1141.8 -0.650131 -4.24349 0
M  V30 12187 C 1141.03 0.0532372 -5.33673 0
M  V30 12188 O 1141.26 1.27246 -5.56026 0
M  V30 12189 O 1140.19 -0.619009 -5.98709 0
M  V30 12190 H 1144.02 -1.2909 -2.74899 0
M  V30 12191 H 1141.6 -0.693903 -1.32308 0
M  V30 12192 H 1143.48 0.721137 -4.15184 0
M  V30 12193 H 1142.16 1.13721 -3.03066 0
M  V30 12194 H 1141.06 -1.11635 -3.57055 0
M  V30 12195 H 1142.4 -1.44996 -4.70358 0
M  V30 12196 N 1144.05 1.41491 -0.694123 0
M  V30 12197 C 1145.28 2.05579 -0.233466 0
M  V30 12198 C 1145.69 1.5223 1.11675 0
M  V30 12199 O 1145.05 0.669937 1.69759 0
M  V30 12200 C 1145.1 3.61047 -0.180967 0
M  V30 12201 O 1144.82 4.12421 -1.47785 0
M  V30 12202 C 1146.32 4.42278 0.300853 0
M  V30 12203 H 1143.54 0.662097 -0.108943 0
M  V30 12204 H 1146.09 1.81288 -0.946299 0
M  V30 12205 H 1144.24 3.84381 0.482678 0
M  V30 12206 H 1144.66 5.06454 -1.364 0
M  V30 12207 H 1146.13 5.51256 0.286464 0
M  V30 12208 H 1146.61 4.18276 1.33948 0
M  V30 12209 H 1147.21 4.24004 -0.331741 0
M  V30 12210 N 1145.53 0.438773 1.51369 0
M  V30 12211 C 1146.46 -0.362467 2.3067 0
M  V30 12212 C 1147.44 -1.01973 1.36145 0
M  V30 12213 O 1148.62 -1.0231 1.65065 0
M  V30 12214 C 1145.75 -1.46313 3.14976 0
M  V30 12215 C 1144.71 -0.929272 4.1779 0
M  V30 12216 C 1144.03 -2.12579 4.90627 0
M  V30 12217 C 1145.33 0.0372782 5.22287 0
M  V30 12218 H 1147.03 0.29931 2.979 0
M  V30 12219 H 1144.57 0.14539 1.43264 0
M  V30 12220 H 1146.53 -2.03088 3.69233 0
M  V30 12221 H 1145.25 -2.15321 2.45569 0
M  V30 12222 H 1143.91 -0.383722 3.64586 0
M  V30 12223 H 1143.56 -2.8021 4.17722 0
M  V30 12224 H 1143.26 -1.77496 5.60151 0
M  V30 12225 H 1144.78 -2.69905 5.47708 0
M  V30 12226 H 1146.2 -0.44022 5.71607 0
M  V30 12227 H 1144.59 0.300748 5.99346 0
M  V30 12228 H 1145.66 0.973503 4.75027 0
M  V30 12229 N 1147.01 -1.56678 0.170181 0
M  V30 12230 C 1147.95 -2.17909 -0.760556 0
M  V30 12231 C 1148.92 -1.11875 -1.22773 0
M  V30 12232 O 1150.11 -1.40021 -1.2961 0
M  V30 12233 C 1147.25 -2.82305 -1.9849 0
M  V30 12234 C 1146.36 -4.02796 -1.5614 0
M  V30 12235 C 1145.5 -4.55121 -2.73932 0
M  V30 12236 C 1144.53 -5.68025 -2.28067 0
M  V30 12237 N 1143.67 -6.14865 -3.38947 0
M  V30 12238 H 1148.51 -2.97098 -0.231629 0
M  V30 12239 H 1146.05 -1.46742 -0.102602 0
M  V30 12240 H 1148.01 -3.17797 -2.70298 0
M  V30 12241 H 1146.64 -2.05721 -2.48755 0
M  V30 12242 H 1145.69 -3.73131 -0.740097 0
M  V30 12243 H 1147 -4.84526 -1.18472 0
M  V30 12244 H 1146.15 -4.92789 -3.53898 0
M  V30 12245 H 1144.89 -3.72445 -3.14858 0
M  V30 12246 H 1143.9 -5.2991 -1.46546 0
M  V30 12247 H 1145.12 -6.52501 -1.88199 0
M  V30 12248 H 1143.07 -5.35119 -3.79452 0
M  V30 12249 H 1142.99 -6.91582 -3.05369 0
M  V30 12250 H 1144.25 -6.57183 -4.19203 0
M  V30 12251 N 1148.48 0.103547 -1.57259 0
M  V30 12252 C 1149.71 0.82235 -1.89855 0
M  V30 12253 C 1150.13 1.72694 -0.76303 0
M  V30 12254 O 1149.48 1.8056 0.265421 0
M  V30 12255 C 1149.53 1.64282 -3.22015 0
M  V30 12256 O 1149.26 0.774628 -4.31197 0
M  V30 12257 C 1150.76 2.46543 -3.68418 0
M  V30 12258 H 1147.98 0.235591 -0.628282 0
M  V30 12259 H 1150.52 0.0833106 -2.0433 0
M  V30 12260 H 1148.68 2.33446 -3.09163 0
M  V30 12261 H 1149.09 1.34205 -5.0704 0
M  V30 12262 H 1150.56 2.99618 -4.63609 0
M  V30 12263 H 1151.04 3.24618 -2.95838 0
M  V30 12264 H 1151.65 1.82594 -3.84109 0
M  V30 12265 N 1149.96 1.53094 0.37415 0
M  V30 12266 C 1151.38 1.42676 0.715246 0
M  V30 12267 C 1151.58 0.558992 1.93591 0
M  V30 12268 O 1150.63 0.0381328 2.52471 0
M  V30 12269 C 1151.95 2.85746 0.936459 0
M  V30 12270 C 1153.49 2.95322 1.03701 0
M  V30 12271 C 1153.97 4.39436 1.29075 0
M  V30 12272 N 1155.46 4.42826 1.35864 0
M  V30 12273 C 1156.2 5.51433 1.57191 0
M  V30 12274 N 1155.69 6.701 1.75891 0
M  V30 12275 N 1157.48 5.38998 1.59491 0
M  V30 12276 H 1149.64 2.08025 -0.428854 0
M  V30 12277 H 1151.9 0.939078 -0.129758 0
M  V30 12278 H 1151.6 3.51523 0.111448 0
M  V30 12279 H 1151.48 3.28887 1.84698 0
M  V30 12280 H 1153.87 2.29704 1.85257 0
M  V30 12281 H 1153.95 2.55588 0.104066 0
M  V30 12282 H 1153.59 5.05625 0.480231 0
M  V30 12283 H 1153.52 4.76735 2.23677 0
M  V30 12284 H 1156.01 3.57301 1.23061 0
M  V30 12285 H 1156.32 7.48643 1.91713 0
M  V30 12286 H 1154.67 6.73102 1.73086 0
M  V30 12287 H 1157.86 4.45257 1.44444 0
M  V30 12288 H 1158.03 6.23705 1.75771 0
M  V30 12289 N 1151.44 -0.633461 1.44309 0
M  V30 12290 C 1152.69 -1.39031 1.46679 0
M  V30 12291 C 1153.01 -1.94745 0.0997165 0
M  V30 12292 O 1152.28 -1.75637 -0.867659 0
M  V30 12293 H 1150.86 -0.516051 0.540093 0
M  V30 12294 H 1153.52 -0.745739 1.80069 0
M  V30 12295 H 1152.62 -2.2228 2.19085 0
M  V30 12296 N 1152.92 -1.31168 -0.873655 0
M  V30 12297 C 1154.17 -1.20003 -1.62118 0
M  V30 12298 C 1154.48 0.241505 -1.94103 0
M  V30 12299 O 1155.69 0.474801 -2.67316 0
M  V30 12300 C 1154.14 -2.10055 -2.92241 0
M  V30 12301 C 1153.75 -3.59183 -2.67752 0
M  V30 12302 C 1155.49 -2.07681 -3.70228 0
M  V30 12303 C 1153.4 -4.41255 -3.93761 0
M  V30 12304 H 1152.33 -0.445564 -0.608267 0
M  V30 12305 H 1154.98 -1.55997 -0.966287 0
M  V30 12306 H 1153.36 -1.66956 -3.59085 0
M  V30 12307 H 1154.54 -4.10504 -2.09339 0
M  V30 12308 H 1152.85 -3.63496 -2.03125 0
M  V30 12309 H 1155.45 -2.66246 -4.637 0
M  V30 12310 H 1155.79 -1.06304 -4.02499 0
M  V30 12311 H 1156.33 -2.48961 -3.10263 0
M  V30 12312 H 1153.07 -5.43372 -3.66643 0
M  V30 12313 H 1152.59 -3.94694 -4.51638 0
M  V30 12314 H 1154.26 -4.53278 -4.6168 0
M  V30 12315 N 1154.4 1.08748 -1.14068 0
M  V30 12316 C 1155.64 1.81065 -0.906738 0
M  V30 12317 C 1155.97 1.86057 0.566844 0
M  V30 12318 O 1155.23 1.32976 1.43582 0
M  V30 12319 C 1155.53 3.26734 -1.44843 0
M  V30 12320 C 1155.19 3.41866 -2.94005 0
M  V30 12321 C 1153.85 3.45703 -3.34729 0
M  V30 12322 C 1156.21 3.45831 -3.89937 0
M  V30 12323 C 1153.53 3.51092 -4.70055 0
M  V30 12324 C 1155.89 3.52755 -5.25116 0
M  V30 12325 C 1154.55 3.54863 -5.65357 0
M  V30 12326 H 1153.82 0.662564 -0.331799 0
M  V30 12327 H 1156.47 1.28065 -1.42378 0
M  V30 12328 H 1154.77 3.82419 -0.852239 0
M  V30 12329 H 1156.47 3.81236 -1.2434 0
M  V30 12330 H 1153.06 3.39568 -2.61518 0
M  V30 12331 H 1157.24 3.421 -3.59557 0
M  V30 12332 H 1152.5 3.51015 -5.00598 0
M  V30 12333 H 1156.67 3.54768 -5.9926 0
M  V30 12334 H 1154.3 3.58792 -6.70203 0
M  V30 12335 N 1155.87 0.935264 1.26849 0
M  V30 12336 C 1156.78 0.446122 2.30319 0
M  V30 12337 C 1157.8 -0.476965 1.67335 0
M  V30 12338 O 1158.98 -0.357934 1.98194 0
M  V30 12339 C 1156.04 -0.286297 3.45516 0
M  V30 12340 C 1155.1 0.672626 4.23998 0
M  V30 12341 C 1154.34 -0.0249345 5.33694 0
M  V30 12342 O 1154.56 -1.24296 5.56693 0
M  V30 12343 O 1153.49 0.650752 5.98372 0
M  V30 12344 H 1157.32 1.30546 2.74211 0
M  V30 12345 H 1154.9 0.70091 1.31938 0
M  V30 12346 H 1156.79 -0.699109 4.1556 0
M  V30 12347 H 1155.46 -1.12112 3.03665 0
M  V30 12348 H 1154.37 1.13527 3.56458 0
M  V30 12349 H 1155.7 1.47489 4.69583 0
M  V30 12350 N 1157.35 -1.41121 0.701616 0
M  V30 12351 C 1158.58 -2.05452 0.244365 0
M  V30 12352 C 1159 -1.5282 -1.10866 0
M  V30 12353 O 1158.35 -0.67893 -1.69401 0
M  V30 12354 C 1158.4 -3.60946 0.200112 0
M  V30 12355 O 1158.12 -4.11632 1.4997 0
M  V30 12356 C 1159.63 -4.42431 -0.277394 0
M  V30 12357 H 1156.85 -0.66151 0.112453 0
M  V30 12358 H 1159.39 -1.80784 0.9559 0
M  V30 12359 H 1157.54 -3.84632 -0.462287 0
M  V30 12360 H 1157.96 -5.05723 1.39084 0
M  V30 12361 H 1159.43 -5.514 -0.257225 0
M  V30 12362 H 1159.91 -4.1898 -1.31728 0
M  V30 12363 H 1160.52 -4.23822 0.354223 0
M  V30 12364 N 1158.83 -0.446794 -1.51134 0
M  V30 12365 C 1159.78 0.359865 -2.27977 0
M  V30 12366 C 1160.75 1.0086 -1.31972 0
M  V30 12367 O 1161.93 1.02569 -1.60886 0
M  V30 12368 C 1159.07 1.44978 -3.1317 0
M  V30 12369 C 1158.19 0.818243 -4.2418 0
M  V30 12370 C 1157.32 1.884 -4.96668 0
M  V30 12371 C 1156.36 1.2314 -5.99586 0
M  V30 12372 N 1155.5 2.23894 -6.65444 0
M  V30 12373 H 1160.34 -0.301775 -2.96468 0
M  V30 12374 H 1157.87 -0.160666 -1.4622 0
M  V30 12375 H 1159.83 2.09308 -3.60896 0
M  V30 12376 H 1158.46 2.08092 -2.46775 0
M  V30 12377 H 1157.51 0.0629889 -3.80348 0
M  V30 12378 H 1158.83 0.301885 -4.97886 0
M  V30 12379 H 1157.98 2.6037 -5.4799 0
M  V30 12380 H 1156.72 2.43411 -4.22614 0
M  V30 12381 H 1155.72 0.497215 -5.47547 0
M  V30 12382 H 1156.95 0.688505 -6.75601 0
M  V30 12383 H 1154.89 2.77967 -5.94197 0
M  V30 12384 H 1154.81 1.77176 -7.34945 0
M  V30 12385 H 1156.08 2.95318 -7.21393 0
M  V30 12386 N 1160.31 1.56586 -0.178487 0
M  V30 12387 C 1161.56 1.97098 0.464617 0
M  V30 12388 C 1161.88 1.06476 1.62767 0
M  V30 12389 O 1161.14 0.100337 1.95443 0
M  V30 12390 C 1161.44 3.43629 0.982552 0
M  V30 12391 C 1161.1 4.50853 -0.0653645 0
M  V30 12392 C 1159.77 4.79901 -0.353349 0
M  V30 12393 C 1162.12 5.15387 -0.776279 0
M  V30 12394 C 1159.45 5.70779 -1.35751 0
M  V30 12395 C 1161.8 6.07349 -1.76948 0
M  V30 12396 C 1160.46 6.34761 -2.06483 0
M  V30 12397 H 1159.73 0.721232 0.170016 0
M  V30 12398 H 1162.38 1.89559 -0.271959 0
M  V30 12399 H 1160.68 3.48155 1.79709 0
M  V30 12400 H 1162.38 3.7232 1.48926 0
M  V30 12401 H 1158.97 4.28266 0.169266 0
M  V30 12402 H 1163.15 4.9305 -0.567008 0
M  V30 12403 H 1158.41 5.90298 -1.59244 0
M  V30 12404 H 1162.58 6.56419 -2.32567 0
M  V30 12405 H 1160.21 7.0498 -2.84441 0
M  V30 12406 N 1161.79 -0.095206 1.57312 0
M  V30 12407 C 1162.72 -1.11627 2.05089 0
M  V30 12408 C 1163.7 -1.41782 0.939787 0
M  V30 12409 O 1164.88 -1.51813 1.21105 0
M  V30 12410 C 1162.01 -2.43618 2.47523 0
M  V30 12411 C 1160.97 -2.27872 3.62296 0
M  V30 12412 C 1160.29 -3.65038 3.90706 0
M  V30 12413 C 1161.59 -1.71936 4.93189 0
M  V30 12414 H 1163.29 -0.718795 2.90644 0
M  V30 12415 H 1160.83 -0.344315 1.39823 0
M  V30 12416 H 1162.79 -3.1532 2.79556 0
M  V30 12417 H 1161.51 -2.85301 1.58968 0
M  V30 12418 H 1160.17 -1.58615 3.3051 0
M  V30 12419 H 1159.82 -4.04249 2.99319 0
M  V30 12420 H 1159.52 -3.55349 4.67976 0
M  V30 12421 H 1161.04 -4.38208 4.25213 0
M  V30 12422 H 1162.45 -2.33479 5.23603 0
M  V30 12423 H 1160.85 -1.73006 5.74621 0
M  V30 12424 H 1161.92 -0.678789 4.80125 0
M  V30 12425 N 1163.26 -1.53291 -0.366026 0
M  V30 12426 C 1164.49 -1.73665 -1.13381 0
M  V30 12427 C 1164.91 -0.464284 -1.8228 0
M  V30 12428 O 1164.27 0.581645 -1.71717 0
M  V30 12429 C 1164.32 -2.90225 -2.14013 0
M  V30 12430 O 1163.42 -2.58803 -3.21084 0
M  V30 12431 H 1162.77 -0.576762 -0.329 0
M  V30 12432 H 1165.3 -2.00174 -0.423287 0
M  V30 12433 H 1165.31 -3.16378 -2.57622 0
M  V30 12434 H 1163.98 -3.82518 -1.63257 0
M  V30 12435 H 1162.56 -2.43466 -2.82451 0
M  V30 12436 N 1164.74 0.6258 -1.44643 0
M  V30 12437 C 1165.67 1.75086 -1.47911 0
M  V30 12438 C 1166.69 1.58496 -0.37188 0
M  V30 12439 O 1167.88 1.66712 -0.637925 0
M  V30 12440 C 1164.98 3.12874 -1.30243 0
M  V30 12441 C 1164.15 3.55873 -2.54309 0
M  V30 12442 C 1163.21 4.72558 -2.31464 0
M  V30 12443 O 1162.23 4.80599 -3.04981 0
M  V30 12444 N 1163.44 5.64617 -1.34862 0
M  V30 12445 H 1166.2 1.72751 -2.44902 0
M  V30 12446 H 1163.76 0.810531 -1.4015 0
M  V30 12447 H 1165.75 3.88663 -1.12798 0
M  V30 12448 H 1164.32 3.0982 -0.415966 0
M  V30 12449 H 1163.54 2.70237 -2.86994 0
M  V30 12450 H 1164.83 3.81355 -3.36817 0
M  V30 12451 H 1164.23 5.60819 -0.741542 0
M  V30 12452 H 1162.79 6.40013 -1.23394 0
M  V30 12453 N 1166.22 1.31629 0.866686 0
M  V30 12454 C 1167.47 1.20861 1.61479 0
M  V30 12455 C 1167.78 -0.231208 1.94229 0
M  V30 12456 O 1168.99 -0.460618 2.67564 0
M  V30 12457 C 1167.44 2.11602 2.91123 0
M  V30 12458 C 1167.05 3.60598 2.65844 0
M  V30 12459 C 1168.8 2.09642 3.69121 0
M  V30 12460 C 1166.7 4.43337 3.91415 0
M  V30 12461 H 1165.63 0.448783 0.605896 0
M  V30 12462 H 1168.28 1.56507 0.958001 0
M  V30 12463 H 1166.67 1.68858 3.58194 0
M  V30 12464 H 1167.84 4.11609 2.07159 0
M  V30 12465 H 1166.16 3.64568 2.01194 0
M  V30 12466 H 1168.75 2.68701 4.62281 0
M  V30 12467 H 1169.1 1.08438 4.01929 0
M  V30 12468 H 1169.63 2.50603 3.08938 0
M  V30 12469 H 1166.37 5.45309 3.63756 0
M  V30 12470 H 1165.89 3.97083 4.49539 0
M  V30 12471 H 1167.57 4.5572 4.5927 0
M  V30 12472 N 1167.7 -1.08142 1.14644 0
M  V30 12473 C 1168.61 -2.18675 0.849607 0
M  V30 12474 C 1169.63 -1.73158 -0.170983 0
M  V30 12475 O 1170.8 -2.014 0.0011579 0
M  V30 12476 C 1167.87 -3.45084 0.334305 0
M  V30 12477 C 1166.93 -4.05213 1.41779 0
M  V30 12478 C 1166.16 -5.25588 0.926981 0
M  V30 12479 O 1166.38 -5.69934 -0.230522 0
M  V30 12480 O 1165.32 -5.77183 1.70715 0
M  V30 12481 H 1169.14 -2.46542 1.77343 0
M  V30 12482 H 1166.73 -1.17328 0.924911 0
M  V30 12483 H 1168.61 -4.21367 0.0529893 0
M  V30 12484 H 1167.29 -3.18788 -0.561755 0
M  V30 12485 H 1166.19 -3.30507 1.7526 0
M  V30 12486 H 1167.53 -4.35764 2.28847 0
M  V30 12487 N 1169.18 -0.941978 -1.26351 0
M  V30 12488 C 1170.4 -0.606231 -1.98342 0
M  V30 12489 C 1170.83 0.812014 -1.6967 0
M  V30 12490 O 1170.19 1.54712 -0.9452 0
M  V30 12491 C 1170.23 -0.855864 -3.50296 0
M  V30 12492 O 1169.34 0.0716251 -4.12338 0
M  V30 12493 H 1168.68 -0.231815 -0.62222 0
M  V30 12494 H 1171.21 -1.26513 -1.60797 0
M  V30 12495 H 1171.22 -0.777079 -4.00531 0
M  V30 12496 H 1169.89 -1.8896 -3.70496 0
M  V30 12497 H 1168.47 -0.0582866 -3.72854 0
M  V30 12498 N 1170.66 1.40747 -0.709091 0
M  V30 12499 C 1171.93 1.94831 -0.173246 0
M  V30 12500 C 1172.31 1.64766 1.31967 0
M  V30 12501 O 1171.66 0.961853 2.07269 0
M  V30 12502 C 1171.87 3.45697 -0.479013 0
M  V30 12503 C 1173.22 4.22576 -0.414122 0
M  V30 12504 O 1174.24 3.53778 -0.414699 0
M  V30 12505 O 1173.1 5.45135 -0.385986 0
M  V30 12506 H 1170.2 0.826683 -0.0228947 0
M  V30 12507 H 1172.74 1.50391 -0.786178 0
M  V30 12508 H 1171.51 3.60914 -1.51185 0
M  V30 12509 H 1171.14 3.97261 0.164211 0
M  V30 12510 N 1172.13 0.454803 1.50895 0
M  V30 12511 C 1173.55 0.108037 1.59234 0
M  V30 12512 C 1173.75 -1.38416 1.46435 0
M  V30 12513 O 1172.81 -2.15586 1.31449 0
M  V30 12514 C 1174.12 0.643721 2.93729 0
M  V30 12515 C 1175.67 0.605703 3.07083 0
M  V30 12516 C 1176.14 1.11865 4.44128 0
M  V30 12517 N 1177.63 1.07738 4.50496 0
M  V30 12518 C 1178.37 1.44495 5.54895 0
M  V30 12519 N 1177.86 1.88624 6.66628 0
M  V30 12520 N 1179.66 1.36201 5.45349 0
M  V30 12521 H 1171.81 1.4255 1.57459 0
M  V30 12522 H 1174.07 0.588504 0.743214 0
M  V30 12523 H 1173.78 1.68844 3.0852 0
M  V30 12524 H 1173.65 0.0782404 3.77119 0
M  V30 12525 H 1176.04 -0.430065 2.91949 0
M  V30 12526 H 1176.12 1.2078 2.2549 0
M  V30 12527 H 1175.76 2.15297 4.6001 0
M  V30 12528 H 1175.69 0.492933 5.24288 0
M  V30 12529 H 1178.18 0.753526 3.70311 0
M  V30 12530 H 1178.5 2.14863 7.4233 0
M  V30 12531 H 1176.84 1.92564 6.6779 0
M  V30 12532 H 1180.03 1.01579 4.56946 0
M  V30 12533 H 1180.21 1.65175 6.26595 0
M  V30 12534 N 1173.61 -1.56489 0.186789 0
M  V30 12535 C 1174.54 -2.21705 -0.732739 0
M  V30 12536 C 1175.52 -1.17751 -1.22755 0
M  V30 12537 O 1176.71 -1.46231 -1.27789 0
M  V30 12538 C 1173.84 -2.86992 -1.95584 0
M  V30 12539 C 1172.79 -3.97118 -1.59628 0
M  V30 12540 C 1172.12 -4.49529 -2.89531 0
M  V30 12541 C 1173.42 -5.15941 -0.812518 0
M  V30 12542 H 1175.11 -2.98802 -0.189094 0
M  V30 12543 H 1172.66 -1.43722 -0.0895099 0
M  V30 12544 H 1174.61 -3.31295 -2.60426 0
M  V30 12545 H 1173.33 -2.07287 -2.52388 0
M  V30 12546 H 1171.99 -3.53494 -0.971475 0
M  V30 12547 H 1171.64 -3.66596 -3.44407 0
M  V30 12548 H 1171.34 -5.23832 -2.66221 0
M  V30 12549 H 1172.87 -4.96528 -3.55376 0
M  V30 12550 H 1174.28 -5.56841 -1.36386 0
M  V30 12551 H 1172.68 -5.96259 -0.677862 0
M  V30 12552 H 1173.75 -4.84535 0.188095 0
M  V30 12553 N 1175.09 0.086862 -1.5736 0
M  V30 12554 C 1176.05 1.08906 -2.01673 0
M  V30 12555 C 1177.05 1.32473 -0.911463 0
M  V30 12556 O 1178.24 1.28447 -1.17673 0
M  V30 12557 C 1175.37 2.43629 -2.38449 0
M  V30 12558 H 1176.57 0.707461 -2.91436 0
M  V30 12559 H 1174.12 0.332154 -1.5273 0
M  V30 12560 H 1174.86 2.8665 -1.51665 0
M  V30 12561 H 1174.64 2.2787 -3.19089 0
M  V30 12562 H 1176.13 3.15695 -2.73361 0
M  V30 12563 N 1176.57 1.53483 0.357892 0
M  V30 12564 C 1177.5 1.83444 1.44466 0
M  V30 12565 C 1178.48 0.688486 1.55544 0
M  V30 12566 O 1179.66 0.93906 1.69986 0
M  V30 12567 C 1176.79 2.03122 2.81707 0
M  V30 12568 C 1175.75 3.1891 2.85448 0
M  V30 12569 C 1175.07 3.23895 4.25436 0
M  V30 12570 C 1176.37 4.57334 2.52275 0
M  V30 12571 H 1178.07 2.74456 1.19642 0
M  V30 12572 H 1175.61 1.3206 0.574112 0
M  V30 12573 H 1177.57 2.22666 3.57768 0
M  V30 12574 H 1176.29 1.08827 3.07935 0
M  V30 12575 H 1174.95 2.99199 2.11838 0
M  V30 12576 H 1174.6 2.27223 4.48753 0
M  V30 12577 H 1174.3 4.01694 4.28854 0
M  V30 12578 H 1175.82 3.45632 5.0336 0
M  V30 12579 H 1177.24 4.76988 3.1805 0
M  V30 12580 H 1175.63 5.37431 2.66998 0
M  V30 12581 H 1176.7 4.61921 1.47501 0
M  V30 12582 N 1178.05 -0.61812 1.44973 0
M  V30 12583 C 1178.98 -1.74035 1.55673 0
M  V30 12584 C 1179.96 -1.65112 0.4089 0
M  V30 12585 O 1181.14 -1.83673 0.630698 0
M  V30 12586 C 1178.27 -3.1261 1.51303 0
M  V30 12587 C 1177.23 -3.36334 2.64696 0
M  V30 12588 C 1176.55 -4.75072 2.45378 0
M  V30 12589 C 1177.85 -3.27618 4.06772 0
M  V30 12590 H 1179.55 -1.65336 2.49608 0
M  V30 12591 H 1177.09 -0.794003 1.20132 0
M  V30 12592 H 1179.04 -3.90906 1.57388 0
M  V30 12593 H 1177.77 -3.22123 0.538914 0
M  V30 12594 H 1176.43 -2.60423 2.58022 0
M  V30 12595 H 1176.08 -4.81306 1.46129 0
M  V30 12596 H 1175.78 -4.91903 3.21412 0
M  V30 12597 H 1177.3 -5.55582 2.53301 0
M  V30 12598 H 1178.71 -3.95802 4.14746 0
M  V30 12599 H 1177.11 -3.55981 4.83113 0
M  V30 12600 H 1178.18 -2.25219 4.29423 0
M  V30 12601 N 1179.52 -1.32087 -0.859693 0
M  V30 12602 C 1180.46 -1.16426 -1.97428 0
M  V30 12603 C 1181.47 -0.100582 -1.62489 0
M  V30 12604 O 1182.66 -0.349063 -1.75054 0
M  V30 12605 C 1179.76 -0.758822 -3.30295 0
M  V30 12606 C 1178.93 -1.90971 -3.93508 0
M  V30 12607 C 1177.99 -1.48865 -5.04704 0
M  V30 12608 O 1177.02 -2.1999 -5.2497 0
M  V30 12609 N 1178.22 -0.38182 -5.79243 0
M  V30 12610 H 1180.98 -2.12433 -2.11406 0
M  V30 12611 H 1178.54 -1.24558 -1.03426 0
M  V30 12612 H 1180.54 -0.459643 -4.02081 0
M  V30 12613 H 1179.11 0.109944 -3.12407 0
M  V30 12614 H 1178.33 -2.37566 -3.14573 0
M  V30 12615 H 1179.61 -2.68032 -4.32477 0
M  V30 12616 H 1179.01 0.210268 -5.65309 0
M  V30 12617 H 1177.57 -0.142224 -6.51645 0
M  V30 12618 N 1181 1.07532 -1.15215 0
M  V30 12619 C 1182.25 1.8036 -0.927263 0
M  V30 12620 C 1182.58 1.86414 0.544371 0
M  V30 12621 O 1181.86 1.34653 1.40353 0
M  V30 12622 C 1182.14 3.25512 -1.53992 0
M  V30 12623 C 1181.99 3.27614 -3.08203 0
M  V30 12624 C 1183.31 4.22731 -1.22418 0
M  V30 12625 H 1180.43 0.654775 -0.338289 0
M  V30 12626 H 1183.07 1.25842 -1.42351 0
M  V30 12627 H 1181.22 3.72068 -1.11791 0
M  V30 12628 H 1182.89 2.89315 -3.59297 0
M  V30 12629 H 1181.14 2.66627 -3.42188 0
M  V30 12630 H 1181.81 4.29956 -3.46182 0
M  V30 12631 H 1184.28 3.84557 -1.58919 0
M  V30 12632 H 1183.16 5.22589 -1.67906 0
M  V30 12633 H 1183.42 4.41875 -0.14091 0
M  V30 12634 N 1182.48 0.948665 1.2585 0
M  V30 12635 C 1183.9 0.652147 1.45668 0
M  V30 12636 C 1184.1 -0.792217 1.85273 0
M  V30 12637 O 1183.15 -1.56812 1.97905 0
M  V30 12638 C 1184.47 1.61998 2.53332 0
M  V30 12639 C 1186.01 1.6305 2.67178 0
M  V30 12640 C 1186.49 2.58582 3.78021 0
M  V30 12641 N 1187.98 2.56911 3.85423 0
M  V30 12642 C 1188.71 3.27511 4.70664 0
M  V30 12643 N 1188.21 4.07563 5.60236 0
M  V30 12644 N 1190 3.16427 4.64576 0
M  V30 12645 H 1182.15 1.88215 0.984325 0
M  V30 12646 H 1184.42 0.809251 0.493778 0
M  V30 12647 H 1184.12 2.65137 2.31075 0
M  V30 12648 H 1184 1.37784 3.51134 0
M  V30 12649 H 1186.38 0.606315 2.88804 0
M  V30 12650 H 1186.47 1.9132 1.69795 0
M  V30 12651 H 1186.11 3.61122 3.57146 0
M  V30 12652 H 1186.04 2.27598 4.74875 0
M  V30 12653 H 1188.53 1.9879 3.21389 0
M  V30 12654 H 1188.84 4.58367 6.22189 0
M  V30 12655 H 1187.19 4.11662 5.59964 0
M  V30 12656 H 1190.38 2.53364 3.93604 0
M  V30 12657 H 1190.55 3.71714 5.30785 0
M  V30 12658 N 1183.96 -1.40369 0.716545 0
M  V30 12659 C 1184.92 -2.29083 0.0733105 0
M  V30 12660 C 1185.92 -1.45415 -0.686378 0
M  V30 12661 O 1187.11 -1.66316 -0.518139 0
M  V30 12662 C 1184.24 -3.28639 -0.906032 0
M  V30 12663 H 1185.44 -2.87464 0.85467 0
M  V30 12664 H 1182.99 -1.48706 0.481256 0
M  V30 12665 H 1183.72 -2.75279 -1.71441 0
M  V30 12666 H 1183.51 -3.90405 -0.364163 0
M  V30 12667 H 1185 -3.95066 -1.35324 0
M  V30 12668 N 1185.44 -0.462799 -1.50652 0
M  V30 12669 C 1186.69 0.0966838 -2.01468 0
M  V30 12670 C 1187 1.41529 -1.35014 0
M  V30 12671 O 1188.2 2.05923 -1.76941 0
M  V30 12672 C 1186.66 0.222826 -3.5921 0
M  V30 12673 C 1186.27 -1.08686 -4.34616 0
M  V30 12674 C 1188.01 0.734711 -4.18094 0
M  V30 12675 C 1185.92 -0.924964 -5.84122 0
M  V30 12676 H 1184.85 0.0399078 -0.752943 0
M  V30 12677 H 1187.5 -0.596437 -1.73536 0
M  V30 12678 H 1185.88 0.979539 -3.83694 0
M  V30 12679 H 1187.06 -1.85388 -4.21862 0
M  V30 12680 H 1185.37 -1.52922 -3.87303 0
M  V30 12681 H 1187.97 0.872734 -5.2753 0
M  V30 12682 H 1188.31 1.72389 -3.7893 0
M  V30 12683 H 1188.84 0.0356139 -3.97784 0
M  V30 12684 H 1185.58 -1.88727 -6.27744 0
M  V30 12685 H 1185.1 -0.198181 -5.99473 0
M  V30 12686 H 1186.78 -0.588262 -6.4432 0
M  V30 12687 N 1186.91 1.56388 -0.195085 0
M  V30 12688 C 1187.84 2.22091 0.720971 0
M  V30 12689 C 1188.83 1.184 1.22128 0
M  V30 12690 O 1190.01 1.46907 1.27012 0
M  V30 12691 C 1187.14 2.88025 1.94059 0
M  V30 12692 C 1186.09 3.97959 1.5752 0
M  V30 12693 C 1185.42 4.51058 2.87143 0
M  V30 12694 C 1186.72 5.16365 0.785145 0
M  V30 12695 H 1188.41 2.98898 0.173245 0
M  V30 12696 H 1185.96 1.43767 0.0818868 0
M  V30 12697 H 1187.91 3.32671 2.58666 0
M  V30 12698 H 1186.64 2.08623 2.51285 0
M  V30 12699 H 1185.3 3.54004 0.952715 0
M  V30 12700 H 1184.94 3.68418 3.42458 0
M  V30 12701 H 1184.64 5.25237 2.63439 0
M  V30 12702 H 1186.17 4.98406 3.52738 0
M  V30 12703 H 1187.58 5.57556 1.33431 0
M  V30 12704 H 1185.98 5.9661 0.646231 0
M  V30 12705 H 1187.05 4.84428 -0.213789 0
M  V30 12706 N 1188.39 -0.0785156 1.57404 0
M  V30 12707 C 1189.32 -1.12058 1.99939 0
M  V30 12708 C 1190.34 -1.35372 0.904343 0
M  V30 12709 O 1191.53 -1.33731 1.1823 0
M  V30 12710 C 1188.63 -2.47285 2.31739 0
M  V30 12711 C 1187.8 -2.44021 3.63005 0
M  V30 12712 C 1186.86 -3.61303 3.82552 0
M  V30 12713 O 1185.88 -3.43039 4.54217 0
M  V30 12714 N 1187.09 -4.81404 3.24392 0
M  V30 12715 H 1189.85 -0.758416 2.89945 0
M  V30 12716 H 1187.41 -0.267266 1.59679 0
M  V30 12717 H 1189.4 -3.24377 2.41995 0
M  V30 12718 H 1187.97 -2.75529 1.47657 0
M  V30 12719 H 1187.19 -1.52361 3.63565 0
M  V30 12720 H 1188.48 -2.38934 4.49208 0
M  V30 12721 H 1187.88 -4.99147 2.66211 0
M  V30 12722 H 1186.44 -5.56031 3.40107 0
M  V30 12723 N 1189.87 -1.5367 -0.349747 0
M  V30 12724 C 1190.8 -1.77528 -1.4497 0
M  V30 12725 C 1191.82 -0.656412 -1.4898 0
M  V30 12726 O 1193 -0.933016 -1.52174 0
M  V30 12727 C 1190.1 -1.85445 -2.8366 0
M  V30 12728 C 1189.28 -3.15295 -3.03163 0
M  V30 12729 C 1188.34 -3.1425 -4.22059 0
M  V30 12730 O 1187.36 -3.87994 -4.16472 0
M  V30 12731 N 1188.56 -2.36181 -5.30282 0
M  V30 12732 H 1191.33 -2.72444 -1.24877 0
M  V30 12733 H 1188.89 -1.52644 -0.539586 0
M  V30 12734 H 1190.88 -1.82204 -3.61364 0
M  V30 12735 H 1189.45 -0.977436 -2.96926 0
M  V30 12736 H 1188.67 -3.31711 -2.12983 0
M  V30 12737 H 1189.96 -4.01078 -3.13072 0
M  V30 12738 H 1189.36 -1.75808 -5.37688 0
M  V30 12739 H 1187.92 -2.38744 -6.06502 0
M  V30 12740 N 1191.35 0.610423 -1.45298 0
M  V30 12741 C 1192.28 1.73207 -1.56594 0
M  V30 12742 C 1193.26 1.64893 -0.417651 0
M  V30 12743 O 1194.44 1.83336 -0.64043 0
M  V30 12744 C 1191.57 3.11803 -1.52959 0
M  V30 12745 C 1190.53 3.34925 -2.66475 0
M  V30 12746 C 1189.85 4.73764 -2.47894 0
M  V30 12747 C 1191.15 3.25456 -4.08504 0
M  V30 12748 H 1192.85 1.6401 -2.50482 0
M  V30 12749 H 1190.39 0.787621 -1.20551 0
M  V30 12750 H 1192.35 3.90065 -1.59458 0
M  V30 12751 H 1191.07 3.21833 -0.55599 0
M  V30 12752 H 1189.73 2.59051 -2.59399 0
M  V30 12753 H 1189.38 4.80524 -1.4868 0
M  V30 12754 H 1189.08 4.90191 -3.24016 0
M  V30 12755 H 1190.6 5.54231 -2.56243 0
M  V30 12756 H 1192.02 3.93597 -4.16839 0
M  V30 12757 H 1190.41 3.53414 -4.84994 0
M  V30 12758 H 1191.48 2.22939 -4.30612 0
M  V30 12759 N 1192.83 1.32541 0.852676 0
M  V30 12760 C 1194.07 1.22971 1.60383 0
M  V30 12761 C 1194.4 -0.208009 1.93887 0
M  V30 12762 O 1193.67 -1.13326 1.59794 0
M  V30 12763 H 1192.25 0.452149 0.594618 0
M  V30 12764 H 1194.91 1.66089 1.01983 0
M  V30 12765 H 1194 1.81373 2.53989 0
M  V30 12766 N 1194.3 -1.0692 1.15784 0
M  V30 12767 C 1195.23 -2.16216 0.881649 0
M  V30 12768 C 1196.22 -1.69253 -0.16951 0
M  V30 12769 O 1197.4 -1.94186 -0.0229511 0
M  V30 12770 C 1194.53 -3.4527 0.374982 0
M  V30 12771 C 1193.48 -4.05706 1.36332 0
M  V30 12772 C 1192.81 -5.29894 0.715317 0
M  V30 12773 C 1194.11 -4.45224 2.7308 0
M  V30 12774 H 1195.8 -2.39577 1.79563 0
M  V30 12775 H 1193.35 -1.15141 0.864784 0
M  V30 12776 H 1195.3 -4.2106 0.169279 0
M  V30 12777 H 1194.03 -3.21508 -0.574485 0
M  V30 12778 H 1192.69 -3.31965 1.55546 0
M  V30 12779 H 1192.33 -5.02425 -0.240436 0
M  V30 12780 H 1192.03 -5.71287 1.37494 0
M  V30 12781 H 1193.56 -6.08386 0.519489 0
M  V30 12782 H 1194.97 -5.12124 2.57686 0
M  V30 12783 H 1193.37 -4.97583 3.35457 0
M  V30 12784 H 1194.44 -3.56384 3.28813 0
M  V30 12785 N 1195.78 -0.955326 -1.25345 0
M  V30 12786 C 1196.73 -0.467205 -2.2786 0
M  V30 12787 C 1197.72 0.462873 -1.62954 0
M  V30 12788 O 1198.93 0.339526 -1.76769 0
M  V30 12789 H 1195.31 -0.132586 -0.74022 0
M  V30 12790 H 1197.28 -1.34406 -2.66416 0
M  V30 12791 C 1196.03 0.238898 -3.46878 0
M  V30 12792 H 1195.35 -0.467644 -3.97056 0
M  V30 12793 H 1196.79 0.544444 -4.2049 0
M  V30 12794 C 1195.25 1.46164 -3.03542 0
M  V30 12795 O 1195.78 2.55933 -3.09615 0
M  V30 12796 N 1193.98 1.32324 -2.58725 0
M  V30 12797 H 1193.53 0.430131 -2.53984 0
M  V30 12798 H 1193.49 2.14253 -2.30094 0
M  V30 12799 N 1197.26 1.39987 -0.723979 0
M  V30 12800 C 1198.49 2.0556 -0.275634 0
M  V30 12801 C 1198.91 1.54207 1.07711 0
M  V30 12802 O 1198.27 0.681041 1.68022 0
M  V30 12803 C 1198.32 3.59551 -0.27485 0
M  V30 12804 O 1197.42 4.05685 0.741182 0
M  V30 12805 H 1196.76 0.651634 -0.12755 0
M  V30 12806 H 1199.29 1.79229 -0.986814 0
M  V30 12807 H 1199.3 4.07837 -0.115425 0
M  V30 12808 H 1197.98 3.96291 -1.26198 0
M  V30 12809 H 1196.55 3.6884 0.548795 0
M  V30 12810 N 1198.74 0.470782 1.50404 0
M  V30 12811 C 1199.97 -0.0820134 2.06737 0
M  V30 12812 C 1200.38 -1.33535 1.33468 0
M  V30 12813 O 1199.74 -1.77975 0.403872 0
M  V30 12814 C 1199.79 -0.370427 3.59597 0
M  V30 12815 O 1199.51 0.8332 4.30104 0
M  V30 12816 C 1201.01 -0.970222 4.32552 0
M  V30 12817 H 1198.23 0.00694502 0.670964 0
M  V30 12818 H 1200.78 0.659476 1.93575 0
M  V30 12819 H 1198.93 -1.06185 3.72563 0
M  V30 12820 H 1199.35 0.577614 5.2131 0
M  V30 12821 H 1200.82 -1.1218 5.40481 0
M  V30 12822 H 1201.3 -1.96024 3.93028 0
M  V30 12823 H 1201.9 -0.31719 4.24116 0
M  V30 12824 N 1200.22 -1.56282 0.203376 0
M  V30 12825 C 1201.46 -1.99712 -0.43527 0
M  V30 12826 C 1201.82 -1.0876 -1.58225 0
M  V30 12827 O 1203.02 -1.4146 -2.28566 0
M  V30 12828 C 1201.29 -3.46501 -0.875885 0
M  V30 12829 S 1202.85 -4.11957 -1.5112 0
M  V30 12830 H 1199.67 -0.697305 -0.138879 0
M  V30 12831 H 1202.27 -1.93052 0.308392 0
M  V30 12832 H 1200.98 -4.10388 -0.0311623 0
M  V30 12833 H 1200.51 -3.56996 -1.65281 0
M  V30 12834 H 1202.52 -4.09645 -2.80009 0
M  V30 12835 N 1201.7 0.070167 -1.57444 0
M  V30 12836 C 1202.97 0.802108 -1.78397 0
M  V30 12837 C 1203.35 1.95706 -0.791356 0
M  V30 12838 O 1202.7 2.27827 0.17518 0
M  V30 12839 C 1202.91 1.27354 -3.24934 0
M  V30 12840 C 1204.26 1.70626 -3.88808 0
M  V30 12841 O 1205.28 1.36916 -3.28835 0
M  V30 12842 O 1204.14 2.33041 -4.94322 0
M  V30 12843 H 1201.24 0.384483 -0.73219 0
M  V30 12844 H 1203.78 0.0501168 -1.69626 0
M  V30 12845 H 1202.55 0.447204 -3.88736 0
M  V30 12846 H 1202.18 2.0868 -3.38435 0
M  V30 12847 N 1203.17 1.53854 0.341593 0
M  V30 12848 C 1204.45 1.61823 1.09875 0
M  V30 12849 C 1204.83 0.440711 2.06448 0
M  V30 12850 O 1204.18 -0.566833 2.21358 0
M  V30 12851 C 1204.39 2.9799 1.81668 0
M  V30 12852 C 1205.74 3.53411 2.35341 0
M  V30 12853 O 1206.76 3.00177 1.91761 0
M  V30 12854 O 1205.62 4.4653 3.15076 0
M  V30 12855 H 1202.71 0.654599 0.5054 0
M  V30 12856 H 1205.26 1.66199 0.342929 0
M  V30 12857 H 1204.03 3.7513 1.11323 0
M  V30 12858 H 1203.65 2.97213 2.64103 0
M  V30 12859 N 1204.65 -0.602709 1.4562 0
M  V30 12860 C 1205.88 -1.39299 1.53657 0
M  V30 12861 C 1206.3 -1.87315 0.171632 0
M  V30 12862 O 1205.66 -1.60423 -0.844639 0
M  V30 12863 C 1205.71 -2.57021 2.52928 0
M  V30 12864 O 1204.81 -3.57812 2.05047 0
M  V30 12865 H 1204.15 -0.41567 0.517798 0
M  V30 12866 H 1206.68 -0.73304 1.91018 0
M  V30 12867 H 1206.69 -3.04202 2.71892 0
M  V30 12868 H 1205.37 -2.21422 3.52058 0
M  V30 12869 H 1203.94 -3.17247 1.95981 0
M  V30 12870 N 1206.13 -1.32992 -0.845635 0
M  V30 12871 C 1207.38 -1.23415 -1.59536 0
M  V30 12872 C 1207.69 0.200278 -1.94572 0
M  V30 12873 O 1208.9 0.417993 -2.68263 0
M  V30 12874 C 1207.35 -2.16207 -2.8772 0
M  V30 12875 C 1206.96 -3.64782 -2.60073 0
M  V30 12876 C 1208.71 -2.15488 -3.65739 0
M  V30 12877 C 1206.61 -4.49508 -3.84313 0
M  V30 12878 H 1205.54 -0.458366 -0.598679 0
M  V30 12879 H 1208.19 -1.58012 -0.932981 0
M  V30 12880 H 1206.58 -1.74535 -3.55462 0
M  V30 12881 H 1207.75 -4.14852 -2.00585 0
M  V30 12882 H 1206.06 -3.67723 -1.95369 0
M  V30 12883 H 1208.66 -2.76021 -4.57948 0
M  V30 12884 H 1209 -1.14818 -4.00153 0
M  V30 12885 H 1209.54 -2.55487 -3.04912 0
M  V30 12886 H 1206.28 -5.51027 -3.55035 0
M  V30 12887 H 1205.8 -4.04185 -4.43165 0
M  V30 12888 H 1207.48 -4.62969 -4.51961 0
M  V30 12889 N 1207.61 1.06304 -1.1635 0
M  V30 12890 C 1208.54 2.15745 -0.893103 0
M  V30 12891 C 1209.52 1.69341 0.160531 0
M  V30 12892 O 1210.7 1.94196 0.0126526 0
M  V30 12893 C 1207.83 3.45066 -0.393287 0
M  V30 12894 C 1206.79 4.04978 -1.38482 0
M  V30 12895 C 1206.11 5.29507 -0.743409 0
M  V30 12896 C 1207.41 4.4377 -2.75438 0
M  V30 12897 H 1209.11 2.38622 -1.80831 0
M  V30 12898 H 1206.65 1.14681 -0.870878 0
M  V30 12899 H 1208.61 4.20964 -0.191607 0
M  V30 12900 H 1207.33 3.21808 0.557426 0
M  V30 12901 H 1205.99 3.31136 -1.57304 0
M  V30 12902 H 1205.64 5.02545 0.213787 0
M  V30 12903 H 1205.34 5.7055 -1.40521 0
M  V30 12904 H 1206.86 6.08102 -0.551746 0
M  V30 12905 H 1208.28 5.1075 -2.60398 0
M  V30 12906 H 1206.67 4.95797 -3.38091 0
M  V30 12907 H 1207.74 3.54636 -3.30699 0
M  V30 12908 N 1209.09 0.96196 1.24836 0
M  V30 12909 C 1210.33 0.621634 1.93038 0
M  V30 12910 C 1210.66 -0.840257 1.75081 0
M  V30 12911 O 1209.94 -1.60381 1.10038 0
M  V30 12912 C 1210.22 0.990107 3.46221 0
M  V30 12913 C 1210.08 2.50827 3.73371 0
M  V30 12914 C 1211.39 0.520478 4.37011 0
M  V30 12915 H 1208.51 0.227312 0.701069 0
M  V30 12916 H 1211.16 1.19993 1.47315 0
M  V30 12917 H 1209.31 0.498008 3.85295 0
M  V30 12918 H 1210.98 3.07469 3.4389 0
M  V30 12919 H 1209.22 2.94277 3.18722 0
M  V30 12920 H 1209.89 2.71659 4.80526 0
M  V30 12921 H 1212.37 0.942703 4.05281 0
M  V30 12922 H 1211.24 0.806918 5.42937 0
M  V30 12923 H 1211.5 -0.579507 4.38285 0
M  V30 12924 N 1210.56 -1.39601 0.731392 0
M  V30 12925 C 1211.51 -2.30628 0.0890606 0
M  V30 12926 C 1212.48 -1.49025 -0.73353 0
M  V30 12927 O 1213.67 -1.77722 -0.694234 0
M  V30 12928 C 1210.81 -3.35339 -0.814956 0
M  V30 12929 C 1209.92 -4.31995 0.0198606 0
M  V30 12930 C 1209.05 -5.23774 -0.885095 0
M  V30 12931 C 1208.09 -6.12083 -0.045311 0
M  V30 12932 N 1207.23 -6.9623 -0.906002 0
M  V30 12933 H 1212.07 -2.84988 0.870958 0
M  V30 12934 H 1209.61 -1.40329 0.441166 0
M  V30 12935 H 1211.56 -3.94634 -1.3535 0
M  V30 12936 H 1210.19 -2.82443 -1.56287 0
M  V30 12937 H 1209.25 -3.74349 0.675778 0
M  V30 12938 H 1210.56 -4.94289 0.669346 0
M  V30 12939 H 1209.71 -5.88078 -1.49161 0
M  V30 12940 H 1208.45 -4.61794 -1.56837 0
M  V30 12941 H 1207.46 -5.46795 0.574028 0
M  V30 12942 H 1208.68 -6.76128 0.634692 0
M  V30 12943 H 1206.63 -6.36821 -1.57463 0
M  V30 12944 H 1206.54 -7.55352 -0.312914 0
M  V30 12945 H 1207.81 -7.64967 -1.49819 0
M  V30 12946 N 1212.04 -0.478751 -1.50152 0
M  V30 12947 C 1213.27 0.0710485 -2.06778 0
M  V30 12948 C 1213.69 1.32826 -1.34174 0
M  V30 12949 O 1213.04 1.77758 -0.413304 0
M  V30 12950 C 1213.09 0.351351 -3.59789 0
M  V30 12951 O 1212.81 -0.855998 -4.29656 0
M  V30 12952 C 1214.32 0.947269 -4.33061 0
M  V30 12953 H 1211.54 -0.0105032 -0.670918 0
M  V30 12954 H 1214.08 -0.669732 -1.93222 0
M  V30 12955 H 1212.23 1.04207 -3.73121 0
M  V30 12956 H 1212.65 -0.605252 -5.20996 0
M  V30 12957 H 1214.12 1.09312 -5.41068 0
M  V30 12958 H 1214.6 1.93937 -3.94062 0
M  V30 12959 H 1215.21 0.294693 -4.24278 0
M  V30 12960 N 1213.52 1.56172 -0.211661 0
M  V30 12961 C 1214.77 1.98332 0.423332 0
M  V30 12962 C 1215.1 1.09895 1.60115 0
M  V30 12963 O 1214.37 0.154477 1.93886 0
M  V30 12964 C 1214.66 3.49495 0.86747 0
M  V30 12965 C 1214.51 4.48708 -0.313302 0
M  V30 12966 C 1215.83 4.04793 1.72716 0
M  V30 12967 H 1212.95 0.72107 0.152402 0
M  V30 12968 H 1215.59 1.87521 -0.305912 0
M  V30 12969 H 1213.74 3.58839 1.48885 0
M  V30 12970 H 1215.41 4.51385 -0.951291 0
M  V30 12971 H 1213.66 4.2299 -0.96238 0
M  V30 12972 H 1214.33 5.51985 0.0402402 0
M  V30 12973 H 1216.8 3.98332 1.20296 0
M  V30 12974 H 1215.68 5.10898 2.00684 0
M  V30 12975 H 1215.94 3.51067 2.68709 0
M  V30 12976 N 1215 -0.0618163 1.57479 0
M  V30 12977 C 1216.24 -0.764296 1.89573 0
M  V30 12978 C 1216.6 -1.74235 0.806605 0
M  V30 12979 O 1217.8 -2.49067 1.0109 0
M  V30 12980 C 1216.07 -1.44503 3.26885 0
M  V30 12981 S 1217.63 -2.1812 3.80748 0
M  V30 12982 H 1214.45 -0.253946 0.664103 0
M  V30 12983 H 1217.05 -0.0200064 1.9549 0
M  V30 12984 H 1215.76 -0.719525 4.04043 0
M  V30 12985 H 1215.29 -2.22855 3.2419 0
M  V30 12986 H 1217.3 -3.44793 3.56837 0
M  V30 12987 N 1216.48 -1.54033 -0.333429 0
M  V30 12988 C 1217.72 -1.71426 -1.0704 0
M  V30 12989 C 1218.05 -0.485496 -1.8886 0
M  V30 12990 O 1217.32 0.500555 -1.89397 0
M  V30 12991 H 1215.9 -0.632034 -0.398173 0
M  V30 12992 H 1218.56 -1.91312 -0.372252 0
M  V30 12993 H 1217.65 -2.58958 -1.74205 0
M  V30 12994 N 1217.95 0.594978 -1.45938 0
M  V30 12995 C 1219.2 1.35561 -1.50834 0
M  V30 12996 C 1219.53 1.93584 -0.154566 0
M  V30 12997 O 1218.81 1.75781 0.832541 0
M  V30 12998 C 1219.09 2.49414 -2.5974 0
M  V30 12999 C 1218.94 1.96506 -4.04605 0
M  V30 13000 C 1220.26 3.51505 -2.64825 0
M  V30 13001 H 1217.38 0.491549 -0.549134 0
M  V30 13002 H 1220.02 0.669536 -1.77812 0
M  V30 13003 H 1218.17 3.07939 -2.36866 0
M  V30 13004 H 1219.85 1.42533 -4.38728 0
M  V30 13005 H 1218.09 1.27418 -4.14665 0
M  V30 13006 H 1218.76 2.78636 -4.76515 0
M  V30 13007 H 1221.24 3.02841 -2.85353 0
M  V30 13008 H 1220.11 4.28641 -3.42867 0
M  V30 13009 H 1220.37 4.07942 -1.70399 0
M  V30 13010 N 1219.43 1.33438 0.838571 0
M  V30 13011 C 1220.68 1.25097 1.5962 0
M  V30 13012 C 1221.01 -0.182798 1.93338 0
M  V30 13013 O 1220.29 -1.1242 1.5872 0
M  V30 13014 C 1220.57 2.12655 2.90603 0
M  V30 13015 C 1220.42 3.64491 2.63565 0
M  V30 13016 C 1221.74 1.99994 3.92033 0
M  V30 13017 H 1218.86 0.455776 0.579169 0
M  V30 13018 H 1221.5 1.63542 0.967169 0
M  V30 13019 H 1219.65 1.79998 3.44286 0
M  V30 13020 H 1221.32 4.0744 2.16312 0
M  V30 13021 H 1219.57 3.86356 1.9726 0
M  V30 13022 H 1220.24 4.21101 3.569 0
M  V30 13023 H 1222.71 2.28635 3.47657 0
M  V30 13024 H 1221.59 2.63509 4.81512 0
M  V30 13025 H 1221.85 0.972263 4.31277 0
M  V30 13026 N 1220.91 -1.05686 1.16912 0
M  V30 13027 C 1222.14 -1.82821 0.979348 0
M  V30 13028 C 1222.56 -1.82196 -0.467575 0
M  V30 13029 O 1221.92 -1.22727 -1.33445 0
M  V30 13030 C 1221.97 -3.2705 1.51891 0
M  V30 13031 O 1221.07 -4.05899 0.729341 0
M  V30 13032 H 1220.41 -0.565455 0.348076 0
M  V30 13033 H 1222.94 -1.33211 1.55293 0
M  V30 13034 H 1222.95 -3.77859 1.53904 0
M  V30 13035 H 1221.63 -3.26819 2.5722 0
M  V30 13036 H 1220.2 -3.64646 0.780221 0
M  V30 13037 N 1222.39 -0.968567 -1.24324 0
M  V30 13038 C 1223.8 -0.675239 -1.44612 0
M  V30 13039 C 1224 0.762641 -1.8651 0
M  V30 13040 O 1223.06 1.53644 -2.00374 0
M  V30 13041 C 1224.37 -1.66007 -2.50723 0
M  V30 13042 C 1225.92 -1.6728 -2.6455 0
M  V30 13043 C 1226.4 -2.64563 -3.73859 0
M  V30 13044 N 1227.89 -2.6301 -3.81287 0
M  V30 13045 C 1228.62 -3.34957 -4.65394 0
M  V30 13046 N 1228.12 -4.16424 -5.53681 0
M  V30 13047 N 1229.91 -3.23778 -4.59483 0
M  V30 13048 H 1222.06 -1.89757 -0.954257 0
M  V30 13049 H 1224.33 -0.817004 -0.480841 0
M  V30 13050 H 1224.03 -2.68779 -2.26827 0
M  V30 13051 H 1223.91 -1.43353 -3.48898 0
M  V30 13052 H 1226.29 -0.652184 -2.87803 0
M  V30 13053 H 1226.37 -1.93997 -1.6673 0
M  V30 13054 H 1226.02 -3.66759 -3.51355 0
M  V30 13055 H 1225.95 -2.35124 -4.71194 0
M  V30 13056 H 1228.44 -2.03877 -3.18186 0
M  V30 13057 H 1228.75 -4.68207 -6.14818 0
M  V30 13058 H 1227.1 -4.20518 -5.53344 0
M  V30 13059 H 1230.29 -2.59594 -3.89524 0
M  V30 13060 H 1230.46 -3.80112 -5.24804 0
M  V30 13061 N 1223.87 1.39211 -0.738786 0
M  V30 13062 C 1225.28 1.54116 -0.414773 0
M  V30 13063 C 1225.48 1.70497 1.07392 0
M  V30 13064 O 1224.54 1.7076 1.86003 0
M  V30 13065 C 1225.85 2.7567 -1.2011 0
M  V30 13066 C 1227.4 2.89508 -1.1897 0
M  V30 13067 C 1227.87 4.14005 -1.95868 0
M  V30 13068 N 1229.37 4.21052 -1.93053 0
M  V30 13069 C 1230.1 5.16341 -2.49358 0
M  V30 13070 N 1229.6 6.17396 -3.14316 0
M  V30 13071 N 1231.39 5.08585 -2.3937 0
M  V30 13072 H 1223.54 1.26827 -1.70378 0
M  V30 13073 H 1225.8 0.614983 -0.721457 0
M  V30 13074 H 1225.51 2.69922 -2.25467 0
M  V30 13075 H 1225.38 3.68443 -0.808065 0
M  V30 13076 H 1227.77 2.94747 -0.144248 0
M  V30 13077 H 1227.85 1.97788 -1.62214 0
M  V30 13078 H 1227.5 4.09527 -3.00416 0
M  V30 13079 H 1227.43 5.04776 -1.50028 0
M  V30 13080 H 1229.92 3.48669 -1.45733 0
M  V30 13081 H 1230.23 6.86572 -3.54737 0
M  V30 13082 H 1228.57 6.17772 -3.18407 0
M  V30 13083 H 1231.77 4.28573 -1.88262 0
M  V30 13084 H 1231.94 5.8267 -2.83549 0
M  V30 13085 N 1225.34 0.486708 1.49896 0
M  V30 13086 C 1226.31 -0.288126 2.27382 0
M  V30 13087 C 1227.31 -0.906675 1.32801 0
M  V30 13088 O 1228.5 -0.773425 1.56089 0
M  V30 13089 C 1225.63 -1.41194 3.10285 0
M  V30 13090 H 1226.82 0.391618 2.97332 0
M  V30 13091 H 1224.38 0.24123 1.54427 0
M  V30 13092 H 1225.11 -2.12627 2.44868 0
M  V30 13093 H 1224.9 -0.974033 3.79809 0
M  V30 13094 H 1226.39 -1.95812 3.68846 0
M  V30 13095 N 1226.82 -1.56058 0.219941 0
M  V30 13096 C 1227.79 -2.18964 -0.677303 0
M  V30 13097 C 1228.79 -1.15105 -1.12283 0
M  V30 13098 O 1229.98 -1.40348 -1.03189 0
M  V30 13099 C 1227.11 -2.81167 -1.92764 0
M  V30 13100 H 1228.3 -2.99623 -0.128877 0
M  V30 13101 H 1225.85 -1.56272 -0.0296744 0
M  V30 13102 H 1226.59 -2.04374 -2.51797 0
M  V30 13103 H 1226.37 -3.5722 -1.61666 0
M  V30 13104 H 1227.86 -3.29391 -2.56693 0
M  V30 13105 N 1228.3 0.053464 -1.57509 0
M  V30 13106 C 1229.23 1.08863 -2.01696 0
M  V30 13107 C 1230.25 1.33916 -0.925765 0
M  V30 13108 O 1231.44 1.31833 -1.20343 0
M  V30 13109 C 1228.54 2.43567 -2.35644 0
M  V30 13110 C 1227.71 2.38215 -3.66841 0
M  V30 13111 C 1226.77 3.55172 -3.88252 0
M  V30 13112 O 1225.79 3.35769 -4.59617 0
M  V30 13113 N 1227 4.76182 -3.3201 0
M  V30 13114 H 1229.76 0.712192 -2.91115 0
M  V30 13115 H 1227.32 0.241829 -1.60084 0
M  V30 13116 H 1229.31 3.20486 -2.47125 0
M  V30 13117 H 1227.88 2.73145 -1.52022 0
M  V30 13118 H 1227.1 1.46557 -3.65943 0
M  V30 13119 H 1228.39 2.31757 -4.52953 0
M  V30 13120 H 1227.79 4.94849 -2.74118 0
M  V30 13121 H 1226.35 5.5055 -3.4891 0
M  V30 13122 N 1229.78 1.54207 0.325255 0
M  V30 13123 C 1230.71 1.86467 1.40543 0
M  V30 13124 C 1231.69 0.721324 1.54048 0
M  V30 13125 O 1232.88 0.974905 1.67956 0
M  V30 13126 C 1230.01 2.09052 2.77335 0
M  V30 13127 C 1228.96 3.24893 2.78619 0
M  V30 13128 C 1228.29 3.32846 4.1847 0
M  V30 13129 C 1229.59 4.62582 2.42518 0
M  V30 13130 H 1231.28 2.76932 1.13794 0
M  V30 13131 H 1228.83 1.33248 0.545971 0
M  V30 13132 H 1230.78 2.30204 3.52964 0
M  V30 13133 H 1229.5 1.15335 3.05558 0
M  V30 13134 H 1228.16 3.03625 2.05444 0
M  V30 13135 H 1227.81 2.3669 4.43832 0
M  V30 13136 H 1227.51 4.10701 4.20237 0
M  V30 13137 H 1229.03 3.56231 4.95915 0
M  V30 13138 H 1230.45 4.83627 3.07861 0
M  V30 13139 H 1228.84 5.42974 2.55538 0
M  V30 13140 H 1229.91 4.64946 1.3767 0
M  V30 13141 N 1231.26 -0.58723 1.46251 0
M  V30 13142 C 1232.5 -1.3567 1.52882 0
M  V30 13143 C 1232.86 -1.91206 0.174438 0
M  V30 13144 O 1234.06 -2.68552 0.115491 0
M  V30 13145 C 1232.33 -2.45914 2.59347 0
M  V30 13146 S 1233.89 -3.33347 2.85351 0
M  V30 13147 H 1230.71 -0.462276 0.540205 0
M  V30 13148 H 1233.31 -0.675537 1.83458 0
M  V30 13149 H 1232.02 -2.03498 3.56394 0
M  V30 13150 H 1231.55 -3.18807 2.30489 0
M  V30 13151 H 1233.56 -4.44626 2.20278 0
M  V30 13152 N 1232.74 -1.33881 -0.831482 0
M  V30 13153 C 1233.98 -1.25507 -1.58406 0
M  V30 13154 C 1234.3 0.177137 -1.94194 0
M  V30 13155 O 1233.57 1.10769 -1.61576 0
M  V30 13156 H 1232.15 -0.461551 -0.587349 0
M  V30 13157 H 1234.82 -1.6769 -0.99328 0
M  V30 13158 H 1233.91 -1.85391 -2.51071 0
M  V30 13159 N 1234.21 1.05064 -1.1747 0
M  V30 13160 C 1235.18 2.1101 -0.89485 0
M  V30 13161 C 1236.18 1.60384 0.11553 0
M  V30 13162 O 1237.37 1.73808 -0.116785 0
M  V30 13163 C 1234.5 3.39194 -0.340642 0
M  V30 13164 H 1235.69 2.37269 -1.83421 0
M  V30 13165 H 1233.24 1.21329 -0.985343 0
M  V30 13166 H 1233.98 3.18591 0.605808 0
M  V30 13167 H 1233.76 3.77251 -1.06885 0
M  V30 13168 H 1235.25 4.17281 -0.163204 0
M  V30 13169 N 1235.69 0.975146 1.23809 0
M  V30 13170 C 1236.94 0.639858 1.91704 0
M  V30 13171 C 1237.26 -0.828557 1.76522 0
M  V30 13172 O 1236.53 -1.59217 1.14135 0
M  V30 13173 H 1235.11 0.233667 0.709513 0
M  V30 13174 H 1237.77 1.23782 1.50545 0
M  V30 13175 H 1236.87 0.886915 2.99233 0
M  V30 13176 N 1237.17 -1.38817 0.746158 0
M  V30 13177 C 1238.1 -2.28116 0.0620717 0
M  V30 13178 C 1239.08 -1.44984 -0.736097 0
M  V30 13179 O 1240.26 -1.7436 -0.7163 0
M  V30 13180 C 1237.39 -3.25992 -0.919065 0
M  V30 13181 C 1236.44 -4.25992 -0.208033 0
M  V30 13182 S 1237.27 -5.24374 1.08593 0
M  V30 13183 C 1238.43 -6.25807 0.107674 0
M  V30 13184 H 1238.66 -2.85787 0.819331 0
M  V30 13185 H 1236.19 -1.44708 0.538422 0
M  V30 13186 H 1238.15 -3.82899 -1.47982 0
M  V30 13187 H 1236.81 -2.67318 -1.64924 0
M  V30 13188 H 1236 -4.9495 -0.95084 0
M  V30 13189 H 1235.61 -3.72943 0.280998 0
M  V30 13190 H 1237.9 -6.73568 -0.728905 0
M  V30 13191 H 1238.84 -7.03959 0.764698 0
M  V30 13192 H 1239.25 -5.63855 -0.269706 0
M  V30 13193 N 1238.65 -0.49465 -1.49636 0
M  V30 13194 C 1239.61 0.276064 -2.27531 0
M  V30 13195 C 1240.61 0.899619 -1.3328 0
M  V30 13196 O 1241.8 0.765136 -1.56497 0
M  V30 13197 C 1238.93 1.39547 -3.1103 0
M  V30 13198 H 1240.13 -0.407381 -2.9712 0
M  V30 13199 H 1237.68 -0.249416 -1.54297 0
M  V30 13200 H 1238.41 2.11326 -2.45992 0
M  V30 13201 H 1238.2 0.953877 -3.8032 0
M  V30 13202 H 1239.69 1.93853 -3.69879 0
M  V30 13203 N 1240.13 1.55939 -0.228214 0
M  V30 13204 C 1241.09 2.1932 0.665681 0
M  V30 13205 C 1242.09 1.15699 1.11671 0
M  V30 13206 O 1243.28 1.40893 1.02444 0
M  V30 13207 C 1240.41 2.82185 1.9127 0
M  V30 13208 H 1241.6 2.99687 0.112986 0
M  V30 13209 H 1239.16 1.56285 0.0213865 0
M  V30 13210 H 1239.89 2.05706 2.5071 0
M  V30 13211 H 1239.68 3.58073 1.5977 0
M  V30 13212 H 1241.17 3.30748 2.54942 0
M  V30 13213 N 1241.6 -0.0451101 1.57535 0
M  V30 13214 C 1242.85 -0.740209 1.88809 0
M  V30 13215 C 1243.18 -1.75854 0.823956 0
M  V30 13216 O 1242.46 -1.93817 -0.16286 0
M  V30 13217 C 1242.74 -1.42424 3.30737 0
M  V30 13218 C 1242.59 -0.42052 4.4783 0
M  V30 13219 C 1243.91 -2.36241 3.7132 0
M  V30 13220 H 1241.03 -0.267628 0.686691 0
M  V30 13221 H 1243.67 -0.00309149 1.9 0
M  V30 13222 H 1241.82 -2.05254 3.29853 0
M  V30 13223 H 1243.5 0.204625 4.60846 0
M  V30 13224 H 1241.74 0.261739 4.3301 0
M  V30 13225 H 1242.41 -0.937298 5.43984 0
M  V30 13226 H 1244.89 -1.83468 3.73468 0
M  V30 13227 H 1243.76 -2.81091 4.71465 0
M  V30 13228 H 1244.02 -3.2222 3.02699 0
M  V30 13229 N 1243.08 -1.54377 -0.317073 0
M  V30 13230 C 1244.33 -1.73149 -1.05581 0
M  V30 13231 C 1244.66 -0.507176 -1.8746 0
M  V30 13232 O 1243.94 0.495837 -1.88074 0
M  V30 13233 C 1244.22 -3.01098 -1.97515 0
M  V30 13234 C 1244.07 -4.33794 -1.18922 0
M  V30 13235 C 1245.39 -3.24831 -2.9694 0
M  V30 13236 H 1242.51 -0.630011 -0.382434 0
M  V30 13237 H 1245.15 -1.87079 -0.331873 0
M  V30 13238 H 1243.3 -2.89352 -2.59244 0
M  V30 13239 H 1244.97 -4.57433 -0.596039 0
M  V30 13240 H 1243.22 -4.31005 -0.491612 0
M  V30 13241 H 1243.89 -5.19554 -1.86462 0
M  V30 13242 H 1246.36 -3.3608 -2.45335 0
M  V30 13243 H 1245.24 -4.15702 -3.58445 0
M  V30 13244 H 1245.5 -2.42365 -3.69745 0
M  V30 13245 N 1244.56 0.579466 -1.4656 0
M  V30 13246 C 1245.84 1.33973 -1.42515 0
M  V30 13247 C 1246.22 2.10812 -0.110317 0
M  V30 13248 O 1245.57 2.09679 0.908135 0
M  V30 13249 C 1245.78 2.26301 -2.65686 0
M  V30 13250 C 1247.12 2.88027 -3.1197 0
M  V30 13251 O 1248.15 2.36612 -2.66257 0
M  V30 13252 O 1247.01 3.81423 -3.9138 0
M  V30 13253 H 1244.1 0.602121 -0.566903 0
M  V30 13254 H 1246.65 0.600214 -1.58731 0
M  V30 13255 H 1245.42 1.68973 -3.52936 0
M  V30 13256 H 1245.04 3.07586 -2.51945 0
M  V30 13257 N 1246.04 1.3432 0.824371 0
M  V30 13258 C 1246.99 1.25776 1.93517 0
M  V30 13259 C 1247.96 0.133298 1.65564 0
M  V30 13260 O 1249.14 0.31403 1.88198 0
M  V30 13261 C 1246.28 1.01766 3.29754 0
M  V30 13262 C 1245.39 2.22973 3.7001 0
M  V30 13263 C 1244.53 1.92258 4.95187 0
M  V30 13264 C 1243.57 3.09616 5.2802 0
M  V30 13265 N 1242.7 2.78793 6.44375 0
M  V30 13266 H 1247.54 2.20774 2.00157 0
M  V30 13267 H 1245.08 1.09766 0.979274 0
M  V30 13268 H 1247.04 0.858831 4.08265 0
M  V30 13269 H 1245.67 0.10437 3.22631 0
M  V30 13270 H 1244.72 2.49781 2.86903 0
M  V30 13271 H 1246.03 3.10661 3.90245 0
M  V30 13272 H 1245.19 1.73102 5.81481 0
M  V30 13273 H 1243.93 1.01827 4.76951 0
M  V30 13274 H 1242.93 3.29368 4.40223 0
M  V30 13275 H 1244.16 4.00822 5.48196 0
M  V30 13276 H 1242.1 1.90938 6.27598 0
M  V30 13277 H 1242.02 3.60014 6.64775 0
M  V30 13278 H 1243.29 2.63139 7.33743 0
M  V30 13279 N 1247.52 -1.0444 1.18026 0
M  V30 13280 C 1248.77 -1.7697 0.9677 0
M  V30 13281 C 1249.08 -1.88995 -0.503994 0
M  V30 13282 O 1250.28 -2.58342 -0.834968 0
M  V30 13283 C 1248.74 -3.1816 1.68232 0
M  V30 13284 C 1248.35 -3.14241 3.19307 0
M  V30 13285 C 1250.09 -3.95095 1.55244 0
M  V30 13286 C 1248 -4.50266 3.83425 0
M  V30 13287 H 1246.93 -0.663355 0.358436 0
M  V30 13288 H 1249.58 -1.17003 1.4136 0
M  V30 13289 H 1247.96 -3.78501 1.16418 0
M  V30 13290 H 1249.14 -2.63373 3.78115 0
M  V30 13291 H 1247.45 -2.50805 3.32394 0
M  V30 13292 H 1250.05 -4.95681 2.00511 0
M  V30 13293 H 1250.39 -4.13236 0.504125 0
M  V30 13294 H 1250.92 -3.4132 2.04317 0
M  V30 13295 H 1247.66 -4.37329 4.88286 0
M  V30 13296 H 1247.18 -5.01251 3.29404 0
M  V30 13297 H 1248.86 -5.1919 3.86071 0
M  V30 13298 N 1248.99 -0.981699 -1.2329 0
M  V30 13299 C 1250.41 -0.690539 -1.43888 0
M  V30 13300 C 1250.61 0.742816 -1.87309 0
M  V30 13301 O 1249.67 1.5151 -2.01993 0
M  V30 13302 C 1250.98 -1.68657 -2.48948 0
M  V30 13303 C 1252.53 -1.70076 -2.62761 0
M  V30 13304 C 1253 -2.68513 -3.71032 0
M  V30 13305 N 1254.49 -2.67039 -3.78476 0
M  V30 13306 C 1255.23 -3.39874 -4.61815 0
M  V30 13307 N 1254.72 -4.22273 -5.49233 0
M  V30 13308 N 1256.52 -3.28633 -4.56023 0
M  V30 13309 H 1248.67 -1.90758 -0.934077 0
M  V30 13310 H 1250.93 -0.822058 -0.472149 0
M  V30 13311 H 1250.64 -2.7117 -2.23964 0
M  V30 13312 H 1250.51 -1.47045 -3.47358 0
M  V30 13313 H 1252.9 -0.682673 -2.87095 0
M  V30 13314 H 1252.98 -1.95754 -1.64663 0
M  V30 13315 H 1252.62 -3.70464 -3.47446 0
M  V30 13316 H 1252.55 -2.40109 -4.68674 0
M  V30 13317 H 1255.04 -2.07241 -3.16006 0
M  V30 13318 H 1255.36 -4.74702 -6.09818 0
M  V30 13319 H 1253.7 -4.26364 -5.48852 0
M  V30 13320 H 1256.89 -2.6371 -3.86749 0
M  V30 13321 H 1257.07 -3.85656 -5.20743 0
M  V30 13322 N 1250.47 1.3842 -0.753509 0
M  V30 13323 C 1251.38 2.34252 -0.127811 0
M  V30 13324 C 1252.4 1.59266 0.700743 0
M  V30 13325 O 1253.57 1.9146 0.624914 0
M  V30 13326 C 1250.64 3.38382 0.754886 0
M  V30 13327 C 1249.7 4.2921 -0.0880312 0
M  V30 13328 C 1248.93 5.28367 0.75263 0
M  V30 13329 O 1249.16 5.34537 1.99064 0
M  V30 13330 O 1248.09 6.01656 0.171475 0
M  V30 13331 H 1251.92 2.89454 -0.91925 0
M  V30 13332 H 1249.5 1.40265 -0.514404 0
M  V30 13333 H 1251.38 4.02141 1.25938 0
M  V30 13334 H 1250.06 2.85536 1.52482 0
M  V30 13335 H 1248.97 3.68611 -0.638468 0
M  V30 13336 H 1250.3 4.85311 -0.82062 0
M  V30 13337 N 1251.95 0.502579 1.49372 0
M  V30 13338 C 1252.9 -0.288693 2.30801 0
M  V30 13339 C 1253.89 -0.961303 1.39482 0
M  V30 13340 O 1255.1 -0.888812 1.56525 0
M  V30 13341 H 1251.47 -0.111958 0.743619 0
M  V30 13342 H 1253.44 0.418062 2.95457 0
M  V30 13343 C 1252.19 -1.33938 3.20867 0
M  V30 13344 H 1251.52 -0.831219 3.91064 0
M  V30 13345 H 1252.96 -1.86498 3.80781 0
M  V30 13346 C 1251.42 -2.35839 2.40586 0
M  V30 13347 O 1251.95 -3.41752 2.11113 0
M  V30 13348 N 1250.15 -2.0835 2.0258 0
M  V30 13349 H 1249.7 -1.2224 2.26749 0
M  V30 13350 H 1249.66 -2.76758 1.49173 0
M  V30 13351 N 1253.43 -1.55816 0.23648 0
M  V30 13352 C 1254.84 -1.59159 -0.118601 0
M  V30 13353 C 1255.04 -1.25352 -1.57763 0
M  V30 13354 O 1254.1 -0.995863 -2.32032 0
M  V30 13355 C 1255.41 -2.99885 0.221175 0
M  V30 13356 C 1256.96 -3.12567 0.164624 0
M  V30 13357 C 1257.44 -4.55496 0.478285 0
M  V30 13358 N 1258.93 -4.61215 0.428402 0
M  V30 13359 C 1259.66 -5.69768 0.644398 0
M  V30 13360 N 1259.16 -6.86624 0.922966 0
M  V30 13361 N 1260.95 -5.59143 0.575814 0
M  V30 13362 H 1253.1 -1.76063 1.18809 0
M  V30 13363 H 1255.37 -0.819079 0.477297 0
M  V30 13364 H 1255.07 -3.29326 1.2344 0
M  V30 13365 H 1254.95 -3.74425 -0.456723 0
M  V30 13366 H 1257.33 -2.82914 -0.839263 0
M  V30 13367 H 1257.41 -2.40325 0.876219 0
M  V30 13368 H 1257.06 -4.85868 1.47968 0
M  V30 13369 H 1256.99 -5.25984 -0.254671 0
M  V30 13370 H 1259.48 -3.77251 0.221398 0
M  V30 13371 H 1259.79 -7.6528 1.07548 0
M  V30 13372 H 1258.14 -6.88333 0.960325 0
M  V30 13373 H 1261.33 -4.66727 0.358307 0
M  V30 13374 H 1261.5 -6.43674 0.747548 0
M  V30 13375 N 1254.91 0.036755 -1.57557 0
M  V30 13376 C 1256.15 0.727665 -1.88546 0
M  V30 13377 C 1256.48 1.76304 -0.833179 0
M  V30 13378 O 1255.75 1.9544 0.13414 0
M  V30 13379 H 1254.33 0.271744 -0.695819 0
M  V30 13380 H 1256.99 0.00452915 -1.94899 0
M  V30 13381 H 1256.08 1.22205 -2.8718 0
M  V30 13382 N 1256.39 1.54543 0.308881 0
M  V30 13383 C 1257.32 1.87947 1.38557 0
M  V30 13384 C 1258.3 0.737622 1.53275 0
M  V30 13385 O 1259.48 0.992664 1.66913 0
M  V30 13386 C 1256.61 2.11982 2.75102 0
M  V30 13387 C 1255.57 3.2783 2.75158 0
M  V30 13388 C 1254.89 3.37266 4.14917 0
M  V30 13389 C 1256.19 4.65129 2.37598 0
M  V30 13390 H 1257.89 2.78123 1.1085 0
M  V30 13391 H 1255.43 1.3382 0.531808 0
M  V30 13392 H 1257.38 2.33935 3.50503 0
M  V30 13393 H 1256.11 1.18569 3.04317 0
M  V30 13394 H 1254.77 3.05787 2.02212 0
M  V30 13395 H 1254.42 2.41384 4.41296 0
M  V30 13396 H 1254.12 4.15135 4.15857 0
M  V30 13397 H 1255.64 3.61471 4.92109 0
M  V30 13398 H 1257.05 4.86865 3.02714 0
M  V30 13399 H 1255.45 5.45653 2.49765 0
M  V30 13400 H 1256.52 4.6638 1.32731 0
M  V30 13401 N 1257.86 -0.571685 1.46866 0
M  V30 13402 C 1259.14 -1.33216 1.43223 0
M  V30 13403 C 1259.52 -2.1075 0.121495 0
M  V30 13404 O 1258.87 -2.10157 -0.897003 0
M  V30 13405 C 1259.08 -2.24888 2.66882 0
M  V30 13406 C 1260.43 -2.86369 3.13493 0
M  V30 13407 O 1261.45 -2.35197 2.67509 0
M  V30 13408 O 1260.31 -3.79342 3.93398 0
M  V30 13409 H 1257.4 -0.599106 0.570089 0
M  V30 13410 H 1259.95 -0.591788 1.59047 0
M  V30 13411 H 1258.72 -1.67099 3.53827 0
M  V30 13412 H 1258.34 -3.06246 2.53573 0
M  V30 13413 N 1259.34 -1.34755 -0.817236 0
M  V30 13414 C 1260.76 -1.14561 -1.11121 0
M  V30 13415 C 1260.96 0.0490776 -2.0144 0
M  V30 13416 O 1260.01 0.722897 -2.41931 0
M  V30 13417 C 1261.33 -2.44356 -1.75244 0
M  V30 13418 C 1262.87 -2.50465 -1.87713 0
M  V30 13419 C 1263.35 -3.80276 -2.55253 0
M  V30 13420 N 1264.84 -3.81468 -2.62747 0
M  V30 13421 C 1265.58 -4.78634 -3.15749 0
M  V30 13422 N 1265.07 -5.86184 -3.6927 0
M  V30 13423 N 1266.86 -4.66083 -3.14203 0
M  V30 13424 H 1259.02 -2.11293 -0.2166 0
M  V30 13425 H 1261.28 -0.934629 -0.158661 0
M  V30 13426 H 1260.98 -3.31899 -1.16344 0
M  V30 13427 H 1260.86 -2.58117 -2.75055 0
M  V30 13428 H 1263.25 -1.63358 -2.45761 0
M  V30 13429 H 1263.33 -2.40627 -0.867887 0
M  V30 13430 H 1262.97 -4.67776 -1.97858 0
M  V30 13431 H 1262.9 -3.87399 -3.56693 0
M  V30 13432 H 1265.39 -3.03753 -2.24817 0
M  V30 13433 H 1265.7 -6.56332 -4.0798 0
M  V30 13434 H 1264.05 -5.8989 -3.67498 0
M  V30 13435 H 1267.24 -3.81206 -2.7166 0
M  V30 13436 H 1267.41 -5.41973 -3.55203 0
M  V30 13437 N 1260.82 1.03812 -1.18578 0
M  V30 13438 C 1261.75 2.13802 -0.938665 0
M  V30 13439 C 1262.73 1.69643 0.124575 0
M  V30 13440 O 1263.92 1.94179 -0.0285421 0
M  V30 13441 C 1261.05 3.44154 -0.466392 0
M  V30 13442 C 1260 4.01949 -1.47041 0
M  V30 13443 C 1259.33 5.27811 -0.855558 0
M  V30 13444 C 1260.63 4.37827 -2.84789 0
M  V30 13445 H 1262.32 2.34732 -1.85852 0
M  V30 13446 H 1259.87 1.12808 -0.895007 0
M  V30 13447 H 1261.82 4.20463 -0.280856 0
M  V30 13448 H 1260.54 3.22918 0.489041 0
M  V30 13449 H 1259.2 3.27725 -1.64293 0
M  V30 13450 H 1258.85 5.02886 0.107142 0
M  V30 13451 H 1258.55 5.67441 -1.52592 0
M  V30 13452 H 1260.07 6.06795 -0.680609 0
M  V30 13453 H 1261.49 5.05112 -2.71173 0
M  V30 13454 H 1259.88 4.88514 -3.48532 0
M  V30 13455 H 1260.95 3.47541 -3.38147 0
M  V30 13456 N 1262.3 0.988223 1.22768 0
M  V30 13457 C 1263.25 0.527454 2.26541 0
M  V30 13458 C 1264.24 -0.419506 1.64123 0
M  V30 13459 O 1265.45 -0.292539 1.77607 0
M  V30 13460 H 1261.82 0.152165 0.736444 0
M  V30 13461 H 1263.79 1.41422 2.62759 0
M  V30 13462 C 1262.54 -0.146845 3.4739 0
M  V30 13463 H 1261.86 0.572752 3.95676 0
M  V30 13464 H 1263.3 -0.432768 4.21786 0
M  V30 13465 C 1261.76 -1.38065 3.0731 0
M  V30 13466 O 1262.29 -2.47634 3.16291 0
M  V30 13467 N 1260.5 -1.25418 2.62143 0
M  V30 13468 H 1260.05 -0.362641 2.55035 0
M  V30 13469 H 1260 -2.08077 2.35694 0
M  V30 13470 N 1263.78 -1.38018 0.760839 0
M  V30 13471 C 1265.02 -2.00248 0.320716 0
M  V30 13472 C 1265.35 -1.60259 -1.09684 0
M  V30 13473 O 1264.63 -0.843567 -1.75255 0
M  V30 13474 C 1264.91 -3.57254 0.451849 0
M  V30 13475 C 1264.77 -4.07185 1.91103 0
M  V30 13476 C 1266.08 -4.39843 -0.150439 0
M  V30 13477 H 1263.2 -0.727491 0.118007 0
M  V30 13478 H 1265.85 -1.63855 0.961842 0
M  V30 13479 H 1264 -3.88386 -0.0939672 0
M  V30 13480 H 1265.67 -3.86665 2.51571 0
M  V30 13481 H 1263.91 -3.59782 2.42362 0
M  V30 13482 H 1264.58 -5.16262 1.9539 0
M  V30 13483 H 1267.06 -4.14905 0.315145 0
M  V30 13484 H 1265.93 -5.48893 -0.0284853 0
M  V30 13485 H 1266.19 -4.24367 -1.23956 0
M  V30 13486 N 1265.25 -0.510493 -1.49103 0
M  V30 13487 C 1266.48 0.0271718 -2.06882 0
M  V30 13488 C 1266.9 1.2995 -1.36962 0
M  V30 13489 O 1266.25 1.76842 -0.450916 0
M  V30 13490 C 1266.3 0.274956 -3.60453 0
M  V30 13491 O 1266.03 -0.946941 -4.27744 0
M  V30 13492 C 1267.53 0.855197 -4.34973 0
M  V30 13493 H 1264.75 -0.024732 -0.670544 0
M  V30 13494 H 1267.29 -0.710567 -1.91758 0
M  V30 13495 H 1265.45 0.962696 -3.75248 0
M  V30 13496 H 1265.86 -0.715627 -5.19595 0
M  V30 13497 H 1267.33 0.978103 -5.43265 0
M  V30 13498 H 1267.81 1.85535 -3.98087 0
M  V30 13499 H 1268.42 0.204632 -4.24807 0
M  V30 13500 N 1266.73 1.55688 -0.24474 0
M  V30 13501 C 1267.98 1.99186 0.381167 0
M  V30 13502 C 1268.31 1.13266 1.57748 0
M  V30 13503 O 1267.59 0.195568 1.93514 0
M  V30 13504 C 1267.87 3.51257 0.793142 0
M  V30 13505 C 1267.72 4.47942 -0.408409 0
M  V30 13506 C 1269.04 4.08365 1.64091 0
M  V30 13507 H 1266.16 0.724141 0.137073 0
M  V30 13508 H 1268.8 1.8683 -0.345619 0
M  V30 13509 H 1266.95 3.61917 1.4124 0
M  V30 13510 H 1268.62 4.49265 -1.04682 0
M  V30 13511 H 1266.87 4.20854 -1.05189 0
M  V30 13512 H 1267.54 5.51946 -0.0768531 0
M  V30 13513 H 1270.01 4.00794 1.1182 0
M  V30 13514 H 1268.89 5.1504 1.89802 0
M  V30 13515 H 1269.15 3.56687 2.61202 0
M  V30 13516 N 1268.21 -0.0283989 1.57574 0
M  V30 13517 C 1269.46 -0.717656 1.88929 0
M  V30 13518 C 1269.78 -1.7586 0.842517 0
M  V30 13519 O 1269.05 -1.95509 -0.123774 0
M  V30 13520 H 1267.63 -0.268051 0.69725 0
M  V30 13521 H 1270.29 0.00580691 1.94899 0
M  V30 13522 H 1269.39 -1.2068 2.87824 0
M  V30 13523 N 1269.69 -1.54705 -0.300681 0
M  V30 13524 C 1270.93 -1.74259 -1.03738 0
M  V30 13525 C 1271.27 -0.52703 -1.86912 0
M  V30 13526 O 1270.54 0.475862 -1.88589 0
M  V30 13527 C 1270.82 -3.03175 -1.94311 0
M  V30 13528 C 1270.68 -4.35031 -1.14315 0
M  V30 13529 C 1272 -3.27962 -2.93478 0
M  V30 13530 H 1269.12 -0.634031 -0.37573 0
M  V30 13531 H 1271.76 -1.87421 -0.312012 0
M  V30 13532 H 1269.91 -2.92086 -2.5616 0
M  V30 13533 H 1271.58 -4.5804 -0.547489 0
M  V30 13534 H 1269.82 -4.31503 -0.44587 0
M  V30 13535 H 1270.49 -5.21502 -1.80941 0
M  V30 13536 H 1272.97 -3.38663 -2.41757 0
M  V30 13537 H 1271.85 -4.19481 -3.54016 0
M  V30 13538 H 1272.11 -2.46273 -3.67154 0
M  V30 13539 N 1271.17 0.563888 -1.47167 0
M  V30 13540 C 1272.44 1.32454 -1.43928 0
M  V30 13541 C 1272.82 2.10683 -0.13267 0
M  V30 13542 O 1272.17 2.1063 0.885845 0
M  V30 13543 C 1272.38 2.2347 -2.68071 0
M  V30 13544 C 1273.73 2.84702 -3.15008 0
M  V30 13545 O 1274.75 2.33775 -2.68752 0
M  V30 13546 O 1273.61 3.77251 -3.95404 0
M  V30 13547 H 1270.71 0.596074 -0.573258 0
M  V30 13548 H 1273.25 0.583345 -1.59359 0
M  V30 13549 H 1272.02 1.6522 -3.54708 0
M  V30 13550 H 1271.65 3.04897 -2.55193 0
M  V30 13551 N 1272.64 1.35187 0.810078 0
M  V30 13552 C 1273.89 1.28011 1.56389 0
M  V30 13553 C 1274.21 -0.14622 1.94451 0
M  V30 13554 O 1273.48 -1.08185 1.63318 0
M  V30 13555 H 1272.06 0.470837 0.579932 0
M  V30 13556 H 1274.73 1.69249 0.966476 0
M  V30 13557 H 1273.82 1.89362 2.4809 0
M  V30 13558 N 1274.12 -1.03182 1.19127 0
M  V30 13559 C 1275.35 -1.80165 1.01726 0
M  V30 13560 C 1275.77 -1.83742 -0.434095 0
M  V30 13561 O 1275.12 -1.27932 -1.30152 0
M  V30 13562 C 1275.17 -3.25354 1.57566 0
M  V30 13563 O 1274.89 -3.22042 2.9702 0
M  V30 13564 C 1276.4 -4.18948 1.44906 0
M  V30 13565 H 1273.62 -0.567078 0.358698 0
M  V30 13566 H 1276.16 -1.29982 1.57877 0
M  V30 13567 H 1274.31 -3.72738 1.0557 0
M  V30 13568 H 1274.73 -4.13061 3.23235 0
M  V30 13569 H 1276.2 -5.18723 1.88762 0
M  V30 13570 H 1276.68 -4.37383 0.399125 0
M  V30 13571 H 1277.29 -3.77435 1.96018 0
M  V30 13572 N 1275.6 -0.99472 -1.22242 0
M  V30 13573 C 1276.53 -0.566499 -2.26524 0
M  V30 13574 C 1277.51 0.407541 -1.65146 0
M  V30 13575 O 1278.7 0.297777 -1.91903 0
M  V30 13576 C 1275.83 0.11786 -3.471 0
M  V30 13577 C 1274.78 -0.774908 -4.20927 0
M  V30 13578 C 1274.11 0.0424687 -5.34683 0
M  V30 13579 C 1275.41 -2.07263 -4.79416 0
M  V30 13580 H 1277.1 -1.43818 -2.62596 0
M  V30 13581 H 1274.65 -0.692971 -1.2623 0
M  V30 13582 H 1276.6 0.428842 -4.19212 0
M  V30 13583 H 1275.32 1.0241 -3.10129 0
M  V30 13584 H 1273.98 -1.06956 -3.50651 0
M  V30 13585 H 1273.63 0.949677 -4.93954 0
M  V30 13586 H 1273.33 -0.551867 -5.85003 0
M  V30 13587 H 1274.85 0.347504 -6.0961 0
M  V30 13588 H 1276.27 -1.82548 -5.4346 0
M  V30 13589 H 1274.67 -2.61594 -5.40082 0
M  V30 13590 H 1275.74 -2.75017 -3.99366 0
M  V30 13591 N 1277.08 1.37613 -0.768148 0
M  V30 13592 C 1278.31 2.03756 -0.341615 0
M  V30 13593 C 1278.72 1.58063 1.03984 0
M  V30 13594 O 1278.06 0.755609 1.6744 0
M  V30 13595 C 1278.12 3.58229 -0.302032 0
M  V30 13596 C 1277.79 4.27039 -1.62747 0
M  V30 13597 C 1278.78 4.51408 -2.57928 0
M  V30 13598 C 1276.47 4.64941 -1.90092 0
M  V30 13599 C 1278.46 5.12731 -3.78663 0
M  V30 13600 C 1276.15 5.25986 -3.11098 0
M  V30 13601 C 1277.15 5.49818 -4.05203 0
M  V30 13602 O 1276.83 6.09588 -5.24078 0
M  V30 13603 H 1276.57 0.660992 -0.141655 0
M  V30 13604 H 1279.12 1.77001 -1.04211 0
M  V30 13605 H 1277.35 3.84016 0.454811 0
M  V30 13606 H 1279.04 4.05784 0.0969452 0
M  V30 13607 H 1279.81 4.22542 -2.38083 0
M  V30 13608 H 1275.68 4.45729 -1.17674 0
M  V30 13609 H 1279.23 5.31249 -4.52129 0
M  V30 13610 H 1275.13 5.54276 -3.3083 0
M  V30 13611 H 1275.89 6.28068 -5.24855 0
M  V30 13612 N 1278.56 0.518393 1.4883 0
M  V30 13613 C 1279.5 -0.250684 2.29435 0
M  V30 13614 C 1280.47 -0.944481 1.36634 0
M  V30 13615 O 1281.66 -0.947766 1.65596 0
M  V30 13616 C 1278.8 -1.29871 3.1973 0
M  V30 13617 C 1277.91 -0.61493 4.27601 0
M  V30 13618 C 1277.05 -1.64489 5.05091 0
M  V30 13619 C 1276.09 -0.943932 6.04778 0
M  V30 13620 N 1275.22 -1.91889 6.75369 0
M  V30 13621 H 1280.06 0.44288 2.94691 0
M  V30 13622 H 1277.6 0.230246 1.45287 0
M  V30 13623 H 1279.56 -1.91851 3.70471 0
M  V30 13624 H 1278.19 -1.96081 2.56422 0
M  V30 13625 H 1277.24 0.118552 3.80215 0
M  V30 13626 H 1278.55 -0.063994 4.98759 0
M  V30 13627 H 1277.71 -2.33928 5.59788 0
M  V30 13628 H 1276.44 -2.2297 4.33746 0
M  V30 13629 H 1275.45 -0.235407 5.49296 0
M  V30 13630 H 1276.67 -0.365383 6.78116 0
M  V30 13631 H 1274.62 -2.493 6.06783 0
M  V30 13632 H 1274.54 -1.41909 7.42562 0
M  V30 13633 H 1275.81 -2.60563 7.34661 0
M  V30 13634 N 1280.03 -1.55556 0.252993 0
M  V30 13635 C 1280.96 -2.24613 -0.638047 0
M  V30 13636 C 1281.95 -1.22852 -1.1765 0
M  V30 13637 O 1283.13 -1.51519 -1.21472 0
M  V30 13638 C 1280.26 -2.95029 -1.83236 0
M  V30 13639 C 1279.21 -4.03531 -1.42641 0
M  V30 13640 C 1278.54 -4.61404 -2.70204 0
M  V30 13641 C 1279.84 -5.18923 -0.592958 0
M  V30 13642 H 1281.53 -2.99335 -0.0621918 0
M  V30 13643 H 1279.08 -1.43972 -0.0284722 0
M  V30 13644 H 1281.03 -3.42042 -2.46141 0
M  V30 13645 H 1279.76 -2.17805 -2.43369 0
M  V30 13646 H 1278.42 -3.57296 -0.820672 0
M  V30 13647 H 1278.06 -3.80874 -3.28548 0
M  V30 13648 H 1277.76 -5.34652 -2.43764 0
M  V30 13649 H 1279.29 -5.11154 -3.33997 0
M  V30 13650 H 1280.7 -5.62124 -1.12646 0
M  V30 13651 H 1279.1 -5.98598 -0.424358 0
M  V30 13652 H 1280.17 -4.83301 0.393434 0
M  V30 13653 N 1281.51 0.0200419 -1.57587 0
M  V30 13654 C 1282.46 1.0259 -2.03615 0
M  V30 13655 C 1283.45 1.31504 -0.927116 0
M  V30 13656 O 1284.64 1.30938 -1.19098 0
M  V30 13657 C 1281.77 2.32424 -2.52654 0
M  V30 13658 C 1280.85 2.06561 -3.70396 0
M  V30 13659 N 1281.24 1.50787 -4.82801 0
M  V30 13660 C 1279.54 2.36802 -3.77943 0
M  V30 13661 C 1280.24 1.40935 -5.64369 0
M  V30 13662 N 1279.22 1.88806 -5.09758 0
M  V30 13663 H 1283.02 0.588835 -2.87941 0
M  V30 13664 H 1280.54 0.226163 -1.60817 0
M  V30 13665 H 1282.53 3.05303 -2.83894 0
M  V30 13666 H 1281.19 2.76801 -1.69738 0
M  V30 13667 H 1282.2 1.18935 -5.04058 0
M  V30 13668 H 1278.88 2.84192 -3.05845 0
M  V30 13669 H 1280.27 0.982261 -6.64681 0
M  V30 13670 N 1282.99 1.54862 0.292472 0
M  V30 13671 C 1284.4 1.65459 0.864891 0
M  V30 13672 C 1284.75 0.568808 1.87774 0
M  V30 13673 O 1283.88 -0.293107 2.14406 0
M  V30 13674 C 1284.47 2.99939 1.5755 0
M  V30 13675 C 1283.03 3.12628 2.09621 0
M  V30 13676 C 1282.18 2.61179 0.931713 0
M  V30 13677 H 1285.13 1.58549 0.0692679 0
M  V30 13678 H 1285.15 2.91839 2.44152 0
M  V30 13679 H 1284.66 3.78943 0.838088 0
M  V30 13680 H 1282.76 2.3836 2.86383 0
M  V30 13681 H 1282.88 4.18911 2.32488 0
M  V30 13682 H 1281.24 2.17846 1.31967 0
M  V30 13683 H 1282.02 3.42669 0.208121 0
M  V30 13684 N 1284.47 -0.556076 1.47464 0
M  V30 13685 C 1285.42 -1.6586 1.56444 0
M  V30 13686 C 1286.4 -1.55233 0.423262 0
M  V30 13687 O 1287.59 -1.63696 0.673247 0
M  V30 13688 C 1284.72 -3.04633 1.58283 0
M  V30 13689 C 1283.81 -3.2046 2.77788 0
M  V30 13690 N 1284.2 -3.06347 4.02474 0
M  V30 13691 C 1282.5 -3.51462 2.74573 0
M  V30 13692 C 1283.2 -3.24893 4.82514 0
M  V30 13693 N 1282.18 -3.51278 4.14855 0
M  V30 13694 H 1285.98 -1.53519 2.50618 0
M  V30 13695 H 1283.49 -0.760862 1.43474 0
M  V30 13696 H 1285.49 -3.83797 1.62806 0
M  V30 13697 H 1284.15 -3.18085 0.652052 0
M  V30 13698 H 1285.16 -2.8365 4.33316 0
M  V30 13699 H 1281.84 -3.71434 1.90639 0
M  V30 13700 H 1283.23 -3.1894 5.91377 0
M  V30 13701 N 1285.95 -1.35615 -0.802897 0
M  V30 13702 C 1287.19 -1.29094 -1.56016 0
M  V30 13703 C 1287.52 0.133617 -1.9404 0
M  V30 13704 O 1286.78 1.09975 -1.61876 0
M  V30 13705 C 1287.08 -2.14653 -2.8576 0
M  V30 13706 C 1286.74 -3.63395 -2.66936 0
M  V30 13707 C 1285.4 -4.03937 -2.61511 0
M  V30 13708 C 1287.76 -4.57758 -2.49212 0
M  V30 13709 C 1285.08 -5.37006 -2.36309 0
M  V30 13710 C 1287.44 -5.91029 -2.25539 0
M  V30 13711 C 1286.1 -6.30712 -2.18538 0
M  V30 13712 H 1285.37 -0.472387 -0.570904 0
M  V30 13713 H 1288.02 -1.67545 -0.92741 0
M  V30 13714 H 1286.32 -1.69095 -3.53432 0
M  V30 13715 H 1288.02 -2.06941 -3.43477 0
M  V30 13716 H 1284.61 -3.31224 -2.72009 0
M  V30 13717 H 1288.79 -4.27318 -2.52414 0
M  V30 13718 H 1284.05 -5.66748 -2.29361 0
M  V30 13719 H 1288.22 -6.63724 -2.10816 0
M  V30 13720 H 1285.85 -7.33753 -1.98772 0
M  V30 13721 N 1287.43 1.02549 -1.19673 0
M  V30 13722 C 1288.65 1.8016 -1.02748 0
M  V30 13723 C 1289.08 1.83372 0.419105 0
M  V30 13724 O 1288.43 1.26222 1.30144 0
M  V30 13725 C 1288.48 3.22907 -1.60509 0
M  V30 13726 O 1287.59 4.03823 -0.836702 0
M  V30 13727 H 1286.93 0.556027 -0.362946 0
M  V30 13728 H 1289.46 1.29047 -1.5877 0
M  V30 13729 H 1289.47 3.73646 -1.63868 0
M  V30 13730 H 1288.14 3.19885 -2.65794 0
M  V30 13731 H 1286.72 3.6245 -0.876626 0
M  V30 13732 N 1288.9 1.00119 1.21713 0
M  V30 13733 C 1290.32 0.713343 1.42771 0
M  V30 13734 C 1290.52 -0.712923 1.88467 0
M  V30 13735 O 1289.58 -1.48277 2.04378 0
M  V30 13736 C 1290.89 1.72596 2.46234 0
M  V30 13737 C 1292.44 1.74235 2.60022 0
M  V30 13738 C 1292.91 2.74382 3.66713 0
M  V30 13739 N 1294.4 2.73027 3.7418 0
M  V30 13740 C 1295.14 3.47178 4.56349 0
M  V30 13741 N 1294.63 4.30958 5.42446 0
M  V30 13742 N 1296.43 3.35846 4.50737 0
M  V30 13743 H 1288.58 1.9222 0.903611 0
M  V30 13744 H 1290.84 0.829466 0.459011 0
M  V30 13745 H 1290.55 2.74699 2.19621 0
M  V30 13746 H 1290.42 1.52553 3.44975 0
M  V30 13747 H 1292.81 0.728261 2.85973 0
M  V30 13748 H 1292.89 1.98349 1.61528 0
M  V30 13749 H 1292.53 3.75945 3.41508 0
M  V30 13750 H 1292.46 2.47534 4.64795 0
M  V30 13751 H 1294.95 2.12242 3.12669 0
M  V30 13752 H 1295.27 4.84344 6.02189 0
M  V30 13753 H 1293.61 4.35042 5.42 0
M  V30 13754 H 1296.8 2.6983 3.82504 0
M  V30 13755 H 1296.98 3.93892 5.14541 0
M  V30 13756 N 1290.38 -1.37203 0.775435 0
M  V30 13757 C 1291.63 -1.98846 0.338093 0
M  V30 13758 C 1291.94 -1.6225 -1.09244 0
M  V30 13759 O 1293.15 -2.17024 -1.63135 0
M  V30 13760 C 1291.61 -3.55618 0.553541 0
M  V30 13761 C 1291.21 -4.01149 1.99457 0
M  V30 13762 C 1292.96 -4.24118 0.180006 0
M  V30 13763 C 1290.86 -5.50644 2.15742 0
M  V30 13764 H 1289.79 -0.743955 0.122669 0
M  V30 13765 H 1292.45 -1.56685 0.955087 0
M  V30 13766 H 1290.83 -3.95777 -0.132964 0
M  V30 13767 H 1292 -3.72226 2.71633 0
M  V30 13768 H 1290.32 -3.45443 2.32504 0
M  V30 13769 H 1292.91 -5.33966 0.280145 0
M  V30 13770 H 1293.26 -4.07104 -0.870192 0
M  V30 13771 H 1293.79 -3.89274 0.819201 0
M  V30 13772 H 1290.53 -5.7259 3.19094 0
M  V30 13773 H 1290.05 -5.8124 1.48054 0
M  V30 13774 H 1291.73 -6.16668 1.95781 0
M  V30 13775 N 1291.86 -0.526279 -1.48553 0
M  V30 13776 C 1292.79 0.2857 -2.26404 0
M  V30 13777 C 1293.77 0.948104 -1.32098 0
M  V30 13778 O 1294.95 0.973228 -1.61433 0
M  V30 13779 C 1292.08 1.40432 -3.08215 0
M  V30 13780 C 1291.13 0.853705 -4.17869 0
M  V30 13781 S 1291.96 -0.275518 -5.34791 0
M  V30 13782 C 1293.12 0.845667 -6.20161 0
M  V30 13783 H 1293.35 -0.375004 -2.94925 0
M  V30 13784 H 1290.88 -0.311999 -1.51215 0
M  V30 13785 H 1292.84 2.04513 -3.55928 0
M  V30 13786 H 1291.5 2.03673 -2.39115 0
M  V30 13787 H 1290.69 1.69278 -4.74722 0
M  V30 13788 H 1290.3 0.289659 -3.72877 0
M  V30 13789 H 1292.59 1.74517 -6.54637 0
M  V30 13790 H 1293.53 0.315189 -7.07398 0
M  V30 13791 H 1293.94 1.1244 -5.53188 0
M  V30 13792 N 1293.34 1.5542 -0.261239 0
M  V30 13793 C 1294.29 2.18644 0.646442 0
M  V30 13794 C 1295.27 1.14672 1.12868 0
M  V30 13795 O 1296.46 1.40534 1.07606 0
M  V30 13796 C 1293.59 2.90045 1.83655 0
M  V30 13797 C 1292.68 4.01289 1.37214 0
M  V30 13798 N 1293.07 5.01949 0.622927 0
M  V30 13799 C 1291.37 4.14107 1.65625 0
M  V30 13800 C 1292.07 5.80454 0.380569 0
M  V30 13801 N 1291.04 5.35253 0.94897 0
M  V30 13802 H 1294.85 2.93826 0.0660348 0
M  V30 13803 H 1292.36 1.62273 -0.0641794 0
M  V30 13804 H 1294.36 3.33778 2.49796 0
M  V30 13805 H 1293.02 2.16369 2.42104 0
M  V30 13806 H 1294.03 5.17187 0.271619 0
M  V30 13807 H 1290.71 3.51613 2.2511 0
M  V30 13808 H 1292.1 6.71545 -0.218528 0
M  V30 13809 N 1294.82 -0.0116844 1.57596 0
M  V30 13810 C 1295.75 -1.03477 2.04512 0
M  V30 13811 C 1296.76 -1.31414 0.960945 0
M  V30 13812 O 1297.95 -1.28596 1.23796 0
M  V30 13813 C 1295.05 -2.37234 2.42019 0
M  V30 13814 C 1294.22 -2.28405 3.73028 0
M  V30 13815 C 1293.28 -3.44753 3.97532 0
M  V30 13816 O 1292.31 -3.23465 4.68358 0
M  V30 13817 N 1293.51 -4.67212 3.44518 0
M  V30 13818 H 1296.27 -0.634758 2.92901 0
M  V30 13819 H 1293.84 -0.1993 1.60669 0
M  V30 13820 H 1295.83 -3.13821 2.55535 0
M  V30 13821 H 1294.4 -2.69018 1.5921 0
M  V30 13822 H 1293.62 -1.36804 3.697 0
M  V30 13823 H 1294.91 -2.19666 4.58938 0
M  V30 13824 H 1294.3 -4.87407 2.87142 0
M  V30 13825 H 1292.86 -5.41105 3.63384 0
M  V30 13826 N 1296.29 -1.55015 -0.284256 0
M  V30 13827 C 1297.52 -1.79102 -1.03586 0
M  V30 13828 C 1297.94 -0.558733 -1.80343 0
M  V30 13829 O 1297.29 0.471925 -1.76293 0
M  V30 13830 C 1297.34 -3.00915 -2.0033 0
M  V30 13831 O 1297.07 -4.19384 -1.26685 0
M  V30 13832 C 1298.57 -3.3752 -2.87394 0
M  V30 13833 H 1295.79 -0.596912 -0.306491 0
M  V30 13834 H 1298.33 -2.02005 -0.31845 0
M  V30 13835 H 1296.49 -2.80171 -2.67549 0
M  V30 13836 H 1296.9 -4.88175 -1.91796 0
M  V30 13837 H 1298.37 -4.25953 -3.51095 0
M  V30 13838 H 1298.85 -2.56418 -3.56576 0
M  V30 13839 H 1299.46 -3.60483 -2.25682 0
M  V30 13840 N 1297.77 0.548248 -1.47757 0
M  V30 13841 C 1299.02 1.30694 -1.55071 0
M  V30 13842 C 1299.35 1.92994 -0.216075 0
M  V30 13843 O 1298.63 1.78341 0.776196 0
M  V30 13844 C 1298.91 2.41024 -2.67543 0
M  V30 13845 C 1298.76 1.83534 -4.10652 0
M  V30 13846 C 1300.08 3.42902 -2.75874 0
M  V30 13847 H 1297.2 0.47383 -0.564494 0
M  V30 13848 H 1299.84 0.612628 -1.79852 0
M  V30 13849 H 1297.99 3.00248 -2.46543 0
M  V30 13850 H 1299.66 1.28503 -4.4304 0
M  V30 13851 H 1297.91 1.14161 -4.18509 0
M  V30 13852 H 1298.58 2.63335 -4.85138 0
M  V30 13853 H 1301.05 2.9361 -2.94843 0
M  V30 13854 H 1299.93 4.17516 -3.5633 0
M  V30 13855 H 1300.19 4.02314 -1.83291 0
M  V30 13856 N 1299.25 1.36039 0.795694 0
M  V30 13857 C 1300.2 1.29853 1.90806 0
M  V30 13858 C 1301.17 0.168387 1.65244 0
M  V30 13859 O 1302.35 0.353879 1.8749 0
M  V30 13860 C 1299.49 1.08737 3.27521 0
M  V30 13861 C 1298.6 2.30771 3.65197 0
M  V30 13862 C 1297.74 2.02718 4.90998 0
M  V30 13863 C 1296.78 3.20746 5.21333 0
M  V30 13864 N 1295.92 2.92399 6.38316 0
M  V30 13865 H 1300.76 2.2497 1.95429 0
M  V30 13866 H 1298.29 1.11819 0.955771 0
M  V30 13867 H 1300.25 0.945236 4.06351 0
M  V30 13868 H 1298.88 0.172781 3.22337 0
M  V30 13869 H 1297.93 2.5581 2.81541 0
M  V30 13870 H 1299.24 3.18869 3.83568 0
M  V30 13871 H 1298.4 1.85398 5.77679 0
M  V30 13872 H 1297.14 1.11921 4.74684 0
M  V30 13873 H 1296.14 3.38632 4.33138 0
M  V30 13874 H 1297.37 4.1236 5.3957 0
M  V30 13875 H 1295.31 2.04207 6.23406 0
M  V30 13876 H 1295.23 3.74034 6.56989 0
M  V30 13877 H 1296.5 2.78643 7.27996 0
M  V30 13878 N 1300.73 -1.01913 1.20215 0
M  V30 13879 C 1301.64 -2.13864 0.964328 0
M  V30 13880 C 1302.65 -1.73821 -0.0789556 0
M  V30 13881 O 1303.83 -2.01111 0.107914 0
M  V30 13882 C 1300.9 -3.42827 0.516757 0
M  V30 13883 C 1299.96 -3.97127 1.63059 0
M  V30 13884 C 1299.19 -5.19935 1.20428 0
M  V30 13885 O 1299.41 -5.70355 0.0719119 0
M  V30 13886 O 1298.35 -5.67322 2.01071 0
M  V30 13887 H 1302.17 -2.36795 1.90162 0
M  V30 13888 H 1299.76 -1.1226 0.985803 0
M  V30 13889 H 1301.64 -4.20493 0.276272 0
M  V30 13890 H 1300.31 -3.21318 -0.391983 0
M  V30 13891 H 1299.22 -3.20752 1.92533 0
M  V30 13892 H 1300.55 -4.2302 2.51624 0
M  V30 13893 N 1302.21 -1.00763 -1.2118 0
M  V30 13894 C 1303.14 -0.590493 -2.2591 0
M  V30 13895 C 1304.12 0.390002 -1.65569 0
M  V30 13896 O 1305.3 0.277406 -1.92208 0
M  V30 13897 C 1302.43 0.0810388 -3.47205 0
M  V30 13898 C 1301.39 -0.81951 -4.20081 0
M  V30 13899 C 1300.71 -0.014244 -5.34698 0
M  V30 13900 C 1302.01 -2.12336 -4.7719 0
M  V30 13901 H 1303.71 -1.46595 -2.61056 0
M  V30 13902 H 1301.25 -0.706321 -1.25487 0
M  V30 13903 H 1303.21 0.384355 -4.19644 0
M  V30 13904 H 1301.93 0.991145 -3.11197 0
M  V30 13905 H 1300.59 -1.10669 -3.49497 0
M  V30 13906 H 1300.24 0.897233 -4.94933 0
M  V30 13907 H 1299.94 -0.613883 -5.84384 0
M  V30 13908 H 1301.46 0.282827 -6.09945 0
M  V30 13909 H 1302.87 -1.88301 -5.41494 0
M  V30 13910 H 1301.27 -2.67308 -5.37277 0
M  V30 13911 H 1302.34 -2.79238 -3.96427 0
M  V30 13912 N 1303.68 1.3679 -0.7827 0
M  V30 13913 C 1304.91 2.04206 -0.362571 0
M  V30 13914 C 1305.33 1.58637 1.01074 0
M  V30 13915 O 1304.69 0.751692 1.64983 0
M  V30 13916 C 1304.74 3.58062 -0.4271 0
M  V30 13917 O 1303.84 4.08463 0.56845 0
M  V30 13918 H 1303.19 0.645638 -0.155073 0
M  V30 13919 H 1305.72 1.74883 -1.06194 0
M  V30 13920 H 1305.73 4.0698 -0.288298 0
M  V30 13921 H 1304.4 3.90582 -1.42893 0
M  V30 13922 H 1302.98 3.70835 0.391863 0
M  V30 13923 N 1305.16 0.53415 1.48272 0
M  V30 13924 C 1306.57 0.0947592 1.86459 0
M  V30 13925 C 1306.92 -1.32906 1.44328 0
M  V30 13926 O 1306.05 -1.99605 0.835866 0
M  V30 13927 C 1306.64 0.16519 3.38397 0
M  V30 13928 C 1305.2 -0.219029 3.75762 0
M  V30 13929 C 1304.35 0.523097 2.72321 0
M  V30 13930 H 1307.3 0.74517 1.40117 0
M  V30 13931 H 1307.32 -0.622065 3.75381 0
M  V30 13932 H 1306.83 1.20157 3.69031 0
M  V30 13933 H 1304.94 -1.2574 3.50742 0
M  V30 13934 H 1305.05 0.123482 4.78941 0
M  V30 13935 H 1303.41 -0.0311323 2.54681 0
M  V30 13936 H 1304.2 1.56019 3.05799 0
M  V30 13937 N 1306.64 -1.55279 0.269478 0
M  V30 13938 C 1307.59 -2.22304 -0.620435 0
M  V30 13939 C 1308.56 -1.19457 -1.15409 0
M  V30 13940 O 1309.74 -1.4798 -1.20443 0
M  V30 13941 C 1306.88 -2.94356 -1.80134 0
M  V30 13942 C 1306 -4.1191 -1.30207 0
M  V30 13943 C 1305.13 -4.71621 -2.44433 0
M  V30 13944 C 1304.17 -5.81379 -1.91481 0
M  V30 13945 N 1303.31 -6.35176 -2.99158 0
M  V30 13946 H 1308.15 -2.9797 -0.0422165 0
M  V30 13947 H 1305.68 -1.47097 -0.00907173 0
M  V30 13948 H 1307.64 -3.34343 -2.4954 0
M  V30 13949 H 1306.27 -2.21124 -2.35168 0
M  V30 13950 H 1305.32 -3.77082 -0.501301 0
M  V30 13951 H 1306.64 -4.9108 -0.874183 0
M  V30 13952 H 1305.79 -5.14298 -3.21842 0
M  V30 13953 H 1304.53 -3.91715 -2.90535 0
M  V30 13954 H 1303.53 -5.38157 -1.12549 0
M  V30 13955 H 1304.76 -6.63149 -1.46322 0
M  V30 13956 H 1302.7 -5.58167 -3.44652 0
M  V30 13957 H 1302.62 -7.09602 -2.60769 0
M  V30 13958 H 1303.89 -6.82512 -3.7656 0
M  V30 13959 N 1308.12 0.00332656 -1.576 0
M  V30 13960 C 1309.36 0.69341 -1.92279 0
M  V30 13961 C 1309.72 1.71121 -0.870715 0
M  V30 13962 O 1310.92 2.45143 -1.10265 0
M  V30 13963 C 1309.19 1.32272 -3.32022 0
M  V30 13964 S 1310.75 2.03838 -3.88581 0
M  V30 13965 H 1307.57 0.229123 -0.67307 0
M  V30 13966 H 1310.17 -0.0525621 -1.95429 0
M  V30 13967 H 1308.88 0.569071 -4.06435 0
M  V30 13968 H 1308.41 2.10669 -3.32238 0
M  V30 13969 H 1310.42 3.31311 -3.69388 0
M  V30 13970 N 1309.6 1.55164 0.276031 0
M  V30 13971 C 1310.54 1.88623 1.36104 0
M  V30 13972 C 1311.54 0.762265 1.51281 0
M  V30 13973 O 1312.74 0.946573 1.53101 0
M  V30 13974 H 1309.12 0.59863 0.455133 0
M  V30 13975 H 1311.09 2.79266 1.05134 0
M  V30 13976 C 1309.84 2.17207 2.71508 0
M  V30 13977 H 1309.16 3.03179 2.6062 0
M  V30 13978 H 1310.6 2.44541 3.46375 0
M  V30 13979 C 1309.06 0.978671 3.22372 0
M  V30 13980 O 1309.59 0.211766 4.01141 0
M  V30 13981 N 1307.8 0.777199 2.80014 0
M  V30 13982 H 1307.34 1.40252 2.16072 0
M  V30 13983 H 1307.3 -0.0196754 3.14394 0
M  V30 13984 N 1311.07 -0.540404 1.48045 0
M  V30 13985 C 1312.32 -1.2987 1.55762 0
M  V30 13986 C 1312.65 -1.92877 0.226307 0
M  V30 13987 O 1311.93 -1.7875 -0.766727 0
M  V30 13988 C 1312.21 -2.39602 2.68817 0
M  V30 13989 C 1312.06 -1.81354 4.1162 0
M  V30 13990 C 1313.38 -3.41434 2.77688 0
M  V30 13991 H 1310.5 -0.47083 0.566999 0
M  V30 13992 H 1313.14 -0.603081 1.80175 0
M  V30 13993 H 1311.29 -2.98936 2.48132 0
M  V30 13994 H 1312.97 -1.26151 4.43716 0
M  V30 13995 H 1311.21 -1.1194 4.19108 0
M  V30 13996 H 1311.88 -2.60758 4.86528 0
M  V30 13997 H 1314.36 -2.92042 2.96396 0
M  V30 13998 H 1313.23 -4.15621 3.5854 0
M  V30 13999 H 1313.49 -4.01336 1.85422 0
M  V30 14000 N 1312.55 -1.36459 -0.788468 0
M  V30 14001 C 1313.78 -1.34063 -1.58246 0
M  V30 14002 C 1314.2 0.0754933 -1.87948 0
M  V30 14003 O 1313.56 1.04772 -1.47961 0
M  V30 14004 C 1313.61 -2.17038 -2.8797 0
M  V30 14005 O 1312.71 -1.56353 -3.81612 0
M  V30 14006 H 1312.05 -0.458816 -0.479983 0
M  V30 14007 H 1314.58 -1.79755 -0.977207 0
M  V30 14008 H 1314.59 -2.29651 -3.3723 0
M  V30 14009 H 1313.27 -3.19981 -2.65678 0
M  V30 14010 H 1311.85 -1.52685 -3.40208 0
M  V30 14011 N 1314.03 1.01274 -1.20754 0
M  V30 14012 C 1315.28 1.74932 -1.02005 0
M  V30 14013 C 1315.61 1.89285 0.447372 0
M  V30 14014 O 1314.86 1.41838 1.34835 0
M  V30 14015 C 1315.16 3.16862 -1.65329 0
M  V30 14016 C 1314.83 3.22476 -3.15151 0
M  V30 14017 C 1313.49 3.23715 -3.56036 0
M  V30 14018 C 1315.84 3.20332 -4.11141 0
M  V30 14019 C 1313.17 3.20487 -4.91431 0
M  V30 14020 C 1315.52 3.18646 -5.46487 0
M  V30 14021 C 1314.18 3.18191 -5.8678 0
M  V30 14022 H 1313.45 0.640121 -0.373264 0
M  V30 14023 H 1316.1 1.18751 -1.50234 0
M  V30 14024 H 1314.41 3.76225 -1.09372 0
M  V30 14025 H 1316.1 3.72556 -1.48333 0
M  V30 14026 H 1312.69 3.22249 -2.82584 0
M  V30 14027 H 1316.88 3.18541 -3.80585 0
M  V30 14028 H 1312.13 3.18468 -5.21908 0
M  V30 14029 H 1316.31 3.1594 -6.20609 0
M  V30 14030 H 1313.93 3.15443 -6.91664 0
M  V30 14031 N 1315.51 1.01404 1.20644 0
M  V30 14032 C 1316.44 0.602465 2.25594 0
M  V30 14033 C 1317.42 -0.381216 1.65773 0
M  V30 14034 O 1318.61 -0.267209 1.92353 0
M  V30 14035 C 1315.74 -0.0626245 3.47244 0
M  V30 14036 C 1314.69 0.841776 4.1964 0
M  V30 14037 C 1314.02 0.0426002 5.34683 0
M  V30 14038 C 1315.32 2.14864 4.76058 0
M  V30 14039 H 1317.01 1.47977 2.60275 0
M  V30 14040 H 1314.56 0.712966 1.25111 0
M  V30 14041 H 1316.51 -0.362095 4.19841 0
M  V30 14042 H 1315.23 -0.974627 3.11719 0
M  V30 14043 H 1313.89 1.12521 3.48905 0
M  V30 14044 H 1313.54 -0.870973 4.95402 0
M  V30 14045 H 1313.24 0.644866 5.84051 0
M  V30 14046 H 1314.76 -0.250476 6.10086 0
M  V30 14047 H 1316.18 1.9117 5.40488 0
M  V30 14048 H 1314.57 2.70153 5.35852 0
M  V30 14049 H 1315.64 2.81336 3.9494 0
M  V30 14050 N 1316.99 -1.36373 0.789944 0
M  V30 14051 C 1317.92 -2.32616 0.202944 0
M  V30 14052 C 1318.9 -1.56674 -0.662364 0
M  V30 14053 O 1320.08 -1.84826 -0.596078 0
M  V30 14054 C 1317.21 -3.4092 -0.662646 0
M  V30 14055 C 1316.17 -4.27877 0.102811 0
M  V30 14056 C 1315.49 -5.27352 -0.883407 0
M  V30 14057 C 1316.79 -5.0606 1.29231 0
M  V30 14058 H 1318.49 -2.81958 1.00699 0
M  V30 14059 H 1316.03 -1.35562 0.48568 0
M  V30 14060 H 1317.99 -4.07239 -1.08324 0
M  V30 14061 H 1316.71 -2.90147 -1.4994 0
M  V30 14062 H 1315.37 -3.63114 0.504389 0
M  V30 14063 H 1315.02 -4.72853 -1.71521 0
M  V30 14064 H 1314.72 -5.86398 -0.375669 0
M  V30 14065 H 1316.24 -5.96545 -1.30256 0
M  V30 14066 H 1317.66 -5.65417 0.947446 0
M  V30 14067 H 1316.05 -5.74521 1.73338 0
M  V30 14068 H 1317.12 -4.37671 2.08739 0
M  V30 14069 N 1318.47 -0.542005 -1.47987 0
M  V30 14070 C 1319.69 -0.0146835 -2.07395 0
M  V30 14071 C 1320.12 1.26266 -1.39422 0
M  V30 14072 O 1319.47 1.75259 -0.464118 0
M  V30 14073 C 1319.52 0.179937 -3.60151 0
M  V30 14074 O 1318.63 1.24596 -3.93128 0
M  V30 14075 H 1317.97 -0.0445076 -0.662507 0
M  V30 14076 H 1320.5 -0.753352 -1.90226 0
M  V30 14077 H 1320.51 0.398876 -4.06046 0
M  V30 14078 H 1319.18 -0.753093 -4.09025 0
M  V30 14079 H 1317.76 1.00872 -3.58997 0
M  V30 14080 N 1319.94 1.55134 -0.277709 0
M  V30 14081 C 1320.85 2.26296 0.618658 0
M  V30 14082 C 1321.87 1.28978 1.16794 0
M  V30 14083 O 1323.05 1.61918 1.19768 0
M  V30 14084 C 1320.11 2.97214 1.78508 0
M  V30 14085 C 1319.17 4.10016 1.27221 0
M  V30 14086 C 1318.4 4.77543 2.38304 0
M  V30 14087 O 1318.63 4.44293 3.57715 0
M  V30 14088 O 1317.56 5.65437 2.06313 0
M  V30 14089 H 1321.39 3.03671 0.0421031 0
M  V30 14090 H 1318.97 1.49332 -0.0450166 0
M  V30 14091 H 1320.85 3.41773 2.46513 0
M  V30 14092 H 1319.53 2.22753 2.34867 0
M  V30 14093 H 1318.44 3.69907 0.558544 0
M  V30 14094 H 1319.77 4.86385 0.754333 0
M  V30 14095 N 1321.42 0.00503138 1.57599 0
M  V30 14096 C 1322.7 -0.716079 1.82021 0
M  V30 14097 C 1323.08 -1.91707 0.883829 0
M  V30 14098 O 1322.43 -2.28404 -0.0662812 0
M  V30 14099 C 1322.64 -1.11706 3.3064 0
M  V30 14100 C 1323.98 -1.51881 3.96506 0
M  V30 14101 O 1325.01 -1.21071 3.34993 0
M  V30 14102 O 1323.87 -2.09191 5.04877 0
M  V30 14103 H 1320.96 -0.349112 0.7497 0
M  V30 14104 H 1323.51 0.030871 1.69672 0
M  V30 14105 H 1322.28 -0.261223 3.90427 0
M  V30 14106 H 1321.9 -1.92295 3.48006 0
M  V30 14107 N 1322.9 -1.55308 -0.267798 0
M  V30 14108 C 1324.15 -1.75811 -0.996734 0
M  V30 14109 C 1324.47 -0.565161 -1.8663 0
M  V30 14110 O 1323.74 0.419775 -1.9135 0
M  V30 14111 H 1322.32 -0.648353 -0.371008 0
M  V30 14112 H 1324.98 -1.92719 -0.290775 0
M  V30 14113 H 1324.08 -2.66113 -1.63064 0
M  V30 14114 N 1324.38 0.532545 -1.4833 0
M  V30 14115 C 1325.6 1.31809 -1.60129 0
M  V30 14116 C 1326.03 1.86283 -0.260807 0
M  V30 14117 O 1325.39 1.6427 0.767137 0
M  V30 14118 C 1325.43 2.44661 -2.64903 0
M  V30 14119 O 1324.54 3.47622 -2.21885 0
M  V30 14120 H 1323.88 0.390492 -0.53704 0
M  V30 14121 H 1326.41 0.641068 -1.94297 0
M  V30 14122 H 1326.42 2.90883 -2.86096 0
M  V30 14123 H 1325.09 2.04373 -3.62222 0
M  V30 14124 H 1323.67 3.07536 -2.10894 0
M  V30 14125 N 1325.86 1.36875 0.78122 0
M  V30 14126 C 1327.1 1.31299 1.53639 0
M  V30 14127 C 1327.42 -0.104942 1.94717 0
M  V30 14128 O 1326.69 -1.04696 1.65576 0
M  V30 14129 H 1325.27 0.483032 0.569815 0
M  V30 14130 H 1327.94 1.71261 0.930359 0
M  V30 14131 H 1327.03 1.94581 2.44018 0
M  V30 14132 N 1327.33 -1.00632 1.21289 0
M  V30 14133 C 1328.28 -2.09382 0.97097 0
M  V30 14134 C 1329.25 -1.65783 -0.102561 0
M  V30 14135 O 1330.44 -1.90749 0.0442886 0
M  V30 14136 C 1327.58 -3.40844 0.540314 0
M  V30 14137 C 1326.69 -3.97862 1.68314 0
M  V30 14138 C 1325.82 -5.17427 1.20178 0
M  V30 14139 C 1324.86 -5.66552 2.31702 0
M  V30 14140 N 1324 -6.77368 1.84709 0
M  V30 14141 H 1328.84 -2.29411 1.90196 0
M  V30 14142 H 1326.38 -1.12488 0.947885 0
M  V30 14143 H 1328.33 -4.16313 0.271881 0
M  V30 14144 H 1326.96 -3.20857 -0.353677 0
M  V30 14145 H 1326.02 -3.19391 2.06624 0
M  V30 14146 H 1327.33 -4.30314 2.52252 0
M  V30 14147 H 1326.48 -6.00138 0.889926 0
M  V30 14148 H 1325.22 -4.86566 0.332422 0
M  V30 14149 H 1324.23 -4.82438 2.63691 0
M  V30 14150 H 1325.45 -5.99443 3.19131 0
M  V30 14151 H 1323.4 -6.48315 1.00116 0
M  V30 14152 H 1323.31 -7.09067 2.62221 0
M  V30 14153 H 1324.58 -7.63617 1.56554 0
M  V30 14154 N 1328.81 -1.02043 -1.20104 0
M  V30 14155 C 1330.06 -0.710566 -1.89197 0
M  V30 14156 C 1330.38 0.762471 -1.79475 0
M  V30 14157 O 1329.65 1.54871 -1.19965 0
M  V30 14158 H 1328.23 -0.259839 -0.700352 0
M  V30 14159 H 1330.89 -1.29285 -1.45848 0
M  V30 14160 H 1329.99 -0.997363 -2.95735 0
M  V30 14161 N 1330.29 1.35952 -0.797165 0
M  V30 14162 C 1331.25 2.28266 -0.206748 0
M  V30 14163 C 1332.25 1.49169 0.60043 0
M  V30 14164 O 1333.44 1.69054 0.42029 0
M  V30 14165 C 1330.58 3.33363 0.712884 0
M  V30 14166 H 1331.77 2.81992 -1.02082 0
M  V30 14167 H 1329.32 1.45648 -0.567138 0
M  V30 14168 H 1330.06 2.84806 1.551 0
M  V30 14169 H 1329.84 3.91864 0.135926 0
M  V30 14170 H 1331.33 4.02284 1.1206 0
M  V30 14171 N 1331.77 0.549846 1.47697 0
M  V30 14172 C 1332.73 -0.191427 2.28399 0
M  V30 14173 C 1333.73 -0.849533 1.36527 0
M  V30 14174 O 1334.92 -0.706526 1.59229 0
M  V30 14175 C 1332.05 -1.27907 3.15995 0
M  V30 14176 H 1333.25 0.517375 2.95404 0
M  V30 14177 H 1330.8 0.30651 1.53265 0
M  V30 14178 H 1331.53 -2.0205 2.53665 0
M  V30 14179 H 1331.32 -0.812066 3.83599 0
M  V30 14180 H 1332.81 -1.79992 3.76819 0
M  V30 14181 N 1333.25 -1.54984 0.285932 0
M  V30 14182 C 1334.18 -2.25916 -0.590259 0
M  V30 14183 C 1335.16 -1.25319 -1.15018 0
M  V30 14184 O 1336.34 -1.54062 -1.18231 0
M  V30 14185 C 1333.47 -2.98849 -1.76936 0
M  V30 14186 C 1332.43 -4.06466 -1.3405 0
M  V30 14187 C 1331.75 -4.67032 -2.60356 0
M  V30 14188 C 1333.05 -5.20064 -0.482754 0
M  V30 14189 H 1334.75 -2.994 0.00131571 0
M  V30 14190 H 1332.29 -1.44 0.00207281 0
M  V30 14191 H 1334.25 -3.47186 -2.3883 0
M  V30 14192 H 1332.97 -2.22918 -2.38694 0
M  V30 14193 H 1331.63 -3.58957 -0.7447 0
M  V30 14194 H 1331.28 -3.87757 -3.20396 0
M  V30 14195 H 1330.98 -5.39703 -2.32368 0
M  V30 14196 H 1332.5 -5.18124 -3.23079 0
M  V30 14197 H 1333.91 -5.64387 -1.00697 0
M  V30 14198 H 1332.31 -5.99363 -0.297291 0
M  V30 14199 H 1333.38 -4.82358 0.495861 0
M  V30 14200 N 1334.72 -0.0133892 -1.57594 0
M  V30 14201 C 1335.97 0.667896 -1.90321 0
M  V30 14202 C 1336.29 1.74187 -0.88984 0
M  V30 14203 O 1337.49 2.47871 -1.10779 0
M  V30 14204 C 1335.95 1.23917 -3.37894 0
M  V30 14205 C 1335.56 0.199313 -4.47556 0
M  V30 14206 C 1337.3 1.89788 -3.79712 0
M  V30 14207 C 1335.21 0.781339 -5.86216 0
M  V30 14208 H 1334.14 0.253229 -0.710205 0
M  V30 14209 H 1336.79 -0.0761229 -1.83342 0
M  V30 14210 H 1335.17 2.03429 -3.39754 0
M  V30 14211 H 1336.34 -0.572196 -4.57234 0
M  V30 14212 H 1334.66 -0.359719 -4.14843 0
M  V30 14213 H 1337.26 2.34262 -4.80651 0
M  V30 14214 H 1337.6 2.73406 -3.13934 0
M  V30 14215 H 1338.13 1.16989 -3.80208 0
M  V30 14216 H 1334.87 -0.0163598 -6.55498 0
M  V30 14217 H 1334.39 1.5217 -5.80176 0
M  V30 14218 H 1336.07 1.2759 -6.34295 0
M  V30 14219 N 1336.2 1.55448 0.259558 0
M  V30 14220 C 1337.43 1.80727 1.00723 0
M  V30 14221 C 1337.85 0.587354 1.79431 0
M  V30 14222 O 1337.2 -0.443819 1.77021 0
M  V30 14223 C 1337.25 3.04064 1.95517 0
M  V30 14224 O 1336.97 4.21346 1.19996 0
M  V30 14225 C 1338.48 3.42049 2.81988 0
M  V30 14226 H 1335.7 0.601713 0.296956 0
M  V30 14227 H 1338.24 2.02486 0.286273 0
M  V30 14228 H 1336.39 2.84392 2.63058 0
M  V30 14229 H 1336.81 4.91164 1.84006 0
M  V30 14230 H 1338.28 4.31485 3.44274 0
M  V30 14231 H 1338.76 2.62059 3.52451 0
M  V30 14232 H 1339.37 3.64027 2.19918 0
M  V30 14233 N 1337.68 -0.524672 1.4861 0
M  V30 14234 C 1338.64 -1.61092 1.63039 0
M  V30 14235 C 1339.64 -1.52718 0.503387 0
M  V30 14236 O 1340.83 -1.56293 0.769304 0
M  V30 14237 C 1337.97 -3.00722 1.60558 0
M  V30 14238 H 1339.16 -1.49636 2.59902 0
M  V30 14239 H 1336.71 -0.747135 1.37287 0
M  V30 14240 H 1337.45 -3.1768 0.651926 0
M  V30 14241 H 1337.23 -3.0821 2.42382 0
M  V30 14242 H 1338.72 -3.79688 1.73859 0
M  V30 14243 N 1339.16 -1.37287 -0.77395 0
M  V30 14244 C 1340.4 -1.3257 -1.5347 0
M  V30 14245 C 1340.74 0.090346 -1.9399 0
M  V30 14246 O 1340.01 1.04719 -1.63903 0
M  V30 14247 C 1340.3 -2.26277 -2.80126 0
M  V30 14248 C 1340.15 -3.76651 -2.45874 0
M  V30 14249 C 1341.47 -2.18471 -3.82045 0
M  V30 14250 H 1338.59 -0.48289 -0.556764 0
M  V30 14251 H 1341.23 -1.6797 -0.888039 0
M  V30 14252 H 1339.38 -1.96219 -3.35306 0
M  V30 14253 H 1341.05 -4.17296 -1.96626 0
M  V30 14254 H 1339.29 -3.95327 -1.78602 0
M  V30 14255 H 1339.96 -4.3765 -3.36403 0
M  V30 14256 H 1342.44 -2.44962 -3.36352 0
M  V30 14257 H 1341.32 -2.86183 -4.68392 0
M  V30 14258 H 1341.58 -1.17692 -4.26147 0
M  V30 14259 N 1340.64 0.999871 -1.21821 0
M  V30 14260 C 1341.88 1.73497 -1.0365 0
M  V30 14261 C 1342.21 1.90194 0.430271 0
M  V30 14262 O 1341.48 1.45655 1.31002 0
M  V30 14263 H 1340.06 0.642804 -0.380541 0
M  V30 14264 H 1342.72 1.20461 -1.53216 0
M  V30 14265 H 1341.81 2.73215 -1.50864 0
M  V30 14266 N 1342.11 1.02678 1.19562 0
M  V30 14267 C 1343.36 0.723086 1.89471 0
M  V30 14268 C 1343.69 -0.746269 1.79289 0
M  V30 14269 O 1342.97 -1.54322 1.18384 0
M  V30 14270 C 1343.25 1.17224 3.40486 0
M  V30 14271 C 1343.1 2.70266 3.5955 0
M  V30 14272 C 1344.42 0.751397 4.33638 0
M  V30 14273 H 1341.54 0.264155 0.688034 0
M  V30 14274 H 1344.18 1.27633 1.40747 0
M  V30 14275 H 1342.33 0.701544 3.82113 0
M  V30 14276 H 1344.01 3.25266 3.27108 0
M  V30 14277 H 1342.25 3.10758 3.02675 0
M  V30 14278 H 1342.92 2.96748 4.65451 0
M  V30 14279 H 1345.4 1.15621 3.99714 0
M  V30 14280 H 1344.27 1.09358 5.37896 0
M  V30 14281 H 1344.53 -0.346367 4.40741 0
M  V30 14282 N 1343.59 -1.35528 0.804364 0
M  V30 14283 C 1345.01 -1.51962 0.487831 0
M  V30 14284 C 1345.21 -1.75426 -0.991353 0
M  V30 14285 O 1344.26 -1.7944 -1.77644 0
M  V30 14286 C 1345.58 -2.69626 1.33126 0
M  V30 14287 C 1347.13 -2.83502 1.32648 0
M  V30 14288 C 1347.6 -4.04188 2.15397 0
M  V30 14289 N 1349.09 -4.11362 2.12922 0
M  V30 14290 C 1349.83 -5.03856 2.73709 0
M  V30 14291 N 1349.32 -6.01696 3.43415 0
M  V30 14292 N 1351.12 -4.96585 2.63363 0
M  V30 14293 H 1343.27 -1.18553 1.76235 0
M  V30 14294 H 1345.53 -0.57986 0.749977 0
M  V30 14295 H 1345.24 -2.58857 2.38088 0
M  V30 14296 H 1345.11 -3.64168 0.982934 0
M  V30 14297 H 1347.5 -2.93723 0.284712 0
M  V30 14298 H 1347.58 -1.89824 1.71466 0
M  V30 14299 H 1347.22 -3.94728 3.19613 0
M  V30 14300 H 1347.15 -4.97044 1.7394 0
M  V30 14301 H 1349.64 -3.41319 1.62203 0
M  V30 14302 H 1349.96 -6.68866 3.8709 0
M  V30 14303 H 1348.3 -6.01877 3.47519 0
M  V30 14304 H 1351.49 -4.19103 2.08496 0
M  V30 14305 H 1351.66 -5.68478 3.11026 0
M  V30 14306 N 1345.07 -0.557671 -1.47404 0
M  V30 14307 C 1346 0.178019 -2.3282 0
M  V30 14308 C 1346.98 0.908318 -1.43818 0
M  V30 14309 O 1348.17 0.888693 -1.72673 0
M  V30 14310 C 1345.3 1.2082 -3.25607 0
M  V30 14311 C 1344.25 0.594335 -4.23853 0
M  V30 14312 C 1343.58 1.72919 -5.05968 0
M  V30 14313 C 1344.88 -0.452196 -5.20339 0
M  V30 14314 H 1346.57 -0.535091 -2.9458 0
M  V30 14315 H 1344.12 -0.258775 -1.41656 0
M  V30 14316 H 1346.07 1.73104 -3.84204 0
M  V30 14317 H 1344.79 1.95126 -2.61903 0
M  V30 14318 H 1343.45 0.0927898 -3.66483 0
M  V30 14319 H 1343.1 2.4613 -4.38668 0
M  V30 14320 H 1342.8 1.32422 -5.72484 0
M  V30 14321 H 1344.33 2.25527 -5.67424 0
M  V30 14322 H 1345.74 -0.0154011 -5.73298 0
M  V30 14323 H 1344.14 -0.776068 -5.95061 0
M  V30 14324 H 1345.21 -1.34791 -4.65789 0
M  V30 14325 N 1346.55 1.54831 -0.294147 0
M  V30 14326 C 1347.97 1.59489 0.0594489 0
M  V30 14327 C 1348.17 1.31121 1.53002 0
M  V30 14328 O 1347.22 1.08129 2.28176 0
M  V30 14329 C 1348.53 2.98858 -0.332323 0
M  V30 14330 C 1350.08 3.1174 -0.280518 0
M  V30 14331 C 1350.56 4.53407 -0.64701 0
M  V30 14332 N 1352.05 4.59307 -0.599284 0
M  V30 14333 C 1352.78 5.66983 -0.85542 0
M  V30 14334 N 1352.28 6.82726 -1.17717 0
M  V30 14335 N 1354.07 5.56621 -0.78294 0
M  V30 14336 H 1346.22 1.71532 -1.25262 0
M  V30 14337 H 1348.49 0.800801 -0.507368 0
M  V30 14338 H 1348.19 3.24517 -1.35578 0
M  V30 14339 H 1348.07 3.75862 0.317443 0
M  V30 14340 H 1350.45 2.85834 0.733683 0
M  V30 14341 H 1350.53 2.36907 -0.96481 0
M  V30 14342 H 1350.18 4.80042 -1.65899 0
M  V30 14343 H 1350.11 5.26567 0.0592796 0
M  V30 14344 H 1352.6 3.76169 -0.361259 0
M  V30 14345 H 1352.91 7.60761 -1.35877 0
M  V30 14346 H 1351.26 6.84295 -1.21513 0
M  V30 14347 H 1354.45 4.65075 -0.531282 0
M  V30 14348 H 1354.62 6.40456 -0.985929 0
M  V30 14349 N 1348.03 0.0217466 1.57585 0
M  V30 14350 C 1349.26 -0.668881 1.9579 0
M  V30 14351 C 1349.67 -1.66085 0.897849 0
M  V30 14352 O 1349.03 -1.82098 -0.121099 0
M  V30 14353 C 1349.08 -1.38174 3.34051 0
M  V30 14354 O 1348.8 -0.429527 4.35989 0
M  V30 14355 C 1350.3 -2.16487 3.86844 0
M  V30 14356 H 1347.52 -0.184919 0.645016 0
M  V30 14357 H 1350.06 0.0793241 2.04346 0
M  V30 14358 H 1348.22 -2.0814 3.26736 0
M  V30 14359 H 1348.63 -0.934887 5.16101 0
M  V30 14360 H 1350.11 -2.61829 4.85952 0
M  V30 14361 H 1350.58 -3.00082 3.20698 0
M  V30 14362 H 1351.19 -1.51493 3.97404 0
M  V30 14363 N 1349.51 -1.55583 -0.251311 0
M  V30 14364 C 1350.42 -1.93073 -1.33266 0
M  V30 14365 C 1351.43 -0.830612 -1.52895 0
M  V30 14366 O 1352.61 -1.13162 -1.66602 0
M  V30 14367 C 1349.67 -2.21396 -2.66805 0
M  V30 14368 C 1348.73 -3.44815 -2.55737 0
M  V30 14369 C 1347.97 -3.71777 -3.82907 0
M  V30 14370 O 1348.19 -3.00884 -4.84587 0
M  V30 14371 O 1347.12 -4.65305 -3.81805 0
M  V30 14372 H 1350.95 -2.85168 -1.04465 0
M  V30 14373 H 1348.53 -1.42408 -0.451693 0
M  V30 14374 H 1350.42 -2.4094 -3.45725 0
M  V30 14375 H 1349.09 -1.3248 -2.95348 0
M  V30 14376 H 1348 -3.30582 -1.75118 0
M  V30 14377 H 1349.33 -4.34019 -2.32139 0
M  V30 14378 N 1350.98 0.516783 -1.48886 0
M  V30 14379 C 1351.95 1.60226 -1.63891 0
M  V30 14380 C 1352.95 1.52448 -0.511479 0
M  V30 14381 O 1354.14 1.55882 -0.777582 0
M  V30 14382 C 1351.27 2.99867 -1.62151 0
M  V30 14383 H 1352.46 1.48256 -2.60692 0
M  V30 14384 H 1350.01 0.739844 -1.37681 0
M  V30 14385 H 1350.75 3.1733 -0.668764 0
M  V30 14386 H 1350.53 3.0692 -2.44013 0
M  V30 14387 H 1352.02 3.7876 -1.7587 0
M  V30 14388 N 1352.46 1.37696 0.766659 0
M  V30 14389 C 1353.69 1.36564 1.56093 0
M  V30 14390 C 1354.11 -0.0455828 1.88045 0
M  V30 14391 O 1353.47 -1.02405 1.49609 0
M  V30 14392 C 1353.52 2.21592 2.84481 0
M  V30 14393 O 1352.62 1.62404 3.79076 0
M  V30 14394 H 1351.96 0.466394 0.472623 0
M  V30 14395 H 1354.49 1.81287 0.948486 0
M  V30 14396 H 1354.5 2.34987 3.33534 0
M  V30 14397 H 1353.18 3.24167 2.60554 0
M  V30 14398 H 1351.75 1.58078 3.37736 0
M  V30 14399 N 1353.94 -0.993397 1.22349 0
M  V30 14400 C 1355.16 -1.77373 1.07488 0
M  V30 14401 C 1355.59 -1.84418 -0.37034 0
M  V30 14402 O 1354.95 -1.29629 -1.26752 0
M  V30 14403 C 1355 -3.18538 1.69014 0
M  V30 14404 O 1354.1 -4.01463 0.943474 0
M  V30 14405 H 1353.44 -0.546209 0.37756 0
M  V30 14406 H 1355.97 -1.24792 1.62136 0
M  V30 14407 H 1355.98 -3.6917 1.73717 0
M  V30 14408 H 1354.66 -3.12725 2.74182 0
M  V30 14409 H 1353.23 -3.59998 0.972415 0
M  V30 14410 O 1355.46 -1.15922 -1.12447 0
M  V30 14411 H 1356.15 -0.888649 -1.72113 0
M  V30 END ATOM
M  V30 BEGIN BOND
M  V30 END BOND
M  V30 END CTAB
M  END
$$$$
