drugbank_target|P01112 GTPase HRas (DB02210; DB03226; DB04137; DB04315; DB08751)
 OpenBabel12092119473D

  0  0  0     0  0            999 V3000
M  V30 BEGIN CTAB
M  V30 COUNTS 2962 2984 0 0 0
M  V30 BEGIN ATOM
M  V30 1 H -0.908 1.98254 -0.117106 0
M  V30 2 N 0 1.576 0 0
M  V30 3 C 0.933 2.03868 1.02534 0
M  V30 4 C 1.911 0.928543 1.3348 0
M  V30 5 O 3.095 1.19667 1.45644 0
M  V30 6 C 0.222 2.43627 2.35294 0
M  V30 7 C -0.732 3.65373 2.2001 0
M  V30 8 S 0.101 5.13292 1.52614 0
M  V30 9 C 1.257 5.56322 2.86805 0
M  V30 10 H 1.49 2.90518 0.631377 0
M  V30 11 H -0.977 1.52953 0.210867 0
M  V30 12 H 0.981 2.67203 3.11629 0
M  V30 13 H -0.358 1.57376 2.7183 0
M  V30 14 H -1.165 3.90944 3.18086 0
M  V30 15 H -1.563 3.418 1.51819 0
M  V30 16 H 0.729 5.58782 3.83104 0
M  V30 17 H 1.672 6.56266 2.65933 0
M  V30 18 H 2.08 4.83886 2.90714 0
M  V30 19 N 1.4781 -0.272755 1.55222 0
M  V30 20 C 2.7061 -1.02255 1.79865 0
M  V30 21 C 3.1211 -1.79924 0.572088 0
M  V30 22 O 2.4781 -1.76638 -0.458842 0
M  V30 23 C 2.5291 -1.98094 3.02392 0
M  V30 24 O 2.2501 -1.23572 4.20311 0
M  V30 25 C 3.7511 -2.84884 3.39641 0
M  V30 26 H 0.9711 -0.302057 0.599168 0
M  V30 27 H 3.5151 -0.303465 2.02236 0
M  V30 28 H 1.6701 -2.65465 2.82147 0
M  V30 29 H 2.0841 -1.88172 4.89583 0
M  V30 30 H 3.5581 -3.47927 4.28545 0
M  V30 31 H 4.0351 -3.54665 2.59055 0
M  V30 32 H 4.6411 -2.23003 3.62146 0
M  V30 33 N 2.9562 -1.48159 -0.537278 0
M  V30 34 C 3.8662 -1.64807 -1.6696 0
M  V30 35 C 4.8822 -0.530651 -1.65711 0
M  V30 36 O 6.0582 -0.800784 -1.84796 0
M  V30 37 C 3.1232 -1.67708 -3.03438 0
M  V30 38 C 2.1842 -2.91025 -3.156 0
M  V30 39 C 1.4172 -2.93778 -4.45567 0
M  V30 40 O 1.6402 -2.05153 -5.3223 0
M  V30 41 O 0.5742 -3.85868 -4.61941 0
M  V30 42 H 4.4002 -2.6066 -1.55853 0
M  V30 43 H 1.9852 -1.31475 -0.709549 0
M  V30 44 H 3.8672 -1.7218 -3.84619 0
M  V30 45 H 2.5422 -0.750278 -3.14885 0
M  V30 46 H 1.4492 -2.92089 -2.33741 0
M  V30 47 H 2.7822 -3.83065 -3.09066 0
M  V30 48 N 4.4343 0.785586 -1.36625 0
M  V30 49 C 5.6643 1.5722 -1.34036 0
M  V30 50 C 6.0723 1.89033 0.0795062 0
M  V30 51 O 5.4153 1.50881 1.04789 0
M  V30 52 C 5.4773 2.91759 -2.10041 0
M  V30 53 C 5.1413 2.82654 -3.59104 0
M  V30 54 C 6.1383 2.54634 -4.53274 0
M  V30 55 C 3.8233 3.01111 -4.02042 0
M  V30 56 C 5.8173 2.45177 -5.88359 0
M  V30 57 C 3.5043 2.91276 -5.37216 0
M  V30 58 C 4.5023 2.63348 -6.30188 0
M  V30 59 O 4.1903 2.53514 -7.6288 0
M  V30 60 H 3.9223 0.494177 -0.461265 0
M  V30 61 H 6.4763 0.982632 -1.8037 0
M  V30 62 H 4.7063 3.52781 -1.58375 0
M  V30 63 H 6.3953 3.53059 -2.00261 0
M  V30 64 H 7.1613 2.40073 -4.21414 0
M  V30 65 H 3.0403 3.21854 -3.30047 0
M  V30 66 H 6.5843 2.23299 -6.60896 0
M  V30 67 H 2.4813 3.054 -5.68684 0
M  V30 68 H 3.2493 2.68967 -7.73045 0
M  V30 69 N 5.9124 1.20967 1.01018 0
M  V30 70 C 6.8594 0.964281 2.09691 0
M  V30 71 C 7.8294 -0.107853 1.65749 0
M  V30 72 O 9.0144 0.0381987 1.90762 0
M  V30 73 C 6.1544 0.52943 3.41015 0
M  V30 74 C 5.2674 1.67043 3.98398 0
M  V30 75 C 4.4024 1.18525 5.17808 0
M  V30 76 C 3.4414 2.29892 5.67288 0
M  V30 77 N 2.5784 1.82546 6.77954 0
M  V30 78 H 7.4184 1.89463 2.30017 0
M  V30 79 H 4.9554 0.944289 1.1279 0
M  V30 80 H 6.9134 0.258588 4.16398 0
M  V30 81 H 5.5434 -0.363919 3.20742 0
M  V30 82 H 4.5954 2.05603 3.20049 0
M  V30 83 H 5.9074 2.50877 4.31117 0
M  V30 84 H 5.0614 0.870762 6.00419 0
M  V30 85 H 3.8004 0.316887 4.86669 0
M  V30 86 H 2.8054 2.6215 4.83278 0
M  V30 87 H 4.0304 3.17216 6.00459 0
M  V30 88 H 1.9764 0.980454 6.48632 0
M  V30 89 H 1.8934 2.59956 7.09901 0
M  V30 90 H 3.1614 1.54115 7.64113 0
M  V30 91 N 7.3905 -1.2043 1.01659 0
M  V30 92 C 8.3205 -2.25466 0.607226 0
M  V30 93 C 9.3015 -1.65853 -0.377716 0
M  V30 94 O 10.4865 -1.92409 -0.263149 0
M  V30 95 C 7.6165 -3.47256 -0.0552949 0
M  V30 96 C 6.5705 -4.19462 0.850632 0
M  V30 97 C 5.8965 -5.34673 0.0538859 0
M  V30 98 C 7.1965 -4.75603 2.15868 0
M  V30 99 H 8.8905 -2.59962 1.48526 0
M  V30 100 H 6.4365 -1.2496 0.715605 0
M  V30 101 H 8.3895 -4.19917 -0.353233 0
M  V30 102 H 7.1135 -3.11924 -0.968045 0
M  V30 103 H 5.7725 -3.48667 1.13257 0
M  V30 104 H 5.4205 -4.95585 -0.860514 0
M  V30 105 H 5.1205 -5.83913 0.657192 0
M  V30 106 H 6.6445 -6.10138 -0.237598 0
M  V30 107 H 8.0585 -5.40083 1.92311 0
M  V30 108 H 6.4555 -5.3528 2.71284 0
M  V30 109 H 7.5255 -3.94346 2.82169 0
M  V30 110 N 8.8686 -0.792821 -1.36206 0
M  V30 111 C 10.1146 -0.36733 -1.99446 0
M  V30 112 C 10.4476 1.05917 -1.62774 0
M  V30 113 O 9.7226 1.7324 -0.88421 0
M  V30 114 C 10.0056 -0.535044 -3.56103 0
M  V30 115 C 9.8586 -2.00548 -4.02617 0
M  V30 116 C 11.1776 0.0478191 -4.40074 0
M  V30 117 H 8.2966 -0.134941 -0.724541 0
M  V30 118 H 10.9386 -0.999794 -1.61568 0
M  V30 119 H 9.0886 0.00336329 -3.885 0
M  V30 120 H 10.7606 -2.60521 -3.80692 0
M  V30 121 H 9.0036 -2.50686 -3.54032 0
M  V30 122 H 9.6746 -2.07377 -5.11565 0
M  V30 123 H 12.1506 -0.411822 -4.14057 0
M  V30 124 H 11.0266 -0.0995336 -5.4881 0
M  V30 125 H 11.2876 1.14025 -4.27142 0
M  V30 126 N 10.3467 1.47872 -0.545128 0
M  V30 127 C 11.5927 2.02793 -0.0166104 0
M  V30 128 C 11.9257 1.41987 1.32489 0
M  V30 129 O 11.2007 0.571045 1.85928 0
M  V30 130 C 11.4837 3.59989 0.0893294 0
M  V30 131 C 11.3367 4.3125 -1.27841 0
M  V30 132 C 12.6557 4.32606 0.808724 0
M  V30 133 H 9.7747 0.736962 -0.00751035 0
M  V30 134 H 12.4167 1.76433 -0.705085 0
M  V30 135 H 10.5667 3.82579 0.675681 0
M  V30 136 H 12.2387 4.20035 -1.90704 0
M  V30 137 H 10.4817 3.92076 -1.85632 0
M  V30 138 H 11.1527 5.39736 -1.15713 0
M  V30 139 H 13.6287 4.14936 0.310992 0
M  V30 140 H 12.5047 5.42251 0.851782 0
M  V30 141 H 12.7657 4.00963 1.86229 0
M  V30 142 N 11.8248 0.280983 1.55075 0
M  V30 143 C 13.0708 -0.33461 2.00021 0
M  V30 144 C 13.4038 -1.55063 1.16915 0
M  V30 145 O 12.6788 -1.93006 0.240646 0
M  V30 146 C 12.9618 -0.711007 3.53011 0
M  V30 147 C 12.8148 0.512766 4.46868 0
M  V30 148 C 14.1338 -1.54522 4.12081 0
M  V30 149 H 11.2528 -0.120147 0.727141 0
M  V30 150 H 13.8948 0.389097 1.85973 0
M  V30 151 H 12.0448 -1.32761 3.65112 0
M  V30 152 H 13.7168 1.15131 4.46702 0
M  V30 153 H 11.9598 1.14975 4.18286 0
M  V30 154 H 12.6308 0.205556 5.51617 0
M  V30 155 H 15.1068 -1.02442 4.03293 0
M  V30 156 H 13.9828 -1.77739 5.19327 0
M  V30 157 H 14.2438 -2.52813 3.62682 0
M  V30 158 N 13.3029 -1.57598 0.00835791 0
M  V30 159 C 14.5509 -1.90551 -0.6734 0
M  V30 160 C 14.8719 -0.883301 -1.73847 0
M  V30 161 O 14.1419 0.0781442 -1.95744 0
M  V30 162 H 12.7219 -0.703312 -0.251717 0
M  V30 163 H 15.3839 -1.94833 0.0512592 0
M  V30 164 H 14.4799 -2.9056 -1.13935 0
M  V30 165 N 14.781 0.264519 -1.55364 0
M  V30 166 C 15.744 1.31046 -1.88042 0
M  V30 167 C 16.744 1.41943 -0.755569 0
M  V30 168 O 17.934 1.40947 -1.02369 0
M  V30 169 C 15.066 2.69067 -2.09323 0
M  V30 170 H 16.259 1.03297 -2.81549 0
M  V30 171 H 13.812 0.502989 -1.47986 0
M  V30 172 H 14.547 3.01982 -1.18226 0
M  V30 173 H 14.332 2.62542 -2.91229 0
M  V30 174 H 15.822 3.44623 -2.35848 0
M  V30 175 N 16.2591 1.48442 0.529413 0
M  V30 176 C 17.5071 1.56179 1.28267 0
M  V30 177 C 17.8281 0.237721 1.93546 0
M  V30 178 O 17.0981 -0.740779 1.81354 0
M  V30 179 H 15.6781 0.575367 0.476405 0
M  V30 180 H 18.3401 1.84909 0.61602 0
M  V30 181 H 17.4361 2.34312 2.06165 0
M  V30 182 N 17.7372 -0.778329 1.37039 0
M  V30 183 C 18.9852 -1.53361 1.31623 0
M  V30 184 C 19.3062 -1.94739 -0.100831 0
M  V30 185 O 18.5762 -1.65797 -1.04347 0
M  V30 186 H 17.1562 -0.568794 0.484234 0
M  V30 187 H 19.8182 -0.926742 1.71457 0
M  V30 188 H 18.9142 -2.43606 1.95096 0
M  V30 189 N 19.2153 -1.21501 -1.00376 0
M  V30 190 C 20.4613 -1.03452 -1.74429 0
M  V30 191 C 20.7943 0.430764 -1.89362 0
M  V30 192 O 20.0693 1.31962 -1.42886 0
M  V30 193 C 20.3523 -1.73375 -3.15615 0
M  V30 194 C 20.2053 -3.27431 -3.08397 0
M  V30 195 C 21.5243 -1.47732 -4.14564 0
M  V30 196 H 18.6433 -0.377226 -0.633143 0
M  V30 197 H 21.2853 -1.49693 -1.17013 0
M  V30 198 H 19.4353 -1.34064 -3.64636 0
M  V30 199 H 21.1073 -3.76119 -2.67081 0
M  V30 200 H 19.3503 -3.5767 -2.45468 0
M  V30 201 H 20.0213 -3.71524 -4.08258 0
M  V30 202 H 22.4973 -1.8186 -3.74254 0
M  V30 203 H 21.3733 -1.99169 -5.11491 0
M  V30 204 H 21.6343 -0.407589 -4.40217 0
M  V30 205 N 20.6934 1.19889 -1.02296 0
M  V30 206 C 21.9414 1.89046 -0.714558 0
M  V30 207 C 22.2624 1.79636 0.758681 0
M  V30 208 O 21.5324 1.20292 1.54618 0
M  V30 209 H 20.1124 0.699802 -0.261317 0
M  V30 210 H 22.7744 1.45574 -1.29592 0
M  V30 211 H 21.8704 2.95524 -1.0036 0
M  V30 212 N 22.1715 0.800033 1.35784 0
M  V30 213 C 23.1185 0.203848 2.29898 0
M  V30 214 C 24.0885 -0.658375 1.52495 0
M  V30 215 O 25.2735 -0.604832 1.8096 0
M  V30 216 C 22.4135 -0.64688 3.38983 0
M  V30 217 C 21.5265 0.235054 4.3136 0
M  V30 218 C 20.6615 -0.623054 5.27533 0
M  V30 219 C 19.7005 0.259682 6.11549 0
M  V30 220 N 18.8375 -0.558019 6.99879 0
M  V30 221 H 23.6775 1.01186 2.80295 0
M  V30 222 H 21.2145 0.51053 1.37957 0
M  V30 223 H 23.1725 -1.15521 4.00887 0
M  V30 224 H 21.8025 -1.42021 2.89879 0
M  V30 225 H 20.8545 0.861438 3.70518 0
M  V30 226 H 22.1665 0.914768 4.9034 0
M  V30 227 H 21.3205 -1.19678 5.94779 0
M  V30 228 H 20.0595 -1.33636 4.69034 0
M  V30 229 H 19.0645 0.845726 5.43256 0
M  V30 230 H 20.2895 0.970748 6.72126 0
M  V30 231 H 18.2355 -1.25542 6.43875 0
M  V30 232 H 18.1525 0.0637872 7.55973 0
M  V30 233 H 19.4205 -1.11523 7.71481 0
M  V30 234 N 23.6496 -1.47581 0.552962 0
M  V30 235 C 24.8746 -2.07378 0.0300593 0
M  V30 236 C 25.2996 -1.40355 -1.25229 0
M  V30 237 O 24.6576 -0.477099 -1.7491 0
M  V30 238 C 24.7056 -3.60274 -0.153231 0
M  V30 239 O 23.8096 -3.94041 -1.21678 0
M  V30 240 H 23.1506 -0.662158 0.0494182 0
M  V30 241 H 25.6806 -1.89662 0.767434 0
M  V30 242 H 25.6906 -4.0633 -0.368761 0
M  V30 243 H 24.3656 -4.08455 0.783397 0
M  V30 244 H 22.9426 -3.59735 -0.982079 0
M  V30 245 N 25.1277 -0.289203 -1.54924 0
M  V30 246 C 26.0907 0.579144 -2.21762 0
M  V30 247 C 27.0907 1.07047 -1.1999 0
M  V30 248 O 28.2807 0.968384 -1.44803 0
M  V30 249 C 25.4127 1.80055 -2.8947 0
M  V30 250 H 26.6057 -0.00464908 -2.999 0
M  V30 251 H 24.1587 -0.0399306 -1.56249 0
M  V30 252 H 24.8937 2.42449 -2.15381 0
M  V30 253 H 24.6787 1.45602 -3.64064 0
M  V30 254 H 26.1687 2.41773 -3.40493 0
M  V30 255 N 26.6058 1.57591 -0.0167156 0
M  V30 256 C 27.5358 2.12496 0.967858 0
M  V30 257 C 28.5168 1.03807 1.34752 0
M  V30 258 O 29.7018 1.31577 1.42833 0
M  V30 259 C 26.8318 2.64194 2.25431 0
M  V30 260 C 25.7858 3.77559 2.01576 0
M  V30 261 C 25.1118 4.15636 3.36379 0
M  V30 262 C 26.4118 5.04151 1.36489 0
M  V30 263 H 28.1058 2.95013 0.510643 0
M  V30 264 H 25.6518 1.41915 0.244181 0
M  V30 265 H 27.6048 3.01236 2.94678 0
M  V30 266 H 26.3288 1.78821 2.73296 0
M  V30 267 H 24.9878 3.40937 1.34751 0
M  V30 268 H 24.6358 3.27263 3.81979 0
M  V30 269 H 24.3358 4.92022 3.21229 0
M  V30 270 H 25.8598 4.5525 4.06915 0
M  V30 271 H 27.2738 5.38857 1.95718 0
M  V30 272 H 25.6708 5.85453 1.31776 0
M  V30 273 H 26.7408 4.83733 0.336219 0
M  V30 274 N 28.0839 -0.256276 1.55502 0
M  V30 275 C 29.3119 -1.00342 1.8094 0
M  V30 276 C 29.7269 -1.79307 0.59114 0
M  V30 277 O 29.0839 -1.77114 -0.440081 0
M  V30 278 C 29.1349 -1.94875 3.04476 0
M  V30 279 O 28.8559 -1.19107 4.21598 0
M  V30 280 C 30.3569 -2.81266 3.42644 0
M  V30 281 H 27.5769 -0.295685 0.602338 0
M  V30 282 H 30.1209 -0.281998 2.02546 0
M  V30 283 H 28.2759 -2.62457 2.84947 0
M  V30 284 H 28.6899 -1.82969 4.91551 0
M  V30 285 H 30.1639 -3.43362 4.32211 0
M  V30 286 H 30.6409 -3.51897 2.62802 0
M  V30 287 H 31.2469 -2.1915 3.64491 0
M  V30 288 N 29.562 -1.4872 -0.521534 0
M  V30 289 C 30.811 -1.56419 -1.27341 0
M  V30 290 C 31.124 -0.246805 -1.94037 0
M  V30 291 O 32.33 -0.202122 -2.70747 0
M  V30 292 C 30.786 -2.75896 -2.31105 0
M  V30 293 C 30.394 -4.14311 -1.70441 0
M  V30 294 C 32.138 -2.92913 -3.07249 0
M  V30 295 C 30.045 -5.25038 -2.72194 0
M  V30 296 H 28.975 -0.582344 -0.478949 0
M  V30 297 H 31.626 -1.75071 -0.549779 0
M  V30 298 H 30.008 -2.50697 -3.06541 0
M  V30 299 H 31.182 -4.49564 -1.01136 0
M  V30 300 H 29.497 -4.02482 -1.06759 0
M  V30 301 H 32.094 -3.72805 -3.83302 0
M  V30 302 H 32.437 -2.02689 -3.63625 0
M  V30 303 H 32.97 -3.18054 -2.38928 0
M  V30 304 H 29.709 -6.17255 -2.20627 0
M  V30 305 H 29.229 -4.94263 -3.39801 0
M  V30 306 H 30.908 -5.53508 -3.35019 0
M  V30 307 N 31.0401 0.771051 -1.3745 0
M  V30 308 C 31.9721 1.89352 -1.29146 0
M  V30 309 C 32.9851 1.61477 -0.207124 0
M  V30 310 O 34.1741 1.72382 -0.463324 0
M  V30 311 C 31.2741 3.24596 -0.974195 0
M  V30 312 C 30.4471 3.80111 -2.16413 0
M  V30 313 C 29.5061 4.93832 -1.81703 0
M  V30 314 O 28.5321 5.09382 -2.54006 0
M  V30 315 N 29.7341 5.75483 -0.761573 0
M  V30 316 H 32.4991 1.96991 -2.25864 0
M  V30 317 H 30.0601 0.950191 -1.31084 0
M  V30 318 H 32.0521 3.98193 -0.722828 0
M  V30 319 H 30.6221 3.12454 -0.0955527 0
M  V30 320 H 29.8421 2.98284 -2.57721 0
M  V30 321 H 31.1301 4.13932 -2.95867 0
M  V30 322 H 30.5281 5.65469 -0.161609 0
M  V30 323 H 29.0851 6.49302 -0.570064 0
M  V30 324 N 32.5182 1.22032 0.997298 0
M  V30 325 C 33.4482 1.01065 2.10495 0
M  V30 326 C 34.4292 -0.0669542 1.69968 0
M  V30 327 O 35.6142 0.0943987 1.9397 0
M  V30 328 C 32.7442 0.582874 3.42374 0
M  V30 329 C 31.6982 1.60592 3.96729 0
M  V30 330 C 31.0242 1.03412 5.24605 0
M  V30 331 C 32.3242 2.99478 4.27914 0
M  V30 332 H 34.0182 1.93708 2.28292 0
M  V30 333 H 31.5642 0.932761 1.09707 0
M  V30 334 H 33.5172 0.423332 4.19268 0
M  V30 335 H 32.2412 -0.379213 3.24391 0
M  V30 336 H 30.9002 1.75316 3.21963 0
M  V30 337 H 30.5482 0.063518 5.0296 0
M  V30 338 H 30.2482 1.71754 5.61938 0
M  V30 339 H 31.7722 0.886066 6.04137 0
M  V30 340 H 33.1862 2.88153 4.95622 0
M  V30 341 H 31.5832 3.64903 4.76409 0
M  V30 342 H 32.6532 3.49742 3.3587 0
M  V30 343 N 33.9963 -1.19345 1.0293 0
M  V30 344 C 35.2453 -1.88363 0.721256 0
M  V30 345 C 35.5583 -1.80514 -0.753254 0
M  V30 346 O 36.7643 -2.44788 -1.17436 0
M  V30 347 C 35.2203 -3.37872 1.23978 0
M  V30 348 C 34.8283 -3.54278 2.74211 0
M  V30 349 C 36.5723 -4.12365 1.00775 0
M  V30 350 C 34.4793 -4.97682 3.19479 0
M  V30 351 H 33.4093 -0.705484 0.266098 0
M  V30 352 H 36.0603 -1.34928 1.24365 0
M  V30 353 H 34.4423 -3.90707 0.6453 0
M  V30 354 H 35.6163 -3.11769 3.39318 0
M  V30 355 H 33.9313 -2.93174 2.95699 0
M  V30 356 H 36.5283 -5.18119 1.32123 0
M  V30 357 H 36.8713 -4.16263 -0.0554308 0
M  V30 358 H 37.4043 -3.65668 1.56625 0
M  V30 359 H 34.1433 -4.98945 4.25128 0
M  V30 360 H 33.6633 -5.4095 2.591 0
M  V30 361 H 35.3423 -5.66337 3.12845 0
M  V30 362 N 35.4744 -0.807222 -1.35358 0
M  V30 363 C 36.4064 -0.175717 -2.28525 0
M  V30 364 C 37.4194 0.625354 -1.5031 0
M  V30 365 O 38.6084 0.457611 -1.72535 0
M  V30 366 C 35.7084 0.773471 -3.29956 0
M  V30 367 C 34.8814 0.0186296 -4.37396 0
M  V30 368 C 33.9404 0.886395 -5.18681 0
M  V30 369 O 32.9664 0.337106 -5.68201 0
M  V30 370 N 34.1684 2.20839 -5.36852 0
M  V30 371 H 36.9334 -0.976091 -2.83359 0
M  V30 372 H 34.4944 -0.662737 -1.47714 0
M  V30 373 H 36.4864 1.35824 -3.81227 0
M  V30 374 H 35.0564 1.47465 -2.75632 0
M  V30 375 H 34.2764 -0.747349 -3.87051 0
M  V30 376 H 35.5644 -0.501577 -5.06322 0
M  V30 377 H 34.9624 2.67858 -4.98265 0
M  V30 378 H 33.5194 2.74237 -5.91301 0
M  V30 379 N 36.9525 1.47285 -0.560781 0
M  V30 380 C 37.9005 2.31756 0.197942 0
M  V30 381 C 38.8945 1.43146 0.905854 0
M  V30 382 O 40.1005 1.59891 0.826733 0
M  V30 383 H 36.4755 0.747438 0.0827049 0
M  V30 384 H 38.4465 2.9359 -0.533629 0
M  V30 385 C 37.1955 3.25874 1.21249 0
M  V30 386 H 36.5185 3.94023 0.67719 0
M  V30 387 H 37.9585 3.87803 1.71419 0
M  V30 388 C 36.4175 2.49651 2.26221 0
M  V30 389 O 36.9475 2.24355 3.33208 0
M  V30 390 N 35.1535 2.10597 2.00243 0
M  V30 391 H 34.7005 2.31369 1.13252 0
M  V30 392 H 34.6585 1.59913 2.70694 0
M  V30 393 N 38.4306 0.297415 1.54768 0
M  V30 394 C 39.3806 -0.595275 2.20092 0
M  V30 395 C 40.3646 -1.10163 1.17273 0
M  V30 396 O 41.5566 -1.043 1.43006 0
M  V30 397 C 38.6856 -1.7684 2.94249 0
M  V30 398 C 37.7716 -1.27818 4.0438 0
M  V30 399 N 38.1626 -0.505695 5.03266 0
M  V30 400 C 36.4606 -1.55923 4.17857 0
M  V30 401 C 37.1616 -0.245094 5.81183 0
M  V30 402 N 36.1376 -0.823881 5.3732 0
M  V30 403 H 39.9396 0.00250837 2.939 0
M  V30 404 H 37.4536 0.102007 1.62079 0
M  V30 405 H 39.4506 -2.41944 3.39513 0
M  V30 406 H 38.1106 -2.36992 2.21957 0
M  V30 407 H 39.1216 -0.150928 5.1768 0
M  V30 408 H 35.7986 -2.16849 3.56767 0
M  V30 409 H 37.1886 0.375084 6.70852 0
M  V30 410 N 39.9087 -1.5758 0.0250728 0
M  V30 411 C 41.1557 -1.91633 -0.654444 0
M  V30 412 C 41.4837 -0.901103 -1.72367 0
M  V30 413 O 40.7387 0.0905647 -1.9549 0
M  V30 414 C 41.0377 -3.32421 -1.31268 0
M  V30 415 C 40.7037 -4.49344 -0.374223 0
M  V30 416 C 39.3657 -4.8106 -0.115911 0
M  V30 417 C 41.7177 -5.20498 0.270432 0
M  V30 418 C 39.0457 -5.8129 0.79493 0
M  V30 419 C 41.3977 -6.21699 1.1693 0
M  V30 420 C 40.0617 -6.51859 1.43655 0
M  V30 421 H 39.3317 -0.701236 -0.239478 0
M  V30 422 H 41.9787 -1.91307 0.0859734 0
M  V30 423 H 40.2837 -3.28989 -2.12775 0
M  V30 424 H 41.9807 -3.56038 -1.84494 0
M  V30 425 H 38.5707 -4.24579 -0.58573 0
M  V30 426 H 42.7547 -4.96229 0.0839194 0
M  V30 427 H 38.0107 -6.03005 1.00973 0
M  V30 428 H 42.1847 -6.75955 1.67504 0
M  V30 429 H 39.8117 -7.2934 2.144 0
M  V30 430 N 41.3868 0.248026 -1.55636 0
M  V30 431 C 42.6328 0.97767 -1.77678 0
M  V30 432 C 42.9658 1.85016 -0.590135 0
M  V30 433 O 42.2408 1.90095 0.411611 0
M  V30 434 C 42.5238 1.83914 -3.09593 0
M  V30 435 C 42.3768 0.99491 -4.38659 0
M  V30 436 C 43.6958 2.82183 -3.37729 0
M  V30 437 H 40.8148 0.354005 -0.646413 0
M  V30 438 H 43.4568 0.248253 -1.88371 0
M  V30 439 H 41.6068 2.46104 -3.00608 0
M  V30 440 H 43.2788 0.391789 -4.59633 0
M  V30 441 H 41.5218 0.299231 -4.32767 0
M  V30 442 H 42.1928 1.63145 -5.2734 0
M  V30 443 H 44.6688 2.30129 -3.4667 0
M  V30 444 H 43.5448 3.39582 -4.31249 0
M  V30 445 H 43.8058 3.58588 -2.58586 0
M  V30 446 N 42.8649 1.48995 0.513639 0
M  V30 447 C 44.1419 1.48338 1.27495 0
M  V30 448 C 44.5219 0.204065 2.10111 0
M  V30 449 O 43.8699 -0.813881 2.13514 0
M  V30 450 C 44.0799 2.75498 2.14247 0
M  V30 451 C 45.4279 3.24484 2.73852 0
M  V30 452 O 46.4519 2.76528 2.24523 0
M  V30 453 O 45.3109 4.07974 3.6362 0
M  V30 454 H 42.4049 0.593149 0.576284 0
M  V30 455 H 44.9509 1.61246 0.528948 0
M  V30 456 H 43.7229 3.60109 1.53092 0
M  V30 457 H 43.3459 2.6539 2.96064 0
M  V30 458 N 44.343 -0.763751 1.37857 0
M  V30 459 C 45.253 -1.90817 1.36478 0
M  V30 460 C 46.269 -1.71997 0.263248 0
M  V30 461 O 47.445 -1.95095 0.499979 0
M  V30 462 C 44.51 -3.2605 1.17864 0
M  V30 463 C 43.571 -3.57467 2.3773 0
M  V30 464 C 42.804 -4.86249 2.19995 0
M  V30 465 O 43.027 -5.57884 1.18836 0
M  V30 466 O 41.961 -5.16911 3.08361 0
M  V30 467 H 45.787 -1.94933 2.32884 0
M  V30 468 H 43.372 -0.907619 1.1867 0
M  V30 469 H 45.254 -4.06924 1.09504 0
M  V30 470 H 43.929 -3.22769 0.245372 0
M  V30 471 H 42.836 -2.76796 2.51664 0
M  V30 472 H 44.169 -3.655 3.29652 0
M  V30 473 N 45.8211 -1.22559 -0.990812 0
M  V30 474 C 47.0511 -1.07623 -1.76355 0
M  V30 475 C 47.4591 0.37601 -1.85426 0
M  V30 476 O 46.8021 1.27228 -1.32509 0
M  V30 477 C 46.8641 -1.61507 -3.21179 0
M  V30 478 C 46.5281 -3.10146 -3.35646 0
M  V30 479 C 47.5251 -4.07553 -3.22796 0
M  V30 480 C 45.2101 -3.49644 -3.60631 0
M  V30 481 C 47.2041 -5.42442 -3.34716 0
M  V30 482 C 44.8911 -4.84682 -3.72192 0
M  V30 483 C 45.8891 -5.8089 -3.59243 0
M  V30 484 O 45.5771 -7.13476 -3.70415 0
M  V30 485 H 45.3091 -0.377745 -0.560611 0
M  V30 486 H 47.8631 -1.62658 -1.25425 0
M  V30 487 H 46.0931 -1.00881 -3.73309 0
M  V30 488 H 47.7821 -1.42202 -3.80175 0
M  V30 489 H 48.5481 -3.78381 -3.03403 0
M  V30 490 H 44.4271 -2.75282 -3.69785 0
M  V30 491 H 47.9711 -6.17518 -3.24526 0
M  V30 492 H 43.8681 -5.13534 -3.91092 0
M  V30 493 H 44.6361 -7.21083 -3.87275 0
M  V30 494 N 47.2992 1.18797 -1.03562 0
M  V30 495 C 48.5762 1.84469 -0.650434 0
M  V30 496 C 48.9562 1.92319 0.870433 0
M  V30 497 O 48.3042 1.44528 1.76986 0
M  V30 498 C 48.5142 3.2306 -1.32036 0
M  V30 499 C 49.8622 3.9915 -1.44792 0
M  V30 500 O 50.8862 3.32481 -1.27806 0
M  V30 501 O 49.7452 5.18587 -1.72423 0
M  V30 502 H 46.8392 0.795251 -0.226946 0
M  V30 503 H 49.3852 1.26231 -1.13419 0
M  V30 504 H 48.1572 3.1222 -2.3587 0
M  V30 505 H 47.7802 3.88949 -0.8249 0
M  V30 506 N 48.7773 0.814389 1.34928 0
M  V30 507 C 50.1883 0.458364 1.80986 0
M  V30 508 C 50.5393 -1.02042 1.67577 0
M  V30 509 O 49.6643 -1.79352 1.21086 0
M  V30 510 C 50.2593 0.825212 3.28597 0
M  V30 511 C 48.8183 0.521677 3.72767 0
M  V30 512 C 47.9653 1.04668 2.56788 0
M  V30 513 H 50.9163 1.00533 1.22795 0
M  V30 514 H 50.9373 0.12571 3.80292 0
M  V30 515 H 50.4493 1.90154 3.38324 0
M  V30 516 H 48.5503 -0.545589 3.68584 0
M  V30 517 H 48.6633 1.05977 4.67232 0
M  V30 518 H 47.0273 0.468622 2.50352 0
M  V30 519 H 47.8103 2.12927 2.6929 0
M  V30 520 N 50.2554 -1.46986 0.568584 0
M  V30 521 C 51.4834 -2.0683 0.0539956 0
M  V30 522 C 51.8984 -1.41953 -1.24478 0
M  V30 523 O 51.2554 -0.519933 -1.74937 0
M  V30 524 C 51.3064 -3.61254 -0.133362 0
M  V30 525 O 51.0274 -4.237 1.11399 0
M  V30 526 C 52.5284 -4.37992 -0.683927 0
M  V30 527 H 49.7484 -0.669058 0.0510141 0
M  V30 528 H 52.2924 -1.88824 0.785234 0
M  V30 529 H 50.4474 -3.78735 -0.81477 0
M  V30 530 H 50.8614 -5.16388 0.91888 0
M  V30 531 H 52.3354 -5.46684 -0.764263 0
M  V30 532 H 52.8124 -4.05058 -1.69778 0
M  V30 533 H 53.4184 -4.25283 -0.0378494 0
M  V30 534 N 51.7335 -0.305618 -1.54608 0
M  V30 535 C 52.9825 0.303098 -1.9941 0
M  V30 536 C 53.2955 1.54648 -1.19764 0
M  V30 537 O 54.5015 2.23007 -1.54855 0
M  V30 538 C 52.9575 0.590588 -3.55021 0
M  V30 539 C 52.5655 -0.634719 -4.43481 0
M  V30 540 C 54.3095 1.16025 -4.08336 0
M  V30 541 C 52.2165 -0.320126 -5.90533 0
M  V30 542 H 51.1465 0.117031 -0.744862 0
M  V30 543 H 53.7975 -0.415045 -1.78745 0
M  V30 544 H 52.1795 1.36845 -3.71604 0
M  V30 545 H 53.3535 -1.41079 -4.38672 0
M  V30 546 H 51.6685 -1.12333 -4.00962 0
M  V30 547 H 54.2655 1.40994 -5.15776 0
M  V30 548 H 54.6085 2.10397 -3.5922 0
M  V30 549 H 55.1415 0.443985 -3.95315 0
M  V30 550 H 51.8805 -1.23254 -6.43808 0
M  V30 551 H 51.4005 0.418579 -5.98338 0
M  V30 552 H 53.0795 0.0766241 -6.46955 0
M  V30 553 N 53.2116 1.57565 -0.0334293 0
M  V30 554 C 54.1216 2.13943 0.962572 0
M  V30 555 C 55.1376 1.09276 1.35406 0
M  V30 556 O 56.3136 1.41355 1.4346 0
M  V30 557 C 53.3786 2.65887 2.22497 0
M  V30 558 C 52.4396 3.85286 1.8935 0
M  V30 559 C 51.6726 4.34743 3.09571 0
M  V30 560 O 51.8956 3.83352 4.22371 0
M  V30 561 O 50.8296 5.26538 2.91618 0
M  V30 562 H 54.6556 2.99333 0.513169 0
M  V30 563 H 52.2406 1.4822 0.18743 0
M  V30 564 H 54.1226 2.99346 2.96598 0
M  V30 565 H 52.7976 1.83578 2.6661 0
M  V30 566 H 51.7046 3.56746 1.1262 0
M  V30 567 H 53.0376 4.68771 1.5005 0
M  V30 568 N 54.6897 -0.239769 1.55765 0
M  V30 569 C 55.9667 -0.990056 1.68693 0
M  V30 570 C 56.3467 -2.03107 0.5754 0
M  V30 571 O 55.6947 -2.24604 -0.42017 0
M  V30 572 C 55.9047 -1.61696 3.09282 0
M  V30 573 C 57.2527 -2.11613 3.6811 0
M  V30 574 O 58.2767 -1.71624 3.12127 0
M  V30 575 O 57.1357 -2.85057 4.66267 0
M  V30 576 H 54.2297 -0.461299 0.686391 0
M  V30 577 H 56.7757 -0.232991 1.68093 0
M  V30 578 H 55.5477 -0.864357 3.81634 0
M  V30 579 H 55.1707 -2.44005 3.13923 0
M  V30 580 N 56.1678 -1.49265 -0.50573 0
M  V30 581 C 57.3928 -1.62478 -1.28902 0
M  V30 582 C 57.8178 -0.294332 -1.85783 0
M  V30 583 O 57.1758 0.737412 -1.65626 0
M  V30 584 C 57.2238 -2.69268 -2.39848 0
M  V30 585 O 56.3278 -2.28113 -3.43567 0
M  V30 586 H 55.6688 -0.54399 -0.380751 0
M  V30 587 H 58.1988 -1.95421 -0.605952 0
M  V30 588 H 58.2088 -2.91291 -2.85681 0
M  V30 589 H 56.8838 -3.65846 -1.97812 0
M  V30 590 H 55.4608 -2.16401 -3.03685 0
M  V30 591 N 57.6459 0.756429 -1.3826 0
M  V30 592 C 58.8759 1.54341 -1.3734 0
M  V30 593 C 59.2839 1.89159 0.0393917 0
M  V30 594 O 58.6269 1.5307 1.01565 0
M  V30 595 C 58.6889 2.87238 -2.16182 0
M  V30 596 C 58.3529 2.74973 -3.65019 0
M  V30 597 C 59.3499 2.44962 -4.58574 0
M  V30 598 C 57.0349 2.92515 -4.08338 0
M  V30 599 C 59.0289 2.32642 -5.93428 0
M  V30 600 C 56.7159 2.79815 -5.43274 0
M  V30 601 C 57.7139 2.49921 -6.35632 0
M  V30 602 O 57.4019 2.37275 -7.68086 0
M  V30 603 H 57.1339 0.484281 -0.471643 0
M  V30 604 H 59.6879 0.944152 -1.82414 0
M  V30 605 H 57.9179 3.49342 -1.65822 0
M  V30 606 H 59.6069 3.48731 -2.07705 0
M  V30 607 H 60.3729 2.31081 -4.26412 0
M  V30 608 H 56.2519 3.14781 -3.368 0
M  V30 609 H 59.7959 2.0923 -6.65484 0
M  V30 610 H 55.6929 2.93269 -5.75034 0
M  V30 611 H 56.4609 2.52509 -7.78577 0
M  V30 612 N 59.124 1.23083 0.984299 0
M  V30 613 C 60.54 0.992637 1.24975 0
M  V30 614 C 60.74 -0.308618 1.99123 0
M  V30 615 O 59.796 -1.02905 2.30579 0
M  V30 616 C 61.109 2.19698 2.05312 0
M  V30 617 C 62.657 2.24147 2.18465 0
M  V30 618 C 63.132 3.44157 3.02192 0
M  V30 619 N 64.623 3.44372 3.09777 0
M  V30 620 C 65.358 4.33886 3.74874 0
M  V30 621 N 64.854 5.3363 4.41827 0
M  V30 622 N 66.647 4.21639 3.71721 0
M  V30 623 H 58.798 2.06731 0.487453 0
M  V30 624 H 61.061 0.906339 0.277944 0
M  V30 625 H 60.767 3.1411 1.58201 0
M  V30 626 H 60.641 2.20465 3.06064 0
M  V30 627 H 63.028 1.30277 2.64786 0
M  V30 628 H 63.109 2.27415 1.17115 0
M  V30 629 H 62.753 4.38332 2.56568 0
M  V30 630 H 62.683 3.3813 4.03702 0
M  V30 631 H 65.174 2.72201 2.62135 0
M  V30 632 H 65.487 5.98196 4.89266 0
M  V30 633 H 63.832 5.37534 4.40548 0
M  V30 634 H 67.023 3.42962 3.18582 0
M  V30 635 H 67.196 4.91604 4.22173 0
M  V30 636 N 60.6021 -1.18246 1.0419 0
M  V30 637 C 61.5491 -2.2192 0.634037 0
M  V30 638 C 62.5191 -1.62179 -0.358765 0
M  V30 639 O 63.7041 -1.89122 -0.252466 0
M  V30 640 C 60.8441 -3.451 0.00445535 0
M  V30 641 C 59.9571 -4.19174 1.04487 0
M  V30 642 C 59.0921 -5.29813 0.383676 0
M  V30 643 C 58.1311 -5.9566 1.4091 0
M  V30 644 N 57.2681 -6.97834 0.772784 0
M  V30 645 H 62.1081 -2.56164 1.52263 0
M  V30 646 H 59.6451 -1.25843 0.761701 0
M  V30 647 H 61.6031 -4.15485 -0.377919 0
M  V30 648 H 60.2331 -3.11472 -0.847652 0
M  V30 649 H 59.2851 -3.47604 1.54518 0
M  V30 650 H 60.5971 -4.64267 1.82368 0
M  V30 651 H 59.7511 -6.06677 -0.0528366 0
M  V30 652 H 58.4901 -4.85825 -0.427208 0
M  V30 653 H 57.4951 -5.17535 1.85574 0
M  V30 654 H 58.7201 -6.4173 2.22171 0
M  V30 655 H 56.6661 -6.55998 -0.0177708 0
M  V30 656 H 56.5831 -7.41186 1.48928 0
M  V30 657 H 57.8511 -7.78665 0.36071 0
M  V30 658 N 62.0802 -0.821533 -1.34494 0
M  V30 659 C 63.0122 -0.199946 -2.28326 0
M  V30 660 C 64.0252 0.609377 -1.50965 0
M  V30 661 O 65.2142 0.439285 -1.7301 0
M  V30 662 C 62.3142 0.738431 -3.30757 0
M  V30 663 C 61.4872 -0.0277632 -4.37391 0
M  V30 664 C 60.5462 0.831332 -5.19591 0
M  V30 665 O 59.5722 0.276822 -5.68526 0
M  V30 666 N 60.7742 2.15132 -5.39165 0
M  V30 667 H 63.5392 -1.00609 -2.82308 0
M  V30 668 H 61.1002 -0.678366 -1.47003 0
M  V30 669 H 63.0922 1.31773 -3.82646 0
M  V30 670 H 61.6622 1.44533 -2.7718 0
M  V30 671 H 60.8822 -0.788359 -3.86236 0
M  V30 672 H 62.1702 -0.555251 -5.05761 0
M  V30 673 H 61.5682 2.62559 -5.01078 0
M  V30 674 H 60.1252 2.6795 -5.94177 0
M  V30 675 N 63.5583 1.46682 -0.576371 0
M  V30 676 C 64.8043 2.02712 -0.0596221 0
M  V30 677 C 65.1373 1.44765 1.29448 0
M  V30 678 O 64.4123 0.610355 1.84675 0
M  V30 679 C 64.6953 3.60098 0.0129503 0
M  V30 680 C 64.5483 4.28441 -1.3696 0
M  V30 681 C 65.8673 4.34224 0.71678 0
M  V30 682 H 62.9863 0.736637 -0.0231407 0
M  V30 683 H 65.6283 1.74898 -0.742351 0
M  V30 684 H 63.7783 3.83926 0.594378 0
M  V30 685 H 65.4503 4.15896 -1.9957 0
M  V30 686 H 63.6933 3.8805 -1.93907 0
M  V30 687 H 64.3643 5.3716 -1.27135 0
M  V30 688 H 66.8403 4.15503 0.222908 0
M  V30 689 H 65.7163 5.43936 0.73657 0
M  V30 690 H 65.9773 4.04823 1.77682 0
M  V30 691 N 65.0364 0.313813 1.54444 0
M  V30 692 C 66.2824 -0.292108 2.00685 0
M  V30 693 C 66.6154 -1.52548 1.20177 0
M  V30 694 O 65.8904 -1.92452 0.281531 0
M  V30 695 C 66.1734 -0.635968 3.5444 0
M  V30 696 C 66.0264 0.607437 4.4568 0
M  V30 697 C 67.3454 -1.45747 4.15266 0
M  V30 698 H 64.4644 -0.104697 0.729526 0
M  V30 699 H 67.1064 0.428457 1.85106 0
M  V30 700 H 65.2564 -1.24986 3.67846 0
M  V30 701 H 66.9284 1.24581 4.44159 0
M  V30 702 H 65.1714 1.23822 4.15753 0
M  V30 703 H 65.8424 0.322515 5.51057 0
M  V30 704 H 68.3184 -0.938645 4.05375 0
M  V30 705 H 67.1944 -1.66683 5.2298 0
M  V30 706 H 67.4554 -2.45063 3.67963 0
M  V30 707 N 66.5145 -1.57545 0.0417849 0
M  V30 708 C 67.7635 -1.91494 -0.633492 0
M  V30 709 C 68.0765 -0.921084 -1.72556 0
M  V30 710 O 69.2825 -1.15228 -2.45835 0
M  V30 711 C 67.7385 -3.40072 -1.17808 0
M  V30 712 C 67.3465 -4.47843 -0.118633 0
M  V30 713 C 69.0905 -3.8307 -1.82915 0
M  V30 714 C 66.9975 -5.87529 -0.675578 0
M  V30 715 H 65.9275 -0.714653 -0.24039 0
M  V30 716 H 68.5785 -1.83175 0.109148 0
M  V30 717 H 66.9605 -3.43364 -1.97274 0
M  V30 718 H 68.1345 -4.56128 0.654494 0
M  V30 719 H 66.4495 -4.14128 0.434414 0
M  V30 720 H 69.0465 -4.84794 -2.25563 0
M  V30 721 H 69.3895 -3.1881 -2.67705 0
M  V30 722 H 69.9225 -3.82255 -1.10119 0
M  V30 723 H 66.6615 -6.55362 0.134475 0
M  V30 724 H 66.1815 -5.82824 -1.4169 0
M  V30 725 H 67.8605 -6.36491 -1.1614 0
M  V30 726 N 67.9926 0.231505 -1.5589 0
M  V30 727 C 69.2696 0.981096 -1.69215 0
M  V30 728 C 69.6496 2.02799 -0.586164 0
M  V30 729 O 68.9976 2.24823 0.408253 0
M  V30 730 C 69.2076 1.60054 -3.10135 0
M  V30 731 C 70.5556 2.09658 -3.69227 0
M  V30 732 O 71.5796 1.69967 -3.13033 0
M  V30 733 O 70.4386 2.8258 -4.67772 0
M  V30 734 H 67.5326 0.457653 -0.688827 0
M  V30 735 H 70.0786 0.224073 -1.68214 0
M  V30 736 H 68.8506 0.844105 -3.82087 0
M  V30 737 H 68.4736 2.42336 -3.15212 0
M  V30 738 N 69.4707 1.49531 0.497807 0
M  V30 739 C 70.7187 1.58865 1.24926 0
M  V30 740 C 71.0397 0.278721 1.92998 0
M  V30 741 O 70.3097 -0.702144 1.82885 0
M  V30 742 H 68.8897 0.585343 0.464094 0
M  V30 743 H 71.5517 1.86174 0.57666 0
M  V30 744 H 70.6477 2.38633 2.01149 0
M  V30 745 N 70.9488 -0.749086 1.3866 0
M  V30 746 C 71.8588 -1.89358 1.38494 0
M  V30 747 C 72.8748 -1.71708 0.281476 0
M  V30 748 O 74.0508 -1.94554 0.520643 0
M  V30 749 C 71.1158 -3.24782 1.21316 0
M  V30 750 C 70.1768 -3.54926 2.41508 0
M  V30 751 C 69.4098 -4.83888 2.2514 0
M  V30 752 O 69.6328 -5.56592 1.24746 0
M  V30 753 O 68.5668 -5.13612 3.13826 0
M  V30 754 H 72.3928 -1.92452 2.34938 0
M  V30 755 H 69.9778 -0.894981 1.19626 0
M  V30 756 H 71.8598 -4.05739 1.13814 0
M  V30 757 H 70.5348 -3.2249 0.279592 0
M  V30 758 H 69.4418 -2.74112 2.54585 0
M  V30 759 H 70.7748 -3.61983 3.3351 0
M  V30 760 N 72.4269 -1.23603 -0.977757 0
M  V30 761 C 73.6549 -1.09646 -1.75458 0
M  V30 762 C 74.0699 0.351859 -1.85492 0
M  V30 763 O 73.4269 1.24327 -1.336 0
M  V30 764 C 73.4779 -1.71895 -3.18016 0
M  V30 765 O 73.1989 -3.11063 -3.08498 0
M  V30 766 C 74.6999 -1.63415 -4.12081 0
M  V30 767 H 71.9199 -0.38359 -0.550545 0
M  V30 768 H 74.4639 -1.63507 -1.22824 0
M  V30 769 H 72.6189 -1.22061 -3.67668 0
M  V30 770 H 73.0329 -3.41305 -3.9826 0
M  V30 771 H 74.5069 -2.11669 -5.09804 0
M  V30 772 H 74.9839 -0.593462 -4.35172 0
M  V30 773 H 75.5899 -2.12628 -3.68334 0
M  V30 774 N 73.905 1.17692 -1.04816 0
M  V30 775 C 75.145 1.89545 -0.764979 0
M  V30 776 C 75.509 1.78979 0.695028 0
M  V30 777 O 76.71 2.45613 1.09215 0
M  V30 778 C 74.981 3.35659 -1.22751 0
M  V30 779 S 76.54 4.25526 -1.07112 0
M  V30 780 H 73.358 0.654432 -0.27792 0
M  V30 781 H 75.96 1.42163 -1.34201 0
M  V30 782 H 74.664 3.40882 -2.28533 0
M  V30 783 H 74.195 3.88083 -0.644594 0
M  V30 784 H 76.21 4.962 0.00697508 0
M  V30 785 N 75.3831 0.828654 1.34056 0
M  V30 786 C 76.3131 0.269443 2.3194 0
M  V30 787 C 77.2941 -0.617247 1.58506 0
M  V30 788 O 78.4791 -0.542931 1.86456 0
M  V30 789 C 75.6091 -0.564793 3.42677 0
M  V30 790 C 74.5631 0.225241 4.27407 0
M  V30 791 C 73.8891 -0.7321 5.29664 0
M  V30 792 C 75.1891 1.43663 5.02154 0
M  V30 793 H 76.8831 1.08728 2.7896 0
M  V30 794 H 74.4291 0.524283 1.34117 0
M  V30 795 H 76.3821 -0.966233 4.10173 0
M  V30 796 H 75.1061 -1.41574 2.9432 0
M  V30 797 H 73.7651 0.608117 3.61521 0
M  V30 798 H 73.4131 -1.57916 4.77568 0
M  V30 799 H 73.1131 -0.20767 5.87233 0
M  V30 800 H 74.6371 -1.13128 6.00029 0
M  V30 801 H 76.0511 1.1089 5.62473 0
M  V30 802 H 74.4481 1.89711 5.69324 0
M  V30 803 H 75.5181 2.21181 4.31517 0
M  V30 804 N 76.8612 -1.46375 0.584142 0
M  V30 805 C 77.7912 -2.33103 -0.136037 0
M  V30 806 C 78.7722 -1.45431 -0.882255 0
M  V30 807 O 79.9572 -1.74246 -0.857434 0
M  V30 808 C 77.0872 -3.27731 -1.14933 0
M  V30 809 C 76.0412 -4.24855 -0.517862 0
M  V30 810 C 75.3672 -5.09001 -1.63773 0
M  V30 811 C 76.6672 -5.19439 0.545886 0
M  V30 812 H 78.3612 -2.93568 0.588086 0
M  V30 813 H 75.9072 -1.41166 0.284259 0
M  V30 814 H 77.8602 -3.87261 -1.66153 0
M  V30 815 H 76.5842 -2.65377 -1.90375 0
M  V30 816 H 75.2432 -3.6659 -0.0267361 0
M  V30 817 H 74.8912 -4.43031 -2.38185 0
M  V30 818 H 74.5912 -5.74777 -1.22085 0
M  V30 819 H 76.1152 -5.71396 -2.15266 0
M  V30 820 H 77.5292 -5.73177 0.118704 0
M  V30 821 H 75.9262 -5.93566 0.88317 0
M  V30 822 H 76.9962 -4.63285 1.43162 0
M  V30 823 N 78.3393 -0.321999 -1.54275 0
M  V30 824 C 79.6163 0.335232 -1.92706 0
M  V30 825 C 79.9963 1.70006 -1.25145 0
M  V30 826 O 79.3443 2.25067 -0.394596 0
M  V30 827 C 79.5543 0.429008 -3.46353 0
M  V30 828 C 80.9023 0.690029 -4.18956 0
M  V30 829 O 81.9263 0.511992 -3.52501 0
M  V30 830 O 80.7853 1.03338 -5.36641 0
M  V30 831 H 77.8793 0.191143 -0.804608 0
M  V30 832 H 80.4253 -0.3716 -1.65581 0
M  V30 833 H 79.1973 -0.529611 -3.87699 0
M  V30 834 H 78.8203 1.18348 -3.79578 0
M  V30 835 N 79.8174 1.5752 -0.0501392 0
M  V30 836 C 81.0664 1.91827 0.623328 0
M  V30 837 C 81.3794 0.930222 1.72065 0
M  V30 838 O 82.5854 1.1653 2.4522 0
M  V30 839 C 81.0414 3.40692 1.16003 0
M  V30 840 C 80.6494 4.479 0.0948811 0
M  V30 841 C 82.3934 3.84034 1.80881 0
M  V30 842 C 80.3004 5.87879 0.644411 0
M  V30 843 H 79.2304 0.715918 0.236596 0
M  V30 844 H 81.8814 1.83115 -0.118861 0
M  V30 845 H 80.2634 3.44405 1.9545 0
M  V30 846 H 81.4374 4.55775 -0.678675 0
M  V30 847 H 79.7524 4.13892 -0.45637 0
M  V30 848 H 82.3494 4.85984 2.22988 0
M  V30 849 H 82.6924 3.20225 2.6601 0
M  V30 850 H 83.2254 3.82833 1.0809 0
M  V30 851 H 79.9644 6.55282 -0.169229 0
M  V30 852 H 79.4844 5.83567 1.38598 0
M  V30 853 H 81.1634 6.37098 1.12763 0
M  V30 854 N 81.2955 -0.223234 1.56011 0
M  V30 855 C 82.2255 -1.27988 1.95298 0
M  V30 856 C 83.2065 -1.48976 0.820979 0
M  V30 857 O 84.3915 -1.61188 1.08315 0
M  V30 858 C 81.5215 -2.63 2.26822 0
M  V30 859 C 80.4755 -2.56671 3.42497 0
M  V30 860 C 79.8015 -3.95697 3.59622 0
M  V30 861 C 81.1015 -2.11601 4.77517 0
M  V30 862 H 82.7955 -0.953525 2.8381 0
M  V30 863 H 80.3415 -0.457244 1.36548 0
M  V30 864 H 82.2945 -3.37077 2.52898 0
M  V30 865 H 81.0185 -2.9732 1.35161 0
M  V30 866 H 79.6775 -1.85051 3.16467 0
M  V30 867 H 79.3255 -4.27322 2.6534 0
M  V30 868 H 79.0255 -3.92345 4.37424 0
M  V30 869 H 80.5495 -4.71438 3.88044 0
M  V30 870 H 81.9635 -2.7542 5.02809 0
M  V30 871 H 80.3605 -2.19311 5.5859 0
M  V30 872 H 81.4305 -1.06824 4.72987 0
M  V30 873 N 82.7736 -1.49793 -0.48987 0
M  V30 874 C 84.0506 -1.50348 -1.25119 0
M  V30 875 C 84.4306 -0.237466 -2.0976 0
M  V30 876 O 83.7786 0.77981 -2.14782 0
M  V30 877 C 83.9886 -2.78872 -2.09837 0
M  V30 878 C 85.3366 -3.288 -2.68655 0
M  V30 879 O 86.3606 -2.80065 -2.20096 0
M  V30 880 O 85.2196 -4.13707 -3.57083 0
M  V30 881 H 82.3136 -0.602242 -0.566775 0
M  V30 882 H 84.8596 -1.62067 -0.503229 0
M  V30 883 H 83.6316 -3.62499 -1.47343 0
M  V30 884 H 83.2546 -2.70066 -2.91805 0
M  V30 885 N 84.2517 0.741722 -1.39055 0
M  V30 886 C 85.4797 1.53098 -1.39171 0
M  V30 887 C 85.8947 1.88794 0.0155099 0
M  V30 888 O 85.2517 1.53626 0.985159 0
M  V30 889 C 85.3027 2.82274 -2.2584 0
M  V30 890 O 85.0237 2.48097 -3.61081 0
M  V30 891 C 86.5247 3.76343 -2.34266 0
M  V30 892 H 83.7447 0.473335 -0.4756 0
M  V30 893 H 86.2887 0.917045 -1.82785 0
M  V30 894 H 84.4437 3.40015 -1.85656 0
M  V30 895 H 84.8577 3.31029 -4.06842 0
M  V30 896 H 86.3317 4.63898 -2.9917 0
M  V30 897 H 86.8087 4.17619 -1.35982 0
M  V30 898 H 87.4147 3.24523 -2.74891 0
M  V30 899 N 85.7298 1.2412 0.971189 0
M  V30 900 C 86.6928 1.03156 2.04674 0
M  V30 901 C 87.6928 -0.00990322 1.60797 0
M  V30 902 O 88.8828 0.230729 1.72665 0
M  V30 903 C 86.0148 0.562765 3.36223 0
M  V30 904 H 87.2078 1.98614 2.24705 0
M  V30 905 H 84.7608 1.06293 1.14593 0
M  V30 906 H 85.4958 -0.395176 3.21883 0
M  V30 907 H 85.2808 1.31441 3.69413 0
M  V30 908 H 86.7708 0.437015 4.15307 0
M  V30 909 N 87.2079 -1.17134 1.05439 0
M  V30 910 C 88.4559 -1.87085 0.764429 0
M  V30 911 C 88.7769 -1.81584 -0.710787 0
M  V30 912 O 88.0469 -1.24349 -1.51374 0
M  V30 913 H 86.6269 -0.692627 0.279779 0
M  V30 914 H 89.2889 -1.42087 1.33406 0
M  V30 915 H 88.3849 -2.92759 1.0816 0
M  V30 916 N 88.686 -0.835752 -1.33615 0
M  V30 917 C 89.618 -0.224151 -2.28101 0
M  V30 918 C 90.631 0.593331 -1.51603 0
M  V30 919 O 91.82 0.420911 -1.73466 0
M  V30 920 C 88.92 0.703309 -3.31522 0
M  V30 921 C 88.093 -0.0741528 -4.37337 0
M  V30 922 C 87.152 0.776176 -5.20444 0
M  V30 923 O 86.178 0.216506 -5.68788 0
M  V30 924 N 87.38 2.09401 -5.41416 0
M  V30 925 H 90.145 -1.03598 -2.81225 0
M  V30 926 H 87.706 -0.69392 -1.46275 0
M  V30 927 H 89.698 1.27707 -3.84022 0
M  V30 928 H 88.268 1.41585 -2.78698 0
M  V30 929 H 87.488 -0.82928 -3.85378 0
M  V30 930 H 88.776 -0.608863 -5.05144 0
M  V30 931 H 88.174 2.57229 -5.03835 0
M  V30 932 H 86.731 2.61633 -5.96985 0
M  V30 933 N 90.1641 1.46063 -0.591896 0
M  V30 934 C 91.0741 2.34192 0.13831 0
M  V30 935 C 92.0901 1.50305 0.876608 0
M  V30 936 O 93.2661 1.8315 0.837728 0
M  V30 937 C 90.3311 3.27656 1.13326 0
M  V30 938 C 89.3921 4.27445 0.39863 0
M  V30 939 C 88.6251 5.16443 1.34618 0
M  V30 940 O 88.8481 5.08553 2.58321 0
M  V30 941 O 87.7821 5.95843 0.851768 0
M  V30 942 H 91.6081 2.98002 -0.58552 0
M  V30 943 H 89.1931 1.45188 -0.352239 0
M  V30 944 H 91.0751 3.85291 1.70671 0
M  V30 945 H 89.7501 2.6643 1.83839 0
M  V30 946 H 88.6571 3.73471 -0.216895 0
M  V30 947 H 89.9901 4.91482 -0.265709 0
M  V30 948 N 91.6422 0.330177 1.54103 0
M  V30 949 C 92.5522 -0.541534 2.28264 0
M  V30 950 C 93.5682 -1.12351 1.32866 0
M  V30 951 O 94.7442 -1.14206 1.65888 0
M  V30 952 C 91.8092 -1.68322 3.03098 0
M  V30 953 C 90.8702 -1.13238 4.14096 0
M  V30 954 C 90.1032 -2.21966 4.85352 0
M  V30 955 O 90.3262 -3.42437 4.56172 0
M  V30 956 O 89.2602 -1.87013 5.7211 0
M  V30 957 H 93.0862 0.060938 3.03639 0
M  V30 958 H 90.6712 0.09565 1.49093 0
M  V30 959 H 92.5532 -2.34777 3.49939 0
M  V30 960 H 91.2282 -2.27176 2.30593 0
M  V30 961 H 90.1352 -0.432736 3.71589 0
M  V30 962 H 91.4682 -0.588898 4.88664 0
M  V30 963 N 93.1203 -1.57491 0.0584922 0
M  V30 964 C 94.3503 -1.9701 -0.622134 0
M  V30 965 C 94.7583 -0.935034 -1.6448 0
M  V30 966 O 94.1013 0.0882904 -1.83488 0
M  V30 967 C 94.1633 -3.32794 -1.35972 0
M  V30 968 C 93.8273 -4.54343 -0.492043 0
M  V30 969 C 94.8243 -5.19323 0.244901 0
M  V30 970 C 92.5093 -5.00534 -0.420821 0
M  V30 971 C 94.5033 -6.28835 1.04143 0
M  V30 972 C 92.1903 -6.09921 0.379389 0
M  V30 973 C 93.1883 -6.73933 1.10919 0
M  V30 974 O 92.8763 -7.81216 1.89623 0
M  V30 975 H 92.6083 -0.653127 -0.174359 0
M  V30 976 H 95.1623 -2.05029 0.123418 0
M  V30 977 H 93.3923 -3.21351 -2.15105 0
M  V30 978 H 95.0813 -3.5701 -1.93129 0
M  V30 979 H 95.8473 -4.8459 0.19939 0
M  V30 980 H 91.7263 -4.50496 -0.978474 0
M  V30 981 H 95.2703 -6.7873 1.61157 0
M  V30 982 H 91.1673 -6.44089 0.426512 0
M  V30 983 H 91.9353 -7.98029 1.81913 0
M  V30 984 N 94.5984 0.214957 -1.56127 0
M  V30 985 C 95.8234 0.95924 -1.83884 0
M  V30 986 C 96.2484 1.7689 -0.639644 0
M  V30 987 O 95.6064 1.76566 0.411601 0
M  V30 988 C 95.6544 1.84723 -3.09693 0
M  V30 989 O 94.7584 2.94346 -2.8885 0
M  V30 990 H 94.0994 0.27125 -0.606069 0
M  V30 991 H 96.6294 0.226276 -2.03345 0
M  V30 992 H 96.6394 2.25576 -3.39969 0
M  V30 993 H 95.3144 1.25218 -3.96602 0
M  V30 994 H 93.8914 2.57391 -2.69823 0
M  V30 995 N 96.0765 1.50051 0.48192 0
M  V30 996 C 97.0395 1.67584 1.5636 0
M  V30 997 C 98.0395 0.546894 1.51214 0
M  V30 998 O 99.2295 0.813725 1.54026 0
M  V30 999 C 96.3615 1.691 2.96003 0
M  V30 1000 H 97.5545 2.64078 1.42136 0
M  V30 1001 H 95.1075 1.39369 0.707533 0
M  V30 1002 H 95.8425 0.742589 3.15684 0
M  V30 1003 H 95.6275 2.51105 3.01146 0
M  V30 1004 H 97.1175 1.84656 3.74556 0
M  V30 1005 N 97.5546 -0.734337 1.39446 0
M  V30 1006 C 98.4876 -1.85715 1.32609 0
M  V30 1007 C 99.4656 -1.6137 0.199636 0
M  V30 1008 O 100.65 -1.84626 0.380195 0
M  V30 1009 C 97.7766 -3.21709 1.05929 0
M  V30 1010 C 96.8226 -3.64913 2.20773 0
M  V30 1011 S 97.6556 -3.74203 3.83056 0
M  V30 1012 C 98.8116 -5.12986 3.58603 0
M  V30 1013 H 99.0446 -1.91232 2.27635 0
M  V30 1014 H 96.5776 -0.899263 1.25509 0
M  V30 1015 H 98.5356 -4.00236 0.912203 0
M  V30 1016 H 97.1966 -3.13848 0.125883 0
M  V30 1017 H 96.3896 -4.63606 1.97699 0
M  V30 1018 H 95.9916 -2.93593 2.31688 0
M  V30 1019 H 98.2836 -5.99339 3.15909 0
M  V30 1020 H 99.2266 -5.41088 4.5676 0
M  V30 1021 H 99.6346 -4.82694 2.9269 0
M  V30 1022 N 99.0327 -1.24633 -0.964593 0
M  V30 1023 C 100.449 -1.01239 -1.2338 0
M  V30 1024 C 100.649 0.2769 -1.99588 0
M  V30 1025 O 99.7047 0.992241 -2.32187 0
M  V30 1026 C 101.018 -2.22937 -2.01791 0
M  V30 1027 C 102.566 -2.27594 -2.14872 0
M  V30 1028 C 103.041 -3.48921 -2.96678 0
M  V30 1029 N 104.532 -3.49257 -3.04259 0
M  V30 1030 C 105.267 -4.39795 -3.67924 0
M  V30 1031 N 104.763 -5.40591 -4.33281 0
M  V30 1032 N 106.556 -4.275 -3.64966 0
M  V30 1033 H 98.7067 -2.0748 -0.454502 0
M  V30 1034 H 100.97 -0.910647 -0.26349 0
M  V30 1035 H 100.676 -3.16587 -1.53184 0
M  V30 1036 H 100.55 -2.25306 -3.02518 0
M  V30 1037 H 102.937 -1.34473 -2.6268 0
M  V30 1038 H 103.018 -2.2925 -1.13482 0
M  V30 1039 H 102.662 -4.42359 -2.49562 0
M  V30 1040 H 102.592 -3.4451 -3.98272 0
M  V30 1041 H 105.083 -2.76337 -2.57771 0
M  V30 1042 H 105.396 -6.05904 -4.79687 0
M  V30 1043 H 103.741 -5.44475 -4.3194 0
M  V30 1044 H 106.932 -3.47987 -3.13086 0
M  V30 1045 H 107.105 -4.98258 -4.14298 0
M  V30 1046 N 100.511 1.16574 -1.06058 0
M  V30 1047 C 101.788 1.83048 -0.689416 0
M  V30 1048 C 102.168 1.94122 0.829443 0
M  V30 1049 O 101.516 1.48249 1.7388 0
M  V30 1050 C 101.726 3.20186 -1.38859 0
M  V30 1051 C 103.074 3.95989 -1.53226 0
M  V30 1052 O 104.098 3.29696 -1.3483 0
M  V30 1053 O 102.957 5.14813 -1.83384 0
M  V30 1054 H 100.051 0.790258 -0.243764 0
M  V30 1055 H 102.597 1.23797 -1.16071 0
M  V30 1056 H 101.369 3.07146 -2.4244 0
M  V30 1057 H 100.992 3.87112 -0.907216 0
M  V30 1058 N 101.989 0.842826 1.3317 0
M  V30 1059 C 102.921 0.236245 2.27979 0
M  V30 1060 C 103.934 -0.585282 1.51915 0
M  V30 1061 O 105.123 -0.411705 1.73687 0
M  V30 1062 C 102.223 -0.685717 3.3189 0
M  V30 1063 C 101.396 0.0973448 4.37292 0
M  V30 1064 C 100.455 -0.748565 5.20848 0
M  V30 1065 O 99.4809 -0.186339 5.68895 0
M  V30 1066 N 100.683 -2.06527 5.42519 0
M  V30 1067 H 103.448 1.05088 2.80672 0
M  V30 1068 H 101.009 0.701667 1.45905 0
M  V30 1069 H 103.001 -1.25669 3.84694 0
M  V30 1070 H 101.571 -1.40105 2.79445 0
M  V30 1071 H 100.791 0.849706 3.84933 0
M  V30 1072 H 102.079 0.635643 5.04814 0
M  V30 1073 H 101.477 -2.54554 5.05192 0
M  V30 1074 H 100.034 -2.58464 5.98364 0
M  V30 1075 N 103.467 -1.45747 0.599634 0
M  V30 1076 C 104.697 -2.06369 0.0977132 0
M  V30 1077 C 105.105 -1.44624 -1.21985 0
M  V30 1078 O 104.448 -0.551831 -1.75216 0
M  V30 1079 C 104.51 -3.59284 -0.124673 0
M  V30 1080 C 104.174 -4.43318 1.10987 0
M  V30 1081 C 105.171 -4.78796 2.02609 0
M  V30 1082 C 102.856 -4.84194 1.33647 0
M  V30 1083 C 104.85 -5.53997 3.15224 0
M  V30 1084 C 102.537 -5.5915 2.46565 0
M  V30 1085 C 103.535 -5.93968 3.37182 0
M  V30 1086 O 103.223 -6.67405 4.48136 0
M  V30 1087 H 102.955 -0.673122 0.0623153 0
M  V30 1088 H 105.509 -1.88104 0.824981 0
M  V30 1089 H 103.739 -3.75919 -0.906745 0
M  V30 1090 H 105.428 -4.01775 -0.577201 0
M  V30 1091 H 106.194 -4.47781 1.86325 0
M  V30 1092 H 102.073 -4.56534 0.64016 0
M  V30 1093 H 105.617 -5.81091 3.85978 0
M  V30 1094 H 101.514 -5.89579 2.62805 0
M  V30 1095 H 102.282 -6.85847 4.46717 0
M  V30 1096 N 104.945 -0.338344 -1.53925 0
M  V30 1097 C 105.878 0.563758 -2.21127 0
M  V30 1098 C 106.856 1.10433 -1.19345 0
M  V30 1099 O 108.04 1.16557 -1.48144 0
M  V30 1100 C 105.167 1.77505 -2.88461 0
M  V30 1101 C 104.213 1.3644 -4.04087 0
M  V30 1102 S 105.046 0.388593 -5.34088 0
M  V30 1103 C 106.202 1.60683 -6.04923 0
M  V30 1104 H 106.435 -0.00704546 -2.97299 0
M  V30 1105 H 103.968 -0.122418 -1.53914 0
M  V30 1106 H 105.926 2.46999 -3.27875 0
M  V30 1107 H 104.587 2.31706 -2.12064 0
M  V30 1108 H 103.78 2.26739 -4.50117 0
M  V30 1109 H 103.382 0.748998 -3.66423 0
M  V30 1110 H 105.674 2.54209 -6.28 0
M  V30 1111 H 106.617 1.18842 -6.98056 0
M  V30 1112 H 107.025 1.80052 -5.35015 0
M  V30 1113 N 106.423 1.57458 -0.0668435 0
M  V30 1114 C 107.839 1.56947 0.289772 0
M  V30 1115 C 108.039 1.07584 1.70376 0
M  V30 1116 O 107.095 0.739486 2.41429 0
M  V30 1117 C 108.408 3.0052 0.103943 0
M  V30 1118 C 109.956 3.12517 0.173857 0
M  V30 1119 C 110.431 4.57997 0.0163682 0
M  V30 1120 N 111.922 4.63144 0.0721352 0
M  V30 1121 C 112.657 5.73394 -0.0253794 0
M  V30 1122 N 112.153 6.92576 -0.176133 0
M  V30 1123 N 113.946 5.62091 0.0313305 0
M  V30 1124 H 106.097 1.87863 -0.991027 0
M  V30 1125 H 108.36 0.86583 -0.38606 0
M  V30 1126 H 108.066 3.40729 -0.871572 0
M  V30 1127 H 107.94 3.67304 0.858366 0
M  V30 1128 H 110.327 2.72197 1.13985 0
M  V30 1129 H 110.408 2.48381 -0.611586 0
M  V30 1130 H 110.052 4.99005 -0.946374 0
M  V30 1131 H 109.982 5.20158 0.821153 0
M  V30 1132 H 112.473 3.77436 0.187263 0
M  V30 1133 H 112.786 7.72418 -0.242821 0
M  V30 1134 H 111.131 6.94678 -0.211429 0
M  V30 1135 H 114.322 4.67867 0.147773 0
M  V30 1136 H 114.495 6.47982 -0.048121 0
M  V30 1137 N 107.901 -0.206675 1.56239 0
M  V30 1138 C 109.129 -0.945345 1.8404 0
M  V30 1139 C 109.544 -1.77336 0.647885 0
M  V30 1140 O 108.901 -1.78425 -0.383511 0
M  V30 1141 C 108.952 -1.8509 3.10522 0
M  V30 1142 O 108.673 -1.05634 4.25174 0
M  V30 1143 C 110.174 -2.70222 3.51418 0
M  V30 1144 H 107.394 -0.276372 0.61144 0
M  V30 1145 H 109.938 -0.217417 2.03341 0
M  V30 1146 H 108.093 -2.53259 2.93153 0
M  V30 1147 H 108.507 -1.67238 4.97124 0
M  V30 1148 H 109.981 -3.29438 4.42916 0
M  V30 1149 H 110.458 -3.43358 2.73864 0
M  V30 1150 H 111.064 -2.07443 3.71278 0
M  V30 1151 N 109.379 -1.50304 -0.473955 0
M  V30 1152 C 110.627 -1.60832 -1.22382 0
M  V30 1153 C 110.948 -0.30939 -1.9253 0
M  V30 1154 O 110.218 0.67296 -1.83978 0
M  V30 1155 H 108.798 -0.592652 -0.454723 0
M  V30 1156 H 111.46 -1.87068 -0.546968 0
M  V30 1157 H 110.556 -2.41803 -1.97327 0
M  V30 1158 N 110.857 0.726932 -1.39834 0
M  V30 1159 C 111.767 1.87131 -1.41489 0
M  V30 1160 C 112.783 1.71239 -0.308757 0
M  V30 1161 O 113.959 1.93701 -0.551529 0
M  V30 1162 C 111.024 3.22811 -1.26468 0
M  V30 1163 C 110.085 3.51039 -2.47124 0
M  V30 1164 C 109.318 4.80245 -2.3281 0
M  V30 1165 O 109.541 5.54537 -1.33585 0
M  V30 1166 O 108.475 5.08554 -3.21957 0
M  V30 1167 H 112.301 1.8869 -2.3797 0
M  V30 1168 H 109.886 0.875837 -1.21035 0
M  V30 1169 H 111.768 4.03877 -1.20255 0
M  V30 1170 H 110.443 3.22005 -0.330862 0
M  V30 1171 H 109.35 2.70027 -2.58914 0
M  V30 1172 H 110.683 3.56632 -3.39227 0
M  V30 1173 N 112.336 1.25143 0.95797 0
M  V30 1174 C 113.584 1.09476 1.69881 0
M  V30 1175 C 113.905 -0.365502 1.91544 0
M  V30 1176 O 113.175 -1.25985 1.50015 0
M  V30 1177 H 111.755 0.402128 0.629525 0
M  V30 1178 H 114.417 1.57214 1.15194 0
M  V30 1179 H 113.513 1.60046 2.6794 0
M  V30 1180 N 113.814 -1.1601 1.06675 0
M  V30 1181 C 115.061 -1.86633 0.785781 0
M  V30 1182 C 115.389 -1.81929 -0.687896 0
M  V30 1183 O 114.644 -1.23253 -1.52011 0
M  V30 1184 C 114.943 -3.35547 1.23057 0
M  V30 1185 C 114.609 -3.60448 2.70902 0
M  V30 1186 C 113.271 -3.66954 3.11285 0
M  V30 1187 C 115.623 -3.7071 3.66365 0
M  V30 1188 C 112.951 -3.81225 4.45965 0
M  V30 1189 C 115.303 -3.86503 5.00797 0
M  V30 1190 C 113.967 -3.91252 5.40813 0
M  V30 1191 H 113.237 -0.682937 0.287538 0
M  V30 1192 H 115.884 -1.37146 1.33654 0
M  V30 1193 H 114.189 -3.87193 0.59907 0
M  V30 1194 H 115.886 -3.88583 0.990163 0
M  V30 1195 H 112.476 -3.56021 2.38636 0
M  V30 1196 H 116.66 -3.64991 3.36296 0
M  V30 1197 H 111.916 -3.83155 4.76447 0
M  V30 1198 H 116.09 -3.93385 5.74649 0
M  V30 1199 H 113.717 -4.02062 6.45174 0
M  V30 1200 N 115.292 -0.849877 -1.32721 0
M  V30 1201 C 116.222 -0.306308 -2.31482 0
M  V30 1202 C 117.203 0.591952 -1.59468 0
M  V30 1203 O 118.388 0.513199 -1.87296 0
M  V30 1204 C 115.518 0.510204 -3.43532 0
M  V30 1205 C 114.472 -0.293209 -4.26994 0
M  V30 1206 C 113.798 0.647743 -5.30762 0
M  V30 1207 C 115.098 -1.51634 -4.99804 0
M  V30 1208 H 116.792 -1.13153 -2.77195 0
M  V30 1209 H 114.338 -0.545553 -1.33266 0
M  V30 1210 H 116.291 0.900856 -4.11658 0
M  V30 1211 H 115.015 1.36874 -2.96535 0
M  V30 1212 H 113.674 -0.665555 -3.60508 0
M  V30 1213 H 113.322 1.50299 -4.8002 0
M  V30 1214 H 113.022 0.11422 -5.87489 0
M  V30 1215 H 114.546 1.03567 -6.01753 0
M  V30 1216 H 115.96 -1.19824 -5.60638 0
M  V30 1217 H 114.357 -1.98745 -5.66234 0
M  V30 1218 H 115.427 -2.28018 -4.27943 0
M  V30 1219 N 116.77 1.45427 -0.607355 0
M  V30 1220 C 118.01 2.04128 -0.105458 0
M  V30 1221 C 118.374 1.46555 1.24039 0
M  V30 1222 O 119.575 1.96608 1.833 0
M  V30 1223 C 117.846 3.57338 -0.0665324 0
M  V30 1224 S 119.405 4.37201 0.374207 0
M  V30 1225 H 116.223 0.709278 -0.0494575 0
M  V30 1226 H 118.825 1.78139 -0.805404 0
M  V30 1227 H 117.529 3.96752 -1.04957 0
M  V30 1228 H 117.06 3.87902 0.655415 0
M  V30 1229 H 119.075 4.6888 1.62377 0
M  V30 1230 N 118.248 0.346503 1.53744 0
M  V30 1231 C 119.494 -0.249473 2.0126 0
M  V30 1232 C 119.827 -1.49965 1.23386 0
M  V30 1233 O 119.102 -1.91811 0.32229 0
M  V30 1234 C 119.385 -0.560643 3.55709 0
M  V30 1235 C 119.238 0.701836 4.44291 0
M  V30 1236 C 120.557 -1.36905 4.18264 0
M  V30 1237 H 117.676 -0.0891987 0.731582 0
M  V30 1238 H 120.318 0.467624 1.84156 0
M  V30 1239 H 118.468 -1.17156 3.70414 0
M  V30 1240 H 120.14 1.33974 4.41417 0
M  V30 1241 H 118.383 1.32612 4.13033 0
M  V30 1242 H 119.054 0.43933 5.50249 0
M  V30 1243 H 121.53 -0.852448 4.07275 0
M  V30 1244 H 120.406 -1.55553 5.26398 0
M  V30 1245 H 120.667 -2.37203 3.73078 0
M  V30 1246 N 119.726 -1.57421 0.075193 0
M  V30 1247 C 120.973 -1.93618 -0.593146 0
M  V30 1248 C 121.301 -0.955484 -1.69413 0
M  V30 1249 O 120.556 0.0283251 -1.9568 0
M  V30 1250 C 120.855 -3.36428 -1.20626 0
M  V30 1251 C 120.521 -4.50307 -0.231078 0
M  V30 1252 C 119.183 -4.81186 0.0371936 0
M  V30 1253 C 121.535 -5.19374 0.435888 0
M  V30 1254 C 118.863 -5.78466 0.979461 0
M  V30 1255 C 121.215 -6.17665 1.3665 0
M  V30 1256 C 119.879 -6.46958 1.6432 0
M  V30 1257 H 119.149 -0.708499 -0.217047 0
M  V30 1258 H 121.796 -1.90937 0.146793 0
M  V30 1259 H 120.101 -3.35592 -2.02201 0
M  V30 1260 H 121.798 -3.61727 -1.73073 0
M  V30 1261 H 118.388 -4.26227 -0.450357 0
M  V30 1262 H 122.572 -4.95711 0.241748 0
M  V30 1263 H 117.828 -5.99487 1.20106 0
M  V30 1264 H 122.002 -6.70284 1.88924 0
M  V30 1265 H 119.629 -7.2215 2.37494 0
M  V30 1266 N 121.204 0.198386 -1.56346 0
M  V30 1267 C 122.167 1.22952 -1.93431 0
M  V30 1268 C 123.167 1.38611 -0.815092 0
M  V30 1269 O 124.357 1.36479 -1.08255 0
M  V30 1270 C 121.489 2.59946 -2.20546 0
M  V30 1271 H 122.682 0.912626 -2.85677 0
M  V30 1272 H 120.235 0.43977 -1.49986 0
M  V30 1273 H 120.97 2.96696 -1.30927 0
M  V30 1274 H 120.755 2.49953 -3.02102 0
M  V30 1275 H 122.245 3.3431 -2.50253 0
M  V30 1276 N 122.682 1.50554 0.465978 0
M  V30 1277 C 123.931 1.61038 1.21448 0
M  V30 1278 C 124.244 0.31865 1.92987 0
M  V30 1279 O 125.45 0.302469 2.6981 0
M  V30 1280 C 123.906 2.84283 2.20706 0
M  V30 1281 C 123.514 4.20352 1.54946 0
M  V30 1282 C 125.258 3.04115 2.96166 0
M  V30 1283 C 123.165 5.34778 2.5252 0
M  V30 1284 H 122.095 0.599718 0.457005 0
M  V30 1285 H 124.746 1.7699 0.484424 0
M  V30 1286 H 123.128 2.61901 2.97025 0
M  V30 1287 H 124.302 4.53008 0.843811 0
M  V30 1288 H 122.617 4.06167 0.917475 0
M  V30 1289 H 125.214 3.86774 3.69202 0
M  V30 1290 H 125.557 2.16045 3.55852 0
M  V30 1291 H 126.09 3.26702 2.26959 0
M  V30 1292 H 122.829 6.25018 1.97566 0
M  V30 1293 H 122.349 5.06534 3.21222 0
M  V30 1294 H 124.028 5.65561 3.14245 0
M  V30 1295 N 124.16 -0.719506 1.40217 0
M  V30 1296 C 125.108 -1.85493 1.40339 0
M  V30 1297 C 126.102 -1.66995 0.284415 0
M  V30 1298 O 127.308 -1.74148 0.455252 0
M  V30 1299 H 123.683 -0.610857 0.438586 0
M  V30 1300 H 125.654 -1.82506 2.36081 0
M  V30 1301 C 124.403 -3.23321 1.27901 0
M  V30 1302 H 123.726 -3.38159 2.1328 0
M  V30 1303 H 125.166 -4.02914 1.32045 0
M  V30 1304 C 123.625 -3.36898 -0.0111355 0
M  V30 1305 O 124.155 -3.89674 -0.975538 0
M  V30 1306 N 122.361 -2.90492 -0.0793393 0
M  V30 1307 H 121.908 -2.47731 0.706183 0
M  V30 1308 H 121.866 -2.99955 -0.942038 0
M  V30 1309 N 125.638 -1.25649 -0.95132 0
M  V30 1310 C 126.586 -1.06118 -2.06982 0
M  V30 1311 C 127.58 0.00889169 -1.69398 0
M  V30 1312 O 128.786 -0.146988 -1.79399 0
M  V30 1313 H 125.161 -0.326248 -0.677544 0
M  V30 1314 H 127.132 -2.00932 -2.2061 0
M  V30 1315 C 125.881 -0.700145 -3.40578 0
M  V30 1316 H 125.204 -1.51537 -3.69968 0
M  V30 1317 H 126.644 -0.603211 -4.19687 0
M  V30 1318 C 125.103 0.59403 -3.31622 0
M  V30 1319 O 125.633 1.63522 -3.66911 0
M  V30 1320 N 123.839 0.58089 -2.84735 0
M  V30 1321 H 123.386 -0.266783 -2.56215 0
M  V30 1322 H 123.344 1.44695 -2.79125 0
M  V30 1323 N 127.117 1.15442 -1.07289 0
M  V30 1324 C 128.345 1.90096 -0.81676 0
M  V30 1325 C 128.76 1.7798 0.629966 0
M  V30 1326 O 128.117 1.1313 1.43206 0
M  V30 1327 C 128.168 3.40466 -1.21512 0
M  V30 1328 O 127.889 3.52232 -2.60508 0
M  V30 1329 C 129.39 4.32145 -0.988198 0
M  V30 1330 H 126.61 0.602495 -0.295366 0
M  V30 1331 H 129.154 1.4627 -1.42918 0
M  V30 1332 H 127.309 3.81958 -0.647039 0
M  V30 1333 H 127.723 4.45549 -2.76742 0
M  V30 1334 H 129.197 5.36072 -1.31645 0
M  V30 1335 H 129.674 4.39135 0.0755063 0
M  V30 1336 H 130.28 3.96395 -1.54115 0
M  V30 1337 N 128.595 0.856903 1.32268 0
M  V30 1338 C 129.542 0.301172 2.28827 0
M  V30 1339 C 130.512 -0.593104 1.5515 0
M  V30 1340 O 131.697 -0.527537 1.83362 0
M  V30 1341 C 128.837 -0.502523 3.41422 0
M  V30 1342 C 127.95 0.417797 4.29975 0
M  V30 1343 C 127.085 -0.398749 5.29701 0
M  V30 1344 C 126.124 0.518827 6.09897 0
M  V30 1345 N 125.261 -0.260674 7.01616 0
M  V30 1346 H 130.101 1.12983 2.75751 0
M  V30 1347 H 127.638 0.568582 1.35667 0
M  V30 1348 H 129.596 -0.984141 4.05426 0
M  V30 1349 H 128.226 -1.29599 2.95642 0
M  V30 1350 H 127.278 1.01781 3.66531 0
M  V30 1351 H 128.59 1.12191 4.86019 0
M  V30 1352 H 127.744 -0.943435 5.9932 0
M  V30 1353 H 126.483 -1.13622 4.7428 0
M  V30 1354 H 125.488 1.07538 5.39181 0
M  V30 1355 H 126.713 1.25495 6.67404 0
M  V30 1356 H 124.659 -0.981198 6.4862 0
M  V30 1357 H 124.576 0.384364 7.55022 0
M  V30 1358 H 125.844 -0.787014 7.75517 0
M  V30 1359 N 130.073 -1.45103 0.615059 0
M  V30 1360 C 131.298 -2.07064 0.117988 0
M  V30 1361 C 131.723 -1.4554 -1.19163 0
M  V30 1362 O 131.081 -0.550855 -1.72729 0
M  V30 1363 C 131.129 -3.606 -0.000288387 0
M  V30 1364 O 130.233 -3.98847 -1.04856 0
M  V30 1365 H 129.574 -0.659467 0.0774581 0
M  V30 1366 H 132.104 -1.86236 0.847186 0
M  V30 1367 H 132.114 -4.07529 -0.196091 0
M  V30 1368 H 130.789 -4.04765 0.955932 0
M  V30 1369 H 129.366 -3.63577 -0.828619 0
M  V30 1370 N 131.551 -0.354651 -1.53558 0
M  V30 1371 C 132.798 0.238443 -2.01091 0
M  V30 1372 C 133.126 1.49663 -1.24222 0
M  V30 1373 O 132.381 1.93049 -0.321003 0
M  V30 1374 C 132.68 0.587121 -3.52545 0
M  V30 1375 C 132.346 -0.575472 -4.47213 0
M  V30 1376 C 131.008 -0.894497 -4.72813 0
M  V30 1377 C 133.36 -1.35489 -5.03281 0
M  V30 1378 C 130.688 -1.99511 -5.51736 0
M  V30 1379 C 133.04 -2.44583 -5.83405 0
M  V30 1380 C 131.704 -2.77033 -6.07296 0
M  V30 1381 H 130.974 0.0872526 -0.735845 0
M  V30 1382 H 133.621 -0.484859 -1.8526 0
M  V30 1383 H 131.926 1.39129 -3.66265 0
M  V30 1384 H 133.623 1.05809 -3.86789 0
M  V30 1385 H 130.213 -0.316774 -4.27428 0
M  V30 1386 H 134.397 -1.12167 -4.83459 0
M  V30 1387 H 129.653 -2.25063 -5.68469 0
M  V30 1388 H 133.827 -3.05401 -6.25862 0
M  V30 1389 H 131.454 -3.6244 -6.68237 0
M  V30 1390 N 133.029 1.57378 -0.0835403 0
M  V30 1391 C 133.939 2.16897 0.894021 0
M  V30 1392 C 134.955 1.13528 1.31861 0
M  V30 1393 O 136.131 1.45848 1.3889 0
M  V30 1394 C 133.196 2.72831 2.13925 0
M  V30 1395 C 132.257 3.91115 1.76997 0
M  V30 1396 C 131.49 4.44371 2.95584 0
M  V30 1397 O 131.713 3.96596 4.09961 0
M  V30 1398 O 130.647 5.35549 2.74719 0
M  V30 1399 H 134.473 3.00814 0.417679 0
M  V30 1400 H 132.058 1.48741 0.140181 0
M  V30 1401 H 133.94 3.0863 2.86924 0
M  V30 1402 H 132.615 1.91967 2.60635 0
M  V30 1403 H 131.522 3.60148 1.01214 0
M  V30 1404 H 132.855 4.73307 1.3506 0
M  V30 1405 N 134.507 -0.190092 1.56449 0
M  V30 1406 C 135.784 -0.935886 1.71757 0
M  V30 1407 C 136.164 -2.01173 0.639726 0
M  V30 1408 O 135.512 -2.25827 -0.348502 0
M  V30 1409 C 135.722 -1.51775 3.1427 0
M  V30 1410 C 137.07 -1.99794 3.74656 0
M  V30 1411 O 138.094 -1.61607 3.1743 0
M  V30 1412 O 136.953 -2.70079 4.751 0
M  V30 1413 H 134.047 -0.439229 0.700719 0
M  V30 1414 H 136.593 -0.179395 1.68749 0
M  V30 1415 H 135.365 -0.742505 3.84191 0
M  V30 1416 H 134.988 -2.33894 3.21527 0
M  V30 1417 N 135.985 -1.50799 -0.457987 0
M  V30 1418 C 137.234 -1.6168 -1.20593 0
M  V30 1419 C 137.547 -0.32888 -1.92815 0
M  V30 1420 O 138.753 -0.316773 -2.69646 0
M  V30 1421 C 137.209 -2.8545 -2.19195 0
M  V30 1422 C 136.817 -4.21168 -1.52715 0
M  V30 1423 C 138.561 -3.05681 -2.94549 0
M  V30 1424 C 136.468 -5.3611 -2.4968 0
M  V30 1425 H 135.398 -0.602134 -0.453818 0
M  V30 1426 H 138.049 -1.77245 -0.475031 0
M  V30 1427 H 136.431 -2.63472 -2.95632 0
M  V30 1428 H 137.605 -4.53449 -0.819775 0
M  V30 1429 H 135.92 -4.06648 -0.895922 0
M  V30 1430 H 138.517 -3.88727 -3.67145 0
M  V30 1431 H 138.86 -2.17929 -3.54701 0
M  V30 1432 H 139.393 -3.27901 -2.25223 0
M  V30 1433 H 136.132 -6.26057 -1.94249 0
M  V30 1434 H 135.652 -5.0823 -3.18532 0
M  V30 1435 H 137.331 -5.6722 -3.11241 0
M  V30 1436 N 137.463 0.71206 -1.40597 0
M  V30 1437 C 138.413 1.81783 -1.37619 0
M  V30 1438 C 139.397 1.58896 -0.253162 0
M  V30 1439 O 140.589 1.70009 -0.492547 0
M  V30 1440 C 137.718 3.19944 -1.24462 0
M  V30 1441 C 136.804 3.48582 -2.4156 0
M  V30 1442 N 137.195 3.48016 -3.67041 0
M  V30 1443 C 135.493 3.79056 -2.35016 0
M  V30 1444 C 136.194 3.75096 -4.44609 0
M  V30 1445 N 135.17 3.94022 -3.74497 0
M  V30 1446 H 138.972 1.79683 -2.32575 0
M  V30 1447 H 136.486 0.91134 -1.34419 0
M  V30 1448 H 138.483 3.99133 -1.20411 0
M  V30 1449 H 137.143 3.23267 -0.304762 0
M  V30 1450 H 138.154 3.28782 -4.00153 0
M  V30 1451 H 134.831 3.89848 -1.49415 0
M  V30 1452 H 136.221 3.80934 -5.53479 0
M  V30 1453 N 138.941 1.26152 0.944643 0
M  V30 1454 C 139.873 1.03199 2.04652 0
M  V30 1455 C 140.886 -0.00642356 1.62799 0
M  V30 1456 O 142.075 0.233263 1.76969 0
M  V30 1457 C 139.175 0.540111 3.34568 0
M  V30 1458 C 138.348 1.64697 4.05208 0
M  V30 1459 C 137.407 1.15374 5.13396 0
M  V30 1460 O 136.433 1.85013 5.38293 0
M  V30 1461 N 137.635 0.00031529 5.805 0
M  V30 1462 H 140.4 1.9808 2.2491 0
M  V30 1463 H 137.961 1.17491 1.11389 0
M  V30 1464 H 139.953 0.194401 4.04233 0
M  V30 1465 H 138.523 -0.315021 3.11009 0
M  V30 1466 H 137.743 2.16379 3.29506 0
M  V30 1467 H 139.031 2.3903 4.49157 0
M  V30 1468 H 138.429 -0.581336 5.62705 0
M  V30 1469 H 136.986 -0.286346 6.51171 0
M  V30 1470 N 140.419 -1.14872 1.07899 0
M  V30 1471 C 141.649 -1.89386 0.825631 0
M  V30 1472 C 142.057 -1.78565 -0.625406 0
M  V30 1473 O 141.4 -1.13918 -1.44113 0
M  V30 1474 C 141.462 -3.40206 1.16191 0
M  V30 1475 C 141.126 -3.74812 2.61467 0
M  V30 1476 C 142.123 -3.75367 3.59716 0
M  V30 1477 C 139.808 -4.0495 2.97189 0
M  V30 1478 C 141.802 -4.05574 4.9172 0
M  V30 1479 C 139.489 -4.34821 4.29388 0
M  V30 1480 C 140.487 -4.35116 5.26463 0
M  V30 1481 O 140.175 -4.64267 6.56286 0
M  V30 1482 H 139.907 -0.606894 0.297751 0
M  V30 1483 H 142.461 -1.46438 1.44031 0
M  V30 1484 H 140.691 -3.8358 0.490214 0
M  V30 1485 H 142.38 -3.96018 0.890193 0
M  V30 1486 H 143.146 -3.52176 3.33462 0
M  V30 1487 H 139.025 -4.03876 2.22273 0
M  V30 1488 H 142.569 -4.05719 5.67484 0
M  V30 1489 H 138.466 -4.5748 4.55392 0
M  V30 1490 H 139.234 -4.82007 6.61522 0
M  V30 1491 N 141.898 -0.863906 -1.31812 0
M  V30 1492 C 143.314 -0.555004 -1.49639 0
M  V30 1493 C 143.514 0.912266 -1.79666 0
M  V30 1494 O 142.57 1.69479 -1.87171 0
M  V30 1495 C 143.883 -1.44998 -2.63431 0
M  V30 1496 C 145.431 -1.45138 -2.77316 0
M  V30 1497 C 145.906 -2.33179 -3.94197 0
M  V30 1498 N 147.397 -2.31025 -4.01474 0
M  V30 1499 C 148.132 -2.95871 -4.9117 0
M  V30 1500 N 147.628 -3.69863 -5.8581 0
M  V30 1501 N 149.421 -2.85211 -4.84367 0
M  V30 1502 H 141.572 -1.81339 -1.10589 0
M  V30 1503 H 143.835 -0.77505 -0.545895 0
M  V30 1504 H 143.541 -2.49377 -2.48 0
M  V30 1505 H 143.415 -1.14409 -3.59431 0
M  V30 1506 H 145.802 -0.415201 -2.92164 0
M  V30 1507 H 145.883 -1.79747 -1.82001 0
M  V30 1508 H 145.527 -3.3687 -3.80107 0
M  V30 1509 H 145.457 -1.95897 -4.88807 0
M  V30 1510 H 147.948 -1.77238 -3.33759 0
M  V30 1511 H 148.261 -4.16486 -6.50968 0
M  V30 1512 H 146.606 -3.73971 -5.85808 0
M  V30 1513 H 149.797 -2.26948 -4.09405 0
M  V30 1514 H 149.97 -3.36027 -5.54066 0
M  V30 1515 N 143.376 1.44774 -0.622745 0
M  V30 1516 C 144.286 2.34433 0.0886031 0
M  V30 1517 C 145.302 1.52131 0.844529 0
M  V30 1518 O 146.478 1.84886 0.798691 0
M  V30 1519 C 143.543 3.29986 1.0635 0
M  V30 1520 C 142.604 4.28195 0.307873 0
M  V30 1521 C 141.837 5.19183 1.23633 0
M  V30 1522 O 142.06 5.13918 2.47476 0
M  V30 1523 O 140.994 5.97515 0.725189 0
M  V30 1524 H 144.82 2.96693 -0.648599 0
M  V30 1525 H 142.405 1.44408 -0.382957 0
M  V30 1526 H 144.287 3.88825 1.6246 0
M  V30 1527 H 142.962 2.70269 1.78146 0
M  V30 1528 H 141.869 3.72927 -0.296064 0
M  V30 1529 H 143.202 4.90808 -0.3699 0
M  V30 1530 N 144.854 0.36279 1.53368 0
M  V30 1531 C 145.786 -0.519668 2.23231 0
M  V30 1532 C 146.799 -1.04844 1.24546 0
M  V30 1533 O 147.988 -0.955296 1.50786 0
M  V30 1534 C 145.088 -1.72995 2.9142 0
M  V30 1535 C 144.261 -1.33316 4.16588 0
M  V30 1536 C 143.32 -2.40521 4.68013 0
M  V30 1537 O 142.346 -2.03027 5.3176 0
M  V30 1538 N 143.548 -3.72065 4.45587 0
M  V30 1539 H 146.313 0.078751 2.99597 0
M  V30 1540 H 143.874 0.187833 1.60807 0
M  V30 1541 H 145.866 -2.44184 3.22733 0
M  V30 1542 H 144.436 -2.2353 2.18525 0
M  V30 1543 H 143.656 -0.451236 3.91609 0
M  V30 1544 H 144.944 -1.04432 4.97967 0
M  V30 1545 H 144.342 -4.05304 3.94646 0
M  V30 1546 H 142.899 -4.39366 4.81457 0
M  V30 1547 N 146.332 -1.57332 0.0918853 0
M  V30 1548 C 147.581 -1.93412 -0.572249 0
M  V30 1549 C 147.894 -0.975515 -1.69538 0
M  V30 1550 O 149.1 -1.22991 -2.42045 0
M  V30 1551 C 147.556 -3.43648 -1.0693 0
M  V30 1552 C 147.164 -4.47994 0.0239049 0
M  V30 1553 C 148.908 -3.88695 -1.70635 0
M  V30 1554 C 146.815 -5.89381 -0.488319 0
M  V30 1555 H 145.745 -0.721939 -0.217532 0
M  V30 1556 H 148.396 -1.82735 0.167369 0
M  V30 1557 H 146.778 -3.49466 -1.8625 0
M  V30 1558 H 147.952 -4.53815 0.799277 0
M  V30 1559 H 146.267 -4.12536 0.565946 0
M  V30 1560 H 148.864 -4.91725 -2.10025 0
M  V30 1561 H 149.207 -3.27166 -2.57426 0
M  V30 1562 H 149.74 -3.85564 -0.979023 0
M  V30 1563 H 146.479 -6.54602 0.342906 0
M  V30 1564 H 145.999 -5.87037 -1.23077 0
M  V30 1565 H 147.678 -6.39863 -0.958317 0
M  V30 1566 N 147.81 0.181792 -1.56548 0
M  V30 1567 C 148.757 1.22521 -1.95595 0
M  V30 1568 C 149.727 1.4454 -0.818373 0
M  V30 1569 O 150.912 1.57454 -1.07763 0
M  V30 1570 C 148.052 2.56193 -2.31212 0
M  V30 1571 C 147.165 2.41641 -3.58097 0
M  V30 1572 C 146.3 3.68108 -3.82975 0
M  V30 1573 C 145.339 3.48445 -5.03242 0
M  V30 1574 N 144.476 4.66956 -5.24306 0
M  V30 1575 H 149.316 0.885226 -2.84548 0
M  V30 1576 H 146.853 0.425718 -1.40805 0
M  V30 1577 H 148.811 3.34088 -2.49882 0
M  V30 1578 H 147.441 2.88208 -1.45382 0
M  V30 1579 H 146.493 1.54976 -3.474 0
M  V30 1580 H 147.805 2.23052 -4.46149 0
M  V30 1581 H 146.959 4.54441 -4.01956 0
M  V30 1582 H 145.698 3.89666 -2.93278 0
M  V30 1583 H 144.703 2.60499 -4.8417 0
M  V30 1584 H 145.928 3.2832 -5.9446 0
M  V30 1585 H 143.874 4.88752 -4.37559 0
M  V30 1586 H 143.791 4.51242 -6.06561 0
M  V30 1587 H 145.059 5.54602 -5.47756 0
M  V30 1588 N 149.288 1.51039 0.449983 0
M  V30 1589 C 150.704 1.38934 0.785462 0
M  V30 1590 C 150.904 0.461817 1.96136 0
M  V30 1591 O 149.96 -0.0877389 2.52348 0
M  V30 1592 C 151.273 2.80724 1.0777 0
M  V30 1593 C 152.821 2.89787 1.1829 0
M  V30 1594 C 153.296 4.32457 1.50815 0
M  V30 1595 N 154.787 4.35505 1.57764 0
M  V30 1596 C 155.522 5.42914 1.84477 0
M  V30 1597 N 155.018 6.60502 2.09068 0
M  V30 1598 N 156.811 5.3038 1.86155 0
M  V30 1599 H 148.962 2.09904 -0.324647 0
M  V30 1600 H 151.225 0.944378 -0.0827957 0
M  V30 1601 H 150.931 3.50531 0.286498 0
M  V30 1602 H 150.805 3.19273 2.00859 0
M  V30 1603 H 153.192 2.20186 1.96474 0
M  V30 1604 H 153.273 2.54752 0.231314 0
M  V30 1605 H 152.917 5.02603 0.731622 0
M  V30 1606 H 152.847 4.64995 2.47158 0
M  V30 1607 H 155.338 3.50724 1.40715 0
M  V30 1608 H 155.651 7.38158 2.28785 0
M  V30 1609 H 153.996 6.63639 2.06416 0
M  V30 1610 H 157.187 4.37505 1.66454 0
M  V30 1611 H 157.36 6.1417 2.06637 0
M  V30 1612 N 150.766 -0.704594 1.40972 0
M  V30 1613 C 152.012 -1.46675 1.40051 0
M  V30 1614 C 152.345 -1.94199 0.00641102 0
M  V30 1615 O 151.62 -1.68916 -0.964235 0
M  V30 1616 C 151.903 -2.68505 2.39952 0
M  V30 1617 C 151.756 -2.26805 3.88432 0
M  V30 1618 C 153.075 -3.70686 2.37233 0
M  V30 1619 H 150.194 -0.532015 0.510028 0
M  V30 1620 H 152.836 -0.803255 1.72185 0
M  V30 1621 H 150.986 -3.25114 2.1268 0
M  V30 1622 H 152.658 -1.75592 4.26574 0
M  V30 1623 H 150.901 -1.58685 4.03734 0
M  V30 1624 H 151.572 -3.14181 4.53866 0
M  V30 1625 H 154.048 -3.23731 2.61415 0
M  V30 1626 H 152.924 -4.53553 3.09162 0
M  V30 1627 H 153.185 -4.19754 1.38777 0
M  V30 1628 N 152.244 -1.26651 -0.937939 0
M  V30 1629 C 153.191 -1.0849 -2.03712 0
M  V30 1630 C 154.161 0.011033 -1.66096 0
M  V30 1631 O 155.346 -0.149353 -1.90215 0
M  V30 1632 C 152.486 -0.72735 -3.37348 0
M  V30 1633 C 151.599 -1.89986 -3.87981 0
M  V30 1634 C 150.734 -1.48513 -5.10017 0
M  V30 1635 C 149.773 -2.62575 -5.5292 0
M  V30 1636 N 148.91 -2.21762 -6.66158 0
M  V30 1637 H 153.75 -2.02551 -2.18579 0
M  V30 1638 H 151.287 -1.00844 -1.07093 0
M  V30 1639 H 153.245 -0.50092 -4.14182 0
M  V30 1640 H 151.875 0.176298 -3.22318 0
M  V30 1641 H 150.927 -2.23913 -3.07518 0
M  V30 1642 H 152.239 -2.75586 -4.15757 0
M  V30 1643 H 151.393 -1.21934 -5.94321 0
M  V30 1644 H 150.132 -0.60009 -4.83994 0
M  V30 1645 H 149.137 -2.8988 -4.67172 0
M  V30 1646 H 150.362 -3.51685 -5.80943 0
M  V30 1647 H 148.308 -1.35696 -6.41812 0
M  V30 1648 H 148.225 -3.00903 -6.93537 0
M  V30 1649 H 149.493 -1.98403 -7.53828 0
M  V30 1650 N 153.722 1.14298 -1.08507 0
M  V30 1651 C 154.999 1.81544 -0.728088 0
M  V30 1652 C 155.379 1.95838 0.78808 0
M  V30 1653 O 154.727 1.51904 1.70697 0
M  V30 1654 C 154.937 3.17169 -1.45619 0
M  V30 1655 C 156.285 3.9265 -1.61591 0
M  V30 1656 O 157.309 3.26762 -1.41793 0
M  V30 1657 O 156.168 5.10807 -1.94263 0
M  V30 1658 H 153.262 0.78491 -0.260471 0
M  V30 1659 H 155.808 1.21307 -1.18671 0
M  V30 1660 H 154.58 3.01934 -2.489 0
M  V30 1661 H 154.203 3.851 -0.989124 0
M  V30 1662 N 155.201 0.870884 1.31352 0
M  V30 1663 C 156.426 0.495957 2.01383 0
M  V30 1664 C 156.851 -0.904324 1.64935 0
M  V30 1665 O 156.209 -1.59687 0.858466 0
M  V30 1666 C 156.257 0.661433 3.54482 0
M  V30 1667 O 155.361 -0.298851 4.11316 0
M  V30 1668 H 154.702 0.197158 0.634054 0
M  V30 1669 H 157.232 1.17455 1.67527 0
M  V30 1670 H 157.242 0.555072 4.04207 0
M  V30 1671 H 155.917 1.68246 3.8035 0
M  V30 1672 H 154.494 -0.147368 3.72609 0
M  V30 1673 N 156.679 -1.44442 0.630414 0
M  V30 1674 C 157.956 -1.9549 0.0655657 0
M  V30 1675 C 158.336 -1.5724 -1.40851 0
M  V30 1676 O 157.684 -0.846116 -2.12257 0
M  V30 1677 C 157.894 -3.47812 0.287691 0
M  V30 1678 C 159.242 -4.24216 0.180513 0
M  V30 1679 O 160.266 -3.55526 0.219019 0
M  V30 1680 O 159.125 -5.46434 0.0848493 0
M  V30 1681 H 156.219 -0.826688 -0.0227177 0
M  V30 1682 H 158.765 -1.54496 0.702068 0
M  V30 1683 H 157.537 -3.687 1.31056 0
M  V30 1684 H 157.16 -3.95751 -0.382984 0
M  V30 1685 N 158.157 -0.370918 -1.53173 0
M  V30 1686 C 159.434 0.273754 -1.93675 0
M  V30 1687 C 159.814 1.65938 -1.3049 0
M  V30 1688 O 159.162 2.23698 -0.465999 0
M  V30 1689 C 159.372 0.318602 -3.47543 0
M  V30 1690 C 160.72 0.556392 -4.20939 0
M  V30 1691 O 161.744 0.399587 -3.53952 0
M  V30 1692 O 160.603 0.862133 -5.39657 0
M  V30 1693 H 157.697 0.165448 -0.810281 0
M  V30 1694 H 160.243 -0.42409 -1.64315 0
M  V30 1695 H 159.015 -0.652687 -3.85818 0
M  V30 1696 H 158.638 1.06212 -3.83151 0
M  V30 1697 N 159.635 1.57281 -0.100228 0
M  V30 1698 C 160.881 1.94826 0.563101 0
M  V30 1699 C 161.214 0.982475 1.67514 0
M  V30 1700 O 160.489 0.0164069 1.94493 0
M  V30 1701 C 160.772 3.42453 1.11346 0
M  V30 1702 C 160.625 4.498 0.00612081 0
M  V30 1703 C 161.944 3.91506 2.01024 0
M  V30 1704 H 159.063 0.708428 0.203221 0
M  V30 1705 H 161.705 1.8922 -0.171979 0
M  V30 1706 H 159.855 3.47361 1.7399 0
M  V30 1707 H 161.527 4.57 -0.628357 0
M  V30 1708 H 159.77 4.28756 -0.659581 0
M  V30 1709 H 160.441 5.50306 0.432109 0
M  V30 1710 H 162.917 3.88784 1.48278 0
M  V30 1711 H 161.793 4.95358 2.36457 0
M  V30 1712 H 162.054 3.31099 2.92961 0
M  V30 1713 N 161.113 -0.173488 1.56642 0
M  V30 1714 C 162.524 -0.736155 1.71574 0
M  V30 1715 C 162.875 -1.82888 0.710389 0
M  V30 1716 O 162 -2.16017 -0.1287 0
M  V30 1717 C 162.595 -1.34211 3.11083 0
M  V30 1718 C 161.154 -1.85162 3.27707 0
M  V30 1719 C 160.301 -0.729765 2.67525 0
M  V30 1720 H 163.252 0.0518786 1.58615 0
M  V30 1721 H 163.273 -2.21178 3.09613 0
M  V30 1722 H 162.785 -0.546579 3.84232 0
M  V30 1723 H 160.886 -2.67366 2.59512 0
M  V30 1724 H 160.999 -1.99855 4.35425 0
M  V30 1725 H 159.363 -1.14965 2.27278 0
M  V30 1726 H 160.146 0.0538806 3.43258 0
M  V30 1727 N 162.591 -1.51276 -0.441967 0
M  V30 1728 C 163.524 -1.66933 -1.55591 0
M  V30 1729 C 164.502 -0.516958 -1.54163 0
M  V30 1730 O 165.686 -0.740209 -1.73358 0
M  V30 1731 C 162.813 -1.67866 -2.94174 0
M  V30 1732 C 161.859 -2.89013 -3.13646 0
M  V30 1733 S 162.692 -4.49897 -2.90436 0
M  V30 1734 C 163.848 -4.53568 -4.31308 0
M  V30 1735 H 164.081 -2.61155 -1.42076 0
M  V30 1736 H 161.614 -1.40902 -0.631341 0
M  V30 1737 H 163.572 -1.69089 -3.74058 0
M  V30 1738 H 162.233 -0.748296 -3.05056 0
M  V30 1739 H 161.426 -2.86054 -4.14957 0
M  V30 1740 H 161.028 -2.85509 -2.4158 0
M  V30 1741 H 163.32 -4.28924 -5.24434 0
M  V30 1742 H 164.263 -5.55355 -4.39303 0
M  V30 1743 H 164.671 -3.82943 -4.14747 0
M  V30 1744 N 164.069 0.697108 -1.41344 0
M  V30 1745 C 165.315 1.4593 -1.40827 0
M  V30 1746 C 165.648 1.94193 -0.0167098 0
M  V30 1747 O 164.923 1.69425 0.955263 0
M  V30 1748 C 165.206 2.67229 -2.41373 0
M  V30 1749 C 165.059 2.24741 -3.8963 0
M  V30 1750 C 166.378 3.69423 -2.39196 0
M  V30 1751 H 163.497 0.529303 -0.512842 0
M  V30 1752 H 166.139 0.794112 -1.72609 0
M  V30 1753 H 164.289 3.23982 -2.14401 0
M  V30 1754 H 165.961 1.73327 -4.27499 0
M  V30 1755 H 164.204 1.56542 -4.0457 0
M  V30 1756 H 164.875 3.1177 -4.55525 0
M  V30 1757 H 167.351 3.2234 -2.63128 0
M  V30 1758 H 166.227 4.51907 -3.11563 0
M  V30 1759 H 166.488 4.19012 -1.41001 0
M  V30 1760 N 165.547 1.27147 0.931209 0
M  V30 1761 C 166.477 1.12081 2.04842 0
M  V30 1762 C 167.458 0.0232364 1.70084 0
M  V30 1763 O 168.643 0.197085 1.93197 0
M  V30 1764 C 165.773 0.76354 3.38803 0
M  V30 1765 C 164.727 1.81396 3.87659 0
M  V30 1766 C 164.053 1.31075 5.18385 0
M  V30 1767 C 165.353 3.21739 4.11438 0
M  V30 1768 H 167.047 2.05537 2.17703 0
M  V30 1769 H 164.593 0.989603 1.04608 0
M  V30 1770 H 166.546 0.644982 4.16435 0
M  V30 1771 H 165.27 -0.206727 3.25945 0
M  V30 1772 H 163.929 1.92136 3.12217 0
M  V30 1773 H 163.577 0.330037 5.01916 0
M  V30 1774 H 163.277 2.013 5.52044 0
M  V30 1775 H 164.801 1.20506 5.98591 0
M  V30 1776 H 166.215 3.14019 4.79651 0
M  V30 1777 H 164.612 3.89644 4.56397 0
M  V30 1778 H 165.682 3.67054 3.16859 0
M  V30 1779 N 167.025 -1.13721 1.09112 0
M  V30 1780 C 168.271 -1.85198 0.826414 0
M  V30 1781 C 168.604 -1.83129 -0.646319 0
M  V30 1782 O 167.879 -1.2671 -1.47563 0
M  V30 1783 C 168.162 -3.33507 1.35812 0
M  V30 1784 C 168.015 -3.44108 2.89672 0
M  V30 1785 C 169.334 -4.28838 0.989256 0
M  V30 1786 H 166.453 -0.67243 0.301675 0
M  V30 1787 H 169.095 -1.33499 1.35197 0
M  V30 1788 H 167.245 -3.77666 0.911082 0
M  V30 1789 H 168.917 -3.08684 3.428 0
M  V30 1790 H 167.16 -2.85087 3.26967 0
M  V30 1791 H 167.831 -4.48388 3.21951 0
M  V30 1792 H 170.307 -3.92734 1.37475 0
M  V30 1793 H 169.183 -5.31051 1.38838 0
M  V30 1794 H 169.444 -4.4198 -0.102924 0
M  V30 1795 N 168.503 -0.877838 -1.30888 0
M  V30 1796 C 169.751 -0.491723 -1.96027 0
M  V30 1797 C 170.072 0.960827 -1.69685 0
M  V30 1798 O 169.342 1.67462 -1.01654 0
M  V30 1799 H 167.922 -0.17885 -0.725273 0
M  V30 1800 H 170.584 -1.11935 -1.59551 0
M  V30 1801 H 169.68 -0.656016 -3.05128 0
M  V30 1802 N 169.982 1.44106 -0.638065 0
M  V30 1803 C 170.93 2.3248 0.0748149 0
M  V30 1804 C 171.924 1.47746 0.828702 0
M  V30 1805 O 173.13 1.64049 0.740816 0
M  V30 1806 H 169.505 0.750771 0.0429686 0
M  V30 1807 H 171.476 2.90348 -0.688504 0
M  V30 1808 C 170.225 3.31843 1.03805 0
M  V30 1809 H 169.548 3.97059 0.467375 0
M  V30 1810 H 170.988 3.96345 1.50622 0
M  V30 1811 C 169.447 2.61291 2.1267 0
M  V30 1812 O 169.977 2.41702 3.20847 0
M  V30 1813 N 168.183 2.20915 1.88798 0
M  V30 1814 H 167.73 2.37047 1.00829 0
M  V30 1815 H 167.688 1.74038 2.61836 0
M  V30 1816 N 171.46 0.379036 1.52974 0
M  V30 1817 C 172.407 -0.461048 2.26148 0
M  V30 1818 C 173.377 -1.06637 1.27349 0
M  V30 1819 O 174.562 -1.09633 1.56157 0
M  V30 1820 C 171.702 -1.58782 3.06402 0
M  V30 1821 C 170.815 -1.00636 4.20115 0
M  V30 1822 C 169.95 -2.10334 4.87784 0
M  V30 1823 C 168.989 -1.49724 5.93506 0
M  V30 1824 N 168.126 -2.5331 6.54812 0
M  V30 1825 H 172.966 0.169429 2.97518 0
M  V30 1826 H 170.503 0.0953806 1.4679 0
M  V30 1827 H 172.461 -2.25174 3.51215 0
M  V30 1828 H 171.091 -2.18876 2.37261 0
M  V30 1829 H 170.143 -0.232332 3.7969 0
M  V30 1830 H 171.455 -0.523343 4.96047 0
M  V30 1831 H 170.609 -2.84519 5.35849 0
M  V30 1832 H 169.348 -2.61992 4.11353 0
M  V30 1833 H 168.353 -0.740598 5.44789 0
M  V30 1834 H 169.578 -0.988732 6.71864 0
M  V30 1835 H 167.524 -3.04156 5.81227 0
M  V30 1836 H 167.441 -2.09734 7.26325 0
M  V30 1837 H 168.709 -3.27155 7.07524 0
M  V30 1838 N 172.938 -1.57226 0.108567 0
M  V30 1839 C 174.178 -1.96717 -0.555155 0
M  V30 1840 C 174.542 -0.990003 -1.64508 0
M  V30 1841 O 175.743 -1.2739 -2.36696 0
M  V30 1842 C 174.014 -3.40575 -1.08367 0
M  V30 1843 S 175.573 -4.02072 -1.75737 0
M  V30 1844 H 172.391 -0.687638 -0.180762 0
M  V30 1845 H 174.993 -1.94563 0.191172 0
M  V30 1846 H 173.697 -4.0945 -0.279092 0
M  V30 1847 H 173.228 -3.46356 -1.86551 0
M  V30 1848 H 175.243 -3.91977 -3.04251 0
M  V30 1849 N 174.416 0.165178 -1.56732 0
M  V30 1850 C 175.693 0.908443 -1.73224 0
M  V30 1851 C 176.073 2.0013 -0.67165 0
M  V30 1852 O 175.421 2.26353 0.31253 0
M  V30 1853 C 175.631 1.46756 -3.16644 0
M  V30 1854 C 176.979 1.93809 -3.77787 0
M  V30 1855 O 178.003 1.56537 -3.1996 0
M  V30 1856 O 176.862 2.62486 -4.79336 0
M  V30 1857 H 173.956 0.428025 -0.707618 0
M  V30 1858 H 176.502 0.152526 -1.69013 0
M  V30 1859 H 175.274 0.68129 -3.85323 0
M  V30 1860 H 174.897 2.28749 -3.25207 0
M  V30 1861 N 175.894 1.51508 0.433938 0
M  V30 1862 C 176.824 1.76016 1.53429 0
M  V30 1863 C 177.805 0.610112 1.58782 0
M  V30 1864 O 178.99 0.853177 1.74455 0
M  V30 1865 C 176.12 1.88831 2.9148 0
M  V30 1866 C 175.074 3.04288 3.00987 0
M  V30 1867 C 174.4 3.0229 4.4105 0
M  V30 1868 C 175.7 4.44193 2.74754 0
M  V30 1869 H 177.394 2.68152 1.33171 0
M  V30 1870 H 174.94 1.29035 0.639214 0
M  V30 1871 H 176.893 2.04559 3.6842 0
M  V30 1872 H 175.617 0.933455 3.12976 0
M  V30 1873 H 174.276 2.8827 2.26486 0
M  V30 1874 H 173.924 2.04576 4.59519 0
M  V30 1875 H 173.624 3.79822 4.4834 0
M  V30 1876 H 175.148 3.20116 5.1996 0
M  V30 1877 H 176.562 4.60544 3.41426 0
M  V30 1878 H 174.959 5.23457 2.9345 0
M  V30 1879 H 176.029 4.53996 1.70339 0
M  V30 1880 N 177.372 -0.689602 1.41712 0
M  V30 1881 C 178.335 -1.78521 1.43746 0
M  V30 1882 C 179.335 -1.57436 0.327191 0
M  V30 1883 O 180.525 -1.64 0.587348 0
M  V30 1884 C 177.657 -3.16971 1.25467 0
M  V30 1885 H 178.85 -1.78108 2.41283 0
M  V30 1886 H 176.403 -0.89781 1.27942 0
M  V30 1887 H 177.138 -3.23019 0.287948 0
M  V30 1888 H 176.923 -3.33678 2.05917 0
M  V30 1889 H 178.413 -3.96935 1.2974 0
M  V30 1890 N 178.85 -1.27639 -0.924453 0
M  V30 1891 C 179.813 -1.10681 -2.00705 0
M  V30 1892 C 180.813 -0.0497823 -1.60723 0
M  V30 1893 O 182.003 -0.294654 -1.7169 0
M  V30 1894 C 179.135 -0.687164 -3.33902 0
M  V30 1895 H 180.328 -2.06817 -2.17179 0
M  V30 1896 H 177.881 -1.10473 -1.10569 0
M  V30 1897 H 178.616 0.275439 -3.23128 0
M  V30 1898 H 178.401 -1.45061 -3.6428 0
M  V30 1899 H 179.891 -0.590853 -4.13399 0
M  V30 1900 N 180.328 1.1314 -1.09713 0
M  V30 1901 C 181.744 1.36477 -0.827423 0
M  V30 1902 C 181.944 1.93654 0.556817 0
M  V30 1903 O 181 2.15791 1.31112 0
M  V30 1904 C 182.313 2.31334 -1.92106 0
M  V30 1905 C 183.861 2.44943 -1.94864 0
M  V30 1906 C 184.336 3.4311 -3.0338 0
M  V30 1907 N 185.827 3.50662 -3.02639 0
M  V30 1908 C 186.562 4.2651 -3.83246 0
M  V30 1909 N 186.058 5.05485 -4.73768 0
M  V30 1910 N 187.851 4.2184 -3.71493 0
M  V30 1911 H 180.002 0.743807 -1.9895 0
M  V30 1912 H 182.265 0.389823 -0.864143 0
M  V30 1913 H 181.971 1.96483 -2.91698 0
M  V30 1914 H 181.845 3.31381 -1.80184 0
M  V30 1915 H 184.232 2.79079 -0.959099 0
M  V30 1916 H 184.313 1.4481 -2.10864 0
M  V30 1917 H 183.957 3.09704 -4.02549 0
M  V30 1918 H 183.887 4.43055 -2.84622 0
M  V30 1919 H 186.378 2.94315 -2.37039 0
M  V30 1920 H 186.691 5.60675 -5.3185 0
M  V30 1921 H 185.036 5.04708 -4.77802 0
M  V30 1922 H 188.227 3.5922 -3.00131 0
M  V30 1923 H 188.4 4.80697 -4.3455 0
M  V30 1924 N 181.806 0.884767 1.30421 0
M  V30 1925 C 183.034 0.518044 2.0031 0
M  V30 1926 C 183.449 -0.893408 1.66324 0
M  V30 1927 O 182.806 -1.5875 0.900262 0
M  V30 1928 C 182.857 0.682997 3.54989 0
M  V30 1929 O 182.578 2.03888 3.87764 0
M  V30 1930 C 184.079 0.31924 4.42149 0
M  V30 1931 H 181.299 0.200265 0.640418 0
M  V30 1932 H 183.843 1.19001 1.6631 0
M  V30 1933 H 181.998 0.0584052 3.87356 0
M  V30 1934 H 182.412 2.05735 4.82466 0
M  V30 1935 H 183.886 0.485555 5.4986 0
M  V30 1936 H 184.363 -0.742717 4.32875 0
M  V30 1937 H 184.969 0.920147 4.15227 0
M  V30 1938 N 183.284 -1.43765 0.645699 0
M  V30 1939 C 184.53 -2.02197 0.156271 0
M  V30 1940 C 184.863 -1.50776 -1.22393 0
M  V30 1941 O 184.138 -0.697771 -1.81553 0
M  V30 1942 C 184.421 -3.59749 0.158872 0
M  V30 1943 C 184.274 -4.21419 1.57245 0
M  V30 1944 C 185.593 -4.37149 -0.50879 0
M  V30 1945 H 182.712 -0.734694 0.0582602 0
M  V30 1946 H 185.354 -1.71157 0.824951 0
M  V30 1947 H 183.504 -3.86325 -0.410525 0
M  V30 1948 H 185.176 -4.059 2.19186 0
M  V30 1949 H 183.419 -3.78356 2.122 0
M  V30 1950 H 184.09 -5.30482 1.52619 0
M  V30 1951 H 186.566 -4.16093 -0.024412 0
M  V30 1952 H 185.442 -5.4683 -0.476213 0
M  V30 1953 H 185.703 -4.12839 -1.58165 0
M  V30 1954 N 184.763 -0.387143 -1.52771 0
M  V30 1955 C 185.673 0.456442 -2.30117 0
M  V30 1956 C 186.689 1.07342 -1.36944 0
M  V30 1957 O 187.865 1.07971 -1.70013 0
M  V30 1958 C 184.93 1.56957 -3.09136 0
M  V30 1959 C 183.991 0.977916 -4.18014 0
M  V30 1960 C 183.224 2.038 -4.93256 0
M  V30 1961 O 183.447 3.25271 -4.68567 0
M  V30 1962 O 182.381 1.6565 -5.78657 0
M  V30 1963 H 186.207 -0.17359 -3.03203 0
M  V30 1964 H 183.792 -0.150919 -1.48636 0
M  V30 1965 H 185.674 2.21628 -3.58412 0
M  V30 1966 H 184.349 2.18461 -2.38865 0
M  V30 1967 H 183.256 0.294525 -3.72939 0
M  V30 1968 H 184.589 0.407128 -4.90513 0
M  V30 1969 N 186.241 1.57166 -0.116904 0
M  V30 1970 C 187.466 1.999 0.55271 0
M  V30 1971 C 187.891 0.996039 1.59564 0
M  V30 1972 O 187.249 -0.032556 1.81271 0
M  V30 1973 C 187.297 3.4152 1.15742 0
M  V30 1974 O 186.401 3.44106 2.27299 0
M  V30 1975 H 185.742 0.649447 0.138258 0
M  V30 1976 H 188.272 2.03573 -0.204759 0
M  V30 1977 H 188.282 3.79684 1.49346 0
M  V30 1978 H 186.957 4.14034 0.393493 0
M  V30 1979 H 185.534 3.17759 1.9515 0
M  V30 1980 N 187.719 -0.156864 1.56817 0
M  V30 1981 C 189.135 -0.50916 1.5126 0
M  V30 1982 C 189.335 -1.83897 0.823658 0
M  V30 1983 O 188.391 -2.49469 0.390055 0
M  V30 1984 C 189.704 -0.52857 2.96018 0
M  V30 1985 C 191.252 -0.614771 3.06903 0
M  V30 1986 C 191.727 -0.664938 4.53147 0
M  V30 1987 N 193.218 -0.727433 4.57452 0
M  V30 1988 C 193.953 -0.787067 5.67973 0
M  V30 1989 N 193.449 -0.806649 6.88088 0
M  V30 1990 N 195.242 -0.827195 5.5598 0
M  V30 1991 H 187.393 0.714935 2.00006 0
M  V30 1992 H 189.656 0.259526 0.911784 0
M  V30 1993 H 189.362 0.380154 3.49639 0
M  V30 1994 H 189.236 -1.36998 3.51442 0
M  V30 1995 H 191.623 -1.51392 2.53307 0
M  V30 1996 H 191.704 0.253597 2.5454 0
M  V30 1997 H 191.348 0.230011 5.07379 0
M  V30 1998 H 191.278 -1.54966 5.03282 0
M  V30 1999 H 193.769 -0.719998 3.70978 0
M  V30 2000 H 194.082 -0.853727 7.6807 0
M  V30 2001 H 192.427 -0.774687 6.90669 0
M  V30 2002 H 195.618 -0.808998 4.61056 0
M  V30 2003 H 195.791 -0.870206 6.4213 0
M  V30 2004 N 189.197 -1.51736 -0.425897 0
M  V30 2005 C 190.129 -1.70083 -1.53638 0
M  V30 2006 C 191.142 -0.581349 -1.52066 0
M  V30 2007 O 192.331 -0.856017 -1.56635 0
M  V30 2008 C 189.431 -1.71078 -2.9255 0
M  V30 2009 C 188.604 -2.99795 -3.185 0
M  V30 2010 C 187.663 -2.92825 -4.37196 0
M  V30 2011 O 186.689 -3.66756 -4.35291 0
M  V30 2012 N 187.891 -2.0946 -5.41393 0
M  V30 2013 H 190.656 -2.65882 -1.383 0
M  V30 2014 H 188.217 -1.49765 -0.614988 0
M  V30 2015 H 190.209 -1.63969 -3.69995 0
M  V30 2016 H 188.779 -0.828242 -3.01428 0
M  V30 2017 H 187.999 -3.20684 -2.2925 0
M  V30 2018 H 189.287 -3.84977 -3.32671 0
M  V30 2019 H 188.685 -1.48792 -5.45781 0
M  V30 2020 H 187.242 -2.08221 -6.17647 0
M  V30 2021 N 190.675 0.682077 -1.42076 0
M  V30 2022 C 191.638 1.77756 -1.44691 0
M  V30 2023 C 192.638 1.5726 -0.335535 0
M  V30 2024 O 193.828 1.63686 -0.596037 0
M  V30 2025 C 190.96 3.16301 -1.27146 0
M  V30 2026 H 192.153 1.76826 -2.42224 0
M  V30 2027 H 189.706 0.891012 -1.28416 0
M  V30 2028 H 190.441 3.22862 -0.305075 0
M  V30 2029 H 190.226 3.32581 -2.07683 0
M  V30 2030 H 191.716 3.96241 -1.31843 0
M  V30 2031 N 192.153 1.28127 0.917671 0
M  V30 2032 C 193.085 1.07517 2.02417 0
M  V30 2033 C 194.098 0.0281099 1.62776 0
M  V30 2034 O 195.287 0.270748 1.76435 0
M  V30 2035 C 192.387 0.610957 3.33347 0
M  V30 2036 C 191.56 1.73255 4.01624 0
M  V30 2037 C 190.619 1.26238 5.10833 0
M  V30 2038 O 189.645 1.96389 5.34247 0
M  V30 2039 N 190.847 0.123448 5.80369 0
M  V30 2040 H 193.612 2.02806 2.20658 0
M  V30 2041 H 191.173 1.19827 1.08871 0
M  V30 2042 H 193.165 0.280101 4.0373 0
M  V30 2043 H 191.735 -0.24898 3.11607 0
M  V30 2044 H 190.955 2.23319 3.24842 0
M  V30 2045 H 192.243 2.48503 4.43986 0
M  V30 2046 H 191.641 -0.461847 5.63812 0
M  V30 2047 H 190.198 -0.148158 6.51632 0
M  V30 2048 N 193.631 -1.12557 1.10312 0
M  V30 2049 C 194.908 -1.80363 0.756878 0
M  V30 2050 C 195.288 -1.97067 -0.756824 0
M  V30 2051 O 194.636 -1.54601 -1.68259 0
M  V30 2052 C 194.846 -3.14812 1.50647 0
M  V30 2053 C 196.194 -3.90029 1.67817 0
M  V30 2054 O 197.218 -3.24464 1.46974 0
M  V30 2055 O 196.077 -5.07652 2.02365 0
M  V30 2056 H 193.171 -0.780667 0.272926 0
M  V30 2057 H 195.717 -1.19404 1.20586 0
M  V30 2058 H 194.489 -2.97936 2.53672 0
M  V30 2059 H 194.112 -3.83478 1.05026 0
M  V30 2060 N 195.109 -0.891671 -1.2995 0
M  V30 2061 C 196.039 -0.379797 -2.30391 0
M  V30 2062 C 197.02 0.540919 -1.6127 0
M  V30 2063 O 198.205 0.453352 -1.88834 0
M  V30 2064 C 195.335 0.400654 -3.44981 0
M  V30 2065 C 194.289 -0.428905 -4.25846 0
M  V30 2066 C 193.615 0.478557 -5.32554 0
M  V30 2067 C 194.915 -1.67458 -4.94727 0
M  V30 2068 H 196.609 -1.21914 -2.73454 0
M  V30 2069 H 194.155 -0.587675 -1.31462 0
M  V30 2070 H 196.108 0.769434 -4.14316 0
M  V30 2071 H 194.832 1.27371 -3.0074 0
M  V30 2072 H 193.491 -0.779911 -3.58208 0
M  V30 2073 H 193.139 1.34951 -4.84559 0
M  V30 2074 H 192.839 -0.0727433 -5.87555 0
M  V30 2075 H 194.363 0.843705 -6.04743 0
M  V30 2076 H 195.777 -1.376 -5.56542 0
M  V30 2077 H 194.174 -2.16659 -5.59624 0
M  V30 2078 H 195.244 -2.41518 -4.20473 0
M  V30 2079 N 196.587 1.43421 -0.653314 0
M  V30 2080 C 197.55 2.29182 0.0287951 0
M  V30 2081 C 198.55 1.42213 0.750465 0
M  V30 2082 O 199.74 1.63843 0.591701 0
M  V30 2083 C 196.872 3.24278 1.05151 0
M  V30 2084 H 198.065 2.90985 -0.725786 0
M  V30 2085 H 195.618 1.50702 -0.414545 0
M  V30 2086 H 196.353 2.6737 1.83532 0
M  V30 2087 H 196.138 3.88396 0.537687 0
M  V30 2088 H 197.628 3.88647 1.52786 0
M  V30 2089 N 198.065 0.39524 1.52563 0
M  V30 2090 C 199.481 0.0454682 1.59535 0
M  V30 2091 C 199.681 -1.44056 1.4089 0
M  V30 2092 O 198.737 -2.20579 1.22888 0
M  V30 2093 C 200.05 0.527963 2.96029 0
M  V30 2094 C 201.598 0.484733 3.09224 0
M  V30 2095 C 202.073 0.943512 4.48176 0
M  V30 2096 N 203.564 0.899765 4.54377 0
M  V30 2097 C 204.299 1.22609 5.60138 0
M  V30 2098 N 203.795 1.62319 6.73516 0
M  V30 2099 N 205.588 1.14696 5.50274 0
M  V30 2100 H 197.739 1.36261 1.62931 0
M  V30 2101 H 200.002 0.558887 0.765735 0
M  V30 2102 H 199.708 1.56607 3.14908 0
M  V30 2103 H 199.582 -0.0698056 3.77135 0
M  V30 2104 H 201.969 -0.544298 2.90037 0
M  V30 2105 H 202.05 1.11838 2.30056 0
M  V30 2106 H 201.694 1.9708 4.68104 0
M  V30 2107 H 201.624 0.286817 5.25818 0
M  V30 2108 H 204.115 0.607632 3.72983 0
M  V30 2109 H 204.428 1.85567 7.5019 0
M  V30 2110 H 202.773 1.66211 6.74833 0
M  V30 2111 H 205.964 0.835701 4.6058 0
M  V30 2112 H 206.137 1.40459 6.32594 0
M  V30 2113 N 199.544 -1.57102 0.125237 0
M  V30 2114 C 200.769 -2.0019 -0.542101 0
M  V30 2115 C 201.194 -1.00449 -1.59034 0
M  V30 2116 O 200.552 0.0229423 -1.81285 0
M  V30 2117 C 200.6 -3.42129 -1.13929 0
M  V30 2118 O 199.704 -3.45307 -2.2547 0
M  V30 2119 H 199.045 -0.650171 -0.134812 0
M  V30 2120 H 201.575 -2.03461 0.215553 0
M  V30 2121 H 201.585 -3.80471 -1.4733 0
M  V30 2122 H 200.26 -4.14237 -0.371531 0
M  V30 2123 H 198.837 -3.1879 -1.93462 0
M  V30 2124 N 201.022 0.148545 -1.56898 0
M  V30 2125 C 202.252 0.875118 -1.8715 0
M  V30 2126 C 202.66 1.75322 -0.711262 0
M  V30 2127 O 202.003 1.80745 0.328151 0
M  V30 2128 C 202.065 1.7844 -3.12089 0
M  V30 2129 C 201.729 1.08361 -4.43967 0
M  V30 2130 C 202.726 0.438247 -5.1805 0
M  V30 2131 C 200.411 1.07358 -4.90693 0
M  V30 2132 C 202.405 -0.20779 -6.37061 0
M  V30 2133 C 200.092 0.42373 -6.09629 0
M  V30 2134 C 201.09 -0.215829 -6.82659 0
M  V30 2135 O 200.778 -0.855378 -7.99336 0
M  V30 2136 H 200.51 0.258504 -0.624621 0
M  V30 2137 H 203.064 0.14652 -2.04877 0
M  V30 2138 H 201.294 2.55389 -2.90367 0
M  V30 2139 H 202.983 2.38279 -3.286 0
M  V30 2140 H 203.749 0.437817 -4.8302 0
M  V30 2141 H 199.628 1.5608 -4.33774 0
M  V30 2142 H 203.172 -0.70758 -6.94002 0
M  V30 2143 H 199.069 0.421822 -6.4412 0
M  V30 2144 H 199.837 -0.756892 -8.14993 0
M  V30 2145 N 202.5 1.5196 0.417844 0
M  V30 2146 C 203.748 1.65263 1.16329 0
M  V30 2147 C 204.069 0.380634 1.91249 0
M  V30 2148 O 203.339 -0.604214 1.86349 0
M  V30 2149 H 201.919 0.60912 0.432414 0
M  V30 2150 H 204.581 1.88969 0.477162 0
M  V30 2151 H 203.677 2.4896 1.88217 0
M  V30 2152 N 203.978 -0.674533 1.42435 0
M  V30 2153 C 205.227 -1.43034 1.42212 0
M  V30 2154 C 205.54 -1.95555 0.0420788 0
M  V30 2155 O 206.746 -2.71374 -0.0827558 0
M  V30 2156 C 205.202 -2.58748 2.50155 0
M  V30 2157 C 204.81 -2.12925 3.94166 0
M  V30 2158 C 206.554 -3.36257 2.59098 0
M  V30 2159 C 204.461 -3.25723 4.93618 0
M  V30 2160 H 203.391 -0.537345 0.528939 0
M  V30 2161 H 206.042 -0.73024 1.68344 0
M  V30 2162 H 204.424 -3.31128 2.17188 0
M  V30 2163 H 205.598 -1.47697 4.36488 0
M  V30 2164 H 203.913 -1.48354 3.89076 0
M  V30 2165 H 206.51 -4.20264 3.30578 0
M  V30 2166 H 206.853 -3.82866 1.63461 0
M  V30 2167 H 207.386 -2.70947 2.9126 0
M  V30 2168 H 204.125 -2.84105 5.90732 0
M  V30 2169 H 203.645 -3.89732 4.55926 0
M  V30 2170 H 205.324 -3.91186 5.15347 0
M  V30 2171 N 205.456 -1.28612 -0.910864 0
M  V30 2172 C 206.867 -1.14406 -1.47541 0
M  V30 2173 C 207.218 0.264901 -1.94403 0
M  V30 2174 O 206.343 1.15942 -1.82719 0
M  V30 2175 C 206.938 -2.07073 -2.68153 0
M  V30 2176 C 205.497 -1.96923 -3.20778 0
M  V30 2177 C 204.644 -1.98646 -1.93481 0
M  V30 2178 H 207.595 -1.41259 -0.723291 0
M  V30 2179 H 207.616 -1.63642 -3.43514 0
M  V30 2180 H 207.128 -3.09611 -2.34015 0
M  V30 2181 H 205.229 -0.97433 -3.59635 0
M  V30 2182 H 205.342 -2.84026 -3.85832 0
M  V30 2183 H 203.706 -1.43093 -2.10705 0
M  V30 2184 H 204.489 -3.02868 -1.61634 0
M  V30 2185 N 206.934 1.1197 -1.10907 0
M  V30 2186 C 208.164 1.8713 -0.875553 0
M  V30 2187 C 208.572 1.8016 0.577843 0
M  V30 2188 O 207.915 1.17699 1.41042 0
M  V30 2189 C 207.977 3.37005 -1.2517 0
M  V30 2190 C 207.641 3.67748 -2.71313 0
M  V30 2191 C 208.638 3.65698 -3.69542 0
M  V30 2192 C 206.323 3.96928 -3.07821 0
M  V30 2193 C 208.317 3.92395 -5.023 0
M  V30 2194 C 206.004 4.23284 -4.40765 0
M  V30 2195 C 207.002 4.21005 -5.37814 0
M  V30 2196 O 206.69 4.46704 -6.68364 0
M  V30 2197 H 206.422 0.598786 -0.313737 0
M  V30 2198 H 208.976 1.42568 -1.47863 0
M  V30 2199 H 207.206 3.82146 -0.591741 0
M  V30 2200 H 208.895 3.93519 -0.994877 0
M  V30 2201 H 209.661 3.43211 -3.42682 0
M  V30 2202 H 205.54 3.97841 -2.32902 0
M  V30 2203 H 209.084 3.90531 -5.78041 0
M  V30 2204 H 204.981 4.45246 -4.67361 0
M  V30 2205 H 205.749 4.64299 -6.74069 0
M  V30 2206 N 208.412 0.89855 1.29475 0
M  V30 2207 C 209.661 0.519863 1.94885 0
M  V30 2208 C 209.974 -0.9383 1.71625 0
M  V30 2209 O 211.18 -1.42445 2.31131 0
M  V30 2210 C 209.636 0.878836 3.49005 0
M  V30 2211 C 209.244 2.35569 3.81066 0
M  V30 2212 C 210.988 0.570004 4.20656 0
M  V30 2213 C 208.895 2.65558 5.28425 0
M  V30 2214 H 207.825 0.190692 0.729488 0
M  V30 2215 H 210.476 1.09539 1.47219 0
M  V30 2216 H 208.858 0.232253 3.95318 0
M  V30 2217 H 210.032 3.04773 3.45616 0
M  V30 2218 H 208.347 2.63343 3.22552 0
M  V30 2219 H 210.944 0.770925 5.29113 0
M  V30 2220 H 211.287 -0.491404 4.1339 0
M  V30 2221 H 211.82 1.17438 3.8007 0
M  V30 2222 H 208.559 3.70493 5.40754 0
M  V30 2223 H 208.079 2.00977 5.65127 0
M  V30 2224 H 209.758 2.51765 5.96006 0
M  V30 2225 N 209.89 -1.43072 0.660911 0
M  V30 2226 C 210.8 -2.34585 -0.0264163 0
M  V30 2227 C 211.816 -1.54316 -0.803898 0
M  V30 2228 O 212.992 -1.86939 -0.749391 0
M  V30 2229 C 210.057 -3.32689 -0.975639 0
M  V30 2230 C 209.118 -4.2886 -0.194236 0
M  V30 2231 C 208.351 -5.22278 -1.09825 0
M  V30 2232 O 208.574 -5.20299 -2.33763 0
M  V30 2233 O 207.508 -5.99228 -0.566513 0
M  V30 2234 H 211.334 -2.94869 0.727034 0
M  V30 2235 H 208.919 -1.43342 0.42111 0
M  V30 2236 H 210.801 -3.92995 -1.52094 0
M  V30 2237 H 209.476 -2.74898 -1.70918 0
M  V30 2238 H 208.383 -3.72011 0.394835 0
M  V30 2239 H 209.716 -4.89655 0.499899 0
M  V30 2240 N 211.368 -0.403325 -1.52352 0
M  V30 2241 C 212.596 0.174012 -2.06167 0
M  V30 2242 C 213.011 1.39347 -1.27388 0
M  V30 2243 O 212.368 1.79597 -0.324201 0
M  V30 2244 C 212.419 0.530223 -3.5759 0
M  V30 2245 O 212.14 -0.640806 -4.33388 0
M  V30 2246 C 213.641 1.16192 -4.27802 0
M  V30 2247 H 210.861 0.0229464 -0.670608 0
M  V30 2248 H 213.405 -0.572604 -1.9632 0
M  V30 2249 H 211.56 1.22673 -3.67464 0
M  V30 2250 H 211.974 -0.344851 -5.23365 0
M  V30 2251 H 213.448 1.36141 -5.34948 0
M  V30 2252 H 213.925 2.13335 -3.83907 0
M  V30 2253 H 214.531 0.505775 -4.22282 0
M  V30 2254 N 212.846 1.57033 -0.133567 0
M  V30 2255 C 214.071 2.00475 0.531477 0
M  V30 2256 C 214.496 1.01291 1.58499 0
M  V30 2257 O 213.854 -0.0133279 1.81295 0
M  V30 2258 C 213.902 3.42729 1.12113 0
M  V30 2259 O 213.006 3.46498 2.23636 0
M  V30 2260 H 212.347 0.650876 0.131362 0
M  V30 2261 H 214.877 2.03344 -0.22634 0
M  V30 2262 H 214.887 3.81246 1.4531 0
M  V30 2263 H 213.562 4.14428 0.349557 0
M  V30 2264 H 212.139 3.19811 1.91769 0
M  V30 2265 N 214.325 -0.140222 1.56975 0
M  V30 2266 C 215.288 -1.15689 1.97861 0
M  V30 2267 C 216.288 -1.3549 0.865974 0
M  V30 2268 O 217.478 -1.32367 1.13246 0
M  V30 2269 C 214.61 -2.51582 2.30042 0
M  V30 2270 H 215.803 -0.805971 2.88867 0
M  V30 2271 H 213.356 -0.383801 1.51515 0
M  V30 2272 H 214.091 -2.91632 1.41849 0
M  V30 2273 H 213.876 -2.38569 3.11171 0
M  V30 2274 H 215.366 -3.24792 2.62488 0
M  V30 2275 N 215.803 -1.52179 -0.40978 0
M  V30 2276 C 216.75 -1.75475 -1.49924 0
M  V30 2277 C 217.72 -0.597175 -1.54994 0
M  V30 2278 O 218.905 -0.834655 -1.71575 0
M  V30 2279 C 216.045 -1.9107 -2.87378 0
M  V30 2280 C 215.158 -3.18717 -2.91622 0
M  V30 2281 C 214.293 -3.24747 -4.20372 0
M  V30 2282 C 213.332 -4.46598 -4.18588 0
M  V30 2283 N 212.469 -4.50025 -5.38908 0
M  V30 2284 H 217.309 -2.68458 -1.29361 0
M  V30 2285 H 214.846 -1.33024 -0.627934 0
M  V30 2286 H 216.804 -1.98096 -3.6717 0
M  V30 2287 H 215.434 -1.01469 -3.06437 0
M  V30 2288 H 214.486 -3.20866 -2.04326 0
M  V30 2289 H 215.798 -4.08544 -2.86169 0
M  V30 2290 H 214.952 -3.30841 -5.08556 0
M  V30 2291 H 213.691 -2.32857 -4.28519 0
M  V30 2292 H 212.696 -4.40652 -3.28794 0
M  V30 2293 H 213.921 -5.39783 -4.12081 0
M  V30 2294 H 211.867 -3.61017 -5.47725 0
M  V30 2295 H 211.784 -5.33697 -5.35447 0
M  V30 2296 H 213.052 -4.60347 -6.29048 0
M  V30 2297 N 217.281 0.66697 -1.42791 0
M  V30 2298 C 218.509 1.45505 -1.47091 0
M  V30 2299 C 218.924 1.8861 -0.0845873 0
M  V30 2300 O 218.281 1.58632 0.90234 0
M  V30 2301 C 218.332 2.69906 -2.40485 0
M  V30 2302 O 218.053 2.28608 -3.73725 0
M  V30 2303 C 219.554 3.63396 -2.53886 0
M  V30 2304 H 216.774 0.447459 -0.500022 0
M  V30 2305 H 219.318 0.818866 -1.8739 0
M  V30 2306 H 217.473 3.29696 -2.03419 0
M  V30 2307 H 217.887 3.08997 -4.23817 0
M  V30 2308 H 219.361 4.47387 -3.2334 0
M  V30 2309 H 219.838 4.09824 -1.57927 0
M  V30 2310 H 220.444 3.09495 -2.91706 0
M  V30 2311 N 218.759 1.29093 0.90403 0
M  V30 2312 C 220.175 1.07011 1.1841 0
M  V30 2313 C 220.375 -0.181358 2.00682 0
M  V30 2314 O 219.431 -0.880331 2.36657 0
M  V30 2315 C 220.744 2.32311 1.90924 0
M  V30 2316 C 222.292 2.37587 2.03768 0
M  V30 2317 C 222.767 3.62679 2.79693 0
M  V30 2318 N 224.258 3.63376 2.87249 0
M  V30 2319 C 224.993 4.56848 3.46522 0
M  V30 2320 N 224.489 5.60648 4.06996 0
M  V30 2321 N 226.282 4.44426 3.44154 0
M  V30 2322 H 218.433 2.09412 0.354993 0
M  V30 2323 H 220.696 0.922181 0.219742 0
M  V30 2324 H 220.402 3.23536 1.37905 0
M  V30 2325 H 220.276 2.39483 2.91424 0
M  V30 2326 H 222.663 1.46853 2.55965 0
M  V30 2327 H 222.744 2.34403 1.02415 0
M  V30 2328 H 222.388 4.53762 2.28173 0
M  V30 2329 H 222.318 3.63119 3.81381 0
M  V30 2330 H 224.809 2.88321 2.44293 0
M  V30 2331 H 225.122 6.28101 4.50232 0
M  V30 2332 H 223.467 5.64463 4.05471 0
M  V30 2333 H 226.658 3.62529 2.96126 0
M  V30 2334 H 226.831 5.17457 3.90054 0
M  V30 2335 N 220.237 -1.11381 1.11499 0
M  V30 2336 C 221.169 -2.17207 0.731704 0
M  V30 2337 C 222.182 -1.61066 -0.236957 0
M  V30 2338 O 223.371 -1.78489 -0.0197591 0
M  V30 2339 C 220.471 -3.38846 0.0607624 0
M  V30 2340 C 219.644 -4.24451 1.0564 0
M  V30 2341 C 218.703 -5.24562 0.4149 0
M  V30 2342 O 217.729 -5.59071 1.069 0
M  V30 2343 N 218.931 -5.74651 -0.821943 0
M  V30 2344 H 221.696 -2.50699 1.64225 0
M  V30 2345 H 219.257 -1.26908 1.00529 0
M  V30 2346 H 221.249 -4.02911 -0.380139 0
M  V30 2347 H 219.819 -3.03411 -0.752376 0
M  V30 2348 H 219.039 -3.56833 1.67524 0
M  V30 2349 H 220.327 -4.78486 1.72998 0
M  V30 2350 H 219.725 -5.48797 -1.37252 0
M  V30 2351 H 218.282 -6.40549 -1.20582 0
M  V30 2352 N 221.715 -0.905404 -1.28997 0
M  V30 2353 C 222.963 -0.533192 -1.9494 0
M  V30 2354 C 223.284 0.924618 -1.71685 0
M  V30 2355 O 222.554 1.65268 -1.05183 0
M  V30 2356 H 221.134 -0.194194 -0.721317 0
M  V30 2357 H 223.796 -1.15294 -1.57141 0
M  V30 2358 H 222.892 -0.72059 -3.03667 0
M  V30 2359 N 223.193 1.4272 -0.668489 0
M  V30 2360 C 224.439 2.01923 -0.188419 0
M  V30 2361 C 224.772 1.52704 1.19979 0
M  V30 2362 O 224.047 0.726566 1.8042 0
M  V30 2363 C 224.33 3.59451 -0.216085 0
M  V30 2364 C 224.183 4.18864 -1.6393 0
M  V30 2365 C 225.502 4.37903 0.439179 0
M  V30 2366 H 222.621 0.733674 -0.0699412 0
M  V30 2367 H 225.263 1.69822 -0.852076 0
M  V30 2368 H 223.413 3.86929 0.349012 0
M  V30 2369 H 225.085 4.02362 -2.25616 0
M  V30 2370 H 223.328 3.74933 -2.18193 0
M  V30 2371 H 223.999 5.27987 -1.61039 0
M  V30 2372 H 226.475 4.16079 -0.0417878 0
M  V30 2373 H 225.351 5.47519 0.389157 0
M  V30 2374 H 225.612 4.15303 1.51577 0
M  V30 2375 N 224.671 0.411399 1.52136 0
M  V30 2376 C 225.581 -0.419774 2.30814 0
M  V30 2377 C 226.597 -1.0515 1.38634 0
M  V30 2378 O 227.773 -1.05252 1.71709 0
M  V30 2379 C 224.838 -1.52019 3.11594 0
M  V30 2380 C 223.899 -0.91129 4.19516 0
M  V30 2381 C 223.132 -1.95927 4.96436 0
M  V30 2382 O 223.355 -3.17775 4.73683 0
M  V30 2383 O 222.289 -1.56423 5.81219 0
M  V30 2384 H 226.115 0.221805 3.02889 0
M  V30 2385 H 223.7 0.174547 1.48377 0
M  V30 2386 H 225.582 -2.15898 3.61892 0
M  V30 2387 H 224.257 -2.14633 2.42311 0
M  V30 2388 H 223.164 -0.235157 3.7336 0
M  V30 2389 H 224.497 -0.32904 4.91099 0
M  V30 2390 N 226.149 -1.5696 0.141893 0
M  V30 2391 C 227.426 -1.87553 -0.555281 0
M  V30 2392 C 227.806 -1.04699 -1.83306 0
M  V30 2393 O 227.154 -0.132346 -2.28116 0
M  V30 2394 C 227.364 -3.39093 -0.825664 0
M  V30 2395 C 228.712 -4.08199 -1.16869 0
M  V30 2396 O 229.736 -3.44242 -0.915185 0
M  V30 2397 O 228.595 -5.21139 -1.6455 0
M  V30 2398 H 225.689 -0.777188 -0.282679 0
M  V30 2399 H 228.235 -1.68763 0.17812 0
M  V30 2400 H 227.007 -3.91221 0.0788633 0
M  V30 2401 H 226.63 -3.63393 -1.61343 0
M  V30 2402 N 227.627 0.131896 -1.57047 0
M  V30 2403 C 228.59 1.14638 -1.98471 0
M  V30 2404 C 229.59 1.35029 -0.873148 0
M  V30 2405 O 230.78 1.31764 -1.13946 0
M  V30 2406 C 227.912 2.50358 -2.31373 0
M  V30 2407 H 229.105 0.79064 -2.8929 0
M  V30 2408 H 226.658 0.375761 -1.51716 0
M  V30 2409 H 227.393 2.90876 -1.43393 0
M  V30 2410 H 227.178 2.36915 -3.12432 0
M  V30 2411 H 228.668 3.23395 -2.64207 0
M  V30 2412 N 229.106 1.52395 0.401703 0
M  V30 2413 C 230.353 1.66817 1.14796 0
M  V30 2414 C 230.681 0.401772 1.90305 0
M  V30 2415 O 229.936 -0.615487 1.85769 0
M  V30 2416 C 230.235 2.84578 2.16217 0
M  V30 2417 C 229.901 4.22513 1.5746 0
M  V30 2418 C 228.563 4.60029 1.41161 0
M  V30 2419 C 230.915 5.0844 1.14622 0
M  V30 2420 C 228.243 5.81144 0.80552 0
M  V30 2421 C 230.595 6.30167 0.55428 0
M  V30 2422 C 229.259 6.66426 0.378482 0
M  V30 2423 H 228.529 0.610428 0.420069 0
M  V30 2424 H 231.176 1.86512 0.434212 0
M  V30 2425 H 229.481 2.59248 2.93764 0
M  V30 2426 H 231.178 2.92933 2.73845 0
M  V30 2427 H 227.768 3.92953 1.71132 0
M  V30 2428 H 231.952 4.80034 1.26021 0
M  V30 2429 H 227.208 6.07855 0.657399 0
M  V30 2430 H 231.382 6.96071 0.213983 0
M  V30 2431 H 229.009 7.60143 -0.0932606 0
M  V30 2432 N 230.584 -0.659388 1.43143 0
M  V30 2433 C 231.814 -1.44513 1.47646 0
M  V30 2434 C 232.222 -1.88981 0.0910095 0
M  V30 2435 O 231.565 -1.59702 -0.907789 0
M  V30 2436 C 231.627 -2.71663 2.35456 0
M  V30 2437 C 231.291 -2.49175 3.83094 0
M  V30 2438 C 232.288 -2.1279 4.74359 0
M  V30 2439 C 229.973 -2.63691 4.27519 0
M  V30 2440 C 231.967 -1.9121 6.08044 0
M  V30 2441 C 229.654 -2.41726 5.61259 0
M  V30 2442 C 230.652 -2.0554 6.51339 0
M  V30 2443 O 230.34 -1.838 7.82606 0
M  V30 2444 H 230.072 -0.45064 0.503884 0
M  V30 2445 H 232.626 -0.816248 1.88485 0
M  V30 2446 H 230.856 -3.37089 1.89493 0
M  V30 2447 H 232.545 -3.33595 2.31235 0
M  V30 2448 H 233.311 -2.01157 4.41317 0
M  V30 2449 H 229.19 -2.90832 3.57684 0
M  V30 2450 H 232.734 -1.62889 6.78316 0
M  V30 2451 H 228.631 -2.52959 5.9387 0
M  V30 2452 H 229.399 -1.98275 7.94122 0
M  V30 2453 N 232.062 -1.29571 -0.897171 0
M  V30 2454 C 233.29 -1.20583 -1.68129 0
M  V30 2455 C 233.705 0.233181 -1.87354 0
M  V30 2456 O 233.062 1.15579 -1.41236 0
M  V30 2457 C 233.113 -1.91772 -3.06441 0
M  V30 2458 O 232.834 -3.30053 -2.88091 0
M  V30 2459 C 234.335 -1.89291 -4.00854 0
M  V30 2460 H 231.555 -0.417826 -0.525036 0
M  V30 2461 H 234.099 -1.70987 -1.12177 0
M  V30 2462 H 232.254 -1.45196 -3.59161 0
M  V30 2463 H 232.668 -3.65942 -3.75748 0
M  V30 2464 H 234.142 -2.43662 -4.95311 0
M  V30 2465 H 234.619 -0.869014 -4.30517 0
M  V30 2466 H 235.225 -2.35622 -3.54066 0
M  V30 2467 N 233.54 1.10788 -1.12088 0
M  V30 2468 C 234.47 2.19083 -0.807755 0
M  V30 2469 C 235.451 1.6858 0.226859 0
M  V30 2470 O 236.636 1.93997 0.0888475 0
M  V30 2471 C 233.766 3.46344 -0.257576 0
M  V30 2472 C 232.72 4.101 -1.22483 0
M  V30 2473 C 232.046 5.32016 -0.535052 0
M  V30 2474 C 233.346 4.54236 -2.57811 0
M  V30 2475 H 235.04 2.45534 -1.71328 0
M  V30 2476 H 232.586 1.1801 -0.825205 0
M  V30 2477 H 234.539 4.21392 -0.0262679 0
M  V30 2478 H 233.263 3.19373 0.683278 0
M  V30 2479 H 231.922 3.37054 -1.44189 0
M  V30 2480 H 231.57 5.01319 0.410827 0
M  V30 2481 H 231.27 5.75625 -1.18024 0
M  V30 2482 H 232.794 6.09799 -0.312695 0
M  V30 2483 H 234.208 5.20575 -2.40155 0
M  V30 2484 H 232.605 5.08682 -3.18375 0
M  V30 2485 H 233.675 3.6734 -3.16528 0
M  V30 2486 N 235.018 0.912232 1.28515 0
M  V30 2487 C 236.264 0.545405 1.95328 0
M  V30 2488 C 236.597 -0.908313 1.71649 0
M  V30 2489 O 235.872 -1.64575 1.03659 0
M  V30 2490 C 236.155 0.853483 3.4984 0
M  V30 2491 C 236.008 2.35982 3.82926 0
M  V30 2492 C 237.327 0.348589 4.38717 0
M  V30 2493 H 234.446 0.199626 0.709449 0
M  V30 2494 H 237.088 1.1412 1.5191 0
M  V30 2495 H 235.238 0.34643 3.86952 0
M  V30 2496 H 236.91 2.93738 3.55691 0
M  V30 2497 H 235.153 2.81543 3.30024 0
M  V30 2498 H 235.824 2.52593 4.90816 0
M  V30 2499 H 238.3 0.78294 4.08668 0
M  V30 2500 H 237.176 0.593242 5.45685 0
M  V30 2501 H 237.437 -0.751049 4.35674 0
M  V30 2502 N 236.496 -1.42363 0.676048 0
M  V30 2503 C 237.912 -1.55811 0.345718 0
M  V30 2504 C 238.112 -1.65544 -1.14879 0
M  V30 2505 O 237.168 -1.62306 -1.93424 0
M  V30 2506 C 238.481 -2.80746 1.07713 0
M  V30 2507 C 240.029 -2.9452 1.05958 0
M  V30 2508 C 240.504 -4.22318 1.77233 0
M  V30 2509 N 241.995 -4.29233 1.74108 0
M  V30 2510 C 242.73 -5.26935 2.26113 0
M  V30 2511 N 242.226 -6.30783 2.86505 0
M  V30 2512 N 244.019 -5.18741 2.1648 0
M  V30 2513 H 236.17 -1.34289 1.6456 0
M  V30 2514 H 238.433 -0.646506 0.69335 0
M  V30 2515 H 238.139 -2.79696 2.13221 0
M  V30 2516 H 238.013 -3.71676 0.64316 0
M  V30 2517 H 240.4 -2.95097 0.0128255 0
M  V30 2518 H 240.481 -2.04817 1.53244 0
M  V30 2519 H 240.125 -4.22502 2.81877 0
M  V30 2520 H 240.055 -5.10958 1.27396 0
M  V30 2521 H 242.546 -3.54814 1.30059 0
M  V30 2522 H 242.859 -7.01691 3.23805 0
M  V30 2523 H 241.204 -6.31341 2.90575 0
M  V30 2524 H 244.395 -4.36533 1.68987 0
M  V30 2525 H 244.568 -5.94721 2.57316 0
M  V30 2526 N 237.974 -0.419461 -1.51915 0
M  V30 2527 C 238.884 0.407528 -2.31033 0
M  V30 2528 C 239.9 1.04413 -1.3919 0
M  V30 2529 O 241.076 1.0434 -1.72265 0
M  V30 2530 C 238.141 1.50365 -3.12396 0
M  V30 2531 C 237.202 0.889029 -4.19994 0
M  V30 2532 C 236.435 1.93291 -4.97468 0
M  V30 2533 O 236.658 3.15259 -4.75361 0
M  V30 2534 O 235.592 1.53339 -5.8204 0
M  V30 2535 H 239.418 -0.237865 -3.02767 0
M  V30 2536 H 237.003 -0.182413 -1.48282 0
M  V30 2537 H 238.885 2.13975 -3.63032 0
M  V30 2538 H 237.56 2.13345 -2.43445 0
M  V30 2539 H 236.467 0.215353 -3.7348 0
M  V30 2540 H 237.8 0.302991 -4.91267 0
M  V30 2541 N 239.452 1.56882 -0.150215 0
M  V30 2542 C 240.701 1.95403 0.500071 0
M  V30 2543 C 241.014 1.03777 1.658 0
M  V30 2544 O 242.22 1.31889 2.37313 0
M  V30 2545 C 240.676 3.4738 0.941018 0
M  V30 2546 C 240.284 4.47596 -0.190158 0
M  V30 2547 C 242.028 3.9476 1.56091 0
M  V30 2548 C 239.935 5.90787 0.269237 0
M  V30 2549 H 238.865 0.729515 0.190588 0
M  V30 2550 H 241.516 1.81988 -0.235074 0
M  V30 2551 H 239.898 3.56138 1.73152 0
M  V30 2552 H 241.072 4.50536 -0.967157 0
M  V30 2553 H 239.387 4.10151 -0.718666 0
M  V30 2554 H 241.984 4.99181 1.9163 0
M  V30 2555 H 242.327 3.36494 2.45107 0
M  V30 2556 H 242.86 3.88932 0.835249 0
M  V30 2557 H 239.599 6.52879 -0.585621 0
M  V30 2558 H 239.119 5.912 1.01204 0
M  V30 2559 H 240.798 6.42979 0.720176 0
M  V30 2560 N 240.93 -0.123565 1.57115 0
M  V30 2561 C 242.346 -0.476961 1.52306 0
M  V30 2562 C 242.546 -1.82109 0.86248 0
M  V30 2563 O 241.602 -2.48586 0.442884 0
M  V30 2564 C 242.915 -0.465661 2.97073 0
M  V30 2565 C 244.463 -0.549534 3.08138 0
M  V30 2566 C 244.938 -0.568669 4.54456 0
M  V30 2567 N 246.429 -0.630237 4.58892 0
M  V30 2568 C 247.164 -0.666415 5.69514 0
M  V30 2569 N 246.66 -0.660514 6.89644 0
M  V30 2570 N 248.453 -0.709077 5.5761 0
M  V30 2571 H 240.604 0.757198 1.98445 0
M  V30 2572 H 242.867 0.278808 0.906074 0
M  V30 2573 H 242.573 0.454232 3.48754 0
M  V30 2574 H 242.447 -1.29513 3.54269 0
M  V30 2575 H 244.834 -1.45985 2.56461 0
M  V30 2576 H 244.915 0.307532 2.53945 0
M  V30 2577 H 244.559 0.337581 5.06777 0
M  V30 2578 H 244.489 -1.44256 5.06456 0
M  V30 2579 H 246.98 -0.641146 3.72421 0
M  V30 2580 H 247.293 -0.690616 7.69708 0
M  V30 2581 H 245.638 -0.628012 6.92157 0
M  V30 2582 H 248.829 -0.711019 4.62668 0
M  V30 2583 H 249.002 -0.733804 6.43832 0
M  V30 2584 N 242.408 -1.52605 -0.393616 0
M  V30 2585 C 243.34 -1.73303 -1.49995 0
M  V30 2586 C 244.353 -0.613473 -1.50799 0
M  V30 2587 O 245.542 -0.889049 -1.54784 0
M  V30 2588 C 242.642 -1.77245 -2.88855 0
M  V30 2589 C 241.815 -3.06483 -3.12069 0
M  V30 2590 C 240.874 -3.02033 -4.30886 0
M  V30 2591 O 239.9 -3.75907 -4.27414 0
M  V30 2592 N 241.102 -2.20897 -5.36828 0
M  V30 2593 H 243.867 -2.68756 -1.32629 0
M  V30 2594 H 241.428 -1.51036 -0.583083 0
M  V30 2595 H 243.42 -1.7178 -3.66434 0
M  V30 2596 H 241.99 -0.891993 -2.99603 0
M  V30 2597 H 241.21 -3.25474 -2.22396 0
M  V30 2598 H 242.498 -3.91947 -3.2443 0
M  V30 2599 H 241.896 -1.60336 -5.42502 0
M  V30 2600 H 240.453 -2.21275 -6.13091 0
M  V30 2601 N 243.887 0.651787 -1.4349 0
M  V30 2602 C 244.837 1.75783 -1.45205 0
M  V30 2603 C 245.821 1.57679 -0.320328 0
M  V30 2604 O 247.013 1.67767 -0.564211 0
M  V30 2605 C 244.142 3.14377 -1.3792 0
M  V30 2606 C 243.228 3.38023 -2.56127 0
M  V30 2607 N 243.619 3.32135 -3.81471 0
M  V30 2608 C 241.917 3.68747 -2.50882 0
M  V30 2609 C 242.618 3.55902 -4.60118 0
M  V30 2610 N 241.594 3.77783 -3.90872 0
M  V30 2611 H 245.396 1.69657 -2.39987 0
M  V30 2612 H 242.91 0.853508 -1.38163 0
M  V30 2613 H 244.907 3.93666 -1.37231 0
M  V30 2614 H 243.567 3.21683 -0.441596 0
M  V30 2615 H 244.578 3.11515 -4.13738 0
M  V30 2616 H 241.255 3.8316 -1.65816 0
M  V30 2617 H 242.645 3.57116 -5.69138 0
M  V30 2618 N 245.365 1.30045 0.890287 0
M  V30 2619 C 246.312 1.15976 1.99545 0
M  V30 2620 C 247.282 0.0506202 1.66023 0
M  V30 2621 O 248.467 0.219847 1.89529 0
M  V30 2622 C 245.607 0.852054 3.34416 0
M  V30 2623 C 244.72 2.04255 3.80662 0
M  V30 2624 C 243.855 1.6734 5.04154 0
M  V30 2625 C 242.894 2.82916 5.42794 0
M  V30 2626 N 242.031 2.46333 6.57468 0
M  V30 2627 H 246.871 2.10524 2.10911 0
M  V30 2628 H 244.408 1.04749 1.03276 0
M  V30 2629 H 246.366 0.654296 4.12037 0
M  V30 2630 H 244.996 -0.0565502 3.2275 0
M  V30 2631 H 244.048 2.35172 2.98995 0
M  V30 2632 H 245.36 2.90826 4.05242 0
M  V30 2633 H 244.514 1.43908 5.89386 0
M  V30 2634 H 243.253 0.779308 4.81433 0
M  V30 2635 H 242.258 3.0702 4.56091 0
M  V30 2636 H 243.483 3.73004 5.6749 0
M  V30 2637 H 241.429 1.59423 6.36334 0
M  V30 2638 H 241.346 3.26436 6.81891 0
M  V30 2639 H 242.614 2.26244 7.45945 0
M  V30 2640 N 246.843 -1.10192 1.12674 0
M  V30 2641 C 247.773 -2.18652 0.819362 0
M  V30 2642 C 248.754 -1.68698 -0.217915 0
M  V30 2643 O 249.939 -1.94041 -0.0785581 0
M  V30 2644 C 247.069 -3.46202 0.27594 0
M  V30 2645 C 246.023 -4.09444 1.24656 0
M  V30 2646 C 245.349 -5.31725 0.563258 0
M  V30 2647 C 246.649 -4.52863 2.60217 0
M  V30 2648 H 248.343 -2.44622 1.72628 0
M  V30 2649 H 245.889 -1.17571 0.831451 0
M  V30 2650 H 247.842 -4.21372 0.0486149 0
M  V30 2651 H 246.566 -3.1973 -0.666331 0
M  V30 2652 H 245.225 -3.36284 1.45974 0
M  V30 2653 H 244.873 -5.0153 -0.384235 0
M  V30 2654 H 244.573 -5.74991 1.21075 0
M  V30 2655 H 246.097 -6.09624 0.34503 0
M  V30 2656 H 247.511 -5.19294 2.42913 0
M  V30 2657 H 245.908 -5.06986 3.21068 0
M  V30 2658 H 246.978 -3.65656 3.18471 0
M  V30 2659 N 248.321 -0.919034 -1.28029 0
M  V30 2660 C 249.737 -0.617972 -1.4715 0
M  V30 2661 C 249.937 0.835242 -1.83374 0
M  V30 2662 O 248.993 1.61388 -1.94191 0
M  V30 2663 C 250.306 -1.56041 -2.57044 0
M  V30 2664 C 251.854 -1.56769 -2.7091 0
M  V30 2665 C 252.329 -2.49688 -3.83953 0
M  V30 2666 N 253.82 -2.47845 -3.91314 0
M  V30 2667 C 254.555 -3.16437 -4.78179 0
M  V30 2668 N 254.051 -3.94376 -5.69596 0
M  V30 2669 N 255.844 -3.05498 -4.71834 0
M  V30 2670 H 247.995 -1.85866 -1.02798 0
M  V30 2671 H 250.258 -0.797506 -0.512531 0
M  V30 2672 H 249.964 -2.59671 -2.372 0
M  V30 2673 H 249.838 -1.29551 -3.54255 0
M  V30 2674 H 252.225 -0.538745 -2.90141 0
M  V30 2675 H 252.306 -1.87305 -1.74214 0
M  V30 2676 H 251.95 -3.52688 -3.65477 0
M  V30 2677 H 251.88 -2.16453 -4.80058 0
M  V30 2678 H 254.371 -1.91234 -3.25941 0
M  V30 2679 H 254.684 -4.43721 -6.32718 0
M  V30 2680 H 253.029 -3.98481 -5.69419 0
M  V30 2681 H 256.22 -2.44108 -3.99411 0
M  V30 2682 H 256.393 -3.59225 -5.39316 0
M  V30 2683 N 249.799 1.42003 -0.683588 0
M  V30 2684 C 250.746 2.30798 -0.0107309 0
M  V30 2685 C 251.716 1.4645 0.783688 0
M  V30 2686 O 252.901 1.75263 0.754156 0
M  V30 2687 C 250.041 3.3238 0.928306 0
M  V30 2688 C 249.154 4.31814 0.126776 0
M  V30 2689 C 248.289 5.20468 1.06236 0
M  V30 2690 C 247.328 6.11577 0.253035 0
M  V30 2691 N 246.465 6.92754 1.14179 0
M  V30 2692 H 251.305 2.8778 -0.773727 0
M  V30 2693 H 248.842 1.41745 -0.393283 0
M  V30 2694 H 250.8 3.89813 1.48666 0
M  V30 2695 H 249.43 2.76976 1.65783 0
M  V30 2696 H 248.482 3.76427 -0.54833 0
M  V30 2697 H 249.794 4.96276 -0.501192 0
M  V30 2698 H 248.948 5.82677 1.69035 0
M  V30 2699 H 247.687 4.56204 1.7242 0
M  V30 2700 H 246.692 5.48428 -0.388108 0
M  V30 2701 H 247.917 6.77892 -0.404839 0
M  V30 2702 H 245.863 6.3111 1.78987 0
M  V30 2703 H 245.78 7.53855 0.569111 0
M  V30 2704 H 247.048 7.59441 1.75697 0
M  V30 2705 N 251.277 0.427512 1.51691 0
M  V30 2706 C 252.207 -0.3796 2.30394 0
M  V30 2707 C 253.188 -1.02982 1.35384 0
M  V30 2708 O 254.373 -1.03534 1.643 0
M  V30 2709 C 251.503 -1.48649 3.1388 0
M  V30 2710 C 250.457 -0.960294 4.17088 0
M  V30 2711 C 249.783 -2.16219 4.89033 0
M  V30 2712 C 251.083 -0.00153679 5.223 0
M  V30 2713 H 252.777 0.277164 2.98114 0
M  V30 2714 H 250.323 0.134739 1.43368 0
M  V30 2715 H 252.276 -2.05826 3.67714 0
M  V30 2716 H 251 -2.1714 2.43962 0
M  V30 2717 H 249.659 -0.410806 3.64291 0
M  V30 2718 H 249.307 -2.83307 4.15628 0
M  V30 2719 H 249.007 -1.81654 5.58816 0
M  V30 2720 H 250.531 -2.73968 5.45687 0
M  V30 2721 H 251.945 -0.482687 5.71264 0
M  V30 2722 H 250.342 0.256199 5.99553 0
M  V30 2723 H 251.412 0.938174 4.75738 0
M  V30 2724 N 252.755 -1.56801 0.158532 0
M  V30 2725 C 253.703 -2.18638 -0.793729 0
M  V30 2726 C 254.697 -1.14669 -1.24689 0
M  V30 2727 O 255.903 -1.32895 -1.21403 0
M  V30 2728 H 252.278 -0.700226 -0.274204 0
M  V30 2729 H 254.249 -2.97367 -0.248095 0
M  V30 2730 C 252.998 -2.83139 -2.0181 0
M  V30 2731 H 252.321 -3.62863 -1.67841 0
M  V30 2732 H 253.761 -3.29894 -2.66357 0
M  V30 2733 C 252.22 -1.82244 -2.83353 0
M  V30 2734 O 252.75 -1.3 -3.80083 0
M  V30 2735 N 250.956 -1.51288 -2.48114 0
M  V30 2736 H 250.503 -1.93964 -1.69516 0
M  V30 2737 H 250.461 -0.840296 -3.02963 0
M  V30 2738 N 254.233 0.115231 -1.57178 0
M  V30 2739 C 255.644 0.67197 -1.74188 0
M  V30 2740 C 255.995 1.80125 -0.777777 0
M  V30 2741 O 255.12 2.16346 0.0484376 0
M  V30 2742 C 255.715 1.22573 -3.1585 0
M  V30 2743 C 254.274 1.72872 -3.34353 0
M  V30 2744 C 253.421 0.629972 -2.70049 0
M  V30 2745 H 256.372 -0.110712 -1.58313 0
M  V30 2746 H 256.393 2.09535 -3.17609 0
M  V30 2747 H 255.905 0.403598 -3.85996 0
M  V30 2748 H 254.006 2.5755 -2.69256 0
M  V30 2749 H 254.119 1.83557 -4.42542 0
M  V30 2750 H 252.483 1.0645 -2.31388 0
M  V30 2751 H 253.266 -0.181241 -3.42821 0
M  V30 2752 N 255.711 1.52812 0.385517 0
M  V30 2753 C 257.122 1.5993 0.963293 0
M  V30 2754 C 257.473 0.454302 1.90868 0
M  V30 2755 O 256.598 -0.422132 2.12243 0
M  V30 2756 C 257.193 2.89871 1.75387 0
M  V30 2757 C 255.752 2.99389 2.28129 0
M  V30 2758 C 254.899 2.55071 1.08783 0
M  V30 2759 H 257.85 1.5784 0.164948 0
M  V30 2760 H 257.871 2.76553 2.61341 0
M  V30 2761 H 257.383 3.73186 1.06554 0
M  V30 2762 H 255.484 2.20619 3.00263 0
M  V30 2763 H 255.597 4.04096 2.57377 0
M  V30 2764 H 253.961 2.09473 1.4489 0
M  V30 2765 H 254.744 3.40785 0.414807 0
M  V30 2766 N 257.189 -0.644168 1.43834 0
M  V30 2767 C 258.466 -1.40188 1.36406 0
M  V30 2768 C 258.846 -2.11094 0.0163124 0
M  V30 2769 O 258.194 -2.05426 -1.00062 0
M  V30 2770 C 258.404 -2.3791 2.55343 0
M  V30 2771 C 259.752 -3.01637 2.98832 0
M  V30 2772 O 260.776 -2.48237 2.55455 0
M  V30 2773 O 259.635 -3.98477 3.74003 0
M  V30 2774 H 256.729 -0.626773 0.539523 0
M  V30 2775 H 259.275 -0.670317 1.559 0
M  V30 2776 H 258.047 -1.84525 3.4506 0
M  V30 2777 H 257.67 -3.18503 2.37995 0
M  V30 2778 N 258.668 -1.30515 -0.883378 0
M  V30 2779 C 259.578 -1.18959 -2.02203 0
M  V30 2780 C 260.594 -0.109172 -1.73657 0
M  V30 2781 O 261.77 -0.324413 -1.9877 0
M  V30 2782 C 258.835 -0.883871 -3.35244 0
M  V30 2783 C 257.896 -2.04982 -3.77201 0
M  V30 2784 C 257.129 -1.75859 -5.03894 0
M  V30 2785 O 257.352 -0.687276 -5.66244 0
M  V30 2786 O 256.286 -2.61146 -5.42297 0
M  V30 2787 H 260.112 -2.14616 -2.1488 0
M  V30 2788 H 257.697 -1.10124 -1.0096 0
M  V30 2789 H 259.579 -0.728644 -4.15053 0
M  V30 2790 H 258.254 0.0427798 -3.23672 0
M  V30 2791 H 257.161 -2.26038 -2.9809 0
M  V30 2792 H 258.494 -2.95825 -3.93381 0
M  V30 2793 N 260.146 1.09593 -1.13257 0
M  V30 2794 C 261.371 1.8604 -0.916732 0
M  V30 2795 C 261.796 1.80504 0.529146 0
M  V30 2796 O 261.154 1.18127 1.37534 0
M  V30 2797 C 261.202 3.32017 -1.40703 0
M  V30 2798 O 260.306 4.08141 -0.591153 0
M  V30 2799 H 259.647 0.576943 -0.328683 0
M  V30 2800 H 262.177 1.38405 -1.50682 0
M  V30 2801 H 262.187 3.82865 -1.4099 0
M  V30 2802 H 260.862 3.35361 -2.45979 0
M  V30 2803 H 259.439 3.67084 -0.656005 0
M  V30 2804 N 261.624 0.925811 1.2754 0
M  V30 2805 C 262.872 0.564138 1.94067 0
M  V30 2806 C 263.193 -0.897188 1.73134 0
M  V30 2807 O 262.463 -1.63573 1.07799 0
M  V30 2808 H 261.043 0.205645 0.718136 0
M  V30 2809 H 263.705 1.1778 1.55287 0
M  V30 2810 H 262.801 0.76881 3.02483 0
M  V30 2811 N 263.102 -1.41638 0.69111 0
M  V30 2812 C 264.513 -1.84346 0.295517 0
M  V30 2813 C 264.864 -1.57833 -1.16547 0
M  V30 2814 O 263.989 -1.04648 -1.89414 0
M  V30 2815 C 264.584 -3.34636 0.529575 0
M  V30 2816 C 263.143 -3.7593 0.187944 0
M  V30 2817 C 262.29 -2.65082 0.814052 0
M  V30 2818 H 265.241 -1.31253 0.892092 0
M  V30 2819 H 265.262 -3.79903 -0.213148 0
M  V30 2820 H 264.774 -3.53901 1.59297 0
M  V30 2821 H 262.875 -3.62268 -0.871367 0
M  V30 2822 H 262.988 -4.74808 0.63985 0
M  V30 2823 H 261.352 -2.53528 0.244017 0
M  V30 2824 H 262.135 -2.87167 1.88123 0
M  V30 2825 N 264.58 -0.43555 -1.51462 0
M  V30 2826 C 265.828 0.131254 -2.01673 0
M  V30 2827 C 266.149 1.43368 -1.32177 0
M  V30 2828 O 265.419 1.90524 -0.455769 0
M  V30 2829 H 263.999 0.0514954 -0.745223 0
M  V30 2830 H 266.661 -0.577847 -1.86137 0
M  V30 2831 H 265.757 0.308446 -3.10572 0
M  V30 2832 N 266.058 1.56714 -0.166846 0
M  V30 2833 C 267.298 1.98641 0.481763 0
M  V30 2834 C 267.662 1.05038 1.6072 0
M  V30 2835 O 268.863 1.36087 2.31805 0
M  V30 2836 C 267.134 3.44362 0.956517 0
M  V30 2837 S 268.693 4.08317 1.60694 0
M  V30 2838 H 265.511 0.693873 0.155116 0
M  V30 2839 H 268.113 1.93719 -0.263251 0
M  V30 2840 H 266.817 4.10204 0.126936 0
M  V30 2841 H 266.348 3.53041 1.73568 0
M  V30 2842 H 268.363 4.02999 2.89494 0
M  V30 2843 N 267.536 -0.106894 1.57237 0
M  V30 2844 C 268.469 -1.16125 1.96444 0
M  V30 2845 C 269.447 -1.3947 0.835871 0
M  V30 2846 O 270.631 -1.53425 1.09513 0
M  V30 2847 C 267.758 -2.51277 2.27107 0
M  V30 2848 C 266.804 -2.44285 3.4961 0
M  V30 2849 S 267.637 -1.87077 5.01759 0
M  V30 2850 C 268.793 -3.23877 5.35588 0
M  V30 2851 H 269.026 -0.826971 2.85567 0
M  V30 2852 H 266.559 -0.314124 1.51171 0
M  V30 2853 H 268.517 -3.29035 2.45451 0
M  V30 2854 H 267.178 -2.81879 1.38576 0
M  V30 2855 H 266.371 -3.4387 3.68469 0
M  V30 2856 H 265.973 -1.74652 3.30715 0
M  V30 2857 H 268.265 -4.20122 5.31511 0
M  V30 2858 H 269.208 -3.09833 6.36717 0
M  V30 2859 H 269.616 -3.22864 4.63054 0
M  V30 2860 N 269.014 -1.53014 -0.377408 0
M  V30 2861 C 270.239 -1.72818 -1.14668 0
M  V30 2862 C 270.664 -0.450725 -1.8262 0
M  V30 2863 O 270.022 0.59439 -1.7128 0
M  V30 2864 C 270.07 -2.88627 -2.16164 0
M  V30 2865 O 269.174 -2.56409 -3.22998 0
M  V30 2866 H 268.515 -0.574301 -0.333278 0
M  V30 2867 H 271.045 -1.99853 -0.438152 0
M  V30 2868 H 271.055 -3.14455 -2.59966 0
M  V30 2869 H 269.73 -3.81294 -1.66095 0
M  V30 2870 H 268.307 -2.4136 -2.84253 0
M  V30 2871 N 270.492 0.636531 -1.44174 0
M  V30 2872 C 271.732 1.40781 -1.48189 0
M  V30 2873 C 272.096 1.91688 -0.10944 0
M  V30 2874 O 273.297 2.68789 -0.0242741 0
M  V30 2875 C 271.568 2.54575 -2.50851 0
M  V30 2876 S 273.127 3.4284 -2.73873 0
M  V30 2877 H 269.945 0.480345 -0.524204 0
M  V30 2878 H 272.547 0.737416 -1.81059 0
M  V30 2879 H 271.251 2.15478 -3.49281 0
M  V30 2880 H 270.782 3.26447 -2.19536 0
M  V30 2881 H 272.797 4.51846 -2.05059 0
M  V30 2882 N 271.97 1.30982 0.876444 0
M  V30 2883 C 272.917 1.18085 1.98304 0
M  V30 2884 C 273.887 0.0682263 1.6596 0
M  V30 2885 O 275.072 0.239937 1.89285 0
M  V30 2886 C 272.212 0.887475 3.33493 0
M  V30 2887 C 271.325 2.08281 3.78475 0
M  V30 2888 C 270.46 1.72678 5.0235 0
M  V30 2889 C 269.499 2.88657 5.39762 0
M  V30 2890 N 268.636 2.53292 6.54819 0
M  V30 2891 H 273.476 2.1275 2.08666 0
M  V30 2892 H 271.013 1.05839 1.02159 0
M  V30 2893 H 272.971 0.697961 4.1132 0
M  V30 2894 H 271.601 -0.022315 3.22792 0
M  V30 2895 H 270.653 2.3833 2.96484 0
M  V30 2896 H 271.965 2.95108 4.02135 0
M  V30 2897 H 271.119 1.50151 5.87826 0
M  V30 2898 H 269.858 0.830327 4.8058 0
M  V30 2899 H 268.863 3.1184 4.52809 0
M  V30 2900 H 270.088 3.79002 5.63502 0
M  V30 2901 H 268.034 1.66163 6.34607 0
M  V30 2902 H 267.951 3.3365 6.7839 0
M  V30 2903 H 269.219 2.34143 7.43503 0
M  V30 2904 N 273.449 -1.08991 1.13837 0
M  V30 2905 C 274.689 -1.82867 0.913183 0
M  V30 2906 C 275.053 -1.83936 -0.550604 0
M  V30 2907 O 276.254 -2.53515 -0.893515 0
M  V30 2908 C 274.525 -3.24843 1.49036 0
M  V30 2909 S 276.084 -4.15669 1.40588 0
M  V30 2910 H 272.902 -0.630278 0.329046 0
M  V30 2911 H 275.504 -1.31049 1.45073 0
M  V30 2912 H 274.208 -3.21644 2.54899 0
M  V30 2913 H 273.739 -3.81734 0.950947 0
M  V30 2914 H 275.754 -4.94686 0.387353 0
M  V30 2915 N 274.927 -0.932562 -1.27047 0
M  V30 2916 C 276.173 -0.576412 -1.94436 0
M  V30 2917 C 276.506 0.880891 -1.73072 0
M  V30 2918 O 275.781 1.62905 -1.06264 0
M  V30 2919 C 276.064 -0.909031 -3.48437 0
M  V30 2920 C 275.917 -2.42044 -3.79123 0
M  V30 2921 C 277.236 -0.418341 -4.38107 0
M  V30 2922 H 274.355 -0.210888 -0.706184 0
M  V30 2923 H 276.997 -1.16522 -1.50075 0
M  V30 2924 H 275.147 -0.407947 -3.86352 0
M  V30 2925 H 276.819 -2.99359 -3.50973 0
M  V30 2926 H 275.062 -2.86758 -3.25503 0
M  V30 2927 H 275.733 -2.6037 -4.86736 0
M  V30 2928 H 278.209 -0.847856 -4.0737 0
M  V30 2929 H 277.085 -0.679981 -5.44672 0
M  V30 2930 H 277.346 0.681642 -4.36814 0
M  V30 2931 N 276.405 1.4127 -0.698611 0
M  V30 2932 C 277.335 2.33447 -0.049629 0
M  V30 2933 C 278.316 1.51982 0.763898 0
M  V30 2934 O 279.501 1.80509 0.716257 0
M  V30 2935 C 276.631 3.35828 0.885267 0
M  V30 2936 C 275.585 4.27627 0.178613 0
M  V30 2937 C 274.911 5.20406 1.22807 0
M  V30 2938 C 276.211 5.13459 -0.956933 0
M  V30 2939 H 277.905 2.87966 -0.81951 0
M  V30 2940 H 275.451 1.38461 -0.395538 0
M  V30 2941 H 277.404 3.9924 1.34854 0
M  V30 2942 H 276.128 2.79666 1.68685 0
M  V30 2943 H 274.787 3.65643 -0.26466 0
M  V30 2944 H 274.435 4.60558 2.02226 0
M  V30 2945 H 274.135 5.82661 0.760239 0
M  V30 2946 H 275.659 5.86695 1.69179 0
M  V30 2947 H 277.073 5.70421 -0.573805 0
M  V30 2948 H 275.47 5.8467 -1.35205 0
M  V30 2949 H 276.54 4.50443 -1.79524 0
M  V30 2950 N 277.883 0.443576 1.51229 0
M  V30 2951 C 279.108 -0.121648 2.07043 0
M  V30 2952 C 279.533 -1.35156 1.30823 0
M  V30 2953 O 278.891 -1.7793 0.347934 0
M  V30 2954 C 278.939 -0.41624 3.5819 0
M  V30 2955 O 278.043 -1.50163 3.8409 0
M  V30 2956 H 277.384 0.000871367 0.663999 0
M  V30 2957 H 279.914 0.626706 1.94765 0
M  V30 2958 H 279.924 -0.664867 4.02546 0
M  V30 2959 H 278.599 0.482653 4.1309 0
M  V30 2960 H 277.176 -1.24248 3.51592 0
M  V30 2961 O 279.4 -1.58373 0.316273 0
M  V30 2962 H 280.091 -1.92143 -0.24513 0
M  V30 END ATOM
M  V30 BEGIN BOND
M  V30 END BOND
M  V30 END CTAB
M  END
$$$$
