drugbank_target|Q746I8 Isopentenyl-diphosphate delta-isomerase (DB03247)
 OpenBabel12092120273D

  0  0  0     0  0            999 V3000
M  V30 BEGIN CTAB
M  V30 COUNTS 5153 5193 0 0 0
M  V30 BEGIN ATOM
M  V30 1 H -0.908 1.98254 -0.117106 0
M  V30 2 N 0 1.576 0 0
M  V30 3 C 0.933 2.03868 1.02534 0
M  V30 4 C 1.911 0.928543 1.3348 0
M  V30 5 O 3.095 1.19667 1.45644 0
M  V30 6 C 0.222 2.43627 2.35294 0
M  V30 7 C -0.732 3.65373 2.2001 0
M  V30 8 S 0.101 5.13292 1.52614 0
M  V30 9 C 1.257 5.56322 2.86805 0
M  V30 10 H 1.49 2.90518 0.631377 0
M  V30 11 H -0.977 1.52953 0.210867 0
M  V30 12 H 0.981 2.67203 3.11629 0
M  V30 13 H -0.358 1.57376 2.7183 0
M  V30 14 H -1.165 3.90944 3.18086 0
M  V30 15 H -1.563 3.418 1.51819 0
M  V30 16 H 0.729 5.58782 3.83104 0
M  V30 17 H 1.672 6.56266 2.65933 0
M  V30 18 H 2.08 4.83886 2.90714 0
M  V30 19 N 1.4781 -0.272755 1.55222 0
M  V30 20 C 2.4261 -1.35705 1.88909 0
M  V30 21 C 3.4201 -1.5112 0.765456 0
M  V30 22 O 4.6261 -1.52901 0.949802 0
M  V30 23 H 1.0011 -0.453868 0.59959 0
M  V30 24 H 2.9721 -1.04544 2.79487 0
M  V30 25 C 1.7211 -2.71049 2.17779 0
M  V30 26 H 1.0441 -2.59979 3.03728 0
M  V30 27 H 2.4841 -3.45858 2.45272 0
M  V30 28 C 0.9431 -3.22165 0.985473 0
M  V30 29 O 1.4731 -4.01096 0.220233 0
M  V30 30 N -0.3209 -2.7985 0.783108 0
M  V30 31 H -0.7739 -2.15775 1.40708 0
M  V30 32 H -0.8159 -3.14397 -0.0130392 0
M  V30 33 N 2.9562 -1.48159 -0.537278 0
M  V30 34 C 4.2052 -1.5506 -1.28993 0
M  V30 35 C 4.5182 -0.226211 -1.94288 0
M  V30 36 O 5.7242 -0.173395 -2.70946 0
M  V30 37 C 4.1802 -2.73429 -2.34018 0
M  V30 38 C 3.7882 -4.1248 -1.74825 0
M  V30 39 C 5.5322 -2.89638 -3.10339 0
M  V30 40 C 3.4392 -5.22121 -2.77747 0
M  V30 41 H 2.3692 -0.577231 -0.485098 0
M  V30 42 H 5.0202 -1.74478 -0.568317 0
M  V30 43 H 3.4022 -2.47431 -3.09182 0
M  V30 44 H 4.5762 -4.48466 -1.05899 0
M  V30 45 H 2.8912 -4.01327 -1.11022 0
M  V30 46 H 5.4882 -3.68718 -3.87235 0
M  V30 47 H 5.8312 -1.9882 -3.65754 0
M  V30 48 H 6.3642 -3.15502 -2.42288 0
M  V30 49 H 3.1032 -6.1488 -2.27161 0
M  V30 50 H 2.6232 -4.90631 -3.45024 0
M  V30 51 H 4.3022 -5.49924 -3.4087 0
M  V30 52 N 4.4343 0.785586 -1.36625 0
M  V30 53 C 5.8503 1.08419 -1.17122 0
M  V30 54 C 6.0503 2.015 0.00208491 0
M  V30 55 O 5.1063 2.43551 0.666278 0
M  V30 56 C 6.4193 1.69498 -2.48377 0
M  V30 57 C 7.9673 1.81821 -2.54775 0
M  V30 58 C 8.4423 2.46315 -3.86126 0
M  V30 59 N 9.9333 2.53779 -3.87492 0
M  V30 60 C 10.6683 3.045 -4.85868 0
M  V30 61 N 10.1643 3.55499 -5.94637 0
M  V30 62 N 11.9573 3.03247 -4.73284 0
M  V30 63 H 4.1083 0.167264 -2.1174 0
M  V30 64 H 6.3713 0.13682 -0.938075 0
M  V30 65 H 6.0773 1.08571 -3.34522 0
M  V30 66 H 5.9513 2.6896 -2.64462 0
M  V30 67 H 8.3383 2.41884 -1.69045 0
M  V30 68 H 8.4193 0.811532 -2.42586 0
M  V30 69 H 8.0633 1.86895 -4.72263 0
M  V30 70 H 7.9933 3.47561 -3.95612 0
M  V30 71 H 10.4843 2.17672 -3.08913 0
M  V30 72 H 10.7973 3.92562 -6.65669 0
M  V30 73 H 9.1423 3.5364 -5.98301 0
M  V30 74 H 12.3333 2.62696 -3.87438 0
M  V30 75 H 12.5063 3.42467 -5.50109 0
M  V30 76 N 5.9124 1.20967 1.01018 0
M  V30 77 C 6.8224 0.980157 2.13143 0
M  V30 78 C 7.8384 -0.0660665 1.73875 0
M  V30 79 O 9.0144 0.122821 2.01025 0
M  V30 80 C 6.0794 0.54216 3.42435 0
M  V30 81 C 5.1404 1.65999 3.95908 0
M  V30 82 C 4.3734 1.2428 5.19028 0
M  V30 83 O 4.5964 0.114196 5.70286 0
M  V30 84 O 3.5304 2.05271 5.65816 0
M  V30 85 H 7.3564 1.91913 2.35379 0
M  V30 86 H 4.9414 0.994099 1.11526 0
M  V30 87 H 6.8234 0.30744 4.20277 0
M  V30 88 H 5.4984 -0.36815 3.216 0
M  V30 89 H 4.4054 1.94906 3.19316 0
M  V30 90 H 5.7384 2.54753 4.21143 0
M  V30 91 N 7.3905 -1.2043 1.01659 0
M  V30 92 C 8.8065 -1.41852 0.731442 0
M  V30 93 C 9.0065 -1.89358 -0.688898 0
M  V30 94 O 8.0625 -2.06247 -1.45666 0
M  V30 95 C 9.3755 -2.44019 1.75714 0
M  V30 96 C 10.9235 -2.57785 1.77527 0
M  V30 97 C 11.3985 -3.63194 2.79023 0
M  V30 98 N 12.8895 -3.70678 2.77763 0
M  V30 99 C 13.6245 -4.51897 3.52954 0
M  V30 100 N 13.1205 -5.36921 4.37821 0
M  V30 101 N 14.9135 -4.4643 3.41551 0
M  V30 102 H 7.0645 -0.879093 1.93354 0
M  V30 103 H 9.3275 -0.448425 0.835236 0
M  V30 104 H 9.0335 -2.1611 2.77469 0
M  V30 105 H 8.9075 -3.43007 1.56927 0
M  V30 106 H 11.2945 -2.85023 0.764569 0
M  V30 107 H 11.3755 -1.58992 2.00387 0
M  V30 108 H 11.0195 -3.36699 3.80258 0
M  V30 109 H 10.9495 -4.61609 2.53425 0
M  V30 110 H 13.4405 -3.09944 2.16201 0
M  V30 111 H 13.7535 -5.95981 4.91962 0
M  V30 112 H 12.0985 -5.36424 4.41899 0
M  V30 113 H 15.2895 -3.79042 2.74672 0
M  V30 114 H 15.4625 -5.09491 4.00404 0
M  V30 115 N 8.8686 -0.792821 -1.36206 0
M  V30 116 C 9.8156 -0.191653 -2.30003 0
M  V30 117 C 10.7856 0.666453 -1.52143 0
M  V30 118 O 11.9706 0.61442 -1.80636 0
M  V30 119 C 9.1106 0.664848 -3.38635 0
M  V30 120 C 8.2236 -0.212175 -4.31479 0
M  V30 121 C 7.3586 0.651022 -5.27196 0
M  V30 122 C 6.3976 -0.227247 -6.11678 0
M  V30 123 N 5.5346 0.595127 -6.99573 0
M  V30 124 H 10.3746 -0.996978 -2.80828 0
M  V30 125 H 7.9116 -0.503206 -1.38225 0
M  V30 126 H 9.8696 1.17645 -4.00269 0
M  V30 127 H 8.4996 1.43557 -2.89122 0
M  V30 128 H 7.5516 -0.841777 -3.70969 0
M  V30 129 H 8.8636 -0.888751 -4.90818 0
M  V30 130 H 8.0176 1.2283 -5.94136 0
M  V30 131 H 6.7566 1.36121 -4.68319 0
M  V30 132 H 5.7616 -0.816904 -5.43697 0
M  V30 133 H 6.9866 -0.93509 -6.72631 0
M  V30 134 H 4.9326 1.28955 -6.432 0
M  V30 135 H 4.8496 -0.0236952 -7.55996 0
M  V30 136 H 6.1176 1.15613 -7.70879 0
M  V30 137 N 10.3467 1.47872 -0.545128 0
M  V30 138 C 11.7627 1.5829 -0.204032 0
M  V30 139 C 11.9627 1.54529 1.29317 0
M  V30 140 O 11.0187 1.44232 2.07252 0
M  V30 141 C 12.3317 2.89304 -0.819987 0
M  V30 142 C 13.8797 3.02864 -0.790105 0
M  V30 143 C 14.3547 4.3656 -1.38491 0
M  V30 144 N 15.8457 4.43165 -1.34755 0
M  V30 145 C 16.5807 5.45153 -1.77753 0
M  V30 146 N 16.0767 6.54016 -2.2855 0
M  V30 147 N 17.8697 5.36125 -1.68897 0
M  V30 148 H 10.0207 1.4856 -1.51802 0
M  V30 149 H 12.2837 0.706305 -0.632327 0
M  V30 150 H 11.9897 2.97757 -1.87173 0
M  V30 151 H 11.8637 3.75957 -0.305915 0
M  V30 152 H 14.2507 2.94014 0.252913 0
M  V30 153 H 14.3317 2.17782 -1.34181 0
M  V30 154 H 13.9757 4.46164 -2.42693 0
M  V30 155 H 13.9057 5.20353 -0.808754 0
M  V30 156 H 16.3967 3.65083 -0.975855 0
M  V30 157 H 16.7097 7.27994 -2.59314 0
M  V30 158 H 15.0547 6.54938 -2.32553 0
M  V30 159 H 18.2457 4.49975 -1.28998 0
M  V30 160 H 18.4187 6.15472 -2.02726 0
M  V30 161 N 11.8248 0.280983 1.55075 0
M  V30 162 C 12.7718 -0.603937 2.22758 0
M  V30 163 C 13.7418 -1.1452 1.20309 0
M  V30 164 O 14.9268 -1.19343 1.48869 0
M  V30 165 C 12.0668 -1.77947 2.95684 0
M  V30 166 C 11.1798 -1.2715 4.12864 0
M  V30 167 C 10.3148 -2.4093 4.7342 0
M  V30 168 C 9.3538 -1.87165 5.82783 0
M  V30 169 N 8.4908 -2.94441 6.37377 0
M  V30 170 H 13.3308 -0.020124 2.97993 0
M  V30 171 H 10.8678 0.00183425 1.471 0
M  V30 172 H 12.8258 -2.47055 3.36184 0
M  V30 173 H 11.4558 -2.33522 2.22861 0
M  V30 174 H 10.5078 -0.473331 3.77444 0
M  V30 175 H 11.8198 -0.837751 4.91715 0
M  V30 176 H 10.9738 -3.18021 5.1667 0
M  V30 177 H 9.7128 -2.87623 3.93859 0
M  V30 178 H 8.7178 -1.08556 5.38976 0
M  V30 179 H 9.9428 -1.41401 6.64216 0
M  V30 180 H 7.8888 -3.40505 5.60707 0
M  V30 181 H 7.8058 -2.55501 7.11516 0
M  V30 182 H 9.0738 -3.71489 6.85285 0
M  V30 183 N 13.3029 -1.57598 0.00835791 0
M  V30 184 C 14.2529 -2.05431 -0.989045 0
M  V30 185 C 15.2369 -0.950662 -1.29812 0
M  V30 186 O 16.4289 -1.21438 -1.28771 0
M  V30 187 C 13.5579 -2.56801 -2.27833 0
M  V30 188 C 12.6439 -3.74058 -1.99853 0
M  V30 189 N 13.0349 -4.8544 -1.42062 0
M  V30 190 C 11.3329 -3.82148 -2.29953 0
M  V30 191 C 12.0339 -5.66817 -1.30743 0
M  V30 192 N 11.0099 -5.13077 -1.7959 0
M  V30 193 H 14.8119 -2.88955 -0.536853 0
M  V30 194 H 12.3259 -1.61199 -0.197148 0
M  V30 195 H 14.3229 -2.89349 -3.00137 0
M  V30 196 H 12.9829 -1.74699 -2.73698 0
M  V30 197 H 13.9939 -5.0612 -1.09833 0
M  V30 198 H 10.6709 -3.10916 -2.78635 0
M  V30 199 H 12.0609 -6.66343 -0.862328 0
M  V30 200 N 14.781 0.264519 -1.55364 0
M  V30 201 C 15.711 1.33121 -1.91836 0
M  V30 202 C 16.692 1.51101 -0.781192 0
M  V30 203 O 17.877 1.64003 -1.04003 0
M  V30 204 C 15.007 2.68921 -2.19769 0
M  V30 205 C 13.961 2.65661 -3.35571 0
M  V30 206 C 13.287 4.05093 -3.49004 0
M  V30 207 C 14.587 2.24187 -4.71739 0
M  V30 208 H 16.281 1.02844 -2.81182 0
M  V30 209 H 13.827 0.493286 -1.35287 0
M  V30 210 H 15.78 3.43663 -2.43872 0
M  V30 211 H 14.504 3.00799 -1.27231 0
M  V30 212 H 13.163 1.93377 -3.1145 0
M  V30 213 H 12.811 4.34206 -2.53917 0
M  V30 214 H 12.511 4.03804 -4.26868 0
M  V30 215 H 14.035 4.81561 -3.75408 0
M  V30 216 H 15.449 2.88654 -4.9533 0
M  V30 217 H 13.846 2.34044 -5.52579 0
M  V30 218 H 14.916 1.19327 -4.69988 0
M  V30 219 N 16.2591 1.48442 0.529413 0
M  V30 220 C 17.1691 1.6569 1.66084 0
M  V30 221 C 18.1851 0.539432 1.65427 0
M  V30 222 O 19.3611 0.810572 1.84368 0
M  V30 223 C 16.4261 1.69315 3.02545 0
M  V30 224 C 15.4871 2.92694 3.14052 0
M  V30 225 C 14.7201 2.96137 4.44003 0
M  V30 226 O 14.9431 2.07973 5.31134 0
M  V30 227 O 13.8771 3.88312 4.59888 0
M  V30 228 H 17.7031 2.61483 1.54469 0
M  V30 229 H 15.2881 1.3185 0.702567 0
M  V30 230 H 17.1701 1.74217 3.83701 0
M  V30 231 H 15.8451 0.766966 3.14483 0
M  V30 232 H 14.7521 2.93324 2.32189 0
M  V30 233 H 16.0851 3.84699 3.0703 0
M  V30 234 N 17.7372 -0.778329 1.37039 0
M  V30 235 C 18.7002 -1.87301 1.32102 0
M  V30 236 C 19.7002 -1.59198 0.226405 0
M  V30 237 O 20.8902 -1.67403 0.481861 0
M  V30 238 C 18.0222 -3.24309 1.05055 0
M  V30 239 H 19.2152 -1.93093 2.29467 0
M  V30 240 H 16.7682 -0.977358 1.21973 0
M  V30 241 H 17.5032 -3.24196 0.0819373 0
M  V30 242 H 17.2882 -3.46098 1.84279 0
M  V30 243 H 18.7782 -4.04382 1.04234 0
M  V30 244 N 19.2153 -1.21501 -1.00376 0
M  V30 245 C 20.4553 -1.04444 -1.75701 0
M  V30 246 C 20.8193 0.414644 -1.87469 0
M  V30 247 O 22.0203 0.705763 -2.59369 0
M  V30 248 C 20.2913 -1.72389 -3.13077 0
M  V30 249 S 21.8503 -1.70604 -4.04277 0
M  V30 250 H 18.6683 -0.374249 -0.604532 0
M  V30 251 H 21.2703 -1.54267 -1.20091 0
M  V30 252 H 19.9743 -2.77734 -3.02146 0
M  V30 253 H 19.5053 -1.22751 -3.73759 0
M  V30 254 H 21.5203 -0.748012 -4.9053 0
M  V30 255 N 20.6934 1.19889 -1.02296 0
M  V30 256 C 21.6234 2.25141 -0.619174 0
M  V30 257 C 22.6044 1.66051 0.368915 0
M  V30 258 O 23.7894 1.92546 0.252941 0
M  V30 259 C 20.9194 3.4728 0.0368783 0
M  V30 260 C 19.8734 4.19005 -0.872865 0
M  V30 261 C 19.1994 5.34637 -0.0822402 0
M  V30 262 C 20.4994 4.74452 -2.18387 0
M  V30 263 H 22.1934 2.59171 -1.49903 0
M  V30 264 H 19.7394 1.24579 -0.722222 0
M  V30 265 H 21.6924 4.20098 0.330958 0
M  V30 266 H 20.4164 3.12433 0.95149 0
M  V30 267 H 19.0754 3.48061 -1.15105 0
M  V30 268 H 18.7234 4.96034 0.83422 0
M  V30 269 H 18.4234 5.83557 -0.688149 0
M  V30 270 H 19.9474 6.10255 0.205238 0
M  V30 271 H 21.3614 5.39055 -1.95172 0
M  V30 272 H 19.7584 5.33834 -2.74119 0
M  V30 273 H 20.8284 3.92844 -2.84257 0
M  V30 274 N 22.1715 0.800033 1.35784 0
M  V30 275 C 23.0815 0.207204 2.33683 0
M  V30 276 C 24.0975 -0.64631 1.61551 0
M  V30 277 O 25.2735 -0.559604 1.93469 0
M  V30 278 C 22.3385 -0.639659 3.40748 0
M  V30 279 C 21.3995 0.233585 4.28664 0
M  V30 280 C 20.6325 -0.572954 5.30616 0
M  V30 281 O 20.8555 -1.80816 5.40982 0
M  V30 282 O 19.7895 0.0327285 6.01891 0
M  V30 283 H 23.6155 1.01692 2.86169 0
M  V30 284 H 21.2005 0.561691 1.38439 0
M  V30 285 H 23.0825 -1.12223 4.06182 0
M  V30 286 H 21.7575 -1.42708 2.90544 0
M  V30 287 H 20.6645 0.763147 3.66233 0
M  V30 288 H 21.9975 0.984784 4.82248 0
M  V30 289 N 23.6496 -1.47581 0.552962 0
M  V30 290 C 24.8976 -2.02082 0.0272703 0
M  V30 291 C 25.2186 -1.4301 -1.32563 0
M  V30 292 O 24.4886 -0.603745 -1.86365 0
M  V30 293 H 23.0686 -0.746966 0.00709182 0
M  V30 294 H 25.7306 -1.81033 0.722008 0
M  V30 295 H 24.8266 -3.12034 -0.0639951 0
M  V30 296 N 25.1277 -0.289203 -1.54924 0
M  V30 297 C 26.0377 0.601863 -2.26748 0
M  V30 298 C 27.0537 1.15834 -1.2984 0
M  V30 299 O 28.2297 1.18564 -1.62802 0
M  V30 300 C 25.2947 1.76299 -2.98529 0
M  V30 301 C 24.3557 1.24178 -4.10948 0
M  V30 302 C 23.5887 2.34757 -4.79296 0
M  V30 303 O 23.8117 3.54411 -4.46933 0
M  V30 304 O 22.7457 2.02115 -5.66951 0
M  V30 305 H 26.5717 0.0195879 -3.03694 0
M  V30 306 H 24.1567 -0.0560868 -1.49295 0
M  V30 307 H 26.0387 2.43973 -3.43592 0
M  V30 308 H 24.7137 2.33209 -2.24488 0
M  V30 309 H 23.6207 0.531104 -3.70311 0
M  V30 310 H 24.9537 0.718252 -4.86931 0
M  V30 311 N 26.6058 1.57591 -0.0167156 0
M  V30 312 C 27.8518 1.91567 0.665582 0
M  V30 313 C 28.1848 0.892298 1.72487 0
M  V30 314 O 27.4598 -0.0867127 1.94307 0
M  V30 315 C 27.7428 3.36069 1.29342 0
M  V30 316 C 27.5958 4.49135 0.244541 0
M  V30 317 C 28.9148 3.803 2.21495 0
M  V30 318 H 26.0338 0.69666 0.240488 0
M  V30 319 H 28.6758 1.89866 -0.0714356 0
M  V30 320 H 26.8258 3.3765 1.92158 0
M  V30 321 H 28.4978 4.59689 -0.385228 0
M  V30 322 H 26.7408 4.3165 -0.431379 0
M  V30 323 H 27.4118 5.47242 0.723207 0
M  V30 324 H 29.8878 3.80377 1.68678 0
M  V30 325 H 28.7638 4.82127 2.62382 0
M  V30 326 H 29.0248 3.15104 3.101 0
M  V30 327 N 28.0839 -0.256276 1.55502 0
M  V30 328 C 29.0469 -1.30047 1.88734 0
M  V30 329 C 30.0469 -1.4154 0.763086 0
M  V30 330 O 31.2369 -1.40403 1.03115 0
M  V30 331 C 28.3689 -2.67953 2.10747 0
M  V30 332 H 29.5619 -1.01802 2.82093 0
M  V30 333 H 27.1149 -0.495134 1.4825 0
M  V30 334 H 27.8499 -3.01351 1.19825 0
M  V30 335 H 27.6349 -2.60993 2.92617 0
M  V30 336 H 29.1249 -3.43368 2.37673 0
M  V30 337 N 29.562 -1.4872 -0.521534 0
M  V30 338 C 30.792 -1.6061 -1.29954 0
M  V30 339 C 31.2 -0.268728 -1.87282 0
M  V30 340 O 30.543 0.753221 -1.67548 0
M  V30 341 C 30.605 -2.60013 -2.48261 0
M  V30 342 C 30.269 -4.04874 -2.11957 0
M  V30 343 C 31.266 -4.92304 -1.67132 0
M  V30 344 C 28.951 -4.5047 -2.22221 0
M  V30 345 C 30.945 -6.2336 -1.33047 0
M  V30 346 C 28.632 -5.81544 -1.87748 0
M  V30 347 C 29.63 -6.67812 -1.43234 0
M  V30 348 O 29.318 -7.96446 -1.09217 0
M  V30 349 H 29.05 -0.544116 -0.401141 0
M  V30 350 H 31.604 -1.95339 -0.634958 0
M  V30 351 H 29.834 -2.20422 -3.17728 0
M  V30 352 H 31.523 -2.61648 -3.10315 0
M  V30 353 H 32.289 -4.58312 -1.58665 0
M  V30 354 H 28.168 -3.83504 -2.55823 0
M  V30 355 H 31.712 -6.90649 -0.982299 0
M  V30 356 H 27.609 -6.15069 -1.95858 0
M  V30 357 H 28.377 -8.09275 -1.22542 0
M  V30 358 N 31.0401 0.771051 -1.3745 0
M  V30 359 C 31.9721 1.89352 -1.29146 0
M  V30 360 C 32.9851 1.61477 -0.207124 0
M  V30 361 O 34.1741 1.72382 -0.463324 0
M  V30 362 C 31.2741 3.24596 -0.974195 0
M  V30 363 C 30.4471 3.80111 -2.16413 0
M  V30 364 C 29.5061 4.93832 -1.81703 0
M  V30 365 O 28.5321 5.09382 -2.54006 0
M  V30 366 N 29.7341 5.75483 -0.761573 0
M  V30 367 H 32.4991 1.96991 -2.25864 0
M  V30 368 H 30.0601 0.950191 -1.31084 0
M  V30 369 H 32.0521 3.98193 -0.722828 0
M  V30 370 H 30.6221 3.12454 -0.0955527 0
M  V30 371 H 29.8421 2.98284 -2.57721 0
M  V30 372 H 31.1301 4.13932 -2.95867 0
M  V30 373 H 30.5281 5.65469 -0.161609 0
M  V30 374 H 29.0851 6.49302 -0.570064 0
M  V30 375 N 32.5182 1.22032 0.997298 0
M  V30 376 C 33.4652 0.986467 2.08656 0
M  V30 377 C 34.4352 -0.0902671 1.65855 0
M  V30 378 O 35.6202 0.0584294 1.90711 0
M  V30 379 C 32.7602 0.565569 3.40434 0
M  V30 380 C 31.8732 1.71259 3.96604 0
M  V30 381 C 31.0082 1.24011 5.16522 0
M  V30 382 C 30.0472 2.35896 5.64818 0
M  V30 383 N 29.1842 1.89726 6.7598 0
M  V30 384 H 34.0242 1.91892 2.27994 0
M  V30 385 H 31.5612 0.956199 1.11782 0
M  V30 386 H 33.5192 0.302738 4.161 0
M  V30 387 H 32.1492 -0.329879 3.2111 0
M  V30 388 H 31.2012 2.08986 3.17851 0
M  V30 389 H 32.5132 2.55436 4.28432 0
M  V30 390 H 31.6672 0.934395 5.99461 0
M  V30 391 H 30.4062 0.368487 4.86306 0
M  V30 392 H 29.4112 2.67261 4.8047 0
M  V30 393 H 30.6362 3.23567 5.97061 0
M  V30 394 H 28.5822 1.0492 6.47555 0
M  V30 395 H 28.4992 2.67471 7.07103 0
M  V30 396 H 29.7672 1.62211 7.62435 0
M  V30 397 N 33.9963 -1.19345 1.0293 0
M  V30 398 C 35.2243 -1.92997 0.745644 0
M  V30 399 C 35.6393 -1.75519 -0.695589 0
M  V30 400 O 34.9963 -1.07737 -1.47306 0
M  V30 401 C 35.0473 -3.44741 1.08792 0
M  V30 402 O 34.7683 -3.61658 2.47256 0
M  V30 403 C 36.2693 -4.35515 0.827129 0
M  V30 404 H 33.4893 -0.613042 0.272801 0
M  V30 405 H 36.0333 -1.51473 1.3739 0
M  V30 406 H 34.1883 -3.84097 0.504832 0
M  V30 407 H 34.6023 -4.55514 2.60015 0
M  V30 408 H 36.0763 -5.40589 1.11658 0
M  V30 409 H 36.5533 -4.38552 -0.238436 0
M  V30 410 H 37.1593 -4.01841 1.39297 0
M  V30 411 N 35.4744 -0.807222 -1.35358 0
M  V30 412 C 36.7024 -0.400377 -2.02989 0
M  V30 413 C 37.1174 0.988859 -1.60832 0
M  V30 414 O 36.4744 1.63729 -0.806175 0
M  V30 415 C 36.5254 -0.474867 -3.58368 0
M  V30 416 O 36.2464 -1.80933 -3.98992 0
M  V30 417 C 37.7474 -0.0609112 -4.43258 0
M  V30 418 H 34.9674 -0.162587 -0.651004 0
M  V30 419 H 37.5114 -1.09102 -1.72965 0
M  V30 420 H 35.6664 0.167534 -3.87038 0
M  V30 421 H 36.0804 -1.77256 -4.9364 0
M  V30 422 H 37.5544 -0.164145 -5.51756 0
M  V30 423 H 38.0314 0.993831 -4.27808 0
M  V30 424 H 38.6374 -0.676492 -4.19885 0
M  V30 425 N 36.9525 1.47285 -0.560781 0
M  V30 426 C 38.1805 2.06855 -0.0430262 0
M  V30 427 C 38.5955 1.41291 1.25229 0
M  V30 428 O 37.9525 0.510648 1.7521 0
M  V30 429 C 38.0035 3.61178 0.152518 0
M  V30 430 O 37.7245 4.24285 -1.0915 0
M  V30 431 C 39.2255 4.37624 0.707145 0
M  V30 432 H 36.4455 0.669319 -0.0474652 0
M  V30 433 H 38.9895 1.89237 -0.77521 0
M  V30 434 H 37.1445 3.78298 0.834843 0
M  V30 435 H 37.5585 5.16868 -0.891482 0
M  V30 436 H 39.0325 5.46271 0.793244 0
M  V30 437 H 39.5095 4.04152 1.71923 0
M  V30 438 H 40.1155 4.25257 0.0604027 0
M  V30 439 N 38.4306 0.297415 1.54768 0
M  V30 440 C 39.6786 -0.312295 1.99673 0
M  V30 441 C 39.9996 -1.54686 1.18732 0
M  V30 442 O 39.2696 -1.93854 0.282382 0
M  V30 443 H 37.8496 -0.118381 0.73756 0
M  V30 444 H 40.5116 0.407915 1.90583 0
M  V30 445 H 39.6076 -0.586813 3.06534 0
M  V30 446 N 39.9087 -1.5758 0.0250728 0
M  V30 447 C 40.8387 -2.13007 -0.956575 0
M  V30 448 C 41.8197 -1.0452 -1.342 0
M  V30 449 O 43.0047 -1.32332 -1.42133 0
M  V30 450 C 40.1347 -2.65386 -2.24026 0
M  V30 451 C 39.0887 -3.78623 -1.99571 0
M  V30 452 C 38.4147 -4.17414 -3.3417 0
M  V30 453 C 39.7147 -5.04867 -1.33814 0
M  V30 454 H 41.4087 -2.9528 -0.494991 0
M  V30 455 H 38.9547 -1.42042 -0.236651 0
M  V30 456 H 40.9077 -3.02794 -2.93076 0
M  V30 457 H 39.6317 -1.80268 -2.72343 0
M  V30 458 H 38.2907 -3.41646 -1.32941 0
M  V30 459 H 37.9387 -3.29284 -3.80238 0
M  V30 460 H 37.6387 -4.93719 -3.18615 0
M  V30 461 H 39.1627 -4.57402 -4.04495 0
M  V30 462 H 40.5767 -5.39888 -1.92857 0
M  V30 463 H 38.9737 -5.86144 -1.28669 0
M  V30 464 H 40.0437 -4.83904 -0.310561 0
M  V30 465 N 41.3868 0.248026 -1.55636 0
M  V30 466 C 42.2968 1.32859 -1.93354 0
M  V30 467 C 43.3128 1.52719 -0.833838 0
M  V30 468 O 44.4888 1.66363 -1.13513 0
M  V30 469 C 41.5538 2.66337 -2.21958 0
M  V30 470 C 40.6148 2.55008 -3.45354 0
M  V30 471 C 39.8478 3.82121 -3.72584 0
M  V30 472 O 40.0708 4.83951 -3.01907 0
M  V30 473 O 39.0048 3.80822 -4.6611 0
M  V30 474 H 42.8308 1.03862 -2.85388 0
M  V30 475 H 40.4158 0.448686 -1.42503 0
M  V30 476 H 42.2978 3.45216 -2.4167 0
M  V30 477 H 40.9728 2.95068 -1.33103 0
M  V30 478 H 39.8798 1.7442 -3.30951 0
M  V30 479 H 41.2128 2.31222 -4.34508 0
M  V30 480 N 42.8649 1.48995 0.513639 0
M  V30 481 C 44.1129 1.57531 1.26604 0
M  V30 482 C 44.4339 0.258236 1.93283 0
M  V30 483 O 43.7039 -0.721502 1.8213 0
M  V30 484 H 42.2839 0.580387 0.470276 0
M  V30 485 H 44.9459 1.85552 0.596373 0
M  V30 486 H 44.0419 2.36486 2.03669 0
M  V30 487 N 44.343 -0.763751 1.37857 0
M  V30 488 C 45.59 -1.52257 1.33506 0
M  V30 489 C 45.918 -1.94343 -0.078022 0
M  V30 490 O 45.173 -1.64958 -1.05297 0
M  V30 491 C 45.472 -2.79499 2.22745 0
M  V30 492 C 45.138 -2.56426 3.70886 0
M  V30 493 C 43.8 -2.49842 4.11257 0
M  V30 494 C 46.152 -2.36008 4.64704 0
M  V30 495 C 43.48 -2.20841 5.43549 0
M  V30 496 C 45.832 -2.0853 5.97242 0
M  V30 497 C 44.496 -2.00396 6.36709 0
M  V30 498 H 43.766 -0.557149 0.488534 0
M  V30 499 H 46.413 -0.879073 1.70131 0
M  V30 500 H 44.718 -3.48447 1.79142 0
M  V30 501 H 46.415 -3.37413 2.16688 0
M  V30 502 H 43.005 -2.62416 3.38874 0
M  V30 503 H 47.189 -2.40079 4.34368 0
M  V30 504 H 42.445 -2.13045 5.73081 0
M  V30 505 H 46.619 -1.91732 6.69486 0
M  V30 506 H 44.246 -1.77688 7.39142 0
M  V30 507 N 45.8211 -1.22559 -0.990812 0
M  V30 508 C 47.2371 -0.985996 -1.255 0
M  V30 509 C 47.4371 0.319173 -1.98956 0
M  V30 510 O 46.4931 1.04127 -2.3003 0
M  V30 511 C 47.8061 -2.18607 -2.06474 0
M  V30 512 C 49.3541 -2.22985 -2.19651 0
M  V30 513 C 49.8291 -3.4255 -3.04012 0
M  V30 514 N 51.3201 -3.42725 -3.11599 0
M  V30 515 C 52.0551 -4.31892 -3.7717 0
M  V30 516 N 51.5511 -5.31279 -4.44651 0
M  V30 517 N 53.3441 -4.19662 -3.73952 0
M  V30 518 H 45.4951 -2.06469 -0.49841 0
M  V30 519 H 47.7581 -0.904853 -0.282747 0
M  V30 520 H 47.4641 -3.13267 -1.59865 0
M  V30 521 H 47.3381 -2.18838 -3.07229 0
M  V30 522 H 49.7251 -1.28871 -2.65474 0
M  V30 523 H 49.8061 -2.26791 -1.18319 0
M  V30 524 H 49.4501 -4.36965 -2.58889 0
M  V30 525 H 49.3801 -3.35984 -4.0549 0
M  V30 526 H 51.8711 -2.70807 -2.63575 0
M  V30 527 H 52.1841 -5.95593 -4.92431 0
M  V30 528 H 50.5291 -5.3519 -4.43392 0
M  V30 529 H 53.7201 -3.41268 -3.20396 0
M  V30 530 H 53.8931 -4.89358 -4.24774 0
M  V30 531 N 47.2992 1.18797 -1.03562 0
M  V30 532 C 48.2292 2.24472 -0.643019 0
M  V30 533 C 49.2102 1.66433 0.351283 0
M  V30 534 O 50.3952 1.92803 0.232505 0
M  V30 535 C 47.5252 3.473 4.24935e-05 0
M  V30 536 C 46.4792 4.18055 -0.917257 0
M  V30 537 C 45.8052 5.34519 -0.138941 0
M  V30 538 C 47.1052 4.72109 -2.23407 0
M  V30 539 H 48.7992 2.57566 -1.52643 0
M  V30 540 H 46.3452 1.23806 -0.735394 0
M  V30 541 H 48.2982 4.20426 0.286383 0
M  V30 542 H 47.0222 3.13424 0.918299 0
M  V30 543 H 45.6812 3.46821 -1.1879 0
M  V30 544 H 45.3292 4.96891 0.781562 0
M  V30 545 H 45.0292 5.82794 -0.750005 0
M  V30 546 H 46.5532 6.10438 0.1405 0
M  V30 547 H 47.9672 5.36955 -2.00879 0
M  V30 548 H 46.3642 5.30897 -2.79765 0
M  V30 549 H 47.4342 3.89807 -2.88407 0
M  V30 550 N 48.7773 0.814389 1.34928 0
M  V30 551 C 50.1933 0.499084 1.51596 0
M  V30 552 C 50.3933 -0.978319 1.76157 0
M  V30 553 O 49.4493 -1.76309 1.80752 0
M  V30 554 C 50.7623 1.35121 2.68631 0
M  V30 555 C 52.3103 1.34746 2.82511 0
M  V30 556 C 52.7853 2.18388 4.0258 0
M  V30 557 N 54.2763 2.15966 4.09772 0
M  V30 558 C 55.0113 2.77437 5.01813 0
M  V30 559 N 54.5073 3.47866 5.99134 0
M  V30 560 N 56.3003 2.67037 4.94619 0
M  V30 561 H 48.4513 1.7711 1.17243 0
M  V30 562 H 50.7143 0.754256 0.574284 0
M  V30 563 H 50.4203 2.40001 2.57085 0
M  V30 564 H 50.2943 1.00991 3.63429 0
M  V30 565 H 52.6813 0.30648 2.93504 0
M  V30 566 H 52.7623 1.72869 1.88547 0
M  V30 567 H 52.4063 3.2253 3.92347 0
M  V30 568 H 52.3363 1.77621 4.9574 0
M  V30 569 H 54.8273 1.64729 3.40107 0
M  V30 570 H 55.1403 3.92038 6.65977 0
M  V30 571 H 53.4853 3.51972 5.99284 0
M  V30 572 H 56.6763 2.11597 4.17546 0
M  V30 573 H 56.8493 3.15232 5.66156 0
M  V30 574 N 50.2554 -1.46986 0.568584 0
M  V30 575 C 51.4854 -2.0653 0.0539173 0
M  V30 576 C 51.8934 -1.42004 -1.25026 0
M  V30 577 O 51.2364 -0.514541 -1.76347 0
M  V30 578 C 51.2984 -3.58938 -0.200854 0
M  V30 579 C 50.9624 -4.45572 1.01559 0
M  V30 580 C 51.9594 -4.82986 1.92407 0
M  V30 581 C 49.6444 -4.8692 1.23346 0
M  V30 582 C 51.6384 -5.60559 3.03402 0
M  V30 583 C 49.3254 -5.64255 2.34649 0
M  V30 584 C 50.3234 -6.00986 3.24507 0
M  V30 585 O 50.0114 -6.76761 4.33878 0
M  V30 586 H 49.7434 -0.674292 0.0480234 0
M  V30 587 H 52.2974 -1.89812 0.784896 0
M  V30 588 H 50.5274 -3.73911 -0.986279 0
M  V30 589 H 52.2164 -4.0046 -0.662294 0
M  V30 590 H 52.9824 -4.51633 1.76785 0
M  V30 591 H 48.8614 -4.57789 0.543178 0
M  V30 592 H 52.4054 -5.89147 3.73565 0
M  V30 593 H 48.3024 -5.95021 2.5024 0
M  V30 594 H 49.0704 -6.95168 4.32068 0
M  V30 595 N 51.7335 -0.305618 -1.54608 0
M  V30 596 C 52.6655 0.602161 -2.21149 0
M  V30 597 C 53.6785 1.09394 -1.20569 0
M  V30 598 O 54.8675 1.0106 -1.47136 0
M  V30 599 C 51.9675 1.83692 -2.84799 0
M  V30 600 C 51.1405 1.48686 -4.11353 0
M  V30 601 C 50.1995 2.57725 -4.58764 0
M  V30 602 O 49.2255 2.22623 -5.23858 0
M  V30 603 N 50.4275 3.88346 -4.31471 0
M  V30 604 H 53.1925 0.0324966 -2.99682 0
M  V30 605 H 50.7535 -0.128021 -1.61393 0
M  V30 606 H 52.7455 2.55994 -3.13448 0
M  V30 607 H 51.3155 2.31486 -2.10078 0
M  V30 608 H 50.5355 0.596269 -3.89664 0
M  V30 609 H 51.8235 1.22842 -4.93748 0
M  V30 610 H 51.2215 4.19671 -3.79331 0
M  V30 611 H 49.7785 4.56932 -4.64818 0
M  V30 612 N 53.2116 1.57565 -0.0334293 0
M  V30 613 C 54.1746 2.09393 0.932048 0
M  V30 614 C 55.1746 1.00986 1.25134 0
M  V30 615 O 56.3646 1.27129 1.19096 0
M  V30 616 C 53.4966 2.56338 2.2473 0
M  V30 617 H 54.6896 2.95984 0.483085 0
M  V30 618 H 52.2426 1.54819 0.21468 0
M  V30 619 H 52.9776 1.7309 2.74245 0
M  V30 620 H 52.7626 3.35542 2.02865 0
M  V30 621 H 54.2526 2.96646 2.93923 0
M  V30 622 N 54.6897 -0.239769 1.55765 0
M  V30 623 C 55.6197 -1.30052 1.9393 0
M  V30 624 C 56.6007 -1.49839 0.805132 0
M  V30 625 O 57.7857 -1.62328 1.06599 0
M  V30 626 C 54.9157 -2.65391 2.2402 0
M  V30 627 C 53.8697 -2.60289 3.39755 0
M  V30 628 C 53.1957 -3.99489 3.55405 0
M  V30 629 C 54.4957 -2.16654 4.75246 0
M  V30 630 H 56.1897 -0.983573 2.82783 0
M  V30 631 H 53.7357 -0.471701 1.36055 0
M  V30 632 H 55.6887 -3.3974 2.49308 0
M  V30 633 H 54.4127 -2.98736 1.32 0
M  V30 634 H 53.0717 -1.88398 3.14487 0
M  V30 635 H 52.7197 -4.30112 2.60793 0
M  V30 636 H 52.4197 -3.96962 4.33238 0
M  V30 637 H 53.9437 -4.75528 3.83022 0
M  V30 638 H 55.3577 -2.80737 4.99859 0
M  V30 639 H 53.7547 -2.25223 5.56232 0
M  V30 640 H 54.8247 -1.11835 4.71827 0
M  V30 641 N 56.1678 -1.49265 -0.50573 0
M  V30 642 C 57.1308 -1.65075 -1.59006 0
M  V30 643 C 58.1308 -0.522768 -1.52065 0
M  V30 644 O 59.3208 -0.789117 -1.55302 0
M  V30 645 C 56.4528 -1.64369 -2.98656 0
M  V30 646 H 57.6458 -2.61784 -1.46319 0
M  V30 647 H 55.1988 -1.38226 -0.729616 0
M  V30 648 H 55.9338 -0.692272 -3.16825 0
M  V30 649 H 55.7188 -2.46282 -3.05103 0
M  V30 650 H 57.2088 -1.78674 -3.77446 0
M  V30 651 N 57.6459 0.756429 -1.3826 0
M  V30 652 C 58.8939 1.51248 -1.34047 0
M  V30 653 C 59.2149 1.94875 0.0698372 0
M  V30 654 O 58.4849 1.67436 1.01696 0
M  V30 655 H 57.0649 0.561018 -0.493222 0
M  V30 656 H 59.7269 0.899347 -1.7291 0
M  V30 657 H 58.8229 2.40472 -1.98947 0
M  V30 658 N 59.124 1.23083 0.984299 0
M  V30 659 C 60.054 1.03292 2.09411 0
M  V30 660 C 61.035 -0.048923 1.7003 0
M  V30 661 O 62.22 0.114967 1.93859 0
M  V30 662 C 59.35 0.619155 3.41736 0
M  V30 663 C 58.304 1.64791 3.95004 0
M  V30 664 C 57.63 1.0897 5.23478 0
M  V30 665 C 58.93 3.03999 4.24714 0
M  V30 666 H 60.624 1.96119 2.26225 0
M  V30 667 H 58.17 0.944344 1.08711 0
M  V30 668 H 60.123 0.467777 4.18796 0
M  V30 669 H 58.847 -0.344786 3.24775 0
M  V30 670 H 57.506 1.78721 3.20085 0
M  V30 671 H 57.154 0.11686 5.02864 0
M  V30 672 H 56.854 1.77704 5.60085 0
M  V30 673 H 58.378 0.950093 6.03163 0
M  V30 674 H 59.792 2.93393 4.92538 0
M  V30 675 H 58.189 3.69936 4.72512 0
M  V30 676 H 59.259 3.53285 3.32142 0
M  V30 677 N 60.6021 -1.18246 1.0419 0
M  V30 678 C 61.5651 -2.20128 0.638452 0
M  V30 679 C 62.5651 -1.57885 -0.304805 0
M  V30 680 O 63.7551 -1.73967 -0.0900369 0
M  V30 681 C 60.8871 -3.4084 -0.0637751 0
M  V30 682 H 62.0801 -2.57336 1.54007 0
M  V30 683 H 59.6331 -1.32152 0.834598 0
M  V30 684 H 60.3681 -3.09166 -0.979136 0
M  V30 685 H 60.1531 -3.8726 0.614198 0
M  V30 686 H 61.6431 -4.16274 -0.332512 0
M  V30 687 N 62.0802 -0.821533 -1.34494 0
M  V30 688 C 63.0102 -0.257138 -2.3208 0
M  V30 689 C 63.9912 0.625645 -1.58176 0
M  V30 690 O 65.1762 0.552811 -1.86166 0
M  V30 691 C 62.3062 0.582958 -3.42372 0
M  V30 692 C 61.2602 -0.202571 -4.2752 0
M  V30 693 C 60.5862 0.760179 -5.29269 0
M  V30 694 C 61.8862 -1.40998 -5.02908 0
M  V30 695 H 63.5802 -1.07247 -2.79532 0
M  V30 696 H 61.1262 -0.517163 -1.34393 0
M  V30 697 H 63.0792 0.987972 -4.09655 0
M  V30 698 H 61.8032 1.43133 -2.93565 0
M  V30 699 H 60.4622 -0.588936 -3.61838 0
M  V30 700 H 60.1102 1.60447 -4.76724 0
M  V30 701 H 59.8102 0.238809 -5.87115 0
M  V30 702 H 61.3342 1.16308 -5.9942 0
M  V30 703 H 62.7482 -1.07905 -5.63054 0
M  V30 704 H 61.1452 -1.86689 -5.70322 0
M  V30 705 H 62.2152 -2.1889 -4.32684 0
M  V30 706 N 63.5583 1.46682 -0.576371 0
M  V30 707 C 64.8063 2.02013 -0.0594163 0
M  V30 708 C 65.1273 1.45101 1.30271 0
M  V30 709 O 64.3973 0.633317 1.8538 0
M  V30 710 H 62.9773 0.746759 -0.0189745 0
M  V30 711 H 65.6393 1.79862 -0.750717 0
M  V30 712 H 64.7353 3.12097 0.014345 0
M  V30 713 N 65.0364 0.313813 1.54444 0
M  V30 714 C 65.9464 -0.565714 2.27677 0
M  V30 715 C 66.9624 -1.13754 1.31666 0
M  V30 716 O 68.1384 -1.15959 1.64668 0
M  V30 717 C 65.2034 -1.71528 3.01296 0
M  V30 718 C 64.2644 -1.17624 4.12872 0
M  V30 719 C 63.4974 -2.27102 4.8297 0
M  V30 720 O 63.7204 -3.47256 4.52514 0
M  V30 721 O 62.6544 -1.9307 5.70094 0
M  V30 722 H 66.4804 0.0287296 3.03686 0
M  V30 723 H 64.0654 0.0798312 1.49187 0
M  V30 724 H 65.9474 -2.38476 3.4743 0
M  V30 725 H 64.6224 -2.29608 2.2817 0
M  V30 726 H 63.5294 -0.472124 3.71109 0
M  V30 727 H 64.8624 -0.640695 4.88012 0
M  V30 728 N 66.5145 -1.57545 0.0417849 0
M  V30 729 C 67.7605 -1.92601 -0.635021 0
M  V30 730 C 68.0935 -0.919627 -1.71045 0
M  V30 731 O 67.3685 0.0557892 -1.9442 0
M  V30 732 C 67.6515 -3.38085 -1.23979 0
M  V30 733 C 67.5045 -4.49467 -0.173057 0
M  V30 734 C 68.8235 -3.83776 -2.15416 0
M  V30 735 H 65.9425 -0.700397 -0.229374 0
M  V30 736 H 68.5845 -1.89728 0.101633 0
M  V30 737 H 66.7345 -3.40664 -1.86762 0
M  V30 738 H 68.4065 -4.59018 0.458312 0
M  V30 739 H 66.6495 -4.30909 0.499996 0
M  V30 740 H 67.3205 -5.48323 -0.636054 0
M  V30 741 H 69.7965 -3.83013 -1.62605 0
M  V30 742 H 68.6725 -4.8624 -2.54679 0
M  V30 743 H 68.9335 -3.19998 -3.05047 0
M  V30 744 N 67.9926 0.231505 -1.5589 0
M  V30 745 C 69.2696 0.981096 -1.69215 0
M  V30 746 C 69.6496 2.02799 -0.586164 0
M  V30 747 O 68.9976 2.24823 0.408253 0
M  V30 748 C 69.2076 1.60054 -3.10135 0
M  V30 749 C 70.5556 2.09658 -3.69227 0
M  V30 750 O 71.5796 1.69967 -3.13033 0
M  V30 751 O 70.4386 2.8258 -4.67772 0
M  V30 752 H 67.5326 0.457653 -0.688827 0
M  V30 753 H 70.0786 0.224073 -1.68214 0
M  V30 754 H 68.8506 0.844105 -3.82087 0
M  V30 755 H 68.4736 2.42336 -3.15212 0
M  V30 756 N 69.4707 1.49531 0.497807 0
M  V30 757 C 70.4007 1.6935 1.60757 0
M  V30 758 C 71.3817 0.542218 1.61227 0
M  V30 759 O 72.5667 0.778417 1.77917 0
M  V30 760 C 69.6967 1.76298 2.99226 0
M  V30 761 C 68.6507 2.91248 3.13622 0
M  V30 762 C 67.9767 2.83312 4.53474 0
M  V30 763 C 69.2767 4.3214 2.93346 0
M  V30 764 H 70.9707 2.62263 1.44425 0
M  V30 765 H 68.5167 1.26208 0.693367 0
M  V30 766 H 70.4697 1.88749 3.76765 0
M  V30 767 H 69.1937 0.799871 3.16654 0
M  V30 768 H 67.8527 2.78404 2.38509 0
M  V30 769 H 67.5007 1.84902 4.67782 0
M  V30 770 H 67.2007 3.60465 4.64046 0
M  V30 771 H 68.7247 2.97775 5.33069 0
M  V30 772 H 70.1387 4.45649 3.60652 0
M  V30 773 H 68.5357 5.1054 3.15387 0
M  V30 774 H 69.6057 4.46363 1.89441 0
M  V30 775 N 70.9488 -0.749086 1.3866 0
M  V30 776 C 72.1768 -1.53834 1.38358 0
M  V30 777 C 72.5918 -1.88783 -0.0255219 0
M  V30 778 O 71.9488 -1.53101 -0.993292 0
M  V30 779 C 71.9998 -2.83468 2.2434 0
M  V30 780 O 71.7208 -2.50008 3.5976 0
M  V30 781 C 73.2218 -3.7758 2.32267 0
M  V30 782 H 70.4418 -0.47585 0.473083 0
M  V30 783 H 72.9858 -0.926726 1.82297 0
M  V30 784 H 71.1408 -3.40995 1.83851 0
M  V30 785 H 71.5548 -3.33182 4.05081 0
M  V30 786 H 73.0288 -4.65478 2.96706 0
M  V30 787 H 73.5058 -4.18334 1.33765 0
M  V30 788 H 74.1118 -3.25976 2.73166 0
M  V30 789 N 72.4269 -1.23603 -0.977757 0
M  V30 790 C 73.6549 -1.09646 -1.75458 0
M  V30 791 C 74.0699 0.351859 -1.85492 0
M  V30 792 O 73.4269 1.24327 -1.336 0
M  V30 793 C 73.4779 -1.71895 -3.18016 0
M  V30 794 O 73.1989 -3.11063 -3.08498 0
M  V30 795 C 74.6999 -1.63415 -4.12081 0
M  V30 796 H 71.9199 -0.38359 -0.550545 0
M  V30 797 H 74.4639 -1.63507 -1.22824 0
M  V30 798 H 72.6189 -1.22061 -3.67668 0
M  V30 799 H 73.0329 -3.41305 -3.9826 0
M  V30 800 H 74.5069 -2.11669 -5.09804 0
M  V30 801 H 74.9839 -0.593462 -4.35172 0
M  V30 802 H 75.5899 -2.12628 -3.68334 0
M  V30 803 N 73.905 1.17692 -1.04816 0
M  V30 804 C 75.316 1.69501 -0.782698 0
M  V30 805 C 75.667 1.83456 0.695577 0
M  V30 806 O 74.792 1.51942 1.54086 0
M  V30 807 C 75.387 3.07874 -1.41419 0
M  V30 808 C 73.946 3.56864 -1.19686 0
M  V30 809 C 73.093 2.3322 -1.50012 0
M  V30 810 H 76.044 1.02262 -1.2136 0
M  V30 811 H 76.065 3.71528 -0.821428 0
M  V30 812 H 75.577 2.97685 -2.49009 0
M  V30 813 H 73.678 3.72337 -0.140043 0
M  V30 814 H 73.791 4.39851 -1.89916 0
M  V30 815 H 72.155 2.37501 -0.920071 0
M  V30 816 H 72.938 2.25644 -2.58727 0
M  V30 817 N 75.3831 0.828654 1.34056 0
M  V30 818 C 76.6301 0.419458 1.98108 0
M  V30 819 C 76.9581 -1.01886 1.65679 0
M  V30 820 O 76.2131 -1.72539 0.923512 0
M  V30 821 C 76.5121 0.575226 3.52741 0
M  V30 822 C 76.1781 1.98012 4.05095 0
M  V30 823 C 74.8401 2.36442 4.19104 0
M  V30 824 C 77.1921 2.89824 4.33188 0
M  V30 825 C 74.5201 3.66009 4.58535 0
M  V30 826 C 76.8721 4.1886 4.74066 0
M  V30 827 C 75.5361 4.5726 4.86281 0
M  V30 828 H 74.8061 0.153491 0.724929 0
M  V30 829 H 77.4531 1.05371 1.59904 0
M  V30 830 H 75.7581 -0.142385 3.91541 0
M  V30 831 H 77.4551 0.239057 4.00287 0
M  V30 832 H 74.0451 1.67162 3.94658 0
M  V30 833 H 78.2291 2.61375 4.21897 0
M  V30 834 H 73.4851 3.95579 4.66184 0
M  V30 835 H 77.6591 4.90086 4.94761 0
M  V30 836 H 75.2861 5.57707 5.16592 0
M  V30 837 N 76.8612 -1.46375 0.584142 0
M  V30 838 C 77.7912 -2.33103 -0.136037 0
M  V30 839 C 78.7722 -1.45431 -0.882255 0
M  V30 840 O 79.9572 -1.74246 -0.857434 0
M  V30 841 C 77.0872 -3.27731 -1.14933 0
M  V30 842 C 76.0412 -4.24855 -0.517862 0
M  V30 843 C 75.3672 -5.09001 -1.63773 0
M  V30 844 C 76.6672 -5.19439 0.545886 0
M  V30 845 H 78.3612 -2.93568 0.588086 0
M  V30 846 H 75.9072 -1.41166 0.284259 0
M  V30 847 H 77.8602 -3.87261 -1.66153 0
M  V30 848 H 76.5842 -2.65377 -1.90375 0
M  V30 849 H 75.2432 -3.6659 -0.0267361 0
M  V30 850 H 74.8912 -4.43031 -2.38185 0
M  V30 851 H 74.5912 -5.74777 -1.22085 0
M  V30 852 H 76.1152 -5.71396 -2.15266 0
M  V30 853 H 77.5292 -5.73177 0.118704 0
M  V30 854 H 75.9262 -5.93566 0.88317 0
M  V30 855 H 76.9962 -4.63285 1.43162 0
M  V30 856 N 78.3393 -0.321999 -1.54275 0
M  V30 857 C 79.5873 0.280489 -2.00144 0
M  V30 858 C 79.9083 1.52777 -1.21178 0
M  V30 859 O 79.1783 1.9338 -0.313187 0
M  V30 860 H 77.7583 0.106632 -0.73935 0
M  V30 861 H 80.4203 -0.438184 -1.8991 0
M  V30 862 H 79.5163 0.537972 -3.07428 0
M  V30 863 N 79.8174 1.5752 -0.0501392 0
M  V30 864 C 80.7644 2.1147 0.924603 0
M  V30 865 C 81.7344 1.02182 1.30951 0
M  V30 866 O 82.9194 1.29723 1.39916 0
M  V30 867 C 80.0594 2.66337 2.19451 0
M  V30 868 C 79.1724 3.89708 1.86418 0
M  V30 869 C 78.3074 4.32893 3.07859 0
M  V30 870 C 77.3464 5.48967 2.70742 0
M  V30 871 N 76.4834 5.87211 3.84874 0
M  V30 872 H 81.3234 2.94465 0.457639 0
M  V30 873 H 78.8604 1.45531 0.214266 0
M  V30 874 H 80.8184 2.96247 2.93758 0
M  V30 875 H 79.4484 1.86141 2.63726 0
M  V30 876 H 78.5004 3.66396 1.02264 0
M  V30 877 H 79.8124 4.74074 1.55096 0
M  V30 878 H 78.9664 4.6435 3.90466 0
M  V30 879 H 77.7054 3.47336 3.42358 0
M  V30 880 H 76.7104 5.17183 1.86551 0
M  V30 881 H 77.9354 6.3624 2.37436 0
M  V30 882 H 75.8814 5.04607 4.19175 0
M  V30 883 H 75.7984 6.66266 3.57247 0
M  V30 884 H 77.0664 6.23282 4.68123 0
M  V30 885 N 81.2955 -0.223234 1.56011 0
M  V30 886 C 82.5235 -0.964812 1.83027 0
M  V30 887 C 82.9385 -1.78013 0.62904 0
M  V30 888 O 82.2955 -1.78008 -0.402414 0
M  V30 889 C 82.3465 -1.88373 3.08542 0
M  V30 890 O 82.0675 -1.10137 4.2403 0
M  V30 891 C 83.5685 -2.73934 3.48533 0
M  V30 892 H 80.7885 -0.282842 0.608475 0
M  V30 893 H 83.3325 -0.238971 2.03099 0
M  V30 894 H 81.4875 -2.56354 2.9045 0
M  V30 895 H 81.9015 -1.72501 4.95322 0
M  V30 896 H 83.3755 -3.34117 4.39397 0
M  V30 897 H 83.8525 -3.46244 2.70207 0
M  V30 898 H 84.4585 -2.11369 3.69057 0
M  V30 899 N 82.7736 -1.49793 -0.48987 0
M  V30 900 C 83.7036 -1.70201 -1.59856 0
M  V30 901 C 84.6846 -0.55076 -1.60937 0
M  V30 902 O 85.8696 -0.787841 -1.77501 0
M  V30 903 C 82.9996 -1.77882 -2.98287 0
M  V30 904 C 81.9536 -2.92907 -3.12073 0
M  V30 905 C 81.2796 -2.85712 -4.51965 0
M  V30 906 C 82.5796 -4.3369 -2.91051 0
M  V30 907 H 84.2736 -2.63025 -1.43032 0
M  V30 908 H 81.8196 -1.26574 -0.686664 0
M  V30 909 H 83.7726 -1.90744 -3.75759 0
M  V30 910 H 82.4966 -0.816653 -3.16225 0
M  V30 911 H 81.1556 -2.79665 -2.37029 0
M  V30 912 H 80.8036 -1.8738 -4.66795 0
M  V30 913 H 80.5036 -3.62921 -4.62128 0
M  V30 914 H 82.0276 -3.00598 -5.31482 0
M  V30 915 H 83.4416 -4.47555 -3.58284 0
M  V30 916 H 81.8386 -5.12205 -3.12675 0
M  V30 917 H 82.9086 -4.47362 -1.87071 0
M  V30 918 N 84.2517 0.741722 -1.39055 0
M  V30 919 C 85.1987 1.85566 -1.37237 0
M  V30 920 C 86.1687 1.64457 -0.233072 0
M  V30 921 O 87.3537 1.85957 -0.427147 0
M  V30 922 C 84.4937 3.23004 -1.215 0
M  V30 923 C 83.6067 3.55864 -2.44918 0
M  V30 924 C 82.7417 4.82669 -2.21821 0
M  V30 925 C 81.7807 5.08351 -3.40948 0
M  V30 926 N 80.9177 6.26356 -3.17211 0
M  V30 927 H 85.7577 1.86455 -2.32462 0
M  V30 928 H 83.2947 0.911176 -1.15482 0
M  V30 929 H 85.2527 4.02331 -1.10389 0
M  V30 930 H 83.8827 3.21411 -0.29908 0
M  V30 931 H 82.9347 2.7129 -2.66657 0
M  V30 932 H 84.2467 3.70765 -3.33668 0
M  V30 933 H 83.4007 5.69962 -2.07914 0
M  V30 934 H 82.1397 4.69929 -1.30454 0
M  V30 935 H 81.1447 4.19522 -3.55361 0
M  V30 936 H 82.3697 5.22981 -4.33207 0
M  V30 937 H 80.3157 6.14917 -2.28502 0
M  V30 938 H 80.2327 6.41813 -3.99515 0
M  V30 939 H 81.5007 7.16506 -3.06984 0
M  V30 940 N 85.7298 1.2412 0.971189 0
M  V30 941 C 86.6928 1.03156 2.04674 0
M  V30 942 C 87.6928 -0.00990322 1.60797 0
M  V30 943 O 88.8828 0.230729 1.72665 0
M  V30 944 C 86.0148 0.562765 3.36223 0
M  V30 945 H 87.2078 1.98614 2.24705 0
M  V30 946 H 84.7608 1.06293 1.14593 0
M  V30 947 H 85.4958 -0.395176 3.21883 0
M  V30 948 H 85.2808 1.31441 3.69413 0
M  V30 949 H 86.7708 0.437015 4.15307 0
M  V30 950 N 87.2079 -1.17134 1.05439 0
M  V30 951 C 88.6189 -1.69084 0.791676 0
M  V30 952 C 88.9699 -1.83822 -0.685839 0
M  V30 953 O 88.0949 -1.52757 -1.53278 0
M  V30 954 C 88.6899 -3.07119 1.4305 0
M  V30 955 C 87.2489 -3.56225 1.21577 0
M  V30 956 C 86.3959 -2.32421 1.51247 0
M  V30 957 H 89.3469 -1.01617 1.219 0
M  V30 958 H 89.3679 -3.71087 0.84112 0
M  V30 959 H 88.8799 -2.9636 2.50584 0
M  V30 960 H 86.9809 -3.72257 0.159787 0
M  V30 961 H 87.0939 -4.38837 1.92246 0
M  V30 962 H 85.4579 -2.3701 0.932653 0
M  V30 963 H 86.2409 -2.24268 2.5992 0
M  V30 964 N 88.686 -0.835752 -1.33615 0
M  V30 965 C 89.933 -0.429959 -1.97883 0
M  V30 966 C 90.261 1.01006 -1.66217 0
M  V30 967 O 89.516 1.72047 -0.93265 0
M  V30 968 C 89.815 -0.593925 -3.52431 0
M  V30 969 C 89.481 -2.00158 -4.04039 0
M  V30 970 C 88.143 -2.38662 -4.17844 0
M  V30 971 C 90.495 -2.92117 -4.31644 0
M  V30 972 C 87.823 -3.68435 -4.56588 0
M  V30 973 C 90.175 -4.21368 -4.71838 0
M  V30 974 C 88.839 -4.59833 -4.83849 0
M  V30 975 H 88.109 -0.157333 -0.724104 0
M  V30 976 H 90.756 -1.06217 -1.59343 0
M  V30 977 H 89.061 0.121619 -3.91611 0
M  V30 978 H 90.758 -0.260282 -4.00154 0
M  V30 979 H 87.348 -1.69252 -3.93766 0
M  V30 980 H 91.532 -2.63608 -4.20505 0
M  V30 981 H 86.788 -3.98046 -4.64079 0
M  V30 982 H 90.962 -4.92703 -4.92155 0
M  V30 983 H 88.589 -5.60438 -5.13627 0
M  V30 984 N 90.1641 1.46063 -0.591896 0
M  V30 985 C 91.0941 2.33172 0.123673 0
M  V30 986 C 92.0751 1.45897 0.87453 0
M  V30 987 O 93.2601 1.74698 0.848181 0
M  V30 988 C 90.3901 3.28336 1.13194 0
M  V30 989 C 89.3441 4.25124 0.495324 0
M  V30 990 C 88.6701 5.09863 1.61071 0
M  V30 991 C 89.9701 5.19143 -0.573425 0
M  V30 992 H 91.6641 2.93252 -0.603646 0
M  V30 993 H 89.2101 1.41014 -0.291741 0
M  V30 994 H 91.1631 3.88137 1.64097 0
M  V30 995 H 89.8871 2.66383 1.88965 0
M  V30 996 H 88.5461 3.66599 0.00729452 0
M  V30 997 H 88.1941 4.44288 2.35832 0
M  V30 998 H 87.8941 5.75417 1.19035 0
M  V30 999 H 89.4181 5.72529 2.12233 0
M  V30 1000 H 90.8321 5.73106 -0.1491 0
M  V30 1001 H 89.2291 5.93089 -0.914636 0
M  V30 1002 H 90.2991 4.62519 -1.45617 0
M  V30 1003 N 91.6422 0.330177 1.54103 0
M  V30 1004 C 92.8912 -0.271336 1.99867 0
M  V30 1005 C 93.2042 -1.52723 1.22209 0
M  V30 1006 O 94.4102 -2.20515 1.58383 0
M  V30 1007 C 92.8662 -0.534032 3.55916 0
M  V30 1008 C 92.4742 0.705193 4.42415 0
M  V30 1009 C 94.2182 -1.09514 4.1013 0
M  V30 1010 C 92.1252 0.414035 5.89949 0
M  V30 1011 H 91.0552 -0.105166 0.74663 0
M  V30 1012 H 93.7062 0.443429 1.78062 0
M  V30 1013 H 92.0882 -1.30915 3.73734 0
M  V30 1014 H 93.2622 1.4804 4.36372 0
M  V30 1015 H 91.5772 1.18698 3.99124 0
M  V30 1016 H 94.1742 -1.3277 5.17954 0
M  V30 1017 H 94.5172 -2.04656 3.62521 0
M  V30 1018 H 95.0502 -0.381038 3.95971 0
M  V30 1019 H 91.7892 1.33481 6.41766 0
M  V30 1020 H 91.3092 -0.323336 5.98928 0
M  V30 1021 H 92.9882 0.0263105 6.46995 0
M  V30 1022 N 93.1203 -1.57491 0.0584922 0
M  V30 1023 C 94.3683 -1.92597 -0.612436 0
M  V30 1024 C 94.6893 -0.938162 -1.70949 0
M  V30 1025 O 93.9593 0.0158301 -1.95894 0
M  V30 1026 H 92.5393 -0.710964 -0.229214 0
M  V30 1027 H 95.2013 -1.94571 0.113218 0
M  V30 1028 H 94.2973 -2.94038 -1.04633 0
M  V30 1029 N 94.5984 0.214957 -1.56127 0
M  V30 1030 C 95.5614 1.24997 -1.92116 0
M  V30 1031 C 96.5614 1.39467 -0.800344 0
M  V30 1032 O 97.7514 1.37619 -1.06802 0
M  V30 1033 C 94.8834 2.62271 -2.17777 0
M  V30 1034 H 96.0764 0.942875 -2.84693 0
M  V30 1035 H 93.6294 0.455654 -1.49511 0
M  V30 1036 H 94.3644 2.98068 -1.27773 0
M  V30 1037 H 94.1494 2.53143 -2.99434 0
M  V30 1038 H 95.6394 3.36946 -2.46693 0
M  V30 1039 N 96.0765 1.50051 0.48192 0
M  V30 1040 C 97.0095 1.62749 1.59963 0
M  V30 1041 C 97.9875 0.475903 1.5548 0
M  V30 1042 O 99.1715 0.693986 1.7526 0
M  V30 1043 C 96.2985 1.60008 2.98522 0
M  V30 1044 C 95.3445 2.80596 3.21198 0
M  V30 1045 S 96.1775 4.42038 3.02262 0
M  V30 1046 C 97.3335 4.41973 4.43182 0
M  V30 1047 H 97.5665 2.57296 1.4895 0
M  V30 1048 H 95.0995 1.39179 0.668477 0
M  V30 1049 H 97.0575 1.59112 3.78409 0
M  V30 1050 H 95.7185 0.667153 3.06933 0
M  V30 1051 H 94.9115 2.74952 4.22395 0
M  V30 1052 H 94.5135 2.79003 2.49065 0
M  V30 1053 H 96.8055 4.14868 5.35622 0
M  V30 1054 H 97.7485 5.43512 4.53873 0
M  V30 1055 H 98.1565 3.71812 4.24755 0
M  V30 1056 N 97.5546 -0.734337 1.39446 0
M  V30 1057 C 98.7826 -1.52358 1.39981 0
M  V30 1058 C 99.1976 -1.88799 -0.0054975 0
M  V30 1059 O 98.5546 -1.54146 -0.976998 0
M  V30 1060 C 98.6056 -2.81072 2.27333 0
M  V30 1061 O 98.3266 -2.46178 3.62392 0
M  V30 1062 C 99.8276 -3.75096 2.36259 0
M  V30 1063 H 97.0476 -0.470806 0.478103 0
M  V30 1064 H 99.5916 -0.907339 1.83269 0
M  V30 1065 H 97.7466 -3.39026 1.87457 0
M  V30 1066 H 98.1606 -3.28866 4.08592 0
M  V30 1067 H 99.6346 -4.62305 3.01626 0
M  V30 1068 H 100.112 -4.16892 1.38194 0
M  V30 1069 H 100.718 -3.23061 2.76608 0
M  V30 1070 N 99.0327 -1.24633 -0.964593 0
M  V30 1071 C 100.281 -1.08573 -1.70459 0
M  V30 1072 C 100.602 0.375655 -1.91347 0
M  V30 1073 O 99.8717 1.26779 -1.49345 0
M  V30 1074 H 98.4517 -0.398784 -0.631649 0
M  V30 1075 H 101.114 -1.56601 -1.16026 0
M  V30 1076 H 100.21 -1.58623 -2.68785 0
M  V30 1077 N 100.511 1.16574 -1.06058 0
M  V30 1078 C 101.759 1.86677 -0.77434 0
M  V30 1079 C 102.08 1.81959 0.701147 0
M  V30 1080 O 101.35 1.2515 1.50713 0
M  V30 1081 H 99.9298 0.691134 -0.283449 0
M  V30 1082 H 102.592 1.41378 -1.34158 0
M  V30 1083 H 101.688 2.92181 -1.09711 0
M  V30 1084 N 101.989 0.842826 1.3317 0
M  V30 1085 C 102.899 0.281444 2.32906 0
M  V30 1086 C 103.915 -0.594587 1.63526 0
M  V30 1087 O 105.091 -0.49777 1.95152 0
M  V30 1088 C 102.156 -0.530929 3.42611 0
M  V30 1089 C 101.217 0.369843 4.27704 0
M  V30 1090 C 100.45 -0.403853 5.3217 0
M  V30 1091 O 100.673 -1.63513 5.46461 0
M  V30 1092 O 99.6069 0.224199 6.01482 0
M  V30 1093 H 103.433 1.10744 2.82789 0
M  V30 1094 H 101.018 0.60545 1.36582 0
M  V30 1095 H 102.9 -0.992437 4.09547 0
M  V30 1096 H 101.575 -1.33392 2.94938 0
M  V30 1097 H 100.482 0.879275 3.6362 0
M  V30 1098 H 101.815 1.13771 4.78871 0
M  V30 1099 N 103.467 -1.45747 0.599634 0
M  V30 1100 C 104.377 -2.34262 -0.125888 0
M  V30 1101 C 105.393 -1.50768 -0.868625 0
M  V30 1102 O 106.569 -1.83592 -0.828003 0
M  V30 1103 C 103.634 -3.28252 -1.11587 0
M  V30 1104 C 102.695 -4.27651 -0.375956 0
M  V30 1105 C 101.928 -5.1715 -1.31877 0
M  V30 1106 O 102.151 -5.09916 -2.55621 0
M  V30 1107 O 101.085 -5.96286 -0.820157 0
M  V30 1108 H 104.911 -2.97688 0.601315 0
M  V30 1109 H 102.496 -1.44999 0.359934 0
M  V30 1110 H 104.378 -3.86191 -1.68626 0
M  V30 1111 H 103.053 -2.67401 -1.82424 0
M  V30 1112 H 101.96 -3.7335 0.236698 0
M  V30 1113 H 103.293 -4.91334 0.29177 0
M  V30 1114 N 104.945 -0.338344 -1.53925 0
M  V30 1115 C 105.893 0.536231 -2.26335 0
M  V30 1116 C 106.887 1.1063 -1.28286 0
M  V30 1117 O 108.093 1.05264 -1.46012 0
M  V30 1118 H 104.468 0.191602 -0.727181 0
M  V30 1119 H 106.439 -0.0965747 -2.98244 0
M  V30 1120 C 105.188 1.67803 -3.04528 0
M  V30 1121 H 104.511 1.24864 -3.79801 0
M  V30 1122 H 105.951 2.26526 -3.58416 0
M  V30 1123 C 104.41 2.60439 -2.13712 0
M  V30 1124 O 104.94 3.6255 -1.72975 0
M  V30 1125 N 103.146 2.29006 -1.78898 0
M  V30 1126 H 102.693 1.46011 -2.12223 0
M  V30 1127 H 102.651 2.91248 -1.18416 0
M  V30 1128 N 106.423 1.57458 -0.0668435 0
M  V30 1129 C 107.671 1.92919 0.602214 0
M  V30 1130 C 107.992 0.947215 1.70449 0
M  V30 1131 O 107.262 -0.00544117 1.95899 0
M  V30 1132 H 105.842 0.71217 0.22544 0
M  V30 1133 H 108.504 1.94508 -0.123535 0
M  V30 1134 H 107.6 2.94589 1.03073 0
M  V30 1135 N 107.901 -0.206675 1.56239 0
M  V30 1136 C 108.811 -1.27686 1.96808 0
M  V30 1137 C 109.827 -1.50455 0.874035 0
M  V30 1138 O 111.003 -1.63295 1.17884 0
M  V30 1139 C 108.068 -2.60358 2.28942 0
M  V30 1140 C 107.129 -2.45762 3.51994 0
M  V30 1141 C 106.362 -3.72108 3.82585 0
M  V30 1142 O 106.585 -4.75776 3.14631 0
M  V30 1143 O 105.519 -3.6833 4.76043 0
M  V30 1144 H 109.345 -0.962593 2.88041 0
M  V30 1145 H 106.93 -0.410746 1.43643 0
M  V30 1146 H 108.812 -3.38687 2.50737 0
M  V30 1147 H 107.487 -2.91435 1.4088 0
M  V30 1148 H 106.394 -1.65584 3.35459 0
M  V30 1149 H 107.727 -2.19621 4.40486 0
M  V30 1150 N 109.379 -1.50304 -0.473955 0
M  V30 1151 C 110.795 -1.37667 -0.807466 0
M  V30 1152 C 110.995 -0.430555 -1.96846 0
M  V30 1153 O 110.051 0.127874 -2.52176 0
M  V30 1154 C 111.364 -2.78974 -1.12223 0
M  V30 1155 C 112.912 -2.87868 -1.22885 0
M  V30 1156 C 113.387 -4.30003 -1.57676 0
M  V30 1157 N 114.878 -4.3294 -1.64673 0
M  V30 1158 C 115.613 -5.3991 -1.93091 0
M  V30 1159 N 115.109 -6.57092 -2.1955 0
M  V30 1160 N 116.902 -5.27351 -1.94569 0
M  V30 1161 H 109.053 -2.10394 0.291212 0
M  V30 1162 H 111.316 -0.945575 0.0677609 0
M  V30 1163 H 111.022 -3.50031 -0.342229 0
M  V30 1164 H 110.896 -3.16038 -2.05913 0
M  V30 1165 H 113.283 -2.17032 -1.99953 0
M  V30 1166 H 113.364 -2.54352 -0.271814 0
M  V30 1167 H 113.008 -5.01375 -0.81149 0
M  V30 1168 H 112.938 -4.61004 -2.54525 0
M  V30 1169 H 115.429 -3.48441 -1.46277 0
M  V30 1170 H 115.742 -7.34425 -2.405 0
M  V30 1171 H 114.087 -6.60272 -2.16948 0
M  V30 1172 H 117.278 -4.34801 -1.73394 0
M  V30 1173 H 117.451 -6.10805 -2.16381 0
M  V30 1174 N 110.857 0.726932 -1.39834 0
M  V30 1175 C 112.106 1.48214 -1.36805 0
M  V30 1176 C 112.419 1.95576 0.0305291 0
M  V30 1177 O 113.625 2.7088 0.183417 0
M  V30 1178 C 112.081 2.67854 -2.40379 0
M  V30 1179 C 111.689 2.27408 -3.85992 0
M  V30 1180 C 113.433 3.45641 -2.46439 0
M  V30 1181 C 111.34 3.43819 -4.81189 0
M  V30 1182 H 110.27 0.556606 -0.508631 0
M  V30 1183 H 112.921 0.792216 -1.65518 0
M  V30 1184 H 111.303 3.3896 -2.04749 0
M  V30 1185 H 112.477 1.63795 -4.30706 0
M  V30 1186 H 110.792 1.62692 -3.83302 0
M  V30 1187 H 113.389 4.32244 -3.14753 0
M  V30 1188 H 113.732 3.88669 -1.49139 0
M  V30 1189 H 114.265 2.8157 -2.81004 0
M  V30 1190 H 111.004 3.05834 -5.79781 0
M  V30 1191 H 110.524 4.06385 -4.41148 0
M  V30 1192 H 112.203 4.10043 -5.00474 0
M  V30 1193 N 112.336 1.25143 0.95797 0
M  V30 1194 C 113.284 1.05019 2.07542 0
M  V30 1195 C 114.278 -0.0178751 1.69391 0
M  V30 1196 O 115.484 0.137472 1.79474 0
M  V30 1197 H 111.859 0.32265 0.679265 0
M  V30 1198 H 113.83 1.99759 2.21673 0
M  V30 1199 C 112.579 0.682074 3.40944 0
M  V30 1200 H 111.902 1.49573 3.70767 0
M  V30 1201 H 113.342 0.580945 4.20001 0
M  V30 1202 C 111.801 -0.611608 3.31302 0
M  V30 1203 O 112.331 -1.65465 3.66038 0
M  V30 1204 N 110.537 -0.595982 2.84423 0
M  V30 1205 H 110.084 0.253192 2.56353 0
M  V30 1206 H 110.042 -1.46173 2.78354 0
M  V30 1207 N 113.814 -1.1601 1.06675 0
M  V30 1208 C 114.744 -2.22688 0.702307 0
M  V30 1209 C 115.725 -1.67306 -0.307032 0
M  V30 1210 O 116.91 -1.93352 -0.181305 0
M  V30 1211 C 114.04 -3.47178 0.092038 0
M  V30 1212 C 112.994 -4.15477 1.02777 0
M  V30 1213 C 112.32 -5.33963 0.28061 0
M  V30 1214 C 113.62 -4.66019 2.35846 0
M  V30 1215 H 115.314 -2.53429 1.59419 0
M  V30 1216 H 112.86 -1.21813 0.767961 0
M  V30 1217 H 114.813 -4.21037 -0.174814 0
M  V30 1218 H 113.537 -3.15749 -0.834877 0
M  V30 1219 H 112.196 -3.43549 1.27944 0
M  V30 1220 H 111.844 -4.98788 -0.649545 0
M  V30 1221 H 111.544 -5.806 0.904258 0
M  V30 1222 H 113.068 -6.10596 0.021396 0
M  V30 1223 H 114.482 -5.3144 2.15045 0
M  V30 1224 H 112.879 -5.23293 2.93743 0
M  V30 1225 H 113.949 -3.82023 2.98641 0
M  V30 1226 N 115.292 -0.849877 -1.32721 0
M  V30 1227 C 116.255 -0.296122 -2.27279 0
M  V30 1228 C 117.255 0.541458 -1.5141 0
M  V30 1229 O 118.445 0.353658 -1.70572 0
M  V30 1230 C 115.577 0.581579 -3.35902 0
M  V30 1231 H 116.77 -1.13064 -2.77771 0
M  V30 1232 H 114.323 -0.62383 -1.43311 0
M  V30 1233 H 115.058 1.43809 -2.9067 0
M  V30 1234 H 114.843 -0.0178814 -3.92096 0
M  V30 1235 H 116.333 0.961951 -4.0637 0
M  V30 1236 N 116.77 1.45427 -0.607355 0
M  V30 1237 C 117.7 2.3329 0.0989352 0
M  V30 1238 C 118.681 1.46816 0.859007 0
M  V30 1239 O 119.866 1.75588 0.829604 0
M  V30 1240 C 116.996 3.29518 1.09705 0
M  V30 1241 C 115.95 4.25626 0.450206 0
M  V30 1242 C 115.276 5.11542 1.55655 0
M  V30 1243 C 116.576 5.18505 -0.628455 0
M  V30 1244 H 118.27 2.92595 -0.634716 0
M  V30 1245 H 115.816 1.40696 -0.306681 0
M  V30 1246 H 117.769 3.89855 1.59971 0
M  V30 1247 H 116.493 2.68372 1.86129 0
M  V30 1248 H 115.152 3.66586 -0.0315886 0
M  V30 1249 H 114.8 4.46765 2.31107 0
M  V30 1250 H 114.5 5.76647 1.12925 0
M  V30 1251 H 116.024 5.74748 2.06148 0
M  V30 1252 H 117.438 5.72916 -0.209877 0
M  V30 1253 H 115.835 5.92085 -0.977489 0
M  V30 1254 H 116.905 4.60948 -1.50514 0
M  V30 1255 N 118.248 0.346503 1.53744 0
M  V30 1256 C 119.211 -0.496439 2.23759 0
M  V30 1257 C 120.211 -1.0252 1.2388 0
M  V30 1258 O 121.401 -0.913974 1.48297 0
M  V30 1259 C 118.533 -1.69187 2.95954 0
M  V30 1260 H 119.726 0.115952 2.99676 0
M  V30 1261 H 117.279 0.0978939 1.55993 0
M  V30 1262 H 118.014 -2.34288 2.24231 0
M  V30 1263 H 117.799 -1.31989 3.69217 0
M  V30 1264 H 119.289 -2.28969 3.49232 0
M  V30 1265 N 119.726 -1.57421 0.075193 0
M  V30 1266 C 120.636 -2.1642 -0.905511 0
M  V30 1267 C 121.652 -1.12828 -1.32461 0
M  V30 1268 O 122.828 -1.45109 -1.39661 0
M  V30 1269 C 119.893 -2.71693 -2.15369 0
M  V30 1270 C 118.954 -3.90171 -1.79068 0
M  V30 1271 C 118.187 -4.42798 -2.97936 0
M  V30 1272 O 118.41 -3.94416 -4.12058 0
M  V30 1273 O 117.344 -5.34085 -2.77555 0
M  V30 1274 H 121.17 -3.00588 -0.433626 0
M  V30 1275 H 118.755 -1.48664 -0.148067 0
M  V30 1276 H 120.637 -3.07104 -2.88557 0
M  V30 1277 H 119.312 -1.90582 -2.61649 0
M  V30 1278 H 118.219 -3.59606 -1.03122 0
M  V30 1279 H 119.552 -4.72584 -1.37569 0
M  V30 1280 N 121.204 0.198386 -1.56346 0
M  V30 1281 C 122.167 1.22952 -1.93431 0
M  V30 1282 C 123.167 1.38611 -0.815092 0
M  V30 1283 O 124.357 1.36479 -1.08255 0
M  V30 1284 C 121.489 2.59946 -2.20546 0
M  V30 1285 H 122.682 0.912626 -2.85677 0
M  V30 1286 H 120.235 0.43977 -1.49986 0
M  V30 1287 H 120.97 2.96696 -1.30927 0
M  V30 1288 H 120.755 2.49953 -3.02102 0
M  V30 1289 H 122.245 3.3431 -2.50253 0
M  V30 1290 N 122.682 1.50554 0.465978 0
M  V30 1291 C 123.645 1.69233 1.54574 0
M  V30 1292 C 124.645 0.562901 1.50626 0
M  V30 1293 O 125.835 0.830016 1.53155 0
M  V30 1294 C 122.967 1.7223 2.94193 0
M  V30 1295 H 124.16 2.65571 1.39327 0
M  V30 1296 H 121.713 1.40111 0.692711 0
M  V30 1297 H 122.448 0.77603 3.14878 0
M  V30 1298 H 122.233 2.54285 2.98466 0
M  V30 1299 H 123.723 1.88618 3.72576 0
M  V30 1300 N 124.16 -0.719506 1.40217 0
M  V30 1301 C 125.07 -1.86378 1.42479 0
M  V30 1302 C 126.086 -1.71073 0.317834 0
M  V30 1303 O 127.262 -1.93406 0.561794 0
M  V30 1304 C 124.327 -3.22136 1.28178 0
M  V30 1305 C 123.388 -3.49723 2.48982 0
M  V30 1306 C 122.621 -4.79004 2.35353 0
M  V30 1307 O 122.844 -5.53821 1.36524 0
M  V30 1308 O 121.778 -5.06839 3.2465 0
M  V30 1309 H 125.604 -1.87425 2.38968 0
M  V30 1310 H 123.189 -0.869405 1.21498 0
M  V30 1311 H 125.071 -4.03234 1.22395 0
M  V30 1312 H 123.746 -3.21825 0.347934 0
M  V30 1313 H 122.653 -2.6865 2.60342 0
M  V30 1314 H 123.986 -3.54828 3.41113 0
M  V30 1315 N 125.638 -1.25649 -0.95132 0
M  V30 1316 C 126.601 -1.06399 -2.03007 0
M  V30 1317 C 127.601 -0.0156794 -1.60792 0
M  V30 1318 O 128.791 -0.25817 -1.72276 0
M  V30 1319 C 125.923 -0.616184 -3.35285 0
M  V30 1320 H 127.116 -2.02164 -2.21517 0
M  V30 1321 H 124.669 -1.08103 -1.12887 0
M  V30 1322 H 125.404 0.343917 -3.22471 0
M  V30 1323 H 125.189 -1.37301 -3.67275 0
M  V30 1324 H 126.679 -0.503032 -4.14559 0
M  V30 1325 N 127.117 1.15442 -1.07289 0
M  V30 1326 C 128.047 2.22312 -0.714107 0
M  V30 1327 C 129.028 1.67467 0.298155 0
M  V30 1328 O 130.213 1.93445 0.171048 0
M  V30 1329 C 127.343 3.47124 -0.110448 0
M  V30 1330 C 126.297 4.14926 -1.04979 0
M  V30 1331 C 125.623 5.33807 -0.308924 0
M  V30 1332 C 126.923 4.64762 -2.38314 0
M  V30 1333 H 128.617 2.5258 -1.6076 0
M  V30 1334 H 126.163 1.21404 -0.77441 0
M  V30 1335 H 128.116 4.21124 0.152482 0
M  V30 1336 H 126.84 3.16187 0.81812 0
M  V30 1337 H 125.499 3.42866 -1.29764 0
M  V30 1338 H 125.147 4.99126 0.623084 0
M  V30 1339 H 124.847 5.80113 -0.935036 0
M  V30 1340 H 126.371 6.10576 -0.0537771 0
M  V30 1341 H 127.785 5.30292 -2.1786 0
M  V30 1342 H 126.182 5.21728 -2.96514 0
M  V30 1343 H 127.252 3.80434 -3.00663 0
M  V30 1344 N 128.595 0.856903 1.32268 0
M  V30 1345 C 129.843 0.460474 1.96784 0
M  V30 1346 C 130.164 -0.987701 1.68135 0
M  V30 1347 O 129.434 -1.69058 0.989765 0
M  V30 1348 H 128.014 0.167289 0.728027 0
M  V30 1349 H 130.676 1.09383 1.61312 0
M  V30 1350 H 129.772 0.60739 3.06133 0
M  V30 1351 N 130.073 -1.45103 0.615059 0
M  V30 1352 C 131.319 -2.02483 0.113347 0
M  V30 1353 C 131.652 -1.48146 -1.25564 0
M  V30 1354 O 130.927 -0.659104 -1.82992 0
M  V30 1355 C 131.21 -3.60005 0.0825278 0
M  V30 1356 C 131.063 -4.2466 1.48271 0
M  V30 1357 C 132.382 -4.35972 -0.601401 0
M  V30 1358 H 129.501 -0.735764 0.0426632 0
M  V30 1359 H 132.143 -1.72868 0.788461 0
M  V30 1360 H 130.293 -3.85367 -0.492378 0
M  V30 1361 H 131.965 -4.10458 2.10527 0
M  V30 1362 H 130.208 -3.82772 2.04127 0
M  V30 1363 H 130.879 -5.336 1.41332 0
M  V30 1364 H 133.355 -4.15947 -0.112666 0
M  V30 1365 H 132.231 -5.45697 -0.592097 0
M  V30 1366 H 132.492 -4.09391 -1.66887 0
M  V30 1367 N 131.551 -0.354651 -1.53558 0
M  V30 1368 C 132.799 0.237972 -2.00694 0
M  V30 1369 C 133.12 1.50173 -1.24391 0
M  V30 1370 O 132.39 1.92673 -0.354135 0
M  V30 1371 H 130.97 0.0909256 -0.741446 0
M  V30 1372 H 133.632 -0.478368 -1.88938 0
M  V30 1373 H 132.728 0.47264 -3.085 0
M  V30 1374 N 133.029 1.57378 -0.0835403 0
M  V30 1375 C 133.962 2.09016 0.915833 0
M  V30 1376 C 134.94 0.997993 1.2837 0
M  V30 1377 O 136.124 1.27219 1.39096 0
M  V30 1378 C 133.251 2.55757 2.22049 0
M  V30 1379 C 132.297 3.76522 2.00333 0
M  V30 1380 S 133.13 5.20661 1.25191 0
M  V30 1381 C 134.286 5.70743 2.56912 0
M  V30 1382 H 134.519 2.93457 0.476492 0
M  V30 1383 H 132.052 1.53856 0.129493 0
M  V30 1384 H 134.01 2.83346 2.97027 0
M  V30 1385 H 132.671 1.71564 2.63106 0
M  V30 1386 H 131.864 4.07256 2.96916 0
M  V30 1387 H 131.466 3.49367 1.33488 0
M  V30 1388 H 133.758 5.78304 3.52946 0
M  V30 1389 H 134.701 6.6944 2.30772 0
M  V30 1390 H 135.109 4.98616 2.64655 0
M  V30 1391 N 134.507 -0.190092 1.56449 0
M  V30 1392 C 135.44 -1.26375 1.90012 0
M  V30 1393 C 136.418 -1.43705 0.760765 0
M  V30 1394 O 137.602 -1.59014 1.01226 0
M  V30 1395 C 134.729 -2.62962 2.13468 0
M  V30 1396 C 133.775 -2.62474 3.36169 0
M  V30 1397 S 134.608 -2.13412 4.91137 0
M  V30 1398 C 135.764 -3.51812 5.17667 0
M  V30 1399 H 135.997 -0.977181 2.80782 0
M  V30 1400 H 133.53 -0.393814 1.49293 0
M  V30 1401 H 135.488 -3.41583 2.27664 0
M  V30 1402 H 134.149 -2.88828 1.23439 0
M  V30 1403 H 133.342 -3.62918 3.49723 0
M  V30 1404 H 132.944 -1.91937 3.20992 0
M  V30 1405 H 135.236 -4.47706 5.08494 0
M  V30 1406 H 136.179 -3.43148 6.19399 0
M  V30 1407 H 136.587 -3.46956 4.45288 0
M  V30 1408 N 135.985 -1.50799 -0.457987 0
M  V30 1409 C 136.915 -1.73553 -1.5621 0
M  V30 1410 C 137.896 -0.584774 -1.59732 0
M  V30 1411 O 139.081 -0.825314 -1.7579 0
M  V30 1412 C 136.211 -1.84169 -2.94447 0
M  V30 1413 C 135.165 -2.99461 -3.0579 0
M  V30 1414 C 134.491 -2.95235 -4.45803 0
M  V30 1415 C 135.791 -4.39766 -2.81786 0
M  V30 1416 H 137.485 -2.66 -1.37421 0
M  V30 1417 H 135.031 -1.28002 -0.659662 0
M  V30 1418 H 136.984 -1.98672 -3.71628 0
M  V30 1419 H 135.708 -0.883545 -3.14422 0
M  V30 1420 H 134.367 -2.8463 -2.31044 0
M  V30 1421 H 134.015 -1.97239 -4.62715 0
M  V30 1422 H 133.715 -3.72642 -4.54326 0
M  V30 1423 H 135.239 -3.11803 -5.24987 0
M  V30 1424 H 136.653 -4.55054 -3.4871 0
M  V30 1425 H 135.05 -5.18722 -3.0174 0
M  V30 1426 H 136.12 -4.51229 -1.7754 0
M  V30 1427 N 137.463 0.71206 -1.40597 0
M  V30 1428 C 138.711 1.46907 -1.38791 0
M  V30 1429 C 139.032 1.94998 0.00780391 0
M  V30 1430 O 138.302 1.70587 0.963174 0
M  V30 1431 H 136.882 0.545043 -0.51082 0
M  V30 1432 H 139.544 0.843882 -1.75683 0
M  V30 1433 H 138.64 2.34021 -2.06496 0
M  V30 1434 N 138.941 1.26152 0.944643 0
M  V30 1435 C 140.166 1.14363 1.7302 0
M  V30 1436 C 140.591 -0.29772 1.85729 0
M  V30 1437 O 139.949 -1.2157 1.34501 0
M  V30 1438 C 139.997 1.81378 3.11664 0
M  V30 1439 O 139.101 1.10022 3.97453 0
M  V30 1440 H 138.442 0.398694 0.53098 0
M  V30 1441 H 140.972 1.66906 1.18337 0
M  V30 1442 H 140.982 1.88064 3.62072 0
M  V30 1443 H 139.657 2.86237 3.0173 0
M  V30 1444 H 138.234 1.11287 3.55907 0
M  V30 1445 N 140.419 -1.14872 1.07899 0
M  V30 1446 C 141.667 -1.85422 0.803941 0
M  V30 1447 C 141.988 -1.83051 -0.67211 0
M  V30 1448 O 141.258 -1.27532 -1.48703 0
M  V30 1449 H 139.838 -0.686537 0.294408 0
M  V30 1450 H 142.5 -1.39226 1.3639 0
M  V30 1451 H 141.596 -2.90399 1.14346 0
M  V30 1452 N 141.898 -0.863906 -1.31812 0
M  V30 1453 C 143.314 -0.555004 -1.49639 0
M  V30 1454 C 143.514 0.912266 -1.79666 0
M  V30 1455 O 142.57 1.69479 -1.87171 0
M  V30 1456 C 143.883 -1.44998 -2.63431 0
M  V30 1457 C 145.431 -1.45138 -2.77316 0
M  V30 1458 C 145.906 -2.33179 -3.94197 0
M  V30 1459 N 147.397 -2.31025 -4.01474 0
M  V30 1460 C 148.132 -2.95871 -4.9117 0
M  V30 1461 N 147.628 -3.69863 -5.8581 0
M  V30 1462 N 149.421 -2.85211 -4.84367 0
M  V30 1463 H 141.572 -1.81339 -1.10589 0
M  V30 1464 H 143.835 -0.77505 -0.545895 0
M  V30 1465 H 143.541 -2.49377 -2.48 0
M  V30 1466 H 143.415 -1.14409 -3.59431 0
M  V30 1467 H 145.802 -0.415201 -2.92164 0
M  V30 1468 H 145.883 -1.79747 -1.82001 0
M  V30 1469 H 145.527 -3.3687 -3.80107 0
M  V30 1470 H 145.457 -1.95897 -4.88807 0
M  V30 1471 H 147.948 -1.77238 -3.33759 0
M  V30 1472 H 148.261 -4.16486 -6.50968 0
M  V30 1473 H 146.606 -3.73971 -5.85808 0
M  V30 1474 H 149.797 -2.26948 -4.09405 0
M  V30 1475 H 149.97 -3.36027 -5.54066 0
M  V30 1476 N 143.376 1.44774 -0.622745 0
M  V30 1477 C 144.625 2.01334 -0.121397 0
M  V30 1478 C 144.938 1.49505 1.26125 0
M  V30 1479 O 146.144 1.98139 1.85616 0
M  V30 1480 C 144.6 3.59516 -0.166298 0
M  V30 1481 C 144.208 4.20342 -1.54974 0
M  V30 1482 C 145.952 4.23582 0.279021 0
M  V30 1483 C 143.859 5.70721 -1.55021 0
M  V30 1484 H 142.789 0.752851 -0.0416172 0
M  V30 1485 H 145.44 1.66083 -0.780309 0
M  V30 1486 H 143.822 3.92027 0.559557 0
M  V30 1487 H 144.996 3.99381 -2.29851 0
M  V30 1488 H 143.311 3.68529 -1.93843 0
M  V30 1489 H 145.908 5.33868 0.298083 0
M  V30 1490 H 146.251 3.95327 1.30471 0
M  V30 1491 H 146.784 3.95843 -0.394063 0
M  V30 1492 H 143.523 6.03698 -2.55399 0
M  V30 1493 H 143.043 5.93829 -0.844245 0
M  V30 1494 H 144.722 6.34203 -1.28047 0
M  V30 1495 N 144.854 0.36279 1.53368 0
M  V30 1496 C 145.784 -0.476976 2.28576 0
M  V30 1497 C 146.765 -1.08631 1.30894 0
M  V30 1498 O 147.95 -1.10409 1.59761 0
M  V30 1499 C 145.08 -1.61828 3.07293 0
M  V30 1500 C 144.034 -1.13633 4.1264 0
M  V30 1501 C 143.36 -2.36766 4.79423 0
M  V30 1502 C 144.66 -0.223061 5.21823 0
M  V30 1503 H 146.354 0.150474 2.99022 0
M  V30 1504 H 143.9 0.0738103 1.43811 0
M  V30 1505 H 145.853 -2.21237 3.58653 0
M  V30 1506 H 144.577 -2.27292 2.34533 0
M  V30 1507 H 143.236 -0.564945 3.62221 0
M  V30 1508 H 142.884 -3.0068 4.03238 0
M  V30 1509 H 142.584 -2.05192 5.50609 0
M  V30 1510 H 144.108 -2.96865 5.33576 0
M  V30 1511 H 145.522 -0.724545 5.68703 0
M  V30 1512 H 143.919 0.001678 6.001 0
M  V30 1513 H 144.989 0.735553 4.79289 0
M  V30 1514 N 146.332 -1.57332 0.0918853 0
M  V30 1515 C 147.262 -2.16872 -0.865371 0
M  V30 1516 C 148.243 -1.10118 -1.29646 0
M  V30 1517 O 149.428 -1.38242 -1.36392 0
M  V30 1518 C 146.558 -2.74649 -2.12569 0
M  V30 1519 C 145.512 -3.86747 -1.83333 0
M  V30 1520 C 144.838 -4.31212 -3.16166 0
M  V30 1521 C 146.138 -5.10089 -1.1228 0
M  V30 1522 H 147.832 -2.97114 -0.369307 0
M  V30 1523 H 145.378 -1.42918 -0.176194 0
M  V30 1524 H 147.331 -3.14952 -2.7997 0
M  V30 1525 H 146.055 -1.91657 -2.64452 0
M  V30 1526 H 144.714 -3.46978 -1.18331 0
M  V30 1527 H 144.362 -3.45115 -3.6593 0
M  V30 1528 H 144.062 -5.06788 -2.97388 0
M  V30 1529 H 145.586 -4.74146 -3.84731 0
M  V30 1530 H 147 -5.47582 -1.69785 0
M  V30 1531 H 145.397 -5.91073 -1.03693 0
M  V30 1532 H 146.467 -4.84786 -0.105041 0
M  V30 1533 N 147.81 0.181792 -1.56548 0
M  V30 1534 C 148.72 1.24538 -1.98815 0
M  V30 1535 C 149.736 1.49045 -0.897861 0
M  V30 1536 O 150.912 1.61399 -1.20467 0
M  V30 1537 C 147.977 2.56683 -2.33055 0
M  V30 1538 C 147.038 2.40131 -3.55859 0
M  V30 1539 C 146.271 3.65975 -3.88456 0
M  V30 1540 O 146.494 4.70711 -3.22161 0
M  V30 1541 O 145.428 3.6071 -4.81842 0
M  V30 1542 H 149.254 0.916647 -2.89536 0
M  V30 1543 H 146.839 0.387842 -1.44278 0
M  V30 1544 H 148.721 3.34655 -2.56094 0
M  V30 1545 H 147.396 2.89157 -1.45498 0
M  V30 1546 H 146.303 1.60226 -3.38051 0
M  V30 1547 H 147.636 2.12585 -4.43924 0
M  V30 1548 N 149.288 1.51039 0.449983 0
M  V30 1549 C 150.704 1.38934 0.785462 0
M  V30 1550 C 150.904 0.461817 1.96136 0
M  V30 1551 O 149.96 -0.0877389 2.52348 0
M  V30 1552 C 151.273 2.80724 1.0777 0
M  V30 1553 C 152.821 2.89787 1.1829 0
M  V30 1554 C 153.296 4.32457 1.50815 0
M  V30 1555 N 154.787 4.35505 1.57764 0
M  V30 1556 C 155.522 5.42914 1.84477 0
M  V30 1557 N 155.018 6.60502 2.09068 0
M  V30 1558 N 156.811 5.3038 1.86155 0
M  V30 1559 H 148.962 2.09904 -0.324647 0
M  V30 1560 H 151.225 0.944378 -0.0827957 0
M  V30 1561 H 150.931 3.50531 0.286498 0
M  V30 1562 H 150.805 3.19273 2.00859 0
M  V30 1563 H 153.192 2.20186 1.96474 0
M  V30 1564 H 153.273 2.54752 0.231314 0
M  V30 1565 H 152.917 5.02603 0.731622 0
M  V30 1566 H 152.847 4.64995 2.47158 0
M  V30 1567 H 155.338 3.50724 1.40715 0
M  V30 1568 H 155.651 7.38158 2.28785 0
M  V30 1569 H 153.996 6.63639 2.06416 0
M  V30 1570 H 157.187 4.37505 1.66454 0
M  V30 1571 H 157.36 6.1417 2.06637 0
M  V30 1572 N 150.766 -0.704594 1.40972 0
M  V30 1573 C 152.177 -1.28418 1.3552 0
M  V30 1574 C 152.528 -1.96171 0.0339434 0
M  V30 1575 O 151.653 -1.98231 -0.867944 0
M  V30 1576 C 152.248 -2.33528 2.45459 0
M  V30 1577 C 150.807 -2.87085 2.43433 0
M  V30 1578 C 149.954 -1.61007 2.2577 0
M  V30 1579 H 152.905 -0.499963 1.50619 0
M  V30 1580 H 152.926 -3.14619 2.13998 0
M  V30 1581 H 152.438 -1.84187 3.41609 0
M  V30 1582 H 150.539 -3.40626 1.51013 0
M  V30 1583 H 150.652 -3.3813 3.39419 0
M  V30 1584 H 149.016 -1.86482 1.73483 0
M  V30 1585 H 149.799 -1.13675 3.23933 0
M  V30 1586 N 152.244 -1.26651 -0.937939 0
M  V30 1587 C 153.154 -1.10276 -2.07066 0
M  V30 1588 C 154.17 -0.0354197 -1.73964 0
M  V30 1589 O 155.346 -0.239816 -1.99967 0
M  V30 1590 C 152.411 -0.740887 -3.38691 0
M  V30 1591 C 151.472 -1.88799 -3.85556 0
M  V30 1592 C 150.705 -1.54329 -5.10899 0
M  V30 1593 O 150.928 -0.446494 -5.6865 0
M  V30 1594 O 149.862 -2.37911 -5.52885 0
M  V30 1595 H 153.688 -2.05309 -2.23789 0
M  V30 1596 H 151.273 -1.05743 -1.0554 0
M  V30 1597 H 153.155 -0.55195 -4.1777 0
M  V30 1598 H 151.83 0.180022 -3.23199 0
M  V30 1599 H 150.737 -2.13191 -3.07409 0
M  V30 1600 H 152.07 -2.78874 -4.05574 0
M  V30 1601 N 153.722 1.14298 -1.08507 0
M  V30 1602 C 154.685 2.17607 -0.719711 0
M  V30 1603 C 155.685 1.58907 0.245997 0
M  V30 1604 O 156.875 1.74181 0.0254081 0
M  V30 1605 C 154.007 3.40842 -0.0627695 0
M  V30 1606 H 155.2 2.51443 -1.63452 0
M  V30 1607 H 152.753 1.28963 -0.88307 0
M  V30 1608 H 153.488 3.12587 0.863716 0
M  V30 1609 H 153.273 3.84713 -0.757504 0
M  V30 1610 H 154.763 4.17221 0.177786 0
M  V30 1611 N 155.201 0.870884 1.31352 0
M  V30 1612 C 156.131 0.343096 2.30966 0
M  V30 1613 C 157.112 -0.566507 1.60389 0
M  V30 1614 O 158.297 -0.483336 1.88089 0
M  V30 1615 C 155.427 -0.455487 3.443 0
M  V30 1616 C 154.381 0.361103 4.26474 0
M  V30 1617 C 153.707 -0.563221 5.31725 0
M  V30 1618 C 155.007 1.59566 4.97329 0
M  V30 1619 H 156.701 1.17548 2.75359 0
M  V30 1620 H 154.247 0.566686 1.32381 0
M  V30 1621 H 156.2 -0.83525 4.13039 0
M  V30 1622 H 154.924 -1.32139 2.98675 0
M  V30 1623 H 153.583 0.722825 3.59403 0
M  V30 1624 H 153.231 -1.42643 4.82351 0
M  V30 1625 H 152.931 -0.0207409 5.87596 0
M  V30 1626 H 154.455 -0.939808 6.03324 0
M  V30 1627 H 155.869 1.28728 5.58661 0
M  V30 1628 H 154.266 2.07728 5.63 0
M  V30 1629 H 155.336 2.34798 4.24262 0
M  V30 1630 N 156.679 -1.44442 0.630414 0
M  V30 1631 C 158.095 -1.56832 0.295973 0
M  V30 1632 C 158.295 -1.61806 -1.20088 0
M  V30 1633 O 157.351 -1.5607 -1.9849 0
M  V30 1634 C 158.664 -2.84031 0.987264 0
M  V30 1635 C 160.212 -2.97742 0.96534 0
M  V30 1636 C 160.687 -4.27743 1.63708 0
M  V30 1637 N 162.178 -4.34555 1.60364 0
M  V30 1638 C 162.913 -5.33862 2.09234 0
M  V30 1639 N 162.409 -6.39578 2.66292 0
M  V30 1640 N 164.202 -5.25366 1.99867 0
M  V30 1641 H 156.353 -1.39457 1.60205 0
M  V30 1642 H 158.616 -0.668237 0.672431 0
M  V30 1643 H 158.322 -2.86338 2.04215 0
M  V30 1644 H 158.196 -3.73534 0.524588 0
M  V30 1645 H 160.583 -2.94989 -0.0810639 0
M  V30 1646 H 160.664 -2.09589 1.4665 0
M  V30 1647 H 160.308 -4.31255 2.68293 0
M  V30 1648 H 160.238 -5.14752 1.11076 0
M  V30 1649 H 162.729 -3.58772 1.18705 0
M  V30 1650 H 163.042 -7.11637 3.01317 0
M  V30 1651 H 161.387 -6.40265 2.70343 0
M  V30 1652 H 164.578 -4.41688 1.55013 0
M  V30 1653 H 164.751 -6.02606 2.38265 0
M  V30 1654 N 158.157 -0.370918 -1.53173 0
M  V30 1655 C 159.382 0.220293 -2.06227 0
M  V30 1656 C 159.807 1.41243 -1.24225 0
M  V30 1657 O 159.165 1.79387 -0.262645 0
M  V30 1658 C 159.213 0.586663 -3.55796 0
M  V30 1659 O 158.317 1.68317 -3.76488 0
M  V30 1660 H 157.658 0.0308099 -0.663285 0
M  V30 1661 H 160.188 -0.533068 -1.97534 0
M  V30 1662 H 160.198 0.85617 -3.98916 0
M  V30 1663 H 158.873 -0.285013 -4.14922 0
M  V30 1664 H 157.45 1.40881 -3.45264 0
M  V30 1665 N 159.635 1.57281 -0.100228 0
M  V30 1666 C 160.882 1.94537 0.562268 0
M  V30 1667 C 161.21 0.982315 1.67871 0
M  V30 1668 O 160.465 0.00280936 1.957 0
M  V30 1669 C 160.764 3.38305 1.15259 0
M  V30 1670 C 160.43 4.50618 0.159409 0
M  V30 1671 C 159.092 4.81066 -0.113741 0
M  V30 1672 C 161.444 5.18615 -0.518461 0
M  V30 1673 C 158.772 5.76835 -1.07137 0
M  V30 1674 C 161.124 6.15412 -1.46459 0
M  V30 1675 C 159.788 6.44262 -1.74592 0
M  V30 1676 H 159.058 0.711863 0.205748 0
M  V30 1677 H 161.705 1.90679 -0.17715 0
M  V30 1678 H 160.01 3.38766 1.96836 0
M  V30 1679 H 161.707 3.64435 1.67297 0
M  V30 1680 H 158.297 4.2689 0.382491 0
M  V30 1681 H 162.481 4.95264 -0.320581 0
M  V30 1682 H 157.737 5.975 -1.29628 0
M  V30 1683 H 161.911 6.67194 -1.99564 0
M  V30 1684 H 159.538 7.1828 -2.48953 0
M  V30 1685 N 161.113 -0.173488 1.56642 0
M  V30 1686 C 162.529 -0.525174 1.50712 0
M  V30 1687 C 162.729 -1.8476 0.804107 0
M  V30 1688 O 161.785 -2.49869 0.363574 0
M  V30 1689 C 163.098 -0.559937 2.95441 0
M  V30 1690 C 164.646 -0.647288 3.06234 0
M  V30 1691 C 165.121 -0.712963 4.52417 0
M  V30 1692 N 166.612 -0.775911 4.56655 0
M  V30 1693 C 167.347 -0.847264 5.67106 0
M  V30 1694 N 166.843 -0.879585 6.87194 0
M  V30 1695 N 168.636 -0.886117 5.55071 0
M  V30 1696 H 160.787 0.693681 2.00753 0
M  V30 1697 H 163.05 0.249841 0.914485 0
M  V30 1698 H 162.756 0.343049 3.50023 0
M  V30 1699 H 162.63 -1.40718 3.49969 0
M  V30 1700 H 165.017 -1.5407 2.51687 0
M  V30 1701 H 165.098 0.226586 2.54794 0
M  V30 1702 H 164.742 0.176183 5.07594 0
M  V30 1703 H 164.672 -1.60295 5.0161 0
M  V30 1704 H 167.163 -0.759304 3.70193 0
M  V30 1705 H 167.476 -0.935144 7.67121 0
M  V30 1706 H 165.821 -0.847898 6.89808 0
M  V30 1707 H 169.012 -0.857853 4.60172 0
M  V30 1708 H 169.185 -0.938263 6.41171 0
M  V30 1709 N 162.591 -1.51276 -0.441967 0
M  V30 1710 C 163.837 -1.63958 -1.19355 0
M  V30 1711 C 164.17 -0.352543 -1.90973 0
M  V30 1712 O 163.445 0.647627 -1.83401 0
M  V30 1713 C 163.728 -2.83979 -2.21422 0
M  V30 1714 C 163.581 -4.22646 -1.53918 0
M  V30 1715 C 164.9 -2.99521 -3.22451 0
M  V30 1716 H 162.019 -0.596709 -0.432559 0
M  V30 1717 H 164.661 -1.83748 -0.483398 0
M  V30 1718 H 162.811 -2.67237 -2.81987 0
M  V30 1719 H 164.483 -4.51045 -0.967256 0
M  V30 1720 H 162.726 -4.25558 -0.841615 0
M  V30 1721 H 163.397 -5.02609 -2.28229 0
M  V30 1722 H 165.873 -3.14944 -2.71937 0
M  V30 1723 H 164.749 -3.85072 -3.91166 0
M  V30 1724 H 165.01 -2.11391 -3.88287 0
M  V30 1725 N 164.069 0.697108 -1.41344 0
M  V30 1726 C 165.485 1.00751 -1.2378 0
M  V30 1727 C 165.685 2.01105 -0.126066 0
M  V30 1728 O 164.741 2.47295 0.51004 0
M  V30 1729 C 166.054 1.53359 -2.58653 0
M  V30 1730 C 167.602 1.6525 -2.65822 0
M  V30 1731 C 168.077 2.2126 -4.01009 0
M  V30 1732 N 169.568 2.28622 -4.02847 0
M  V30 1733 C 170.303 2.72984 -5.04249 0
M  V30 1734 N 169.799 3.16962 -6.16041 0
M  V30 1735 N 171.592 2.72534 -4.91611 0
M  V30 1736 H 163.743 0.0322662 -2.12375 0
M  V30 1737 H 166.006 0.0768853 -0.944877 0
M  V30 1738 H 165.712 0.870773 -3.4075 0
M  V30 1739 H 165.586 2.51597 -2.81032 0
M  V30 1740 H 167.973 2.30644 -1.84086 0
M  V30 1741 H 168.054 0.655614 -2.47256 0
M  V30 1742 H 167.698 1.56482 -4.83193 0
M  V30 1743 H 167.628 3.21698 -4.16915 0
M  V30 1744 H 170.119 1.97585 -3.22131 0
M  V30 1745 H 170.432 3.49434 -6.89287 0
M  V30 1746 H 168.777 3.14875 -6.1958 0
M  V30 1747 H 171.968 2.37525 -4.0336 0
M  V30 1748 H 172.141 3.06789 -5.70775 0
M  V30 1749 N 165.547 1.27147 0.931209 0
M  V30 1750 C 166.494 1.09568 2.03134 0
M  V30 1751 C 167.464 -0.00222433 1.661 0
M  V30 1752 O 168.649 0.159439 1.90133 0
M  V30 1753 C 165.789 0.745231 3.36957 0
M  V30 1754 C 164.902 1.92041 3.86968 0
M  V30 1755 C 164.037 1.51216 5.09222 0
M  V30 1756 C 163.076 2.65504 5.5152 0
M  V30 1757 N 162.213 2.25291 6.64972 0
M  V30 1758 H 167.053 2.03708 2.17502 0
M  V30 1759 H 164.59 1.01411 1.06556 0
M  V30 1760 H 166.548 0.522878 4.1391 0
M  V30 1761 H 165.178 -0.159202 3.22407 0
M  V30 1762 H 164.23 2.25541 3.06326 0
M  V30 1763 H 165.542 2.77787 4.1429 0
M  V30 1764 H 164.696 1.25084 5.93666 0
M  V30 1765 H 163.435 0.625749 4.83669 0
M  V30 1766 H 162.44 2.92354 4.65628 0
M  V30 1767 H 163.665 3.54761 5.7907 0
M  V30 1768 H 161.611 1.39098 6.41083 0
M  V30 1769 H 161.528 3.04577 6.91931 0
M  V30 1770 H 162.796 2.02398 7.52765 0
M  V30 1771 N 167.025 -1.13721 1.09112 0
M  V30 1772 C 168.271 -1.85198 0.826414 0
M  V30 1773 C 168.604 -1.83129 -0.646319 0
M  V30 1774 O 167.879 -1.2671 -1.47563 0
M  V30 1775 C 168.162 -3.33507 1.35812 0
M  V30 1776 C 168.015 -3.44108 2.89672 0
M  V30 1777 C 169.334 -4.28838 0.989256 0
M  V30 1778 H 166.453 -0.67243 0.301675 0
M  V30 1779 H 169.095 -1.33499 1.35197 0
M  V30 1780 H 167.245 -3.77666 0.911082 0
M  V30 1781 H 168.917 -3.08684 3.428 0
M  V30 1782 H 167.16 -2.85087 3.26967 0
M  V30 1783 H 167.831 -4.48388 3.21951 0
M  V30 1784 H 170.307 -3.92734 1.37475 0
M  V30 1785 H 169.183 -5.31051 1.38838 0
M  V30 1786 H 169.444 -4.4198 -0.102924 0
M  V30 1787 N 168.503 -0.877838 -1.30888 0
M  V30 1788 C 169.466 -0.344265 -2.266 0
M  V30 1789 C 170.466 0.50922 -1.52524 0
M  V30 1790 O 171.656 0.317398 -1.71284 0
M  V30 1791 C 168.788 0.510198 -3.37061 0
M  V30 1792 H 169.981 -1.1893 -2.7531 0
M  V30 1793 H 167.534 -0.654088 -1.41956 0
M  V30 1794 H 168.269 1.37612 -2.93655 0
M  V30 1795 H 168.054 -0.101047 -3.9197 0
M  V30 1796 H 169.544 0.875537 -4.08319 0
M  V30 1797 N 169.982 1.44106 -0.638065 0
M  V30 1798 C 171.393 1.85316 -0.226894 0
M  V30 1799 C 171.744 1.53399 1.22324 0
M  V30 1800 O 170.869 0.975463 1.93167 0
M  V30 1801 C 171.464 3.3637 -0.405013 0
M  V30 1802 C 170.023 3.76369 -0.0482902 0
M  V30 1803 C 169.17 2.67921 -0.715108 0
M  V30 1804 H 172.121 1.34474 -0.842764 0
M  V30 1805 H 172.142 3.7885 0.354 0
M  V30 1806 H 171.654 3.59569 -1.46053 0
M  V30 1807 H 169.755 3.58784 1.00522 0
M  V30 1808 H 169.868 4.76856 -0.463187 0
M  V30 1809 H 168.232 2.54259 -0.149753 0
M  V30 1810 H 169.015 2.93951 -1.77335 0
M  V30 1811 N 171.46 0.379036 1.52974 0
M  V30 1812 C 172.407 -0.461048 2.26148 0
M  V30 1813 C 173.377 -1.06637 1.27349 0
M  V30 1814 O 174.562 -1.09633 1.56157 0
M  V30 1815 C 171.702 -1.58782 3.06402 0
M  V30 1816 C 170.815 -1.00636 4.20115 0
M  V30 1817 C 169.95 -2.10334 4.87784 0
M  V30 1818 C 168.989 -1.49724 5.93506 0
M  V30 1819 N 168.126 -2.5331 6.54812 0
M  V30 1820 H 172.966 0.169429 2.97518 0
M  V30 1821 H 170.503 0.0953806 1.4679 0
M  V30 1822 H 172.461 -2.25174 3.51215 0
M  V30 1823 H 171.091 -2.18876 2.37261 0
M  V30 1824 H 170.143 -0.232332 3.7969 0
M  V30 1825 H 171.455 -0.523343 4.96047 0
M  V30 1826 H 170.609 -2.84519 5.35849 0
M  V30 1827 H 169.348 -2.61992 4.11353 0
M  V30 1828 H 168.353 -0.740598 5.44789 0
M  V30 1829 H 169.578 -0.988732 6.71864 0
M  V30 1830 H 167.524 -3.04156 5.81227 0
M  V30 1831 H 167.441 -2.09734 7.26325 0
M  V30 1832 H 168.709 -3.27155 7.07524 0
M  V30 1833 N 172.938 -1.57226 0.108567 0
M  V30 1834 C 173.901 -2.13602 -0.831082 0
M  V30 1835 C 174.901 -1.06841 -1.20173 0
M  V30 1836 O 176.091 -1.32666 -1.12895 0
M  V30 1837 C 173.223 -2.66769 -2.12243 0
M  V30 1838 H 174.416 -2.97951 -0.341317 0
M  V30 1839 H 171.969 -1.55667 -0.14057 0
M  V30 1840 H 172.704 -1.85977 -2.65675 0
M  V30 1841 H 172.489 -3.44839 -1.86625 0
M  V30 1842 H 173.979 -3.10332 -2.79435 0
M  V30 1843 N 174.416 0.165178 -1.56732 0
M  V30 1844 C 175.346 1.20651 -1.99914 0
M  V30 1845 C 176.327 1.45827 -0.875705 0
M  V30 1846 O 177.512 1.57057 -1.14223 0
M  V30 1847 C 174.642 2.54401 -2.36427 0
M  V30 1848 C 173.596 2.43782 -3.51787 0
M  V30 1849 C 172.922 3.82078 -3.7406 0
M  V30 1850 C 174.222 1.93732 -4.85041 0
M  V30 1851 H 175.916 0.847534 -2.87154 0
M  V30 1852 H 173.462 0.40625 -1.38151 0
M  V30 1853 H 175.415 3.27458 -2.65234 0
M  V30 1854 H 174.139 2.92098 -1.46103 0
M  V30 1855 H 172.798 1.73178 -3.23117 0
M  V30 1856 H 172.446 4.17179 -2.81017 0
M  V30 1857 H 172.146 3.7584 -4.51684 0
M  V30 1858 H 173.67 4.56712 -4.05274 0
M  V30 1859 H 175.084 2.56569 -5.12684 0
M  V30 1860 H 173.481 1.98428 -5.66345 0
M  V30 1861 H 174.551 0.891962 -4.76626 0
M  V30 1862 N 175.894 1.51508 0.433938 0
M  V30 1863 C 176.824 1.76016 1.53429 0
M  V30 1864 C 177.805 0.610112 1.58782 0
M  V30 1865 O 178.99 0.853177 1.74455 0
M  V30 1866 C 176.12 1.88831 2.9148 0
M  V30 1867 C 175.074 3.04288 3.00987 0
M  V30 1868 C 174.4 3.0229 4.4105 0
M  V30 1869 C 175.7 4.44193 2.74754 0
M  V30 1870 H 177.394 2.68152 1.33171 0
M  V30 1871 H 174.94 1.29035 0.639214 0
M  V30 1872 H 176.893 2.04559 3.6842 0
M  V30 1873 H 175.617 0.933455 3.12976 0
M  V30 1874 H 174.276 2.8827 2.26486 0
M  V30 1875 H 173.924 2.04576 4.59519 0
M  V30 1876 H 173.624 3.79822 4.4834 0
M  V30 1877 H 175.148 3.20116 5.1996 0
M  V30 1878 H 176.562 4.60544 3.41426 0
M  V30 1879 H 174.959 5.23457 2.9345 0
M  V30 1880 H 176.029 4.53996 1.70339 0
M  V30 1881 N 177.372 -0.689602 1.41712 0
M  V30 1882 C 178.621 -1.44534 1.40686 0
M  V30 1883 C 178.934 -1.95588 0.0213352 0
M  V30 1884 O 180.14 -2.71271 -0.111534 0
M  V30 1885 C 178.596 -2.61387 2.47396 0
M  V30 1886 C 178.204 -2.17094 3.91885 0
M  V30 1887 C 179.948 -3.38986 2.55517 0
M  V30 1888 C 177.855 -3.3094 4.90135 0
M  V30 1889 H 176.785 -0.542925 0.52321 0
M  V30 1890 H 179.436 -0.748054 1.6756 0
M  V30 1891 H 177.818 -3.33412 2.13664 0
M  V30 1892 H 178.992 -1.52318 4.34897 0
M  V30 1893 H 177.307 -1.52473 3.8748 0
M  V30 1894 H 179.904 -4.23747 3.26102 0
M  V30 1895 H 180.247 -3.84578 1.59391 0
M  V30 1896 H 180.78 -2.74021 2.8837 0
M  V30 1897 H 177.519 -2.90355 5.87685 0
M  V30 1898 H 177.039 -3.94546 4.51767 0
M  V30 1899 H 178.718 -3.9663 5.11169 0
M  V30 1900 N 178.85 -1.27639 -0.924453 0
M  V30 1901 C 179.813 -1.10681 -2.00705 0
M  V30 1902 C 180.813 -0.0497823 -1.60723 0
M  V30 1903 O 182.003 -0.294654 -1.7169 0
M  V30 1904 C 179.135 -0.687164 -3.33902 0
M  V30 1905 H 180.328 -2.06817 -2.17179 0
M  V30 1906 H 177.881 -1.10473 -1.10569 0
M  V30 1907 H 178.616 0.275439 -3.23128 0
M  V30 1908 H 178.401 -1.45061 -3.6428 0
M  V30 1909 H 179.891 -0.590853 -4.13399 0
M  V30 1910 N 180.328 1.1314 -1.09713 0
M  V30 1911 C 181.276 2.20717 -0.733934 0
M  V30 1912 C 182.27 1.6729 0.266506 0
M  V30 1913 O 183.476 1.79547 0.127656 0
M  V30 1914 H 179.851 0.719292 -0.21937 0
M  V30 1915 H 181.822 2.48611 -1.6503 0
M  V30 1916 C 180.571 3.47265 -0.173849 0
M  V30 1917 H 179.894 3.88716 -0.934873 0
M  V30 1918 H 181.334 4.23979 0.0423126 0
M  V30 1919 C 179.793 3.18724 1.09164 0
M  V30 1920 O 180.323 3.37762 2.17439 0
M  V30 1921 N 178.529 2.72583 1.00732 0
M  V30 1922 H 178.076 2.57291 0.126121 0
M  V30 1923 H 178.034 2.53862 1.85476 0
M  V30 1924 N 181.806 0.884767 1.30421 0
M  V30 1925 C 182.736 0.367574 2.30589 0
M  V30 1926 C 183.717 -0.549464 1.60981 0
M  V30 1927 O 184.902 -0.46336 1.88591 0
M  V30 1928 C 182.032 -0.418944 3.44764 0
M  V30 1929 C 180.986 0.406316 4.26067 0
M  V30 1930 C 180.312 -0.506793 5.32293 0
M  V30 1931 C 181.612 1.64832 4.95608 0
M  V30 1932 H 183.306 1.20462 2.74097 0
M  V30 1933 H 180.852 0.580695 1.31772 0
M  V30 1934 H 182.805 -0.791395 4.13902 0
M  V30 1935 H 181.529 -1.28964 3.0006 0
M  V30 1936 H 180.188 0.760903 3.58617 0
M  V30 1937 H 179.836 -1.37519 4.83836 0
M  V30 1938 H 179.536 0.0415828 5.87585 0
M  V30 1939 H 181.06 -0.875764 6.04287 0
M  V30 1940 H 182.474 1.34646 5.57264 0
M  V30 1941 H 180.871 2.13688 5.60765 0
M  V30 1942 H 181.941 2.39284 4.21748 0
M  V30 1943 N 183.284 -1.43765 0.645699 0
M  V30 1944 C 184.532 -2.01499 0.155731 0
M  V30 1945 C 184.853 -1.51151 -1.232 0
M  V30 1946 O 184.123 -0.721044 -1.82148 0
M  V30 1947 H 182.703 -0.745003 0.0545817 0
M  V30 1948 H 185.365 -1.76075 0.835677 0
M  V30 1949 H 184.461 -3.1181 0.134577 0
M  V30 1950 N 184.763 -0.387143 -1.52771 0
M  V30 1951 C 185.693 0.440551 -2.29306 0
M  V30 1952 C 186.674 1.06535 -1.32606 0
M  V30 1953 O 187.859 1.07853 -1.61497 0
M  V30 1954 C 184.989 1.56919 -3.09829 0
M  V30 1955 C 183.943 1.07054 -4.14395 0
M  V30 1956 C 183.269 2.29109 -4.83129 0
M  V30 1957 C 184.569 0.140015 -5.22112 0
M  V30 1958 H 186.263 -0.198026 -2.98744 0
M  V30 1959 H 183.809 -0.09668 -1.43675 0
M  V30 1960 H 185.762 2.15503 -3.62128 0
M  V30 1961 H 184.486 2.23532 -2.3812 0
M  V30 1962 H 183.145 0.507247 -3.63074 0
M  V30 1963 H 182.793 2.94227 -4.0797 0
M  V30 1964 H 182.493 1.96406 -5.53804 0
M  V30 1965 H 184.017 2.88339 -5.38231 0
M  V30 1966 H 185.431 0.633978 -5.69784 0
M  V30 1967 H 183.828 -0.0971485 -6.00021 0
M  V30 1968 H 184.898 -0.811711 -4.78058 0
M  V30 1969 N 186.241 1.57166 -0.116904 0
M  V30 1970 C 187.204 2.14039 0.819742 0
M  V30 1971 C 188.204 1.07477 1.19605 0
M  V30 1972 O 189.394 1.33263 1.1219 0
M  V30 1973 C 186.526 2.67891 2.10826 0
M  V30 1974 H 187.719 2.98128 0.325511 0
M  V30 1975 H 185.272 1.55739 0.132312 0
M  V30 1976 H 186.007 1.87384 2.64685 0
M  V30 1977 H 185.792 3.45823 1.84793 0
M  V30 1978 H 187.282 3.11809 2.77785 0
M  V30 1979 N 187.719 -0.156864 1.56817 0
M  V30 1980 C 188.651 -1.21883 1.94106 0
M  V30 1981 C 189.664 -1.3971 0.835754 0
M  V30 1982 O 190.853 -1.39457 1.11418 0
M  V30 1983 C 187.953 -2.58527 2.19127 0
M  V30 1984 C 187.126 -2.61809 3.50393 0
M  V30 1985 C 186.185 -3.7992 3.64071 0
M  V30 1986 O 185.211 -3.65249 4.36557 0
M  V30 1987 N 186.413 -4.96973 2.99997 0
M  V30 1988 H 189.178 -0.901974 2.85805 0
M  V30 1989 H 186.739 -0.346513 1.58148 0
M  V30 1990 H 188.731 -3.36034 2.25529 0
M  V30 1991 H 187.301 -2.82545 1.33742 0
M  V30 1992 H 186.521 -1.7029 3.5552 0
M  V30 1993 H 187.809 -2.61024 4.36742 0
M  V30 1994 H 187.207 -5.11794 2.41004 0
M  V30 1995 H 185.764 -5.7229 3.11974 0
M  V30 1996 N 189.197 -1.51736 -0.425897 0
M  V30 1997 C 190.127 -1.76827 -1.52494 0
M  V30 1998 C 191.108 -0.618524 -1.58456 0
M  V30 1999 O 192.293 -0.862416 -1.74 0
M  V30 2000 C 189.423 -1.90374 -2.90474 0
M  V30 2001 C 188.377 -3.0588 -2.99369 0
M  V30 2002 C 187.703 -3.04625 -4.3944 0
M  V30 2003 C 189.003 -4.45644 -2.72394 0
M  V30 2004 H 190.697 -2.68855 -1.31748 0
M  V30 2005 H 188.243 -1.29372 -0.632362 0
M  V30 2006 H 190.196 -2.0651 -3.6733 0
M  V30 2007 H 188.92 -0.95004 -3.12477 0
M  V30 2008 H 187.579 -2.89467 -2.24954 0
M  V30 2009 H 187.227 -2.0701 -4.58428 0
M  V30 2010 H 186.927 -3.82195 -4.46319 0
M  V30 2011 H 188.451 -3.22869 -5.18255 0
M  V30 2012 H 189.865 -4.62348 -3.38979 0
M  V30 2013 H 188.262 -5.25006 -2.9067 0
M  V30 2014 H 189.332 -4.54893 -1.67929 0
M  V30 2015 N 190.675 0.682077 -1.42076 0
M  V30 2016 C 192.091 0.994324 -1.24841 0
M  V30 2017 C 192.291 2.0096 -0.147389 0
M  V30 2018 O 191.347 2.47822 0.483782 0
M  V30 2019 C 192.66 1.50607 -2.60265 0
M  V30 2020 C 194.208 1.62421 -2.6756 0
M  V30 2021 C 194.683 2.16994 -4.03333 0
M  V30 2022 N 196.174 2.24337 -4.0525 0
M  V30 2023 C 196.909 2.67621 -5.07116 0
M  V30 2024 N 196.405 3.1041 -6.19368 0
M  V30 2025 N 198.198 2.67305 -4.94474 0
M  V30 2026 H 190.349 0.00973908 -2.12398 0
M  V30 2027 H 192.612 0.0668593 -0.945639 0
M  V30 2028 H 192.318 0.834583 -3.41654 0
M  V30 2029 H 192.192 2.48602 -2.83684 0
M  V30 2030 H 194.579 2.28678 -1.86521 0
M  V30 2031 H 194.66 0.629352 -2.47937 0
M  V30 2032 H 194.304 1.51349 -4.84826 0
M  V30 2033 H 194.234 3.17258 -4.20304 0
M  V30 2034 H 196.725 1.94158 -3.24209 0
M  V30 2035 H 197.038 3.42103 -6.92954 0
M  V30 2036 H 195.383 3.08286 -6.22884 0
M  V30 2037 H 198.574 2.33233 -4.05857 0
M  V30 2038 H 198.747 3.00718 -5.73997 0
M  V30 2039 N 192.153 1.28127 0.917671 0
M  V30 2040 C 193.569 1.05749 1.19538 0
M  V30 2041 C 193.769 -0.202633 2.00479 0
M  V30 2042 O 192.825 -0.905382 2.3571 0
M  V30 2043 C 194.138 2.30273 1.93378 0
M  V30 2044 C 195.686 2.35412 2.06277 0
M  V30 2045 C 196.161 3.59692 2.83524 0
M  V30 2046 N 197.652 3.60309 2.91087 0
M  V30 2047 C 198.387 4.53147 3.51348 0
M  V30 2048 N 197.883 5.563 4.12919 0
M  V30 2049 N 199.676 4.40751 3.48849 0
M  V30 2050 H 191.827 2.09024 0.377184 0
M  V30 2051 H 194.09 0.919798 0.22951 0
M  V30 2052 H 193.796 3.22055 1.41328 0
M  V30 2053 H 193.67 2.36378 2.93947 0
M  V30 2054 H 196.057 1.4413 2.57508 0
M  V30 2055 H 196.138 2.33304 1.04895 0
M  V30 2056 H 195.782 4.51316 2.32973 0
M  V30 2057 H 195.712 3.59054 3.85211 0
M  V30 2058 H 198.203 2.85714 2.47338 0
M  V30 2059 H 198.516 6.2329 4.56869 0
M  V30 2060 H 196.861 5.60131 4.11435 0
M  V30 2061 H 200.052 3.59367 2.99955 0
M  V30 2062 H 200.225 5.13291 3.9552 0
M  V30 2063 N 193.631 -1.12557 1.10312 0
M  V30 2064 C 194.861 -1.87592 0.865617 0
M  V30 2065 C 195.269 -1.79851 -0.587389 0
M  V30 2066 O 194.612 -1.16949 -1.41664 0
M  V30 2067 C 194.674 -3.37665 1.23381 0
M  V30 2068 C 194.338 -3.69181 2.69359 0
M  V30 2069 C 195.335 -3.67652 3.67597 0
M  V30 2070 C 193.02 -3.98555 3.05711 0
M  V30 2071 C 195.014 -3.95053 5.00212 0
M  V30 2072 C 192.701 -4.25616 4.38514 0
M  V30 2073 C 193.699 -4.23851 5.35574 0
M  V30 2074 O 193.387 -4.50242 6.65986 0
M  V30 2075 H 193.119 -0.600442 0.310557 0
M  V30 2076 H 195.673 -1.4335 1.47105 0
M  V30 2077 H 193.903 -3.82454 0.571467 0
M  V30 2078 H 195.592 -3.94041 0.973994 0
M  V30 2079 H 196.358 -3.45024 3.40857 0
M  V30 2080 H 192.237 -3.99071 2.30789 0
M  V30 2081 H 195.781 -3.93591 5.75962 0
M  V30 2082 H 191.678 -4.47718 4.64994 0
M  V30 2083 H 192.446 -4.67867 6.71597 0
M  V30 2084 N 195.109 -0.891671 -1.2995 0
M  V30 2085 C 196.357 -0.512486 -1.95494 0
M  V30 2086 C 196.678 0.942776 -1.70695 0
M  V30 2087 O 195.948 1.66374 -1.03424 0
M  V30 2088 H 194.528 -0.186533 -0.723336 0
M  V30 2089 H 197.19 -1.13621 -1.58355 0
M  V30 2090 H 196.286 -0.688342 -3.04415 0
M  V30 2091 N 196.587 1.43421 -0.653314 0
M  V30 2092 C 198.003 1.56341 -0.320886 0
M  V30 2093 C 198.203 1.63696 1.17499 0
M  V30 2094 O 197.259 1.59208 1.95982 0
M  V30 2095 C 198.572 2.82424 -1.03233 0
M  V30 2096 C 200.12 2.96168 -1.01259 0
M  V30 2097 C 200.595 4.25084 -1.70492 0
M  V30 2098 N 202.086 4.31948 -1.67257 0
M  V30 2099 C 202.821 5.30466 -2.17701 0
M  V30 2100 N 202.317 6.35261 -2.76434 0
M  V30 2101 N 204.11 5.2212 -2.082 0
M  V30 2102 H 196.261 1.3689 -1.62403 0
M  V30 2103 H 198.524 0.657455 -0.682977 0
M  V30 2104 H 198.23 2.83053 -2.08744 0
M  V30 2105 H 198.104 3.72653 -0.583948 0
M  V30 2106 H 200.491 2.9508 0.0341235 0
M  V30 2107 H 200.572 2.07229 -1.49966 0
M  V30 2108 H 200.216 4.26932 -2.7512 0
M  V30 2109 H 200.146 5.1292 -1.19251 0
M  V30 2110 H 202.637 3.56838 -1.24398 0
M  V30 2111 H 202.95 7.06754 -3.12601 0
M  V30 2112 H 201.295 6.35884 -2.80495 0
M  V30 2113 H 204.486 4.39166 -1.62021 0
M  V30 2114 H 204.659 5.98739 -2.47822 0
M  V30 2115 N 198.065 0.39524 1.52563 0
M  V30 2116 C 199.342 -0.242908 1.94086 0
M  V30 2117 C 199.722 -1.63841 1.33114 0
M  V30 2118 O 199.07 -2.22928 0.501529 0
M  V30 2119 C 199.28 -0.26327 3.48006 0
M  V30 2120 C 200.628 -0.489354 4.21771 0
M  V30 2121 O 201.652 -0.343226 3.54543 0
M  V30 2122 O 200.511 -0.776169 5.4096 0
M  V30 2123 H 197.605 -0.152536 0.812811 0
M  V30 2124 H 200.151 0.450178 1.6362 0
M  V30 2125 H 198.923 0.713985 3.84731 0
M  V30 2126 H 198.546 -1.00103 3.84792 0
M  V30 2127 N 199.544 -1.57102 0.125237 0
M  V30 2128 C 200.821 -1.86953 -0.575142 0
M  V30 2129 C 201.201 -1.02749 -1.84407 0
M  V30 2130 O 200.549 -0.108144 -2.28244 0
M  V30 2131 C 200.759 -3.38198 -0.861583 0
M  V30 2132 C 202.107 -4.06937 -1.21192 0
M  V30 2133 O 203.131 -3.43252 -0.951645 0
M  V30 2134 O 201.99 -5.19364 -1.70068 0
M  V30 2135 H 199.084 -0.774147 -0.290906 0
M  V30 2136 H 201.63 -1.68942 0.160211 0
M  V30 2137 H 200.402 -3.91282 0.0373647 0
M  V30 2138 H 200.025 -3.61661 -1.65188 0
M  V30 2139 N 201.022 0.148545 -1.56898 0
M  V30 2140 C 201.952 1.18524 -2.01182 0
M  V30 2141 C 202.933 1.4489 -0.891123 0
M  V30 2142 O 204.118 1.55836 -1.15882 0
M  V30 2143 C 201.248 2.51879 -2.39112 0
M  V30 2144 C 200.202 2.40038 -3.54353 0
M  V30 2145 C 199.528 3.78089 -3.78091 0
M  V30 2146 C 200.828 1.88577 -4.87069 0
M  V30 2147 H 202.522 0.817029 -2.88036 0
M  V30 2148 H 200.068 0.391575 -1.38574 0
M  V30 2149 H 202.021 3.24627 -2.68692 0
M  V30 2150 H 200.745 2.90532 -1.49193 0
M  V30 2151 H 199.404 1.69742 -3.24936 0
M  V30 2152 H 199.052 4.14175 -2.85426 0
M  V30 2153 H 198.752 3.71028 -4.55645 0
M  V30 2154 H 200.276 4.52387 -4.10095 0
M  V30 2155 H 201.69 2.51117 -5.15377 0
M  V30 2156 H 200.087 1.9241 -5.68417 0
M  V30 2157 H 201.157 0.84136 -4.77545 0
M  V30 2158 N 202.5 1.5196 0.417844 0
M  V30 2159 C 203.43 1.77634 1.51554 0
M  V30 2160 C 204.411 0.626918 1.58126 0
M  V30 2161 O 205.596 0.871632 1.7354 0
M  V30 2162 C 202.726 1.91911 2.8946 0
M  V30 2163 C 201.68 3.07463 2.97743 0
M  V30 2164 C 201.006 3.06951 4.37819 0
M  V30 2165 C 202.306 4.47082 2.70027 0
M  V30 2166 H 204 2.6955 1.3032 0
M  V30 2167 H 201.546 1.29706 0.625492 0
M  V30 2168 H 203.499 2.08455 3.6623 0
M  V30 2169 H 202.223 0.966598 3.11969 0
M  V30 2170 H 200.882 2.90656 2.23416 0
M  V30 2171 H 200.53 2.09438 4.57323 0
M  V30 2172 H 200.23 3.84556 4.44286 0
M  V30 2173 H 201.754 3.25613 5.16535 0
M  V30 2174 H 203.168 4.6414 3.36522 0
M  V30 2175 H 201.565 5.2654 2.87881 0
M  V30 2176 H 202.635 4.55777 1.65514 0
M  V30 2177 N 203.978 -0.674533 1.42435 0
M  V30 2178 C 205.394 -0.98769 1.25367 0
M  V30 2179 C 205.594 -2.00879 0.158044 0
M  V30 2180 O 204.65 -2.48075 -0.470633 0
M  V30 2181 C 205.963 -1.49224 2.6106 0
M  V30 2182 C 207.511 -1.61 2.68417 0
M  V30 2183 C 207.986 -2.14852 4.04478 0
M  V30 2184 N 209.477 -2.22185 4.06434 0
M  V30 2185 C 210.212 -2.64928 5.08528 0
M  V30 2186 N 209.708 -3.07121 6.21006 0
M  V30 2187 N 211.501 -2.64679 4.95885 0
M  V30 2188 H 203.652 0.00152503 2.124 0
M  V30 2189 H 205.915 -0.0618434 0.945981 0
M  V30 2190 H 205.621 -0.816453 3.42092 0
M  V30 2191 H 205.495 -2.47094 2.84999 0
M  V30 2192 H 207.882 -2.27686 1.87732 0
M  V30 2193 H 207.963 -0.616195 2.48267 0
M  V30 2194 H 207.607 -1.48775 4.85622 0
M  V30 2195 H 207.537 -3.15024 4.2198 0
M  V30 2196 H 210.028 -1.92435 3.25234 0
M  V30 2197 H 210.341 -3.38423 6.94759 0
M  V30 2198 H 208.686 -3.04978 6.24511 0
M  V30 2199 H 211.877 -2.31078 4.07088 0
M  V30 2200 H 212.05 -2.9767 5.75584 0
M  V30 2201 N 205.456 -1.28612 -0.910864 0
M  V30 2202 C 206.386 -1.15326 -2.03032 0
M  V30 2203 C 207.367 -0.0502924 -1.70026 0
M  V30 2204 O 208.552 -0.227797 -1.92859 0
M  V30 2205 C 205.682 -0.817343 -3.37545 0
M  V30 2206 C 204.636 -1.8754 -3.84724 0
M  V30 2207 C 203.962 -1.39305 -5.16235 0
M  V30 2208 C 205.262 -3.28244 -4.06267 0
M  V30 2209 H 206.956 -2.08975 -2.14406 0
M  V30 2210 H 204.502 -1.00612 -1.03021 0
M  V30 2211 H 206.455 -0.711151 -4.15356 0
M  V30 2212 H 205.179 0.154846 -3.26233 0
M  V30 2213 H 203.838 -1.97079 -3.09121 0
M  V30 2214 H 203.486 -0.409846 -5.01328 0
M  V30 2215 H 203.186 -2.10057 -5.48771 0
M  V30 2216 H 204.71 -1.30014 -5.96598 0
M  V30 2217 H 206.124 -3.21611 -4.74594 0
M  V30 2218 H 204.521 -3.96855 -4.5014 0
M  V30 2219 H 205.591 -3.72048 -3.10979 0
M  V30 2220 N 206.934 1.1197 -1.10907 0
M  V30 2221 C 208.18 1.8386 -0.855773 0
M  V30 2222 C 208.513 1.84134 0.617103 0
M  V30 2223 O 207.788 1.29041 1.45529 0
M  V30 2224 C 208.071 3.31305 -1.411 0
M  V30 2225 C 207.924 3.39456 -2.9511 0
M  V30 2226 C 209.243 4.2721 -1.05736 0
M  V30 2227 H 206.362 0.667545 -0.312334 0
M  V30 2228 H 209.004 1.31331 -1.37303 0
M  V30 2229 H 207.154 3.76169 -0.97105 0
M  V30 2230 H 208.826 3.03191 -3.47668 0
M  V30 2231 H 207.069 2.79849 -3.31462 0
M  V30 2232 H 207.74 4.43209 -3.29044 0
M  V30 2233 H 210.216 3.90497 -1.43706 0
M  V30 2234 H 209.092 5.28775 -1.47269 0
M  V30 2235 H 209.353 4.42088 0.0325958 0
M  V30 2236 N 208.412 0.89855 1.29475 0
M  V30 2237 C 209.322 0.379974 2.31502 0
M  V30 2238 C 210.338 -0.524695 1.659 0
M  V30 2239 O 211.514 -0.414551 1.97087 0
M  V30 2240 C 208.579 -0.385138 3.44554 0
M  V30 2241 C 207.64 0.550914 4.2575 0
M  V30 2242 C 206.873 -0.177778 5.33404 0
M  V30 2243 O 207.096 -1.40189 5.52904 0
M  V30 2244 O 206.03 0.479106 5.9999 0
M  V30 2245 H 209.856 1.22639 2.77837 0
M  V30 2246 H 207.441 0.662834 1.33891 0
M  V30 2247 H 209.323 -0.817841 4.13388 0
M  V30 2248 H 207.998 -1.20763 3.0033 0
M  V30 2249 H 206.905 1.03271 3.59564 0
M  V30 2250 H 208.238 1.33979 4.73614 0
M  V30 2251 N 209.89 -1.43072 0.660911 0
M  V30 2252 C 210.853 -2.29194 -0.0166406 0
M  V30 2253 C 211.853 -1.42609 -0.742912 0
M  V30 2254 O 213.043 -1.64155 -0.583004 0
M  V30 2255 C 210.175 -3.24831 -1.0343 0
M  V30 2256 H 211.368 -2.90596 0.741208 0
M  V30 2257 H 208.921 -1.5048 0.422532 0
M  V30 2258 H 209.656 -2.68339 -1.82111 0
M  V30 2259 H 209.441 -3.88676 -0.517082 0
M  V30 2260 H 210.931 -3.89451 -1.50723 0
M  V30 2261 N 211.368 -0.403325 -1.52352 0
M  V30 2262 C 212.298 0.416205 -2.29761 0
M  V30 2263 C 213.279 1.05123 -1.33728 0
M  V30 2264 O 214.464 1.06134 -1.62632 0
M  V30 2265 C 211.594 1.53624 -3.11475 0
M  V30 2266 C 210.548 1.02653 -4.15507 0
M  V30 2267 C 209.874 2.23971 -4.85532 0
M  V30 2268 C 211.174 0.08463 -5.22231 0
M  V30 2269 H 212.868 -0.229701 -2.98518 0
M  V30 2270 H 210.414 -0.111913 -1.43564 0
M  V30 2271 H 212.367 2.1165 -3.64393 0
M  V30 2272 H 211.091 2.20994 -2.40477 0
M  V30 2273 H 209.75 0.46871 -3.63591 0
M  V30 2274 H 209.398 2.89883 -4.11068 0
M  V30 2275 H 209.098 1.90521 -5.55856 0
M  V30 2276 H 210.622 2.82614 -5.41259 0
M  V30 2277 H 212.036 0.573509 -5.70424 0
M  V30 2278 H 210.433 -0.160783 -5.99885 0
M  V30 2279 H 211.503 -0.86237 -4.7717 0
M  V30 2280 N 212.846 1.57033 -0.133567 0
M  V30 2281 C 213.756 2.19632 0.824564 0
M  V30 2282 C 214.772 1.17666 1.28182 0
M  V30 2283 O 215.948 1.50193 1.3418 0
M  V30 2284 C 213.013 2.79499 2.05137 0
M  V30 2285 C 212.074 3.96548 1.64464 0
M  V30 2286 C 211.307 4.5355 2.81297 0
M  V30 2287 O 211.53 4.09438 3.97136 0
M  V30 2288 O 210.464 5.44018 2.57542 0
M  V30 2289 H 214.29 3.01991 0.321766 0
M  V30 2290 H 211.875 1.49112 0.0927889 0
M  V30 2291 H 213.757 3.17602 2.7696 0
M  V30 2292 H 212.432 2.00162 2.54395 0
M  V30 2293 H 211.339 3.63186 0.897048 0
M  V30 2294 H 212.672 4.77364 1.19934 0
M  V30 2295 N 214.325 -0.140222 1.56975 0
M  V30 2296 C 215.288 -1.15689 1.97861 0
M  V30 2297 C 216.288 -1.3549 0.865974 0
M  V30 2298 O 217.478 -1.32367 1.13246 0
M  V30 2299 C 214.61 -2.51582 2.30042 0
M  V30 2300 H 215.803 -0.805971 2.88867 0
M  V30 2301 H 213.356 -0.383801 1.51515 0
M  V30 2302 H 214.091 -2.91632 1.41849 0
M  V30 2303 H 213.876 -2.38569 3.11171 0
M  V30 2304 H 215.366 -3.24792 2.62488 0
M  V30 2305 N 215.803 -1.52179 -0.40978 0
M  V30 2306 C 217.08 -1.56769 -1.16974 0
M  V30 2307 C 217.46 -0.348322 -2.08206 0
M  V30 2308 O 216.808 0.664862 -2.18613 0
M  V30 2309 C 217.018 -2.89603 -1.9476 0
M  V30 2310 C 218.366 -3.42579 -2.50849 0
M  V30 2311 O 219.39 -2.91338 -2.04941 0
M  V30 2312 O 218.249 -4.32054 -3.34652 0
M  V30 2313 H 215.343 -0.631439 -0.534054 0
M  V30 2314 H 217.889 -1.64507 -0.416613 0
M  V30 2315 H 216.661 -3.698 -1.27921 0
M  V30 2316 H 216.284 -2.85155 -2.77079 0
M  V30 2317 N 217.281 0.66697 -1.42791 0
M  V30 2318 C 218.244 1.76211 -1.46568 0
M  V30 2319 C 219.244 1.56896 -0.352196 0
M  V30 2320 O 220.434 1.63044 -0.613364 0
M  V30 2321 C 217.566 3.14935 -1.30494 0
M  V30 2322 H 218.759 1.74247 -2.44086 0
M  V30 2323 H 216.312 0.877342 -1.29354 0
M  V30 2324 H 217.047 3.2252 -0.339301 0
M  V30 2325 H 216.832 3.30359 -2.11199 0
M  V30 2326 H 218.322 3.94821 -1.36038 0
M  V30 2327 N 218.759 1.29093 0.90403 0
M  V30 2328 C 219.689 1.16401 2.02418 0
M  V30 2329 C 220.67 0.0593085 1.69997 0
M  V30 2330 O 221.855 0.238021 1.92736 0
M  V30 2331 C 218.985 0.835233 3.37107 0
M  V30 2332 C 217.939 1.89578 3.83724 0
M  V30 2333 C 217.265 1.42041 5.15489 0
M  V30 2334 C 218.565 3.30394 4.04521 0
M  V30 2335 H 220.259 2.10109 2.13295 0
M  V30 2336 H 217.805 1.01157 1.02486 0
M  V30 2337 H 219.758 0.733169 4.14973 0
M  V30 2338 H 218.482 -0.137543 3.2631 0
M  V30 2339 H 217.141 1.98715 3.08071 0
M  V30 2340 H 216.789 0.436426 5.01103 0
M  V30 2341 H 216.489 2.12964 5.4765 0
M  V30 2342 H 218.013 1.33176 5.959 0
M  V30 2343 H 219.427 3.24123 4.72882 0
M  V30 2344 H 217.824 3.99237 4.48029 0
M  V30 2345 H 218.894 3.73692 3.09002 0
M  V30 2346 N 220.237 -1.11381 1.11499 0
M  V30 2347 C 221.2 -2.15622 0.777153 0
M  V30 2348 C 222.2 -1.59504 -0.203779 0
M  V30 2349 O 223.39 -1.74188 0.020782 0
M  V30 2350 C 220.522 -3.40556 0.153116 0
M  V30 2351 H 221.715 -2.47021 1.70061 0
M  V30 2352 H 219.268 -1.26577 0.916952 0
M  V30 2353 H 220.003 -3.14767 -0.780536 0
M  V30 2354 H 219.788 -3.8257 0.859238 0
M  V30 2355 H 221.278 -4.17546 -0.0671044 0
M  V30 2356 N 221.715 -0.905404 -1.28997 0
M  V30 2357 C 222.962 -0.534248 -1.95325 0
M  V30 2358 C 223.29 0.920535 -1.71337 0
M  V30 2359 O 222.545 1.66861 -1.02254 0
M  V30 2360 C 222.844 -0.779906 -3.48787 0
M  V30 2361 C 222.51 -2.21293 -3.92861 0
M  V30 2362 C 221.172 -2.60475 -4.04606 0
M  V30 2363 C 223.524 -3.14587 -4.15553 0
M  V30 2364 C 220.852 -3.9212 -4.36416 0
M  V30 2365 C 223.204 -4.45787 -4.48839 0
M  V30 2366 C 221.868 -4.84834 -4.58794 0
M  V30 2367 H 221.138 -0.195495 -0.714747 0
M  V30 2368 H 223.785 -1.14514 -1.53488 0
M  V30 2369 H 222.09 -0.0861365 -3.91705 0
M  V30 2370 H 223.787 -0.472029 -3.98212 0
M  V30 2371 H 220.377 -1.89887 -3.84241 0
M  V30 2372 H 224.561 -2.85528 -4.0594 0
M  V30 2373 H 219.817 -4.22086 -4.42327 0
M  V30 2374 H 223.991 -5.18098 -4.65346 0
M  V30 2375 H 221.618 -5.86877 -4.83197 0
M  V30 2376 N 223.193 1.4272 -0.668489 0
M  V30 2377 C 224.143 2.27971 0.0363806 0
M  V30 2378 C 225.127 1.40741 0.779794 0
M  V30 2379 O 226.319 1.64245 0.659745 0
M  V30 2380 C 223.448 3.28673 0.991398 0
M  V30 2381 C 222.534 4.23388 0.245658 0
M  V30 2382 N 222.925 5.00267 -0.746069 0
M  V30 2383 C 221.223 4.43355 0.484988 0
M  V30 2384 C 221.924 5.69396 -1.19009 0
M  V30 2385 N 220.9 5.41095 -0.521287 0
M  V30 2386 H 224.702 2.84833 -0.724394 0
M  V30 2387 H 222.216 1.54607 -0.497028 0
M  V30 2388 H 224.213 3.88543 1.51129 0
M  V30 2389 H 222.873 2.73373 1.75207 0
M  V30 2390 H 223.884 5.05525 -1.12537 0
M  V30 2391 H 220.561 3.99104 1.22565 0
M  V30 2392 H 221.951 6.41083 -2.01153 0
M  V30 2393 N 224.671 0.411399 1.52136 0
M  V30 2394 C 225.917 -0.163888 2.02137 0
M  V30 2395 C 226.25 -1.44597 1.29636 0
M  V30 2396 O 225.525 -1.90272 0.403353 0
M  V30 2397 C 225.808 -0.40927 3.57767 0
M  V30 2398 C 225.661 0.889643 4.40914 0
M  V30 2399 C 226.98 -1.19042 4.23694 0
M  V30 2400 H 224.099 -0.0580896 0.734707 0
M  V30 2401 H 226.741 0.54531 1.82007 0
M  V30 2402 H 224.891 -1.0134 3.7505 0
M  V30 2403 H 226.563 1.52575 4.35337 0
M  V30 2404 H 224.806 1.50011 4.07037 0
M  V30 2405 H 225.477 0.672314 5.4789 0
M  V30 2406 H 227.953 -0.678942 4.10524 0
M  V30 2407 H 226.829 -1.33086 5.32522 0
M  V30 2408 H 227.09 -2.21166 3.82803 0
M  V30 2409 N 226.149 -1.5696 0.141893 0
M  V30 2410 C 227.097 -2.17784 -0.816874 0
M  V30 2411 C 228.091 -1.1334 -1.25899 0
M  V30 2412 O 229.297 -1.316 -1.22806 0
M  V30 2413 H 225.672 -0.697278 -0.281615 0
M  V30 2414 H 227.643 -2.97087 -0.279621 0
M  V30 2415 C 226.392 -2.80983 -2.04802 0
M  V30 2416 H 225.715 -3.61062 -1.7168 0
M  V30 2417 H 227.155 -3.2705 -2.69841 0
M  V30 2418 C 225.614 -1.79228 -2.8527 0
M  V30 2419 O 226.144 -1.25962 -3.8144 0
M  V30 2420 N 224.35 -1.48647 -2.49704 0
M  V30 2421 H 223.897 -1.92155 -1.71564 0
M  V30 2422 H 223.855 -0.808115 -3.03837 0
M  V30 2423 N 227.627 0.131896 -1.57047 0
M  V30 2424 C 229.038 0.690407 -1.73465 0
M  V30 2425 C 229.389 1.8094 -0.758629 0
M  V30 2426 O 228.514 2.16282 0.0713813 0
M  V30 2427 C 229.109 1.25916 -3.14532 0
M  V30 2428 C 227.668 1.76409 -3.32501 0
M  V30 2429 C 226.815 0.658579 -2.69366 0
M  V30 2430 H 229.766 -0.0939144 -1.58422 0
M  V30 2431 H 229.787 2.12892 -3.15369 0
M  V30 2432 H 229.299 0.444515 -3.85546 0
M  V30 2433 H 227.4 2.60391 -2.66509 0
M  V30 2434 H 227.513 1.88241 -4.4057 0
M  V30 2435 H 225.877 1.08899 -2.30246 0
M  V30 2436 H 226.66 -0.14487 -3.42994 0
M  V30 2437 N 229.106 1.52395 0.401703 0
M  V30 2438 C 230.036 1.79231 1.49661 0
M  V30 2439 C 231.017 0.643654 1.57452 0
M  V30 2440 O 232.202 0.889989 1.72606 0
M  V30 2441 C 229.332 1.94971 2.87409 0
M  V30 2442 C 228.286 3.10604 2.94465 0
M  V30 2443 C 227.612 3.11577 4.34538 0
M  V30 2444 C 228.912 4.49921 2.6527 0
M  V30 2445 H 230.606 2.70917 1.27454 0
M  V30 2446 H 228.152 1.30362 0.6117 0
M  V30 2447 H 230.105 2.12328 3.63999 0
M  V30 2448 H 228.829 0.999632 3.10926 0
M  V30 2449 H 227.488 2.93009 2.20321 0
M  V30 2450 H 227.136 2.14277 4.55076 0
M  V30 2451 H 226.836 3.89247 4.40183 0
M  V30 2452 H 228.36 3.31073 5.13053 0
M  V30 2453 H 229.774 4.67683 3.31581 0
M  V30 2454 H 228.171 5.29564 2.82281 0
M  V30 2455 H 229.241 4.57507 1.60671 0
M  V30 2456 N 230.584 -0.659388 1.43143 0
M  V30 2457 C 231.516 -1.7849 1.43784 0
M  V30 2458 C 232.529 -1.5932 0.334787 0
M  V30 2459 O 233.718 -1.68155 0.598842 0
M  V30 2460 C 230.818 -3.15828 1.22906 0
M  V30 2461 C 229.991 -3.61711 2.45934 0
M  V30 2462 C 229.05 -4.77831 2.20371 0
M  V30 2463 O 228.076 -4.87586 2.93681 0
M  V30 2464 N 229.278 -5.67611 1.21647 0
M  V30 2465 H 232.043 -1.7842 2.40803 0
M  V30 2466 H 229.604 -0.84302 1.3822 0
M  V30 2467 H 231.596 -3.91189 1.03697 0
M  V30 2468 H 230.166 -3.10707 0.343542 0
M  V30 2469 H 229.386 -2.76861 2.80609 0
M  V30 2470 H 230.674 -3.89112 3.27825 0
M  V30 2471 H 230.072 -5.62397 0.610449 0
M  V30 2472 H 228.629 -6.42719 1.08423 0
M  V30 2473 N 232.062 -1.29571 -0.897171 0
M  V30 2474 C 232.972 -1.16808 -2.03453 0
M  V30 2475 C 233.988 -0.0907471 -1.73763 0
M  V30 2476 O 235.164 -0.303312 -1.99103 0
M  V30 2477 C 232.229 -0.848264 -3.36163 0
M  V30 2478 C 231.29 -2.0097 -3.79354 0
M  V30 2479 C 230.523 -1.70505 -5.05731 0
M  V30 2480 O 230.746 -0.62718 -5.66941 0
M  V30 2481 O 229.68 -2.5538 -5.45036 0
M  V30 2482 H 233.506 -2.12325 -2.17144 0
M  V30 2483 H 231.091 -1.09047 -1.02123 0
M  V30 2484 H 232.973 -0.684581 -4.15802 0
M  V30 2485 H 231.648 0.0771071 -3.23608 0
M  V30 2486 H 230.555 -2.22863 -3.00471 0
M  V30 2487 H 231.888 -2.91636 -3.96496 0
M  V30 2488 N 233.54 1.10788 -1.12088 0
M  V30 2489 C 234.503 2.15207 -0.788577 0
M  V30 2490 C 235.503 1.59609 0.195317 0
M  V30 2491 O 236.693 1.74174 -0.0300193 0
M  V30 2492 C 233.825 3.4047 -0.171174 0
M  V30 2493 H 235.018 2.46116 -1.71368 0
M  V30 2494 H 232.571 1.26089 -0.923652 0
M  V30 2495 H 233.306 3.15176 0.763832 0
M  V30 2496 H 233.091 3.82109 -0.879514 0
M  V30 2497 H 234.581 4.17576 0.04496 0
M  V30 2498 N 235.018 0.912232 1.28515 0
M  V30 2499 C 236.264 0.545405 1.95328 0
M  V30 2500 C 236.597 -0.908313 1.71649 0
M  V30 2501 O 235.872 -1.64575 1.03659 0
M  V30 2502 C 236.155 0.853483 3.4984 0
M  V30 2503 C 236.008 2.35982 3.82926 0
M  V30 2504 C 237.327 0.348589 4.38717 0
M  V30 2505 H 234.446 0.199626 0.709449 0
M  V30 2506 H 237.088 1.1412 1.5191 0
M  V30 2507 H 235.238 0.34643 3.86952 0
M  V30 2508 H 236.91 2.93738 3.55691 0
M  V30 2509 H 235.153 2.81543 3.30024 0
M  V30 2510 H 235.824 2.52593 4.90816 0
M  V30 2511 H 238.3 0.78294 4.08668 0
M  V30 2512 H 237.176 0.593242 5.45685 0
M  V30 2513 H 237.437 -0.751049 4.35674 0
M  V30 2514 N 236.496 -1.42363 0.676048 0
M  V30 2515 C 237.428 -2.29164 -0.0404605 0
M  V30 2516 C 238.441 -1.43747 -0.764245 0
M  V30 2517 O 239.63 -1.67453 -0.618195 0
M  V30 2518 C 236.73 -3.21196 -1.08103 0
M  V30 2519 C 235.903 -4.35273 -0.430812 0
M  V30 2520 C 234.962 -5.08017 -1.37133 0
M  V30 2521 O 233.988 -5.62494 -0.87116 0
M  V30 2522 N 235.19 -5.13647 -2.70456 0
M  V30 2523 H 237.955 -2.91298 0.704667 0
M  V30 2524 H 235.516 -1.53303 0.520559 0
M  V30 2525 H 237.508 -3.66728 -1.71152 0
M  V30 2526 H 236.078 -2.60505 -1.72788 0
M  V30 2527 H 235.298 -3.92372 0.379209 0
M  V30 2528 H 236.586 -5.08795 0.0221132 0
M  V30 2529 H 235.984 -4.708 -3.1363 0
M  V30 2530 H 234.541 -5.62821 -3.28749 0
M  V30 2531 N 237.974 -0.419461 -1.51915 0
M  V30 2532 C 239.39 -0.0708431 -1.59443 0
M  V30 2533 C 239.59 1.41796 -1.43164 0
M  V30 2534 O 238.646 2.18596 -1.26381 0
M  V30 2535 C 239.959 -0.574991 -2.95151 0
M  V30 2536 C 241.507 -0.533867 -3.08413 0
M  V30 2537 C 241.982 -1.01469 -4.46618 0
M  V30 2538 N 243.473 -0.971939 -4.52888 0
M  V30 2539 C 244.208 -1.31505 -5.58116 0
M  V30 2540 N 243.704 -1.73014 -6.70849 0
M  V30 2541 N 245.497 -1.23436 -5.48379 0
M  V30 2542 H 237.648 -1.38836 -1.60743 0
M  V30 2543 H 239.911 -0.570998 -0.756747 0
M  V30 2544 H 239.617 -1.61597 -3.12377 0
M  V30 2545 H 239.491 0.00979777 -3.77199 0
M  V30 2546 H 241.878 0.498086 -2.90866 0
M  V30 2547 H 241.959 -1.15484 -2.28248 0
M  V30 2548 H 241.603 -2.04502 -4.6491 0
M  V30 2549 H 241.533 -0.370433 -5.25295 0
M  V30 2550 H 244.024 -0.666893 -3.71969 0
M  V30 2551 H 244.337 -1.97479 -7.47143 0
M  V30 2552 H 242.682 -1.76926 -6.72103 0
M  V30 2553 H 245.873 -0.908869 -4.59192 0
M  V30 2554 H 246.046 -1.50506 -6.30279 0
M  V30 2555 N 239.452 1.56882 -0.150215 0
M  V30 2556 C 240.7 1.9584 0.499105 0
M  V30 2557 C 241.021 1.03623 1.65188 0
M  V30 2558 O 240.291 0.0984084 1.95653 0
M  V30 2559 H 238.871 0.723119 0.187373 0
M  V30 2560 H 241.533 1.9358 -0.226466 0
M  V30 2561 H 240.629 2.99638 0.873122 0
M  V30 2562 N 240.93 -0.123565 1.57115 0
M  V30 2563 C 242.207 -0.862196 1.75572 0
M  V30 2564 C 242.587 -1.98279 0.724475 0
M  V30 2565 O 241.935 -2.27102 -0.252407 0
M  V30 2566 C 242.145 -1.38309 3.20424 0
M  V30 2567 C 243.493 -1.83724 3.82793 0
M  V30 2568 O 244.517 -1.47999 3.23998 0
M  V30 2569 O 243.376 -2.49685 4.86127 0
M  V30 2570 H 240.47 -0.409113 0.718718 0
M  V30 2571 H 243.016 -0.107661 1.69358 0
M  V30 2572 H 241.788 -0.578889 3.86994 0
M  V30 2573 H 241.411 -2.20046 3.31158 0
M  V30 2574 N 242.408 -1.52605 -0.393616 0
M  V30 2575 C 243.636 -1.71294 -1.16043 0
M  V30 2576 C 244.051 -0.429259 -1.83855 0
M  V30 2577 O 243.408 0.595921 -1.72496 0
M  V30 2578 C 243.459 -2.8593 -2.21193 0
M  V30 2579 O 243.18 -4.09329 -1.56146 0
M  V30 2580 C 244.681 -3.16259 -3.10636 0
M  V30 2581 H 241.901 -0.573641 -0.348104 0
M  V30 2582 H 244.445 -1.99234 -0.461092 0
M  V30 2583 H 242.6 -2.60465 -2.86769 0
M  V30 2584 H 243.014 -4.73323 -2.25978 0
M  V30 2585 H 244.488 -3.99946 -3.80456 0
M  V30 2586 H 244.965 -2.3045 -3.73884 0
M  V30 2587 H 245.571 -3.43547 -2.50711 0
M  V30 2588 N 243.887 0.651787 -1.4349 0
M  V30 2589 C 245.164 1.40909 -1.35661 0
M  V30 2590 C 245.544 2.11099 -0.00511733 0
M  V30 2591 O 244.892 2.04892 1.0115 0
M  V30 2592 C 245.102 2.3926 -2.54078 0
M  V30 2593 C 246.45 3.03217 -2.97228 0
M  V30 2594 O 247.474 2.49588 -2.54135 0
M  V30 2595 O 246.333 4.00455 -3.71885 0
M  V30 2596 H 243.427 0.629625 -0.536191 0
M  V30 2597 H 245.973 0.678575 -1.55542 0
M  V30 2598 H 244.745 1.86352 -3.44076 0
M  V30 2599 H 244.368 3.1976 -2.36303 0
M  V30 2600 N 245.365 1.30045 0.890287 0
M  V30 2601 C 246.612 1.18561 1.64163 0
M  V30 2602 C 246.94 -0.260852 1.92743 0
M  V30 2603 O 246.195 -1.20376 1.54299 0
M  V30 2604 C 246.494 1.95409 2.99249 0
M  V30 2605 C 246.16 3.45066 2.90242 0
M  V30 2606 C 244.822 3.85878 2.87492 0
M  V30 2607 C 247.174 4.4039 2.78758 0
M  V30 2608 C 244.502 5.20314 2.7109 0
M  V30 2609 C 246.854 5.74928 2.63894 0
M  V30 2610 C 245.518 6.14986 2.59516 0
M  V30 2611 H 244.788 0.433846 0.600715 0
M  V30 2612 H 247.435 1.61088 1.03552 0
M  V30 2613 H 245.74 1.45501 3.63781 0
M  V30 2614 H 247.437 1.8392 3.56334 0
M  V30 2615 H 244.027 3.12631 2.93189 0
M  V30 2616 H 248.211 4.09806 2.79952 0
M  V30 2617 H 243.467 5.50449 2.66112 0
M  V30 2618 H 247.641 6.48434 2.53981 0
M  V30 2619 H 245.268 7.19104 2.46565 0
M  V30 2620 N 246.843 -1.10192 1.12674 0
M  V30 2621 C 248.259 -1.34235 0.863317 0
M  V30 2622 C 248.459 -1.95062 -0.505277 0
M  V30 2623 O 247.515 -2.19192 -1.25345 0
M  V30 2624 C 248.828 -2.2616 1.98172 0
M  V30 2625 C 250.376 -2.3969 2.0129 0
M  V30 2626 C 250.851 -3.34946 3.1237 0
M  V30 2627 N 252.342 -3.42515 3.11829 0
M  V30 2628 C 253.077 -4.16199 3.94419 0
M  V30 2629 N 252.573 -4.92747 4.87004 0
M  V30 2630 N 254.366 -4.11843 3.82547 0
M  V30 2631 H 246.517 -0.690798 2.00853 0
M  V30 2632 H 248.78 -0.366774 0.874174 0
M  V30 2633 H 248.486 -1.8868 2.96804 0
M  V30 2634 H 248.36 -3.26488 1.88906 0
M  V30 2635 H 250.747 -2.76438 1.03276 0
M  V30 2636 H 250.828 -1.39169 2.14629 0
M  V30 2637 H 250.472 -2.98923 4.10619 0
M  V30 2638 H 250.402 -4.35353 2.96269 0
M  V30 2639 H 252.893 -2.87926 2.44759 0
M  V30 2640 H 253.206 -5.46376 5.46528 0
M  V30 2641 H 251.551 -4.91862 4.91016 0
M  V30 2642 H 254.742 -3.51136 3.0955 0
M  V30 2643 H 254.915 -4.69007 4.47142 0
M  V30 2644 N 248.321 -0.919034 -1.28029 0
M  V30 2645 C 249.569 -0.553838 -1.94363 0
M  V30 2646 C 249.89 0.906357 -1.72656 0
M  V30 2647 O 249.16 1.64143 -1.0693 0
M  V30 2648 H 247.74 -0.201834 -0.719216 0
M  V30 2649 H 250.402 -1.16954 -1.55909 0
M  V30 2650 H 249.498 -0.752758 -3.02886 0
M  V30 2651 N 249.799 1.42003 -0.683588 0
M  V30 2652 C 250.729 2.33487 -0.024866 0
M  V30 2653 C 251.71 1.51163 0.779975 0
M  V30 2654 O 252.895 1.79739 0.735362 0
M  V30 2655 C 250.025 3.3487 0.920836 0
M  V30 2656 C 248.979 4.27414 0.223958 0
M  V30 2657 C 248.305 5.19074 1.2832 0
M  V30 2658 C 249.605 5.14445 -0.90242 0
M  V30 2659 H 251.299 2.88819 -0.788921 0
M  V30 2660 H 248.845 1.38873 -0.38083 0
M  V30 2661 H 250.798 3.97787 1.39081 0
M  V30 2662 H 249.522 2.77861 1.71642 0
M  V30 2663 H 248.181 3.65904 -0.225864 0
M  V30 2664 H 247.829 4.58387 2.071 0
M  V30 2665 H 247.529 5.81822 0.821995 0
M  V30 2666 H 249.053 5.84867 1.75392 0
M  V30 2667 H 250.467 5.70998 -0.513272 0
M  V30 2668 H 248.864 5.86072 -1.28997 0
M  V30 2669 H 249.934 4.52322 -1.74737 0
M  V30 2670 N 251.277 0.427512 1.51691 0
M  V30 2671 C 252.523 -0.142439 2.02299 0
M  V30 2672 C 252.856 -1.43214 1.31162 0
M  V30 2673 O 252.131 -1.89833 0.423511 0
M  V30 2674 C 252.414 -0.371301 3.58181 0
M  V30 2675 C 252.267 0.936358 4.39946 0
M  V30 2676 C 253.586 -1.14542 4.24933 0
M  V30 2677 H 250.705 -0.0502937 0.735282 0
M  V30 2678 H 253.347 0.564584 1.81418 0
M  V30 2679 H 251.497 -0.973559 3.76104 0
M  V30 2680 H 253.169 1.57184 4.33694 0
M  V30 2681 H 251.412 1.5432 4.05423 0
M  V30 2682 H 252.083 0.730388 5.47147 0
M  V30 2683 H 254.559 -0.635362 4.11221 0
M  V30 2684 H 253.435 -1.27431 5.33903 0
M  V30 2685 H 253.696 -2.17093 3.85127 0
M  V30 2686 N 252.755 -1.56801 0.158532 0
M  V30 2687 C 253.665 -2.20916 -0.789518 0
M  V30 2688 C 254.681 -1.1969 -1.26294 0
M  V30 2689 O 255.857 -1.52308 -1.31773 0
M  V30 2690 C 252.922 -2.82727 -2.00665 0
M  V30 2691 C 251.983 -3.99114 -1.58134 0
M  V30 2692 C 251.216 -4.57968 -2.74045 0
M  V30 2693 O 251.439 -4.15704 -3.90572 0
M  V30 2694 O 250.373 -5.48047 -2.48855 0
M  V30 2695 H 254.199 -3.02464 -0.273681 0
M  V30 2696 H 251.784 -1.4924 -0.0690548 0
M  V30 2697 H 253.666 -3.21968 -2.71872 0
M  V30 2698 H 252.341 -2.04184 -2.51179 0
M  V30 2699 H 251.248 -3.64567 -0.839155 0
M  V30 2700 H 252.581 -4.79212 -1.12325 0
M  V30 2701 N 254.233 0.115231 -1.57178 0
M  V30 2702 C 255.649 0.468877 -1.52557 0
M  V30 2703 C 255.849 1.81649 -0.872125 0
M  V30 2704 O 254.905 2.48347 -0.45606 0
M  V30 2705 C 256.218 0.4499 -2.97315 0
M  V30 2706 C 257.766 0.533185 -3.08425 0
M  V30 2707 C 258.241 0.54456 -4.54751 0
M  V30 2708 N 259.732 0.605892 -4.5922 0
M  V30 2709 C 260.467 0.636203 -5.6986 0
M  V30 2710 N 259.963 0.623931 -6.89985 0
M  V30 2711 N 261.756 0.679496 -5.57978 0
M  V30 2712 H 253.907 -0.767712 -1.9804 0
M  V30 2713 H 256.17 -0.283609 -0.904583 0
M  V30 2714 H 255.876 -0.472721 -3.48509 0
M  V30 2715 H 255.75 1.27632 -3.5495 0
M  V30 2716 H 258.137 1.44623 -2.57232 0
M  V30 2717 H 258.218 -0.320995 -2.53778 0
M  V30 2718 H 257.862 -0.364452 -5.06591 0
M  V30 2719 H 257.792 1.41568 -5.07214 0
M  V30 2720 H 260.283 0.621386 -3.72756 0
M  V30 2721 H 260.596 0.649787 -7.70063 0
M  V30 2722 H 258.941 0.591296 -6.9248 0
M  V30 2723 H 262.132 0.686472 -4.63039 0
M  V30 2724 H 262.305 0.69965 -6.44212 0
M  V30 2725 N 255.711 1.52812 0.385517 0
M  V30 2726 C 256.641 1.80808 1.47752 0
M  V30 2727 C 257.622 0.660318 1.5676 0
M  V30 2728 O 258.807 0.908246 1.71652 0
M  V30 2729 C 255.937 1.98008 2.85324 0
M  V30 2730 C 254.891 3.13709 2.91154 0
M  V30 2731 C 254.217 3.16169 4.31209 0
M  V30 2732 C 255.517 4.52709 2.60483 0
M  V30 2733 H 257.211 2.72253 1.24573 0
M  V30 2734 H 254.757 1.31003 0.597839 0
M  V30 2735 H 256.71 2.16176 3.61726 0
M  V30 2736 H 255.434 1.03255 3.09848 0
M  V30 2737 H 254.093 2.95329 2.17201 0
M  V30 2738 H 253.741 2.19092 4.52778 0
M  V30 2739 H 253.441 3.93894 4.36029 0
M  V30 2740 H 254.965 3.36496 5.09512 0
M  V30 2741 H 256.379 4.71173 3.26602 0
M  V30 2742 H 254.776 5.32528 2.76648 0
M  V30 2743 H 255.846 4.59186 1.55809 0
M  V30 2744 N 257.189 -0.644168 1.43834 0
M  V30 2745 C 258.152 -1.73857 1.49353 0
M  V30 2746 C 259.152 -1.56315 0.377112 0
M  V30 2747 O 260.342 -1.62048 0.639226 0
M  V30 2748 C 257.474 -3.12819 1.35488 0
M  V30 2749 H 258.667 -1.70342 2.46827 0
M  V30 2750 H 256.22 -0.856652 1.30733 0
M  V30 2751 H 256.955 -3.2194 0.390569 0
M  V30 2752 H 256.74 -3.26958 2.16428 0
M  V30 2753 H 258.23 -3.92606 1.42302 0
M  V30 2754 N 258.668 -1.30515 -0.883378 0
M  V30 2755 C 259.578 -1.18959 -2.02203 0
M  V30 2756 C 260.594 -0.109172 -1.73657 0
M  V30 2757 O 261.77 -0.324413 -1.9877 0
M  V30 2758 C 258.835 -0.883871 -3.35244 0
M  V30 2759 C 257.896 -2.04982 -3.77201 0
M  V30 2760 C 257.129 -1.75859 -5.03894 0
M  V30 2761 O 257.352 -0.687276 -5.66244 0
M  V30 2762 O 256.286 -2.61146 -5.42297 0
M  V30 2763 H 260.112 -2.14616 -2.1488 0
M  V30 2764 H 257.697 -1.10124 -1.0096 0
M  V30 2765 H 259.579 -0.728644 -4.15053 0
M  V30 2766 H 258.254 0.0427798 -3.23672 0
M  V30 2767 H 257.161 -2.26038 -2.9809 0
M  V30 2768 H 258.494 -2.95825 -3.93381 0
M  V30 2769 N 260.146 1.09593 -1.13257 0
M  V30 2770 C 261.076 2.18214 -0.830946 0
M  V30 2771 C 262.057 1.68812 0.208966 0
M  V30 2772 O 263.242 1.9408 0.0682666 0
M  V30 2773 C 260.372 3.46051 -0.294296 0
M  V30 2774 C 259.326 4.08778 -1.26826 0
M  V30 2775 C 258.652 5.31419 -0.591449 0
M  V30 2776 C 259.952 4.51476 -2.62615 0
M  V30 2777 H 261.646 2.43703 -1.73923 0
M  V30 2778 H 259.192 1.17128 -0.837675 0
M  V30 2779 H 261.145 4.2134 -0.0709606 0
M  V30 2780 H 259.869 3.20079 0.649366 0
M  V30 2781 H 258.528 3.35505 -1.47756 0
M  V30 2782 H 258.176 5.01727 0.357633 0
M  V30 2783 H 257.876 5.74341 -1.24123 0
M  V30 2784 H 259.4 6.09433 -0.377355 0
M  V30 2785 H 260.814 5.17999 -2.45663 0
M  V30 2786 H 259.211 5.05277 -3.23752 0
M  V30 2787 H 260.281 3.63962 -3.20406 0
M  V30 2788 N 261.624 0.925811 1.2754 0
M  V30 2789 C 262.554 0.440748 2.29303 0
M  V30 2790 C 263.535 -0.497971 1.62648 0
M  V30 2791 O 264.72 -0.403126 1.8997 0
M  V30 2792 C 261.85 -0.309048 3.45922 0
M  V30 2793 C 260.804 0.54166 4.24559 0
M  V30 2794 C 260.13 -0.337191 5.33636 0
M  V30 2795 C 261.43 1.80516 4.90114 0
M  V30 2796 H 263.124 1.29121 2.70126 0
M  V30 2797 H 260.67 0.622323 1.29858 0
M  V30 2798 H 262.623 -0.659315 4.1621 0
M  V30 2799 H 261.347 -1.19352 3.04011 0
M  V30 2800 H 260.006 0.874609 3.56014 0
M  V30 2801 H 259.654 -1.22056 4.87966 0
M  V30 2802 H 259.354 0.228497 5.87156 0
M  V30 2803 H 260.878 -0.683072 6.06767 0
M  V30 2804 H 262.292 1.52307 5.52698 0
M  V30 2805 H 260.689 2.3142 5.53683 0
M  V30 2806 H 261.759 2.52581 4.13921 0
M  V30 2807 N 263.102 -1.41638 0.69111 0
M  V30 2808 C 264.513 -1.84346 0.295517 0
M  V30 2809 C 264.864 -1.57833 -1.16547 0
M  V30 2810 O 263.989 -1.04648 -1.89414 0
M  V30 2811 C 264.584 -3.34636 0.529575 0
M  V30 2812 C 263.143 -3.7593 0.187944 0
M  V30 2813 C 262.29 -2.65082 0.814052 0
M  V30 2814 H 265.241 -1.31253 0.892092 0
M  V30 2815 H 265.262 -3.79903 -0.213148 0
M  V30 2816 H 264.774 -3.53901 1.59297 0
M  V30 2817 H 262.875 -3.62268 -0.871367 0
M  V30 2818 H 262.988 -4.74808 0.63985 0
M  V30 2819 H 261.352 -2.53528 0.244017 0
M  V30 2820 H 262.135 -2.87167 1.88123 0
M  V30 2821 N 264.58 -0.43555 -1.51462 0
M  V30 2822 C 265.51 0.367376 -2.30592 0
M  V30 2823 C 266.491 1.02263 -1.35928 0
M  V30 2824 O 267.676 1.02661 -1.64847 0
M  V30 2825 C 264.806 1.46983 -3.14664 0
M  V30 2826 C 263.76 0.938161 -4.17591 0
M  V30 2827 C 263.086 2.13622 -4.90173 0
M  V30 2828 C 264.386 -0.0261621 -5.22293 0
M  V30 2829 H 266.08 -0.292969 -2.97963 0
M  V30 2830 H 263.626 -0.14234 -1.43295 0
M  V30 2831 H 265.579 2.03873 -3.688 0
M  V30 2832 H 264.303 2.15843 -2.4511 0
M  V30 2833 H 262.962 0.391481 -3.64504 0
M  V30 2834 H 262.61 2.81098 -4.17124 0
M  V30 2835 H 262.31 1.78688 -5.59772 0
M  V30 2836 H 263.834 2.7107 -5.47132 0
M  V30 2837 H 265.248 0.452384 -5.71512 0
M  V30 2838 H 263.645 -0.287992 -5.99409 0
M  V30 2839 H 264.715 -0.963391 -4.75233 0
M  V30 2840 N 266.058 1.56714 -0.166846 0
M  V30 2841 C 267.469 1.83378 0.350646 0
M  V30 2842 C 267.82 1.08646 1.63372 0
M  V30 2843 O 266.945 0.338058 2.13743 0
M  V30 2844 C 267.54 3.32643 0.642963 0
M  V30 2845 C 266.099 3.59818 1.10491 0
M  V30 2846 C 265.246 2.76954 0.138411 0
M  V30 2847 H 268.197 1.53803 -0.391193 0
M  V30 2848 H 268.218 3.49878 1.49551 0
M  V30 2849 H 267.73 3.87007 -0.291055 0
M  V30 2850 H 265.831 3.1086 2.05418 0
M  V30 2851 H 265.944 4.68178 1.01716 0
M  V30 2852 H 264.308 2.4666 0.634911 0
M  V30 2853 H 265.091 3.34097 -0.789549 0
M  V30 2854 N 267.536 -0.106894 1.57237 0
M  V30 2855 C 268.783 -0.812526 1.85484 0
M  V30 2856 C 269.111 -1.79304 0.753687 0
M  V30 2857 O 268.366 -1.94047 -0.253853 0
M  V30 2858 C 268.665 -1.58628 3.20268 0
M  V30 2859 C 268.331 -0.748967 4.44636 0
M  V30 2860 C 266.993 -0.518104 4.78403 0
M  V30 2861 C 269.345 -0.166122 5.20935 0
M  V30 2862 C 266.673 0.305659 5.85903 0
M  V30 2863 C 269.025 0.644899 6.29304 0
M  V30 2864 C 267.689 0.885965 6.61594 0
M  V30 2865 H 266.959 -0.297324 0.678734 0
M  V30 2866 H 269.606 -0.0744332 1.91355 0
M  V30 2867 H 267.911 -2.39562 3.10028 0
M  V30 2868 H 269.608 -2.13643 3.39349 0
M  V30 2869 H 266.198 -0.939006 4.18187 0
M  V30 2870 H 270.382 -0.33167 4.95191 0
M  V30 2871 H 265.638 0.501528 6.0934 0
M  V30 2872 H 269.812 1.10345 6.87602 0
M  V30 2873 H 267.439 1.52609 7.44725 0
M  V30 2874 N 269.014 -1.53014 -0.377408 0
M  V30 2875 C 270.425 -1.60438 -0.954798 0
M  V30 2876 C 270.776 -0.464418 -1.90624 0
M  V30 2877 O 269.901 0.41087 -2.12464 0
M  V30 2878 C 270.496 -2.90797 -1.73847 0
M  V30 2879 C 269.055 -3.00595 -2.26538 0
M  V30 2880 C 268.202 -2.55645 -1.07429 0
M  V30 2881 H 271.153 -1.57926 -0.156575 0
M  V30 2882 H 271.174 -2.77935 -2.5987 0
M  V30 2883 H 270.686 -3.73746 -1.04574 0
M  V30 2884 H 268.787 -2.22208 -2.99089 0
M  V30 2885 H 268.9 -4.05456 -2.5523 0
M  V30 2886 H 267.264 -2.10239 -1.43777 0
M  V30 2887 H 268.047 -3.41 -0.396728 0
M  V30 2888 N 270.492 0.636531 -1.44174 0
M  V30 2889 C 271.738 1.39826 -1.4689 0
M  V30 2890 C 272.071 1.93947 -0.0990585 0
M  V30 2891 O 271.346 1.73325 0.882544 0
M  V30 2892 C 271.629 2.56751 -2.5249 0
M  V30 2893 C 271.482 2.08014 -3.98811 0
M  V30 2894 C 272.801 3.58946 -2.54649 0
M  V30 2895 H 269.92 0.507075 -0.53483 0
M  V30 2896 H 272.562 0.720188 -1.75822 0
M  V30 2897 H 270.712 3.14597 -2.2795 0
M  V30 2898 H 272.384 1.5504 -4.34466 0
M  V30 2899 H 270.627 1.39242 -4.10846 0
M  V30 2900 H 271.298 2.92169 -4.68339 0
M  V30 2901 H 273.774 3.1089 -2.76563 0
M  V30 2902 H 272.65 4.38286 -3.3045 0
M  V30 2903 H 272.911 4.12655 -1.58646 0
M  V30 2904 N 271.97 1.30982 0.876444 0
M  V30 2905 C 272.903 1.12414 1.98591 0
M  V30 2906 C 273.881 0.0294078 1.62573 0
M  V30 2907 O 275.065 0.184598 1.87594 0
M  V30 2908 C 272.192 0.716276 3.3104 0
M  V30 2909 C 271.238 1.81311 3.86042 0
M  V30 2910 S 272.071 3.41727 4.1229 0
M  V30 2911 C 273.227 3.02863 5.47745 0
M  V30 2912 H 273.46 2.06338 2.14037 0
M  V30 2913 H 270.993 1.15393 1.02586 0
M  V30 2914 H 272.951 0.487697 4.07593 0
M  V30 2915 H 271.612 -0.203749 3.13438 0
M  V30 2916 H 270.805 1.48021 4.81774 0
M  V30 2917 H 270.407 1.99641 3.16259 0
M  V30 2918 H 272.699 2.51353 6.29148 0
M  V30 2919 H 273.642 3.97533 5.8598 0
M  V30 2920 H 274.05 2.40487 5.10711 0
M  V30 2921 N 273.449 -1.08991 1.13837 0
M  V30 2922 C 274.695 -1.81526 0.90422 0
M  V30 2923 C 275.028 -1.85706 -0.568066 0
M  V30 2924 O 274.303 -1.32855 -1.42056 0
M  V30 2925 C 274.586 -3.27447 1.49835 0
M  V30 2926 C 274.439 -3.31512 3.04006 0
M  V30 2927 C 275.758 -4.24256 1.17025 0
M  V30 2928 H 272.877 -0.659029 0.329923 0
M  V30 2929 H 275.519 -1.27644 1.40737 0
M  V30 2930 H 273.669 -3.73462 1.07044 0
M  V30 2931 H 275.341 -2.93867 3.55584 0
M  V30 2932 H 273.584 -2.70963 3.38765 0
M  V30 2933 H 274.255 -4.34329 3.40679 0
M  V30 2934 H 276.731 -3.86549 1.54009 0
M  V30 2935 H 275.607 -5.24684 1.61237 0
M  V30 2936 H 275.868 -4.42019 0.0846274 0
M  V30 2937 N 274.927 -0.932562 -1.27047 0
M  V30 2938 C 275.874 -0.434072 -2.26681 0
M  V30 2939 C 276.844 0.501639 -1.58344 0
M  V30 2940 O 278.029 0.419734 -1.86126 0
M  V30 2941 C 275.169 0.30261 -3.43771 0
M  V30 2942 C 274.282 -0.667774 -4.26808 0
M  V30 2943 C 273.417 0.0892393 -5.31125 0
M  V30 2944 C 272.456 -0.873532 -6.05835 0
M  V30 2945 N 271.593 -0.148832 -7.01942 0
M  V30 2946 H 276.433 -1.28868 -2.68695 0
M  V30 2947 H 273.97 -0.646713 -1.32121 0
M  V30 2948 H 275.928 0.746092 -4.10474 0
M  V30 2949 H 274.558 1.12142 -3.02695 0
M  V30 2950 H 273.61 -1.22978 -3.59973 0
M  V30 2951 H 274.922 -1.40337 -4.78651 0
M  V30 2952 H 274.076 0.592409 -6.03801 0
M  V30 2953 H 272.815 0.85777 -4.80097 0
M  V30 2954 H 271.82 -1.38791 -5.31994 0
M  V30 2955 H 273.045 -1.64193 -6.58952 0
M  V30 2956 H 270.991 0.601365 -6.53238 0
M  V30 2957 H 270.908 -0.82391 -7.51497 0
M  V30 2958 H 272.176 0.333527 -7.78786 0
M  V30 2959 N 276.405 1.4127 -0.698611 0
M  V30 2960 C 277.315 2.34573 -0.0357891 0
M  V30 2961 C 278.331 1.56393 0.762701 0
M  V30 2962 O 279.507 1.8886 0.699564 0
M  V30 2963 C 276.572 3.35159 0.887089 0
M  V30 2964 C 275.633 4.29225 0.0804634 0
M  V30 2965 C 274.866 5.25006 0.959387 0
M  V30 2966 O 275.089 5.26314 2.19886 0
M  V30 2967 O 274.023 6.00519 0.407439 0
M  V30 2968 H 277.849 2.92838 -0.804957 0
M  V30 2969 H 275.434 1.42175 -0.458966 0
M  V30 2970 H 277.316 3.9689 1.41621 0
M  V30 2971 H 275.991 2.79333 1.6357 0
M  V30 2972 H 274.898 3.70833 -0.493328 0
M  V30 2973 H 276.231 4.88157 -0.629547 0
M  V30 2974 N 277.883 0.443576 1.51229 0
M  V30 2975 C 279.129 -0.120975 2.02439 0
M  V30 2976 C 279.462 -1.41815 1.32674 0
M  V30 2977 O 278.737 -1.89373 0.443622 0
M  V30 2978 C 279.02 -0.333291 3.58554 0
M  V30 2979 C 278.873 0.982968 4.38928 0
M  V30 2980 C 280.192 -1.10028 4.26124 0
M  V30 2981 H 277.311 -0.0424923 0.735774 0
M  V30 2982 H 279.953 0.583794 1.80809 0
M  V30 2983 H 278.103 -0.933614 3.77115 0
M  V30 2984 H 279.775 1.61775 4.32003 0
M  V30 2985 H 278.018 1.58611 4.03763 0
M  V30 2986 H 278.689 0.788379 5.46341 0
M  V30 2987 H 281.165 -0.591711 4.11871 0
M  V30 2988 H 280.041 -1.21761 5.35225 0
M  V30 2989 H 280.302 -2.12996 3.87408 0
M  V30 2990 N 279.361 -1.56624 0.175154 0
M  V30 2991 C 280.609 -1.96609 -0.467885 0
M  V30 2992 C 280.93 -1.06238 -1.63519 0
M  V30 2993 O 280.2 -0.129523 -1.95471 0
M  V30 2994 H 278.78 -0.726008 -0.175845 0
M  V30 2995 H 281.442 -1.93195 0.257234 0
M  V30 2996 H 280.538 -3.00989 -0.825342 0
M  V30 2997 N 280.839 0.0985539 -1.57292 0
M  V30 2998 C 281.789 1.1261 -1.9825 0
M  V30 2999 C 282.773 1.35961 -0.860426 0
M  V30 3000 O 283.965 1.36711 -1.12424 0
M  V30 3001 C 281.094 2.44727 -2.40757 0
M  V30 3002 C 280.18 2.24764 -3.59642 0
M  V30 3003 N 280.571 1.74661 -4.74687 0
M  V30 3004 C 278.869 2.55344 -3.65672 0
M  V30 3005 C 279.57 1.68887 -5.56644 0
M  V30 3006 N 278.546 2.13976 -4.99715 0
M  V30 3007 H 282.348 0.731604 -2.84648 0
M  V30 3008 H 279.862 0.306029 -1.59491 0
M  V30 3009 H 281.859 3.19072 -2.68326 0
M  V30 3010 H 280.519 2.84917 -1.55733 0
M  V30 3011 H 281.53 1.43908 -4.97505 0
M  V30 3012 H 278.207 2.99081 -2.91302 0
M  V30 3013 H 279.597 1.3123 -6.5896 0
M  V30 3014 N 282.317 1.53212 0.369288 0
M  V30 3015 C 283.565 1.68881 1.11012 0
M  V30 3016 C 283.886 0.441285 1.89941 0
M  V30 3017 O 283.156 -0.544623 1.88177 0
M  V30 3018 H 281.736 0.622569 0.412816 0
M  V30 3019 H 284.398 1.90391 0.416802 0
M  V30 3020 H 283.494 2.54822 1.80201 0
M  V30 3021 N 283.795 -0.628877 1.44509 0
M  V30 3022 C 284.725 -1.75187 1.54376 0
M  V30 3023 C 285.706 -1.65411 0.396618 0
M  V30 3024 O 286.891 -1.84137 0.617031 0
M  V30 3025 C 284.021 -3.13725 1.48976 0
M  V30 3026 C 282.975 -3.38291 2.62189 0
M  V30 3027 C 282.301 -4.76883 2.41841 0
M  V30 3028 C 283.601 -3.30632 4.04326 0
M  V30 3029 H 285.295 -1.67187 2.48373 0
M  V30 3030 H 282.841 -0.802909 1.19538 0
M  V30 3031 H 284.794 -3.92064 1.54478 0
M  V30 3032 H 283.518 -3.22515 0.514961 0
M  V30 3033 H 282.177 -2.62334 2.56079 0
M  V30 3034 H 281.825 -4.82378 1.42548 0
M  V30 3035 H 281.525 -4.94278 3.17747 0
M  V30 3036 H 283.049 -5.57449 2.49165 0
M  V30 3037 H 284.463 -3.98873 4.11793 0
M  V30 3038 H 282.86 -3.59561 4.80454 0
M  V30 3039 H 283.93 -2.28404 4.27738 0
M  V30 3040 N 285.273 -1.31445 -0.869486 0
M  V30 3041 C 286.498 -1.24256 -1.66058 0
M  V30 3042 C 286.923 0.188928 -1.87149 0
M  V30 3043 O 286.281 1.13522 -1.4136 0
M  V30 3044 C 286.329 -1.9924 -3.00559 0
M  V30 3045 O 285.433 -1.33007 -3.90362 0
M  V30 3046 H 284.774 -0.428973 -0.506831 0
M  V30 3047 H 287.304 -1.73521 -1.08404 0
M  V30 3048 H 287.314 -2.08854 -3.50491 0
M  V30 3049 H 285.989 -3.03342 -2.84528 0
M  V30 3050 H 284.566 -1.31848 -3.48813 0
M  V30 3051 N 286.751 1.08385 -1.14413 0
M  V30 3052 C 288.167 1.32844 -0.884563 0
M  V30 3053 C 288.367 1.95841 0.474181 0
M  V30 3054 O 287.423 2.21158 1.21842 0
M  V30 3055 C 288.736 2.22978 -2.01745 0
M  V30 3056 C 290.284 2.36458 -2.05077 0
M  V30 3057 C 290.759 3.29934 -3.1766 0
M  V30 3058 N 292.25 3.37511 -3.17239 0
M  V30 3059 C 292.985 4.09871 -4.0099 0
M  V30 3060 N 292.481 4.84936 -4.94781 0
M  V30 3061 N 294.274 4.05704 -3.89051 0
M  V30 3062 H 286.425 0.658756 -2.01926 0
M  V30 3063 H 288.688 0.352821 -0.879899 0
M  V30 3064 H 288.394 1.83934 -2.99769 0
M  V30 3065 H 288.268 3.23441 -1.94077 0
M  V30 3066 H 290.655 2.7476 -1.0766 0
M  V30 3067 H 290.736 1.35736 -2.16816 0
M  V30 3068 H 290.38 2.92352 -4.15322 0
M  V30 3069 H 290.31 4.30584 -3.03158 0
M  V30 3070 H 292.801 2.83996 -2.49308 0
M  V30 3071 H 293.114 5.37612 -5.55151 0
M  V30 3072 H 291.459 4.83988 -4.98779 0
M  V30 3073 H 294.65 3.46167 -3.15097 0
M  V30 3074 H 294.823 4.61834 -4.54547 0
M  V30 3075 N 288.23 0.939286 1.26551 0
M  V30 3076 C 289.14 0.453432 2.30176 0
M  V30 3077 C 290.156 -0.471649 1.67486 0
M  V30 3078 O 291.332 -0.35164 1.98306 0
M  V30 3079 C 288.397 -0.275326 3.45605 0
M  V30 3080 C 287.458 0.686084 4.23782 0
M  V30 3081 C 286.691 -0.00798994 5.33699 0
M  V30 3082 O 286.914 -1.22528 5.57085 0
M  V30 3083 O 285.848 0.669746 5.98162 0
M  V30 3084 H 289.674 1.31416 2.73795 0
M  V30 3085 H 287.259 0.705095 1.31715 0
M  V30 3086 H 289.141 -0.685911 4.1578 0
M  V30 3087 H 287.816 -1.11147 3.0402 0
M  V30 3088 H 286.723 1.14658 3.56096 0
M  V30 3089 H 288.056 1.48979 4.69112 0
M  V30 3090 N 289.708 -1.40897 0.706093 0
M  V30 3091 C 290.671 -2.29131 0.0562841 0
M  V30 3092 C 291.671 -1.44901 -0.697166 0
M  V30 3093 O 292.861 -1.65926 -0.530484 0
M  V30 3094 C 289.993 -3.27957 -0.93043 0
M  V30 3095 H 291.186 -2.88091 0.833284 0
M  V30 3096 H 288.739 -1.4906 0.470192 0
M  V30 3097 H 289.474 -2.73997 -1.73482 0
M  V30 3098 H 289.259 -3.90124 -0.393166 0
M  V30 3099 H 290.749 -3.94049 -1.38256 0
M  V30 3100 N 291.186 -0.45159 -1.50991 0
M  V30 3101 C 292.149 0.341117 -2.26647 0
M  V30 3102 C 293.149 0.937422 -1.30649 0
M  V30 3103 O 294.339 0.809644 -1.54241 0
M  V30 3104 C 291.471 1.48398 -3.06905 0
M  V30 3105 H 292.664 -0.322117 -2.98165 0
M  V30 3106 H 290.217 -0.205122 -1.54948 0
M  V30 3107 H 290.952 2.18284 -2.39838 0
M  V30 3108 H 290.737 1.06241 -3.77432 0
M  V30 3109 H 292.227 2.04367 -3.64176 0
M  V30 3110 N 292.664 1.56529 -0.183458 0
M  V30 3111 C 293.594 2.21549 0.737456 0
M  V30 3112 C 294.575 1.17489 1.23005 0
M  V30 3113 O 295.76 1.45959 1.281 0
M  V30 3114 C 292.89 2.86575 1.96194 0
M  V30 3115 C 291.844 3.96778 1.60473 0
M  V30 3116 C 291.17 4.48911 2.90487 0
M  V30 3117 C 292.47 5.15767 0.823497 0
M  V30 3118 H 294.164 2.98761 0.195453 0
M  V30 3119 H 291.71 1.43702 0.0925686 0
M  V30 3120 H 293.663 3.30739 2.61131 0
M  V30 3121 H 292.387 2.06749 2.52828 0
M  V30 3122 H 291.046 3.53286 0.978997 0
M  V30 3123 H 290.694 3.65862 3.45186 0
M  V30 3124 H 290.394 5.23265 2.67335 0
M  V30 3125 H 291.918 4.95771 3.56432 0
M  V30 3126 H 293.332 5.56549 1.37571 0
M  V30 3127 H 291.729 5.96114 0.690551 0
M  V30 3128 H 292.799 4.84574 -0.177782 0
M  V30 3129 N 294.142 -0.090211 1.57342 0
M  V30 3130 C 295.105 -1.09335 2.01441 0
M  V30 3131 C 296.105 -1.32666 0.908641 0
M  V30 3132 O 297.295 -1.28697 1.174 0
M  V30 3133 C 294.427 -2.44136 2.3793 0
M  V30 3134 H 295.62 -0.713662 2.91285 0
M  V30 3135 H 293.173 -0.335404 1.52659 0
M  V30 3136 H 293.908 -2.86972 1.51055 0
M  V30 3137 H 293.693 -2.28548 3.18603 0
M  V30 3138 H 295.183 -3.16277 2.72688 0
M  V30 3139 N 295.62 -1.53406 -0.361157 0
M  V30 3140 C 296.55 -1.83136 -1.44857 0
M  V30 3141 C 297.531 -0.685174 -1.5569 0
M  V30 3142 O 298.716 -0.93544 -1.70186 0
M  V30 3143 C 295.846 -2.02522 -2.82138 0
M  V30 3144 C 294.8 -3.18302 -2.86126 0
M  V30 3145 C 294.126 -3.22989 -4.26125 0
M  V30 3146 C 295.426 -4.56796 -2.53248 0
M  V30 3147 H 297.12 -2.74201 -1.20226 0
M  V30 3148 H 294.666 -1.31938 -0.576922 0
M  V30 3149 H 296.619 -2.21904 -3.58241 0
M  V30 3150 H 295.343 -1.08172 -3.08166 0
M  V30 3151 H 294.002 -2.98747 -2.12475 0
M  V30 3152 H 293.65 -2.26267 -4.49235 0
M  V30 3153 H 293.35 -4.00781 -4.29708 0
M  V30 3154 H 294.874 -3.44559 -5.04094 0
M  V30 3155 H 296.288 -4.7631 -3.19064 0
M  V30 3156 H 294.685 -5.36862 -2.68141 0
M  V30 3157 H 295.755 -4.61606 -1.48484 0
M  V30 3158 N 297.098 0.621204 -1.44841 0
M  V30 3159 C 298.514 0.94048 -1.28946 0
M  V30 3160 C 298.714 2.00154 -0.23249 0
M  V30 3161 O 297.77 2.49651 0.378237 0
M  V30 3162 C 299.083 1.39433 -2.66419 0
M  V30 3163 C 300.631 1.50927 -2.74208 0
M  V30 3164 C 301.106 1.99692 -4.12174 0
M  V30 3165 N 302.597 2.06947 -4.144 0
M  V30 3166 C 303.332 2.45871 -5.1801 0
M  V30 3167 N 302.828 2.83862 -6.31977 0
M  V30 3168 N 304.621 2.46092 -5.05366 0
M  V30 3169 H 296.772 -0.0803548 -2.12248 0
M  V30 3170 H 299.035 0.0266913 -0.947624 0
M  V30 3171 H 298.741 0.688925 -3.44887 0
M  V30 3172 H 298.615 2.36347 -2.93973 0
M  V30 3173 H 301.002 2.20561 -1.96053 0
M  V30 3174 H 301.083 0.523627 -2.50383 0
M  V30 3175 H 300.727 1.30649 -4.90809 0
M  V30 3176 H 300.657 2.99146 -4.33381 0
M  V30 3177 H 303.148 1.80232 -3.32152 0
M  V30 3178 H 303.461 3.12405 -7.0684 0
M  V30 3179 H 301.806 2.8159 -6.35399 0
M  V30 3180 H 304.997 2.1581 -4.15384 0
M  V30 3181 H 305.17 2.76102 -5.86235 0
M  V30 3182 N 298.576 1.31904 0.862503 0
M  V30 3183 C 299.853 1.12644 1.59908 0
M  V30 3184 C 300.233 -0.316104 2.0872 0
M  V30 3185 O 299.581 -1.31145 1.87118 0
M  V30 3186 C 299.791 2.1472 2.7513 0
M  V30 3187 C 301.139 2.47637 3.44907 0
M  V30 3188 O 302.163 2.13205 2.85346 0
M  V30 3189 O 301.022 3.06632 4.52371 0
M  V30 3190 H 298.116 0.43416 0.703871 0
M  V30 3191 H 300.662 1.43408 0.907314 0
M  V30 3192 H 299.434 3.1172 2.3653 0
M  V30 3193 H 299.057 1.84905 3.51989 0
M  V30 3194 N 300.054 -1.07777 1.14986 0
M  V30 3195 C 300.984 -2.16865 0.865557 0
M  V30 3196 C 301.965 -1.69123 -0.182083 0
M  V30 3197 O 303.15 -1.94164 -0.0373815 0
M  V30 3198 C 300.28 -3.45539 0.349313 0
M  V30 3199 C 299.234 -4.06708 1.33313 0
M  V30 3200 C 298.56 -5.30411 0.675918 0
M  V30 3201 C 299.86 -4.47241 2.69764 0
M  V30 3202 H 301.554 -2.40905 1.77778 0
M  V30 3203 H 299.1 -1.15781 0.856203 0
M  V30 3204 H 301.053 -4.21174 0.137983 0
M  V30 3205 H 299.777 -3.21072 -0.598362 0
M  V30 3206 H 298.436 -3.33112 1.53075 0
M  V30 3207 H 298.084 -5.02232 -0.277767 0
M  V30 3208 H 297.784 -5.72293 1.33244 0
M  V30 3209 H 299.308 -6.08755 0.474262 0
M  V30 3210 H 300.722 -5.14025 2.53873 0
M  V30 3211 H 299.119 -5.00062 3.3175 0
M  V30 3212 H 300.189 -3.58818 3.26156 0
M  V30 3213 N 301.532 -0.945985 -1.26051 0
M  V30 3214 C 302.943 -0.638096 -1.75457 0
M  V30 3215 C 303.294 0.846672 -1.76991 0
M  V30 3216 O 302.419 1.66262 -1.38513 0
M  V30 3217 C 303.014 -1.15157 -3.18629 0
M  V30 3218 C 301.573 -0.894004 -3.65629 0
M  V30 3219 C 300.72 -1.29967 -2.44957 0
M  V30 3220 H 303.671 -1.12376 -1.1206 0
M  V30 3221 H 303.692 -0.507615 -3.77099 0
M  V30 3222 H 303.204 -2.23222 -3.1748 0
M  V30 3223 H 301.305 0.172057 -3.72203 0
M  V30 3224 H 301.418 -1.52439 -4.54202 0
M  V30 3225 H 299.782 -0.718078 -2.44368 0
M  V30 3226 H 300.565 -2.38935 -2.46505 0
M  V30 3227 N 303.011 1.40521 -0.713556 0
M  V30 3228 C 303.941 2.33381 -0.0743864 0
M  V30 3229 C 304.922 1.52784 0.747735 0
M  V30 3230 O 306.107 1.81258 0.697071 0
M  V30 3231 C 303.237 3.36748 0.849598 0
M  V30 3232 C 302.191 4.27793 0.133247 0
M  V30 3233 C 301.517 5.21679 1.17281 0
M  V30 3234 C 302.817 5.12415 -1.01134 0
M  V30 3235 H 304.511 2.87081 -0.850007 0
M  V30 3236 H 302.057 1.38034 -0.410201 0
M  V30 3237 H 304.01 4.00648 1.30612 0
M  V30 3238 H 302.734 2.81439 1.65709 0
M  V30 3239 H 301.393 3.65342 -0.303426 0
M  V30 3240 H 301.041 4.62677 1.9733 0
M  V30 3241 H 300.741 5.83435 0.698397 0
M  V30 3242 H 302.265 5.88456 1.62947 0
M  V30 3243 H 303.679 5.69781 -0.634274 0
M  V30 3244 H 302.076 5.83203 -1.41399 0
M  V30 3245 H 303.146 4.48514 -1.84292 0
M  V30 3246 N 304.489 0.459591 1.5075 0
M  V30 3247 C 305.452 -0.329093 2.26825 0
M  V30 3248 C 306.452 -0.930481 1.31144 0
M  V30 3249 O 307.642 -0.801453 1.54669 0
M  V30 3250 C 304.774 -1.46768 3.07688 0
M  V30 3251 H 305.967 0.337924 2.9799 0
M  V30 3252 H 303.52 0.213336 1.54837 0
M  V30 3253 H 304.255 -2.17009 2.40993 0
M  V30 3254 H 304.04 -1.04238 3.77991 0
M  V30 3255 H 305.53 -2.02433 3.65254 0
M  V30 3256 N 305.967 -1.56429 0.191757 0
M  V30 3257 C 306.93 -2.17707 -0.716688 0
M  V30 3258 C 307.93 -1.13061 -1.14341 0
M  V30 3259 O 309.12 -1.38464 -1.05704 0
M  V30 3260 C 306.252 -2.77644 -1.97804 0
M  V30 3261 H 307.445 -2.99342 -0.1829 0
M  V30 3262 H 304.998 -1.56193 -0.0578566 0
M  V30 3263 H 305.733 -1.99799 -2.55443 0
M  V30 3264 H 305.518 -3.54246 -1.68083 0
M  V30 3265 H 307.008 -3.24708 -2.62592 0
M  V30 3266 N 307.445 0.0818655 -1.57387 0
M  V30 3267 C 308.691 0.784074 -1.8703 0
M  V30 3268 C 309.024 1.77729 -0.782689 0
M  V30 3269 O 308.299 1.93384 0.208051 0
M  V30 3270 C 308.582 1.50105 -3.27323 0
M  V30 3271 C 308.435 0.524925 -4.46727 0
M  V30 3272 C 309.754 2.44843 -3.65705 0
M  V30 3273 H 306.873 0.283582 -0.680257 0
M  V30 3274 H 309.515 0.0474352 -1.89941 0
M  V30 3275 H 307.665 2.12897 -3.24972 0
M  V30 3276 H 309.337 -0.0970111 -4.61198 0
M  V30 3277 H 307.58 -0.160606 -4.33503 0
M  V30 3278 H 308.251 1.064 -5.41648 0
M  V30 3279 H 310.727 1.92135 -3.69085 0
M  V30 3280 H 309.603 2.92018 -4.64776 0
M  V30 3281 H 309.864 3.29197 -2.95096 0
M  V30 3282 N 308.923 1.53595 0.353017 0
M  V30 3283 C 310.2 1.61002 1.11075 0
M  V30 3284 C 310.58 0.425356 2.0677 0
M  V30 3285 O 309.928 -0.583267 2.2093 0
M  V30 3286 C 310.138 2.96631 1.83877 0
M  V30 3287 C 311.486 3.51653 2.37961 0
M  V30 3288 O 312.51 2.98743 1.93987 0
M  V30 3289 O 311.369 4.44177 3.18386 0
M  V30 3290 H 308.463 0.650825 0.510251 0
M  V30 3291 H 311.009 1.6594 0.35527 0
M  V30 3292 H 309.781 3.74293 1.14108 0
M  V30 3293 H 309.404 2.95242 2.66304 0
M  V30 3294 N 310.401 -0.613514 1.45168 0
M  V30 3295 C 311.647 -1.37471 1.49096 0
M  V30 3296 C 311.98 -1.93765 0.129901 0
M  V30 3297 O 311.255 -1.74707 -0.854858 0
M  V30 3298 C 311.538 -2.52701 2.56542 0
M  V30 3299 C 311.391 -2.01643 4.0207 0
M  V30 3300 C 312.71 -3.54849 2.60327 0
M  V30 3301 H 309.829 -0.498502 0.54283 0
M  V30 3302 H 312.471 -0.692125 1.76945 0
M  V30 3303 H 310.621 -3.10931 2.32926 0
M  V30 3304 H 312.293 -1.48108 4.36877 0
M  V30 3305 H 310.536 -1.32688 4.13009 0
M  V30 3306 H 311.207 -2.84681 4.72928 0
M  V30 3307 H 313.683 -3.0645 2.81474 0
M  V30 3308 H 312.559 -4.32973 3.37381 0
M  V30 3309 H 312.82 -4.10079 1.6519 0
M  V30 3310 N 311.879 -1.3236 -0.855495 0
M  V30 3311 C 312.842 -1.21164 -1.94556 0
M  V30 3312 C 313.842 -0.134908 -1.60233 0
M  V30 3313 O 315.032 -0.385249 -1.69887 0
M  V30 3314 C 312.164 -0.863192 -3.29791 0
M  V30 3315 H 313.357 -2.18038 -2.05911 0
M  V30 3316 H 310.91 -1.16179 -1.04557 0
M  V30 3317 H 311.645 0.103769 -3.24134 0
M  V30 3318 H 311.43 -1.64166 -3.56078 0
M  V30 3319 H 312.92 -0.809156 -4.09686 0
M  V30 3320 N 313.357 1.07166 -1.15556 0
M  V30 3321 C 314.605 1.79443 -0.929764 0
M  V30 3322 C 314.926 1.87246 0.544414 0
M  V30 3323 O 314.196 1.37473 1.39564 0
M  V30 3324 H 312.776 0.664625 -0.341003 0
M  V30 3325 H 315.438 1.29499 -1.45657 0
M  V30 3326 H 314.534 2.81832 -1.34079 0
M  V30 3327 N 314.835 0.952656 1.25548 0
M  V30 3328 C 315.798 0.475794 2.24207 0
M  V30 3329 C 316.798 -0.419428 1.55234 0
M  V30 3330 O 317.988 -0.216994 1.72843 0
M  V30 3331 C 315.12 -0.312814 3.39462 0
M  V30 3332 H 316.313 1.34779 2.67908 0
M  V30 3333 H 313.866 0.735739 1.37901 0
M  V30 3334 H 314.601 -1.20257 3.01179 0
M  V30 3335 H 314.386 0.329404 3.90714 0
M  V30 3336 H 315.876 -0.635986 4.12729 0
M  V30 3337 N 316.313 -1.40141 0.720998 0
M  V30 3338 C 317.561 -2.0039 0.262323 0
M  V30 3339 C 317.882 -1.57469 -1.15015 0
M  V30 3340 O 317.152 -0.816582 -1.78069 0
M  V30 3341 H 315.732 -0.741063 0.093996 0
M  V30 3342 H 318.394 -1.71398 0.927835 0
M  V30 3343 H 317.49 -3.10658 0.299671 0
M  V30 3344 N 317.792 -0.46758 -1.50504 0
M  V30 3345 C 319.04 0.0884469 -2.01906 0
M  V30 3346 C 319.361 1.40532 -1.35188 0
M  V30 3347 O 318.631 1.89515 -0.496079 0
M  V30 3348 H 317.211 0.0356765 -0.746148 0
M  V30 3349 H 319.873 -0.6172 -1.84869 0
M  V30 3350 H 318.969 0.2425 -3.11156 0
M  V30 3351 N 319.27 1.56325 -0.20005 0
M  V30 3352 C 320.498 2.02105 0.442874 0
M  V30 3353 C 320.913 1.08014 1.5485 0
M  V30 3354 O 320.27 0.0858797 1.82298 0
M  V30 3355 C 320.321 3.47549 0.994583 0
M  V30 3356 O 320.042 4.38049 -0.0669322 0
M  V30 3357 C 321.543 4.0887 1.7129 0
M  V30 3358 H 318.763 0.661807 0.110691 0
M  V30 3359 H 321.307 2.02134 -0.310207 0
M  V30 3360 H 319.462 3.48204 1.69803 0
M  V30 3361 H 319.876 5.23368 0.344462 0
M  V30 3362 H 321.35 5.12475 2.05118 0
M  V30 3363 H 321.827 3.52615 2.61838 0
M  V30 3364 H 322.433 4.12002 1.05518 0
M  V30 3365 N 320.748 -0.0735177 1.57428 0
M  V30 3366 C 321.973 -0.789787 1.91774 0
M  V30 3367 C 322.398 -1.70413 0.796306 0
M  V30 3368 O 321.756 -1.79555 -0.250961 0
M  V30 3369 C 321.804 -1.5609 3.25067 0
M  V30 3370 O 320.908 -2.67144 3.14178 0
M  V30 3371 H 320.249 -0.215582 0.628029 0
M  V30 3372 H 322.779 -0.0422781 2.04556 0
M  V30 3373 H 322.789 -1.94052 3.58898 0
M  V30 3374 H 321.464 -0.890015 4.06265 0
M  V30 3375 H 320.041 -2.32052 2.91901 0
M  V30 3376 N 322.226 -1.5378 -0.344866 0
M  V30 3377 C 323.472 -1.72158 -1.0832 0
M  V30 3378 C 323.827 -0.478218 -1.86362 0
M  V30 3379 O 323.12 0.529152 -1.84148 0
M  V30 3380 C 323.314 -2.92407 -2.05506 0
M  V30 3381 C 323.143 -4.28318 -1.37017 0
M  V30 3382 C 321.913 -4.92832 -1.11558 0
M  V30 3383 C 324.111 -5.08086 -0.797071 0
M  V30 3384 N 322.093 -6.12619 -0.396358 0
M  V30 3385 C 323.464 -6.1965 -0.208336 0
M  V30 3386 C 325.519 -4.92986 -0.697787 0
M  V30 3387 C 324.222 -7.17763 0.470023 0
M  V30 3388 C 326.248 -5.91391 -0.033171 0
M  V30 3389 C 325.61 -7.02292 0.544599 0
M  V30 3390 H 321.709 -0.683017 -0.380805 0
M  V30 3391 H 324.293 -1.91211 -0.366961 0
M  V30 3392 H 322.464 -2.74857 -2.74423 0
M  V30 3393 H 324.196 -2.9951 -2.72169 0
M  V30 3394 H 320.951 -4.52362 -1.40234 0
M  V30 3395 H 321.375 -6.7698 -0.0515119 0
M  V30 3396 H 326.017 -4.07414 -1.13022 0
M  V30 3397 H 323.735 -8.0291 0.914351 0
M  V30 3398 H 327.321 -5.81784 0.0430009 0
M  V30 3399 H 326.201 -7.77129 1.05073 0
M  V30 3400 N 323.704 0.605807 -1.45491 0
M  V30 3401 C 324.667 1.69836 -1.5391 0
M  V30 3402 C 325.667 1.55261 -0.418424 0
M  V30 3403 O 326.857 1.60296 -0.681965 0
M  V30 3404 C 323.989 3.09117 -1.43734 0
M  V30 3405 H 325.182 1.63738 -2.51257 0
M  V30 3406 H 322.735 0.821689 -1.32959 0
M  V30 3407 H 323.47 3.20791 -0.475788 0
M  V30 3408 H 323.255 3.21104 -2.25021 0
M  V30 3409 H 324.745 3.88696 -1.52661 0
M  V30 3410 N 325.182 1.32811 0.848464 0
M  V30 3411 C 326.598 1.11937 1.13764 0
M  V30 3412 C 326.798 -0.0960789 2.01271 0
M  V30 3413 O 325.854 -0.779165 2.40178 0
M  V30 3414 C 327.167 2.402 1.809 0
M  V30 3415 C 328.715 2.46016 1.93508 0
M  V30 3416 C 329.19 3.74215 2.64059 0
M  V30 3417 N 330.681 3.75232 2.71579 0
M  V30 3418 C 331.416 4.71134 3.26833 0
M  V30 3419 N 330.912 5.77406 3.8285 0
M  V30 3420 N 332.705 4.58623 3.24995 0
M  V30 3421 H 324.856 2.1073 0.265855 0
M  V30 3422 H 327.119 0.930671 0.180431 0
M  V30 3423 H 326.825 3.29093 1.24058 0
M  V30 3424 H 326.699 2.51628 2.81004 0
M  V30 3425 H 329.086 1.57577 2.49506 0
M  V30 3426 H 329.167 2.38536 0.923811 0
M  V30 3427 H 328.811 4.63031 2.08722 0
M  V30 3428 H 328.741 3.78968 3.65637 0
M  V30 3429 H 331.232 2.98423 2.31845 0
M  V30 3430 H 331.545 6.46632 4.23187 0
M  V30 3431 H 329.89 5.81152 3.81165 0
M  V30 3432 H 333.081 3.74762 2.80484 0
M  V30 3433 H 333.254 5.33535 3.67756 0
M  V30 3434 N 326.66 -1.06551 1.16123 0
M  V30 3435 C 327.906 -1.79567 0.94252 0
M  V30 3436 C 328.239 -1.86869 -0.528547 0
M  V30 3437 O 327.514 -1.35838 -1.39206 0
M  V30 3438 C 327.797 -3.24195 1.56747 0
M  V30 3439 C 327.65 -3.24989 3.10969 0
M  V30 3440 C 328.969 -4.21678 1.25998 0
M  V30 3441 H 326.088 -0.651883 0.343828 0
M  V30 3442 H 328.73 -1.2463 1.43413 0
M  V30 3443 H 326.88 -3.71107 1.14942 0
M  V30 3444 H 328.552 -2.86258 3.61737 0
M  V30 3445 H 326.795 -2.63716 3.44436 0
M  V30 3446 H 327.466 -4.27005 3.49815 0
M  V30 3447 H 329.942 -3.83196 1.62174 0
M  V30 3448 H 328.818 -5.21146 1.7233 0
M  V30 3449 H 329.079 -4.4174 0.178367 0
M  V30 3450 N 328.138 -0.959301 -1.25041 0
M  V30 3451 C 329.048 -0.489994 -2.29426 0
M  V30 3452 C 330.064 0.444944 -1.68215 0
M  V30 3453 O 331.24 0.320046 -1.98841 0
M  V30 3454 C 328.305 0.220309 -3.45999 0
M  V30 3455 C 327.366 -0.753418 -4.22637 0
M  V30 3456 C 326.599 -0.076918 -5.33645 0
M  V30 3457 O 326.822 1.13649 -5.58963 0
M  V30 3458 O 325.756 -0.764824 -5.97021 0
M  V30 3459 H 329.582 -1.35755 -2.71669 0
M  V30 3460 H 327.167 -0.725961 -1.30576 0
M  V30 3461 H 329.049 0.619677 -4.16819 0
M  V30 3462 H 327.724 1.06296 -3.0575 0
M  V30 3463 H 326.631 -1.20308 -3.54227 0
M  V30 3464 H 327.964 -1.56423 -4.66683 0
M  V30 3465 N 329.616 1.39756 -0.72842 0
M  V30 3466 C 330.526 2.34444 -0.0855374 0
M  V30 3467 C 331.542 1.57976 0.729356 0
M  V30 3468 O 332.718 1.90301 0.659346 0
M  V30 3469 C 329.783 3.36965 0.815798 0
M  V30 3470 C 328.844 4.29299 -0.0105996 0
M  V30 3471 C 328.077 5.26923 0.84781 0
M  V30 3472 O 328.3 5.30859 2.08673 0
M  V30 3473 O 327.234 6.01249 0.279969 0
M  V30 3474 H 331.06 2.91065 -0.866892 0
M  V30 3475 H 328.645 1.4117 -0.48902 0
M  V30 3476 H 330.527 3.99804 1.33171 0
M  V30 3477 H 329.202 2.82739 1.57608 0
M  V30 3478 H 328.109 3.69703 -0.571877 0
M  V30 3479 H 329.442 4.86712 -0.73295 0
M  V30 3480 N 331.094 0.475555 1.50254 0
M  V30 3481 C 332.34 -0.0701075 2.03279 0
M  V30 3482 C 332.695 -1.37007 1.35081 0
M  V30 3483 O 331.988 -1.8577 0.469052 0
M  V30 3484 C 332.182 -0.305114 3.56095 0
M  V30 3485 C 332.011 0.970515 4.39103 0
M  V30 3486 C 330.781 1.51509 4.82051 0
M  V30 3487 C 332.979 1.8671 4.79212 0
M  V30 3488 N 330.961 2.73928 5.49397 0
M  V30 3489 C 332.332 2.93715 5.46014 0
M  V30 3490 C 334.387 1.87695 4.61167 0
M  V30 3491 C 333.09 4.01699 5.96683 0
M  V30 3492 C 335.116 2.94637 5.12779 0
M  V30 3493 C 334.478 4.00361 5.79561 0
M  V30 3494 H 330.577 0.014486 0.781866 0
M  V30 3495 H 333.161 0.644755 1.83714 0
M  V30 3496 H 331.332 -0.989019 3.75597 0
M  V30 3497 H 333.064 -0.845516 3.95769 0
M  V30 3498 H 329.819 1.06367 4.61501 0
M  V30 3499 H 330.243 3.36109 5.87673 0
M  V30 3500 H 334.885 1.07273 4.08965 0
M  V30 3501 H 332.603 4.82934 6.4792 0
M  V30 3502 H 336.189 2.96388 5.00645 0
M  V30 3503 H 335.069 4.81751 6.18778 0
M  V30 3504 N 332.573 -1.56217 0.208337 0
M  V30 3505 C 333.819 -1.98242 -0.427552 0
M  V30 3506 C 334.152 -1.09554 -1.60348 0
M  V30 3507 O 333.427 -0.15035 -1.93918 0
M  V30 3508 C 333.71 -3.4931 -0.874907 0
M  V30 3509 C 333.563 -4.48773 0.303751 0
M  V30 3510 C 334.882 -4.04424 -1.73577 0
M  V30 3511 H 332.001 -0.720744 -0.153936 0
M  V30 3512 H 334.643 -1.87586 0.30192 0
M  V30 3513 H 332.793 -3.58522 -1.49648 0
M  V30 3514 H 334.465 -4.51586 0.941682 0
M  V30 3515 H 332.708 -4.23194 0.953375 0
M  V30 3516 H 333.379 -5.51976 -0.0519883 0
M  V30 3517 H 335.855 -3.98075 -1.21143 0
M  V30 3518 H 334.731 -5.1047 -2.01771 0
M  V30 3519 H 334.992 -3.50494 -2.69456 0
M  V30 3520 N 334.051 0.0651679 -1.57465 0
M  V30 3521 C 335.467 0.420105 -1.53972 0
M  V30 3522 C 335.667 1.78782 -0.929474 0
M  V30 3523 O 334.723 2.46771 -0.534839 0
M  V30 3524 C 336.036 0.355084 -2.98596 0
M  V30 3525 C 337.584 0.434792 -3.09965 0
M  V30 3526 C 338.059 0.399609 -4.56253 0
M  V30 3527 N 339.55 0.459488 -4.60915 0
M  V30 3528 C 340.285 0.454584 -5.71595 0
M  V30 3529 N 339.781 0.404102 -6.9162 0
M  V30 3530 N 341.574 0.501635 -5.59857 0
M  V30 3531 H 333.725 -0.830328 -1.95498 0
M  V30 3532 H 335.988 -0.312244 -0.895102 0
M  V30 3533 H 335.694 -0.583357 -3.46828 0
M  V30 3534 H 335.568 1.16275 -3.58831 0
M  V30 3535 H 337.955 1.36366 -2.61703 0
M  V30 3536 H 338.036 -0.40157 -2.52628 0
M  V30 3537 H 337.68 -0.525436 -5.05175 0
M  V30 3538 H 337.61 1.25359 -5.11461 0
M  V30 3539 H 340.101 0.502482 -3.74544 0
M  V30 3540 H 340.414 0.404468 -7.71741 0
M  V30 3541 H 338.759 0.37069 -6.94011 0
M  V30 3542 H 341.95 0.538812 -4.64989 0
M  V30 3543 H 342.123 0.494345 -6.46112 0
M  V30 3544 N 335.529 1.53961 0.336706 0
M  V30 3545 C 336.776 1.71536 1.07618 0
M  V30 3546 C 337.104 0.482125 1.8843 0
M  V30 3547 O 336.359 -0.536142 1.88213 0
M  V30 3548 C 336.658 2.93493 2.03953 0
M  V30 3549 C 336.324 4.28811 1.39399 0
M  V30 3550 C 334.986 4.65602 1.21523 0
M  V30 3551 C 337.338 5.12844 0.929541 0
M  V30 3552 C 334.666 5.84037 0.558312 0
M  V30 3553 C 337.018 6.31951 0.286505 0
M  V30 3554 C 335.682 6.67432 0.0954869 0
M  V30 3555 H 334.952 0.627696 0.393801 0
M  V30 3556 H 337.599 1.88186 0.354715 0
M  V30 3557 H 335.904 2.71475 2.82504 0
M  V30 3558 H 337.601 3.04285 2.61174 0
M  V30 3559 H 334.191 3.99858 1.54311 0
M  V30 3560 H 338.375 4.84947 1.05548 0
M  V30 3561 H 333.631 6.10097 0.398995 0
M  V30 3562 H 337.805 6.96352 -0.0814376 0
M  V30 3563 H 335.432 7.59063 -0.415579 0
M  V30 3564 N 337.007 -0.598083 1.45811 0
M  V30 3565 C 338.255 -1.35413 1.50026 0
M  V30 3566 C 338.576 -1.94444 0.147177 0
M  V30 3567 O 337.846 -1.77701 -0.824571 0
M  V30 3568 H 336.426 -0.502727 0.552517 0
M  V30 3569 H 339.088 -0.701606 1.81834 0
M  V30 3570 H 338.184 -2.16871 2.2444 0
M  V30 3571 N 338.485 -1.33259 -0.841409 0
M  V30 3572 C 339.395 -1.25332 -1.98316 0
M  V30 3573 C 340.411 -0.164364 -1.73222 0
M  V30 3574 O 341.587 -0.387486 -1.97637 0
M  V30 3575 C 338.652 -0.990078 -3.32262 0
M  V30 3576 C 337.713 -2.16879 -3.70489 0
M  V30 3577 C 336.946 -1.91801 -4.98044 0
M  V30 3578 O 337.169 -0.867075 -5.63771 0
M  V30 3579 O 336.103 -2.78267 -5.33714 0
M  V30 3580 H 339.929 -2.21344 -2.07944 0
M  V30 3581 H 337.514 -1.1328 -0.974058 0
M  V30 3582 H 339.396 -0.860321 -4.12524 0
M  V30 3583 H 338.071 -0.0602155 -3.23644 0
M  V30 3584 H 336.978 -2.35407 -2.90748 0
M  V30 3585 H 338.311 -3.0819 -3.8377 0
M  V30 3586 N 339.963 1.05934 -1.16686 0
M  V30 3587 C 341.209 1.79065 -0.95203 0
M  V30 3588 C 341.542 1.87147 0.518629 0
M  V30 3589 O 340.817 1.36574 1.38484 0
M  V30 3590 C 341.1 3.23359 -1.58464 0
M  V30 3591 C 340.953 3.23336 -3.12689 0
M  V30 3592 C 342.272 4.21004 -1.28232 0
M  V30 3593 H 339.391 0.65005 -0.34728 0
M  V30 3594 H 342.033 1.23868 -1.44072 0
M  V30 3595 H 340.183 3.70493 -1.16908 0
M  V30 3596 H 341.855 2.84336 -3.6325 0
M  V30 3597 H 340.098 2.61886 -3.4583 0
M  V30 3598 H 340.769 4.25144 -3.52075 0
M  V30 3599 H 343.245 3.8233 -1.64203 0
M  V30 3600 H 342.121 5.20225 -1.75092 0
M  V30 3601 H 342.382 4.41639 -0.201791 0
M  V30 3602 N 341.441 0.965919 1.2453 0
M  V30 3603 C 342.857 0.67216 1.44756 0
M  V30 3604 C 343.057 -0.766609 1.86347 0
M  V30 3605 O 342.113 -1.5407 2.00047 0
M  V30 3606 C 343.426 1.65473 2.51076 0
M  V30 3607 C 344.974 1.66716 2.64905 0
M  V30 3608 C 345.449 2.63766 3.74421 0
M  V30 3609 N 346.94 2.62198 3.81846 0
M  V30 3610 C 347.675 3.33966 4.66106 0
M  V30 3611 N 347.171 4.15245 5.54566 0
M  V30 3612 N 348.964 3.22799 4.60171 0
M  V30 3613 H 341.115 1.89553 0.958293 0
M  V30 3614 H 343.378 0.815979 0.482579 0
M  V30 3615 H 343.084 2.68296 2.27399 0
M  V30 3616 H 342.958 1.4261 3.49202 0
M  V30 3617 H 345.345 0.646057 2.87941 0
M  V30 3618 H 345.426 1.93642 1.67142 0
M  V30 3619 H 345.07 3.6601 3.52135 0
M  V30 3620 H 345 2.34121 4.71694 0
M  V30 3621 H 347.491 2.032 3.18619 0
M  V30 3622 H 347.804 4.66898 6.15814 0
M  V30 3623 H 346.149 4.1934 5.54237 0
M  V30 3624 H 349.34 2.58764 3.90075 0
M  V30 3625 H 349.513 3.78994 5.25612 0
M  V30 3626 N 342.919 -1.39368 0.735821 0
M  V30 3627 C 343.869 -2.27885 0.0724287 0
M  V30 3628 C 344.853 -1.44301 -0.711756 0
M  V30 3629 O 346.045 -1.67206 -0.58063 0
M  V30 3630 C 343.174 -3.33029 -0.833454 0
M  V30 3631 C 342.26 -4.24078 -0.0433749 0
M  V30 3632 N 342.651 -4.96138 0.983903 0
M  V30 3633 C 340.949 -4.45164 -0.272905 0
M  V30 3634 C 341.65 -5.63069 1.4604 0
M  V30 3635 N 340.626 -5.37991 0.778857 0
M  V30 3636 H 344.428 -2.81052 0.859467 0
M  V30 3637 H 341.942 -1.5206 0.570227 0
M  V30 3638 H 343.939 -3.95311 -1.32419 0
M  V30 3639 H 342.599 -2.81421 -1.61964 0
M  V30 3640 H 343.61 -4.9958 1.36528 0
M  V30 3641 H 340.287 -4.04497 -1.03383 0
M  V30 3642 H 341.677 -6.30755 2.31511 0
M  V30 3643 N 344.397 -0.483516 -1.5 0
M  V30 3644 C 345.808 -0.0314176 -1.86674 0
M  V30 3645 C 346.159 1.37728 -1.39733 0
M  V30 3646 O 345.284 2.02327 -0.767635 0
M  V30 3647 C 345.879 -0.0502376 -3.38763 0
M  V30 3648 C 344.438 0.346442 -3.74802 0
M  V30 3649 C 343.585 -0.430366 -2.7394 0
M  V30 3650 H 346.536 -0.697182 -1.42566 0
M  V30 3651 H 346.557 0.749116 -3.73053 0
M  V30 3652 H 346.069 -1.07563 -3.72897 0
M  V30 3653 H 344.17 1.37572 -3.46273 0
M  V30 3654 H 344.283 0.0391486 -4.79084 0
M  V30 3655 H 342.647 0.117557 -2.54429 0
M  V30 3656 H 343.43 -1.4555 -3.10918 0
M  V30 3657 N 345.875 1.56104 -0.216619 0
M  V30 3658 C 346.785 2.23694 0.706982 0
M  V30 3659 C 347.801 1.24295 1.21765 0
M  V30 3660 O 348.977 1.57094 1.2603 0
M  V30 3661 C 346.042 2.8998 1.90033 0
M  V30 3662 C 345.103 4.04708 1.43213 0
M  V30 3663 C 344.336 4.67824 2.56859 0
M  V30 3664 O 344.559 4.29913 3.74874 0
M  V30 3665 O 343.493 5.56905 2.28343 0
M  V30 3666 H 347.319 3.03272 0.161235 0
M  V30 3667 H 344.904 1.49394 0.0136177 0
M  V30 3668 H 346.786 3.31837 2.59735 0
M  V30 3669 H 345.461 2.13365 2.43428 0
M  V30 3670 H 344.368 3.6743 0.70327 0
M  V30 3671 H 345.701 4.83051 0.944615 0
M  V30 3672 N 347.353 -0.0568162 1.57498 0
M  V30 3673 C 348.283 -1.06593 2.0775 0
M  V30 3674 C 349.264 -1.39448 0.974082 0
M  V30 3675 O 350.449 -1.48815 1.24771 0
M  V30 3676 C 347.579 -2.37509 2.5339 0
M  V30 3677 C 346.533 -2.1897 3.67745 0
M  V30 3678 C 345.859 -3.55402 3.99492 0
M  V30 3679 C 347.159 -1.59859 4.97235 0
M  V30 3680 H 348.853 -0.647706 2.9231 0
M  V30 3681 H 346.399 -0.310116 1.40621 0
M  V30 3682 H 348.352 -3.08409 2.87162 0
M  V30 3683 H 347.076 -2.8134 1.65878 0
M  V30 3684 H 345.735 -1.50508 3.3428 0
M  V30 3685 H 345.383 -3.9683 3.09088 0
M  V30 3686 H 345.083 -3.43831 4.76502 0
M  V30 3687 H 346.607 -4.27708 4.35773 0
M  V30 3688 H 348.021 -2.20642 5.29141 0
M  V30 3689 H 346.418 -1.58942 5.78669 0
M  V30 3690 H 347.488 -0.561506 4.81638 0
M  V30 3691 N 348.832 -1.54138 -0.328536 0
M  V30 3692 C 350.072 -1.73827 -1.07534 0
M  V30 3693 C 350.436 -0.498777 -1.85408 0
M  V30 3694 O 351.637 -0.572937 -2.62623 0
M  V30 3695 C 349.908 -2.97573 -1.97952 0
M  V30 3696 S 351.467 -3.38143 -2.79652 0
M  V30 3697 H 348.285 -0.611287 -0.36311 0
M  V30 3698 H 350.887 -1.92306 -0.351931 0
M  V30 3699 H 349.591 -3.85939 -1.39569 0
M  V30 3700 H 349.122 -2.81603 -2.74706 0
M  V30 3701 H 351.137 -2.93052 -4.00418 0
M  V30 3702 N 350.31 0.590341 -1.46126 0
M  V30 3703 C 351.22 1.72793 -1.58681 0
M  V30 3704 C 352.236 1.67516 -0.470566 0
M  V30 3705 O 353.412 1.87562 -0.733642 0
M  V30 3706 C 350.477 3.09287 -1.5666 0
M  V30 3707 C 349.538 3.25886 -2.79458 0
M  V30 3708 C 348.771 4.55869 -2.77524 0
M  V30 3709 O 348.994 5.3928 -1.85832 0
M  V30 3710 O 347.928 4.75552 -3.68964 0
M  V30 3711 H 351.754 1.65149 -2.54872 0
M  V30 3712 H 349.339 0.756486 -1.28832 0
M  V30 3713 H 351.221 3.90577 -1.58202 0
M  V30 3714 H 349.896 3.17385 -0.636271 0
M  V30 3715 H 348.803 2.44119 -2.83472 0
M  V30 3716 H 350.136 3.22675 -3.71674 0
M  V30 3717 N 351.788 1.33704 0.83433 0
M  V30 3718 C 353.037 1.24763 1.58484 0
M  V30 3719 C 353.35 -0.183775 1.94735 0
M  V30 3720 O 354.556 -0.395234 2.68608 0
M  V30 3721 C 353.012 2.18638 2.85876 0
M  V30 3722 C 352.62 3.66974 2.56971 0
M  V30 3723 C 354.364 2.18581 3.63899 0
M  V30 3724 C 352.271 4.5275 3.80488 0
M  V30 3725 H 351.201 0.463425 0.594772 0
M  V30 3726 H 353.852 1.58797 0.919551 0
M  V30 3727 H 352.234 1.77542 3.5397 0
M  V30 3728 H 353.408 4.16538 1.9706 0
M  V30 3729 H 351.723 3.69366 1.92244 0
M  V30 3730 H 354.32 2.79894 4.55591 0
M  V30 3731 H 354.663 1.18207 3.99165 0
M  V30 3732 H 355.196 2.58062 3.02735 0
M  V30 3733 H 351.935 5.54017 3.5035 0
M  V30 3734 H 351.455 4.07927 4.39722 0
M  V30 3735 H 353.134 4.66784 4.4802 0
M  V30 3736 N 353.266 -1.05314 1.17247 0
M  V30 3737 C 354.514 -1.77941 0.958194 0
M  V30 3738 C 354.835 -1.88089 -0.514556 0
M  V30 3739 O 354.105 -1.39676 -1.37359 0
M  V30 3740 H 352.685 -0.659116 0.351533 0
M  V30 3741 H 355.347 -1.27166 1.47699 0
M  V30 3742 H 354.443 -2.79663 1.38546 0
M  V30 3743 N 354.744 -0.972509 -1.24016 0
M  V30 3744 C 355.993 -0.632603 -1.91523 0
M  V30 3745 C 356.306 0.836641 -1.76804 0
M  V30 3746 O 357.512 1.28728 -2.39043 0
M  V30 3747 C 355.968 -1.08082 -3.43287 0
M  V30 3748 C 355.576 -2.57386 -3.66683 0
M  V30 3749 C 357.32 -0.814288 -4.16617 0
M  V30 3750 C 355.227 -2.95915 -5.12043 0
M  V30 3751 H 354.157 -0.232898 -0.717129 0
M  V30 3752 H 356.808 -1.17936 -1.40582 0
M  V30 3753 H 355.19 -0.462339 -3.93292 0
M  V30 3754 H 356.364 -3.24405 -3.27258 0
M  V30 3755 H 354.679 -2.81701 -3.06649 0
M  V30 3756 H 357.276 -1.0781 -5.23718 0
M  V30 3757 H 357.619 0.24955 -4.15551 0
M  V30 3758 H 358.152 -1.39397 -3.72577 0
M  V30 3759 H 354.891 -4.0139 -5.18234 0
M  V30 3760 H 354.411 -2.33584 -5.52448 0
M  V30 3761 H 356.09 -2.86086 -5.80314 0
M  V30 3762 N 356.222 1.38976 -0.743202 0
M  V30 3763 C 357.633 1.83123 -0.363732 0
M  V30 3764 C 357.984 1.6205 1.10609 0
M  V30 3765 O 357.109 1.11606 1.854 0
M  V30 3766 C 357.704 3.32439 -0.653408 0
M  V30 3767 C 356.263 3.74974 -0.327338 0
M  V30 3768 C 355.41 2.61878 -0.911875 0
M  V30 3769 H 358.361 1.27852 -0.940191 0
M  V30 3770 H 358.382 3.80432 0.0720031 0
M  V30 3771 H 357.894 3.47745 -1.72323 0
M  V30 3772 H 355.995 3.65252 0.736314 0
M  V30 3773 H 356.108 4.72106 -0.815631 0
M  V30 3774 H 354.472 2.52448 -0.337944 0
M  V30 3775 H 355.255 2.79987 -1.98651 0
M  V30 3776 N 357.7 0.491464 1.49741 0
M  V30 3777 C 358.928 -0.0535151 2.06831 0
M  V30 3778 C 359.343 -1.31683 1.35296 0
M  V30 3779 O 358.7 -1.77402 0.42836 0
M  V30 3780 C 358.751 -0.320835 3.60073 0
M  V30 3781 O 358.472 0.892394 4.28915 0
M  V30 3782 C 359.973 -0.910519 4.33848 0
M  V30 3783 H 357.193 0.0161909 0.670805 0
M  V30 3784 H 359.737 0.68609 1.92647 0
M  V30 3785 H 357.892 -1.0104 3.73991 0
M  V30 3786 H 358.306 0.649401 5.20464 0
M  V30 3787 H 359.78 -1.04721 5.41976 0
M  V30 3788 H 360.257 -1.90589 3.95692 0
M  V30 3789 H 360.863 -0.258712 4.24512 0
M  V30 3790 N 359.178 -1.55987 0.224894 0
M  V30 3791 C 360.141 -2.19178 -0.670348 0
M  V30 3792 C 361.141 -1.15461 -1.11917 0
M  V30 3793 O 362.331 -1.40675 -1.02743 0
M  V30 3794 C 359.463 -2.81777 -1.9187 0
M  V30 3795 H 360.656 -2.99662 -0.119364 0
M  V30 3796 H 358.209 -1.5628 -0.0247128 0
M  V30 3797 H 358.944 -2.05172 -2.51147 0
M  V30 3798 H 358.729 -3.57732 -1.60531 0
M  V30 3799 H 360.219 -3.30205 -2.55645 0
M  V30 3800 N 360.656 0.0484629 -1.57525 0
M  V30 3801 C 362.072 0.40375 -1.54409 0
M  V30 3802 C 362.272 1.77786 -0.948384 0
M  V30 3803 O 361.328 2.46189 -0.560983 0
M  V30 3804 C 362.641 0.323394 -2.98956 0
M  V30 3805 C 364.189 0.401892 -3.10409 0
M  V30 3806 C 364.664 0.351195 -4.56652 0
M  V30 3807 N 366.155 0.410576 -4.61377 0
M  V30 3808 C 366.89 0.393933 -5.72045 0
M  V30 3809 N 366.386 0.330724 -6.9201 0
M  V30 3810 N 368.179 0.442227 -5.60358 0
M  V30 3811 H 360.33 -0.851016 -1.94606 0
M  V30 3812 H 362.593 -0.321721 -0.89174 0
M  V30 3813 H 362.299 -0.62011 -3.4619 0
M  V30 3814 H 362.173 1.12463 -3.60044 0
M  V30 3815 H 364.56 1.33582 -2.63134 0
M  V30 3816 H 364.641 -0.428342 -2.52188 0
M  V30 3817 H 364.285 -0.578987 -5.04589 0
M  V30 3818 H 364.215 1.19928 -5.12762 0
M  V30 3819 H 366.706 0.462729 -3.75056 0
M  V30 3820 H 367.019 0.322592 -7.72126 0
M  V30 3821 H 365.364 0.29706 -6.94365 0
M  V30 3822 H 368.555 0.489464 -4.65534 0
M  V30 3823 H 368.728 0.425788 -6.466 0
M  V30 3824 N 362.134 1.5431 0.320358 0
M  V30 3825 C 363.097 1.83195 1.3774 0
M  V30 3826 C 364.097 0.703906 1.44575 0
M  V30 3827 O 365.287 0.972214 1.44546 0
M  V30 3828 C 362.419 1.99487 2.76438 0
M  V30 3829 H 363.612 2.77642 1.1338 0
M  V30 3830 H 361.165 1.46076 0.556012 0
M  V30 3831 H 361.9 1.07262 3.06048 0
M  V30 3832 H 361.685 2.81575 2.7287 0
M  V30 3833 H 363.175 2.23271 3.52902 0
M  V30 3834 N 363.613 -0.582584 1.46437 0
M  V30 3835 C 364.862 -1.337 1.5102 0
M  V30 3836 C 365.175 -1.94891 0.166359 0
M  V30 3837 O 366.381 -2.71351 0.0899954 0
M  V30 3838 C 364.837 -2.42315 2.66104 0
M  V30 3839 C 364.445 -1.87427 4.06909 0
M  V30 3840 C 366.189 -3.19099 2.79958 0
M  V30 3841 C 364.096 -2.93672 5.13333 0
M  V30 3842 H 363.026 -0.502619 0.562041 0
M  V30 3843 H 365.677 -0.621701 1.72647 0
M  V30 3844 H 364.059 -3.16645 2.37807 0
M  V30 3845 H 365.233 -1.19639 4.44998 0
M  V30 3846 H 363.548 -1.2331 3.97723 0
M  V30 3847 H 366.145 -3.9839 3.56636 0
M  V30 3848 H 366.488 -3.71695 1.87479 0
M  V30 3849 H 367.021 -2.51875 3.07902 0
M  V30 3850 H 363.76 -2.45962 6.07604 0
M  V30 3851 H 363.28 -3.59948 4.79789 0
M  V30 3852 H 364.959 -3.5762 5.39182 0
M  V30 3853 N 365.091 -1.34144 -0.827227 0
M  V30 3854 C 366.021 -1.28005 -1.95287 0
M  V30 3855 C 367.002 -0.158321 -1.69362 0
M  V30 3856 O 368.187 -0.349987 -1.9102 0
M  V30 3857 C 365.317 -1.03036 -3.31664 0
M  V30 3858 C 364.271 -2.11628 -3.72019 0
M  V30 3859 C 363.597 -1.71854 -5.0633 0
M  V30 3860 C 364.897 -3.53417 -3.8457 0
M  V30 3861 H 366.591 -2.22187 -2.00682 0
M  V30 3862 H 364.137 -1.0696 -0.964135 0
M  V30 3863 H 366.09 -0.973863 -4.09993 0
M  V30 3864 H 364.814 -0.0529391 -3.26557 0
M  V30 3865 H 363.473 -2.16339 -2.95961 0
M  V30 3866 H 363.121 -0.727841 -4.97706 0
M  V30 3867 H 362.821 -2.44531 -5.34302 0
M  V30 3868 H 364.345 -1.67692 -5.87122 0
M  V30 3869 H 365.759 -3.51142 -4.5318 0
M  V30 3870 H 364.156 -4.24679 -4.2399 0
M  V30 3871 H 365.226 -3.91072 -2.86689 0
M  V30 3872 N 366.569 1.04691 -1.17803 0
M  V30 3873 C 367.479 2.16057 -0.914151 0
M  V30 3874 C 368.495 1.73589 0.119503 0
M  V30 3875 O 369.671 2.01308 -0.0609468 0
M  V30 3876 C 366.736 3.4394 -0.436603 0
M  V30 3877 C 365.797 4.00825 -1.53746 0
M  V30 3878 C 365.03 5.22604 -1.0826 0
M  V30 3879 O 365.253 5.70367 0.0612244 0
M  V30 3880 O 364.187 5.7186 -1.87775 0
M  V30 3881 H 368.013 2.41169 -1.84584 0
M  V30 3882 H 365.598 1.1453 -0.959334 0
M  V30 3883 H 367.48 4.21024 -0.178057 0
M  V30 3884 H 366.155 3.20316 0.466869 0
M  V30 3885 H 365.062 3.25158 -1.84995 0
M  V30 3886 H 366.395 4.28778 -2.41683 0
M  V30 3887 N 368.047 0.979072 1.23499 0
M  V30 3888 C 369.293 0.648178 1.92163 0
M  V30 3889 C 369.626 -0.816049 1.76222 0
M  V30 3890 O 368.901 -1.58849 1.12237 0
M  V30 3891 C 369.184 1.03773 3.44824 0
M  V30 3892 C 369.037 2.55948 3.69879 0
M  V30 3893 C 370.356 0.580653 4.36253 0
M  V30 3894 H 367.475 0.236952 0.69787 0
M  V30 3895 H 370.117 1.22012 1.45647 0
M  V30 3896 H 368.267 0.551058 3.84572 0
M  V30 3897 H 369.939 3.12179 3.3962 0
M  V30 3898 H 368.182 2.98641 3.14636 0
M  V30 3899 H 368.853 2.78255 4.76737 0
M  V30 3900 H 371.329 0.998465 4.03943 0
M  V30 3901 H 370.205 0.881663 5.41773 0
M  V30 3902 H 370.466 -0.519052 4.39042 0
M  V30 3903 N 369.525 -1.3858 0.750561 0
M  V30 3904 C 370.941 -1.53759 0.427824 0
M  V30 3905 C 371.141 -1.71401 -1.05943 0
M  V30 3906 O 370.197 -1.72331 -1.84549 0
M  V30 3907 C 371.51 -2.74642 1.22443 0
M  V30 3908 C 373.058 -2.88489 1.2142 0
M  V30 3909 C 373.533 -4.12329 1.9937 0
M  V30 3910 N 375.024 -4.194 1.96616 0
M  V30 3911 C 375.759 -5.14209 2.53727 0
M  V30 3912 N 375.255 -6.14709 3.19539 0
M  V30 3913 N 377.048 -5.06537 2.43673 0
M  V30 3914 H 369.199 -1.25377 1.71447 0
M  V30 3915 H 371.462 -0.608844 0.726645 0
M  V30 3916 H 371.168 -2.68 2.27747 0
M  V30 3917 H 371.042 -3.67745 0.839273 0
M  V30 3918 H 373.429 -2.94614 0.169232 0
M  V30 3919 H 373.51 -1.96406 1.63885 0
M  V30 3920 H 373.154 -4.06966 3.03877 0
M  V30 3921 H 373.084 -5.03486 1.54302 0
M  V30 3922 H 375.575 -3.47421 1.48684 0
M  V30 3923 H 375.888 -6.8354 3.60545 0
M  V30 3924 H 374.233 -6.1505 3.23633 0
M  V30 3925 H 377.424 -4.26962 1.91889 0
M  V30 3926 H 377.597 -5.80245 2.88479 0
M  V30 3927 N 371.003 -0.499398 -1.49478 0
M  V30 3928 C 371.913 0.284489 -2.32869 0
M  V30 3929 C 372.929 0.968885 -1.44529 0
M  V30 3930 O 374.105 0.95062 -1.77553 0
M  V30 3931 C 371.17 1.33594 -3.19928 0
M  V30 3932 C 370.231 0.665149 -4.24116 0
M  V30 3933 C 369.464 1.6665 -5.07014 0
M  V30 3934 O 369.687 2.89618 -4.91404 0
M  V30 3935 O 368.621 1.22271 -5.8935 0
M  V30 3936 H 372.447 -0.39802 -3.01081 0
M  V30 3937 H 370.032 -0.260758 -1.47107 0
M  V30 3938 H 371.914 1.94431 -3.73864 0
M  V30 3939 H 370.589 2.0014 -2.54412 0
M  V30 3940 H 369.496 0.0170769 -3.74096 0
M  V30 3941 H 370.829 0.0421555 -4.92182 0
M  V30 3942 N 372.481 1.55866 -0.233164 0
M  V30 3943 C 373.727 1.98897 0.395959 0
M  V30 3944 C 374.06 1.12091 1.58585 0
M  V30 3945 O 373.335 0.181182 1.93654 0
M  V30 3946 C 373.618 3.50658 0.819224 0
M  V30 3947 C 373.471 4.48233 -0.375109 0
M  V30 3948 C 374.79 4.07135 1.67121 0
M  V30 3949 H 371.909 0.723102 0.142451 0
M  V30 3950 H 374.551 1.87082 -0.331725 0
M  V30 3951 H 372.701 3.60857 1.43925 0
M  V30 3952 H 374.373 4.50031 -1.01341 0
M  V30 3953 H 372.616 4.21624 -1.02058 0
M  V30 3954 H 373.287 5.51988 -0.0358328 0
M  V30 3955 H 375.763 3.99952 1.14795 0
M  V30 3956 H 374.639 5.13615 1.93625 0
M  V30 3957 H 374.9 3.54736 2.63846 0
M  V30 3958 N 373.959 -0.0401083 1.57549 0
M  V30 3959 C 374.889 -1.04384 2.08869 0
M  V30 3960 C 375.87 -1.38407 0.988817 0
M  V30 3961 O 377.055 -1.47483 1.26342 0
M  V30 3962 C 374.185 -2.34808 2.55895 0
M  V30 3963 C 373.139 -2.15057 3.70047 0
M  V30 3964 C 372.465 -3.51145 4.03239 0
M  V30 3965 C 373.765 -1.54576 4.98902 0
M  V30 3966 H 375.459 -0.616666 2.92981 0
M  V30 3967 H 373.005 -0.295184 1.40942 0
M  V30 3968 H 374.958 -3.05346 2.90417 0
M  V30 3969 H 373.682 -2.79565 1.68853 0
M  V30 3970 H 372.341 -1.46954 3.35857 0
M  V30 3971 H 371.989 -3.93529 3.13279 0
M  V30 3972 H 371.689 -3.38758 4.80122 0
M  V30 3973 H 373.213 -4.23062 4.40285 0
M  V30 3974 H 374.627 -2.15017 5.31451 0
M  V30 3975 H 373.024 -1.52796 5.80322 0
M  V30 3976 H 374.094 -0.51039 4.82206 0
M  V30 3977 N 375.437 -1.54477 -0.31217 0
M  V30 3978 C 376.848 -1.64344 -0.885891 0
M  V30 3979 C 377.199 -0.54485 -1.88483 0
M  V30 3980 O 376.324 0.320387 -2.14015 0
M  V30 3981 C 376.919 -2.97908 -1.61357 0
M  V30 3982 C 375.478 -3.09933 -2.13585 0
M  V30 3983 C 374.625 -2.59971 -0.964897 0
M  V30 3984 H 377.576 -1.58448 -0.0894528 0
M  V30 3985 H 377.597 -2.88706 -2.47848 0
M  V30 3986 H 377.109 -3.77845 -0.886277 0
M  V30 3987 H 375.21 -2.34694 -2.89395 0
M  V30 3988 H 375.323 -4.15916 -2.37804 0
M  V30 3989 H 373.687 -2.16147 -1.34731 0
M  V30 3990 H 374.47 -3.42376 -0.251742 0
M  V30 3991 N 376.915 0.57481 -1.46744 0
M  V30 3992 C 377.865 1.67838 -1.54319 0
M  V30 3993 C 378.849 1.55759 -0.40346 0
M  V30 3994 O 380.041 1.6454 -0.652347 0
M  V30 3995 C 377.17 3.06624 -1.5439 0
M  V30 3996 C 376.256 3.23971 -2.73685 0
M  V30 3997 N 376.647 3.11447 -3.9854 0
M  V30 3998 C 374.945 3.5493 -2.70075 0
M  V30 3999 C 375.646 3.31011 -4.78337 0
M  V30 4000 N 374.622 3.56533 -4.10348 0
M  V30 4001 H 378.424 1.56698 -2.48642 0
M  V30 4002 H 375.938 0.779071 -1.42493 0
M  V30 4003 H 377.935 3.85839 -1.57905 0
M  V30 4004 H 376.595 3.1889 -0.611493 0
M  V30 4005 H 377.606 2.89145 -4.29669 0
M  V30 4006 H 374.283 3.73832 -1.85893 0
M  V30 4007 H 375.673 3.26445 -5.87268 0
M  V30 4008 N 378.394 1.34581 0.820102 0
M  V30 4009 C 379.324 1.29038 1.94606 0
M  V30 4010 C 380.305 0.1673 1.69275 0
M  V30 4011 O 381.49 0.360112 1.90832 0
M  V30 4012 C 378.62 1.04793 3.31113 0
M  V30 4013 C 377.574 2.13597 3.70891 0
M  V30 4014 C 376.9 1.74537 5.05412 0
M  V30 4015 C 378.2 3.55451 3.8269 0
M  V30 4016 H 379.894 2.23248 1.99501 0
M  V30 4017 H 377.44 1.0747 0.958449 0
M  V30 4018 H 379.393 0.995592 4.0947 0
M  V30 4019 H 378.117 0.0702565 3.26524 0
M  V30 4020 H 376.776 2.17905 2.9481 0
M  V30 4021 H 376.424 0.754226 4.97313 0
M  V30 4022 H 376.124 2.47361 5.32997 0
M  V30 4023 H 377.648 1.70803 5.86224 0
M  V30 4024 H 379.062 3.5354 4.51312 0
M  V30 4025 H 377.459 4.26922 4.21732 0
M  V30 4026 H 378.529 3.92587 2.84611 0
M  V30 4027 N 379.872 -1.04064 1.18357 0
M  V30 4028 C 381.283 -1.58719 0.98312 0
M  V30 4029 C 381.634 -1.90556 -0.467193 0
M  V30 4030 O 380.759 -1.69561 -1.34454 0
M  V30 4031 C 381.354 -2.88379 1.77828 0
M  V30 4032 C 379.913 -3.3965 1.62218 0
M  V30 4033 C 379.06 -2.13235 1.77274 0
M  V30 4034 H 382.011 -0.867359 1.32901 0
M  V30 4035 H 382.032 -3.58773 1.26737 0
M  V30 4036 H 381.544 -2.65176 2.83379 0
M  V30 4037 H 379.645 -3.67866 0.592036 0
M  V30 4038 H 379.758 -4.13475 2.42023 0
M  V30 4039 H 378.122 -2.24542 1.20221 0
M  V30 4040 H 378.905 -1.92487 2.8426 0
M  V30 4041 N 381.35 -0.985608 -1.22978 0
M  V30 4042 C 382.28 -0.549649 -2.26939 0
M  V30 4043 C 383.261 0.419803 -1.64838 0
M  V30 4044 O 384.446 0.31203 -1.91677 0
M  V30 4045 C 381.576 0.143652 -3.47003 0
M  V30 4046 C 380.53 -0.743606 -4.21491 0
M  V30 4047 C 379.856 0.0822027 -5.34637 0
M  V30 4048 C 381.156 -2.03694 -4.80943 0
M  V30 4049 H 382.85 -1.41862 -2.63658 0
M  V30 4050 H 380.396 -0.683571 -1.26741 0
M  V30 4051 H 382.349 0.459985 -4.18882 0
M  V30 4052 H 381.073 1.04711 -3.09359 0
M  V30 4053 H 379.732 -1.04347 -3.51436 0
M  V30 4054 H 379.38 0.986359 -4.93234 0
M  V30 4055 H 379.08 -0.508377 -5.85397 0
M  V30 4056 H 380.604 0.392797 -6.09335 0
M  V30 4057 H 382.018 -1.78504 -5.44802 0
M  V30 4058 H 380.415 -2.57573 -5.42011 0
M  V30 4059 H 381.485 -2.72042 -4.01399 0
M  V30 4060 N 382.828 1.3818 -0.7579 0
M  V30 4061 C 384.074 2.00316 -0.316453 0
M  V30 4062 C 384.407 1.60026 1.10025 0
M  V30 4063 O 383.682 0.839835 1.75434 0
M  V30 4064 C 383.965 3.57349 -0.444245 0
M  V30 4065 C 383.818 4.07591 -1.90236 0
M  V30 4066 C 385.137 4.3981 0.1598 0
M  V30 4067 H 382.256 0.727741 -0.116459 0
M  V30 4068 H 384.898 1.6406 -0.958352 0
M  V30 4069 H 383.048 3.88365 0.102233 0
M  V30 4070 H 384.72 3.87199 -2.50748 0
M  V30 4071 H 382.963 3.60297 -2.41595 0
M  V30 4072 H 383.634 5.16677 -1.94291 0
M  V30 4073 H 386.11 4.14971 -0.306314 0
M  V30 4074 H 384.986 5.48885 0.0401675 0
M  V30 4075 H 385.247 4.24102 1.24859 0
M  V30 4076 N 384.306 0.507319 1.49211 0
M  V30 4077 C 385.269 -0.256763 2.27757 0
M  V30 4078 C 386.269 -0.888287 1.34038 0
M  V30 4079 O 387.459 -0.751841 1.5714 0
M  V30 4080 C 384.591 -1.36905 3.12202 0
M  V30 4081 H 385.784 0.432557 2.96764 0
M  V30 4082 H 383.337 0.262488 1.5408 0
M  V30 4083 H 384.072 -2.09233 2.47775 0
M  V30 4084 H 383.857 -0.921599 3.81115 0
M  V30 4085 H 385.347 -1.9071 3.7151 0
M  V30 4086 N 385.784 -1.5574 0.241426 0
M  V30 4087 C 387.009 -2.0366 -0.392111 0
M  V30 4088 C 387.434 -1.11969 -1.51144 0
M  V30 4089 O 386.792 -0.111594 -1.80956 0
M  V30 4090 C 386.84 -3.49638 -0.882371 0
M  V30 4091 O 385.944 -3.6108 -1.99235 0
M  V30 4092 H 385.285 -0.658379 -0.0862122 0
M  V30 4093 H 387.815 -2.01302 0.365881 0
M  V30 4094 H 387.825 -3.90351 -1.18702 0
M  V30 4095 H 386.5 -4.15852 -0.0632361 0
M  V30 4096 H 385.077 -3.32262 -1.69282 0
M  V30 4097 N 387.262 0.0317525 -1.57568 0
M  V30 4098 C 388.51 0.721676 -1.88776 0
M  V30 4099 C 388.831 1.76039 -0.838772 0
M  V30 4100 O 388.101 1.95482 0.127935 0
M  V30 4101 H 386.681 0.269534 -0.696678 0
M  V30 4102 H 389.343 -0.00165879 -1.949 0
M  V30 4103 H 388.439 1.21293 -2.87566 0
M  V30 4104 N 388.74 1.54641 0.303973 0
M  V30 4105 C 389.988 1.73437 1.0375 0
M  V30 4106 C 390.309 0.521449 1.87899 0
M  V30 4107 O 389.579 -0.46432 1.90318 0
M  V30 4108 H 388.159 0.639518 0.386039 0
M  V30 4109 H 390.821 1.91988 0.335675 0
M  V30 4110 H 389.917 2.62235 1.69231 0
M  V30 4111 N 390.218 -0.567019 1.47046 0
M  V30 4112 C 391.464 -1.32658 1.53394 0
M  V30 4113 C 391.797 -1.93254 0.19148 0
M  V30 4114 O 391.072 -1.77338 -0.798844 0
M  V30 4115 C 391.355 -2.44412 2.64452 0
M  V30 4116 C 391.208 -1.88749 4.08282 0
M  V30 4117 C 392.527 -3.46387 2.71485 0
M  V30 4118 H 389.646 -0.48098 0.558415 0
M  V30 4119 H 392.288 -0.635481 1.79058 0
M  V30 4120 H 390.438 -3.03363 2.427 0
M  V30 4121 H 392.11 -1.34134 4.41368 0
M  V30 4122 H 390.353 -1.19481 4.17021 0
M  V30 4123 H 391.024 -2.69491 4.81745 0
M  V30 4124 H 393.5 -2.9734 2.91081 0
M  V30 4125 H 392.376 -4.2202 3.50985 0
M  V30 4126 H 392.637 -4.04616 1.78153 0
M  V30 4127 N 391.696 -1.35014 -0.812953 0
M  V30 4128 C 392.926 -1.30841 -1.59888 0
M  V30 4129 C 393.334 0.117576 -1.88834 0
M  V30 4130 O 392.677 1.07807 -1.48739 0
M  V30 4131 C 392.739 -2.0412 -2.95931 0
M  V30 4132 C 392.403 -3.53336 -2.89832 0
M  V30 4133 C 393.4 -4.48052 -2.63714 0
M  V30 4134 C 391.085 -3.95894 -3.0915 0
M  V30 4135 C 393.079 -5.833 -2.56982 0
M  V30 4136 C 390.766 -5.31239 -3.0204 0
M  V30 4137 C 391.764 -6.24754 -2.75991 0
M  V30 4138 O 391.452 -7.57617 -2.68833 0
M  V30 4139 H 391.184 -0.451215 -0.50337 0
M  V30 4140 H 393.738 -1.78354 -1.01877 0
M  V30 4141 H 391.968 -1.51235 -3.559 0
M  V30 4142 H 393.657 -1.93107 -3.57022 0
M  V30 4143 H 394.423 -4.16492 -2.48515 0
M  V30 4144 H 390.302 -3.23495 -3.28438 0
M  V30 4145 H 393.846 -6.56263 -2.36569 0
M  V30 4146 H 389.743 -5.62415 -3.16796 0
M  V30 4147 H 390.511 -7.67469 -2.84487 0
M  V30 4148 N 393.175 1.03435 -1.18907 0
M  V30 4149 C 394.403 1.80381 -1.01342 0
M  V30 4150 C 394.818 1.83649 0.438005 0
M  V30 4151 O 394.175 1.27655 1.30424 0
M  V30 4152 C 394.226 3.25689 -1.56873 0
M  V30 4153 O 393.947 3.22673 -2.96334 0
M  V30 4154 C 395.448 4.19255 -1.44014 0
M  V30 4155 H 392.668 0.56784 -0.35749 0
M  V30 4156 H 395.212 1.30317 -1.576 0
M  V30 4157 H 393.367 3.72962 -1.04777 0
M  V30 4158 H 393.781 4.13748 -3.22355 0
M  V30 4159 H 395.255 5.19123 -1.87657 0
M  V30 4160 H 395.732 4.37467 -0.389815 0
M  V30 4161 H 396.338 3.77851 -1.95214 0
M  V30 4162 N 394.653 0.992116 1.22453 0
M  V30 4163 C 395.901 0.666215 1.90804 0
M  V30 4164 C 396.222 -0.804152 1.77647 0
M  V30 4165 O 395.492 -1.57629 1.16318 0
M  V30 4166 H 394.072 0.243423 0.706225 0
M  V30 4167 H 396.734 1.25845 1.48825 0
M  V30 4168 H 395.83 0.928069 2.97982 0
M  V30 4169 N 396.131 -1.37776 0.765217 0
M  V30 4170 C 397.359 -2.04124 0.337767 0
M  V30 4171 C 397.774 -1.57715 -1.03785 0
M  V30 4172 O 397.131 -0.755447 -1.6613 0
M  V30 4173 C 397.182 -3.59658 0.364442 0
M  V30 4174 O 396.903 -4.04367 1.68579 0
M  V30 4175 C 398.404 -4.43236 -0.0754221 0
M  V30 4176 H 395.624 -0.655696 0.142491 0
M  V30 4177 H 398.168 -1.76238 1.03732 0
M  V30 4178 H 396.323 -3.86339 -0.286471 0
M  V30 4179 H 396.737 -4.98857 1.61993 0
M  V30 4180 H 398.211 -5.52 -0.00560067 0
M  V30 4181 H 398.688 -4.2455 -1.12491 0
M  V30 4182 H 399.294 -4.21767 0.547055 0
M  V30 4183 N 397.609 -0.515225 -1.4894 0
M  V30 4184 C 398.886 0.0879088 -1.95402 0
M  V30 4185 C 399.266 1.52745 -1.45712 0
M  V30 4186 O 398.614 2.18238 -0.677093 0
M  V30 4187 C 398.824 -0.0141055 -3.48997 0
M  V30 4188 C 400.172 0.152646 -4.24326 0
M  V30 4189 O 401.196 0.0604025 -3.56149 0
M  V30 4190 O 400.055 0.34384 -5.45417 0
M  V30 4191 H 397.149 0.0874636 -0.822362 0
M  V30 4192 H 399.695 -0.578775 -1.59525 0
M  V30 4193 H 398.467 -1.01745 -3.77841 0
M  V30 4194 H 398.09 0.692091 -3.9153 0
M  V30 4195 N 399.087 1.5561 -0.249682 0
M  V30 4196 C 400.335 1.98618 0.373548 0
M  V30 4197 C 400.656 1.13919 1.58264 0
M  V30 4198 O 399.926 0.222637 1.94631 0
M  V30 4199 H 398.506 0.733571 0.141006 0
M  V30 4200 H 401.168 1.91748 -0.349117 0
M  V30 4201 H 400.264 3.04584 0.680796 0
M  V30 4202 N 400.565 -0.0233959 1.57583 0
M  V30 4203 C 401.528 -1.00693 2.05897 0
M  V30 4204 C 402.528 -1.28693 0.964092 0
M  V30 4205 O 403.718 -1.23602 1.22753 0
M  V30 4206 C 400.85 -2.33825 2.4807 0
M  V30 4207 H 402.043 -0.589476 2.9405 0
M  V30 4208 H 399.596 -0.270354 1.53944 0
M  V30 4209 H 400.331 -2.80307 1.6309 0
M  V30 4210 H 400.116 -2.1483 3.2801 0
M  V30 4211 H 401.606 -3.04426 2.85857 0
M  V30 4212 N 402.043 -1.548 -0.295768 0
M  V30 4213 C 402.99 -1.86113 -1.36494 0
M  V30 4214 C 403.96 -0.7105 -1.50137 0
M  V30 4215 O 405.145 -0.959626 -1.64912 0
M  V30 4216 C 402.285 -2.11861 -2.72413 0
M  V30 4217 C 401.398 -3.39471 -2.67177 0
M  V30 4218 C 400.533 -3.55035 -3.95125 0
M  V30 4219 C 399.572 -4.76418 -3.84308 0
M  V30 4220 N 398.709 -4.8876 -5.04042 0
M  V30 4221 H 403.549 -2.77314 -1.09091 0
M  V30 4222 H 401.086 -1.37315 -0.52753 0
M  V30 4223 H 403.044 -2.24786 -3.51464 0
M  V30 4224 H 401.674 -1.2392 -2.98066 0
M  V30 4225 H 400.726 -3.35139 -1.79962 0
M  V30 4226 H 402.038 -4.28646 -2.55076 0
M  V30 4227 H 401.192 -3.67653 -4.82614 0
M  V30 4228 H 399.931 -2.64002 -4.10066 0
M  V30 4229 H 398.936 -4.63827 -2.95202 0
M  V30 4230 H 400.161 -5.68863 -3.70906 0
M  V30 4231 H 398.107 -4.00652 -5.19436 0
M  V30 4232 H 398.024 -5.71945 -4.94384 0
M  V30 4233 H 399.292 -5.0574 -5.93167 0
M  V30 4234 N 403.521 0.559213 -1.47345 0
M  V30 4235 C 404.484 1.64854 -1.59235 0
M  V30 4236 C 405.484 1.53851 -0.467607 0
M  V30 4237 O 406.674 1.58045 -0.732617 0
M  V30 4238 C 403.806 3.04388 -1.53496 0
M  V30 4239 H 404.999 1.55662 -2.56339 0
M  V30 4240 H 402.552 0.778973 -1.35505 0
M  V30 4241 H 403.287 3.19115 -0.577604 0
M  V30 4242 H 403.072 3.13783 -2.35123 0
M  V30 4243 H 404.562 3.83642 -1.6495 0
M  V30 4244 N 404.999 1.35443 0.805782 0
M  V30 4245 C 405.929 1.31095 1.93226 0
M  V30 4246 C 406.91 0.185244 1.69088 0
M  V30 4247 O 408.095 0.380332 1.90439 0
M  V30 4248 C 405.225 1.08299 3.29983 0
M  V30 4249 C 404.179 2.17519 3.68605 0
M  V30 4250 C 403.505 1.79887 5.03532 0
M  V30 4251 C 404.805 3.5949 3.78898 0
M  V30 4252 H 406.499 2.25352 1.97122 0
M  V30 4253 H 404.045 1.0848 0.946996 0
M  V30 4254 H 405.998 1.03897 4.08391 0
M  V30 4255 H 404.722 0.104885 3.26432 0
M  V30 4256 H 403.381 2.2102 2.92482 0
M  V30 4257 H 403.029 0.80693 4.96485 0
M  V30 4258 H 402.729 2.53001 5.30344 0
M  V30 4259 H 404.253 1.77011 5.84379 0
M  V30 4260 H 405.667 3.58307 4.47536 0
M  V30 4261 H 404.064 4.31371 4.1718 0
M  V30 4262 H 405.134 3.95584 2.80431 0
M  V30 4263 N 406.477 -1.02803 1.19454 0
M  V30 4264 C 407.44 -2.09264 0.934955 0
M  V30 4265 C 408.44 -1.60576 -0.0849015 0
M  V30 4266 O 409.63 -1.73554 0.149933 0
M  V30 4267 C 406.762 -3.38482 0.40531 0
M  V30 4268 H 407.955 -2.33726 1.87916 0
M  V30 4269 H 405.508 -1.19426 1.00832 0
M  V30 4270 H 406.243 -3.19689 -0.544899 0
M  V30 4271 H 406.028 -3.75142 1.14065 0
M  V30 4272 H 407.518 -4.16894 0.242806 0
M  V30 4273 N 407.956 -0.998596 -1.21925 0
M  V30 4274 C 408.886 -0.573688 -2.26343 0
M  V30 4275 C 409.867 0.402296 -1.65274 0
M  V30 4276 O 411.052 0.291683 -1.91997 0
M  V30 4277 C 408.182 0.106839 -3.47136 0
M  V30 4278 C 407.136 -0.788269 -4.20678 0
M  V30 4279 C 406.462 0.0254927 -5.34694 0
M  V30 4280 C 407.762 -2.08784 -4.78755 0
M  V30 4281 H 409.456 -1.44651 -2.62138 0
M  V30 4282 H 407.002 -0.696975 -1.26009 0
M  V30 4283 H 408.955 0.415531 -4.19346 0
M  V30 4284 H 407.679 1.01424 -3.10452 0
M  V30 4285 H 406.338 -1.08069 -3.50309 0
M  V30 4286 H 405.986 0.933989 -4.94253 0
M  V30 4287 H 405.686 -0.570437 -5.84825 0
M  V30 4288 H 407.21 0.328147 -6.09718 0
M  V30 4289 H 408.624 -1.84272 -5.42878 0
M  V30 4290 H 407.021 -2.63307 -5.39249 0
M  V30 4291 H 408.091 -2.76284 -3.98491 0
M  V30 4292 N 409.434 1.37368 -0.772513 0
M  V30 4293 C 410.682 1.99279 -0.336516 0
M  V30 4294 C 411.003 1.6163 1.09091 0
M  V30 4295 O 410.273 0.882109 1.74916 0
M  V30 4296 H 408.853 0.737063 -0.121435 0
M  V30 4297 H 411.515 1.67836 -0.990809 0
M  V30 4298 H 410.611 3.09332 -0.414763 0
M  V30 4299 N 410.912 0.523116 1.48665 0
M  V30 4300 C 411.875 -0.232592 2.28017 0
M  V30 4301 C 412.875 -0.874021 1.34972 0
M  V30 4302 O 414.065 -0.735132 1.57929 0
M  V30 4303 C 411.197 -1.33586 3.13636 0
M  V30 4304 H 412.39 0.464008 2.96289 0
M  V30 4305 H 409.943 0.278816 1.53793 0
M  V30 4306 H 410.678 -2.06593 2.4998 0
M  V30 4307 H 410.463 -0.881125 3.82071 0
M  V30 4308 H 411.953 -1.86759 3.73511 0
M  V30 4309 N 412.39 -1.55475 0.257931 0
M  V30 4310 C 413.667 -1.91155 -0.414629 0
M  V30 4311 C 414.047 -1.18008 -1.75035 0
M  V30 4312 O 413.395 -0.301193 -2.26506 0
M  V30 4313 C 413.605 -3.44283 -0.571859 0
M  V30 4314 C 414.953 -4.15744 -0.862678 0
M  V30 4315 O 415.977 -3.50083 -0.657314 0
M  V30 4316 O 414.836 -5.31909 -1.2544 0
M  V30 4317 H 411.93 -0.796016 -0.22425 0
M  V30 4318 H 414.476 -1.66976 0.302814 0
M  V30 4319 H 413.248 -3.89558 0.368844 0
M  V30 4320 H 412.871 -3.7436 -1.33943 0
M  V30 4321 N 413.868 0.0150385 -1.57593 0
M  V30 4322 C 414.798 1.01047 -2.10503 0
M  V30 4323 C 415.779 1.36816 -1.01071 0
M  V30 4324 O 416.964 1.45455 -1.28672 0
M  V30 4325 C 414.094 2.30708 -2.59598 0
M  V30 4326 C 413.048 2.09142 -3.73421 0
M  V30 4327 C 412.374 3.44685 -4.08774 0
M  V30 4328 C 413.674 1.46619 -5.01298 0
M  V30 4329 H 415.368 0.569978 -2.93925 0
M  V30 4330 H 412.914 0.272724 -1.41394 0
M  V30 4331 H 414.867 3.00687 -2.95238 0
M  V30 4332 H 413.591 2.76843 -1.73279 0
M  V30 4333 H 412.25 1.41592 -3.38153 0
M  V30 4334 H 411.898 3.88495 -3.195 0
M  V30 4335 H 411.598 3.31077 -4.8545 0
M  V30 4336 H 413.122 4.16004 -4.4696 0
M  V30 4337 H 414.536 2.06535 -5.34805 0
M  V30 4338 H 412.933 1.43544 -5.82679 0
M  V30 4339 H 414.003 0.433611 -4.82957 0
M  V30 4340 N 415.346 1.54954 0.287554 0
M  V30 4341 C 416.276 1.89839 1.35954 0
M  V30 4342 C 417.257 0.758675 1.52244 0
M  V30 4343 O 418.442 1.01557 1.65529 0
M  V30 4344 C 415.572 2.15753 2.72154 0
M  V30 4345 C 414.526 3.3159 2.70614 0
M  V30 4346 C 413.852 3.42952 4.10229 0
M  V30 4347 C 415.152 4.68359 2.31165 0
M  V30 4348 H 416.846 2.79625 1.07007 0
M  V30 4349 H 414.392 1.3454 0.513316 0
M  V30 4350 H 416.345 2.38743 3.47246 0
M  V30 4351 H 415.069 1.22752 3.02654 0
M  V30 4352 H 413.728 3.08545 1.97979 0
M  V30 4353 H 413.376 2.47443 4.37928 0
M  V30 4354 H 413.076 4.20826 4.10097 0
M  V30 4355 H 414.6 3.68218 4.87081 0
M  V30 4356 H 416.014 4.9099 2.95976 0
M  V30 4357 H 414.411 5.49044 2.42221 0
M  V30 4358 H 415.481 4.68165 1.26291 0
M  V30 4359 N 416.824 -0.551391 1.4764 0
M  V30 4360 C 417.787 -1.64007 1.60107 0
M  V30 4361 C 418.787 -1.53601 0.47576 0
M  V30 4362 O 419.977 -1.57655 0.740988 0
M  V30 4363 C 417.109 -3.03569 1.55108 0
M  V30 4364 H 418.302 -1.543 2.57161 0
M  V30 4365 H 415.855 -0.771776 1.35917 0
M  V30 4366 H 416.59 -3.18804 0.594519 0
M  V30 4367 H 416.375 -3.12532 2.36783 0
M  V30 4368 H 417.865 -3.82762 1.66982 0
M  V30 4369 N 418.302 -1.35869 -0.798587 0
M  V30 4370 C 419.548 -1.2978 -1.55836 0
M  V30 4371 C 419.881 0.125322 -1.93795 0
M  V30 4372 O 419.156 1.07658 -1.61987 0
M  V30 4373 C 419.439 -2.21188 -2.84162 0
M  V30 4374 C 419.292 -3.72155 -2.52628 0
M  V30 4375 C 420.611 -2.11545 -3.85923 0
M  V30 4376 H 417.73 -0.472769 -0.565383 0
M  V30 4377 H 420.372 -1.66341 -0.918192 0
M  V30 4378 H 418.522 -1.90139 -3.38791 0
M  V30 4379 H 420.194 -4.13682 -2.04121 0
M  V30 4380 H 418.437 -3.92042 -1.85704 0
M  V30 4381 H 419.108 -4.31511 -3.44242 0
M  V30 4382 H 421.584 -2.38855 -3.40716 0
M  V30 4383 H 420.46 -2.77688 -4.73477 0
M  V30 4384 H 420.721 -1.09987 -4.282 0
M  V30 4385 N 419.78 1.02168 -1.19998 0
M  V30 4386 C 420.743 2.08765 -0.94604 0
M  V30 4387 C 421.743 1.60618 0.0763846 0
M  V30 4388 O 422.933 1.73472 -0.159135 0
M  V30 4389 C 420.065 3.38262 -0.423255 0
M  V30 4390 H 421.258 2.32726 -1.89153 0
M  V30 4391 H 418.811 1.1889 -1.01464 0
M  V30 4392 H 419.546 3.19974 0.527938 0
M  V30 4393 H 419.331 3.74532 -1.16053 0
M  V30 4394 H 420.821 4.16759 -0.264911 0
M  V30 4395 N 421.258 1.00505 1.21394 0
M  V30 4396 C 422.674 0.717873 1.42544 0
M  V30 4397 C 422.874 -0.706936 1.88692 0
M  V30 4398 O 421.93 -1.47627 2.04847 0
M  V30 4399 C 423.243 1.73377 2.45684 0
M  V30 4400 C 424.791 1.75059 2.59467 0
M  V30 4401 C 425.266 2.75545 3.6584 0
M  V30 4402 N 426.757 2.74213 3.73311 0
M  V30 4403 C 427.492 3.48626 4.55245 0
M  V30 4404 N 426.988 4.32678 5.41075 0
M  V30 4405 N 428.781 3.37276 4.49668 0
M  V30 4406 H 420.932 1.92506 0.897503 0
M  V30 4407 H 423.195 0.830919 0.456375 0
M  V30 4408 H 422.901 2.75395 2.18748 0
M  V30 4409 H 422.775 1.53647 3.44489 0
M  V30 4410 H 425.162 0.737337 2.8574 0
M  V30 4411 H 425.243 1.98861 1.60897 0
M  V30 4412 H 424.887 3.77028 3.40313 0
M  V30 4413 H 424.817 2.49009 4.64007 0
M  V30 4414 H 427.308 2.13234 3.11993 0
M  V30 4415 H 427.621 4.86253 6.00648 0
M  V30 4416 H 425.966 4.3676 5.40616 0
M  V30 4417 H 429.157 2.71043 3.81646 0
M  V30 4418 H 429.33 3.95524 5.13288 0
M  V30 4419 N 422.737 -1.36956 0.779787 0
M  V30 4420 C 424.148 -1.82094 0.412156 0
M  V30 4421 C 424.499 -1.64926 -1.06273 0
M  V30 4422 O 423.624 -1.16483 -1.82375 0
M  V30 4423 C 424.219 -3.3059 0.741319 0
M  V30 4424 C 422.778 -3.73974 0.426641 0
M  V30 4425 C 421.925 -2.59368 0.980987 0
M  V30 4426 H 424.876 -1.25314 0.973758 0
M  V30 4427 H 424.897 -3.80489 0.028887 0
M  V30 4428 H 424.409 -3.43054 1.81482 0
M  V30 4429 H 422.51 -3.67076 -0.639215 0
M  V30 4430 H 422.623 -4.69778 0.940515 0
M  V30 4431 H 420.987 -2.51463 0.404757 0
M  V30 4432 H 421.77 -2.74621 2.06005 0
M  V30 4433 N 424.215 -0.530993 -1.48385 0
M  V30 4434 C 425.145 0.219985 -2.32461 0
M  V30 4435 C 426.126 0.934111 -1.42156 0
M  V30 4436 O 427.311 0.919694 -1.71042 0
M  V30 4437 C 424.441 1.26674 -3.23375 0
M  V30 4438 C 423.395 0.67069 -4.22712 0
M  V30 4439 C 422.721 1.82017 -5.02766 0
M  V30 4440 C 424.021 -0.358268 -5.2107 0
M  V30 4441 H 425.715 -0.48187 -2.95497 0
M  V30 4442 H 423.261 -0.233182 -1.42099 0
M  V30 4443 H 425.214 1.80006 -3.81019 0
M  V30 4444 H 423.938 1.99818 -2.58341 0
M  V30 4445 H 422.597 0.158878 -3.66256 0
M  V30 4446 H 422.245 2.54002 -4.34157 0
M  V30 4447 H 421.945 1.42727 -5.70003 0
M  V30 4448 H 423.469 2.35725 -5.63264 0
M  V30 4449 H 424.883 0.0880081 -5.73232 0
M  V30 4450 H 423.28 -0.66861 -5.96364 0
M  V30 4451 H 424.35 -1.26367 -4.68145 0
M  V30 4452 N 425.693 1.55336 -0.266172 0
M  V30 4453 C 426.623 2.25146 0.618981 0
M  V30 4454 C 427.604 1.23845 1.16604 0
M  V30 4455 O 428.789 1.52544 1.20183 0
M  V30 4456 C 425.919 2.96572 1.80728 0
M  V30 4457 C 424.873 4.04726 1.39215 0
M  V30 4458 C 424.199 4.63678 2.66283 0
M  V30 4459 C 425.499 5.19407 0.548942 0
M  V30 4460 H 427.193 2.99377 0.0368116 0
M  V30 4461 H 424.739 1.43991 0.0162651 0
M  V30 4462 H 426.692 3.44116 2.43232 0
M  V30 4463 H 425.416 2.19861 2.41514 0
M  V30 4464 H 424.075 3.57979 0.790351 0
M  V30 4465 H 423.723 3.83646 3.25308 0
M  V30 4466 H 423.423 5.367 2.39222 0
M  V30 4467 H 424.947 5.13967 3.29651 0
M  V30 4468 H 426.361 5.63059 1.07876 0
M  V30 4469 H 424.758 5.98936 0.373593 0
M  V30 4470 H 425.828 4.8295 -0.434394 0
M  V30 4471 N 427.171 -0.0066808 1.57599 0
M  V30 4472 C 428.587 -0.36267 1.55425 0
M  V30 4473 C 428.787 -1.75209 0.995187 0
M  V30 4474 O 427.843 -2.44616 0.626058 0
M  V30 4475 C 429.156 -0.244017 2.99708 0
M  V30 4476 C 430.704 -0.319451 3.11366 0
M  V30 4477 C 431.179 -0.229998 4.57422 0
M  V30 4478 N 432.67 -0.288105 4.62303 0
M  V30 4479 C 433.405 -0.242127 5.72889 0
M  V30 4480 N 432.901 -0.147133 6.92644 0
M  V30 4481 N 434.694 -0.293502 5.61333 0
M  V30 4482 H 426.845 0.902314 1.92281 0
M  V30 4483 H 429.108 0.34525 0.882896 0
M  V30 4484 H 428.814 0.711678 3.44424 0
M  V30 4485 H 428.688 -1.02877 3.629 0
M  V30 4486 H 431.075 -1.26559 2.66584 0
M  V30 4487 H 431.156 0.495055 2.50964 0
M  V30 4488 H 430.8 0.712566 5.02877 0
M  V30 4489 H 430.73 -1.0629 5.15761 0
M  V30 4490 H 433.221 -0.363126 3.76151 0
M  V30 4491 H 433.534 -0.117763 7.7271 0
M  V30 4492 H 431.879 -0.112857 6.94908 0
M  V30 4493 H 435.07 -0.365864 4.66668 0
M  V30 4494 H 435.243 -0.254204 6.47501 0
M  V30 4495 N 428.649 -1.55105 -0.279332 0
M  V30 4496 C 430.06 -1.66186 -0.850832 0
M  V30 4497 C 430.411 -0.584707 -1.87285 0
M  V30 4498 O 429.536 0.274919 -2.14647 0
M  V30 4499 C 430.131 -3.01264 -1.55001 0
M  V30 4500 C 428.69 -3.14394 -2.06963 0
M  V30 4501 C 427.837 -2.61959 -0.909536 0
M  V30 4502 H 430.788 -1.58602 -0.0558235 0
M  V30 4503 H 430.809 -2.93899 -2.41669 0
M  V30 4504 H 430.321 -3.7964 -0.805931 0
M  V30 4505 H 428.422 -2.4078 -2.84352 0
M  V30 4506 H 428.535 -4.20867 -2.28928 0
M  V30 4507 H 426.899 -2.18957 -1.30116 0
M  V30 4508 H 427.682 -3.42833 -0.179062 0
M  V30 4509 N 430.127 0.543554 -1.4793 0
M  V30 4510 C 431.09 1.63156 -1.60975 0
M  V30 4511 C 432.09 1.53346 -0.483899 0
M  V30 4512 O 433.28 1.5726 -0.749339 0
M  V30 4513 C 430.412 3.02743 -1.56716 0
M  V30 4514 H 431.605 1.52934 -2.57975 0
M  V30 4515 H 429.158 0.764557 -1.36324 0
M  V30 4516 H 429.893 3.18484 -0.611418 0
M  V30 4517 H 429.678 3.11272 -2.38438 0
M  V30 4518 H 431.168 3.81871 -1.6901 0
M  V30 4519 N 431.605 1.3629 0.791371 0
M  V30 4520 C 432.535 1.33137 1.91825 0
M  V30 4521 C 433.516 0.203168 1.68882 0
M  V30 4522 O 434.701 0.400509 1.90025 0
M  V30 4523 C 431.831 1.11793 3.28816 0
M  V30 4524 C 430.785 2.21417 3.66277 0
M  V30 4525 C 430.111 1.85218 5.01596 0
M  V30 4526 C 431.411 3.63489 3.75064 0
M  V30 4527 H 433.105 2.2743 1.9472 0
M  V30 4528 H 430.651 1.09479 0.935437 0
M  V30 4529 H 432.604 1.08222 4.07266 0
M  V30 4530 H 431.328 0.139501 3.26302 0
M  V30 4531 H 429.987 2.2411 2.90121 0
M  V30 4532 H 429.635 0.859544 4.95602 0
M  V30 4533 H 429.335 2.58611 5.27631 0
M  V30 4534 H 430.859 1.832 5.82469 0
M  V30 4535 H 432.273 3.63034 4.43711 0
M  V30 4536 H 430.67 4.35771 4.12582 0
M  V30 4537 H 431.74 3.98536 2.76219 0
M  V30 4538 N 433.083 -1.0153 1.20538 0
M  V30 4539 C 433.993 -2.13557 0.971113 0
M  V30 4540 C 435.009 -1.73845 -0.0734366 0
M  V30 4541 O 436.185 -2.01075 0.114299 0
M  V30 4542 C 433.25 -3.42661 0.527639 0
M  V30 4543 C 432.311 -3.96608 1.64319 0
M  V30 4544 C 431.544 -5.1955 1.22078 0
M  V30 4545 O 431.767 -5.70329 0.0900198 0
M  V30 4546 O 430.701 -5.66681 2.02871 0
M  V30 4547 H 434.527 -2.3619 1.90913 0
M  V30 4548 H 432.112 -1.11946 0.989362 0
M  V30 4549 H 433.994 -4.20404 0.289621 0
M  V30 4550 H 432.669 -3.21441 -0.381779 0
M  V30 4551 H 431.576 -3.20139 1.93551 0
M  V30 4552 H 432.909 -4.22219 2.52966 0
M  V30 4553 N 434.561 -1.01147 -1.20859 0
M  V30 4554 C 435.809 -0.696486 -1.89719 0
M  V30 4555 C 436.13 0.775788 -1.78904 0
M  V30 4556 O 435.4 1.55759 -1.18811 0
M  V30 4557 H 433.98 -0.254628 -0.702263 0
M  V30 4558 H 436.642 -1.28197 -1.46804 0
M  V30 4559 H 435.738 -0.975357 -2.96468 0
M  V30 4560 N 436.039 1.36541 -0.78704 0
M  V30 4561 C 437.002 2.28413 -0.189778 0
M  V30 4562 C 438.002 1.48719 0.611499 0
M  V30 4563 O 439.192 1.68737 0.432842 0
M  V30 4564 C 436.324 3.32824 0.737638 0
M  V30 4565 H 437.517 2.82743 -0.999831 0
M  V30 4566 H 435.07 1.46065 -0.556298 0
M  V30 4567 H 435.805 2.83646 1.57212 0
M  V30 4568 H 435.59 3.91752 0.165044 0
M  V30 4569 H 437.08 4.0144 1.15047 0
M  V30 4570 N 437.518 0.538854 1.48102 0
M  V30 4571 C 438.428 -0.222648 2.33541 0
M  V30 4572 C 439.444 -0.930225 1.47047 0
M  V30 4573 O 440.62 -0.903211 1.80011 0
M  V30 4574 C 437.685 -1.25064 3.23357 0
M  V30 4575 C 436.746 -0.552469 4.2573 0
M  V30 4576 C 435.979 -1.53149 5.11254 0
M  V30 4577 O 436.202 -2.76487 4.9891 0
M  V30 4578 O 435.136 -1.06602 5.92385 0
M  V30 4579 H 438.962 0.477707 2.99919 0
M  V30 4580 H 436.547 0.299669 1.46364 0
M  V30 4581 H 438.429 -1.8445 3.78888 0
M  V30 4582 H 437.104 -1.93325 2.59629 0
M  V30 4583 H 436.011 0.082114 3.7401 0
M  V30 4584 H 437.344 0.0883526 4.92121 0
M  V30 4585 N 438.996 -1.55193 0.274407 0
M  V30 4586 C 440.412 -1.59401 -0.0797543 0
M  V30 4587 C 440.612 -1.29162 -1.54659 0
M  V30 4588 O 439.668 -1.05215 -2.29534 0
M  V30 4589 C 440.981 -2.99257 0.294238 0
M  V30 4590 C 442.529 -3.12072 0.240796 0
M  V30 4591 C 443.004 -4.54194 0.589218 0
M  V30 4592 N 444.495 -4.60033 0.540744 0
M  V30 4593 C 445.23 -5.68027 0.783147 0
M  V30 4594 N 444.726 -6.8417 1.09013 0
M  V30 4595 N 446.519 -5.57572 0.711993 0
M  V30 4596 H 438.67 -1.73113 1.23067 0
M  V30 4597 H 440.933 -0.807197 0.497129 0
M  V30 4598 H 440.639 -3.26217 1.31435 0
M  V30 4599 H 440.513 -3.75427 -0.365281 0
M  V30 4600 H 442.9 -2.84877 -0.770024 0
M  V30 4601 H 442.981 -2.38117 0.934563 0
M  V30 4602 H 442.625 -4.82115 1.59772 0
M  V30 4603 H 442.555 -5.26448 -0.126331 0
M  V30 4604 H 445.046 -3.76599 0.313327 0
M  V30 4605 H 445.359 -7.6243 1.26178 0
M  V30 4606 H 443.704 -6.85787 1.12789 0
M  V30 4607 H 446.895 -4.65714 0.472014 0
M  V30 4608 H 447.068 -6.41659 0.90429 0
M  V30 4609 N 440.474 -0.00167713 -1.576 0
M  V30 4610 C 441.72 0.683832 -1.90923 0
M  V30 4611 C 442.053 1.7333 -0.875799 0
M  V30 4612 O 441.328 1.94215 0.10525 0
M  V30 4613 C 441.611 1.32543 -3.3482 0
M  V30 4614 C 441.464 0.287387 -4.48881 0
M  V30 4615 C 442.783 2.25114 -3.78169 0
M  V30 4616 H 439.902 0.247125 -0.694333 0
M  V30 4617 H 442.544 -0.0533149 -1.89925 0
M  V30 4618 H 440.694 1.95372 -3.35801 0
M  V30 4619 H 442.366 -0.341346 -4.60035 0
M  V30 4620 H 440.609 -0.39017 -4.32042 0
M  V30 4621 H 441.28 0.775393 -5.46527 0
M  V30 4622 H 443.756 1.723 -3.7875 0
M  V30 4623 H 442.632 2.66971 -4.79602 0
M  V30 4624 H 442.893 3.13092 -3.12131 0
M  V30 4625 N 441.952 1.55251 0.271103 0
M  V30 4626 C 442.915 1.87484 1.31842 0
M  V30 4627 C 443.915 0.749545 1.42262 0
M  V30 4628 O 445.105 1.01771 1.4138 0
M  V30 4629 C 442.237 2.0818 2.69951 0
M  V30 4630 H 443.43 2.81108 1.0449 0
M  V30 4631 H 440.983 1.47771 0.509258 0
M  V30 4632 H 441.718 1.16944 3.02481 0
M  V30 4633 H 441.503 2.90114 2.63774 0
M  V30 4634 H 442.993 2.34385 3.4562 0
M  V30 4635 N 443.43 -0.535701 1.48216 0
M  V30 4636 C 444.393 -1.623 1.61838 0
M  V30 4637 C 445.393 -1.53087 0.492024 0
M  V30 4638 O 446.583 -1.5686 0.757668 0
M  V30 4639 C 443.715 -3.01907 1.58319 0
M  V30 4640 H 444.908 -1.51564 2.58783 0
M  V30 4641 H 442.461 -0.757317 1.36727 0
M  V30 4642 H 443.196 -3.18155 0.628299 0
M  V30 4643 H 442.981 -3.10003 2.40085 0
M  V30 4644 H 444.471 -3.80969 1.71033 0
M  V30 4645 N 444.908 -1.36708 -0.784132 0
M  V30 4646 C 446.154 -1.32433 -1.54379 0
M  V30 4647 C 446.509 0.0941816 -1.92169 0
M  V30 4648 O 445.802 1.04997 -1.60269 0
M  V30 4649 C 445.996 -2.18571 -2.82774 0
M  V30 4650 C 445.825 -3.68656 -2.57533 0
M  V30 4651 C 444.595 -4.37813 -2.52286 0
M  V30 4652 C 446.793 -4.61802 -2.2637 0
M  V30 4653 N 444.775 -5.7351 -2.18997 0
M  V30 4654 C 446.146 -5.85785 -2.03115 0
M  V30 4655 C 448.201 -4.50313 -2.12421 0
M  V30 4656 C 446.904 -6.99569 -1.67321 0
M  V30 4657 C 448.93 -5.63969 -1.78026 0
M  V30 4658 C 448.292 -6.86994 -1.55622 0
M  V30 4659 H 444.391 -0.539886 -0.565727 0
M  V30 4660 H 446.975 -1.71812 -0.915908 0
M  V30 4661 H 445.146 -1.81429 -3.43421 0
M  V30 4662 H 446.878 -2.05646 -3.48557 0
M  V30 4663 H 443.633 -3.90674 -2.67714 0
M  V30 4664 H 444.057 -6.45189 -2.05084 0
M  V30 4665 H 448.699 -3.55781 -2.28429 0
M  V30 4666 H 446.417 -7.94047 -1.5005 0
M  V30 4667 H 450.003 -5.57044 -1.67909 0
M  V30 4668 H 448.883 -7.7345 -1.294 0
M  V30 4669 N 446.386 1.0089 -1.21074 0
M  V30 4670 C 447.635 1.74019 -1.01981 0
M  V30 4671 C 447.948 1.90408 0.447665 0
M  V30 4672 O 449.154 2.60707 0.757906 0
M  V30 4673 C 447.61 3.13026 -1.77603 0
M  V30 4674 C 447.218 3.04623 -3.28495 0
M  V30 4675 C 448.962 3.90312 -1.66904 0
M  V30 4676 C 446.869 4.38685 -3.96623 0
M  V30 4677 H 445.799 0.652422 -0.377971 0
M  V30 4678 H 448.45 1.12755 -1.44771 0
M  V30 4679 H 446.832 3.74878 -1.27604 0
M  V30 4680 H 448.006 2.52032 -3.85767 0
M  V30 4681 H 446.321 2.40827 -3.39693 0
M  V30 4682 H 448.918 4.8951 -2.15138 0
M  V30 4683 H 449.261 4.11558 -0.62658 0
M  V30 4684 H 449.794 3.35104 -2.14359 0
M  V30 4685 H 446.533 4.22641 -5.01054 0
M  V30 4686 H 446.053 4.91252 -3.4414 0
M  V30 4687 H 447.732 5.075 -4.01314 0
M  V30 4688 N 447.864 1.01787 1.20321 0
M  V30 4689 C 449.112 0.706538 1.89347 0
M  V30 4690 C 449.433 -0.766289 1.79313 0
M  V30 4691 O 448.703 -1.55126 1.19635 0
M  V30 4692 H 447.283 0.258348 0.700903 0
M  V30 4693 H 449.945 1.28974 1.46122 0
M  V30 4694 H 449.041 0.991066 2.95946 0
M  V30 4695 N 449.342 -1.36122 0.79427 0
M  V30 4696 C 450.619 -1.93398 0.292685 0
M  V30 4697 C 450.999 -1.72567 -1.21589 0
M  V30 4698 O 450.347 -1.08745 -2.00965 0
M  V30 4699 C 450.557 -3.42099 0.690614 0
M  V30 4700 C 451.905 -4.19231 0.673105 0
M  V30 4701 O 452.929 -3.50559 0.631389 0
M  V30 4702 O 451.788 -5.41732 0.720362 0
M  V30 4703 H 448.882 -0.823712 0.0736693 0
M  V30 4704 H 451.428 -1.45273 0.87714 0
M  V30 4705 H 450.2 -3.50938 1.73085 0
M  V30 4706 H 449.823 -3.97519 0.0803036 0
M  V30 4707 N 450.82 -0.546701 -1.47814 0
M  V30 4708 C 452.05 -0.0232519 -2.06587 0
M  V30 4709 C 452.458 1.2712 -1.40133 0
M  V30 4710 O 451.801 1.77091 -0.488305 0
M  V30 4711 C 451.863 0.254117 -3.58601 0
M  V30 4712 C 451.527 -0.949331 -4.47031 0
M  V30 4713 C 452.524 -1.85216 -4.85789 0
M  V30 4714 C 450.209 -1.16104 -4.88697 0
M  V30 4715 C 452.203 -2.95047 -5.65001 0
M  V30 4716 C 449.89 -2.26247 -5.67676 0
M  V30 4717 C 450.888 -3.1555 -6.05737 0
M  V30 4718 O 450.576 -4.23784 -6.83127 0
M  V30 4719 H 450.308 -0.0380082 -0.674931 0
M  V30 4720 H 452.862 -0.756631 -1.90956 0
M  V30 4721 H 451.092 1.04168 -3.72406 0
M  V30 4722 H 452.781 0.72167 -3.99433 0
M  V30 4723 H 453.547 -1.70061 -4.54207 0
M  V30 4724 H 449.426 -0.475159 -4.58545 0
M  V30 4725 H 452.97 -3.64778 -5.94628 0
M  V30 4726 H 448.867 -2.41379 -5.98671 0
M  V30 4727 H 449.635 -4.21701 -7.01506 0
M  V30 4728 N 452.299 1.55045 -0.282633 0
M  V30 4729 C 453.229 2.2579 0.595066 0
M  V30 4730 C 454.21 1.25074 1.15284 0
M  V30 4731 O 455.395 1.5381 1.18559 0
M  V30 4732 C 452.525 2.98472 1.77572 0
M  V30 4733 C 451.479 4.0618 1.34914 0
M  V30 4734 C 450.805 4.66477 2.6135 0
M  V30 4735 C 452.105 5.1996 0.493821 0
M  V30 4736 H 453.799 2.994 0.00505653 0
M  V30 4737 H 451.345 1.44 0.000992001 0
M  V30 4738 H 453.298 3.46677 2.39568 0
M  V30 4739 H 452.022 2.2241 2.39168 0
M  V30 4740 H 450.681 3.58797 0.752338 0
M  V30 4741 H 450.329 3.87074 3.2122 0
M  V30 4742 H 450.029 5.39207 2.33516 0
M  V30 4743 H 451.553 5.17435 3.24181 0
M  V30 4744 H 452.967 5.64172 1.01898 0
M  V30 4745 H 451.364 5.99299 0.310047 0
M  V30 4746 H 452.434 4.82462 -0.485593 0
M  V30 4747 N 453.777 0.010035 1.57597 0
M  V30 4748 C 454.687 -0.994226 2.12491 0
M  V30 4749 C 455.703 -1.37013 1.07254 0
M  V30 4750 O 456.879 -1.45542 1.3921 0
M  V30 4751 C 453.944 -2.2642 2.62555 0
M  V30 4752 C 453.005 -1.95049 3.82432 0
M  V30 4753 C 452.238 -3.15991 4.30099 0
M  V30 4754 O 452.461 -4.28015 3.7704 0
M  V30 4755 O 451.395 -2.99403 5.22151 0
M  V30 4756 H 455.221 -0.557549 2.98538 0
M  V30 4757 H 452.806 -0.209413 1.47925 0
M  V30 4758 H 454.688 -3.01009 2.9491 0
M  V30 4759 H 453.363 -2.69306 1.796 0
M  V30 4760 H 452.27 -1.17904 3.55034 0
M  V30 4761 H 453.603 -1.56992 4.66491 0
M  V30 4762 N 455.255 -1.55392 -0.262866 0
M  V30 4763 C 456.165 -1.92077 -1.34698 0
M  V30 4764 C 457.181 -0.819227 -1.53508 0
M  V30 4765 O 458.357 -1.11921 -1.67439 0
M  V30 4766 C 455.422 -2.19407 -2.68443 0
M  V30 4767 C 454.483 -3.42905 -2.58292 0
M  V30 4768 C 453.716 -3.68921 -3.85659 0
M  V30 4769 O 453.939 -2.97275 -4.8681 0
M  V30 4770 O 452.873 -4.62455 -3.85252 0
M  V30 4771 H 456.699 -2.84384 -1.06581 0
M  V30 4772 H 454.284 -1.42069 -0.462264 0
M  V30 4773 H 456.166 -2.38365 -3.47506 0
M  V30 4774 H 454.841 -1.30282 -2.96325 0
M  V30 4775 H 453.748 -3.29272 -1.7757 0
M  V30 4776 H 455.081 -4.32282 -2.35358 0
M  V30 4777 N 456.733 0.527833 -1.48498 0
M  V30 4778 C 457.663 1.64136 -1.66077 0
M  V30 4779 C 458.644 1.62286 -0.509625 0
M  V30 4780 O 459.829 1.79449 -0.742413 0
M  V30 4781 C 456.959 3.02717 -1.70234 0
M  V30 4782 C 455.913 3.19426 -2.8487 0
M  V30 4783 C 455.239 4.5909 -2.74118 0
M  V30 4784 C 456.539 3.01993 -4.26142 0
M  V30 4785 H 458.233 1.4968 -2.593 0
M  V30 4786 H 455.779 0.718654 -1.24785 0
M  V30 4787 H 457.732 3.80491 -1.8112 0
M  V30 4788 H 456.456 3.18201 -0.735911 0
M  V30 4789 H 455.115 2.4407 -2.73542 0
M  V30 4790 H 454.763 4.71413 -1.7544 0
M  V30 4791 H 454.463 4.71214 -3.51042 0
M  V30 4792 H 455.987 5.3896 -2.86974 0
M  V30 4793 H 457.401 3.69558 -4.38292 0
M  V30 4794 H 455.798 3.2561 -5.04082 0
M  V30 4795 H 456.868 1.98396 -4.42456 0
M  V30 4796 N 458.211 1.37122 0.776871 0
M  V30 4797 C 459.627 1.1781 1.07671 0
M  V30 4798 C 459.827 0.0107454 2.01497 0
M  V30 4799 O 458.883 -0.650756 2.4397 0
M  V30 4800 C 460.196 2.49451 1.67913 0
M  V30 4801 C 461.744 2.55927 1.80195 0
M  V30 4802 C 462.219 3.87686 2.43851 0
M  V30 4803 N 463.71 3.891 2.51307 0
M  V30 4804 C 464.445 4.87797 3.014 0
M  V30 4805 N 463.941 5.96888 3.51705 0
M  V30 4806 N 465.734 4.75205 3.00227 0
M  V30 4807 H 457.885 2.11843 0.153778 0
M  V30 4808 H 460.148 0.938927 0.130844 0
M  V30 4809 H 459.854 3.35207 1.06439 0
M  V30 4810 H 459.728 2.66169 2.67271 0
M  V30 4811 H 462.115 1.70582 2.40803 0
M  V30 4812 H 462.196 2.43097 0.796069 0
M  V30 4813 H 461.84 4.73444 1.83884 0
M  V30 4814 H 461.77 3.97817 3.45035 0
M  V30 4815 H 464.261 3.10293 2.157 0
M  V30 4816 H 464.574 6.68155 3.88316 0
M  V30 4817 H 462.919 6.0054 3.49824 0
M  V30 4818 H 466.11 3.89103 2.60224 0
M  V30 4819 H 466.283 5.52279 3.38957 0
M  V30 4820 N 459.689 -1.00246 1.21608 0
M  V30 4821 C 460.917 -1.77631 1.06089 0
M  V30 4822 C 461.332 -1.84746 -0.38916 0
M  V30 4823 O 460.689 -1.31068 -1.26994 0
M  V30 4824 C 460.74 -3.21415 1.65453 0
M  V30 4825 O 460.461 -3.14703 3.04785 0
M  V30 4826 C 461.962 -4.15289 1.55079 0
M  V30 4827 H 459.182 -0.558162 0.37242 0
M  V30 4828 H 461.726 -1.26093 1.60999 0
M  V30 4829 H 459.881 -3.70053 1.14629 0
M  V30 4830 H 460.295 -4.05056 3.33212 0
M  V30 4831 H 461.769 -5.13965 2.01355 0
M  V30 4832 H 462.246 -4.36279 0.505665 0
M  V30 4833 H 462.852 -3.72543 2.05163 0
M  V30 4834 N 461.167 -1.02423 -1.1978 0
M  V30 4835 C 462.13 -0.605703 -2.21052 0
M  V30 4836 C 463.13 0.328209 -1.57415 0
M  V30 4837 O 464.32 0.115853 -1.73814 0
M  V30 4838 C 461.452 0.114366 -3.40708 0
M  V30 4839 H 462.645 -1.5017 -2.59594 0
M  V30 4840 H 460.198 -0.814888 -1.33376 0
M  V30 4841 H 460.933 1.02492 -3.07678 0
M  V30 4842 H 460.718 -0.556641 -3.88129 0
M  V30 4843 H 462.208 0.394272 -4.15735 0
M  V30 4844 N 462.645 1.35699 -0.801477 0
M  V30 4845 C 463.575 2.32436 -0.222658 0
M  V30 4846 C 464.556 1.5723 0.649057 0
M  V30 4847 O 465.741 1.85324 0.580387 0
M  V30 4848 C 462.871 3.41469 0.633719 0
M  V30 4849 C 461.825 4.27774 -0.139083 0
M  V30 4850 C 461.151 5.28082 0.838666 0
M  V30 4851 C 462.451 5.04946 -1.33517 0
M  V30 4852 H 464.145 2.81094 -1.03086 0
M  V30 4853 H 461.691 1.35146 -0.497155 0
M  V30 4854 H 463.644 4.08143 1.04868 0
M  V30 4855 H 462.368 2.91408 1.47475 0
M  V30 4856 H 461.027 3.62673 -0.535156 0
M  V30 4857 H 460.675 4.7429 1.67506 0
M  V30 4858 H 460.375 5.86695 0.32594 0
M  V30 4859 H 461.899 5.97628 1.25194 0
M  V30 4860 H 463.313 5.64593 -0.995349 0
M  V30 4861 H 461.71 5.7303 -1.78202 0
M  V30 4862 H 462.78 4.35886 -2.12442 0
M  V30 4863 N 464.123 0.554532 1.47522 0
M  V30 4864 C 465.37 0.029479 2.02479 0
M  V30 4865 C 465.698 -1.31929 1.42916 0
M  V30 4866 O 464.953 -1.87112 0.573385 0
M  V30 4867 C 465.252 -0.115927 3.57212 0
M  V30 4868 C 464.918 1.16161 4.3568 0
M  V30 4869 C 463.58 1.51168 4.56839 0
M  V30 4870 C 465.932 2.0083 4.80954 0
M  V30 4871 C 463.26 2.70696 5.2052 0
M  V30 4872 C 465.612 3.19559 5.45953 0
M  V30 4873 C 464.276 3.54882 5.65345 0
M  V30 4874 H 463.546 0.0107871 0.740921 0
M  V30 4875 H 466.193 0.725506 1.77225 0
M  V30 4876 H 464.498 -0.894902 3.81443 0
M  V30 4877 H 466.195 -0.53749 3.97381 0
M  V30 4878 H 462.785 0.879026 4.19489 0
M  V30 4879 H 466.969 1.75093 4.64388 0
M  V30 4880 H 462.225 2.98236 5.33728 0
M  V30 4881 H 466.399 3.85456 5.79997 0
M  V30 4882 H 464.026 4.47596 6.1446 0
M  V30 4883 N 465.601 -1.54893 0.290851 0
M  V30 4884 C 466.564 -2.21824 -0.576784 0
M  V30 4885 C 467.564 -1.20104 -1.06919 0
M  V30 4886 O 468.754 -1.44906 -0.966843 0
M  V30 4887 C 465.886 -2.89662 -1.79747 0
M  V30 4888 H 467.079 -2.99899 0.00784051 0
M  V30 4889 H 464.632 -1.56245 0.0415934 0
M  V30 4890 H 465.367 -2.15639 -2.42219 0
M  V30 4891 H 465.152 -3.64219 -1.45214 0
M  V30 4892 H 466.642 -3.4075 -2.4141 0
M  V30 4893 N 467.08 -0.0183926 -1.57589 0
M  V30 4894 C 468.329 0.66185 -1.90532 0
M  V30 4895 C 468.642 1.73904 -0.895366 0
M  V30 4896 O 469.848 2.47518 -1.11566 0
M  V30 4897 C 468.304 1.22844 -3.38286 0
M  V30 4898 C 467.912 0.185103 -4.47617 0
M  V30 4899 C 469.656 1.88581 -3.80312 0
M  V30 4900 C 467.563 0.762723 -5.86461 0
M  V30 4901 H 466.493 0.250972 -0.711006 0
M  V30 4902 H 469.144 -0.0819435 -1.83317 0
M  V30 4903 H 467.526 2.0235 -3.40398 0
M  V30 4904 H 468.7 -0.58671 -4.5705 0
M  V30 4905 H 467.015 -0.372889 -4.14727 0
M  V30 4906 H 469.612 2.32735 -4.81392 0
M  V30 4907 H 469.955 2.72408 -3.14801 0
M  V30 4908 H 470.488 1.15782 -3.80578 0
M  V30 4909 H 467.227 -0.0371713 -6.55489 0
M  V30 4910 H 466.747 1.50327 -5.80656 0
M  V30 4911 H 468.426 1.25576 -6.34697 0
M  V30 4912 N 468.558 1.5553 0.254621 0
M  V30 4913 C 469.806 1.7665 0.981793 0
M  V30 4914 C 470.127 0.580963 1.86145 0
M  V30 4915 O 469.397 -0.403537 1.91699 0
M  V30 4916 H 467.977 0.651475 0.365498 0
M  V30 4917 H 470.639 1.92958 0.274426 0
M  V30 4918 H 469.735 2.67486 1.60802 0
M  V30 4919 N 470.036 -0.519951 1.48776 0
M  V30 4920 C 470.999 -1.60574 1.6355 0
M  V30 4921 C 471.999 -1.52557 0.508234 0
M  V30 4922 O 473.189 -1.56047 0.774262 0
M  V30 4923 C 470.321 -3.00211 1.61512 0
M  V30 4924 H 471.514 -1.4881 2.60376 0
M  V30 4925 H 469.067 -0.742772 1.37523 0
M  V30 4926 H 469.802 -3.17471 0.662009 0
M  V30 4927 H 469.587 -3.07439 2.43359 0
M  V30 4928 H 471.077 -3.79134 1.75064 0
M  V30 4929 N 471.514 -1.37532 -0.769588 0
M  V30 4930 C 472.461 -1.3347 -1.88293 0
M  V30 4931 C 473.431 -0.199891 -1.64893 0
M  V30 4932 O 474.616 -0.389594 -1.8678 0
M  V30 4933 C 471.756 -1.14968 -3.25387 0
M  V30 4934 C 470.869 -2.37698 -3.60727 0
M  V30 4935 C 470.004 -2.12051 -4.8704 0
M  V30 4936 C 469.043 -3.30636 -5.15117 0
M  V30 4937 N 468.18 -3.04527 -6.3262 0
M  V30 4938 H 473.02 -2.28658 -1.911 0
M  V30 4939 H 470.557 -1.13622 -0.934257 0
M  V30 4940 H 472.515 -1.02261 -4.04473 0
M  V30 4941 H 471.145 -0.234263 -3.21949 0
M  V30 4942 H 470.197 -2.61137 -2.76608 0
M  V30 4943 H 471.509 -3.26131 -3.77413 0
M  V30 4944 H 470.663 -1.96388 -5.74035 0
M  V30 4945 H 469.402 -1.20959 -4.72462 0
M  V30 4946 H 468.407 -3.46836 -4.26597 0
M  V30 4947 H 469.632 -4.22582 -5.31603 0
M  V30 4948 H 467.578 -2.16067 -6.19396 0
M  V30 4949 H 467.495 -3.86503 -6.49732 0
M  V30 4950 H 468.763 -2.92485 -7.22546 0
M  V30 4951 N 472.992 0.995999 -1.22138 0
M  V30 4952 C 473.94 2.10673 -0.985876 0
M  V30 4953 C 474.934 1.69255 0.0699553 0
M  V30 4954 O 476.14 1.79812 -0.0822176 0
M  V30 4955 H 472.515 0.688865 -0.30161 0
M  V30 4956 H 474.486 2.27711 -1.92848 0
M  V30 4957 C 473.235 3.42881 -0.576909 0
M  V30 4958 H 472.558 3.75191 -1.38101 0
M  V30 4959 H 473.998 4.21589 -0.451518 0
M  V30 4960 C 472.457 3.29265 0.713196 0
M  V30 4961 O 472.987 3.60777 1.76643 0
M  V30 4962 N 471.193 2.82456 0.683162 0
M  V30 4963 H 470.74 2.5701 -0.174242 0
M  V30 4964 H 470.698 2.73727 1.54663 0
M  V30 4965 N 474.47 1.03057 1.19235 0
M  V30 4966 C 475.881 0.757449 1.70645 0
M  V30 4967 C 476.232 -0.722735 1.82403 0
M  V30 4968 O 475.357 -1.56325 1.49638 0
M  V30 4969 C 475.952 1.36833 3.09939 0
M  V30 4970 C 474.511 1.14375 3.58602 0
M  V30 4971 C 473.658 1.46533 2.35422 0
M  V30 4972 H 476.609 1.19828 1.04052 0
M  V30 4973 H 476.63 0.766184 3.72706 0
M  V30 4974 H 476.142 2.44562 3.01349 0
M  V30 4975 H 474.243 0.0847542 3.72504 0
M  V30 4976 H 474.356 1.83366 4.42622 0
M  V30 4977 H 472.72 0.884712 2.38841 0
M  V30 4978 H 473.503 2.55349 2.2946 0
M  V30 4979 N 475.948 -1.35272 0.808662 0
M  V30 4980 C 476.895 -2.29764 0.218482 0
M  V30 4981 C 477.865 -1.52911 -0.648652 0
M  V30 4982 O 479.05 -1.81341 -0.593297 0
M  V30 4983 C 476.19 -3.39388 -0.625282 0
M  V30 4984 C 475.303 -4.31202 0.262516 0
M  V30 4985 C 474.438 -5.27919 -0.589451 0
M  V30 4986 C 473.477 -6.11371 0.298617 0
M  V30 4987 N 472.614 -7.0022 -0.513443 0
M  V30 4988 H 477.454 -2.79645 1.02968 0
M  V30 4989 H 474.991 -1.37629 0.519303 0
M  V30 4990 H 476.949 -4.01615 -1.12966 0
M  V30 4991 H 475.579 -2.90777 -1.40173 0
M  V30 4992 H 474.631 -3.69962 0.885013 0
M  V30 4993 H 475.943 -4.89748 0.945971 0
M  V30 4994 H 475.097 -5.95529 -1.15888 0
M  V30 4995 H 473.836 -4.69875 -1.30647 0
M  V30 4996 H 472.841 -5.42707 0.880301 0
M  V30 4997 H 474.066 -6.71494 1.01352 0
M  V30 4998 H 472.012 -6.44662 -1.21439 0
M  V30 4999 H 471.929 -7.55917 0.111922 0
M  V30 5000 H 473.197 -7.72175 -1.06608 0
M  V30 5001 N 477.426 -0.562348 -1.47226 0
M  V30 5002 C 478.336 0.185466 -2.33866 0
M  V30 5003 C 479.352 0.906713 -1.48508 0
M  V30 5004 O 480.528 0.874458 -1.81425 0
M  V30 5005 C 477.593 1.19904 -3.25306 0
M  V30 5006 C 476.654 0.484669 -4.26555 0
M  V30 5007 C 475.887 1.44996 -5.13626 0
M  V30 5008 O 476.11 2.68515 -5.03245 0
M  V30 5009 O 475.044 0.971642 -5.94006 0
M  V30 5010 H 478.87 -0.525361 -2.99121 0
M  V30 5011 H 476.455 -0.322916 -1.45868 0
M  V30 5012 H 478.337 1.78399 -3.81774 0
M  V30 5013 H 477.012 1.8917 -2.62672 0
M  V30 5014 H 475.919 -0.141605 -3.73832 0
M  V30 5015 H 477.252 -0.166634 -4.91918 0
M  V30 5016 N 478.904 1.54736 -0.299062 0
M  V30 5017 C 479.867 2.22127 0.565012 0
M  V30 5018 C 480.867 1.20669 1.06281 0
M  V30 5019 O 482.057 1.45417 0.959145 0
M  V30 5020 C 479.189 2.90611 1.78208 0
M  V30 5021 H 480.382 2.99891 -0.0237448 0
M  V30 5022 H 477.935 1.5622 -0.0498788 0
M  V30 5023 H 478.67 2.16921 2.41072 0
M  V30 5024 H 478.455 3.64984 1.43281 0
M  V30 5025 H 479.945 3.42026 2.396 0
M  V30 5026 N 480.382 0.0267497 1.57577 0
M  V30 5027 C 481.798 -0.32962 1.56159 0
M  V30 5028 C 481.998 -1.73059 1.03213 0
M  V30 5029 O 481.054 -2.43233 0.677804 0
M  V30 5030 C 482.367 -0.18039 3.00158 0
M  V30 5031 C 483.915 -0.253334 3.11973 0
M  V30 5032 C 484.39 -0.132921 4.57807 0
M  V30 5033 N 485.881 -0.189979 4.6281 0
M  V30 5034 C 486.616 -0.120554 5.73273 0
M  V30 5035 N 486.112 -0.000180315 6.928 0
M  V30 5036 N 487.905 -0.174369 5.61829 0
M  V30 5037 H 480.056 0.942896 1.90324 0
M  V30 5038 H 482.319 0.3639 0.875375 0
M  V30 5039 H 482.025 0.784576 3.42837 0
M  V30 5040 H 481.899 -0.951565 3.65 0
M  V30 5041 H 484.286 -1.20876 2.69208 0
M  V30 5042 H 484.367 0.548177 2.49857 0
M  V30 5043 H 484.011 0.819073 5.01252 0
M  V30 5044 H 483.941 -0.953264 5.179 0
M  V30 5045 H 486.432 -0.283257 3.76837 0
M  V30 5046 H 486.745 0.0461666 7.72786 0
M  V30 5047 H 485.09 0.034569 6.94991 0
M  V30 5048 H 488.281 -0.266794 4.67339 0
M  V30 5049 H 488.454 -0.116802 6.47895 0
M  V30 5050 N 481.861 -1.55662 -0.24637 0
M  V30 5051 C 483.109 -1.77168 -0.972411 0
M  V30 5052 C 483.43 -0.590827 -1.85834 0
M  V30 5053 O 482.7 0.393365 -1.9191 0
M  V30 5054 H 481.28 -0.653405 -0.362038 0
M  V30 5055 H 483.942 -1.93101 -0.264189 0
M  V30 5056 H 483.038 -2.68335 -1.59382 0
M  V30 5057 N 483.339 0.512053 -1.4905 0
M  V30 5058 C 484.755 0.84224 -1.35567 0
M  V30 5059 C 484.955 1.97878 -0.380319 0
M  V30 5060 O 484.011 2.51769 0.19201 0
M  V30 5061 C 485.324 1.19286 -2.76028 0
M  V30 5062 C 486.872 1.30171 -2.84648 0
M  V30 5063 C 487.347 1.68568 -4.25851 0
M  V30 5064 N 488.838 1.75638 -4.28609 0
M  V30 5065 C 489.573 2.06769 -5.34821 0
M  V30 5066 N 489.069 2.36201 -6.51292 0
M  V30 5067 N 490.862 2.07927 -5.22229 0
M  V30 5068 H 483.013 -0.237574 -2.11067 0
M  V30 5069 H 485.276 -0.0436747 -0.946993 0
M  V30 5070 H 484.982 0.431199 -3.49047 0
M  V30 5071 H 484.856 2.13889 -3.10695 0
M  V30 5072 H 487.243 2.05411 -2.11873 0
M  V30 5073 H 487.324 0.336457 -2.53578 0
M  V30 5074 H 486.968 0.938824 -4.99148 0
M  V30 5075 H 486.898 2.66174 -4.54377 0
M  V30 5076 H 489.389 1.55097 -3.44606 0
M  V30 5077 H 489.702 2.59112 -7.28066 0
M  V30 5078 H 488.047 2.33681 -6.54536 0
M  V30 5079 H 491.238 1.84403 -4.30248 0
M  V30 5080 H 491.411 2.31856 -6.05101 0
M  V30 5081 N 484.817 1.37938 0.762283 0
M  V30 5082 C 486.063 1.33866 1.52341 0
M  V30 5083 C 486.396 -0.0738961 1.94059 0
M  V30 5084 O 485.671 -1.03326 1.64785 0
M  V30 5085 C 485.954 2.28644 2.78197 0
M  V30 5086 C 485.807 3.78722 2.42672 0
M  V30 5087 C 487.126 2.21702 3.80179 0
M  V30 5088 H 484.245 0.487593 0.55265 0
M  V30 5089 H 486.887 1.68717 0.873767 0
M  V30 5090 H 485.037 1.99055 3.33631 0
M  V30 5091 H 486.709 4.18948 1.93081 0
M  V30 5092 H 484.952 3.96827 1.75244 0
M  V30 5093 H 485.623 4.40486 3.3268 0
M  V30 5094 H 488.099 2.47805 3.34263 0
M  V30 5095 H 486.975 2.90143 4.65949 0
M  V30 5096 H 487.236 1.21301 4.25133 0
M  V30 5097 N 486.295 -0.989507 1.22664 0
M  V30 5098 C 487.205 -2.11449 1.01619 0
M  V30 5099 C 488.221 -1.73962 -0.036545 0
M  V30 5100 O 489.397 -2.00788 0.156924 0
M  V30 5101 C 486.462 -3.41465 0.600204 0
M  V30 5102 C 485.523 -3.93033 1.72695 0
M  V30 5103 C 484.756 -5.16844 1.33071 0
M  V30 5104 O 484.979 -5.7001 0.210975 0
M  V30 5105 O 483.913 -5.6225 2.14845 0
M  V30 5106 H 487.739 -2.32088 1.9588 0
M  V30 5107 H 485.324 -1.09823 1.01289 0
M  V30 5108 H 487.206 -4.19695 0.37873 0
M  V30 5109 H 485.881 -3.22178 -0.313511 0
M  V30 5110 H 484.788 -3.15961 2.00298 0
M  V30 5111 H 486.121 -4.16758 2.61865 0
M  V30 5112 N 487.773 -1.03688 -1.18687 0
M  V30 5113 C 489.189 -0.755413 -1.4059 0
M  V30 5114 C 489.389 0.656659 -1.905 0
M  V30 5115 O 488.445 1.42144 -2.08689 0
M  V30 5116 C 489.758 -1.7983 -2.41001 0
M  V30 5117 C 491.306 -1.81877 -2.54735 0
M  V30 5118 C 491.781 -2.85148 -3.58406 0
M  V30 5119 N 493.272 -2.84015 -3.6591 0
M  V30 5120 C 494.007 -3.60573 -4.45841 0
M  V30 5121 N 493.503 -4.46871 -5.29413 0
M  V30 5122 N 495.296 -3.49079 -4.40568 0
M  V30 5123 H 487.447 -1.94818 -0.846148 0
M  V30 5124 H 489.71 -0.842727 -0.434184 0
M  V30 5125 H 489.416 -2.81097 -2.1137 0
M  V30 5126 H 489.29 -1.62727 -3.40294 0
M  V30 5127 H 491.677 -0.812836 -2.83685 0
M  V30 5128 H 491.758 -2.03057 -1.55568 0
M  V30 5129 H 491.402 -3.85918 -3.30197 0
M  V30 5130 H 491.332 -2.61224 -4.57241 0
M  V30 5131 H 493.823 -2.21431 -3.0623 0
M  V30 5132 H 494.136 -5.02007 -5.87545 0
M  V30 5133 H 492.481 -4.5094 -5.28846 0
M  V30 5134 H 495.672 -2.81066 -3.74325 0
M  V30 5135 H 495.845 -4.08994 -5.02621 0
M  V30 5136 N 489.251 1.34841 -0.815825 0
M  V30 5137 C 490.497 1.98793 -0.401129 0
M  V30 5138 C 490.83 1.64548 1.03139 0
M  V30 5139 O 490.105 0.913487 1.71714 0
M  V30 5140 C 490.388 3.55143 -0.595409 0
M  V30 5141 C 490.241 3.99155 -2.07352 0
M  V30 5142 C 491.56 4.40092 -0.0268823 0
M  V30 5143 H 488.679 0.722146 -0.14722 0
M  V30 5144 H 491.321 1.59847 -1.02707 0
M  V30 5145 H 489.471 3.8845 -0.0625779 0
M  V30 5146 H 491.143 3.76216 -2.66945 0
M  V30 5147 H 489.386 3.49726 -2.56659 0
M  V30 5148 H 490.057 5.07971 -2.1603 0
M  V30 5149 H 492.533 4.13298 -0.482042 0
M  V30 5150 H 491.409 5.48562 -0.19267 0
M  V30 5151 H 491.67 4.29016 1.06759 0
M  V30 5152 O 490.768 0.711044 1.45005 0
M  V30 5153 H 491.459 0.254759 1.92017 0
M  V30 END ATOM
M  V30 BEGIN BOND
M  V30 END BOND
M  V30 END CTAB
M  END
$$$$
