drugbank_target|Q9H244 P2Y purinoceptor 12 (DB00208; DB00374; DB00758; DB01240; DB05553; DB06209; DB06350; DB06441; DB08816)
 OpenBabel12092119243D

  0  0  0     0  0            999 V3000
M  V30 BEGIN CTAB
M  V30 COUNTS 5667 5735 0 0 0
M  V30 BEGIN ATOM
M  V30 1 H -0.908 1.98254 -0.117106 0
M  V30 2 N 0 1.576 0 0
M  V30 3 C 0.933 2.03868 1.02534 0
M  V30 4 C 1.911 0.928543 1.3348 0
M  V30 5 O 3.095 1.19667 1.45644 0
M  V30 6 C 0.222 2.43627 2.35294 0
M  V30 7 C -0.732 3.65373 2.2001 0
M  V30 8 S 0.101 5.13292 1.52614 0
M  V30 9 C 1.257 5.56322 2.86805 0
M  V30 10 H 1.49 2.90518 0.631377 0
M  V30 11 H -0.977 1.52953 0.210867 0
M  V30 12 H 0.981 2.67203 3.11629 0
M  V30 13 H -0.358 1.57376 2.7183 0
M  V30 14 H -1.165 3.90944 3.18086 0
M  V30 15 H -1.563 3.418 1.51819 0
M  V30 16 H 0.729 5.58782 3.83104 0
M  V30 17 H 1.672 6.56266 2.65933 0
M  V30 18 H 2.08 4.83886 2.90714 0
M  V30 19 N 1.4781 -0.272755 1.55222 0
M  V30 20 C 2.4101 -1.35946 1.8453 0
M  V30 21 C 3.4231 -1.45525 0.729818 0
M  V30 22 O 4.6121 -1.47337 1.00767 0
M  V30 23 C 1.7121 -2.74069 1.99347 0
M  V30 24 C 0.8851 -2.87079 3.30007 0
M  V30 25 C -0.0559 -4.05879 3.34886 0
M  V30 26 O -1.0299 -3.96626 4.08261 0
M  V30 27 N 0.1721 -5.17857 2.62307 0
M  V30 28 H 2.9371 -1.11149 2.78327 0
M  V30 29 H 0.4981 -0.462869 1.55142 0
M  V30 30 H 2.4901 -3.51838 1.99981 0
M  V30 31 H 1.0601 -2.91688 1.12415 0
M  V30 32 H 0.2801 -1.96193 3.41909 0
M  V30 33 H 1.5681 -2.92701 4.16177 0
M  V30 34 H 0.9661 -5.28261 2.02377 0
M  V30 35 H -0.4769 -5.93855 2.68663 0
M  V30 36 N 2.9562 -1.48159 -0.537278 0
M  V30 37 C 3.9192 -1.61665 -1.62472 0
M  V30 38 C 4.9192 -0.490395 -1.5314 0
M  V30 39 O 6.1092 -0.755998 -1.5694 0
M  V30 40 C 3.2412 -1.57997 -3.02076 0
M  V30 41 H 4.4342 -2.58621 -1.51839 0
M  V30 42 H 1.9872 -1.36647 -0.758771 0
M  V30 43 H 2.7222 -0.624913 -3.18222 0
M  V30 44 H 2.5072 -2.39755 -3.10258 0
M  V30 45 H 3.9972 -1.70627 -3.81151 0
M  V30 46 N 4.4343 0.785586 -1.36625 0
M  V30 47 C 5.6803 1.54591 -1.31261 0
M  V30 48 C 6.0133 1.93906 0.106823 0
M  V30 49 O 5.2883 1.63007 1.06108 0
M  V30 50 C 5.5713 2.82038 -2.23889 0
M  V30 51 C 5.4243 2.49066 -3.74548 0
M  V30 52 C 6.7433 3.83887 -2.15217 0
M  V30 53 H 3.8623 0.560846 -0.478143 0
M  V30 54 H 6.5043 0.902278 -1.67209 0
M  V30 55 H 4.6543 3.36961 -1.93363 0
M  V30 56 H 6.3263 2.00164 -4.15611 0
M  V30 57 H 4.5693 1.81954 -3.93796 0
M  V30 58 H 5.2403 3.40109 -4.34776 0
M  V30 59 H 7.7163 3.38421 -2.42096 0
M  V30 60 H 6.5923 4.70806 -2.82193 0
M  V30 61 H 6.8533 4.27131 -1.14068 0
M  V30 62 N 5.9124 1.20967 1.01018 0
M  V30 63 C 7.1894 0.93264 1.71934 0
M  V30 64 C 7.5694 -0.55692 2.03621 0
M  V30 65 O 6.9174 -1.52035 1.7058 0
M  V30 66 C 7.1274 1.81233 2.98254 0
M  V30 67 C 8.4754 2.05804 3.71389 0
M  V30 68 O 9.4994 1.78539 3.08225 0
M  V30 69 O 8.3584 2.51888 4.84989 0
M  V30 70 H 5.4524 0.349272 0.749625 0
M  V30 71 H 7.9984 1.31871 1.06808 0
M  V30 72 H 6.7704 2.82067 2.71208 0
M  V30 73 H 6.3934 1.42674 3.7112 0
M  V30 74 N 7.3905 -1.2043 1.01659 0
M  V30 75 C 8.3385 -2.25249 0.580143 0
M  V30 76 C 9.3325 -1.65057 -0.381115 0
M  V30 77 O 10.5385 -1.78241 -0.251039 0
M  V30 78 H 6.9135 -0.732695 0.169299 0
M  V30 79 H 8.8845 -2.59389 1.47512 0
M  V30 80 C 7.6335 -3.47638 -0.065788 0
M  V30 81 H 6.9565 -3.94233 0.664874 0
M  V30 82 H 8.3965 -4.2268 -0.334282 0
M  V30 83 C 6.8555 -3.10447 -1.3086 0
M  V30 84 O 7.3855 -3.21981 -2.4019 0
M  V30 85 N 5.5915 -2.64996 -1.1927 0
M  V30 86 H 5.1385 -2.55811 -0.303064 0
M  V30 87 H 5.0965 -2.40482 -2.02523 0
M  V30 88 N 8.8686 -0.792821 -1.36206 0
M  V30 89 C 9.7986 -0.207853 -2.32573 0
M  V30 90 C 10.7796 0.659055 -1.56813 0
M  V30 91 O 11.9646 0.592176 -1.84951 0
M  V30 92 C 9.0946 0.655449 -3.41059 0
M  V30 93 C 8.0486 -0.111842 -4.27854 0
M  V30 94 C 7.3746 0.872274 -5.27537 0
M  V30 95 C 8.6746 -1.30299 -5.05786 0
M  V30 96 H 10.3686 -1.01294 -2.81744 0
M  V30 97 H 7.9146 -0.48854 -1.3546 0
M  V30 98 H 9.8676 1.07464 -4.07467 0
M  V30 99 H 8.5916 1.49328 -2.90463 0
M  V30 100 H 7.2506 -0.512053 -3.63006 0
M  V30 101 H 6.8986 1.70523 -4.73214 0
M  V30 102 H 6.5986 0.363291 -5.86476 0
M  V30 103 H 8.1226 1.28996 -5.96818 0
M  V30 104 H 9.5366 -0.959379 -5.65216 0
M  V30 105 H 7.9336 -1.7455 -5.74154 0
M  V30 106 H 9.0036 -2.09663 -4.37229 0
M  V30 107 N 10.3467 1.47872 -0.545128 0
M  V30 108 C 11.5747 2.06889 -0.021084 0
M  V30 109 C 11.9897 1.39955 1.2672 0
M  V30 110 O 11.3467 0.492036 1.75742 0
M  V30 111 C 11.3977 3.60996 0.190817 0
M  V30 112 O 11.1187 4.25419 -1.04644 0
M  V30 113 C 12.6197 4.36849 0.753521 0
M  V30 114 H 9.8397 0.669785 -0.0403635 0
M  V30 115 H 12.3837 1.90049 -0.755095 0
M  V30 116 H 10.5387 3.77391 0.87492 0
M  V30 117 H 10.9527 5.17785 -0.836611 0
M  V30 118 H 12.4267 5.45399 0.851139 0
M  V30 119 H 12.9037 4.02306 1.762 0
M  V30 120 H 13.5097 4.25169 0.105503 0
M  V30 121 N 11.8248 0.280983 1.55075 0
M  V30 122 C 13.0498 -0.340154 2.04592 0
M  V30 123 C 13.4748 -1.48246 1.15779 0
M  V30 124 O 12.8328 -1.80614 0.15761 0
M  V30 125 C 12.8808 -0.793104 3.5177 0
M  V30 126 O 11.9848 -1.89981 3.66034 0
M  V30 127 H 11.3258 -0.0694289 0.66036 0
M  V30 128 H 13.8558 0.416993 2.00306 0
M  V30 129 H 13.8658 -1.08729 3.93245 0
M  V30 130 H 12.5408 0.0426163 4.15878 0
M  V30 131 H 11.1178 -1.60771 3.36463 0
M  V30 132 N 13.3029 -1.57598 0.00835791 0
M  V30 133 C 14.2659 -2.07884 -0.965242 0
M  V30 134 C 15.2659 -0.989825 -1.26725 0
M  V30 135 O 16.4559 -1.25218 -1.21104 0
M  V30 136 C 13.5879 -2.52731 -2.28779 0
M  V30 137 H 14.7809 -2.95178 -0.530112 0
M  V30 138 H 12.3339 -1.54458 -0.239283 0
M  V30 139 H 13.0689 -1.68705 -2.76964 0
M  V30 140 H 12.8539 -3.32272 -2.08177 0
M  V30 141 H 14.3439 -2.91933 -2.98605 0
M  V30 142 N 14.781 0.264519 -1.55364 0
M  V30 143 C 16.192 0.834936 -1.6699 0
M  V30 144 C 16.543 1.86718 -0.602552 0
M  V30 145 O 15.668 2.14899 0.254425 0
M  V30 146 C 16.263 1.5212 -3.02729 0
M  V30 147 C 14.822 2.03954 -3.16354 0
M  V30 148 C 13.969 0.884498 -2.62815 0
M  V30 149 H 16.92 0.0406869 -1.58648 0
M  V30 150 H 16.941 2.38853 -2.96191 0
M  V30 151 H 16.453 0.769668 -3.80392 0
M  V30 152 H 14.554 2.82041 -2.43482 0
M  V30 153 H 14.667 2.24902 -4.23032 0
M  V30 154 H 13.031 1.2802 -2.20188 0
M  V30 155 H 13.814 0.14634 -3.42988 0
M  V30 156 N 16.2591 1.48442 0.529413 0
M  V30 157 C 17.5071 1.56179 1.28267 0
M  V30 158 C 17.8281 0.237721 1.93546 0
M  V30 159 O 17.0981 -0.740779 1.81354 0
M  V30 160 H 15.6781 0.575367 0.476405 0
M  V30 161 H 18.3401 1.84909 0.61602 0
M  V30 162 H 17.4361 2.34312 2.06165 0
M  V30 163 N 17.7372 -0.778329 1.37039 0
M  V30 164 C 18.6852 -1.91278 1.32345 0
M  V30 165 C 19.6792 -1.68051 0.213331 0
M  V30 166 O 20.8852 -1.75922 0.38098 0
M  V30 167 H 17.2602 -0.628909 0.412283 0
M  V30 168 H 19.2312 -1.92355 2.28127 0
M  V30 169 C 17.9802 -3.28455 1.14073 0
M  V30 170 H 17.3032 -3.46901 1.98746 0
M  V30 171 H 18.7432 -4.08152 1.14837 0
M  V30 172 C 17.2022 -3.36548 -0.154015 0
M  V30 173 O 17.7322 -3.85186 -1.13993 0
M  V30 174 N 15.9382 -2.89894 -0.202475 0
M  V30 175 H 15.4852 -2.50504 0.600476 0
M  V30 176 H 15.4432 -2.9569 -1.06841 0
M  V30 177 N 19.2153 -1.21501 -1.00376 0
M  V30 178 C 20.4433 -1.059 -1.77744 0
M  V30 179 C 20.8583 0.391125 -1.84704 0
M  V30 180 O 20.2153 1.27133 -1.30933 0
M  V30 181 C 20.2663 -1.65111 -3.21591 0
M  V30 182 O 19.9873 -3.0445 -3.15027 0
M  V30 183 C 21.4883 -1.54637 -4.15454 0
M  V30 184 H 18.7083 -0.371825 -0.558558 0
M  V30 185 H 21.2523 -1.60865 -1.26264 0
M  V30 186 H 19.4073 -1.14235 -3.70175 0
M  V30 187 H 19.8213 -3.3278 -4.0541 0
M  V30 188 H 21.2953 -2.00808 -5.14179 0
M  V30 189 H 21.7723 -0.501022 -4.36333 0
M  V30 190 H 22.3783 -2.04767 -3.72761 0
M  V30 191 N 20.6934 1.19889 -1.02296 0
M  V30 192 C 21.9184 1.9393 -0.735237 0
M  V30 193 C 22.3434 1.74639 0.698782 0
M  V30 194 O 21.7014 1.04481 1.48167 0
M  V30 195 C 21.7494 3.43916 -1.08417 0
M  V30 196 O 20.8534 4.11917 -0.199446 0
M  V30 197 H 20.1944 0.605645 -0.272196 0
M  V30 198 H 22.7244 1.52137 -1.36804 0
M  V30 199 H 22.7344 3.9456 -1.03856 0
M  V30 200 H 21.4094 3.5728 -2.12894 0
M  V30 201 H 19.9864 3.71666 -0.303136 0
M  V30 202 N 22.1715 0.800033 1.35784 0
M  V30 203 C 23.1015 0.220184 2.3246 0
M  V30 204 C 24.0825 -0.65073 1.57161 0
M  V30 205 O 25.2675 -0.582359 1.85263 0
M  V30 206 C 22.3975 -0.637353 3.41402 0
M  V30 207 C 21.3515 0.134531 4.27789 0
M  V30 208 C 20.6775 -0.844285 5.27992 0
M  V30 209 C 21.9775 1.32979 5.05088 0
M  V30 210 H 23.6715 1.02787 2.81203 0
M  V30 211 H 21.2175 0.495717 1.35199 0
M  V30 212 H 23.1705 -1.05302 4.08031 0
M  V30 213 H 21.8945 -1.47785 2.91251 0
M  V30 214 H 20.5535 0.531296 3.6273 0
M  V30 215 H 20.2015 -1.68011 4.74111 0
M  V30 216 H 19.9015 -0.332184 5.8666 0
M  V30 217 H 21.4255 -1.2583 5.97494 0
M  V30 218 H 22.8395 0.98934 5.64699 0
M  V30 219 H 21.2365 1.77593 5.7322 0
M  V30 220 H 22.3065 2.11978 4.36111 0
M  V30 221 N 23.6496 -1.47581 0.552962 0
M  V30 222 C 24.8896 -2.04379 0.0296245 0
M  V30 223 C 25.2536 -1.4185 -1.29393 0
M  V30 224 O 26.4546 -1.89669 -1.90471 0
M  V30 225 C 24.7256 -3.57339 -0.0661371 0
M  V30 226 S 26.2846 -4.35511 -0.536213 0
M  V30 227 H 23.1026 -0.710625 0.0230991 0
M  V30 228 H 25.7046 -1.81005 0.738734 0
M  V30 229 H 24.4086 -4.00374 0.901596 0
M  V30 230 H 23.9396 -3.85202 -0.798931 0
M  V30 231 H 25.9546 -4.6253 -1.79668 0
M  V30 232 N 25.1277 -0.289203 -1.54924 0
M  V30 233 C 26.3557 0.326463 -2.04308 0
M  V30 234 C 26.7707 1.48413 -1.16701 0
M  V30 235 O 26.1277 1.81507 -0.190087 0
M  V30 236 C 26.1787 0.794014 -3.52672 0
M  V30 237 O 25.8997 -0.317564 -4.36948 0
M  V30 238 C 27.4007 1.47605 -4.18004 0
M  V30 239 H 24.6207 0.0726272 -0.667058 0
M  V30 240 H 27.1647 -0.425401 -2.00026 0
M  V30 241 H 25.3197 1.49593 -3.57352 0
M  V30 242 H 25.7337 0.0443186 -5.24481 0
M  V30 243 H 27.2077 1.75447 -5.23376 0
M  V30 244 H 27.6847 2.41224 -3.67025 0
M  V30 245 H 28.2907 0.81762 -4.17367 0
M  V30 246 N 26.6058 1.57591 -0.0167156 0
M  V30 247 C 28.0218 1.55946 0.339557 0
M  V30 248 C 28.2218 1.02109 1.73713 0
M  V30 249 O 27.2778 0.662303 2.43659 0
M  V30 250 C 28.5908 3.00037 0.199499 0
M  V30 251 C 30.1388 3.11805 0.273193 0
M  V30 252 C 30.6138 4.57713 0.162068 0
M  V30 253 N 32.1048 4.6268 0.219444 0
M  V30 254 C 32.8398 5.73185 0.157054 0
M  V30 255 N 32.3358 6.92786 0.0442936 0
M  V30 256 N 34.1288 5.61707 0.21014 0
M  V30 257 H 26.2798 1.90921 -0.930758 0
M  V30 258 H 28.5428 0.877674 -0.358319 0
M  V30 259 H 28.2488 3.4333 -0.76273 0
M  V30 260 H 28.1228 3.64387 0.974786 0
M  V30 261 H 30.5098 2.68433 1.22587 0
M  V30 262 H 30.5908 2.50201 -0.532256 0
M  V30 263 H 30.2348 5.01763 -0.78714 0
M  V30 264 H 30.1648 5.17283 0.986222 0
M  V30 265 H 32.6558 3.76649 0.307246 0
M  V30 266 H 32.9688 7.728 0.00304069 0
M  V30 267 H 31.3138 6.94999 0.00968457 0
M  V30 268 H 34.5048 4.6716 0.296546 0
M  V30 269 H 34.6778 6.47807 0.158054 0
M  V30 270 N 28.0839 -0.256276 1.55502 0
M  V30 271 C 29.3609 -1.00789 1.67633 0
M  V30 272 C 29.7409 -2.03706 0.553826 0
M  V30 273 O 29.0889 -2.24145 -0.443969 0
M  V30 274 C 29.2989 -1.64968 3.07549 0
M  V30 275 C 30.6469 -2.15505 3.65845 0
M  V30 276 O 31.6709 -1.74925 3.1029 0
M  V30 277 O 30.5299 -2.89986 4.63217 0
M  V30 278 H 27.6239 -0.468553 0.681459 0
M  V30 279 H 30.1699 -0.250806 1.67836 0
M  V30 280 H 28.9419 -0.904785 3.80696 0
M  V30 281 H 28.5649 -2.47321 3.11317 0
M  V30 282 N 29.562 -1.4872 -0.521534 0
M  V30 283 C 30.792 -1.6061 -1.29954 0
M  V30 284 C 31.2 -0.268728 -1.87282 0
M  V30 285 O 30.543 0.753221 -1.67548 0
M  V30 286 C 30.605 -2.60013 -2.48261 0
M  V30 287 C 30.269 -4.04874 -2.11957 0
M  V30 288 C 31.266 -4.92304 -1.67132 0
M  V30 289 C 28.951 -4.5047 -2.22221 0
M  V30 290 C 30.945 -6.2336 -1.33047 0
M  V30 291 C 28.632 -5.81544 -1.87748 0
M  V30 292 C 29.63 -6.67812 -1.43234 0
M  V30 293 O 29.318 -7.96446 -1.09217 0
M  V30 294 H 29.05 -0.544116 -0.401141 0
M  V30 295 H 31.604 -1.95339 -0.634958 0
M  V30 296 H 29.834 -2.20422 -3.17728 0
M  V30 297 H 31.523 -2.61648 -3.10315 0
M  V30 298 H 32.289 -4.58312 -1.58665 0
M  V30 299 H 28.168 -3.83504 -2.55823 0
M  V30 300 H 31.712 -6.90649 -0.982299 0
M  V30 301 H 27.609 -6.15069 -1.95858 0
M  V30 302 H 28.377 -8.09275 -1.22542 0
M  V30 303 N 31.0401 0.771051 -1.3745 0
M  V30 304 C 31.9871 1.88435 -1.3327 0
M  V30 305 C 32.9571 1.64914 -0.198136 0
M  V30 306 O 34.1421 1.86821 -0.387606 0
M  V30 307 C 31.2821 3.25509 -1.14622 0
M  V30 308 C 30.3951 3.60979 -2.37314 0
M  V30 309 C 29.5301 4.87265 -2.11533 0
M  V30 310 C 28.5691 5.15469 -3.30088 0
M  V30 311 N 27.7061 6.32944 -3.03853 0
M  V30 312 H 32.5461 1.91344 -2.28455 0
M  V30 313 H 30.0831 0.935466 -1.13523 0
M  V30 314 H 32.0411 4.04582 -1.01831 0
M  V30 315 H 30.6711 3.21974 -0.230837 0
M  V30 316 H 29.7231 2.76885 -2.60842 0
M  V30 317 H 31.0351 3.77759 -3.25729 0
M  V30 318 H 30.1891 5.74244 -1.95777 0
M  V30 319 H 28.9281 4.7259 -1.20457 0
M  V30 320 H 27.9331 4.26966 -3.46382 0
M  V30 321 H 29.1581 5.32052 -4.22016 0
M  V30 322 H 27.1041 6.19625 -2.15407 0
M  V30 323 H 27.0211 6.50143 -3.85812 0
M  V30 324 H 28.2891 7.22857 -2.91716 0
M  V30 325 N 32.5182 1.22032 0.997298 0
M  V30 326 C 33.7672 1.03637 1.73038 0
M  V30 327 C 34.0802 -0.429475 1.90827 0
M  V30 328 O 35.2862 -0.732995 2.61418 0
M  V30 329 C 33.7422 1.80582 3.11317 0
M  V30 330 C 33.3502 3.31387 3.01474 0
M  V30 331 C 35.0942 1.70621 3.88701 0
M  V30 332 C 33.0012 4.00791 4.3488 0
M  V30 333 H 31.9312 0.384179 0.648785 0
M  V30 334 H 34.5822 1.4584 1.11368 0
M  V30 335 H 32.9642 1.31175 3.73643 0
M  V30 336 H 34.1382 3.88155 2.4834 0
M  V30 337 H 32.4532 3.41976 2.37575 0
M  V30 338 H 35.0502 2.19799 4.87434 0
M  V30 339 H 35.3932 0.665823 4.10941 0
M  V30 340 H 35.9262 2.17547 3.33044 0
M  V30 341 H 32.6652 5.05064 4.1784 0
M  V30 342 H 32.1852 3.48811 4.87945 0
M  V30 343 H 33.8642 4.06139 5.03647 0
M  V30 344 N 33.9963 -1.19345 1.0293 0
M  V30 345 C 35.2243 -1.92997 0.745644 0
M  V30 346 C 35.6393 -1.75519 -0.695589 0
M  V30 347 O 34.9963 -1.07737 -1.47306 0
M  V30 348 C 35.0473 -3.44741 1.08792 0
M  V30 349 O 34.7683 -3.61658 2.47256 0
M  V30 350 C 36.2693 -4.35515 0.827129 0
M  V30 351 H 33.4893 -0.613042 0.272801 0
M  V30 352 H 36.0333 -1.51473 1.3739 0
M  V30 353 H 34.1883 -3.84097 0.504832 0
M  V30 354 H 34.6023 -4.55514 2.60015 0
M  V30 355 H 36.0763 -5.40589 1.11658 0
M  V30 356 H 36.5533 -4.38552 -0.238436 0
M  V30 357 H 37.1593 -4.01841 1.39297 0
M  V30 358 N 35.4744 -0.807222 -1.35358 0
M  V30 359 C 36.4064 -0.175717 -2.28525 0
M  V30 360 C 37.4194 0.625354 -1.5031 0
M  V30 361 O 38.6084 0.457611 -1.72535 0
M  V30 362 C 35.7084 0.773471 -3.29956 0
M  V30 363 C 34.8814 0.0186296 -4.37396 0
M  V30 364 C 33.9404 0.886395 -5.18681 0
M  V30 365 O 32.9664 0.337106 -5.68201 0
M  V30 366 N 34.1684 2.20839 -5.36852 0
M  V30 367 H 36.9334 -0.976091 -2.83359 0
M  V30 368 H 34.4944 -0.662737 -1.47714 0
M  V30 369 H 36.4864 1.35824 -3.81227 0
M  V30 370 H 35.0564 1.47465 -2.75632 0
M  V30 371 H 34.2764 -0.747349 -3.87051 0
M  V30 372 H 35.5644 -0.501577 -5.06322 0
M  V30 373 H 34.9624 2.67858 -4.98265 0
M  V30 374 H 33.5194 2.74237 -5.91301 0
M  V30 375 N 36.9525 1.47285 -0.560781 0
M  V30 376 C 38.1985 2.02764 -0.0381184 0
M  V30 377 C 38.5315 1.43384 1.30976 0
M  V30 378 O 37.8065 0.590733 1.85312 0
M  V30 379 C 38.0895 3.60064 0.0511427 0
M  V30 380 C 37.9425 4.2987 -1.32408 0
M  V30 381 C 39.2615 4.33439 0.762795 0
M  V30 382 H 36.3805 0.736841 -0.0153264 0
M  V30 383 H 39.0225 1.75675 -0.723759 0
M  V30 384 H 37.1725 3.83274 0.635065 0
M  V30 385 H 38.8445 4.17989 -1.95148 0
M  V30 386 H 37.0875 3.90085 -1.8978 0
M  V30 387 H 37.7585 5.38478 -1.21431 0
M  V30 388 H 40.2345 4.15243 0.266965 0
M  V30 389 H 39.1105 5.43124 0.794221 0
M  V30 390 H 39.3715 4.02915 1.81966 0
M  V30 391 N 38.4306 0.297415 1.54768 0
M  V30 392 C 39.3606 -0.573494 2.26348 0
M  V30 393 C 40.3416 -1.14085 1.26169 0
M  V30 394 O 41.5266 -1.17086 1.54934 0
M  V30 395 C 38.6566 -1.74716 3.00153 0
M  V30 396 C 37.6106 -1.31032 4.07449 0
M  V30 397 C 36.9366 -2.56887 4.68949 0
M  V30 398 C 38.2366 -0.444183 5.20408 0
M  V30 399 H 39.9306 0.0235131 2.99391 0
M  V30 400 H 37.4766 0.0127488 1.43994 0
M  V30 401 H 39.4296 -2.3625 3.48947 0
M  V30 402 H 38.1536 -2.37035 2.24682 0
M  V30 403 H 36.8126 -0.718066 3.59499 0
M  V30 404 H 36.4606 -3.17512 3.90122 0
M  V30 405 H 36.1606 -2.2836 5.41411 0
M  V30 406 H 37.6846 -3.19229 5.20505 0
M  V30 407 H 39.0986 -0.9651 5.65118 0
M  V30 408 H 37.4956 -0.252846 5.99567 0
M  V30 409 H 38.5656 0.531609 4.81977 0
M  V30 410 N 39.9087 -1.5758 0.0250728 0
M  V30 411 C 41.1557 -1.91633 -0.654444 0
M  V30 412 C 41.4837 -0.901103 -1.72367 0
M  V30 413 O 40.7387 0.0905647 -1.9549 0
M  V30 414 C 41.0377 -3.32421 -1.31268 0
M  V30 415 C 40.7037 -4.49344 -0.374223 0
M  V30 416 C 39.3657 -4.8106 -0.115911 0
M  V30 417 C 41.7177 -5.20498 0.270432 0
M  V30 418 C 39.0457 -5.8129 0.79493 0
M  V30 419 C 41.3977 -6.21699 1.1693 0
M  V30 420 C 40.0617 -6.51859 1.43655 0
M  V30 421 H 39.3317 -0.701236 -0.239478 0
M  V30 422 H 41.9787 -1.91307 0.0859734 0
M  V30 423 H 40.2837 -3.28989 -2.12775 0
M  V30 424 H 41.9807 -3.56038 -1.84494 0
M  V30 425 H 38.5707 -4.24579 -0.58573 0
M  V30 426 H 42.7547 -4.96229 0.0839194 0
M  V30 427 H 38.0107 -6.03005 1.00973 0
M  V30 428 H 42.1847 -6.75955 1.67504 0
M  V30 429 H 39.8117 -7.2934 2.144 0
M  V30 430 N 41.3868 0.248026 -1.55636 0
M  V30 431 C 42.7978 0.817177 -1.67866 0
M  V30 432 C 43.1488 1.86069 -0.622322 0
M  V30 433 O 42.2738 2.15157 0.231618 0
M  V30 434 C 42.8688 1.489 -3.04326 0
M  V30 435 C 41.4278 2.00587 -3.185 0
M  V30 436 C 40.5748 0.856573 -2.63739 0
M  V30 437 H 43.5258 0.0238579 -1.58682 0
M  V30 438 H 43.5468 2.35698 -2.98708 0
M  V30 439 H 43.0588 0.729279 -3.81186 0
M  V30 440 H 41.1598 2.79443 -2.4646 0
M  V30 441 H 41.2728 2.20402 -4.25393 0
M  V30 442 H 39.6368 1.25678 -2.21534 0
M  V30 443 H 40.4198 0.109953 -3.43124 0
M  V30 444 N 42.8649 1.48995 0.513639 0
M  V30 445 C 43.7949 1.67636 1.62544 0
M  V30 446 C 44.7759 0.525087 1.61793 0
M  V30 447 O 45.9609 0.759502 1.78732 0
M  V30 448 C 43.0909 1.73114 3.01079 0
M  V30 449 C 42.0449 2.87905 3.16693 0
M  V30 450 C 41.3709 2.78486 4.56453 0
M  V30 451 C 42.6709 4.29005 2.97913 0
M  V30 452 H 44.3649 2.60716 1.47198 0
M  V30 453 H 41.9109 1.25465 0.706714 0
M  V30 454 H 43.8639 1.84742 3.78746 0
M  V30 455 H 42.5879 0.766241 3.17484 0
M  V30 456 H 41.2469 2.75859 2.41448 0
M  V30 457 H 40.8949 1.7993 4.69717 0
M  V30 458 H 40.5949 3.55523 4.67843 0
M  V30 459 H 42.1189 2.92104 5.36197 0
M  V30 460 H 43.5329 4.41798 3.65359 0
M  V30 461 H 41.9299 5.07166 3.20785 0
M  V30 462 H 42.9999 4.44329 1.94165 0
M  V30 463 N 44.343 -0.763751 1.37857 0
M  V30 464 C 45.273 -1.89103 1.36975 0
M  V30 465 C 46.254 -1.68439 0.237152 0
M  V30 466 O 47.439 -1.8918 0.438713 0
M  V30 467 C 44.569 -3.26496 1.18395 0
M  V30 468 C 43.523 -3.61741 2.28751 0
M  V30 469 C 42.849 -4.97762 1.95286 0
M  V30 470 C 44.149 -3.67665 3.70972 0
M  V30 471 H 45.843 -1.90099 2.31307 0
M  V30 472 H 43.389 -0.91319 1.11341 0
M  V30 473 H 45.342 -4.05003 1.16406 0
M  V30 474 H 44.066 -3.25955 0.205215 0
M  V30 475 H 42.725 -2.85547 2.29909 0
M  V30 476 H 42.373 -4.93769 0.959221 0
M  V30 477 H 42.073 -5.22313 2.69189 0
M  V30 478 H 43.597 -5.7866 1.94898 0
M  V30 479 H 45.011 -4.36307 3.719 0
M  V30 480 H 43.408 -4.03718 4.43995 0
M  V30 481 H 44.478 -2.68134 4.0402 0
M  V30 482 N 45.8211 -1.22559 -0.990812 0
M  V30 483 C 47.0511 -1.07623 -1.76355 0
M  V30 484 C 47.4591 0.37601 -1.85426 0
M  V30 485 O 46.8021 1.27228 -1.32509 0
M  V30 486 C 46.8641 -1.61507 -3.21179 0
M  V30 487 C 46.5281 -3.10146 -3.35646 0
M  V30 488 C 47.5251 -4.07553 -3.22796 0
M  V30 489 C 45.2101 -3.49644 -3.60631 0
M  V30 490 C 47.2041 -5.42442 -3.34716 0
M  V30 491 C 44.8911 -4.84682 -3.72192 0
M  V30 492 C 45.8891 -5.8089 -3.59243 0
M  V30 493 O 45.5771 -7.13476 -3.70415 0
M  V30 494 H 45.3091 -0.377745 -0.560611 0
M  V30 495 H 47.8631 -1.62658 -1.25425 0
M  V30 496 H 46.0931 -1.00881 -3.73309 0
M  V30 497 H 47.7821 -1.42202 -3.80175 0
M  V30 498 H 48.5481 -3.78381 -3.03403 0
M  V30 499 H 44.4271 -2.75282 -3.69785 0
M  V30 500 H 47.9711 -6.17518 -3.24526 0
M  V30 501 H 43.8681 -5.13534 -3.91092 0
M  V30 502 H 44.6361 -7.21083 -3.87275 0
M  V30 503 N 47.2992 1.18797 -1.03562 0
M  V30 504 C 48.5272 1.92599 -0.755869 0
M  V30 505 C 48.9422 1.75886 0.686271 0
M  V30 506 O 48.2992 1.08517 1.46732 0
M  V30 507 C 48.3502 3.44159 -1.10619 0
M  V30 508 O 48.0712 3.60341 -2.4917 0
M  V30 509 C 49.5722 4.3507 -0.850214 0
M  V30 510 H 46.7922 0.611587 -0.276048 0
M  V30 511 H 49.3362 1.50742 -1.38192 0
M  V30 512 H 47.4912 3.83823 -0.525194 0
M  V30 513 H 47.9052 4.54128 -2.62427 0
M  V30 514 H 49.3792 5.39989 -1.14523 0
M  V30 515 H 49.8562 4.38673 0.215176 0
M  V30 516 H 50.4622 4.01097 -1.41426 0
M  V30 517 N 48.7773 0.814389 1.34928 0
M  V30 518 C 50.0233 0.399013 1.98836 0
M  V30 519 C 50.3563 -1.03314 1.64438 0
M  V30 520 O 49.6313 -1.71811 0.911659 0
M  V30 521 C 49.9143 0.591629 3.55207 0
M  V30 522 C 49.7673 2.06928 3.99376 0
M  V30 523 C 51.0863 0.022199 4.40094 0
M  V30 524 H 48.2053 0.146451 0.722303 0
M  V30 525 H 50.8473 1.02537 1.59957 0
M  V30 526 H 48.9973 0.0584441 3.88456 0
M  V30 527 H 50.6693 2.66544 3.76499 0
M  V30 528 H 48.9123 2.56287 3.49999 0
M  V30 529 H 49.5833 2.1549 5.08201 0
M  V30 530 H 52.0593 0.477643 4.13349 0
M  V30 531 H 50.9353 0.186832 5.48582 0
M  V30 532 H 51.1963 -1.07215 4.28902 0
M  V30 533 N 50.2554 -1.46986 0.568584 0
M  V30 534 C 51.1854 -2.32946 -0.160753 0
M  V30 535 C 52.1664 -1.44487 -0.897631 0
M  V30 536 O 53.3514 -1.73327 -0.875867 0
M  V30 537 C 50.4814 -3.26494 -1.18403 0
M  V30 538 C 49.4354 -4.24282 -0.562895 0
M  V30 539 C 48.7614 -5.07236 -1.69163 0
M  V30 540 C 50.0614 -5.19989 0.490761 0
M  V30 541 H 51.7554 -2.94175 0.556916 0
M  V30 542 H 49.3014 -1.4146 0.26927 0
M  V30 543 H 51.2544 -3.85477 -1.70251 0
M  V30 544 H 49.9784 -2.63343 -1.93179 0
M  V30 545 H 48.6374 -3.66541 -0.0656164 0
M  V30 546 H 48.2854 -4.4048 -2.42871 0
M  V30 547 H 47.9854 -5.7345 -1.28174 0
M  V30 548 H 49.5094 -5.6908 -2.21314 0
M  V30 549 H 50.9234 -5.73271 0.0579047 0
M  V30 550 H 49.3204 -5.94469 0.820165 0
M  V30 551 H 50.3904 -4.64777 1.3824 0
M  V30 552 N 51.7335 -0.305618 -1.54608 0
M  V30 553 C 52.9805 0.302298 -2.00231 0
M  V30 554 C 53.3085 1.5354 -1.19398 0
M  V30 555 O 52.5635 1.93973 -0.259423 0
M  V30 556 C 52.8625 0.698983 -3.50498 0
M  V30 557 C 52.5285 -0.432903 -4.48817 0
M  V30 558 C 51.1905 -0.743622 -4.75419 0
M  V30 559 C 53.5425 -1.19409 -5.07337 0
M  V30 560 C 50.8705 -1.81857 -5.57804 0
M  V30 561 C 53.2225 -2.25899 -5.90891 0
M  V30 562 C 51.8865 -2.57572 -6.15803 0
M  V30 563 H 51.1565 0.110619 -0.732697 0
M  V30 564 H 53.8035 -0.425674 -1.86709 0
M  V30 565 H 52.1085 1.50711 -3.61654 0
M  V30 566 H 53.8055 1.1806 -3.83227 0
M  V30 567 H 50.3955 -0.18063 -4.28219 0
M  V30 568 H 54.5795 -0.967295 -4.86782 0
M  V30 569 H 49.8355 -2.06864 -5.75341 0
M  V30 570 H 54.0095 -2.85335 -6.35261 0
M  V30 571 H 51.6365 -3.40998 -6.7943 0
M  V30 572 N 53.2116 1.57565 -0.0334293 0
M  V30 573 C 54.4586 1.91978 0.644272 0
M  V30 574 C 54.7866 0.910231 1.71887 0
M  V30 575 O 54.0416 -0.0801961 1.95536 0
M  V30 576 C 54.3406 3.33112 1.29504 0
M  V30 577 C 54.0066 4.49537 0.350388 0
M  V30 578 C 52.6686 4.81115 0.0903974 0
M  V30 579 C 55.0206 5.20347 -0.298032 0
M  V30 580 C 52.3486 5.8086 -0.825746 0
M  V30 581 C 54.7006 6.2107 -1.20226 0
M  V30 582 C 53.3646 6.51088 -1.4711 0
M  V30 583 H 52.6346 0.702496 0.235756 0
M  V30 584 H 55.2816 1.91259 -0.0961176 0
M  V30 585 H 53.5866 3.30113 2.11028 0
M  V30 586 H 55.2836 3.57011 1.82603 0
M  V30 587 H 51.8736 4.24883 0.563205 0
M  V30 588 H 56.0576 4.96178 -0.110234 0
M  V30 589 H 51.3136 6.02461 -1.04169 0
M  V30 590 H 55.4876 6.75057 -1.71086 0
M  V30 591 H 53.1146 7.28193 -2.18264 0
M  V30 592 N 54.6897 -0.239769 1.55765 0
M  V30 593 C 55.9357 -0.968234 1.78194 0
M  V30 594 C 56.2687 -1.84701 0.599938 0
M  V30 595 O 55.5437 -1.9031 -0.401524 0
M  V30 596 C 55.8267 -1.8227 3.10564 0
M  V30 597 C 55.6797 -0.971633 4.3918 0
M  V30 598 C 56.9987 -2.80388 3.39221 0
M  V30 599 H 54.1177 -0.350572 0.648281 0
M  V30 600 H 56.7597 -0.238259 1.885 0
M  V30 601 H 54.9097 -2.44507 3.01908 0
M  V30 602 H 56.5817 -0.367408 4.59835 0
M  V30 603 H 54.8247 -0.276276 4.32919 0
M  V30 604 H 55.4957 -1.60346 5.28198 0
M  V30 605 H 57.9717 -2.28287 3.47885 0
M  V30 606 H 56.8477 -3.3729 4.33044 0
M  V30 607 H 57.1087 -3.57212 2.60484 0
M  V30 608 N 56.1678 -1.49265 -0.50573 0
M  V30 609 C 57.4158 -1.582 -1.25766 0
M  V30 610 C 57.7368 -0.268482 -1.93143 0
M  V30 611 O 57.0068 0.711833 -1.8251 0
M  V30 612 H 55.5868 -0.582873 -0.467191 0
M  V30 613 H 58.2488 -1.85865 -0.586525 0
M  V30 614 H 57.3448 -2.37563 -2.02412 0
M  V30 615 N 57.6459 0.756429 -1.3826 0
M  V30 616 C 58.5759 1.88374 -1.37976 0
M  V30 617 C 59.5569 1.68311 -0.246082 0
M  V30 618 O 60.7419 1.88944 -0.44874 0
M  V30 619 C 57.8719 3.25864 -1.20125 0
M  V30 620 C 56.8259 3.60523 -2.30666 0
M  V30 621 C 56.1519 4.9672 -1.97923 0
M  V30 622 C 57.4519 3.65692 -3.72916 0
M  V30 623 H 59.1459 1.88869 -2.32312 0
M  V30 624 H 56.6919 0.907272 -1.11824 0
M  V30 625 H 58.6449 4.0438 -1.18552 0
M  V30 626 H 57.3689 3.25841 -0.222498 0
M  V30 627 H 56.0279 2.84324 -2.3142 0
M  V30 628 H 55.6759 4.93253 -0.985393 0
M  V30 629 H 55.3759 5.20878 -2.71955 0
M  V30 630 H 56.8999 5.77618 -1.97964 0
M  V30 631 H 58.3139 4.34328 -3.74208 0
M  V30 632 H 56.7109 4.01358 -4.4613 0
M  V30 633 H 57.7809 2.65987 -4.05436 0
M  V30 634 N 59.124 1.23083 0.984299 0
M  V30 635 C 60.373 1.05466 1.71929 0
M  V30 636 C 60.686 -0.409211 1.91272 0
M  V30 637 O 61.892 -0.705226 2.62181 0
M  V30 638 C 60.348 1.83874 3.09384 0
M  V30 639 C 59.956 3.34566 2.97943 0
M  V30 640 C 61.7 1.74734 3.8687 0
M  V30 641 C 59.607 4.05381 4.30605 0
M  V30 642 H 58.537 0.391039 0.644674 0
M  V30 643 H 61.188 1.47013 1.09815 0
M  V30 644 H 59.57 1.35131 3.72231 0
M  V30 645 H 60.744 3.90767 2.44209 0
M  V30 646 H 59.059 3.44476 2.33934 0
M  V30 647 H 61.656 2.24957 4.85076 0
M  V30 648 H 61.999 0.709372 4.10212 0
M  V30 649 H 62.532 2.21067 3.30717 0
M  V30 650 H 59.271 5.09467 4.1246 0
M  V30 651 H 58.791 3.53967 4.84218 0
M  V30 652 H 60.47 4.11458 4.99311 0
M  V30 653 N 60.6021 -1.18246 1.0419 0
M  V30 654 C 61.8301 -1.92195 0.766072 0
M  V30 655 C 62.2451 -1.76247 -0.676933 0
M  V30 656 O 61.6021 -1.09293 -1.46155 0
M  V30 657 C 61.6531 -3.43568 1.12442 0
M  V30 658 O 61.3741 -3.59015 2.51078 0
M  V30 659 C 62.8751 -4.34613 0.873275 0
M  V30 660 H 60.0951 -0.610114 0.279288 0
M  V30 661 H 62.6391 -1.50007 1.38989 0
M  V30 662 H 60.7941 -3.8354 0.545542 0
M  V30 663 H 61.2081 -4.5273 2.64831 0
M  V30 664 H 62.6821 -5.39374 1.17385 0
M  V30 665 H 63.1591 -4.38781 -0.191909 0
M  V30 666 H 63.7651 -4.00341 1.43551 0
M  V30 667 N 62.0802 -0.821533 -1.34494 0
M  V30 668 C 63.0282 -0.230702 -2.31453 0
M  V30 669 C 64.0222 0.627793 -1.57338 0
M  V30 670 O 65.2282 0.519288 -1.72347 0
M  V30 671 H 61.6032 -0.0558577 -0.749923 0
M  V30 672 H 63.5742 -1.06332 -2.78812 0
M  V30 673 C 62.3232 0.59391 -3.4259 0
M  V30 674 H 61.6462 -0.0573588 -3.99759 0
M  V30 675 H 63.0862 0.973446 -4.12674 0
M  V30 676 C 61.5452 1.76568 -2.86924 0
M  V30 677 O 62.0752 2.8638 -2.81691 0
M  V30 678 N 60.2812 1.58198 -2.43766 0
M  V30 679 H 59.8282 0.68872 -2.48222 0
M  V30 680 H 59.7862 2.36752 -2.06871 0
M  V30 681 N 63.5583 1.46682 -0.576371 0
M  V30 682 C 64.8063 2.02013 -0.0594163 0
M  V30 683 C 65.1273 1.45101 1.30271 0
M  V30 684 O 64.3973 0.633317 1.8538 0
M  V30 685 H 62.9773 0.746759 -0.0189745 0
M  V30 686 H 65.6393 1.79862 -0.750717 0
M  V30 687 H 64.7353 3.12097 0.014345 0
M  V30 688 N 65.0364 0.313813 1.54444 0
M  V30 689 C 65.9664 -0.549454 2.26943 0
M  V30 690 C 66.9474 -1.12741 1.27372 0
M  V30 691 O 68.1324 -1.15436 1.56167 0
M  V30 692 C 65.2624 -1.71523 3.01989 0
M  V30 693 C 64.2164 -1.26703 4.08816 0
M  V30 694 C 63.5424 -2.51898 4.71647 0
M  V30 695 C 64.8424 -0.388962 5.2085 0
M  V30 696 H 66.5364 0.0552661 2.99349 0
M  V30 697 H 64.0824 0.0280207 1.43973 0
M  V30 698 H 66.0354 -2.32535 3.51433 0
M  V30 699 H 64.7594 -2.34639 2.27183 0
M  V30 700 H 63.4184 -0.679896 3.6024 0
M  V30 701 H 63.0664 -3.13356 3.93468 0
M  V30 702 H 62.7664 -2.22605 5.43802 0
M  V30 703 H 64.2904 -3.1369 5.23861 0
M  V30 704 H 65.7044 -0.905107 5.6611 0
M  V30 705 H 64.1014 -0.18924 5.99802 0
M  V30 706 H 65.1714 0.582699 4.81386 0
M  V30 707 N 66.5145 -1.57545 0.0417849 0
M  V30 708 C 67.4775 -2.09885 -0.92093 0
M  V30 709 C 68.4775 -1.01648 -1.24596 0
M  V30 710 O 69.6675 -1.27759 -1.1842 0
M  V30 711 C 66.7995 -2.57527 -2.23367 0
M  V30 712 H 67.9925 -2.96236 -0.467382 0
M  V30 713 H 65.5455 -1.5493 -0.206467 0
M  V30 714 H 66.2805 -1.74542 -2.73323 0
M  V30 715 H 66.0655 -3.36613 -2.01083 0
M  V30 716 H 67.5555 -2.98201 -2.92346 0
M  V30 717 N 67.9926 0.231505 -1.5589 0
M  V30 718 C 68.9256 1.31369 -1.86595 0
M  V30 719 C 69.9036 1.45671 -0.722397 0
M  V30 720 O 71.0876 1.61642 -0.969743 0
M  V30 721 C 68.2146 2.68529 -2.06421 0
M  V30 722 C 67.2606 2.71295 -3.29092 0
M  V30 723 S 68.0936 2.26358 -4.85306 0
M  V30 724 C 69.2496 3.65414 -5.08157 0
M  V30 725 H 69.4826 1.05128 -2.78092 0
M  V30 726 H 67.0156 0.433259 -1.48197 0
M  V30 727 H 68.9736 3.47499 -2.18528 0
M  V30 728 H 67.6346 2.91999 -1.15738 0
M  V30 729 H 66.8276 3.72063 -3.39978 0
M  V30 730 H 66.4296 2.0038 -3.15791 0
M  V30 731 H 68.7216 4.6103 -4.96445 0
M  V30 732 H 69.6646 3.5945 -6.10083 0
M  V30 733 H 70.0726 3.5864 -4.35933 0
M  V30 734 N 69.4707 1.49531 0.497807 0
M  V30 735 C 70.8867 1.36365 0.829266 0
M  V30 736 C 71.0867 0.399184 1.97506 0
M  V30 737 O 70.1427 -0.167977 2.51941 0
M  V30 738 C 71.4557 2.77153 1.16647 0
M  V30 739 C 73.0037 2.85877 1.27449 0
M  V30 740 C 73.4787 4.2744 1.64497 0
M  V30 741 N 74.9697 4.30265 1.7154 0
M  V30 742 C 75.7047 5.3677 2.01656 0
M  V30 743 N 75.2007 6.53516 2.29976 0
M  V30 744 N 76.9937 5.24189 2.02934 0
M  V30 745 H 69.1447 2.10831 -0.257703 0
M  V30 746 H 71.4077 0.946534 -0.0527091 0
M  V30 747 H 71.1137 3.49442 0.397872 0
M  V30 748 H 70.9877 3.12722 2.10915 0
M  V30 749 H 73.3747 2.13824 2.0338 0
M  V30 750 H 73.4557 2.53887 0.312244 0
M  V30 751 H 73.0997 5.00021 0.891151 0
M  V30 752 H 73.0297 4.56896 2.61827 0
M  V30 753 H 75.5207 3.4607 1.51802 0
M  V30 754 H 75.8337 7.30506 2.52153 0
M  V30 755 H 74.1787 6.56737 2.27425 0
M  V30 756 H 77.3697 4.31988 1.80289 0
M  V30 757 H 77.5427 6.07286 2.26071 0
M  V30 758 N 70.9488 -0.749086 1.3866 0
M  V30 759 C 72.1978 -1.50371 1.3443 0
M  V30 760 C 72.5108 -1.95503 -0.0616397 0
M  V30 761 O 73.7168 -2.70554 -0.226489 0
M  V30 762 C 72.1728 -2.71644 2.36088 0
M  V30 763 C 71.7808 -2.3352 3.82325 0
M  V30 764 C 73.5248 -3.49518 2.40909 0
M  V30 765 C 71.4318 -3.51431 4.75658 0
M  V30 766 H 70.3618 -0.564628 0.499712 0
M  V30 767 H 73.0128 -0.818449 1.64237 0
M  V30 768 H 71.3948 -3.42175 1.9933 0
M  V30 769 H 72.5688 -1.70627 4.28046 0
M  V30 770 H 70.8838 -1.6877 3.80665 0
M  V30 771 H 73.4808 -4.37197 3.07836 0
M  V30 772 H 73.8238 -3.90992 1.42937 0
M  V30 773 H 74.3568 -2.86005 2.76489 0
M  V30 774 H 71.0958 -3.15019 5.74842 0
M  V30 775 H 70.6158 -4.13352 4.34627 0
M  V30 776 H 72.2948 -4.17953 4.93887 0
M  V30 777 N 72.4269 -1.23603 -0.977757 0
M  V30 778 C 73.6739 -1.06971 -1.71941 0
M  V30 779 C 74.0019 0.393009 -1.90488 0
M  V30 780 O 73.2569 1.30719 -1.4564 0
M  V30 781 C 73.5559 -1.7433 -3.11999 0
M  V30 782 C 73.2219 -3.24252 -3.13323 0
M  V30 783 C 71.8839 -3.65156 -3.13392 0
M  V30 784 C 74.2359 -4.20141 -3.08433 0
M  V30 785 C 71.5639 -5.00403 -3.0629 0
M  V30 786 C 73.9159 -5.55384 -3.02873 0
M  V30 787 C 72.5799 -5.95647 -3.01265 0
M  V30 788 H 71.8499 -0.391433 -0.629175 0
M  V30 789 H 74.4969 -1.53572 -1.14403 0
M  V30 790 H 72.8019 -1.20096 -3.7294 0
M  V30 791 H 74.4989 -1.58936 -3.68158 0
M  V30 792 H 71.0889 -2.91692 -3.14029 0
M  V30 793 H 75.2729 -3.89547 -3.07517 0
M  V30 794 H 70.5289 -5.3081 -3.03399 0
M  V30 795 H 74.7029 -6.29398 -2.98046 0
M  V30 796 H 72.3299 -7.0041 -2.95516 0
M  V30 797 N 73.905 1.17692 -1.04816 0
M  V30 798 C 75.152 1.87859 -0.75599 0
M  V30 799 C 75.48 1.80812 0.716752 0
M  V30 800 O 74.735 1.20819 1.53952 0
M  V30 801 C 75.034 3.37462 -1.17703 0
M  V30 802 C 74.7 3.64713 -2.65133 0
M  V30 803 C 73.362 3.71859 -3.05408 0
M  V30 804 C 75.714 3.76492 -3.60421 0
M  V30 805 C 73.042 3.88271 -4.39843 0
M  V30 806 C 75.394 3.94421 -4.94585 0
M  V30 807 C 74.058 3.99806 -5.3452 0
M  V30 808 H 73.328 0.687425 -0.276636 0
M  V30 809 H 75.975 1.39255 -1.31455 0
M  V30 810 H 74.28 3.88097 -0.537395 0
M  V30 811 H 75.977 3.90109 -0.928218 0
M  V30 812 H 72.567 3.59772 -2.32942 0
M  V30 813 H 76.751 3.70295 -3.30447 0
M  V30 814 H 72.007 3.90687 -4.70291 0
M  V30 815 H 76.181 4.02477 -5.68318 0
M  V30 816 H 73.808 4.12276 -6.38696 0
M  V30 817 N 75.3831 0.828654 1.34056 0
M  V30 818 C 76.3151 0.212052 2.28217 0
M  V30 819 C 77.3281 -0.601362 1.51286 0
M  V30 820 O 78.5171 -0.430104 1.73241 0
M  V30 821 C 75.6171 -0.72088 3.31144 0
M  V30 822 C 74.7901 0.0509587 4.3737 0
M  V30 823 C 73.8491 -0.803766 5.20025 0
M  V30 824 O 72.8751 -0.246667 5.68665 0
M  V30 825 N 74.0771 -2.1227 5.40298 0
M  V30 826 H 76.8421 1.02105 2.81771 0
M  V30 827 H 74.4031 0.686153 1.46641 0
M  V30 828 H 76.3951 -1.29742 3.8334 0
M  V30 829 H 74.9651 -1.43061 2.77943 0
M  V30 830 H 74.1851 0.808831 3.85813 0
M  V30 831 H 75.4731 0.582065 5.0546 0
M  V30 832 H 74.8711 -2.59898 5.02464 0
M  V30 833 H 73.4281 -2.64796 5.95589 0
M  V30 834 N 76.8612 -1.46375 0.584142 0
M  V30 835 C 78.1102 -2.01585 0.0679741 0
M  V30 836 C 78.4232 -1.46109 -1.30045 0
M  V30 837 O 79.6292 -1.93148 -1.90804 0
M  V30 838 C 78.0852 -3.5983 0.0709207 0
M  V30 839 C 77.6932 -4.24303 1.43775 0
M  V30 840 C 79.4372 -4.22693 -0.391228 0
M  V30 841 C 77.3442 -5.74631 1.39834 0
M  V30 842 H 76.2742 -0.753689 0.0216421 0
M  V30 843 H 78.9252 -1.68093 0.736001 0
M  V30 844 H 77.3072 -3.90405 -0.663299 0
M  V30 845 H 78.4812 -4.05335 2.19181 0
M  V30 846 H 76.7962 -3.73539 1.84004 0
M  V30 847 H 79.3932 -5.3289 -0.439524 0
M  V30 848 H 79.7362 -3.91728 -1.40906 0
M  V30 849 H 80.2692 -3.96749 0.288974 0
M  V30 850 H 77.0082 -6.10258 2.39303 0
M  V30 851 H 76.5282 -5.95858 0.686505 0
M  V30 852 H 78.2072 -6.37375 1.11187 0
M  V30 853 N 78.3393 -0.321999 -1.54275 0
M  V30 854 C 79.7553 0.0306999 -1.5957 0
M  V30 855 C 79.9553 1.50614 -1.33857 0
M  V30 856 O 79.0113 2.2619 -1.12223 0
M  V30 857 C 80.3243 -0.386122 -2.98211 0
M  V30 858 C 81.8723 -0.336647 -3.11184 0
M  V30 859 C 82.3473 -0.728607 -4.52167 0
M  V30 860 N 83.8383 -0.681952 -4.58152 0
M  V30 861 C 84.5733 -0.957449 -5.6535 0
M  V30 862 N 84.0693 -1.3 -6.80494 0
M  V30 863 N 85.8623 -0.883113 -5.55119 0
M  V30 864 H 78.0133 -1.28332 -1.69247 0
M  V30 865 H 80.2763 -0.521716 -0.791528 0
M  V30 866 H 79.9823 -1.41404 -3.22022 0
M  V30 867 H 79.8563 0.249662 -3.76373 0
M  V30 868 H 82.2433 0.682058 -2.8711 0
M  V30 869 H 82.3243 -1.00734 -2.3513 0
M  V30 870 H 81.9683 -1.74522 -4.76974 0
M  V30 871 H 81.8983 -0.0356152 -5.26588 0
M  V30 872 H 84.3893 -0.428985 -3.75457 0
M  V30 873 H 84.7023 -1.49563 -7.58189 0
M  V30 874 H 83.0473 -1.33824 -6.81994 0
M  V30 875 H 86.2383 -0.615001 -4.64042 0
M  V30 876 H 86.4113 -1.10118 -6.38575 0
M  V30 877 N 79.8174 1.5752 -0.0501392 0
M  V30 878 C 81.0424 1.97376 0.636997 0
M  V30 879 C 81.4674 0.927466 1.63645 0
M  V30 880 O 80.8254 -0.10941 1.8097 0
M  V30 881 C 80.8734 3.36304 1.30123 0
M  V30 882 O 79.9774 3.34156 2.41689 0
M  V30 883 H 79.3184 0.642998 0.165679 0
M  V30 884 H 81.8484 2.04258 -0.118233 0
M  V30 885 H 81.8584 3.73008 1.65315 0
M  V30 886 H 80.5334 4.11993 0.568746 0
M  V30 887 H 79.1104 3.09196 2.08451 0
M  V30 888 N 81.2955 -0.223234 1.56011 0
M  V30 889 C 82.2425 -1.27664 1.92277 0
M  V30 890 C 83.2125 -1.46659 0.779763 0
M  V30 891 O 84.3975 -1.60256 1.03551 0
M  V30 892 C 81.5375 -2.62234 2.24338 0
M  V30 893 C 80.6505 -2.51051 3.51564 0
M  V30 894 C 79.7855 -3.78133 3.7308 0
M  V30 895 C 78.8245 -3.61665 4.93827 0
M  V30 896 N 77.9615 -4.80693 5.11741 0
M  V30 897 H 82.8015 -0.960358 2.82101 0
M  V30 898 H 80.3385 -0.462901 1.39627 0
M  V30 899 H 82.2965 -3.40596 2.40936 0
M  V30 900 H 80.9265 -2.91961 1.3769 0
M  V30 901 H 79.9785 -1.64132 3.43169 0
M  V30 902 H 81.2905 -2.34803 4.40079 0
M  V30 903 H 80.4445 -4.64938 3.89766 0
M  V30 904 H 79.1835 -3.97304 2.82844 0
M  V30 905 H 78.1885 -2.73244 4.77093 0
M  V30 906 H 79.4135 -3.43966 5.85546 0
M  V30 907 H 77.3595 -5.00181 4.24446 0
M  V30 908 H 77.2765 -4.67165 5.94384 0
M  V30 909 H 78.5445 -5.6893 5.3286 0
M  V30 910 N 82.7736 -1.49793 -0.48987 0
M  V30 911 C 83.9986 -1.63836 -1.27172 0
M  V30 912 C 84.4236 -0.31402 -1.8546 0
M  V30 913 O 83.7816 0.719803 -1.66399 0
M  V30 914 C 83.8296 -2.71797 -2.36978 0
M  V30 915 O 82.9336 -2.31744 -3.41128 0
M  V30 916 H 82.2746 -0.547997 -0.37496 0
M  V30 917 H 84.8046 -1.96053 -0.585191 0
M  V30 918 H 84.8146 -2.94305 -2.82575 0
M  V30 919 H 83.4896 -3.67923 -1.93921 0
M  V30 920 H 82.0666 -2.1961 -3.01373 0
M  V30 921 N 84.2517 0.741722 -1.39055 0
M  V30 922 C 85.1997 1.87702 -1.3737 0
M  V30 923 C 86.1937 1.67427 -0.257812 0
M  V30 924 O 87.3997 1.7485 -0.427489 0
M  V30 925 H 83.7747 0.617757 -0.428812 0
M  V30 926 H 85.7457 1.86239 -2.33147 0
M  V30 927 C 84.4947 3.25315 -1.22741 0
M  V30 928 H 83.8177 3.41509 -2.07873 0
M  V30 929 H 85.2577 4.04964 -1.25618 0
M  V30 930 C 83.7167 3.36838 0.0647316 0
M  V30 931 O 84.2467 3.88073 1.03741 0
M  V30 932 N 82.4527 2.90329 0.125544 0
M  V30 933 H 81.9997 2.48823 -0.666682 0
M  V30 934 H 81.9577 2.98418 0.989639 0
M  V30 935 N 85.7298 1.2412 0.971189 0
M  V30 936 C 86.9768 1.07881 1.71371 0
M  V30 937 C 87.3048 -0.382901 1.90694 0
M  V30 938 O 86.5598 -1.29945 1.46331 0
M  V30 939 C 86.8588 1.75983 3.11071 0
M  V30 940 C 86.5248 3.25909 3.11599 0
M  V30 941 C 85.1868 3.66813 3.11451 0
M  V30 942 C 87.5388 4.21771 3.062 0
M  V30 943 C 84.8668 5.02021 3.03631 0
M  V30 944 C 87.2188 5.56982 2.99923 0
M  V30 945 C 85.8828 5.97237 2.98102 0
M  V30 946 H 85.1528 0.394764 0.62709 0
M  V30 947 H 87.7998 1.54176 1.13587 0
M  V30 948 H 86.1048 1.22072 3.72298 0
M  V30 949 H 87.8018 1.60887 3.6731 0
M  V30 950 H 84.3918 2.93353 3.12477 0
M  V30 951 H 88.5758 3.91172 3.05447 0
M  V30 952 H 83.8318 5.32411 3.0058 0
M  V30 953 H 88.0058 6.30969 2.94704 0
M  V30 954 H 85.6328 7.01967 2.91798 0
M  V30 955 N 87.2079 -1.17134 1.05439 0
M  V30 956 C 88.4569 -1.86791 0.761049 0
M  V30 957 C 88.7699 -1.82072 -0.714795 0
M  V30 958 O 89.9759 -2.47223 -1.12218 0
M  V30 959 C 88.4319 -3.35166 1.31117 0
M  V30 960 C 88.0399 -3.48381 2.81664 0
M  V30 961 C 89.7839 -4.10134 1.09499 0
M  V30 962 C 87.6909 -4.90793 3.29964 0
M  V30 963 H 86.6209 -0.699681 0.281002 0
M  V30 964 H 89.2719 -1.3226 1.27199 0
M  V30 965 H 87.6539 -3.8925 0.72803 0
M  V30 966 H 88.8279 -3.04502 3.45855 0
M  V30 967 H 87.1429 -2.86836 3.01851 0
M  V30 968 H 89.7399 -5.152 1.43084 0
M  V30 969 H 90.0829 -4.16287 0.0328772 0
M  V30 970 H 90.6159 -3.62264 1.64346 0
M  V30 971 H 87.3549 -4.89816 4.35616 0
M  V30 972 H 86.8749 -5.35333 2.70516 0
M  V30 973 H 88.5539 -5.59573 3.24787 0
M  V30 974 N 88.686 -0.835752 -1.33615 0
M  V30 975 C 89.935 -0.426289 -1.97144 0
M  V30 976 C 90.248 1.01912 -1.66953 0
M  V30 977 O 91.454 1.53311 -2.24072 0
M  V30 978 C 89.91 -0.711321 -3.52801 0
M  V30 979 C 89.518 -2.1712 -3.91871 0
M  V30 980 C 91.262 -0.368654 -4.22896 0
M  V30 981 C 89.169 -2.40044 -5.40493 0
M  V30 982 H 88.099 -0.15567 -0.737755 0
M  V30 983 H 90.75 -1.0239 -1.52278 0
M  V30 984 H 89.132 -0.0433766 -3.95976 0
M  V30 985 H 90.306 -2.87936 -3.59763 0
M  V30 986 H 88.621 -2.47654 -3.34749 0
M  V30 987 H 91.218 -0.517601 -5.32189 0
M  V30 988 H 91.561 0.688078 -4.10574 0
M  V30 989 H 92.094 -0.991702 -3.8524 0
M  V30 990 H 88.833 -3.44271 -5.57815 0
M  V30 991 H 88.353 -1.73785 -5.74072 0
M  V30 992 H 90.032 -2.23042 -6.0734 0
M  V30 993 N 90.1641 1.46063 -0.591896 0
M  V30 994 C 91.4111 2.02338 -0.0809991 0
M  V30 995 C 91.7391 1.46228 1.28249 0
M  V30 996 O 90.9941 0.620818 1.85592 0
M  V30 997 C 91.2931 3.57391 0.0249813 0
M  V30 998 C 90.9591 4.32583 -1.27211 0
M  V30 999 C 89.6211 4.52844 -1.62745 0
M  V30 1000 C 91.9731 4.75687 -2.13005 0
M  V30 1001 C 89.3011 5.13462 -2.83855 0
M  V30 1002 C 91.6531 5.37644 -3.3335 0
M  V30 1003 C 90.3171 5.5613 -3.69155 0
M  V30 1004 H 89.5871 0.740407 -0.0296397 0
M  V30 1005 H 92.2341 1.75321 -0.770374 0
M  V30 1006 H 90.5391 3.83597 0.797537 0
M  V30 1007 H 92.2361 3.98621 0.436184 0
M  V30 1008 H 88.8261 4.17116 -0.985499 0
M  V30 1009 H 93.0101 4.59782 -1.86855 0
M  V30 1010 H 88.2661 5.25965 -3.11722 0
M  V30 1011 H 92.4401 5.7 -4.00092 0
M  V30 1012 H 90.0671 6.0287 -4.63089 0
M  V30 1013 N 91.6422 0.330177 1.54103 0
M  V30 1014 C 92.5722 -0.525353 2.27513 0
M  V30 1015 C 93.5532 -1.11383 1.2856 0
M  V30 1016 O 94.7382 -1.13773 1.57383 0
M  V30 1017 C 91.8682 -1.6831 3.03791 0
M  V30 1018 C 90.8222 -1.2236 4.10137 0
M  V30 1019 C 90.1482 -2.46882 4.74293 0
M  V30 1020 C 91.4482 -0.333697 5.21233 0
M  V30 1021 H 93.1422 0.087013 2.99274 0
M  V30 1022 H 90.6882 0.0432893 1.43935 0
M  V30 1023 H 92.6412 -2.28795 3.5388 0
M  V30 1024 H 91.3652 -2.32216 2.29659 0
M  V30 1025 H 90.0242 -0.64165 3.60941 0
M  V30 1026 H 89.6722 -3.09165 3.96769 0
M  V30 1027 H 89.3722 -2.16825 5.46133 0
M  V30 1028 H 90.8962 -3.08117 5.27159 0
M  V30 1029 H 92.3102 -0.845013 5.67038 0
M  V30 1030 H 90.7072 -0.125612 5.99969 0
M  V30 1031 H 91.7772 0.633724 4.80741 0
M  V30 1032 N 93.1203 -1.57491 0.0584922 0
M  V30 1033 C 94.0673 -2.11958 -0.913376 0
M  V30 1034 C 95.0373 -1.02875 -1.30407 0
M  V30 1035 O 96.2223 -1.30464 -1.39226 0
M  V30 1036 C 93.3623 -2.67497 -2.18035 0
M  V30 1037 C 92.4753 -3.90691 -1.84349 0
M  V30 1038 C 91.6103 -4.3452 -3.05559 0
M  V30 1039 C 90.6493 -5.50395 -2.67827 0
M  V30 1040 N 89.7863 -5.89244 -3.81754 0
M  V30 1041 H 94.6263 -2.94704 -0.442017 0
M  V30 1042 H 92.1633 -1.45643 -0.206545 0
M  V30 1043 H 94.1213 -2.978 -2.92183 0
M  V30 1044 H 92.7513 -1.87537 -2.62735 0
M  V30 1045 H 91.8033 -3.66934 -1.00319 0
M  V30 1046 H 93.1153 -4.7489 -1.5258 0
M  V30 1047 H 92.2693 -4.66414 -3.87998 0
M  V30 1048 H 91.0083 -3.49147 -3.40511 0
M  V30 1049 H 90.0133 -5.18165 -1.83806 0
M  V30 1050 H 91.2383 -6.3749 -2.34059 0
M  V30 1051 H 89.1843 -5.06823 -4.16493 0
M  V30 1052 H 89.1013 -6.68151 -3.53708 0
M  V30 1053 H 90.3693 -6.25756 -4.64811 0
M  V30 1054 N 94.5984 0.214957 -1.56127 0
M  V30 1055 C 95.5464 1.28601 -1.93816 0
M  V30 1056 C 96.5404 1.48175 -0.821016 0
M  V30 1057 O 97.7464 1.49271 -1.0059 0
M  V30 1058 H 94.1214 0.431302 -0.616022 0
M  V30 1059 H 96.0924 0.940991 -2.83175 0
M  V30 1060 C 94.8414 2.62779 -2.27689 0
M  V30 1061 H 94.1644 2.48527 -3.13168 0
M  V30 1062 H 95.6044 3.36517 -2.57939 0
M  V30 1063 C 94.0634 3.18285 -1.10436 0
M  V30 1064 O 94.5934 4.00002 -0.368945 0
M  V30 1065 N 92.7994 2.7675 -0.886433 0
M  V30 1066 H 92.3464 2.10404 -1.48619 0
M  V30 1067 H 92.3044 3.14229 -0.103656 0
M  V30 1068 N 96.0765 1.50051 0.48192 0
M  V30 1069 C 97.3045 1.64237 1.25832 0
M  V30 1070 C 97.7195 0.321336 1.86045 0
M  V30 1071 O 97.0765 -0.695478 1.68729 0
M  V30 1072 C 97.1275 2.72548 2.37487 0
M  V30 1073 O 96.8485 3.99529 1.79745 0
M  V30 1074 C 98.3495 2.9761 3.28547 0
M  V30 1075 H 95.5695 0.55237 0.380957 0
M  V30 1076 H 98.1135 1.96207 0.576467 0
M  V30 1077 H 96.2685 2.43303 3.01467 0
M  V30 1078 H 96.6825 4.59342 2.5319 0
M  V30 1079 H 98.1565 3.77084 4.03127 0
M  V30 1080 H 98.6335 2.0826 3.86684 0
M  V30 1081 H 99.2395 3.28345 2.70314 0
M  V30 1082 N 97.5546 -0.734337 1.39446 0
M  V30 1083 C 98.8006 -1.49613 1.36908 0
M  V30 1084 C 99.1336 -1.94169 -0.0347829 0
M  V30 1085 O 98.4086 -1.66833 -0.999847 0
M  V30 1086 C 98.6916 -2.73534 2.34203 0
M  V30 1087 C 98.5446 -2.34993 3.83534 0
M  V30 1088 C 99.8636 -3.75635 2.29317 0
M  V30 1089 H 96.9826 -0.542714 0.498629 0
M  V30 1090 H 99.6246 -0.839597 1.70443 0
M  V30 1091 H 97.7746 -3.29553 2.05736 0
M  V30 1092 H 99.4466 -1.84601 4.22753 0
M  V30 1093 H 97.6896 -1.67213 4.00278 0
M  V30 1094 H 98.3606 -3.23738 4.47099 0
M  V30 1095 H 100.837 -3.29203 2.54489 0
M  V30 1096 H 99.7126 -4.60008 2.99472 0
M  V30 1097 H 99.9736 -4.22603 1.29842 0
M  V30 1098 N 99.0327 -1.24633 -0.964593 0
M  V30 1099 C 100.282 -1.08188 -1.7023 0
M  V30 1100 C 100.595 0.37873 -1.91898 0
M  V30 1101 O 101.801 0.663427 -2.6327 0
M  V30 1102 C 100.257 -1.88773 -3.06419 0
M  V30 1103 C 99.8647 -3.39263 -2.92582 0
M  V30 1104 C 101.609 -1.80867 -3.84041 0
M  V30 1105 C 99.5157 -4.1218 -4.24101 0
M  V30 1106 H 98.4457 -0.401245 -0.638372 0
M  V30 1107 H 101.097 -1.48742 -1.07462 0
M  V30 1108 H 99.4787 -1.41035 -3.70034 0
M  V30 1109 H 100.653 -3.94603 -2.37961 0
M  V30 1110 H 98.9677 -3.48154 -2.28424 0
M  V30 1111 H 101.565 -2.32646 -4.81435 0
M  V30 1112 H 101.908 -0.774543 -4.09031 0
M  V30 1113 H 102.441 -2.26301 -3.27159 0
M  V30 1114 H 99.1797 -5.15965 -4.04303 0
M  V30 1115 H 98.6997 -3.61626 -4.78526 0
M  V30 1116 H 100.379 -4.19349 -4.92702 0
M  V30 1117 N 100.511 1.16574 -1.06058 0
M  V30 1118 C 101.736 1.91493 -0.796562 0
M  V30 1119 C 102.161 1.76773 0.642868 0
M  V30 1120 O 101.519 1.09142 1.44768 0
M  V30 1121 C 101.567 3.40293 -1.19303 0
M  V30 1122 O 100.671 4.11074 -0.330394 0
M  V30 1123 H 100.012 0.596678 -0.291326 0
M  V30 1124 H 102.542 1.47708 -1.41575 0
M  V30 1125 H 102.552 3.91057 -1.16356 0
M  V30 1126 H 101.227 3.50326 -2.24153 0
M  V30 1127 H 99.8038 3.70513 -0.421225 0
M  V30 1128 N 101.989 0.842826 1.3317 0
M  V30 1129 C 103.266 0.362216 1.92217 0
M  V30 1130 C 103.646 -1.15289 1.76838 0
M  V30 1131 O 102.994 -1.96914 1.15919 0
M  V30 1132 C 103.204 0.813495 3.39387 0
M  V30 1133 C 104.552 0.823804 4.16532 0
M  V30 1134 O 105.576 0.757358 3.48055 0
M  V30 1135 O 104.435 0.915193 5.38782 0
M  V30 1136 H 101.529 0.103317 0.820521 0
M  V30 1137 H 104.075 0.928942 1.42017 0
M  V30 1138 H 102.847 1.85624 3.4447 0
M  V30 1139 H 102.47 0.223561 3.96971 0
M  V30 1140 N 103.467 -1.45747 0.599634 0
M  V30 1141 C 104.397 -2.33235 -0.111306 0
M  V30 1142 C 105.378 -1.46359 -0.866781 0
M  V30 1143 O 106.563 -1.75146 -0.838904 0
M  V30 1144 C 103.693 -3.28932 -1.11451 0
M  V30 1145 C 102.647 -4.25381 -0.472772 0
M  V30 1146 C 101.973 -5.1071 -1.58365 0
M  V30 1147 C 103.273 -5.18831 0.600948 0
M  V30 1148 H 104.967 -2.92927 0.61919 0
M  V30 1149 H 102.513 -1.40857 0.299215 0
M  V30 1150 H 104.466 -3.89002 -1.62036 0
M  V30 1151 H 103.19 -2.67381 -1.8755 0
M  V30 1152 H 101.849 -3.66598 0.0121472 0
M  V30 1153 H 101.497 -4.45533 -2.33473 0
M  V30 1154 H 101.197 -5.7604 -1.15982 0
M  V30 1155 H 102.721 -5.73647 -2.09194 0
M  V30 1156 H 104.135 -5.73019 0.179491 0
M  V30 1157 H 102.532 -5.92595 0.946076 0
M  V30 1158 H 103.602 -4.6174 1.48068 0
M  V30 1159 N 104.945 -0.338344 -1.53925 0
M  V30 1160 C 105.875 0.51328 -2.27789 0
M  V30 1161 C 106.856 1.107 -1.29149 0
M  V30 1162 O 108.041 1.12937 -1.57984 0
M  V30 1163 C 105.171 1.66697 -3.04679 0
M  V30 1164 C 104.125 1.20183 -4.1078 0
M  V30 1165 C 103.451 2.44363 -4.75595 0
M  V30 1166 C 104.751 0.30605 -5.21403 0
M  V30 1167 H 106.445 -0.102883 -2.99223 0
M  V30 1168 H 103.991 -0.0509219 -1.4391 0
M  V30 1169 H 105.944 2.26915 -3.55088 0
M  V30 1170 H 104.668 2.30995 -2.30887 0
M  V30 1171 H 103.327 0.622499 -3.61276 0
M  V30 1172 H 102.975 3.07057 -3.98403 0
M  V30 1173 H 102.675 2.13925 -5.47275 0
M  V30 1174 H 104.199 3.05317 -5.28786 0
M  V30 1175 H 105.613 0.814929 -5.67478 0
M  V30 1176 H 104.01 0.0937929 -6.00027 0
M  V30 1177 H 105.08 -0.65921 -4.80398 0
M  V30 1178 N 106.423 1.57458 -0.0668435 0
M  V30 1179 C 107.356 2.08033 0.93795 0
M  V30 1180 C 108.334 0.984321 1.29421 0
M  V30 1181 O 109.518 1.25736 1.40437 0
M  V30 1182 C 106.645 2.53388 2.24749 0
M  V30 1183 C 105.691 3.74376 2.04315 0
M  V30 1184 S 106.524 5.19303 1.30706 0
M  V30 1185 C 107.68 5.67986 2.62951 0
M  V30 1186 H 107.913 2.92935 0.50759 0
M  V30 1187 H 105.446 1.5371 0.145804 0
M  V30 1188 H 107.404 2.8018 3.00016 0
M  V30 1189 H 106.065 1.68763 2.64911 0
M  V30 1190 H 105.258 4.04083 3.01218 0
M  V30 1191 H 104.86 3.47931 1.37186 0
M  V30 1192 H 107.152 5.74528 3.5906 0
M  V30 1193 H 108.095 6.66955 2.3786 0
M  V30 1194 H 108.503 4.95781 2.69929 0
M  V30 1195 N 107.901 -0.206675 1.56239 0
M  V30 1196 C 109.15 -0.926964 1.79138 0
M  V30 1197 C 109.463 -1.84901 0.638043 0
M  V30 1198 O 110.669 -2.60906 0.751033 0
M  V30 1199 C 109.125 -1.6986 3.17294 0
M  V30 1200 C 108.733 -0.821956 4.40395 0
M  V30 1201 C 110.477 -2.40922 3.4951 0
M  V30 1202 C 108.384 -1.59179 5.69575 0
M  V30 1203 H 107.314 -0.349864 0.667915 0
M  V30 1204 H 109.965 -0.180487 1.8261 0
M  V30 1205 H 108.347 -2.48853 3.08039 0
M  V30 1206 H 109.521 -0.0715019 4.60745 0
M  V30 1207 H 107.836 -0.222741 4.15804 0
M  V30 1208 H 110.433 -2.99047 4.43255 0
M  V30 1209 H 110.776 -3.14542 2.72707 0
M  V30 1210 H 111.309 -1.68905 3.60161 0
M  V30 1211 H 108.048 -0.898589 6.49312 0
M  V30 1212 H 107.568 -2.31648 5.53262 0
M  V30 1213 H 109.247 -2.14862 6.10281 0
M  V30 1214 N 109.379 -1.50304 -0.473955 0
M  V30 1215 C 110.309 -1.71886 -1.58042 0
M  V30 1216 C 111.29 -0.567799 -1.60344 0
M  V30 1217 O 112.475 -0.806623 -1.76656 0
M  V30 1218 C 109.605 -1.81036 -2.96384 0
M  V30 1219 C 108.559 -2.962 -3.08949 0
M  V30 1220 C 107.885 -2.9049 -4.48909 0
M  V30 1221 C 109.185 -4.36752 -2.86434 0
M  V30 1222 H 110.879 -2.64527 -1.40234 0
M  V30 1223 H 108.425 -1.27295 -0.673201 0
M  V30 1224 H 110.378 -1.94719 -3.73714 0
M  V30 1225 H 109.102 -0.850147 -3.15341 0
M  V30 1226 H 107.761 -2.82164 -2.3405 0
M  V30 1227 H 107.409 -1.92321 -4.64781 0
M  V30 1228 H 107.109 -3.67802 -4.58253 0
M  V30 1229 H 108.633 -3.06218 -5.28264 0
M  V30 1230 H 110.047 -4.5133 -3.53517 0
M  V30 1231 H 108.444 -5.15493 -3.07225 0
M  V30 1232 H 109.514 -4.49321 -1.82316 0
M  V30 1233 N 110.857 0.726932 -1.39834 0
M  V30 1234 C 112.085 1.51613 -1.40787 0
M  V30 1235 C 112.5 1.88799 -0.00451505 0
M  V30 1236 O 111.857 1.54662 0.968809 0
M  V30 1237 C 111.908 2.79863 -2.28821 0
M  V30 1238 O 111.629 2.44253 -3.63692 0
M  V30 1239 C 113.13 3.73837 -2.38245 0
M  V30 1240 H 110.35 0.468264 -0.480593 0
M  V30 1241 H 112.894 0.897607 -1.83748 0
M  V30 1242 H 111.049 3.38027 -1.89252 0
M  V30 1243 H 111.463 3.26695 -4.1033 0
M  V30 1244 H 112.937 4.60699 -3.04073 0
M  V30 1245 H 113.414 4.16153 -1.40403 0
M  V30 1246 H 114.02 3.21589 -2.78317 0
M  V30 1247 N 112.336 1.25143 0.95797 0
M  V30 1248 C 113.583 1.09692 1.70217 0
M  V30 1249 C 113.911 -0.362654 1.91089 0
M  V30 1250 O 113.166 -1.28386 1.47701 0
M  V30 1251 C 113.465 1.79272 3.09187 0
M  V30 1252 C 113.131 3.29196 3.08125 0
M  V30 1253 C 111.793 3.70096 3.07543 0
M  V30 1254 C 114.145 4.24995 3.0171 0
M  V30 1255 C 111.473 5.05213 2.9829 0
M  V30 1256 C 113.825 5.60132 2.93999 0
M  V30 1257 C 112.489 6.00365 2.9175 0
M  V30 1258 H 111.759 0.401393 0.622868 0
M  V30 1259 H 114.406 1.55372 1.11945 0
M  V30 1260 H 112.711 1.26014 3.70982 0
M  V30 1261 H 114.408 1.64773 3.65583 0
M  V30 1262 H 110.998 2.96651 3.09348 0
M  V30 1263 H 115.182 3.9439 3.01281 0
M  V30 1264 H 110.438 5.35569 2.94916 0
M  V30 1265 H 114.612 6.3406 2.87996 0
M  V30 1266 H 112.239 7.05023 2.84336 0
M  V30 1267 N 113.814 -1.1601 1.06675 0
M  V30 1268 C 115.225 -1.68235 0.809565 0
M  V30 1269 C 115.576 -1.8454 -0.666303 0
M  V30 1270 O 114.701 -1.54374 -1.5165 0
M  V30 1271 C 115.296 -3.05585 1.46299 0
M  V30 1272 C 113.855 -3.54915 1.25349 0
M  V30 1273 C 113.002 -2.30804 1.53703 0
M  V30 1274 H 115.953 -1.00318 1.22971 0
M  V30 1275 H 115.974 -3.70174 0.880431 0
M  V30 1276 H 115.486 -2.93686 2.53713 0
M  V30 1277 H 113.587 -3.72067 0.199261 0
M  V30 1278 H 113.7 -4.36774 1.9689 0
M  V30 1279 H 112.064 -2.36007 0.957739 0
M  V30 1280 H 112.847 -2.21499 2.62284 0
M  V30 1281 N 115.292 -0.849877 -1.32721 0
M  V30 1282 C 116.539 -0.450923 -1.97416 0
M  V30 1283 C 116.867 0.992376 -1.67279 0
M  V30 1284 O 116.122 1.71048 -0.950845 0
M  V30 1285 C 116.421 -0.631272 -3.51781 0
M  V30 1286 C 116.087 -2.04432 -4.01894 0
M  V30 1287 C 114.749 -2.4308 -4.1529 0
M  V30 1288 C 117.101 -2.96679 -4.28522 0
M  V30 1289 C 114.429 -3.73257 -4.52654 0
M  V30 1290 C 116.781 -4.26349 -4.67343 0
M  V30 1291 C 115.445 -4.64939 -4.78945 0
M  V30 1292 H 114.715 -0.165004 -0.722395 0
M  V30 1293 H 117.362 -1.07901 -1.58207 0
M  V30 1294 H 115.667 0.0800767 -3.91718 0
M  V30 1295 H 117.364 -0.302709 -3.99856 0
M  V30 1296 H 113.954 -1.73419 -3.91949 0
M  V30 1297 H 118.138 -2.68054 -4.17685 0
M  V30 1298 H 113.394 -4.02946 -4.59831 0
M  V30 1299 H 117.568 -4.97895 -4.86902 0
M  V30 1300 H 115.195 -5.65855 -5.07654 0
M  V30 1301 N 116.77 1.45427 -0.607355 0
M  V30 1302 C 117.717 2.3053 0.111625 0
M  V30 1303 C 118.687 1.4209 0.860216 0
M  V30 1304 O 119.872 1.71019 0.845998 0
M  V30 1305 C 117.012 3.26992 1.10319 0
M  V30 1306 C 116.125 4.30535 0.355493 0
M  V30 1307 C 115.26 5.14105 1.33676 0
M  V30 1308 C 114.299 6.09376 0.576862 0
M  V30 1309 N 113.436 6.85727 1.5074 0
M  V30 1310 H 118.276 2.91477 -0.620093 0
M  V30 1311 H 115.813 1.43631 -0.317594 0
M  V30 1312 H 117.771 3.81385 1.6912 0
M  V30 1313 H 116.401 2.67799 1.80232 0
M  V30 1314 H 115.453 3.78805 -0.348023 0
M  V30 1315 H 116.765 4.98235 -0.237423 0
M  V30 1316 H 115.919 5.72897 1.99684 0
M  V30 1317 H 114.658 4.46423 1.9636 0
M  V30 1318 H 113.663 5.49715 -0.0968519 0
M  V30 1319 H 114.888 6.79085 -0.0449341 0
M  V30 1320 H 112.834 6.20735 2.12189 0
M  V30 1321 H 112.751 7.49778 0.967913 0
M  V30 1322 H 114.019 7.4906 2.15706 0
M  V30 1323 N 118.248 0.346503 1.53744 0
M  V30 1324 C 119.497 -0.250122 2.00143 0
M  V30 1325 C 119.81 -1.51418 1.23822 0
M  V30 1326 O 121.016 -2.18823 1.60713 0
M  V30 1327 C 119.472 -0.496252 3.56462 0
M  V30 1328 C 119.08 0.752077 4.41642 0
M  V30 1329 C 120.824 -1.05157 4.11269 0
M  V30 1330 C 118.731 0.476583 5.89477 0
M  V30 1331 H 117.661 -0.0972409 0.747703 0
M  V30 1332 H 120.312 0.46229 1.77581 0
M  V30 1333 H 118.694 -1.26944 3.75102 0
M  V30 1334 H 119.868 1.5266 4.34778 0
M  V30 1335 H 118.183 1.22925 3.97842 0
M  V30 1336 H 120.78 -1.27269 5.19333 0
M  V30 1337 H 121.123 -2.00799 3.64672 0
M  V30 1338 H 121.656 -0.339019 3.96353 0
M  V30 1339 H 118.395 1.4028 6.40314 0
M  V30 1340 H 117.915 -0.259794 5.99237 0
M  V30 1341 H 119.594 0.0949315 6.4693 0
M  V30 1342 N 119.726 -1.57421 0.075193 0
M  V30 1343 C 120.656 -2.15942 -0.888324 0
M  V30 1344 C 121.637 -1.08737 -1.30806 0
M  V30 1345 O 122.822 -1.36787 -1.37851 0
M  V30 1346 C 119.952 -2.72379 -2.1547 0
M  V30 1347 C 118.906 -3.8478 -1.87425 0
M  V30 1348 C 118.232 -4.27834 -3.20721 0
M  V30 1349 C 119.532 -5.08869 -1.17684 0
M  V30 1350 H 121.226 -2.96705 -0.400799 0
M  V30 1351 H 118.772 -1.42723 -0.191342 0
M  V30 1352 H 120.725 -3.11965 -2.83295 0
M  V30 1353 H 119.449 -1.88841 -2.6647 0
M  V30 1354 H 118.108 -3.45703 -1.22004 0
M  V30 1355 H 117.756 -3.41214 -3.6957 0
M  V30 1356 H 117.456 -5.03605 -3.02746 0
M  V30 1357 H 118.98 -4.70039 -3.89738 0
M  V30 1358 H 120.394 -5.4575 -1.75584 0
M  V30 1359 H 118.791 -5.8994 -1.09956 0
M  V30 1360 H 119.861 -4.84648 -0.156453 0
M  V30 1361 N 121.204 0.198386 -1.56346 0
M  V30 1362 C 122.429 0.939682 -1.84891 0
M  V30 1363 C 122.854 1.76202 -0.658369 0
M  V30 1364 O 122.212 1.76993 0.392851 0
M  V30 1365 C 122.26 1.81428 -3.11635 0
M  V30 1366 O 121.364 2.91265 -2.91956 0
M  V30 1367 H 120.705 0.264807 -0.608912 0
M  V30 1368 H 123.235 0.204695 -2.03573 0
M  V30 1369 H 123.245 2.21958 -3.42343 0
M  V30 1370 H 121.92 1.21004 -3.97908 0
M  V30 1371 H 120.497 2.54514 -2.72538 0
M  V30 1372 N 122.682 1.50554 0.465978 0
M  V30 1373 C 123.959 1.5232 1.22712 0
M  V30 1374 C 124.339 0.270807 2.09356 0
M  V30 1375 O 123.687 -0.745541 2.15995 0
M  V30 1376 C 123.897 2.82175 2.05374 0
M  V30 1377 C 125.245 3.33033 2.6339 0
M  V30 1378 O 126.269 2.83531 2.15612 0
M  V30 1379 O 125.128 4.19336 3.50456 0
M  V30 1380 H 122.222 0.611183 0.557122 0
M  V30 1381 H 124.768 1.62847 0.477381 0
M  V30 1382 H 123.54 3.64797 1.41558 0
M  V30 1383 H 123.163 2.74675 2.87471 0
M  V30 1384 N 124.16 -0.719506 1.40217 0
M  V30 1385 C 125.123 -1.8153 1.39927 0
M  V30 1386 C 126.123 -1.58095 0.293723 0
M  V30 1387 O 127.313 -1.65209 0.552429 0
M  V30 1388 C 124.445 -3.19561 1.18716 0
M  V30 1389 H 125.638 -1.83186 2.37451 0
M  V30 1390 H 123.191 -0.924746 1.26008 0
M  V30 1391 H 123.926 -3.23557 0.219366 0
M  V30 1392 H 123.711 -3.3797 1.98793 0
M  V30 1393 H 125.201 -3.99598 1.21291 0
M  V30 1394 N 125.638 -1.25649 -0.95132 0
M  V30 1395 C 126.585 -1.06323 -2.04851 0
M  V30 1396 C 127.555 0.0286491 -1.66075 0
M  V30 1397 O 128.74 -0.12917 -1.90362 0
M  V30 1398 C 125.88 -0.691529 -3.381 0
M  V30 1399 C 124.993 -1.85861 -3.89974 0
M  V30 1400 C 124.128 -1.43096 -5.11563 0
M  V30 1401 C 123.167 -2.56696 -5.55674 0
M  V30 1402 N 122.304 -2.14684 -6.68472 0
M  V30 1403 H 127.144 -2.00222 -2.20715 0
M  V30 1404 H 124.681 -0.997027 -1.08156 0
M  V30 1405 H 126.639 -0.456963 -4.1469 0
M  V30 1406 H 125.269 0.210474 -3.22113 0
M  V30 1407 H 124.321 -2.20639 -3.09875 0
M  V30 1408 H 125.633 -2.71161 -4.18657 0
M  V30 1409 H 124.787 -1.15624 -5.9558 0
M  V30 1410 H 123.526 -0.548722 -4.84603 0
M  V30 1411 H 122.531 -2.84909 -4.7022 0
M  V30 1412 H 123.756 -3.45503 -5.8464 0
M  V30 1413 H 121.702 -1.28881 -6.43215 0
M  V30 1414 H 121.619 -2.9353 -6.96689 0
M  V30 1415 H 122.887 -1.90397 -7.5589 0
M  V30 1416 N 127.117 1.15442 -1.07289 0
M  V30 1417 C 128.047 2.22312 -0.714107 0
M  V30 1418 C 129.028 1.67467 0.298155 0
M  V30 1419 O 130.213 1.93445 0.171048 0
M  V30 1420 C 127.343 3.47124 -0.110448 0
M  V30 1421 C 126.297 4.14926 -1.04979 0
M  V30 1422 C 125.623 5.33807 -0.308924 0
M  V30 1423 C 126.923 4.64762 -2.38314 0
M  V30 1424 H 128.617 2.5258 -1.6076 0
M  V30 1425 H 126.163 1.21404 -0.77441 0
M  V30 1426 H 128.116 4.21124 0.152482 0
M  V30 1427 H 126.84 3.16187 0.81812 0
M  V30 1428 H 125.499 3.42866 -1.29764 0
M  V30 1429 H 125.147 4.99126 0.623084 0
M  V30 1430 H 124.847 5.80113 -0.935036 0
M  V30 1431 H 126.371 6.10576 -0.0537771 0
M  V30 1432 H 127.785 5.30292 -2.1786 0
M  V30 1433 H 126.182 5.21728 -2.96514 0
M  V30 1434 H 127.252 3.80434 -3.00663 0
M  V30 1435 N 128.595 0.856903 1.32268 0
M  V30 1436 C 129.843 0.460474 1.96784 0
M  V30 1437 C 130.164 -0.987701 1.68135 0
M  V30 1438 O 129.434 -1.69058 0.989765 0
M  V30 1439 H 128.014 0.167289 0.728027 0
M  V30 1440 H 130.676 1.09383 1.61312 0
M  V30 1441 H 129.772 0.60739 3.06133 0
M  V30 1442 N 130.073 -1.45103 0.615059 0
M  V30 1443 C 131.301 -2.06553 0.11977 0
M  V30 1444 C 131.716 -1.45842 -1.19898 0
M  V30 1445 O 131.073 -0.575325 -1.73194 0
M  V30 1446 C 131.124 -3.61495 -0.018364 0
M  V30 1447 O 130.845 -4.19942 1.24822 0
M  V30 1448 C 132.346 -4.39947 -0.544237 0
M  V30 1449 H 129.566 -0.667096 0.0722739 0
M  V30 1450 H 132.11 -1.8623 0.84491 0
M  V30 1451 H 130.265 -3.81135 -0.693865 0
M  V30 1452 H 130.679 -5.13204 1.0827 0
M  V30 1453 H 132.153 -5.48838 -0.589953 0
M  V30 1454 H 132.63 -4.10255 -1.56805 0
M  V30 1455 H 133.236 -4.25188 0.0974703 0
M  V30 1456 N 131.551 -0.354651 -1.53558 0
M  V30 1457 C 132.799 0.237972 -2.00694 0
M  V30 1458 C 133.12 1.50173 -1.24391 0
M  V30 1459 O 132.39 1.92673 -0.354135 0
M  V30 1460 H 130.97 0.0909256 -0.741446 0
M  V30 1461 H 133.632 -0.478368 -1.88938 0
M  V30 1462 H 132.728 0.47264 -3.085 0
M  V30 1463 N 133.029 1.57378 -0.0835403 0
M  V30 1464 C 134.44 1.81261 0.447358 0
M  V30 1465 C 134.791 0.998331 1.68902 0
M  V30 1466 O 133.916 0.224282 2.15235 0
M  V30 1467 C 134.511 3.28767 0.818386 0
M  V30 1468 C 133.07 3.53455 1.29409 0
M  V30 1469 C 132.217 2.75831 0.285024 0
M  V30 1470 H 135.168 1.5566 -0.309115 0
M  V30 1471 H 135.189 3.41459 1.67887 0
M  V30 1472 H 134.701 3.88006 -0.0855019 0
M  V30 1473 H 132.802 2.99534 2.21608 0
M  V30 1474 H 132.915 4.62128 1.2639 0
M  V30 1475 H 131.279 2.42947 0.764767 0
M  V30 1476 H 132.062 3.37813 -0.611341 0
M  V30 1477 N 134.507 -0.190092 1.56449 0
M  V30 1478 C 135.437 -1.23816 1.97969 0
M  V30 1479 C 136.418 -1.47201 0.852395 0
M  V30 1480 O 137.603 -1.58854 1.1171 0
M  V30 1481 C 134.733 -2.5813 2.3235 0
M  V30 1482 C 133.687 -2.49348 3.47864 0
M  V30 1483 C 133.013 -3.8798 3.67934 0
M  V30 1484 C 134.313 -2.01424 4.81898 0
M  V30 1485 H 136.007 -0.89311 2.85769 0
M  V30 1486 H 133.553 -0.428177 1.37487 0
M  V30 1487 H 135.506 -3.31637 2.59991 0
M  V30 1488 H 134.23 -2.94386 1.41438 0
M  V30 1489 H 132.889 -1.78297 3.20321 0
M  V30 1490 H 132.537 -4.21597 2.74344 0
M  V30 1491 H 132.237 -3.82978 4.45648 0
M  V30 1492 H 133.761 -4.63101 3.97957 0
M  V30 1493 H 135.175 -2.64693 5.08538 0
M  V30 1494 H 133.572 -2.07413 5.63116 0
M  V30 1495 H 134.642 -0.967677 4.75146 0
M  V30 1496 N 135.985 -1.50799 -0.457987 0
M  V30 1497 C 137.401 -1.38515 -0.792819 0
M  V30 1498 C 137.601 -0.451409 -1.96379 0
M  V30 1499 O 136.657 0.10112 -2.52297 0
M  V30 1500 C 137.97 -2.80149 -1.09258 0
M  V30 1501 C 139.518 -2.89156 -1.19825 0
M  V30 1502 C 139.993 -4.31651 -1.53106 0
M  V30 1503 N 141.484 -4.34662 -1.60072 0
M  V30 1504 C 142.219 -5.41928 -1.87354 0
M  V30 1505 N 141.715 -6.59384 -2.12568 0
M  V30 1506 N 143.508 -5.29385 -1.88965 0
M  V30 1507 H 135.659 -2.10073 0.313511 0
M  V30 1508 H 137.922 -0.944803 0.0777862 0
M  V30 1509 H 137.628 -3.50374 -0.305084 0
M  V30 1510 H 137.502 -3.18204 -2.02549 0
M  V30 1511 H 139.889 -2.19141 -1.97639 0
M  V30 1512 H 139.97 -2.54626 -0.244821 0
M  V30 1513 H 139.614 -5.02208 -0.758266 0
M  V30 1514 H 139.544 -4.63678 -2.49621 0
M  V30 1515 H 142.035 -3.49973 -1.42573 0
M  V30 1516 H 142.348 -7.36934 -2.32696 0
M  V30 1517 H 140.693 -6.62535 -2.09933 0
M  V30 1518 H 143.884 -4.36616 -1.68772 0
M  V30 1519 H 144.057 -6.13066 -2.09891 0
M  V30 1520 N 137.463 0.71206 -1.40597 0
M  V30 1521 C 138.691 1.50111 -1.42388 0
M  V30 1522 C 139.106 1.88784 -0.0245395 0
M  V30 1523 O 138.463 1.55681 0.952351 0
M  V30 1524 C 138.514 2.7742 -2.31776 0
M  V30 1525 O 138.235 2.40382 -3.66262 0
M  V30 1526 C 139.736 3.7129 -2.42196 0
M  V30 1527 H 136.956 0.46314 -0.485533 0
M  V30 1528 H 139.5 0.878068 -1.8469 0
M  V30 1529 H 137.655 3.36001 -1.92827 0
M  V30 1530 H 138.069 3.22324 -4.13772 0
M  V30 1531 H 139.543 4.57448 -3.08943 0
M  V30 1532 H 140.02 4.14641 -1.44809 0
M  V30 1533 H 140.626 3.18619 -2.81712 0
M  V30 1534 N 138.941 1.26152 0.944643 0
M  V30 1535 C 140.188 1.11492 1.69044 0
M  V30 1536 C 140.516 -0.342366 1.91463 0
M  V30 1537 O 139.771 -1.26812 1.49054 0
M  V30 1538 C 140.07 1.82541 3.07268 0
M  V30 1539 C 139.736 3.32445 3.04616 0
M  V30 1540 C 138.398 3.73337 3.036 0
M  V30 1541 C 140.75 4.28171 2.97185 0
M  V30 1542 C 138.078 5.08348 2.92915 0
M  V30 1543 C 140.43 5.63218 2.88041 0
M  V30 1544 C 139.094 6.03426 2.85366 0
M  V30 1545 H 138.364 0.407977 0.618576 0
M  V30 1546 H 141.011 1.56551 1.10291 0
M  V30 1547 H 139.316 1.29941 3.69625 0
M  V30 1548 H 141.013 1.68642 3.63815 0
M  V30 1549 H 137.603 2.99915 3.06185 0
M  V30 1550 H 141.787 3.97563 2.97081 0
M  V30 1551 H 137.043 5.38667 2.89219 0
M  V30 1552 H 141.217 6.37078 2.81254 0
M  V30 1553 H 138.844 7.07999 2.76842 0
M  V30 1554 N 140.419 -1.14872 1.07899 0
M  V30 1555 C 141.665 -1.86064 0.806725 0
M  V30 1556 C 141.998 -1.82434 -0.665706 0
M  V30 1557 O 141.273 -1.25138 -1.48899 0
M  V30 1558 C 141.556 -3.34929 1.32267 0
M  V30 1559 C 141.409 -3.47161 2.86006 0
M  V30 1560 C 142.728 -4.29863 0.943717 0
M  V30 1561 H 139.847 -0.675591 0.294526 0
M  V30 1562 H 142.489 -1.34925 1.33773 0
M  V30 1563 H 140.639 -3.78611 0.870974 0
M  V30 1564 H 142.311 -3.12302 3.39507 0
M  V30 1565 H 140.554 -2.88539 3.23925 0
M  V30 1566 H 141.225 -4.51777 3.17177 0
M  V30 1567 H 143.701 -3.9417 1.33302 0
M  V30 1568 H 142.577 -5.32494 1.33198 0
M  V30 1569 H 142.838 -4.41846 -0.149796 0
M  V30 1570 N 141.898 -0.863906 -1.31812 0
M  V30 1571 C 143.138 -0.47825 -1.98726 0
M  V30 1572 C 143.502 0.950397 -1.66828 0
M  V30 1573 O 144.703 1.44109 -2.26905 0
M  V30 1574 C 142.974 -0.721134 -3.50049 0
M  V30 1575 S 144.533 -0.434432 -4.36644 0
M  V30 1576 H 141.351 -0.178773 -0.688158 0
M  V30 1577 H 143.953 -1.11862 -1.60334 0
M  V30 1578 H 142.657 -1.75981 -3.70755 0
M  V30 1579 H 142.188 -0.0675315 -3.93342 0
M  V30 1580 H 144.203 0.735786 -4.90714 0
M  V30 1581 N 143.376 1.44774 -0.622745 0
M  V30 1582 C 144.308 2.28856 0.125485 0
M  V30 1583 C 145.321 1.40811 0.817069 0
M  V30 1584 O 146.51 1.65044 0.679918 0
M  V30 1585 C 143.61 3.16963 1.19949 0
M  V30 1586 C 142.783 4.33374 0.592064 0
M  V30 1587 C 141.842 5.02577 1.55893 0
M  V30 1588 O 140.868 5.58873 1.07933 0
M  V30 1589 N 142.07 5.03256 2.89334 0
M  V30 1590 H 144.835 2.93713 -0.596068 0
M  V30 1591 H 142.396 1.55129 -0.463303 0
M  V30 1592 H 144.388 3.60123 1.84644 0
M  V30 1593 H 142.958 2.53913 1.82337 0
M  V30 1594 H 142.178 3.93509 -0.233322 0
M  V30 1595 H 143.466 5.08527 0.166738 0
M  V30 1596 H 142.864 4.58836 3.30887 0
M  V30 1597 H 141.421 5.50232 3.49412 0
M  V30 1598 N 144.854 0.36279 1.53368 0
M  V30 1599 C 146.1 -0.228113 2.01513 0
M  V30 1600 C 146.433 -1.48648 1.2497 0
M  V30 1601 O 145.708 -1.91459 0.342616 0
M  V30 1602 C 145.991 -0.522884 3.56284 0
M  V30 1603 C 145.844 0.74892 4.43521 0
M  V30 1604 C 147.163 -1.32461 4.19693 0
M  V30 1605 H 144.282 -0.0814343 0.732487 0
M  V30 1606 H 146.924 0.48713 1.83649 0
M  V30 1607 H 145.074 -1.1322 3.71636 0
M  V30 1608 H 146.746 1.38648 4.39971 0
M  V30 1609 H 144.989 1.36986 4.11603 0
M  V30 1610 H 145.66 0.497667 5.49752 0
M  V30 1611 H 148.136 -0.809203 4.08156 0
M  V30 1612 H 147.012 -1.49961 5.28018 0
M  V30 1613 H 147.273 -2.33232 3.75573 0
M  V30 1614 N 146.332 -1.57332 0.0918853 0
M  V30 1615 C 147.56 -1.98574 -0.581048 0
M  V30 1616 C 147.975 -0.970903 -1.61923 0
M  V30 1617 O 147.332 0.0399054 -1.82456 0
M  V30 1618 C 147.383 -3.39872 -1.23164 0
M  V30 1619 O 147.104 -4.37469 -0.234989 0
M  V30 1620 C 148.605 -3.96099 -1.99049 0
M  V30 1621 H 145.825 -0.65261 -0.156018 0
M  V30 1622 H 148.369 -2.0379 0.170225 0
M  V30 1623 H 146.524 -3.35679 -1.93386 0
M  V30 1624 H 146.938 -5.19751 -0.70418 0
M  V30 1625 H 148.412 -4.97127 -2.39934 0
M  V30 1626 H 148.889 -3.3374 -2.85507 0
M  V30 1627 H 149.495 -4.03755 -1.3365 0
M  V30 1628 N 147.81 0.181792 -1.56548 0
M  V30 1629 C 149.035 0.920019 -1.85877 0
M  V30 1630 C 149.46 1.75494 -0.677021 0
M  V30 1631 O 148.818 1.77399 0.374056 0
M  V30 1632 C 148.866 1.78112 -3.13542 0
M  V30 1633 O 147.97 2.88152 -2.95029 0
M  V30 1634 H 147.311 0.258334 -0.611686 0
M  V30 1635 H 149.841 0.183092 -2.03779 0
M  V30 1636 H 149.851 2.18314 -3.44678 0
M  V30 1637 H 148.526 1.16777 -3.99169 0
M  V30 1638 H 147.103 2.51609 -2.75222 0
M  V30 1639 N 149.288 1.51039 0.449983 0
M  V30 1640 C 150.534 1.63322 1.20223 0
M  V30 1641 C 150.867 0.34241 1.91158 0
M  V30 1642 O 150.142 -0.657344 1.83055 0
M  V30 1643 C 150.425 2.82801 2.22925 0
M  V30 1644 C 150.278 4.21823 1.56157 0
M  V30 1645 C 151.597 2.97807 3.24035 0
M  V30 1646 H 148.716 0.594407 0.435718 0
M  V30 1647 H 151.358 1.83489 0.493136 0
M  V30 1648 H 149.508 2.65738 2.834 0
M  V30 1649 H 151.18 4.50526 0.991162 0
M  V30 1650 H 149.423 4.25105 0.864172 0
M  V30 1651 H 150.094 5.01391 2.30891 0
M  V30 1652 H 152.57 3.13497 2.73603 0
M  V30 1653 H 151.446 3.82992 3.93202 0
M  V30 1654 H 151.707 2.09328 3.89402 0
M  V30 1655 N 150.766 -0.704594 1.40972 0
M  V30 1656 C 152.015 -1.46018 1.39146 0
M  V30 1657 C 152.328 -1.956 0.000589254 0
M  V30 1658 O 153.534 -2.71137 -0.1403 0
M  V30 1659 C 151.99 -2.63996 2.4461 0
M  V30 1660 C 151.598 -2.21238 3.89561 0
M  V30 1661 C 153.342 -3.41677 2.51907 0
M  V30 1662 C 151.249 -3.3612 4.86598 0
M  V30 1663 H 150.179 -0.548444 0.517422 0
M  V30 1664 H 152.83 -0.765784 1.66757 0
M  V30 1665 H 151.212 -3.3566 2.10115 0
M  V30 1666 H 152.386 -1.56923 4.33257 0
M  V30 1667 H 150.701 -1.56574 3.85841 0
M  V30 1668 H 153.298 -4.27182 3.2159 0
M  V30 1669 H 153.641 -3.86247 1.55303 0
M  V30 1670 H 154.174 -2.77064 2.85448 0
M  V30 1671 H 150.913 -2.96572 5.84573 0
M  V30 1672 H 150.433 -3.99315 4.47557 0
M  V30 1673 H 152.112 -4.02029 5.06934 0
M  V30 1674 N 152.244 -1.26651 -0.937939 0
M  V30 1675 C 153.491 -1.12387 -1.6845 0
M  V30 1676 C 153.819 0.332208 -1.91642 0
M  V30 1677 O 153.074 1.2602 -1.49725 0
M  V30 1678 C 153.373 -1.84168 -3.06295 0
M  V30 1679 C 153.039 -3.34056 -3.02849 0
M  V30 1680 C 151.701 -3.74942 -3.01616 0
M  V30 1681 C 154.053 -4.29741 -2.9491 0
M  V30 1682 C 151.381 -5.09894 -2.90215 0
M  V30 1683 C 153.733 -5.64738 -2.8505 0
M  V30 1684 C 152.397 -6.0493 -2.82162 0
M  V30 1685 H 151.667 -0.411252 -0.616403 0
M  V30 1686 H 154.314 -1.57134 -1.09459 0
M  V30 1687 H 152.619 -1.319 -3.6893 0
M  V30 1688 H 154.316 -1.70569 -3.62915 0
M  V30 1689 H 150.906 -3.01534 -3.0459 0
M  V30 1690 H 155.09 -3.99133 -2.94969 0
M  V30 1691 H 150.346 -5.40194 -2.86358 0
M  V30 1692 H 154.52 -6.38561 -2.77872 0
M  V30 1693 H 152.147 -7.09457 -2.73084 0
M  V30 1694 N 153.722 1.14298 -1.08507 0
M  V30 1695 C 154.952 1.88945 -0.835663 0
M  V30 1696 C 155.36 1.78894 0.615928 0
M  V30 1697 O 154.703 1.1468 1.43506 0
M  V30 1698 C 154.765 3.39585 -1.17994 0
M  V30 1699 C 154.429 3.7342 -2.63451 0
M  V30 1700 C 155.426 3.73454 -3.61702 0
M  V30 1701 C 153.111 4.03368 -2.99332 0
M  V30 1702 C 155.105 4.02961 -4.93864 0
M  V30 1703 C 152.792 4.32538 -4.31687 0
M  V30 1704 C 153.79 4.32318 -5.28763 0
M  V30 1705 O 153.478 4.6078 -6.58739 0
M  V30 1706 H 153.21 0.605307 -0.300965 0
M  V30 1707 H 155.764 1.45673 -1.44806 0
M  V30 1708 H 153.994 3.83315 -0.51055 0
M  V30 1709 H 155.683 3.9554 -0.911182 0
M  V30 1710 H 156.449 3.50403 -3.35325 0
M  V30 1711 H 152.328 4.02692 -2.24411 0
M  V30 1712 H 155.872 4.02704 -5.69627 0
M  V30 1713 H 151.769 4.55059 -4.57812 0
M  V30 1714 H 152.537 4.78492 -6.64069 0
M  V30 1715 N 155.201 0.870884 1.31352 0
M  V30 1716 C 156.448 0.482273 1.96673 0
M  V30 1717 C 156.776 -0.965638 1.68836 0
M  V30 1718 O 156.031 -1.69514 0.977937 0
M  V30 1719 C 156.33 0.687157 3.50732 0
M  V30 1720 C 155.996 2.108 3.9859 0
M  V30 1721 C 154.658 2.49656 4.1137 0
M  V30 1722 C 157.01 3.03459 4.23748 0
M  V30 1723 C 154.338 3.80412 4.46659 0
M  V30 1724 C 156.69 4.3373 4.60501 0
M  V30 1725 C 155.354 4.725 4.71487 0
M  V30 1726 H 154.624 0.176476 0.719679 0
M  V30 1727 H 157.271 1.10405 1.56471 0
M  V30 1728 H 155.576 -0.0177476 3.91796 0
M  V30 1729 H 157.273 0.366284 3.99324 0
M  V30 1730 H 153.863 1.79633 3.8914 0
M  V30 1731 H 158.047 2.74665 4.13368 0
M  V30 1732 H 153.303 4.1021 4.53362 0
M  V30 1733 H 157.477 5.05578 4.78919 0
M  V30 1734 H 155.104 5.73859 4.98588 0
M  V30 1735 N 156.679 -1.44442 0.630414 0
M  V30 1736 C 157.907 -2.06414 0.141671 0
M  V30 1737 C 158.322 -1.47105 -1.18345 0
M  V30 1738 O 157.679 -0.593662 -1.72574 0
M  V30 1739 C 157.73 -3.61494 0.0199784 0
M  V30 1740 O 157.451 -4.18594 1.29269 0
M  V30 1741 C 158.952 -4.40499 -0.497544 0
M  V30 1742 H 156.172 -0.666292 0.0793452 0
M  V30 1743 H 158.716 -1.85323 0.864614 0
M  V30 1744 H 156.871 -3.8185 -0.653402 0
M  V30 1745 H 157.285 -5.12026 1.13707 0
M  V30 1746 H 158.759 -5.49433 -0.531708 0
M  V30 1747 H 159.236 -4.11895 -1.52445 0
M  V30 1748 H 159.842 -4.25061 0.142562 0
M  V30 1749 N 158.157 -0.370918 -1.53173 0
M  V30 1750 C 159.09 0.516727 -2.22273 0
M  V30 1751 C 160.068 1.07877 -1.21661 0
M  V30 1752 O 161.252 1.13389 -1.50583 0
M  V30 1753 C 158.379 1.71346 -2.92161 0
M  V30 1754 C 157.425 1.27838 -4.0689 0
M  V30 1755 S 158.258 0.275217 -5.34792 0
M  V30 1756 C 159.414 1.47816 -6.08195 0
M  V30 1757 H 159.647 -0.0701054 -2.97217 0
M  V30 1758 H 157.18 -0.155038 -1.5362 0
M  V30 1759 H 159.138 2.39988 -3.3304 0
M  V30 1760 H 157.799 2.27156 -2.16931 0
M  V30 1761 H 156.992 2.17141 -4.54825 0
M  V30 1762 H 156.594 0.671105 -3.6793 0
M  V30 1763 H 158.886 2.40831 -6.33251 0
M  V30 1764 H 159.829 1.04008 -7.0042 0
M  V30 1765 H 160.237 1.68663 -5.38714 0
M  V30 1766 N 159.635 1.57281 -0.100228 0
M  V30 1767 C 160.865 1.98591 0.569681 0
M  V30 1768 C 161.273 0.978315 1.61943 0
M  V30 1769 O 160.616 -0.0396108 1.83657 0
M  V30 1770 C 160.678 3.36282 1.271 0
M  V30 1771 C 160.342 4.55488 0.371409 0
M  V30 1772 C 161.339 5.18491 -0.382504 0
M  V30 1773 C 159.024 5.01474 0.287965 0
M  V30 1774 C 161.018 6.25852 -1.20779 0
M  V30 1775 C 158.705 6.08701 -0.540965 0
M  V30 1776 C 159.703 6.70755 -1.28749 0
M  V30 1777 O 159.391 7.75914 -2.10269 0
M  V30 1778 H 159.123 0.65752 0.156982 0
M  V30 1779 H 161.677 2.0463 -0.177734 0
M  V30 1780 H 159.907 3.26941 2.0651 0
M  V30 1781 H 161.596 3.62005 1.83595 0
M  V30 1782 H 162.362 4.83891 -0.3278 0
M  V30 1783 H 158.241 4.52932 0.858689 0
M  V30 1784 H 161.785 6.74218 -1.79096 0
M  V30 1785 H 157.682 6.42732 -0.597131 0
M  V30 1786 H 158.45 7.92925 -2.03007 0
M  V30 1787 N 161.113 -0.173488 1.56642 0
M  V30 1788 C 162.362 -0.888758 1.81063 0
M  V30 1789 C 162.675 -1.83506 0.67712 0
M  V30 1790 O 163.881 -2.59254 0.806206 0
M  V30 1791 C 162.337 -1.63091 3.20826 0
M  V30 1792 C 161.945 -0.728357 4.4204 0
M  V30 1793 C 163.689 -2.33454 3.54541 0
M  V30 1794 C 161.596 -1.47062 5.72823 0
M  V30 1795 H 160.526 -0.335618 0.675186 0
M  V30 1796 H 163.177 -0.141712 1.82952 0
M  V30 1797 H 161.559 -2.42263 3.13248 0
M  V30 1798 H 162.733 0.0262449 4.60793 0
M  V30 1799 H 161.048 -0.134492 4.16183 0
M  V30 1800 H 163.645 -2.89578 4.49498 0
M  V30 1801 H 163.988 -3.08687 2.79317 0
M  V30 1802 H 164.521 -1.61227 3.63663 0
M  V30 1803 H 161.26 -0.760658 6.51072 0
M  V30 1804 H 160.78 -2.1986 5.58052 0
M  V30 1805 H 162.459 -2.01868 6.14702 0
M  V30 1806 N 162.591 -1.51276 -0.441967 0
M  V30 1807 C 163.816 -1.67799 -1.21895 0
M  V30 1808 C 164.241 -0.372864 -1.84367 0
M  V30 1809 O 163.599 0.666501 -1.68604 0
M  V30 1810 C 163.647 -2.79199 -2.28211 0
M  V30 1811 O 162.751 -2.42479 -3.33583 0
M  V30 1812 H 162.092 -0.559649 -0.357336 0
M  V30 1813 H 164.622 -1.97815 -0.522522 0
M  V30 1814 H 164.632 -3.03146 -2.73069 0
M  V30 1815 H 163.307 -3.73906 -1.82118 0
M  V30 1816 H 161.884 -2.29087 -2.94234 0
M  V30 1817 N 164.069 0.697108 -1.41344 0
M  V30 1818 C 165.318 1.45279 -1.39918 0
M  V30 1819 C 165.631 1.95597 -0.0109624 0
M  V30 1820 O 166.837 2.71208 0.125919 0
M  V30 1821 C 165.293 2.62695 -2.46007 0
M  V30 1822 C 164.901 2.19169 -3.90729 0
M  V30 1823 C 166.645 3.40336 -2.53715 0
M  V30 1824 C 164.552 3.33535 -4.88373 0
M  V30 1825 H 163.482 0.545692 -0.520323 0
M  V30 1826 H 166.133 0.756929 -1.67161 0
M  V30 1827 H 164.515 3.34541 -2.11892 0
M  V30 1828 H 165.689 1.54623 -4.34083 0
M  V30 1829 H 164.004 1.54525 -3.86666 0
M  V30 1830 H 166.601 4.2547 -3.2385 0
M  V30 1831 H 166.944 3.85418 -1.5735 0
M  V30 1832 H 167.477 2.75546 -2.86913 0
M  V30 1833 H 164.216 2.93468 -5.86137 0
M  V30 1834 H 163.736 3.96936 -4.49668 0
M  V30 1835 H 165.415 3.99335 -5.09059 0
M  V30 1836 N 165.547 1.27147 0.931209 0
M  V30 1837 C 166.772 1.16191 1.71797 0
M  V30 1838 C 167.197 -0.278004 1.86034 0
M  V30 1839 O 166.555 -1.20137 1.35782 0
M  V30 1840 C 166.603 1.84673 3.09723 0
M  V30 1841 O 165.707 1.14231 3.96264 0
M  V30 1842 H 165.048 0.404303 0.526721 0
M  V30 1843 H 167.578 1.68152 1.1656 0
M  V30 1844 H 167.588 1.91893 3.60057 0
M  V30 1845 H 166.263 2.89421 2.98677 0
M  V30 1846 H 164.84 1.15056 3.54706 0
M  V30 1847 N 167.025 -1.13721 1.09112 0
M  V30 1848 C 168.272 -1.84924 0.825192 0
M  V30 1849 C 168.6 -1.83347 -0.649151 0
M  V30 1850 O 167.855 -1.26449 -1.49362 0
M  V30 1851 C 168.154 -3.32861 1.30146 0
M  V30 1852 C 167.82 -3.54621 2.78486 0
M  V30 1853 C 166.482 -3.60268 3.18999 0
M  V30 1854 C 168.834 -3.62855 3.74146 0
M  V30 1855 C 166.162 -3.71679 4.53951 0
M  V30 1856 C 168.514 -3.75793 5.08883 0
M  V30 1857 C 167.178 -3.79692 5.4899 0
M  V30 1858 H 166.448 -0.676684 0.301959 0
M  V30 1859 H 169.095 -1.3428 1.36533 0
M  V30 1860 H 167.4 -3.85835 0.681064 0
M  V30 1861 H 169.097 -3.86395 1.07236 0
M  V30 1862 H 165.687 -3.50879 2.46134 0
M  V30 1863 H 169.871 -3.57775 3.43963 0
M  V30 1864 H 165.127 -3.72963 4.84467 0
M  V30 1865 H 169.301 -3.81107 5.82864 0
M  V30 1866 H 166.928 -3.88287 6.53558 0
M  V30 1867 N 168.503 -0.877838 -1.30888 0
M  V30 1868 C 169.433 -0.35534 -2.3078 0
M  V30 1869 C 170.414 0.557994 -1.60687 0
M  V30 1870 O 171.599 0.473355 -1.88343 0
M  V30 1871 C 168.729 0.437221 -3.44537 0
M  V30 1872 C 167.683 -0.383715 -4.26276 0
M  V30 1873 C 167.009 0.535014 -5.32017 0
M  V30 1874 C 168.309 -1.62201 -4.96476 0
M  V30 1875 H 170.003 -1.19007 -2.74732 0
M  V30 1876 H 167.549 -0.573698 -1.32078 0
M  V30 1877 H 169.502 0.813334 -4.13477 0
M  V30 1878 H 168.226 1.30553 -2.99372 0
M  V30 1879 H 166.885 -0.741874 -3.59015 0
M  V30 1880 H 166.533 1.40083 -4.831 0
M  V30 1881 H 166.233 -0.0104211 -5.87599 0
M  V30 1882 H 167.757 0.907799 -6.03814 0
M  V30 1883 H 169.171 -1.31689 -5.5797 0
M  V30 1884 H 167.568 -2.10711 -5.61891 0
M  V30 1885 H 168.638 -2.37044 -4.23011 0
M  V30 1886 N 169.982 1.44106 -0.638065 0
M  V30 1887 C 171.23 2.01579 -0.145043 0
M  V30 1888 C 171.551 1.50496 1.24 0
M  V30 1889 O 170.821 0.711374 1.82527 0
M  V30 1890 H 169.401 0.745282 -0.05063 0
M  V30 1891 H 172.063 1.76516 -0.826327 0
M  V30 1892 H 171.159 3.11877 -0.118039 0
M  V30 1893 N 171.46 0.379036 1.52974 0
M  V30 1894 C 172.39 -0.452706 2.29069 0
M  V30 1895 C 173.371 -1.07237 1.32039 0
M  V30 1896 O 174.556 -1.08708 1.60923 0
M  V30 1897 C 171.686 -1.5856 3.08992 0
M  V30 1898 C 170.64 -1.0925 4.13822 0
M  V30 1899 C 169.966 -2.31668 4.81907 0
M  V30 1900 C 171.266 -0.167702 5.22031 0
M  V30 1901 H 172.96 0.182181 2.98845 0
M  V30 1902 H 170.506 0.0890592 1.43724 0
M  V30 1903 H 172.459 -2.1742 3.6098 0
M  V30 1904 H 171.183 -2.24792 2.36931 0
M  V30 1905 H 169.842 -0.526494 3.628 0
M  V30 1906 H 169.49 -2.96386 4.06404 0
M  V30 1907 H 169.19 -1.9934 5.52754 0
M  V30 1908 H 170.714 -2.91189 5.36695 0
M  V30 1909 H 172.128 -0.664186 5.6944 0
M  V30 1910 H 170.525 0.0653265 6.00064 0
M  V30 1911 H 171.595 0.786347 4.78482 0
M  V30 1912 N 172.938 -1.57226 0.108567 0
M  V30 1913 C 174.187 -1.94008 -0.551703 0
M  V30 1914 C 174.5 -0.993442 -1.68494 0
M  V30 1915 O 175.706 -1.25551 -2.40726 0
M  V30 1916 C 174.162 -3.44763 -1.03279 0
M  V30 1917 C 173.77 -4.47943 0.0714193 0
M  V30 1918 C 175.514 -3.90483 -1.66503 0
M  V30 1919 C 173.421 -5.89865 -0.425779 0
M  V30 1920 H 172.351 -0.724206 -0.209863 0
M  V30 1921 H 175.002 -1.82547 0.186741 0
M  V30 1922 H 173.384 -3.51422 -1.82533 0
M  V30 1923 H 174.558 -4.52942 0.847365 0
M  V30 1924 H 172.873 -4.11913 0.609669 0
M  V30 1925 H 175.47 -4.93925 -2.04798 0
M  V30 1926 H 175.813 -3.29877 -2.53942 0
M  V30 1927 H 176.346 -3.86581 -0.938074 0
M  V30 1928 H 173.085 -6.54202 0.412316 0
M  V30 1929 H 172.605 -5.88309 -1.16843 0
M  V30 1930 H 174.284 -6.40844 -0.890397 0
M  V30 1931 N 174.416 0.165178 -1.56732 0
M  V30 1932 C 175.644 0.896218 -1.86482 0
M  V30 1933 C 176.059 1.75555 -0.694675 0
M  V30 1934 O 175.416 1.79379 0.33607 0
M  V30 1935 C 175.467 1.76792 -3.1532 0
M  V30 1936 O 175.188 0.943239 -4.27825 0
M  V30 1937 C 176.689 2.6081 -3.58459 0
M  V30 1938 H 173.909 0.260064 -0.618553 0
M  V30 1939 H 176.453 0.163428 -2.03846 0
M  V30 1940 H 174.608 2.45398 -2.99764 0
M  V30 1941 H 175.022 1.53998 -5.01383 0
M  V30 1942 H 176.496 3.17579 -4.51495 0
M  V30 1943 H 176.973 3.35977 -2.82872 0
M  V30 1944 H 177.579 1.97526 -3.76648 0
M  V30 1945 N 175.894 1.51508 0.433938 0
M  V30 1946 C 177.143 1.63578 1.18005 0
M  V30 1947 C 177.456 0.359514 1.92268 0
M  V30 1948 O 178.662 0.359632 2.69108 0
M  V30 1949 C 177.118 2.88901 2.14626 0
M  V30 1950 C 176.726 4.23544 1.45995 0
M  V30 1951 C 178.47 3.10328 2.89649 0
M  V30 1952 C 176.377 5.40014 2.4112 0
M  V30 1953 H 175.307 0.609277 0.444182 0
M  V30 1954 H 177.958 1.77978 0.446773 0
M  V30 1955 H 176.34 2.68142 2.91403 0
M  V30 1956 H 177.514 4.54696 0.747532 0
M  V30 1957 H 175.829 4.08021 0.831115 0
M  V30 1958 H 178.426 3.94518 3.60915 0
M  V30 1959 H 178.769 2.23544 3.51189 0
M  V30 1960 H 179.302 3.31443 2.19978 0
M  V30 1961 H 176.041 6.29068 1.84264 0
M  V30 1962 H 175.561 5.13233 3.10406 0
M  V30 1963 H 177.24 5.72099 3.02177 0
M  V30 1964 N 177.372 -0.689602 1.41712 0
M  V30 1965 C 178.649 -1.44457 1.31877 0
M  V30 1966 C 179.029 -2.11039 -0.0508537 0
M  V30 1967 O 178.377 -2.02138 -1.06547 0
M  V30 1968 C 178.587 -2.45913 2.47645 0
M  V30 1969 C 179.935 -3.10991 2.89084 0
M  V30 1970 O 180.959 -2.56238 2.47428 0
M  V30 1971 O 179.818 -4.10174 3.61137 0
M  V30 1972 H 176.912 -0.64362 0.519309 0
M  V30 1973 H 179.458 -0.719576 1.53689 0
M  V30 1974 H 178.23 -1.95409 3.39015 0
M  V30 1975 H 177.853 -3.25913 2.27742 0
M  V30 1976 N 178.85 -1.27639 -0.924453 0
M  V30 1977 C 180.266 -1.05113 -1.20097 0
M  V30 1978 C 180.466 0.213262 -2.00368 0
M  V30 1979 O 179.522 0.91787 -2.35226 0
M  V30 1980 C 180.835 -2.29244 -1.94596 0
M  V30 1981 C 182.383 -2.34315 -2.07522 0
M  V30 1982 C 182.858 -3.58183 -2.85427 0
M  V30 1983 N 184.349 -3.5876 -2.92994 0
M  V30 1984 C 185.084 -4.51277 -3.53746 0
M  V30 1985 N 184.58 -5.54102 -4.15863 0
M  V30 1986 N 186.373 -4.38894 -3.51181 0
M  V30 1987 H 178.524 -2.08821 -0.388264 0
M  V30 1988 H 180.787 -0.918568 -0.234385 0
M  V30 1989 H 180.493 -3.21301 -1.43034 0
M  V30 1990 H 180.367 -2.34816 -2.95197 0
M  V30 1991 H 182.754 -1.42762 -2.58269 0
M  V30 1992 H 182.835 -2.32744 -1.06131 0
M  V30 1993 H 182.479 -4.50074 -2.35363 0
M  V30 1994 H 182.409 -3.57006 -3.8711 0
M  V30 1995 H 184.9 -2.84398 -2.4885 0
M  V30 1996 H 185.213 -6.20859 -4.60168 0
M  V30 1997 H 183.558 -5.57941 -4.144 0
M  V30 1998 H 186.749 -3.57772 -3.01856 0
M  V30 1999 H 186.922 -5.11186 -3.98237 0
M  V30 2000 N 180.328 1.1314 -1.09713 0
M  V30 2001 C 181.558 1.88048 -0.855656 0
M  V30 2002 C 181.966 1.79537 0.596919 0
M  V30 2003 O 181.309 1.16196 1.42282 0
M  V30 2004 C 181.371 3.38314 -1.21589 0
M  V30 2005 C 181.035 3.70605 -2.67397 0
M  V30 2006 C 182.032 3.69596 -3.65643 0
M  V30 2007 C 179.717 4.0017 -3.03593 0
M  V30 2008 C 181.711 3.977 -4.9811 0
M  V30 2009 C 179.398 4.27935 -4.36251 0
M  V30 2010 C 180.396 4.26685 -5.33318 0
M  V30 2011 O 180.084 4.53767 -6.63589 0
M  V30 2012 H 179.816 0.60208 -0.307368 0
M  V30 2013 H 182.37 1.44128 -1.46343 0
M  V30 2014 H 180.6 3.82752 -0.551177 0
M  V30 2015 H 182.289 3.94552 -0.953083 0
M  V30 2016 H 183.055 3.46826 -3.39023 0
M  V30 2017 H 178.934 4.00289 -2.2867 0
M  V30 2018 H 182.478 3.9664 -5.73866 0
M  V30 2019 H 178.375 4.50178 -4.62613 0
M  V30 2020 H 179.143 4.71422 -6.69107 0
M  V30 2021 N 181.806 0.884767 1.30421 0
M  V30 2022 C 182.738 0.308655 2.27112 0
M  V30 2023 C 183.751 -0.536655 1.53701 0
M  V30 2024 O 184.94 -0.35624 1.74909 0
M  V30 2025 C 182.04 -0.579782 3.33904 0
M  V30 2026 C 181.213 0.236417 4.36761 0
M  V30 2027 C 180.272 -0.582482 5.22966 0
M  V30 2028 O 179.298 -0.00525502 5.692 0
M  V30 2029 N 180.5 -1.89163 5.48815 0
M  V30 2030 H 183.265 1.13964 2.77186 0
M  V30 2031 H 180.826 0.747731 1.43599 0
M  V30 2032 H 182.818 -1.13366 3.88497 0
M  V30 2033 H 181.388 -1.31144 2.83761 0
M  V30 2034 H 180.608 0.97174 3.82035 0
M  V30 2035 H 181.896 0.795924 5.02536 0
M  V30 2036 H 181.294 -2.38352 5.13035 0
M  V30 2037 H 179.851 -2.39296 6.06284 0
M  V30 2038 N 183.284 -1.43765 0.645699 0
M  V30 2039 C 184.231 -2.30745 -0.0504648 0
M  V30 2040 C 185.201 -1.4432 -0.822241 0
M  V30 2041 O 186.386 -1.73202 -0.800358 0
M  V30 2042 C 183.526 -3.29802 -1.0161 0
M  V30 2043 C 182.639 -4.31326 -0.241219 0
M  V30 2044 C 181.774 -5.17469 -1.19998 0
M  V30 2045 C 180.813 -6.10691 -0.415094 0
M  V30 2046 N 179.95 -6.89483 -1.32506 0
M  V30 2047 H 184.79 -2.8973 0.697155 0
M  V30 2048 H 182.327 -1.42738 0.355563 0
M  V30 2049 H 184.285 -3.85734 -1.58949 0
M  V30 2050 H 182.915 -2.72483 -1.73069 0
M  V30 2051 H 181.967 -3.77749 0.448334 0
M  V30 2052 H 183.279 -4.9743 0.369437 0
M  V30 2053 H 182.433 -5.7799 -1.84424 0
M  V30 2054 H 181.172 -4.51473 -1.84455 0
M  V30 2055 H 180.177 -5.49265 0.242565 0
M  V30 2056 H 181.402 -6.78727 0.224966 0
M  V30 2057 H 179.348 -6.26142 -1.95657 0
M  V30 2058 H 179.265 -7.52081 -0.768783 0
M  V30 2059 H 180.533 -7.54516 -1.9577 0
M  V30 2060 N 184.763 -0.387143 -1.52771 0
M  V30 2061 C 185.991 0.195869 -2.05971 0
M  V30 2062 C 186.406 1.40691 -1.25903 0
M  V30 2063 O 185.763 1.79931 -0.305134 0
M  V30 2064 C 185.814 0.56812 -3.57008 0
M  V30 2065 O 185.535 -0.594803 -4.34043 0
M  V30 2066 C 187.036 1.20723 -4.26545 0
M  V30 2067 H 184.256 0.0300578 -0.670326 0
M  V30 2068 H 186.8 -0.551749 -1.96916 0
M  V30 2069 H 184.955 1.26564 -3.66143 0
M  V30 2070 H 185.369 -0.289322 -5.23701 0
M  V30 2071 H 186.843 1.41807 -5.33474 0
M  V30 2072 H 187.32 2.17395 -3.81623 0
M  V30 2073 H 187.926 0.550535 -4.21722 0
M  V30 2074 N 186.241 1.57166 -0.116904 0
M  V30 2075 C 187.469 1.99473 0.549383 0
M  V30 2076 C 187.884 0.996541 1.60357 0
M  V30 2077 O 187.241 -0.0108731 1.82497 0
M  V30 2078 C 187.292 3.41788 1.17741 0
M  V30 2079 O 187.013 4.37788 0.165362 0
M  V30 2080 C 188.514 3.99216 1.92722 0
M  V30 2081 H 185.734 0.655009 0.145616 0
M  V30 2082 H 188.278 2.03494 -0.202625 0
M  V30 2083 H 186.433 3.38713 1.88021 0
M  V30 2084 H 186.847 5.20806 0.621403 0
M  V30 2085 H 188.321 5.00882 2.31995 0
M  V30 2086 H 188.798 3.3824 2.80161 0
M  V30 2087 H 189.404 4.0583 1.27209 0
M  V30 2088 N 187.719 -0.156864 1.56817 0
M  V30 2089 C 189.135 -0.50916 1.5126 0
M  V30 2090 C 189.335 -1.83897 0.823658 0
M  V30 2091 O 188.391 -2.49469 0.390055 0
M  V30 2092 C 189.704 -0.52857 2.96018 0
M  V30 2093 C 191.252 -0.614771 3.06903 0
M  V30 2094 C 191.727 -0.664938 4.53147 0
M  V30 2095 N 193.218 -0.727433 4.57452 0
M  V30 2096 C 193.953 -0.787067 5.67973 0
M  V30 2097 N 193.449 -0.806649 6.88088 0
M  V30 2098 N 195.242 -0.827195 5.5598 0
M  V30 2099 H 187.393 0.714935 2.00006 0
M  V30 2100 H 189.656 0.259526 0.911784 0
M  V30 2101 H 189.362 0.380154 3.49639 0
M  V30 2102 H 189.236 -1.36998 3.51442 0
M  V30 2103 H 191.623 -1.51392 2.53307 0
M  V30 2104 H 191.704 0.253597 2.5454 0
M  V30 2105 H 191.348 0.230011 5.07379 0
M  V30 2106 H 191.278 -1.54966 5.03282 0
M  V30 2107 H 193.769 -0.719998 3.70978 0
M  V30 2108 H 194.082 -0.853727 7.6807 0
M  V30 2109 H 192.427 -0.774687 6.90669 0
M  V30 2110 H 195.618 -0.808998 4.61056 0
M  V30 2111 H 195.791 -0.870206 6.4213 0
M  V30 2112 N 189.197 -1.51736 -0.425897 0
M  V30 2113 C 190.608 -1.5732 -1.00536 0
M  V30 2114 C 190.959 -0.403537 -1.92005 0
M  V30 2115 O 190.084 0.478256 -2.11049 0
M  V30 2116 C 190.679 -2.85119 -1.8301 0
M  V30 2117 C 189.238 -2.93236 -2.35987 0
M  V30 2118 C 188.385 -2.52098 -1.15508 0
M  V30 2119 H 191.336 -1.57348 -0.206739 0
M  V30 2120 H 191.357 -2.69526 -2.68581 0
M  V30 2121 H 190.869 -3.7023 -1.16411 0
M  V30 2122 H 188.97 -2.12581 -3.06007 0
M  V30 2123 H 189.083 -3.9713 -2.68001 0
M  V30 2124 H 187.447 -2.05558 -1.50393 0
M  V30 2125 H 188.23 -3.39565 -0.505014 0
M  V30 2126 N 190.675 0.682077 -1.42076 0
M  V30 2127 C 191.922 1.44215 -1.42156 0
M  V30 2128 C 192.25 1.94468 -0.0354186 0
M  V30 2129 O 191.505 1.70816 0.955002 0
M  V30 2130 C 191.804 2.66036 -2.38662 0
M  V30 2131 C 191.47 2.34366 -3.85206 0
M  V30 2132 C 190.132 2.25439 -4.25124 0
M  V30 2133 C 192.484 2.08513 -4.77673 0
M  V30 2134 C 189.812 1.88775 -5.55501 0
M  V30 2135 C 192.164 1.73354 -6.08384 0
M  V30 2136 C 190.828 1.62933 -6.47309 0
M  V30 2137 H 190.098 0.527718 -0.520187 0
M  V30 2138 H 192.745 0.778387 -1.74967 0
M  V30 2139 H 191.05 3.3741 -1.99152 0
M  V30 2140 H 192.747 3.24205 -2.35991 0
M  V30 2141 H 189.337 2.42213 -3.53597 0
M  V30 2142 H 193.521 2.14346 -4.47626 0
M  V30 2143 H 188.777 1.7927 -5.84527 0
M  V30 2144 H 192.951 1.52373 -6.79526 0
M  V30 2145 H 190.578 1.34292 -7.48244 0
M  V30 2146 N 192.153 1.28127 0.917671 0
M  V30 2147 C 193.1 1.11717 2.0196 0
M  V30 2148 C 194.07 0.0153929 1.66093 0
M  V30 2149 O 195.255 0.179596 1.89953 0
M  V30 2150 C 192.395 0.780927 3.36148 0
M  V30 2151 C 191.508 1.96135 3.84909 0
M  V30 2152 C 190.643 1.56609 5.0759 0
M  V30 2153 C 189.682 2.71339 5.48673 0
M  V30 2154 N 188.819 2.32332 6.62545 0
M  V30 2155 H 193.659 2.06003 2.15329 0
M  V30 2156 H 191.196 1.02535 1.05475 0
M  V30 2157 H 193.154 0.56675 4.13333 0
M  V30 2158 H 191.784 -0.124998 3.22558 0
M  V30 2159 H 190.836 2.28777 3.03916 0
M  V30 2160 H 192.148 2.82165 4.1132 0
M  V30 2161 H 191.302 1.31374 5.92305 0
M  V30 2162 H 190.041 0.677014 4.82978 0
M  V30 2163 H 189.046 2.97276 4.62501 0
M  V30 2164 H 190.271 3.60882 5.75274 0
M  V30 2165 H 188.217 1.45889 6.39572 0
M  V30 2166 H 188.134 3.11899 6.88662 0
M  V30 2167 H 189.402 2.10371 7.50576 0
M  V30 2168 N 193.631 -1.12557 1.10312 0
M  V30 2169 C 194.859 -1.87864 0.866873 0
M  V30 2170 C 195.274 -1.79588 -0.582557 0
M  V30 2171 O 194.631 -1.16887 -1.40156 0
M  V30 2172 C 194.682 -3.37125 1.30496 0
M  V30 2173 O 194.403 -3.45201 2.69755 0
M  V30 2174 C 195.904 -4.29373 1.10243 0
M  V30 2175 H 193.124 -0.594452 0.311236 0
M  V30 2176 H 195.668 -1.42429 1.46745 0
M  V30 2177 H 193.823 -3.80109 0.748081 0
M  V30 2178 H 194.237 -4.38056 2.88457 0
M  V30 2179 H 195.711 -5.32394 1.45811 0
M  V30 2180 H 196.188 -4.39181 0.0409492 0
M  V30 2181 H 196.794 -3.92169 1.64571 0
M  V30 2182 N 195.109 -0.891671 -1.2995 0
M  V30 2183 C 196.334 -0.527932 -2.00568 0
M  V30 2184 C 196.759 0.877969 -1.66353 0
M  V30 2185 O 196.117 1.58301 -0.883762 0
M  V30 2186 C 196.165 -0.717745 -3.53385 0
M  V30 2187 O 195.269 0.233376 -4.11739 0
M  V30 2188 H 194.61 -0.20722 -0.630837 0
M  V30 2189 H 197.14 -1.20105 -1.65638 0
M  V30 2190 H 197.15 -0.619307 -4.03272 0
M  V30 2191 H 195.825 -1.74276 -3.77625 0
M  V30 2192 H 194.402 0.0880706 -3.72796 0
M  V30 2193 N 196.587 1.43421 -0.653314 0
M  V30 2194 C 197.535 2.32546 0.0501531 0
M  V30 2195 C 198.529 1.48617 0.812985 0
M  V30 2196 O 199.735 1.64825 0.723375 0
M  V30 2197 H 196.11 0.751185 0.0350032 0
M  V30 2198 H 198.081 2.89602 -0.719261 0
M  V30 2199 C 196.83 3.32925 1.00279 0
M  V30 2200 H 196.153 3.97532 0.425236 0
M  V30 2201 H 197.593 3.9792 1.46409 0
M  V30 2202 C 196.052 2.63532 2.09886 0
M  V30 2203 O 196.582 2.45092 3.18265 0
M  V30 2204 N 194.788 2.22905 1.86445 0
M  V30 2205 H 194.335 2.38103 0.98309 0
M  V30 2206 H 194.293 1.76805 2.59976 0
M  V30 2207 N 198.065 0.39524 1.52563 0
M  V30 2208 C 199.476 -0.0774719 1.86539 0
M  V30 2209 C 199.827 -1.45641 1.31466 0
M  V30 2210 O 198.952 -2.06459 0.648367 0
M  V30 2211 C 199.547 -0.147356 3.38479 0
M  V30 2212 C 198.106 -0.564373 3.72145 0
M  V30 2213 C 197.253 0.269919 2.75983 0
M  V30 2214 H 200.204 0.612876 1.46388 0
M  V30 2215 H 200.225 -0.965343 3.68051 0
M  V30 2216 H 199.737 0.856387 3.78534 0
M  V30 2217 H 197.838 -1.57527 3.37663 0
M  V30 2218 H 197.951 -0.318402 4.78041 0
M  V30 2219 H 196.315 -0.265696 2.5331 0
M  V30 2220 H 197.098 1.27175 3.18875 0
M  V30 2221 N 199.544 -1.57102 0.125237 0
M  V30 2222 C 200.491 -2.15641 -0.822655 0
M  V30 2223 C 201.461 -1.08313 -1.25927 0
M  V30 2224 O 202.646 -1.36251 -1.33567 0
M  V30 2225 C 199.786 -2.76504 -2.06494 0
M  V30 2226 C 198.899 -3.98158 -1.67612 0
M  V30 2227 C 198.034 -4.47088 -2.86854 0
M  V30 2228 C 197.073 -5.6126 -2.44242 0
M  V30 2229 N 196.21 -6.04905 -3.56419 0
M  V30 2230 H 201.05 -2.96313 -0.316625 0
M  V30 2231 H 198.587 -1.46388 -0.144588 0
M  V30 2232 H 200.545 -3.09925 -2.79289 0
M  V30 2233 H 199.175 -1.98512 -2.54545 0
M  V30 2234 H 198.227 -3.70858 -0.846661 0
M  V30 2235 H 199.539 -4.80934 -1.32301 0
M  V30 2236 H 198.693 -4.82451 -3.67867 0
M  V30 2237 H 197.432 -3.63275 -3.25396 0
M  V30 2238 H 196.437 -5.25495 -1.61663 0
M  V30 2239 H 197.662 -6.46843 -2.0681 0
M  V30 2240 H 195.608 -5.24032 -3.94623 0
M  V30 2241 H 195.525 -6.82552 -3.25051 0
M  V30 2242 H 196.793 -6.44907 -4.37853 0
M  V30 2243 N 201.022 0.148545 -1.56898 0
M  V30 2244 C 201.97 1.20265 -1.99096 0
M  V30 2245 C 202.964 1.44559 -0.883123 0
M  V30 2246 O 204.17 1.4487 -1.0683 0
M  V30 2247 H 200.545 0.404786 -0.63376 0
M  V30 2248 H 202.516 0.82004 -2.86911 0
M  V30 2249 C 201.265 2.52886 -2.3863 0
M  V30 2250 H 200.588 2.35021 -3.23427 0
M  V30 2251 H 202.028 3.25274 -2.7198 0
M  V30 2252 C 200.487 3.13315 -1.23837 0
M  V30 2253 O 201.017 3.98077 -0.538268 0
M  V30 2254 N 199.223 2.72742 -1.00301 0
M  V30 2255 H 198.77 2.03912 -1.5741 0
M  V30 2256 H 198.728 3.13507 -0.236838 0
M  V30 2257 N 202.5 1.5196 0.417844 0
M  V30 2258 C 203.43 1.77634 1.51554 0
M  V30 2259 C 204.411 0.626918 1.58126 0
M  V30 2260 O 205.596 0.871632 1.7354 0
M  V30 2261 C 202.726 1.91911 2.8946 0
M  V30 2262 C 201.68 3.07463 2.97743 0
M  V30 2263 C 201.006 3.06951 4.37819 0
M  V30 2264 C 202.306 4.47082 2.70027 0
M  V30 2265 H 204 2.6955 1.3032 0
M  V30 2266 H 201.546 1.29706 0.625492 0
M  V30 2267 H 203.499 2.08455 3.6623 0
M  V30 2268 H 202.223 0.966598 3.11969 0
M  V30 2269 H 200.882 2.90656 2.23416 0
M  V30 2270 H 200.53 2.09438 4.57323 0
M  V30 2271 H 200.23 3.84556 4.44286 0
M  V30 2272 H 201.754 3.25613 5.16535 0
M  V30 2273 H 203.168 4.6414 3.36522 0
M  V30 2274 H 201.565 5.2654 2.87881 0
M  V30 2275 H 202.635 4.55777 1.65514 0
M  V30 2276 N 203.978 -0.674533 1.42435 0
M  V30 2277 C 204.908 -1.80009 1.48724 0
M  V30 2278 C 205.889 -1.6659 0.343793 0
M  V30 2279 O 207.074 -1.86007 0.558137 0
M  V30 2280 C 204.204 -3.18306 1.38919 0
M  V30 2281 C 203.158 -3.46461 2.51294 0
M  V30 2282 C 202.484 -4.84335 2.26547 0
M  V30 2283 C 203.784 -3.43328 3.93603 0
M  V30 2284 H 205.478 -1.75004 2.42928 0
M  V30 2285 H 203.024 -0.840533 1.16923 0
M  V30 2286 H 204.977 -3.9678 1.41927 0
M  V30 2287 H 203.701 -3.2399 0.412094 0
M  V30 2288 H 202.36 -2.70348 2.47604 0
M  V30 2289 H 202.008 -4.86669 1.2713 0
M  V30 2290 H 201.708 -5.04136 3.01861 0
M  V30 2291 H 203.232 -5.65094 2.31304 0
M  V30 2292 H 204.646 -4.11772 3.98894 0
M  V30 2293 H 203.043 -3.74664 4.68771 0
M  V30 2294 H 204.113 -2.41897 4.20255 0
M  V30 2295 N 205.456 -1.28612 -0.910864 0
M  V30 2296 C 206.704 -1.15705 -1.65701 0
M  V30 2297 C 207.025 0.29416 -1.92769 0
M  V30 2298 O 206.295 1.20331 -1.54588 0
M  V30 2299 H 204.875 -0.425216 -0.614167 0
M  V30 2300 H 207.537 -1.61381 -1.0928 0
M  V30 2301 H 206.633 -1.6988 -2.61815 0
M  V30 2302 N 206.934 1.1197 -1.10907 0
M  V30 2303 C 207.897 2.16031 -0.765707 0
M  V30 2304 C 208.897 1.59393 0.212235 0
M  V30 2305 O 210.087 1.74196 -0.0115441 0
M  V30 2306 C 207.219 3.40632 -0.135053 0
M  V30 2307 H 208.412 2.47919 -1.68748 0
M  V30 2308 H 205.965 1.27061 -0.910226 0
M  V30 2309 H 206.7 3.14348 0.797218 0
M  V30 2310 H 206.485 3.8302 -0.838937 0
M  V30 2311 H 207.975 4.17505 0.0892469 0
M  V30 2312 N 208.412 0.89855 1.29475 0
M  V30 2313 C 209.359 0.373819 2.27753 0
M  V30 2314 C 210.329 -0.543444 1.56958 0
M  V30 2315 O 211.514 -0.468934 1.84948 0
M  V30 2316 C 208.654 -0.393648 3.42848 0
M  V30 2317 C 207.767 0.554379 4.28428 0
M  V30 2318 C 206.902 -0.230026 5.30702 0
M  V30 2319 C 205.941 0.712599 6.07938 0
M  V30 2320 N 205.078 -0.0373283 7.0209 0
M  V30 2321 H 209.918 1.21699 2.72017 0
M  V30 2322 H 207.455 0.611456 1.33789 0
M  V30 2323 H 209.413 -0.85466 4.08352 0
M  V30 2324 H 208.043 -1.20128 2.99615 0
M  V30 2325 H 207.095 1.13391 3.63107 0
M  V30 2326 H 208.407 1.27597 4.82204 0
M  V30 2327 H 207.561 -0.752288 6.02018 0
M  V30 2328 H 206.3 -0.984758 4.77654 0
M  V30 2329 H 205.305 1.24637 5.35486 0
M  V30 2330 H 206.53 1.46664 6.63074 0
M  V30 2331 H 204.476 -0.774348 6.51414 0
M  V30 2332 H 204.393 0.624374 7.53417 0
M  V30 2333 H 205.661 -0.539891 7.77628 0
M  V30 2334 N 209.89 -1.43072 0.660911 0
M  V30 2335 C 211.139 -2.00942 0.174735 0
M  V30 2336 C 211.452 -1.52797 -1.22117 0
M  V30 2337 O 212.658 -2.02991 -1.80297 0
M  V30 2338 C 211.114 -3.58948 0.261559 0
M  V30 2339 C 210.722 -4.16085 1.66064 0
M  V30 2340 C 212.466 -4.24173 -0.166617 0
M  V30 2341 C 210.373 -5.6641 1.70098 0
M  V30 2342 H 209.303 -0.751483 0.0615631 0
M  V30 2343 H 211.954 -1.63955 0.824069 0
M  V30 2344 H 210.336 -3.93372 -0.455421 0
M  V30 2345 H 211.51 -3.93147 2.40359 0
M  V30 2346 H 209.825 -3.6326 2.03546 0
M  V30 2347 H 212.422 -5.34471 -0.156433 0
M  V30 2348 H 212.765 -3.98647 -1.19943 0
M  V30 2349 H 213.298 -3.94659 0.498875 0
M  V30 2350 H 210.037 -5.96715 2.71315 0
M  V30 2351 H 209.557 -5.91382 1.00139 0
M  V30 2352 H 211.236 -6.30585 1.44816 0
M  V30 2353 N 211.368 -0.403325 -1.52352 0
M  V30 2354 C 212.298 0.416205 -2.29761 0
M  V30 2355 C 213.279 1.05123 -1.33728 0
M  V30 2356 O 214.464 1.06134 -1.62632 0
M  V30 2357 C 211.594 1.53624 -3.11475 0
M  V30 2358 C 210.548 1.02653 -4.15507 0
M  V30 2359 C 209.874 2.23971 -4.85532 0
M  V30 2360 C 211.174 0.08463 -5.22231 0
M  V30 2361 H 212.868 -0.229701 -2.98518 0
M  V30 2362 H 210.414 -0.111913 -1.43564 0
M  V30 2363 H 212.367 2.1165 -3.64393 0
M  V30 2364 H 211.091 2.20994 -2.40477 0
M  V30 2365 H 209.75 0.46871 -3.63591 0
M  V30 2366 H 209.398 2.89883 -4.11068 0
M  V30 2367 H 209.098 1.90521 -5.55856 0
M  V30 2368 H 210.622 2.82614 -5.41259 0
M  V30 2369 H 212.036 0.573509 -5.70424 0
M  V30 2370 H 210.433 -0.160783 -5.99885 0
M  V30 2371 H 211.503 -0.86237 -4.7717 0
M  V30 2372 N 212.846 1.57033 -0.133567 0
M  V30 2373 C 214.071 2.00475 0.531477 0
M  V30 2374 C 214.496 1.01291 1.58499 0
M  V30 2375 O 213.854 -0.0133279 1.81295 0
M  V30 2376 C 213.902 3.42729 1.12113 0
M  V30 2377 O 213.006 3.46498 2.23636 0
M  V30 2378 H 212.347 0.650876 0.131362 0
M  V30 2379 H 214.877 2.03344 -0.22634 0
M  V30 2380 H 214.887 3.81246 1.4531 0
M  V30 2381 H 213.562 4.14428 0.349557 0
M  V30 2382 H 212.139 3.19811 1.91769 0
M  V30 2383 N 214.325 -0.140222 1.56975 0
M  V30 2384 C 215.571 -0.852949 1.83991 0
M  V30 2385 C 215.904 -1.80512 0.716187 0
M  V30 2386 O 215.179 -1.92479 -0.279681 0
M  V30 2387 C 215.462 -1.6215 3.21527 0
M  V30 2388 C 215.315 -0.690363 4.4447 0
M  V30 2389 C 216.634 -2.58247 3.56366 0
M  V30 2390 H 213.753 -0.308634 0.669264 0
M  V30 2391 H 216.395 -0.117898 1.89634 0
M  V30 2392 H 214.545 -2.24812 3.16847 0
M  V30 2393 H 216.217 -0.0742264 4.6124 0
M  V30 2394 H 214.46 -0.000396433 4.338 0
M  V30 2395 H 215.131 -1.2643 5.37326 0
M  V30 2396 H 217.607 -2.05701 3.61699 0
M  V30 2397 H 216.483 -3.09067 4.53617 0
M  V30 2398 H 216.744 -3.39923 2.82674 0
M  V30 2399 N 215.803 -1.52179 -0.40978 0
M  V30 2400 C 217.049 -1.66453 -1.15851 0
M  V30 2401 C 217.382 -0.392972 -1.90182 0
M  V30 2402 O 216.657 0.608579 -1.84734 0
M  V30 2403 C 216.94 -2.88612 -2.15349 0
M  V30 2404 C 216.793 -4.25815 -1.44918 0
M  V30 2405 C 218.112 -3.06294 -3.16026 0
M  V30 2406 H 215.231 -0.60575 -0.419805 0
M  V30 2407 H 217.873 -1.84732 -0.444314 0
M  V30 2408 H 216.023 -2.73158 -2.76255 0
M  V30 2409 H 217.695 -4.52995 -0.871365 0
M  V30 2410 H 215.938 -4.27247 -0.751159 0
M  V30 2411 H 216.609 -5.07337 -2.17516 0
M  V30 2412 H 219.085 -3.20641 -2.65195 0
M  V30 2413 H 217.961 -3.93283 -3.8291 0
M  V30 2414 H 218.222 -2.19579 -3.83715 0
M  V30 2415 N 217.281 0.66697 -1.42791 0
M  V30 2416 C 218.53 1.42278 -1.42968 0
M  V30 2417 C 218.843 1.9553 -0.0524489 0
M  V30 2418 O 220.049 2.71414 0.068363 0
M  V30 2419 C 218.505 2.57418 -2.51524 0
M  V30 2420 C 218.113 2.10832 -3.9529 0
M  V30 2421 C 219.857 3.34878 -2.60877 0
M  V30 2422 C 217.764 3.23101 -4.95338 0
M  V30 2423 H 216.694 0.534533 -0.531781 0
M  V30 2424 H 219.345 0.721302 -1.68729 0
M  V30 2425 H 217.727 3.29971 -2.18941 0
M  V30 2426 H 218.901 1.4538 -4.37266 0
M  V30 2427 H 217.216 1.46289 -3.89857 0
M  V30 2428 H 219.813 4.18505 -3.32802 0
M  V30 2429 H 220.156 3.81993 -1.6549 0
M  V30 2430 H 220.689 2.69398 -2.92693 0
M  V30 2431 H 217.428 2.80969 -5.9223 0
M  V30 2432 H 216.948 3.87309 -4.57987 0
M  V30 2433 H 218.627 3.88447 -5.17415 0
M  V30 2434 N 218.759 1.29093 0.90403 0
M  V30 2435 C 220.005 1.17996 1.65676 0
M  V30 2436 C 220.36 -0.266816 1.90541 0
M  V30 2437 O 219.653 -1.19 1.50165 0
M  V30 2438 C 219.847 1.92224 3.01305 0
M  V30 2439 C 219.676 3.43972 2.89678 0
M  V30 2440 C 218.446 4.1332 2.90679 0
M  V30 2441 C 220.644 4.39546 2.67028 0
M  V30 2442 N 218.626 5.51463 2.69743 0
M  V30 2443 C 219.997 5.65119 2.5503 0
M  V30 2444 C 222.052 4.29359 2.52101 0
M  V30 2445 C 220.755 6.81663 2.29626 0
M  V30 2446 C 222.781 5.4565 2.28079 0
M  V30 2447 C 222.143 6.70193 2.16843 0
M  V30 2448 H 218.242 0.486759 0.612037 0
M  V30 2449 H 220.826 1.62868 1.06688 0
M  V30 2450 H 218.997 1.49773 3.58361 0
M  V30 2451 H 220.729 1.73429 3.65656 0
M  V30 2452 H 217.484 3.64984 3.01801 0
M  V30 2453 H 217.908 6.24105 2.6234 0
M  V30 2454 H 222.55 3.33769 2.59534 0
M  V30 2455 H 220.268 7.77313 2.20932 0
M  V30 2456 H 223.854 5.39664 2.1738 0
M  V30 2457 H 222.734 7.58659 1.98511 0
M  V30 2458 N 220.237 -1.11381 1.11499 0
M  V30 2459 C 221.2 -2.15622 0.777153 0
M  V30 2460 C 222.2 -1.59504 -0.203779 0
M  V30 2461 O 223.39 -1.74188 0.020782 0
M  V30 2462 C 220.522 -3.40556 0.153116 0
M  V30 2463 H 221.715 -2.47021 1.70061 0
M  V30 2464 H 219.268 -1.26577 0.916952 0
M  V30 2465 H 220.003 -3.14767 -0.780536 0
M  V30 2466 H 219.788 -3.8257 0.859238 0
M  V30 2467 H 221.278 -4.17546 -0.0671044 0
M  V30 2468 N 221.715 -0.905404 -1.28997 0
M  V30 2469 C 222.962 -0.534248 -1.95325 0
M  V30 2470 C 223.29 0.920535 -1.71337 0
M  V30 2471 O 222.545 1.66861 -1.02254 0
M  V30 2472 C 222.844 -0.779906 -3.48787 0
M  V30 2473 C 222.51 -2.21293 -3.92861 0
M  V30 2474 C 221.172 -2.60475 -4.04606 0
M  V30 2475 C 223.524 -3.14587 -4.15553 0
M  V30 2476 C 220.852 -3.9212 -4.36416 0
M  V30 2477 C 223.204 -4.45787 -4.48839 0
M  V30 2478 C 221.868 -4.84834 -4.58794 0
M  V30 2479 H 221.138 -0.195495 -0.714747 0
M  V30 2480 H 223.785 -1.14514 -1.53488 0
M  V30 2481 H 222.09 -0.0861365 -3.91705 0
M  V30 2482 H 223.787 -0.472029 -3.98212 0
M  V30 2483 H 220.377 -1.89887 -3.84241 0
M  V30 2484 H 224.561 -2.85528 -4.0594 0
M  V30 2485 H 219.817 -4.22086 -4.42327 0
M  V30 2486 H 223.991 -5.18098 -4.65346 0
M  V30 2487 H 221.618 -5.86877 -4.83197 0
M  V30 2488 N 223.193 1.4272 -0.668489 0
M  V30 2489 C 224.126 2.28111 0.0637898 0
M  V30 2490 C 225.104 1.40705 0.814912 0
M  V30 2491 O 226.288 1.70146 0.81134 0
M  V30 2492 C 223.415 3.20429 1.0974 0
M  V30 2493 C 222.461 4.24197 0.442579 0
M  V30 2494 S 223.294 5.29563 -0.795173 0
M  V30 2495 C 224.45 6.25449 0.237516 0
M  V30 2496 H 224.683 2.8987 -0.660521 0
M  V30 2497 H 222.216 1.47456 -0.457821 0
M  V30 2498 H 224.174 3.74158 1.68868 0
M  V30 2499 H 222.835 2.57818 1.79411 0
M  V30 2500 H 222.028 4.88954 1.22227 0
M  V30 2501 H 221.63 3.73925 -0.0749554 0
M  V30 2502 H 223.922 6.68524 1.09915 0
M  V30 2503 H 224.865 7.07104 -0.375421 0
M  V30 2504 H 225.273 5.61511 0.580167 0
M  V30 2505 N 224.671 0.411399 1.52136 0
M  V30 2506 C 225.918 -0.163645 2.01838 0
M  V30 2507 C 226.246 -1.4495 1.29691 0
M  V30 2508 O 225.501 -1.91725 0.392431 0
M  V30 2509 C 225.8 -0.455872 3.54481 0
M  V30 2510 C 225.466 0.741055 4.44769 0
M  V30 2511 C 224.128 1.06936 4.69167 0
M  V30 2512 C 226.48 1.54075 4.97906 0
M  V30 2513 C 223.808 2.19851 5.43951 0
M  V30 2514 C 226.16 2.66067 5.73926 0
M  V30 2515 C 224.824 2.99381 5.96596 0
M  V30 2516 H 224.094 -0.0598821 0.738576 0
M  V30 2517 H 226.741 0.553283 1.83333 0
M  V30 2518 H 225.046 -1.2544 3.71177 0
M  V30 2519 H 226.743 -0.913802 3.90449 0
M  V30 2520 H 223.333 0.475192 4.25958 0
M  V30 2521 H 227.517 1.30033 4.78963 0
M  V30 2522 H 222.773 2.46006 5.59724 0
M  V30 2523 H 226.947 3.28419 6.14096 0
M  V30 2524 H 224.574 3.86992 6.54325 0
M  V30 2525 N 226.149 -1.5696 0.141893 0
M  V30 2526 C 227.079 -2.19516 -0.795936 0
M  V30 2527 C 228.06 -1.14187 -1.26077 0
M  V30 2528 O 229.245 -1.42511 -1.31925 0
M  V30 2529 C 226.375 -2.81272 -2.03723 0
M  V30 2530 C 225.329 -3.92384 -1.70936 0
M  V30 2531 C 224.655 -4.41052 -3.02287 0
M  V30 2532 C 225.955 -5.13403 -0.959954 0
M  V30 2533 H 227.649 -2.98138 -0.274596 0
M  V30 2534 H 225.195 -1.43406 -0.130636 0
M  V30 2535 H 227.148 -3.237 -2.69808 0
M  V30 2536 H 225.872 -1.99973 -2.58221 0
M  V30 2537 H 224.531 -3.50566 -1.07232 0
M  V30 2538 H 224.179 -3.56582 -3.54765 0
M  V30 2539 H 223.879 -5.15993 -2.81114 0
M  V30 2540 H 225.403 -4.86146 -3.69451 0
M  V30 2541 H 226.817 -5.52706 -1.52279 0
M  V30 2542 H 225.214 -5.94073 -0.848357 0
M  V30 2543 H 226.284 -4.84875 0.0492434 0
M  V30 2544 N 227.627 0.131896 -1.57047 0
M  V30 2545 C 228.557 1.16384 -2.02428 0
M  V30 2546 C 229.538 1.43936 -0.90644 0
M  V30 2547 O 230.723 1.54599 -1.17528 0
M  V30 2548 C 227.853 2.49328 -2.4177 0
M  V30 2549 C 226.807 2.36266 -3.56879 0
M  V30 2550 C 226.133 3.74057 -3.8208 0
M  V30 2551 C 227.433 1.834 -4.89042 0
M  V30 2552 H 229.127 0.786433 -2.88887 0
M  V30 2553 H 226.673 0.376855 -1.38981 0
M  V30 2554 H 228.626 3.21759 -2.7212 0
M  V30 2555 H 227.35 2.88934 -1.52266 0
M  V30 2556 H 226.009 1.66286 -3.26718 0
M  V30 2557 H 225.657 4.11125 -2.89803 0
M  V30 2558 H 225.357 3.66174 -4.59554 0
M  V30 2559 H 226.881 4.48012 -4.1487 0
M  V30 2560 H 228.295 2.45636 -5.18011 0
M  V30 2561 H 226.692 1.8637 -5.70426 0
M  V30 2562 H 227.762 0.790662 -4.7841 0
M  V30 2563 N 229.106 1.52395 0.401703 0
M  V30 2564 C 230.331 1.70972 1.17403 0
M  V30 2565 C 230.756 0.421615 1.83314 0
M  V30 2566 O 230.114 -0.621564 1.70312 0
M  V30 2567 C 230.162 2.85151 2.20728 0
M  V30 2568 O 229.266 2.51238 3.27037 0
M  V30 2569 H 228.607 0.568927 0.342372 0
M  V30 2570 H 231.137 1.99131 0.469891 0
M  V30 2571 H 231.147 3.10279 2.64936 0
M  V30 2572 H 229.822 3.78603 1.7214 0
M  V30 2573 H 228.399 2.36808 2.88057 0
M  V30 2574 N 230.584 -0.659388 1.43143 0
M  V30 2575 C 231.514 -1.78422 1.50625 0
M  V30 2576 C 232.495 -1.66216 0.361443 0
M  V30 2577 O 233.68 -1.85404 0.577834 0
M  V30 2578 C 230.81 -3.16815 1.42287 0
M  V30 2579 C 229.764 -3.43777 2.54954 0
M  V30 2580 C 229.09 -4.81905 2.31671 0
M  V30 2581 C 230.39 -3.39134 3.97222 0
M  V30 2582 H 232.084 -1.72417 2.44771 0
M  V30 2583 H 229.63 -0.828084 1.17808 0
M  V30 2584 H 231.583 -3.95253 1.46127 0
M  V30 2585 H 230.307 -3.23534 0.446435 0
M  V30 2586 H 228.966 -2.67707 2.50457 0
M  V30 2587 H 228.614 -4.85294 1.32284 0
M  V30 2588 H 228.314 -5.00906 3.07192 0
M  V30 2589 H 229.838 -5.62609 2.37284 0
M  V30 2590 H 231.252 -4.07518 4.03239 0
M  V30 2591 H 229.649 -3.69671 4.72719 0
M  V30 2592 H 230.719 -2.37426 4.22797 0
M  V30 2593 N 232.062 -1.29571 -0.897171 0
M  V30 2594 C 233.473 -1.15964 -1.46319 0
M  V30 2595 C 233.824 0.244267 -1.94674 0
M  V30 2596 O 232.949 1.13998 -1.83939 0
M  V30 2597 C 233.544 -2.09906 -2.65942 0
M  V30 2598 C 232.103 -2.00314 -3.18671 0
M  V30 2599 C 231.25 -2.00687 -1.91363 0
M  V30 2600 H 234.201 -1.42019 -0.708268 0
M  V30 2601 H 234.222 -1.67276 -3.41759 0
M  V30 2602 H 233.734 -3.12075 -2.30718 0
M  V30 2603 H 231.835 -1.01242 -3.58582 0
M  V30 2604 H 231.948 -2.88102 -3.82798 0
M  V30 2605 H 230.312 -1.45319 -2.09175 0
M  V30 2606 H 231.095 -3.04566 -1.58413 0
M  V30 2607 N 233.54 1.10788 -1.12088 0
M  V30 2608 C 234.488 2.19111 -0.780587 0
M  V30 2609 C 235.482 1.67818 0.230961 0
M  V30 2610 O 236.688 1.79777 0.0895427 0
M  V30 2611 H 233.063 0.714477 -0.234578 0
M  V30 2612 H 235.034 2.45055 -1.70266 0
M  V30 2613 C 233.783 3.46818 -0.24747 0
M  V30 2614 H 233.106 3.86646 -1.01712 0
M  V30 2615 H 234.546 4.23973 -0.0476291 0
M  V30 2616 C 233.005 3.20968 1.02378 0
M  V30 2617 O 233.535 3.42298 2.10226 0
M  V30 2618 N 231.741 2.74658 0.949271 0
M  V30 2619 H 231.288 2.57501 0.0715173 0
M  V30 2620 H 231.246 2.57739 1.80049 0
M  V30 2621 N 235.018 0.912232 1.28515 0
M  V30 2622 C 235.951 0.343928 2.25593 0
M  V30 2623 C 236.929 -0.550994 1.5298 0
M  V30 2624 O 238.113 -0.494991 1.81885 0
M  V30 2625 C 235.24 -0.508525 3.34861 0
M  V30 2626 C 234.286 0.320808 4.25292 0
M  V30 2627 S 235.119 1.72658 5.06902 0
M  V30 2628 C 236.275 0.881394 6.19663 0
M  V30 2629 H 236.508 1.16674 2.73449 0
M  V30 2630 H 234.041 0.713384 1.36931 0
M  V30 2631 H 235.999 -0.994539 3.9827 0
M  V30 2632 H 234.66 -1.30571 2.85675 0
M  V30 2633 H 233.853 -0.330941 5.02912 0
M  V30 2634 H 233.455 0.74042 3.66598 0
M  V30 2635 H 235.747 0.110359 6.7741 0
M  V30 2636 H 236.69 1.63009 6.89082 0
M  V30 2637 H 237.098 0.430239 5.62858 0
M  V30 2638 N 236.496 -1.42363 0.676048 0
M  V30 2639 C 237.745 -2.00745 0.196037 0
M  V30 2640 C 238.058 -1.54083 -1.20489 0
M  V30 2641 O 239.264 -2.04891 -1.78134 0
M  V30 2642 C 237.72 -3.58651 0.299616 0
M  V30 2643 C 237.328 -4.143 1.70468 0
M  V30 2644 C 239.072 -4.24326 -0.121619 0
M  V30 2645 C 236.979 -5.64574 1.76096 0
M  V30 2646 H 235.909 -0.750787 0.0695301 0
M  V30 2647 H 238.56 -1.63072 0.841412 0
M  V30 2648 H 236.942 -3.93833 -0.413673 0
M  V30 2649 H 238.116 -3.90575 2.44515 0
M  V30 2650 H 236.431 -3.61081 2.07387 0
M  V30 2651 H 239.028 -5.34607 -0.0997362 0
M  V30 2652 H 239.371 -3.99897 -1.15708 0
M  V30 2653 H 239.904 -3.94108 0.540706 0
M  V30 2654 H 236.643 -5.93804 2.77628 0
M  V30 2655 H 236.163 -5.90286 1.06406 0
M  V30 2656 H 237.842 -6.29013 1.51496 0
M  V30 2657 N 237.974 -0.419461 -1.51915 0
M  V30 2658 C 238.904 0.391813 -2.30189 0
M  V30 2659 C 239.885 1.03699 -1.34836 0
M  V30 2660 O 241.07 1.04403 -1.63748 0
M  V30 2661 C 238.2 1.50312 -3.13087 0
M  V30 2662 C 237.154 0.9824 -4.16573 0
M  V30 2663 C 236.48 2.18809 -4.8788 0
M  V30 2664 C 237.78 0.0292356 -5.22292 0
M  V30 2665 H 239.474 -0.26135 -2.98257 0
M  V30 2666 H 237.02 -0.127134 -1.43438 0
M  V30 2667 H 238.973 2.07773 -3.66617 0
M  V30 2668 H 237.697 2.18431 -2.42807 0
M  V30 2669 H 236.356 0.430119 -3.64068 0
M  V30 2670 H 236.004 2.85507 -4.14119 0
M  V30 2671 H 235.704 1.84615 -5.57845 0
M  V30 2672 H 237.228 2.76858 -5.44226 0
M  V30 2673 H 238.642 0.512976 -5.71 0
M  V30 2674 H 237.039 -0.2244 -5.9968 0
M  V30 2675 H 238.109 -0.912931 -4.76228 0
M  V30 2676 N 239.452 1.56882 -0.150215 0
M  V30 2677 C 240.68 2.00593 0.506948 0
M  V30 2678 C 241.095 1.03033 1.58208 0
M  V30 2679 O 240.452 0.0278396 1.82479 0
M  V30 2680 C 240.503 3.44209 1.10465 0
M  V30 2681 O 240.224 4.3804 0.0724636 0
M  V30 2682 C 241.725 4.03214 1.84211 0
M  V30 2683 H 238.945 0.65795 0.13169 0
M  V30 2684 H 241.489 2.03018 -0.245743 0
M  V30 2685 H 239.644 3.42625 1.80795 0
M  V30 2686 H 240.058 5.22007 0.510793 0
M  V30 2687 H 241.532 5.0569 2.21318 0
M  V30 2688 H 242.009 3.44107 2.72923 0
M  V30 2689 H 242.615 4.08437 1.18572 0
M  V30 2690 N 240.93 -0.123565 1.57115 0
M  V30 2691 C 241.878 -1.17082 2.00984 0
M  V30 2692 C 242.872 -1.43136 0.906009 0
M  V30 2693 O 244.078 -1.43152 1.09121 0
M  V30 2694 H 240.453 -0.394653 0.64012 0
M  V30 2695 H 242.424 -0.774292 2.88179 0
M  V30 2696 C 241.173 -2.49057 2.42623 0
M  V30 2697 H 240.496 -2.29846 3.27125 0
M  V30 2698 H 241.936 -3.20906 2.7712 0
M  V30 2699 C 240.395 -3.11305 1.28805 0
M  V30 2700 O 240.925 -3.97171 0.60153 0
M  V30 2701 N 239.131 -2.71111 1.04628 0
M  V30 2702 H 238.678 -2.01382 1.60634 0
M  V30 2703 H 238.636 -3.1309 0.286685 0
M  V30 2704 N 242.408 -1.52605 -0.393616 0
M  V30 2705 C 243.824 -1.41753 -0.733357 0
M  V30 2706 C 244.024 -0.534293 -1.94287 0
M  V30 2707 O 243.08 -0.0059787 -2.52499 0
M  V30 2708 C 244.393 -2.84531 -0.972772 0
M  V30 2709 C 245.941 -2.93978 -1.07453 0
M  V30 2710 C 246.416 -4.37756 -1.3466 0
M  V30 2711 N 247.907 -4.4106 -1.41492 0
M  V30 2712 C 248.642 -5.49387 -1.642 0
M  V30 2713 N 248.138 -6.67806 -1.8441 0
M  V30 2714 N 249.931 -5.36923 -1.66342 0
M  V30 2715 H 242.082 -2.08555 0.402328 0
M  V30 2716 H 244.345 -0.940654 0.117789 0
M  V30 2717 H 244.051 -3.51353 -0.156204 0
M  V30 2718 H 243.925 -3.26508 -1.88871 0
M  V30 2719 H 246.312 -2.27326 -1.88167 0
M  V30 2720 H 246.393 -2.55435 -0.136605 0
M  V30 2721 H 246.037 -5.04972 -0.544581 0
M  V30 2722 H 245.967 -4.73848 -2.2973 0
M  V30 2723 H 248.458 -3.55705 -1.27601 0
M  V30 2724 H 248.771 -7.46141 -2.01231 0
M  V30 2725 H 247.116 -6.70843 -1.81644 0
M  V30 2726 H 250.307 -4.43381 -1.50102 0
M  V30 2727 H 250.48 -6.21416 -1.837 0
M  V30 2728 N 243.887 0.651787 -1.4349 0
M  V30 2729 C 244.819 1.77725 -1.44729 0
M  V30 2730 C 245.832 1.59141 -0.343231 0
M  V30 2731 O 247.021 1.67835 -0.607751 0
M  V30 2732 C 244.121 3.15172 -1.24579 0
M  V30 2733 C 243.294 3.60402 -2.47849 0
M  V30 2734 C 242.353 4.76656 -2.22902 0
M  V30 2735 O 241.379 4.86022 -2.96263 0
M  V30 2736 N 242.581 5.66958 -1.24656 0
M  V30 2737 H 245.346 1.77141 -2.41746 0
M  V30 2738 H 242.907 0.835678 -1.38665 0
M  V30 2739 H 244.899 3.90634 -1.0577 0
M  V30 2740 H 243.469 3.1052 -0.360015 0
M  V30 2741 H 242.689 2.75369 -2.82073 0
M  V30 2742 H 243.977 3.87368 -3.29884 0
M  V30 2743 H 243.375 5.62065 -0.640265 0
M  V30 2744 H 241.932 6.42135 -1.1183 0
M  V30 2745 N 245.365 1.30045 0.890287 0
M  V30 2746 C 246.776 1.16738 1.45702 0
M  V30 2747 C 247.127 -0.233939 1.948 0
M  V30 2748 O 246.252 -1.13021 1.84541 0
M  V30 2749 C 246.847 2.11313 2.64825 0
M  V30 2750 C 245.406 2.02001 3.17604 0
M  V30 2751 C 244.553 2.01699 1.90296 0
M  V30 2752 H 247.504 1.42392 0.700726 0
M  V30 2753 H 247.525 1.69086 3.40867 0
M  V30 2754 H 247.037 3.13294 2.2906 0
M  V30 2755 H 245.138 1.03142 3.5804 0
M  V30 2756 H 245.251 2.90128 3.81264 0
M  V30 2757 H 243.615 1.46427 2.08402 0
M  V30 2758 H 244.398 3.05402 1.56795 0
M  V30 2759 N 246.843 -1.10192 1.12674 0
M  V30 2760 C 248.259 -1.34235 0.863317 0
M  V30 2761 C 248.459 -1.95062 -0.505277 0
M  V30 2762 O 247.515 -2.19192 -1.25345 0
M  V30 2763 C 248.828 -2.2616 1.98172 0
M  V30 2764 C 250.376 -2.3969 2.0129 0
M  V30 2765 C 250.851 -3.34946 3.1237 0
M  V30 2766 N 252.342 -3.42515 3.11829 0
M  V30 2767 C 253.077 -4.16199 3.94419 0
M  V30 2768 N 252.573 -4.92747 4.87004 0
M  V30 2769 N 254.366 -4.11843 3.82547 0
M  V30 2770 H 246.517 -0.690798 2.00853 0
M  V30 2771 H 248.78 -0.366774 0.874174 0
M  V30 2772 H 248.486 -1.8868 2.96804 0
M  V30 2773 H 248.36 -3.26488 1.88906 0
M  V30 2774 H 250.747 -2.76438 1.03276 0
M  V30 2775 H 250.828 -1.39169 2.14629 0
M  V30 2776 H 250.472 -2.98923 4.10619 0
M  V30 2777 H 250.402 -4.35353 2.96269 0
M  V30 2778 H 252.893 -2.87926 2.44759 0
M  V30 2779 H 253.206 -5.46376 5.46528 0
M  V30 2780 H 251.551 -4.91862 4.91016 0
M  V30 2781 H 254.742 -3.51136 3.0955 0
M  V30 2782 H 254.915 -4.69007 4.47142 0
M  V30 2783 N 248.321 -0.919034 -1.28029 0
M  V30 2784 C 249.598 -0.473668 -1.89778 0
M  V30 2785 C 249.978 1.04783 -1.83259 0
M  V30 2786 O 249.326 1.8982 -1.27202 0
M  V30 2787 C 249.536 -1.00998 -3.34066 0
M  V30 2788 C 250.884 -1.06525 -4.1102 0
M  V30 2789 O 251.908 -0.958996 -3.43048 0
M  V30 2790 O 250.767 -1.22776 -5.3253 0
M  V30 2791 H 247.861 -0.15098 -0.813101 0
M  V30 2792 H 250.407 -1.01016 -1.36359 0
M  V30 2793 H 249.179 -2.05392 -3.33061 0
M  V30 2794 H 248.802 -0.454626 -3.94992 0
M  V30 2795 N 249.799 1.42003 -0.683588 0
M  V30 2796 C 250.746 2.30798 -0.0107309 0
M  V30 2797 C 251.716 1.4645 0.783688 0
M  V30 2798 O 252.901 1.75263 0.754156 0
M  V30 2799 C 250.041 3.3238 0.928306 0
M  V30 2800 C 249.154 4.31814 0.126776 0
M  V30 2801 C 248.289 5.20468 1.06236 0
M  V30 2802 C 247.328 6.11577 0.253035 0
M  V30 2803 N 246.465 6.92754 1.14179 0
M  V30 2804 H 251.305 2.8778 -0.773727 0
M  V30 2805 H 248.842 1.41745 -0.393283 0
M  V30 2806 H 250.8 3.89813 1.48666 0
M  V30 2807 H 249.43 2.76976 1.65783 0
M  V30 2808 H 248.482 3.76427 -0.54833 0
M  V30 2809 H 249.794 4.96276 -0.501192 0
M  V30 2810 H 248.948 5.82677 1.69035 0
M  V30 2811 H 247.687 4.56204 1.7242 0
M  V30 2812 H 246.692 5.48428 -0.388108 0
M  V30 2813 H 247.917 6.77892 -0.404839 0
M  V30 2814 H 245.863 6.3111 1.78987 0
M  V30 2815 H 245.78 7.53855 0.569111 0
M  V30 2816 H 247.048 7.59441 1.75697 0
M  V30 2817 N 251.277 0.427512 1.51691 0
M  V30 2818 C 252.225 -0.403359 2.29076 0
M  V30 2819 C 253.219 -1.02962 1.34518 0
M  V30 2820 O 254.425 -0.965715 1.51901 0
M  V30 2821 H 250.8 -0.148879 0.737115 0
M  V30 2822 H 252.771 0.270295 2.97173 0
M  V30 2823 C 251.52 -1.49763 3.13794 0
M  V30 2824 H 250.843 -1.02508 3.86435 0
M  V30 2825 H 252.283 -2.05244 3.71014 0
M  V30 2826 C 250.742 -2.47536 2.28533 0
M  V30 2827 O 251.272 -3.51848 1.93819 0
M  V30 2828 N 249.478 -2.18187 1.91945 0
M  V30 2829 H 249.025 -1.33389 2.20375 0
M  V30 2830 H 248.983 -2.83848 1.35195 0
M  V30 2831 N 252.755 -1.56801 0.158532 0
M  V30 2832 C 254.001 -1.96781 -0.490405 0
M  V30 2833 C 254.334 -1.04397 -1.63753 0
M  V30 2834 O 253.609 -0.0885805 -1.94298 0
M  V30 2835 C 253.892 -3.4635 -0.985594 0
M  V30 2836 C 253.745 -4.49512 0.160824 0
M  V30 2837 C 255.064 -3.98697 -1.86355 0
M  V30 2838 H 252.183 -0.715482 -0.176788 0
M  V30 2839 H 254.825 -1.88451 0.242088 0
M  V30 2840 H 252.975 -3.53579 -1.60978 0
M  V30 2841 H 254.647 -4.54353 0.797537 0
M  V30 2842 H 252.89 -4.26013 0.818256 0
M  V30 2843 H 253.561 -5.51531 -0.227569 0
M  V30 2844 H 256.037 -3.94019 -1.33746 0
M  V30 2845 H 254.913 -5.03792 -2.17909 0
M  V30 2846 H 255.174 -3.41744 -2.8047 0
M  V30 2847 N 254.233 0.115231 -1.57178 0
M  V30 2848 C 255.18 1.14115 -2.00615 0
M  V30 2849 C 256.15 1.40939 -0.878941 0
M  V30 2850 O 257.335 1.52741 -1.14345 0
M  V30 2851 C 254.475 2.46156 -2.4187 0
M  V30 2852 C 253.588 2.26236 -3.68024 0
M  V30 2853 C 252.723 3.51534 -3.98243 0
M  V30 2854 C 251.762 3.26787 -5.17568 0
M  V30 2855 N 250.899 4.44298 -5.43639 0
M  V30 2856 H 255.739 0.763743 -2.88047 0
M  V30 2857 H 253.276 0.365615 -1.42484 0
M  V30 2858 H 255.234 3.23189 -2.63827 0
M  V30 2859 H 253.864 2.81783 -1.57475 0
M  V30 2860 H 252.916 1.40102 -3.5366 0
M  V30 2861 H 254.228 2.03929 -4.55208 0
M  V30 2862 H 253.382 4.36984 -4.20868 0
M  V30 2863 H 252.121 3.76876 -3.09541 0
M  V30 2864 H 251.126 2.39729 -4.94783 0
M  V30 2865 H 252.351 3.02812 -6.0785 0
M  V30 2866 H 250.297 4.69754 -4.57895 0
M  V30 2867 H 250.214 4.25109 -6.25154 0
M  V30 2868 H 251.482 5.3087 -5.70786 0
M  V30 2869 N 255.711 1.52812 0.385517 0
M  V30 2870 C 256.658 1.77838 1.47113 0
M  V30 2871 C 257.628 0.621757 1.54024 0
M  V30 2872 O 258.813 0.861846 1.70226 0
M  V30 2873 C 255.953 1.95618 2.84302 0
M  V30 2874 C 255.066 3.23316 2.86515 0
M  V30 2875 C 254.201 3.31394 4.15152 0
M  V30 2876 C 253.24 4.53201 4.1143 0
M  V30 2877 N 252.377 4.58542 5.3168 0
M  V30 2878 H 257.217 2.70482 1.25073 0
M  V30 2879 H 254.754 1.34006 0.606692 0
M  V30 2880 H 256.712 2.03912 3.63972 0
M  V30 2881 H 255.342 1.06331 3.04784 0
M  V30 2882 H 254.394 3.24076 1.99195 0
M  V30 2883 H 255.706 4.13045 2.79634 0
M  V30 2884 H 254.86 3.3889 5.03228 0
M  V30 2885 H 253.599 2.39645 4.24761 0
M  V30 2886 H 252.604 4.45827 3.21742 0
M  V30 2887 H 253.829 5.46271 4.03442 0
M  V30 2888 H 251.775 3.69686 5.41912 0
M  V30 2889 H 251.692 5.42148 5.26889 0
M  V30 2890 H 252.96 4.70296 6.21644 0
M  V30 2891 N 257.189 -0.644168 1.43834 0
M  V30 2892 C 258.429 -1.41565 1.47441 0
M  V30 2893 C 258.793 -1.91743 0.0992723 0
M  V30 2894 O 259.994 -2.68798 0.0100192 0
M  V30 2895 C 258.265 -2.55902 2.49498 0
M  V30 2896 S 259.824 -3.44287 2.72051 0
M  V30 2897 H 256.642 -0.483118 0.521649 0
M  V30 2898 H 259.244 -0.747008 1.80666 0
M  V30 2899 H 257.948 -2.17327 3.48134 0
M  V30 2900 H 257.479 -3.27607 2.17801 0
M  V30 2901 H 259.494 -4.52927 2.0266 0
M  V30 2902 N 258.668 -1.30515 -0.883378 0
M  V30 2903 C 259.893 -1.22487 -1.67367 0
M  V30 2904 C 260.318 0.208767 -1.86938 0
M  V30 2905 O 259.676 1.15015 -1.40148 0
M  V30 2906 C 259.724 -1.96041 -3.02655 0
M  V30 2907 O 258.828 -1.28859 -3.91751 0
M  V30 2908 H 258.169 -0.423573 -0.511353 0
M  V30 2909 H 260.699 -1.72362 -1.10239 0
M  V30 2910 H 260.709 -2.05124 -3.52687 0
M  V30 2911 H 259.384 -3.00307 -2.8773 0
M  V30 2912 H 257.961 -1.28141 -3.50192 0
M  V30 2913 N 260.146 1.09593 -1.13257 0
M  V30 2914 C 261.393 1.81734 -0.893257 0
M  V30 2915 C 261.721 1.8563 0.580656 0
M  V30 2916 O 260.976 1.31906 1.44566 0
M  V30 2917 C 261.275 3.27802 -1.42411 0
M  V30 2918 C 260.941 3.44041 -2.91456 0
M  V30 2919 C 259.603 3.48181 -3.3215 0
M  V30 2920 C 261.955 3.48719 -3.87356 0
M  V30 2921 C 259.283 3.54575 -4.67433 0
M  V30 2922 C 261.635 3.56648 -5.2248 0
M  V30 2923 C 260.299 3.59055 -5.62704 0
M  V30 2924 H 259.569 0.665011 -0.326866 0
M  V30 2925 H 262.216 1.2912 -1.41422 0
M  V30 2926 H 260.521 3.83042 -0.823795 0
M  V30 2927 H 262.218 3.82149 -1.21503 0
M  V30 2928 H 258.808 3.41502 -2.58987 0
M  V30 2929 H 262.992 3.44763 -3.57004 0
M  V30 2930 H 258.248 3.54725 -4.97976 0
M  V30 2931 H 262.422 3.59212 -5.96607 0
M  V30 2932 H 260.049 3.63763 -6.67518 0
M  V30 2933 N 261.624 0.925811 1.2754 0
M  V30 2934 C 262.554 0.440748 2.29303 0
M  V30 2935 C 263.535 -0.497971 1.62648 0
M  V30 2936 O 264.72 -0.403126 1.8997 0
M  V30 2937 C 261.85 -0.309048 3.45922 0
M  V30 2938 C 260.804 0.54166 4.24559 0
M  V30 2939 C 260.13 -0.337191 5.33636 0
M  V30 2940 C 261.43 1.80516 4.90114 0
M  V30 2941 H 263.124 1.29121 2.70126 0
M  V30 2942 H 260.67 0.622323 1.29858 0
M  V30 2943 H 262.623 -0.659315 4.1621 0
M  V30 2944 H 261.347 -1.19352 3.04011 0
M  V30 2945 H 260.006 0.874609 3.56014 0
M  V30 2946 H 259.654 -1.22056 4.87966 0
M  V30 2947 H 259.354 0.228497 5.87156 0
M  V30 2948 H 260.878 -0.683072 6.06767 0
M  V30 2949 H 262.292 1.52307 5.52698 0
M  V30 2950 H 260.689 2.3142 5.53683 0
M  V30 2951 H 261.759 2.52581 4.13921 0
M  V30 2952 N 263.102 -1.41638 0.69111 0
M  V30 2953 C 264.049 -2.30789 0.0229705 0
M  V30 2954 C 265.019 -1.46863 -0.775911 0
M  V30 2955 O 266.204 -1.75661 -0.74485 0
M  V30 2956 C 263.344 -3.32868 -0.910666 0
M  V30 2957 C 262.457 -4.31875 -0.103874 0
M  V30 2958 C 261.592 -5.21024 -1.03475 0
M  V30 2959 C 260.631 -6.11702 -0.220598 0
M  V30 2960 N 259.768 -6.93349 -1.10504 0
M  V30 2961 H 264.608 -2.87366 0.788978 0
M  V30 2962 H 262.145 -1.41535 0.400794 0
M  V30 2963 H 264.103 -3.90596 -1.46597 0
M  V30 2964 H 262.733 -2.77851 -1.64312 0
M  V30 2965 H 261.785 -3.76131 0.568285 0
M  V30 2966 H 263.097 -4.96003 0.527504 0
M  V30 2967 H 262.251 -5.83565 -1.65943 0
M  V30 2968 H 260.99 -4.57112 -1.69999 0
M  V30 2969 H 259.995 -5.48215 0.417187 0
M  V30 2970 H 261.22 -6.77668 0.440784 0
M  V30 2971 H 259.166 -6.3205 -1.75638 0
M  V30 2972 H 259.083 -7.54146 -0.529125 0
M  V30 2973 H 260.351 -7.60362 -1.71667 0
M  V30 2974 N 264.58 -0.43555 -1.51462 0
M  V30 2975 C 265.805 0.132627 -2.06976 0
M  V30 2976 C 266.23 1.35848 -1.30104 0
M  V30 2977 O 265.588 1.78112 -0.338493 0
M  V30 2978 C 265.636 0.43523 -3.57964 0
M  V30 2979 O 264.74 1.52198 -3.83288 0
M  V30 2980 H 264.081 0.00265 -0.663995 0
M  V30 2981 H 266.611 -0.616369 -1.95095 0
M  V30 2982 H 266.621 0.686206 -4.02188 0
M  V30 2983 H 265.296 -0.460739 -4.1334 0
M  V30 2984 H 263.873 1.2611 -3.50928 0
M  V30 2985 N 266.058 1.56714 -0.166846 0
M  V30 2986 C 266.968 2.21331 0.777791 0
M  V30 2987 C 267.984 1.20358 1.25658 0
M  V30 2988 O 269.16 1.53005 1.30964 0
M  V30 2989 C 266.225 2.83787 1.99163 0
M  V30 2990 C 265.286 3.99947 1.56016 0
M  V30 2991 C 264.519 4.59415 2.71613 0
M  V30 2992 O 264.742 4.17769 3.88362 0
M  V30 2993 O 263.676 5.49359 2.45945 0
M  V30 2994 H 267.502 3.02605 0.257636 0
M  V30 2995 H 265.087 1.49275 0.0611393 0
M  V30 2996 H 266.969 3.23405 2.70161 0
M  V30 2997 H 265.644 2.05513 2.50092 0
M  V30 2998 H 264.551 3.65007 0.819809 0
M  V30 2999 H 265.884 4.79801 1.09782 0
M  V30 3000 N 267.536 -0.106894 1.57237 0
M  V30 3001 C 268.783 -0.812526 1.85484 0
M  V30 3002 C 269.111 -1.79304 0.753687 0
M  V30 3003 O 268.366 -1.94047 -0.253853 0
M  V30 3004 C 268.665 -1.58628 3.20268 0
M  V30 3005 C 268.331 -0.748967 4.44636 0
M  V30 3006 C 266.993 -0.518104 4.78403 0
M  V30 3007 C 269.345 -0.166122 5.20935 0
M  V30 3008 C 266.673 0.305659 5.85903 0
M  V30 3009 C 269.025 0.644899 6.29304 0
M  V30 3010 C 267.689 0.885965 6.61594 0
M  V30 3011 H 266.959 -0.297324 0.678734 0
M  V30 3012 H 269.606 -0.0744332 1.91355 0
M  V30 3013 H 267.911 -2.39562 3.10028 0
M  V30 3014 H 269.608 -2.13643 3.39349 0
M  V30 3015 H 266.198 -0.939006 4.18187 0
M  V30 3016 H 270.382 -0.33167 4.95191 0
M  V30 3017 H 265.638 0.501528 6.0934 0
M  V30 3018 H 269.812 1.10345 6.87602 0
M  V30 3019 H 267.439 1.52609 7.44725 0
M  V30 3020 N 269.014 -1.53014 -0.377408 0
M  V30 3021 C 270.262 -1.6829 -1.11906 0
M  V30 3022 C 270.583 -0.431206 -1.90173 0
M  V30 3023 O 269.853 0.554595 -1.87886 0
M  V30 3024 H 268.433 -0.620371 -0.416112 0
M  V30 3025 H 271.095 -1.90167 -0.426893 0
M  V30 3026 H 270.191 -2.53862 -1.8155 0
M  V30 3027 N 270.492 0.636531 -1.44174 0
M  V30 3028 C 271.422 1.76003 -1.53444 0
M  V30 3029 C 272.403 1.65619 -0.387841 0
M  V30 3030 O 273.588 1.84461 -0.607257 0
M  V30 3031 C 270.718 3.14511 -1.4731 0
M  V30 3032 C 269.672 3.39677 -2.60391 0
M  V30 3033 C 268.998 4.78159 -2.39308 0
M  V30 3034 C 270.298 3.32772 -4.02567 0
M  V30 3035 H 271.992 1.68501 -2.47483 0
M  V30 3036 H 269.538 0.809237 -1.19111 0
M  V30 3037 H 271.491 3.92878 -1.52397 0
M  V30 3038 H 270.215 3.22783 -0.49785 0
M  V30 3039 H 268.874 2.63688 -2.54684 0
M  V30 3040 H 268.522 4.83128 -1.39988 0
M  V30 3041 H 268.222 4.95956 -3.15122 0
M  V30 3042 H 269.746 5.58762 -2.46205 0
M  V30 3043 H 271.16 4.01051 -4.09672 0
M  V30 3044 H 269.557 3.62104 -4.7854 0
M  V30 3045 H 270.627 2.30669 -4.2652 0
M  V30 3046 N 271.97 1.30982 0.876444 0
M  V30 3047 C 273.216 1.20474 1.63138 0
M  V30 3048 C 273.549 -0.238096 1.92735 0
M  V30 3049 O 272.824 -1.1692 1.55435 0
M  V30 3050 C 273.107 2.04244 2.96574 0
M  V30 3051 C 272.96 3.56793 2.73896 0
M  V30 3052 C 274.279 1.88684 3.97601 0
M  V30 3053 H 271.398 0.439001 0.591985 0
M  V30 3054 H 274.04 1.60704 1.01361 0
M  V30 3055 H 272.19 1.70063 3.493 0
M  V30 3056 H 273.862 4.01077 2.27892 0
M  V30 3057 H 272.105 3.80548 2.08245 0
M  V30 3058 H 272.776 4.10706 3.68815 0
M  V30 3059 H 275.252 2.18584 3.54062 0
M  V30 3060 H 274.128 2.4961 4.88862 0
M  V30 3061 H 274.389 0.848343 4.33884 0
M  V30 3062 N 273.449 -1.08991 1.13837 0
M  V30 3063 C 274.695 -1.81699 0.91417 0
M  V30 3064 C 275.05 -1.84264 -0.553594 0
M  V30 3065 O 274.343 -1.30313 -1.4046 0
M  V30 3066 C 274.537 -3.27042 1.44147 0
M  V30 3067 C 274.366 -3.38637 2.95897 0
M  V30 3068 C 273.136 -3.50177 3.64286 0
M  V30 3069 C 275.334 -3.30791 3.93804 0
M  V30 3070 N 273.316 -3.50501 5.04006 0
M  V30 3071 C 274.687 -3.38037 5.19741 0
M  V30 3072 C 276.742 -3.14488 3.86007 0
M  V30 3073 C 275.445 -3.30659 6.38793 0
M  V30 3074 C 277.471 -3.08438 5.04599 0
M  V30 3075 C 276.833 -3.1628 6.29402 0
M  V30 3076 H 272.932 -0.678967 0.387979 0
M  V30 3077 H 275.516 -1.30224 1.4474 0
M  V30 3078 H 273.687 -3.76976 0.935091 0
M  V30 3079 H 275.419 -3.87785 1.1578 0
M  V30 3080 H 272.174 -3.53815 3.1482 0
M  V30 3081 H 272.598 -3.54236 5.76928 0
M  V30 3082 H 277.24 -3.07291 2.90399 0
M  V30 3083 H 274.958 -3.36618 7.34652 0
M  V30 3084 H 278.544 -2.96952 5.0031 0
M  V30 3085 H 277.424 -3.1162 7.19627 0
M  V30 3086 N 274.927 -0.932562 -1.27047 0
M  V30 3087 C 275.877 -0.406392 -2.24349 0
M  V30 3088 C 276.861 0.492066 -1.53191 0
M  V30 3089 O 278.053 0.328717 -1.73921 0
M  V30 3090 C 275.182 0.335214 -3.41659 0
M  V30 3091 C 274.268 -0.58004 -4.20115 0
M  V30 3092 N 274.659 -1.70203 -4.76303 0
M  V30 3093 C 272.957 -0.383974 -4.44344 0
M  V30 3094 C 273.658 -2.27167 -5.35509 0
M  V30 3095 N 272.634 -1.56068 -5.20715 0
M  V30 3096 H 276.436 -1.26299 -2.65378 0
M  V30 3097 H 273.95 -0.787408 -1.42034 0
M  V30 3098 H 275.947 0.729142 -4.10474 0
M  V30 3099 H 274.607 1.18868 -3.0216 0
M  V30 3100 H 275.618 -2.08433 -4.74106 0
M  V30 3101 H 272.295 0.428436 -4.15296 0
M  V30 3102 H 273.685 -3.21654 -5.89905 0
M  V30 3103 N 276.405 1.4127 -0.698611 0
M  V30 3104 C 277.315 2.34573 -0.0357891 0
M  V30 3105 C 278.331 1.56393 0.762701 0
M  V30 3106 O 279.507 1.8886 0.699564 0
M  V30 3107 C 276.572 3.35159 0.887089 0
M  V30 3108 C 275.633 4.29225 0.0804634 0
M  V30 3109 C 274.866 5.25006 0.959387 0
M  V30 3110 O 275.089 5.26314 2.19886 0
M  V30 3111 O 274.023 6.00519 0.407439 0
M  V30 3112 H 277.849 2.92838 -0.804957 0
M  V30 3113 H 275.434 1.42175 -0.458966 0
M  V30 3114 H 277.316 3.9689 1.41621 0
M  V30 3115 H 275.991 2.79333 1.6357 0
M  V30 3116 H 274.898 3.70833 -0.493328 0
M  V30 3117 H 276.231 4.88157 -0.629547 0
M  V30 3118 N 277.883 0.443576 1.51229 0
M  V30 3119 C 279.132 -0.122332 2.01329 0
M  V30 3120 C 279.445 -1.43237 1.33201 0
M  V30 3121 O 280.651 -2.0816 1.74304 0
M  V30 3122 C 279.107 -0.268551 3.58897 0
M  V30 3123 C 278.715 1.03142 4.35965 0
M  V30 3124 C 280.459 -0.787894 4.17124 0
M  V30 3125 C 278.366 0.850504 5.85252 0
M  V30 3126 H 277.296 -0.0494929 0.752374 0
M  V30 3127 H 279.947 0.574289 1.74282 0
M  V30 3128 H 278.329 -1.02832 3.82415 0
M  V30 3129 H 279.503 1.80001 4.24189 0
M  V30 3130 H 277.818 1.47977 3.89219 0
M  V30 3131 H 280.415 -0.939841 5.26375 0
M  V30 3132 H 280.758 -1.77201 3.76703 0
M  V30 3133 H 281.291 -0.0862669 3.97706 0
M  V30 3134 H 278.03 1.80718 6.30096 0
M  V30 3135 H 277.55 0.121825 5.99676 0
M  V30 3136 H 279.229 0.506163 6.45017 0
M  V30 3137 N 279.361 -1.56624 0.175154 0
M  V30 3138 C 280.607 -1.9729 -0.469506 0
M  V30 3139 C 280.94 -1.06128 -1.62636 0
M  V30 3140 O 280.215 -0.109183 -1.94193 0
M  V30 3141 C 280.498 -3.47375 -0.948804 0
M  V30 3142 C 280.351 -4.49317 0.208491 0
M  V30 3143 C 281.67 -4.00652 -1.82116 0
M  V30 3144 H 278.789 -0.717317 -0.16919 0
M  V30 3145 H 281.431 -1.88184 0.262062 0
M  V30 3146 H 279.581 -3.55267 -1.57219 0
M  V30 3147 H 281.253 -4.53482 0.845682 0
M  V30 3148 H 279.496 -4.25121 0.863395 0
M  V30 3149 H 280.167 -5.51741 -0.169059 0
M  V30 3150 H 282.643 -3.95416 -1.2956 0
M  V30 3151 H 281.519 -5.06075 -2.12554 0
M  V30 3152 H 281.78 -3.44699 -2.7683 0
M  V30 3153 N 280.839 0.0985539 -1.57292 0
M  V30 3154 C 281.787 1.1387 -2.02821 0
M  V30 3155 C 282.781 1.41676 -0.928666 0
M  V30 3156 O 283.987 1.41398 -1.11385 0
M  V30 3157 H 280.362 0.384419 -0.646317 0
M  V30 3158 H 282.333 0.728347 -2.89375 0
M  V30 3159 C 281.082 2.45166 -2.46554 0
M  V30 3160 H 280.405 2.24613 -3.3074 0
M  V30 3161 H 281.845 3.16456 -2.8219 0
M  V30 3162 C 280.304 3.09216 -1.33742 0
M  V30 3163 O 280.834 3.96163 -0.66464 0
M  V30 3164 N 279.04 2.69413 -1.08928 0
M  V30 3165 H 278.587 1.98801 -1.63817 0
M  V30 3166 H 278.545 3.12594 -0.336458 0
M  V30 3167 N 282.317 1.53212 0.369288 0
M  V30 3168 C 283.547 1.72868 1.13139 0
M  V30 3169 C 283.955 0.455754 1.83629 0
M  V30 3170 O 283.298 -0.580861 1.74275 0
M  V30 3171 C 283.36 2.83667 2.20847 0
M  V30 3172 C 283.024 4.24142 1.70155 0
M  V30 3173 C 284.021 5.06619 1.16763 0
M  V30 3174 C 281.706 4.70539 1.7578 0
M  V30 3175 C 283.7 6.33581 0.696678 0
M  V30 3176 C 281.387 5.97481 1.28297 0
M  V30 3177 C 282.385 6.78833 0.753307 0
M  V30 3178 O 282.073 8.03393 0.285475 0
M  V30 3179 H 281.805 0.581707 0.344373 0
M  V30 3180 H 284.359 2.00736 0.435243 0
M  V30 3181 H 282.589 2.51265 2.93944 0
M  V30 3182 H 284.278 2.91536 2.82421 0
M  V30 3183 H 285.044 4.71948 1.11758 0
M  V30 3184 H 280.923 4.07293 2.15949 0
M  V30 3185 H 284.467 6.97027 0.282581 0
M  V30 3186 H 280.364 6.31651 1.32994 0
M  V30 3187 H 281.132 8.17497 0.405145 0
M  V30 3188 N 283.795 -0.628877 1.44509 0
M  V30 3189 C 285.044 -1.38437 1.4669 0
M  V30 3190 C 285.357 -1.95322 0.104272 0
M  V30 3191 O 286.563 -2.715 0.00362163 0
M  V30 3192 C 285.019 -2.50659 2.5826 0
M  V30 3193 C 284.627 -2.00277 4.0074 0
M  V30 3194 C 286.371 -3.27844 2.69664 0
M  V30 3195 C 284.278 -3.09854 5.0373 0
M  V30 3196 H 283.208 -0.520245 0.545766 0
M  V30 3197 H 285.859 -0.676313 1.70582 0
M  V30 3198 H 284.241 -3.2405 2.27612 0
M  V30 3199 H 285.415 -1.33736 4.40966 0
M  V30 3200 H 283.73 -1.35901 3.93599 0
M  V30 3201 H 286.327 -4.09534 3.43781 0
M  V30 3202 H 286.67 -3.77471 1.75559 0
M  V30 3203 H 287.203 -2.61543 2.99733 0
M  V30 3204 H 283.942 -2.65168 5.99472 0
M  V30 3205 H 283.462 -3.7503 4.68095 0
M  V30 3206 H 285.141 -3.74592 5.27532 0
M  V30 3207 N 285.273 -1.31445 -0.869486 0
M  V30 3208 C 286.513 -1.22458 -1.63656 0
M  V30 3209 C 286.877 0.213846 -1.90805 0
M  V30 3210 O 288.078 0.427212 -2.65383 0
M  V30 3211 C 286.349 -2.04564 -2.93067 0
M  V30 3212 S 287.908 -2.12445 -3.83944 0
M  V30 3213 H 284.726 -0.436145 -0.561514 0
M  V30 3214 H 287.328 -1.66114 -1.03085 0
M  V30 3215 H 286.032 -3.0816 -2.71045 0
M  V30 3216 H 285.563 -1.6163 -3.58663 0
M  V30 3217 H 287.578 -1.26312 -4.79854 0
M  V30 3218 N 286.751 1.08385 -1.14413 0
M  V30 3219 C 287.683 2.1519 -0.789036 0
M  V30 3220 C 288.696 1.61638 0.19417 0
M  V30 3221 O 289.885 1.78479 -0.0275711 0
M  V30 3222 C 286.985 3.38565 -0.15058 0
M  V30 3223 C 286.158 4.21501 -1.16857 0
M  V30 3224 C 285.217 5.23277 -0.553832 0
M  V30 3225 O 284.243 5.56041 -1.21686 0
M  V30 3226 N 285.445 5.76629 0.669296 0
M  V30 3227 H 288.21 2.46257 -1.70814 0
M  V30 3228 H 285.771 1.24198 -1.03858 0
M  V30 3229 H 287.763 4.03777 0.273181 0
M  V30 3230 H 286.333 3.05299 0.671667 0
M  V30 3231 H 285.553 3.52265 -1.76926 0
M  V30 3232 H 286.841 4.73731 -1.85624 0
M  V30 3233 H 286.239 5.52243 1.22654 0
M  V30 3234 H 284.796 6.43521 1.03556 0
M  V30 3235 N 288.23 0.939286 1.26551 0
M  V30 3236 C 289.476 0.586715 1.94128 0
M  V30 3237 C 289.809 -0.8717 1.73537 0
M  V30 3238 O 289.084 -1.62339 1.07127 0
M  V30 3239 C 289.367 0.927497 3.4795 0
M  V30 3240 C 289.22 2.44052 3.77834 0
M  V30 3241 C 290.539 0.441569 4.37879 0
M  V30 3242 H 287.658 0.21463 0.705055 0
M  V30 3243 H 290.3 1.17316 1.49455 0
M  V30 3244 H 288.45 0.428431 3.8613 0
M  V30 3245 H 290.122 3.01216 3.4938 0
M  V30 3246 H 288.365 2.8848 3.23978 0
M  V30 3247 H 289.036 2.62947 4.85348 0
M  V30 3248 H 291.512 0.869448 4.06915 0
M  V30 3249 H 290.388 0.708856 5.44304 0
M  V30 3250 H 290.649 -0.658467 4.37169 0
M  V30 3251 N 289.708 -1.40897 0.706093 0
M  V30 3252 C 290.957 -2.00284 0.238574 0
M  V30 3253 C 291.27 -1.56604 -1.17194 0
M  V30 3254 O 292.476 -2.08624 -1.73748 0
M  V30 3255 C 290.932 -3.57934 0.375623 0
M  V30 3256 C 290.54 -4.10591 1.79217 0
M  V30 3257 C 292.284 -4.24488 -0.0315857 0
M  V30 3258 C 290.191 -5.60712 1.88032 0
M  V30 3259 H 289.121 -0.749144 0.0854398 0
M  V30 3260 H 291.772 -1.61251 0.875813 0
M  V30 3261 H 290.154 -3.94622 -0.330042 0
M  V30 3262 H 291.328 -3.85301 2.52745 0
M  V30 3263 H 289.643 -3.56601 2.15 0
M  V30 3264 H 292.24 -5.34698 0.0136842 0
M  V30 3265 H 292.583 -4.02261 -1.072 0
M  V30 3266 H 293.116 -3.92873 0.624181 0
M  V30 3267 H 289.855 -5.87781 2.90161 0
M  V30 3268 H 289.375 -5.87896 1.18903 0
M  V30 3269 H 291.054 -6.25658 1.64805 0
M  V30 3270 N 291.186 -0.45159 -1.50991 0
M  V30 3271 C 292.433 0.110074 -2.02201 0
M  V30 3272 C 292.761 1.4146 -1.33489 0
M  V30 3273 O 292.016 1.90617 -0.443125 0
M  V30 3274 C 292.315 0.361728 -3.55565 0
M  V30 3275 C 291.981 -0.858717 -4.42648 0
M  V30 3276 C 290.643 -1.19338 -4.66167 0
M  V30 3277 C 292.995 -1.67221 -4.93646 0
M  V30 3278 C 290.323 -2.34195 -5.37931 0
M  V30 3279 C 292.675 -2.8119 -5.6667 0
M  V30 3280 C 291.339 -3.15094 -5.88449 0
M  V30 3281 H 290.609 0.040279 -0.739904 0
M  V30 3282 H 293.256 -0.601696 -1.81802 0
M  V30 3283 H 291.561 1.15554 -3.74372 0
M  V30 3284 H 293.258 0.80996 -3.92735 0
M  V30 3285 H 289.848 -0.58796 -4.24548 0
M  V30 3286 H 294.032 -1.42686 -4.75347 0
M  V30 3287 H 289.288 -2.6076 -5.53005 0
M  V30 3288 H 293.462 -3.44585 -6.05173 0
M  V30 3289 H 291.089 -4.04204 -6.43835 0
M  V30 3290 N 292.664 1.56529 -0.183458 0
M  V30 3291 C 293.91 1.98304 0.452466 0
M  V30 3292 C 294.265 1.06799 1.60037 0
M  V30 3293 O 293.558 0.110049 1.91284 0
M  V30 3294 C 293.752 3.43939 0.971637 0
M  V30 3295 C 293.581 4.49528 -0.124425 0
M  V30 3296 C 292.351 5.01981 -0.578168 0
M  V30 3297 C 294.549 5.05836 -0.929207 0
M  V30 3298 N 292.531 5.91219 -1.65327 0
M  V30 3299 C 293.902 5.91632 -1.85396 0
M  V30 3300 C 295.957 4.88302 -0.972929 0
M  V30 3301 C 294.66 6.61768 -2.81878 0
M  V30 3302 C 296.686 5.59168 -1.92574 0
M  V30 3303 C 296.048 6.44701 -2.83795 0
M  V30 3304 H 292.147 0.770551 0.133324 0
M  V30 3305 H 294.731 1.92581 -0.286473 0
M  V30 3306 H 292.902 3.50184 1.68006 0
M  V30 3307 H 294.634 3.72702 1.5772 0
M  V30 3308 H 291.389 4.73282 -0.173639 0
M  V30 3309 H 291.813 6.40543 -2.19167 0
M  V30 3310 H 296.455 4.21861 -0.28168 0
M  V30 3311 H 294.173 7.27415 -3.51984 0
M  V30 3312 H 297.759 5.47582 -1.96583 0
M  V30 3313 H 296.639 6.98573 -3.56322 0
M  V30 3314 N 294.142 -0.090211 1.57342 0
M  V30 3315 C 295.391 -0.791531 1.8552 0
M  V30 3316 C 295.704 -1.79659 0.773441 0
M  V30 3317 O 296.91 -2.54616 0.942497 0
M  V30 3318 C 295.366 -1.45856 3.2902 0
M  V30 3319 C 294.974 -0.493017 4.45279 0
M  V30 3320 C 296.718 -2.14332 3.66418 0
M  V30 3321 C 294.625 -1.16491 5.79814 0
M  V30 3322 H 293.555 -0.299356 0.692027 0
M  V30 3323 H 296.206 -0.0445343 1.83446 0
M  V30 3324 H 294.588 -2.25318 3.2565 0
M  V30 3325 H 295.762 0.270464 4.60006 0
M  V30 3326 H 294.077 0.0863061 4.16311 0
M  V30 3327 H 296.674 -2.65344 4.64216 0
M  V30 3328 H 297.017 -2.93447 2.95287 0
M  V30 3329 H 297.55 -1.41724 3.71698 0
M  V30 3330 H 294.289 -0.41447 6.54188 0
M  V30 3331 H 293.809 -1.8997 5.68921 0
M  V30 3332 H 295.488 -1.69001 6.24538 0
M  V30 3333 N 295.62 -1.53406 -0.361157 0
M  V30 3334 C 296.568 -1.80832 -1.46296 0
M  V30 3335 C 297.562 -0.677699 -1.55253 0
M  V30 3336 O 298.768 -0.860723 -1.58087 0
M  V30 3337 H 295.143 -0.572627 -0.487445 0
M  V30 3338 H 297.114 -2.73045 -1.20371 0
M  V30 3339 C 295.863 -2.01907 -2.8307 0
M  V30 3340 H 295.186 -2.88349 -2.76938 0
M  V30 3341 H 296.626 -2.25072 -3.59331 0
M  V30 3342 C 295.085 -0.799449 -3.27277 0
M  V30 3343 O 295.615 0.00971761 -4.01699 0
M  V30 3344 N 293.821 -0.621637 -2.83873 0
M  V30 3345 H 293.368 -1.28126 -2.23476 0
M  V30 3346 H 293.326 0.19298 -3.13807 0
M  V30 3347 N 297.098 0.621204 -1.44841 0
M  V30 3348 C 298.345 1.38055 -1.48145 0
M  V30 3349 C 298.673 1.94143 -0.117867 0
M  V30 3350 O 297.928 1.74713 0.881694 0
M  V30 3351 C 298.227 2.55675 -2.4973 0
M  V30 3352 C 297.893 2.17817 -3.94799 0
M  V30 3353 C 296.555 2.07205 -4.34303 0
M  V30 3354 C 298.907 1.88065 -4.86087 0
M  V30 3355 C 296.235 1.65045 -5.63007 0
M  V30 3356 C 298.587 1.47394 -6.15189 0
M  V30 3357 C 297.251 1.35331 -6.53637 0
M  V30 3358 H 296.521 0.505181 -0.542101 0
M  V30 3359 H 299.168 0.703477 -1.78111 0
M  V30 3360 H 297.473 3.2866 -2.13284 0
M  V30 3361 H 299.17 3.13904 -2.4953 0
M  V30 3362 H 295.76 2.26998 -3.63552 0
M  V30 3363 H 299.944 1.95168 -4.56315 0
M  V30 3364 H 295.2 1.54317 -5.91605 0
M  V30 3365 H 299.374 1.23415 -6.85377 0
M  V30 3366 H 297.001 1.02435 -7.53267 0
M  V30 3367 N 298.576 1.31904 0.862503 0
M  V30 3368 C 299.506 1.22782 1.98612 0
M  V30 3369 C 300.487 0.113362 1.69722 0
M  V30 3370 O 301.672 0.299218 1.91881 0
M  V30 3371 C 298.802 0.942058 3.34279 0
M  V30 3372 C 297.756 2.0169 3.77499 0
M  V30 3373 C 297.082 1.58369 5.10709 0
M  V30 3374 C 298.382 3.43096 3.93805 0
M  V30 3375 H 300.076 2.16788 2.06502 0
M  V30 3376 H 297.622 1.04366 0.992154 0
M  V30 3377 H 299.575 0.864818 4.1243 0
M  V30 3378 H 298.299 -0.0336603 3.26583 0
M  V30 3379 H 296.958 2.08416 3.01593 0
M  V30 3380 H 296.606 0.595628 4.99461 0
M  V30 3381 H 296.306 2.30279 5.40597 0
M  V30 3382 H 297.83 1.52067 5.91361 0
M  V30 3383 H 299.244 3.39003 4.62331 0
M  V30 3384 H 297.641 4.13288 4.35101 0
M  V30 3385 H 298.711 3.83334 2.96957 0
M  V30 3386 N 300.054 -1.07777 1.14986 0
M  V30 3387 C 301.303 -1.79669 0.916617 0
M  V30 3388 C 301.616 -1.87474 -0.557917 0
M  V30 3389 O 302.822 -2.55845 -0.908617 0
M  V30 3390 C 301.278 -3.22848 1.59051 0
M  V30 3391 C 300.886 -3.23257 3.10176 0
M  V30 3392 C 302.63 -3.99379 1.43864 0
M  V30 3393 C 300.537 -4.61063 3.70372 0
M  V30 3394 H 299.467 -0.673349 0.33929 0
M  V30 3395 H 302.118 -1.21003 1.37951 0
M  V30 3396 H 300.5 -3.8168 1.0553 0
M  V30 3397 H 301.674 -2.74095 3.70417 0
M  V30 3398 H 299.989 -2.60222 3.25074 0
M  V30 3399 H 302.586 -5.0122 1.86232 0
M  V30 3400 H 302.929 -4.14511 0.385564 0
M  V30 3401 H 303.462 -3.47032 1.94457 0
M  V30 3402 H 300.201 -4.51135 4.7556 0
M  V30 3403 H 299.721 -5.1048 3.14913 0
M  V30 3404 H 301.4 -5.30034 3.71043 0
M  V30 3405 N 301.532 -0.945985 -1.26051 0
M  V30 3406 C 302.778 -0.597002 -1.93814 0
M  V30 3407 C 303.111 0.862484 -1.73997 0
M  V30 3408 O 302.386 1.61769 -1.07986 0
M  V30 3409 C 302.669 -0.945937 -3.47454 0
M  V30 3410 C 302.522 -2.46052 -3.76535 0
M  V30 3411 C 303.841 -0.464785 -4.37639 0
M  V30 3412 H 300.96 -0.218366 -0.703907 0
M  V30 3413 H 303.602 -1.18107 -1.48831 0
M  V30 3414 H 301.752 -0.448902 -3.85898 0
M  V30 3415 H 303.424 -3.03065 -3.47778 0
M  V30 3416 H 301.667 -2.90194 -3.22444 0
M  V30 3417 H 302.338 -2.65517 -4.83947 0
M  V30 3418 H 304.814 -0.891016 -4.06448 0
M  V30 3419 H 303.69 -0.737712 -5.4392 0
M  V30 3420 H 303.951 0.635274 -4.37512 0
M  V30 3421 N 303.011 1.40521 -0.713556 0
M  V30 3422 C 304.26 2.00155 -0.249192 0
M  V30 3423 C 304.573 1.57224 1.16362 0
M  V30 3424 O 305.779 2.09542 1.72639 0
M  V30 3425 C 304.235 3.5773 -0.3946 0
M  V30 3426 C 303.843 4.09635 -1.81392 0
M  V30 3427 C 305.587 4.24499 0.00907364 0
M  V30 3428 C 303.494 5.59707 -1.91003 0
M  V30 3429 H 302.424 0.74868 -0.0894114 0
M  V30 3430 H 305.075 1.60784 -0.884352 0
M  V30 3431 H 303.457 3.94792 0.30911 0
M  V30 3432 H 304.631 3.83955 -2.54785 0
M  V30 3433 H 302.946 3.55456 -2.16888 0
M  V30 3434 H 305.543 5.34683 -0.0420404 0
M  V30 3435 H 305.886 4.02824 1.05065 0
M  V30 3436 H 306.419 3.92536 -0.645007 0
M  V30 3437 H 303.158 5.86234 -2.93275 0
M  V30 3438 H 302.678 5.87258 -1.22019 0
M  V30 3439 H 304.357 6.24776 -1.6812 0
M  V30 3440 N 304.489 0.459591 1.5075 0
M  V30 3441 C 305.735 -0.0994966 2.02556 0
M  V30 3442 C 306.068 -1.40399 1.3417 0
M  V30 3443 O 305.343 -1.88892 0.463683 0
M  V30 3444 C 305.626 -0.295242 3.58888 0
M  V30 3445 C 305.479 1.02947 4.37861 0
M  V30 3446 C 306.798 -1.05502 4.27267 0
M  V30 3447 H 303.917 -0.034686 0.736183 0
M  V30 3448 H 306.559 0.602938 1.8018 0
M  V30 3449 H 304.709 -0.893563 3.78084 0
M  V30 3450 H 306.381 1.66348 4.30263 0
M  V30 3451 H 304.624 1.62885 4.02058 0
M  V30 3452 H 305.295 0.846281 5.45474 0
M  V30 3453 H 307.771 -0.547993 4.12476 0
M  V30 3454 H 306.647 -1.16077 5.36486 0
M  V30 3455 H 306.908 -2.08875 3.89645 0
M  V30 3456 N 305.967 -1.56429 0.191757 0
M  V30 3457 C 307.207 -1.99383 -0.450099 0
M  V30 3458 C 307.571 -1.07581 -1.59029 0
M  V30 3459 O 308.772 -1.39758 -2.29611 0
M  V30 3460 C 307.043 -3.45841 -0.901611 0
M  V30 3461 S 308.602 -4.10822 -1.54177 0
M  V30 3462 H 305.42 -0.696253 -0.144057 0
M  V30 3463 H 308.022 -1.93276 0.294036 0
M  V30 3464 H 306.726 -4.10354 -0.0616596 0
M  V30 3465 H 306.257 -3.55757 -1.67929 0
M  V30 3466 H 308.272 -4.07553 -2.83046 0
M  V30 3467 N 307.445 0.0818655 -1.57387 0
M  V30 3468 C 308.675 0.794954 -1.90694 0
M  V30 3469 C 309.083 1.72147 -0.784982 0
M  V30 3470 O 308.426 1.81974 0.251196 0
M  V30 3471 C 308.488 1.65042 -3.19376 0
M  V30 3472 C 308.152 0.894337 -4.48164 0
M  V30 3473 C 309.149 0.21813 -5.19442 0
M  V30 3474 C 306.834 0.864495 -4.94805 0
M  V30 3475 C 308.828 -0.477802 -6.35607 0
M  V30 3476 C 306.515 0.164785 -6.10878 0
M  V30 3477 C 307.513 -0.505173 -6.81129 0
M  V30 3478 O 307.201 -1.19363 -7.94989 0
M  V30 3479 H 306.933 0.231779 -0.635023 0
M  V30 3480 H 309.487 0.059493 -2.05314 0
M  V30 3481 H 307.717 2.42844 -3.00938 0
M  V30 3482 H 309.406 2.24127 -3.38411 0
M  V30 3483 H 310.172 0.232558 -4.84442 0
M  V30 3484 H 306.051 1.37542 -4.40004 0
M  V30 3485 H 309.595 -1.00129 -6.90377 0
M  V30 3486 H 305.492 0.148249 -6.4533 0
M  V30 3487 H 306.26 -1.10188 -8.11049 0
M  V30 3488 N 308.923 1.53595 0.353017 0
M  V30 3489 C 310.151 1.74311 1.1146 0
M  V30 3490 C 310.566 0.477854 1.82653 0
M  V30 3491 O 309.923 -0.549977 1.74016 0
M  V30 3492 C 309.974 2.91694 2.13534 0
M  V30 3493 O 309.695 4.13325 1.45238 0
M  V30 3494 C 311.196 3.24384 3.02142 0
M  V30 3495 H 308.416 0.582669 0.332773 0
M  V30 3496 H 310.96 2.00386 0.408107 0
M  V30 3497 H 309.115 2.67977 2.79763 0
M  V30 3498 H 309.529 4.79148 2.13349 0
M  V30 3499 H 311.003 4.09893 3.69718 0
M  V30 3500 H 311.48 2.40282 3.67643 0
M  V30 3501 H 312.086 3.50073 2.41514 0
M  V30 3502 N 310.401 -0.613514 1.45168 0
M  V30 3503 C 311.331 -1.7354 1.56225 0
M  V30 3504 C 312.312 -1.64981 0.41414 0
M  V30 3505 O 313.497 -1.83472 0.636526 0
M  V30 3506 C 310.627 -3.12128 1.52295 0
M  V30 3507 C 309.581 -3.35491 2.65762 0
M  V30 3508 C 308.907 -4.74291 2.46885 0
M  V30 3509 C 310.207 -3.26325 4.0781 0
M  V30 3510 H 311.901 -1.64543 2.50132 0
M  V30 3511 H 309.447 -0.790185 1.20383 0
M  V30 3512 H 311.4 -3.90404 1.58628 0
M  V30 3513 H 310.124 -3.2195 0.549139 0
M  V30 3514 H 308.783 -2.59603 2.58847 0
M  V30 3515 H 308.431 -4.80839 1.47657 0
M  V30 3516 H 308.131 -4.9088 3.22972 0
M  V30 3517 H 309.655 -5.54775 2.55063 0
M  V30 3518 H 311.069 -3.94483 4.16 0
M  V30 3519 H 309.466 -3.54445 4.8424 0
M  V30 3520 H 310.536 -2.23855 4.30136 0
M  V30 3521 N 311.879 -1.3236 -0.855495 0
M  V30 3522 C 313.128 -1.22226 -1.60448 0
M  V30 3523 C 313.441 0.214733 -1.94418 0
M  V30 3524 O 314.647 0.437917 -2.67945 0
M  V30 3525 C 313.103 -2.14063 -2.89318 0
M  V30 3526 C 312.711 -3.62839 -2.62777 0
M  V30 3527 C 314.455 -2.12764 -3.67331 0
M  V30 3528 C 312.362 -4.4664 -3.87643 0
M  V30 3529 H 311.292 -0.453904 -0.602069 0
M  V30 3530 H 313.943 -1.57314 -0.944698 0
M  V30 3531 H 312.325 -1.71889 -3.5675 0
M  V30 3532 H 313.499 -4.1335 -2.03662 0
M  V30 3533 H 311.814 -3.66261 -1.98096 0
M  V30 3534 H 314.411 -2.72611 -4.59987 0
M  V30 3535 H 314.754 -1.11841 -4.00995 0
M  V30 3536 H 315.287 -2.53214 -3.06802 0
M  V30 3537 H 312.026 -5.48373 -3.5912 0
M  V30 3538 H 311.546 -4.0088 -4.46156 0
M  V30 3539 H 313.225 -4.59597 -4.55389 0
M  V30 3540 N 313.357 1.07166 -1.15556 0
M  V30 3541 C 314.585 1.83514 -0.955519 0
M  V30 3542 C 315 1.82163 0.49621 0
M  V30 3543 O 314.357 1.23441 1.34419 0
M  V30 3544 C 314.408 3.30515 -1.46432 0
M  V30 3545 O 314.129 3.31937 -2.85918 0
M  V30 3546 C 315.63 4.23625 -1.30603 0
M  V30 3547 H 312.85 0.578926 -0.339244 0
M  V30 3548 H 315.394 1.35265 -1.53374 0
M  V30 3549 H 313.549 3.76106 -0.928584 0
M  V30 3550 H 313.963 4.23794 -3.09029 0
M  V30 3551 H 315.437 5.24831 -1.71047 0
M  V30 3552 H 315.914 4.38485 -0.250441 0
M  V30 3553 H 316.52 3.83871 -1.83094 0
M  V30 3554 N 314.835 0.952656 1.25548 0
M  V30 3555 C 315.782 0.47008 2.25962 0
M  V30 3556 C 316.752 -0.476384 1.59122 0
M  V30 3557 O 317.937 -0.39007 1.8677 0
M  V30 3558 C 315.077 -0.247881 3.44209 0
M  V30 3559 C 314.19 0.735591 4.25691 0
M  V30 3560 C 313.325 -0.0047306 5.312 0
M  V30 3561 C 312.364 0.969805 6.04368 0
M  V30 3562 N 311.501 0.260486 7.01617 0
M  V30 3563 H 316.341 1.33126 2.66611 0
M  V30 3564 H 313.878 0.66765 1.31076 0
M  V30 3565 H 315.836 -0.680695 4.1161 0
M  V30 3566 H 314.466 -1.07312 3.0444 0
M  V30 3567 H 313.518 1.28689 3.57971 0
M  V30 3568 H 314.83 1.47934 4.76358 0
M  V30 3569 H 313.984 -0.496275 6.04667 0
M  V30 3570 H 312.723 -0.781282 4.81401 0
M  V30 3571 H 311.728 1.47237 5.29718 0
M  V30 3572 H 312.953 1.74655 6.56256 0
M  V30 3573 H 310.899 -0.497364 6.54112 0
M  V30 3574 H 310.816 0.943362 7.50091 0
M  V30 3575 H 312.084 -0.209587 7.79218 0
M  V30 3576 N 316.313 -1.40141 0.720998 0
M  V30 3577 C 317.223 -2.34486 0.0731031 0
M  V30 3578 C 318.239 -1.57587 -0.737723 0
M  V30 3579 O 319.415 -1.89949 -0.669429 0
M  V30 3580 C 316.48 -3.36528 -0.833656 0
M  V30 3581 C 315.541 -4.29298 -0.0121673 0
M  V30 3582 C 314.774 -5.26466 -0.875742 0
M  V30 3583 O 314.997 -5.29745 -2.11485 0
M  V30 3584 O 313.931 -6.01092 -0.31185 0
M  V30 3585 H 317.757 -2.9152 0.851444 0
M  V30 3586 H 315.342 -1.41427 0.481527 0
M  V30 3587 H 317.224 -3.99093 -1.35289 0
M  V30 3588 H 315.899 -2.81899 -1.59105 0
M  V30 3589 H 314.806 -3.70001 0.552262 0
M  V30 3590 H 316.139 -4.87094 0.707129 0
M  V30 3591 N 317.792 -0.46758 -1.50504 0
M  V30 3592 C 318.722 0.318381 -2.31319 0
M  V30 3593 C 319.703 0.993564 -1.38066 0
M  V30 3594 O 320.888 0.991411 -1.66987 0
M  V30 3595 C 318.018 1.40275 -3.17711 0
M  V30 3596 C 316.972 0.849373 -4.19487 0
M  V30 3597 C 316.298 2.03177 -4.94594 0
M  V30 3598 C 317.598 -0.136942 -5.2212 0
M  V30 3599 H 319.292 -0.356106 -2.97275 0
M  V30 3600 H 316.838 -0.172703 -1.42961 0
M  V30 3601 H 318.791 1.96004 -3.73042 0
M  V30 3602 H 317.515 2.10596 -2.49634 0
M  V30 3603 H 316.174 0.314076 -3.65252 0
M  V30 3604 H 315.822 2.72187 -4.22993 0
M  V30 3605 H 315.522 1.66774 -5.63436 0
M  V30 3606 H 317.046 2.59403 -5.52759 0
M  V30 3607 H 318.46 0.331056 -5.72343 0
M  V30 3608 H 316.857 -0.41507 -5.98663 0
M  V30 3609 H 317.927 -1.06398 -4.73083 0
M  V30 3610 N 319.27 1.56325 -0.20005 0
M  V30 3611 C 320.5 2.01811 0.442232 0
M  V30 3612 C 320.908 1.07932 1.55394 0
M  V30 3613 O 320.251 0.0772685 1.83537 0
M  V30 3614 C 320.313 3.43685 1.05457 0
M  V30 3615 C 319.977 4.56928 0.0809833 0
M  V30 3616 C 320.974 5.15009 -0.711471 0
M  V30 3617 C 318.659 5.0229 -0.0315364 0
M  V30 3618 C 320.653 6.16904 -1.60336 0
M  V30 3619 C 318.34 6.04028 -0.926981 0
M  V30 3620 C 319.338 6.6121 -1.71146 0
M  V30 3621 O 319.026 7.60971 -2.59189 0
M  V30 3622 H 318.758 0.666173 0.114848 0
M  V30 3623 H 321.312 2.03085 -0.307511 0
M  V30 3624 H 319.542 3.39413 1.85299 0
M  V30 3625 H 321.231 3.72948 1.60201 0
M  V30 3626 H 321.997 4.80827 -0.634873 0
M  V30 3627 H 317.876 4.57476 0.568902 0
M  V30 3628 H 321.42 6.61464 -2.21611 0
M  V30 3629 H 317.317 6.37634 -1.00468 0
M  V30 3630 H 318.085 7.7841 -2.53023 0
M  V30 3631 N 320.748 -0.0735177 1.57428 0
M  V30 3632 C 322.164 -0.428264 1.53747 0
M  V30 3633 C 322.364 -1.79272 0.91998 0
M  V30 3634 O 321.42 -2.47051 0.521745 0
M  V30 3635 C 322.733 -0.370914 2.98404 0
M  V30 3636 C 324.281 -0.451224 3.0973 0
M  V30 3637 C 324.756 -0.4238 4.56035 0
M  V30 3638 N 326.247 -0.483925 4.60665 0
M  V30 3639 C 326.982 -0.484891 5.71346 0
M  V30 3640 N 326.478 -0.440775 6.91396 0
M  V30 3641 N 328.271 -0.531319 5.59583 0
M  V30 3642 H 320.422 0.819949 1.95935 0
M  V30 3643 H 322.685 0.307493 0.896745 0
M  V30 3644 H 322.391 0.564956 3.47133 0
M  V30 3645 H 322.265 -1.18176 3.5821 0
M  V30 3646 H 324.652 -1.37752 2.60976 0
M  V30 3647 H 324.733 0.388167 2.52838 0
M  V30 3648 H 324.377 0.498638 5.05446 0
M  V30 3649 H 324.307 -1.2807 5.10789 0
M  V30 3650 H 326.798 -0.522338 3.74273 0
M  V30 3651 H 327.111 -0.44539 7.71515 0
M  V30 3652 H 325.456 -0.40749 6.93804 0
M  V30 3653 H 328.647 -0.563464 4.64696 0
M  V30 3654 H 328.82 -0.528603 6.4584 0
M  V30 3655 N 322.226 -1.5378 -0.344866 0
M  V30 3656 C 323.451 -1.75211 -1.10977 0
M  V30 3657 C 323.876 -0.48936 -1.81623 0
M  V30 3658 O 323.234 0.557925 -1.72502 0
M  V30 3659 C 323.282 -2.93147 -2.09993 0
M  V30 3660 O 322.386 -2.63203 -3.17487 0
M  V30 3661 H 321.727 -0.581241 -0.321021 0
M  V30 3662 H 324.257 -2.00738 -0.395661 0
M  V30 3663 H 324.267 -3.19898 -2.53237 0
M  V30 3664 H 322.942 -3.84731 -1.5797 0
M  V30 3665 H 321.519 -2.47336 -2.79069 0
M  V30 3666 N 323.704 0.605807 -1.45491 0
M  V30 3667 C 324.934 1.38934 -1.52908 0
M  V30 3668 C 325.342 1.88513 -0.161086 0
M  V30 3669 O 324.685 1.62962 0.847891 0
M  V30 3670 C 324.747 2.62737 -2.45376 0
M  V30 3671 C 324.411 2.34785 -3.92078 0
M  V30 3672 C 325.408 1.95038 -4.8193 0
M  V30 3673 C 323.093 2.47642 -4.37011 0
M  V30 3674 C 325.087 1.68511 -6.14722 0
M  V30 3675 C 322.774 2.20728 -5.69844 0
M  V30 3676 C 323.772 1.81225 -6.58519 0
M  V30 3677 O 323.46 1.54627 -7.88889 0
M  V30 3678 H 323.192 0.431629 -0.520262 0
M  V30 3679 H 325.746 0.74573 -1.91384 0
M  V30 3680 H 323.976 3.29824 -2.01874 0
M  V30 3681 H 325.665 3.24783 -2.43456 0
M  V30 3682 H 326.431 1.84639 -4.48479 0
M  V30 3683 H 322.31 2.77356 -3.68232 0
M  V30 3684 H 325.854 1.37602 -6.83894 0
M  V30 3685 H 321.751 2.30744 -6.02849 0
M  V30 3686 H 322.519 1.68665 -8.00933 0
M  V30 3687 N 325.182 1.32811 0.848464 0
M  V30 3688 C 326.428 1.23907 1.60546 0
M  V30 3689 C 326.761 -0.197161 1.93197 0
M  V30 3690 O 326.036 -1.13596 1.5788 0
M  V30 3691 C 326.319 2.10489 2.92175 0
M  V30 3692 C 326.172 3.62522 2.66266 0
M  V30 3693 C 327.491 1.97075 3.93509 0
M  V30 3694 H 324.61 0.451459 0.58254 0
M  V30 3695 H 327.252 1.62818 0.979296 0
M  V30 3696 H 325.402 1.77434 3.45614 0
M  V30 3697 H 327.074 4.05821 2.19334 0
M  V30 3698 H 325.317 3.84879 2.00126 0
M  V30 3699 H 325.988 4.18437 3.6002 0
M  V30 3700 H 328.464 2.26045 3.49346 0
M  V30 3701 H 327.34 2.59923 4.83457 0
M  V30 3702 H 327.601 0.940186 4.31987 0
M  V30 3703 N 326.66 -1.06551 1.16123 0
M  V30 3704 C 328.076 -1.3142 0.905585 0
M  V30 3705 C 328.276 -1.96571 -0.442964 0
M  V30 3706 O 327.332 -2.23068 -1.18308 0
M  V30 3707 C 328.645 -2.19741 2.05267 0
M  V30 3708 C 330.193 -2.33165 2.08813 0
M  V30 3709 C 330.668 -3.24838 3.22868 0
M  V30 3710 N 332.159 -3.32421 3.22568 0
M  V30 3711 C 332.894 -4.0344 4.0746 0
M  V30 3712 N 332.39 -4.77003 5.02434 0
M  V30 3713 N 334.183 -3.99464 3.95456 0
M  V30 3714 H 326.334 -0.626548 2.02949 0
M  V30 3715 H 328.597 -0.338777 0.8854 0
M  V30 3716 H 328.303 -1.79142 3.02657 0
M  V30 3717 H 328.177 -3.20313 1.99198 0
M  V30 3718 H 330.564 -2.73013 1.12018 0
M  V30 3719 H 330.645 -1.3227 2.18948 0
M  V30 3720 H 330.289 -2.85708 4.19921 0
M  V30 3721 H 330.219 -4.25707 3.0997 0
M  V30 3722 H 332.71 -2.79994 2.53795 0
M  V30 3723 H 333.023 -5.28712 5.63634 0
M  V30 3724 H 331.368 -4.75992 5.06415 0
M  V30 3725 H 334.559 -3.4111 3.20564 0
M  V30 3726 H 334.732 -4.54544 4.61837 0
M  V30 3727 N 328.138 -0.959301 -1.25041 0
M  V30 3728 C 329.366 -0.633949 -1.96948 0
M  V30 3729 C 329.781 0.794916 -1.7125 0
M  V30 3730 O 329.138 1.53231 -0.991287 0
M  V30 3731 C 329.189 -0.888805 -3.50403 0
M  V30 3732 O 328.91 -2.26149 -3.75218 0
M  V30 3733 C 330.411 -0.576482 -4.39536 0
M  V30 3734 H 327.631 -0.237263 -0.627652 0
M  V30 3735 H 330.175 -1.28495 -1.59089 0
M  V30 3736 H 328.33 -0.284145 -3.86357 0
M  V30 3737 H 328.744 -2.33514 -4.6965 0
M  V30 3738 H 330.218 -0.805314 -5.46094 0
M  V30 3739 H 330.695 0.489075 -4.36468 0
M  V30 3740 H 331.301 -1.16067 -4.09156 0
M  V30 3741 N 329.616 1.39756 -0.72842 0
M  V30 3742 C 331.032 1.5442 -0.403308 0
M  V30 3743 C 331.232 1.69694 1.08656 0
M  V30 3744 O 330.288 1.69373 1.87267 0
M  V30 3745 C 331.601 2.76555 -1.18058 0
M  V30 3746 C 333.149 2.90384 -1.16815 0
M  V30 3747 C 333.624 4.15449 -1.92785 0
M  V30 3748 N 335.115 4.22475 -1.89918 0
M  V30 3749 C 335.85 5.1818 -2.45514 0
M  V30 3750 N 335.346 6.19714 -3.09719 0
M  V30 3751 N 337.139 5.1035 -2.35584 0
M  V30 3752 H 329.29 1.28089 -1.69431 0
M  V30 3753 H 331.553 0.620327 -0.716867 0
M  V30 3754 H 331.259 2.7159 -2.23455 0
M  V30 3755 H 331.133 3.69033 -0.780662 0
M  V30 3756 H 333.52 2.94846 -0.12234 0
M  V30 3757 H 333.601 1.98988 -1.6074 0
M  V30 3758 H 333.245 4.11749 -2.97364 0
M  V30 3759 H 333.175 5.05877 -1.46272 0
M  V30 3760 H 335.666 3.49743 -1.43138 0
M  V30 3761 H 335.979 6.8919 -3.49625 0
M  V30 3762 H 334.324 6.20121 -3.13807 0
M  V30 3763 H 337.515 4.2996 -1.85072 0
M  V30 3764 H 337.688 5.84761 -2.79211 0
M  V30 3765 N 331.094 0.475555 1.50254 0
M  V30 3766 C 332.342 -0.077738 2.0195 0
M  V30 3767 C 332.663 -1.39813 1.35931 0
M  V30 3768 O 331.933 -1.89249 0.506123 0
M  V30 3769 H 330.513 -0.031719 0.746326 0
M  V30 3770 H 333.175 0.626995 1.84539 0
M  V30 3771 H 332.271 -0.225995 3.11281 0
M  V30 3772 N 332.573 -1.56217 0.208337 0
M  V30 3773 C 333.819 -1.98242 -0.427552 0
M  V30 3774 C 334.152 -1.09554 -1.60348 0
M  V30 3775 O 333.427 -0.15035 -1.93918 0
M  V30 3776 C 333.71 -3.4931 -0.874907 0
M  V30 3777 C 333.563 -4.48773 0.303751 0
M  V30 3778 C 334.882 -4.04424 -1.73577 0
M  V30 3779 H 332.001 -0.720744 -0.153936 0
M  V30 3780 H 334.643 -1.87586 0.30192 0
M  V30 3781 H 332.793 -3.58522 -1.49648 0
M  V30 3782 H 334.465 -4.51586 0.941682 0
M  V30 3783 H 332.708 -4.23194 0.953375 0
M  V30 3784 H 333.379 -5.51976 -0.0519883 0
M  V30 3785 H 335.855 -3.98075 -1.21143 0
M  V30 3786 H 334.731 -5.1047 -2.01771 0
M  V30 3787 H 334.992 -3.50494 -2.69456 0
M  V30 3788 N 334.051 0.0651679 -1.57465 0
M  V30 3789 C 335.299 0.761555 -1.87202 0
M  V30 3790 C 335.62 1.77778 -0.801243 0
M  V30 3791 O 334.89 1.95166 0.16937 0
M  V30 3792 H 333.47 0.284251 -0.690804 0
M  V30 3793 H 336.132 0.0396827 -1.9486 0
M  V30 3794 H 335.228 1.27365 -2.84929 0
M  V30 3795 N 335.529 1.53961 0.336706 0
M  V30 3796 C 336.476 1.82428 1.41381 0
M  V30 3797 C 337.446 0.670444 1.51968 0
M  V30 3798 O 338.631 0.915565 1.67398 0
M  V30 3799 C 335.771 2.04564 2.77934 0
M  V30 3800 C 334.884 3.32267 2.76084 0
M  V30 3801 C 334.019 3.44434 4.04399 0
M  V30 3802 C 333.058 4.66061 3.96804 0
M  V30 3803 N 332.195 4.75224 5.16823 0
M  V30 3804 H 337.035 2.74324 1.16405 0
M  V30 3805 H 334.572 1.35869 0.563752 0
M  V30 3806 H 336.53 2.15388 3.57301 0
M  V30 3807 H 335.16 1.15974 3.01247 0
M  V30 3808 H 334.212 3.3025 1.88784 0
M  V30 3809 H 335.524 4.21733 2.66351 0
M  V30 3810 H 334.678 3.54728 4.92192 0
M  V30 3811 H 333.417 2.53037 4.16921 0
M  V30 3812 H 332.422 4.55838 3.07396 0
M  V30 3813 H 333.647 5.58829 3.85858 0
M  V30 3814 H 331.593 3.86739 5.29876 0
M  V30 3815 H 331.51 5.58636 5.09374 0
M  V30 3816 H 332.778 4.89835 6.06367 0
M  V30 3817 N 337.007 -0.598083 1.45811 0
M  V30 3818 C 338.253 -1.35882 1.50545 0
M  V30 3819 C 338.586 -1.93616 0.150445 0
M  V30 3820 O 337.861 -1.75604 -0.83628 0
M  V30 3821 C 338.144 -2.49966 2.59208 0
M  V30 3822 C 337.997 -1.97367 4.04186 0
M  V30 3823 C 339.316 -3.52068 2.64076 0
M  V30 3824 H 336.435 -0.492717 0.548087 0
M  V30 3825 H 339.077 -0.673319 1.77669 0
M  V30 3826 H 337.227 -3.08443 2.3621 0
M  V30 3827 H 338.899 -1.43466 4.38423 0
M  V30 3828 H 337.142 -1.283 4.14393 0
M  V30 3829 H 337.813 -2.79649 4.75921 0
M  V30 3830 H 340.289 -3.03448 2.84708 0
M  V30 3831 H 339.165 -4.2937 3.41954 0
M  V30 3832 H 339.426 -4.08304 1.69531 0
M  V30 3833 N 338.485 -1.33259 -0.841409 0
M  V30 3834 C 339.896 -1.22066 -1.41269 0
M  V30 3835 C 340.247 0.161479 -1.95534 0
M  V30 3836 O 339.372 1.06094 -1.88608 0
M  V30 3837 C 339.967 -2.20996 -2.568 0
M  V30 3838 C 338.526 -2.13649 -3.09888 0
M  V30 3839 C 337.673 -2.08623 -1.82679 0
M  V30 3840 H 340.624 -1.44895 -0.647395 0
M  V30 3841 H 340.645 -1.81621 -3.34356 0
M  V30 3842 H 340.157 -3.2158 -2.17274 0
M  V30 3843 H 338.258 -1.16359 -3.53965 0
M  V30 3844 H 338.371 -3.04079 -3.70234 0
M  V30 3845 H 336.735 -1.54061 -2.02824 0
M  V30 3846 H 337.518 -3.1101 -1.45353 0
M  V30 3847 N 339.963 1.05934 -1.16686 0
M  V30 3848 C 341.379 1.30938 -0.912542 0
M  V30 3849 C 341.579 1.96803 0.432533 0
M  V30 3850 O 340.635 2.23693 1.17123 0
M  V30 3851 C 341.948 2.18649 -2.06429 0
M  V30 3852 C 343.496 2.32055 -2.10047 0
M  V30 3853 C 343.971 3.23122 -3.24586 0
M  V30 3854 N 345.462 3.30706 -3.24327 0
M  V30 3855 C 346.197 4.01273 -4.09594 0
M  V30 3856 N 345.693 4.74332 -5.04956 0
M  V30 3857 N 347.486 3.97361 -3.97569 0
M  V30 3858 H 339.637 0.615777 -2.03278 0
M  V30 3859 H 341.9 0.334077 -0.887185 0
M  V30 3860 H 341.606 1.77534 -3.03603 0
M  V30 3861 H 341.48 3.19252 -2.00894 0
M  V30 3862 H 343.867 2.72415 -1.13464 0
M  V30 3863 H 343.948 1.31107 -2.19647 0
M  V30 3864 H 343.592 2.83477 -4.2143 0
M  V30 3865 H 343.522 4.24057 -3.12223 0
M  V30 3866 H 346.013 2.78644 -2.55276 0
M  V30 3867 H 346.326 5.25716 -5.6643 0
M  V30 3868 H 344.671 4.733 -5.08933 0
M  V30 3869 H 347.862 3.39405 -3.22369 0
M  V30 3870 H 348.035 4.52089 -4.64241 0
M  V30 3871 N 341.441 0.965919 1.2453 0
M  V30 3872 C 342.388 0.49402 2.25451 0
M  V30 3873 C 343.358 -0.45948 1.59618 0
M  V30 3874 O 344.543 -0.370238 1.87173 0
M  V30 3875 C 341.683 -0.211359 3.44452 0
M  V30 3876 C 340.796 0.7807 4.24887 0
M  V30 3877 C 339.931 0.0516105 5.31175 0
M  V30 3878 C 338.97 1.03385 6.03306 0
M  V30 3879 N 338.107 0.334887 7.01301 0
M  V30 3880 H 342.947 1.35946 2.65184 0
M  V30 3881 H 340.484 0.681515 1.3036 0
M  V30 3882 H 342.442 -0.637 4.12308 0
M  V30 3883 H 341.072 -1.04077 3.05562 0
M  V30 3884 H 340.124 1.32479 3.56586 0
M  V30 3885 H 341.436 1.52978 4.74762 0
M  V30 3886 H 340.59 -0.432114 6.05159 0
M  V30 3887 H 339.329 -0.730179 4.82203 0
M  V30 3888 H 338.334 1.52847 5.28127 0
M  V30 3889 H 339.559 1.81606 6.54367 0
M  V30 3890 H 337.505 -0.427959 6.54603 0
M  V30 3891 H 337.422 1.02287 7.49048 0
M  V30 3892 H 338.69 -0.126928 7.79397 0
M  V30 3893 N 342.919 -1.39368 0.735821 0
M  V30 3894 C 343.866 -2.30599 0.0963825 0
M  V30 3895 C 344.836 -1.49257 -0.728794 0
M  V30 3896 O 346.021 -1.77941 -0.688588 0
M  V30 3897 C 343.161 -3.35596 -0.804305 0
M  V30 3898 C 342.274 -4.31987 0.0335761 0
M  V30 3899 C 341.409 -5.24053 -0.868461 0
M  V30 3900 C 340.448 -6.12095 -0.0258776 0
M  V30 3901 N 339.585 -6.96514 -0.883893 0
M  V30 3902 H 344.425 -2.8471 0.880002 0
M  V30 3903 H 341.962 -1.40188 0.445619 0
M  V30 3904 H 343.92 -3.95062 -1.34096 0
M  V30 3905 H 342.55 -2.82938 -1.55389 0
M  V30 3906 H 341.602 -3.74133 0.68766 0
M  V30 3907 H 342.914 -4.94074 0.685036 0
M  V30 3908 H 342.068 -5.88549 -1.47293 0
M  V30 3909 H 340.807 -4.62289 -1.5537 0
M  V30 3910 H 339.812 -5.4661 0.591386 0
M  V30 3911 H 341.037 -6.75923 0.656156 0
M  V30 3912 H 338.983 -6.37318 -1.55441 0
M  V30 3913 H 338.9 -7.55448 -0.288931 0
M  V30 3914 H 340.168 -7.65439 -1.4739 0
M  V30 3915 N 344.397 -0.483516 -1.5 0
M  V30 3916 C 345.643 0.0672592 -2.02688 0
M  V30 3917 C 345.976 1.38247 -1.36387 0
M  V30 3918 O 345.251 1.88131 -0.493675 0
M  V30 3919 C 345.534 0.238109 -3.59312 0
M  V30 3920 C 345.387 -1.099 -4.36168 0
M  V30 3921 C 346.706 0.986916 -4.28892 0
M  V30 3922 H 343.825 0.0229696 -0.736642 0
M  V30 3923 H 346.467 -0.631527 -1.79197 0
M  V30 3924 H 344.617 0.8333 -3.79458 0
M  V30 3925 H 346.289 -1.73172 -4.27562 0
M  V30 3926 H 344.532 -1.69261 -3.99416 0
M  V30 3927 H 345.203 -0.932954 -5.44059 0
M  V30 3928 H 347.679 0.482302 -4.13295 0
M  V30 3929 H 346.555 1.07527 -5.38265 0
M  V30 3930 H 346.816 2.0265 -3.92919 0
M  V30 3931 N 345.875 1.56104 -0.216619 0
M  V30 3932 C 346.823 2.21434 0.712036 0
M  V30 3933 C 347.817 1.19218 1.20348 0
M  V30 3934 O 349.023 1.3731 1.16387 0
M  V30 3935 H 345.398 0.70992 0.248026 0
M  V30 3936 H 347.369 2.98083 0.137558 0
M  V30 3937 C 346.118 2.90434 1.91163 0
M  V30 3938 H 345.441 3.68842 1.54258 0
M  V30 3939 H 346.881 3.39552 2.5393 0
M  V30 3940 C 345.34 1.92635 2.76394 0
M  V30 3941 O 345.87 1.44017 3.74996 0
M  V30 3942 N 344.076 1.60392 2.42328 0
M  V30 3943 H 343.623 2.00122 1.622 0
M  V30 3944 H 343.581 0.952159 2.99635 0
M  V30 3945 N 347.353 -0.0568162 1.57498 0
M  V30 3946 C 348.599 -0.75422 1.88253 0
M  V30 3947 C 348.932 -1.76461 0.810865 0
M  V30 3948 O 348.207 -1.93691 -0.177259 0
M  V30 3949 C 348.49 -1.44878 3.2967 0
M  V30 3950 C 348.343 -0.453789 4.47505 0
M  V30 3951 C 349.662 -2.38994 3.69554 0
M  V30 3952 H 346.781 -0.272724 0.684683 0
M  V30 3953 H 349.423 -0.0172113 1.89992 0
M  V30 3954 H 347.573 -2.077 3.28318 0
M  V30 3955 H 349.245 0.170371 4.60985 0
M  V30 3956 H 347.488 0.229552 4.33192 0
M  V30 3957 H 348.159 -0.977699 5.43273 0
M  V30 3958 H 350.635 -1.86239 3.72095 0
M  V30 3959 H 349.511 -2.84587 4.69363 0
M  V30 3960 H 349.772 -3.24461 3.00296 0
M  V30 3961 N 348.832 -1.54138 -0.328536 0
M  V30 3962 C 349.779 -1.83176 -1.40411 0
M  V30 3963 C 350.749 -0.678494 -1.5161 0
M  V30 3964 O 351.934 -0.92443 -1.6691 0
M  V30 3965 C 349.074 -2.06035 -2.76846 0
M  V30 3966 C 348.187 -3.33727 -2.74318 0
M  V30 3967 C 347.322 -3.46574 -4.02567 0
M  V30 3968 C 346.361 -4.68159 -3.94327 0
M  V30 3969 N 345.498 -4.77959 -5.14296 0
M  V30 3970 H 350.338 -2.74938 -1.14948 0
M  V30 3971 H 347.875 -1.36166 -0.556538 0
M  V30 3972 H 349.833 -2.1728 -3.56153 0
M  V30 3973 H 348.463 -1.1757 -3.00628 0
M  V30 3974 H 347.515 -3.31246 -1.8703 0
M  V30 3975 H 348.827 -4.23139 -2.64111 0
M  V30 3976 H 347.981 -3.57333 -4.90304 0
M  V30 3977 H 346.72 -2.55245 -4.15574 0
M  V30 3978 H 345.725 -4.57461 -3.04974 0
M  V30 3979 H 346.95 -5.60868 -3.82889 0
M  V30 3980 H 344.896 -3.89544 -5.27818 0
M  V30 3981 H 344.813 -5.6133 -5.06404 0
M  V30 3982 H 346.081 -4.93044 -6.03761 0
M  V30 3983 N 350.31 0.590341 -1.46126 0
M  V30 3984 C 351.556 1.35082 -1.51264 0
M  V30 3985 C 351.889 1.93534 -0.160711 0
M  V30 3986 O 351.164 1.76045 0.826956 0
M  V30 3987 C 351.447 2.48588 -2.6053 0
M  V30 3988 C 351.3 1.95221 -4.05227 0
M  V30 3989 C 352.619 3.50662 -2.6594 0
M  V30 3990 H 349.738 0.489803 -0.550692 0
M  V30 3991 H 352.38 0.663887 -1.78024 0
M  V30 3992 H 350.53 3.07186 -2.37843 0
M  V30 3993 H 352.202 1.41139 -4.39178 0
M  V30 3994 H 350.445 1.26101 -4.15068 0
M  V30 3995 H 351.116 2.77121 -4.77397 0
M  V30 3996 H 353.592 3.01934 -2.86313 0
M  V30 3997 H 352.468 4.27551 -3.44226 0
M  V30 3998 H 352.729 4.07399 -1.71694 0
M  V30 3999 N 351.788 1.33704 0.83433 0
M  V30 4000 C 353.035 1.25417 1.58987 0
M  V30 4001 C 353.363 -0.178869 1.93676 0
M  V30 4002 O 352.618 -1.13723 1.59265 0
M  V30 4003 C 352.917 2.07926 2.90692 0
M  V30 4004 C 352.583 3.57066 2.75345 0
M  V30 4005 C 351.245 3.97724 2.70867 0
M  V30 4006 C 353.597 4.51817 2.59828 0
M  V30 4007 C 350.925 5.31344 2.48778 0
M  V30 4008 C 353.277 5.85604 2.39272 0
M  V30 4009 C 351.941 6.25439 2.33199 0
M  V30 4010 H 351.211 0.458934 0.581774 0
M  V30 4011 H 353.858 1.65335 0.966261 0
M  V30 4012 H 352.163 1.608 3.57282 0
M  V30 4013 H 353.86 1.98868 3.48213 0
M  V30 4014 H 350.45 3.24785 2.79665 0
M  V30 4015 H 354.634 4.21311 2.62319 0
M  V30 4016 H 349.89 5.61241 2.42526 0
M  V30 4017 H 354.064 6.58623 2.2625 0
M  V30 4018 H 351.691 7.28914 2.15843 0
M  V30 4019 N 353.266 -1.05314 1.17247 0
M  V30 4020 C 354.515 -1.77685 0.954521 0
M  V30 4021 C 354.828 -1.88616 -0.518025 0
M  V30 4022 O 356.034 -2.57714 -0.854144 0
M  V30 4023 C 354.49 -3.19402 1.65863 0
M  V30 4024 C 354.098 -3.16605 3.16963 0
M  V30 4025 C 355.842 -3.96237 1.52303 0
M  V30 4026 C 353.749 -4.53103 3.80068 0
M  V30 4027 H 352.679 -0.666 0.353496 0
M  V30 4028 H 355.33 -1.1805 1.40486 0
M  V30 4029 H 353.712 -3.79355 1.13602 0
M  V30 4030 H 354.886 -2.66176 3.76148 0
M  V30 4031 H 353.201 -2.53268 3.30521 0
M  V30 4032 H 355.798 -4.97157 1.96822 0
M  V30 4033 H 356.141 -4.136 0.473401 0
M  V30 4034 H 356.674 -3.42829 2.01775 0
M  V30 4035 H 353.413 -4.40946 4.85023 0
M  V30 4036 H 352.933 -5.03686 3.2567 0
M  V30 4037 H 354.612 -5.22045 3.82202 0
M  V30 4038 N 354.744 -0.972509 -1.24016 0
M  V30 4039 C 355.993 -0.632603 -1.91523 0
M  V30 4040 C 356.306 0.836641 -1.76804 0
M  V30 4041 O 357.512 1.28728 -2.39043 0
M  V30 4042 C 355.968 -1.08082 -3.43287 0
M  V30 4043 C 355.576 -2.57386 -3.66683 0
M  V30 4044 C 357.32 -0.814288 -4.16617 0
M  V30 4045 C 355.227 -2.95915 -5.12043 0
M  V30 4046 H 354.157 -0.232898 -0.717129 0
M  V30 4047 H 356.808 -1.17936 -1.40582 0
M  V30 4048 H 355.19 -0.462339 -3.93292 0
M  V30 4049 H 356.364 -3.24405 -3.27258 0
M  V30 4050 H 354.679 -2.81701 -3.06649 0
M  V30 4051 H 357.276 -1.0781 -5.23718 0
M  V30 4052 H 357.619 0.24955 -4.15551 0
M  V30 4053 H 358.152 -1.39397 -3.72577 0
M  V30 4054 H 354.891 -4.0139 -5.18234 0
M  V30 4055 H 354.411 -2.33584 -5.52448 0
M  V30 4056 H 356.09 -2.86086 -5.80314 0
M  V30 4057 N 356.222 1.38976 -0.743202 0
M  V30 4058 C 357.471 1.99581 -0.291592 0
M  V30 4059 C 357.784 1.59656 1.13001 0
M  V30 4060 O 358.99 2.13157 1.68156 0
M  V30 4061 C 357.446 3.56813 -0.470391 0
M  V30 4062 C 357.054 4.05695 -1.90041 0
M  V30 4063 C 358.798 4.24423 -0.0809709 0
M  V30 4064 C 356.705 5.5553 -2.02832 0
M  V30 4065 H 355.635 0.746615 -0.105272 0
M  V30 4066 H 358.286 1.58872 -0.918258 0
M  V30 4067 H 356.668 3.95359 0.225299 0
M  V30 4068 H 357.842 3.78464 -2.62872 0
M  V30 4069 H 356.157 3.50775 -2.24379 0
M  V30 4070 H 358.754 5.34474 -0.155445 0
M  V30 4071 H 359.097 4.04962 0.96497 0
M  V30 4072 H 359.63 3.9108 -0.728124 0
M  V30 4073 H 356.369 5.79881 -3.05643 0
M  V30 4074 H 355.889 5.84537 -1.34448 0
M  V30 4075 H 357.568 6.21069 -1.81335 0
M  V30 4076 N 357.7 0.491464 1.49741 0
M  V30 4077 C 358.663 -0.280906 2.27472 0
M  V30 4078 C 359.663 -0.902454 1.33088 0
M  V30 4079 O 360.853 -0.768465 1.56334 0
M  V30 4080 C 357.985 -1.40209 3.10732 0
M  V30 4081 H 359.178 0.401056 2.97206 0
M  V30 4082 H 356.731 0.246131 1.5435 0
M  V30 4083 H 357.466 -2.11849 2.45541 0
M  V30 4084 H 357.251 -0.961969 3.80117 0
M  V30 4085 H 358.741 -1.9464 3.69466 0
M  V30 4086 N 359.178 -1.55987 0.224894 0
M  V30 4087 C 360.424 -1.98684 -0.406502 0
M  V30 4088 C 360.757 -1.11248 -1.59177 0
M  V30 4089 O 360.032 -0.170909 -1.93748 0
M  V30 4090 C 360.315 -3.50218 -0.837808 0
M  V30 4091 C 360.168 -4.48426 0.351332 0
M  V30 4092 C 361.487 -4.06243 -1.69278 0
M  V30 4093 H 358.606 -0.722337 -0.146283 0
M  V30 4094 H 361.248 -1.87255 0.321799 0
M  V30 4095 H 359.398 -3.60089 -1.45837 0
M  V30 4096 H 361.07 -4.50562 0.989526 0
M  V30 4097 H 359.313 -4.22159 0.998207 0
M  V30 4098 H 359.984 -5.52 0.00655905 0
M  V30 4099 H 362.46 -3.99337 -1.16914 0
M  V30 4100 H 361.336 -5.12581 -1.96346 0
M  V30 4101 H 361.597 -3.53332 -2.65723 0
M  V30 4102 N 360.656 0.0484629 -1.57525 0
M  V30 4103 C 361.903 0.743125 -1.88372 0
M  V30 4104 C 362.231 1.76383 -0.819715 0
M  V30 4105 O 361.486 1.94855 0.181659 0
M  V30 4106 C 361.785 1.46632 -3.25935 0
M  V30 4107 C 361.451 0.583427 -4.4711 0
M  V30 4108 C 360.113 0.340191 -4.79996 0
M  V30 4109 C 362.465 -0.0273345 -5.21193 0
M  V30 4110 C 359.793 -0.522903 -5.84365 0
M  V30 4111 C 362.145 -0.878017 -6.26477 0
M  V30 4112 C 360.809 -1.1309 -6.5785 0
M  V30 4113 H 360.079 0.271929 -0.689301 0
M  V30 4114 H 362.726 0.00336166 -1.915 0
M  V30 4115 H 361.031 2.2789 -3.18706 0
M  V30 4116 H 362.728 2.00902 -3.47044 0
M  V30 4117 H 359.318 0.783151 -4.21384 0
M  V30 4118 H 363.502 0.147654 -4.9608 0
M  V30 4119 H 358.758 -0.727335 -6.07058 0
M  V30 4120 H 362.932 -1.35789 -6.83033 0
M  V30 4121 H 360.559 -1.80144 -7.38547 0
M  V30 4122 N 362.134 1.5431 0.320358 0
M  V30 4123 C 363.381 1.72668 1.05792 0
M  V30 4124 C 363.709 0.502084 1.87908 0
M  V30 4125 O 362.964 -0.516149 1.88771 0
M  V30 4126 C 363.263 2.95639 2.00828 0
M  V30 4127 C 362.929 4.30265 1.34843 0
M  V30 4128 C 361.591 4.66865 1.16578 0
M  V30 4129 C 363.943 5.13801 0.875095 0
M  V30 4130 C 361.271 5.84597 0.496336 0
M  V30 4131 C 363.623 6.32219 0.219463 0
M  V30 4132 C 362.287 6.67495 0.0246915 0
M  V30 4133 H 361.557 0.631837 0.387121 0
M  V30 4134 H 364.204 1.88552 0.334735 0
M  V30 4135 H 362.509 2.74456 2.79609 0
M  V30 4136 H 364.206 3.07038 2.57932 0
M  V30 4137 H 360.796 4.01472 1.50061 0
M  V30 4138 H 364.98 4.86039 1.00398 0
M  V30 4139 H 360.236 6.10486 0.334264 0
M  V30 4140 H 364.41 6.96227 -0.155291 0
M  V30 4141 H 362.037 7.5858 -0.496065 0
M  V30 4142 N 363.613 -0.582584 1.46437 0
M  V30 4143 C 364.862 -1.337 1.5102 0
M  V30 4144 C 365.175 -1.94891 0.166359 0
M  V30 4145 O 366.381 -2.71351 0.0899954 0
M  V30 4146 C 364.837 -2.42315 2.66104 0
M  V30 4147 C 364.445 -1.87427 4.06909 0
M  V30 4148 C 366.189 -3.19099 2.79958 0
M  V30 4149 C 364.096 -2.93672 5.13333 0
M  V30 4150 H 363.026 -0.502619 0.562041 0
M  V30 4151 H 365.677 -0.621701 1.72647 0
M  V30 4152 H 364.059 -3.16645 2.37807 0
M  V30 4153 H 365.233 -1.19639 4.44998 0
M  V30 4154 H 363.548 -1.2331 3.97723 0
M  V30 4155 H 366.145 -3.9839 3.56636 0
M  V30 4156 H 366.488 -3.71695 1.87479 0
M  V30 4157 H 367.021 -2.51875 3.07902 0
M  V30 4158 H 363.76 -2.45962 6.07604 0
M  V30 4159 H 363.28 -3.59948 4.79789 0
M  V30 4160 H 364.959 -3.5762 5.39182 0
M  V30 4161 N 365.091 -1.34144 -0.827227 0
M  V30 4162 C 366.331 -1.27603 -1.59677 0
M  V30 4163 C 366.695 0.153035 -1.91389 0
M  V30 4164 O 367.896 0.342566 -2.66608 0
M  V30 4165 C 366.167 -2.13784 -2.86411 0
M  V30 4166 S 367.726 -2.24552 -3.76991 0
M  V30 4167 H 364.544 -0.453789 -0.547354 0
M  V30 4168 H 367.146 -1.69309 -0.977479 0
M  V30 4169 H 365.85 -3.16627 -2.61104 0
M  V30 4170 H 365.381 -1.72959 -3.5334 0
M  V30 4171 H 367.396 -1.41514 -4.75593 0
M  V30 4172 N 366.569 1.04691 -1.17803 0
M  V30 4173 C 367.816 1.77782 -0.969532 0
M  V30 4174 C 368.144 1.87926 0.501401 0
M  V30 4175 O 367.399 1.37918 1.38842 0
M  V30 4176 C 367.698 3.21467 -1.56186 0
M  V30 4177 C 367.364 3.3137 -3.05786 0
M  V30 4178 C 366.026 3.3378 -3.46619 0
M  V30 4179 C 368.378 3.31976 -4.01797 0
M  V30 4180 C 365.706 3.34431 -4.82051 0
M  V30 4181 C 368.058 3.34167 -5.37136 0
M  V30 4182 C 366.722 3.34866 -5.77426 0
M  V30 4183 H 365.992 0.650549 -0.354777 0
M  V30 4184 H 368.639 1.23006 -1.46772 0
M  V30 4185 H 366.944 3.79203 -0.985515 0
M  V30 4186 H 368.641 3.76652 -1.37602 0
M  V30 4187 H 365.231 3.3021 -2.73238 0
M  V30 4188 H 369.415 3.29311 -3.71306 0
M  V30 4189 H 364.671 3.33285 -5.12573 0
M  V30 4190 H 368.845 3.33585 -6.11305 0
M  V30 4191 H 366.472 3.35124 -6.82346 0
M  V30 4192 N 368.047 0.979072 1.23499 0
M  V30 4193 C 369.293 0.648178 1.92163 0
M  V30 4194 C 369.626 -0.816049 1.76222 0
M  V30 4195 O 368.901 -1.58849 1.12237 0
M  V30 4196 C 369.184 1.03773 3.44824 0
M  V30 4197 C 369.037 2.55948 3.69879 0
M  V30 4198 C 370.356 0.580653 4.36253 0
M  V30 4199 H 367.475 0.236952 0.69787 0
M  V30 4200 H 370.117 1.22012 1.45647 0
M  V30 4201 H 368.267 0.551058 3.84572 0
M  V30 4202 H 369.939 3.12179 3.3962 0
M  V30 4203 H 368.182 2.98641 3.14636 0
M  V30 4204 H 368.853 2.78255 4.76737 0
M  V30 4205 H 371.329 0.998465 4.03943 0
M  V30 4206 H 370.205 0.881663 5.41773 0
M  V30 4207 H 370.466 -0.519052 4.39042 0
M  V30 4208 N 369.525 -1.3858 0.750561 0
M  V30 4209 C 370.936 -1.82927 0.373438 0
M  V30 4210 C 371.287 -1.62634 -1.09748 0
M  V30 4211 O 370.412 -1.12588 -1.84805 0
M  V30 4212 C 371.007 -3.32088 0.671029 0
M  V30 4213 C 369.566 -3.74795 0.34722 0
M  V30 4214 C 368.713 -2.61391 0.92575 0
M  V30 4215 H 371.664 -1.27351 0.946958 0
M  V30 4216 H 371.685 -3.80465 -0.0518269 0
M  V30 4217 H 371.197 -3.46826 1.74164 0
M  V30 4218 H 369.298 -3.65638 -0.716933 0
M  V30 4219 H 369.411 -4.71667 0.840656 0
M  V30 4220 H 367.775 -2.52265 0.351327 0
M  V30 4221 H 368.558 -2.78929 2.00133 0
M  V30 4222 N 371.003 -0.499398 -1.49478 0
M  V30 4223 C 372.25 0.0456899 -2.02448 0
M  V30 4224 C 372.578 1.37142 -1.37921 0
M  V30 4225 O 371.833 1.89111 -0.503544 0
M  V30 4226 C 372.132 0.248424 -3.56536 0
M  V30 4227 C 371.798 -0.999107 -4.39692 0
M  V30 4228 C 370.46 -1.34108 -4.62135 0
M  V30 4229 C 372.812 -1.82842 -4.88076 0
M  V30 4230 C 370.14 -2.51191 -5.30208 0
M  V30 4231 C 372.492 -2.99076 -5.57437 0
M  V30 4232 C 371.156 -3.33655 -5.78127 0
M  V30 4233 H 370.426 0.0167191 -0.740811 0
M  V30 4234 H 373.073 -0.65923 -1.79795 0
M  V30 4235 H 371.378 1.03586 -3.77859 0
M  V30 4236 H 373.075 0.684605 -3.95113 0
M  V30 4237 H 369.665 -0.722729 -4.22463 0
M  V30 4238 H 373.849 -1.57737 -4.70566 0
M  V30 4239 H 369.105 -2.78221 -5.44429 0
M  V30 4240 H 373.279 -3.63664 -5.93904 0
M  V30 4241 H 370.906 -4.24483 -6.30649 0
M  V30 4242 N 372.481 1.55866 -0.233164 0
M  V30 4243 C 373.431 2.17442 0.685774 0
M  V30 4244 C 374.415 1.12617 1.14918 0
M  V30 4245 O 375.607 1.3857 1.10124 0
M  V30 4246 C 372.736 2.86685 1.88856 0
M  V30 4247 C 371.822 3.98749 1.4443 0
M  V30 4248 N 372.213 5.00744 0.713364 0
M  V30 4249 C 370.511 4.11052 1.73068 0
M  V30 4250 C 371.212 5.79673 0.485205 0
M  V30 4251 N 370.188 5.33454 1.04536 0
M  V30 4252 H 373.99 2.93659 0.119022 0
M  V30 4253 H 371.504 1.62362 -0.0348995 0
M  V30 4254 H 373.501 3.29218 2.55776 0
M  V30 4255 H 372.161 2.11967 2.45967 0
M  V30 4256 H 373.172 5.16613 0.364861 0
M  V30 4257 H 369.849 3.47495 2.31416 0
M  V30 4258 H 371.239 6.71829 -0.097365 0
M  V30 4259 N 373.959 -0.0401083 1.57549 0
M  V30 4260 C 375.206 -0.733125 1.88763 0
M  V30 4261 C 375.534 -1.75946 0.829058 0
M  V30 4262 O 374.789 -1.94949 -0.171323 0
M  V30 4263 C 375.088 -1.44902 3.26708 0
M  V30 4264 C 374.754 -0.559707 4.47413 0
M  V30 4265 C 373.416 -0.314731 4.8017 0
M  V30 4266 C 375.768 0.0549743 5.21171 0
M  V30 4267 C 373.096 0.553886 5.8408 0
M  V30 4268 C 375.448 0.911229 6.26003 0
M  V30 4269 C 374.112 1.16577 6.57241 0
M  V30 4270 H 373.382 -0.268269 0.690733 0
M  V30 4271 H 376.029 0.00679408 1.91499 0
M  V30 4272 H 374.334 -2.26197 3.1991 0
M  V30 4273 H 376.031 -1.99058 3.48105 0
M  V30 4274 H 372.621 -0.760793 4.21794 0
M  V30 4275 H 376.805 -0.121344 4.96152 0
M  V30 4276 H 372.061 0.759518 6.06664 0
M  V30 4277 H 376.235 1.3941 6.82303 0
M  V30 4278 H 373.862 1.84058 7.37582 0
M  V30 4279 N 375.437 -1.54477 -0.31217 0
M  V30 4280 C 376.4 -1.83923 -1.36766 0
M  V30 4281 C 377.4 -0.711563 -1.44199 0
M  V30 4282 O 378.59 -0.979866 -1.44029 0
M  V30 4283 C 375.722 -2.0095 -2.75376 0
M  V30 4284 H 376.915 -2.78239 -1.11906 0
M  V30 4285 H 374.468 -1.46369 -0.548257 0
M  V30 4286 H 375.203 -1.08883 -3.05475 0
M  V30 4287 H 374.988 -2.83018 -2.71373 0
M  V30 4288 H 376.478 -2.2514 -3.51713 0
M  V30 4289 N 376.915 0.57481 -1.46744 0
M  V30 4290 C 378.331 0.898981 -1.31873 0
M  V30 4291 C 378.531 1.99313 -0.29605 0
M  V30 4292 O 377.587 2.50728 0.298621 0
M  V30 4293 C 378.9 1.30886 -2.7072 0
M  V30 4294 C 380.448 1.42127 -2.78871 0
M  V30 4295 C 380.923 1.86478 -4.18318 0
M  V30 4296 N 382.414 1.93658 -4.20774 0
M  V30 4297 C 383.149 2.29267 -5.2557 0
M  V30 4298 N 382.645 2.63612 -6.40688 0
M  V30 4299 N 384.438 2.29889 -5.1294 0
M  V30 4300 H 376.589 -0.147839 -2.11885 0
M  V30 4301 H 378.852 -0.00347013 -0.947994 0
M  V30 4302 H 378.558 0.578853 -3.46904 0
M  V30 4303 H 378.432 2.26874 -3.01343 0
M  V30 4304 H 380.819 2.14213 -2.0297 0
M  V30 4305 H 380.9 0.443705 -2.51922 0
M  V30 4306 H 380.544 1.14968 -4.94717 0
M  V30 4307 H 380.474 2.85207 -4.42679 0
M  V30 4308 H 382.965 1.69574 -3.37718 0
M  V30 4309 H 383.278 2.89759 -7.16421 0
M  V30 4310 H 381.623 2.61232 -6.44036 0
M  V30 4311 H 384.814 2.02485 -4.22039 0
M  V30 4312 H 384.987 2.57312 -5.94722 0
M  V30 4313 N 378.394 1.34581 0.820102 0
M  V30 4314 C 379.643 1.26437 1.57151 0
M  V30 4315 C 379.956 -0.163111 1.94919 0
M  V30 4316 O 381.162 -0.366722 2.69012 0
M  V30 4317 C 379.618 2.21658 2.83541 0
M  V30 4318 C 379.226 3.69679 2.53065 0
M  V30 4319 C 380.97 2.22428 3.61561 0
M  V30 4320 C 378.877 4.56761 3.75664 0
M  V30 4321 H 377.807 0.469707 0.589823 0
M  V30 4322 H 380.458 1.59763 0.902656 0
M  V30 4323 H 378.84 1.81287 3.52067 0
M  V30 4324 H 380.014 4.18605 1.92631 0
M  V30 4325 H 378.329 3.71384 1.88316 0
M  V30 4326 H 380.926 2.8471 4.52597 0
M  V30 4327 H 381.269 1.22434 3.97889 0
M  V30 4328 H 381.802 2.61259 2.99981 0
M  V30 4329 H 378.541 5.57702 3.44454 0
M  V30 4330 H 378.061 4.12568 4.35371 0
M  V30 4331 H 379.74 4.71509 4.43044 0
M  V30 4332 N 379.872 -1.04064 1.18357 0
M  V30 4333 C 381.283 -1.58719 0.98312 0
M  V30 4334 C 381.634 -1.90556 -0.467193 0
M  V30 4335 O 380.759 -1.69561 -1.34454 0
M  V30 4336 C 381.354 -2.88379 1.77828 0
M  V30 4337 C 379.913 -3.3965 1.62218 0
M  V30 4338 C 379.06 -2.13235 1.77274 0
M  V30 4339 H 382.011 -0.867359 1.32901 0
M  V30 4340 H 382.032 -3.58773 1.26737 0
M  V30 4341 H 381.544 -2.65176 2.83379 0
M  V30 4342 H 379.645 -3.67866 0.592036 0
M  V30 4343 H 379.758 -4.13475 2.42023 0
M  V30 4344 H 378.122 -2.24542 1.20221 0
M  V30 4345 H 378.905 -1.92487 2.8426 0
M  V30 4346 N 381.35 -0.985608 -1.22978 0
M  V30 4347 C 382.58 -0.674603 -1.95276 0
M  V30 4348 C 382.988 0.763483 -1.73111 0
M  V30 4349 O 382.331 1.52601 -1.02268 0
M  V30 4350 C 382.393 -0.891597 -3.48268 0
M  V30 4351 C 382.057 -2.31275 -3.94158 0
M  V30 4352 C 383.054 -3.29179 -4.02415 0
M  V30 4353 C 380.739 -2.64524 -4.27004 0
M  V30 4354 C 382.733 -4.58407 -4.42879 0
M  V30 4355 C 380.42 -3.93974 -4.67149 0
M  V30 4356 C 381.418 -4.90727 -4.75053 0
M  V30 4357 O 381.106 -6.17865 -5.14294 0
M  V30 4358 H 380.838 -0.249251 -0.628371 0
M  V30 4359 H 383.392 -1.32106 -1.5728 0
M  V30 4360 H 381.622 -0.187962 -3.86243 0
M  V30 4361 H 383.311 -0.576957 -4.01779 0
M  V30 4362 H 384.077 -3.04823 -3.77237 0
M  V30 4363 H 379.956 -1.89923 -4.2006 0
M  V30 4364 H 383.5 -5.33926 -4.48964 0
M  V30 4365 H 379.397 -4.18122 -4.91777 0
M  V30 4366 H 380.165 -6.21694 -5.32389 0
M  V30 4367 N 382.828 1.3818 -0.7579 0
M  V30 4368 C 384.056 2.04301 -0.326937 0
M  V30 4369 C 384.471 1.57163 1.0462 0
M  V30 4370 O 383.828 0.746626 1.66529 0
M  V30 4371 C 383.879 3.59846 -0.345363 0
M  V30 4372 O 383.6 4.05256 -1.66432 0
M  V30 4373 C 385.101 4.4319 0.098927 0
M  V30 4374 H 382.321 0.656443 -0.139012 0
M  V30 4375 H 384.865 1.76786 -1.02796 0
M  V30 4376 H 383.02 3.86182 0.306955 0
M  V30 4377 H 383.434 4.99709 -1.59345 0
M  V30 4378 H 384.908 5.51989 0.0348745 0
M  V30 4379 H 385.385 4.23947 1.14741 0
M  V30 4380 H 385.991 4.22051 -0.52468 0
M  V30 4381 N 384.306 0.507319 1.49211 0
M  V30 4382 C 385.236 -0.256939 2.32082 0
M  V30 4383 C 386.217 -0.956609 1.40652 0
M  V30 4384 O 387.402 -0.946788 1.69557 0
M  V30 4385 C 384.532 -1.31802 3.21318 0
M  V30 4386 C 383.486 -0.737855 4.21592 0
M  V30 4387 C 382.812 -1.89992 4.99807 0
M  V30 4388 C 384.112 0.275325 5.21574 0
M  V30 4389 H 385.806 0.434798 2.96226 0
M  V30 4390 H 383.352 0.210546 1.42452 0
M  V30 4391 H 385.305 -1.86045 3.78107 0
M  V30 4392 H 384.029 -2.03903 2.5513 0
M  V30 4393 H 382.688 -0.217126 3.65956 0
M  V30 4394 H 382.336 -2.60877 4.30061 0
M  V30 4395 H 382.036 -1.51777 5.6766 0
M  V30 4396 H 383.56 -2.44657 5.59442 0
M  V30 4397 H 384.974 -0.179193 5.7302 0
M  V30 4398 H 383.371 0.573649 5.97352 0
M  V30 4399 H 384.441 1.18903 4.70096 0
M  V30 4400 N 385.784 -1.5574 0.241426 0
M  V30 4401 C 387.009 -2.0366 -0.392111 0
M  V30 4402 C 387.434 -1.11969 -1.51144 0
M  V30 4403 O 386.792 -0.111594 -1.80956 0
M  V30 4404 C 386.84 -3.49638 -0.882371 0
M  V30 4405 O 385.944 -3.6108 -1.99235 0
M  V30 4406 H 385.285 -0.658379 -0.0862122 0
M  V30 4407 H 387.815 -2.01302 0.365881 0
M  V30 4408 H 387.825 -3.90351 -1.18702 0
M  V30 4409 H 386.5 -4.15852 -0.0632361 0
M  V30 4410 H 385.077 -3.32262 -1.69282 0
M  V30 4411 N 387.262 0.0317525 -1.57568 0
M  V30 4412 C 388.194 1.06073 -2.03178 0
M  V30 4413 C 389.207 1.32627 -0.944132 0
M  V30 4414 O 390.396 1.30162 -1.22148 0
M  V30 4415 C 387.496 2.40297 -2.38978 0
M  V30 4416 C 386.669 2.33137 -3.70089 0
M  V30 4417 C 385.728 3.49787 -3.9311 0
M  V30 4418 O 384.754 3.29403 -4.64201 0
M  V30 4419 N 385.956 4.71562 -3.38541 0
M  V30 4420 H 388.721 0.672006 -2.92069 0
M  V30 4421 H 386.282 0.219745 -1.60402 0
M  V30 4422 H 388.274 3.1705 -2.51518 0
M  V30 4423 H 386.844 2.71024 -1.55771 0
M  V30 4424 H 386.064 1.415 -3.67928 0
M  V30 4425 H 387.352 2.25493 -4.56104 0
M  V30 4426 H 386.75 4.91024 -2.80912 0
M  V30 4427 H 385.307 5.45689 -3.56464 0
M  V30 4428 N 388.74 1.54641 0.303973 0
M  V30 4429 C 389.968 1.77768 1.05858 0
M  V30 4430 C 390.383 0.535722 1.8104 0
M  V30 4431 O 389.74 -0.494337 1.75677 0
M  V30 4432 C 389.791 2.9834 2.04146 0
M  V30 4433 O 389.512 4.17736 1.32015 0
M  V30 4434 C 391.013 3.33832 2.91669 0
M  V30 4435 H 388.233 0.592961 0.314067 0
M  V30 4436 H 390.777 2.01583 0.344149 0
M  V30 4437 H 388.932 2.76742 2.71096 0
M  V30 4438 H 389.346 4.85693 1.97998 0
M  V30 4439 H 390.82 4.21448 3.56491 0
M  V30 4440 H 391.297 2.51857 3.59812 0
M  V30 4441 H 391.903 3.57579 2.30254 0
M  V30 4442 N 390.218 -0.567019 1.47046 0
M  V30 4443 C 391.634 -0.891975 1.32348 0
M  V30 4444 C 391.834 -1.99154 0.306616 0
M  V30 4445 O 390.89 -2.50883 -0.28532 0
M  V30 4446 C 392.203 -1.29449 2.7141 0
M  V30 4447 C 393.751 -1.40646 2.79621 0
M  V30 4448 C 394.226 -1.84257 4.19301 0
M  V30 4449 N 395.717 -1.91424 4.21795 0
M  V30 4450 C 396.452 -2.26476 5.26779 0
M  V30 4451 N 395.948 -2.60211 6.42077 0
M  V30 4452 N 397.741 -2.27166 5.14152 0
M  V30 4453 H 389.892 0.159074 2.11803 0
M  V30 4454 H 392.155 0.00849752 0.947962 0
M  V30 4455 H 391.861 -0.560448 3.47206 0
M  V30 4456 H 391.735 -2.25273 3.02542 0
M  V30 4457 H 394.122 -2.13133 2.04104 0
M  V30 4458 H 394.203 -0.430339 2.52154 0
M  V30 4459 H 393.847 -1.12343 4.95319 0
M  V30 4460 H 393.777 -2.82855 4.44185 0
M  V30 4461 H 396.268 -1.6778 3.38612 0
M  V30 4462 H 396.581 -2.85956 7.17948 0
M  V30 4463 H 394.926 -2.57813 6.45413 0
M  V30 4464 H 398.117 -2.00244 4.23107 0
M  V30 4465 H 398.29 -2.54154 5.96079 0
M  V30 4466 N 391.696 -1.35014 -0.812953 0
M  V30 4467 C 392.973 -1.18502 -1.55617 0
M  V30 4468 C 393.353 0.238421 -2.09749 0
M  V30 4469 O 392.701 1.2411 -1.91857 0
M  V30 4470 C 392.911 -2.24783 -2.66971 0
M  V30 4471 C 394.259 -2.60268 -3.35478 0
M  V30 4472 O 395.283 -2.23648 -2.77236 0
M  V30 4473 O 394.142 -3.2321 -4.40678 0
M  V30 4474 H 391.236 -0.459984 -0.687272 0
M  V30 4475 H 393.782 -1.46677 -0.853464 0
M  V30 4476 H 392.554 -3.20284 -2.24798 0
M  V30 4477 H 392.177 -1.97841 -3.44884 0
M  V30 4478 N 393.175 1.03435 -1.18907 0
M  V30 4479 C 394.421 1.77005 -0.989798 0
M  V30 4480 C 394.754 1.88205 0.478816 0
M  V30 4481 O 394.029 1.39481 1.35556 0
M  V30 4482 C 394.312 3.19925 -1.65287 0
M  V30 4483 C 394.165 3.1663 -3.19477 0
M  V30 4484 C 395.484 4.18189 -1.37134 0
M  V30 4485 H 392.603 0.642538 -0.360991 0
M  V30 4486 H 395.245 1.20784 -1.46667 0
M  V30 4487 H 393.395 3.67929 -1.24741 0
M  V30 4488 H 395.067 2.76567 -3.692 0
M  V30 4489 H 393.31 2.54491 -3.51307 0
M  V30 4490 H 393.981 4.1758 -3.61013 0
M  V30 4491 H 396.457 3.78761 -1.72276 0
M  V30 4492 H 395.333 5.16394 -1.86087 0
M  V30 4493 H 395.594 4.41112 -0.295424 0
M  V30 4494 N 394.653 0.992116 1.22453 0
M  V30 4495 C 395.9 0.667534 1.91181 0
M  V30 4496 C 396.228 -0.800317 1.77271 0
M  V30 4497 O 395.483 -1.59421 1.13505 0
M  V30 4498 C 395.782 1.01832 3.42586 0
M  V30 4499 C 395.448 2.47831 3.76684 0
M  V30 4500 C 394.11 2.87729 3.85701 0
M  V30 4501 C 396.462 3.42466 3.92895 0
M  V30 4502 C 393.79 4.21252 4.08367 0
M  V30 4503 C 396.142 4.75648 4.17064 0
M  V30 4504 C 394.806 5.15288 4.24305 0
M  V30 4505 H 394.076 0.244268 0.699581 0
M  V30 4506 H 396.723 1.24816 1.45235 0
M  V30 4507 H 395.028 0.355769 3.90181 0
M  V30 4508 H 396.725 0.745228 3.94014 0
M  V30 4509 H 393.315 2.15905 3.70247 0
M  V30 4510 H 397.499 3.12814 3.85307 0
M  V30 4511 H 392.755 4.51554 4.122 0
M  V30 4512 H 396.929 5.48924 4.2855 0
M  V30 4513 H 394.556 6.18769 4.41621 0
M  V30 4514 N 396.131 -1.37776 0.765217 0
M  V30 4515 C 397.408 -1.93975 0.251596 0
M  V30 4516 C 397.788 -1.69949 -1.25222 0
M  V30 4517 O 397.136 -1.04457 -2.03226 0
M  V30 4518 C 397.346 -3.43487 0.617895 0
M  V30 4519 C 398.694 -4.20564 0.584029 0
M  V30 4520 O 399.718 -3.5182 0.556888 0
M  V30 4521 O 398.577 -5.43138 0.605291 0
M  V30 4522 H 395.671 -0.82509 0.0561806 0
M  V30 4523 H 398.217 -1.47101 0.846128 0
M  V30 4524 H 396.989 -3.5453 1.65602 0
M  V30 4525 H 396.612 -3.976 -0.00403411 0
M  V30 4526 N 397.609 -0.515225 -1.4894 0
M  V30 4527 C 398.849 0.0223983 -2.04388 0
M  V30 4528 C 399.213 1.32961 -1.38511 0
M  V30 4529 O 400.414 1.95236 -1.8476 0
M  V30 4530 C 398.685 0.157056 -3.57055 0
M  V30 4531 S 400.244 0.646875 -4.34006 0
M  V30 4532 H 397.062 -0.00500662 -0.710982 0
M  V30 4533 H 399.664 -0.69243 -1.82827 0
M  V30 4534 H 398.368 -0.799412 -4.02539 0
M  V30 4535 H 397.899 0.896704 -3.83044 0
M  V30 4536 H 399.914 1.91381 -4.57808 0
M  V30 4537 N 399.087 1.5561 -0.249682 0
M  V30 4538 C 400.315 2.03411 0.378352 0
M  V30 4539 C 400.73 1.12886 1.51335 0
M  V30 4540 O 400.087 0.143833 1.81932 0
M  V30 4541 C 400.138 3.50537 0.88351 0
M  V30 4542 O 399.859 4.37614 -0.20626 0
M  V30 4543 C 401.36 4.14113 1.58195 0
M  V30 4544 H 398.58 0.664994 0.08958 0
M  V30 4545 H 401.124 2.01044 -0.374357 0
M  V30 4546 H 399.279 3.5343 1.58639 0
M  V30 4547 H 399.693 5.24199 0.177782 0
M  V30 4548 H 401.167 5.18741 1.8871 0
M  V30 4549 H 401.644 3.60767 2.50487 0
M  V30 4550 H 402.25 4.15151 0.923573 0
M  V30 4551 N 400.565 -0.0233959 1.57583 0
M  V30 4552 C 401.528 -1.00693 2.05897 0
M  V30 4553 C 402.528 -1.28693 0.964092 0
M  V30 4554 O 403.718 -1.23602 1.22753 0
M  V30 4555 C 400.85 -2.33825 2.4807 0
M  V30 4556 H 402.043 -0.589476 2.9405 0
M  V30 4557 H 399.596 -0.270354 1.53944 0
M  V30 4558 H 400.331 -2.80307 1.6309 0
M  V30 4559 H 400.116 -2.1483 3.2801 0
M  V30 4560 H 401.606 -3.04426 2.85857 0
M  V30 4561 N 402.043 -1.548 -0.295768 0
M  V30 4562 C 402.953 -1.89177 -1.38742 0
M  V30 4563 C 403.969 -0.786481 -1.55211 0
M  V30 4564 O 405.145 -1.08344 -1.69775 0
M  V30 4565 C 402.21 -2.13663 -2.73036 0
M  V30 4566 C 401.271 -3.37349 -2.65508 0
M  V30 4567 C 400.504 -3.60658 -3.93398 0
M  V30 4568 O 400.727 -2.86882 -4.93006 0
M  V30 4569 O 399.661 -4.54179 -3.94975 0
M  V30 4570 H 403.487 -2.82059 -1.12589 0
M  V30 4571 H 401.072 -1.41056 -0.492295 0
M  V30 4572 H 402.954 -2.3094 -3.52484 0
M  V30 4573 H 401.629 -1.23967 -2.99022 0
M  V30 4574 H 400.536 -3.25431 -1.84514 0
M  V30 4575 H 401.869 -4.27192 -2.44474 0
M  V30 4576 N 403.521 0.559213 -1.47345 0
M  V30 4577 C 404.469 1.68747 -1.60085 0
M  V30 4578 C 405.463 1.628 -0.46825 0
M  V30 4579 O 406.669 1.68009 -0.645977 0
M  V30 4580 H 403.044 0.558329 -0.503759 0
M  V30 4581 H 405.015 1.55138 -2.54902 0
M  V30 4582 C 403.764 3.07103 -1.63042 0
M  V30 4583 H 403.087 3.12361 -2.49541 0
M  V30 4584 H 404.527 3.85743 -1.76006 0
M  V30 4585 C 402.986 3.34935 -0.363357 0
M  V30 4586 O 403.516 3.98102 0.536416 0
M  V30 4587 N 401.722 2.89574 -0.244 0
M  V30 4588 H 401.269 2.38348 -0.977133 0
M  V30 4589 H 401.227 3.08566 0.602836 0
M  V30 4590 N 404.999 1.35443 0.805782 0
M  V30 4591 C 406.227 1.31878 1.59423 0
M  V30 4592 C 406.642 -0.103562 1.88516 0
M  V30 4593 O 405.999 -1.05575 1.48863 0
M  V30 4594 C 406.05 2.12426 2.92502 0
M  V30 4595 O 405.771 3.49115 2.6467 0
M  V30 4596 C 407.272 2.16455 3.86862 0
M  V30 4597 H 404.492 0.453002 0.495005 0
M  V30 4598 H 407.036 1.78309 1.00131 0
M  V30 4599 H 405.191 1.69593 3.48306 0
M  V30 4600 H 405.605 3.90957 3.49647 0
M  V30 4601 H 407.079 2.77204 4.77349 0
M  V30 4602 H 407.556 1.16352 4.23508 0
M  V30 4603 H 408.162 2.59453 3.36993 0
M  V30 4604 N 406.477 -1.02803 1.19454 0
M  V30 4605 C 407.407 -2.12999 0.956758 0
M  V30 4606 C 408.388 -1.69743 -0.110188 0
M  V30 4607 O 409.573 -1.94148 0.0450038 0
M  V30 4608 C 406.703 -3.43746 0.495553 0
M  V30 4609 C 405.657 -4.00688 1.50443 0
M  V30 4610 C 404.983 -5.27067 0.900275 0
M  V30 4611 C 406.283 -4.35397 2.8849 0
M  V30 4612 H 407.977 -2.33148 1.87836 0
M  V30 4613 H 405.523 -1.12045 0.904539 0
M  V30 4614 H 407.476 -4.2021 0.316493 0
M  V30 4615 H 406.2 -3.23321 -0.461646 0
M  V30 4616 H 404.859 -3.2632 1.67065 0
M  V30 4617 H 404.507 -5.02959 -0.064503 0
M  V30 4618 H 404.207 -5.66127 1.57397 0
M  V30 4619 H 405.731 -6.06196 0.73203 0
M  V30 4620 H 407.145 -5.02795 2.75446 0
M  V30 4621 H 405.542 -4.85541 3.52661 0
M  V30 4622 H 406.612 -3.44662 3.41081 0
M  V30 4623 N 407.956 -0.998596 -1.21925 0
M  V30 4624 C 409.203 -0.677663 -1.90824 0
M  V30 4625 C 409.531 0.790905 -1.77693 0
M  V30 4626 O 408.786 1.58817 -1.14349 0
M  V30 4627 C 409.085 -1.03648 -3.42041 0
M  V30 4628 C 408.751 -2.49825 -3.75364 0
M  V30 4629 C 407.413 -2.8977 -3.8417 0
M  V30 4630 C 409.765 -3.44545 -3.91073 0
M  V30 4631 C 407.093 -4.23412 -4.06127 0
M  V30 4632 C 409.445 -4.77853 -4.14535 0
M  V30 4633 C 408.109 -5.17531 -4.21566 0
M  V30 4634 H 407.379 -0.247975 -0.698276 0
M  V30 4635 H 410.026 -1.25584 -1.44571 0
M  V30 4636 H 408.331 -0.376457 -3.89987 0
M  V30 4637 H 410.028 -0.766113 -3.93614 0
M  V30 4638 H 406.618 -2.17866 -3.69097 0
M  V30 4639 H 410.802 -3.14853 -3.83642 0
M  V30 4640 H 406.058 -4.53734 -4.09799 0
M  V30 4641 H 410.232 -5.51189 -4.25633 0
M  V30 4642 H 407.859 -6.21102 -4.38333 0
M  V30 4643 N 409.434 1.37368 -0.772513 0
M  V30 4644 C 410.664 2.03647 -0.348082 0
M  V30 4645 C 411.072 1.58392 1.03482 0
M  V30 4646 O 410.415 0.760921 1.672 0
M  V30 4647 C 410.477 3.58131 -0.313404 0
M  V30 4648 C 410.141 4.2652 -1.64102 0
M  V30 4649 C 411.138 4.50587 -2.5936 0
M  V30 4650 C 408.823 4.64335 -1.91567 0
M  V30 4651 C 410.817 5.11526 -3.80289 0
M  V30 4652 C 408.504 5.24996 -3.12766 0
M  V30 4653 C 409.502 5.48529 -4.06946 0
M  V30 4654 O 409.19 6.07921 -5.26011 0
M  V30 4655 H 408.922 0.660538 -0.143753 0
M  V30 4656 H 411.476 1.76669 -1.04772 0
M  V30 4657 H 409.706 3.84159 0.442617 0
M  V30 4658 H 411.395 4.05813 0.0840613 0
M  V30 4659 H 412.161 4.21784 -2.39423 0
M  V30 4660 H 408.04 4.45353 -1.19088 0
M  V30 4661 H 411.584 5.29811 -4.53813 0
M  V30 4662 H 407.481 5.53223 -3.32588 0
M  V30 4663 H 408.249 6.26398 -5.26847 0
M  V30 4664 N 410.912 0.523116 1.48665 0
M  V30 4665 C 412.158 -0.0134963 2.02796 0
M  V30 4666 C 412.491 -1.34582 1.40004 0
M  V30 4667 O 411.766 -1.86756 0.543381 0
M  V30 4668 C 412.049 -0.14276 3.59817 0
M  V30 4669 C 411.902 1.21425 4.331 0
M  V30 4670 C 413.221 -0.872856 4.31357 0
M  V30 4671 H 410.34 -0.00343074 0.736992 0
M  V30 4672 H 412.982 0.678816 1.7746 0
M  V30 4673 H 411.132 -0.732401 3.81534 0
M  V30 4674 H 412.804 1.84447 4.2282 0
M  V30 4675 H 411.047 1.79791 3.94788 0
M  V30 4676 H 411.718 1.07687 5.41394 0
M  V30 4677 H 414.194 -0.372555 4.14429 0
M  V30 4678 H 413.07 -0.932185 5.40927 0
M  V30 4679 H 413.331 -1.92161 3.98154 0
M  V30 4680 N 412.39 -1.55475 0.257931 0
M  V30 4681 C 413.337 -2.21837 -0.636939 0
M  V30 4682 C 414.307 -1.18596 -1.16294 0
M  V30 4683 O 415.492 -1.47081 -1.21539 0
M  V30 4684 C 412.632 -2.9301 -1.82317 0
M  V30 4685 C 411.745 -4.10931 -1.33265 0
M  V30 4686 C 410.88 -4.69791 -2.47931 0
M  V30 4687 C 409.919 -5.7994 -1.95796 0
M  V30 4688 N 409.056 -6.32935 -3.0387 0
M  V30 4689 H 413.896 -2.9793 -0.0643591 0
M  V30 4690 H 411.433 -1.47086 -0.0200031 0
M  V30 4691 H 413.391 -3.3248 -2.52018 0
M  V30 4692 H 412.021 -2.1937 -2.36805 0
M  V30 4693 H 411.073 -3.76699 -0.52931 0
M  V30 4694 H 412.385 -4.90417 -0.910654 0
M  V30 4695 H 411.539 -5.11892 -3.25656 0
M  V30 4696 H 410.278 -3.89545 -2.93438 0
M  V30 4697 H 409.283 -5.37305 -1.16546 0
M  V30 4698 H 410.508 -6.62043 -1.51246 0
M  V30 4699 H 408.454 -5.55591 -3.48791 0
M  V30 4700 H 408.371 -7.07645 -2.66035 0
M  V30 4701 H 409.639 -6.79695 -3.81621 0
M  V30 4702 N 413.868 0.0150385 -1.57593 0
M  V30 4703 C 414.778 1.02791 -2.10882 0
M  V30 4704 C 415.794 1.38702 -1.0506 0
M  V30 4705 O 416.97 1.47739 -1.36877 0
M  V30 4706 C 414.035 2.30568 -2.58919 0
M  V30 4707 C 413.096 2.01108 -3.79281 0
M  V30 4708 C 412.329 3.22794 -4.25018 0
M  V30 4709 O 412.552 4.33959 -3.70183 0
M  V30 4710 O 411.486 3.07672 -5.17322 0
M  V30 4711 H 415.312 0.604973 -2.97613 0
M  V30 4712 H 412.897 0.23292 -1.47573 0
M  V30 4713 H 414.779 3.05662 -2.90084 0
M  V30 4714 H 413.454 2.72129 -1.75293 0
M  V30 4715 H 412.361 1.23537 -3.53114 0
M  V30 4716 H 413.694 1.64394 -4.63935 0
M  V30 4717 N 415.346 1.54954 0.287554 0
M  V30 4718 C 416.571 1.79209 1.04397 0
M  V30 4719 C 416.996 0.556431 1.79682 0
M  V30 4720 O 416.354 -0.493518 1.74454 0
M  V30 4721 C 416.402 3.00739 1.98969 0
M  V30 4722 O 415.506 2.74805 3.075 0
M  V30 4723 H 414.847 0.592755 0.299227 0
M  V30 4724 H 417.377 2.02068 0.320886 0
M  V30 4725 H 417.387 3.29077 2.4119 0
M  V30 4726 H 416.062 3.90329 1.43582 0
M  V30 4727 H 414.639 2.57523 2.69697 0
M  V30 4728 N 416.824 -0.551391 1.4764 0
M  V30 4729 C 418.052 -1.33357 1.58189 0
M  V30 4730 C 418.467 -1.87342 0.234199 0
M  V30 4731 O 417.824 -1.65301 -0.77343 0
M  V30 4732 C 417.875 -2.49942 2.61173 0
M  V30 4733 O 417.596 -1.98187 3.90709 0
M  V30 4734 C 419.097 -3.42072 2.8196 0
M  V30 4735 H 416.317 -0.40631 0.533998 0
M  V30 4736 H 418.861 -0.667367 1.93304 0
M  V30 4737 H 417.016 -3.12489 2.28975 0
M  V30 4738 H 417.43 -2.74342 4.47031 0
M  V30 4739 H 418.904 -4.20278 3.57869 0
M  V30 4740 H 419.381 -3.95978 1.89995 0
M  V30 4741 H 419.987 -2.85336 3.15378 0
M  V30 4742 N 418.302 -1.35869 -0.798587 0
M  V30 4743 C 419.232 -1.32118 -1.92528 0
M  V30 4744 C 420.213 -0.194209 -1.68988 0
M  V30 4745 O 421.398 -0.390426 -1.90235 0
M  V30 4746 C 418.528 -1.10047 -3.29404 0
M  V30 4747 C 417.482 -2.19471 -3.67446 0
M  V30 4748 C 416.808 -1.82555 -5.02571 0
M  V30 4749 C 418.108 -3.61495 -3.76987 0
M  V30 4750 H 419.802 -2.26394 -1.95924 0
M  V30 4751 H 417.348 -1.08981 -0.94123 0
M  V30 4752 H 419.301 -1.06061 -4.07835 0
M  V30 4753 H 418.025 -0.122195 -3.26371 0
M  V30 4754 H 416.684 -2.22568 -2.91306 0
M  V30 4755 H 416.332 -0.833249 -4.9605 0
M  V30 4756 H 416.032 -2.5581 -5.28995 0
M  V30 4757 H 417.556 -1.80108 -5.83432 0
M  V30 4758 H 418.97 -3.60676 -4.4563 0
M  V30 4759 H 417.367 -4.33577 -4.14887 0
M  V30 4760 H 418.437 -3.97065 -2.78329 0
M  V30 4761 N 419.78 1.02168 -1.19998 0
M  V30 4762 C 421.026 1.7606 -1.01855 0
M  V30 4763 C 421.381 1.87178 0.445222 0
M  V30 4764 O 420.674 1.3828 1.32624 0
M  V30 4765 C 420.868 3.18081 -1.62969 0
M  V30 4766 C 420.697 3.20809 -3.15137 0
M  V30 4767 C 419.467 3.28342 -3.84083 0
M  V30 4768 C 421.665 3.07268 -4.1242 0
M  V30 4769 N 419.647 3.2052 -5.23584 0
M  V30 4770 C 421.018 3.0716 -5.38566 0
M  V30 4771 C 423.073 2.91448 -4.03686 0
M  V30 4772 C 421.776 2.92853 -6.56985 0
M  V30 4773 C 423.802 2.78494 -5.21723 0
M  V30 4774 C 423.164 2.79046 -6.46771 0
M  V30 4775 H 419.263 0.655192 -0.426905 0
M  V30 4776 H 421.847 1.21564 -1.52087 0
M  V30 4777 H 420.018 3.70882 -1.15329 0
M  V30 4778 H 421.75 3.80375 -1.38192 0
M  V30 4779 H 418.505 3.34859 -3.34913 0
M  V30 4780 H 418.929 3.19997 -5.96599 0
M  V30 4781 H 423.571 2.89838 -3.07821 0
M  V30 4782 H 421.289 2.93213 -7.53028 0
M  V30 4783 H 424.875 2.67278 -5.16773 0
M  V30 4784 H 423.755 2.69134 -7.36571 0
M  V30 4785 N 421.258 1.00505 1.21394 0
M  V30 4786 C 422.188 0.585684 2.26035 0
M  V30 4787 C 423.169 -0.393525 1.65485 0
M  V30 4788 O 424.354 -0.281497 1.92149 0
M  V30 4789 C 421.484 -0.0884283 3.47187 0
M  V30 4790 C 420.438 0.810567 4.20254 0
M  V30 4791 C 419.764 0.00286382 5.347 0
M  V30 4792 C 421.064 2.1132 4.77641 0
M  V30 4793 H 422.758 1.46039 2.61368 0
M  V30 4794 H 420.304 0.703648 1.25638 0
M  V30 4795 H 422.257 -0.393286 4.19561 0
M  V30 4796 H 420.981 -0.997766 3.10986 0
M  V30 4797 H 419.64 1.09925 3.49731 0
M  V30 4798 H 419.288 -0.907765 4.94741 0
M  V30 4799 H 418.988 0.601444 5.84514 0
M  V30 4800 H 420.512 -0.295808 6.09883 0
M  V30 4801 H 421.926 1.87148 5.41893 0
M  V30 4802 H 420.323 2.66164 5.37845 0
M  V30 4803 H 421.393 2.78393 3.9702 0
M  V30 4804 N 422.737 -1.36956 0.779787 0
M  V30 4805 C 423.965 -2.03755 0.359398 0
M  V30 4806 C 424.38 -1.58807 -1.02106 0
M  V30 4807 O 423.737 -0.773024 -1.6532 0
M  V30 4808 C 423.788 -3.59251 0.402568 0
M  V30 4809 O 423.509 -4.02557 1.72858 0
M  V30 4810 C 425.01 -4.43291 -0.0284068 0
M  V30 4811 H 422.23 -0.654148 0.149437 0
M  V30 4812 H 424.774 -1.75128 1.05595 0
M  V30 4813 H 422.929 -3.86621 -0.245478 0
M  V30 4814 H 423.343 -4.97111 1.67275 0
M  V30 4815 H 424.817 -5.51975 0.0529466 0
M  V30 4816 H 425.294 -4.25719 -1.07982 0
M  V30 4817 H 425.9 -4.21163 0.591758 0
M  V30 4818 N 424.215 -0.530993 -1.48385 0
M  V30 4819 C 425.44 0.000729535 -2.074 0
M  V30 4820 C 425.865 1.27298 -1.3848 0
M  V30 4821 O 425.223 1.75599 -0.451081 0
M  V30 4822 C 425.271 0.206697 -3.60007 0
M  V30 4823 O 424.375 1.27514 -3.92191 0
M  V30 4824 H 423.716 -0.039583 -0.662819 0
M  V30 4825 H 426.246 -0.739194 -1.9078 0
M  V30 4826 H 426.256 0.42904 -4.05738 0
M  V30 4827 H 424.931 -0.722675 -4.09573 0
M  V30 4828 H 423.508 1.03537 -3.58238 0
M  V30 4829 N 425.693 1.55336 -0.266172 0
M  V30 4830 C 426.623 2.25146 0.618981 0
M  V30 4831 C 427.604 1.23845 1.16604 0
M  V30 4832 O 428.789 1.52544 1.20183 0
M  V30 4833 C 425.919 2.96572 1.80728 0
M  V30 4834 C 424.873 4.04726 1.39215 0
M  V30 4835 C 424.199 4.63678 2.66283 0
M  V30 4836 C 425.499 5.19407 0.548942 0
M  V30 4837 H 427.193 2.99377 0.0368116 0
M  V30 4838 H 424.739 1.43991 0.0162651 0
M  V30 4839 H 426.692 3.44116 2.43232 0
M  V30 4840 H 425.416 2.19861 2.41514 0
M  V30 4841 H 424.075 3.57979 0.790351 0
M  V30 4842 H 423.723 3.83646 3.25308 0
M  V30 4843 H 423.423 5.367 2.39222 0
M  V30 4844 H 424.947 5.13967 3.29651 0
M  V30 4845 H 426.361 5.63059 1.07876 0
M  V30 4846 H 424.758 5.98936 0.373593 0
M  V30 4847 H 425.828 4.8295 -0.434394 0
M  V30 4848 N 427.171 -0.0066808 1.57599 0
M  V30 4849 C 428.119 -1.01851 2.09115 0
M  V30 4850 C 429.113 -1.36021 1.00969 0
M  V30 4851 O 430.319 -1.34663 1.19439 0
M  V30 4852 H 426.694 -0.346083 0.667631 0
M  V30 4853 H 428.665 -0.558394 2.93129 0
M  V30 4854 C 427.414 -2.30374 2.60429 0
M  V30 4855 H 426.737 -2.04947 3.43273 0
M  V30 4856 H 428.177 -2.99466 3.00161 0
M  V30 4857 C 426.636 -3.00893 1.51542 0
M  V30 4858 O 427.166 -3.91614 0.894484 0
M  V30 4859 N 425.372 -2.62603 1.2445 0
M  V30 4860 H 424.919 -1.88911 1.75129 0
M  V30 4861 H 424.877 -3.10101 0.518137 0
M  V30 4862 N 428.649 -1.55105 -0.279332 0
M  V30 4863 C 429.612 -1.86783 -1.32834 0
M  V30 4864 C 430.612 -0.74199 -1.42657 0
M  V30 4865 O 431.802 -1.0102 -1.41918 0
M  V30 4866 C 428.934 -2.06746 -2.71052 0
M  V30 4867 H 430.127 -2.8055 -1.05979 0
M  V30 4868 H 427.68 -1.47499 -0.517087 0
M  V30 4869 H 428.415 -1.15339 -3.03097 0
M  V30 4870 H 428.2 -2.88711 -2.65309 0
M  V30 4871 H 429.69 -2.32549 -3.46858 0
M  V30 4872 N 430.127 0.543554 -1.4793 0
M  V30 4873 C 431.367 1.31072 -1.56843 0
M  V30 4874 C 431.731 1.90604 -0.231124 0
M  V30 4875 O 432.932 2.68091 -0.195165 0
M  V30 4876 C 431.203 2.38106 -2.66533 0
M  V30 4877 S 432.762 3.24729 -2.95122 0
M  V30 4878 H 429.58 0.446035 -0.553691 0
M  V30 4879 H 432.182 0.620777 -1.85382 0
M  V30 4880 H 430.886 1.92828 -3.62278 0
M  V30 4881 H 430.417 3.11824 -2.39852 0
M  V30 4882 H 432.432 4.37891 -2.3338 0
M  V30 4883 N 431.605 1.3629 0.791371 0
M  V30 4884 C 432.535 1.33137 1.91825 0
M  V30 4885 C 433.516 0.203168 1.68882 0
M  V30 4886 O 434.701 0.400509 1.90025 0
M  V30 4887 C 431.831 1.11793 3.28816 0
M  V30 4888 C 430.785 2.21417 3.66277 0
M  V30 4889 C 430.111 1.85218 5.01596 0
M  V30 4890 C 431.411 3.63489 3.75064 0
M  V30 4891 H 433.105 2.2743 1.9472 0
M  V30 4892 H 430.651 1.09479 0.935437 0
M  V30 4893 H 432.604 1.08222 4.07266 0
M  V30 4894 H 431.328 0.139501 3.26302 0
M  V30 4895 H 429.987 2.2411 2.90121 0
M  V30 4896 H 429.635 0.859544 4.95602 0
M  V30 4897 H 429.335 2.58611 5.27631 0
M  V30 4898 H 430.859 1.832 5.82469 0
M  V30 4899 H 432.273 3.63034 4.43711 0
M  V30 4900 H 430.67 4.35771 4.12582 0
M  V30 4901 H 431.74 3.98536 2.76219 0
M  V30 4902 N 433.083 -1.0153 1.20538 0
M  V30 4903 C 434.36 -1.72327 0.925343 0
M  V30 4904 C 434.74 -2.03383 -0.565547 0
M  V30 4905 O 434.088 -1.69934 -1.52757 0
M  V30 4906 C 434.298 -2.9902 1.79967 0
M  V30 4907 C 435.646 -3.72258 2.04228 0
M  V30 4908 O 436.67 -3.08979 1.77231 0
M  V30 4909 O 435.529 -4.86053 2.4983 0
M  V30 4910 H 432.623 -0.751099 0.346092 0
M  V30 4911 H 435.169 -1.07366 1.31417 0
M  V30 4912 H 433.941 -2.72402 2.80915 0
M  V30 4913 H 433.564 -3.71721 1.41099 0
M  V30 4914 N 434.561 -1.01147 -1.20859 0
M  V30 4915 C 435.972 -0.730205 -1.71828 0
M  V30 4916 C 436.323 0.751662 -1.8123 0
M  V30 4917 O 435.448 1.58686 -1.47132 0
M  V30 4918 C 436.043 -1.31885 -3.12077 0
M  V30 4919 C 434.602 -1.08656 -3.60376 0
M  V30 4920 C 433.749 -1.42769 -2.37723 0
M  V30 4921 H 436.7 -1.18158 -1.05945 0
M  V30 4922 H 436.721 -0.706793 -3.73878 0
M  V30 4923 H 436.233 -2.39737 -3.05201 0
M  V30 4924 H 434.334 -0.0254814 -3.72591 0
M  V30 4925 H 434.447 -1.76301 -4.45483 0
M  V30 4926 H 432.811 -0.846603 -2.40218 0
M  V30 4927 H 433.594 -2.51666 -2.33493 0
M  V30 4928 N 436.039 1.36541 -0.78704 0
M  V30 4929 C 437.286 1.99304 -0.358341 0
M  V30 4930 C 437.614 1.62467 1.06933 0
M  V30 4931 O 436.869 0.870019 1.75297 0
M  V30 4932 C 437.168 3.54343 -0.466485 0
M  V30 4933 C 436.834 4.10993 -1.85461 0
M  V30 4934 C 435.496 4.26177 -2.23443 0
M  V30 4935 C 437.848 4.41895 -2.76366 0
M  V30 4936 C 435.176 4.69573 -3.51736 0
M  V30 4937 C 437.528 4.86722 -4.04084 0
M  V30 4938 C 436.192 5.00112 -4.42091 0
M  V30 4939 H 435.462 0.729306 -0.131126 0
M  V30 4940 H 438.109 1.63068 -1.00404 0
M  V30 4941 H 436.414 3.90918 0.262719 0
M  V30 4942 H 438.111 4.00833 -0.115854 0
M  V30 4943 H 434.701 3.99612 -1.54946 0
M  V30 4944 H 438.885 4.29735 -2.48277 0
M  V30 4945 H 434.141 4.78127 -3.81057 0
M  V30 4946 H 438.315 5.09598 -4.7464 0
M  V30 4947 H 435.942 5.33498 -5.41557 0
M  V30 4948 N 437.518 0.538854 1.48102 0
M  V30 4949 C 438.767 0.0059532 2.01699 0
M  V30 4950 C 439.08 -1.34476 1.42041 0
M  V30 4951 O 440.286 -1.96653 1.87189 0
M  V30 4952 C 438.742 -0.0397627 3.59878 0
M  V30 4953 C 438.35 1.30659 4.28523 0
M  V30 4954 C 440.094 -0.521024 4.2129 0
M  V30 4955 C 438.001 1.22098 5.78659 0
M  V30 4956 H 436.931 -0.00154456 0.753998 0
M  V30 4957 H 439.582 0.683963 1.70277 0
M  V30 4958 H 437.964 -0.783037 3.88181 0
M  V30 4959 H 439.138 2.06613 4.11883 0
M  V30 4960 H 437.453 1.7243 3.79021 0
M  V30 4961 H 440.05 -0.603184 5.31287 0
M  V30 4962 H 440.393 -1.52885 3.8721 0
M  V30 4963 H 440.926 0.166834 3.9745 0
M  V30 4964 H 437.665 2.20424 6.17328 0
M  V30 4965 H 437.185 0.50295 5.97688 0
M  V30 4966 H 438.864 0.915345 6.40492 0
M  V30 4967 N 438.996 -1.55193 0.274407 0
M  V30 4968 C 440.226 -2.03692 -0.345442 0
M  V30 4969 C 440.634 -1.15224 -1.50067 0
M  V30 4970 O 439.977 -0.164749 -1.8296 0
M  V30 4971 C 440.039 -3.48325 -0.88939 0
M  V30 4972 C 439.703 -4.56794 0.137115 0
M  V30 4973 C 440.7 -5.11028 0.956378 0
M  V30 4974 C 438.385 -5.01568 0.27115 0
M  V30 4975 C 440.379 -6.08552 1.89587 0
M  V30 4976 C 438.066 -5.98918 1.21412 0
M  V30 4977 C 439.064 -6.52291 2.02498 0
M  V30 4978 O 438.752 -7.47738 2.952 0
M  V30 4979 H 438.484 -0.670893 -0.0829332 0
M  V30 4980 H 441.038 -2.01387 0.404056 0
M  V30 4981 H 439.268 -3.47867 -1.68895 0
M  V30 4982 H 440.957 -3.80167 -1.42225 0
M  V30 4983 H 441.723 -4.7725 0.863559 0
M  V30 4984 H 437.602 -4.5967 -0.349987 0
M  V30 4985 H 441.146 -6.50137 2.52918 0
M  V30 4986 H 437.043 -6.32114 1.30776 0
M  V30 4987 H 437.811 -7.65451 2.89874 0
M  V30 4988 N 440.474 -0.00167713 -1.576 0
M  V30 4989 C 441.721 0.68282 -1.90641 0
M  V30 4990 C 442.049 1.73686 -0.875415 0
M  V30 4991 O 441.304 1.95334 0.119575 0
M  V30 4992 C 441.603 1.36189 -3.30435 0
M  V30 4993 C 441.269 0.440887 -4.48739 0
M  V30 4994 C 439.931 0.187312 -4.80835 0
M  V30 4995 C 442.283 -0.193134 -5.20842 0
M  V30 4996 C 439.611 -0.70855 -5.82406 0
M  V30 4997 C 441.963 -1.07688 -6.23367 0
M  V30 4998 C 440.627 -1.33962 -6.53919 0
M  V30 4999 H 439.897 0.249862 -0.697603 0
M  V30 5000 H 442.544 -0.0575642 -1.91413 0
M  V30 5001 H 440.849 2.17636 -3.25794 0
M  V30 5002 H 442.546 1.89759 -3.5326 0
M  V30 5003 H 439.136 0.648694 -4.23663 0
M  V30 5004 H 443.32 -0.0102445 -4.96299 0
M  V30 5005 H 438.576 -0.920097 -6.04437 0
M  V30 5006 H 442.75 -1.57451 -6.78367 0
M  V30 5007 H 440.377 -2.03549 -7.32442 0
M  V30 5008 N 441.952 1.55251 0.271103 0
M  V30 5009 C 443.199 1.75946 1.00245 0
M  V30 5010 C 443.527 0.561611 1.86215 0
M  V30 5011 O 442.782 -0.455832 1.90317 0
M  V30 5012 C 443.081 3.01879 1.91321 0
M  V30 5013 C 442.747 4.34337 1.21086 0
M  V30 5014 C 441.409 4.70338 1.01666 0
M  V30 5015 C 443.761 5.16325 0.71119 0
M  V30 5016 C 441.089 5.8588 0.310099 0
M  V30 5017 C 443.441 6.32597 0.0182157 0
M  V30 5018 C 442.105 6.67236 -0.18768 0
M  V30 5019 H 441.375 0.643833 0.366824 0
M  V30 5020 H 444.022 1.89521 0.27458 0
M  V30 5021 H 442.327 2.83212 2.70736 0
M  V30 5022 H 444.024 3.15088 2.48033 0
M  V30 5023 H 440.614 4.06043 1.37213 0
M  V30 5024 H 444.798 4.88987 0.848844 0
M  V30 5025 H 440.054 6.1124 0.139873 0
M  V30 5026 H 444.228 6.9538 -0.376711 0
M  V30 5027 H 441.855 7.56618 -0.73715 0
M  V30 5028 N 443.43 -0.535701 1.48216 0
M  V30 5029 C 444.36 -1.65014 1.65204 0
M  V30 5030 C 445.341 -1.62554 0.501011 0
M  V30 5031 O 446.526 -1.7984 0.732886 0
M  V30 5032 C 443.656 -3.03616 1.68626 0
M  V30 5033 C 442.61 -3.20932 2.83172 0
M  V30 5034 C 441.936 -4.60537 2.71679 0
M  V30 5035 C 443.236 -3.04249 4.24535 0
M  V30 5036 H 444.93 -1.51053 2.58502 0
M  V30 5037 H 442.476 -0.725262 1.24402 0
M  V30 5038 H 444.429 -3.81446 1.79099 0
M  V30 5039 H 443.153 -3.18587 0.719026 0
M  V30 5040 H 441.812 -2.45517 2.72244 0
M  V30 5041 H 441.46 -4.72336 1.72937 0
M  V30 5042 H 441.16 -4.73069 3.48538 0
M  V30 5043 H 442.684 -5.40475 2.84112 0
M  V30 5044 H 444.098 -3.71877 4.36326 0
M  V30 5045 H 442.495 -3.28278 5.02348 0
M  V30 5046 H 443.565 -2.00739 4.41397 0
M  V30 5047 N 444.908 -1.36708 -0.784132 0
M  V30 5048 C 446.148 -1.32618 -1.55537 0
M  V30 5049 C 446.512 0.0920681 -1.91779 0
M  V30 5050 O 447.713 0.257573 -2.67563 0
M  V30 5051 C 445.984 -2.22788 -2.79464 0
M  V30 5052 S 447.543 -2.36432 -3.69656 0
M  V30 5053 H 444.361 -0.470973 -0.53264 0
M  V30 5054 H 446.963 -1.72333 -0.92312 0
M  V30 5055 H 445.667 -3.24774 -2.50899 0
M  V30 5056 H 445.198 -1.84112 -3.47658 0
M  V30 5057 H 447.213 -1.56573 -4.7085 0
M  V30 5058 N 446.386 1.0089 -1.21074 0
M  V30 5059 C 447.333 2.09588 -0.966512 0
M  V30 5060 C 448.303 1.65761 0.106089 0
M  V30 5061 O 449.488 1.90758 -0.0402287 0
M  V30 5062 C 446.628 3.40958 -0.533058 0
M  V30 5063 C 445.741 3.9822 -1.67467 0
M  V30 5064 C 444.876 5.17682 -1.19076 0
M  V30 5065 C 443.915 5.67043 -2.30496 0
M  V30 5066 N 443.052 6.77759 -1.83267 0
M  V30 5067 H 447.892 2.29815 -1.89708 0
M  V30 5068 H 445.429 1.12689 -0.945489 0
M  V30 5069 H 447.387 4.1637 -0.263019 0
M  V30 5070 H 446.017 3.20781 0.360505 0
M  V30 5071 H 445.069 3.1983 -2.05944 0
M  V30 5072 H 446.381 4.3085 -2.51336 0
M  V30 5073 H 445.535 6.00326 -0.877151 0
M  V30 5074 H 444.274 4.86635 -0.322066 0
M  V30 5075 H 443.279 4.82999 -2.62664 0
M  V30 5076 H 444.504 6.00121 -3.17855 0
M  V30 5077 H 442.45 6.48527 -0.987356 0
M  V30 5078 H 442.367 7.09624 -2.60711 0
M  V30 5079 H 443.635 7.63949 -1.54928 0
M  V30 5080 N 447.864 1.01787 1.20321 0
M  V30 5081 C 449.089 0.727009 1.9424 0
M  V30 5082 C 449.514 -0.706179 1.74341 0
M  V30 5083 O 448.872 -1.48609 1.03852 0
M  V30 5084 C 448.92 1.06958 3.44372 0
M  V30 5085 O 448.024 0.181983 4.11998 0
M  V30 5086 H 447.365 0.269626 0.606793 0
M  V30 5087 H 449.895 1.36158 1.52716 0
M  V30 5088 H 449.905 1.02182 3.94997 0
M  V30 5089 H 448.58 2.11378 3.58179 0
M  V30 5090 H 447.157 0.287378 3.71791 0
M  V30 5091 N 449.342 -1.36122 0.79427 0
M  V30 5092 C 450.589 -1.99111 0.368905 0
M  V30 5093 C 450.917 -1.63032 -1.0607 0
M  V30 5094 O 450.172 -0.879303 -1.74833 0
M  V30 5095 C 450.471 -3.5409 0.48527 0
M  V30 5096 C 450.137 -4.10003 1.87638 0
M  V30 5097 C 448.799 -4.24986 2.257 0
M  V30 5098 C 451.151 -4.40423 2.78706 0
M  V30 5099 C 448.479 -4.67701 3.54221 0
M  V30 5100 C 450.831 -4.84573 4.0666 0
M  V30 5101 C 449.495 -4.97761 4.44737 0
M  V30 5102 H 448.765 -0.7286 0.134992 0
M  V30 5103 H 451.412 -1.62534 1.01267 0
M  V30 5104 H 449.717 -3.91052 -0.241984 0
M  V30 5105 H 451.414 -4.00766 0.137109 0
M  V30 5106 H 448.004 -3.98784 1.57064 0
M  V30 5107 H 452.188 -4.28412 2.50553 0
M  V30 5108 H 447.444 -4.761 3.83587 0
M  V30 5109 H 451.618 -5.07074 4.77336 0
M  V30 5110 H 449.245 -5.30618 5.44379 0
M  V30 5111 N 450.82 -0.546701 -1.47814 0
M  V30 5112 C 452.236 -0.205717 -1.58269 0
M  V30 5113 C 452.436 1.29153 -1.54667 0
M  V30 5114 O 451.492 2.07098 -1.44453 0
M  V30 5115 C 452.805 -0.823065 -2.89216 0
M  V30 5116 C 454.353 -0.793328 -3.02779 0
M  V30 5117 C 454.828 -1.38955 -4.36412 0
M  V30 5118 N 456.319 -1.35227 -4.43021 0
M  V30 5119 C 457.054 -1.78333 -5.44963 0
M  V30 5120 N 456.55 -2.29246 -6.53772 0
M  V30 5121 N 458.343 -1.69467 -5.35945 0
M  V30 5122 H 450.494 -1.5196 -1.48398 0
M  V30 5123 H 452.757 -0.633078 -0.705632 0
M  V30 5124 H 452.463 -1.8749 -2.97558 0
M  V30 5125 H 452.337 -0.309915 -3.75925 0
M  V30 5126 H 454.724 0.249784 -2.94041 0
M  V30 5127 H 454.805 -1.34412 -2.17639 0
M  V30 5128 H 454.449 -2.43168 -4.45906 0
M  V30 5129 H 454.379 -0.814291 -5.20266 0
M  V30 5130 H 456.87 -0.979739 -3.64979 0
M  V30 5131 H 457.183 -2.60089 -7.27718 0
M  V30 5132 H 455.528 -2.3325 -6.5469 0
M  V30 5133 H 458.719 -1.29477 -4.49837 0
M  V30 5134 H 458.892 -2.03381 -6.15256 0
M  V30 5135 N 452.299 1.55045 -0.282633 0
M  V30 5136 C 453.247 2.24254 0.617478 0
M  V30 5137 C 454.241 1.24215 1.15183 0
M  V30 5138 O 455.447 1.42123 1.10459 0
M  V30 5139 H 451.822 0.719801 0.217693 0
M  V30 5140 H 453.793 2.98398 0.0110076 0
M  V30 5141 C 452.542 2.98281 1.78672 0
M  V30 5142 H 451.865 3.75053 1.38475 0
M  V30 5143 H 453.305 3.50017 2.393 0
M  V30 5144 C 451.764 2.04184 2.67975 0
M  V30 5145 O 452.294 1.59792 3.6855 0
M  V30 5146 N 450.5 1.70526 2.35307 0
M  V30 5147 H 450.047 2.06821 1.53567 0
M  V30 5148 H 450.005 1.07839 2.95327 0
M  V30 5149 N 453.777 0.010035 1.57597 0
M  V30 5150 C 455.002 -0.687021 1.95691 0
M  V30 5151 C 455.427 -1.65952 0.885519 0
M  V30 5152 O 454.785 -1.80633 -0.15543 0
M  V30 5153 C 454.833 -1.3864 3.32884 0
M  V30 5154 O 453.937 -2.50115 3.27897 0
M  V30 5155 H 453.278 -0.181989 0.638573 0
M  V30 5156 H 455.808 0.0662122 2.04493 0
M  V30 5157 H 455.818 -1.74754 3.6868 0
M  V30 5158 H 454.493 -0.673411 4.10412 0
M  V30 5159 H 453.07 -2.16253 3.03791 0
M  V30 5160 N 455.255 -1.55392 -0.262866 0
M  V30 5161 C 456.185 -1.91978 -1.32917 0
M  V30 5162 C 457.166 -0.7828 -1.51017 0
M  V30 5163 O 458.351 -1.04178 -1.63892 0
M  V30 5164 C 455.481 -2.20055 -2.68687 0
M  V30 5165 C 454.435 -3.35854 -2.65304 0
M  V30 5166 C 453.761 -3.49435 -4.04721 0
M  V30 5167 C 455.061 -4.71977 -2.23685 0
M  V30 5168 H 456.755 -2.81292 -1.02544 0
M  V30 5169 H 454.301 -1.3534 -0.491846 0
M  V30 5170 H 456.254 -2.44237 -3.43404 0
M  V30 5171 H 454.978 -1.27551 -3.00663 0
M  V30 5172 H 453.637 -3.11655 -1.93045 0
M  V30 5173 H 453.285 -2.54379 -4.33936 0
M  V30 5174 H 452.985 -4.27297 -4.0335 0
M  V30 5175 H 454.509 -3.7592 -4.81161 0
M  V30 5176 H 455.923 -4.95637 -2.88127 0
M  V30 5177 H 454.32 -5.52828 -2.33456 0
M  V30 5178 H 455.39 -4.70115 -1.18827 0
M  V30 5179 N 456.733 0.527833 -1.48498 0
M  V30 5180 C 457.982 1.28003 -1.55878 0
M  V30 5181 C 458.295 1.9414 -0.238577 0
M  V30 5182 O 459.501 2.7083 -0.190643 0
M  V30 5183 C 457.957 2.32272 -2.74914 0
M  V30 5184 C 457.565 1.72196 -4.13585 0
M  V30 5185 C 459.309 3.08488 -2.91608 0
M  V30 5186 C 457.216 2.74417 -5.23879 0
M  V30 5187 H 456.146 0.481413 -0.580308 0
M  V30 5188 H 458.797 0.557195 -1.74836 0
M  V30 5189 H 457.179 3.07601 -2.49395 0
M  V30 5190 H 458.353 1.03041 -4.49132 0
M  V30 5191 H 456.668 1.08464 -4.02025 0
M  V30 5192 H 459.265 3.84879 -3.71177 0
M  V30 5193 H 459.608 3.64481 -2.01145 0
M  V30 5194 H 460.141 2.40274 -3.17038 0
M  V30 5195 H 456.88 2.23242 -6.16314 0
M  V30 5196 H 456.4 3.41893 -4.92818 0
M  V30 5197 H 458.079 3.37362 -5.52083 0
M  V30 5198 N 458.211 1.37122 0.776871 0
M  V30 5199 C 459.436 1.354 1.57104 0
M  V30 5200 C 459.861 -0.0595562 1.88006 0
M  V30 5201 O 459.219 -1.03514 1.48844 0
M  V30 5202 C 459.267 2.19472 2.8612 0
M  V30 5203 O 458.371 1.59582 3.80273 0
M  V30 5204 H 457.712 0.462869 0.476076 0
M  V30 5205 H 460.242 1.80577 0.961932 0
M  V30 5206 H 460.252 2.32502 3.35271 0
M  V30 5207 H 458.927 3.22222 2.62956 0
M  V30 5208 H 457.504 1.55564 3.38902 0
M  V30 5209 N 459.689 -1.00246 1.21608 0
M  V30 5210 C 460.622 -2.08794 0.920892 0
M  V30 5211 C 461.6 -1.62059 -0.132552 0
M  V30 5212 O 462.784 -1.885 -0.0030366 0
M  V30 5213 C 459.911 -3.36525 0.383226 0
M  V30 5214 C 458.957 -4.02172 1.41987 0
M  V30 5215 S 459.79 -4.44256 2.98994 0
M  V30 5216 C 460.946 -5.7517 2.4684 0
M  V30 5217 H 461.179 -2.33511 1.8401 0
M  V30 5218 H 458.712 -1.13562 1.04609 0
M  V30 5219 H 460.67 -4.10423 0.0795871 0
M  V30 5220 H 459.331 -3.09854 -0.514711 0
M  V30 5221 H 458.524 -4.94114 0.993335 0
M  V30 5222 H 458.126 -3.34559 1.67171 0
M  V30 5223 H 460.418 -6.51042 1.87484 0
M  V30 5224 H 461.361 -6.22638 3.37235 0
M  V30 5225 H 461.769 -5.32112 1.88461 0
M  V30 5226 N 461.167 -1.02423 -1.1978 0
M  V30 5227 C 462.097 -0.62157 -2.25075 0
M  V30 5228 C 463.078 0.367148 -1.6609 0
M  V30 5229 O 464.263 0.250892 -1.92573 0
M  V30 5230 C 461.393 0.0331826 -3.47284 0
M  V30 5231 C 460.347 -0.877323 -4.18912 0
M  V30 5232 C 459.673 -0.0879296 -5.34628 0
M  V30 5233 C 460.973 -2.18892 -4.74219 0
M  V30 5234 H 462.667 -1.50179 -2.59011 0
M  V30 5235 H 460.213 -0.723547 -1.24502 0
M  V30 5236 H 462.166 0.326488 -4.20133 0
M  V30 5237 H 460.89 0.948164 -3.12534 0
M  V30 5238 H 459.549 -1.15475 -3.47938 0
M  V30 5239 H 459.197 0.828941 -4.96123 0
M  V30 5240 H 458.897 -0.694359 -5.83483 0
M  V30 5241 H 460.421 0.198743 -6.10276 0
M  V30 5242 H 461.835 -1.95746 -5.38847 0
M  V30 5243 H 460.232 -2.74686 -5.33542 0
M  V30 5244 H 461.302 -2.84674 -3.92541 0
M  V30 5245 N 462.645 1.35699 -0.801477 0
M  V30 5246 C 463.592 2.29876 -0.206294 0
M  V30 5247 C 464.562 1.52565 0.656752 0
M  V30 5248 O 465.747 1.81024 0.602906 0
M  V30 5249 C 462.887 3.39052 0.643272 0
M  V30 5250 C 462 4.31335 -0.239644 0
M  V30 5251 C 461.135 5.27599 0.61744 0
M  V30 5252 C 460.174 6.11521 -0.26619 0
M  V30 5253 N 459.311 6.99938 0.550571 0
M  V30 5254 H 464.151 2.80187 -1.01484 0
M  V30 5255 H 461.688 1.37902 -0.511997 0
M  V30 5256 H 463.646 4.0101 1.15094 0
M  V30 5257 H 462.276 2.9003 1.41713 0
M  V30 5258 H 461.328 3.70426 -0.865381 0
M  V30 5259 H 462.64 4.90243 -0.919985 0
M  V30 5260 H 461.794 5.94906 1.19045 0
M  V30 5261 H 460.533 4.69176 1.33137 0
M  V30 5262 H 459.538 5.43166 -0.851507 0
M  V30 5263 H 460.763 6.72022 -0.9779 0
M  V30 5264 H 458.709 6.44008 1.24856 0
M  V30 5265 H 458.626 7.55966 -0.071832 0
M  V30 5266 H 459.894 7.71599 1.10702 0
M  V30 5267 N 464.123 0.554532 1.47522 0
M  V30 5268 C 465.363 0.0317994 2.04375 0
M  V30 5269 C 465.727 -1.29242 1.41988 0
M  V30 5270 O 466.928 -1.90269 1.89872 0
M  V30 5271 C 465.199 -0.0623344 3.57346 0
M  V30 5272 S 466.758 -0.531578 4.35568 0
M  V30 5273 H 463.576 0.0238553 0.7106 0
M  V30 5274 H 466.178 0.74066 1.80927 0
M  V30 5275 H 464.882 0.905857 4.00278 0
M  V30 5276 H 464.413 -0.794831 3.85287 0
M  V30 5277 H 466.428 -1.79175 4.62721 0
M  V30 5278 N 465.601 -1.54893 0.290851 0
M  V30 5279 C 467.012 -1.85584 -0.203816 0
M  V30 5280 C 467.363 -1.21285 -1.54222 0
M  V30 5281 O 466.488 -0.506841 -2.10381 0
M  V30 5282 C 467.083 -3.367 -0.376595 0
M  V30 5283 C 465.642 -3.6746 -0.815485 0
M  V30 5284 C 464.789 -2.77178 0.0821087 0
M  V30 5285 H 467.74 -1.50208 0.512175 0
M  V30 5286 H 467.761 -3.60656 -1.21275 0
M  V30 5287 H 467.273 -3.8347 0.59767 0
M  V30 5288 H 465.374 -3.26201 -1.80066 0
M  V30 5289 H 465.487 -4.7478 -0.641905 0
M  V30 5290 H 463.851 -2.50925 -0.436895 0
M  V30 5291 H 464.634 -3.26767 1.05254 0
M  V30 5292 N 467.08 -0.0183926 -1.57589 0
M  V30 5293 C 468.028 0.985111 -2.10709 0
M  V30 5294 C 469.022 1.34397 -1.0312 0
M  V30 5295 O 470.228 1.32746 -1.21567 0
M  V30 5296 H 466.603 0.335418 -0.673052 0
M  V30 5297 H 468.574 0.511689 -2.9398 0
M  V30 5298 C 467.323 2.26202 -2.64061 0
M  V30 5299 H 466.646 1.9946 -3.4649 0
M  V30 5300 H 468.086 2.94652 -3.04887 0
M  V30 5301 C 466.545 2.98444 -1.5631 0
M  V30 5302 O 467.075 3.90142 -0.956674 0
M  V30 5303 N 465.281 2.6059 -1.28612 0
M  V30 5304 H 464.828 1.86101 -1.78112 0
M  V30 5305 H 464.786 3.09238 -0.567406 0
M  V30 5306 N 468.558 1.5553 0.254621 0
M  V30 5307 C 469.783 1.81383 1.00573 0
M  V30 5308 C 470.208 0.594419 1.78461 0
M  V30 5309 O 469.566 -0.456403 1.75461 0
M  V30 5310 C 469.614 3.04892 1.92545 0
M  V30 5311 O 468.718 2.81266 3.01601 0
M  V30 5312 H 468.059 0.598969 0.286587 0
M  V30 5313 H 470.589 2.02703 0.277952 0
M  V30 5314 H 470.599 3.34119 2.34155 0
M  V30 5315 H 469.274 3.93287 1.3527 0
M  V30 5316 H 467.851 2.63185 2.64174 0
M  V30 5317 N 470.036 -0.519951 1.48776 0
M  V30 5318 C 470.999 -1.60574 1.6355 0
M  V30 5319 C 471.999 -1.52557 0.508234 0
M  V30 5320 O 473.189 -1.56047 0.774262 0
M  V30 5321 C 470.321 -3.00211 1.61512 0
M  V30 5322 H 471.514 -1.4881 2.60376 0
M  V30 5323 H 469.067 -0.742772 1.37523 0
M  V30 5324 H 469.802 -3.17471 0.662009 0
M  V30 5325 H 469.587 -3.07439 2.43359 0
M  V30 5326 H 471.077 -3.79134 1.75064 0
M  V30 5327 N 471.514 -1.37532 -0.769588 0
M  V30 5328 C 472.742 -1.36059 -1.55871 0
M  V30 5329 C 473.157 0.053544 -1.88724 0
M  V30 5330 O 472.514 1.01591 -1.5161 0
M  V30 5331 C 472.565 -2.20107 -2.86767 0
M  V30 5332 O 472.286 -3.56009 -2.55321 0
M  V30 5333 C 473.787 -2.26636 -3.80987 0
M  V30 5334 H 471.007 -0.465967 -0.482821 0
M  V30 5335 H 473.551 -1.80901 -0.953686 0
M  V30 5336 H 471.706 -1.78768 -3.43687 0
M  V30 5337 H 472.12 -4.0009 -3.39158 0
M  V30 5338 H 473.594 -2.89763 -4.69831 0
M  V30 5339 H 474.071 -1.2754 -4.20274 0
M  V30 5340 H 474.677 -2.68296 -3.29996 0
M  V30 5341 N 472.992 0.995999 -1.22138 0
M  V30 5342 C 474.217 1.77601 -1.0711 0
M  V30 5343 C 474.642 1.84339 0.374264 0
M  V30 5344 O 474 1.29359 1.27028 0
M  V30 5345 C 474.048 3.18897 -1.68336 0
M  V30 5346 O 473.152 4.01663 -0.934928 0
M  V30 5347 H 472.493 0.547011 -0.376397 0
M  V30 5348 H 475.023 1.25137 -1.6187 0
M  V30 5349 H 475.033 3.69539 -1.72931 0
M  V30 5350 H 473.708 3.13308 -2.73516 0
M  V30 5351 H 472.285 3.60204 -0.964751 0
M  V30 5352 N 474.47 1.03057 1.19235 0
M  V30 5353 C 475.4 0.633497 2.24742 0
M  V30 5354 C 476.381 -0.358335 1.66283 0
M  V30 5355 O 477.566 -0.240676 1.92703 0
M  V30 5356 C 474.696 -0.0147648 3.47297 0
M  V30 5357 C 473.65 0.899527 4.18441 0
M  V30 5358 C 472.976 0.116281 5.34574 0
M  V30 5359 C 474.276 2.21404 4.73051 0
M  V30 5360 H 475.97 1.5155 2.58211 0
M  V30 5361 H 473.516 0.73014 1.24117 0
M  V30 5362 H 475.469 -0.304202 4.20301 0
M  V30 5363 H 474.193 -0.931577 3.13032 0
M  V30 5364 H 472.852 1.17319 3.47321 0
M  V30 5365 H 472.5 -0.802619 4.96555 0
M  V30 5366 H 472.2 0.725293 5.83107 0
M  V30 5367 H 473.724 -0.166376 6.10373 0
M  V30 5368 H 475.138 1.98601 5.37802 0
M  V30 5369 H 473.535 2.77512 5.32078 0
M  V30 5370 H 474.605 2.86752 3.91026 0
M  V30 5371 N 475.948 -1.35272 0.808662 0
M  V30 5372 C 477.173 -2.03477 0.401475 0
M  V30 5373 C 477.598 -1.60537 -0.980279 0
M  V30 5374 O 476.956 -0.78304 -1.63518 0
M  V30 5375 C 477.004 -3.57181 0.495354 0
M  V30 5376 O 476.108 -4.09474 -0.490397 0
M  V30 5377 H 475.449 -0.642561 0.167366 0
M  V30 5378 H 477.979 -1.72824 1.09512 0
M  V30 5379 H 477.989 -4.06356 0.365912 0
M  V30 5380 H 476.664 -3.87784 1.5032 0
M  V30 5381 H 475.241 -3.71516 -0.321023 0
M  V30 5382 N 477.426 -0.562348 -1.47226 0
M  V30 5383 C 478.358 0.220011 -2.28142 0
M  V30 5384 C 479.371 0.874596 -1.37312 0
M  V30 5385 O 480.56 0.747583 -1.62091 0
M  V30 5386 C 477.66 1.32953 -3.11732 0
M  V30 5387 C 476.833 0.770759 -4.30556 0
M  V30 5388 C 475.892 1.76541 -4.95701 0
M  V30 5389 O 474.918 1.3095 -5.53932 0
M  V30 5390 N 476.12 3.09896 -4.90861 0
M  V30 5391 H 478.885 -0.474107 -2.95926 0
M  V30 5392 H 476.446 -0.398761 -1.56912 0
M  V30 5393 H 478.438 1.99378 -3.5218 0
M  V30 5394 H 477.008 1.92681 -2.46156 0
M  V30 5395 H 476.228 -0.0704056 -3.94137 0
M  V30 5396 H 477.516 0.376872 -5.07402 0
M  V30 5397 H 476.914 3.49577 -4.44761 0
M  V30 5398 H 475.471 3.71865 -5.35313 0
M  V30 5399 N 478.904 1.54736 -0.299062 0
M  V30 5400 C 480.181 1.92187 0.363802 0
M  V30 5401 C 480.561 1.22607 1.71845 0
M  V30 5402 O 479.909 0.361141 2.25628 0
M  V30 5403 C 480.119 3.45678 0.480377 0
M  V30 5404 C 481.467 4.17885 0.752147 0
M  V30 5405 O 482.491 3.51702 0.564264 0
M  V30 5406 O 481.35 5.35048 1.11294 0
M  V30 5407 H 478.444 0.801681 0.203066 0
M  V30 5408 H 480.99 1.66115 -0.346978 0
M  V30 5409 H 479.762 3.88443 -0.471999 0
M  V30 5410 H 479.385 3.77779 1.2397 0
M  V30 5411 N 480.382 0.0267497 1.57577 0
M  V30 5412 C 481.33 -0.973923 2.11229 0
M  V30 5413 C 482.324 -1.33849 1.03831 0
M  V30 5414 O 483.53 -1.321 1.22269 0
M  V30 5415 H 479.905 -0.331844 0.674821 0
M  V30 5416 H 481.876 -0.496092 2.94247 0
M  V30 5417 C 480.625 -2.24798 2.65257 0
M  V30 5418 H 479.948 -1.9762 3.47543 0
M  V30 5419 H 481.388 -2.93031 3.06445 0
M  V30 5420 C 479.847 -2.97611 1.57891 0
M  V30 5421 O 480.377 -3.89629 0.97735 0
M  V30 5422 N 478.583 -2.59905 1.29992 0
M  V30 5423 H 478.13 -1.85154 1.79097 0
M  V30 5424 H 478.088 -3.08932 0.583798 0
M  V30 5425 N 481.861 -1.55662 -0.24637 0
M  V30 5426 C 483.277 -1.48098 -0.594907 0
M  V30 5427 C 483.477 -0.717044 -1.8831 0
M  V30 5428 O 482.533 -0.246618 -2.51293 0
M  V30 5429 C 483.846 -2.92507 -0.697146 0
M  V30 5430 C 485.394 -3.02881 -0.789436 0
M  V30 5431 C 485.869 -4.48598 -0.923232 0
M  V30 5432 N 487.36 -4.52538 -0.988088 0
M  V30 5433 C 488.095 -5.62536 -1.11089 0
M  V30 5434 N 487.591 -6.82342 -1.19919 0
M  V30 5435 N 489.384 -5.50334 -1.14408 0
M  V30 5436 H 481.535 -2.0377 0.599278 0
M  V30 5437 H 483.798 -0.925145 0.20691 0
M  V30 5438 H 483.504 -3.51242 0.179396 0
M  V30 5439 H 483.378 -3.43024 -1.5689 0
M  V30 5440 H 485.765 -2.44226 -1.65643 0
M  V30 5441 H 485.846 -2.55574 0.107482 0
M  V30 5442 H 485.49 -5.07864 -0.0607927 0
M  V30 5443 H 485.42 -4.93587 -1.8352 0
M  V30 5444 H 487.911 -3.66248 -0.931167 0
M  V30 5445 H 488.224 -7.61924 -1.29197 0
M  V30 5446 H 486.569 -6.85102 -1.16876 0
M  V30 5447 H 489.76 -4.5567 -1.07158 0
M  V30 5448 H 489.933 -6.36096 -1.23634 0
M  V30 5449 N 483.339 0.512053 -1.4905 0
M  V30 5450 C 484.286 1.6148 -1.64902 0
M  V30 5451 C 485.256 1.58687 -0.490673 0
M  V30 5452 O 486.441 1.76842 -0.71636 0
M  V30 5453 C 483.581 2.99676 -1.71139 0
M  V30 5454 C 482.694 3.12568 -2.98203 0
M  V30 5455 C 481.829 4.4143 -2.95487 0
M  V30 5456 C 480.868 4.47916 -4.17179 0
M  V30 5457 N 480.005 5.68191 -4.12437 0
M  V30 5458 H 484.845 1.47271 -2.59066 0
M  V30 5459 H 482.382 0.716713 -1.28459 0
M  V30 5460 H 484.34 3.79761 -1.72736 0
M  V30 5461 H 482.97 3.12614 -0.804508 0
M  V30 5462 H 482.022 2.25618 -3.06269 0
M  V30 5463 H 483.334 3.1322 -3.88194 0
M  V30 5464 H 482.488 5.29825 -2.95585 0
M  V30 5465 H 481.227 4.43326 -2.03256 0
M  V30 5466 H 480.232 3.57925 -4.17337 0
M  V30 5467 H 481.457 4.47744 -5.1059 0
M  V30 5468 H 479.403 5.7095 -3.23036 0
M  V30 5469 H 479.32 5.70413 -4.96151 0
M  V30 5470 H 480.588 6.58823 -4.16621 0
M  V30 5471 N 484.817 1.37938 0.762283 0
M  V30 5472 C 485.764 1.34467 1.87583 0
M  V30 5473 C 486.734 0.208633 1.64785 0
M  V30 5474 O 487.919 0.399494 1.86571 0
M  V30 5475 C 485.059 1.16692 3.24772 0
M  V30 5476 C 484.172 2.39608 3.59461 0
M  V30 5477 C 483.307 2.14631 4.85908 0
M  V30 5478 C 482.346 3.33364 5.13357 0
M  V30 5479 N 481.483 3.07877 6.30996 0
M  V30 5480 H 486.323 2.29669 1.89885 0
M  V30 5481 H 483.86 1.14116 0.928219 0
M  V30 5482 H 485.818 1.04405 4.03925 0
M  V30 5483 H 484.448 0.251333 3.2182 0
M  V30 5484 H 483.5 2.626 2.75219 0
M  V30 5485 H 484.812 3.28128 3.75678 0
M  V30 5486 H 483.966 1.99429 5.72986 0
M  V30 5487 H 482.705 1.23463 4.71814 0
M  V30 5488 H 481.71 3.49094 4.24751 0
M  V30 5489 H 482.935 4.25395 5.29354 0
M  V30 5490 H 480.881 2.19348 6.18241 0
M  V30 5491 H 480.798 3.89944 6.47673 0
M  V30 5492 H 482.066 2.96313 7.20985 0
M  V30 5493 N 486.295 -0.989507 1.22664 0
M  V30 5494 C 487.205 -2.11449 1.01619 0
M  V30 5495 C 488.221 -1.73962 -0.036545 0
M  V30 5496 O 489.397 -2.00788 0.156924 0
M  V30 5497 C 486.462 -3.41465 0.600204 0
M  V30 5498 C 485.523 -3.93033 1.72695 0
M  V30 5499 C 484.756 -5.16844 1.33071 0
M  V30 5500 O 484.979 -5.7001 0.210975 0
M  V30 5501 O 483.913 -5.6225 2.14845 0
M  V30 5502 H 487.739 -2.32088 1.9588 0
M  V30 5503 H 485.324 -1.09823 1.01289 0
M  V30 5504 H 487.206 -4.19695 0.37873 0
M  V30 5505 H 485.881 -3.22178 -0.313511 0
M  V30 5506 H 484.788 -3.15961 2.00298 0
M  V30 5507 H 486.121 -4.16758 2.61865 0
M  V30 5508 N 487.773 -1.03688 -1.18687 0
M  V30 5509 C 488.705 -0.582696 -2.21669 0
M  V30 5510 C 489.718 0.345656 -1.59088 0
M  V30 5511 O 490.907 0.140776 -1.77944 0
M  V30 5512 C 488.007 0.169204 -3.38477 0
M  V30 5513 C 487.18 -0.766079 -4.30639 0
M  V30 5514 C 486.239 -0.0581541 -5.26168 0
M  V30 5515 O 485.265 -0.687346 -5.65035 0
M  V30 5516 N 486.467 1.20981 -5.67753 0
M  V30 5517 H 489.232 -1.46843 -2.61261 0
M  V30 5518 H 486.793 -0.916896 -1.33434 0
M  V30 5519 H 488.785 0.652543 -3.99405 0
M  V30 5520 H 487.355 0.956435 -2.97609 0
M  V30 5521 H 486.575 -1.42935 -3.67373 0
M  V30 5522 H 487.863 -1.40146 -4.89118 0
M  V30 5523 H 487.261 1.74159 -5.38224 0
M  V30 5524 H 485.818 1.6375 -6.30896 0
M  V30 5525 N 489.251 1.34841 -0.815825 0
M  V30 5526 C 490.528 1.92908 -0.323416 0
M  V30 5527 C 490.908 1.74479 1.18828 0
M  V30 5528 O 490.256 1.11928 1.99209 0
M  V30 5529 C 490.466 3.40957 -0.744952 0
M  V30 5530 C 491.814 4.18107 -0.739716 0
M  V30 5531 O 492.838 3.49511 -0.68708 0
M  V30 5532 O 491.697 5.40517 -0.806456 0
M  V30 5533 H 488.791 0.822436 -0.0867646 0
M  V30 5534 H 491.337 1.4386 -0.90014 0
M  V30 5535 H 490.109 3.4814 -1.78646 0
M  V30 5536 H 489.732 3.97341 -0.143535 0
M  V30 5537 N 490.729 0.570148 1.46925 0
M  V30 5538 C 491.977 0.0508523 2.02036 0
M  V30 5539 C 492.298 -1.30885 1.44548 0
M  V30 5540 O 491.568 -1.85647 0.625453 0
M  V30 5541 H 490.148 0.0158088 0.746833 0
M  V30 5542 H 492.81 0.743086 1.80178 0
M  V30 5543 H 491.906 -0.027575 3.12088 0
M  V30 5544 N 492.207 -1.54576 0.307264 0
M  V30 5545 C 493.455 -1.99867 -0.299574 0
M  V30 5546 C 493.776 -1.19714 -1.53927 0
M  V30 5547 O 493.046 -0.29472 -1.9367 0
M  V30 5548 H 491.626 -0.738299 -0.113683 0
M  V30 5549 H 494.288 -1.9032 0.420042 0
M  V30 5550 H 493.384 -3.06901 -0.567283 0
M  V30 5551 N 493.685 -0.035106 -1.57561 0
M  V30 5552 C 494.962 0.681212 -1.83354 0
M  V30 5553 C 495.342 1.89986 -0.920252 0
M  V30 5554 O 494.69 2.28489 0.0226815 0
M  V30 5555 C 494.9 1.05376 -3.32712 0
M  V30 5556 C 496.248 1.44286 -3.99333 0
M  V30 5557 O 497.272 1.14656 -3.37242 0
M  V30 5558 O 496.131 1.99518 -5.08778 0
M  V30 5559 H 493.225 0.334741 -0.756226 0
M  V30 5560 H 495.771 -0.0632448 -1.69582 0
M  V30 5561 H 494.543 0.186668 -3.90854 0
M  V30 5562 H 494.166 1.85619 -3.51613 0
M  V30 5563 N 495.163 1.55791 0.238111 0
M  V30 5564 C 496.574 1.68383 0.806472 0
M  V30 5565 C 496.925 0.634157 1.85669 0
M  V30 5566 O 496.05 -0.217913 2.153 0
M  V30 5567 C 496.645 3.05268 1.46959 0
M  V30 5568 C 495.204 3.1977 1.98555 0
M  V30 5569 C 494.351 2.64279 0.839763 0
M  V30 5570 H 497.302 1.58694 0.0137535 0
M  V30 5571 H 497.323 3.00203 2.33792 0
M  V30 5572 H 496.835 3.81643 0.704993 0
M  V30 5573 H 494.936 2.48234 2.77868 0
M  V30 5574 H 495.049 4.26788 2.17689 0
M  V30 5575 H 493.413 2.22329 1.24265 0
M  V30 5576 H 494.196 3.43187 0.0881032 0
M  V30 5577 N 496.642 -0.504142 1.49319 0
M  V30 5578 C 497.59 -1.62689 1.66238 0
M  V30 5579 C 498.584 -1.6095 0.528349 0
M  V30 5580 O 499.79 -1.65496 0.707887 0
M  V30 5581 H 496.165 -0.539247 0.524134 0
M  V30 5582 H 498.136 -1.45571 2.60484 0
M  V30 5583 C 496.885 -3.00841 1.74328 0
M  V30 5584 H 496.208 -3.02884 2.60963 0
M  V30 5585 H 497.648 -3.78945 1.90202 0
M  V30 5586 C 496.107 -3.33355 0.487416 0
M  V30 5587 O 496.637 -3.99819 -0.388294 0
M  V30 5588 N 494.843 -2.88469 0.351306 0
M  V30 5589 H 494.39 -2.34557 1.06492 0
M  V30 5590 H 494.348 -3.10591 -0.487899 0
M  V30 5591 N 498.12 -1.38341 -0.754957 0
M  V30 5592 C 499.03 -1.3769 -1.89944 0
M  V30 5593 C 500.046 -0.274194 -1.71826 0
M  V30 5594 O 501.222 -0.512391 -1.94773 0
M  V30 5595 C 498.287 -1.19938 -3.25293 0
M  V30 5596 C 497.348 -2.40001 -3.55946 0
M  V30 5597 C 496.581 -2.23087 -4.84838 0
M  V30 5598 O 496.804 -1.22386 -5.57116 0
M  V30 5599 O 495.738 -3.11646 -5.14937 0
M  V30 5600 H 499.564 -2.3412 -1.93446 0
M  V30 5601 H 497.149 -1.19246 -0.900044 0
M  V30 5602 H 499.031 -1.12093 -4.06218 0
M  V30 5603 H 497.706 -0.265919 -3.22606 0
M  V30 5604 H 496.613 -2.53421 -2.75188 0
M  V30 5605 H 497.946 -3.31973 -3.63394 0
M  V30 5606 N 499.598 0.982988 -1.23187 0
M  V30 5607 C 500.508 2.10907 -1.02739 0
M  V30 5608 C 501.524 1.73979 0.0273188 0
M  V30 5609 O 502.7 2.00702 -0.16757 0
M  V30 5610 C 499.765 3.41142 -0.618304 0
M  V30 5611 C 498.826 3.92112 -1.74777 0
M  V30 5612 C 498.059 5.16131 -1.3581 0
M  V30 5613 O 498.282 5.6989 -0.241201 0
M  V30 5614 O 497.216 5.61103 -2.17824 0
M  V30 5615 H 501.042 2.31046 -1.97108 0
M  V30 5616 H 498.627 1.09284 -1.01869 0
M  V30 5617 H 500.509 4.19488 -0.400982 0
M  V30 5618 H 499.184 3.2234 0.296421 0
M  V30 5619 H 498.091 3.14895 -2.0197 0
M  V30 5620 H 499.424 4.15364 -2.64071 0
M  V30 5621 N 501.076 1.04316 1.18135 0
M  V30 5622 C 502.304 0.768117 1.92113 0
M  V30 5623 C 502.719 -0.675057 1.76319 0
M  V30 5624 O 502.076 -1.46038 1.09449 0
M  V30 5625 C 502.127 1.12808 3.43448 0
M  V30 5626 O 501.848 2.5146 3.58747 0
M  V30 5627 C 503.349 0.8779 4.3452 0
M  V30 5628 H 500.569 0.279937 0.609817 0
M  V30 5629 H 503.113 1.39149 1.49859 0
M  V30 5630 H 501.268 0.549623 3.83481 0
M  V30 5631 H 501.682 2.65313 4.52448 0
M  V30 5632 H 503.156 1.17959 5.39249 0
M  V30 5633 H 503.633 -0.187239 4.38801 0
M  V30 5634 H 504.239 1.43977 4.00188 0
M  V30 5635 N 502.554 -1.34406 0.822964 0
M  V30 5636 C 503.965 -1.8069 0.469879 0
M  V30 5637 C 504.316 -1.68223 -1.00972 0
M  V30 5638 O 503.441 -1.22226 -1.78577 0
M  V30 5639 C 504.036 -3.28064 0.846118 0
M  V30 5640 C 502.595 -3.72428 0.545402 0
M  V30 5641 C 501.742 -2.56116 1.06301 0
M  V30 5642 H 504.693 -1.22153 1.01313 0
M  V30 5643 H 504.714 -3.80205 0.149922 0
M  V30 5644 H 504.226 -3.37107 1.92304 0
M  V30 5645 H 502.327 -3.68924 -0.522109 0
M  V30 5646 H 502.44 -4.66548 1.0895 0
M  V30 5647 H 500.804 -2.50048 0.484554 0
M  V30 5648 H 501.587 -2.67928 2.14638 0
M  V30 5649 N 504.032 -0.577932 -1.46621 0
M  V30 5650 C 504.965 0.206312 -2.27265 0
M  V30 5651 C 505.943 0.901306 -1.35334 0
M  V30 5652 O 507.127 0.916151 -1.64739 0
M  V30 5653 C 504.254 1.29563 -3.1294 0
M  V30 5654 C 503.3 0.706981 -4.206 0
M  V30 5655 S 504.133 -0.462459 -5.33499 0
M  V30 5656 C 505.289 0.628171 -6.2274 0
M  V30 5657 H 505.522 -0.477961 -2.93433 0
M  V30 5658 H 503.055 -0.364715 -1.50031 0
M  V30 5659 H 505.013 1.91935 -3.62865 0
M  V30 5660 H 503.674 1.95183 -2.46095 0
M  V30 5661 H 502.867 1.52565 -4.80354 0
M  V30 5662 H 502.469 0.159022 -3.73662 0
M  V30 5663 H 504.761 1.51506 -6.60342 0
M  V30 5664 H 505.704 0.0674961 -7.08068 0
M  V30 5665 H 506.112 0.930167 -5.56784 0
M  V30 5666 O 505.549 1.54882 -0.457577 0
M  V30 5667 H 506.24 1.93569 0.0711413 0
M  V30 END ATOM
M  V30 BEGIN BOND
M  V30 END BOND
M  V30 END CTAB
M  END
$$$$
