drugbank_target|Q9X0G9 Ribose 5-phosphate isomerase B (DB03661)
 OpenBabel12092120283D

  0  0  0     0  0            999 V3000
M  V30 BEGIN CTAB
M  V30 COUNTS 2243 2263 0 0 0
M  V30 BEGIN ATOM
M  V30 1 H -0.908 1.98254 -0.117106 0
M  V30 2 N 0 1.576 0 0
M  V30 3 C 0.933 2.03868 1.02534 0
M  V30 4 C 1.911 0.928543 1.3348 0
M  V30 5 O 3.095 1.19667 1.45644 0
M  V30 6 C 0.222 2.43627 2.35294 0
M  V30 7 C -0.732 3.65373 2.2001 0
M  V30 8 S 0.101 5.13292 1.52614 0
M  V30 9 C 1.257 5.56322 2.86805 0
M  V30 10 H 1.49 2.90518 0.631377 0
M  V30 11 H -0.977 1.52953 0.210867 0
M  V30 12 H 0.981 2.67203 3.11629 0
M  V30 13 H -0.358 1.57376 2.7183 0
M  V30 14 H -1.165 3.90944 3.18086 0
M  V30 15 H -1.563 3.418 1.51819 0
M  V30 16 H 0.729 5.58782 3.83104 0
M  V30 17 H 1.672 6.56266 2.65933 0
M  V30 18 H 2.08 4.83886 2.90714 0
M  V30 19 N 1.4781 -0.272755 1.55222 0
M  V30 20 C 2.4251 -1.33716 1.88119 0
M  V30 21 C 3.3951 -1.49066 0.73271 0
M  V30 22 O 4.5801 -1.63469 0.984002 0
M  V30 23 C 1.7201 -2.69238 2.15882 0
M  V30 24 C 0.8331 -2.62108 3.43399 0
M  V30 25 C -0.0319 -3.89811 3.60861 0
M  V30 26 C -0.9929 -3.77193 4.8207 0
M  V30 27 N -1.8559 -4.9673 4.96189 0
M  V30 28 H 2.9841 -1.04962 2.78903 0
M  V30 29 H 0.5211 -0.507088 1.38083 0
M  V30 30 H 2.4791 -3.48089 2.29978 0
M  V30 31 H 1.1091 -2.96194 1.28331 0
M  V30 32 H 0.1611 -1.74967 3.37773 0
M  V30 33 H 1.4731 -2.48685 4.32386 0
M  V30 34 H 0.6271 -4.77103 3.74777 0
M  V30 35 H -0.6339 -4.06102 2.7006 0
M  V30 36 H -1.6289 -2.88284 4.68159 0
M  V30 37 H -0.4039 -3.62421 5.74307 0
M  V30 38 H -2.4579 -5.13431 4.08319 0
M  V30 39 H -2.5409 -4.85839 5.79221 0
M  V30 40 H -1.2729 -5.85594 5.1449 0
M  V30 41 N 2.9562 -1.48159 -0.537278 0
M  V30 42 C 4.2052 -1.5506 -1.28993 0
M  V30 43 C 4.5182 -0.226211 -1.94288 0
M  V30 44 O 5.7242 -0.173395 -2.70946 0
M  V30 45 C 4.1802 -2.73429 -2.34018 0
M  V30 46 C 3.7882 -4.1248 -1.74825 0
M  V30 47 C 5.5322 -2.89638 -3.10339 0
M  V30 48 C 3.4392 -5.22121 -2.77747 0
M  V30 49 H 2.3692 -0.577231 -0.485098 0
M  V30 50 H 5.0202 -1.74478 -0.568317 0
M  V30 51 H 3.4022 -2.47431 -3.09182 0
M  V30 52 H 4.5762 -4.48466 -1.05899 0
M  V30 53 H 2.8912 -4.01327 -1.11022 0
M  V30 54 H 5.4882 -3.68718 -3.87235 0
M  V30 55 H 5.8312 -1.9882 -3.65754 0
M  V30 56 H 6.3642 -3.15502 -2.42288 0
M  V30 57 H 3.1032 -6.1488 -2.27161 0
M  V30 58 H 2.6232 -4.90631 -3.45024 0
M  V30 59 H 4.3022 -5.49924 -3.4087 0
M  V30 60 N 4.4343 0.785586 -1.36625 0
M  V30 61 C 5.3973 1.87999 -1.31107 0
M  V30 62 C 6.3973 1.59316 -0.217959 0
M  V30 63 O 7.5873 1.67656 -0.472977 0
M  V30 64 C 4.7193 3.24861 -1.03334 0
M  V30 65 H 5.9123 1.94307 -2.2844 0
M  V30 66 H 3.4653 0.983813 -1.21453 0
M  V30 67 H 4.2003 3.24235 -0.0647432 0
M  V30 68 H 3.9853 3.4707 -1.82441 0
M  V30 69 H 5.4753 4.04929 -1.02088 0
M  V30 70 N 5.9124 1.20967 1.01018 0
M  V30 71 C 7.1614 1.01796 1.74128 0
M  V30 72 C 7.4744 -0.449691 1.90361 0
M  V30 73 O 8.6804 -0.76068 2.60626 0
M  V30 74 C 7.1364 1.7727 3.13215 0
M  V30 75 C 6.7444 3.28171 3.04972 0
M  V30 76 C 8.4884 1.66489 3.90489 0
M  V30 77 C 6.3954 3.96156 4.39107 0
M  V30 78 H 5.3254 0.377276 0.652824 0
M  V30 79 H 7.9764 1.44651 1.12909 0
M  V30 80 H 6.3584 1.27205 3.75013 0
M  V30 81 H 7.5324 3.85499 2.52443 0
M  V30 82 H 5.8474 3.39437 2.41188 0
M  V30 83 H 8.4444 2.14617 4.89738 0
M  V30 84 H 8.7874 0.6222 4.11624 0
M  V30 85 H 9.3204 2.14003 3.35332 0
M  V30 86 H 6.0594 5.00604 4.23174 0
M  V30 87 H 5.5794 3.43617 4.91617 0
M  V30 88 H 7.2584 4.00774 5.07926 0
M  V30 89 N 7.3905 -1.2043 1.01659 0
M  V30 90 C 8.3535 -2.21433 0.591616 0
M  V30 91 C 9.3535 -1.57203 -0.338226 0
M  V30 92 O 10.5435 -1.73737 -0.126918 0
M  V30 93 C 7.6755 -3.40628 -0.136058 0
M  V30 94 H 8.8685 -2.60545 1.48514 0
M  V30 95 H 6.4215 -1.33893 0.806379 0
M  V30 96 H 7.1565 -3.07019 -1.04449 0
M  V30 97 H 6.9415 -3.88475 0.531917 0
M  V30 98 H 8.4315 -4.15475 -0.420735 0
M  V30 99 N 8.8686 -0.792821 -1.36206 0
M  V30 100 C 10.0936 -0.377701 -2.03932 0
M  V30 101 C 10.5186 0.998947 -1.59382 0
M  V30 102 O 9.8766 1.64421 -0.763903 0
M  V30 103 C 9.9246 -0.453635 -3.57735 0
M  V30 104 O 9.0286 0.538151 -4.08874 0
M  V30 105 H 8.3696 -0.159855 -0.644471 0
M  V30 106 H 10.8996 -1.07488 -1.7409 0
M  V30 107 H 10.9096 -0.318464 -4.06755 0
M  V30 108 H 9.5846 -1.45784 -3.89512 0
M  V30 109 H 8.1616 0.364359 -3.71116 0
M  V30 110 N 10.3467 1.47872 -0.545128 0
M  V30 111 C 11.6237 1.9554 0.0485222 0
M  V30 112 C 12.0037 1.4876 1.49779 0
M  V30 113 O 11.3517 0.720925 2.16829 0
M  V30 114 C 11.5617 3.48898 -0.084417 0
M  V30 115 C 12.9097 4.24547 0.0671239 0
M  V30 116 O 13.9337 3.56198 -0.0113649 0
M  V30 117 O 12.7927 5.45999 0.233882 0
M  V30 118 H 9.8867 0.823957 0.0708773 0
M  V30 119 H 12.4327 1.58327 -0.610798 0
M  V30 120 H 11.2047 3.75714 -1.09337 0
M  V30 121 H 10.8277 3.92845 0.613066 0
M  V30 122 N 11.8248 0.280983 1.55075 0
M  V30 123 C 12.7748 -0.618585 2.19448 0
M  V30 124 C 13.7588 -1.11401 1.16098 0
M  V30 125 O 14.9508 -1.0581 1.41891 0
M  V30 126 C 12.0798 -1.79951 2.92357 0
M  V30 127 C 11.1658 -1.321 4.03002 0
M  V30 128 N 11.5568 -0.559044 5.02701 0
M  V30 129 C 9.8548 -1.60346 4.16179 0
M  V30 130 C 10.5558 -0.306722 5.80891 0
M  V30 131 N 9.5318 -0.880825 5.36416 0
M  V30 132 H 13.3338 -0.0286638 2.93886 0
M  V30 133 H 10.8478 0.0848104 1.62178 0
M  V30 134 H 12.8448 -2.45531 3.36927 0
M  V30 135 H 11.5048 -2.39333 2.19431 0
M  V30 136 H 12.5158 -0.205827 5.17491 0
M  V30 137 H 9.1928 -2.20621 3.54447 0
M  V30 138 H 10.5828 0.30391 6.71212 0
M  V30 139 N 13.3029 -1.57598 0.00835791 0
M  V30 140 C 14.2659 -2.07884 -0.965242 0
M  V30 141 C 15.2659 -0.989825 -1.26725 0
M  V30 142 O 16.4559 -1.25218 -1.21104 0
M  V30 143 C 13.5879 -2.52731 -2.28779 0
M  V30 144 H 14.7809 -2.95178 -0.530112 0
M  V30 145 H 12.3339 -1.54458 -0.239283 0
M  V30 146 H 13.0689 -1.68705 -2.76964 0
M  V30 147 H 12.8539 -3.32272 -2.08177 0
M  V30 148 H 14.3439 -2.91933 -2.98605 0
M  V30 149 N 14.781 0.264519 -1.55364 0
M  V30 150 C 15.744 1.31046 -1.88042 0
M  V30 151 C 16.744 1.41943 -0.755569 0
M  V30 152 O 17.934 1.40947 -1.02369 0
M  V30 153 C 15.066 2.69067 -2.09323 0
M  V30 154 H 16.259 1.03297 -2.81549 0
M  V30 155 H 13.812 0.502989 -1.47986 0
M  V30 156 H 14.547 3.01982 -1.18226 0
M  V30 157 H 14.332 2.62542 -2.91229 0
M  V30 158 H 15.822 3.44623 -2.35848 0
M  V30 159 N 16.2591 1.48442 0.529413 0
M  V30 160 C 17.5061 1.56488 1.28521 0
M  V30 161 C 17.8341 0.239042 1.93025 0
M  V30 162 O 17.0891 -0.770713 1.79885 0
M  V30 163 C 17.3881 2.6523 2.39558 0
M  V30 164 C 17.0541 4.07648 1.92702 0
M  V30 165 C 15.7161 4.46411 1.79641 0
M  V30 166 C 18.0681 4.96896 1.573 0
M  V30 167 C 15.3961 5.72226 1.29514 0
M  V30 168 C 17.7481 6.23202 1.08636 0
M  V30 169 C 16.4121 6.60821 0.941919 0
M  V30 170 H 15.6821 0.572631 0.470292 0
M  V30 171 H 18.3291 1.82161 0.59072 0
M  V30 172 H 16.6341 2.33419 3.14679 0
M  V30 173 H 18.3311 2.68671 2.97686 0
M  V30 174 H 14.9211 3.77036 2.03819 0
M  V30 175 H 19.1051 4.67626 1.66251 0
M  V30 176 H 14.3611 6.00097 1.17019 0
M  V30 177 H 18.5351 6.91753 0.803136 0
M  V30 178 H 16.1621 7.58198 0.5513 0
M  V30 179 N 17.7372 -0.778329 1.37039 0
M  V30 180 C 18.6472 -1.92253 1.34446 0
M  V30 181 C 19.6632 -1.72267 0.244991 0
M  V30 182 O 20.8392 -1.95615 0.479258 0
M  V30 183 C 17.9042 -3.27282 1.144 0
M  V30 184 C 16.9652 -3.59969 2.33925 0
M  V30 185 C 16.1982 -4.88555 2.14825 0
M  V30 186 O 16.4212 -5.59113 1.12912 0
M  V30 187 O 15.3552 -5.20153 3.02861 0
M  V30 188 H 19.1812 -1.97392 2.30803 0
M  V30 189 H 16.7662 -0.920154 1.17701 0
M  V30 190 H 18.6482 -4.08062 1.05182 0
M  V30 191 H 17.3232 -3.23011 0.211124 0
M  V30 192 H 16.2302 -2.7945 2.48714 0
M  V30 193 H 17.5632 -3.68976 3.25757 0
M  V30 194 N 19.2153 -1.21501 -1.00376 0
M  V30 195 C 20.1453 -0.999478 -2.11028 0
M  V30 196 C 21.1263 0.0759671 -1.6993 0
M  V30 197 O 22.3113 -0.0841106 -1.94018 0
M  V30 198 C 19.4413 -0.564709 -3.42678 0
M  V30 199 C 18.3953 -1.58486 -3.97576 0
M  V30 200 C 17.7213 -1.00628 -5.25146 0
M  V30 201 C 19.0213 -2.97204 -4.29496 0
M  V30 202 H 20.7153 -1.92495 -2.29317 0
M  V30 203 H 18.2613 -0.92693 -1.102 0
M  V30 204 H 20.2143 -0.401091 -4.19487 0
M  V30 205 H 18.9383 0.396411 -3.24185 0
M  V30 206 H 17.5973 -1.73606 -3.22888 0
M  V30 207 H 17.2453 -0.0368439 -5.02987 0
M  V30 208 H 16.9453 -1.68771 -5.62841 0
M  V30 209 H 18.4693 -0.854015 -6.04598 0
M  V30 210 H 19.8833 -2.8552 -4.97143 0
M  V30 211 H 18.2803 -3.62372 -4.78338 0
M  V30 212 H 19.3503 -3.47956 -3.3772 0
M  V30 213 N 20.6934 1.19889 -1.02296 0
M  V30 214 C 21.6404 2.22901 -0.598651 0
M  V30 215 C 22.6104 1.61588 0.384521 0
M  V30 216 O 23.7954 1.88697 0.282522 0
M  V30 217 C 20.9354 3.45063 0.0504476 0
M  V30 218 C 20.0484 4.20783 -0.978053 0
M  V30 219 C 19.1834 5.30356 -0.299338 0
M  V30 220 C 18.2224 5.97826 -1.31416 0
M  V30 221 N 17.3594 6.98975 -0.661667 0
M  V30 222 H 22.1994 2.58554 -1.48169 0
M  V30 223 H 19.7364 1.27039 -0.741584 0
M  V30 224 H 21.6944 4.14831 0.443971 0
M  V30 225 H 20.3244 3.10084 0.897097 0
M  V30 226 H 19.3764 3.50018 -1.48969 0
M  V30 227 H 20.6884 4.67109 -1.74958 0
M  V30 228 H 19.8424 6.06516 0.149347 0
M  V30 229 H 18.5814 4.85084 0.504445 0
M  V30 230 H 17.5864 5.20422 -1.77317 0
M  V30 231 H 18.8114 6.45183 -2.11933 0
M  V30 232 H 16.7574 6.55886 0.122132 0
M  V30 233 H 16.6744 7.43461 -1.37117 0
M  V30 234 H 17.9424 7.7914 -0.236785 0
M  V30 235 N 22.1715 0.800033 1.35784 0
M  V30 236 C 23.0815 0.207204 2.33683 0
M  V30 237 C 24.0975 -0.64631 1.61551 0
M  V30 238 O 25.2735 -0.559604 1.93469 0
M  V30 239 C 22.3385 -0.639659 3.40748 0
M  V30 240 C 21.3995 0.233585 4.28664 0
M  V30 241 C 20.6325 -0.572954 5.30616 0
M  V30 242 O 20.8555 -1.80816 5.40982 0
M  V30 243 O 19.7895 0.0327285 6.01891 0
M  V30 244 H 23.6155 1.01692 2.86169 0
M  V30 245 H 21.2005 0.561691 1.38439 0
M  V30 246 H 23.0825 -1.12223 4.06182 0
M  V30 247 H 21.7575 -1.42708 2.90544 0
M  V30 248 H 20.6645 0.763147 3.66233 0
M  V30 249 H 21.9975 0.984784 4.82248 0
M  V30 250 N 23.6496 -1.47581 0.552962 0
M  V30 251 C 24.5966 -2.29957 -0.197108 0
M  V30 252 C 25.5666 -1.38799 -0.912359 0
M  V30 253 O 26.7516 -1.67761 -0.908888 0
M  V30 254 C 23.8916 -3.22672 -1.22379 0
M  V30 255 C 23.0046 -4.28919 -0.515038 0
M  V30 256 C 22.1396 -5.0879 -1.52664 0
M  V30 257 C 21.1786 -6.06815 -0.802631 0
M  V30 258 N 20.3156 -6.7966 -1.76086 0
M  V30 259 H 25.1556 -2.93578 0.511486 0
M  V30 260 H 22.6926 -1.4471 0.264067 0
M  V30 261 H 24.6506 -3.74845 -1.83159 0
M  V30 262 H 23.2806 -2.60925 -1.90047 0
M  V30 263 H 22.3326 -3.79835 0.207192 0
M  V30 264 H 23.6446 -4.98773 0.0523425 0
M  V30 265 H 22.7986 -5.65091 -2.20809 0
M  V30 266 H 21.5376 -4.38828 -2.12794 0
M  V30 267 H 20.5426 -5.49695 -0.107238 0
M  V30 268 H 21.7676 -6.78784 -0.207135 0
M  V30 269 H 19.7136 -6.12432 -2.35081 0
M  V30 270 H 19.6306 -7.45669 -1.24552 0
M  V30 271 H 20.8986 -7.40538 -2.43359 0
M  V30 272 N 25.1277 -0.289203 -1.54924 0
M  V30 273 C 26.3737 0.323998 -2.00195 0
M  V30 274 C 26.7067 1.54441 -1.17735 0
M  V30 275 O 25.9817 1.92875 -0.250878 0
M  V30 276 C 26.2647 0.692276 -3.53383 0
M  V30 277 C 26.1177 -0.536457 -4.46589 0
M  V30 278 C 27.4367 1.52335 -4.12895 0
M  V30 279 H 24.5557 0.116289 -0.727768 0
M  V30 280 H 27.1977 -0.398954 -1.85764 0
M  V30 281 H 25.3477 1.30822 -3.65811 0
M  V30 282 H 27.0197 -1.17499 -4.46085 0
M  V30 283 H 25.2627 -1.17192 -4.1767 0
M  V30 284 H 25.9337 -0.234806 -5.515 0
M  V30 285 H 28.4097 1.00302 -4.0383 0
M  V30 286 H 27.2857 1.74982 -5.20262 0
M  V30 287 H 27.5467 2.50886 -3.64018 0
M  V30 288 N 26.6058 1.57591 -0.0167156 0
M  V30 289 C 27.5528 2.09462 0.969251 0
M  V30 290 C 28.5228 0.99381 1.33089 0
M  V30 291 O 29.7078 1.26726 1.42636 0
M  V30 292 C 26.8478 2.61622 2.25051 0
M  V30 293 C 25.9608 3.85666 1.94642 0
M  V30 294 C 25.0958 4.26266 3.16972 0
M  V30 295 C 24.1348 5.43101 2.82326 0
M  V30 296 N 23.2718 5.78915 3.97243 0
M  V30 297 H 28.1118 2.93428 0.519997 0
M  V30 298 H 25.6488 1.45044 0.245087 0
M  V30 299 H 27.6068 2.89949 2.99976 0
M  V30 300 H 26.2368 1.80505 2.67615 0
M  V30 301 H 25.2888 3.64145 1.10013 0
M  V30 302 H 26.6008 4.70678 1.65117 0
M  V30 303 H 25.7548 4.55963 4.00228 0
M  V30 304 H 24.4938 3.39996 3.49648 0
M  V30 305 H 23.4988 5.1311 1.97479 0
M  V30 306 H 24.7238 6.3106 2.50879 0
M  V30 307 H 22.6698 4.95602 4.29785 0
M  V30 308 H 22.5868 6.58539 3.71299 0
M  V30 309 H 23.8548 6.13212 4.81239 0
M  V30 310 N 28.0839 -0.256276 1.55502 0
M  V30 311 C 29.0319 -1.33694 1.90338 0
M  V30 312 C 30.0259 -1.50299 0.781441 0
M  V30 313 O 31.2319 -1.51885 0.965966 0
M  V30 314 H 27.6069 -0.447483 0.60437 0
M  V30 315 H 29.5779 -1.01574 2.8058 0
M  V30 316 C 28.3269 -2.68724 2.20642 0
M  V30 317 H 27.6499 -2.56743 3.06469 0
M  V30 318 H 29.0899 -3.43237 2.48926 0
M  V30 319 C 27.5489 -3.21101 1.01959 0
M  V30 320 O 28.0789 -4.0084 0.262762 0
M  V30 321 N 26.2849 -2.79003 0.812746 0
M  V30 322 H 25.8319 -2.14271 1.42989 0
M  V30 323 H 25.7899 -3.14393 0.0203076 0
M  V30 324 N 29.562 -1.4872 -0.521534 0
M  V30 325 C 30.792 -1.6061 -1.29954 0
M  V30 326 C 31.2 -0.268728 -1.87282 0
M  V30 327 O 30.543 0.753221 -1.67548 0
M  V30 328 C 30.605 -2.60013 -2.48261 0
M  V30 329 C 30.269 -4.04874 -2.11957 0
M  V30 330 C 31.266 -4.92304 -1.67132 0
M  V30 331 C 28.951 -4.5047 -2.22221 0
M  V30 332 C 30.945 -6.2336 -1.33047 0
M  V30 333 C 28.632 -5.81544 -1.87748 0
M  V30 334 C 29.63 -6.67812 -1.43234 0
M  V30 335 O 29.318 -7.96446 -1.09217 0
M  V30 336 H 29.05 -0.544116 -0.401141 0
M  V30 337 H 31.604 -1.95339 -0.634958 0
M  V30 338 H 29.834 -2.20422 -3.17728 0
M  V30 339 H 31.523 -2.61648 -3.10315 0
M  V30 340 H 32.289 -4.58312 -1.58665 0
M  V30 341 H 28.168 -3.83504 -2.55823 0
M  V30 342 H 31.712 -6.90649 -0.982299 0
M  V30 343 H 27.609 -6.15069 -1.95858 0
M  V30 344 H 28.377 -8.09275 -1.22542 0
M  V30 345 N 31.0401 0.771051 -1.3745 0
M  V30 346 C 31.9701 1.89827 -1.3597 0
M  V30 347 C 32.9511 1.68562 -0.228216 0
M  V30 348 O 34.1361 1.8941 -0.428675 0
M  V30 349 C 31.2661 3.2712 -1.16662 0
M  V30 350 C 30.2201 3.6295 -2.2683 0
M  V30 351 C 29.5461 4.98791 -1.92644 0
M  V30 352 C 30.8461 3.69627 -3.69017 0
M  V30 353 H 32.5401 1.91323 -2.30295 0
M  V30 354 H 30.0861 0.919082 -1.10855 0
M  V30 355 H 32.0391 4.05615 -1.14256 0
M  V30 356 H 30.7631 3.26059 -0.187926 0
M  V30 357 H 29.4221 2.86763 -2.28392 0
M  V30 358 H 29.0701 4.94271 -0.933021 0
M  V30 359 H 28.7701 5.23733 -2.66416 0
M  V30 360 H 30.2941 5.79685 -1.91826 0
M  V30 361 H 31.7081 4.38273 -3.69581 0
M  V30 362 H 30.1051 4.06067 -4.41848 0
M  V30 363 H 31.1751 2.70273 -4.02592 0
M  V30 364 N 32.5182 1.22032 0.997298 0
M  V30 365 C 33.4482 1.01065 2.10495 0
M  V30 366 C 34.4292 -0.0669542 1.69968 0
M  V30 367 O 35.6142 0.0943987 1.9397 0
M  V30 368 C 32.7442 0.582874 3.42374 0
M  V30 369 C 31.6982 1.60592 3.96729 0
M  V30 370 C 31.0242 1.03412 5.24605 0
M  V30 371 C 32.3242 2.99478 4.27914 0
M  V30 372 H 34.0182 1.93708 2.28292 0
M  V30 373 H 31.5642 0.932761 1.09707 0
M  V30 374 H 33.5172 0.423332 4.19268 0
M  V30 375 H 32.2412 -0.379213 3.24391 0
M  V30 376 H 30.9002 1.75316 3.21963 0
M  V30 377 H 30.5482 0.063518 5.0296 0
M  V30 378 H 30.2482 1.71754 5.61938 0
M  V30 379 H 31.7722 0.886066 6.04137 0
M  V30 380 H 33.1862 2.88153 4.95622 0
M  V30 381 H 31.5832 3.64903 4.76409 0
M  V30 382 H 32.6532 3.49742 3.3587 0
M  V30 383 N 33.9963 -1.19345 1.0293 0
M  V30 384 C 35.2443 -1.88665 0.724574 0
M  V30 385 C 35.5653 -1.80036 -0.749144 0
M  V30 386 O 34.8353 -1.2111 -1.53978 0
M  V30 387 H 33.4153 -0.698406 0.265025 0
M  V30 388 H 36.0773 -1.44885 1.30362 0
M  V30 389 H 35.1733 -2.94987 1.01926 0
M  V30 390 N 35.4744 -0.807222 -1.35358 0
M  V30 391 C 36.4214 -0.216037 -2.29787 0
M  V30 392 C 37.3914 0.650278 -1.52842 0
M  V30 393 O 38.5764 0.595227 -1.81278 0
M  V30 394 C 35.7164 0.628893 -3.39321 0
M  V30 395 C 34.8294 -0.257927 -4.31229 0
M  V30 396 C 33.9644 0.595069 -5.27856 0
M  V30 397 C 33.0034 -0.292111 -6.11403 0
M  V30 398 N 32.1404 0.520895 -7.00165 0
M  V30 399 H 36.9804 -1.02671 -2.79755 0
M  V30 400 H 34.5174 -0.517839 -1.37684 0
M  V30 401 H 36.4754 1.13393 -4.01494 0
M  V30 402 H 35.1054 1.40482 -2.90628 0
M  V30 403 H 34.1574 -0.881076 -3.70056 0
M  V30 404 H 35.4694 -0.940759 -4.89848 0
M  V30 405 H 34.6234 1.16522 -5.95405 0
M  V30 406 H 33.3624 1.31146 -4.69736 0
M  V30 407 H 32.3674 -0.874525 -5.428 0
M  V30 408 H 33.5924 -1.00638 -6.71602 0
M  V30 409 H 31.5384 1.22125 -6.44532 0
M  V30 410 H 31.4554 -0.103877 -7.55929 0
M  V30 411 H 32.7234 1.0743 -7.72062 0
M  V30 412 N 36.9525 1.47285 -0.560781 0
M  V30 413 C 38.2005 2.02064 -0.0379868 0
M  V30 414 C 38.5215 1.43711 1.31803 0
M  V30 415 O 37.7915 0.61362 1.86042 0
M  V30 416 H 36.3715 0.746918 -0.0110531 0
M  V30 417 H 39.0335 1.80648 -0.731598 0
M  V30 418 H 38.1295 3.12064 0.0474463 0
M  V30 419 N 38.4306 0.297415 1.54768 0
M  V30 420 C 39.6796 -0.313669 1.99246 0
M  V30 421 C 39.9926 -1.55281 1.18942 0
M  V30 422 O 41.1986 -2.23825 1.5367 0
M  V30 423 C 39.6546 -0.609407 3.54703 0
M  V30 424 C 39.2626 0.611192 4.43811 0
M  V30 425 C 41.0066 -1.18188 4.07715 0
M  V30 426 C 38.9136 0.288805 5.90694 0
M  V30 427 H 37.8436 -0.120979 0.744231 0
M  V30 428 H 40.4946 0.40556 1.78962 0
M  V30 429 H 38.8766 -1.38813 3.70873 0
M  V30 430 H 40.0506 1.3875 4.39414 0
M  V30 431 H 38.3656 1.10205 4.01552 0
M  V30 432 H 40.9626 -1.43727 5.15021 0
M  V30 433 H 41.3056 -2.12299 3.58099 0
M  V30 434 H 41.8386 -0.464944 3.95074 0
M  V30 435 H 38.5776 1.19838 6.44453 0
M  V30 436 H 38.0976 -0.450305 5.98107 0
M  V30 437 H 39.7766 -0.110933 6.46905 0
M  V30 438 N 39.9087 -1.5758 0.0250728 0
M  V30 439 C 40.8187 -2.1343 -0.973905 0
M  V30 440 C 41.8347 -1.08556 -1.35984 0
M  V30 441 O 43.0107 -1.40592 -1.44207 0
M  V30 442 C 40.0757 -2.64703 -2.23904 0
M  V30 443 C 39.1367 -3.84276 -1.91391 0
M  V30 444 C 38.3697 -4.33095 -3.11873 0
M  V30 445 O 38.5927 -3.81107 -4.24398 0
M  V30 446 O 37.5267 -5.24984 -2.94406 0
M  V30 447 H 41.3527 -2.99057 -0.529036 0
M  V30 448 H 38.9377 -1.48118 -0.195288 0
M  V30 449 H 40.8197 -2.97769 -2.98181 0
M  V30 450 H 39.4947 -1.82161 -2.6758 0
M  V30 451 H 38.4017 -3.56143 -1.14511 0
M  V30 452 H 39.7347 -4.67968 -1.52534 0
M  V30 453 N 41.3868 0.248026 -1.55636 0
M  V30 454 C 42.6328 0.97767 -1.77678 0
M  V30 455 C 42.9658 1.85016 -0.590135 0
M  V30 456 O 42.2408 1.90095 0.411611 0
M  V30 457 C 42.5238 1.83914 -3.09593 0
M  V30 458 C 42.3768 0.99491 -4.38659 0
M  V30 459 C 43.6958 2.82183 -3.37729 0
M  V30 460 H 40.8148 0.354005 -0.646413 0
M  V30 461 H 43.4568 0.248253 -1.88371 0
M  V30 462 H 41.6068 2.46104 -3.00608 0
M  V30 463 H 43.2788 0.391789 -4.59633 0
M  V30 464 H 41.5218 0.299231 -4.32767 0
M  V30 465 H 42.1928 1.63145 -5.2734 0
M  V30 466 H 44.6688 2.30129 -3.4667 0
M  V30 467 H 43.5448 3.39582 -4.31249 0
M  V30 468 H 43.8058 3.58588 -2.58586 0
M  V30 469 N 42.8649 1.48995 0.513639 0
M  V30 470 C 43.7749 1.67443 1.64317 0
M  V30 471 C 44.7909 0.556947 1.64846 0
M  V30 472 O 45.9669 0.830082 1.83498 0
M  V30 473 C 43.0319 1.72515 3.00732 0
M  V30 474 C 42.0929 2.96009 3.1093 0
M  V30 475 C 41.3259 3.00829 4.40837 0
M  V30 476 O 41.5489 2.13594 5.28898 0
M  V30 477 O 40.4829 3.93168 4.55744 0
M  V30 478 H 44.3089 2.63106 1.51687 0
M  V30 479 H 41.8939 1.32588 0.688543 0
M  V30 480 H 43.7759 1.78277 3.81831 0
M  V30 481 H 42.4509 0.800278 3.13651 0
M  V30 482 H 41.3579 2.9577 2.29065 0
M  V30 483 H 42.6909 3.87934 3.02933 0
M  V30 484 N 44.343 -0.763751 1.37857 0
M  V30 485 C 45.62 -1.51244 1.24035 0
M  V30 486 C 46 -2.10472 -0.162649 0
M  V30 487 O 45.348 -1.96206 -1.17112 0
M  V30 488 C 45.558 -2.58694 2.34261 0
M  V30 489 C 46.906 -3.25878 2.72193 0
M  V30 490 O 47.93 -2.68993 2.33497 0
M  V30 491 O 46.789 -4.2874 3.38887 0
M  V30 492 H 43.883 -0.670243 0.484462 0
M  V30 493 H 46.429 -0.800031 1.49658 0
M  V30 494 H 45.201 -2.13105 3.2818 0
M  V30 495 H 44.824 -3.37527 2.10146 0
M  V30 496 N 45.8211 -1.22559 -0.990812 0
M  V30 497 C 46.7711 -0.964807 -2.0658 0
M  V30 498 C 47.7551 0.0853472 -1.60673 0
M  V30 499 O 48.9471 -0.125443 -1.76555 0
M  V30 500 C 46.0761 -0.546707 -3.38919 0
M  V30 501 C 45.1621 -1.6317 -3.91454 0
M  V30 502 N 45.5531 -2.85985 -4.17189 0
M  V30 503 C 43.8511 -1.50387 -4.19881 0
M  V30 504 C 44.5521 -3.56159 -4.59919 0
M  V30 505 N 43.5281 -2.83637 -4.63736 0
M  V30 506 H 47.3301 -1.89769 -2.24421 0
M  V30 507 H 44.8441 -1.12343 -1.17273 0
M  V30 508 H 46.8411 -0.34119 -4.15502 0
M  V30 509 H 45.5011 0.379254 -3.22478 0
M  V30 510 H 46.5121 -3.22392 -4.05319 0
M  V30 511 H 43.1891 -0.644254 -4.12499 0
M  V30 512 H 44.5791 -4.6139 -4.88435 0
M  V30 513 N 47.2992 1.18797 -1.03562 0
M  V30 514 C 48.5472 1.88278 -0.734569 0
M  V30 515 C 48.8682 1.8043 0.739586 0
M  V30 516 O 48.1382 1.21925 1.53333 0
M  V30 517 H 46.7182 0.696991 -0.268725 0
M  V30 518 H 49.3802 1.44192 -1.31129 0
M  V30 519 H 48.4762 2.94443 -1.03489 0
M  V30 520 N 48.7773 0.814389 1.34928 0
M  V30 521 C 50.0053 0.411136 2.02774 0
M  V30 522 C 50.4203 -0.980316 1.61354 0
M  V30 523 O 49.7773 -1.63299 0.814847 0
M  V30 524 C 49.8283 0.493865 3.58111 0
M  V30 525 O 49.5493 1.83047 3.98027 0
M  V30 526 C 51.0503 0.0844174 4.4322 0
M  V30 527 H 48.2703 0.166037 0.650133 0
M  V30 528 H 50.8143 1.10018 1.72384 0
M  V30 529 H 48.9693 -0.147006 3.87121 0
M  V30 530 H 49.3833 1.79872 4.92693 0
M  V30 531 H 50.8573 0.193404 5.51661 0
M  V30 532 H 51.3343 -0.97113 4.28329 0
M  V30 533 H 51.9403 0.69875 4.19521 0
M  V30 534 N 50.2554 -1.46986 0.568584 0
M  V30 535 C 51.4854 -2.0653 0.0539173 0
M  V30 536 C 51.8934 -1.42004 -1.25026 0
M  V30 537 O 51.2364 -0.514541 -1.76347 0
M  V30 538 C 51.2984 -3.58938 -0.200854 0
M  V30 539 C 50.9624 -4.45572 1.01559 0
M  V30 540 C 51.9594 -4.82986 1.92407 0
M  V30 541 C 49.6444 -4.8692 1.23346 0
M  V30 542 C 51.6384 -5.60559 3.03402 0
M  V30 543 C 49.3254 -5.64255 2.34649 0
M  V30 544 C 50.3234 -6.00986 3.24507 0
M  V30 545 O 50.0114 -6.76761 4.33878 0
M  V30 546 H 49.7434 -0.674292 0.0480234 0
M  V30 547 H 52.2974 -1.89812 0.784896 0
M  V30 548 H 50.5274 -3.73911 -0.986279 0
M  V30 549 H 52.2164 -4.0046 -0.662294 0
M  V30 550 H 52.9824 -4.51633 1.76785 0
M  V30 551 H 48.8614 -4.57789 0.543178 0
M  V30 552 H 52.4054 -5.89147 3.73565 0
M  V30 553 H 48.3024 -5.95021 2.5024 0
M  V30 554 H 49.0704 -6.95168 4.32068 0
M  V30 555 N 51.7335 -0.305618 -1.54608 0
M  V30 556 C 52.9585 0.307562 -2.05107 0
M  V30 557 C 53.3835 1.46385 -1.18123 0
M  V30 558 O 52.7415 1.8034 -0.186324 0
M  V30 559 C 52.7895 0.73704 -3.52987 0
M  V30 560 O 51.8935 1.84134 -3.6901 0
M  V30 561 H 51.2345 0.0589143 -0.661381 0
M  V30 562 H 53.7645 -0.448807 -1.99617 0
M  V30 563 H 53.7745 1.02459 -3.94925 0
M  V30 564 H 52.4495 -0.108773 -4.15758 0
M  V30 565 H 51.0265 1.55398 -3.38978 0
M  V30 566 N 53.2116 1.57565 -0.0334293 0
M  V30 567 C 54.1216 2.13943 0.962572 0
M  V30 568 C 55.1376 1.09276 1.35406 0
M  V30 569 O 56.3136 1.41355 1.4346 0
M  V30 570 C 53.3786 2.65887 2.22497 0
M  V30 571 C 52.4396 3.85286 1.8935 0
M  V30 572 C 51.6726 4.34743 3.09571 0
M  V30 573 O 51.8956 3.83352 4.22371 0
M  V30 574 O 50.8296 5.26538 2.91618 0
M  V30 575 H 54.6556 2.99333 0.513169 0
M  V30 576 H 52.2406 1.4822 0.18743 0
M  V30 577 H 54.1226 2.99346 2.96598 0
M  V30 578 H 52.7976 1.83578 2.6661 0
M  V30 579 H 51.7046 3.56746 1.1262 0
M  V30 580 H 53.0376 4.68771 1.5005 0
M  V30 581 N 54.6897 -0.239769 1.55765 0
M  V30 582 C 55.5997 -1.31831 1.94056 0
M  V30 583 C 56.6157 -1.52275 0.841925 0
M  V30 584 O 57.7917 -1.65759 1.14394 0
M  V30 585 C 54.8567 -2.65156 2.23368 0
M  V30 586 C 53.9177 -2.53173 3.46701 0
M  V30 587 C 53.1507 -3.8014 3.74606 0
M  V30 588 O 53.3737 -4.82343 3.04469 0
M  V30 589 O 52.3077 -3.78344 4.68123 0
M  V30 590 H 56.1337 -1.02347 2.85935 0
M  V30 591 H 53.7187 -0.441123 1.42739 0
M  V30 592 H 55.6007 -3.43929 2.43497 0
M  V30 593 H 54.2757 -2.94358 1.34666 0
M  V30 594 H 53.1827 -1.72662 3.31871 0
M  V30 595 H 54.5157 -2.28915 4.35728 0
M  V30 596 N 56.1678 -1.49265 -0.50573 0
M  V30 597 C 57.3928 -1.62478 -1.28902 0
M  V30 598 C 57.8178 -0.294332 -1.85783 0
M  V30 599 O 57.1758 0.737412 -1.65626 0
M  V30 600 C 57.2238 -2.69268 -2.39848 0
M  V30 601 O 56.3278 -2.28113 -3.43567 0
M  V30 602 H 55.6688 -0.54399 -0.380751 0
M  V30 603 H 58.1988 -1.95421 -0.605952 0
M  V30 604 H 58.2088 -2.91291 -2.85681 0
M  V30 605 H 56.8838 -3.65846 -1.97812 0
M  V30 606 H 55.4608 -2.16401 -3.03685 0
M  V30 607 N 57.6459 0.756429 -1.3826 0
M  V30 608 C 58.8919 1.51772 -1.34511 0
M  V30 609 C 59.2249 1.94089 0.0656691 0
M  V30 610 O 58.4999 1.65221 1.02626 0
M  V30 611 C 58.7829 2.77226 -2.29821 0
M  V30 612 C 58.6359 2.41065 -3.79747 0
M  V30 613 C 59.9549 3.79236 -2.23312 0
M  V30 614 H 57.0739 0.550578 -0.489931 0
M  V30 615 H 59.7159 0.866607 -1.69086 0
M  V30 616 H 57.8659 3.32784 -2.00467 0
M  V30 617 H 59.5379 1.91303 -4.19763 0
M  V30 618 H 57.7809 1.7356 -3.97567 0
M  V30 619 H 58.4519 3.3081 -4.41892 0
M  V30 620 H 60.9279 3.3321 -2.49219 0
M  V30 621 H 59.8039 4.64714 -2.92116 0
M  V30 622 H 60.0649 4.24615 -1.23102 0
M  V30 623 N 59.124 1.23083 0.984299 0
M  V30 624 C 60.401 0.9689 1.69917 0
M  V30 625 C 60.781 -0.513604 2.04757 0
M  V30 626 O 60.129 -1.48383 1.73767 0
M  V30 627 C 60.339 1.87518 2.94343 0
M  V30 628 C 61.687 2.13636 3.6694 0
M  V30 629 O 62.711 1.85036 3.04368 0
M  V30 630 O 61.57 2.62119 4.79537 0
M  V30 631 H 58.664 0.365095 0.742048 0
M  V30 632 H 61.21 1.34107 1.03987 0
M  V30 633 H 59.982 2.87756 2.65164 0
M  V30 634 H 59.605 1.50514 3.6801 0
M  V30 635 N 60.6021 -1.18246 1.0419 0
M  V30 636 C 61.8321 -1.91916 0.764961 0
M  V30 637 C 62.2401 -1.76485 -0.681898 0
M  V30 638 O 61.5831 -1.09275 -1.47664 0
M  V30 639 C 61.6451 -3.4373 1.05309 0
M  V30 640 C 61.3091 -3.8294 2.4941 0
M  V30 641 C 62.3061 -3.86621 3.47592 0
M  V30 642 C 59.9911 -4.142 2.84155 0
M  V30 643 C 61.9851 -4.21013 4.78568 0
M  V30 644 C 59.6721 -4.48262 4.15337 0
M  V30 645 C 60.6701 -4.51645 5.12353 0
M  V30 646 O 60.3581 -4.84911 6.41183 0
M  V30 647 H 60.0901 -0.61606 0.278292 0
M  V30 648 H 62.6441 -1.50947 1.39299 0
M  V30 649 H 60.8741 -3.84946 0.367933 0
M  V30 650 H 62.5631 -3.9865 0.763752 0
M  V30 651 H 63.3291 -3.62607 3.22089 0
M  V30 652 H 59.2081 -4.10743 2.09311 0
M  V30 653 H 62.7521 -4.23568 5.54289 0
M  V30 654 H 58.6491 -4.71737 4.40607 0
M  V30 655 H 59.4171 -5.02809 6.45852 0
M  V30 656 N 62.0802 -0.821533 -1.34494 0
M  V30 657 C 63.4912 -0.467956 -1.8074 0
M  V30 658 C 63.8422 1.01151 -1.68116 0
M  V30 659 O 62.9672 1.78707 -1.22036 0
M  V30 660 C 63.5622 -0.842627 -3.28154 0
M  V30 661 C 62.1212 -0.541439 -3.72485 0
M  V30 662 C 61.2682 -1.06028 -2.56229 0
M  V30 663 H 64.2192 -1.01183 -1.22261 0
M  V30 664 H 64.2402 -0.145876 -3.8022 0
M  V30 665 H 63.7522 -1.91945 -3.37311 0
M  V30 666 H 61.8532 0.526034 -3.68868 0
M  V30 667 H 61.9662 -1.08453 -4.66663 0
M  V30 668 H 60.3302 -0.481892 -2.501 0
M  V30 669 H 61.1132 -2.14352 -2.68157 0
M  V30 670 N 63.5583 1.46682 -0.576371 0
M  V30 671 C 64.8353 1.95599 0.00703437 0
M  V30 672 C 65.2153 1.51904 1.46589 0
M  V30 673 O 64.5633 0.766755 2.15251 0
M  V30 674 C 64.7733 3.4864 -0.158404 0
M  V30 675 C 66.1213 4.24594 -0.0229439 0
M  V30 676 O 67.1453 3.56094 -0.0869173 0
M  V30 677 O 66.0043 5.46373 0.118015 0
M  V30 678 H 63.0983 0.825275 0.053384 0
M  V30 679 H 65.6443 1.56996 -0.644244 0
M  V30 680 H 64.4163 3.7331 -1.17282 0
M  V30 681 H 64.0393 3.94057 0.5296 0
M  V30 682 N 65.0364 0.313813 1.54444 0
M  V30 683 C 66.2664 -0.293491 2.04505 0
M  V30 684 C 66.6744 -1.47086 1.19005 0
M  V30 685 O 66.0174 -1.82481 0.211257 0
M  V30 686 C 66.0794 -0.800455 3.50475 0
M  V30 687 C 65.7434 0.253322 4.56297 0
M  V30 688 C 66.7404 1.08612 5.08428 0
M  V30 689 C 64.4254 0.398708 5.00715 0
M  V30 690 C 66.4194 2.05013 6.0353 0
M  V30 691 C 64.1064 1.36614 5.95634 0
M  V30 692 C 65.1044 2.19033 6.46926 0
M  V30 693 O 64.7924 3.14134 7.39983 0
M  V30 694 H 64.5244 -0.0658325 0.672787 0
M  V30 695 H 67.0784 0.455177 2.00293 0
M  V30 696 H 65.3084 -1.59987 3.52053 0
M  V30 697 H 66.9974 -1.32504 3.83663 0
M  V30 698 H 67.7634 0.984736 4.74898 0
M  V30 699 H 63.6424 -0.23289 4.60411 0
M  V30 700 H 67.1864 2.69382 6.4349 0
M  V30 701 H 63.0834 1.4682 6.28581 0
M  V30 702 H 63.8514 3.0926 7.57826 0
M  V30 703 N 66.5145 -1.57545 0.0417849 0
M  V30 704 C 67.4775 -2.09885 -0.92093 0
M  V30 705 C 68.4775 -1.01648 -1.24596 0
M  V30 706 O 69.6675 -1.27759 -1.1842 0
M  V30 707 C 66.7995 -2.57527 -2.23367 0
M  V30 708 H 67.9925 -2.96236 -0.467382 0
M  V30 709 H 65.5455 -1.5493 -0.206467 0
M  V30 710 H 66.2805 -1.74542 -2.73323 0
M  V30 711 H 66.0655 -3.36613 -2.01083 0
M  V30 712 H 67.5555 -2.98201 -2.92346 0
M  V30 713 N 67.9926 0.231505 -1.5589 0
M  V30 714 C 68.9396 1.28682 -1.91598 0
M  V30 715 C 69.9096 1.47071 -0.771974 0
M  V30 716 O 71.0946 1.60802 -1.027 0
M  V30 717 C 68.2346 2.6342 -2.22944 0
M  V30 718 C 67.3476 2.52912 -3.50228 0
M  V30 719 C 66.4826 3.80106 -3.7107 0
M  V30 720 C 65.5216 3.64279 -4.91902 0
M  V30 721 N 64.6586 4.834 -5.09184 0
M  V30 722 H 69.4986 0.975305 -2.81588 0
M  V30 723 H 67.0356 0.470299 -1.39379 0
M  V30 724 H 68.9936 3.41869 -2.39126 0
M  V30 725 H 67.6236 2.92687 -1.36139 0
M  V30 726 H 66.6756 1.6595 -3.42294 0
M  V30 727 H 67.9876 2.37133 -4.38827 0
M  V30 728 H 67.1416 4.66999 -3.87295 0
M  V30 729 H 65.8806 3.98799 -2.80733 0
M  V30 730 H 64.8856 2.7577 -4.75637 0
M  V30 731 H 66.1106 3.47067 -5.83714 0
M  V30 732 H 64.0566 5.02425 -4.21788 0
M  V30 733 H 63.9736 4.70311 -5.91898 0
M  V30 734 H 65.2416 5.71747 -5.29835 0
M  V30 735 N 69.4707 1.49531 0.497807 0
M  V30 736 C 70.4177 1.66436 1.59899 0
M  V30 737 C 71.3877 0.505793 1.58212 0
M  V30 738 O 72.5727 0.733202 1.7615 0
M  V30 739 C 69.7127 1.7399 2.98029 0
M  V30 740 C 68.8257 3.01172 3.09708 0
M  V30 741 C 67.9607 2.99686 4.38591 0
M  V30 742 C 66.9997 4.21434 4.43914 0
M  V30 743 N 66.1367 4.1784 5.64229 0
M  V30 744 H 70.9767 2.60459 1.44793 0
M  V30 745 H 68.5137 1.29137 0.704423 0
M  V30 746 H 70.4717 1.76352 3.78095 0
M  V30 747 H 69.1017 0.834301 3.11832 0
M  V30 748 H 68.1537 3.08408 2.22685 0
M  V30 749 H 69.4657 3.91165 3.09502 0
M  V30 750 H 68.6197 3.00628 5.2698 0
M  V30 751 H 67.3587 2.07477 4.41367 0
M  V30 752 H 66.3637 4.20733 3.53926 0
M  V30 753 H 67.5887 5.14839 4.42851 0
M  V30 754 H 65.5347 3.28469 5.67841 0
M  V30 755 H 65.4517 5.01571 5.65652 0
M  V30 756 H 66.7197 4.22889 6.54817 0
M  V30 757 N 70.9488 -0.749086 1.3866 0
M  V30 758 C 72.1948 -1.51056 1.35314 0
M  V30 759 C 72.5278 -1.94121 -0.0553751 0
M  V30 760 O 71.8028 -1.65763 -1.01749 0
M  V30 761 C 72.0858 -2.76003 2.31288 0
M  V30 762 C 71.9388 -2.39047 3.8102 0
M  V30 763 C 73.2578 -3.78046 2.2532 0
M  V30 764 H 70.3768 -0.547972 0.492844 0
M  V30 765 H 73.0188 -0.857628 1.69543 0
M  V30 766 H 71.1688 -3.31716 2.02229 0
M  V30 767 H 72.8408 -1.89074 4.20771 0
M  V30 768 H 71.0838 -1.71449 3.98482 0
M  V30 769 H 71.7548 -3.28462 4.4364 0
M  V30 770 H 74.2308 -3.31884 2.50983 0
M  V30 771 H 73.1068 -4.63159 2.94576 0
M  V30 772 H 73.3678 -4.23957 1.25352 0
M  V30 773 N 72.4269 -1.23603 -0.977757 0
M  V30 774 C 73.6729 -1.07129 -1.72195 0
M  V30 775 C 74.0059 0.390501 -1.90233 0
M  V30 776 O 73.2809 1.28902 -1.45653 0
M  V30 777 C 73.5639 -1.80031 -3.11867 0
M  V30 778 C 73.4169 -3.33899 -3.01383 0
M  V30 779 C 74.7359 -1.56492 -4.11337 0
M  V30 780 H 71.8549 -0.390571 -0.624999 0
M  V30 781 H 74.4969 -1.52142 -1.13811 0
M  V30 782 H 72.6469 -1.41768 -3.6171 0
M  V30 783 H 74.3189 -3.81699 -2.59043 0
M  V30 784 H 72.5619 -3.62796 -2.37827 0
M  V30 785 H 73.2329 -3.801 -4.00285 0
M  V30 786 H 75.7089 -1.89757 -3.70313 0
M  V30 787 H 74.5849 -2.09973 -5.07151 0
M  V30 788 H 74.8459 -0.500874 -4.39254 0
M  V30 789 N 73.905 1.17692 -1.04816 0
M  V30 790 C 74.837 2.21103 -0.603822 0
M  V30 791 C 75.85 1.59411 0.33046 0
M  V30 792 O 77.039 1.7807 0.12379 0
M  V30 793 C 74.139 3.38623 0.136898 0
M  V30 794 C 73.312 4.29888 -0.807137 0
M  V30 795 C 72.371 5.26088 -0.10836 0
M  V30 796 O 71.397 5.64353 -0.741232 0
M  V30 797 N 72.599 5.68882 1.15558 0
M  V30 798 H 75.364 2.59848 -1.49329 0
M  V30 799 H 72.925 1.32553 -0.929587 0
M  V30 800 H 74.917 4.00009 0.614401 0
M  V30 801 H 73.487 2.98508 0.927993 0
M  V30 802 H 72.707 3.65993 -1.46434 0
M  V30 803 H 73.995 4.87759 -1.44807 0
M  V30 804 H 73.393 5.39861 1.69015 0
M  V30 805 H 71.95 6.32429 1.57722 0
M  V30 806 N 75.3831 0.828654 1.34056 0
M  V30 807 C 76.6081 0.431637 2.02859 0
M  V30 808 C 77.0331 -0.956339 1.61975 0
M  V30 809 O 76.3911 -1.62338 0.807228 0
M  V30 810 C 76.4391 0.548323 3.56407 0
M  V30 811 O 75.5431 -0.429556 4.10157 0
M  V30 812 H 74.8841 0.176886 0.640006 0
M  V30 813 H 77.4141 1.12066 1.71179 0
M  V30 814 H 77.4241 0.426196 4.05768 0
M  V30 815 H 76.0991 1.5606 3.8551 0
M  V30 816 H 74.6761 -0.265836 3.71951 0
M  V30 817 N 76.8612 -1.46375 0.584142 0
M  V30 818 C 78.1102 -2.01585 0.0679741 0
M  V30 819 C 78.4232 -1.46109 -1.30045 0
M  V30 820 O 79.6292 -1.93148 -1.90804 0
M  V30 821 C 78.0852 -3.5983 0.0709207 0
M  V30 822 C 77.6932 -4.24303 1.43775 0
M  V30 823 C 79.4372 -4.22693 -0.391228 0
M  V30 824 C 77.3442 -5.74631 1.39834 0
M  V30 825 H 76.2742 -0.753689 0.0216421 0
M  V30 826 H 78.9252 -1.68093 0.736001 0
M  V30 827 H 77.3072 -3.90405 -0.663299 0
M  V30 828 H 78.4812 -4.05335 2.19181 0
M  V30 829 H 76.7962 -3.73539 1.84004 0
M  V30 830 H 79.3932 -5.3289 -0.439524 0
M  V30 831 H 79.7362 -3.91728 -1.40906 0
M  V30 832 H 80.2692 -3.96749 0.288974 0
M  V30 833 H 77.0082 -6.10258 2.39303 0
M  V30 834 H 76.5282 -5.95858 0.686505 0
M  V30 835 H 78.2072 -6.37375 1.11187 0
M  V30 836 N 78.3393 -0.321999 -1.54275 0
M  V30 837 C 79.2693 0.537411 -2.27231 0
M  V30 838 C 80.2503 1.12064 -1.27968 0
M  V30 839 O 81.4353 1.14606 -1.56777 0
M  V30 840 C 78.5653 1.69919 -3.02894 0
M  V30 841 C 77.5193 1.24534 -4.09482 0
M  V30 842 C 76.8453 2.49394 -4.72977 0
M  V30 843 C 78.1453 0.361335 -5.21049 0
M  V30 844 H 79.8393 -0.0711406 -2.99315 0
M  V30 845 H 77.3853 -0.0356555 -1.43956 0
M  V30 846 H 79.3383 2.30668 -3.52662 0
M  V30 847 H 78.0623 2.33431 -2.28424 0
M  V30 848 H 76.7213 0.660782 -3.60596 0
M  V30 849 H 76.3693 3.11265 -3.95124 0
M  V30 850 H 76.0693 2.19718 -5.44975 0
M  V30 851 H 77.5933 3.10908 -5.25517 0
M  V30 852 H 79.0073 0.875072 -5.66582 0
M  V30 853 H 77.4043 0.157428 -5.99893 0
M  V30 854 H 78.4743 -0.60822 -4.8107 0
M  V30 855 N 79.8174 1.5752 -0.0501392 0
M  V30 856 C 81.0424 1.97376 0.636997 0
M  V30 857 C 81.4674 0.927466 1.63645 0
M  V30 858 O 80.8254 -0.10941 1.8097 0
M  V30 859 C 80.8734 3.36304 1.30123 0
M  V30 860 O 79.9774 3.34156 2.41689 0
M  V30 861 H 79.3184 0.642998 0.165679 0
M  V30 862 H 81.8484 2.04258 -0.118233 0
M  V30 863 H 81.8584 3.73008 1.65315 0
M  V30 864 H 80.5334 4.11993 0.568746 0
M  V30 865 H 79.1104 3.09196 2.08451 0
M  V30 866 N 81.2955 -0.223234 1.56011 0
M  V30 867 C 82.2435 -1.29627 1.93131 0
M  V30 868 C 83.2375 -1.48608 0.813146 0
M  V30 869 O 84.4435 -1.49802 0.997966 0
M  V30 870 H 80.8185 -0.434563 0.613726 0
M  V30 871 H 82.7895 -0.955995 2.82672 0
M  V30 872 C 81.5385 -2.63983 2.26292 0
M  V30 873 H 80.8615 -2.50185 3.11846 0
M  V30 874 H 82.3015 -3.3788 2.56151 0
M  V30 875 C 80.7605 -3.18866 1.08747 0
M  V30 876 O 81.2905 -4.00192 0.347727 0
M  V30 877 N 79.4965 -2.77217 0.871743 0
M  V30 878 H 79.0435 -2.1119 1.47501 0
M  V30 879 H 79.0015 -3.1428 0.0869905 0
M  V30 880 N 82.7736 -1.49793 -0.48987 0
M  V30 881 C 83.6836 -1.70036 -1.61632 0
M  V30 882 C 84.6996 -0.583102 -1.63939 0
M  V30 883 O 85.8756 -0.859169 -1.82154 0
M  V30 884 C 82.9406 -1.77277 -2.97949 0
M  V30 885 C 82.0016 -3.00918 -3.06181 0
M  V30 886 C 81.2346 -3.07804 -4.35996 0
M  V30 887 O 81.4576 -2.21982 -5.25433 0
M  V30 888 O 80.3916 -4.00369 -4.49431 0
M  V30 889 H 84.2176 -2.65486 -1.47482 0
M  V30 890 H 81.8026 -1.33666 -0.667362 0
M  V30 891 H 83.6846 -1.84329 -3.78947 0
M  V30 892 H 82.3596 -0.850076 -3.12339 0
M  V30 893 H 81.2666 -2.99377 -2.2433 0
M  V30 894 H 82.5996 -3.92704 -2.96723 0
M  V30 895 N 84.2517 0.741722 -1.39055 0
M  V30 896 C 85.2147 1.83733 -1.37021 0
M  V30 897 C 86.2147 1.58542 -0.268534 0
M  V30 898 O 87.4047 1.66067 -0.526076 0
M  V30 899 C 84.5367 3.2141 -1.13617 0
M  V30 900 H 85.7297 1.86941 -2.34506 0
M  V30 901 H 83.2827 0.944676 -1.24521 0
M  V30 902 H 84.0177 3.23865 -0.167863 0
M  V30 903 H 83.8027 3.4109 -1.93391 0
M  V30 904 H 85.2927 4.01477 -1.14918 0
M  V30 905 N 85.7298 1.2412 0.971189 0
M  V30 906 C 87.0068 0.986867 1.6888 0
M  V30 907 C 87.3868 -0.491857 2.0529 0
M  V30 908 O 86.7348 -1.46531 1.75331 0
M  V30 909 C 86.9448 1.9063 2.92338 0
M  V30 910 C 88.2928 2.17515 3.64654 0
M  V30 911 O 89.3168 1.88254 3.02388 0
M  V30 912 O 88.1758 2.6719 4.7673 0
M  V30 913 H 85.2698 0.372944 0.738134 0
M  V30 914 H 87.8158 1.35203 1.02559 0
M  V30 915 H 86.5878 2.90552 2.62097 0
M  V30 916 H 86.2108 1.54408 3.66393 0
M  V30 917 N 87.2079 -1.17134 1.05439 0
M  V30 918 C 88.4549 -1.87456 0.765942 0
M  V30 919 C 88.7829 -1.81189 -0.707153 0
M  V30 920 O 88.0379 -1.21633 -1.5331 0
M  V30 921 C 88.3369 -3.36833 1.19491 0
M  V30 922 C 88.0029 -3.63301 2.67063 0
M  V30 923 C 86.6649 -3.70234 3.07376 0
M  V30 924 C 89.0169 -3.74575 3.62413 0
M  V30 925 C 86.3449 -3.85933 4.41896 0
M  V30 926 C 88.6969 -3.91793 4.9667 0
M  V30 927 C 87.3609 -3.96966 5.36633 0
M  V30 928 H 86.6309 -0.685948 0.280278 0
M  V30 929 H 89.2779 -1.38556 1.32192 0
M  V30 930 H 87.5829 -3.87807 0.557969 0
M  V30 931 H 89.2799 -3.89611 0.948893 0
M  V30 932 H 85.8699 -3.58532 2.34846 0
M  V30 933 H 90.0539 -3.68537 3.32406 0
M  V30 934 H 85.3099 -3.88187 4.72357 0
M  V30 935 H 89.4839 -3.99458 5.70444 0
M  V30 936 H 87.1109 -4.08883 6.40874 0
M  V30 937 N 88.686 -0.835752 -1.33615 0
M  V30 938 C 89.934 -0.429109 -1.97492 0
M  V30 939 C 90.255 1.01433 -1.66543 0
M  V30 940 O 89.525 1.70611 -0.962744 0
M  V30 941 H 88.105 -0.155686 -0.730596 0
M  V30 942 H 90.767 -1.06802 -1.63031 0
M  V30 943 H 89.863 -0.55861 -3.0706 0
M  V30 944 N 90.1641 1.46063 -0.591896 0
M  V30 945 C 91.4131 2.01547 -0.0786637 0
M  V30 946 C 91.7261 1.46796 1.29268 0
M  V30 947 O 92.9321 1.94157 1.89777 0
M  V30 948 C 91.3881 3.59787 -0.0900024 0
M  V30 949 C 90.9961 4.23534 -1.46023 0
M  V30 950 C 92.7401 4.22895 0.368806 0
M  V30 951 C 90.6471 5.73881 -1.4288 0
M  V30 952 H 89.5771 0.753564 -0.0256388 0
M  V30 953 H 92.2281 1.677 -0.744905 0
M  V30 954 H 90.6101 3.90752 0.642586 0
M  V30 955 H 91.7841 4.04167 -2.21328 0
M  V30 956 H 90.0991 3.72558 -1.85982 0
M  V30 957 H 92.6961 5.33116 0.411258 0
M  V30 958 H 93.0391 3.9247 1.38827 0
M  V30 959 H 93.5721 3.9659 -0.31001 0
M  V30 960 H 90.3111 6.0898 -2.42536 0
M  V30 961 H 89.8311 5.95486 -0.718095 0
M  V30 962 H 91.5101 6.36776 -1.14565 0
M  V30 963 N 91.6422 0.330177 1.54103 0
M  V30 964 C 92.5722 -0.525353 2.27513 0
M  V30 965 C 93.5532 -1.11383 1.2856 0
M  V30 966 O 94.7382 -1.13773 1.57383 0
M  V30 967 C 91.8682 -1.6831 3.03791 0
M  V30 968 C 90.8222 -1.2236 4.10137 0
M  V30 969 C 90.1482 -2.46882 4.74293 0
M  V30 970 C 91.4482 -0.333697 5.21233 0
M  V30 971 H 93.1422 0.087013 2.99274 0
M  V30 972 H 90.6882 0.0432893 1.43935 0
M  V30 973 H 92.6412 -2.28795 3.5388 0
M  V30 974 H 91.3652 -2.32216 2.29659 0
M  V30 975 H 90.0242 -0.64165 3.60941 0
M  V30 976 H 89.6722 -3.09165 3.96769 0
M  V30 977 H 89.3722 -2.16825 5.46133 0
M  V30 978 H 90.8962 -3.08117 5.27159 0
M  V30 979 H 92.3102 -0.845013 5.67038 0
M  V30 980 H 90.7072 -0.125612 5.99969 0
M  V30 981 H 91.7772 0.633724 4.80741 0
M  V30 982 N 93.1203 -1.57491 0.0584922 0
M  V30 983 C 94.0503 -2.14988 -0.911178 0
M  V30 984 C 95.0313 -1.07343 -1.31952 0
M  V30 985 O 96.2163 -1.35318 -1.39294 0
M  V30 986 C 93.3463 -2.70078 -2.18347 0
M  V30 987 C 92.3003 -3.82771 -1.91495 0
M  V30 988 C 91.6263 -4.24408 -3.25241 0
M  V30 989 C 92.9263 -5.07592 -1.23075 0
M  V30 990 H 94.6203 -2.96263 -0.432246 0
M  V30 991 H 92.1663 -1.42512 -0.206469 0
M  V30 992 H 94.1193 -3.08943 -2.86587 0
M  V30 993 H 92.8433 -1.86005 -2.68458 0
M  V30 994 H 91.5023 -3.44389 -1.25664 0
M  V30 995 H 91.1503 -3.37275 -3.73168 0
M  V30 996 H 90.8503 -5.00366 -3.08071 0
M  V30 997 H 92.3743 -4.65879 -3.94701 0
M  V30 998 H 93.7883 -5.43857 -1.81362 0
M  V30 999 H 92.1853 -5.88741 -1.16207 0
M  V30 1000 H 93.2553 -4.84454 -0.207847 0
M  V30 1001 N 94.5984 0.214957 -1.56127 0
M  V30 1002 C 95.8384 0.945364 -1.81224 0
M  V30 1003 C 96.2024 1.81265 -0.633005 0
M  V30 1004 O 97.4034 2.57731 -0.763423 0
M  V30 1005 C 95.6744 1.75665 -3.1125 0
M  V30 1006 S 97.2334 2.54179 -3.57685 0
M  V30 1007 H 94.0514 0.317443 -0.6362 0
M  V30 1008 H 96.6534 0.210381 -1.94365 0
M  V30 1009 H 95.3574 1.10977 -3.9511 0
M  V30 1010 H 94.8884 2.53381 -3.00934 0
M  V30 1011 H 96.9034 3.7792 -3.21545 0
M  V30 1012 N 96.0765 1.50051 0.48192 0
M  V30 1013 C 97.3245 1.60181 1.23234 0
M  V30 1014 C 97.6455 0.299176 1.92691 0
M  V30 1015 O 96.9155 -0.682708 1.83619 0
M  V30 1016 H 95.4955 0.590232 0.457859 0
M  V30 1017 H 98.1575 1.86775 0.556881 0
M  V30 1018 H 97.2535 2.40753 1.98607 0
M  V30 1019 N 97.5546 -0.734337 1.39446 0
M  V30 1020 C 98.7826 -1.52358 1.39981 0
M  V30 1021 C 99.1976 -1.88799 -0.0054975 0
M  V30 1022 O 98.5546 -1.54146 -0.976998 0
M  V30 1023 C 98.6056 -2.81072 2.27333 0
M  V30 1024 O 98.3266 -2.46178 3.62392 0
M  V30 1025 C 99.8276 -3.75096 2.36259 0
M  V30 1026 H 97.0476 -0.470806 0.478103 0
M  V30 1027 H 99.5916 -0.907339 1.83269 0
M  V30 1028 H 97.7466 -3.39026 1.87457 0
M  V30 1029 H 98.1606 -3.28866 4.08592 0
M  V30 1030 H 99.6346 -4.62305 3.01626 0
M  V30 1031 H 100.112 -4.16892 1.38194 0
M  V30 1032 H 100.718 -3.23061 2.76608 0
M  V30 1033 N 99.0327 -1.24633 -0.964593 0
M  V30 1034 C 100.281 -1.08573 -1.70459 0
M  V30 1035 C 100.602 0.375655 -1.91347 0
M  V30 1036 O 99.8717 1.26779 -1.49345 0
M  V30 1037 H 98.4517 -0.398784 -0.631649 0
M  V30 1038 H 101.114 -1.56601 -1.16026 0
M  V30 1039 H 100.21 -1.58623 -2.68785 0
M  V30 1040 N 100.511 1.16574 -1.06058 0
M  V30 1041 C 101.441 2.23057 -0.690488 0
M  V30 1042 C 102.422 1.67141 0.315901 0
M  V30 1043 O 103.607 1.93253 0.191556 0
M  V30 1044 C 100.737 3.47222 -0.073625 0
M  V30 1045 C 99.6908 4.16016 -1.00573 0
M  V30 1046 C 99.0168 5.34104 -0.252289 0
M  V30 1047 C 100.317 4.67264 -2.33371 0
M  V30 1048 H 102.011 2.54271 -1.58072 0
M  V30 1049 H 99.5568 1.22218 -0.76149 0
M  V30 1050 H 101.51 4.20939 0.19714 0
M  V30 1051 H 100.234 3.15302 0.85161 0
M  V30 1052 H 98.8928 3.44223 -1.2612 0
M  V30 1053 H 98.5408 4.98437 0.675988 0
M  V30 1054 H 98.2408 5.81072 -0.873455 0
M  V30 1055 H 99.7648 6.10599 0.0109857 0
M  V30 1056 H 101.179 5.32573 -2.12223 0
M  V30 1057 H 99.5758 5.24843 -2.90963 0
M  V30 1058 H 100.646 3.83602 -2.96611 0
M  V30 1059 N 101.989 0.842826 1.3317 0
M  V30 1060 C 103.237 0.439577 1.97262 0
M  V30 1061 C 103.558 -1.00548 1.67078 0
M  V30 1062 O 102.828 -1.70098 0.971779 0
M  V30 1063 H 101.408 0.159558 0.72976 0
M  V30 1064 H 104.07 1.07665 1.62463 0
M  V30 1065 H 103.166 0.574886 3.0676 0
M  V30 1066 N 103.467 -1.45747 0.599634 0
M  V30 1067 C 104.4 -2.27547 -0.172552 0
M  V30 1068 C 105.378 -1.36657 -0.881116 0
M  V30 1069 O 106.562 -1.66081 -0.891595 0
M  V30 1070 C 103.689 -3.14829 -1.24903 0
M  V30 1071 C 102.735 -4.21603 -0.644465 0
M  V30 1072 S 103.568 -5.32754 0.541606 0
M  V30 1073 C 104.724 -6.23604 -0.535656 0
M  V30 1074 H 104.957 -2.92691 0.521468 0
M  V30 1075 H 102.49 -1.49473 0.386947 0
M  V30 1076 H 104.448 -3.65675 -1.86527 0
M  V30 1077 H 103.109 -2.48965 -1.91508 0
M  V30 1078 H 102.302 -4.82566 -1.45417 0
M  V30 1079 H 101.904 -3.73857 -0.103534 0
M  V30 1080 H 104.196 -6.62519 -1.41686 0
M  V30 1081 H 105.139 -7.0809 0.0376246 0
M  V30 1082 H 105.547 -5.58103 -0.84741 0
M  V30 1083 N 104.945 -0.338344 -1.53925 0
M  V30 1084 C 106.17 0.263987 -2.05713 0
M  V30 1085 C 106.595 1.43847 -1.21201 0
M  V30 1086 O 105.953 1.79904 -0.224535 0
M  V30 1087 C 106.001 0.662 -3.54471 0
M  V30 1088 O 105.105 1.76265 -3.72833 0
M  V30 1089 H 104.446 0.0448722 -0.662482 0
M  V30 1090 H 106.976 -0.491048 -1.9862 0
M  V30 1091 H 106.986 0.940594 -3.9701 0
M  V30 1092 H 105.661 -0.196937 -4.15433 0
M  V30 1093 H 104.238 1.48173 -3.42198 0
M  V30 1094 N 106.423 1.57458 -0.0668435 0
M  V30 1095 C 107.672 1.92477 0.602947 0
M  V30 1096 C 107.985 0.948419 1.71068 0
M  V30 1097 O 109.191 1.19124 2.43971 0
M  V30 1098 C 107.647 3.41903 1.12383 0
M  V30 1099 C 107.255 4.47975 0.04737 0
M  V30 1100 C 108.999 3.85931 1.76797 0
M  V30 1101 C 106.906 5.88529 0.582022 0
M  V30 1102 H 105.836 0.718387 0.22899 0
M  V30 1103 H 108.487 1.82978 -0.138276 0
M  V30 1104 H 106.869 3.46459 1.91787 0
M  V30 1105 H 108.043 4.55029 -0.726978 0
M  V30 1106 H 106.358 4.13384 -0.500243 0
M  V30 1107 H 108.955 4.88322 2.17821 0
M  V30 1108 H 109.298 3.23029 2.62599 0
M  V30 1109 H 109.831 3.83958 1.04024 0
M  V30 1110 H 106.57 6.55065 -0.238721 0
M  V30 1111 H 106.09 5.85004 1.324 0
M  V30 1112 H 107.769 6.38258 1.05999 0
M  V30 1113 N 107.901 -0.206675 1.56239 0
M  V30 1114 C 108.864 -1.23976 1.92776 0
M  V30 1115 C 109.864 -1.39041 0.807729 0
M  V30 1116 O 111.054 -1.37051 1.0753 0
M  V30 1117 C 108.186 -2.61112 2.19165 0
M  V30 1118 H 109.379 -0.927764 2.85189 0
M  V30 1119 H 106.932 -0.447718 1.4975 0
M  V30 1120 H 107.667 -2.97386 1.29352 0
M  V30 1121 H 107.452 -2.51552 3.00772 0
M  V30 1122 H 108.942 -3.35633 2.48476 0
M  V30 1123 N 109.379 -1.50304 -0.473955 0
M  V30 1124 C 110.342 -1.6841 -1.55469 0
M  V30 1125 C 111.342 -0.554905 -1.50922 0
M  V30 1126 O 112.532 -0.821882 -1.53593 0
M  V30 1127 C 109.664 -1.70667 -2.95102 0
M  V30 1128 H 110.857 -2.64828 -1.40733 0
M  V30 1129 H 108.41 -1.39742 -0.700132 0
M  V30 1130 H 109.145 -0.75932 -3.15285 0
M  V30 1131 H 108.93 -2.52698 -2.9981 0
M  V30 1132 H 110.42 -1.8664 -3.73571 0
M  V30 1133 N 110.857 0.726932 -1.39834 0
M  V30 1134 C 111.805 1.86235 -1.39353 0
M  V30 1135 C 112.799 1.67144 -0.275555 0
M  V30 1136 O 114.005 1.74387 -0.44601 0
M  V30 1137 H 110.38 0.613174 -0.43534 0
M  V30 1138 H 112.351 1.83756 -2.35109 0
M  V30 1139 C 111.1 3.23995 -1.26185 0
M  V30 1140 H 110.423 3.39285 -2.11484 0
M  V30 1141 H 111.863 4.03609 -1.29907 0
M  V30 1142 C 110.322 3.36888 0.0290018 0
M  V30 1143 O 110.852 3.89152 0.99619 0
M  V30 1144 N 109.058 2.90446 0.0947437 0
M  V30 1145 H 108.605 2.48102 -0.693035 0
M  V30 1146 H 108.563 2.99451 0.957932 0
M  V30 1147 N 112.336 1.25143 0.95797 0
M  V30 1148 C 113.752 1.01892 1.22842 0
M  V30 1149 C 113.952 -0.266311 1.99732 0
M  V30 1150 O 113.008 -0.979913 2.3271 0
M  V30 1151 C 114.321 2.24004 2.00606 0
M  V30 1152 C 115.869 2.28731 2.13662 0
M  V30 1153 C 116.344 3.5049 2.94823 0
M  V30 1154 N 117.835 3.50866 3.02403 0
M  V30 1155 C 118.57 4.4174 3.65586 0
M  V30 1156 N 118.066 5.42882 4.30408 0
M  V30 1157 N 119.859 4.29429 3.62694 0
M  V30 1158 H 112.01 2.07718 0.443493 0
M  V30 1159 H 114.273 0.912031 0.258657 0
M  V30 1160 H 113.979 3.17395 1.51503 0
M  V30 1161 H 113.853 2.26907 3.01319 0
M  V30 1162 H 116.24 1.35865 2.61963 0
M  V30 1163 H 116.321 2.29848 1.12265 0
M  V30 1164 H 115.965 4.43676 2.47213 0
M  V30 1165 H 115.895 3.46617 3.96439 0
M  V30 1166 H 118.386 2.777 2.56302 0
M  V30 1167 H 118.699 6.0844 4.76467 0
M  V30 1168 H 117.044 5.46758 4.29047 0
M  V30 1169 H 120.235 3.49643 3.11236 0
M  V30 1170 H 120.408 5.00448 4.1165 0
M  V30 1171 N 113.814 -1.1601 1.06675 0
M  V30 1172 C 115.044 -1.90251 0.805497 0
M  V30 1173 C 115.452 -1.77891 -0.64431 0
M  V30 1174 O 114.795 -1.12383 -1.45313 0
M  V30 1175 C 114.857 -3.41419 1.12576 0
M  V30 1176 C 114.521 -3.77564 2.57477 0
M  V30 1177 C 115.518 -3.79161 3.55715 0
M  V30 1178 C 113.203 -4.08079 2.92877 0
M  V30 1179 C 115.197 -4.10767 4.8739 0
M  V30 1180 C 112.884 -4.39351 4.24751 0
M  V30 1181 C 113.882 -4.40675 5.21818 0
M  V30 1182 O 113.57 -4.71202 6.51325 0
M  V30 1183 H 113.302 -0.610018 0.291297 0
M  V30 1184 H 115.856 -1.47958 1.4247 0
M  V30 1185 H 114.086 -3.84079 0.449503 0
M  V30 1186 H 115.775 -3.9694 0.84814 0
M  V30 1187 H 116.541 -3.55693 3.29708 0
M  V30 1188 H 112.42 -4.06211 2.17976 0
M  V30 1189 H 115.964 -4.11715 5.63148 0
M  V30 1190 H 111.861 -4.62285 4.50514 0
M  V30 1191 H 112.629 -4.88996 6.56373 0
M  V30 1192 N 115.292 -0.849877 -1.32721 0
M  V30 1193 C 116.708 -0.539102 -1.50219 0
M  V30 1194 C 116.908 0.931271 -1.78689 0
M  V30 1195 O 115.964 1.71455 -1.85363 0
M  V30 1196 C 117.277 -1.42196 -2.64954 0
M  V30 1197 C 118.825 -1.42189 -2.78839 0
M  V30 1198 C 119.3 -2.28985 -3.96648 0
M  V30 1199 N 120.791 -2.26754 -4.03902 0
M  V30 1200 C 121.526 -2.90644 -4.94281 0
M  V30 1201 N 121.022 -3.63629 -5.897 0
M  V30 1202 N 122.815 -2.80057 -4.87365 0
M  V30 1203 H 114.966 -1.80156 -1.12506 0
M  V30 1204 H 117.229 -0.769217 -0.554085 0
M  V30 1205 H 116.935 -2.46733 -2.50631 0
M  V30 1206 H 116.809 -1.10591 -3.60624 0
M  V30 1207 H 119.196 -0.38419 -2.92588 0
M  V30 1208 H 119.277 -1.77807 -1.83898 0
M  V30 1209 H 118.921 -3.32819 -3.83658 0
M  V30 1210 H 118.851 -1.90702 -4.90857 0
M  V30 1211 H 121.342 -1.73688 -3.3562 0
M  V30 1212 H 121.655 -4.09558 -6.55349 0
M  V30 1213 H 120 -3.67737 -5.89741 0
M  V30 1214 H 123.191 -2.22593 -4.11789 0
M  V30 1215 H 123.364 -3.30132 -5.57599 0
M  V30 1216 N 116.77 1.45427 -0.607355 0
M  V30 1217 C 118.018 2.01841 -0.102253 0
M  V30 1218 C 118.339 1.47832 1.27164 0
M  V30 1219 O 117.609 0.672497 1.83995 0
M  V30 1220 H 116.189 0.746188 -0.0348101 0
M  V30 1221 H 118.851 1.78229 -0.7887 0
M  V30 1222 H 117.947 3.12057 -0.0518585 0
M  V30 1223 N 118.248 0.346503 1.53744 0
M  V30 1224 C 119.497 -0.250122 2.00143 0
M  V30 1225 C 119.81 -1.51418 1.23822 0
M  V30 1226 O 121.016 -2.18823 1.60713 0
M  V30 1227 C 119.472 -0.496252 3.56462 0
M  V30 1228 C 119.08 0.752077 4.41642 0
M  V30 1229 C 120.824 -1.05157 4.11269 0
M  V30 1230 C 118.731 0.476583 5.89477 0
M  V30 1231 H 117.661 -0.0972409 0.747703 0
M  V30 1232 H 120.312 0.46229 1.77581 0
M  V30 1233 H 118.694 -1.26944 3.75102 0
M  V30 1234 H 119.868 1.5266 4.34778 0
M  V30 1235 H 118.183 1.22925 3.97842 0
M  V30 1236 H 120.78 -1.27269 5.19333 0
M  V30 1237 H 121.123 -2.00799 3.64672 0
M  V30 1238 H 121.656 -0.339019 3.96353 0
M  V30 1239 H 118.395 1.4028 6.40314 0
M  V30 1240 H 117.915 -0.259794 5.99237 0
M  V30 1241 H 119.594 0.0949315 6.4693 0
M  V30 1242 N 119.726 -1.57421 0.075193 0
M  V30 1243 C 121.142 -1.57099 -0.281444 0
M  V30 1244 C 121.342 -1.08486 -1.69803 0
M  V30 1245 O 120.398 -0.752279 -2.41033 0
M  V30 1246 C 121.711 -3.00571 -0.0880041 0
M  V30 1247 C 123.259 -3.12605 -0.157281 0
M  V30 1248 C 123.734 -4.57999 0.0079207 0
M  V30 1249 N 125.225 -4.63176 -0.0475725 0
M  V30 1250 C 125.96 -5.73373 0.0557876 0
M  V30 1251 N 125.456 -6.92473 0.21286 0
M  V30 1252 N 127.249 -5.621 -0.00152098 0
M  V30 1253 H 119.4 -1.87335 1.00098 0
M  V30 1254 H 121.663 -0.86377 0.390646 0
M  V30 1255 H 121.369 -3.40262 0.889629 0
M  V30 1256 H 121.243 -3.67754 -0.838875 0
M  V30 1257 H 123.63 -2.72798 -1.1254 0
M  V30 1258 H 123.711 -2.48053 0.62475 0
M  V30 1259 H 123.355 -4.98496 0.972824 0
M  V30 1260 H 123.285 -5.20586 -0.793556 0
M  V30 1261 H 125.776 -3.7753 -0.167244 0
M  V30 1262 H 126.089 -7.72279 0.283781 0
M  V30 1263 H 124.434 -6.94556 0.248267 0
M  V30 1264 H 127.625 -4.67938 -0.122958 0
M  V30 1265 H 127.798 -6.47948 0.0824844 0
M  V30 1266 N 121.204 0.198386 -1.56346 0
M  V30 1267 C 122.167 1.22952 -1.93431 0
M  V30 1268 C 123.167 1.38611 -0.815092 0
M  V30 1269 O 124.357 1.36479 -1.08255 0
M  V30 1270 C 121.489 2.59946 -2.20546 0
M  V30 1271 H 122.682 0.912626 -2.85677 0
M  V30 1272 H 120.235 0.43977 -1.49986 0
M  V30 1273 H 120.97 2.96696 -1.30927 0
M  V30 1274 H 120.755 2.49953 -3.02102 0
M  V30 1275 H 122.245 3.3431 -2.50253 0
M  V30 1276 N 122.682 1.50554 0.465978 0
M  V30 1277 C 123.645 1.69233 1.54574 0
M  V30 1278 C 124.645 0.562901 1.50626 0
M  V30 1279 O 125.835 0.830016 1.53155 0
M  V30 1280 C 122.967 1.7223 2.94193 0
M  V30 1281 H 124.16 2.65571 1.39327 0
M  V30 1282 H 121.713 1.40111 0.692711 0
M  V30 1283 H 122.448 0.77603 3.14878 0
M  V30 1284 H 122.233 2.54285 2.98466 0
M  V30 1285 H 123.723 1.88618 3.72576 0
M  V30 1286 N 124.16 -0.719506 1.40217 0
M  V30 1287 C 125.09 -1.8465 1.42922 0
M  V30 1288 C 126.071 -1.67599 0.29062 0
M  V30 1289 O 127.256 -1.87688 0.498677 0
M  V30 1290 C 124.386 -3.22565 1.28722 0
M  V30 1291 C 123.34 -3.54281 2.40144 0
M  V30 1292 C 122.666 -4.91298 2.11023 0
M  V30 1293 C 123.966 -3.55676 3.82481 0
M  V30 1294 H 125.66 -1.82644 2.37237 0
M  V30 1295 H 123.206 -0.877305 1.1419 0
M  V30 1296 H 125.159 -4.01095 1.29232 0
M  V30 1297 H 123.883 -3.25137 0.308811 0
M  V30 1298 H 122.542 -2.78088 2.38877 0
M  V30 1299 H 122.19 -4.90468 1.11582 0
M  V30 1300 H 121.89 -5.13485 2.8567 0
M  V30 1301 H 123.414 -5.72166 2.13209 0
M  V30 1302 H 124.828 -4.24254 3.85592 0
M  V30 1303 H 123.225 -3.89388 4.56614 0
M  V30 1304 H 124.295 -2.55144 4.12346 0
M  V30 1305 N 125.638 -1.25649 -0.95132 0
M  V30 1306 C 126.878 -1.11802 -1.71113 0
M  V30 1307 C 127.242 0.334758 -1.89059 0
M  V30 1308 O 128.443 0.595121 -2.62129 0
M  V30 1309 C 126.714 -1.85512 -3.05483 0
M  V30 1310 S 128.273 -1.87597 -3.96677 0
M  V30 1311 H 125.091 -0.399552 -0.588115 0
M  V30 1312 H 127.693 -1.59222 -1.1344 0
M  V30 1313 H 126.397 -2.90299 -2.90094 0
M  V30 1314 H 125.928 -1.38493 -3.68216 0
M  V30 1315 H 127.943 -0.955389 -4.86916 0
M  V30 1316 N 127.117 1.15442 -1.07289 0
M  V30 1317 C 128.047 2.22312 -0.714107 0
M  V30 1318 C 129.028 1.67467 0.298155 0
M  V30 1319 O 130.213 1.93445 0.171048 0
M  V30 1320 C 127.343 3.47124 -0.110448 0
M  V30 1321 C 126.297 4.14926 -1.04979 0
M  V30 1322 C 125.623 5.33807 -0.308924 0
M  V30 1323 C 126.923 4.64762 -2.38314 0
M  V30 1324 H 128.617 2.5258 -1.6076 0
M  V30 1325 H 126.163 1.21404 -0.77441 0
M  V30 1326 H 128.116 4.21124 0.152482 0
M  V30 1327 H 126.84 3.16187 0.81812 0
M  V30 1328 H 125.499 3.42866 -1.29764 0
M  V30 1329 H 125.147 4.99126 0.623084 0
M  V30 1330 H 124.847 5.80113 -0.935036 0
M  V30 1331 H 126.371 6.10576 -0.0537771 0
M  V30 1332 H 127.785 5.30292 -2.1786 0
M  V30 1333 H 126.182 5.21728 -2.96514 0
M  V30 1334 H 127.252 3.80434 -3.00663 0
M  V30 1335 N 128.595 0.856903 1.32268 0
M  V30 1336 C 129.842 0.461386 1.97174 0
M  V30 1337 C 130.17 -0.983491 1.67803 0
M  V30 1338 O 129.425 -1.70541 0.959903 0
M  V30 1339 C 129.724 0.649919 3.51441 0
M  V30 1340 C 129.39 2.0656 4.00804 0
M  V30 1341 C 128.052 2.45279 4.13995 0
M  V30 1342 C 130.404 2.98947 4.26943 0
M  V30 1343 C 127.732 3.75653 4.50668 0
M  V30 1344 C 130.084 4.28822 4.65075 0
M  V30 1345 C 128.748 4.67472 4.76472 0
M  V30 1346 H 128.018 0.168833 0.72151 0
M  V30 1347 H 130.665 1.08739 1.57633 0
M  V30 1348 H 128.97 -0.0593018 3.91755 0
M  V30 1349 H 130.667 0.32391 3.9969 0
M  V30 1350 H 127.257 1.75495 3.91024 0
M  V30 1351 H 131.441 2.70265 4.16258 0
M  V30 1352 H 126.697 4.05379 4.57688 0
M  V30 1353 H 130.871 5.0047 4.84255 0
M  V30 1354 H 128.498 5.68539 5.04646 0
M  V30 1355 N 130.073 -1.45103 0.615059 0
M  V30 1356 C 131.484 -1.85654 0.197383 0
M  V30 1357 C 131.835 -1.51433 -1.24749 0
M  V30 1358 O 130.96 -0.944608 -1.94695 0
M  V30 1359 C 131.555 -3.36972 0.351448 0
M  V30 1360 C 130.114 -3.76398 -0.011593 0
M  V30 1361 C 129.261 -2.69024 0.672394 0
M  V30 1362 H 132.212 -1.35797 0.821263 0
M  V30 1363 H 132.233 -3.78239 -0.414227 0
M  V30 1364 H 131.745 -3.61847 1.40314 0
M  V30 1365 H 129.846 -3.5714 -1.06217 0
M  V30 1366 H 129.959 -4.77532 0.387265 0
M  V30 1367 H 128.323 -2.54465 0.109284 0
M  V30 1368 H 129.106 -2.96735 1.72636 0
M  V30 1369 N 131.551 -0.354651 -1.53558 0
M  V30 1370 C 132.828 0.294281 -1.93374 0
M  V30 1371 C 133.208 1.67313 -1.28723 0
M  V30 1372 O 132.556 2.24179 -0.442247 0
M  V30 1373 C 132.766 0.355445 -3.47185 0
M  V30 1374 C 134.114 0.601007 -4.20325 0
M  V30 1375 O 135.138 0.437106 -3.53508 0
M  V30 1376 O 133.997 0.919322 -5.38712 0
M  V30 1377 H 131.091 0.174033 -0.808481 0
M  V30 1378 H 133.637 -0.406638 -1.64756 0
M  V30 1379 H 132.409 -0.611729 -3.86489 0
M  V30 1380 H 132.032 1.1027 -3.82003 0
M  V30 1381 N 133.029 1.57378 -0.0835403 0
M  V30 1382 C 133.962 2.09016 0.915833 0
M  V30 1383 C 134.94 0.997993 1.2837 0
M  V30 1384 O 136.124 1.27219 1.39096 0
M  V30 1385 C 133.251 2.55757 2.22049 0
M  V30 1386 C 132.297 3.76522 2.00333 0
M  V30 1387 S 133.13 5.20661 1.25191 0
M  V30 1388 C 134.286 5.70743 2.56912 0
M  V30 1389 H 134.519 2.93457 0.476492 0
M  V30 1390 H 132.052 1.53856 0.129493 0
M  V30 1391 H 134.01 2.83346 2.97027 0
M  V30 1392 H 132.671 1.71564 2.63106 0
M  V30 1393 H 131.864 4.07256 2.96916 0
M  V30 1394 H 131.466 3.49367 1.33488 0
M  V30 1395 H 133.758 5.78304 3.52946 0
M  V30 1396 H 134.701 6.6944 2.30772 0
M  V30 1397 H 135.109 4.98616 2.64655 0
M  V30 1398 N 134.507 -0.190092 1.56449 0
M  V30 1399 C 135.47 -1.21925 1.9408 0
M  V30 1400 C 136.47 -1.38176 0.822431 0
M  V30 1401 O 137.66 -1.35903 1.08977 0
M  V30 1402 C 134.792 -2.58773 2.21922 0
M  V30 1403 H 135.985 -0.897464 2.86157 0
M  V30 1404 H 133.538 -0.43181 1.50217 0
M  V30 1405 H 134.273 -2.95998 1.32499 0
M  V30 1406 H 134.058 -2.48348 3.03424 0
M  V30 1407 H 135.548 -3.32978 2.52022 0
M  V30 1408 N 135.985 -1.50799 -0.457987 0
M  V30 1409 C 137.401 -1.38515 -0.792819 0
M  V30 1410 C 137.601 -0.451409 -1.96379 0
M  V30 1411 O 136.657 0.10112 -2.52297 0
M  V30 1412 C 137.97 -2.80149 -1.09258 0
M  V30 1413 C 139.518 -2.89156 -1.19825 0
M  V30 1414 C 139.993 -4.31651 -1.53106 0
M  V30 1415 N 141.484 -4.34662 -1.60072 0
M  V30 1416 C 142.219 -5.41928 -1.87354 0
M  V30 1417 N 141.715 -6.59384 -2.12568 0
M  V30 1418 N 143.508 -5.29385 -1.88965 0
M  V30 1419 H 135.659 -2.10073 0.313511 0
M  V30 1420 H 137.922 -0.944803 0.0777862 0
M  V30 1421 H 137.628 -3.50374 -0.305084 0
M  V30 1422 H 137.502 -3.18204 -2.02549 0
M  V30 1423 H 139.889 -2.19141 -1.97639 0
M  V30 1424 H 139.97 -2.54626 -0.244821 0
M  V30 1425 H 139.614 -5.02208 -0.758266 0
M  V30 1426 H 139.544 -4.63678 -2.49621 0
M  V30 1427 H 142.035 -3.49973 -1.42573 0
M  V30 1428 H 142.348 -7.36934 -2.32696 0
M  V30 1429 H 140.693 -6.62535 -2.09933 0
M  V30 1430 H 143.884 -4.36616 -1.68772 0
M  V30 1431 H 144.057 -6.13066 -2.09891 0
M  V30 1432 N 137.463 0.71206 -1.40597 0
M  V30 1433 C 138.393 1.83889 -1.43899 0
M  V30 1434 C 139.374 1.67442 -0.299504 0
M  V30 1435 O 140.559 1.87421 -0.508624 0
M  V30 1436 C 137.689 3.21877 -1.30431 0
M  V30 1437 C 136.643 3.53002 -2.42019 0
M  V30 1438 C 135.969 4.90172 -2.13626 0
M  V30 1439 C 137.269 3.53643 -3.84362 0
M  V30 1440 H 138.963 1.81383 -2.38203 0
M  V30 1441 H 136.509 0.871237 -1.14654 0
M  V30 1442 H 138.462 4.00404 -1.31357 0
M  V30 1443 H 137.186 3.24968 -0.326049 0
M  V30 1444 H 135.845 2.76818 -2.40349 0
M  V30 1445 H 135.493 4.89869 -1.14182 0
M  V30 1446 H 135.193 5.11962 -2.88389 0
M  V30 1447 H 136.717 5.71028 -2.1624 0
M  V30 1448 H 138.131 4.22203 -3.87837 0
M  V30 1449 H 136.528 3.86961 -4.58673 0
M  V30 1450 H 137.598 2.52954 -4.13693 0
M  V30 1451 N 138.941 1.26152 0.944643 0
M  V30 1452 C 139.904 1.07474 2.0244 0
M  V30 1453 C 140.904 0.0242064 1.60782 0
M  V30 1454 O 142.094 0.267302 1.72137 0
M  V30 1455 C 139.226 0.633956 3.34953 0
M  V30 1456 H 140.419 2.03336 2.20442 0
M  V30 1457 H 137.972 1.087 1.12312 0
M  V30 1458 H 138.707 -0.326811 3.22649 0
M  V30 1459 H 138.492 1.39247 3.66542 0
M  V30 1460 H 139.982 0.52501 4.14287 0
M  V30 1461 N 140.419 -1.14872 1.07899 0
M  V30 1462 C 141.835 -1.37776 0.805606 0
M  V30 1463 C 142.035 -1.92743 -0.587555 0
M  V30 1464 O 141.091 -2.13678 -1.34528 0
M  V30 1465 C 142.404 -2.34361 1.88402 0
M  V30 1466 C 143.952 -2.48012 1.90942 0
M  V30 1467 C 144.427 -3.47893 2.97883 0
M  V30 1468 N 145.918 -3.55433 2.97021 0
M  V30 1469 C 146.653 -4.32553 3.76412 0
M  V30 1470 N 146.149 -5.12959 4.65666 0
M  V30 1471 N 147.942 -4.27697 3.64735 0
M  V30 1472 H 140.093 -0.775365 1.97742 0
M  V30 1473 H 142.356 -0.403521 0.857831 0
M  V30 1474 H 142.062 -2.01098 2.88535 0
M  V30 1475 H 141.936 -3.34206 1.74889 0
M  V30 1476 H 144.323 -2.8057 0.914579 0
M  V30 1477 H 144.404 -1.48147 2.08534 0
M  V30 1478 H 144.048 -3.16069 3.97571 0
M  V30 1479 H 143.978 -4.47527 2.77538 0
M  V30 1480 H 146.469 -2.98048 2.32326 0
M  V30 1481 H 146.782 -5.69065 5.22862 0
M  V30 1482 H 145.127 -5.12245 4.69712 0
M  V30 1483 H 148.318 -3.63949 2.94378 0
M  V30 1484 H 148.491 -4.8755 4.26848 0
M  V30 1485 N 141.898 -0.863906 -1.31812 0
M  V30 1486 C 143.123 -0.48527 -2.01643 0
M  V30 1487 C 143.548 0.913058 -1.64453 0
M  V30 1488 O 142.906 1.6014 -0.849985 0
M  V30 1489 C 142.954 -0.642625 -3.54828 0
M  V30 1490 O 142.058 0.320659 -4.11151 0
M  V30 1491 H 141.399 -0.193793 -0.635091 0
M  V30 1492 H 143.929 -1.16565 -1.68148 0
M  V30 1493 H 143.939 -0.533628 -4.04495 0
M  V30 1494 H 142.614 -1.66227 -3.81237 0
M  V30 1495 H 141.191 0.167126 -3.72525 0
M  V30 1496 N 143.376 1.44774 -0.622745 0
M  V30 1497 C 144.326 2.2774 0.108889 0
M  V30 1498 C 145.31 1.38189 0.824175 0
M  V30 1499 O 146.502 1.62063 0.711664 0
M  V30 1500 C 143.631 3.25353 1.09546 0
M  V30 1501 C 142.717 4.22392 0.380232 0
M  V30 1502 N 143.108 5.02388 -0.586535 0
M  V30 1503 C 141.406 4.41588 0.625792 0
M  V30 1504 C 142.107 5.72894 -1.00834 0
M  V30 1505 N 141.083 5.42479 -0.348878 0
M  V30 1506 H 144.885 2.86993 -0.63341 0
M  V30 1507 H 142.399 1.5611 -0.447589 0
M  V30 1508 H 144.396 3.83538 1.63414 0
M  V30 1509 H 143.056 2.6766 1.83815 0
M  V30 1510 H 144.067 5.0885 -0.963975 0
M  V30 1511 H 140.744 3.95003 1.352 0
M  V30 1512 H 142.134 6.47158 -1.80656 0
M  V30 1513 N 144.854 0.36279 1.53368 0
M  V30 1514 C 145.802 -0.500155 2.27159 0
M  V30 1515 C 146.796 -1.08575 1.3003 0
M  V30 1516 O 148.002 -1.02927 1.47668 0
M  V30 1517 H 144.377 -0.180009 0.730138 0
M  V30 1518 H 146.348 0.14401 2.98052 0
M  V30 1519 C 145.097 -1.62937 3.07159 0
M  V30 1520 H 144.42 -1.18806 3.8174 0
M  V30 1521 H 145.86 -2.20795 3.61975 0
M  V30 1522 C 144.319 -2.57007 2.17829 0
M  V30 1523 O 144.849 -3.59752 1.78721 0
M  V30 1524 N 143.055 -2.26131 1.82518 0
M  V30 1525 H 142.602 -1.42616 2.14519 0
M  V30 1526 H 142.56 -2.89327 1.23034 0
M  V30 1527 N 146.332 -1.57332 0.0918853 0
M  V30 1528 C 147.28 -2.15075 -0.885747 0
M  V30 1529 C 148.274 -1.09277 -1.29441 0
M  V30 1530 O 149.48 -1.27627 -1.26931 0
M  V30 1531 H 145.855 -0.687966 -0.303656 0
M  V30 1532 H 147.826 -2.96047 -0.373995 0
M  V30 1533 C 146.575 -2.74325 -2.13638 0
M  V30 1534 H 145.898 -3.55418 -1.8308 0
M  V30 1535 H 147.338 -3.183 -2.80109 0
M  V30 1536 C 145.797 -1.70062 -2.90827 0
M  V30 1537 O 146.327 -1.13763 -3.85254 0
M  V30 1538 N 144.533 -1.40628 -2.54307 0
M  V30 1539 H 144.08 -1.866 -1.7759 0
M  V30 1540 H 144.038 -0.711043 -3.06254 0
M  V30 1541 N 147.81 0.181792 -1.56548 0
M  V30 1542 C 148.773 1.20894 -1.94724 0
M  V30 1543 C 149.773 1.37738 -0.829747 0
M  V30 1544 O 150.963 1.35323 -1.09697 0
M  V30 1545 C 148.095 2.57593 -2.23291 0
M  V30 1546 H 149.288 0.882275 -2.86629 0
M  V30 1547 H 146.841 0.423838 -1.50444 0
M  V30 1548 H 147.576 2.95291 -1.34067 0
M  V30 1549 H 147.361 2.46735 -3.04736 0
M  V30 1550 H 148.851 3.31637 -2.53785 0
M  V30 1551 N 149.288 1.51039 0.449983 0
M  V30 1552 C 150.236 1.71995 1.5659 0
M  V30 1553 C 151.23 0.586029 1.5894 0
M  V30 1554 O 152.436 0.76709 1.62837 0
M  V30 1555 H 148.811 0.543233 0.520001 0
M  V30 1556 H 150.782 2.65562 1.36085 0
M  V30 1557 C 149.531 1.8506 2.9436 0
M  V30 1558 H 148.854 2.71712 2.93279 0
M  V30 1559 H 150.294 2.0374 3.71842 0
M  V30 1560 C 148.753 0.607277 3.31382 0
M  V30 1561 O 149.283 -0.243903 4.00959 0
M  V30 1562 N 147.489 0.455073 2.87015 0
M  V30 1563 H 147.036 1.14879 2.30566 0
M  V30 1564 H 146.994 -0.375611 3.12148 0
M  V30 1565 N 150.766 -0.704594 1.40972 0
M  V30 1566 C 152.015 -1.46018 1.39146 0
M  V30 1567 C 152.328 -1.956 0.000589254 0
M  V30 1568 O 153.534 -2.71137 -0.1403 0
M  V30 1569 C 151.99 -2.63996 2.4461 0
M  V30 1570 C 151.598 -2.21238 3.89561 0
M  V30 1571 C 153.342 -3.41677 2.51907 0
M  V30 1572 C 151.249 -3.3612 4.86598 0
M  V30 1573 H 150.179 -0.548444 0.517422 0
M  V30 1574 H 152.83 -0.765784 1.66757 0
M  V30 1575 H 151.212 -3.3566 2.10115 0
M  V30 1576 H 152.386 -1.56923 4.33257 0
M  V30 1577 H 150.701 -1.56574 3.85841 0
M  V30 1578 H 153.298 -4.27182 3.2159 0
M  V30 1579 H 153.641 -3.86247 1.55303 0
M  V30 1580 H 154.174 -2.77064 2.85448 0
M  V30 1581 H 150.913 -2.96572 5.84573 0
M  V30 1582 H 150.433 -3.99315 4.47557 0
M  V30 1583 H 152.112 -4.02029 5.06934 0
M  V30 1584 N 152.244 -1.26651 -0.937939 0
M  V30 1585 C 153.174 -1.10993 -2.05433 0
M  V30 1586 C 154.155 -0.0142161 -1.70094 0
M  V30 1587 O 155.34 -0.186837 -1.93299 0
M  V30 1588 C 152.47 -0.745561 -3.39203 0
M  V30 1589 C 151.424 -1.79337 -3.88616 0
M  V30 1590 C 150.75 -1.28324 -5.19073 0
M  V30 1591 C 152.05 -3.19553 -4.13138 0
M  V30 1592 H 153.744 -2.0438 -2.1879 0
M  V30 1593 H 151.29 -0.984041 -1.05131 0
M  V30 1594 H 153.243 -0.622888 -4.16771 0
M  V30 1595 H 151.967 0.22401 -3.25831 0
M  V30 1596 H 150.626 -1.90477 -3.13231 0
M  V30 1597 H 150.274 -0.303414 -5.02084 0
M  V30 1598 H 149.974 -1.98369 -5.53103 0
M  V30 1599 H 151.498 -1.1733 -5.99221 0
M  V30 1600 H 152.912 -3.11471 -4.81309 0
M  V30 1601 H 151.309 -3.87218 -4.58457 0
M  V30 1602 H 152.379 -3.65368 -3.18801 0
M  V30 1603 N 153.722 1.14298 -1.08507 0
M  V30 1604 C 154.968 1.85633 -0.816581 0
M  V30 1605 C 155.301 1.82784 0.656021 0
M  V30 1606 O 154.576 1.25926 1.48233 0
M  V30 1607 C 154.859 3.34223 -1.34041 0
M  V30 1608 C 154.712 3.45639 -2.87843 0
M  V30 1609 C 156.031 4.29356 -0.9665 0
M  V30 1610 H 153.15 0.67402 -0.298104 0
M  V30 1611 H 155.792 1.34214 -1.34487 0
M  V30 1612 H 153.942 3.78144 -0.89104 0
M  V30 1613 H 155.614 3.10498 -3.41158 0
M  V30 1614 H 153.857 2.86817 -3.25451 0
M  V30 1615 H 154.528 4.50089 -3.19569 0
M  V30 1616 H 157.004 3.93457 -1.35391 0
M  V30 1617 H 155.88 5.3178 -1.3602 0
M  V30 1618 H 156.141 4.41919 0.126362 0
M  V30 1619 N 155.201 0.870884 1.31352 0
M  V30 1620 C 156.131 0.343096 2.30966 0
M  V30 1621 C 157.112 -0.566507 1.60389 0
M  V30 1622 O 158.297 -0.483336 1.88089 0
M  V30 1623 C 155.427 -0.455487 3.443 0
M  V30 1624 C 154.381 0.361103 4.26474 0
M  V30 1625 C 153.707 -0.563221 5.31725 0
M  V30 1626 C 155.007 1.59566 4.97329 0
M  V30 1627 H 156.701 1.17548 2.75359 0
M  V30 1628 H 154.247 0.566686 1.32381 0
M  V30 1629 H 156.2 -0.83525 4.13039 0
M  V30 1630 H 154.924 -1.32139 2.98675 0
M  V30 1631 H 153.583 0.722825 3.59403 0
M  V30 1632 H 153.231 -1.42643 4.82351 0
M  V30 1633 H 152.931 -0.0207409 5.87596 0
M  V30 1634 H 154.455 -0.939808 6.03324 0
M  V30 1635 H 155.869 1.28728 5.58661 0
M  V30 1636 H 154.266 2.07728 5.63 0
M  V30 1637 H 155.336 2.34798 4.24262 0
M  V30 1638 N 156.679 -1.44442 0.630414 0
M  V30 1639 C 158.09 -1.85434 0.217063 0
M  V30 1640 C 158.441 -1.52748 -1.23136 0
M  V30 1641 O 157.566 -0.965205 -1.93682 0
M  V30 1642 C 158.161 -3.36581 0.387168 0
M  V30 1643 C 156.72 -3.76389 0.0283297 0
M  V30 1644 C 155.867 -2.68296 0.700889 0
M  V30 1645 H 158.818 -1.34919 0.83562 0
M  V30 1646 H 158.839 -3.78657 -0.374086 0
M  V30 1647 H 158.351 -3.60339 1.44144 0
M  V30 1648 H 156.452 -3.58246 -1.02423 0
M  V30 1649 H 156.565 -4.77095 0.437892 0
M  V30 1650 H 154.929 -2.54335 0.136267 0
M  V30 1651 H 155.712 -2.94887 1.75774 0
M  V30 1652 N 158.157 -0.370918 -1.53173 0
M  V30 1653 C 159.405 0.216673 -2.00935 0
M  V30 1654 C 159.726 1.48845 -1.25977 0
M  V30 1655 O 158.996 1.92286 -0.374551 0
M  V30 1656 H 157.576 0.0830565 -0.742368 0
M  V30 1657 H 160.238 -0.49838 -1.8842 0
M  V30 1658 H 159.334 0.439893 -3.08984 0
M  V30 1659 N 159.635 1.57281 -0.100228 0
M  V30 1660 C 161.051 1.57527 0.256416 0
M  V30 1661 C 161.251 1.11173 1.68056 0
M  V30 1662 O 160.307 0.79053 2.39806 0
M  V30 1663 C 161.62 3.00673 0.0401747 0
M  V30 1664 C 163.168 3.12815 0.107528 0
M  V30 1665 C 163.643 4.57929 -0.0807834 0
M  V30 1666 N 165.134 4.63193 -0.0261207 0
M  V30 1667 C 165.869 5.73212 -0.146999 0
M  V30 1668 N 165.365 6.92047 -0.322999 0
M  V30 1669 N 167.158 5.62031 -0.0879044 0
M  V30 1670 H 159.309 1.85718 -1.03065 0
M  V30 1671 H 161.572 0.857446 -0.404339 0
M  V30 1672 H 161.278 3.38804 -0.943649 0
M  V30 1673 H 161.152 3.69042 0.780262 0
M  V30 1674 H 163.539 2.74554 1.08186 0
M  V30 1675 H 163.62 2.47028 -0.664134 0
M  V30 1676 H 163.264 4.96886 -1.05201 0
M  V30 1677 H 163.194 5.21783 0.710635 0
M  V30 1678 H 165.685 3.77748 0.107161 0
M  V30 1679 H 165.998 7.7173 -0.406608 0
M  V30 1680 H 164.343 6.94074 -0.358733 0
M  V30 1681 H 167.534 4.68075 0.048498 0
M  V30 1682 H 167.707 6.47734 -0.185557 0
M  V30 1683 N 161.113 -0.173488 1.56642 0
M  V30 1684 C 162.043 -1.2171 1.99271 0
M  V30 1685 C 163.024 -1.46289 0.867959 0
M  V30 1686 O 164.209 -1.5766 1.13388 0
M  V30 1687 C 161.339 -2.55651 2.35074 0
M  V30 1688 C 160.293 -2.45645 3.50489 0
M  V30 1689 C 159.619 -3.84056 3.72028 0
M  V30 1690 C 160.919 -1.96302 4.84007 0
M  V30 1691 H 162.613 -0.86275 2.867 0
M  V30 1692 H 160.159 -0.413571 1.37933 0
M  V30 1693 H 162.112 -3.2886 2.63494 0
M  V30 1694 H 160.836 -2.92869 1.44552 0
M  V30 1695 H 159.495 -1.7489 3.22194 0
M  V30 1696 H 159.143 -4.18664 2.788 0
M  V30 1697 H 158.843 -3.7823 4.49684 0
M  V30 1698 H 160.367 -4.58854 4.02846 0
M  V30 1699 H 161.781 -2.59284 5.11317 0
M  V30 1700 H 160.178 -2.01429 5.65284 0
M  V30 1701 H 161.248 -0.917226 4.76146 0
M  V30 1702 N 162.591 -1.51276 -0.441967 0
M  V30 1703 C 163.84 -1.6295 -1.18871 0
M  V30 1704 C 164.153 -0.349312 -1.92456 0
M  V30 1705 O 165.359 -0.345355 -2.69295 0
M  V30 1706 C 163.815 -2.87759 -2.16155 0
M  V30 1707 C 163.423 -4.22764 -1.48239 0
M  V30 1708 C 165.167 -3.08788 -2.91291 0
M  V30 1709 C 163.074 -5.38728 -2.4398 0
M  V30 1710 H 162.004 -0.606913 -0.447406 0
M  V30 1711 H 164.655 -1.77739 -0.456205 0
M  V30 1712 H 163.037 -2.66593 -2.92821 0
M  V30 1713 H 164.211 -4.54293 -0.771635 0
M  V30 1714 H 162.526 -4.07575 -0.852741 0
M  V30 1715 H 165.123 -3.92599 -3.63002 0
M  V30 1716 H 165.466 -2.21679 -3.5237 0
M  V30 1717 H 165.999 -3.30272 -2.21733 0
M  V30 1718 H 162.738 -6.28082 -1.87598 0
M  V30 1719 H 162.258 -5.1158 -3.13123 0
M  V30 1720 H 163.937 -5.70489 -3.05207 0
M  V30 1721 N 164.069 0.697108 -1.41344 0
M  V30 1722 C 165.317 1.45426 -1.40341 0
M  V30 1723 C 165.638 1.94996 -0.0128787 0
M  V30 1724 O 164.908 1.71599 0.945027 0
M  V30 1725 H 163.488 0.539594 -0.516573 0
M  V30 1726 H 166.15 0.825201 -1.76569 0
M  V30 1727 H 165.246 2.31817 -2.08967 0
M  V30 1728 N 165.547 1.27147 0.931209 0
M  V30 1729 C 166.51 1.09615 2.01289 0
M  V30 1730 C 167.51 0.0412581 1.60747 0
M  V30 1731 O 168.7 0.285545 1.71844 0
M  V30 1732 C 165.832 0.669447 3.34262 0
M  V30 1733 H 167.025 2.05662 2.18273 0
M  V30 1734 H 164.578 1.09885 1.11153 0
M  V30 1735 H 165.313 -0.292572 3.22978 0
M  V30 1736 H 165.098 1.43127 3.65044 0
M  V30 1737 H 166.588 0.568921 4.13706 0
M  V30 1738 N 167.025 -1.13721 1.09112 0
M  V30 1739 C 167.935 -2.22638 0.73957 0
M  V30 1740 C 168.951 -1.72091 -0.257068 0
M  V30 1741 O 170.127 -2.01155 -0.0992154 0
M  V30 1742 C 167.192 -3.46322 0.16191 0
M  V30 1743 C 166.253 -4.11775 1.21408 0
M  V30 1744 C 165.486 -5.29555 0.663891 0
M  V30 1745 O 165.709 -5.68077 -0.514274 0
M  V30 1746 O 164.643 -5.84973 1.41738 0
M  V30 1747 H 168.469 -2.55074 1.64836 0
M  V30 1748 H 166.054 -1.21791 0.865289 0
M  V30 1749 H 167.936 -4.21107 -0.157073 0
M  V30 1750 H 166.611 -3.15593 -0.719932 0
M  V30 1751 H 165.518 -3.3883 1.58571 0
M  V30 1752 H 166.851 -4.46627 2.06845 0
M  V30 1753 N 168.503 -0.877838 -1.30888 0
M  V30 1754 C 169.433 -0.35534 -2.3078 0
M  V30 1755 C 170.414 0.557994 -1.60687 0
M  V30 1756 O 171.599 0.473355 -1.88343 0
M  V30 1757 C 168.729 0.437221 -3.44537 0
M  V30 1758 C 167.683 -0.383715 -4.26276 0
M  V30 1759 C 167.009 0.535014 -5.32017 0
M  V30 1760 C 168.309 -1.62201 -4.96476 0
M  V30 1761 H 170.003 -1.19007 -2.74732 0
M  V30 1762 H 167.549 -0.573698 -1.32078 0
M  V30 1763 H 169.502 0.813334 -4.13477 0
M  V30 1764 H 168.226 1.30553 -2.99372 0
M  V30 1765 H 166.885 -0.741874 -3.59015 0
M  V30 1766 H 166.533 1.40083 -4.831 0
M  V30 1767 H 166.233 -0.0104211 -5.87599 0
M  V30 1768 H 167.757 0.907799 -6.03814 0
M  V30 1769 H 169.171 -1.31689 -5.5797 0
M  V30 1770 H 167.568 -2.10711 -5.61891 0
M  V30 1771 H 168.638 -2.37044 -4.23011 0
M  V30 1772 N 169.982 1.44106 -0.638065 0
M  V30 1773 C 170.945 2.29138 0.0531013 0
M  V30 1774 C 171.945 1.41409 0.765506 0
M  V30 1775 O 173.135 1.63206 0.609046 0
M  V30 1776 C 170.267 3.23144 1.08584 0
M  V30 1777 H 171.46 2.91739 -0.694883 0
M  V30 1778 H 169.013 1.51134 -0.398538 0
M  V30 1779 H 169.748 2.65408 1.86357 0
M  V30 1780 H 169.533 3.87804 0.578852 0
M  V30 1781 H 171.023 3.87004 1.56899 0
M  V30 1782 N 171.46 0.379036 1.52974 0
M  V30 1783 C 172.707 -0.206421 2.01445 0
M  V30 1784 C 173.035 -1.47668 1.26587 0
M  V30 1785 O 172.29 -1.92514 0.351675 0
M  V30 1786 C 172.589 -0.53096 3.53434 0
M  V30 1787 C 172.255 0.646546 4.46241 0
M  V30 1788 C 170.917 0.969604 4.7133 0
M  V30 1789 C 173.269 1.43479 5.01062 0
M  V30 1790 C 170.597 2.08263 5.48492 0
M  V30 1791 C 172.949 2.53834 5.7944 0
M  V30 1792 C 171.613 2.86659 6.02812 0
M  V30 1793 H 170.883 -0.0755349 0.73714 0
M  V30 1794 H 173.53 0.514271 1.84465 0
M  V30 1795 H 171.835 -1.33285 3.68432 0
M  V30 1796 H 173.532 -0.996417 3.88423 0
M  V30 1797 H 170.122 0.384734 4.2687 0
M  V30 1798 H 174.306 1.19844 4.81613 0
M  V30 1799 H 169.562 2.34078 5.64816 0
M  V30 1800 H 173.736 3.15319 6.20924 0
M  V30 1801 H 171.363 3.73026 6.62387 0
M  V30 1802 N 172.938 -1.57226 0.108567 0
M  V30 1803 C 174.184 -1.95919 -0.546564 0
M  V30 1804 C 174.539 -0.990417 -1.6495 0
M  V30 1805 O 173.832 -0.0186593 -1.91591 0
M  V30 1806 C 174.026 -3.38911 -1.13463 0
M  V30 1807 C 173.855 -4.4961 -0.0901926 0
M  V30 1808 C 172.625 -5.04168 0.338008 0
M  V30 1809 C 174.823 -5.09693 0.686808 0
M  V30 1810 N 172.805 -5.98434 1.36931 0
M  V30 1811 C 174.176 -5.99804 1.56958 0
M  V30 1812 C 176.231 -4.92388 0.738846 0
M  V30 1813 C 174.934 -6.74463 2.49983 0
M  V30 1814 C 176.96 -5.67719 1.65676 0
M  V30 1815 C 176.322 -6.57507 2.52713 0
M  V30 1816 H 172.421 -0.763312 -0.169936 0
M  V30 1817 H 175.005 -1.93728 0.194264 0
M  V30 1818 H 173.176 -3.41769 -1.84522 0
M  V30 1819 H 174.908 -3.64752 -1.75322 0
M  V30 1820 H 171.663 -4.73571 -0.0523673 0
M  V30 1821 H 172.087 -6.5027 1.88356 0
M  V30 1822 H 176.729 -4.22724 0.080084 0
M  V30 1823 H 174.447 -7.4338 3.16878 0
M  V30 1824 H 178.033 -5.56338 1.70233 0
M  V30 1825 H 176.913 -7.14778 3.22586 0
M  V30 1826 N 174.416 0.165178 -1.56732 0
M  V30 1827 C 175.665 0.879143 -1.81532 0
M  V30 1828 C 175.978 1.83144 -0.686842 0
M  V30 1829 O 177.184 2.58823 -0.819944 0
M  V30 1830 C 175.64 1.61388 -3.21686 0
M  V30 1831 C 175.248 0.704904 -4.4242 0
M  V30 1832 C 176.992 2.3157 -3.55774 0
M  V30 1833 C 174.899 1.44022 -5.73595 0
M  V30 1834 H 173.829 0.332033 -0.676957 0
M  V30 1835 H 176.48 0.132008 -1.83025 0
M  V30 1836 H 174.862 2.40599 -3.14529 0
M  V30 1837 H 176.036 -0.0506815 -4.60772 0
M  V30 1838 H 174.351 0.112419 -4.16248 0
M  V30 1839 H 176.948 2.8719 -4.51028 0
M  V30 1840 H 177.291 3.07201 -2.8095 0
M  V30 1841 H 177.824 1.59297 -3.64513 0
M  V30 1842 H 174.563 0.72612 -6.51466 0
M  V30 1843 H 174.083 2.16898 -5.5921 0
M  V30 1844 H 175.762 1.98606 -6.15764 0
M  V30 1845 N 175.894 1.51508 0.433938 0
M  V30 1846 C 177.14 1.64588 1.18484 0
M  V30 1847 C 177.473 0.362666 1.90784 0
M  V30 1848 O 176.748 -0.637892 1.83742 0
M  V30 1849 C 177.031 2.85149 2.19913 0
M  V30 1850 C 176.884 4.23456 1.51674 0
M  V30 1851 C 178.203 3.01227 3.20858 0
M  V30 1852 H 175.322 0.598994 0.429389 0
M  V30 1853 H 177.964 1.84002 0.473647 0
M  V30 1854 H 176.114 2.68729 2.80566 0
M  V30 1855 H 177.786 4.51552 0.943322 0
M  V30 1856 H 176.029 4.25998 0.819035 0
M  V30 1857 H 176.7 5.03812 2.2556 0
M  V30 1858 H 179.176 3.16382 2.70263 0
M  V30 1859 H 178.052 3.87141 3.89118 0
M  V30 1860 H 178.313 2.13447 3.8716 0
M  V30 1861 N 177.372 -0.689602 1.41712 0
M  V30 1862 C 178.649 -1.44457 1.31877 0
M  V30 1863 C 179.029 -2.11039 -0.0508537 0
M  V30 1864 O 178.377 -2.02138 -1.06547 0
M  V30 1865 C 178.587 -2.45913 2.47645 0
M  V30 1866 C 179.935 -3.10991 2.89084 0
M  V30 1867 O 180.959 -2.56238 2.47428 0
M  V30 1868 O 179.818 -4.10174 3.61137 0
M  V30 1869 H 176.912 -0.64362 0.519309 0
M  V30 1870 H 179.458 -0.719576 1.53689 0
M  V30 1871 H 178.23 -1.95409 3.39015 0
M  V30 1872 H 177.853 -3.25913 2.27742 0
M  V30 1873 N 178.85 -1.27639 -0.924453 0
M  V30 1874 C 180.078 -1.16989 -1.70649 0
M  V30 1875 C 180.493 0.272869 -1.86818 0
M  V30 1876 O 179.85 1.18549 -1.38753 0
M  V30 1877 C 179.901 -1.85229 -3.10439 0
M  V30 1878 O 179.622 -3.23868 -2.95028 0
M  V30 1879 C 181.123 -1.80746 -4.04779 0
M  V30 1880 H 178.343 -0.406595 -0.53378 0
M  V30 1881 H 180.887 -1.68569 -1.15778 0
M  V30 1882 H 179.042 -1.37545 -3.6216 0
M  V30 1883 H 179.456 -3.57889 -3.83426 0
M  V30 1884 H 180.93 -2.33101 -5.00368 0
M  V30 1885 H 181.407 -0.777499 -4.32263 0
M  V30 1886 H 182.013 -2.28059 -3.58984 0
M  V30 1887 N 180.328 1.1314 -1.09713 0
M  V30 1888 C 181.575 1.84484 -0.834987 0
M  V30 1889 C 181.903 1.83689 0.639418 0
M  V30 1890 O 181.158 1.2724 1.4869 0
M  V30 1891 C 181.457 3.32167 -1.3191 0
M  V30 1892 C 181.123 3.53139 -2.80363 0
M  V30 1893 C 179.785 3.58571 -3.20905 0
M  V30 1894 C 182.137 3.60866 -3.76065 0
M  V30 1895 C 179.465 3.69267 -4.55916 0
M  V30 1896 C 181.817 3.73089 -5.10869 0
M  V30 1897 C 180.481 3.76775 -5.50996 0
M  V30 1898 H 179.751 0.675073 -0.305544 0
M  V30 1899 H 182.398 1.33554 -1.37243 0
M  V30 1900 H 180.703 3.85469 -0.701517 0
M  V30 1901 H 182.4 3.85821 -1.09284 0
M  V30 1902 H 178.99 3.49569 -2.47991 0
M  V30 1903 H 183.174 3.55946 -3.45855 0
M  V30 1904 H 178.43 3.70388 -4.86438 0
M  V30 1905 H 182.604 3.78011 -5.84877 0
M  V30 1906 H 180.231 3.84815 -6.55608 0
M  V30 1907 N 181.806 0.884767 1.30421 0
M  V30 1908 C 182.736 0.367574 2.30589 0
M  V30 1909 C 183.717 -0.549464 1.60981 0
M  V30 1910 O 184.902 -0.46336 1.88591 0
M  V30 1911 C 182.032 -0.418944 3.44764 0
M  V30 1912 C 180.986 0.406316 4.26067 0
M  V30 1913 C 180.312 -0.506793 5.32293 0
M  V30 1914 C 181.612 1.64832 4.95608 0
M  V30 1915 H 183.306 1.20462 2.74097 0
M  V30 1916 H 180.852 0.580695 1.31772 0
M  V30 1917 H 182.805 -0.791395 4.13902 0
M  V30 1918 H 181.529 -1.28964 3.0006 0
M  V30 1919 H 180.188 0.760903 3.58617 0
M  V30 1920 H 179.836 -1.37519 4.83836 0
M  V30 1921 H 179.536 0.0415828 5.87585 0
M  V30 1922 H 181.06 -0.875764 6.04287 0
M  V30 1923 H 182.474 1.34646 5.57264 0
M  V30 1924 H 180.871 2.13688 5.60765 0
M  V30 1925 H 181.941 2.39284 4.21748 0
M  V30 1926 N 183.284 -1.43765 0.645699 0
M  V30 1927 C 184.509 -2.06767 0.161883 0
M  V30 1928 C 184.934 -1.48034 -1.16049 0
M  V30 1929 O 184.292 -0.587369 -1.71522 0
M  V30 1930 C 184.34 -3.60519 0.0762003 0
M  V30 1931 O 183.444 -4.00982 -0.963721 0
M  V30 1932 H 182.785 -0.657675 0.091429 0
M  V30 1933 H 185.315 -1.84397 0.886499 0
M  V30 1934 H 185.325 -4.07853 -0.109604 0
M  V30 1935 H 184 -4.02646 1.04157 0
M  V30 1936 H 182.577 -3.65253 -0.751312 0
M  V30 1937 N 184.763 -0.387143 -1.52771 0
M  V30 1938 C 185.991 0.195869 -2.05971 0
M  V30 1939 C 186.406 1.40691 -1.25903 0
M  V30 1940 O 185.763 1.79931 -0.305134 0
M  V30 1941 C 185.814 0.56812 -3.57008 0
M  V30 1942 O 185.535 -0.594803 -4.34043 0
M  V30 1943 C 187.036 1.20723 -4.26545 0
M  V30 1944 H 184.256 0.0300578 -0.670326 0
M  V30 1945 H 186.8 -0.551749 -1.96916 0
M  V30 1946 H 184.955 1.26564 -3.66143 0
M  V30 1947 H 185.369 -0.289322 -5.23701 0
M  V30 1948 H 186.843 1.41807 -5.33474 0
M  V30 1949 H 187.32 2.17395 -3.81623 0
M  V30 1950 H 187.926 0.550535 -4.21722 0
M  V30 1951 N 186.241 1.57166 -0.116904 0
M  V30 1952 C 187.652 1.82169 0.408809 0
M  V30 1953 C 188.003 1.03393 1.66746 0
M  V30 1954 O 187.128 0.269886 2.1471 0
M  V30 1955 C 187.723 3.30429 0.748466 0
M  V30 1956 C 186.282 3.5612 1.21882 0
M  V30 1957 C 185.429 2.76374 0.226452 0
M  V30 1958 H 188.38 1.5497 -0.342063 0
M  V30 1959 H 188.401 3.44943 1.60607 0
M  V30 1960 H 187.913 3.87737 -0.167784 0
M  V30 1961 H 186.014 3.04168 2.15204 0
M  V30 1962 H 186.127 4.64705 1.16559 0
M  V30 1963 H 184.491 2.44515 0.713063 0
M  V30 1964 H 185.274 3.3644 -0.682859 0
M  V30 1965 N 187.719 -0.156864 1.56817 0
M  V30 1966 C 188.966 -0.871125 1.82805 0
M  V30 1967 C 189.294 -1.81611 0.696262 0
M  V30 1968 O 188.549 -1.93141 -0.315459 0
M  V30 1969 C 188.848 -1.68737 3.1506 0
M  V30 1970 C 188.514 -0.890045 4.42028 0
M  V30 1971 C 187.176 -0.670042 4.76512 0
M  V30 1972 C 189.528 -0.331769 5.20143 0
M  V30 1973 C 186.856 0.119104 5.86579 0
M  V30 1974 C 189.208 0.444365 6.31037 0
M  V30 1975 C 187.872 0.675035 6.64078 0
M  V30 1976 H 187.142 -0.318767 0.668931 0
M  V30 1977 H 189.789 -0.135274 1.91022 0
M  V30 1978 H 188.094 -2.49304 3.0225 0
M  V30 1979 H 189.791 -2.24331 3.3238 0
M  V30 1980 H 186.381 -1.07157 4.14988 0
M  V30 1981 H 190.565 -0.489043 4.93885 0
M  V30 1982 H 185.821 0.307417 6.10627 0
M  V30 1983 H 189.995 0.884139 6.90765 0
M  V30 1984 H 187.622 1.28839 7.49203 0
M  V30 1985 N 189.197 -1.51736 -0.425897 0
M  V30 1986 C 190.474 -1.55519 -1.1863 0
M  V30 1987 C 190.854 -0.326219 -2.08564 0
M  V30 1988 O 190.202 0.688012 -2.17896 0
M  V30 1989 C 190.412 -2.87521 -1.9782 0
M  V30 1990 C 191.76 -3.39899 -2.54468 0
M  V30 1991 O 192.784 -2.89148 -2.08019 0
M  V30 1992 O 191.643 -4.2848 -3.39215 0
M  V30 1993 H 188.737 -0.625739 -0.540721 0
M  V30 1994 H 191.283 -1.64055 -0.434038 0
M  V30 1995 H 190.055 -3.68422 -1.31836 0
M  V30 1996 H 189.678 -2.822 -2.80088 0
M  V30 1997 N 190.675 0.682077 -1.42076 0
M  V30 1998 C 191.923 1.4393 -1.41876 0
M  V30 1999 C 192.244 1.94971 -0.0335599 0
M  V30 2000 O 191.514 1.72591 0.926773 0
M  V30 2001 H 190.094 0.534085 -0.522267 0
M  V30 2002 H 192.756 0.806427 -1.77434 0
M  V30 2003 H 191.852 2.29588 -2.11414 0
M  V30 2004 N 192.153 1.28127 0.917671 0
M  V30 2005 C 193.401 1.14825 1.66312 0
M  V30 2006 C 193.722 -0.304379 1.9261 0
M  V30 2007 O 192.992 -1.21149 1.53947 0
M  V30 2008 H 191.572 0.421953 0.616413 0
M  V30 2009 H 194.234 1.608 1.10134 0
M  V30 2010 H 193.33 1.68489 2.62712 0
M  V30 2011 N 193.631 -1.12557 1.10312 0
M  V30 2012 C 195.047 -1.36036 0.834649 0
M  V30 2013 C 195.247 -1.93946 -0.546539 0
M  V30 2014 O 194.303 -2.16484 -1.29966 0
M  V30 2015 C 195.616 -2.30312 1.9333 0
M  V30 2016 C 197.164 -2.43906 1.9616 0
M  V30 2017 C 197.639 -3.41496 3.05195 0
M  V30 2018 N 199.13 -3.49053 3.04494 0
M  V30 2019 C 199.865 -4.24471 3.85502 0
M  V30 2020 N 199.361 -5.02966 4.76442 0
M  V30 2021 N 201.154 -4.19864 3.73725 0
M  V30 2022 H 193.305 -0.733246 1.99342 0
M  V30 2023 H 195.568 -0.385234 0.866198 0
M  V30 2024 H 195.274 -1.94933 2.92735 0
M  V30 2025 H 195.148 -3.30421 1.81939 0
M  V30 2026 H 197.535 -2.78567 0.973886 0
M  V30 2027 H 197.616 -1.4369 2.11629 0
M  V30 2028 H 197.26 -3.07565 4.04186 0
M  V30 2029 H 197.19 -4.41539 2.86968 0
M  V30 2030 H 199.681 -2.93053 2.38596 0
M  V30 2031 H 199.994 -5.57846 5.34815 0
M  V30 2032 H 198.339 -5.02167 4.80472 0
M  V30 2033 H 201.53 -3.57623 3.02032 0
M  V30 2034 H 201.703 -4.78386 4.37093 0
M  V30 2035 N 195.109 -0.891671 -1.2995 0
M  V30 2036 C 196.059 -0.334811 -2.25528 0
M  V30 2037 C 197.043 0.540553 -1.51548 0
M  V30 2038 O 198.235 0.383882 -1.72787 0
M  V30 2039 C 195.364 0.44374 -3.4042 0
M  V30 2040 C 194.45 -0.44609 -4.21747 0
M  V30 2041 N 194.841 -1.54963 -4.81477 0
M  V30 2042 C 193.139 -0.242415 -4.45341 0
M  V30 2043 C 193.84 -2.10015 -5.42465 0
M  V30 2044 N 192.816 -1.39423 -5.25416 0
M  V30 2045 H 196.618 -1.17792 -2.69262 0
M  V30 2046 H 194.132 -0.741822 -1.44467 0
M  V30 2047 H 196.129 0.859362 -4.07947 0
M  V30 2048 H 194.789 1.28421 -2.98225 0
M  V30 2049 H 195.8 -1.93244 -4.80497 0
M  V30 2050 H 192.477 0.560342 -4.13723 0
M  V30 2051 H 193.867 -3.02724 -5.9984 0
M  V30 2052 N 196.587 1.43421 -0.653314 0
M  V30 2053 C 197.497 2.34568 0.0388565 0
M  V30 2054 C 198.513 1.53888 0.81207 0
M  V30 2055 O 199.689 1.86539 0.759294 0
M  V30 2056 C 196.754 3.32167 0.993269 0
M  V30 2057 C 195.815 4.28751 0.216977 0
M  V30 2058 C 195.048 5.21688 1.12593 0
M  V30 2059 O 195.271 5.19052 2.36519 0
M  V30 2060 O 194.205 5.98919 0.598284 0
M  V30 2061 H 198.031 2.95251 -0.711386 0
M  V30 2062 H 195.616 1.43564 -0.413502 0
M  V30 2063 H 197.498 3.92183 1.54176 0
M  V30 2064 H 196.173 2.73987 1.72374 0
M  V30 2065 H 195.08 3.72215 -0.375101 0
M  V30 2066 H 196.413 4.89913 -0.473924 0
M  V30 2067 N 198.065 0.39524 1.52563 0
M  V30 2068 C 199.481 0.0454682 1.59535 0
M  V30 2069 C 199.681 -1.44056 1.4089 0
M  V30 2070 O 198.737 -2.20579 1.22888 0
M  V30 2071 C 200.05 0.527963 2.96029 0
M  V30 2072 C 201.598 0.484733 3.09224 0
M  V30 2073 C 202.073 0.943512 4.48176 0
M  V30 2074 N 203.564 0.899765 4.54377 0
M  V30 2075 C 204.299 1.22609 5.60138 0
M  V30 2076 N 203.795 1.62319 6.73516 0
M  V30 2077 N 205.588 1.14696 5.50274 0
M  V30 2078 H 197.739 1.36261 1.62931 0
M  V30 2079 H 200.002 0.558887 0.765735 0
M  V30 2080 H 199.708 1.56607 3.14908 0
M  V30 2081 H 199.582 -0.0698056 3.77135 0
M  V30 2082 H 201.969 -0.544298 2.90037 0
M  V30 2083 H 202.05 1.11838 2.30056 0
M  V30 2084 H 201.694 1.9708 4.68104 0
M  V30 2085 H 201.624 0.286817 5.25818 0
M  V30 2086 H 204.115 0.607632 3.72983 0
M  V30 2087 H 204.428 1.85567 7.5019 0
M  V30 2088 H 202.773 1.66211 6.74833 0
M  V30 2089 H 205.964 0.835701 4.6058 0
M  V30 2090 H 206.137 1.40459 6.32594 0
M  V30 2091 N 199.544 -1.57102 0.125237 0
M  V30 2092 C 200.96 -1.57915 -0.231322 0
M  V30 2093 C 201.16 -1.13833 -1.66266 0
M  V30 2094 O 200.216 -0.828581 -2.38518 0
M  V30 2095 C 201.529 -3.00699 0.00766489 0
M  V30 2096 C 203.077 -3.12947 -0.0577483 0
M  V30 2097 C 203.552 -4.57742 0.153626 0
M  V30 2098 N 205.043 -4.63092 0.0998073 0
M  V30 2099 C 205.778 -5.72905 0.238174 0
M  V30 2100 N 205.274 -6.91445 0.433057 0
M  V30 2101 N 207.067 -5.6182 0.177308 0
M  V30 2102 H 199.218 -1.84055 1.06007 0
M  V30 2103 H 201.481 -0.850905 0.417929 0
M  V30 2104 H 201.187 -3.3726 0.997431 0
M  V30 2105 H 201.061 -3.70236 -0.721452 0
M  V30 2106 H 203.448 -2.7624 -1.03804 0
M  V30 2107 H 203.529 -2.4594 0.70335 0
M  V30 2108 H 203.173 -4.95149 1.13092 0
M  V30 2109 H 203.103 -5.22848 -0.627534 0
M  V30 2110 H 205.594 -3.77871 -0.047051 0
M  V30 2111 H 205.907 -7.70985 0.529332 0
M  V30 2112 H 204.252 -6.93415 0.469109 0
M  V30 2113 H 207.443 -4.68093 0.0259748 0
M  V30 2114 H 207.616 -6.47357 0.288582 0
M  V30 2115 N 201.022 0.148545 -1.56898 0
M  V30 2116 C 202.271 0.85984 -1.82454 0
M  V30 2117 C 202.584 1.82406 -0.706229 0
M  V30 2118 O 203.79 2.57938 -0.847349 0
M  V30 2119 C 202.246 1.57967 -3.2338 0
M  V30 2120 C 201.854 0.65794 -4.43142 0
M  V30 2121 C 203.598 2.27784 -3.58211 0
M  V30 2122 C 201.505 1.3793 -5.75091 0
M  V30 2123 H 200.435 0.324834 -0.68044 0
M  V30 2124 H 203.086 0.112588 -1.83154 0
M  V30 2125 H 201.468 2.37249 -3.17063 0
M  V30 2126 H 202.642 -0.0995497 -4.60692 0
M  V30 2127 H 200.957 0.0682643 -4.16344 0
M  V30 2128 H 203.554 2.8239 -4.54048 0
M  V30 2129 H 203.897 3.04204 -2.84193 0
M  V30 2130 H 204.43 1.55421 -3.66182 0
M  V30 2131 H 201.169 0.656982 -6.52199 0
M  V30 2132 H 200.689 2.10954 -5.61479 0
M  V30 2133 H 202.368 1.92063 -6.17835 0
M  V30 2134 N 202.5 1.5196 0.417844 0
M  V30 2135 C 203.916 1.40569 0.755816 0
M  V30 2136 C 204.116 0.503316 1.95113 0
M  V30 2137 O 203.172 -0.0341925 2.52477 0
M  V30 2138 C 204.485 2.82947 1.01791 0
M  V30 2139 C 206.033 2.92231 1.12116 0
M  V30 2140 C 206.508 4.35559 1.41608 0
M  V30 2141 N 207.999 4.38753 1.48491 0
M  V30 2142 C 208.734 5.46705 1.7292 0
M  V30 2143 N 208.23 6.64788 1.95011 0
M  V30 2144 N 210.023 5.34209 1.74863 0
M  V30 2145 H 202.174 2.09168 -0.369098 0
M  V30 2146 H 204.437 0.942409 -0.102809 0
M  V30 2147 H 204.143 3.5106 0.212081 0
M  V30 2148 H 204.017 3.23462 1.94042 0
M  V30 2149 H 206.404 2.24304 1.9176 0
M  V30 2150 H 206.485 2.55185 0.177225 0
M  V30 2151 H 206.129 5.04042 0.624848 0
M  V30 2152 H 206.059 4.70133 2.37239 0
M  V30 2153 H 208.55 3.5363 1.33244 0
M  V30 2154 H 208.863 7.42845 2.13076 0
M  V30 2155 H 207.208 6.67869 1.92293 0
M  V30 2156 H 210.399 4.40937 1.57137 0
M  V30 2157 H 210.572 6.18415 1.93563 0
M  V30 2158 N 203.978 -0.674533 1.42435 0
M  V30 2159 C 204.925 -1.78807 1.45934 0
M  V30 2160 C 205.895 -1.63157 0.311271 0
M  V30 2161 O 207.08 -1.83707 0.515383 0
M  V30 2162 C 204.22 -3.16839 1.36773 0
M  V30 2163 C 203.333 -3.43774 2.61617 0
M  V30 2164 C 202.468 -4.71536 2.44597 0
M  V30 2165 C 201.507 -4.91505 3.64814 0
M  V30 2166 N 200.644 -6.10508 3.46734 0
M  V30 2167 H 205.484 -1.75151 2.41093 0
M  V30 2168 H 203.021 -0.85504 1.19697 0
M  V30 2169 H 204.979 -3.96606 1.29459 0
M  V30 2170 H 203.609 -3.19619 0.452089 0
M  V30 2171 H 202.661 -2.58259 2.79297 0
M  V30 2172 H 203.973 -3.54423 3.50978 0
M  V30 2173 H 203.127 -5.59393 2.3487 0
M  V30 2174 H 201.866 -4.6317 1.52726 0
M  V30 2175 H 200.871 -4.0209 3.74972 0
M  V30 2176 H 202.096 -5.01716 4.57665 0
M  V30 2177 H 200.042 -6.03315 2.5758 0
M  V30 2178 H 199.959 -6.2202 4.29682 0
M  V30 2179 H 201.227 -7.01044 3.40819 0
M  V30 2180 N 205.456 -1.28612 -0.910864 0
M  V30 2181 C 206.705 -1.15311 -1.65488 0
M  V30 2182 C 207.018 0.296999 -1.93332 0
M  V30 2183 O 208.224 0.551168 -2.65847 0
M  V30 2184 C 206.68 -2.01599 -2.98137 0
M  V30 2185 C 206.288 -3.51367 -2.7793 0
M  V30 2186 C 208.032 -1.96993 -3.76024 0
M  V30 2187 C 205.939 -4.29797 -4.06237 0
M  V30 2188 H 204.869 -0.42796 -0.620779 0
M  V30 2189 H 207.52 -1.53166 -1.01057 0
M  V30 2190 H 205.902 -1.56603 -3.63719 0
M  V30 2191 H 207.076 -4.0434 -2.21011 0
M  V30 2192 H 205.391 -3.57529 -2.13452 0
M  V30 2193 H 207.988 -2.52856 -4.71135 0
M  V30 2194 H 208.331 -0.94733 -4.05378 0
M  V30 2195 H 208.864 -2.39973 -3.17266 0
M  V30 2196 H 205.603 -5.32648 -3.82055 0
M  V30 2197 H 205.123 -3.81596 -4.62757 0
M  V30 2198 H 206.802 -4.39869 -4.74473 0
M  V30 2199 N 206.934 1.1197 -1.10907 0
M  V30 2200 C 208.211 1.79959 -0.766432 0
M  V30 2201 C 208.591 1.97466 0.746363 0
M  V30 2202 O 207.939 1.55491 1.67436 0
M  V30 2203 C 208.149 3.14009 -1.52314 0
M  V30 2204 C 209.497 3.89134 -1.69883 0
M  V30 2205 O 210.521 3.2368 -1.48692 0
M  V30 2206 O 209.38 5.06572 -2.05054 0
M  V30 2207 H 206.474 0.779208 -0.277062 0
M  V30 2208 H 209.02 1.18762 -1.21217 0
M  V30 2209 H 207.792 2.96587 -2.55249 0
M  V30 2210 H 207.415 3.82915 -1.07059 0
M  V30 2211 N 208.412 0.89855 1.29475 0
M  V30 2212 C 209.322 0.379974 2.31502 0
M  V30 2213 C 210.338 -0.524695 1.659 0
M  V30 2214 O 211.514 -0.414551 1.97087 0
M  V30 2215 C 208.579 -0.385138 3.44554 0
M  V30 2216 C 207.64 0.550914 4.2575 0
M  V30 2217 C 206.873 -0.177778 5.33404 0
M  V30 2218 O 207.096 -1.40189 5.52904 0
M  V30 2219 O 206.03 0.479106 5.9999 0
M  V30 2220 H 209.856 1.22639 2.77837 0
M  V30 2221 H 207.441 0.662834 1.33891 0
M  V30 2222 H 209.323 -0.817841 4.13388 0
M  V30 2223 H 207.998 -1.20763 3.0033 0
M  V30 2224 H 206.905 1.03271 3.59564 0
M  V30 2225 H 208.238 1.33979 4.73614 0
M  V30 2226 N 209.89 -1.43072 0.660911 0
M  V30 2227 C 211.136 -2.0202 0.177708 0
M  V30 2228 C 211.469 -1.52066 -1.20787 0
M  V30 2229 O 210.744 -0.716987 -1.80802 0
M  V30 2230 C 211.027 -3.59561 0.197019 0
M  V30 2231 C 210.88 -4.19727 1.61706 0
M  V30 2232 C 212.199 -4.37664 -0.462396 0
M  V30 2233 H 209.318 -0.734034 0.0660494 0
M  V30 2234 H 211.96 -1.70272 0.843058 0
M  V30 2235 H 210.11 -3.86739 -0.369527 0
M  V30 2236 H 211.782 -4.03553 2.23479 0
M  V30 2237 H 210.025 -3.76084 2.16201 0
M  V30 2238 H 210.696 -5.28834 1.58237 0
M  V30 2239 H 213.172 -4.16095 0.0197215 0
M  V30 2240 H 212.048 -5.47305 -0.418188 0
M  V30 2241 H 212.309 -4.14493 -1.53778 0
M  V30 2242 O 211.407 -0.545482 -1.52009 0
M  V30 2243 H 212.098 -0.0397754 -1.93659 0
M  V30 END ATOM
M  V30 BEGIN BOND
M  V30 END BOND
M  V30 END CTAB
M  END
$$$$
