drugbank_target|P0C0J0 Streptopain (DB02766)
 OpenBabel12092120033D

  0  0  0     0  0            999 V3000
M  V30 BEGIN CTAB
M  V30 COUNTS 6018 6083 0 0 0
M  V30 BEGIN ATOM
M  V30 1 H -0.908 1.98254 -0.117106 0
M  V30 2 N 0 1.576 0 0
M  V30 3 C 0.933 2.03868 1.02534 0
M  V30 4 C 1.911 0.928543 1.3348 0
M  V30 5 O 3.095 1.19667 1.45644 0
M  V30 6 C 0.222 2.43627 2.35294 0
M  V30 7 C -0.732 3.65373 2.2001 0
M  V30 8 S 0.101 5.13292 1.52614 0
M  V30 9 C 1.257 5.56322 2.86805 0
M  V30 10 H 1.49 2.90518 0.631377 0
M  V30 11 H -0.977 1.52953 0.210867 0
M  V30 12 H 0.981 2.67203 3.11629 0
M  V30 13 H -0.358 1.57376 2.7183 0
M  V30 14 H -1.165 3.90944 3.18086 0
M  V30 15 H -1.563 3.418 1.51819 0
M  V30 16 H 0.729 5.58782 3.83104 0
M  V30 17 H 1.672 6.56266 2.65933 0
M  V30 18 H 2.08 4.83886 2.90714 0
M  V30 19 N 1.4781 -0.272755 1.55222 0
M  V30 20 C 2.4261 -1.35705 1.88909 0
M  V30 21 C 3.4201 -1.5112 0.765456 0
M  V30 22 O 4.6261 -1.52901 0.949802 0
M  V30 23 H 1.0011 -0.453868 0.59959 0
M  V30 24 H 2.9721 -1.04544 2.79487 0
M  V30 25 C 1.7211 -2.71049 2.17779 0
M  V30 26 H 1.0441 -2.59979 3.03728 0
M  V30 27 H 2.4841 -3.45858 2.45272 0
M  V30 28 C 0.9431 -3.22165 0.985473 0
M  V30 29 O 1.4731 -4.01096 0.220233 0
M  V30 30 N -0.3209 -2.7985 0.783108 0
M  V30 31 H -0.7739 -2.15775 1.40708 0
M  V30 32 H -0.8159 -3.14397 -0.0130392 0
M  V30 33 N 2.9562 -1.48159 -0.537278 0
M  V30 34 C 3.9032 -1.62138 -1.64256 0
M  V30 35 C 4.8732 -0.463668 -1.59497 0
M  V30 36 O 6.0582 -0.686241 -1.78032 0
M  V30 37 C 3.1982 -1.66028 -3.02537 0
M  V30 38 C 2.3112 -2.92855 -3.17585 0
M  V30 39 C 1.4462 -2.87952 -4.46382 0
M  V30 40 C 0.4852 -4.09516 -4.54932 0
M  V30 41 N -0.3778 -4.02733 -5.75109 0
M  V30 42 H 4.4622 -2.56529 -1.51647 0
M  V30 43 H 1.9992 -1.27224 -0.738414 0
M  V30 44 H 3.9572 -1.66265 -3.82638 0
M  V30 45 H 2.5872 -0.751331 -3.13934 0
M  V30 46 H 1.6392 -3.02395 -2.30784 0
M  V30 47 H 2.9512 -3.82822 -3.19764 0
M  V30 48 H 2.1052 -2.8655 -5.34765 0
M  V30 49 H 0.8442 -1.95702 -4.46712 0
M  V30 50 H -0.1508 -4.11201 -3.64957 0
M  V30 51 H 1.0742 -5.02917 -4.56346 0
M  V30 52 H -0.9798 -3.13299 -5.76351 0
M  V30 53 H -1.0628 -4.86397 -5.78752 0
M  V30 54 H 0.2052 -4.05379 -6.65799 0
M  V30 55 N 4.4343 0.785586 -1.36625 0
M  V30 56 C 5.3813 1.89838 -1.31264 0
M  V30 57 C 6.3513 1.65115 -0.180633 0
M  V30 58 O 7.5363 1.87222 -0.36777 0
M  V30 59 C 4.6763 3.26706 -1.11163 0
M  V30 60 C 3.7893 3.63476 -2.33472 0
M  V30 61 C 2.9243 4.89481 -2.06353 0
M  V30 62 C 1.9633 5.18941 -3.24602 0
M  V30 63 N 1.1003 6.36131 -2.97123 0
M  V30 64 H 5.9403 1.93756 -2.26413 0
M  V30 65 H 3.4773 0.947454 -1.12524 0
M  V30 66 H 5.4353 4.05639 -0.975337 0
M  V30 67 H 4.0653 3.222 -0.196674 0
M  V30 68 H 3.1173 2.79636 -2.57891 0
M  V30 69 H 4.4293 3.81193 -3.21704 0
M  V30 70 H 3.5833 5.76288 -1.89675 0
M  V30 71 H 2.3223 4.73841 -1.15437 0
M  V30 72 H 1.3273 4.30615 -3.41834 0
M  V30 73 H 2.5523 5.36498 -4.16349 0
M  V30 74 H 0.4983 6.21875 -2.08823 0
M  V30 75 H 0.4153 6.54198 -3.78894 0
M  V30 76 H 1.6833 7.2591 -2.84033 0
M  V30 77 N 5.9124 1.20967 1.01018 0
M  V30 78 C 6.8594 0.964281 2.09691 0
M  V30 79 C 7.8294 -0.107853 1.65749 0
M  V30 80 O 9.0144 0.0381987 1.90762 0
M  V30 81 C 6.1544 0.52943 3.41015 0
M  V30 82 C 5.2674 1.67043 3.98398 0
M  V30 83 C 4.4024 1.18525 5.17808 0
M  V30 84 C 3.4414 2.29892 5.67288 0
M  V30 85 N 2.5784 1.82546 6.77954 0
M  V30 86 H 7.4184 1.89463 2.30017 0
M  V30 87 H 4.9554 0.944289 1.1279 0
M  V30 88 H 6.9134 0.258588 4.16398 0
M  V30 89 H 5.5434 -0.363919 3.20742 0
M  V30 90 H 4.5954 2.05603 3.20049 0
M  V30 91 H 5.9074 2.50877 4.31117 0
M  V30 92 H 5.0614 0.870762 6.00419 0
M  V30 93 H 3.8004 0.316887 4.86669 0
M  V30 94 H 2.8054 2.6215 4.83278 0
M  V30 95 H 4.0304 3.17216 6.00459 0
M  V30 96 H 1.9764 0.980454 6.48632 0
M  V30 97 H 1.8934 2.59956 7.09901 0
M  V30 98 H 3.1614 1.54115 7.64113 0
M  V30 99 N 7.3905 -1.2043 1.01659 0
M  V30 100 C 8.3205 -2.25466 0.607226 0
M  V30 101 C 9.3015 -1.65853 -0.377716 0
M  V30 102 O 10.4865 -1.92409 -0.263149 0
M  V30 103 C 7.6165 -3.47256 -0.0552949 0
M  V30 104 C 6.5705 -4.19462 0.850632 0
M  V30 105 C 5.8965 -5.34673 0.0538859 0
M  V30 106 C 7.1965 -4.75603 2.15868 0
M  V30 107 H 8.8905 -2.59962 1.48526 0
M  V30 108 H 6.4365 -1.2496 0.715605 0
M  V30 109 H 8.3895 -4.19917 -0.353233 0
M  V30 110 H 7.1135 -3.11924 -0.968045 0
M  V30 111 H 5.7725 -3.48667 1.13257 0
M  V30 112 H 5.4205 -4.95585 -0.860514 0
M  V30 113 H 5.1205 -5.83913 0.657192 0
M  V30 114 H 6.6445 -6.10138 -0.237598 0
M  V30 115 H 8.0585 -5.40083 1.92311 0
M  V30 116 H 6.4555 -5.3528 2.71284 0
M  V30 117 H 7.5255 -3.94346 2.82169 0
M  V30 118 N 8.8686 -0.792821 -1.36206 0
M  V30 119 C 10.1166 -0.366062 -1.98757 0
M  V30 120 C 10.4376 1.0668 -1.63231 0
M  V30 121 O 9.7076 1.73587 -0.907978 0
M  V30 122 H 8.2876 -0.132364 -0.735179 0
M  V30 123 H 10.9496 -1.01562 -1.66347 0
M  V30 124 H 10.0456 -0.460638 -3.08682 0
M  V30 125 N 10.3467 1.47872 -0.545128 0
M  V30 126 C 11.5957 2.01695 -0.0145033 0
M  V30 127 C 11.9087 1.42609 1.33873 0
M  V30 128 O 13.1147 1.88021 1.95858 0
M  V30 129 C 11.5707 3.59892 0.0245068 0
M  V30 130 C 11.1787 4.27966 -1.32475 0
M  V30 131 C 12.9227 4.21507 0.50316 0
M  V30 132 C 10.8297 5.78136 -1.2455 0
M  V30 133 H 9.7597 0.753998 -0.00165172 0
M  V30 134 H 12.4107 1.69985 -0.691175 0
M  V30 135 H 10.7927 3.88509 0.766575 0
M  V30 136 H 11.9667 4.11003 -2.08357 0
M  V30 137 H 10.2817 3.78286 -1.74036 0
M  V30 138 H 12.8787 5.31538 0.580656 0
M  V30 139 H 13.2217 3.87855 1.51243 0
M  V30 140 H 13.7547 3.97376 -0.183681 0
M  V30 141 H 10.4937 6.16388 -2.23039 0
M  V30 142 H 10.0137 5.97469 -0.528282 0
M  V30 143 H 11.6927 6.40099 -0.942488 0
M  V30 144 N 11.8248 0.280983 1.55075 0
M  V30 145 C 13.2408 -0.0729964 1.59433 0
M  V30 146 C 13.4408 -1.5411 1.29817 0
M  V30 147 O 12.4968 -2.29086 1.06187 0
M  V30 148 C 13.8098 0.306921 2.9913 0
M  V30 149 C 15.3578 0.254023 3.11968 0
M  V30 150 C 15.8328 0.608467 4.5394 0
M  V30 151 N 17.3238 0.560241 4.59799 0
M  V30 152 C 18.0588 0.80722 5.6769 0
M  V30 153 N 17.5548 1.11912 6.83701 0
M  V30 154 N 19.3478 0.735623 5.57266 0
M  V30 155 H 11.4988 1.238 1.7259 0
M  V30 156 H 13.7618 0.500547 0.805082 0
M  V30 157 H 13.4678 1.32816 3.25657 0
M  V30 158 H 13.3418 -0.349363 3.75579 0
M  V30 159 H 15.7288 -0.75794 2.852 0
M  V30 160 H 15.8098 0.944649 2.37718 0
M  V30 161 H 15.4538 1.61814 4.81434 0
M  V30 162 H 15.3838 -0.104013 5.26497 0
M  V30 163 H 17.8748 0.329288 3.76463 0
M  V30 164 H 18.1878 1.29409 7.61888 0
M  V30 165 H 16.5328 1.15695 6.85303 0
M  V30 166 H 19.7238 0.491752 4.6551 0
M  V30 167 H 19.8968 0.931482 6.4127 0
M  V30 168 N 13.3029 -1.57598 0.00835791 0
M  V30 169 C 14.2329 -2.1198 -0.979113 0
M  V30 170 C 15.2139 -1.03091 -1.35301 0
M  V30 171 O 16.3989 -1.30818 -1.43528 0
M  V30 172 C 13.5289 -2.62995 -2.26828 0
M  V30 173 C 12.4829 -3.76485 -2.03576 0
M  V30 174 C 11.8089 -4.13846 -3.38579 0
M  V30 175 C 13.1089 -5.0342 -1.39161 0
M  V30 176 H 14.8029 -2.94738 -0.526281 0
M  V30 177 H 12.3489 -1.41783 -0.251704 0
M  V30 178 H 14.3019 -2.99669 -2.96271 0
M  V30 179 H 13.0259 -1.7737 -2.7424 0
M  V30 180 H 11.6849 -3.40217 -1.36557 0
M  V30 181 H 11.3329 -3.25232 -3.83709 0
M  V30 182 H 11.0329 -4.90312 -3.23834 0
M  V30 183 H 12.5569 -4.53086 -4.09323 0
M  V30 184 H 13.9709 -5.37812 -1.98573 0
M  V30 185 H 12.3679 -5.84746 -1.34878 0
M  V30 186 H 13.4379 -4.83548 -0.361868 0
M  V30 187 N 14.781 0.264519 -1.55364 0
M  V30 188 C 15.711 1.33121 -1.91836 0
M  V30 189 C 16.692 1.51101 -0.781192 0
M  V30 190 O 17.877 1.64003 -1.04003 0
M  V30 191 C 15.007 2.68921 -2.19769 0
M  V30 192 C 13.961 2.65661 -3.35571 0
M  V30 193 C 13.287 4.05093 -3.49004 0
M  V30 194 C 14.587 2.24187 -4.71739 0
M  V30 195 H 16.281 1.02844 -2.81182 0
M  V30 196 H 13.827 0.493286 -1.35287 0
M  V30 197 H 15.78 3.43663 -2.43872 0
M  V30 198 H 14.504 3.00799 -1.27231 0
M  V30 199 H 13.163 1.93377 -3.1145 0
M  V30 200 H 12.811 4.34206 -2.53917 0
M  V30 201 H 12.511 4.03804 -4.26868 0
M  V30 202 H 14.035 4.81561 -3.75408 0
M  V30 203 H 15.449 2.88654 -4.9533 0
M  V30 204 H 13.846 2.34044 -5.52579 0
M  V30 205 H 14.916 1.19327 -4.69988 0
M  V30 206 N 16.2591 1.48442 0.529413 0
M  V30 207 C 17.4841 1.60406 1.31471 0
M  V30 208 C 17.9091 0.264738 1.86228 0
M  V30 209 O 17.2671 -0.763668 1.64432 0
M  V30 210 C 17.3151 2.65419 2.44101 0
M  V30 211 O 16.4191 2.22618 3.47153 0
M  V30 212 H 15.7601 0.537863 0.389357 0
M  V30 213 H 18.2901 1.94432 0.636965 0
M  V30 214 H 18.3001 2.86709 2.90279 0
M  V30 215 H 16.9751 3.62652 2.03608 0
M  V30 216 H 15.5521 2.11543 3.0709 0
M  V30 217 N 17.7372 -0.778329 1.37039 0
M  V30 218 C 18.6672 -1.90546 1.34962 0
M  V30 219 C 19.6482 -1.68681 0.219274 0
M  V30 220 O 20.8332 -1.89634 0.418624 0
M  V30 221 C 17.9632 -3.27734 1.14925 0
M  V30 222 C 16.9172 -3.64147 2.24902 0
M  V30 223 C 16.2432 -4.99806 1.89996 0
M  V30 224 C 17.5432 -3.71579 3.67051 0
M  V30 225 H 19.2372 -1.92541 2.29277 0
M  V30 226 H 16.7832 -0.924948 1.10366 0
M  V30 227 H 18.7362 -4.06215 1.12104 0
M  V30 228 H 17.4602 -3.26154 0.170631 0
M  V30 229 H 16.1192 -2.8797 2.26868 0
M  V30 230 H 15.7672 -4.94759 0.906796 0
M  V30 231 H 15.4672 -5.25139 2.63634 0
M  V30 232 H 16.9912 -5.80694 1.88749 0
M  V30 233 H 18.4052 -4.40227 3.67251 0
M  V30 234 H 16.8022 -4.08405 4.39688 0
M  V30 235 H 17.8722 -2.72404 4.01154 0
M  V30 236 N 19.2153 -1.21501 -1.00376 0
M  V30 237 C 20.1453 -0.999478 -2.11028 0
M  V30 238 C 21.1263 0.0759671 -1.6993 0
M  V30 239 O 22.3113 -0.0841106 -1.94018 0
M  V30 240 C 19.4413 -0.564709 -3.42678 0
M  V30 241 C 18.3953 -1.58486 -3.97576 0
M  V30 242 C 17.7213 -1.00628 -5.25146 0
M  V30 243 C 19.0213 -2.97204 -4.29496 0
M  V30 244 H 20.7153 -1.92495 -2.29317 0
M  V30 245 H 18.2613 -0.92693 -1.102 0
M  V30 246 H 20.2143 -0.401091 -4.19487 0
M  V30 247 H 18.9383 0.396411 -3.24185 0
M  V30 248 H 17.5973 -1.73606 -3.22888 0
M  V30 249 H 17.2453 -0.0368439 -5.02987 0
M  V30 250 H 16.9453 -1.68771 -5.62841 0
M  V30 251 H 18.4693 -0.854015 -6.04598 0
M  V30 252 H 19.8833 -2.8552 -4.97143 0
M  V30 253 H 18.2803 -3.62372 -4.78338 0
M  V30 254 H 19.3503 -3.47956 -3.3772 0
M  V30 255 N 20.6934 1.19889 -1.02296 0
M  V30 256 C 21.6564 2.21116 -0.603351 0
M  V30 257 C 22.6564 1.5738 0.329884 0
M  V30 258 O 23.8464 1.73802 0.117702 0
M  V30 259 C 20.9784 3.40696 0.117992 0
M  V30 260 H 22.1714 2.59754 -1.49893 0
M  V30 261 H 19.7244 1.33463 -0.813468 0
M  V30 262 H 20.4594 3.07569 1.0282 0
M  V30 263 H 20.2444 3.88188 -0.552511 0
M  V30 264 H 21.7344 4.15692 0.398696 0
M  V30 265 N 22.1715 0.800033 1.35784 0
M  V30 266 C 23.1015 0.220184 2.3246 0
M  V30 267 C 24.0825 -0.65073 1.57161 0
M  V30 268 O 25.2675 -0.582359 1.85263 0
M  V30 269 C 22.3975 -0.637353 3.41402 0
M  V30 270 C 21.3515 0.134531 4.27789 0
M  V30 271 C 20.6775 -0.844285 5.27992 0
M  V30 272 C 21.9775 1.32979 5.05088 0
M  V30 273 H 23.6715 1.02787 2.81203 0
M  V30 274 H 21.2175 0.495717 1.35199 0
M  V30 275 H 23.1705 -1.05302 4.08031 0
M  V30 276 H 21.8945 -1.47785 2.91251 0
M  V30 277 H 20.5535 0.531296 3.6273 0
M  V30 278 H 20.2015 -1.68011 4.74111 0
M  V30 279 H 19.9015 -0.332184 5.8666 0
M  V30 280 H 21.4255 -1.2583 5.97494 0
M  V30 281 H 22.8395 0.98934 5.64699 0
M  V30 282 H 21.2365 1.77593 5.7322 0
M  V30 283 H 22.3065 2.11978 4.36111 0
M  V30 284 N 23.6496 -1.47581 0.552962 0
M  V30 285 C 24.8976 -2.02082 0.0272703 0
M  V30 286 C 25.2186 -1.4301 -1.32563 0
M  V30 287 O 24.4886 -0.603745 -1.86365 0
M  V30 288 H 23.0686 -0.746966 0.00709182 0
M  V30 289 H 25.7306 -1.81033 0.722008 0
M  V30 290 H 24.8266 -3.12034 -0.0639951 0
M  V30 291 N 25.1277 -0.289203 -1.54924 0
M  V30 292 C 26.3757 0.322879 -1.99504 0
M  V30 293 C 26.6967 1.55313 -1.1791 0
M  V30 294 O 25.9667 1.94001 -0.272097 0
M  V30 295 H 24.5467 0.122291 -0.736922 0
M  V30 296 H 27.2087 -0.397802 -1.90797 0
M  V30 297 H 26.3047 0.603061 -3.06218 0
M  V30 298 N 26.6058 1.57591 -0.0167156 0
M  V30 299 C 27.8528 1.91283 0.664597 0
M  V30 300 C 28.1808 0.891949 1.72842 0
M  V30 301 O 27.4358 -0.100931 1.9544 0
M  V30 302 C 27.7348 3.3172 1.33029 0
M  V30 303 C 27.4008 4.4914 0.398047 0
M  V30 304 C 26.0628 4.80992 0.141421 0
M  V30 305 C 28.4148 5.20634 -0.242825 0
M  V30 306 C 25.7428 5.81703 -0.764092 0
M  V30 307 C 28.0948 6.22311 -1.13632 0
M  V30 308 C 26.7588 6.52611 -1.40196 0
M  V30 309 H 26.0288 0.699956 0.243193 0
M  V30 310 H 28.6758 1.9135 -0.0758267 0
M  V30 311 H 26.9808 3.27856 2.14517 0
M  V30 312 H 28.6778 3.55055 1.86379 0
M  V30 313 H 25.2678 4.24262 0.608238 0
M  V30 314 H 29.4518 4.96267 -0.0576019 0
M  V30 315 H 24.7078 6.03532 -0.977732 0
M  V30 316 H 28.8818 6.76834 -1.63917 0
M  V30 317 H 26.5088 7.30467 -2.10529 0
M  V30 318 N 28.0839 -0.256276 1.55502 0
M  V30 319 C 29.3299 -0.987079 1.77157 0
M  V30 320 C 29.6629 -1.85327 0.580315 0
M  V30 321 O 28.9379 -1.89874 -0.421686 0
M  V30 322 C 29.2209 -1.85553 3.08613 0
M  V30 323 C 29.0739 -1.01816 4.38125 0
M  V30 324 C 30.3929 -2.8397 3.36228 0
M  V30 325 H 27.5119 -0.357428 0.644526 0
M  V30 326 H 30.1539 -0.258239 1.88237 0
M  V30 327 H 28.3039 -2.47695 2.99298 0
M  V30 328 H 29.9759 -0.416159 4.59419 0
M  V30 329 H 28.2189 -0.322178 4.32602 0
M  V30 330 H 28.8899 -1.65939 5.26468 0
M  V30 331 H 31.3659 -2.31964 3.45445 0
M  V30 332 H 30.2419 -3.41864 4.29442 0
M  V30 333 H 30.5029 -3.59955 2.56681 0
M  V30 334 N 29.562 -1.4872 -0.521534 0
M  V30 335 C 30.492 -1.66771 -1.63431 0
M  V30 336 C 31.473 -0.516499 -1.62069 0
M  V30 337 O 32.658 -0.750013 -1.79132 0
M  V30 338 C 29.788 -1.71515 -3.01993 0
M  V30 339 C 28.742 -2.86222 -3.18216 0
M  V30 340 C 28.068 -2.76061 -4.57924 0
M  V30 341 C 29.368 -4.27419 -3.00184 0
M  V30 342 H 31.062 -2.59932 -1.48579 0
M  V30 343 H 28.608 -1.25089 -0.713358 0
M  V30 344 H 30.561 -1.82731 -3.7972 0
M  V30 345 H 29.285 -0.749393 -3.17886 0
M  V30 346 H 27.944 -2.74575 -2.42908 0
M  V30 347 H 27.592 -1.77437 -4.70665 0
M  V30 348 H 27.292 -3.53037 -4.69722 0
M  V30 349 H 28.816 -2.89256 -5.37739 0
M  V30 350 H 30.23 -4.39855 -3.67697 0
M  V30 351 H 28.627 -5.05458 -3.2347 0
M  V30 352 H 29.697 -4.43293 -1.96518 0
M  V30 353 N 31.0401 0.771051 -1.3745 0
M  V30 354 C 32.0031 1.86598 -1.33093 0
M  V30 355 C 33.0031 1.59076 -0.234845 0
M  V30 356 O 34.1931 1.67145 -0.490732 0
M  V30 357 C 31.3251 3.23747 -1.06773 0
M  V30 358 H 32.5181 1.91873 -2.30488 0
M  V30 359 H 30.0711 0.970876 -1.2249 0
M  V30 360 H 30.8061 3.24148 -0.099129 0
M  V30 361 H 30.5911 3.45115 -1.86112 0
M  V30 362 H 32.0811 4.03824 -1.06377 0
M  V30 363 N 32.5182 1.22032 0.997298 0
M  V30 364 C 33.4662 0.983634 2.10778 0
M  V30 365 C 34.4602 -0.0717564 1.69248 0
M  V30 366 O 35.6662 0.080304 1.79821 0
M  V30 367 H 32.0412 0.300877 0.689186 0
M  V30 368 H 34.0122 1.92606 2.27916 0
M  V30 369 C 32.7612 0.57326 3.42942 0
M  V30 370 H 32.0842 1.37702 3.75338 0
M  V30 371 H 33.5242 0.447031 4.21637 0
M  V30 372 C 31.9832 -0.7167 3.29188 0
M  V30 373 O 32.5132 -1.77027 3.60589 0
M  V30 374 N 30.7192 -0.686167 2.82383 0
M  V30 375 H 30.2662 0.171507 2.57028 0
M  V30 376 H 30.2242 -1.54955 2.73562 0
M  V30 377 N 33.9963 -1.19345 1.0293 0
M  V30 378 C 35.4073 -1.70725 0.755633 0
M  V30 379 C 35.7583 -1.82326 -0.724676 0
M  V30 380 O 34.8833 -1.49471 -1.56484 0
M  V30 381 C 35.4783 -3.10084 1.36503 0
M  V30 382 C 34.0373 -3.58723 1.13994 0
M  V30 383 C 33.1843 -2.35577 1.46283 0
M  V30 384 H 36.1353 -1.0418 1.19718 0
M  V30 385 H 36.1563 -3.72787 0.762217 0
M  V30 386 H 35.6683 -3.01609 2.44241 0
M  V30 387 H 33.7693 -3.72512 0.0807901 0
M  V30 388 H 33.8823 -4.42816 1.82894 0
M  V30 389 H 32.2463 -2.38935 0.88217 0
M  V30 390 H 33.0293 -2.29731 2.55105 0
M  V30 391 N 35.4744 -0.807222 -1.35358 0
M  V30 392 C 36.7204 -0.388463 -1.99045 0
M  V30 393 C 37.0534 1.04184 -1.63888 0
M  V30 394 O 36.3284 1.72292 -0.902535 0
M  V30 395 C 36.6114 -0.572783 -3.55515 0
M  V30 396 C 36.4644 -2.04807 -4.00468 0
M  V30 397 C 37.7834 0.00114064 -4.401 0
M  V30 398 H 34.9024 -0.142619 -0.723069 0
M  V30 399 H 37.5444 -1.01687 -1.60498 0
M  V30 400 H 35.6944 -0.0378425 -3.88482 0
M  V30 401 H 37.3664 -2.64544 -3.77908 0
M  V30 402 H 35.6094 -2.54427 -3.51353 0
M  V30 403 H 36.2804 -2.12792 -5.09337 0
M  V30 404 H 38.7564 -0.455716 -4.13597 0
M  V30 405 H 37.6324 -0.157737 -5.48673 0
M  V30 406 H 37.8934 1.09488 -4.28328 0
M  V30 407 N 36.9525 1.47285 -0.560781 0
M  V30 408 C 38.1995 2.02464 -0.038062 0
M  V30 409 C 38.5275 1.43474 1.31322 0
M  V30 410 O 37.7825 0.581311 1.86867 0
M  V30 411 C 38.0815 3.57258 0.100784 0
M  V30 412 C 37.7475 4.35184 -1.18007 0
M  V30 413 C 36.4095 4.56194 -1.53103 0
M  V30 414 C 38.7615 4.80098 -2.02867 0
M  V30 415 C 36.0895 5.19367 -2.729 0
M  V30 416 C 38.4415 5.44593 -3.21871 0
M  V30 417 C 37.1055 5.63835 -3.57276 0
M  V30 418 H 36.3755 0.740869 -0.0139279 0
M  V30 419 H 39.0225 1.76916 -0.733012 0
M  V30 420 H 37.3275 3.81819 0.878724 0
M  V30 421 H 39.0245 3.97606 0.520639 0
M  V30 422 H 35.6145 4.19113 -0.8968 0
M  V30 423 H 39.7985 4.63642 -1.7706 0
M  V30 424 H 35.0545 5.32459 -3.00496 0
M  V30 425 H 39.2285 5.78358 -3.87911 0
M  V30 426 H 36.8555 6.12557 -4.50197 0
M  V30 427 N 38.4306 0.297415 1.54768 0
M  V30 428 C 39.3936 -0.567375 2.22066 0
M  V30 429 C 40.3936 -1.06409 1.20556 0
M  V30 430 O 41.5836 -0.960691 1.45315 0
M  V30 431 C 38.7156 -1.78517 2.90421 0
M  V30 432 H 39.9086 0.0205534 2.99893 0
M  V30 433 H 37.4616 0.0482163 1.56226 0
M  V30 434 H 38.1966 -2.41303 2.16664 0
M  V30 435 H 37.9816 -1.43669 3.64831 0
M  V30 436 H 39.4716 -2.39964 3.41771 0
M  V30 437 N 39.9087 -1.5758 0.0250728 0
M  V30 438 C 41.1857 -1.82917 -0.692873 0
M  V30 439 C 41.5657 -0.908137 -1.90568 0
M  V30 440 O 40.9137 0.0372298 -2.2847 0
M  V30 441 C 41.1237 -3.32034 -1.07492 0
M  V30 442 C 42.4717 -3.98406 -1.46826 0
M  V30 443 O 43.4957 -3.36505 -1.16801 0
M  V30 444 O 42.3547 -5.07497 -2.02754 0
M  V30 445 H 39.4487 -0.754079 -0.33955 0
M  V30 446 H 41.9947 -1.69619 0.0524456 0
M  V30 447 H 40.7667 -3.90728 -0.211552 0
M  V30 448 H 40.3897 -3.50424 -1.87854 0
M  V30 449 N 41.3868 0.248026 -1.55636 0
M  V30 450 C 42.3188 1.32993 -1.8667 0
M  V30 451 C 43.3318 1.44345 -0.752877 0
M  V30 452 O 44.5208 1.45715 -1.03098 0
M  V30 453 C 41.6208 2.70863 -2.03682 0
M  V30 454 C 40.7938 2.81792 -3.34532 0
M  V30 455 C 39.8528 4.005 -3.41301 0
M  V30 456 O 38.8788 3.9008 -4.14519 0
M  V30 457 N 40.0808 5.13618 -2.70512 0
M  V30 458 H 42.8458 1.06707 -2.8006 0
M  V30 459 H 40.4068 0.438129 -1.55859 0
M  V30 460 H 42.3988 3.48612 -2.05553 0
M  V30 461 H 40.9688 2.89862 -1.17041 0
M  V30 462 H 40.1888 1.90729 -3.44987 0
M  V30 463 H 41.4768 2.86043 -4.20781 0
M  V30 464 H 40.8748 5.24975 -2.10755 0
M  V30 465 H 39.4318 5.89505 -2.78077 0
M  V30 466 N 42.8649 1.48995 0.513639 0
M  V30 467 C 43.8129 1.65199 1.63744 0
M  V30 468 C 44.8069 0.51809 1.61283 0
M  V30 469 O 46.0129 0.697335 1.65943 0
M  V30 470 H 42.3879 0.52069 0.542574 0
M  V30 471 H 44.3589 2.59552 1.47226 0
M  V30 472 C 43.1079 1.72409 3.01945 0
M  V30 473 H 42.4309 2.59029 3.04539 0
M  V30 474 H 43.8709 1.87785 3.80148 0
M  V30 475 C 42.3299 0.46618 3.33659 0
M  V30 476 O 42.8599 -0.413744 3.99564 0
M  V30 477 N 41.0659 0.332931 2.88687 0
M  V30 478 H 40.6129 1.04996 2.35231 0
M  V30 479 H 40.5709 -0.507665 3.10274 0
M  V30 480 N 44.343 -0.763751 1.37857 0
M  V30 481 C 45.59 -1.52257 1.33506 0
M  V30 482 C 45.918 -1.94343 -0.078022 0
M  V30 483 O 45.173 -1.64958 -1.05297 0
M  V30 484 C 45.472 -2.79499 2.22745 0
M  V30 485 C 45.138 -2.56426 3.70886 0
M  V30 486 C 43.8 -2.49842 4.11257 0
M  V30 487 C 46.152 -2.36008 4.64704 0
M  V30 488 C 43.48 -2.20841 5.43549 0
M  V30 489 C 45.832 -2.0853 5.97242 0
M  V30 490 C 44.496 -2.00396 6.36709 0
M  V30 491 H 43.766 -0.557149 0.488534 0
M  V30 492 H 46.413 -0.879073 1.70131 0
M  V30 493 H 44.718 -3.48447 1.79142 0
M  V30 494 H 46.415 -3.37413 2.16688 0
M  V30 495 H 43.005 -2.62416 3.38874 0
M  V30 496 H 47.189 -2.40079 4.34368 0
M  V30 497 H 42.445 -2.13045 5.73081 0
M  V30 498 H 46.619 -1.91732 6.69486 0
M  V30 499 H 44.246 -1.77688 7.39142 0
M  V30 500 N 45.8211 -1.22559 -0.990812 0
M  V30 501 C 46.7841 -0.998863 -2.0629 0
M  V30 502 C 47.7841 0.0354834 -1.60761 0
M  V30 503 O 48.9741 -0.203231 -1.7301 0
M  V30 504 C 46.1061 -0.509203 -3.37076 0
M  V30 505 H 47.2991 -1.95014 -2.27837 0
M  V30 506 H 44.8521 -1.04456 -1.16269 0
M  V30 507 H 45.5871 0.446335 -3.21214 0
M  V30 508 H 45.3721 -1.25547 -3.71457 0
M  V30 509 H 46.8621 -0.370888 -4.1595 0
M  V30 510 N 47.2992 1.18797 -1.03562 0
M  V30 511 C 48.7152 1.40671 -0.753917 0
M  V30 512 C 48.9152 1.9043 0.658686 0
M  V30 513 O 47.9712 2.08538 1.42366 0
M  V30 514 C 49.2842 2.41192 -1.79574 0
M  V30 515 C 50.8322 2.54928 -1.81606 0
M  V30 516 C 51.3072 3.58709 -2.84766 0
M  V30 517 N 52.7982 3.66212 -2.83625 0
M  V30 518 C 53.5332 4.46225 -3.60098 0
M  V30 519 N 53.0292 5.29888 -4.46308 0
M  V30 520 N 54.8222 4.40939 -3.4861 0
M  V30 521 H 46.9732 0.848221 -1.94728 0
M  V30 522 H 49.2362 0.435081 -0.842264 0
M  V30 523 H 48.9422 2.11669 -2.80872 0
M  V30 524 H 48.8162 3.40467 -1.62365 0
M  V30 525 H 51.2032 2.83771 -0.809817 0
M  V30 526 H 51.2842 1.55784 -2.02891 0
M  V30 527 H 50.9282 3.30607 -3.85566 0
M  V30 528 H 50.8582 4.57519 -2.60737 0
M  V30 529 H 53.3492 3.06466 -2.21105 0
M  V30 530 H 53.6622 5.88078 -5.01382 0
M  V30 531 H 52.0072 5.29326 -4.50377 0
M  V30 532 H 55.1982 3.74624 -2.80668 0
M  V30 533 H 55.3712 5.03056 -4.08459 0
M  V30 534 N 48.7773 0.814389 1.34928 0
M  V30 535 C 49.7253 0.218424 2.31572 0
M  V30 536 C 50.7193 -0.636128 1.57002 0
M  V30 537 O 51.9253 -0.52842 1.72069 0
M  V30 538 H 48.3003 0.0518799 0.750208 0
M  V30 539 H 50.2713 1.04852 2.79372 0
M  V30 540 C 49.0203 -0.61207 3.4227 0
M  V30 541 H 48.3433 0.0361578 3.99784 0
M  V30 542 H 49.7833 -0.995317 4.12152 0
M  V30 543 C 48.2423 -1.78087 2.85984 0
M  V30 544 O 48.7723 -2.8787 2.80168 0
M  V30 545 N 46.9783 -1.59488 2.42924 0
M  V30 546 H 46.5253 -0.701874 2.47854 0
M  V30 547 H 46.4833 -2.37846 2.05613 0
M  V30 548 N 50.2554 -1.46986 0.568584 0
M  V30 549 C 51.1654 -2.33942 -0.17555 0
M  V30 550 C 52.1814 -1.48891 -0.90041 0
M  V30 551 O 53.3574 -1.81794 -0.86676 0
M  V30 552 C 50.4224 -3.25811 -1.18524 0
M  V30 553 C 49.4834 -4.26757 -0.466582 0
M  V30 554 C 48.7164 -5.14236 -1.42817 0
M  V30 555 O 48.9394 -5.04379 -2.66379 0
M  V30 556 O 47.8734 -5.94412 -0.946453 0
M  V30 557 H 51.6994 -2.98896 0.538036 0
M  V30 558 H 49.2844 -1.4573 0.329097 0
M  V30 559 H 51.1664 -3.82527 -1.76779 0
M  V30 560 H 49.8414 -2.63471 -1.88055 0
M  V30 561 H 48.7484 -3.73769 0.157451 0
M  V30 562 H 50.0814 -4.91843 0.187485 0
M  V30 563 N 51.7335 -0.305618 -1.54608 0
M  V30 564 C 52.6805 0.568421 -2.23691 0
M  V30 565 C 53.6505 1.12592 -1.22116 0
M  V30 566 O 54.8355 1.16959 -1.50749 0
M  V30 567 C 51.9755 1.7322 -2.98477 0
M  V30 568 C 51.0885 1.20566 -4.14835 0
M  V30 569 C 50.2235 2.33368 -4.77193 0
M  V30 570 C 49.2625 1.7787 -5.85686 0
M  V30 571 N 48.3995 2.84263 -6.4198 0
M  V30 572 H 53.2395 -0.0272867 -2.97988 0
M  V30 573 H 50.7765 -0.0252363 -1.47078 0
M  V30 574 H 52.7345 2.41675 -3.40072 0
M  V30 575 H 51.3645 2.29947 -2.26548 0
M  V30 576 H 50.4165 0.413223 -3.78149 0
M  V30 577 H 51.7285 0.759417 -4.92985 0
M  V30 578 H 50.8825 3.09761 -5.21664 0
M  V30 579 H 49.6215 2.8132 -3.98385 0
M  V30 580 H 48.6265 0.99968 -5.40635 0
M  V30 581 H 49.8515 1.30816 -6.66381 0
M  V30 582 H 47.7975 3.31541 -5.66053 0
M  V30 583 H 47.7145 2.44149 -7.15491 0
M  V30 584 H 48.9825 3.6054 -6.91109 0
M  V30 585 N 53.2116 1.57565 -0.0334293 0
M  V30 586 C 54.1216 2.13943 0.962572 0
M  V30 587 C 55.1376 1.09276 1.35406 0
M  V30 588 O 56.3136 1.41355 1.4346 0
M  V30 589 C 53.3786 2.65887 2.22497 0
M  V30 590 C 52.4396 3.85286 1.8935 0
M  V30 591 C 51.6726 4.34743 3.09571 0
M  V30 592 O 51.8956 3.83352 4.22371 0
M  V30 593 O 50.8296 5.26538 2.91618 0
M  V30 594 H 54.6556 2.99333 0.513169 0
M  V30 595 H 52.2406 1.4822 0.18743 0
M  V30 596 H 54.1226 2.99346 2.96598 0
M  V30 597 H 52.7976 1.83578 2.6661 0
M  V30 598 H 51.7046 3.56746 1.1262 0
M  V30 599 H 53.0376 4.68771 1.5005 0
M  V30 600 N 54.6897 -0.239769 1.55765 0
M  V30 601 C 55.6527 -1.28038 1.90103 0
M  V30 602 C 56.6527 -1.40723 0.778055 0
M  V30 603 O 57.8427 -1.39301 1.04599 0
M  V30 604 C 54.9747 -2.65702 2.13577 0
M  V30 605 H 56.1677 -0.988048 2.83157 0
M  V30 606 H 53.7207 -0.479382 1.48767 0
M  V30 607 H 54.4557 -3.00063 1.23015 0
M  V30 608 H 54.2407 -2.57875 2.95369 0
M  V30 609 H 55.7307 -3.40828 2.41301 0
M  V30 610 N 56.1678 -1.49265 -0.50573 0
M  V30 611 C 57.1148 -1.65585 -1.6078 0
M  V30 612 C 58.0848 -0.497396 -1.58478 0
M  V30 613 O 59.2698 -0.72385 -1.76536 0
M  V30 614 C 56.4098 -1.72408 -2.98948 0
M  V30 615 C 55.5228 -2.99525 -3.11301 0
M  V30 616 C 54.6578 -2.97356 -4.40174 0
M  V30 617 C 53.6968 -4.19074 -4.46143 0
M  V30 618 N 52.8338 -4.14841 -5.66437 0
M  V30 619 H 57.6738 -2.59688 -1.46172 0
M  V30 620 H 55.2108 -1.28761 -0.711261 0
M  V30 621 H 57.1688 -1.74344 -3.79025 0
M  V30 622 H 55.7988 -0.817753 -3.1227 0
M  V30 623 H 54.8508 -3.07222 -2.24318 0
M  V30 624 H 56.1628 -3.89518 -3.11572 0
M  V30 625 H 55.3168 -2.97829 -5.28567 0
M  V30 626 H 54.0558 -2.05133 -4.42461 0
M  V30 627 H 53.0608 -4.1885 -3.56153 0
M  V30 628 H 54.2858 -5.12483 -4.45575 0
M  V30 629 H 52.2318 -3.25453 -5.69575 0
M  V30 630 H 52.1488 -4.98564 -5.68304 0
M  V30 631 H 53.4168 -4.1941 -6.57051 0
M  V30 632 N 57.6459 0.756429 -1.3826 0
M  V30 633 C 58.9229 1.50584 -1.24835 0
M  V30 634 C 59.3029 2.10556 0.151485 0
M  V30 635 O 58.6509 1.96825 1.1607 0
M  V30 636 C 58.8609 2.57448 -2.3563 0
M  V30 637 C 60.2089 3.24429 -2.73917 0
M  V30 638 O 61.2329 2.67751 -2.34921 0
M  V30 639 O 60.0919 4.26937 -3.41156 0
M  V30 640 H 57.1859 0.667664 -0.48801 0
M  V30 641 H 59.7319 0.792083 -1.5008 0
M  V30 642 H 58.5039 2.11362 -3.29305 0
M  V30 643 H 58.1269 3.36408 -2.11933 0
M  V30 644 N 59.124 1.23083 0.984299 0
M  V30 645 C 60.349 1.088 1.76571 0
M  V30 646 C 60.774 -0.356657 1.84688 0
M  V30 647 O 60.132 -1.25788 1.30565 0
M  V30 648 C 60.18 1.71371 3.17277 0
M  V30 649 O 59.284 0.973213 4.00752 0
M  V30 650 H 58.625 0.381599 0.543395 0
M  V30 651 H 61.155 1.63057 1.23587 0
M  V30 652 H 61.165 1.76449 3.67872 0
M  V30 653 H 59.84 2.76493 3.10684 0
M  V30 654 H 58.417 0.999078 3.59267 0
M  V30 655 N 60.6021 -1.18246 1.0419 0
M  V30 656 C 61.5651 -2.20128 0.638452 0
M  V30 657 C 62.5651 -1.57885 -0.304805 0
M  V30 658 O 63.7551 -1.73967 -0.0900369 0
M  V30 659 C 60.8871 -3.4084 -0.0637751 0
M  V30 660 H 62.0801 -2.57336 1.54007 0
M  V30 661 H 59.6331 -1.32152 0.834598 0
M  V30 662 H 60.3681 -3.09166 -0.979136 0
M  V30 663 H 60.1531 -3.8726 0.614198 0
M  V30 664 H 61.6431 -4.16274 -0.332512 0
M  V30 665 N 62.0802 -0.821533 -1.34494 0
M  V30 666 C 63.3292 -0.405355 -1.97585 0
M  V30 667 C 63.6422 1.03677 -1.65863 0
M  V30 668 O 64.8482 1.55679 -2.22433 0
M  V30 669 C 63.3042 -0.673861 -3.53535 0
M  V30 670 C 62.9122 -2.12951 -3.94152 0
M  V30 671 C 64.6562 -0.32378 -4.23263 0
M  V30 672 C 62.5632 -2.34298 -5.43009 0
M  V30 673 H 61.4932 -0.147836 -0.739365 0
M  V30 674 H 64.1442 -1.00769 -1.53355 0
M  V30 675 H 62.5262 -0.00137554 -3.96 0
M  V30 676 H 63.7002 -2.84104 -3.62797 0
M  V30 677 H 62.0152 -2.44089 -3.37356 0
M  V30 678 H 64.6122 -0.461126 -5.32708 0
M  V30 679 H 64.9552 0.731586 -4.09821 0
M  V30 680 H 65.4882 -0.950786 -3.8627 0
M  V30 681 H 62.2272 -3.38335 -5.61435 0
M  V30 682 H 61.7472 -1.67687 -5.75883 0
M  V30 683 H 63.4262 -2.16588 -6.09671 0
M  V30 684 N 63.5583 1.46682 -0.576371 0
M  V30 685 C 64.7863 2.06798 -0.0649635 0
M  V30 686 C 65.2013 1.42612 1.23723 0
M  V30 687 O 64.5583 0.529203 1.74659 0
M  V30 688 C 64.6093 3.6132 0.114202 0
M  V30 689 O 64.3303 4.23104 -1.13644 0
M  V30 690 C 65.8313 4.38349 0.66069 0
M  V30 691 H 63.0513 0.668778 -0.0545616 0
M  V30 692 H 65.5953 1.88404 -0.795237 0
M  V30 693 H 63.7503 3.79162 0.794673 0
M  V30 694 H 64.1643 5.15894 -0.946253 0
M  V30 695 H 65.6383 5.47081 0.73526 0
M  V30 696 H 66.1153 4.05953 1.67627 0
M  V30 697 H 66.7213 4.25297 0.0152951 0
M  V30 698 N 65.0364 0.313813 1.54444 0
M  V30 699 C 66.2834 -0.291675 2.00388 0
M  V30 700 C 66.6114 -1.52904 1.2021 0
M  V30 701 O 65.8664 -1.93833 0.269707 0
M  V30 702 C 66.1654 -0.680386 3.50864 0
M  V30 703 C 65.8314 0.456699 4.48581 0
M  V30 704 C 64.4934 0.768824 4.75018 0
M  V30 705 C 66.8454 1.22098 5.06697 0
M  V30 706 C 64.1734 1.84812 5.56831 0
M  V30 707 C 66.5254 2.29029 5.89685 0
M  V30 708 C 65.1894 2.60834 6.14428 0
M  V30 709 H 64.4594 -0.106732 0.733273 0
M  V30 710 H 67.1064 0.43557 1.86481 0
M  V30 711 H 65.4114 -1.48791 3.62448 0
M  V30 712 H 67.1084 -1.16026 3.83847 0
M  V30 713 H 63.6984 0.203337 4.28117 0
M  V30 714 H 67.8824 0.993096 4.86263 0
M  V30 715 H 63.1384 2.09912 5.74236 0
M  V30 716 H 67.3124 2.887 6.33739 0
M  V30 717 H 64.9394 3.44596 6.77612 0
M  V30 718 N 66.5145 -1.57545 0.0417849 0
M  V30 719 C 67.7635 -1.91494 -0.633492 0
M  V30 720 C 68.0765 -0.921084 -1.72556 0
M  V30 721 O 69.2825 -1.15228 -2.45835 0
M  V30 722 C 67.7385 -3.40072 -1.17808 0
M  V30 723 C 67.3465 -4.47843 -0.118633 0
M  V30 724 C 69.0905 -3.8307 -1.82915 0
M  V30 725 C 66.9975 -5.87529 -0.675578 0
M  V30 726 H 65.9275 -0.714653 -0.24039 0
M  V30 727 H 68.5785 -1.83175 0.109148 0
M  V30 728 H 66.9605 -3.43364 -1.97274 0
M  V30 729 H 68.1345 -4.56128 0.654494 0
M  V30 730 H 66.4495 -4.14128 0.434414 0
M  V30 731 H 69.0465 -4.84794 -2.25563 0
M  V30 732 H 69.3895 -3.1881 -2.67705 0
M  V30 733 H 69.9225 -3.82255 -1.10119 0
M  V30 734 H 66.6615 -6.55362 0.134475 0
M  V30 735 H 66.1815 -5.82824 -1.4169 0
M  V30 736 H 67.8605 -6.36491 -1.1614 0
M  V30 737 N 67.9926 0.231505 -1.5589 0
M  V30 738 C 68.9246 1.31006 -1.8807 0
M  V30 739 C 69.9376 1.43539 -0.768145 0
M  V30 740 O 71.1266 1.44614 -1.04638 0
M  V30 741 C 68.2266 2.68688 -2.06543 0
M  V30 742 C 67.3996 2.78228 -3.37502 0
M  V30 743 C 66.4586 3.96857 -3.4553 0
M  V30 744 O 65.4846 3.85662 -4.18633 0
M  V30 745 N 66.6866 5.1072 -2.75944 0
M  V30 746 H 69.4516 1.03731 -2.81176 0
M  V30 747 H 67.0126 0.421573 -1.56315 0
M  V30 748 H 69.0046 3.46412 -2.09239 0
M  V30 749 H 67.5746 2.88605 -1.20109 0
M  V30 750 H 66.7946 1.87059 -3.46991 0
M  V30 751 H 68.0826 2.81564 -4.23791 0
M  V30 752 H 67.4806 5.2271 -2.16311 0
M  V30 753 H 66.0376 5.86523 -2.84314 0
M  V30 754 N 69.4707 1.49531 0.497807 0
M  V30 755 C 70.4177 1.66436 1.59899 0
M  V30 756 C 71.3877 0.505793 1.58212 0
M  V30 757 O 72.5727 0.733202 1.7615 0
M  V30 758 C 69.7127 1.7399 2.98029 0
M  V30 759 C 68.8257 3.01172 3.09708 0
M  V30 760 C 67.9607 2.99686 4.38591 0
M  V30 761 C 66.9997 4.21434 4.43914 0
M  V30 762 N 66.1367 4.1784 5.64229 0
M  V30 763 H 70.9767 2.60459 1.44793 0
M  V30 764 H 68.5137 1.29137 0.704423 0
M  V30 765 H 70.4717 1.76352 3.78095 0
M  V30 766 H 69.1017 0.834301 3.11832 0
M  V30 767 H 68.1537 3.08408 2.22685 0
M  V30 768 H 69.4657 3.91165 3.09502 0
M  V30 769 H 68.6197 3.00628 5.2698 0
M  V30 770 H 67.3587 2.07477 4.41367 0
M  V30 771 H 66.3637 4.20733 3.53926 0
M  V30 772 H 67.5887 5.14839 4.42851 0
M  V30 773 H 65.5347 3.28469 5.67841 0
M  V30 774 H 65.4517 5.01571 5.65652 0
M  V30 775 H 66.7197 4.22889 6.54817 0
M  V30 776 N 70.9488 -0.749086 1.3866 0
M  V30 777 C 72.1738 -1.54344 1.38538 0
M  V30 778 C 72.5988 -1.88088 -0.0216655 0
M  V30 779 O 71.9568 -1.50899 -1.00494 0
M  V30 780 C 72.0048 -2.8164 2.25192 0
M  V30 781 O 71.1088 -3.7698 1.67212 0
M  V30 782 H 70.4498 -0.466654 0.472367 0
M  V30 783 H 72.9798 -0.925355 1.82478 0
M  V30 784 H 72.9898 -3.30519 2.3921 0
M  V30 785 H 71.6648 -2.56411 3.27454 0
M  V30 786 H 70.2418 -3.35699 1.6236 0
M  V30 787 N 72.4269 -1.23603 -0.977757 0
M  V30 788 C 73.3899 -1.02069 -2.05218 0
M  V30 789 C 74.3899 0.0184305 -1.60789 0
M  V30 790 O 75.5799 -0.221569 -1.72785 0
M  V30 791 C 72.7119 -0.544926 -3.36517 0
M  V30 792 H 73.9049 -1.9742 -2.25755 0
M  V30 793 H 71.4579 -1.05684 -1.15155 0
M  V30 794 H 72.1929 0.412241 -3.21669 0
M  V30 795 H 71.9779 -1.2948 -3.70105 0
M  V30 796 H 73.4679 -0.414985 -4.15533 0
M  V30 797 N 73.905 1.17692 -1.04816 0
M  V30 798 C 74.868 2.19787 -0.650117 0
M  V30 799 C 75.868 1.58044 0.296427 0
M  V30 800 O 77.058 1.74012 0.0808097 0
M  V30 801 C 74.19 3.40869 0.0456987 0
M  V30 802 H 75.383 2.56516 -1.5537 0
M  V30 803 H 72.936 1.31708 -0.841594 0
M  V30 804 H 73.671 3.09681 0.962726 0
M  V30 805 H 73.456 3.86928 -0.634727 0
M  V30 806 H 74.946 4.16445 0.310432 0
M  V30 807 N 75.3831 0.828654 1.34056 0
M  V30 808 C 76.6321 0.415828 1.97367 0
M  V30 809 C 76.9451 -1.02796 1.6641 0
M  V30 810 O 78.1511 -1.54497 2.23255 0
M  V30 811 C 76.6071 0.692601 3.53173 0
M  V30 812 C 76.2151 2.15038 3.93017 0
M  V30 813 C 77.9591 0.346222 4.23086 0
M  V30 814 C 75.8661 2.37174 5.41758 0
M  V30 815 H 74.7961 0.151755 0.738571 0
M  V30 816 H 77.4471 1.01581 1.52819 0
M  V30 817 H 75.8291 0.0223764 3.95994 0
M  V30 818 H 77.0031 2.86024 3.61285 0
M  V30 819 H 75.3181 2.45875 3.36057 0
M  V30 820 H 77.9151 0.48937 5.32456 0
M  V30 821 H 78.2581 -0.709842 4.10204 0
M  V30 822 H 78.7911 0.971258 3.85761 0
M  V30 823 H 75.5301 3.41308 5.59633 0
M  V30 824 H 75.0501 1.70738 5.74986 0
M  V30 825 H 76.7291 2.19818 6.08514 0
M  V30 826 N 76.8612 -1.46375 0.584142 0
M  V30 827 C 77.8082 -2.30323 -0.148286 0
M  V30 828 C 78.7782 -1.40703 -0.882713 0
M  V30 829 O 79.9632 -1.69651 -0.873099 0
M  V30 830 C 77.1032 -3.25196 -1.15507 0
M  V30 831 C 76.2162 -4.29915 -0.423943 0
M  V30 832 C 75.3512 -5.11914 -1.41838 0
M  V30 833 C 74.3902 -6.08381 -0.673736 0
M  V30 834 N 73.5272 -6.83242 -1.6163 0
M  V30 835 H 78.3672 -2.92427 0.573644 0
M  V30 836 H 75.9042 -1.44118 0.294703 0
M  V30 837 H 77.8622 -3.78646 -1.75166 0
M  V30 838 H 76.4922 -2.64898 -1.8447 0
M  V30 839 H 75.5442 -3.7931 0.287714 0
M  V30 840 H 76.8562 -4.98549 0.158128 0
M  V30 841 H 76.0102 -5.69648 -2.08773 0
M  V30 842 H 74.7492 -4.43243 -2.03438 0
M  V30 843 H 73.7542 -5.49799 0.00938483 0
M  V30 844 H 74.9792 -6.79071 -0.0631082 0
M  V30 845 H 72.9252 -6.1728 -2.22038 0
M  V30 846 H 72.8422 -7.48144 -1.08707 0
M  V30 847 H 74.1102 -7.45534 -2.27596 0
M  V30 848 N 78.3393 -0.321999 -1.54275 0
M  V30 849 C 79.3023 0.531975 -2.22941 0
M  V30 850 C 80.3023 1.04478 -1.22234 0
M  V30 851 O 81.4923 0.937452 -1.46825 0
M  V30 852 C 78.6243 1.73874 -2.93224 0
M  V30 853 H 79.8173 -0.0682612 -2.99822 0
M  V30 854 H 77.3703 -0.0730644 -1.56129 0
M  V30 855 H 78.1053 2.37825 -2.20476 0
M  V30 856 H 77.8903 1.37847 -3.6707 0
M  V30 857 H 79.3803 2.34496 -3.45545 0
M  V30 858 N 79.8174 1.5752 -0.0501392 0
M  V30 859 C 81.0654 1.9227 0.622642 0
M  V30 860 C 81.3864 0.929083 1.71444 0
M  V30 861 O 80.6564 -0.0262186 1.95882 0
M  V30 862 H 79.2364 0.709739 0.232981 0
M  V30 863 H 81.8984 1.94628 -0.102898 0
M  V30 864 H 80.9944 2.93479 1.06191 0
M  V30 865 N 81.2955 -0.223234 1.56011 0
M  V30 866 C 82.2585 -1.26014 1.9145 0
M  V30 867 C 83.2585 -1.3989 0.792937 0
M  V30 868 O 84.4485 -1.38184 1.0607 0
M  V30 869 C 81.5805 -2.63422 2.16383 0
M  V30 870 H 82.7735 -0.95796 2.84189 0
M  V30 871 H 80.3265 -0.463576 1.49267 0
M  V30 872 H 81.0615 -2.98741 1.2619 0
M  V30 873 H 80.8465 -2.54728 2.98088 0
M  V30 874 H 82.3365 -3.38249 2.44903 0
M  V30 875 N 82.7736 -1.49793 -0.48987 0
M  V30 876 C 84.1896 -1.36803 -0.822022 0
M  V30 877 C 84.3896 -0.409652 -1.97292 0
M  V30 878 O 83.4456 0.154614 -2.52026 0
M  V30 879 C 84.7586 -2.77768 -1.15175 0
M  V30 880 C 86.3066 -2.86549 -1.25931 0
M  V30 881 C 86.7816 -4.28306 -1.62228 0
M  V30 882 N 88.2726 -4.31169 -1.69256 0
M  V30 883 C 89.0076 -5.37832 -1.98807 0
M  V30 884 N 88.5036 -6.54726 -2.26507 0
M  V30 885 N 90.2966 -5.25258 -2.00152 0
M  V30 886 H 82.4476 -2.10691 0.268881 0
M  V30 887 H 84.7106 -0.946241 0.057728 0
M  V30 888 H 84.4166 -3.49648 -0.379335 0
M  V30 889 H 84.2906 -3.13836 -2.09253 0
M  V30 890 H 86.6776 -2.14899 -2.02243 0
M  V30 891 H 86.7586 -2.54049 -0.298776 0
M  V30 892 H 86.4026 -5.00486 -0.864622 0
M  V30 893 H 86.3326 -4.58279 -2.594 0
M  V30 894 H 88.8236 -3.4687 -1.49965 0
M  V30 895 H 89.1366 -7.31833 -2.48276 0
M  V30 896 H 87.4816 -6.57933 -2.23939 0
M  V30 897 H 90.6726 -4.32938 -1.77996 0
M  V30 898 H 90.8456 -6.08476 -2.22848 0
M  V30 899 N 84.2517 0.741722 -1.39055 0
M  V30 900 C 85.4767 1.53607 -1.39354 0
M  V30 901 C 85.9017 1.88096 0.0116905 0
M  V30 902 O 85.2597 1.5143 0.996924 0
M  V30 903 C 85.3077 2.80441 -2.26682 0
M  V30 904 O 84.4117 3.76088 -1.69208 0
M  V30 905 H 83.7527 0.464142 -0.474835 0
M  V30 906 H 86.2827 0.915665 -1.82967 0
M  V30 907 H 86.2927 3.29246 -2.40959 0
M  V30 908 H 84.9677 2.5467 -3.2881 0
M  V30 909 H 83.5447 3.34833 -1.64138 0
M  V30 910 N 85.7298 1.2412 0.971189 0
M  V30 911 C 86.6928 1.03156 2.04674 0
M  V30 912 C 87.6928 -0.00990322 1.60797 0
M  V30 913 O 88.8828 0.230729 1.72665 0
M  V30 914 C 86.0148 0.562765 3.36223 0
M  V30 915 H 87.2078 1.98614 2.24705 0
M  V30 916 H 84.7608 1.06293 1.14593 0
M  V30 917 H 85.4958 -0.395176 3.21883 0
M  V30 918 H 85.2808 1.31441 3.69413 0
M  V30 919 H 86.7708 0.437015 4.15307 0
M  V30 920 N 87.2079 -1.17134 1.05439 0
M  V30 921 C 88.1179 -2.24878 0.668365 0
M  V30 922 C 89.1339 -1.71186 -0.311687 0
M  V30 923 O 90.3099 -2.00738 -0.163161 0
M  V30 924 C 87.3749 -3.46662 0.051648 0
M  V30 925 C 86.4359 -4.15429 1.08246 0
M  V30 926 C 85.6689 -5.31399 0.495082 0
M  V30 927 O 85.8919 -5.66153 -0.694743 0
M  V30 928 O 84.8259 -5.89187 1.23056 0
M  V30 929 H 88.6519 -2.60189 1.56637 0
M  V30 930 H 86.2369 -1.24482 0.826104 0
M  V30 931 H 88.1189 -4.20394 -0.290966 0
M  V30 932 H 86.7939 -3.13142 -0.819971 0
M  V30 933 H 85.7009 -3.43704 1.47711 0
M  V30 934 H 87.0339 -4.52982 1.92532 0
M  V30 935 N 88.686 -0.835752 -1.33615 0
M  V30 936 C 89.963 -0.352017 -1.92406 0
M  V30 937 C 90.343 1.16225 -1.76224 0
M  V30 938 O 89.691 1.97526 -1.14873 0
M  V30 939 C 89.901 -0.795485 -3.39813 0
M  V30 940 C 91.249 -0.801703 -4.16963 0
M  V30 941 O 92.273 -0.738889 -3.48452 0
M  V30 942 O 91.132 -0.886607 -5.3926 0
M  V30 943 H 88.226 -0.0989641 -0.821057 0
M  V30 944 H 90.772 -0.921397 -1.42507 0
M  V30 945 H 89.544 -1.83795 -3.45449 0
M  V30 946 H 89.167 -0.202505 -3.97084 0
M  V30 947 N 90.1641 1.46063 -0.591896 0
M  V30 948 C 91.4131 2.01547 -0.0786637 0
M  V30 949 C 91.7261 1.46796 1.29268 0
M  V30 950 O 92.9321 1.94157 1.89777 0
M  V30 951 C 91.3881 3.59787 -0.0900024 0
M  V30 952 C 90.9961 4.23534 -1.46023 0
M  V30 953 C 92.7401 4.22895 0.368806 0
M  V30 954 C 90.6471 5.73881 -1.4288 0
M  V30 955 H 89.5771 0.753564 -0.0256388 0
M  V30 956 H 92.2281 1.677 -0.744905 0
M  V30 957 H 90.6101 3.90752 0.642586 0
M  V30 958 H 91.7841 4.04167 -2.21328 0
M  V30 959 H 90.0991 3.72558 -1.85982 0
M  V30 960 H 92.6961 5.33116 0.411258 0
M  V30 961 H 93.0391 3.9247 1.38827 0
M  V30 962 H 93.5721 3.9659 -0.31001 0
M  V30 963 H 90.3111 6.0898 -2.42536 0
M  V30 964 H 89.8311 5.95486 -0.718095 0
M  V30 965 H 91.5101 6.36776 -1.14565 0
M  V30 966 N 91.6422 0.330177 1.54103 0
M  V30 967 C 92.5892 -0.532762 2.24567 0
M  V30 968 C 93.5592 -1.10635 1.23892 0
M  V30 969 O 94.7442 -1.14546 1.5259 0
M  V30 970 C 91.8842 -1.6845 3.01195 0
M  V30 971 C 90.9972 -1.13951 4.167 0
M  V30 972 C 90.1322 -2.25746 4.80845 0
M  V30 973 C 89.1712 -1.6853 5.88442 0
M  V30 974 N 88.3082 -2.74014 6.46421 0
M  V30 975 H 93.1482 0.0746905 2.97906 0
M  V30 976 H 90.6852 0.048632 1.4702 0
M  V30 977 H 92.6432 -2.36234 3.43874 0
M  V30 978 H 91.2732 -2.26314 2.30178 0
M  V30 979 H 90.3252 -0.35301 3.78758 0
M  V30 980 H 91.6372 -0.680892 4.94131 0
M  V30 981 H 90.7912 -3.01422 5.26526 0
M  V30 982 H 89.5302 -2.74947 4.0281 0
M  V30 983 H 88.5352 -0.913543 5.42157 0
M  V30 984 H 89.7602 -1.20198 6.68378 0
M  V30 985 H 87.7062 -3.22494 5.71256 0
M  V30 986 H 87.6232 -2.32735 7.19285 0
M  V30 987 H 88.8912 -3.49499 6.96757 0
M  V30 988 N 93.1203 -1.57491 0.0584922 0
M  V30 989 C 94.0503 -2.14988 -0.911178 0
M  V30 990 C 95.0313 -1.07343 -1.31952 0
M  V30 991 O 96.2163 -1.35318 -1.39294 0
M  V30 992 C 93.3463 -2.70078 -2.18347 0
M  V30 993 C 92.3003 -3.82771 -1.91495 0
M  V30 994 C 91.6263 -4.24408 -3.25241 0
M  V30 995 C 92.9263 -5.07592 -1.23075 0
M  V30 996 H 94.6203 -2.96263 -0.432246 0
M  V30 997 H 92.1663 -1.42512 -0.206469 0
M  V30 998 H 94.1193 -3.08943 -2.86587 0
M  V30 999 H 92.8433 -1.86005 -2.68458 0
M  V30 1000 H 91.5023 -3.44389 -1.25664 0
M  V30 1001 H 91.1503 -3.37275 -3.73168 0
M  V30 1002 H 90.8503 -5.00366 -3.08071 0
M  V30 1003 H 92.3743 -4.65879 -3.94701 0
M  V30 1004 H 93.7883 -5.43857 -1.81362 0
M  V30 1005 H 92.1853 -5.88741 -1.16207 0
M  V30 1006 H 93.2553 -4.84454 -0.207847 0
M  V30 1007 N 94.5984 0.214957 -1.56127 0
M  V30 1008 C 95.8754 0.963093 -1.70247 0
M  V30 1009 C 96.2554 2.02166 -0.60764 0
M  V30 1010 O 95.6034 2.25244 0.384385 0
M  V30 1011 C 95.8134 1.56756 -3.11815 0
M  V30 1012 C 97.1614 2.0573 -3.7143 0
M  V30 1013 O 98.1854 1.66637 -3.14818 0
M  V30 1014 O 97.0444 2.77603 -4.70743 0
M  V30 1015 H 94.1384 0.450321 -0.693643 0
M  V30 1016 H 96.6844 0.206219 -1.68442 0
M  V30 1017 H 95.4564 0.803533 -3.82961 0
M  V30 1018 H 95.0794 2.3898 -3.17765 0
M  V30 1019 N 96.0765 1.50051 0.48192 0
M  V30 1020 C 97.0235 1.68122 1.58125 0
M  V30 1021 C 97.9935 0.522545 1.57666 0
M  V30 1022 O 99.1785 0.751844 1.75362 0
M  V30 1023 C 96.3185 1.77142 2.96167 0
M  V30 1024 C 95.4315 3.0444 3.06497 0
M  V30 1025 C 94.5665 3.04321 4.35387 0
M  V30 1026 C 93.6055 4.26118 4.3942 0
M  V30 1027 N 92.7425 4.238 5.59766 0
M  V30 1028 H 97.5825 2.6198 1.42022 0
M  V30 1029 H 95.1195 1.29877 0.690687 0
M  V30 1030 H 97.0775 1.80352 3.76203 0
M  V30 1031 H 95.7075 0.867329 3.1093 0
M  V30 1032 H 94.7595 3.10752 2.19402 0
M  V30 1033 H 96.0715 3.94426 3.05336 0
M  V30 1034 H 95.2255 3.062 5.23762 0
M  V30 1035 H 93.9645 2.12147 4.39141 0
M  V30 1036 H 92.9695 4.24463 3.49444 0
M  V30 1037 H 94.1945 5.19507 4.37366 0
M  V30 1038 H 92.1405 3.34474 5.64326 0
M  V30 1039 H 92.0575 5.07542 5.60301 0
M  V30 1040 H 93.3255 4.2981 6.50295 0
M  V30 1041 N 97.5546 -0.734337 1.39446 0
M  V30 1042 C 98.8006 -1.49613 1.36908 0
M  V30 1043 C 99.1336 -1.94169 -0.0347829 0
M  V30 1044 O 98.4086 -1.66833 -0.999847 0
M  V30 1045 C 98.6916 -2.73534 2.34203 0
M  V30 1046 C 98.5446 -2.34993 3.83534 0
M  V30 1047 C 99.8636 -3.75635 2.29317 0
M  V30 1048 H 96.9826 -0.542714 0.498629 0
M  V30 1049 H 99.6246 -0.839597 1.70443 0
M  V30 1050 H 97.7746 -3.29553 2.05736 0
M  V30 1051 H 99.4466 -1.84601 4.22753 0
M  V30 1052 H 97.6896 -1.67213 4.00278 0
M  V30 1053 H 98.3606 -3.23738 4.47099 0
M  V30 1054 H 100.837 -3.29203 2.54489 0
M  V30 1055 H 99.7126 -4.60008 2.99472 0
M  V30 1056 H 99.9736 -4.22603 1.29842 0
M  V30 1057 N 99.0327 -1.24633 -0.964593 0
M  V30 1058 C 99.9807 -1.03917 -2.08096 0
M  V30 1059 C 100.975 0.0268581 -1.69379 0
M  V30 1060 O 102.181 -0.127952 -1.79545 0
M  V30 1061 H 98.5557 -0.319044 -0.680966 0
M  V30 1062 H 100.527 -1.98581 -2.22729 0
M  V30 1063 C 99.2757 -0.663983 -3.41301 0
M  V30 1064 H 98.5987 -1.47605 -3.71555 0
M  V30 1065 H 100.039 -0.558663 -4.20303 0
M  V30 1066 C 98.4977 0.629169 -3.30973 0
M  V30 1067 O 99.0277 1.67404 -3.65156 0
M  V30 1068 N 97.2337 0.611057 -2.84103 0
M  V30 1069 H 96.7807 -0.239593 -2.56483 0
M  V30 1070 H 96.7387 1.47647 -2.77575 0
M  V30 1071 N 100.511 1.16574 -1.06058 0
M  V30 1072 C 101.441 2.23057 -0.690488 0
M  V30 1073 C 102.422 1.67141 0.315901 0
M  V30 1074 O 103.607 1.93253 0.191556 0
M  V30 1075 C 100.737 3.47222 -0.073625 0
M  V30 1076 C 99.6908 4.16016 -1.00573 0
M  V30 1077 C 99.0168 5.34104 -0.252289 0
M  V30 1078 C 100.317 4.67264 -2.33371 0
M  V30 1079 H 102.011 2.54271 -1.58072 0
M  V30 1080 H 99.5568 1.22218 -0.76149 0
M  V30 1081 H 101.51 4.20939 0.19714 0
M  V30 1082 H 100.234 3.15302 0.85161 0
M  V30 1083 H 98.8928 3.44223 -1.2612 0
M  V30 1084 H 98.5408 4.98437 0.675988 0
M  V30 1085 H 98.2408 5.81072 -0.873455 0
M  V30 1086 H 99.7648 6.10599 0.0109857 0
M  V30 1087 H 101.179 5.32573 -2.12223 0
M  V30 1088 H 99.5758 5.24843 -2.90963 0
M  V30 1089 H 100.646 3.83602 -2.96611 0
M  V30 1090 N 101.989 0.842826 1.3317 0
M  V30 1091 C 103.237 0.439577 1.97262 0
M  V30 1092 C 103.558 -1.00548 1.67078 0
M  V30 1093 O 102.828 -1.70098 0.971779 0
M  V30 1094 H 101.408 0.159558 0.72976 0
M  V30 1095 H 104.07 1.07665 1.62463 0
M  V30 1096 H 103.166 0.574886 3.0676 0
M  V30 1097 N 103.467 -1.45747 0.599634 0
M  V30 1098 C 104.715 -2.01893 0.0915472 0
M  V30 1099 C 105.036 -1.47155 -1.27946 0
M  V30 1100 O 104.306 -0.66273 -1.84349 0
M  V30 1101 H 102.886 -0.746363 0.0308524 0
M  V30 1102 H 105.548 -1.78645 0.779237 0
M  V30 1103 H 104.644 -3.1208 0.0353086 0
M  V30 1104 N 104.945 -0.338344 -1.53925 0
M  V30 1105 C 105.855 0.529421 -2.28548 0
M  V30 1106 C 106.871 1.11645 -1.3346 0
M  V30 1107 O 108.047 1.13325 -1.66492 0
M  V30 1108 C 105.112 1.66713 -3.03987 0
M  V30 1109 C 104.173 1.11041 -4.14691 0
M  V30 1110 C 103.406 2.19389 -4.86522 0
M  V30 1111 O 103.629 3.40013 -4.57982 0
M  V30 1112 O 102.563 1.83976 -5.73094 0
M  V30 1113 H 106.389 -0.0770399 -3.03602 0
M  V30 1114 H 103.974 -0.103555 -1.49041 0
M  V30 1115 H 105.856 2.32918 -3.5118 0
M  V30 1116 H 104.531 2.25949 -2.31794 0
M  V30 1117 H 103.438 0.413024 -3.71813 0
M  V30 1118 H 104.771 0.562975 -4.8897 0
M  V30 1119 N 106.423 1.57458 -0.0668435 0
M  V30 1120 C 107.353 2.15468 0.899764 0
M  V30 1121 C 108.334 1.08042 1.31381 0
M  V30 1122 O 109.519 1.36054 1.38574 0
M  V30 1123 C 106.649 2.71232 2.16911 0
M  V30 1124 C 105.603 3.83781 1.89463 0
M  V30 1125 C 104.929 4.26127 3.22986 0
M  V30 1126 C 106.229 5.08238 1.20381 0
M  V30 1127 H 107.923 2.96488 0.416529 0
M  V30 1128 H 105.469 1.4262 0.198908 0
M  V30 1129 H 107.422 3.10458 2.84945 0
M  V30 1130 H 106.146 1.87426 2.67468 0
M  V30 1131 H 104.805 3.45051 1.23836 0
M  V30 1132 H 104.453 3.39249 3.71374 0
M  V30 1133 H 104.153 5.01993 3.05413 0
M  V30 1134 H 105.677 4.67966 3.92225 0
M  V30 1135 H 107.091 5.44811 1.78475 0
M  V30 1136 H 105.488 5.89349 1.13083 0
M  V30 1137 H 106.558 4.84558 0.182153 0
M  V30 1138 N 107.901 -0.206675 1.56239 0
M  V30 1139 C 109.126 -0.949474 1.8439 0
M  V30 1140 C 109.551 -1.76549 0.649016 0
M  V30 1141 O 108.909 -1.76782 -0.402231 0
M  V30 1142 C 108.957 -1.83078 3.10668 0
M  V30 1143 O 108.061 -2.9281 2.90407 0
M  V30 1144 H 107.402 -0.268033 0.607499 0
M  V30 1145 H 109.932 -0.215488 2.03462 0
M  V30 1146 H 109.942 -2.2377 3.41161 0
M  V30 1147 H 108.617 -1.23112 3.97261 0
M  V30 1148 H 107.194 -2.55956 2.71184 0
M  V30 1149 N 109.379 -1.50304 -0.473955 0
M  V30 1150 C 110.627 -1.60832 -1.22382 0
M  V30 1151 C 110.948 -0.30939 -1.9253 0
M  V30 1152 O 110.218 0.67296 -1.83978 0
M  V30 1153 H 108.798 -0.592652 -0.454723 0
M  V30 1154 H 111.46 -1.87068 -0.546968 0
M  V30 1155 H 110.556 -2.41803 -1.97327 0
M  V30 1156 N 110.857 0.726932 -1.39834 0
M  V30 1157 C 112.082 1.52121 -1.40976 0
M  V30 1158 C 112.507 1.88098 -0.00826029 0
M  V30 1159 O 111.865 1.52479 0.980807 0
M  V30 1160 C 111.913 2.78021 -2.29644 0
M  V30 1161 O 111.017 3.74272 -1.73188 0
M  V30 1162 H 110.358 0.45908 -0.479731 0
M  V30 1163 H 112.888 0.896207 -1.83927 0
M  V30 1164 H 112.898 3.26671 -2.44438 0
M  V30 1165 H 111.573 2.51169 -3.31492 0
M  V30 1166 H 110.15 3.33073 -1.6768 0
M  V30 1167 N 112.336 1.25143 0.95797 0
M  V30 1168 C 113.284 1.05019 2.07542 0
M  V30 1169 C 114.278 -0.0178751 1.69391 0
M  V30 1170 O 115.484 0.137472 1.79474 0
M  V30 1171 H 111.859 0.32265 0.679265 0
M  V30 1172 H 113.83 1.99759 2.21673 0
M  V30 1173 C 112.579 0.682074 3.40944 0
M  V30 1174 H 111.902 1.49573 3.70767 0
M  V30 1175 H 113.342 0.580945 4.20001 0
M  V30 1176 C 111.801 -0.611608 3.31302 0
M  V30 1177 O 112.331 -1.65465 3.66038 0
M  V30 1178 N 110.537 -0.595982 2.84423 0
M  V30 1179 H 110.084 0.253192 2.56353 0
M  V30 1180 H 110.042 -1.46173 2.78354 0
M  V30 1181 N 113.814 -1.1601 1.06675 0
M  V30 1182 C 114.747 -2.1947 0.625168 0
M  V30 1183 C 115.725 -1.58699 -0.354041 0
M  V30 1184 O 116.909 -1.86669 -0.262098 0
M  V30 1185 C 114.036 -3.38598 -0.0829593 0
M  V30 1186 C 113.082 -4.1787 0.853611 0
M  V30 1187 S 113.915 -4.81135 2.35094 0
M  V30 1188 C 115.071 -6.03639 1.65441 0
M  V30 1189 H 115.304 -2.56587 1.50168 0
M  V30 1190 H 112.837 -1.26862 0.880078 0
M  V30 1191 H 114.795 -4.07621 -0.485288 0
M  V30 1192 H 113.456 -2.99839 -0.935716 0
M  V30 1193 H 112.649 -5.03078 0.304755 0
M  V30 1194 H 112.251 -3.54361 1.196 0
M  V30 1195 H 114.543 -6.70632 0.962201 0
M  V30 1196 H 115.486 -6.63081 2.48454 0
M  V30 1197 H 115.894 -5.52965 1.13534 0
M  V30 1198 N 115.292 -0.849877 -1.32721 0
M  V30 1199 C 116.522 -0.46408 -2.0132 0
M  V30 1200 C 116.93 0.94246 -1.64056 0
M  V30 1201 O 116.273 1.6257 -0.855379 0
M  V30 1202 C 116.335 -0.517887 -3.5575 0
M  V30 1203 C 115.999 -1.88248 -4.16427 0
M  V30 1204 C 116.996 -2.84726 -4.35002 0
M  V30 1205 C 114.681 -2.17832 -4.52609 0
M  V30 1206 C 116.675 -4.08945 -4.8892 0
M  V30 1207 C 114.362 -3.42304 -5.06232 0
M  V30 1208 C 115.36 -4.37677 -5.24335 0
M  V30 1209 O 115.048 -5.59946 -5.76815 0
M  V30 1210 H 114.78 -0.181327 -0.651227 0
M  V30 1211 H 117.334 -1.14713 -1.70382 0
M  V30 1212 H 115.564 0.221997 -3.86062 0
M  V30 1213 H 117.253 -0.148366 -4.05629 0
M  V30 1214 H 118.019 -2.63174 -4.07388 0
M  V30 1215 H 113.898 -1.44385 -4.37806 0
M  V30 1216 H 117.442 -4.83396 -5.02966 0
M  V30 1217 H 113.339 -3.63709 -5.33278 0
M  V30 1218 H 114.107 -5.61838 -5.95214 0
M  V30 1219 N 116.77 1.45427 -0.607355 0
M  V30 1220 C 118.016 2.0254 -0.102607 0
M  V30 1221 C 118.349 1.47478 1.26348 0
M  V30 1222 O 117.624 0.64939 1.83339 0
M  V30 1223 C 117.907 3.60044 -0.0634347 0
M  V30 1224 C 117.76 4.2544 -1.46017 0
M  V30 1225 C 119.079 4.35646 0.624514 0
M  V30 1226 H 116.198 0.73598 -0.0387607 0
M  V30 1227 H 118.84 1.73284 -0.779282 0
M  V30 1228 H 116.99 3.85101 0.512808 0
M  V30 1229 H 118.662 4.11569 -2.08347 0
M  V30 1230 H 116.905 3.83849 -2.02094 0
M  V30 1231 H 117.576 5.34342 -1.385 0
M  V30 1232 H 120.052 4.15882 0.134723 0
M  V30 1233 H 118.928 5.45376 0.621028 0
M  V30 1234 H 119.189 4.08501 1.69055 0
M  V30 1235 N 118.248 0.346503 1.53744 0
M  V30 1236 C 119.478 -0.250047 2.05081 0
M  V30 1237 C 119.886 -1.44529 1.22098 0
M  V30 1238 O 119.229 -1.81992 0.249917 0
M  V30 1239 C 119.291 -0.725934 3.52094 0
M  V30 1240 C 118.955 0.350053 4.55657 0
M  V30 1241 C 119.952 1.19372 5.0601 0
M  V30 1242 C 117.637 0.504827 4.99757 0
M  V30 1243 C 119.631 2.17768 5.99046 0
M  V30 1244 C 117.318 1.49218 5.92602 0
M  V30 1245 C 118.316 2.32706 6.42135 0
M  V30 1246 O 118.004 3.2976 7.33153 0
M  V30 1247 H 117.736 -0.0515469 0.674032 0
M  V30 1248 H 120.29 0.497559 1.99282 0
M  V30 1249 H 118.52 -1.52483 3.55367 0
M  V30 1250 H 120.209 -1.24336 3.86388 0
M  V30 1251 H 120.975 1.08525 4.72702 0
M  V30 1252 H 116.854 -0.135178 4.60802 0
M  V30 1253 H 120.398 2.82971 6.37631 0
M  V30 1254 H 116.295 1.6012 6.25325 0
M  V30 1255 H 117.063 3.25265 7.51096 0
M  V30 1256 N 119.726 -1.57421 0.075193 0
M  V30 1257 C 120.674 -2.14124 -0.908508 0
M  V30 1258 C 121.668 -1.07898 -1.30592 0
M  V30 1259 O 122.874 -1.26273 -1.28277 0
M  V30 1260 H 119.249 -0.684707 -0.310935 0
M  V30 1261 H 121.22 -2.95634 -0.405374 0
M  V30 1262 C 119.969 -2.72044 -2.16535 0
M  V30 1263 H 119.292 -3.53456 -1.86839 0
M  V30 1264 H 120.732 -3.15311 -2.83469 0
M  V30 1265 C 119.191 -1.66968 -2.92615 0
M  V30 1266 O 119.721 -1.0967 -3.86439 0
M  V30 1267 N 117.927 -1.37923 -2.55784 0
M  V30 1268 H 117.474 -1.84706 -1.79559 0
M  V30 1269 H 117.432 -0.67852 -3.06991 0
M  V30 1270 N 121.204 0.198386 -1.56346 0
M  V30 1271 C 122.453 0.917451 -1.79627 0
M  V30 1272 C 122.766 1.8456 -0.64784 0
M  V30 1273 O 123.972 2.60504 -0.764859 0
M  V30 1274 C 122.428 1.68175 -3.18191 0
M  V30 1275 C 122.036 0.798589 -4.40825 0
M  V30 1276 C 123.78 2.39065 -3.50782 0
M  V30 1277 C 121.687 1.56157 -5.70411 0
M  V30 1278 H 120.617 0.346317 -0.669762 0
M  V30 1279 H 123.268 0.170801 -1.82703 0
M  V30 1280 H 121.65 2.47216 -3.09354 0
M  V30 1281 H 122.824 0.0470665 -4.60776 0
M  V30 1282 H 121.139 0.200686 -4.15916 0
M  V30 1283 H 123.736 2.96692 -4.44835 0
M  V30 1284 H 124.079 3.13091 -2.74371 0
M  V30 1285 H 124.612 1.66993 -3.61052 0
M  V30 1286 H 121.351 0.864142 -6.49779 0
M  V30 1287 H 120.871 2.2871 -5.54483 0
M  V30 1288 H 122.55 2.11622 -6.11412 0
M  V30 1289 N 122.682 1.50554 0.465978 0
M  V30 1290 C 123.907 1.65838 1.24549 0
M  V30 1291 C 124.332 0.343486 1.84937 0
M  V30 1292 O 123.69 -0.69324 1.67523 0
M  V30 1293 C 123.738 2.75533 2.32624 0
M  V30 1294 O 122.842 2.37142 3.37398 0
M  V30 1295 H 122.183 0.553893 0.366194 0
M  V30 1296 H 124.713 1.96959 0.553927 0
M  V30 1297 H 124.723 2.98763 2.77857 0
M  V30 1298 H 123.398 3.70962 1.88043 0
M  V30 1299 H 121.975 2.24377 2.97841 0
M  V30 1300 N 124.16 -0.719506 1.40217 0
M  V30 1301 C 125.388 -1.50864 1.41589 0
M  V30 1302 C 125.803 -1.88794 0.0145275 0
M  V30 1303 O 125.16 -1.55174 -0.960594 0
M  V30 1304 C 125.211 -2.78646 2.30302 0
M  V30 1305 O 124.932 -2.42321 3.64983 0
M  V30 1306 C 126.433 -3.72569 2.40224 0
M  V30 1307 H 123.653 -0.465709 0.48307 0
M  V30 1308 H 126.197 -0.88785 1.84221 0
M  V30 1309 H 124.352 -3.37019 1.91042 0
M  V30 1310 H 124.766 -3.24514 4.12057 0
M  V30 1311 H 126.24 -4.5908 3.06512 0
M  V30 1312 H 126.717 -4.15403 1.42608 0
M  V30 1313 H 127.323 -3.20109 2.80019 0
M  V30 1314 N 125.638 -1.25649 -0.95132 0
M  V30 1315 C 126.886 -1.10375 -1.69298 0
M  V30 1316 C 127.207 0.355339 -1.91735 0
M  V30 1317 O 126.477 1.25188 -1.50681 0
M  V30 1318 H 125.057 -0.405461 -0.627384 0
M  V30 1319 H 127.719 -1.57823 -1.14358 0
M  V30 1320 H 126.815 -1.61465 -2.67087 0
M  V30 1321 N 127.117 1.15442 -1.07289 0
M  V30 1322 C 128.365 1.85845 -0.794096 0
M  V30 1323 C 128.686 1.82692 0.681809 0
M  V30 1324 O 127.956 1.26741 1.49377 0
M  V30 1325 H 126.536 0.688089 -0.290763 0
M  V30 1326 H 129.198 1.39947 -1.3565 0
M  V30 1327 H 128.294 2.91001 -1.12804 0
M  V30 1328 N 128.595 0.856903 1.32268 0
M  V30 1329 C 129.842 0.461386 1.97174 0
M  V30 1330 C 130.17 -0.983491 1.67803 0
M  V30 1331 O 129.425 -1.70541 0.959903 0
M  V30 1332 C 129.724 0.649919 3.51441 0
M  V30 1333 C 129.39 2.0656 4.00804 0
M  V30 1334 C 128.052 2.45279 4.13995 0
M  V30 1335 C 130.404 2.98947 4.26943 0
M  V30 1336 C 127.732 3.75653 4.50668 0
M  V30 1337 C 130.084 4.28822 4.65075 0
M  V30 1338 C 128.748 4.67472 4.76472 0
M  V30 1339 H 128.018 0.168833 0.72151 0
M  V30 1340 H 130.665 1.08739 1.57633 0
M  V30 1341 H 128.97 -0.0593018 3.91755 0
M  V30 1342 H 130.667 0.32391 3.9969 0
M  V30 1343 H 127.257 1.75495 3.91024 0
M  V30 1344 H 131.441 2.70265 4.16258 0
M  V30 1345 H 126.697 4.05379 4.57688 0
M  V30 1346 H 130.871 5.0047 4.84255 0
M  V30 1347 H 128.498 5.68539 5.04646 0
M  V30 1348 N 130.073 -1.45103 0.615059 0
M  V30 1349 C 131.319 -2.02483 0.113347 0
M  V30 1350 C 131.652 -1.48146 -1.25564 0
M  V30 1351 O 130.927 -0.659104 -1.82992 0
M  V30 1352 C 131.21 -3.60005 0.0825278 0
M  V30 1353 C 131.063 -4.2466 1.48271 0
M  V30 1354 C 132.382 -4.35972 -0.601401 0
M  V30 1355 H 129.501 -0.735764 0.0426632 0
M  V30 1356 H 132.143 -1.72868 0.788461 0
M  V30 1357 H 130.293 -3.85367 -0.492378 0
M  V30 1358 H 131.965 -4.10458 2.10527 0
M  V30 1359 H 130.208 -3.82772 2.04127 0
M  V30 1360 H 130.879 -5.336 1.41332 0
M  V30 1361 H 133.355 -4.15947 -0.112666 0
M  V30 1362 H 132.231 -5.45697 -0.592097 0
M  V30 1363 H 132.492 -4.09391 -1.66887 0
M  V30 1364 N 131.551 -0.354651 -1.53558 0
M  V30 1365 C 132.8 0.239504 -2.00273 0
M  V30 1366 C 133.113 1.50759 -1.24623 0
M  V30 1367 O 134.319 2.17968 -1.61871 0
M  V30 1368 C 132.775 0.477341 -3.5672 0
M  V30 1369 C 132.383 -0.775488 -4.41237 0
M  V30 1370 C 134.127 1.02975 -4.11821 0
M  V30 1371 C 132.034 -0.507838 -5.89216 0
M  V30 1372 H 130.964 0.0932743 -0.748208 0
M  V30 1373 H 133.615 -0.471701 -1.77334 0
M  V30 1374 H 131.997 1.24953 -3.7577 0
M  V30 1375 H 133.171 -1.54963 -4.33962 0
M  V30 1376 H 131.486 -1.25033 -3.97185 0
M  V30 1377 H 134.083 1.24513 -5.2 0
M  V30 1378 H 134.426 1.98862 -3.65731 0
M  V30 1379 H 134.959 0.317994 -3.96527 0
M  V30 1380 H 131.698 -1.43674 -6.39561 0
M  V30 1381 H 131.218 0.228011 -5.99366 0
M  V30 1382 H 132.897 -0.129238 -6.46871 0
M  V30 1383 N 133.029 1.57378 -0.0835403 0
M  V30 1384 C 134.275 1.94217 0.583733 0
M  V30 1385 C 134.608 0.964653 1.68547 0
M  V30 1386 O 133.883 -0.00422258 1.945 0
M  V30 1387 C 134.166 3.41253 1.14972 0
M  V30 1388 C 134.019 4.49768 0.0538277 0
M  V30 1389 C 135.338 3.89352 2.05166 0
M  V30 1390 H 132.457 0.706233 0.210724 0
M  V30 1391 H 135.099 1.89392 -0.1519 0
M  V30 1392 H 133.249 3.45496 1.77665 0
M  V30 1393 H 134.921 4.57641 -0.579851 0
M  V30 1394 H 133.164 4.29432 -0.614068 0
M  V30 1395 H 133.835 5.49817 0.490452 0
M  V30 1396 H 136.311 3.87189 1.52393 0
M  V30 1397 H 135.187 4.92822 2.41698 0
M  V30 1398 H 135.448 3.27973 2.96456 0
M  V30 1399 N 134.507 -0.190092 1.56449 0
M  V30 1400 C 135.732 -0.929864 1.85387 0
M  V30 1401 C 136.157 -1.7585 0.667704 0
M  V30 1402 O 135.515 -1.77198 -0.383459 0
M  V30 1403 C 135.563 -1.79773 3.12593 0
M  V30 1404 O 134.667 -2.89713 2.93496 0
M  V30 1405 H 134.008 -0.261574 0.610307 0
M  V30 1406 H 136.538 -0.193896 2.03679 0
M  V30 1407 H 136.548 -2.20139 3.43515 0
M  V30 1408 H 135.223 -1.18892 3.98544 0
M  V30 1409 H 133.8 -2.53065 2.73884 0
M  V30 1410 N 135.985 -1.50799 -0.457987 0
M  V30 1411 C 137.233 -1.62121 -1.2067 0
M  V30 1412 C 137.554 -0.329793 -1.92191 0
M  V30 1413 O 136.824 0.653409 -1.84682 0
M  V30 1414 H 135.404 -0.597441 -0.448411 0
M  V30 1415 H 138.066 -1.87637 -0.527096 0
M  V30 1416 H 137.162 -2.43882 -1.94751 0
M  V30 1417 N 137.463 0.71206 -1.40597 0
M  V30 1418 C 138.74 1.46536 -1.29563 0
M  V30 1419 C 139.12 2.10931 0.0844217 0
M  V30 1420 O 138.468 2.00418 1.0975 0
M  V30 1421 C 138.678 2.49821 -2.43701 0
M  V30 1422 C 140.026 3.15551 -2.841 0
M  V30 1423 O 141.05 2.60142 -2.4332 0
M  V30 1424 O 139.909 4.15867 -3.54566 0
M  V30 1425 H 137.003 0.651801 -0.509004 0
M  V30 1426 H 139.549 0.743935 -1.52524 0
M  V30 1427 H 138.321 2.00778 -3.35863 0
M  V30 1428 H 137.944 3.29495 -2.22528 0
M  V30 1429 N 138.941 1.26152 0.944643 0
M  V30 1430 C 139.888 1.07408 2.04285 0
M  V30 1431 C 140.858 -0.0198413 1.66088 0
M  V30 1432 O 142.043 0.139264 1.90291 0
M  V30 1433 C 139.183 0.70945 3.37729 0
M  V30 1434 C 138.296 1.87926 3.88983 0
M  V30 1435 C 137.431 1.45807 5.10797 0
M  V30 1436 C 136.47 2.5964 5.54305 0
M  V30 1437 N 135.607 2.18226 6.67324 0
M  V30 1438 H 140.447 2.01389 2.1965 0
M  V30 1439 H 137.984 1.00275 1.07626 0
M  V30 1440 H 139.942 0.478948 4.14442 0
M  V30 1441 H 138.572 -0.193389 3.2222 0
M  V30 1442 H 137.624 2.22279 3.08701 0
M  V30 1443 H 138.936 2.73377 4.17213 0
M  V30 1444 H 138.09 1.18781 5.94959 0
M  V30 1445 H 136.829 0.574414 4.84305 0
M  V30 1446 H 135.834 2.87399 4.68702 0
M  V30 1447 H 137.059 3.48599 5.828 0
M  V30 1448 H 135.005 1.3229 6.42523 0
M  V30 1449 H 134.922 2.97221 6.95123 0
M  V30 1450 H 136.19 1.94403 7.54869 0
M  V30 1451 N 140.419 -1.14872 1.07899 0
M  V30 1452 C 141.835 -1.37776 0.805606 0
M  V30 1453 C 142.035 -1.92743 -0.587555 0
M  V30 1454 O 141.091 -2.13678 -1.34528 0
M  V30 1455 C 142.404 -2.34361 1.88402 0
M  V30 1456 C 143.952 -2.48012 1.90942 0
M  V30 1457 C 144.427 -3.47893 2.97883 0
M  V30 1458 N 145.918 -3.55433 2.97021 0
M  V30 1459 C 146.653 -4.32553 3.76412 0
M  V30 1460 N 146.149 -5.12959 4.65666 0
M  V30 1461 N 147.942 -4.27697 3.64735 0
M  V30 1462 H 140.093 -0.775365 1.97742 0
M  V30 1463 H 142.356 -0.403521 0.857831 0
M  V30 1464 H 142.062 -2.01098 2.88535 0
M  V30 1465 H 141.936 -3.34206 1.74889 0
M  V30 1466 H 144.323 -2.8057 0.914579 0
M  V30 1467 H 144.404 -1.48147 2.08534 0
M  V30 1468 H 144.048 -3.16069 3.97571 0
M  V30 1469 H 143.978 -4.47527 2.77538 0
M  V30 1470 H 146.469 -2.98048 2.32326 0
M  V30 1471 H 146.782 -5.69065 5.22862 0
M  V30 1472 H 145.127 -5.12245 4.69712 0
M  V30 1473 H 148.318 -3.63949 2.94378 0
M  V30 1474 H 148.491 -4.8755 4.26848 0
M  V30 1475 N 141.898 -0.863906 -1.31812 0
M  V30 1476 C 143.123 -0.48527 -2.01643 0
M  V30 1477 C 143.548 0.913058 -1.64453 0
M  V30 1478 O 142.906 1.6014 -0.849985 0
M  V30 1479 C 142.954 -0.642625 -3.54828 0
M  V30 1480 O 142.058 0.320659 -4.11151 0
M  V30 1481 H 141.399 -0.193793 -0.635091 0
M  V30 1482 H 143.929 -1.16565 -1.68148 0
M  V30 1483 H 143.939 -0.533628 -4.04495 0
M  V30 1484 H 142.614 -1.66227 -3.81237 0
M  V30 1485 H 141.191 0.167126 -3.72525 0
M  V30 1486 N 143.376 1.44774 -0.622745 0
M  V30 1487 C 144.787 1.85546 -0.207226 0
M  V30 1488 C 145.138 1.52093 1.23944 0
M  V30 1489 O 144.263 0.95492 1.94191 0
M  V30 1490 C 144.858 3.36781 -0.369313 0
M  V30 1491 C 143.417 3.76399 -0.00836847 0
M  V30 1492 C 142.564 2.68664 -0.686651 0
M  V30 1493 H 145.515 1.3536 -0.828454 0
M  V30 1494 H 145.536 3.78453 0.394162 0
M  V30 1495 H 145.048 3.61098 -1.42231 0
M  V30 1496 H 143.149 3.57698 1.04322 0
M  V30 1497 H 143.262 4.7732 -0.412584 0
M  V30 1498 H 141.626 2.54404 -0.122777 0
M  V30 1499 H 142.409 2.95815 -1.74208 0
M  V30 1500 N 144.854 0.36279 1.53368 0
M  V30 1501 C 145.764 -0.492994 2.29362 0
M  V30 1502 C 146.78 -1.09507 1.35219 0
M  V30 1503 O 147.956 -1.10662 1.68273 0
M  V30 1504 C 145.021 -1.61855 3.066 0
M  V30 1505 C 144.082 -1.04429 4.16405 0
M  V30 1506 C 143.315 -2.11621 4.89951 0
M  V30 1507 O 143.538 -3.32684 4.63333 0
M  V30 1508 O 142.472 -1.74835 5.75948 0
M  V30 1509 H 146.298 0.125331 3.03441 0
M  V30 1510 H 143.883 0.127253 1.48857 0
M  V30 1511 H 145.765 -2.27302 3.54841 0
M  V30 1512 H 144.44 -2.22233 2.3536 0
M  V30 1513 H 143.347 -0.353819 3.72423 0
M  V30 1514 H 144.68 -0.485113 4.89804 0
M  V30 1515 N 146.332 -1.57332 0.0918853 0
M  V30 1516 C 147.581 -1.93412 -0.572249 0
M  V30 1517 C 147.894 -0.975515 -1.69538 0
M  V30 1518 O 149.1 -1.22991 -2.42045 0
M  V30 1519 C 147.556 -3.43648 -1.0693 0
M  V30 1520 C 147.164 -4.47994 0.0239049 0
M  V30 1521 C 148.908 -3.88695 -1.70635 0
M  V30 1522 C 146.815 -5.89381 -0.488319 0
M  V30 1523 H 145.745 -0.721939 -0.217532 0
M  V30 1524 H 148.396 -1.82735 0.167369 0
M  V30 1525 H 146.778 -3.49466 -1.8625 0
M  V30 1526 H 147.952 -4.53815 0.799277 0
M  V30 1527 H 146.267 -4.12536 0.565946 0
M  V30 1528 H 148.864 -4.91725 -2.10025 0
M  V30 1529 H 149.207 -3.27166 -2.57426 0
M  V30 1530 H 149.74 -3.85564 -0.979023 0
M  V30 1531 H 146.479 -6.54602 0.342906 0
M  V30 1532 H 145.999 -5.87037 -1.23077 0
M  V30 1533 H 147.678 -6.39863 -0.958317 0
M  V30 1534 N 147.81 0.181792 -1.56548 0
M  V30 1535 C 148.74 1.22765 -1.98623 0
M  V30 1536 C 149.721 1.46747 -0.860189 0
M  V30 1537 O 150.906 1.58259 -1.12551 0
M  V30 1538 C 148.036 2.56894 -2.33715 0
M  V30 1539 C 146.99 2.475 -3.49182 0
M  V30 1540 C 146.316 3.86023 -3.69986 0
M  V30 1541 C 147.616 1.98866 -4.82959 0
M  V30 1542 H 149.31 0.877942 -2.86239 0
M  V30 1543 H 146.856 0.42088 -1.37712 0
M  V30 1544 H 148.809 3.30253 -2.61746 0
M  V30 1545 H 147.533 2.93632 -1.42997 0
M  V30 1546 H 146.192 1.76596 -3.21262 0
M  V30 1547 H 145.84 4.20136 -2.76576 0
M  V30 1548 H 145.54 3.80609 -4.47672 0
M  V30 1549 H 147.064 4.60984 -4.00407 0
M  V30 1550 H 148.478 2.61992 -5.09934 0
M  V30 1551 H 146.875 2.04424 -5.64208 0
M  V30 1552 H 147.945 0.942465 -4.75653 0
M  V30 1553 N 149.288 1.51039 0.449983 0
M  V30 1554 C 150.536 1.62759 1.19808 0
M  V30 1555 C 150.857 0.339981 1.92013 0
M  V30 1556 O 150.127 -0.643606 1.85026 0
M  V30 1557 H 148.707 0.599811 0.445237 0
M  V30 1558 H 151.369 1.87914 0.517138 0
M  V30 1559 H 150.465 2.44911 1.93455 0
M  V30 1560 N 150.766 -0.704594 1.40972 0
M  V30 1561 C 151.996 -1.49138 1.42974 0
M  V30 1562 C 152.404 -1.89175 0.0308406 0
M  V30 1563 O 151.747 -1.56734 -0.958138 0
M  V30 1564 C 151.809 -2.79016 2.26694 0
M  V30 1565 C 151.473 -2.61236 3.74973 0
M  V30 1566 C 152.47 -2.27773 4.67349 0
M  V30 1567 C 150.155 -2.77158 4.18914 0
M  V30 1568 C 152.149 -2.10457 6.01653 0
M  V30 1569 C 149.836 -2.59459 5.53285 0
M  V30 1570 C 150.834 -2.26158 6.4447 0
M  V30 1571 O 150.522 -2.08605 7.76363 0
M  V30 1572 H 150.254 -0.466443 0.489292 0
M  V30 1573 H 152.808 -0.8758 1.85793 0
M  V30 1574 H 151.038 -3.42947 1.78673 0
M  V30 1575 H 152.727 -3.40782 2.20504 0
M  V30 1576 H 153.493 -2.15095 4.34694 0
M  V30 1577 H 149.372 -3.02064 3.48251 0
M  V30 1578 H 152.916 -1.84387 6.72791 0
M  V30 1579 H 148.813 -2.71725 5.85522 0
M  V30 1580 H 149.581 -2.23439 7.87412 0
M  V30 1581 N 152.244 -1.26651 -0.937939 0
M  V30 1582 C 153.469 -1.15279 -1.72411 0
M  V30 1583 C 153.894 0.287866 -1.85884 0
M  V30 1584 O 153.252 1.20855 -1.35143 0
M  V30 1585 C 153.3 -1.83028 -3.10698 0
M  V30 1586 O 152.404 -1.12128 -3.96864 0
M  V30 1587 H 151.745 -0.401504 -0.528858 0
M  V30 1588 H 154.275 -1.67531 -1.1745 0
M  V30 1589 H 154.285 -1.89981 -3.6107 0
M  V30 1590 H 152.96 -2.87833 -3.00208 0
M  V30 1591 H 151.537 -1.13173 -3.55312 0
M  V30 1592 N 153.722 1.14298 -1.08507 0
M  V30 1593 C 154.95 1.89219 -0.836876 0
M  V30 1594 C 155.365 1.78638 0.611054 0
M  V30 1595 O 154.722 1.14643 1.41998 0
M  V30 1596 C 154.773 3.39158 -1.25116 0
M  V30 1597 O 154.494 3.49449 -2.64229 0
M  V30 1598 C 155.995 4.31073 -1.03398 0
M  V30 1599 H 153.215 0.599328 -0.301739 0
M  V30 1600 H 155.759 1.44746 -1.44461 0
M  V30 1601 H 153.914 3.81251 -0.687514 0
M  V30 1602 H 154.328 4.42589 -2.81452 0
M  V30 1603 H 155.802 5.34646 -1.37323 0
M  V30 1604 H 156.279 4.3919 0.0289259 0
M  V30 1605 H 156.885 3.94738 -1.58311 0
M  V30 1606 N 155.201 0.870884 1.31352 0
M  V30 1607 C 156.426 0.495957 2.01383 0
M  V30 1608 C 156.851 -0.904324 1.64935 0
M  V30 1609 O 156.209 -1.59687 0.858466 0
M  V30 1610 C 156.257 0.661433 3.54482 0
M  V30 1611 O 155.361 -0.298851 4.11316 0
M  V30 1612 H 154.702 0.197158 0.634054 0
M  V30 1613 H 157.232 1.17455 1.67527 0
M  V30 1614 H 157.242 0.555072 4.04207 0
M  V30 1615 H 155.917 1.68246 3.8035 0
M  V30 1616 H 154.494 -0.147368 3.72609 0
M  V30 1617 N 156.679 -1.44442 0.630414 0
M  V30 1618 C 157.927 -2.01653 0.134351 0
M  V30 1619 C 158.248 -1.49836 -1.24796 0
M  V30 1620 O 157.518 -0.701684 -1.82902 0
M  V30 1621 H 156.098 -0.74554 0.0466769 0
M  V30 1622 H 158.76 -1.76952 0.816955 0
M  V30 1623 H 157.856 -3.11935 0.101498 0
M  V30 1624 N 158.157 -0.370918 -1.53173 0
M  V30 1625 C 159.382 0.220293 -2.06227 0
M  V30 1626 C 159.807 1.41243 -1.24225 0
M  V30 1627 O 159.165 1.79387 -0.262645 0
M  V30 1628 C 159.213 0.586663 -3.55796 0
M  V30 1629 O 158.317 1.68317 -3.76488 0
M  V30 1630 H 157.658 0.0308099 -0.663285 0
M  V30 1631 H 160.188 -0.533068 -1.97534 0
M  V30 1632 H 160.198 0.85617 -3.98916 0
M  V30 1633 H 158.873 -0.285013 -4.14922 0
M  V30 1634 H 157.45 1.40881 -3.45264 0
M  V30 1635 N 159.635 1.57281 -0.100228 0
M  V30 1636 C 160.882 1.94537 0.562268 0
M  V30 1637 C 161.21 0.982315 1.67871 0
M  V30 1638 O 160.465 0.00280936 1.957 0
M  V30 1639 C 160.764 3.38305 1.15259 0
M  V30 1640 C 160.43 4.50618 0.159409 0
M  V30 1641 C 159.092 4.81066 -0.113741 0
M  V30 1642 C 161.444 5.18615 -0.518461 0
M  V30 1643 C 158.772 5.76835 -1.07137 0
M  V30 1644 C 161.124 6.15412 -1.46459 0
M  V30 1645 C 159.788 6.44262 -1.74592 0
M  V30 1646 H 159.058 0.711863 0.205748 0
M  V30 1647 H 161.705 1.90679 -0.17715 0
M  V30 1648 H 160.01 3.38766 1.96836 0
M  V30 1649 H 161.707 3.64435 1.67297 0
M  V30 1650 H 158.297 4.2689 0.382491 0
M  V30 1651 H 162.481 4.95264 -0.320581 0
M  V30 1652 H 157.737 5.975 -1.29628 0
M  V30 1653 H 161.911 6.67194 -1.99564 0
M  V30 1654 H 159.538 7.1828 -2.48953 0
M  V30 1655 N 161.113 -0.173488 1.56642 0
M  V30 1656 C 162.39 -0.917617 1.7274 0
M  V30 1657 C 162.77 -2.00484 0.661027 0
M  V30 1658 O 162.118 -2.26184 -0.32453 0
M  V30 1659 C 162.328 -1.48433 3.15862 0
M  V30 1660 C 163.676 -1.95809 3.76754 0
M  V30 1661 O 164.7 -1.58231 3.19126 0
M  V30 1662 O 163.559 -2.65024 4.77938 0
M  V30 1663 H 160.653 -0.431772 0.705338 0
M  V30 1664 H 163.199 -0.161487 1.6893 0
M  V30 1665 H 161.971 -0.701715 3.84957 0
M  V30 1666 H 161.594 -2.30471 3.23989 0
M  V30 1667 N 162.591 -1.51276 -0.441967 0
M  V30 1668 C 163.554 -1.7167 -1.51862 0
M  V30 1669 C 164.554 -0.586793 -1.49711 0
M  V30 1670 O 165.744 -0.854276 -1.51815 0
M  V30 1671 C 162.876 -1.76889 -2.91416 0
M  V30 1672 H 164.069 -2.67754 -1.35084 0
M  V30 1673 H 161.622 -1.41196 -0.670333 0
M  V30 1674 H 162.357 -0.826026 -3.13604 0
M  V30 1675 H 162.142 -2.59001 -2.94382 0
M  V30 1676 H 163.632 -1.94522 -3.69528 0
M  V30 1677 N 164.069 0.697108 -1.41344 0
M  V30 1678 C 165.017 1.83237 -1.43272 0
M  V30 1679 C 166.011 1.66522 -0.310947 0
M  V30 1680 O 167.217 1.73402 -0.482899 0
M  V30 1681 H 163.592 0.603802 -0.448249 0
M  V30 1682 H 165.563 1.78727 -2.38954 0
M  V30 1683 C 164.312 3.21245 -1.33029 0
M  V30 1684 H 163.635 3.34723 -2.18633 0
M  V30 1685 H 165.075 4.00763 -1.38439 0
M  V30 1686 C 163.534 3.36873 -0.0424635 0
M  V30 1687 O 164.064 3.91177 0.913421 0
M  V30 1688 N 162.27 2.90581 0.0331145 0
M  V30 1689 H 161.817 2.46577 -0.745506 0
M  V30 1690 H 161.775 3.01416 0.894199 0
M  V30 1691 N 165.547 1.27147 0.931209 0
M  V30 1692 C 166.795 1.13055 1.6752 0
M  V30 1693 C 167.116 -0.324791 1.92276 0
M  V30 1694 O 166.386 -1.22775 1.52654 0
M  V30 1695 H 164.966 0.415391 0.620854 0
M  V30 1696 H 167.628 1.59623 1.11833 0
M  V30 1697 H 166.724 1.65694 2.64485 0
M  V30 1698 N 167.025 -1.13721 1.09112 0
M  V30 1699 C 167.972 -2.19031 0.727591 0
M  V30 1700 C 168.942 -1.63555 -0.289656 0
M  V30 1701 O 170.127 -1.90023 -0.172026 0
M  V30 1702 C 167.267 -3.4477 0.15082 0
M  V30 1703 C 166.38 -4.14365 1.22172 0
M  V30 1704 C 165.515 -5.27709 0.608042 0
M  V30 1705 C 164.554 -5.89147 1.66047 0
M  V30 1706 N 163.691 -6.93929 1.06806 0
M  V30 1707 H 168.531 -2.49475 1.62991 0
M  V30 1708 H 166.068 -1.22499 0.81439 0
M  V30 1709 H 168.026 -4.16714 -0.201358 0
M  V30 1710 H 166.656 -3.14787 -0.714783 0
M  V30 1711 H 165.708 -3.40737 1.69122 0
M  V30 1712 H 167.02 -4.56114 2.01895 0
M  V30 1713 H 166.174 -6.06355 0.204523 0
M  V30 1714 H 164.913 -4.872 -0.220769 0
M  V30 1715 H 163.918 -5.09198 2.07357 0
M  V30 1716 H 165.143 -6.31729 2.49189 0
M  V30 1717 H 163.089 -6.55483 0.260476 0
M  V30 1718 H 163.006 -7.34202 1.8023 0
M  V30 1719 H 164.274 -7.76434 0.690644 0
M  V30 1720 N 168.503 -0.877838 -1.30888 0
M  V30 1721 C 169.413 -0.343096 -2.32078 0
M  V30 1722 C 170.429 0.551022 -1.65045 0
M  V30 1723 O 171.605 0.445854 -1.96403 0
M  V30 1724 C 168.67 0.439905 -3.43898 0
M  V30 1725 C 167.731 -0.483111 -4.26573 0
M  V30 1726 C 166.964 0.262616 -5.33053 0
M  V30 1727 O 167.187 1.48967 -5.50604 0
M  V30 1728 O 166.121 -0.383593 -6.00676 0
M  V30 1729 H 169.947 -1.18203 -2.79753 0
M  V30 1730 H 167.532 -0.64145 -1.34929 0
M  V30 1731 H 169.414 0.883504 -4.12034 0
M  V30 1732 H 168.089 1.25526 -2.98371 0
M  V30 1733 H 166.996 -0.975374 -3.61161 0
M  V30 1734 H 168.329 -1.26427 -4.75686 0
M  V30 1735 N 169.982 1.44106 -0.638065 0
M  V30 1736 C 170.93 2.3248 0.0748149 0
M  V30 1737 C 171.924 1.47746 0.828702 0
M  V30 1738 O 173.13 1.64049 0.740816 0
M  V30 1739 H 169.505 0.750771 0.0429686 0
M  V30 1740 H 171.476 2.90348 -0.688504 0
M  V30 1741 C 170.225 3.31843 1.03805 0
M  V30 1742 H 169.548 3.97059 0.467375 0
M  V30 1743 H 170.988 3.96345 1.50622 0
M  V30 1744 C 169.447 2.61291 2.1267 0
M  V30 1745 O 169.977 2.41702 3.20847 0
M  V30 1746 N 168.183 2.20915 1.88798 0
M  V30 1747 H 167.73 2.37047 1.00829 0
M  V30 1748 H 167.688 1.74038 2.61836 0
M  V30 1749 N 171.46 0.379036 1.52974 0
M  V30 1750 C 172.709 -0.207612 2.00629 0
M  V30 1751 C 173.022 -1.48758 1.27006 0
M  V30 1752 O 174.228 -2.15365 1.65318 0
M  V30 1753 C 172.684 -0.42053 3.57435 0
M  V30 1754 C 172.292 0.845587 4.39948 0
M  V30 1755 C 174.036 -0.964102 4.13407 0
M  V30 1756 C 171.943 0.601513 5.88333 0
M  V30 1757 H 170.873 -0.0813591 0.749598 0
M  V30 1758 H 173.524 0.499853 1.76561 0
M  V30 1759 H 171.906 -1.18959 3.7771 0
M  V30 1760 H 173.08 1.61848 4.31442 0
M  V30 1761 H 171.395 1.31336 3.95145 0
M  V30 1762 H 173.992 -1.16225 5.21916 0
M  V30 1763 H 174.335 -1.93019 3.68849 0
M  V30 1764 H 174.868 -0.25487 3.96983 0
M  V30 1765 H 171.607 1.53831 6.37194 0
M  V30 1766 H 171.127 -0.132628 5.99653 0
M  V30 1767 H 172.806 0.232134 6.46583 0
M  V30 1768 N 172.938 -1.57226 0.108567 0
M  V30 1769 C 173.901 -2.13602 -0.831082 0
M  V30 1770 C 174.901 -1.06841 -1.20173 0
M  V30 1771 O 176.091 -1.32666 -1.12895 0
M  V30 1772 C 173.223 -2.66769 -2.12243 0
M  V30 1773 H 174.416 -2.97951 -0.341317 0
M  V30 1774 H 171.969 -1.55667 -0.14057 0
M  V30 1775 H 172.704 -1.85977 -2.65675 0
M  V30 1776 H 172.489 -3.44839 -1.86625 0
M  V30 1777 H 173.979 -3.10332 -2.79435 0
M  V30 1778 N 174.416 0.165178 -1.56732 0
M  V30 1779 C 175.641 0.900253 -1.86843 0
M  V30 1780 C 176.066 1.74766 -0.695596 0
M  V30 1781 O 175.424 1.77786 0.35522 0
M  V30 1782 C 175.472 1.74777 -3.15413 0
M  V30 1783 O 174.576 2.85007 -2.98068 0
M  V30 1784 H 173.917 0.251832 -0.614391 0
M  V30 1785 H 176.447 0.161468 -2.03962 0
M  V30 1786 H 176.457 2.14646 -3.46974 0
M  V30 1787 H 175.132 1.12537 -4.00385 0
M  V30 1788 H 173.709 2.48676 -2.77875 0
M  V30 1789 N 175.894 1.51508 0.433938 0
M  V30 1790 C 177.141 1.64345 1.18309 0
M  V30 1791 C 177.469 0.361315 1.91115 0
M  V30 1792 O 176.724 -0.654753 1.84422 0
M  V30 1793 C 177.023 2.79928 2.22205 0
M  V30 1794 C 176.689 4.19078 1.66387 0
M  V30 1795 C 175.351 4.56932 1.50887 0
M  V30 1796 C 177.703 5.05894 1.25381 0
M  V30 1797 C 175.031 5.79305 0.928608 0
M  V30 1798 C 177.383 6.2885 0.687823 0
M  V30 1799 C 176.047 6.65473 0.519755 0
M  V30 1800 H 175.317 0.601381 0.432923 0
M  V30 1801 H 177.964 1.85549 0.473676 0
M  V30 1802 H 176.269 2.52959 2.99197 0
M  V30 1803 H 177.966 2.87059 2.79997 0
M  V30 1804 H 174.556 3.89234 1.79428 0
M  V30 1805 H 178.74 4.77253 1.36175 0
M  V30 1806 H 173.996 6.06324 0.786186 0
M  V30 1807 H 178.17 6.95461 0.361581 0
M  V30 1808 H 175.797 7.6017 0.0679979 0
M  V30 1809 N 177.372 -0.689602 1.41712 0
M  V30 1810 C 178.305 -1.81403 1.3845 0
M  V30 1811 C 179.283 -1.60653 0.250874 0
M  V30 1812 O 180.467 -1.83323 0.43874 0
M  V30 1813 C 177.594 -3.18176 1.1611 0
M  V30 1814 C 176.64 -3.57705 2.3227 0
M  V30 1815 S 177.473 -3.61827 3.94767 0
M  V30 1816 C 178.629 -5.01318 3.74742 0
M  V30 1817 H 178.862 -1.83893 2.33603 0
M  V30 1818 H 176.395 -0.858878 1.28307 0
M  V30 1819 H 178.353 -3.97132 1.03907 0
M  V30 1820 H 177.014 -3.13288 0.225668 0
M  V30 1821 H 176.207 -4.57082 2.12349 0
M  V30 1822 H 175.809 -2.86073 2.40911 0
M  V30 1823 H 178.101 -5.88986 3.34817 0
M  V30 1824 H 179.044 -5.26283 4.73743 0
M  V30 1825 H 179.452 -4.73138 3.07898 0
M  V30 1826 N 178.85 -1.27639 -0.924453 0
M  V30 1827 C 179.76 -1.12466 -2.05885 0
M  V30 1828 C 180.776 -0.053869 -1.73917 0
M  V30 1829 O 181.952 -0.261012 -1.99702 0
M  V30 1830 C 179.017 -0.776768 -3.37886 0
M  V30 1831 C 178.078 -1.92878 -3.83532 0
M  V30 1832 C 177.311 -1.59739 -5.09234 0
M  V30 1833 O 177.534 -0.506782 -5.68144 0
M  V30 1834 O 176.468 -2.43761 -5.50331 0
M  V30 1835 H 180.294 -2.07671 -2.21599 0
M  V30 1836 H 177.879 -1.06857 -1.04413 0
M  V30 1837 H 179.761 -0.596229 -4.17161 0
M  V30 1838 H 178.436 0.145732 -3.23372 0
M  V30 1839 H 177.343 -2.1644 -3.0513 0
M  V30 1840 H 178.676 -2.8316 -4.02593 0
M  V30 1841 N 180.328 1.1314 -1.09713 0
M  V30 1842 C 181.553 1.88862 -0.857081 0
M  V30 1843 C 181.978 1.78729 0.586304 0
M  V30 1844 O 181.336 1.13692 1.41222 0
M  V30 1845 C 181.384 3.36325 -1.30069 0
M  V30 1846 O 180.488 4.09815 -0.461007 0
M  V30 1847 H 179.829 0.587108 -0.310162 0
M  V30 1848 H 182.359 1.43129 -1.46203 0
M  V30 1849 H 182.369 3.87157 -1.28738 0
M  V30 1850 H 181.044 3.43017 -2.35185 0
M  V30 1851 H 179.621 3.68986 -0.538888 0
M  V30 1852 N 181.806 0.884767 1.30421 0
M  V30 1853 C 183.036 0.517293 2.00019 0
M  V30 1854 C 183.444 -0.898632 1.66497 0
M  V30 1855 O 182.787 -1.60245 0.898181 0
M  V30 1856 C 182.849 0.612025 3.54252 0
M  V30 1857 C 182.513 1.99222 4.1129 0
M  V30 1858 C 183.51 2.9616 4.273 0
M  V30 1859 C 181.195 2.29755 4.46674 0
M  V30 1860 C 183.189 4.21764 4.77906 0
M  V30 1861 C 180.876 3.55606 4.96979 0
M  V30 1862 C 181.874 4.51425 5.12547 0
M  V30 1863 O 181.562 5.75043 5.61766 0
M  V30 1864 H 181.294 0.198529 0.64619 0
M  V30 1865 H 183.848 1.1919 1.67281 0
M  V30 1866 H 182.078 -0.119561 3.86515 0
M  V30 1867 H 183.767 0.255859 4.05093 0
M  V30 1868 H 184.533 2.73882 4.00267 0
M  V30 1869 H 180.412 1.55942 4.33824 0
M  V30 1870 H 183.956 4.96561 4.89972 0
M  V30 1871 H 179.853 3.7772 5.23448 0
M  V30 1872 H 180.621 5.77422 5.80109 0
M  V30 1873 N 183.284 -1.43765 0.645699 0
M  V30 1874 C 184.53 -2.02197 0.156271 0
M  V30 1875 C 184.863 -1.50776 -1.22393 0
M  V30 1876 O 184.138 -0.697771 -1.81553 0
M  V30 1877 C 184.421 -3.59749 0.158872 0
M  V30 1878 C 184.274 -4.21419 1.57245 0
M  V30 1879 C 185.593 -4.37149 -0.50879 0
M  V30 1880 H 182.712 -0.734694 0.0582602 0
M  V30 1881 H 185.354 -1.71157 0.824951 0
M  V30 1882 H 183.504 -3.86325 -0.410525 0
M  V30 1883 H 185.176 -4.059 2.19186 0
M  V30 1884 H 183.419 -3.78356 2.122 0
M  V30 1885 H 184.09 -5.30482 1.52619 0
M  V30 1886 H 186.566 -4.16093 -0.024412 0
M  V30 1887 H 185.442 -5.4683 -0.476213 0
M  V30 1888 H 185.703 -4.12839 -1.58165 0
M  V30 1889 N 184.763 -0.387143 -1.52771 0
M  V30 1890 C 185.673 0.456442 -2.30117 0
M  V30 1891 C 186.689 1.07342 -1.36944 0
M  V30 1892 O 187.865 1.07971 -1.70013 0
M  V30 1893 C 184.93 1.56957 -3.09136 0
M  V30 1894 C 183.991 0.977916 -4.18014 0
M  V30 1895 C 183.224 2.038 -4.93256 0
M  V30 1896 O 183.447 3.25271 -4.68567 0
M  V30 1897 O 182.381 1.6565 -5.78657 0
M  V30 1898 H 186.207 -0.17359 -3.03203 0
M  V30 1899 H 183.792 -0.150919 -1.48636 0
M  V30 1900 H 185.674 2.21628 -3.58412 0
M  V30 1901 H 184.349 2.18461 -2.38865 0
M  V30 1902 H 183.256 0.294525 -3.72939 0
M  V30 1903 H 184.589 0.407128 -4.90513 0
M  V30 1904 N 186.241 1.57166 -0.116904 0
M  V30 1905 C 187.173 2.12271 0.864507 0
M  V30 1906 C 188.186 1.06494 1.23138 0
M  V30 1907 O 189.375 1.33873 1.18069 0
M  V30 1908 C 186.475 2.60564 2.16702 0
M  V30 1909 C 185.648 3.90416 1.97216 0
M  V30 1910 C 184.707 4.24329 3.11178 0
M  V30 1911 O 183.733 4.93182 2.84184 0
M  V30 1912 N 184.935 3.8148 4.37554 0
M  V30 1913 H 187.7 2.97102 0.393726 0
M  V30 1914 H 185.261 1.61759 0.0675805 0
M  V30 1915 H 187.253 2.80282 2.91932 0
M  V30 1916 H 185.823 1.80623 2.55135 0
M  V30 1917 H 185.043 3.79627 1.06192 0
M  V30 1918 H 186.331 4.75327 1.81499 0
M  V30 1919 H 185.729 3.25943 4.62361 0
M  V30 1920 H 184.286 4.06311 5.09661 0
M  V30 1921 N 187.719 -0.156864 1.56817 0
M  V30 1922 C 188.968 -0.869504 1.81996 0
M  V30 1923 C 189.281 -1.82777 0.696545 0
M  V30 1924 O 190.487 -2.58384 0.833658 0
M  V30 1925 C 188.943 -1.59679 3.22538 0
M  V30 1926 C 188.551 -0.681431 4.42787 0
M  V30 1927 C 190.295 -2.2968 3.56997 0
M  V30 1928 C 188.202 -1.40978 5.74351 0
M  V30 1929 H 187.132 -0.328438 0.678708 0
M  V30 1930 H 189.783 -0.1223 1.83092 0
M  V30 1931 H 188.165 -2.38927 3.158 0
M  V30 1932 H 189.339 0.0751166 4.60739 0
M  V30 1933 H 187.654 -0.0903431 4.16302 0
M  V30 1934 H 190.251 -2.84794 4.52544 0
M  V30 1935 H 190.594 -3.05707 2.82576 0
M  V30 1936 H 191.127 -1.57361 3.65352 0
M  V30 1937 H 187.866 -0.691561 6.51842 0
M  V30 1938 H 187.386 -2.13929 5.60352 0
M  V30 1939 H 189.065 -1.95337 6.16808 0
M  V30 1940 N 189.197 -1.51736 -0.425897 0
M  V30 1941 C 190.144 -1.73875 -1.51776 0
M  V30 1942 C 191.114 -0.580702 -1.55618 0
M  V30 1943 O 192.299 -0.81641 -1.72451 0
M  V30 1944 C 189.439 -1.88012 -2.89388 0
M  V30 1945 C 188.552 -3.15606 -2.94986 0
M  V30 1946 C 187.687 -3.20271 -4.23793 0
M  V30 1947 C 186.726 -4.42134 -4.23302 0
M  V30 1948 N 185.863 -4.44284 -5.43651 0
M  V30 1949 H 190.703 -2.67071 -1.32201 0
M  V30 1950 H 188.24 -1.32351 -0.642008 0
M  V30 1951 H 190.198 -1.9419 -3.69251 0
M  V30 1952 H 188.828 -0.98213 -3.07496 0
M  V30 1953 H 187.88 -3.18681 -2.07717 0
M  V30 1954 H 189.192 -4.05486 -2.90486 0
M  V30 1955 H 188.346 -3.25428 -5.12036 0
M  V30 1956 H 187.085 -2.28299 -4.30965 0
M  V30 1957 H 186.09 -4.3714 -3.3345 0
M  V30 1958 H 187.315 -5.35382 -4.17783 0
M  V30 1959 H 185.261 -3.55188 -5.51523 0
M  V30 1960 H 185.178 -5.27988 -5.41078 0
M  V30 1961 H 186.446 -4.53649 -6.33895 0
M  V30 1962 N 190.675 0.682077 -1.42076 0
M  V30 1963 C 191.585 1.82535 -1.47371 0
M  V30 1964 C 192.601 1.7017 -0.363079 0
M  V30 1965 O 193.777 1.91848 -0.612875 0
M  V30 1966 C 190.842 3.18624 -1.36674 0
M  V30 1967 C 189.903 3.42999 -2.58167 0
M  V30 1968 C 189.136 4.72595 -2.4797 0
M  V30 1969 O 189.359 5.50006 -1.5116 0
M  V30 1970 O 188.293 4.98054 -3.37974 0
M  V30 1971 H 192.119 1.81023 -2.43853 0
M  V30 1972 H 189.704 0.836887 -1.2376 0
M  V30 1973 H 191.586 3.99847 -1.33043 0
M  V30 1974 H 190.261 3.20789 -0.433138 0
M  V30 1975 H 189.168 2.61653 -2.67373 0
M  V30 1976 H 190.501 3.45659 -3.50401 0
M  V30 1977 N 192.153 1.28127 0.917671 0
M  V30 1978 C 193.101 1.11569 2.04096 0
M  V30 1979 C 194.095 0.0360242 1.69362 0
M  V30 1980 O 195.301 0.194501 1.78946 0
M  V30 1981 H 191.676 0.344097 0.668656 0
M  V30 1982 H 193.647 2.06711 2.15205 0
M  V30 1983 C 192.396 0.790197 3.38602 0
M  V30 1984 H 191.719 1.61293 3.6582 0
M  V30 1985 H 193.159 0.714271 4.1794 0
M  V30 1986 C 191.618 -0.505897 3.3308 0
M  V30 1987 O 192.148 -1.53736 3.71117 0
M  V30 1988 N 190.354 -0.505193 2.86175 0
M  V30 1989 H 189.901 0.334621 2.55417 0
M  V30 1990 H 189.859 -1.37243 2.82863 0
M  V30 1991 N 193.631 -1.12557 1.10312 0
M  V30 1992 C 194.578 -2.18247 0.750781 0
M  V30 1993 C 195.548 -1.63853 -0.272293 0
M  V30 1994 O 196.733 -1.90195 -0.151862 0
M  V30 1995 C 193.873 -3.44591 0.187379 0
M  V30 1996 C 192.986 -4.13046 1.2656 0
M  V30 1997 C 192.121 -5.27034 0.663978 0
M  V30 1998 C 191.16 -5.87353 1.72287 0
M  V30 1999 N 190.297 -6.92757 1.1416 0
M  V30 2000 H 195.137 -2.47732 1.65628 0
M  V30 2001 H 192.674 -1.21629 0.827337 0
M  V30 2002 H 194.632 -4.16904 -0.157148 0
M  V30 2003 H 193.262 -3.15527 -0.681355 0
M  V30 2004 H 192.314 -3.38924 1.72727 0
M  V30 2005 H 193.626 -4.53947 2.06721 0
M  V30 2006 H 192.78 -6.06104 0.268824 0
M  V30 2007 H 191.519 -4.87407 -0.169082 0
M  V30 2008 H 190.524 -5.06971 2.12746 0
M  V30 2009 H 191.749 -6.29051 2.55875 0
M  V30 2010 H 189.695 -6.5517 0.329984 0
M  V30 2011 H 189.612 -7.3225 1.88007 0
M  V30 2012 H 190.88 -7.75658 0.772956 0
M  V30 2013 N 195.109 -0.891671 -1.2995 0
M  V30 2014 C 196.056 -0.361736 -2.27948 0
M  V30 2015 C 197.026 0.551761 -1.56668 0
M  V30 2016 O 198.211 0.478736 -1.84696 0
M  V30 2017 C 195.351 0.411825 -3.42634 0
M  V30 2018 C 194.464 -0.531651 -4.28716 0
M  V30 2019 C 193.599 0.258167 -5.30572 0
M  V30 2020 C 192.638 -0.680349 -6.08307 0
M  V30 2021 N 191.775 0.0745613 -7.0206 0
M  V30 2022 H 196.615 -1.20254 -2.72659 0
M  V30 2023 H 194.152 -0.604352 -1.34112 0
M  V30 2024 H 196.11 0.876304 -4.07893 0
M  V30 2025 H 194.74 1.21715 -2.98974 0
M  V30 2026 H 193.792 -1.11463 -3.63703 0
M  V30 2027 H 195.104 -1.25038 -4.82874 0
M  V30 2028 H 194.258 0.784204 -6.0161 0
M  V30 2029 H 192.997 1.01008 -4.77126 0
M  V30 2030 H 192.002 -1.21796 -5.3614 0
M  V30 2031 H 193.227 -1.43145 -6.63842 0
M  V30 2032 H 191.173 0.808883 -6.50994 0
M  V30 2033 H 191.09 -0.584409 -7.53738 0
M  V30 2034 H 192.358 0.581123 -7.77331 0
M  V30 2035 N 196.587 1.43421 -0.653314 0
M  V30 2036 C 197.517 2.33487 0.0246656 0
M  V30 2037 C 198.498 1.49475 0.811863 0
M  V30 2038 O 199.683 1.78139 0.773322 0
M  V30 2039 C 196.813 3.32841 0.99166 0
M  V30 2040 C 195.767 4.26842 0.314568 0
M  V30 2041 C 195.093 5.16236 1.39302 0
M  V30 2042 C 196.393 5.16243 -0.793095 0
M  V30 2043 H 198.087 2.90427 -0.727481 0
M  V30 2044 H 195.633 1.39649 -0.351287 0
M  V30 2045 H 197.586 3.94747 1.47487 0
M  V30 2046 H 196.31 2.74158 1.77497 0
M  V30 2047 H 194.969 3.663 -0.148199 0
M  V30 2048 H 194.617 4.53891 2.16776 0
M  V30 2049 H 194.317 5.79948 0.945223 0
M  V30 2050 H 195.841 5.81015 1.87759 0
M  V30 2051 H 197.255 5.71958 -0.392039 0
M  V30 2052 H 195.652 5.88676 -1.16536 0
M  V30 2053 H 196.722 4.55927 -1.65103 0
M  V30 2054 N 198.065 0.39524 1.52563 0
M  V30 2055 C 199.342 -0.242908 1.94086 0
M  V30 2056 C 199.722 -1.63841 1.33114 0
M  V30 2057 O 199.07 -2.22928 0.501529 0
M  V30 2058 C 199.28 -0.26327 3.48006 0
M  V30 2059 C 200.628 -0.489354 4.21771 0
M  V30 2060 O 201.652 -0.343226 3.54543 0
M  V30 2061 O 200.511 -0.776169 5.4096 0
M  V30 2062 H 197.605 -0.152536 0.812811 0
M  V30 2063 H 200.151 0.450178 1.6362 0
M  V30 2064 H 198.923 0.713985 3.84731 0
M  V30 2065 H 198.546 -1.00103 3.84792 0
M  V30 2066 N 199.544 -1.57102 0.125237 0
M  V30 2067 C 200.772 -1.99761 -0.538797 0
M  V30 2068 C 201.187 -1.00503 -1.59827 0
M  V30 2069 O 200.544 0.00119474 -1.825 0
M  V30 2070 C 200.595 -3.42408 -1.15927 0
M  V30 2071 O 200.316 -4.37869 -0.142143 0
M  V30 2072 C 201.817 -4.00232 -1.90602 0
M  V30 2073 H 199.037 -0.655772 -0.14214 0
M  V30 2074 H 201.581 -2.03383 0.213413 0
M  V30 2075 H 199.736 -3.39706 -1.86223 0
M  V30 2076 H 200.15 -5.21128 -0.593775 0
M  V30 2077 H 201.624 -5.02105 -2.29335 0
M  V30 2078 H 202.101 -3.39721 -2.78363 0
M  V30 2079 H 202.707 -4.06499 -1.25055 0
M  V30 2080 N 201.022 0.148545 -1.56898 0
M  V30 2081 C 202.25 0.876389 -1.87422 0
M  V30 2082 C 202.665 1.74809 -0.713256 0
M  V30 2083 O 202.022 1.79725 0.317025 0
M  V30 2084 C 202.073 1.73438 -3.17178 0
M  V30 2085 O 201.794 0.897809 -4.28802 0
M  V30 2086 C 203.295 2.56993 -3.61205 0
M  V30 2087 H 200.515 0.253489 -0.621277 0
M  V30 2088 H 203.059 0.141798 -2.04008 0
M  V30 2089 H 201.214 2.42205 -3.0235 0
M  V30 2090 H 201.628 1.48672 -5.02988 0
M  V30 2091 H 203.102 3.12773 -4.54838 0
M  V30 2092 H 203.579 3.32958 -2.86419 0
M  V30 2093 H 204.185 1.9352 -3.78722 0
M  V30 2094 N 202.5 1.5196 0.417844 0
M  V30 2095 C 203.73 1.69181 1.18581 0
M  V30 2096 C 204.138 0.397104 1.84986 0
M  V30 2097 O 203.481 -0.636011 1.72339 0
M  V30 2098 C 203.543 2.76497 2.29759 0
M  V30 2099 C 203.207 4.18514 1.83563 0
M  V30 2100 C 204.204 5.02648 1.32821 0
M  V30 2101 C 201.889 4.64708 1.90661 0
M  V30 2102 C 203.883 6.31044 0.897894 0
M  V30 2103 C 201.57 5.93096 1.47241 0
M  V30 2104 C 202.568 6.76093 0.968891 0
M  V30 2105 O 202.256 8.02078 0.540924 0
M  V30 2106 H 201.988 0.570457 0.362705 0
M  V30 2107 H 204.542 1.99249 0.498885 0
M  V30 2108 H 202.772 2.41786 3.01789 0
M  V30 2109 H 204.461 2.82403 2.91553 0
M  V30 2110 H 205.227 4.68154 1.26716 0
M  V30 2111 H 201.106 4.00216 2.28797 0
M  V30 2112 H 204.65 6.95776 0.504192 0
M  V30 2113 H 200.547 6.271 1.53022 0
M  V30 2114 H 201.315 8.15794 0.66502 0
M  V30 2115 N 203.978 -0.674533 1.42435 0
M  V30 2116 C 204.941 -1.76986 1.45632 0
M  V30 2117 C 205.941 -1.5708 0.343871 0
M  V30 2118 O 207.131 -1.63367 0.604709 0
M  V30 2119 C 204.263 -3.15623 1.28822 0
M  V30 2120 H 205.456 -1.75539 2.43158 0
M  V30 2121 H 203.009 -0.884189 1.28887 0
M  V30 2122 H 203.744 -3.22696 0.322193 0
M  V30 2123 H 203.529 -3.31475 2.09444 0
M  V30 2124 H 205.019 -3.95537 1.33942 0
M  V30 2125 N 205.456 -1.28612 -0.910864 0
M  V30 2126 C 206.704 -1.15705 -1.65701 0
M  V30 2127 C 207.025 0.29416 -1.92769 0
M  V30 2128 O 206.295 1.20331 -1.54588 0
M  V30 2129 H 204.875 -0.425216 -0.614167 0
M  V30 2130 H 207.537 -1.61381 -1.0928 0
M  V30 2131 H 206.633 -1.6988 -2.61815 0
M  V30 2132 N 206.934 1.1197 -1.10907 0
M  V30 2133 C 208.162 1.87402 -0.876824 0
M  V30 2134 C 208.577 1.79894 0.573025 0
M  V30 2135 O 207.934 1.17629 1.39534 0
M  V30 2136 C 207.985 3.36428 -1.32282 0
M  V30 2137 O 207.706 3.43765 -2.71582 0
M  V30 2138 C 209.207 4.28783 -1.12518 0
M  V30 2139 H 206.427 0.592793 -0.314384 0
M  V30 2140 H 208.971 1.41649 -1.47499 0
M  V30 2141 H 207.126 3.79706 -0.768229 0
M  V30 2142 H 207.54 4.3652 -2.90776 0
M  V30 2143 H 209.014 5.31613 -1.48633 0
M  V30 2144 H 209.491 4.39153 -0.0642394 0
M  V30 2145 H 210.097 3.91291 -1.66648 0
M  V30 2146 N 208.412 0.89855 1.29475 0
M  V30 2147 C 209.375 0.380272 2.26023 0
M  V30 2148 C 210.375 -0.484891 1.53315 0
M  V30 2149 O 211.565 -0.290108 1.71767 0
M  V30 2150 C 208.697 -0.45651 3.3783 0
M  V30 2151 H 209.89 1.23295 2.73383 0
M  V30 2152 H 207.443 0.676589 1.40897 0
M  V30 2153 H 208.178 -1.32922 2.95808 0
M  V30 2154 H 207.963 0.163393 3.91759 0
M  V30 2155 H 209.453 -0.810466 4.0966 0
M  V30 2156 N 209.89 -1.43072 0.660911 0
M  V30 2157 C 210.8 -2.34585 -0.0264163 0
M  V30 2158 C 211.816 -1.54316 -0.803898 0
M  V30 2159 O 212.992 -1.86939 -0.749391 0
M  V30 2160 C 210.057 -3.32689 -0.975639 0
M  V30 2161 C 209.118 -4.2886 -0.194236 0
M  V30 2162 C 208.351 -5.22278 -1.09825 0
M  V30 2163 O 208.574 -5.20299 -2.33763 0
M  V30 2164 O 207.508 -5.99228 -0.566513 0
M  V30 2165 H 211.334 -2.94869 0.727034 0
M  V30 2166 H 208.919 -1.43342 0.42111 0
M  V30 2167 H 210.801 -3.92995 -1.52094 0
M  V30 2168 H 209.476 -2.74898 -1.70918 0
M  V30 2169 H 208.383 -3.72011 0.394835 0
M  V30 2170 H 209.716 -4.89655 0.499899 0
M  V30 2171 N 211.368 -0.403325 -1.52352 0
M  V30 2172 C 212.617 0.175668 -2.00934 0
M  V30 2173 C 212.93 1.46718 -1.29356 0
M  V30 2174 O 214.136 2.12708 -1.68724 0
M  V30 2175 C 212.592 0.363612 -3.58058 0
M  V30 2176 C 212.2 -0.915472 -4.38547 0
M  V30 2177 C 213.944 0.89821 -4.14888 0
M  V30 2178 C 211.851 -0.695035 -5.87302 0
M  V30 2179 H 210.781 0.0694234 -0.750797 0
M  V30 2180 H 213.432 -0.527879 -1.75743 0
M  V30 2181 H 211.814 1.12935 -3.79555 0
M  V30 2182 H 212.988 -1.68691 -4.28812 0
M  V30 2183 H 211.303 -1.37606 -3.93006 0
M  V30 2184 H 213.9 1.07907 -5.23699 0
M  V30 2185 H 214.243 1.87126 -3.71873 0
M  V30 2186 H 214.776 0.191681 -3.97338 0
M  V30 2187 H 211.515 -1.63948 -6.34666 0
M  V30 2188 H 211.035 0.0372116 -5.99788 0
M  V30 2189 H 212.714 -0.33497 -6.46132 0
M  V30 2190 N 212.846 1.57033 -0.133567 0
M  V30 2191 C 213.793 2.16074 0.811208 0
M  V30 2192 C 214.763 1.08979 1.2535 0
M  V30 2193 O 215.948 1.36958 1.32843 0
M  V30 2194 C 213.088 2.77595 2.05024 0
M  V30 2195 C 212.201 3.99042 1.65498 0
M  V30 2196 C 211.336 4.48603 2.84479 0
M  V30 2197 C 210.375 5.62547 2.41262 0
M  V30 2198 N 209.512 6.06787 3.53206 0
M  V30 2199 H 214.352 2.96477 0.300906 0
M  V30 2200 H 211.889 1.46462 0.136822 0
M  V30 2201 H 213.847 3.11402 2.77642 0
M  V30 2202 H 212.477 1.99859 2.53488 0
M  V30 2203 H 211.529 3.71302 0.826981 0
M  V30 2204 H 212.841 4.81629 1.29748 0
M  V30 2205 H 211.995 4.84395 3.65303 0
M  V30 2206 H 210.734 3.64995 3.23465 0
M  V30 2207 H 209.739 5.26345 1.58874 0
M  V30 2208 H 210.964 6.47931 2.03377 0
M  V30 2209 H 208.91 5.26117 3.91838 0
M  V30 2210 H 208.827 6.84266 3.21427 0
M  V30 2211 H 210.095 6.4722 4.34427 0
M  V30 2212 N 214.325 -0.140222 1.56975 0
M  V30 2213 C 215.257 -1.19818 1.95388 0
M  V30 2214 C 216.27 -1.38816 0.850525 0
M  V30 2215 O 217.459 -1.38267 1.12891 0
M  V30 2216 C 214.559 -2.56189 2.21857 0
M  V30 2217 C 213.732 -2.58077 3.5315 0
M  V30 2218 C 212.791 -3.76037 3.6808 0
M  V30 2219 O 211.817 -3.60598 4.40406 0
M  V30 2220 N 213.019 -4.93763 3.05251 0
M  V30 2221 H 215.784 -0.871609 2.86746 0
M  V30 2222 H 213.345 -0.32972 1.58507 0
M  V30 2223 H 215.337 -3.33623 2.2908 0
M  V30 2224 H 213.907 -2.81111 1.36731 0
M  V30 2225 H 213.127 -1.6651 3.57307 0
M  V30 2226 H 214.415 -2.56377 4.39486 0
M  V30 2227 H 213.813 -5.09209 2.46419 0
M  V30 2228 H 212.37 -5.68949 3.18026 0
M  V30 2229 N 215.803 -1.52179 -0.40978 0
M  V30 2230 C 217.214 -1.58377 -0.988615 0
M  V30 2231 C 217.565 -0.423879 -1.91566 0
M  V30 2232 O 216.69 0.455844 -2.11544 0
M  V30 2233 C 217.285 -2.87044 -1.79976 0
M  V30 2234 C 215.844 -2.95722 -2.32863 0
M  V30 2235 C 214.991 -2.53309 -1.12828 0
M  V30 2236 H 217.942 -1.57558 -0.190039 0
M  V30 2237 H 217.963 -2.7236 -2.65707 0
M  V30 2238 H 217.475 -3.71444 -1.12478 0
M  V30 2239 H 215.576 -2.15814 -3.03735 0
M  V30 2240 H 215.689 -3.99951 -2.63773 0
M  V30 2241 H 214.053 -2.07142 -1.48204 0
M  V30 2242 H 214.836 -3.40082 -0.46897 0
M  V30 2243 N 217.281 0.66697 -1.42791 0
M  V30 2244 C 218.527 1.4291 -1.43891 0
M  V30 2245 C 218.86 1.94114 -0.0578972 0
M  V30 2246 O 218.135 1.71414 0.91911 0
M  V30 2247 C 218.418 2.62049 -2.46987 0
M  V30 2248 C 218.271 2.16426 -3.94309 0
M  V30 2249 C 219.59 3.64266 -2.46978 0
M  V30 2250 H 216.709 0.518306 -0.523954 0
M  V30 2251 H 219.351 0.757321 -1.74255 0
M  V30 2252 H 217.501 3.19361 -2.21225 0
M  V30 2253 H 219.173 1.64221 -4.31079 0
M  V30 2254 H 217.416 1.47925 -4.078 0
M  V30 2255 H 218.087 3.02038 -4.62036 0
M  V30 2256 H 220.563 3.16686 -2.69906 0
M  V30 2257 H 219.439 4.45196 -3.21079 0
M  V30 2258 H 219.7 4.15927 -1.49857 0
M  V30 2259 N 218.759 1.29093 0.90403 0
M  V30 2260 C 220.005 1.16986 1.65656 0
M  V30 2261 C 220.338 -0.278925 1.92186 0
M  V30 2262 O 219.613 -1.2019 1.5292 0
M  V30 2263 C 219.896 1.97908 3.0084 0
M  V30 2264 C 219.749 3.50903 2.81403 0
M  V30 2265 C 221.068 1.80208 4.01513 0
M  V30 2266 H 218.187 0.426346 0.601164 0
M  V30 2267 H 220.829 1.58518 1.04747 0
M  V30 2268 H 218.979 1.62616 3.52829 0
M  V30 2269 H 220.651 3.96153 2.36348 0
M  V30 2270 H 218.894 3.76045 2.1627 0
M  V30 2271 H 219.565 4.02791 3.77443 0
M  V30 2272 H 222.041 2.11025 3.58619 0
M  V30 2273 H 220.917 2.39184 4.94047 0
M  V30 2274 H 221.178 0.756119 4.35586 0
M  V30 2275 N 220.237 -1.11381 1.11499 0
M  V30 2276 C 221.184 -2.17439 0.773887 0
M  V30 2277 C 222.154 -1.64132 -0.254899 0
M  V30 2278 O 223.339 -1.90345 -0.13168 0
M  V30 2279 C 220.479 -3.44373 0.223917 0
M  V30 2280 C 219.592 -4.1168 1.30934 0
M  V30 2281 C 218.727 -5.263 0.71984 0
M  V30 2282 C 217.766 -5.85493 1.78507 0
M  V30 2283 N 216.903 -6.91507 1.21502 0
M  V30 2284 H 221.743 -2.45962 1.68246 0
M  V30 2285 H 219.28 -1.20744 0.840191 0
M  V30 2286 H 221.238 -4.17047 -0.112921 0
M  V30 2287 H 219.868 -3.16232 -0.647851 0
M  V30 2288 H 218.92 -3.37073 1.76312 0
M  V30 2289 H 220.232 -4.51729 2.11524 0
M  V30 2290 H 219.386 -6.05785 0.333094 0
M  V30 2291 H 218.125 -4.87559 -0.117377 0
M  V30 2292 H 217.13 -5.04686 2.18111 0
M  V30 2293 H 218.355 -6.26301 2.62533 0
M  V30 2294 H 216.301 -6.54783 0.399455 0
M  V30 2295 H 216.218 -7.30214 1.95763 0
M  V30 2296 H 217.486 -7.74795 0.855181 0
M  V30 2297 N 221.715 -0.905404 -1.28997 0
M  V30 2298 C 222.94 -0.549175 -1.99997 0
M  V30 2299 C 223.365 0.860276 -1.67275 0
M  V30 2300 O 222.723 1.57355 -0.900502 0
M  V30 2301 C 222.771 -0.755185 -3.52604 0
M  V30 2302 O 221.875 0.189692 -4.11964 0
M  V30 2303 H 221.216 -0.213899 -0.628604 0
M  V30 2304 H 223.746 -1.21856 -1.64354 0
M  V30 2305 H 223.756 -0.662045 -4.02593 0
M  V30 2306 H 222.431 -1.78271 -3.75755 0
M  V30 2307 H 221.008 0.0485257 -3.72868 0
M  V30 2308 N 223.193 1.4272 -0.668489 0
M  V30 2309 C 224.123 2.335 -0.000100175 0
M  V30 2310 C 225.104 1.50328 0.795964 0
M  V30 2311 O 226.289 1.78949 0.754385 0
M  V30 2312 C 223.419 3.33874 0.956302 0
M  V30 2313 C 222.373 4.27152 0.269278 0
M  V30 2314 C 221.699 5.17684 1.33818 0
M  V30 2315 C 222.999 5.15373 -0.847805 0
M  V30 2316 H 224.693 2.89639 -0.758244 0
M  V30 2317 H 222.239 1.39269 -0.366079 0
M  V30 2318 H 224.192 3.9629 1.43292 0
M  V30 2319 H 222.916 2.76025 1.74579 0
M  V30 2320 H 221.575 3.66123 -0.187042 0
M  V30 2321 H 221.223 4.56165 2.1195 0
M  V30 2322 H 220.923 5.80918 0.883659 0
M  V30 2323 H 222.447 5.82974 1.81586 0
M  V30 2324 H 223.861 5.7151 -0.452681 0
M  V30 2325 H 222.258 5.87407 -1.22773 0
M  V30 2326 H 223.328 4.5415 -1.69929 0
M  V30 2327 N 224.671 0.411399 1.52136 0
M  V30 2328 C 225.601 -0.404015 2.29978 0
M  V30 2329 C 226.582 -1.04412 1.34284 0
M  V30 2330 O 227.767 -1.0527 1.63192 0
M  V30 2331 C 224.897 -1.5197 3.12286 0
M  V30 2332 C 223.851 -1.00448 4.16046 0
M  V30 2333 C 223.177 -2.21393 4.86712 0
M  V30 2334 C 224.477 -0.0569336 5.22269 0
M  V30 2335 H 226.171 0.245529 2.98392 0
M  V30 2336 H 223.717 0.119525 1.43503 0
M  V30 2337 H 225.67 -2.09715 3.6551 0
M  V30 2338 H 224.394 -2.19716 2.41646 0
M  V30 2339 H 223.053 -0.449421 3.63835 0
M  V30 2340 H 222.701 -2.87699 4.12599 0
M  V30 2341 H 222.401 -1.87571 5.56858 0
M  V30 2342 H 223.925 -2.7974 5.4275 0
M  V30 2343 H 225.339 -0.54325 5.7072 0
M  V30 2344 H 223.736 0.192594 5.99791 0
M  V30 2345 H 224.806 0.887663 4.76706 0
M  V30 2346 N 226.149 -1.5696 0.141893 0
M  V30 2347 C 227.426 -1.87553 -0.555281 0
M  V30 2348 C 227.806 -1.04699 -1.83306 0
M  V30 2349 O 227.154 -0.132346 -2.28116 0
M  V30 2350 C 227.364 -3.39093 -0.825664 0
M  V30 2351 C 228.712 -4.08199 -1.16869 0
M  V30 2352 O 229.736 -3.44242 -0.915185 0
M  V30 2353 O 228.595 -5.21139 -1.6455 0
M  V30 2354 H 225.689 -0.777188 -0.282679 0
M  V30 2355 H 228.235 -1.68763 0.17812 0
M  V30 2356 H 227.007 -3.91221 0.0788633 0
M  V30 2357 H 226.63 -3.63393 -1.61343 0
M  V30 2358 N 227.627 0.131896 -1.57047 0
M  V30 2359 C 228.852 0.860418 -1.8871 0
M  V30 2360 C 229.277 1.73251 -0.73251 0
M  V30 2361 O 228.635 1.785 0.317429 0
M  V30 2362 C 228.683 1.68047 -3.19049 0
M  V30 2363 O 227.787 2.7862 -3.04047 0
M  V30 2364 H 227.128 0.238743 -0.619595 0
M  V30 2365 H 229.658 0.118169 -2.04258 0
M  V30 2366 H 229.668 2.07238 -3.51449 0
M  V30 2367 H 228.343 1.04018 -4.02682 0
M  V30 2368 H 226.92 2.42726 -2.83088 0
M  V30 2369 N 229.106 1.52395 0.401703 0
M  V30 2370 C 230.053 1.76268 1.48991 0
M  V30 2371 C 231.023 0.605386 1.54675 0
M  V30 2372 O 232.208 0.843742 1.7113 0
M  V30 2373 C 229.348 1.92592 2.86361 0
M  V30 2374 C 228.461 3.20259 2.89928 0
M  V30 2375 C 227.596 3.26972 4.18644 0
M  V30 2376 C 226.635 4.48812 4.16214 0
M  V30 2377 N 225.772 4.52877 5.36514 0
M  V30 2378 H 230.612 2.6914 1.27935 0
M  V30 2379 H 228.149 1.33355 0.620871 0
M  V30 2380 H 230.107 2.0004 3.66115 0
M  V30 2381 H 228.737 1.03093 3.05895 0
M  V30 2382 H 227.789 3.21945 2.02621 0
M  V30 2383 H 229.101 4.10056 2.83999 0
M  V30 2384 H 228.255 3.33533 5.06794 0
M  V30 2385 H 226.994 2.35126 4.27278 0
M  V30 2386 H 225.999 4.4239 3.26453 0
M  V30 2387 H 227.224 5.41961 4.09213 0
M  V30 2388 H 225.17 3.63917 5.45802 0
M  V30 2389 H 225.087 5.36529 5.32609 0
M  V30 2390 H 226.355 4.63676 6.26597 0
M  V30 2391 N 230.584 -0.659388 1.43143 0
M  V30 2392 C 231.832 -1.41654 1.44147 0
M  V30 2393 C 232.153 -1.94893 0.0645739 0
M  V30 2394 O 231.423 -1.74044 -0.899198 0
M  V30 2395 H 230.003 -0.525708 0.530697 0
M  V30 2396 H 232.665 -0.778097 1.78694 0
M  V30 2397 H 231.761 -2.26195 2.1504 0
M  V30 2398 N 232.062 -1.29571 -0.897171 0
M  V30 2399 C 233.311 -1.1706 -1.64256 0
M  V30 2400 C 233.624 0.276476 -1.93636 0
M  V30 2401 O 234.83 0.52294 -2.66416 0
M  V30 2402 C 233.286 -2.0475 -2.95982 0
M  V30 2403 C 232.894 -3.54295 -2.74187 0
M  V30 2404 C 234.638 -2.0097 -3.73914 0
M  V30 2405 C 232.545 -4.34081 -4.01656 0
M  V30 2406 H 231.475 -0.43452 -0.616205 0
M  V30 2407 H 234.126 -1.54229 -0.994268 0
M  V30 2408 H 232.508 -1.60452 -3.62038 0
M  V30 2409 H 233.682 -4.06662 -2.1671 0
M  V30 2410 H 231.997 -3.59773 -2.09648 0
M  V30 2411 H 234.594 -2.57838 -4.68427 0
M  V30 2412 H 234.937 -0.990273 -4.0435 0
M  V30 2413 H 235.47 -2.43325 -3.14703 0
M  V30 2414 H 232.209 -5.36671 -3.76384 0
M  V30 2415 H 231.729 -3.86483 -4.58684 0
M  V30 2416 H 233.408 -4.44877 -4.69781 0
M  V30 2417 N 233.54 1.10788 -1.12088 0
M  V30 2418 C 234.49 2.15158 -0.754401 0
M  V30 2419 C 235.474 1.59026 0.244846 0
M  V30 2420 O 236.666 1.76927 0.0509097 0
M  V30 2421 C 233.795 3.42677 -0.206657 0
M  V30 2422 C 232.881 4.05751 -1.23398 0
M  V30 2423 N 233.272 4.43582 -2.43041 0
M  V30 2424 C 231.57 4.32764 -1.07848 0
M  V30 2425 C 232.271 4.93085 -3.08613 0
M  V30 2426 N 231.247 4.89664 -2.36072 0
M  V30 2427 H 235.049 2.42195 -1.6649 0
M  V30 2428 H 232.563 1.27872 -1.00112 0
M  V30 2429 H 234.56 4.16834 0.0740646 0
M  V30 2430 H 233.22 3.17101 0.698342 0
M  V30 2431 H 234.231 4.35395 -2.80449 0
M  V30 2432 H 230.908 4.16863 -0.230483 0
M  V30 2433 H 232.298 5.31933 -4.10483 0
M  V30 2434 N 235.018 0.912232 1.28515 0
M  V30 2435 C 236.248 0.559604 1.98877 0
M  V30 2436 C 236.656 -0.863113 1.68366 0
M  V30 2437 O 235.999 -1.58304 0.931969 0
M  V30 2438 C 236.061 0.68703 3.52874 0
M  V30 2439 C 235.725 2.07901 4.06972 0
M  V30 2440 C 236.722 3.05157 4.20922 0
M  V30 2441 C 234.407 2.39178 4.417 0
M  V30 2442 C 236.401 4.31806 4.68852 0
M  V30 2443 C 234.088 3.66068 4.89324 0
M  V30 2444 C 235.086 4.62195 5.02856 0
M  V30 2445 O 234.774 5.86829 5.49442 0
M  V30 2446 H 234.506 0.212191 0.641834 0
M  V30 2447 H 237.06 1.22712 1.64715 0
M  V30 2448 H 235.29 -0.0375486 3.86682 0
M  V30 2449 H 236.979 0.341727 4.04459 0
M  V30 2450 H 237.745 2.82311 3.94367 0
M  V30 2451 H 233.624 1.65109 4.30418 0
M  V30 2452 H 237.168 5.06842 4.79329 0
M  V30 2453 H 233.065 3.88739 5.15318 0
M  V30 2454 H 233.833 5.89597 5.6773 0
M  V30 2455 N 236.496 -1.42363 0.676048 0
M  V30 2456 C 237.444 -2.32596 -0.0131507 0
M  V30 2457 C 238.438 -1.49891 -0.789238 0
M  V30 2458 O 239.644 -1.65955 -0.697061 0
M  V30 2459 H 236.019 -0.751647 -0.0230481 0
M  V30 2460 H 237.99 -2.88421 0.765243 0
M  V30 2461 C 236.739 -3.34479 -0.949702 0
M  V30 2462 H 236.062 -3.98158 -0.361938 0
M  V30 2463 H 237.502 -4.00199 -1.4006 0
M  V30 2464 C 235.961 -2.66838 -2.05667 0
M  V30 2465 O 236.491 -2.50124 -3.14326 0
M  V30 2466 N 234.697 -2.25843 -1.82875 0
M  V30 2467 H 234.244 -2.39637 -0.945085 0
M  V30 2468 H 234.202 -1.80918 -2.5713 0
M  V30 2469 N 237.974 -0.419461 -1.51915 0
M  V30 2470 C 238.906 0.43646 -2.25006 0
M  V30 2471 C 239.919 1.00149 -1.28351 0
M  V30 2472 O 241.108 0.898674 -1.54227 0
M  V30 2473 C 238.208 1.6206 -2.9764 0
M  V30 2474 C 237.381 1.17763 -4.21249 0
M  V30 2475 C 236.44 2.22985 -4.76617 0
M  V30 2476 O 235.466 1.83151 -5.38929 0
M  V30 2477 N 236.668 3.55271 -4.59089 0
M  V30 2478 H 239.433 -0.18989 -2.99098 0
M  V30 2479 H 236.994 -0.247386 -1.59999 0
M  V30 2480 H 238.986 2.32038 -3.31573 0
M  V30 2481 H 237.556 2.15266 -2.2667 0
M  V30 2482 H 236.776 0.305582 -3.93014 0
M  V30 2483 H 238.064 0.858781 -5.015 0
M  V30 2484 H 237.462 3.90377 -4.09417 0
M  V30 2485 H 236.019 4.21195 -4.97432 0
M  V30 2486 N 239.452 1.56882 -0.150215 0
M  V30 2487 C 240.7 1.9584 0.499105 0
M  V30 2488 C 241.021 1.03623 1.65188 0
M  V30 2489 O 240.291 0.0984084 1.95653 0
M  V30 2490 H 238.871 0.723119 0.187373 0
M  V30 2491 H 241.533 1.9358 -0.226466 0
M  V30 2492 H 240.629 2.99638 0.873122 0
M  V30 2493 N 240.93 -0.123565 1.57115 0
M  V30 2494 C 241.878 -1.17082 2.00984 0
M  V30 2495 C 242.872 -1.43136 0.906009 0
M  V30 2496 O 244.078 -1.43152 1.09121 0
M  V30 2497 H 240.453 -0.394653 0.64012 0
M  V30 2498 H 242.424 -0.774292 2.88179 0
M  V30 2499 C 241.173 -2.49057 2.42623 0
M  V30 2500 H 240.496 -2.29846 3.27125 0
M  V30 2501 H 241.936 -3.20906 2.7712 0
M  V30 2502 C 240.395 -3.11305 1.28805 0
M  V30 2503 O 240.925 -3.97171 0.60153 0
M  V30 2504 N 239.131 -2.71111 1.04628 0
M  V30 2505 H 238.678 -2.01382 1.60634 0
M  V30 2506 H 238.636 -3.1309 0.286685 0
M  V30 2507 N 242.408 -1.52605 -0.393616 0
M  V30 2508 C 243.819 -1.59417 -0.971761 0
M  V30 2509 C 244.17 -0.444173 -1.91106 0
M  V30 2510 O 243.295 0.433382 -2.12016 0
M  V30 2511 C 243.89 -2.88936 -1.76921 0
M  V30 2512 C 242.449 -2.98175 -2.29714 0
M  V30 2513 C 241.596 -2.54491 -1.10135 0
M  V30 2514 H 244.547 -1.57751 -0.173317 0
M  V30 2515 H 244.568 -2.75163 -2.62804 0
M  V30 2516 H 244.08 -3.72616 -1.08532 0
M  V30 2517 H 242.181 -2.19024 -3.01429 0
M  V30 2518 H 242.294 -4.02726 -2.59517 0
M  V30 2519 H 240.658 -2.08702 -1.45999 0
M  V30 2520 H 241.441 -3.4056 -0.432874 0
M  V30 2521 N 243.887 0.651787 -1.4349 0
M  V30 2522 C 245.117 1.43728 -1.48411 0
M  V30 2523 C 245.525 1.8893 -0.10103 0
M  V30 2524 O 244.868 1.60182 0.899307 0
M  V30 2525 C 244.93 2.70411 -2.36893 0
M  V30 2526 C 244.594 2.4714 -3.8441 0
M  V30 2527 C 245.591 2.10271 -4.75481 0
M  V30 2528 C 243.276 2.6142 -4.28912 0
M  V30 2529 C 245.27 1.87982 -6.0905 0
M  V30 2530 C 242.957 2.38746 -5.62533 0
M  V30 2531 C 243.955 2.02083 -6.5242 0
M  V30 2532 O 243.643 1.79647 -7.8357 0
M  V30 2533 H 243.375 0.447962 -0.506267 0
M  V30 2534 H 245.929 0.80624 -1.88915 0
M  V30 2535 H 244.159 3.36079 -1.91278 0
M  V30 2536 H 245.848 3.32364 -2.33 0
M  V30 2537 H 246.614 1.98814 -4.42378 0
M  V30 2538 H 242.493 2.88931 -3.59222 0
M  V30 2539 H 246.037 1.5929 -6.7917 0
M  V30 2540 H 241.934 2.49806 -5.95203 0
M  V30 2541 H 242.702 1.9406 -7.95162 0
M  V30 2542 N 245.365 1.30045 0.890287 0
M  V30 2543 C 246.313 1.15873 2.01683 0
M  V30 2544 C 247.307 0.0719403 1.69247 0
M  V30 2545 O 248.513 0.232414 1.78493 0
M  V30 2546 H 244.888 0.358203 0.661207 0
M  V30 2547 H 246.859 2.11229 2.10772 0
M  V30 2548 C 245.608 0.861842 3.36849 0
M  V30 2549 H 244.931 1.69016 3.62317 0
M  V30 2550 H 246.371 0.802762 4.16331 0
M  V30 2551 C 244.83 -0.435132 3.34078 0
M  V30 2552 O 245.36 -1.4583 3.74295 0
M  V30 2553 N 243.566 -0.444377 2.87182 0
M  V30 2554 H 243.113 0.388723 2.5465 0
M  V30 2555 H 243.071 -1.31213 2.85711 0
M  V30 2556 N 246.843 -1.10192 1.12674 0
M  V30 2557 C 247.773 -2.18652 0.819362 0
M  V30 2558 C 248.754 -1.68698 -0.217915 0
M  V30 2559 O 249.939 -1.94041 -0.0785581 0
M  V30 2560 C 247.069 -3.46202 0.27594 0
M  V30 2561 C 246.023 -4.09444 1.24656 0
M  V30 2562 C 245.349 -5.31725 0.563258 0
M  V30 2563 C 246.649 -4.52863 2.60217 0
M  V30 2564 H 248.343 -2.44622 1.72628 0
M  V30 2565 H 245.889 -1.17571 0.831451 0
M  V30 2566 H 247.842 -4.21372 0.0486149 0
M  V30 2567 H 246.566 -3.1973 -0.666331 0
M  V30 2568 H 245.225 -3.36284 1.45974 0
M  V30 2569 H 244.873 -5.0153 -0.384235 0
M  V30 2570 H 244.573 -5.74991 1.21075 0
M  V30 2571 H 246.097 -6.09624 0.34503 0
M  V30 2572 H 247.511 -5.19294 2.42913 0
M  V30 2573 H 245.908 -5.06986 3.21068 0
M  V30 2574 H 246.978 -3.65656 3.18471 0
M  V30 2575 N 248.321 -0.919034 -1.28029 0
M  V30 2576 C 249.251 -0.428581 -2.29533 0
M  V30 2577 C 250.232 0.50659 -1.62381 0
M  V30 2578 O 251.417 0.413195 -1.89753 0
M  V30 2579 C 248.547 0.327388 -3.45753 0
M  V30 2580 C 247.501 -0.519137 -4.2484 0
M  V30 2581 C 246.827 0.365486 -5.33449 0
M  V30 2582 C 248.127 -1.77914 -4.91064 0
M  V30 2583 H 249.821 -1.27687 -2.70807 0
M  V30 2584 H 247.367 -0.615428 -1.30186 0
M  V30 2585 H 249.32 0.681378 -4.15855 0
M  V30 2586 H 248.044 1.20963 -3.03374 0
M  V30 2587 H 246.703 -0.855717 -3.56473 0
M  V30 2588 H 246.351 1.24642 -4.87312 0
M  V30 2589 H 246.051 -0.197356 -5.87268 0
M  V30 2590 H 247.575 0.715241 -6.06396 0
M  V30 2591 H 248.989 -1.49374 -5.53498 0
M  V30 2592 H 247.386 -2.2848 -5.54903 0
M  V30 2593 H 248.456 -2.50382 -4.15255 0
M  V30 2594 N 249.799 1.42003 -0.683588 0
M  V30 2595 C 251.027 2.05746 -0.218182 0
M  V30 2596 C 251.442 1.51396 1.12804 0
M  V30 2597 O 250.799 0.657303 1.70252 0
M  V30 2598 C 250.85 3.61171 -0.154131 0
M  V30 2599 O 250.571 4.13508 -1.44716 0
M  V30 2600 C 252.072 4.42042 0.333713 0
M  V30 2601 H 249.292 0.662888 -0.10402 0
M  V30 2602 H 251.836 1.81987 -0.9328 0
M  V30 2603 H 249.991 3.84012 0.511231 0
M  V30 2604 H 250.405 5.07453 -1.32632 0
M  V30 2605 H 251.879 5.51028 0.327423 0
M  V30 2606 H 252.356 4.17269 1.37053 0
M  V30 2607 H 252.962 4.24239 -0.300222 0
M  V30 2608 N 251.277 0.427512 1.51691 0
M  V30 2609 C 252.688 -0.0378867 1.86662 0
M  V30 2610 C 253.039 -1.42819 1.34525 0
M  V30 2611 O 252.164 -2.05037 0.692014 0
M  V30 2612 C 252.759 -0.0755266 3.38716 0
M  V30 2613 C 251.318 -0.485309 3.73258 0
M  V30 2614 C 250.465 0.328399 2.75349 0
M  V30 2615 H 253.416 0.64379 1.45055 0
M  V30 2616 H 253.437 -0.887056 3.70016 0
M  V30 2617 H 252.949 0.936487 3.76632 0
M  V30 2618 H 251.05 -1.50329 3.40928 0
M  V30 2619 H 251.163 -0.21693 4.78609 0
M  V30 2620 H 249.527 -0.211905 2.53817 0
M  V30 2621 H 250.31 1.3391 3.16106 0
M  V30 2622 N 252.755 -1.56801 0.158532 0
M  V30 2623 C 254.001 -1.96781 -0.490405 0
M  V30 2624 C 254.334 -1.04397 -1.63753 0
M  V30 2625 O 253.609 -0.0885805 -1.94298 0
M  V30 2626 C 253.892 -3.4635 -0.985594 0
M  V30 2627 C 253.745 -4.49512 0.160824 0
M  V30 2628 C 255.064 -3.98697 -1.86355 0
M  V30 2629 H 252.183 -0.715482 -0.176788 0
M  V30 2630 H 254.825 -1.88451 0.242088 0
M  V30 2631 H 252.975 -3.53579 -1.60978 0
M  V30 2632 H 254.647 -4.54353 0.797537 0
M  V30 2633 H 252.89 -4.26013 0.818256 0
M  V30 2634 H 253.561 -5.51531 -0.227569 0
M  V30 2635 H 256.037 -3.94019 -1.33746 0
M  V30 2636 H 254.913 -5.03792 -2.17909 0
M  V30 2637 H 255.174 -3.41744 -2.8047 0
M  V30 2638 N 254.233 0.115231 -1.57178 0
M  V30 2639 C 255.482 0.820945 -1.84237 0
M  V30 2640 C 255.795 1.80866 -0.744761 0
M  V30 2641 O 257.001 2.56083 -0.901871 0
M  V30 2642 C 255.457 1.51072 -3.26658 0
M  V30 2643 C 255.065 0.563795 -4.44438 0
M  V30 2644 C 256.809 2.20134 -3.62962 0
M  V30 2645 C 254.716 1.25701 -5.77887 0
M  V30 2646 H 253.646 0.310328 -0.687177 0
M  V30 2647 H 256.297 0.0737134 -1.83352 0
M  V30 2648 H 254.679 2.30471 -3.22024 0
M  V30 2649 H 255.853 -0.197247 -4.60378 0
M  V30 2650 H 254.168 -0.0200638 -4.16395 0
M  V30 2651 H 256.765 2.72696 -4.59936 0
M  V30 2652 H 257.108 2.98107 -2.90582 0
M  V30 2653 H 257.641 1.47619 -3.69396 0
M  V30 2654 H 254.38 0.518493 -6.53446 0
M  V30 2655 H 253.9 1.98997 -5.65827 0
M  V30 2656 H 255.579 1.78915 -6.2177 0
M  V30 2657 N 255.711 1.52812 0.385517 0
M  V30 2658 C 256.621 1.80766 1.49535 0
M  V30 2659 C 257.637 0.694651 1.59532 0
M  V30 2660 O 258.813 0.982611 1.75803 0
M  V30 2661 C 255.878 1.97381 2.85029 0
M  V30 2662 C 254.939 3.21295 2.84724 0
M  V30 2663 C 254.172 3.37108 4.13756 0
M  V30 2664 O 254.395 2.5765 5.08893 0
M  V30 2665 O 253.329 4.30378 4.20783 0
M  V30 2666 H 257.155 2.75015 1.28842 0
M  V30 2667 H 254.74 1.37946 0.573697 0
M  V30 2668 H 256.622 2.09996 3.65349 0
M  V30 2669 H 255.297 1.06322 3.05741 0
M  V30 2670 H 254.204 3.1412 2.03174 0
M  V30 2671 H 255.537 4.12212 2.68965 0
M  V30 2672 N 257.189 -0.644168 1.43834 0
M  V30 2673 C 258.136 -1.75671 1.49694 0
M  V30 2674 C 259.106 -1.6246 0.345809 0
M  V30 2675 O 260.291 -1.82573 0.554234 0
M  V30 2676 C 257.431 -3.13867 1.43463 0
M  V30 2677 C 256.544 -3.38147 2.6885 0
M  V30 2678 C 255.679 -4.66241 2.54544 0
M  V30 2679 C 254.718 -4.83657 3.75157 0
M  V30 2680 N 253.855 -6.03016 3.59605 0
M  V30 2681 H 258.695 -1.69998 2.44754 0
M  V30 2682 H 256.232 -0.829458 1.21484 0
M  V30 2683 H 258.19 -3.9377 1.37843 0
M  V30 2684 H 256.82 -3.18588 0.519783 0
M  V30 2685 H 255.872 -2.52276 2.84712 0
M  V30 2686 H 257.184 -3.46899 3.58417 0
M  V30 2687 H 256.338 -5.54285 2.46683 0
M  V30 2688 H 255.077 -4.59826 1.62516 0
M  V30 2689 H 254.082 -3.94046 3.83416 0
M  V30 2690 H 255.307 -4.91896 4.68204 0
M  V30 2691 H 253.253 -5.97715 2.7032 0
M  V30 2692 H 253.17 -6.12766 4.42779 0
M  V30 2693 H 254.438 -6.93657 3.55613 0
M  V30 2694 N 258.668 -1.30515 -0.883378 0
M  V30 2695 C 259.914 -1.19607 -1.63774 0
M  V30 2696 C 260.247 0.248314 -1.92606 0
M  V30 2697 O 259.522 1.17742 -1.54813 0
M  V30 2698 C 259.805 -2.02669 -2.97653 0
M  V30 2699 C 259.658 -3.55335 -2.75784 0
M  V30 2700 C 260.977 -1.86573 -3.98596 0
M  V30 2701 H 258.096 -0.435856 -0.594305 0
M  V30 2702 H 260.738 -1.60165 -1.02212 0
M  V30 2703 H 258.888 -1.68208 -3.50197 0
M  V30 2704 H 260.56 -3.99863 -2.30016 0
M  V30 2705 H 258.803 -3.79438 -2.1026 0
M  V30 2706 H 259.474 -4.08745 -3.70988 0
M  V30 2707 H 261.95 -2.16703 -3.55217 0
M  V30 2708 H 260.826 -2.47014 -4.90179 0
M  V30 2709 H 261.087 -0.825321 -4.34328 0
M  V30 2710 N 260.146 1.09593 -1.13257 0
M  V30 2711 C 261.093 2.1618 -0.808381 0
M  V30 2712 C 262.063 1.64517 0.228754 0
M  V30 2713 O 263.248 1.9053 0.101381 0
M  V30 2714 C 260.388 3.43973 -0.278675 0
M  V30 2715 C 259.501 4.09545 -1.37466 0
M  V30 2716 C 258.636 5.25088 -0.803479 0
M  V30 2717 C 257.675 5.82579 -1.87799 0
M  V30 2718 N 256.812 6.89486 -1.32488 0
M  V30 2719 H 261.652 2.43254 -1.72138 0
M  V30 2720 H 259.189 1.19392 -0.859294 0
M  V30 2721 H 261.147 4.17174 0.0465583 0
M  V30 2722 H 259.777 3.17223 0.597459 0
M  V30 2723 H 258.829 3.34226 -1.81652 0
M  V30 2724 H 260.141 4.48307 -2.18684 0
M  V30 2725 H 259.295 6.05178 -0.429427 0
M  V30 2726 H 258.034 4.87684 0.0397956 0
M  V30 2727 H 257.039 5.01152 -2.26113 0
M  V30 2728 H 258.264 6.22045 -2.72463 0
M  V30 2729 H 256.21 6.54064 -0.503575 0
M  V30 2730 H 256.127 7.27007 -2.07355 0
M  V30 2731 H 257.395 7.73336 -0.978336 0
M  V30 2732 N 261.624 0.925811 1.2754 0
M  V30 2733 C 263.035 0.610102 1.7645 0
M  V30 2734 C 263.386 -0.874723 1.75622 0
M  V30 2735 O 262.511 -1.68444 1.35851 0
M  V30 2736 C 263.106 1.10073 3.20421 0
M  V30 2737 C 261.665 0.835723 3.67005 0
M  V30 2738 C 260.812 1.26054 2.46993 0
M  V30 2739 H 263.763 1.10579 1.13833 0
M  V30 2740 H 263.784 0.447557 3.77859 0
M  V30 2741 H 263.296 2.18143 3.20991 0
M  V30 2742 H 261.397 -0.231249 3.71882 0
M  V30 2743 H 261.51 1.45193 4.56569 0
M  V30 2744 H 259.874 0.679111 2.45479 0
M  V30 2745 H 260.657 2.34984 2.50275 0
M  V30 2746 N 263.102 -1.41638 0.69111 0
M  V30 2747 C 264.35 -2.00902 0.219758 0
M  V30 2748 C 264.671 -1.54994 -1.18329 0
M  V30 2749 O 263.941 -0.778628 -1.79762 0
M  V30 2750 H 262.521 -0.74289 0.0782558 0
M  V30 2751 H 265.183 -1.73327 0.891271 0
M  V30 2752 H 264.279 -3.11224 0.233708 0
M  V30 2753 N 264.58 -0.43555 -1.51462 0
M  V30 2754 C 265.49 0.383001 -2.31453 0
M  V30 2755 C 266.506 1.02931 -1.4029 0
M  V30 2756 O 267.682 1.02507 -1.73362 0
M  V30 2757 C 264.747 1.47043 -3.13973 0
M  V30 2758 C 263.808 0.844433 -4.20913 0
M  V30 2759 C 263.041 1.88004 -4.9949 0
M  V30 2760 O 263.264 3.10199 -4.78678 0
M  V30 2761 O 262.198 1.47157 -5.83634 0
M  V30 2762 H 266.024 -0.269964 -3.02498 0
M  V30 2763 H 263.609 -0.19813 -1.4808 0
M  V30 2764 H 265.491 2.10113 -3.65281 0
M  V30 2765 H 264.166 2.10751 -2.45695 0
M  V30 2766 H 263.073 0.175729 -3.73687 0
M  V30 2767 H 264.406 0.250869 -4.9156 0
M  V30 2768 N 266.058 1.56714 -0.166846 0
M  V30 2769 C 266.99 2.14914 0.796537 0
M  V30 2770 C 268.003 1.10357 1.19688 0
M  V30 2771 O 269.192 1.37561 1.13751 0
M  V30 2772 C 266.292 2.67326 2.08303 0
M  V30 2773 C 265.465 3.96493 1.84696 0
M  V30 2774 C 264.524 4.34014 2.97521 0
M  V30 2775 O 263.55 5.01973 2.6835 0
M  V30 2776 N 264.752 3.95208 4.25196 0
M  V30 2777 H 267.517 2.98205 0.299006 0
M  V30 2778 H 265.078 1.61892 0.0160839 0
M  V30 2779 H 267.07 2.89428 2.82867 0
M  V30 2780 H 265.64 1.88649 2.4926 0
M  V30 2781 H 264.86 3.82814 0.940602 0
M  V30 2782 H 266.148 4.8086 1.66285 0
M  V30 2783 H 265.546 3.40487 4.51758 0
M  V30 2784 H 264.103 4.2232 4.96477 0
M  V30 2785 N 267.536 -0.106894 1.57237 0
M  V30 2786 C 268.761 -0.830287 1.90055 0
M  V30 2787 C 269.186 -1.72064 0.75998 0
M  V30 2788 O 268.544 -1.78982 -0.288991 0
M  V30 2789 C 268.592 -1.6295 3.21683 0
M  V30 2790 O 267.696 -2.73748 3.08441 0
M  V30 2791 H 267.037 -0.228855 0.623315 0
M  V30 2792 H 269.567 -0.085658 2.04421 0
M  V30 2793 H 269.577 -2.01621 3.54701 0
M  V30 2794 H 268.252 -0.975989 4.04286 0
M  V30 2795 H 266.829 -2.38192 2.86913 0
M  V30 2796 N 269.014 -1.53014 -0.377408 0
M  V30 2797 C 270.261 -1.68623 -1.12128 0
M  V30 2798 C 270.589 -0.431997 -1.89642 0
M  V30 2799 O 269.844 0.585855 -1.86725 0
M  V30 2800 C 270.143 -2.87982 -2.11663 0
M  V30 2801 C 269.809 -4.24964 -1.50719 0
M  V30 2802 C 268.471 -4.62217 -1.33825 0
M  V30 2803 C 270.823 -5.10199 -1.06519 0
M  V30 2804 C 268.151 -5.82352 -0.712963 0
M  V30 2805 C 270.503 -6.30969 -0.453955 0
M  V30 2806 C 269.167 -6.66944 -0.272411 0
M  V30 2807 H 268.437 -0.617034 -0.410305 0
M  V30 2808 H 271.084 -1.8718 -0.404484 0
M  V30 2809 H 269.389 -2.63889 -2.89603 0
M  V30 2810 H 271.086 -2.97253 -2.6915 0
M  V30 2811 H 267.676 -3.95626 -1.64858 0
M  V30 2812 H 271.86 -4.81978 -1.18368 0
M  V30 2813 H 267.116 -6.08824 -0.560611 0
M  V30 2814 H 271.29 -6.96324 -0.103217 0
M  V30 2815 H 268.917 -7.59898 0.214181 0
M  V30 2816 N 270.492 0.636531 -1.44174 0
M  V30 2817 C 271.738 1.39826 -1.4689 0
M  V30 2818 C 272.071 1.93947 -0.0990585 0
M  V30 2819 O 271.346 1.73325 0.882544 0
M  V30 2820 C 271.629 2.56751 -2.5249 0
M  V30 2821 C 271.482 2.08014 -3.98811 0
M  V30 2822 C 272.801 3.58946 -2.54649 0
M  V30 2823 H 269.92 0.507075 -0.53483 0
M  V30 2824 H 272.562 0.720188 -1.75822 0
M  V30 2825 H 270.712 3.14597 -2.2795 0
M  V30 2826 H 272.384 1.5504 -4.34466 0
M  V30 2827 H 270.627 1.39242 -4.10846 0
M  V30 2828 H 271.298 2.92169 -4.68339 0
M  V30 2829 H 273.774 3.1089 -2.76563 0
M  V30 2830 H 272.65 4.38286 -3.3045 0
M  V30 2831 H 272.911 4.12655 -1.58646 0
M  V30 2832 N 271.97 1.30982 0.876444 0
M  V30 2833 C 273.218 1.20058 1.62575 0
M  V30 2834 C 273.539 -0.242947 1.93481 0
M  V30 2835 O 272.809 -1.1619 1.57724 0
M  V30 2836 H 271.389 0.44135 0.602677 0
M  V30 2837 H 274.051 1.64222 1.04962 0
M  V30 2838 H 273.147 1.76762 2.57219 0
M  V30 2839 N 273.449 -1.08991 1.13837 0
M  V30 2840 C 274.381 -2.15606 0.777612 0
M  V30 2841 C 275.394 -1.61533 -0.202739 0
M  V30 2842 O 276.583 -1.78491 0.0181055 0
M  V30 2843 C 273.683 -3.3864 0.132623 0
M  V30 2844 C 272.856 -4.22115 1.1462 0
M  V30 2845 C 271.915 -5.23564 0.526074 0
M  V30 2846 O 270.941 -5.56678 1.18735 0
M  V30 2847 N 272.143 -5.76266 -0.699866 0
M  V30 2848 H 274.908 -2.47159 1.69506 0
M  V30 2849 H 272.469 -1.24747 1.03198 0
M  V30 2850 H 274.461 -4.03626 -0.29459 0
M  V30 2851 H 273.031 -3.04938 -0.687849 0
M  V30 2852 H 272.251 -3.53199 1.75055 0
M  V30 2853 H 273.539 -4.74709 1.83109 0
M  V30 2854 H 272.937 -5.51585 -1.25581 0
M  V30 2855 H 271.494 -6.42963 -1.06968 0
M  V30 2856 N 274.927 -0.932562 -1.27047 0
M  V30 2857 C 275.877 -0.406392 -2.24349 0
M  V30 2858 C 276.861 0.492066 -1.53191 0
M  V30 2859 O 278.053 0.328717 -1.73921 0
M  V30 2860 C 275.182 0.335214 -3.41659 0
M  V30 2861 C 274.268 -0.58004 -4.20115 0
M  V30 2862 N 274.659 -1.70203 -4.76303 0
M  V30 2863 C 272.957 -0.383974 -4.44344 0
M  V30 2864 C 273.658 -2.27167 -5.35509 0
M  V30 2865 N 272.634 -1.56068 -5.20715 0
M  V30 2866 H 276.436 -1.26299 -2.65378 0
M  V30 2867 H 273.95 -0.787408 -1.42034 0
M  V30 2868 H 275.947 0.729142 -4.10474 0
M  V30 2869 H 274.607 1.18868 -3.0216 0
M  V30 2870 H 275.618 -2.08433 -4.74106 0
M  V30 2871 H 272.295 0.428436 -4.15296 0
M  V30 2872 H 273.685 -3.21654 -5.89905 0
M  V30 2873 N 276.405 1.4127 -0.698611 0
M  V30 2874 C 277.368 2.29158 -0.044132 0
M  V30 2875 C 278.368 1.44529 0.704841 0
M  V30 2876 O 279.558 1.65643 0.539276 0
M  V30 2877 C 276.69 3.27459 0.947809 0
M  V30 2878 H 277.883 2.88529 -0.817994 0
M  V30 2879 H 275.436 1.49307 -0.46228 0
M  V30 2880 H 276.171 2.73073 1.74933 0
M  V30 2881 H 275.956 3.8991 0.41385 0
M  V30 2882 H 277.446 3.93311 1.40344 0
M  V30 2883 N 277.883 0.443576 1.51229 0
M  V30 2884 C 278.846 -0.353132 2.26463 0
M  V30 2885 C 279.846 -0.944338 1.3015 0
M  V30 2886 O 281.036 -0.817813 1.5381 0
M  V30 2887 C 278.168 -1.50023 3.06114 0
M  V30 2888 H 279.361 0.3063 2.98332 0
M  V30 2889 H 276.914 0.196902 1.55055 0
M  V30 2890 H 277.649 -2.19553 2.38677 0
M  V30 2891 H 277.434 -1.08241 3.76864 0
M  V30 2892 H 278.924 -2.06296 3.63087 0
M  V30 2893 N 279.361 -1.56624 0.175154 0
M  V30 2894 C 280.589 -2.01374 -0.474971 0
M  V30 2895 C 281.004 -1.05537 -1.56548 0
M  V30 2896 O 280.361 -0.0568668 -1.82411 0
M  V30 2897 C 280.412 -3.45923 -1.04975 0
M  V30 2898 O 280.133 -4.381 -0.00276605 0
M  V30 2899 C 281.634 -4.06093 -1.77773 0
M  V30 2900 H 278.854 -0.659962 -0.121206 0
M  V30 2901 H 281.398 -2.02601 0.27801 0
M  V30 2902 H 279.553 -3.45458 -1.75321 0
M  V30 2903 H 279.967 -5.22753 -0.427681 0
M  V30 2904 H 281.441 -5.09147 -2.13245 0
M  V30 2905 H 281.918 -3.48405 -2.67414 0
M  V30 2906 H 282.524 -4.10272 -1.12059 0
M  V30 2907 N 280.839 0.0985539 -1.57292 0
M  V30 2908 C 282.087 0.801092 -1.85545 0
M  V30 2909 C 282.408 1.79438 -0.763353 0
M  V30 2910 O 281.678 1.94763 0.21073 0
M  V30 2911 H 280.258 0.29884 -0.684619 0
M  V30 2912 H 282.92 0.0810064 -1.94732 0
M  V30 2913 H 282.016 1.3338 -2.82163 0
M  V30 2914 N 282.317 1.53212 0.369288 0
M  V30 2915 C 283.557 1.70915 1.12105 0
M  V30 2916 C 283.921 0.449444 1.86665 0
M  V30 2917 O 285.122 0.503105 2.6405 0
M  V30 2918 C 283.393 2.9222 2.05772 0
M  V30 2919 S 284.952 3.30609 2.88519 0
M  V30 2920 H 281.77 0.601445 0.379189 0
M  V30 2921 H 284.372 1.91306 0.402794 0
M  V30 2922 H 283.076 3.82103 1.49752 0
M  V30 2923 H 282.607 2.7422 2.82076 0
M  V30 2924 H 284.622 2.82333 4.08047 0
M  V30 2925 N 283.795 -0.628877 1.44509 0
M  V30 2926 C 285.041 -1.39045 1.47629 0
M  V30 2927 C 285.374 -1.93892 0.109343 0
M  V30 2928 O 284.649 -1.7379 -0.87334 0
M  V30 2929 C 284.932 -2.55408 2.53848 0
M  V30 2930 C 284.785 -2.05896 3.99909 0
M  V30 2931 C 286.104 -3.5759 2.56549 0
M  V30 2932 H 283.223 -0.504232 0.537512 0
M  V30 2933 H 285.865 -0.710854 1.76201 0
M  V30 2934 H 284.015 -3.13384 2.29615 0
M  V30 2935 H 285.687 -1.52734 4.35282 0
M  V30 2936 H 283.93 -1.37061 4.11578 0
M  V30 2937 H 284.601 -2.89681 4.69882 0
M  V30 2938 H 287.077 -3.09419 2.78207 0
M  V30 2939 H 285.953 -4.36527 3.32769 0
M  V30 2940 H 286.214 -4.11808 1.60832 0
M  V30 2941 N 285.273 -1.31445 -0.869486 0
M  V30 2942 C 286.236 -1.19094 -1.9583 0
M  V30 2943 C 287.236 -0.117906 -1.60367 0
M  V30 2944 O 288.426 -0.367208 -1.70286 0
M  V30 2945 C 285.558 -0.828165 -3.30688 0
M  V30 2946 H 286.751 -2.15842 -2.08212 0
M  V30 2947 H 284.304 -1.15063 -1.05784 0
M  V30 2948 H 285.039 0.138142 -3.24006 0
M  V30 2949 H 284.824 -1.6038 -3.578 0
M  V30 2950 H 286.314 -0.765658 -4.10521 0
M  V30 2951 N 286.751 1.08385 -1.14413 0
M  V30 2952 C 287.979 1.84517 -0.936001 0
M  V30 2953 C 288.394 1.81626 0.515503 0
M  V30 2954 O 287.751 1.22008 1.35721 0
M  V30 2955 C 287.802 3.32049 -1.42918 0
M  V30 2956 O 287.523 3.34951 -2.82381 0
M  V30 2957 C 289.024 4.24986 -1.26103 0
M  V30 2958 H 286.244 0.582491 -0.333084 0
M  V30 2959 H 288.788 1.36885 -1.5193 0
M  V30 2960 H 286.943 3.7707 -0.888641 0
M  V30 2961 H 287.357 4.27048 -3.04517 0
M  V30 2962 H 288.831 5.26615 -1.6547 0
M  V30 2963 H 289.308 4.38726 -0.20392 0
M  V30 2964 H 289.914 3.85791 -1.79012 0
M  V30 2965 N 288.23 0.939286 1.26551 0
M  V30 2966 C 289.193 0.451987 2.24699 0
M  V30 2967 C 290.193 -0.435869 1.5478 0
M  V30 2968 O 291.383 -0.235314 1.72603 0
M  V30 2969 C 288.515 -0.348801 3.39111 0
M  V30 2970 H 289.708 1.3193 2.69322 0
M  V30 2971 H 287.261 0.721072 1.38673 0
M  V30 2972 H 287.996 -1.23444 2.99887 0
M  V30 2973 H 287.781 0.287945 3.91041 0
M  V30 2974 H 289.271 -0.679726 4.12031 0
M  V30 2975 N 289.708 -1.40897 0.706093 0
M  V30 2976 C 290.936 -2.05373 0.250887 0
M  V30 2977 C 291.351 -1.53172 -1.10381 0
M  V30 2978 O 290.708 -0.684305 -1.69185 0
M  V30 2979 C 290.759 -3.6088 0.211571 0
M  V30 2980 O 290.48 -4.11153 1.51276 0
M  V30 2981 C 291.981 -4.42517 -0.263346 0
M  V30 2982 H 289.201 -0.66115 0.114552 0
M  V30 2983 H 291.745 -1.80479 0.961635 0
M  V30 2984 H 289.9 -3.84777 -0.450073 0
M  V30 2985 H 290.314 -5.05279 1.40689 0
M  V30 2986 H 291.788 -5.51479 -0.239718 0
M  V30 2987 H 292.265 -4.19396 -1.30397 0
M  V30 2988 H 292.871 -4.23708 0.367677 0
M  V30 2989 N 291.186 -0.45159 -1.50991 0
M  V30 2990 C 292.149 0.341117 -2.26647 0
M  V30 2991 C 293.149 0.937422 -1.30649 0
M  V30 2992 O 294.339 0.809644 -1.54241 0
M  V30 2993 C 291.471 1.48398 -3.06905 0
M  V30 2994 H 292.664 -0.322117 -2.98165 0
M  V30 2995 H 290.217 -0.205122 -1.54948 0
M  V30 2996 H 290.952 2.18284 -2.39838 0
M  V30 2997 H 290.737 1.06241 -3.77432 0
M  V30 2998 H 292.227 2.04367 -3.64176 0
M  V30 2999 N 292.664 1.56529 -0.183458 0
M  V30 3000 C 293.596 2.15747 0.773697 0
M  V30 3001 C 294.609 1.1162 1.1851 0
M  V30 3002 O 295.798 1.3876 1.12285 0
M  V30 3003 C 292.898 2.6952 2.05456 0
M  V30 3004 C 292.071 3.98429 1.8048 0
M  V30 3005 C 291.13 4.37145 2.92901 0
M  V30 3006 O 290.156 5.04791 2.6301 0
M  V30 3007 N 291.358 3.99695 4.2098 0
M  V30 3008 H 294.123 2.98505 0.26736 0
M  V30 3009 H 291.684 1.619 -0.0010878 0
M  V30 3010 H 293.676 2.92412 2.79781 0
M  V30 3011 H 292.246 1.91282 2.47245 0
M  V30 3012 H 291.466 3.8379 0.899947 0
M  V30 3013 H 292.754 4.82597 1.61175 0
M  V30 3014 H 292.152 3.4526 4.48121 0
M  V30 3015 H 290.709 4.27562 4.9197 0
M  V30 3016 N 294.142 -0.090211 1.57342 0
M  V30 3017 C 295.391 -0.791531 1.8552 0
M  V30 3018 C 295.704 -1.79659 0.773441 0
M  V30 3019 O 296.91 -2.54616 0.942497 0
M  V30 3020 C 295.366 -1.45856 3.2902 0
M  V30 3021 C 294.974 -0.493017 4.45279 0
M  V30 3022 C 296.718 -2.14332 3.66418 0
M  V30 3023 C 294.625 -1.16491 5.79814 0
M  V30 3024 H 293.555 -0.299356 0.692027 0
M  V30 3025 H 296.206 -0.0445343 1.83446 0
M  V30 3026 H 294.588 -2.25318 3.2565 0
M  V30 3027 H 295.762 0.270464 4.60006 0
M  V30 3028 H 294.077 0.0863061 4.16311 0
M  V30 3029 H 296.674 -2.65344 4.64216 0
M  V30 3030 H 297.017 -2.93447 2.95287 0
M  V30 3031 H 297.55 -1.41724 3.71698 0
M  V30 3032 H 294.289 -0.41447 6.54188 0
M  V30 3033 H 293.809 -1.8997 5.68921 0
M  V30 3034 H 295.488 -1.69001 6.24538 0
M  V30 3035 N 295.62 -1.53406 -0.361157 0
M  V30 3036 C 296.553 -1.74946 -1.46524 0
M  V30 3037 C 297.531 -0.59795 -1.51206 0
M  V30 3038 O 298.715 -0.831062 -1.69191 0
M  V30 3039 C 295.842 -1.83224 -2.84863 0
M  V30 3040 C 294.888 -3.05233 -2.97885 0
M  V30 3041 S 295.721 -4.6466 -2.66179 0
M  V30 3042 C 296.877 -4.75793 -4.06659 0
M  V30 3043 H 297.11 -2.68319 -1.28033 0
M  V30 3044 H 294.643 -1.44051 -0.555764 0
M  V30 3045 H 296.601 -1.88679 -3.64569 0
M  V30 3046 H 295.262 -0.908948 -3.00661 0
M  V30 3047 H 294.455 -3.07648 -3.9921 0
M  V30 3048 H 294.057 -2.97913 -2.26106 0
M  V30 3049 H 296.349 -4.5612 -5.0096 0
M  V30 3050 H 297.292 -5.7786 -4.09247 0
M  V30 3051 H 297.7 -4.04389 -3.93865 0
M  V30 3052 N 297.098 0.621204 -1.44841 0
M  V30 3053 C 298.045 1.73267 -1.5247 0
M  V30 3054 C 299.015 1.6189 -0.371611 0
M  V30 3055 O 300.2 1.81668 -0.58321 0
M  V30 3056 C 297.34 3.11545 -1.48438 0
M  V30 3057 C 296.453 3.33827 -2.74196 0
M  V30 3058 C 295.588 4.62133 -2.61929 0
M  V30 3059 C 294.627 4.77627 -3.82804 0
M  V30 3060 N 293.764 5.97219 -3.69153 0
M  V30 3061 H 298.604 1.66082 -2.47428 0
M  V30 3062 H 296.141 0.810026 -1.22788 0
M  V30 3063 H 298.099 3.91528 -1.4409 0
M  V30 3064 H 296.729 3.1772 -0.570402 0
M  V30 3065 H 295.781 2.47715 -2.88689 0
M  V30 3066 H 297.093 3.41153 -3.6389 0
M  V30 3067 H 296.247 5.50291 -2.5547 0
M  V30 3068 H 294.986 4.57182 -1.69811 0
M  V30 3069 H 293.991 3.87896 -3.89637 0
M  V30 3070 H 295.216 4.84385 -4.75971 0
M  V30 3071 H 293.162 5.93339 -2.79794 0
M  V30 3072 H 293.079 6.05644 -4.52472 0
M  V30 3073 H 294.347 6.87912 -3.66603 0
M  V30 3074 N 298.576 1.31904 0.862503 0
M  V30 3075 C 299.806 1.24817 1.64634 0
M  V30 3076 C 300.214 -0.187579 1.88268 0
M  V30 3077 O 299.557 -1.13253 1.44635 0
M  V30 3078 C 299.619 1.92996 3.03303 0
M  V30 3079 C 299.283 3.42336 3.02746 0
M  V30 3080 C 300.28 4.37956 2.80162 0
M  V30 3081 C 297.965 3.84147 3.2363 0
M  V30 3082 C 299.959 5.73361 2.78453 0
M  V30 3083 C 297.646 5.19663 3.21549 0
M  V30 3084 C 298.644 6.14081 2.98988 0
M  V30 3085 O 298.332 7.47118 2.96766 0
M  V30 3086 H 298.064 0.432222 0.519769 0
M  V30 3087 H 300.618 1.7445 1.08427 0
M  V30 3088 H 298.848 1.37922 3.61268 0
M  V30 3089 H 300.537 1.79723 3.63943 0
M  V30 3090 H 301.303 4.06981 2.63802 0
M  V30 3091 H 297.182 3.11083 3.40218 0
M  V30 3092 H 300.726 6.4703 2.60763 0
M  V30 3093 H 296.623 5.5027 3.37451 0
M  V30 3094 H 297.391 7.56382 3.12775 0
M  V30 3095 N 300.054 -1.07777 1.14986 0
M  V30 3096 C 301.004 -2.13082 0.811181 0
M  V30 3097 C 301.988 -1.59619 -0.202597 0
M  V30 3098 O 303.18 -1.77 -0.00398275 0
M  V30 3099 C 300.309 -3.42009 0.297439 0
M  V30 3100 C 299.395 -4.02337 1.34112 0
M  V30 3101 N 299.786 -4.36982 2.54716 0
M  V30 3102 C 298.084 -4.29752 1.19285 0
M  V30 3103 C 298.785 -4.84729 3.21578 0
M  V30 3104 N 297.761 -4.83233 2.48972 0
M  V30 3105 H 301.563 -2.37696 1.72853 0
M  V30 3106 H 299.077 -1.25173 1.03468 0
M  V30 3107 H 301.074 -4.16884 0.0364777 0
M  V30 3108 H 299.734 -3.18841 -0.614022 0
M  V30 3109 H 300.745 -4.27807 2.91894 0
M  V30 3110 H 297.422 -4.16106 0.340926 0
M  V30 3111 H 298.812 -5.20863 4.24442 0
M  V30 3112 N 301.532 -0.945985 -1.26051 0
M  V30 3113 C 302.48 -0.450259 -2.282 0
M  V30 3114 C 303.474 0.47497 -1.62605 0
M  V30 3115 O 304.68 0.352653 -1.76512 0
M  V30 3116 H 301.055 -0.127081 -0.741184 0
M  V30 3117 H 303.026 -1.32422 -2.67408 0
M  V30 3118 C 301.775 0.26467 -3.46691 0
M  V30 3119 H 301.098 -0.438123 -3.97392 0
M  V30 3120 H 302.538 0.575678 -4.20074 0
M  V30 3121 C 300.997 1.48416 -3.02447 0
M  V30 3122 O 301.527 2.58227 -3.07704 0
M  V30 3123 N 299.733 1.34243 -2.57735 0
M  V30 3124 H 299.28 0.448994 -2.53657 0
M  V30 3125 H 299.238 2.15957 -2.28495 0
M  V30 3126 N 303.011 1.40521 -0.713556 0
M  V30 3127 C 304.241 2.0494 -0.261395 0
M  V30 3128 C 304.649 1.53861 1.10107 0
M  V30 3129 O 303.992 0.689321 1.70276 0
M  V30 3130 C 304.054 3.59138 -0.161227 0
M  V30 3131 C 303.718 4.33096 -1.45865 0
M  V30 3132 C 304.715 4.61182 -2.40016 0
M  V30 3133 C 302.4 4.72043 -1.71701 0
M  V30 3134 C 304.394 5.27196 -3.58251 0
M  V30 3135 C 302.081 5.37789 -2.90218 0
M  V30 3136 C 303.079 5.65295 -3.83315 0
M  V30 3137 O 302.767 6.29683 -4.99754 0
M  V30 3138 H 302.499 0.666041 -0.115608 0
M  V30 3139 H 305.053 1.80954 -0.971849 0
M  V30 3140 H 303.283 3.81936 0.605153 0
M  V30 3141 H 304.972 4.05091 0.256105 0
M  V30 3142 H 305.738 4.31559 -2.21318 0
M  V30 3143 H 301.617 4.50003 -1.00092 0
M  V30 3144 H 305.161 5.48582 -4.30934 0
M  V30 3145 H 301.058 5.66831 -3.08825 0
M  V30 3146 H 301.826 6.4818 -4.99805 0
M  V30 3147 N 304.489 0.459591 1.5075 0
M  V30 3148 C 305.9 0.00171547 1.867 0
M  V30 3149 C 306.251 -1.39934 1.37525 0
M  V30 3150 O 305.376 -2.03523 0.735349 0
M  V30 3151 C 305.971 -0.00366298 3.388 0
M  V30 3152 C 304.53 -0.406026 3.74204 0
M  V30 3153 C 303.677 0.38673 2.7459 0
M  V30 3154 H 306.628 0.674413 1.43657 0
M  V30 3155 H 306.649 -0.808371 3.71814 0
M  V30 3156 H 306.161 1.01617 3.74561 0
M  V30 3157 H 304.262 -1.43063 3.4404 0
M  V30 3158 H 304.375 -0.115362 4.78961 0
M  V30 3159 H 302.739 -0.158019 2.54209 0
M  V30 3160 H 303.522 1.40585 3.13194 0
M  V30 3161 N 305.967 -1.56429 0.191757 0
M  V30 3162 C 306.915 -2.20273 -0.747174 0
M  V30 3163 C 307.909 -1.17288 -1.22229 0
M  V30 3164 O 309.115 -1.35441 -1.18557 0
M  V30 3165 H 305.49 -0.705885 -0.259289 0
M  V30 3166 H 307.461 -2.97826 -0.184963 0
M  V30 3167 C 306.21 -2.87356 -1.95759 0
M  V30 3168 H 305.533 -3.66341 -1.60106 0
M  V30 3169 H 306.973 -3.3547 -2.59299 0
M  V30 3170 C 305.432 -1.88213 -2.79423 0
M  V30 3171 O 305.962 -1.38033 -3.7724 0
M  V30 3172 N 304.168 -1.56516 -2.44849 0
M  V30 3173 H 303.715 -1.97516 -1.65364 0
M  V30 3174 H 303.673 -0.904369 -3.01112 0
M  V30 3175 N 307.445 0.0818655 -1.57387 0
M  V30 3176 C 308.392 1.09834 -2.0299 0
M  V30 3177 C 309.362 1.39043 -0.908639 0
M  V30 3178 O 310.547 1.50282 -1.17559 0
M  V30 3179 C 307.687 2.40971 -2.47037 0
M  V30 3180 C 306.8 2.18379 -3.7274 0
M  V30 3181 C 305.935 3.43008 -4.0561 0
M  V30 3182 C 304.974 3.15736 -5.24383 0
M  V30 3183 N 304.111 4.32667 -5.52941 0
M  V30 3184 H 308.951 0.702472 -2.89602 0
M  V30 3185 H 306.488 0.33531 -1.43227 0
M  V30 3186 H 308.446 3.1752 -2.70623 0
M  V30 3187 H 307.076 2.78379 -1.63417 0
M  V30 3188 H 306.128 1.32569 -3.56552 0
M  V30 3189 H 307.44 1.94227 -4.59431 0
M  V30 3190 H 306.594 4.27958 -4.30043 0
M  V30 3191 H 305.333 3.70225 -3.17466 0
M  V30 3192 H 304.338 2.2918 -4.99757 0
M  V30 3193 H 305.563 2.8985 -6.14136 0
M  V30 3194 H 303.509 4.59935 -4.67756 0
M  V30 3195 H 303.426 4.11753 -6.34031 0
M  V30 3196 H 304.694 5.18644 -5.81918 0
M  V30 3197 N 308.923 1.53595 0.353017 0
M  V30 3198 C 310.171 1.70049 1.09215 0
M  V30 3199 C 310.492 0.461406 1.89463 0
M  V30 3200 O 309.762 -0.524633 1.88744 0
M  V30 3201 H 308.342 0.626912 0.40619 0
M  V30 3202 H 311.004 1.90822 0.396585 0
M  V30 3203 H 310.1 2.56718 1.77488 0
M  V30 3204 N 310.401 -0.613514 1.45168 0
M  V30 3205 C 311.331 -1.7354 1.56225 0
M  V30 3206 C 312.312 -1.64981 0.41414 0
M  V30 3207 O 313.497 -1.83472 0.636526 0
M  V30 3208 C 310.627 -3.12128 1.52295 0
M  V30 3209 C 309.581 -3.35491 2.65762 0
M  V30 3210 C 308.907 -4.74291 2.46885 0
M  V30 3211 C 310.207 -3.26325 4.0781 0
M  V30 3212 H 311.901 -1.64543 2.50132 0
M  V30 3213 H 309.447 -0.790185 1.20383 0
M  V30 3214 H 311.4 -3.90404 1.58628 0
M  V30 3215 H 310.124 -3.2195 0.549139 0
M  V30 3216 H 308.783 -2.59603 2.58847 0
M  V30 3217 H 308.431 -4.80839 1.47657 0
M  V30 3218 H 308.131 -4.9088 3.22972 0
M  V30 3219 H 309.655 -5.54775 2.55063 0
M  V30 3220 H 311.069 -3.94483 4.16 0
M  V30 3221 H 309.466 -3.54445 4.8424 0
M  V30 3222 H 310.536 -2.23855 4.30136 0
M  V30 3223 N 311.879 -1.3236 -0.855495 0
M  V30 3224 C 312.826 -1.21225 -1.964 0
M  V30 3225 C 313.796 -0.0946204 -1.6583 0
M  V30 3226 O 314.981 -0.27002 -1.8888 0
M  V30 3227 C 312.121 -0.940419 -3.32039 0
M  V30 3228 C 311.234 -2.14276 -3.75113 0
M  V30 3229 C 310.369 -1.80648 -4.9954 0
M  V30 3230 C 309.408 -2.97208 -5.35102 0
M  V30 3231 N 308.545 -2.63678 -6.50706 0
M  V30 3232 H 313.385 -2.16042 -2.05255 0
M  V30 3233 H 310.922 -1.07451 -1.00463 0
M  V30 3234 H 312.88 -0.763311 -4.10158 0
M  V30 3235 H 311.51 -0.0290413 -3.22787 0
M  V30 3236 H 310.562 -2.43017 -2.92655 0
M  V30 3237 H 311.874 -3.01468 -3.97389 0
M  V30 3238 H 311.028 -1.59484 -5.85363 0
M  V30 3239 H 309.767 -0.906678 -4.79198 0
M  V30 3240 H 308.772 -3.19004 -4.47791 0
M  V30 3241 H 309.997 -3.87918 -5.57401 0
M  V30 3242 H 307.943 -1.76238 -6.31883 0
M  V30 3243 H 307.86 -3.444 -6.72997 0
M  V30 3244 H 309.128 -2.45942 -7.39684 0
M  V30 3245 N 313.357 1.07166 -1.15556 0
M  V30 3246 C 314.634 1.76546 -0.842069 0
M  V30 3247 C 315.014 2.00453 0.661939 0
M  V30 3248 O 314.362 1.62452 1.60691 0
M  V30 3249 C 314.572 3.07266 -1.65495 0
M  V30 3250 C 315.92 3.81578 -1.86234 0
M  V30 3251 O 316.944 3.17083 -1.62287 0
M  V30 3252 O 315.803 4.97419 -2.26355 0
M  V30 3253 H 312.897 0.766756 -0.309862 0
M  V30 3254 H 315.443 1.13514 -1.26145 0
M  V30 3255 H 314.215 2.85494 -2.67598 0
M  V30 3256 H 313.838 3.7803 -1.23203 0
M  V30 3257 N 314.835 0.952656 1.25548 0
M  V30 3258 C 316.065 0.622592 1.96996 0
M  V30 3259 C 316.473 -0.809112 1.71026 0
M  V30 3260 O 315.816 -1.55258 0.981861 0
M  V30 3261 C 315.878 0.798946 3.5051 0
M  V30 3262 C 315.542 2.20744 4.00151 0
M  V30 3263 C 316.539 3.18394 4.11001 0
M  V30 3264 C 314.224 2.5311 4.33867 0
M  V30 3265 C 316.218 4.46504 4.54877 0
M  V30 3266 C 313.905 3.8145 4.7743 0
M  V30 3267 C 314.903 4.77959 4.87897 0
M  V30 3268 O 314.591 6.04012 5.30494 0
M  V30 3269 H 314.323 0.232503 0.634758 0
M  V30 3270 H 316.877 1.2789 1.60728 0
M  V30 3271 H 315.107 0.0854903 3.86605 0
M  V30 3272 H 316.796 0.47023 4.03167 0
M  V30 3273 H 317.562 2.94715 3.85186 0
M  V30 3274 H 313.441 1.78719 4.24948 0
M  V30 3275 H 316.985 5.21835 4.62962 0
M  V30 3276 H 312.882 4.04936 5.0269 0
M  V30 3277 H 313.65 6.0736 5.48685 0
M  V30 3278 N 316.313 -1.40141 0.720998 0
M  V30 3279 C 317.541 -2.05096 0.272656 0
M  V30 3280 C 317.956 -1.54334 -1.0875 0
M  V30 3281 O 317.313 -0.702211 -1.6845 0
M  V30 3282 C 317.364 -3.60636 0.249835 0
M  V30 3283 O 317.085 -4.09526 1.55629 0
M  V30 3284 C 318.586 -4.42772 -0.216396 0
M  V30 3285 H 315.806 -0.659897 0.121558 0
M  V30 3286 H 318.35 -1.79449 0.980723 0
M  V30 3287 H 316.505 -3.85232 -0.409237 0
M  V30 3288 H 316.919 -5.03758 1.4604 0
M  V30 3289 H 318.393 -5.51702 -0.181212 0
M  V30 3290 H 318.87 -4.20756 -1.25941 0
M  V30 3291 H 319.476 -4.23294 0.412596 0
M  V30 3292 N 317.792 -0.46758 -1.50504 0
M  V30 3293 C 319.022 0.086288 -2.0642 0
M  V30 3294 C 319.43 1.34369 -1.33197 0
M  V30 3295 O 318.773 1.79431 -0.393747 0
M  V30 3296 C 318.835 0.443846 -3.5675 0
M  V30 3297 C 318.499 -0.711035 -4.51435 0
M  V30 3298 C 319.496 -1.59205 -4.94924 0
M  V30 3299 C 317.181 -0.900363 -4.94165 0
M  V30 3300 C 319.175 -2.64683 -5.79846 0
M  V30 3301 C 316.862 -1.95837 -5.7887 0
M  V30 3302 C 317.86 -2.82997 -6.21612 0
M  V30 3303 O 317.548 -3.86977 -7.0463 0
M  V30 3304 H 317.28 -0.00217814 -0.675996 0
M  V30 3305 H 319.834 -0.654346 -1.94698 0
M  V30 3306 H 318.064 1.23762 -3.6636 0
M  V30 3307 H 319.753 0.932386 -3.95046 0
M  V30 3308 H 320.519 -1.45745 -4.62583 0
M  V30 3309 H 316.398 -0.231427 -4.60419 0
M  V30 3310 H 319.942 -3.32745 -6.13128 0
M  V30 3311 H 315.839 -2.09305 -6.10624 0
M  V30 3312 H 316.607 -3.83923 -7.22873 0
M  V30 3313 N 319.27 1.56325 -0.20005 0
M  V30 3314 C 320.498 2.02105 0.442874 0
M  V30 3315 C 320.913 1.08014 1.5485 0
M  V30 3316 O 320.27 0.0858797 1.82298 0
M  V30 3317 C 320.321 3.47549 0.994583 0
M  V30 3318 O 320.042 4.38049 -0.0669322 0
M  V30 3319 C 321.543 4.0887 1.7129 0
M  V30 3320 H 318.763 0.661807 0.110691 0
M  V30 3321 H 321.307 2.02134 -0.310207 0
M  V30 3322 H 319.462 3.48204 1.69803 0
M  V30 3323 H 319.876 5.23368 0.344462 0
M  V30 3324 H 321.35 5.12475 2.05118 0
M  V30 3325 H 321.827 3.52615 2.61838 0
M  V30 3326 H 322.433 4.12002 1.05518 0
M  V30 3327 N 320.748 -0.0735177 1.57428 0
M  V30 3328 C 321.678 -1.0879 2.06608 0
M  V30 3329 C 322.659 -1.40473 0.959237 0
M  V30 3330 O 323.844 -1.5013 1.23185 0
M  V30 3331 C 320.974 -2.40183 2.50857 0
M  V30 3332 C 319.928 -2.22858 3.65402 0
M  V30 3333 C 319.254 -3.59619 3.957 0
M  V30 3334 C 320.554 -1.65123 4.95511 0
M  V30 3335 H 322.248 -0.678673 2.91607 0
M  V30 3336 H 319.794 -0.325013 1.40284 0
M  V30 3337 H 321.747 -3.11437 2.83874 0
M  V30 3338 H 320.471 -2.83083 1.62885 0
M  V30 3339 H 319.13 -1.54045 3.32664 0
M  V30 3340 H 318.778 -4.00086 3.04861 0
M  V30 3341 H 318.478 -3.48866 4.72828 0
M  V30 3342 H 320.002 -4.32306 4.31212 0
M  V30 3343 H 321.416 -2.26241 5.26771 0
M  V30 3344 H 319.813 -1.65071 5.7695 0
M  V30 3345 H 320.883 -0.612559 4.81015 0
M  V30 3346 N 322.226 -1.5378 -0.344866 0
M  V30 3347 C 323.451 -1.75211 -1.10977 0
M  V30 3348 C 323.876 -0.48936 -1.81623 0
M  V30 3349 O 323.234 0.557925 -1.72502 0
M  V30 3350 C 323.282 -2.93147 -2.09993 0
M  V30 3351 O 322.386 -2.63203 -3.17487 0
M  V30 3352 H 321.727 -0.581241 -0.321021 0
M  V30 3353 H 324.257 -2.00738 -0.395661 0
M  V30 3354 H 324.267 -3.19898 -2.53237 0
M  V30 3355 H 322.942 -3.84731 -1.5797 0
M  V30 3356 H 321.519 -2.47336 -2.79069 0
M  V30 3357 N 323.704 0.605807 -1.45491 0
M  V30 3358 C 324.929 1.39625 -1.53361 0
M  V30 3359 C 325.354 1.87351 -0.167645 0
M  V30 3360 O 324.712 1.60243 0.848051 0
M  V30 3361 C 324.76 2.57559 -2.5238 0
M  V30 3362 O 323.864 3.58248 -2.04285 0
M  V30 3363 H 323.205 0.416771 -0.516912 0
M  V30 3364 H 325.735 0.737103 -1.90861 0
M  V30 3365 H 325.745 3.0478 -2.71244 0
M  V30 3366 H 324.42 2.22171 -3.51586 0
M  V30 3367 H 322.997 3.17664 -1.95305 0
M  V30 3368 N 325.182 1.32811 0.848464 0
M  V30 3369 C 326.13 1.22231 1.97895 0
M  V30 3370 C 327.124 0.125749 1.68933 0
M  V30 3371 O 328.33 0.289083 1.77663 0
M  V30 3372 H 324.705 0.379058 0.649476 0
M  V30 3373 H 326.676 2.17828 2.03945 0
M  V30 3374 C 325.425 0.968572 3.33937 0
M  V30 3375 H 324.748 1.80458 3.56756 0
M  V30 3376 H 326.188 0.934808 4.13567 0
M  V30 3377 C 324.647 -0.328628 3.35293 0
M  V30 3378 O 325.177 -1.33848 3.78745 0
M  V30 3379 N 323.383 -0.352788 2.88451 0
M  V30 3380 H 322.93 0.469541 2.53285 0
M  V30 3381 H 322.888 -1.22057 2.89741 0
M  V30 3382 N 326.66 -1.06551 1.16123 0
M  V30 3383 C 327.608 -2.16063 0.861371 0
M  V30 3384 C 328.602 -1.6856 -0.168517 0
M  V30 3385 O 329.808 -1.79986 -0.0227579 0
M  V30 3386 H 326.183 -0.705278 0.260934 0
M  V30 3387 H 328.154 -2.38567 1.79244 0
M  V30 3388 C 326.903 -3.45661 0.376018 0
M  V30 3389 H 326.226 -3.82604 1.15992 0
M  V30 3390 H 327.666 -4.23504 0.204951 0
M  V30 3391 C 326.125 -3.24546 -0.903954 0
M  V30 3392 O 326.655 -3.49865 -1.97377 0
M  V30 3393 N 324.861 -2.77992 -0.846679 0
M  V30 3394 H 324.408 -2.57589 0.0241017 0
M  V30 3395 H 324.366 -2.64244 -1.70359 0
M  V30 3396 N 328.138 -0.959301 -1.25041 0
M  V30 3397 C 329.549 -0.65667 -1.74771 0
M  V30 3398 C 329.9 0.827852 -1.77879 0
M  V30 3399 O 329.025 1.64783 -1.40269 0
M  V30 3400 C 329.62 -1.1853 -3.1739 0
M  V30 3401 C 328.179 -0.932734 -3.6466 0
M  V30 3402 C 327.326 -1.32558 -2.43564 0
M  V30 3403 H 330.277 -1.13558 -1.10862 0
M  V30 3404 H 330.298 -0.547582 -3.76539 0
M  V30 3405 H 329.81 -2.26576 -3.15095 0
M  V30 3406 H 327.911 0.13257 -3.72364 0
M  V30 3407 H 328.024 -1.57248 -4.52559 0
M  V30 3408 H 326.388 -0.743956 -2.43593 0
M  V30 3409 H 327.171 -2.41537 -2.43957 0
M  V30 3410 N 329.616 1.39756 -0.72842 0
M  V30 3411 C 330.846 2.04651 -0.283117 0
M  V30 3412 C 331.254 1.5502 1.08469 0
M  V30 3413 O 330.597 0.707343 1.69536 0
M  V30 3414 C 330.659 3.58947 -0.199309 0
M  V30 3415 C 330.323 4.31525 -1.5045 0
M  V30 3416 C 331.32 4.5861 -2.44894 0
M  V30 3417 C 329.005 4.70195 -1.76698 0
M  V30 3418 C 330.999 5.23366 -3.63822 0
M  V30 3419 C 328.686 5.3468 -2.95906 0
M  V30 3420 C 329.684 5.61198 -3.89289 0
M  V30 3421 O 329.372 6.24347 -5.06404 0
M  V30 3422 H 329.104 0.664777 -0.122666 0
M  V30 3423 H 331.658 1.79913 -0.990987 0
M  V30 3424 H 329.888 3.82556 0.56461 0
M  V30 3425 H 331.577 4.0534 0.213125 0
M  V30 3426 H 332.343 4.29187 -2.25883 0
M  V30 3427 H 328.222 4.48916 -1.04859 0
M  V30 3428 H 331.766 5.4398 -4.36728 0
M  V30 3429 H 327.663 5.63524 -3.14819 0
M  V30 3430 H 328.431 6.42842 -5.06652 0
M  V30 3431 N 331.094 0.475555 1.50254 0
M  V30 3432 C 332.341 -0.0778919 2.0235 0
M  V30 3433 C 332.669 -1.39319 1.35722 0
M  V30 3434 O 331.924 -1.89888 0.473395 0
M  V30 3435 C 332.223 -0.305114 3.56095 0
M  V30 3436 C 331.889 0.92903 4.41225 0
M  V30 3437 C 330.551 1.26739 4.6421 0
M  V30 3438 C 332.903 1.75054 4.90923 0
M  V30 3439 C 330.231 2.42724 5.34137 0
M  V30 3440 C 332.583 2.9017 5.62125 0
M  V30 3441 C 331.247 3.24416 5.83362 0
M  V30 3442 H 330.517 -0.0285027 0.740452 0
M  V30 3443 H 333.164 0.630543 1.80821 0
M  V30 3444 H 331.469 -1.09584 3.76163 0
M  V30 3445 H 333.166 -0.747377 3.93974 0
M  V30 3446 H 329.756 0.655428 4.23559 0
M  V30 3447 H 333.94 1.50231 4.73016 0
M  V30 3448 H 329.196 2.69525 5.48786 0
M  V30 3449 H 333.37 3.54169 5.99614 0
M  V30 3450 H 330.997 4.14396 6.37323 0
M  V30 3451 N 332.573 -1.56217 0.208337 0
M  V30 3452 C 333.521 -2.21053 -0.723769 0
M  V30 3453 C 334.515 -1.18578 -1.20978 0
M  V30 3454 O 335.721 -1.36691 -1.17114 0
M  V30 3455 H 332.096 -0.708595 -0.251788 0
M  V30 3456 H 334.067 -2.98006 -0.153365 0
M  V30 3457 C 332.816 -2.89417 -1.927 0
M  V30 3458 H 332.139 -3.68019 -1.56212 0
M  V30 3459 H 333.579 -3.38201 -2.55727 0
M  V30 3460 C 332.038 -1.91166 -2.77411 0
M  V30 3461 O 332.568 -1.42026 -3.75754 0
M  V30 3462 N 330.774 -1.59105 -2.43175 0
M  V30 3463 H 330.321 -1.99259 -1.63259 0
M  V30 3464 H 330.279 -0.936255 -3.00136 0
M  V30 3465 N 334.051 0.0651679 -1.57465 0
M  V30 3466 C 335.001 1.0838 -2.00594 0
M  V30 3467 C 335.985 1.34106 -0.889071 0
M  V30 3468 O 337.177 1.34295 -1.15299 0
M  V30 3469 C 334.306 2.39565 -2.45894 0
M  V30 3470 C 333.392 2.17085 -3.64328 0
M  V30 3471 N 333.783 1.64553 -4.78285 0
M  V30 3472 C 332.081 2.4753 -3.71006 0
M  V30 3473 C 332.782 1.57042 -5.60101 0
M  V30 3474 N 331.758 2.03328 -5.04141 0
M  V30 3475 H 335.56 0.671062 -2.86136 0
M  V30 3476 H 333.074 0.27213 -1.60104 0
M  V30 3477 H 335.071 3.13308 -2.75034 0
M  V30 3478 H 333.731 2.81549 -1.61741 0
M  V30 3479 H 334.742 1.33323 -5.00445 0
M  V30 3480 H 331.419 2.92835 -2.9758 0
M  V30 3481 H 332.809 1.17223 -6.61595 0
M  V30 3482 N 335.529 1.53961 0.336706 0
M  V30 3483 C 336.94 1.62914 0.911925 0
M  V30 3484 C 337.291 0.514795 1.89326 0
M  V30 3485 O 336.416 -0.354395 2.13478 0
M  V30 3486 C 337.011 2.95304 1.66076 0
M  V30 3487 C 335.57 3.06496 2.18489 0
M  V30 3488 C 334.717 2.58403 1.00613 0
M  V30 3489 H 337.668 1.58285 0.114649 0
M  V30 3490 H 337.689 2.84727 2.5241 0
M  V30 3491 H 337.201 3.76387 0.946276 0
M  V30 3492 H 335.302 2.3006 2.93092 0
M  V30 3493 H 335.415 4.1208 2.44391 0
M  V30 3494 H 333.779 2.13977 1.38152 0
M  V30 3495 H 334.562 3.41932 0.306179 0
M  V30 3496 N 337.007 -0.598083 1.45811 0
M  V30 3497 C 337.954 -1.7082 1.55207 0
M  V30 3498 C 338.924 -1.61278 0.39732 0
M  V30 3499 O 340.109 -1.80717 0.612038 0
M  V30 3500 C 337.249 -3.09144 1.53376 0
M  V30 3501 C 336.362 -3.29423 2.79472 0
M  V30 3502 C 335.497 -4.57907 2.69248 0
M  V30 3503 C 334.536 -4.71476 3.90354 0
M  V30 3504 N 333.673 -5.9127 3.78608 0
M  V30 3505 H 338.513 -1.62125 2.50039 0
M  V30 3506 H 336.05 -0.790389 1.24062 0
M  V30 3507 H 338.008 -3.89186 1.50301 0
M  V30 3508 H 336.638 -3.16773 0.620876 0
M  V30 3509 H 335.69 -2.43091 2.92594 0
M  V30 3510 H 337.002 -3.3532 3.69272 0
M  V30 3511 H 336.156 -5.46157 2.64192 0
M  V30 3512 H 334.895 -4.54423 1.77063 0
M  V30 3513 H 333.9 -3.81648 3.95759 0
M  V30 3514 H 335.125 -4.76751 4.83617 0
M  V30 3515 H 333.071 -5.88813 2.89199 0
M  V30 3516 H 332.988 -5.98369 4.6205 0
M  V30 3517 H 334.256 -6.81992 3.77501 0
M  V30 3518 N 338.485 -1.33259 -0.841409 0
M  V30 3519 C 339.433 -1.23279 -1.97244 0
M  V30 3520 C 340.427 -0.134706 -1.68864 0
M  V30 3521 O 341.633 -0.298501 -1.77508 0
M  V30 3522 H 338.008 -0.382497 -0.647457 0
M  V30 3523 H 339.979 -2.18906 -2.02787 0
M  V30 3524 C 338.728 -0.986268 -3.33419 0
M  V30 3525 H 338.051 -1.82347 -3.55794 0
M  V30 3526 H 339.491 -0.956728 -4.13065 0
M  V30 3527 C 337.95 0.310842 -3.35463 0
M  V30 3528 O 338.48 1.31838 -3.79449 0
M  V30 3529 N 336.686 0.337485 -2.88634 0
M  V30 3530 H 336.233 -0.482967 -2.53032 0
M  V30 3531 H 336.191 1.20518 -2.90384 0
M  V30 3532 N 339.963 1.05934 -1.16686 0
M  V30 3533 C 340.893 2.1546 -0.899949 0
M  V30 3534 C 341.874 1.69391 0.155154 0
M  V30 3535 O 343.059 1.94199 0.00648693 0
M  V30 3536 C 340.189 3.44939 -0.404241 0
M  V30 3537 C 339.143 4.04536 -1.39767 0
M  V30 3538 C 338.469 5.29268 -0.760216 0
M  V30 3539 C 339.769 4.42893 -2.76845 0
M  V30 3540 H 341.463 2.38046 -1.81588 0
M  V30 3541 H 339.009 1.14404 -0.874514 0
M  V30 3542 H 340.962 4.20901 -0.204971 0
M  V30 3543 H 339.686 3.21983 0.547206 0
M  V30 3544 H 338.345 3.30635 -1.58355 0
M  V30 3545 H 337.993 5.02611 0.197831 0
M  V30 3546 H 337.693 5.70101 -1.42332 0
M  V30 3547 H 339.217 6.07924 -0.57105 0
M  V30 3548 H 340.631 5.09921 -2.62019 0
M  V30 3549 H 339.028 4.94721 -3.39663 0
M  V30 3550 H 340.098 3.53584 -3.31823 0
M  V30 3551 N 341.441 0.965919 1.2453 0
M  V30 3552 C 342.688 0.626831 1.92554 0
M  V30 3553 C 343.016 -0.837739 1.75534 0
M  V30 3554 O 342.271 -1.61793 1.10098 0
M  V30 3555 C 342.57 0.945428 3.44669 0
M  V30 3556 C 342.236 2.39785 3.81856 0
M  V30 3557 C 340.898 2.79483 3.91718 0
M  V30 3558 C 343.25 3.34055 4.00071 0
M  V30 3559 C 340.578 4.12496 4.1721 0
M  V30 3560 C 342.93 4.66694 4.27059 0
M  V30 3561 C 341.594 5.06172 4.3514 0
M  V30 3562 H 340.864 0.229374 0.704605 0
M  V30 3563 H 343.511 1.21707 1.4785 0
M  V30 3564 H 341.816 0.272926 3.90848 0
M  V30 3565 H 343.513 0.661484 3.95507 0
M  V30 3566 H 340.103 2.08003 3.74743 0
M  V30 3567 H 344.287 3.04571 3.91855 0
M  V30 3568 H 339.543 4.42709 4.21685 0
M  V30 3569 H 343.717 5.3971 4.40097 0
M  V30 3570 H 341.344 6.09262 4.54646 0
M  V30 3571 N 342.919 -1.39368 0.735821 0
M  V30 3572 C 343.882 -2.2896 0.104874 0
M  V30 3573 C 344.882 -1.46347 -0.666274 0
M  V30 3574 O 346.072 -1.67014 -0.49517 0
M  V30 3575 C 343.204 -3.29857 -0.860656 0
M  V30 3576 H 344.397 -2.86259 0.894205 0
M  V30 3577 H 341.95 -1.48029 0.501704 0
M  V30 3578 H 342.685 -2.77615 -1.67631 0
M  V30 3579 H 342.47 -3.9087 -0.310327 0
M  V30 3580 H 343.96 -3.96893 -1.29867 0
M  V30 3581 N 344.397 -0.483516 -1.5 0
M  V30 3582 C 345.36 0.292965 -2.2732 0
M  V30 3583 C 346.36 0.909499 -1.32608 0
M  V30 3584 O 347.55 0.776745 -1.55924 0
M  V30 3585 C 344.682 1.41854 -3.09984 0
M  V30 3586 H 345.875 -0.385289 -2.97415 0
M  V30 3587 H 343.428 -0.237942 -1.54478 0
M  V30 3588 H 344.163 2.13148 -2.44414 0
M  V30 3589 H 343.948 0.982114 -3.79601 0
M  V30 3590 H 345.438 1.96597 -3.68429 0
M  V30 3591 N 345.875 1.56104 -0.216619 0
M  V30 3592 C 347.124 1.97348 0.416744 0
M  V30 3593 C 347.437 1.10715 1.6125 0
M  V30 3594 O 348.643 1.41836 2.31506 0
M  V30 3595 C 347.099 3.51059 0.792835 0
M  V30 3596 C 346.707 4.46387 -0.379828 0
M  V30 3597 C 348.451 4.01026 1.39208 0
M  V30 3598 C 346.358 5.91397 0.0184223 0
M  V30 3599 H 345.288 0.736942 0.159475 0
M  V30 3600 H 347.939 1.80827 -0.31205 0
M  V30 3601 H 346.321 3.63162 1.57891 0
M  V30 3602 H 347.495 4.46029 -1.15737 0
M  V30 3603 H 345.81 4.06734 -0.891979 0
M  V30 3604 H 348.407 5.0686 1.70286 0
M  V30 3605 H 348.75 3.46587 2.30614 0
M  V30 3606 H 349.283 3.92125 0.669537 0
M  V30 3607 H 346.022 6.49807 -0.862002 0
M  V30 3608 H 345.542 5.94961 0.760384 0
M  V30 3609 H 347.221 6.45455 0.446818 0
M  V30 3610 N 347.353 -0.0568162 1.57498 0
M  V30 3611 C 348.578 -0.769402 1.92601 0
M  V30 3612 C 349.003 -1.69559 0.814336 0
M  V30 3613 O 348.361 -1.79811 -0.231903 0
M  V30 3614 C 348.409 -1.52634 3.26704 0
M  V30 3615 O 347.513 -2.63797 3.16994 0
M  V30 3616 H 346.854 -0.208909 0.63028 0
M  V30 3617 H 349.384 -0.0205798 2.0459 0
M  V30 3618 H 349.394 -1.90234 3.60936 0
M  V30 3619 H 348.069 -0.846875 4.07186 0
M  V30 3620 H 346.646 -2.28943 2.94346 0
M  V30 3621 N 348.832 -1.54138 -0.328536 0
M  V30 3622 C 350.06 -1.76062 -1.08673 0
M  V30 3623 C 350.475 -0.506852 -1.81869 0
M  V30 3624 O 349.832 0.522223 -1.74869 0
M  V30 3625 C 349.883 -2.95054 -2.08866 0
M  V30 3626 O 349.604 -4.15583 -1.38644 0
M  V30 3627 C 351.105 -3.2915 -2.96943 0
M  V30 3628 H 348.325 -0.587889 -0.323461 0
M  V30 3629 H 350.869 -2.0101 -0.376175 0
M  V30 3630 H 349.024 -2.72394 -2.75464 0
M  V30 3631 H 349.438 -4.82481 -2.05699 0
M  V30 3632 H 350.912 -4.15723 -3.63151 0
M  V30 3633 H 351.389 -2.461 -3.63774 0
M  V30 3634 H 351.995 -3.53871 -2.35914 0
M  V30 3635 N 350.31 0.590341 -1.46126 0
M  V30 3636 C 351.726 0.912917 -1.30912 0
M  V30 3637 C 351.926 1.99616 -0.274893 0
M  V30 3638 O 350.982 2.50397 0.325197 0
M  V30 3639 C 352.295 1.3375 -2.69317 0
M  V30 3640 C 353.843 1.45077 -2.77348 0
M  V30 3641 C 354.318 1.90904 -4.16317 0
M  V30 3642 N 355.809 1.9811 -4.18696 0
M  V30 3643 C 356.544 2.34828 -5.23109 0
M  V30 3644 N 356.04 2.70393 -6.37856 0
M  V30 3645 N 357.833 2.35317 -5.10473 0
M  V30 3646 H 349.984 -0.125358 -2.1203 0
M  V30 3647 H 352.247 0.00658481 -0.947977 0
M  V30 3648 H 351.953 0.615614 -3.4627 0
M  V30 3649 H 351.827 2.30058 -2.9892 0
M  V30 3650 H 354.214 2.16353 -2.00687 0
M  V30 3651 H 354.295 0.4704 -2.51438 0
M  V30 3652 H 353.939 1.20209 -4.9347 0
M  V30 3653 H 353.869 2.89886 -4.39629 0
M  V30 3654 H 356.36 1.73146 -3.359 0
M  V30 3655 H 356.673 2.97341 -7.13308 0
M  V30 3656 H 355.018 2.68048 -6.41229 0
M  V30 3657 H 358.209 2.0695 -4.19868 0
M  V30 3658 H 358.382 2.63605 -5.9196 0
M  V30 3659 N 351.788 1.33704 0.83433 0
M  V30 3660 C 352.72 1.20172 1.9517 0
M  V30 3661 C 353.733 0.131572 1.62267 0
M  V30 3662 O 354.922 0.382406 1.74356 0
M  V30 3663 C 352.022 0.821716 3.28787 0
M  V30 3664 C 351.195 1.98446 3.89792 0
M  V30 3665 C 350.254 1.58469 5.01771 0
M  V30 3666 O 349.28 2.29968 5.20676 0
M  V30 3667 N 350.482 0.492291 5.78409 0
M  V30 3668 H 353.247 2.16429 2.07313 0
M  V30 3669 H 350.808 1.26509 1.0103 0
M  V30 3670 H 352.8 0.536291 4.01131 0
M  V30 3671 H 351.37 -0.0503058 3.1256 0
M  V30 3672 H 350.59 2.43526 3.09982 0
M  V30 3673 H 351.878 2.76236 4.27283 0
M  V30 3674 H 351.276 -0.102349 5.65607 0
M  V30 3675 H 349.833 0.266555 6.51255 0
M  V30 3676 N 353.266 -1.05314 1.17247 0
M  V30 3677 C 354.496 -1.81707 0.983166 0
M  V30 3678 C 354.904 -1.83222 -0.471822 0
M  V30 3679 O 354.247 -1.25721 -1.3394 0
M  V30 3680 C 354.309 -3.29134 1.44606 0
M  V30 3681 C 353.973 -3.51304 2.92292 0
M  V30 3682 C 354.97 -3.4353 3.90235 0
M  V30 3683 C 352.655 -3.78306 3.30439 0
M  V30 3684 C 354.649 -3.62442 5.24323 0
M  V30 3685 C 352.336 -3.96866 4.64694 0
M  V30 3686 C 353.334 -3.88933 5.61445 0
M  V30 3687 O 353.022 -4.06976 6.93272 0
M  V30 3688 H 352.754 -0.579476 0.348114 0
M  V30 3689 H 355.308 -1.33705 1.55924 0
M  V30 3690 H 353.538 -3.78046 0.813537 0
M  V30 3691 H 355.227 -3.87049 1.22262 0
M  V30 3692 H 355.993 -3.22648 3.62109 0
M  V30 3693 H 351.872 -3.83585 2.55702 0
M  V30 3694 H 355.416 -3.56165 5.99827 0
M  V30 3695 H 351.313 -4.1724 4.92525 0
M  V30 3696 H 352.081 -4.24209 6.99992 0
M  V30 3697 N 354.744 -0.972509 -1.24016 0
M  V30 3698 C 355.692 -0.498562 -2.27194 0
M  V30 3699 C 356.686 0.440372 -1.63576 0
M  V30 3700 O 357.892 0.315133 -1.7722 0
M  V30 3701 H 354.267 -0.142775 -0.738322 0
M  V30 3702 H 356.238 -1.38065 -2.64539 0
M  V30 3703 C 354.987 0.191072 -3.47175 0
M  V30 3704 H 354.31 -0.522318 -3.96373 0
M  V30 3705 H 355.75 0.486445 -4.212 0
M  V30 3706 C 354.209 1.41967 -3.05527 0
M  V30 3707 O 354.739 2.51642 -3.13112 0
M  V30 3708 N 352.945 1.28746 -2.60524 0
M  V30 3709 H 352.492 0.395089 -2.54552 0
M  V30 3710 H 352.45 2.11061 -2.33025 0
M  V30 3711 N 356.222 1.38976 -0.743202 0
M  V30 3712 C 357.468 2.01114 -0.304109 0
M  V30 3713 C 357.823 1.57929 1.09892 0
M  V30 3714 O 357.116 0.801983 1.74008 0
M  V30 3715 C 357.31 3.55647 -0.353517 0
M  V30 3716 C 357.139 4.13837 -1.75981 0
M  V30 3717 C 355.909 4.46062 -2.37395 0
M  V30 3718 C 358.107 4.36812 -2.71477 0
M  V30 3719 N 356.089 4.898 -3.70093 0
M  V30 3720 C 357.46 4.82844 -3.88923 0
M  V30 3721 C 359.515 4.18893 -2.69134 0
M  V30 3722 C 358.218 5.12837 -5.04371 0
M  V30 3723 C 360.244 4.50005 -3.83731 0
M  V30 3724 C 359.606 4.96251 -4.99914 0
M  V30 3725 H 355.705 0.765931 -0.157716 0
M  V30 3726 H 358.289 1.68763 -0.970931 0
M  V30 3727 H 356.46 3.87368 0.282987 0
M  V30 3728 H 358.192 4.04564 0.104904 0
M  V30 3729 H 354.947 4.34145 -1.89248 0
M  V30 3730 H 355.371 5.16016 -4.38242 0
M  V30 3731 H 360.013 3.82335 -1.80499 0
M  V30 3732 H 357.731 5.48297 -5.9363 0
M  V30 3733 H 361.317 4.37755 -3.83225 0
M  V30 3734 H 360.197 5.19867 -5.87118 0
M  V30 3735 N 357.7 0.491464 1.49741 0
M  V30 3736 C 358.648 -0.305837 2.30581 0
M  V30 3737 C 359.642 -0.971642 1.38764 0
M  V30 3738 O 360.848 -0.90042 1.5586 0
M  V30 3739 H 357.223 -0.117482 0.742767 0
M  V30 3740 H 359.194 0.396093 2.95759 0
M  V30 3741 C 357.943 -1.36319 3.19863 0
M  V30 3742 H 357.266 -0.860258 3.90435 0
M  V30 3743 H 358.706 -1.89323 3.79385 0
M  V30 3744 C 357.165 -2.37621 2.38826 0
M  V30 3745 O 357.695 -3.43311 2.08567 0
M  V30 3746 N 355.901 -2.09849 2.01026 0
M  V30 3747 H 355.448 -1.23922 2.25834 0
M  V30 3748 H 355.406 -2.77859 1.47112 0
M  V30 3749 N 359.178 -1.55987 0.224894 0
M  V30 3750 C 360.126 -2.21808 -0.700283 0
M  V30 3751 C 361.12 -1.19854 -1.19714 0
M  V30 3752 O 362.326 -1.37925 -1.15658 0
M  V30 3753 H 358.701 -0.711226 -0.244258 0
M  V30 3754 H 360.672 -2.98152 -0.121749 0
M  V30 3755 C 359.421 -2.91444 -1.8962 0
M  V30 3756 H 358.744 -3.69655 -1.52299 0
M  V30 3757 H 360.184 -3.40894 -2.52125 0
M  V30 3758 C 358.643 -1.94098 -2.75368 0
M  V30 3759 O 359.173 -1.46004 -3.74227 0
M  V30 3760 N 357.379 -1.61675 -2.41474 0
M  V30 3761 H 356.926 -2.00979 -1.61137 0
M  V30 3762 H 356.884 -0.968036 -2.99126 0
M  V30 3763 N 360.656 0.0484629 -1.57525 0
M  V30 3764 C 361.905 0.742065 -1.87553 0
M  V30 3765 C 362.218 1.77545 -0.820802 0
M  V30 3766 O 363.424 2.52027 -1.00967 0
M  V30 3767 C 361.88 1.37081 -3.32771 0
M  V30 3768 C 361.488 0.374786 -4.4643 0
M  V30 3769 C 363.232 2.04542 -3.71972 0
M  V30 3770 C 361.139 1.01077 -5.82698 0
M  V30 3771 H 360.069 0.280903 -0.699721 0
M  V30 3772 H 362.72 -0.00411877 -1.835 0
M  V30 3773 H 361.102 2.16605 -3.31509 0
M  V30 3774 H 362.276 -0.392331 -4.59127 0
M  V30 3775 H 360.591 -0.196653 -4.15935 0
M  V30 3776 H 363.188 2.52943 -4.71088 0
M  V30 3777 H 363.531 2.85515 -3.02964 0
M  V30 3778 H 364.064 1.31819 -3.75325 0
M  V30 3779 H 360.803 0.240878 -6.55057 0
M  V30 3780 H 360.323 1.74819 -5.73758 0
M  V30 3781 H 362.002 1.52383 -6.28799 0
M  V30 3782 N 362.134 1.5431 0.320358 0
M  V30 3783 C 363.064 1.86912 1.3995 0
M  V30 3784 C 364.045 0.726211 1.53819 0
M  V30 3785 O 365.23 0.980233 1.67646 0
M  V30 3786 C 362.36 2.09932 2.7667 0
M  V30 3787 C 361.314 3.25776 2.77586 0
M  V30 3788 C 360.64 3.34173 4.17412 0
M  V30 3789 C 361.94 4.6335 2.41048 0
M  V30 3790 H 363.634 2.77292 1.12914 0
M  V30 3791 H 361.18 1.33421 0.541738 0
M  V30 3792 H 363.133 2.31324 3.52232 0
M  V30 3793 H 361.857 1.16304 3.0519 0
M  V30 3794 H 360.516 3.04276 2.04479 0
M  V30 3795 H 360.164 2.38098 4.43078 0
M  V30 3796 H 359.864 4.12033 4.18931 0
M  V30 3797 H 361.388 3.57803 4.94782 0
M  V30 3798 H 362.802 4.84602 3.06324 0
M  V30 3799 H 361.199 5.43782 2.53813 0
M  V30 3800 H 362.269 4.65381 1.36193 0
M  V30 3801 N 363.613 -0.582584 1.46437 0
M  V30 3802 C 365.024 -1.1647 1.45916 0
M  V30 3803 C 365.375 -1.95177 0.200077 0
M  V30 3804 O 364.5 -2.04874 -0.696819 0
M  V30 3805 C 365.095 -2.11885 2.64367 0
M  V30 3806 C 363.654 -2.65421 2.66887 0
M  V30 3807 C 362.801 -1.41294 2.38603 0
M  V30 3808 H 365.752 -0.370514 1.54314 0
M  V30 3809 H 365.773 -2.9535 2.39892 0
M  V30 3810 H 365.285 -1.54573 3.5599 0
M  V30 3811 H 363.386 -3.26602 1.79338 0
M  V30 3812 H 363.499 -3.08147 3.66854 0
M  V30 3813 H 361.863 -1.71109 1.88663 0
M  V30 3814 H 362.646 -0.858125 3.32402 0
M  V30 3815 N 365.091 -1.34144 -0.827227 0
M  V30 3816 C 366.319 -1.29325 -1.61501 0
M  V30 3817 C 366.734 0.13354 -1.88327 0
M  V30 3818 O 366.091 1.0793 -1.47164 0
M  V30 3819 C 366.142 -2.07746 -2.95844 0
M  V30 3820 O 365.863 -3.4486 -2.70191 0
M  V30 3821 C 367.364 -2.10273 -3.90256 0
M  V30 3822 H 364.584 -0.445069 -0.50215 0
M  V30 3823 H 367.128 -1.76693 -1.02955 0
M  V30 3824 H 365.283 -1.6403 -3.5096 0
M  V30 3825 H 365.697 -3.85345 -3.55822 0
M  V30 3826 H 367.171 -2.69575 -4.81698 0
M  V30 3827 H 367.648 -1.096 -4.25305 0
M  V30 3828 H 368.254 -2.54059 -3.41078 0
M  V30 3829 N 366.569 1.04691 -1.17803 0
M  V30 3830 C 367.799 1.81183 -0.992788 0
M  V30 3831 C 368.207 1.8347 0.462098 0
M  V30 3832 O 367.55 1.2643 1.33271 0
M  V30 3833 C 367.612 3.28363 -1.46349 0
M  V30 3834 C 367.276 3.49749 -2.94151 0
M  V30 3835 C 368.273 3.41456 -3.92051 0
M  V30 3836 C 365.958 3.76548 -3.32441 0
M  V30 3837 C 367.952 3.59656 -5.26238 0
M  V30 3838 C 365.639 3.94396 -4.66792 0
M  V30 3839 C 366.637 3.8595 -5.635 0
M  V30 3840 O 366.325 4.03294 -6.9542 0
M  V30 3841 H 366.057 0.577622 -0.351182 0
M  V30 3842 H 368.611 1.32876 -1.5663 0
M  V30 3843 H 366.841 3.77609 -0.833574 0
M  V30 3844 H 368.53 3.86395 -1.24313 0
M  V30 3845 H 369.296 3.20723 -3.63815 0
M  V30 3846 H 365.175 3.82224 -2.57732 0
M  V30 3847 H 368.719 3.52979 -6.01707 0
M  V30 3848 H 364.616 4.14622 -4.94731 0
M  V30 3849 H 365.384 4.2049 -7.02232 0
M  V30 3850 N 368.047 0.979072 1.23499 0
M  V30 3851 C 369.272 0.664845 1.96455 0
M  V30 3852 C 369.697 -0.761287 1.72006 0
M  V30 3853 O 369.055 -1.51837 0.990713 0
M  V30 3854 C 369.103 0.959479 3.47601 0
M  V30 3855 O 368.207 0.0508168 4.12369 0
M  V30 3856 H 367.548 0.250185 0.615064 0
M  V30 3857 H 370.078 1.31231 1.5697 0
M  V30 3858 H 370.088 0.895642 3.98048 0
M  V30 3859 H 368.763 1.99876 3.64723 0
M  V30 3860 H 367.34 0.16895 3.72517 0
M  V30 3861 N 369.525 -1.3858 0.750561 0
M  V30 3862 C 370.773 -1.99789 0.30477 0
M  V30 3863 C 371.094 -1.59874 -1.11649 0
M  V30 3864 O 370.364 -0.85417 -1.76297 0
M  V30 3865 H 368.944 -0.738902 0.109694 0
M  V30 3866 H 371.606 -1.69391 0.963983 0
M  V30 3867 H 370.702 -3.09952 0.365499 0
M  V30 3868 N 371.003 -0.499398 -1.49478 0
M  V30 3869 C 372.419 -0.155261 -1.58843 0
M  V30 3870 C 372.619 1.34008 -1.50479 0
M  V30 3871 O 371.675 2.11589 -1.37791 0
M  V30 3872 C 372.988 -0.730636 -2.91689 0
M  V30 3873 C 374.536 -0.696599 -3.0515 0
M  V30 3874 C 375.011 -1.25001 -4.40612 0
M  V30 3875 N 376.502 -1.21064 -4.47099 0
M  V30 3876 C 377.237 -1.60905 -5.50361 0
M  V30 3877 N 376.733 -2.08331 -6.60735 0
M  V30 3878 N 378.526 -1.52331 -5.41065 0
M  V30 3879 H 370.677 -1.47162 -1.53158 0
M  V30 3880 H 372.94 -0.610309 -0.725415 0
M  V30 3881 H 372.646 -1.77928 -3.03372 0
M  V30 3882 H 372.52 -0.190161 -3.7672 0
M  V30 3883 H 374.907 0.343204 -2.93097 0
M  V30 3884 H 374.988 -1.2742 -2.21806 0
M  V30 3885 H 374.632 -2.28859 -4.53416 0
M  V30 3886 H 374.562 -0.64836 -5.22593 0
M  V30 3887 H 377.053 -0.863128 -3.67911 0
M  V30 3888 H 377.366 -2.36805 -7.35624 0
M  V30 3889 H 375.711 -2.12304 -6.6178 0
M  V30 3890 H 378.902 -1.151 -4.53729 0
M  V30 3891 H 379.075 -1.83704 -6.21415 0
M  V30 3892 N 372.481 1.55866 -0.233164 0
M  V30 3893 C 373.391 2.24431 0.683217 0
M  V30 3894 C 374.407 1.2558 1.2044 0
M  V30 3895 O 375.583 1.58422 1.24356 0
M  V30 3896 C 372.648 2.91979 1.86947 0
M  V30 3897 C 371.709 4.06204 1.38912 0
M  V30 3898 C 370.942 4.70522 2.51883 0
M  V30 3899 O 371.165 4.33865 3.70293 0
M  V30 3900 O 370.099 5.59296 2.22423 0
M  V30 3901 H 373.925 3.03426 0.129059 0
M  V30 3902 H 371.51 1.494 -0.0022283 0
M  V30 3903 H 373.392 3.34573 2.56201 0
M  V30 3904 H 372.067 2.15935 2.41151 0
M  V30 3905 H 370.974 3.68155 0.664259 0
M  V30 3906 H 372.307 4.84025 0.893328 0
M  V30 3907 N 373.959 -0.0401083 1.57549 0
M  V30 3908 C 375.184 -0.748931 1.93406 0
M  V30 3909 C 375.609 -1.68686 0.832274 0
M  V30 3910 O 374.967 -1.80047 -0.212818 0
M  V30 3911 C 375.015 -1.4916 3.28304 0
M  V30 3912 O 374.119 -2.6042 3.19774 0
M  V30 3913 H 373.46 -0.202212 0.63246 0
M  V30 3914 H 375.99 0.00112086 2.046 0
M  V30 3915 H 376 -1.86395 3.62934 0
M  V30 3916 H 374.675 -0.80364 4.08062 0
M  V30 3917 H 373.252 -2.25808 2.96758 0
M  V30 3918 N 375.437 -1.54477 -0.31217 0
M  V30 3919 C 376.385 -1.85395 -1.40469 0
M  V30 3920 C 377.379 -0.726749 -1.53019 0
M  V30 3921 O 378.585 -0.910582 -1.55269 0
M  V30 3922 H 374.96 -0.587845 -0.46898 0
M  V30 3923 H 376.931 -2.76736 -1.11623 0
M  V30 3924 C 375.68 -2.10811 -2.76503 0
M  V30 3925 H 375.003 -2.97014 -2.67625 0
M  V30 3926 H 376.443 -2.3639 -3.51988 0
M  V30 3927 C 374.902 -0.903165 -3.24568 0
M  V30 3928 O 375.432 -0.118085 -4.01526 0
M  V30 3929 N 373.638 -0.711634 -2.81752 0
M  V30 3930 H 373.185 -1.35171 -2.19286 0
M  V30 3931 H 373.143 0.0930473 -3.14262 0
M  V30 3932 N 376.915 0.57481 -1.46744 0
M  V30 3933 C 378.161 1.3347 -1.52688 0
M  V30 3934 C 378.494 1.93353 -0.181229 0
M  V30 3935 O 377.769 1.76912 0.808237 0
M  V30 3936 C 378.052 2.45811 -2.63152 0
M  V30 3937 C 377.905 1.90912 -4.07275 0
M  V30 3938 C 379.224 3.47822 -2.69644 0
M  V30 3939 H 376.343 0.483935 -0.555856 0
M  V30 3940 H 378.985 0.644968 -1.78718 0
M  V30 3941 H 377.135 3.04646 -2.41088 0
M  V30 3942 H 378.807 1.36473 -4.4065 0
M  V30 3943 H 377.05 1.21691 -4.16382 0
M  V30 3944 H 377.721 2.72042 -4.80309 0
M  V30 3945 H 380.197 2.9888 -2.895 0
M  V30 3946 H 379.073 4.23876 -3.48742 0
M  V30 3947 H 379.334 4.05555 -1.76005 0
M  V30 3948 N 378.394 1.34581 0.820102 0
M  V30 3949 C 379.326 1.22236 1.93884 0
M  V30 3950 C 380.339 0.148776 1.62119 0
M  V30 3951 O 381.528 0.400877 1.7394 0
M  V30 3952 C 378.628 0.856542 3.27897 0
M  V30 3953 C 377.801 2.02569 3.87666 0
M  V30 3954 C 376.86 1.63782 5.00062 0
M  V30 3955 O 375.886 2.35477 5.18208 0
M  V30 3956 N 377.088 0.553611 5.77854 0
M  V30 3957 H 379.853 2.18615 2.05006 0
M  V30 3958 H 377.414 1.27573 0.99683 0
M  V30 3959 H 379.406 0.578806 4.0054 0
M  V30 3960 H 377.976 -0.0171518 3.12595 0
M  V30 3961 H 377.196 2.468 3.07382 0
M  V30 3962 H 378.484 2.80752 4.24329 0
M  V30 3963 H 377.882 -0.0423528 5.65684 0
M  V30 3964 H 376.439 0.335614 6.50935 0
M  V30 3965 N 379.872 -1.04064 1.18357 0
M  V30 3966 C 380.819 -2.12077 0.910603 0
M  V30 3967 C 381.789 -1.65421 -0.15 0
M  V30 3968 O 382.974 -1.90797 -0.0103614 0
M  V30 3969 C 380.114 -3.42252 0.442472 0
M  V30 3970 C 379.227 -4.0252 1.5685 0
M  V30 3971 C 378.362 -5.20657 1.05309 0
M  V30 3972 C 377.401 -5.72955 2.1538 0
M  V30 3973 N 376.538 -6.8238 1.65233 0
M  V30 3974 H 381.378 -2.34764 1.83548 0
M  V30 3975 H 378.915 -1.15157 0.915279 0
M  V30 3976 H 380.873 -4.16921 0.152534 0
M  V30 3977 H 379.503 -3.19712 -0.445428 0
M  V30 3978 H 378.555 -3.25178 1.97391 0
M  V30 3979 H 379.867 -4.37362 2.39824 0
M  V30 3980 H 379.021 -6.0244 0.717677 0
M  V30 3981 H 377.76 -4.87318 0.19293 0
M  V30 3982 H 376.765 -4.89793 2.49766 0
M  V30 3983 H 377.99 -6.08337 3.01832 0
M  V30 3984 H 375.936 -6.50917 0.815064 0
M  V30 3985 H 375.853 -7.16286 2.41805 0
M  V30 3986 H 377.121 -7.67788 1.34619 0
M  V30 3987 N 381.35 -0.985608 -1.22978 0
M  V30 3988 C 382.283 -0.47487 -2.23204 0
M  V30 3989 C 383.261 0.460865 -1.55932 0
M  V30 3990 O 384.445 0.388105 -1.84461 0
M  V30 3991 C 381.572 0.312427 -3.37256 0
M  V30 3992 C 380.618 -0.568219 -4.22698 0
M  V30 3993 S 381.451 -2.01919 -4.95973 0
M  V30 3994 C 382.607 -1.24118 -6.1347 0
M  V30 3995 H 382.84 -1.32419 -2.66181 0
M  V30 3996 H 380.373 -0.792005 -1.32539 0
M  V30 3997 H 382.331 0.760645 -4.03391 0
M  V30 3998 H 380.992 1.13693 -2.92801 0
M  V30 3999 H 380.185 0.0371657 -5.03986 0
M  V30 4000 H 379.787 -0.952897 -3.61657 0
M  V30 4001 H 382.079 -0.505121 -6.75614 0
M  V30 4002 H 383.022 -2.02907 -6.78406 0
M  V30 4003 H 383.43 -0.757669 -5.59392 0
M  V30 4004 N 382.828 1.3818 -0.7579 0
M  V30 4005 C 383.791 2.28764 -0.141286 0
M  V30 4006 C 384.791 1.47388 0.642907 0
M  V30 4007 O 385.981 1.67781 0.468536 0
M  V30 4008 C 383.113 3.31184 0.808069 0
M  V30 4009 H 384.306 2.848 -0.939633 0
M  V30 4010 H 381.859 1.47212 -0.525191 0
M  V30 4011 H 382.594 2.80247 1.63193 0
M  V30 4012 H 382.379 3.91314 0.248104 0
M  V30 4013 H 383.869 3.98909 1.23536 0
M  V30 4014 N 384.306 0.507319 1.49211 0
M  V30 4015 C 385.555 -0.0368315 2.01666 0
M  V30 4016 C 385.868 -1.37459 1.39156 0
M  V30 4017 O 387.074 -2.00579 1.82976 0
M  V30 4018 C 385.53 -0.116089 3.59713 0
M  V30 4019 C 385.138 1.2154 4.31198 0
M  V30 4020 C 386.882 -0.610268 4.2009 0
M  V30 4021 C 384.789 1.09796 5.81119 0
M  V30 4022 H 383.719 -0.0175376 0.753796 0
M  V30 4023 H 386.37 0.647691 1.71689 0
M  V30 4024 H 384.752 -0.8652 3.86433 0
M  V30 4025 H 385.926 1.9783 4.16173 0
M  V30 4026 H 384.241 1.64352 3.82593 0
M  V30 4027 H 386.838 -0.715742 5.29888 0
M  V30 4028 H 387.181 -1.61064 3.8388 0
M  V30 4029 H 387.714 0.0824916 3.97714 0
M  V30 4030 H 384.453 2.0728 6.21864 0
M  V30 4031 H 383.973 0.376058 5.9862 0
M  V30 4032 H 385.652 0.779281 6.4229 0
M  V30 4033 N 385.784 -1.5574 0.241426 0
M  V30 4034 C 387.009 -2.0366 -0.392111 0
M  V30 4035 C 387.434 -1.11969 -1.51144 0
M  V30 4036 O 386.792 -0.111594 -1.80956 0
M  V30 4037 C 386.84 -3.49638 -0.882371 0
M  V30 4038 O 385.944 -3.6108 -1.99235 0
M  V30 4039 H 385.285 -0.658379 -0.0862122 0
M  V30 4040 H 387.815 -2.01302 0.365881 0
M  V30 4041 H 387.825 -3.90351 -1.18702 0
M  V30 4042 H 386.5 -4.15852 -0.0632361 0
M  V30 4043 H 385.077 -3.32262 -1.69282 0
M  V30 4044 N 387.262 0.0317525 -1.57568 0
M  V30 4045 C 388.172 1.05021 -2.0978 0
M  V30 4046 C 389.188 1.39809 -1.03583 0
M  V30 4047 O 390.364 1.49182 -1.35302 0
M  V30 4048 C 387.429 2.33301 -2.56459 0
M  V30 4049 C 386.49 2.0512 -3.77127 0
M  V30 4050 C 385.723 3.27283 -4.2157 0
M  V30 4051 O 385.946 4.37861 -3.65559 0
M  V30 4052 O 384.88 3.13141 -5.14029 0
M  V30 4053 H 388.706 0.636505 -2.96955 0
M  V30 4054 H 386.291 0.248559 -1.47318 0
M  V30 4055 H 388.173 3.08722 -2.86825 0
M  V30 4056 H 386.848 2.73973 -1.72397 0
M  V30 4057 H 385.755 1.27276 -3.51784 0
M  V30 4058 H 387.088 1.69305 -4.62165 0
M  V30 4059 N 388.74 1.54641 0.303973 0
M  V30 4060 C 389.67 1.88386 1.3796 0
M  V30 4061 C 390.651 0.742485 1.5304 0
M  V30 4062 O 391.836 0.997959 1.66597 0
M  V30 4063 C 388.966 2.12854 2.74427 0
M  V30 4064 C 387.92 3.28702 2.74115 0
M  V30 4065 C 387.246 3.38582 4.13844 0
M  V30 4066 C 388.546 4.65881 2.3612 0
M  V30 4067 H 390.24 2.78474 1.09966 0
M  V30 4068 H 387.786 1.33988 0.527556 0
M  V30 4069 H 389.739 2.35047 3.49758 0
M  V30 4070 H 388.463 1.19535 3.03939 0
M  V30 4071 H 387.122 3.06428 2.0124 0
M  V30 4072 H 386.77 2.42784 4.40528 0
M  V30 4073 H 386.47 4.16453 4.14537 0
M  V30 4074 H 387.994 3.63031 4.90959 0
M  V30 4075 H 389.408 4.87823 3.01167 0
M  V30 4076 H 387.805 5.46444 2.48031 0
M  V30 4077 H 388.875 4.66799 1.3125 0
M  V30 4078 N 390.218 -0.567019 1.47046 0
M  V30 4079 C 391.151 -1.69016 1.53326 0
M  V30 4080 C 392.129 -1.57949 0.386126 0
M  V30 4081 O 393.313 -1.78945 0.592529 0
M  V30 4082 C 390.44 -3.07191 1.42658 0
M  V30 4083 C 389.486 -3.36733 2.6175 0
M  V30 4084 S 390.319 -3.27069 4.24012 0
M  V30 4085 C 391.475 -4.67755 4.1588 0
M  V30 4086 H 391.708 -1.63434 2.48348 0
M  V30 4087 H 389.241 -0.747048 1.35124 0
M  V30 4088 H 391.199 -3.86897 1.37191 0
M  V30 4089 H 389.86 -3.10249 0.490369 0
M  V30 4090 H 389.053 -4.37441 2.50323 0
M  V30 4091 H 388.655 -2.64627 2.64289 0
M  V30 4092 H 390.947 -5.58491 3.83529 0
M  V30 4093 H 391.89 -4.84239 5.16641 0
M  V30 4094 H 392.298 -4.45341 3.46889 0
M  V30 4095 N 391.696 -1.35014 -0.812953 0
M  V30 4096 C 392.659 -1.27292 -1.90602 0
M  V30 4097 C 393.659 -0.185817 -1.59723 0
M  V30 4098 O 394.849 -0.439102 -1.68575 0
M  V30 4099 C 391.981 -0.967676 -3.26877 0
M  V30 4100 H 393.174 -2.24479 -1.9887 0
M  V30 4101 H 390.727 -1.19446 -1.00808 0
M  V30 4102 H 391.462 0.0005954 -3.243 0
M  V30 4103 H 391.247 -1.75412 -3.50675 0
M  V30 4104 H 392.737 -0.939085 -4.06904 0
M  V30 4105 N 393.175 1.03435 -1.18907 0
M  V30 4106 C 394.452 1.73778 -0.89781 0
M  V30 4107 C 394.832 2.02458 0.597832 0
M  V30 4108 O 394.18 1.67482 1.55441 0
M  V30 4109 C 394.39 3.01845 -1.75187 0
M  V30 4110 C 395.738 3.7546 -1.9828 0
M  V30 4111 O 396.762 3.11759 -1.72293 0
M  V30 4112 O 395.621 4.89966 -2.42065 0
M  V30 4113 H 392.715 0.75651 -0.334098 0
M  V30 4114 H 395.261 1.09444 -1.29693 0
M  V30 4115 H 394.033 2.76836 -2.76545 0
M  V30 4116 H 393.656 3.73919 -1.35167 0
M  V30 4117 N 394.653 0.992116 1.22453 0
M  V30 4118 C 395.899 0.668523 1.91464 0
M  V30 4119 C 396.232 -0.797313 1.77078 0
M  V30 4120 O 395.507 -1.5765 1.13916 0
M  V30 4121 C 395.79 1.07424 3.43703 0
M  V30 4122 C 395.643 2.59857 3.67143 0
M  V30 4123 C 396.962 0.626891 4.35612 0
M  V30 4124 H 394.081 0.244341 0.695318 0
M  V30 4125 H 396.723 1.2355 1.44345 0
M  V30 4126 H 394.873 0.591816 3.83966 0
M  V30 4127 H 396.545 3.15764 3.3629 0
M  V30 4128 H 394.788 3.01961 3.11451 0
M  V30 4129 H 395.459 2.83296 4.73759 0
M  V30 4130 H 397.935 1.04125 4.02861 0
M  V30 4131 H 396.811 0.939076 5.40807 0
M  V30 4132 H 397.072 -0.472457 4.39568 0
M  V30 4133 N 396.131 -1.37776 0.765217 0
M  V30 4134 C 397.379 -1.99454 0.325943 0
M  V30 4135 C 397.7 -1.61049 -1.09947 0
M  V30 4136 O 396.97 -0.872821 -1.75381 0
M  V30 4137 H 395.55 -0.737697 0.117525 0
M  V30 4138 H 398.212 -1.68359 0.981895 0
M  V30 4139 H 397.308 -3.09547 0.398353 0
M  V30 4140 N 397.609 -0.515225 -1.4894 0
M  V30 4141 C 398.858 0.0261361 -2.01683 0
M  V30 4142 C 399.171 1.36719 -1.39883 0
M  V30 4143 O 400.377 1.99606 -1.84037 0
M  V30 4144 C 398.833 0.0970111 -3.59769 0
M  V30 4145 C 398.441 -1.23825 -4.30548 0
M  V30 4146 C 400.185 0.587981 -4.20408 0
M  V30 4147 C 398.092 -1.12877 -5.80528 0
M  V30 4148 H 397.022 0.0135398 -0.753878 0
M  V30 4149 H 399.673 -0.656787 -1.71343 0
M  V30 4150 H 398.055 0.844694 -3.86886 0
M  V30 4151 H 399.229 -2.00034 -4.15118 0
M  V30 4152 H 397.544 -1.66379 -3.81716 0
M  V30 4153 H 400.141 0.68763 -5.3026 0
M  V30 4154 H 400.484 1.59026 -3.84729 0
M  V30 4155 H 401.017 -0.103582 -3.97665 0
M  V30 4156 H 397.756 -2.10575 -6.20756 0
M  V30 4157 H 397.276 -0.407799 -5.98412 0
M  V30 4158 H 398.955 -0.813332 -6.41868 0
M  V30 4159 N 399.087 1.5561 -0.249682 0
M  V30 4160 C 400.312 2.03865 0.381305 0
M  V30 4161 C 400.737 1.12769 1.50548 0
M  V30 4162 O 400.095 0.121189 1.80895 0
M  V30 4163 C 400.143 3.50101 0.863816 0
M  V30 4164 O 399.247 3.62132 1.97318 0
M  V30 4165 H 398.588 0.658827 0.0827194 0
M  V30 4166 H 401.118 2.01105 -0.376552 0
M  V30 4167 H 401.128 3.90975 1.1663 0
M  V30 4168 H 399.803 4.1588 0.0411816 0
M  V30 4169 H 398.38 3.33155 1.67517 0
M  V30 4170 N 400.565 -0.0233959 1.57583 0
M  V30 4171 C 401.811 -0.714119 1.89811 0
M  V30 4172 C 402.144 -1.74702 0.848113 0
M  V30 4173 O 401.419 -1.94023 -0.136135 0
M  V30 4174 C 401.702 -1.37853 3.32669 0
M  V30 4175 C 401.555 -0.358764 4.48367 0
M  V30 4176 C 402.874 -2.31101 3.7454 0
M  V30 4177 H 399.993 -0.25814 0.690314 0
M  V30 4178 H 402.635 0.0230927 1.89986 0
M  V30 4179 H 400.785 -2.00689 3.3265 0
M  V30 4180 H 402.457 0.268115 4.6052 0
M  V30 4181 H 400.7 0.321387 4.32608 0
M  V30 4182 H 401.371 -0.862242 5.45224 0
M  V30 4183 H 403.847 -1.78304 3.75961 0
M  V30 4184 H 402.723 -2.74567 4.75294 0
M  V30 4185 H 402.984 -3.18018 3.0711 0
M  V30 4186 N 402.043 -1.548 -0.295768 0
M  V30 4187 C 403.32 -1.65014 -1.05023 0
M  V30 4188 C 403.7 -0.501805 -2.05049 0
M  V30 4189 O 403.048 0.500869 -2.22943 0
M  V30 4190 C 403.258 -3.03252 -1.72741 0
M  V30 4191 C 404.606 -3.60242 -2.24746 0
M  V30 4192 O 405.63 -3.05737 -1.82765 0
M  V30 4193 O 404.489 -4.55687 -3.01681 0
M  V30 4194 H 401.583 -0.669314 -0.485744 0
M  V30 4195 H 404.129 -1.67144 -0.293438 0
M  V30 4196 H 402.901 -3.7827 -1.00138 0
M  V30 4197 H 402.524 -3.04922 -2.55163 0
M  V30 4198 N 403.521 0.559213 -1.47345 0
M  V30 4199 C 404.454 1.68201 -1.5422 0
M  V30 4200 C 405.432 1.57742 -0.394497 0
M  V30 4201 O 406.616 1.78628 -0.60201 0
M  V30 4202 C 403.743 3.0643 -1.44285 0
M  V30 4203 C 402.789 3.3534 -2.63532 0
M  V30 4204 S 403.622 3.24816 -4.25741 0
M  V30 4205 C 404.778 4.65542 -4.18355 0
M  V30 4206 H 405.011 1.62114 -2.49211 0
M  V30 4207 H 402.544 0.739871 -1.35519 0
M  V30 4208 H 404.502 3.86164 -1.3924 0
M  V30 4209 H 403.163 3.09984 -0.506816 0
M  V30 4210 H 402.356 4.36107 -2.52639 0
M  V30 4211 H 401.958 2.63221 -2.65689 0
M  V30 4212 H 404.25 5.56449 -3.86485 0
M  V30 4213 H 405.193 4.81493 -5.19202 0
M  V30 4214 H 405.601 4.43495 -3.49246 0
M  V30 4215 N 404.999 1.35443 0.805782 0
M  V30 4216 C 406.276 1.19325 1.54987 0
M  V30 4217 C 406.656 -0.227294 2.09873 0
M  V30 4218 O 406.004 -1.2309 1.92512 0
M  V30 4219 C 406.214 2.26196 2.65775 0
M  V30 4220 C 407.562 2.62043 3.34094 0
M  V30 4221 O 408.586 2.25115 2.76046 0
M  V30 4222 O 407.445 3.25542 4.38958 0
M  V30 4223 H 404.539 0.463623 0.684823 0
M  V30 4224 H 407.085 1.47127 0.845674 0
M  V30 4225 H 405.857 3.21471 2.23096 0
M  V30 4226 H 405.48 1.99667 3.43829 0
M  V30 4227 N 406.477 -1.02803 1.19454 0
M  V30 4228 C 407.707 -1.79581 1.02149 0
M  V30 4229 C 408.115 -1.84182 -0.432851 0
M  V30 4230 O 407.458 -1.28534 -1.31243 0
M  V30 4231 C 407.52 -3.25993 1.51554 0
M  V30 4232 C 407.184 -3.45025 2.99678 0
M  V30 4233 C 408.181 -3.35175 3.97434 0
M  V30 4234 C 405.866 -3.71212 3.38389 0
M  V30 4235 C 407.86 -3.51238 5.31893 0
M  V30 4236 C 405.547 -3.8692 4.73008 0
M  V30 4237 C 406.545 -3.76936 5.69569 0
M  V30 4238 O 406.233 -3.92179 7.01748 0
M  V30 4239 H 405.965 -0.571962 0.360327 0
M  V30 4240 H 408.519 -1.30367 1.58725 0
M  V30 4241 H 406.749 -3.76235 0.893543 0
M  V30 4242 H 408.438 -3.84368 1.30444 0
M  V30 4243 H 409.204 -3.14895 3.68872 0
M  V30 4244 H 405.083 -3.78075 2.6378 0
M  V30 4245 H 408.627 -3.43362 6.07247 0
M  V30 4246 H 404.524 -4.06699 5.01265 0
M  V30 4247 H 405.292 -4.09265 7.08833 0
M  V30 4248 N 407.956 -0.998596 -1.21925 0
M  V30 4249 C 409.204 -0.676325 -1.90448 0
M  V30 4250 C 409.525 0.794719 -1.78071 0
M  V30 4251 O 408.795 1.5701 -1.17152 0
M  V30 4252 H 407.375 -0.247165 -0.704925 0
M  V30 4253 H 410.037 -1.26633 -1.48156 0
M  V30 4254 H 409.133 -0.943858 -2.97486 0
M  V30 4255 N 409.434 1.37368 -0.772513 0
M  V30 4256 C 410.845 1.8231 -0.402493 0
M  V30 4257 C 411.196 1.6436 1.07146 0
M  V30 4258 O 410.321 1.15514 1.82991 0
M  V30 4259 C 410.916 3.30979 -0.723776 0
M  V30 4260 C 409.475 3.74195 -0.406802 0
M  V30 4261 C 408.622 2.59885 -0.967218 0
M  V30 4262 H 411.573 1.25829 -0.967099 0
M  V30 4263 H 411.594 3.80499 -0.00870832 0
M  V30 4264 H 411.106 3.44011 -1.7966 0
M  V30 4265 H 409.207 3.66732 0.658673 0
M  V30 4266 H 409.32 4.7027 -0.915588 0
M  V30 4267 H 407.684 2.51674 -0.391416 0
M  V30 4268 H 408.467 2.7571 -2.04546 0
M  V30 4269 N 410.912 0.523116 1.48665 0
M  V30 4270 C 412.137 -0.0117284 2.07397 0
M  V30 4271 C 412.562 -1.28031 1.37803 0
M  V30 4272 O 411.92 -1.75836 0.441762 0
M  V30 4273 C 411.968 -0.225786 3.59892 0
M  V30 4274 O 411.072 -1.29592 3.91509 0
M  V30 4275 H 410.413 0.0360673 0.66302 0
M  V30 4276 H 412.943 0.729066 1.9117 0
M  V30 4277 H 412.953 -0.450552 4.05505 0
M  V30 4278 H 411.628 0.700944 4.09951 0
M  V30 4279 H 410.205 -1.05436 3.57684 0
M  V30 4280 N 412.39 -1.55475 0.257931 0
M  V30 4281 C 413.615 -2.04064 -0.370488 0
M  V30 4282 C 414.04 -1.13565 -1.49948 0
M  V30 4283 O 413.398 -0.130781 -1.80828 0
M  V30 4284 C 413.446 -3.50554 -0.845237 0
M  V30 4285 O 412.55 -3.63173 -1.95394 0
M  V30 4286 H 411.891 -0.659257 -0.0792243 0
M  V30 4287 H 414.421 -2.00903 0.387212 0
M  V30 4288 H 414.431 -3.91588 -1.14555 0
M  V30 4289 H 413.106 -4.15896 -0.0191259 0
M  V30 4290 H 411.683 -3.34039 -1.65748 0
M  V30 4291 N 413.868 0.0150385 -1.57593 0
M  V30 4292 C 415.116 0.701613 -1.8953 0
M  V30 4293 C 415.437 1.75139 -0.857396 0
M  V30 4294 O 414.707 1.95607 0.107194 0
M  V30 4295 H 413.287 0.26213 -0.699498 0
M  V30 4296 H 415.949 -0.0223304 -1.94887 0
M  V30 4297 H 415.045 1.18236 -2.88837 0
M  V30 4298 N 415.346 1.54954 0.287554 0
M  V30 4299 C 416.571 1.79209 1.04397 0
M  V30 4300 C 416.996 0.556431 1.79682 0
M  V30 4301 O 416.354 -0.493518 1.74454 0
M  V30 4302 C 416.402 3.00739 1.98969 0
M  V30 4303 O 415.506 2.74805 3.075 0
M  V30 4304 H 414.847 0.592755 0.299227 0
M  V30 4305 H 417.377 2.02068 0.320886 0
M  V30 4306 H 417.387 3.29077 2.4119 0
M  V30 4307 H 416.062 3.90329 1.43582 0
M  V30 4308 H 414.639 2.57523 2.69697 0
M  V30 4309 N 416.824 -0.551391 1.4764 0
M  V30 4310 C 417.787 -1.64007 1.60107 0
M  V30 4311 C 418.787 -1.53601 0.47576 0
M  V30 4312 O 419.977 -1.57655 0.740988 0
M  V30 4313 C 417.109 -3.03569 1.55108 0
M  V30 4314 H 418.302 -1.543 2.57161 0
M  V30 4315 H 415.855 -0.771776 1.35917 0
M  V30 4316 H 416.59 -3.18804 0.594519 0
M  V30 4317 H 416.375 -3.12532 2.36783 0
M  V30 4318 H 417.865 -3.82762 1.66982 0
M  V30 4319 N 418.302 -1.35869 -0.798587 0
M  V30 4320 C 419.55 -1.29332 -1.55298 0
M  V30 4321 C 419.871 0.129729 -1.94568 0
M  V30 4322 O 419.141 1.06796 -1.6423 0
M  V30 4323 H 417.721 -0.475737 -0.57592 0
M  V30 4324 H 420.383 -1.70062 -0.952093 0
M  V30 4325 H 419.479 -1.91458 -2.46476 0
M  V30 4326 N 419.78 1.02168 -1.19998 0
M  V30 4327 C 421.005 1.79833 -1.03319 0
M  V30 4328 C 421.43 1.83504 0.413281 0
M  V30 4329 O 420.788 1.26635 1.29743 0
M  V30 4330 C 420.836 3.22396 -1.61533 0
M  V30 4331 O 419.94 4.03555 -0.849519 0
M  V30 4332 H 419.281 0.554872 -0.364709 0
M  V30 4333 H 421.811 1.28542 -1.59179 0
M  V30 4334 H 421.821 3.73124 -1.65054 0
M  V30 4335 H 420.496 3.19039 -2.66809 0
M  V30 4336 H 419.073 3.62169 -0.888129 0
M  V30 4337 N 421.258 1.00505 1.21394 0
M  V30 4338 C 422.483 0.706367 1.95001 0
M  V30 4339 C 422.908 -0.72463 1.73582 0
M  V30 4340 O 422.266 -1.49702 1.0227 0
M  V30 4341 C 422.314 1.03299 3.45487 0
M  V30 4342 O 421.418 0.138275 4.12168 0
M  V30 4343 H 420.759 0.263175 0.609619 0
M  V30 4344 H 423.289 1.34531 1.54151 0
M  V30 4345 H 423.299 0.979872 3.96059 0
M  V30 4346 H 421.974 2.07567 3.60401 0
M  V30 4347 H 420.551 0.247928 3.72075 0
M  V30 4348 N 422.737 -1.36956 0.779787 0
M  V30 4349 C 424.153 -1.52817 0.460342 0
M  V30 4350 C 424.353 -1.7361 -1.02283 0
M  V30 4351 O 423.409 -1.76207 -1.80852 0
M  V30 4352 C 424.722 -2.71983 1.28241 0
M  V30 4353 C 426.27 -2.85849 1.27512 0
M  V30 4354 C 426.745 -4.08008 2.08072 0
M  V30 4355 N 428.236 -4.15135 2.05467 0
M  V30 4356 C 428.971 -5.08711 2.64577 0
M  V30 4357 N 428.467 -6.07792 3.32506 0
M  V30 4358 N 430.26 -5.01254 2.54363 0
M  V30 4359 H 422.411 -1.21713 1.74068 0
M  V30 4360 H 424.674 -0.593294 0.739396 0
M  V30 4361 H 424.38 -2.63109 2.33381 0
M  V30 4362 H 424.254 -3.65882 0.917088 0
M  V30 4363 H 426.641 -2.94189 0.231686 0
M  V30 4364 H 426.722 -1.92886 1.68014 0
M  V30 4365 H 426.366 -4.00429 3.12441 0
M  V30 4366 H 426.296 -5.001 1.64947 0
M  V30 4367 H 428.787 -3.44189 1.5602 0
M  V30 4368 H 429.1 -6.75739 3.74963 0
M  V30 4369 H 427.445 -6.08047 3.36606 0
M  V30 4370 H 430.636 -4.22795 2.00902 0
M  V30 4371 H 430.809 -5.73995 3.00722 0
M  V30 4372 N 424.215 -0.530993 -1.48385 0
M  V30 4373 C 425.461 0.00274135 -2.028 0
M  V30 4374 C 425.794 1.33838 -1.40716 0
M  V30 4375 O 425.069 1.86465 -0.553277 0
M  V30 4376 C 425.352 0.123676 -3.59888 0
M  V30 4377 C 425.205 -1.2372 -4.3245 0
M  V30 4378 C 426.524 0.849967 -4.31814 0
M  V30 4379 H 423.643 -0.000477758 -0.737 0
M  V30 4380 H 426.285 -0.688217 -1.77098 0
M  V30 4381 H 424.435 0.712157 -3.81917 0
M  V30 4382 H 426.107 -1.86687 -4.21836 0
M  V30 4383 H 424.35 -1.81882 -3.93829 0
M  V30 4384 H 425.021 -1.10557 -5.40815 0
M  V30 4385 H 427.497 0.350572 -4.14621 0
M  V30 4386 H 426.373 0.903486 -5.41413 0
M  V30 4387 H 426.634 1.90047 -3.99167 0
M  V30 4388 N 425.693 1.55336 -0.266172 0
M  V30 4389 C 426.625 2.19544 0.658247 0
M  V30 4390 C 427.638 1.17746 1.12427 0
M  V30 4391 O 428.827 1.44517 1.04772 0
M  V30 4392 C 425.927 2.80032 1.9088 0
M  V30 4393 C 425.1 4.07436 1.59106 0
M  V30 4394 C 424.159 4.52056 2.69317 0
M  V30 4395 O 423.185 5.18023 2.35883 0
M  V30 4396 N 424.387 4.21448 3.99201 0
M  V30 4397 H 427.152 2.99503 0.108754 0
M  V30 4398 H 424.713 1.61667 -0.0869059 0
M  V30 4399 H 426.705 3.06831 2.63888 0
M  V30 4400 H 425.275 2.04119 2.36758 0
M  V30 4401 H 424.495 3.88021 0.695243 0
M  V30 4402 H 425.783 4.90462 1.35367 0
M  V30 4403 H 425.181 3.68528 4.29189 0
M  V30 4404 H 423.738 4.53039 4.68614 0
M  V30 4405 N 427.171 -0.0066808 1.57599 0
M  V30 4406 C 428.587 -0.36267 1.55425 0
M  V30 4407 C 428.787 -1.75209 0.995187 0
M  V30 4408 O 427.843 -2.44616 0.626058 0
M  V30 4409 C 429.156 -0.244017 2.99708 0
M  V30 4410 C 430.704 -0.319451 3.11366 0
M  V30 4411 C 431.179 -0.229998 4.57422 0
M  V30 4412 N 432.67 -0.288105 4.62303 0
M  V30 4413 C 433.405 -0.242127 5.72889 0
M  V30 4414 N 432.901 -0.147133 6.92644 0
M  V30 4415 N 434.694 -0.293502 5.61333 0
M  V30 4416 H 426.845 0.902314 1.92281 0
M  V30 4417 H 429.108 0.34525 0.882896 0
M  V30 4418 H 428.814 0.711678 3.44424 0
M  V30 4419 H 428.688 -1.02877 3.629 0
M  V30 4420 H 431.075 -1.26559 2.66584 0
M  V30 4421 H 431.156 0.495055 2.50964 0
M  V30 4422 H 430.8 0.712566 5.02877 0
M  V30 4423 H 430.73 -1.0629 5.15761 0
M  V30 4424 H 433.221 -0.363126 3.76151 0
M  V30 4425 H 433.534 -0.117763 7.7271 0
M  V30 4426 H 431.879 -0.112857 6.94908 0
M  V30 4427 H 435.07 -0.365864 4.66668 0
M  V30 4428 H 435.243 -0.254204 6.47501 0
M  V30 4429 N 428.649 -1.55105 -0.279332 0
M  V30 4430 C 429.612 -1.86783 -1.32834 0
M  V30 4431 C 430.612 -0.74199 -1.42657 0
M  V30 4432 O 431.802 -1.0102 -1.41918 0
M  V30 4433 C 428.934 -2.06746 -2.71052 0
M  V30 4434 H 430.127 -2.8055 -1.05979 0
M  V30 4435 H 427.68 -1.47499 -0.517087 0
M  V30 4436 H 428.415 -1.15339 -3.03097 0
M  V30 4437 H 428.2 -2.88711 -2.65309 0
M  V30 4438 H 429.69 -2.32549 -3.46858 0
M  V30 4439 N 430.127 0.543554 -1.4793 0
M  V30 4440 C 431.057 1.65888 -1.64327 0
M  V30 4441 C 432.038 1.62818 -0.492383 0
M  V30 4442 O 433.223 1.80226 -0.723338 0
M  V30 4443 C 430.353 3.04506 -1.67013 0
M  V30 4444 C 429.307 3.2243 -2.81466 0
M  V30 4445 C 428.633 4.61972 -2.69233 0
M  V30 4446 C 429.933 3.06496 -4.22915 0
M  V30 4447 H 431.627 1.52421 -2.57698 0
M  V30 4448 H 429.173 0.731849 -1.24016 0
M  V30 4449 H 431.126 3.82391 -1.77074 0
M  V30 4450 H 429.85 3.18964 -0.70212 0
M  V30 4451 H 428.509 2.46957 -2.70938 0
M  V30 4452 H 428.157 4.73247 -1.7043 0
M  V30 4453 H 427.857 4.74911 -3.46025 0
M  V30 4454 H 429.381 5.41974 -2.81242 0
M  V30 4455 H 430.795 3.74186 -4.34348 0
M  V30 4456 H 429.192 3.30938 -5.006 0
M  V30 4457 H 430.262 2.03077 -4.40327 0
M  V30 4458 N 431.605 1.3629 0.791371 0
M  V30 4459 C 432.552 1.30458 1.90393 0
M  V30 4460 C 433.522 0.173632 1.6519 0
M  V30 4461 O 434.707 0.35983 1.87376 0
M  V30 4462 C 431.847 1.09777 3.27174 0
M  V30 4463 C 430.96 2.31929 3.64462 0
M  V30 4464 C 430.095 2.04276 4.90352 0
M  V30 4465 C 429.134 3.224 5.20312 0
M  V30 4466 N 428.271 2.94424 6.37385 0
M  V30 4467 H 433.111 2.25589 1.94714 0
M  V30 4468 H 430.648 1.12122 0.952216 0
M  V30 4469 H 432.606 0.958133 4.06049 0
M  V30 4470 H 431.236 0.183014 3.22281 0
M  V30 4471 H 430.288 2.56703 2.80727 0
M  V30 4472 H 431.6 3.20085 3.82553 0
M  V30 4473 H 430.754 1.87231 5.77087 0
M  V30 4474 H 429.493 1.13428 4.74326 0
M  V30 4475 H 428.498 3.40005 4.32061 0
M  V30 4476 H 429.723 4.14071 5.38258 0
M  V30 4477 H 427.669 2.06185 6.22755 0
M  V30 4478 H 427.586 3.76118 6.55798 0
M  V30 4479 H 428.854 2.80953 7.27108 0
M  V30 4480 N 433.083 -1.0153 1.20538 0
M  V30 4481 C 433.993 -2.13557 0.971113 0
M  V30 4482 C 435.009 -1.73845 -0.0734366 0
M  V30 4483 O 436.185 -2.01075 0.114299 0
M  V30 4484 C 433.25 -3.42661 0.527639 0
M  V30 4485 C 432.311 -3.96608 1.64319 0
M  V30 4486 C 431.544 -5.1955 1.22078 0
M  V30 4487 O 431.767 -5.70329 0.0900198 0
M  V30 4488 O 430.701 -5.66681 2.02871 0
M  V30 4489 H 434.527 -2.3619 1.90913 0
M  V30 4490 H 432.112 -1.11946 0.989362 0
M  V30 4491 H 433.994 -4.20404 0.289621 0
M  V30 4492 H 432.669 -3.21441 -0.381779 0
M  V30 4493 H 431.576 -3.20139 1.93551 0
M  V30 4494 H 432.909 -4.22219 2.52966 0
M  V30 4495 N 434.561 -1.01147 -1.20859 0
M  V30 4496 C 435.509 -0.57059 -2.25493 0
M  V30 4497 C 436.503 0.388109 -1.64894 0
M  V30 4498 O 437.709 0.258592 -1.78133 0
M  V30 4499 H 434.084 -0.166191 -0.733406 0
M  V30 4500 H 436.055 -1.46411 -2.60012 0
M  V30 4501 C 434.804 0.0805241 -3.47607 0
M  V30 4502 H 434.127 -0.648156 -3.94511 0
M  V30 4503 H 435.567 0.352197 -4.22535 0
M  V30 4504 C 434.026 1.32175 -3.09889 0
M  V30 4505 O 434.556 2.41553 -3.20959 0
M  V30 4506 N 432.762 1.20392 -2.64488 0
M  V30 4507 H 432.309 0.313905 -2.5568 0
M  V30 4508 H 432.267 2.03541 -2.39621 0
M  V30 4509 N 436.039 1.36541 -0.78704 0
M  V30 4510 C 437.286 1.99304 -0.358341 0
M  V30 4511 C 437.614 1.62467 1.06933 0
M  V30 4512 O 436.869 0.870019 1.75297 0
M  V30 4513 C 437.168 3.54343 -0.466485 0
M  V30 4514 C 436.834 4.10993 -1.85461 0
M  V30 4515 C 435.496 4.26177 -2.23443 0
M  V30 4516 C 437.848 4.41895 -2.76366 0
M  V30 4517 C 435.176 4.69573 -3.51736 0
M  V30 4518 C 437.528 4.86722 -4.04084 0
M  V30 4519 C 436.192 5.00112 -4.42091 0
M  V30 4520 H 435.462 0.729306 -0.131126 0
M  V30 4521 H 438.109 1.63068 -1.00404 0
M  V30 4522 H 436.414 3.90918 0.262719 0
M  V30 4523 H 438.111 4.00833 -0.115854 0
M  V30 4524 H 434.701 3.99612 -1.54946 0
M  V30 4525 H 438.885 4.29735 -2.48277 0
M  V30 4526 H 434.141 4.78127 -3.81057 0
M  V30 4527 H 438.315 5.09598 -4.7464 0
M  V30 4528 H 435.942 5.33498 -5.41557 0
M  V30 4529 N 437.518 0.538854 1.48102 0
M  V30 4530 C 438.766 0.00798599 2.02098 0
M  V30 4531 C 439.087 -1.33922 1.41739 0
M  V30 4532 O 438.357 -1.86932 0.585934 0
M  V30 4533 H 436.937 -3.62179e-05 0.747 0
M  V30 4534 H 439.599 0.7047 1.81714 0
M  V30 4535 H 438.695 -0.0937672 3.11959 0
M  V30 4536 N 438.996 -1.55193 0.274407 0
M  V30 4537 C 440.226 -2.03692 -0.345442 0
M  V30 4538 C 440.634 -1.15224 -1.50067 0
M  V30 4539 O 439.977 -0.164749 -1.8296 0
M  V30 4540 C 440.039 -3.48325 -0.88939 0
M  V30 4541 C 439.703 -4.56794 0.137115 0
M  V30 4542 C 440.7 -5.11028 0.956378 0
M  V30 4543 C 438.385 -5.01568 0.27115 0
M  V30 4544 C 440.379 -6.08552 1.89587 0
M  V30 4545 C 438.066 -5.98918 1.21412 0
M  V30 4546 C 439.064 -6.52291 2.02498 0
M  V30 4547 O 438.752 -7.47738 2.952 0
M  V30 4548 H 438.484 -0.670893 -0.0829332 0
M  V30 4549 H 441.038 -2.01387 0.404056 0
M  V30 4550 H 439.268 -3.47867 -1.68895 0
M  V30 4551 H 440.957 -3.80167 -1.42225 0
M  V30 4552 H 441.723 -4.7725 0.863559 0
M  V30 4553 H 437.602 -4.5967 -0.349987 0
M  V30 4554 H 441.146 -6.50137 2.52918 0
M  V30 4555 H 437.043 -6.32114 1.30776 0
M  V30 4556 H 437.811 -7.65451 2.89874 0
M  V30 4557 N 440.474 -0.00167713 -1.576 0
M  V30 4558 C 441.422 1.0074 -2.09652 0
M  V30 4559 C 442.416 1.35483 -1.01689 0
M  V30 4560 O 443.622 1.34028 -1.20152 0
M  V30 4561 H 439.997 0.342537 -0.669457 0
M  V30 4562 H 441.968 0.542841 -2.93421 0
M  V30 4563 C 440.717 2.2899 -2.61647 0
M  V30 4564 H 440.04 2.03124 -3.44355 0
M  V30 4565 H 441.48 2.9787 -3.01744 0
M  V30 4566 C 439.939 3.00085 -1.53136 0
M  V30 4567 O 440.469 3.91135 -0.91524 0
M  V30 4568 N 438.675 2.6194 -1.25841 0
M  V30 4569 H 438.222 1.8798 -1.76129 0
M  V30 4570 H 438.18 3.09822 -0.534576 0
M  V30 4571 N 441.952 1.55251 0.271103 0
M  V30 4572 C 442.884 1.84675 1.35749 0
M  V30 4573 C 443.897 0.731366 1.45447 0
M  V30 4574 O 445.086 1.00924 1.4723 0
M  V30 4575 C 442.186 1.99638 2.73857 0
M  V30 4576 C 441.359 3.30312 2.86727 0
M  V30 4577 C 440.418 3.35318 4.05522 0
M  V30 4578 O 439.444 4.08682 3.96191 0
M  V30 4579 N 440.646 2.62857 5.17577 0
M  V30 4580 H 443.411 2.78445 1.10853 0
M  V30 4581 H 440.972 1.55191 0.461218 0
M  V30 4582 H 442.964 2.00355 3.51625 0
M  V30 4583 H 441.534 1.12725 2.91568 0
M  V30 4584 H 440.754 3.42118 1.95829 0
M  V30 4585 H 442.042 4.16488 2.92258 0
M  V30 4586 H 441.44 2.02939 5.28046 0
M  V30 4587 H 439.997 2.69295 5.93568 0
M  V30 4588 N 443.43 -0.535701 1.48216 0
M  V30 4589 C 444.655 -1.32149 1.59848 0
M  V30 4590 C 445.08 -1.86338 0.256842 0
M  V30 4591 O 444.438 -1.64107 -0.770632 0
M  V30 4592 C 444.486 -2.45224 2.64381 0
M  V30 4593 O 443.59 -3.48093 2.21144 0
M  V30 4594 H 442.931 -0.391634 0.536208 0
M  V30 4595 H 445.461 -0.645202 1.94161 0
M  V30 4596 H 445.471 -2.91491 2.85476 0
M  V30 4597 H 444.146 -2.05143 3.61786 0
M  V30 4598 H 442.723 -3.07984 2.10239 0
M  V30 4599 N 444.908 -1.36708 -0.784132 0
M  V30 4600 C 446.154 -1.31426 -1.54451 0
M  V30 4601 C 446.487 0.10476 -1.93917 0
M  V30 4602 O 445.762 1.05934 -1.6312 0
M  V30 4603 C 446.045 -2.24189 -2.818 0
M  V30 4604 C 445.898 -3.74813 -2.48667 0
M  V30 4605 C 447.217 -2.15626 -3.83658 0
M  V30 4606 H 444.336 -0.478739 -0.560337 0
M  V30 4607 H 446.978 -1.67305 -0.900498 0
M  V30 4608 H 445.128 -1.93722 -3.36755 0
M  V30 4609 H 446.8 -4.15823 -1.99722 0
M  V30 4610 H 445.043 -3.93989 -1.81535 0
M  V30 4611 H 445.714 -4.35138 -3.39646 0
M  V30 4612 H 448.19 -2.42456 -3.38163 0
M  V30 4613 H 447.066 -2.82694 -4.70506 0
M  V30 4614 H 447.327 -1.14522 -4.27009 0
M  V30 4615 N 446.386 1.0089 -1.21074 0
M  V30 4616 C 447.336 2.0799 -0.934034 0
M  V30 4617 C 448.32 1.60529 0.10919 0
M  V30 4618 O 449.512 1.76722 -0.0992198 0
M  V30 4619 C 446.641 3.39693 -0.496334 0
M  V30 4620 C 445.727 3.93833 -1.57341 0
M  V30 4621 N 446.118 4.21388 -2.7976 0
M  V30 4622 C 444.416 4.22067 -1.44137 0
M  V30 4623 C 445.117 4.65156 -3.49292 0
M  V30 4624 N 444.093 4.67895 -2.76722 0
M  V30 4625 H 447.895 2.27213 -1.86417 0
M  V30 4626 H 445.409 1.18927 -1.10589 0
M  V30 4627 H 447.406 4.15962 -0.279471 0
M  V30 4628 H 446.066 3.21879 0.427084 0
M  V30 4629 H 447.077 4.10061 -3.1634 0
M  V30 4630 H 443.754 4.1341 -0.582947 0
M  V30 4631 H 445.144 4.95231 -4.54088 0
M  V30 4632 N 447.864 1.01787 1.20321 0
M  V30 4633 C 448.796 0.547357 2.22568 0
M  V30 4634 C 449.809 -0.370922 1.58518 0
M  V30 4635 O 450.998 -0.169067 1.77698 0
M  V30 4636 C 448.098 -0.223031 3.38165 0
M  V30 4637 C 447.271 0.697472 4.31803 0
M  V30 4638 C 446.33 -0.025562 5.26194 0
M  V30 4639 O 445.356 0.597367 5.66057 0
M  V30 4640 N 446.558 -1.29999 5.65757 0
M  V30 4641 H 449.323 1.42668 2.63564 0
M  V30 4642 H 446.884 0.895552 1.34876 0
M  V30 4643 H 448.876 -0.716002 3.98316 0
M  V30 4644 H 447.446 -1.00366 2.9605 0
M  V30 4645 H 446.666 1.37073 3.69601 0
M  V30 4646 H 447.954 1.32347 4.91286 0
M  V30 4647 H 447.352 -1.827 5.35385 0
M  V30 4648 H 445.909 -1.73766 6.28211 0
M  V30 4649 N 449.342 -1.36122 0.79427 0
M  V30 4650 C 450.591 -1.98361 0.365464 0
M  V30 4651 C 450.904 -1.6374 -1.06997 0
M  V30 4652 O 452.11 -2.19251 -1.60129 0
M  V30 4653 C 450.566 -3.54821 0.602496 0
M  V30 4654 C 450.174 -3.98362 2.04967 0
M  V30 4655 C 451.918 -4.2383 0.238437 0
M  V30 4656 C 449.825 -5.47619 2.2331 0
M  V30 4657 H 448.755 -0.742193 0.13291 0
M  V30 4658 H 451.406 -1.55354 0.976589 0
M  V30 4659 H 449.788 -3.95922 -0.078409 0
M  V30 4660 H 450.962 -3.68447 2.76737 0
M  V30 4661 H 449.277 -3.42206 2.37243 0
M  V30 4662 H 451.874 -5.33529 0.353705 0
M  V30 4663 H 452.217 -4.08264 -0.814006 0
M  V30 4664 H 452.75 -3.88108 0.872769 0
M  V30 4665 H 449.489 -5.68138 3.26955 0
M  V30 4666 H 449.009 -5.79145 1.5605 0
M  V30 4667 H 450.688 -6.13911 2.0426 0
M  V30 4668 N 450.82 -0.546701 -1.47814 0
M  V30 4669 C 451.768 0.220048 -2.31557 0
M  V30 4670 C 452.762 0.919472 -1.42275 0
M  V30 4671 O 453.968 0.841953 -1.59095 0
M  V30 4672 H 450.343 0.0898334 -0.746615 0
M  V30 4673 H 452.314 -0.505589 -2.94086 0
M  V30 4674 C 451.063 1.24353 -3.24702 0
M  V30 4675 H 450.386 0.714758 -3.93359 0
M  V30 4676 H 451.826 1.75112 -3.8615 0
M  V30 4677 C 450.285 2.28593 -2.47481 0
M  V30 4678 O 450.815 3.35334 -2.21165 0
M  V30 4679 N 449.021 2.02244 -2.08676 0
M  V30 4680 H 448.568 1.15455 -2.30278 0
M  V30 4681 H 448.526 2.72207 -1.57323 0
M  V30 4682 N 452.299 1.55045 -0.282633 0
M  V30 4683 C 453.715 1.59441 0.0712997 0
M  V30 4684 C 453.915 1.2998 1.53972 0
M  V30 4685 O 452.971 1.06431 2.28973 0
M  V30 4686 C 454.284 2.99097 -0.310104 0
M  V30 4687 C 455.832 3.1194 -0.257343 0
M  V30 4688 C 456.307 4.53875 -0.613297 0
M  V30 4689 N 457.798 4.5974 -0.565134 0
M  V30 4690 C 458.533 5.67603 -0.81326 0
M  V30 4691 N 458.029 6.83582 -1.1264 0
M  V30 4692 N 459.822 5.57187 -0.741553 0
M  V30 4693 H 451.973 1.72458 -1.23984 0
M  V30 4694 H 454.236 0.804549 -0.501403 0
M  V30 4695 H 453.942 3.25516 -1.33163 0
M  V30 4696 H 453.816 3.75616 0.345366 0
M  V30 4697 H 456.203 2.85281 0.754905 0
M  V30 4698 H 456.284 2.37618 -0.947178 0
M  V30 4699 H 455.928 4.81261 -1.62327 0
M  V30 4700 H 455.858 5.26508 0.09841 0
M  V30 4701 H 458.349 3.76427 -0.333294 0
M  V30 4702 H 458.662 7.6175 -1.30219 0
M  V30 4703 H 457.007 6.85179 -1.16425 0
M  V30 4704 H 460.198 4.65457 -0.496705 0
M  V30 4705 H 460.371 6.41171 -0.938306 0
M  V30 4706 N 453.777 0.010035 1.57597 0
M  V30 4707 C 455.002 -0.687021 1.95691 0
M  V30 4708 C 455.427 -1.65952 0.885519 0
M  V30 4709 O 454.785 -1.80633 -0.15543 0
M  V30 4710 C 454.833 -1.3864 3.32884 0
M  V30 4711 O 453.937 -2.50115 3.27897 0
M  V30 4712 H 453.278 -0.181989 0.638573 0
M  V30 4713 H 455.808 0.0662122 2.04493 0
M  V30 4714 H 455.818 -1.74754 3.6868 0
M  V30 4715 H 454.493 -0.673411 4.10412 0
M  V30 4716 H 453.07 -2.16253 3.03791 0
M  V30 4717 N 455.255 -1.55392 -0.262866 0
M  V30 4718 C 456.532 -1.67204 -1.01499 0
M  V30 4719 C 456.912 -0.545186 -2.03939 0
M  V30 4720 O 456.26 0.453467 -2.23955 0
M  V30 4721 C 456.47 -3.06847 -1.6627 0
M  V30 4722 C 457.818 -3.64928 -2.17054 0
M  V30 4723 O 458.842 -3.09545 -1.76239 0
M  V30 4724 O 457.701 -4.61984 -2.91947 0
M  V30 4725 H 454.795 -0.679467 -0.471438 0
M  V30 4726 H 457.341 -1.67729 -0.257918 0
M  V30 4727 H 456.113 -3.80309 -0.920915 0
M  V30 4728 H 455.736 -3.10266 -2.48638 0
M  V30 4729 N 456.733 0.527833 -1.48498 0
M  V30 4730 C 457.98 1.28354 -1.56625 0
M  V30 4731 C 458.308 1.93 -0.241096 0
M  V30 4732 O 457.563 1.79967 0.768798 0
M  V30 4733 C 457.862 2.39275 -2.65485 0
M  V30 4734 C 457.528 1.92268 -4.07853 0
M  V30 4735 C 456.19 1.79166 -4.46602 0
M  V30 4736 C 458.542 1.56771 -4.97064 0
M  V30 4737 C 455.87 1.28905 -5.72364 0
M  V30 4738 C 458.222 1.07972 -6.23318 0
M  V30 4739 C 456.886 0.934887 -6.60921 0
M  V30 4740 H 456.156 0.469682 -0.573131 0
M  V30 4741 H 458.803 0.588781 -1.82224 0
M  V30 4742 H 457.108 3.1443 -2.33754 0
M  V30 4743 H 458.805 2.974 -2.68988 0
M  V30 4744 H 455.395 2.03417 -3.77252 0
M  V30 4745 H 459.579 1.65753 -4.67803 0
M  V30 4746 H 454.835 1.16381 -6.00221 0
M  V30 4747 H 459.009 0.795775 -6.91838 0
M  V30 4748 H 456.636 0.543231 -7.58257 0
M  V30 4749 N 458.211 1.37122 0.776871 0
M  V30 4750 C 459.436 1.354 1.57104 0
M  V30 4751 C 459.861 -0.0595562 1.88006 0
M  V30 4752 O 459.219 -1.03514 1.48844 0
M  V30 4753 C 459.267 2.19472 2.8612 0
M  V30 4754 O 458.371 1.59582 3.80273 0
M  V30 4755 H 457.712 0.462869 0.476076 0
M  V30 4756 H 460.242 1.80577 0.961932 0
M  V30 4757 H 460.252 2.32502 3.35271 0
M  V30 4758 H 458.927 3.22222 2.62956 0
M  V30 4759 H 457.504 1.55564 3.38902 0
M  V30 4760 N 459.689 -1.00246 1.21608 0
M  V30 4761 C 460.636 -2.09073 0.977613 0
M  V30 4762 C 461.606 -1.65815 -0.097297 0
M  V30 4763 O 462.791 -1.90734 0.0503445 0
M  V30 4764 C 459.931 -3.40671 0.551133 0
M  V30 4765 C 459.044 -3.97326 1.69576 0
M  V30 4766 C 458.179 -5.17043 1.2182 0
M  V30 4767 C 457.218 -5.65813 2.335 0
M  V30 4768 N 456.355 -6.76778 1.86859 0
M  V30 4769 H 461.195 -2.28806 1.90924 0
M  V30 4770 H 458.732 -1.12186 0.951452 0
M  V30 4771 H 460.69 -4.16225 0.285097 0
M  V30 4772 H 459.32 -3.20967 -0.343489 0
M  V30 4773 H 458.372 -3.18734 2.07637 0
M  V30 4774 H 459.684 -4.29511 2.53617 0
M  V30 4775 H 458.838 -5.99852 0.908975 0
M  V30 4776 H 457.577 -4.86458 0.347869 0
M  V30 4777 H 456.582 -4.81599 2.65222 0
M  V30 4778 H 457.807 -5.98427 3.21033 0
M  V30 4779 H 455.753 -6.47994 1.02174 0
M  V30 4780 H 455.67 -7.08231 2.64471 0
M  V30 4781 H 456.938 -7.63116 1.58978 0
M  V30 4782 N 461.167 -1.02423 -1.1978 0
M  V30 4783 C 462.099 -0.559152 -2.22275 0
M  V30 4784 C 463.112 0.36251 -1.58713 0
M  V30 4785 O 464.301 0.159641 -1.77785 0
M  V30 4786 C 461.401 0.205094 -3.38279 0
M  V30 4787 C 460.574 -0.720361 -4.31427 0
M  V30 4788 C 459.633 -0.00234368 -5.262 0
M  V30 4789 O 458.659 -0.627378 -5.65732 0
M  V30 4790 N 459.861 1.26996 -5.66438 0
M  V30 4791 H 462.626 -1.44064 -2.62804 0
M  V30 4792 H 460.187 -0.902692 -1.34399 0
M  V30 4793 H 462.179 0.694868 -3.9869 0
M  V30 4794 H 460.749 0.987947 -2.96578 0
M  V30 4795 H 459.969 -1.39031 -3.68869 0
M  V30 4796 H 461.257 -1.3495 -4.90577 0
M  V30 4797 H 460.655 1.79858 -5.36347 0
M  V30 4798 H 459.212 1.70432 -6.29123 0
M  V30 4799 N 462.645 1.35699 -0.801477 0
M  V30 4800 C 463.922 1.9324 -0.302937 0
M  V30 4801 C 464.302 1.73209 1.20672 0
M  V30 4802 O 463.65 1.09809 2.00385 0
M  V30 4803 C 463.86 3.41728 -0.708747 0
M  V30 4804 C 465.208 4.18868 -0.695328 0
M  V30 4805 O 466.232 3.5022 -0.649971 0
M  V30 4806 O 465.091 5.41342 -0.749081 0
M  V30 4807 H 462.185 0.82331 -0.0780367 0
M  V30 4808 H 464.731 1.44806 -0.884832 0
M  V30 4809 H 463.503 3.50015 -1.74944 0
M  V30 4810 H 463.126 3.97471 -0.101384 0
M  V30 4811 N 464.123 0.554532 1.47522 0
M  V30 4812 C 465.369 0.0377449 2.03365 0
M  V30 4813 C 465.724 -1.29654 1.42154 0
M  V30 4814 O 465.017 -1.83022 0.566865 0
M  V30 4815 C 465.211 -0.115927 3.57212 0
M  V30 4816 C 465.04 1.20191 4.33341 0
M  V30 4817 C 463.81 1.76849 4.73342 0
M  V30 4818 C 466.008 2.11849 4.68641 0
M  V30 4819 N 463.99 3.02665 5.34104 0
M  V30 4820 C 465.361 3.22245 5.29677 0
M  V30 4821 C 467.416 2.11876 4.5057 0
M  V30 4822 C 466.119 4.32763 5.74551 0
M  V30 4823 C 468.145 3.21405 4.9644 0
M  V30 4824 C 467.507 4.30519 5.57523 0
M  V30 4825 H 463.606 0.0559107 0.779999 0
M  V30 4826 H 466.19 0.741232 1.80038 0
M  V30 4827 H 464.361 -0.788533 3.80311 0
M  V30 4828 H 466.093 -0.634538 3.99695 0
M  V30 4829 H 462.848 1.30681 4.55214 0
M  V30 4830 H 463.272 3.66788 5.69031 0
M  V30 4831 H 467.914 1.28801 4.02704 0
M  V30 4832 H 465.632 5.166 6.2141 0
M  V30 4833 H 469.218 3.22509 4.8423 0
M  V30 4834 H 468.098 5.13873 5.92371 0
M  V30 4835 N 465.601 -1.54893 0.290851 0
M  V30 4836 C 466.511 -2.26812 -0.59945 0
M  V30 4837 C 467.527 -1.29963 -1.15696 0
M  V30 4838 O 468.703 -1.62928 -1.18391 0
M  V30 4839 C 465.768 -2.98716 -1.75982 0
M  V30 4840 C 464.829 -4.1108 -1.2374 0
M  V30 4841 C 464.062 -4.79546 -2.34246 0
M  V30 4842 O 464.285 -4.47309 -3.53936 0
M  V30 4843 O 463.219 -5.67165 -2.01512 0
M  V30 4844 H 467.045 -3.03696 -0.0163561 0
M  V30 4845 H 464.63 -1.49289 0.0576755 0
M  V30 4846 H 466.512 -3.43851 -2.43607 0
M  V30 4847 H 465.187 -2.24737 -2.3297 0
M  V30 4848 H 464.094 -3.70367 -0.527163 0
M  V30 4849 H 465.427 -4.87007 -0.71307 0
M  V30 4850 N 467.08 -0.0183926 -1.57589 0
M  V30 4851 C 468.043 0.951986 -2.08494 0
M  V30 4852 C 469.043 1.26092 -0.997874 0
M  V30 4853 O 470.233 1.20304 -1.25987 0
M  V30 4854 C 467.365 2.27165 -2.54182 0
M  V30 4855 H 468.558 0.511307 -2.95509 0
M  V30 4856 H 466.111 0.229444 -1.54607 0
M  V30 4857 H 466.846 2.75884 -1.70465 0
M  V30 4858 H 466.631 2.06057 -3.33591 0
M  V30 4859 H 468.121 2.9674 -2.93828 0
M  V30 4860 N 468.558 1.5553 0.254621 0
M  V30 4861 C 469.49 1.86104 1.33783 0
M  V30 4862 C 470.503 0.746752 1.44663 0
M  V30 4863 O 471.692 1.0248 1.46151 0
M  V30 4864 C 468.792 2.02532 2.71724 0
M  V30 4865 C 467.965 3.33335 2.83208 0
M  V30 4866 C 467.024 3.396 4.01943 0
M  V30 4867 O 466.05 4.12862 3.91834 0
M  V30 4868 N 467.252 2.68332 5.1476 0
M  V30 4869 H 470.017 2.79605 1.07893 0
M  V30 4870 H 467.578 1.55672 0.444732 0
M  V30 4871 H 469.57 2.04074 3.4948 0
M  V30 4872 H 468.14 1.15811 2.90356 0
M  V30 4873 H 467.36 3.44176 1.92189 0
M  V30 4874 H 468.648 4.19565 2.87824 0
M  V30 4875 H 468.046 2.08528 5.25864 0
M  V30 4876 H 466.603 2.75575 5.90679 0
M  V30 4877 N 470.036 -0.519951 1.48776 0
M  V30 4878 C 471.285 -1.27175 1.56555 0
M  V30 4879 C 471.598 -1.9401 0.248869 0
M  V30 4880 O 472.804 -2.70725 0.205004 0
M  V30 4881 C 471.26 -2.30811 2.76142 0
M  V30 4882 C 470.868 -1.7 4.14493 0
M  V30 4883 C 472.612 -3.06937 2.9324 0
M  V30 4884 C 470.519 -2.71635 5.25327 0
M  V30 4885 H 469.449 -0.478329 0.582853 0
M  V30 4886 H 472.1 -0.547916 1.75129 0
M  V30 4887 H 470.482 -3.06274 2.51023 0
M  V30 4888 H 471.656 -1.00658 4.49672 0
M  V30 4889 H 469.971 -1.06331 4.02595 0
M  V30 4890 H 472.568 -3.82905 3.73213 0
M  V30 4891 H 472.911 -3.63409 2.03075 0
M  V30 4892 H 473.444 -2.38589 3.18308 0
M  V30 4893 H 470.183 -2.1997 6.1749 0
M  V30 4894 H 469.703 -3.39275 4.94624 0
M  V30 4895 H 471.382 -3.34429 5.53865 0
M  V30 4896 N 471.514 -1.37532 -0.769588 0
M  V30 4897 C 472.791 -1.23392 -1.51768 0
M  V30 4898 C 473.171 0.17157 -2.10402 0
M  V30 4899 O 472.519 1.17943 -1.95708 0
M  V30 4900 C 472.729 -2.33163 -2.59685 0
M  V30 4901 C 474.077 -2.70809 -3.27028 0
M  V30 4902 O 475.101 -2.32355 -2.69981 0
M  V30 4903 O 473.96 -3.37066 -4.30173 0
M  V30 4904 H 471.054 -0.481617 -0.67229 0
M  V30 4905 H 473.6 -1.49318 -0.806368 0
M  V30 4906 H 472.372 -3.27273 -2.14494 0
M  V30 4907 H 471.995 -2.08713 -3.38415 0
M  V30 4908 N 472.992 0.995999 -1.22138 0
M  V30 4909 C 473.939 2.08551 -0.988687 0
M  V30 4910 C 474.909 1.65864 0.0885021 0
M  V30 4911 O 476.094 1.90704 -0.0604589 0
M  V30 4912 C 473.234 3.40374 -0.569191 0
M  V30 4913 C 472.347 3.96421 -1.71681 0
M  V30 4914 C 471.482 5.1639 -1.2456 0
M  V30 4915 C 470.521 5.64567 -2.36497 0
M  V30 4916 N 469.658 6.75777 -1.90445 0
M  V30 4917 H 474.498 2.2779 -1.92135 0
M  V30 4918 H 472.035 1.1168 -0.957388 0
M  V30 4919 H 473.993 4.16068 -0.307166 0
M  V30 4920 H 472.623 3.21145 0.326462 0
M  V30 4921 H 471.675 3.17628 -2.09324 0
M  V30 4922 H 472.987 4.2816 -2.55891 0
M  V30 4923 H 472.141 5.99362 -0.940774 0
M  V30 4924 H 470.88 4.86266 -0.373662 0
M  V30 4925 H 469.885 4.80185 -2.67772 0
M  V30 4926 H 471.11 5.96716 -3.24202 0
M  V30 4927 H 469.056 6.47443 -1.05609 0
M  V30 4928 H 468.973 7.06818 -2.68223 0
M  V30 4929 H 470.241 7.62262 -1.63022 0
M  V30 4930 N 474.47 1.03057 1.19235 0
M  V30 4931 C 475.38 0.622922 2.26179 0
M  V30 4932 C 476.396 -0.346113 1.70523 0
M  V30 4933 O 477.572 -0.203572 2.00369 0
M  V30 4934 C 474.637 -0.0182063 3.46695 0
M  V30 4935 C 473.698 0.998546 4.17526 0
M  V30 4936 C 472.931 0.387917 5.32288 0
M  V30 4937 O 473.154 -0.808668 5.64639 0
M  V30 4938 O 472.088 1.1116 5.91546 0
M  V30 4939 H 475.914 1.51363 2.63292 0
M  V30 4940 H 473.499 0.800856 1.26122 0
M  V30 4941 H 475.381 -0.375606 4.19723 0
M  V30 4942 H 474.056 -0.882895 3.11427 0
M  V30 4943 H 472.963 1.40756 3.4661 0
M  V30 4944 H 474.296 1.83366 4.56769 0
M  V30 4945 N 475.948 -1.35272 0.808662 0
M  V30 4946 C 476.878 -2.32315 0.234981 0
M  V30 4947 C 477.859 -1.57572 -0.64071 0
M  V30 4948 O 479.044 -1.8563 -0.570551 0
M  V30 4949 C 476.174 -3.41801 -0.615601 0
M  V30 4950 C 475.128 -4.27694 0.161767 0
M  V30 4951 C 474.454 -5.28519 -0.810649 0
M  V30 4952 C 475.754 -5.04231 1.36193 0
M  V30 4953 H 477.448 -2.80543 1.04575 0
M  V30 4954 H 474.994 -1.3488 0.504315 0
M  V30 4955 H 476.947 -4.08693 -1.02702 0
M  V30 4956 H 475.671 -2.92186 -1.45928 0
M  V30 4957 H 474.33 -3.62384 0.554382 0
M  V30 4958 H 473.978 -4.75171 -1.64988 0
M  V30 4959 H 473.678 -5.8686 -0.294822 0
M  V30 4960 H 475.202 -5.98283 -1.22023 0
M  V30 4961 H 476.616 -5.64058 1.02528 0
M  V30 4962 H 475.013 -5.72077 1.81239 0
M  V30 4963 H 476.083 -4.34753 2.14751 0
M  V30 4964 N 477.426 -0.562348 -1.47226 0
M  V30 4965 C 478.651 -0.0432632 -2.07355 0
M  V30 4966 C 479.076 1.24332 -1.41149 0
M  V30 4967 O 478.434 1.74603 -0.488226 0
M  V30 4968 C 478.482 0.130288 -3.60365 0
M  V30 4969 O 477.586 1.19166 -3.94808 0
M  V30 4970 H 476.927 -0.0536334 -0.66183 0
M  V30 4971 H 479.457 -0.779495 -1.89169 0
M  V30 4972 H 479.467 0.342881 -4.06557 0
M  V30 4973 H 478.142 -0.809389 -4.07948 0
M  V30 4974 H 476.719 0.959153 -3.60354 0
M  V30 4975 N 478.904 1.54736 -0.299062 0
M  V30 4976 C 479.836 2.20891 0.61153 0
M  V30 4977 C 480.849 1.20104 1.09904 0
M  V30 4978 O 482.038 1.46707 1.01683 0
M  V30 4979 C 479.138 2.84018 1.84897 0
M  V30 4980 C 478.311 4.10719 1.50428 0
M  V30 4981 C 477.37 4.57667 2.59667 0
M  V30 4982 O 476.396 5.2291 2.24842 0
M  V30 4983 N 477.598 4.29821 3.90172 0
M  V30 4984 H 480.363 2.99666 0.0452001 0
M  V30 4985 H 477.924 1.61446 -0.121178 0
M  V30 4986 H 479.916 3.1236 2.5732 0
M  V30 4987 H 478.486 2.09095 2.32375 0
M  V30 4988 H 477.706 3.89408 0.612781 0
M  V30 4989 H 478.994 4.93223 1.24934 0
M  V30 4990 H 478.392 3.77549 4.21276 0
M  V30 4991 H 476.949 4.62877 4.58899 0
M  V30 4992 N 480.382 0.0267497 1.57577 0
M  V30 4993 C 481.33 -0.973923 2.11229 0
M  V30 4994 C 482.324 -1.33849 1.03831 0
M  V30 4995 O 483.53 -1.321 1.22269 0
M  V30 4996 H 479.905 -0.331844 0.674821 0
M  V30 4997 H 481.876 -0.496092 2.94247 0
M  V30 4998 C 480.625 -2.24798 2.65257 0
M  V30 4999 H 479.948 -1.9762 3.47543 0
M  V30 5000 H 481.388 -2.93031 3.06445 0
M  V30 5001 C 479.847 -2.97611 1.57891 0
M  V30 5002 O 480.377 -3.89629 0.97735 0
M  V30 5003 N 478.583 -2.59905 1.29992 0
M  V30 5004 H 478.13 -1.85154 1.79097 0
M  V30 5005 H 478.088 -3.08932 0.583798 0
M  V30 5006 N 481.861 -1.55662 -0.24637 0
M  V30 5007 C 482.793 -1.86811 -1.32794 0
M  V30 5008 C 483.806 -0.754413 -1.44265 0
M  V30 5009 O 484.995 -1.03253 -1.45606 0
M  V30 5010 C 482.095 -2.0397 -2.70646 0
M  V30 5011 C 481.268 -3.34832 -2.81436 0
M  V30 5012 C 480.327 -3.41727 -4.00136 0
M  V30 5013 O 479.353 -4.14934 -3.89639 0
M  V30 5014 N 480.555 -2.71058 -5.1333 0
M  V30 5015 H 483.32 -2.80174 -1.06409 0
M  V30 5016 H 480.881 -1.55906 -0.43647 0
M  V30 5017 H 482.873 -2.05924 -3.48393 0
M  V30 5018 H 481.443 -1.1735 -2.89738 0
M  V30 5019 H 480.663 -3.4519 -1.90361 0
M  V30 5020 H 481.951 -4.21085 -2.85595 0
M  V30 5021 H 481.349 -2.11314 -5.2475 0
M  V30 5022 H 479.906 -2.78704 -5.89209 0
M  V30 5023 N 483.339 0.512053 -1.4905 0
M  V30 5024 C 484.75 1.09376 -1.51307 0
M  V30 5025 C 485.101 1.94 -0.292971 0
M  V30 5026 O 484.226 2.07965 0.598277 0
M  V30 5027 C 484.821 1.99031 -2.74176 0
M  V30 5028 C 483.38 2.52385 -2.79247 0
M  V30 5029 C 482.527 1.29749 -2.45073 0
M  V30 5030 H 485.478 0.296467 -1.55906 0
M  V30 5031 H 485.499 2.83569 -2.53711 0
M  V30 5032 H 485.011 1.37412 -3.62959 0
M  V30 5033 H 483.112 3.17673 -1.94716 0
M  V30 5034 H 483.225 2.90293 -3.81139 0
M  V30 5035 H 481.589 1.61912 -1.96612 0
M  V30 5036 H 482.372 0.698555 -3.36118 0
M  V30 5037 N 484.817 1.37938 0.762283 0
M  V30 5038 C 486.063 1.33866 1.52341 0
M  V30 5039 C 486.396 -0.0738961 1.94059 0
M  V30 5040 O 485.671 -1.03326 1.64785 0
M  V30 5041 C 485.954 2.28644 2.78197 0
M  V30 5042 C 485.807 3.78722 2.42672 0
M  V30 5043 C 487.126 2.21702 3.80179 0
M  V30 5044 H 484.245 0.487593 0.55265 0
M  V30 5045 H 486.887 1.68717 0.873767 0
M  V30 5046 H 485.037 1.99055 3.33631 0
M  V30 5047 H 486.709 4.18948 1.93081 0
M  V30 5048 H 484.952 3.96827 1.75244 0
M  V30 5049 H 485.623 4.40486 3.3268 0
M  V30 5050 H 488.099 2.47805 3.34263 0
M  V30 5051 H 486.975 2.90143 4.65949 0
M  V30 5052 H 487.236 1.21301 4.25133 0
M  V30 5053 N 486.295 -0.989507 1.22664 0
M  V30 5054 C 487.525 -1.7624 1.0781 0
M  V30 5055 C 487.933 -1.85466 -0.374036 0
M  V30 5056 O 487.276 -1.32645 -1.27087 0
M  V30 5057 C 487.338 -3.21007 1.61849 0
M  V30 5058 C 487.002 -3.35316 3.10503 0
M  V30 5059 C 487.999 -3.22362 4.07896 0
M  V30 5060 C 485.684 -3.60258 3.50028 0
M  V30 5061 C 487.678 -3.34139 5.42798 0
M  V30 5062 C 485.365 -3.71676 4.85078 0
M  V30 5063 C 486.363 -3.58625 5.81272 0
M  V30 5064 O 486.051 -3.69655 7.1387 0
M  V30 5065 H 485.783 -0.560209 0.378341 0
M  V30 5066 H 488.337 -1.25252 1.62792 0
M  V30 5067 H 486.567 -3.73202 1.01279 0
M  V30 5068 H 488.256 -3.80024 1.42606 0
M  V30 5069 H 489.022 -3.03 3.78703 0
M  V30 5070 H 484.901 -3.69492 2.75675 0
M  V30 5071 H 488.445 -3.23869 6.17863 0
M  V30 5072 H 484.342 -3.90545 5.1395 0
M  V30 5073 H 485.11 -3.86507 7.21495 0
M  V30 5074 N 487.773 -1.03688 -1.18687 0
M  V30 5075 C 489.003 -0.756819 -1.92239 0
M  V30 5076 C 489.411 0.689374 -1.76194 0
M  V30 5077 O 488.754 1.48126 -1.08648 0
M  V30 5078 C 488.816 -1.03851 -3.44173 0
M  V30 5079 C 488.48 -2.47785 -3.83994 0
M  V30 5080 C 489.477 -3.4595 -3.88091 0
M  V30 5081 C 487.162 -2.82397 -4.154 0
M  V30 5082 C 489.156 -4.76779 -4.23038 0
M  V30 5083 C 486.843 -4.13433 -4.50018 0
M  V30 5084 C 487.841 -5.10434 -4.53813 0
M  V30 5085 O 487.529 -6.39122 -4.87625 0
M  V30 5086 H 487.261 -0.275678 -0.617234 0
M  V30 5087 H 489.815 -1.38658 -1.51536 0
M  V30 5088 H 488.045 -0.351612 -3.85098 0
M  V30 5089 H 489.734 -0.746846 -3.9897 0
M  V30 5090 H 490.5 -3.20549 -3.63969 0
M  V30 5091 H 486.379 -2.07568 -4.11627 0
M  V30 5092 H 489.923 -5.52488 -4.25914 0
M  V30 5093 H 485.82 -4.38604 -4.736 0
M  V30 5094 H 486.588 -6.43715 -5.05542 0
M  V30 5095 N 489.251 1.34841 -0.815825 0
M  V30 5096 C 490.183 2.28409 -0.190265 0
M  V30 5097 C 491.196 1.50705 0.615771 0
M  V30 5098 O 492.385 1.72822 0.446616 0
M  V30 5099 C 489.485 3.30441 0.752446 0
M  V30 5100 C 488.658 4.37399 -0.00922152 0
M  V30 5101 C 487.717 5.19234 0.853351 0
M  V30 5102 O 486.743 5.68404 0.300919 0
M  V30 5103 N 487.945 5.38248 2.17416 0
M  V30 5104 H 490.71 2.82732 -0.994114 0
M  V30 5105 H 488.271 1.47289 -0.672129 0
M  V30 5106 H 490.263 3.82084 1.33394 0
M  V30 5107 H 488.833 2.76565 1.45707 0
M  V30 5108 H 488.053 3.86567 -0.771979 0
M  V30 5109 H 489.341 5.05992 -0.533807 0
M  V30 5110 H 488.739 4.99961 2.6468 0
M  V30 5111 H 487.296 5.93035 2.70467 0
M  V30 5112 N 490.729 0.570148 1.46925 0
M  V30 5113 C 491.977 0.0508523 2.02036 0
M  V30 5114 C 492.298 -1.30885 1.44548 0
M  V30 5115 O 491.568 -1.85647 0.625453 0
M  V30 5116 H 490.148 0.0158088 0.746833 0
M  V30 5117 H 492.81 0.743086 1.80178 0
M  V30 5118 H 491.906 -0.027575 3.12088 0
M  V30 5119 N 492.207 -1.54576 0.307264 0
M  V30 5120 C 493.453 -2.0056 -0.300612 0
M  V30 5121 C 493.786 -1.1953 -1.53057 0
M  V30 5122 O 493.061 -0.27337 -1.92569 0
M  V30 5123 C 493.344 -3.54167 -0.650987 0
M  V30 5124 C 493.197 -4.45933 0.588539 0
M  V30 5125 C 494.516 -4.14645 -1.47506 0
M  V30 5126 H 491.635 -0.729075 -0.107788 0
M  V30 5127 H 494.277 -1.85286 0.420606 0
M  V30 5128 H 492.427 -3.67313 -1.26544 0
M  V30 5129 H 494.099 -4.44683 1.22697 0
M  V30 5130 H 492.342 -4.16274 1.22058 0
M  V30 5131 H 493.013 -5.51189 0.299153 0
M  V30 5132 H 495.489 -4.04973 -0.955821 0
M  V30 5133 H 494.365 -5.22269 -1.68899 0
M  V30 5134 H 494.626 -3.66921 -2.4662 0
M  V30 5135 N 493.685 -0.035106 -1.57561 0
M  V30 5136 C 494.933 0.64096 -1.91667 0
M  V30 5137 C 495.254 1.72323 -0.912681 0
M  V30 5138 O 494.524 1.95849 0.0449089 0
M  V30 5139 H 493.104 0.239743 -0.707483 0
M  V30 5140 H 495.766 -0.084321 -1.94718 0
M  V30 5141 H 494.862 1.08987 -2.92452 0
M  V30 5142 N 495.163 1.55791 0.238111 0
M  V30 5143 C 496.11 1.9105 1.29493 0
M  V30 5144 C 497.08 0.765733 1.47397 0
M  V30 5145 O 498.265 1.02017 1.61236 0
M  V30 5146 C 495.405 2.21826 2.64362 0
M  V30 5147 C 494.518 3.49153 2.54394 0
M  V30 5148 C 493.653 3.69455 3.81676 0
M  V30 5149 C 492.692 4.90353 3.66361 0
M  V30 5150 N 491.829 5.07131 4.85554 0
M  V30 5151 H 496.669 2.81172 0.987233 0
M  V30 5152 H 494.206 1.39179 0.476203 0
M  V30 5153 H 496.164 2.37675 3.4288 0
M  V30 5154 H 494.794 1.34897 2.93262 0
M  V30 5155 H 493.846 3.41587 1.67399 0
M  V30 5156 H 495.158 4.37818 2.38991 0
M  V30 5157 H 494.312 3.85311 4.68636 0
M  V30 5158 H 493.051 2.7904 3.99985 0
M  V30 5159 H 492.056 4.74464 2.77784 0
M  V30 5160 H 493.281 5.82237 3.49538 0
M  V30 5161 H 491.227 4.19654 5.04209 0
M  V30 5162 H 491.144 5.89899 4.72816 0
M  V30 5163 H 492.412 5.27407 5.73988 0
M  V30 5164 N 496.642 -0.504142 1.49319 0
M  V30 5165 C 497.888 -1.26033 1.58882 0
M  V30 5166 C 498.221 -1.92268 0.273274 0
M  V30 5167 O 497.496 -1.80567 -0.72291 0
M  V30 5168 C 497.779 -2.32976 2.7458 0
M  V30 5169 C 497.632 -1.71263 4.1592 0
M  V30 5170 C 498.951 -3.34561 2.85932 0
M  V30 5171 H 496.07 -0.456863 0.578312 0
M  V30 5172 H 498.712 -0.558965 1.81592 0
M  V30 5173 H 496.862 -2.92796 2.55348 0
M  V30 5174 H 498.534 -1.15294 4.4666 0
M  V30 5175 H 496.777 -1.01686 4.21714 0
M  V30 5176 H 497.448 -2.48816 4.92742 0
M  V30 5177 H 499.924 -2.84727 3.0343 0
M  V30 5178 H 498.8 -4.06754 3.68568 0
M  V30 5179 H 499.061 -3.96695 1.95154 0
M  V30 5180 N 498.12 -1.38341 -0.754957 0
M  V30 5181 C 499.368 -1.34208 -1.51105 0
M  V30 5182 C 499.689 0.0677634 -1.94882 0
M  V30 5183 O 498.959 1.01517 -1.67544 0
M  V30 5184 H 497.539 -0.493819 -0.560493 0
M  V30 5185 H 500.201 -1.73005 -0.897507 0
M  V30 5186 H 499.297 -1.99203 -2.4026 0
M  V30 5187 N 499.598 0.982988 -1.23187 0
M  V30 5188 C 500.846 1.72052 -1.06031 0
M  V30 5189 C 501.167 1.90769 0.404019 0
M  V30 5190 O 500.437 1.47446 1.28982 0
M  V30 5191 H 499.017 0.637499 -0.389363 0
M  V30 5192 H 501.679 1.18338 -1.54862 0
M  V30 5193 H 500.775 2.7111 -1.54615 0
M  V30 5194 N 501.076 1.04316 1.18135 0
M  V30 5195 C 502.026 0.606731 2.19779 0
M  V30 5196 C 503.01 -0.352144 1.56999 0
M  V30 5197 O 504.202 -0.170795 1.76174 0
M  V30 5198 C 501.331 -0.0262443 3.4329 0
M  V30 5199 C 500.417 0.955928 4.13186 0
M  V30 5200 N 500.808 2.12395 4.59045 0
M  V30 5201 C 499.106 0.782473 4.39082 0
M  V30 5202 C 499.807 2.74458 5.12882 0
M  V30 5203 N 498.783 2.02316 5.04548 0
M  V30 5204 H 502.585 1.49679 2.5293 0
M  V30 5205 H 500.099 0.912088 1.34368 0
M  V30 5206 H 502.096 -0.356617 4.15372 0
M  V30 5207 H 500.756 -0.911811 3.11635 0
M  V30 5208 H 501.767 2.50272 4.53414 0
M  V30 5209 H 498.444 -0.0527906 4.17467 0
M  V30 5210 H 499.834 3.73459 5.5855 0
M  V30 5211 N 502.554 -1.34406 0.822964 0
M  V30 5212 C 503.517 -2.2783 0.250271 0
M  V30 5213 C 504.517 -1.50288 -0.571854 0
M  V30 5214 O 505.707 -1.69825 -0.387952 0
M  V30 5215 C 502.839 -3.34663 -0.649137 0
M  V30 5216 H 504.032 -2.79992 1.07444 0
M  V30 5217 H 501.585 -1.44539 0.594829 0
M  V30 5218 H 502.32 -2.87714 -1.49637 0
M  V30 5219 H 502.105 -3.92052 -0.0611199 0
M  V30 5220 H 503.595 -4.04349 -1.04363 0
M  V30 5221 N 504.032 -0.577932 -1.46621 0
M  V30 5222 C 505.279 -0.0616879 -2.02406 0
M  V30 5223 C 505.607 1.29638 -1.44997 0
M  V30 5224 O 504.862 1.86176 -0.60308 0
M  V30 5225 C 505.161 0.0590832 -3.57351 0
M  V30 5226 C 504.827 -1.23077 -4.33777 0
M  V30 5227 C 503.489 -1.58416 -4.54376 0
M  V30 5228 C 505.841 -2.08457 -4.77698 0
M  V30 5229 C 503.169 -2.78943 -5.16147 0
M  V30 5230 C 505.521 -3.28204 -5.408 0
M  V30 5231 C 504.185 -3.63832 -5.59627 0
M  V30 5232 H 503.455 -0.0225732 -0.740656 0
M  V30 5233 H 506.102 -0.753609 -1.76048 0
M  V30 5234 H 504.407 0.834104 -3.82818 0
M  V30 5235 H 506.104 0.474202 -3.98186 0
M  V30 5236 H 502.694 -0.945652 -4.18038 0
M  V30 5237 H 506.878 -1.82459 -4.61544 0
M  V30 5238 H 502.134 -3.06689 -5.28916 0
M  V30 5239 H 506.308 -3.94634 -5.73792 0
M  V30 5240 H 503.935 -4.57315 -6.07262 0
M  V30 5241 N 505.51 1.54411 -0.315457 0
M  V30 5242 C 506.756 2.00716 0.289972 0
M  V30 5243 C 507.089 1.2034 1.5242 0
M  V30 5244 O 506.364 0.283579 1.92422 0
M  V30 5245 C 506.647 3.54507 0.632196 0
M  V30 5246 C 506.5 4.45615 -0.61218 0
M  V30 5247 C 507.819 4.15421 1.45305 0
M  V30 5248 H 504.938 0.729637 0.10392 0
M  V30 5249 H 507.58 1.8506 -0.430427 0
M  V30 5250 H 505.73 3.67979 1.24595 0
M  V30 5251 H 507.402 4.44026 -1.25053 0
M  V30 5252 H 505.645 4.15621 -1.24264 0
M  V30 5253 H 506.316 5.51022 -0.328379 0
M  V30 5254 H 508.792 4.05474 0.934331 0
M  V30 5255 H 507.668 5.23157 1.66127 0
M  V30 5256 H 507.929 3.68223 2.44671 0
M  V30 5257 N 506.988 0.0434614 1.5754 0
M  V30 5258 C 508.237 -0.631454 1.91561 0
M  V30 5259 C 508.55 -1.72457 0.92292 0
M  V30 5260 O 509.756 -2.45712 1.15489 0
M  V30 5261 C 508.212 -1.17447 3.40197 0
M  V30 5262 C 507.82 -0.113867 4.47855 0
M  V30 5263 C 509.564 -1.82507 3.83264 0
M  V30 5264 C 507.471 -0.669326 5.876 0
M  V30 5265 H 506.401 -0.239629 0.714908 0
M  V30 5266 H 509.052 0.111097 1.83163 0
M  V30 5267 H 507.434 -1.96909 3.43574 0
M  V30 5268 H 508.608 0.659348 4.56058 0
M  V30 5269 H 506.923 0.438821 4.14081 0
M  V30 5270 H 509.52 -2.25047 4.85034 0
M  V30 5271 H 509.863 -2.67365 3.19095 0
M  V30 5272 H 510.396 -1.09712 3.82372 0
M  V30 5273 H 507.135 0.141449 6.55347 0
M  V30 5274 H 506.655 -1.4107 5.82974 0
M  V30 5275 H 508.334 -1.15463 6.36614 0
M  V30 5276 N 508.466 -1.55915 -0.229846 0
M  V30 5277 C 509.743 -1.6932 -0.979295 0
M  V30 5278 C 510.123 -0.588321 -2.02736 0
M  V30 5279 O 509.471 0.40586 -2.24867 0
M  V30 5280 C 509.681 -3.10305 -1.59724 0
M  V30 5281 C 511.029 -3.6945 -2.09264 0
M  V30 5282 O 512.053 -3.13214 -1.69633 0
M  V30 5283 O 510.912 -4.68072 -2.82082 0
M  V30 5284 H 508.006 -0.689314 -0.456919 0
M  V30 5285 H 510.552 -1.68238 -0.222283 0
M  V30 5286 H 509.324 -3.82177 -0.840039 0
M  V30 5287 H 508.947 -3.1547 -2.42001 0
M  V30 5288 N 509.944 0.496216 -1.49584 0
M  V30 5289 C 511.192 1.24756 -1.58998 0
M  V30 5290 C 511.513 1.92968 -0.280775 0
M  V30 5291 O 510.783 1.82959 0.700198 0
M  V30 5292 H 509.363 0.463471 -0.585836 0
M  V30 5293 H 512.025 0.574678 -1.86235 0
M  V30 5294 H 511.121 2.00895 -2.38847 0
M  V30 5295 N 511.423 1.38739 0.74761 0
M  V30 5296 C 512.386 1.36241 1.84312 0
M  V30 5297 C 513.386 0.261811 1.58654 0
M  V30 5298 O 514.576 0.519031 1.66288 0
M  V30 5299 C 511.708 1.12253 3.21888 0
M  V30 5300 H 512.901 2.33712 1.87933 0
M  V30 5301 H 510.454 1.2412 0.949946 0
M  V30 5302 H 511.189 0.154133 3.23934 0
M  V30 5303 H 510.974 1.91943 3.41907 0
M  V30 5304 H 512.464 1.13215 4.0196 0
M  V30 5305 N 512.901 -0.976442 1.23707 0
M  V30 5306 C 514.178 -1.69296 0.979699 0
M  V30 5307 C 514.558 -2.0508 -0.500555 0
M  V30 5308 O 513.906 -1.74708 -1.47273 0
M  V30 5309 C 514.116 -2.93143 1.89389 0
M  V30 5310 C 515.464 -3.65572 2.15968 0
M  V30 5311 O 516.488 -3.03184 1.86971 0
M  V30 5312 O 515.347 -4.77859 2.65167 0
M  V30 5313 H 512.441 -0.739708 0.369812 0
M  V30 5314 H 514.987 -1.03131 1.34767 0
M  V30 5315 H 513.759 -2.63327 2.89439 0
M  V30 5316 H 513.382 -3.67044 1.52854 0
M  V30 5317 N 514.379 -1.04941 -1.1758 0
M  V30 5318 C 515.627 -0.756492 -1.87408 0
M  V30 5319 C 515.948 0.718478 -1.81281 0
M  V30 5320 O 515.218 1.519 -1.23706 0
M  V30 5321 H 513.798 -0.276841 -0.693807 0
M  V30 5322 H 516.46 -1.32803 -1.42652 0
M  V30 5323 H 515.556 -1.06918 -2.93215 0
M  V30 5324 N 515.857 1.33968 -0.830081 0
M  V30 5325 C 517.273 1.51003 -0.516742 0
M  V30 5326 C 517.473 1.77286 0.957694 0
M  V30 5327 O 516.529 1.82797 1.74188 0
M  V30 5328 C 517.842 2.67036 -1.38247 0
M  V30 5329 C 519.39 2.80919 -1.38034 0
M  V30 5330 C 519.865 4.00004 -2.23071 0
M  V30 5331 N 521.356 4.07224 -2.20733 0
M  V30 5332 C 522.091 4.98541 -2.83275 0
M  V30 5333 N 521.587 5.95033 -3.54835 0
M  V30 5334 N 523.38 4.91469 -2.72791 0
M  V30 5335 H 515.531 1.15168 -1.78466 0
M  V30 5336 H 517.794 0.565443 -0.760906 0
M  V30 5337 H 517.5 2.54266 -2.42985 0
M  V30 5338 H 517.374 3.62226 -1.05225 0
M  V30 5339 H 519.761 2.93127 -0.340713 0
M  V30 5340 H 519.842 1.86517 -1.75057 0
M  V30 5341 H 519.486 3.88557 -3.27087 0
M  V30 5342 H 519.416 4.93634 -1.83394 0
M  V30 5343 H 521.907 3.38162 -1.68687 0
M  V30 5344 H 522.22 6.61357 -3.99784 0
M  V30 5345 H 520.565 5.95135 -3.58942 0
M  V30 5346 H 523.756 4.15048 -2.16456 0
M  V30 5347 H 523.929 5.62439 -3.21818 0
M  V30 5348 N 517.335 0.585699 1.46312 0
M  V30 5349 C 518.283 -0.158577 2.32059 0
M  V30 5350 C 519.277 -0.881427 1.44662 0
M  V30 5351 O 520.483 -0.799476 1.61271 0
M  V30 5352 H 516.858 -0.0700066 0.748734 0
M  V30 5353 H 518.829 0.583383 2.92642 0
M  V30 5354 C 517.578 -1.15701 3.27885 0
M  V30 5355 H 516.901 -0.610215 3.95116 0
M  V30 5356 H 518.341 -1.64812 3.90657 0
M  V30 5357 C 516.8 -2.21951 2.53455 0
M  V30 5358 O 517.33 -3.29352 2.29978 0
M  V30 5359 N 515.536 -1.9664 2.13965 0
M  V30 5360 H 515.083 -1.09309 2.33258 0
M  V30 5361 H 515.041 -2.6794 1.64485 0
M  V30 5362 N 518.813 -1.54241 0.323641 0
M  V30 5363 C 520.06 -2.0057 -0.27891 0
M  V30 5364 C 520.388 -1.21181 -1.52136 0
M  V30 5365 O 519.643 -0.282043 -1.93657 0
M  V30 5366 C 519.942 -3.5129 -0.658031 0
M  V30 5367 C 519.608 -4.48281 0.485252 0
M  V30 5368 C 518.27 -4.74519 0.799055 0
M  V30 5369 C 520.622 -5.05909 1.25322 0
M  V30 5370 C 517.95 -5.55643 1.88354 0
M  V30 5371 C 520.302 -5.88215 2.32779 0
M  V30 5372 C 518.966 -6.12755 2.64741 0
M  V30 5373 H 518.236 -0.733938 -0.10206 0
M  V30 5374 H 520.883 -1.862 0.447435 0
M  V30 5375 H 519.188 -3.63388 -1.4648 0
M  V30 5376 H 520.885 -3.84578 -1.1358 0
M  V30 5377 H 517.475 -4.27979 0.230593 0
M  V30 5378 H 521.659 -4.8562 1.02404 0
M  V30 5379 H 516.915 -5.72888 2.13564 0
M  V30 5380 H 521.089 -6.31888 2.92729 0
M  V30 5381 H 518.716 -6.75404 3.48904 0
M  V30 5382 N 520.291 -0.0518155 -1.57515 0
M  V30 5383 C 521.521 0.63048 -1.96745 0
M  V30 5384 C 521.929 1.64875 -0.928054 0
M  V30 5385 O 521.272 1.83449 0.0960678 0
M  V30 5386 C 521.334 1.37381 -3.32215 0
M  V30 5387 C 520.998 0.511298 -4.54131 0
M  V30 5388 C 521.995 -0.222884 -5.19422 0
M  V30 5389 C 519.68 0.442035 -5.00351 0
M  V30 5390 C 521.674 -1.01476 -6.2927 0
M  V30 5391 C 519.361 -0.35353 -6.10077 0
M  V30 5392 C 520.359 -1.08062 -6.74397 0
M  V30 5393 O 520.047 -1.8631 -7.82013 0
M  V30 5394 H 519.779 0.177126 -0.652382 0
M  V30 5395 H 522.333 -0.114726 -2.05079 0
M  V30 5396 H 520.563 2.16466 -3.20436 0
M  V30 5397 H 522.252 1.9464 -3.56188 0
M  V30 5398 H 523.018 -0.178846 -4.8467 0
M  V30 5399 H 518.897 0.997562 -4.50077 0
M  V30 5400 H 522.441 -1.58279 -6.79407 0
M  V30 5401 H 518.338 -0.399205 -6.44264 0
M  V30 5402 H 519.106 -1.78528 -7.98793 0
M  V30 5403 N 521.769 1.56035 0.221574 0
M  V30 5404 C 522.719 1.8881 1.27807 0
M  V30 5405 C 523.703 0.751177 1.42289 0
M  V30 5406 O 524.895 1.01359 1.45104 0
M  V30 5407 C 522.024 2.20828 2.6285 0
M  V30 5408 C 521.11 3.40912 2.52269 0
M  V30 5409 N 521.501 4.59531 2.1134 0
M  V30 5410 C 519.799 3.44526 2.83228 0
M  V30 5411 C 520.5 5.41689 2.1201 0
M  V30 5412 N 519.476 4.814 2.52497 0
M  V30 5413 H 523.278 2.78036 0.952529 0
M  V30 5414 H 520.792 1.566 0.430134 0
M  V30 5415 H 522.789 2.42483 3.39127 0
M  V30 5416 H 521.449 1.32914 2.9625 0
M  V30 5417 H 522.46 4.8469 1.82472 0
M  V30 5418 H 519.137 2.66956 3.21 0
M  V30 5419 H 520.527 6.46643 1.82491 0
M  V30 5420 N 523.247 -0.488276 1.49845 0
M  V30 5421 C 524.493 -1.24341 1.6021 0
M  V30 5422 C 524.826 -1.91967 0.293651 0
M  V30 5423 O 524.101 -1.81323 -0.703718 0
M  V30 5424 C 524.384 -2.3005 2.77036 0
M  V30 5425 C 524.237 -1.66842 4.17713 0
M  V30 5426 C 525.556 -3.31509 2.89464 0
M  V30 5427 H 522.675 -0.450704 0.583125 0
M  V30 5428 H 525.317 -0.539673 1.82174 0
M  V30 5429 H 523.467 -2.90071 2.58439 0
M  V30 5430 H 525.139 -1.1055 4.47858 0
M  V30 5431 H 523.382 -0.972079 4.22768 0
M  V30 5432 H 524.053 -2.43576 4.95353 0
M  V30 5433 H 526.529 -2.81493 3.06433 0
M  V30 5434 H 525.405 -4.02822 3.72861 0
M  V30 5435 H 525.666 -3.94603 1.99351 0
M  V30 5436 N 524.725 -1.39134 -0.740242 0
M  V30 5437 C 525.673 -1.3757 -1.87556 0
M  V30 5438 C 526.667 -0.259593 -1.67399 0
M  V30 5439 O 527.873 -0.429349 -1.74804 0
M  V30 5440 H 524.248 -0.42947 -0.6173 0
M  V30 5441 H 526.219 -2.33345 -1.85991 0
M  V30 5442 C 524.968 -1.23087 -3.25184 0
M  V30 5443 H 524.291 -2.08237 -3.41288 0
M  V30 5444 H 525.731 -1.26049 -4.0483 0
M  V30 5445 C 524.19 0.0611471 -3.36845 0
M  V30 5446 O 524.72 1.03328 -3.88183 0
M  V30 5447 N 522.926 0.122454 -2.90342 0
M  V30 5448 H 522.473 -0.669329 -2.48752 0
M  V30 5449 H 522.431 0.986463 -2.98523 0
M  V30 5450 N 526.204 0.969867 -1.24223 0
M  V30 5451 C 527.45 1.71582 -1.09231 0
M  V30 5452 C 527.805 1.88898 0.365432 0
M  V30 5453 O 527.098 1.43781 1.2664 0
M  V30 5454 C 527.292 3.10883 -1.76314 0
M  V30 5455 C 527.121 3.07155 -3.2846 0
M  V30 5456 C 525.891 3.11757 -3.97663 0
M  V30 5457 C 528.089 2.895 -4.25082 0
M  V30 5458 N 526.071 2.98025 -5.36707 0
M  V30 5459 C 527.442 2.84041 -5.51109 0
M  V30 5460 C 529.497 2.74064 -4.15684 0
M  V30 5461 C 528.2 2.64725 -6.68815 0
M  V30 5462 C 530.226 2.56115 -5.33066 0
M  V30 5463 C 529.588 2.51363 -6.58024 0
M  V30 5464 H 525.687 0.636496 -0.454309 0
M  V30 5465 H 528.271 1.15004 -1.57106 0
M  V30 5466 H 526.442 3.65657 -1.30955 0
M  V30 5467 H 528.174 3.74171 -1.54201 0
M  V30 5468 H 524.929 3.20352 -3.48814 0
M  V30 5469 H 525.353 2.94405 -6.09635 0
M  V30 5470 H 529.995 2.76521 -3.19837 0
M  V30 5471 H 527.713 2.61011 -7.64787 0
M  V30 5472 H 531.299 2.45119 -5.27644 0
M  V30 5473 H 530.179 2.37651 -7.47323 0
M  V30 5474 N 527.682 1.05563 1.17022 0
M  V30 5475 C 528.93 0.76642 1.87004 0
M  V30 5476 C 529.251 -0.708854 1.8166 0
M  V30 5477 O 528.521 -1.51242 1.2451 0
M  V30 5478 H 527.101 0.280516 0.692329 0
M  V30 5479 H 529.763 1.33557 1.41945 0
M  V30 5480 H 528.859 1.08472 2.92644 0
M  V30 5481 N 529.16 -1.33526 0.837174 0
M  V30 5482 C 530.406 -1.98541 0.44193 0
M  V30 5483 C 530.761 -1.65124 -0.987517 0
M  V30 5484 O 530.054 -0.919948 -1.6807 0
M  V30 5485 C 530.248 -3.52367 0.597675 0
M  V30 5486 C 530.077 -4.00731 2.04071 0
M  V30 5487 C 528.847 -4.28649 2.67559 0
M  V30 5488 C 531.045 -4.17073 3.00923 0
M  V30 5489 N 529.027 -4.63142 4.02955 0
M  V30 5490 C 530.398 -4.54905 4.21261 0
M  V30 5491 C 532.453 -3.99358 2.97351 0
M  V30 5492 C 531.156 -4.76874 5.38501 0
M  V30 5493 C 533.182 -4.22501 4.1382 0
M  V30 5494 C 532.544 -4.60634 5.32912 0
M  V30 5495 H 528.643 -0.753246 0.210105 0
M  V30 5496 H 531.227 -1.61674 1.08488 0
M  V30 5497 H 529.398 -3.88397 -0.0154658 0
M  V30 5498 H 531.13 -4.04326 0.17404 0
M  V30 5499 H 527.885 -4.20077 2.18706 0
M  V30 5500 H 528.309 -4.84601 4.72748 0
M  V30 5501 H 532.951 -3.68993 2.06408 0
M  V30 5502 H 530.669 -5.06101 6.2999 0
M  V30 5503 H 534.255 -4.10316 4.12471 0
M  V30 5504 H 533.135 -4.78187 6.21536 0
M  V30 5505 N 530.638 -0.59345 -1.46 0
M  V30 5506 C 531.886 -0.082988 -2.0193 0
M  V30 5507 C 532.207 1.28569 -1.46612 0
M  V30 5508 O 531.477 1.84629 -0.654909 0
M  V30 5509 H 530.057 -0.0276882 -0.746487 0
M  V30 5510 H 532.719 -0.771657 -1.78973 0
M  V30 5511 H 531.815 -0.022079 -3.12092 0
M  V30 5512 N 532.116 1.54067 -0.331816 0
M  V30 5513 C 533.364 2.00319 0.267739 0
M  V30 5514 C 533.685 1.22148 1.52003 0
M  V30 5515 O 532.955 0.325494 1.93177 0
M  V30 5516 H 531.535 0.740014 0.101922 0
M  V30 5517 H 534.197 1.89628 -0.450267 0
M  V30 5518 H 533.293 3.07765 0.518385 0
M  V30 5519 N 533.594 0.0601682 1.57485 0
M  V30 5520 C 534.84 -0.612501 1.93329 0
M  V30 5521 C 535.173 -1.6996 0.939526 0
M  V30 5522 O 534.448 -1.94472 -0.0330957 0
M  V30 5523 C 534.731 -1.20025 3.39508 0
M  V30 5524 C 534.584 -0.12059 4.49638 0
M  V30 5525 C 535.903 -2.10923 3.86264 0
M  V30 5526 H 533.022 -0.221185 0.703027 0
M  V30 5527 H 535.664 0.123768 1.89596 0
M  V30 5528 H 533.814 -1.82774 3.42821 0
M  V30 5529 H 535.486 0.51185 4.58452 0
M  V30 5530 H 533.729 0.550251 4.30296 0
M  V30 5531 H 534.4 -0.572019 5.49028 0
M  V30 5532 H 536.876 -1.58124 3.84884 0
M  V30 5533 H 535.752 -2.48987 4.8918 0
M  V30 5534 H 536.013 -3.01292 3.23536 0
M  V30 5535 N 535.072 -1.5615 -0.213296 0
M  V30 5536 C 536.297 -1.83986 -0.957282 0
M  V30 5537 C 536.722 -0.641526 -1.76822 0
M  V30 5538 O 536.08 0.409722 -1.7661 0
M  V30 5539 C 536.128 -3.09889 -1.84393 0
M  V30 5540 O 535.232 -2.89163 -2.94038 0
M  V30 5541 H 534.573 -0.606357 -0.270605 0
M  V30 5542 H 537.103 -2.03369 -0.224111 0
M  V30 5543 H 537.113 -3.40209 -2.25215 0
M  V30 5544 H 535.788 -3.96735 -1.24795 0
M  V30 5545 H 534.365 -2.70097 -2.57103 0
M  V30 5546 N 536.55 0.480323 -1.50102 0
M  V30 5547 C 537.827 1.24159 -1.51142 0
M  V30 5548 C 538.207 2.09605 -0.250818 0
M  V30 5549 O 537.555 2.15274 0.766118 0
M  V30 5550 C 537.765 2.08057 -2.80202 0
M  V30 5551 C 539.113 2.66556 -3.30504 0
M  V30 5552 O 540.137 2.18308 -2.81461 0
M  V30 5553 O 538.996 3.54442 -4.15973 0
M  V30 5554 H 536.09 0.562928 -0.605839 0
M  V30 5555 H 538.636 0.492899 -1.62384 0
M  V30 5556 H 537.408 1.45032 -3.6343 0
M  V30 5557 H 537.031 2.90079 -2.71919 0
M  V30 5558 N 538.028 1.39524 0.732853 0
M  V30 5559 C 539.276 1.36594 1.48951 0
M  V30 5560 C 539.597 -0.0367507 1.94965 0
M  V30 5561 O 538.867 -0.988391 1.69138 0
M  V30 5562 H 537.447 0.502673 0.552566 0
M  V30 5563 H 540.109 1.74411 0.869869 0
M  V30 5564 H 539.205 2.03 2.3706 0
M  V30 5565 N 539.506 -0.963266 1.24736 0
M  V30 5566 C 540.753 -1.7068 1.0897 0
M  V30 5567 C 541.081 -1.90934 -0.370751 0
M  V30 5568 O 540.336 -1.47155 -1.29011 0
M  V30 5569 C 540.635 -3.09944 1.7796 0
M  V30 5570 C 540.301 -3.09518 3.27887 0
M  V30 5571 C 538.963 -3.09109 3.68789 0
M  V30 5572 C 541.315 -3.03509 4.23712 0
M  V30 5573 C 538.643 -3.00429 5.03944 0
M  V30 5574 C 540.995 -2.96371 5.5888 0
M  V30 5575 C 539.659 -2.94293 5.99123 0
M  V30 5576 H 538.929 -0.624564 0.398749 0
M  V30 5577 H 541.576 -1.12603 1.54896 0
M  V30 5578 H 539.881 -3.71513 1.2444 0
M  V30 5579 H 541.578 -3.66278 1.63222 0
M  V30 5580 H 538.168 -3.10603 2.95337 0
M  V30 5581 H 542.352 -3.0295 3.93109 0
M  V30 5582 H 537.608 -2.97183 5.34314 0
M  V30 5583 H 541.782 -2.90681 6.32833 0
M  V30 5584 H 539.409 -2.87322 7.03811 0
M  V30 5585 N 540.985 -1.06182 -1.16461 0
M  V30 5586 C 542.232 -0.777863 -1.86964 0
M  V30 5587 C 542.56 0.695602 -1.81636 0
M  V30 5588 O 541.815 1.52532 -1.22607 0
M  V30 5589 C 542.114 -1.21633 -3.36066 0
M  V30 5590 C 541.78 -2.69371 -3.61594 0
M  V30 5591 C 540.442 -3.09727 -3.6827 0
M  V30 5592 C 542.794 -3.64791 -3.7226 0
M  V30 5593 C 540.122 -4.44345 -3.83112 0
M  V30 5594 C 542.474 -4.99155 -3.88623 0
M  V30 5595 C 541.138 -5.39149 -3.93541 0
M  V30 5596 H 540.408 -0.28464 -0.68415 0
M  V30 5597 H 543.055 -1.33071 -1.37711 0
M  V30 5598 H 541.36 -0.582651 -3.87443 0
M  V30 5599 H 543.057 -0.973682 -3.88999 0
M  V30 5600 H 539.647 -2.37124 -3.57029 0
M  V30 5601 H 543.831 -3.34746 -3.66413 0
M  V30 5602 H 539.087 -4.74819 -3.85172 0
M  V30 5603 H 543.261 -5.72976 -3.95817 0
M  V30 5604 H 540.888 -6.43464 -4.04794 0
M  V30 5605 N 542.463 1.3308 -0.844243 0
M  V30 5606 C 543.879 1.50447 -0.532729 0
M  V30 5607 C 544.079 1.78292 0.938837 0
M  V30 5608 O 543.135 1.84635 1.72239 0
M  V30 5609 C 544.448 2.65555 -1.41072 0
M  V30 5610 C 545.996 2.7944 -1.41005 0
M  V30 5611 C 546.471 3.97616 -2.27301 0
M  V30 5612 N 547.962 4.0486 -2.2504 0
M  V30 5613 C 548.697 4.95508 -2.88547 0
M  V30 5614 N 548.193 5.91236 -3.61126 0
M  V30 5615 N 549.986 4.88548 -2.77989 0
M  V30 5616 H 542.137 1.13269 -1.79677 0
M  V30 5617 H 544.4 0.55734 -0.766861 0
M  V30 5618 H 544.106 2.51675 -2.45668 0
M  V30 5619 H 543.98 3.61089 -1.09061 0
M  V30 5620 H 546.367 2.92749 -0.371784 0
M  V30 5621 H 546.448 1.8465 -1.77026 0
M  V30 5622 H 546.092 3.85066 -3.3119 0
M  V30 5623 H 546.022 4.91661 -1.88619 0
M  V30 5624 H 548.513 3.36353 -1.72264 0
M  V30 5625 H 548.826 6.57079 -4.06776 0
M  V30 5626 H 547.171 5.91295 -3.65234 0
M  V30 5627 H 550.362 4.12729 -2.20846 0
M  V30 5628 H 550.535 5.58994 -3.27765 0
M  V30 5629 N 543.941 0.601185 1.45683 0
M  V30 5630 C 544.871 -0.108824 2.33246 0
M  V30 5631 C 545.852 -0.865223 1.46451 0
M  V30 5632 O 547.037 -0.83704 1.75235 0
M  V30 5633 C 544.167 -1.11101 3.2905 0
M  V30 5634 C 543.121 -0.468244 4.25431 0
M  V30 5635 C 542.447 -1.57822 5.10878 0
M  V30 5636 C 543.747 0.606469 5.18767 0
M  V30 5637 H 545.441 0.622306 2.92861 0
M  V30 5638 H 542.987 0.300714 1.40825 0
M  V30 5639 H 544.94 -1.61622 3.89174 0
M  V30 5640 H 543.664 -1.87265 2.67581 0
M  V30 5641 H 542.323 0.0160484 3.66596 0
M  V30 5642 H 541.971 -2.32998 4.45781 0
M  V30 5643 H 541.671 -1.15369 5.76163 0
M  V30 5644 H 543.195 -2.08583 5.73869 0
M  V30 5645 H 544.609 0.185589 5.73 0
M  V30 5646 H 543.006 0.952381 5.92494 0
M  V30 5647 H 544.076 1.48559 4.61582 0
M  V30 5648 N 545.419 -1.53889 0.339982 0
M  V30 5649 C 546.696 -1.93084 -0.312719 0
M  V30 5650 C 547.076 -1.2712 -1.68534 0
M  V30 5651 O 546.424 -0.420835 -2.24591 0
M  V30 5652 C 546.634 -3.4683 -0.388558 0
M  V30 5653 C 547.982 -4.19732 -0.641088 0
M  V30 5654 O 549.006 -3.53075 -0.470818 0
M  V30 5655 O 547.865 -5.3781 -0.970685 0
M  V30 5656 H 544.959 -0.806784 -0.18174 0
M  V30 5657 H 547.505 -1.65137 0.390898 0
M  V30 5658 H 546.277 -3.87055 0.574821 0
M  V30 5659 H 545.9 -3.80933 -1.1391 0
M  V30 5660 N 546.897 -0.0685191 -1.57451 0
M  V30 5661 C 547.86 0.885173 -2.11417 0
M  V30 5662 C 548.86 1.22853 -1.03748 0
M  V30 5663 O 550.05 1.16235 -1.2975 0
M  V30 5664 C 547.182 2.18964 -2.61281 0
M  V30 5665 H 548.375 0.417034 -2.96986 0
M  V30 5666 H 545.928 0.18014 -1.55258 0
M  V30 5667 H 546.663 2.70321 -1.79156 0
M  V30 5668 H 546.448 1.9534 -3.39977 0
M  V30 5669 H 547.938 2.87242 -3.0312 0
M  V30 5670 N 548.375 1.56261 0.205012 0
M  V30 5671 C 549.305 1.96779 1.257 0
M  V30 5672 C 550.286 0.838309 1.48008 0
M  V30 5673 O 551.471 1.10189 1.59913 0
M  V30 5674 C 548.601 2.29876 2.60335 0
M  V30 5675 C 547.555 3.45469 2.52656 0
M  V30 5676 C 546.881 3.64215 3.91473 0
M  V30 5677 C 548.181 4.79954 2.06014 0
M  V30 5678 H 549.875 2.84904 0.920338 0
M  V30 5679 H 547.421 1.37072 0.441277 0
M  V30 5680 H 549.374 2.56814 3.34102 0
M  V30 5681 H 548.098 1.38622 2.95722 0
M  V30 5682 H 546.757 3.18605 1.81345 0
M  V30 5683 H 546.405 2.70309 4.24196 0
M  V30 5684 H 546.105 4.41973 3.87213 0
M  V30 5685 H 547.629 3.93519 4.66878 0
M  V30 5686 H 549.043 5.05989 2.69533 0
M  V30 5687 H 547.44 5.61111 2.12777 0
M  V30 5688 H 548.51 4.74201 1.01297 0
M  V30 5689 N 549.853 -0.472356 1.50355 0
M  V30 5690 C 550.801 -1.59126 1.69651 0
M  V30 5691 C 551.795 -1.59793 0.56237 0
M  V30 5692 O 553.001 -1.63957 0.742832 0
M  V30 5693 H 549.376 -0.528008 0.535454 0
M  V30 5694 H 551.347 -1.40013 2.63513 0
M  V30 5695 C 550.096 -2.97075 1.8067 0
M  V30 5696 H 549.419 -2.9728 2.67329 0
M  V30 5697 H 550.859 -3.74825 1.98197 0
M  V30 5698 C 549.318 -3.32247 0.558016 0
M  V30 5699 O 549.848 -4.00553 -0.303399 0
M  V30 5700 N 548.054 -2.87659 0.412415 0
M  V30 5701 H 547.601 -2.32246 1.11443 0
M  V30 5702 H 547.559 -3.11556 -0.421908 0
M  V30 5703 N 551.331 -1.39911 -0.725443 0
M  V30 5704 C 552.742 -1.33599 -1.30415 0
M  V30 5705 C 553.093 -0.00481792 -1.96199 0
M  V30 5706 O 552.218 0.897275 -1.96921 0
M  V30 5707 C 552.813 -2.41965 -2.37146 0
M  V30 5708 C 551.372 -2.39144 -2.90667 0
M  V30 5709 C 550.519 -2.23355 -1.64341 0
M  V30 5710 H 553.47 -1.4986 -0.522267 0
M  V30 5711 H 553.491 -2.09304 -3.17761 0
M  V30 5712 H 553.003 -3.38837 -1.89238 0
M  V30 5713 H 551.104 -1.4594 -3.4283 0
M  V30 5714 H 551.217 -3.34362 -3.43131 0
M  V30 5715 H 549.581 -1.70696 -1.89037 0
M  V30 5716 H 550.364 -3.2221 -1.18471 0
M  V30 5717 N 552.809 0.956637 -1.25245 0
M  V30 5718 C 554.034 1.74104 -1.12706 0
M  V30 5719 C 554.459 1.85436 0.315429 0
M  V30 5720 O 553.817 1.33334 1.22848 0
M  V30 5721 C 553.865 3.1338 -1.78396 0
M  V30 5722 O 552.969 3.98485 -1.06224 0
M  V30 5723 H 552.31 0.53476 -0.393609 0
M  V30 5724 H 554.84 1.19924 -1.65769 0
M  V30 5725 H 554.85 3.6385 -1.846 0
M  V30 5726 H 553.525 3.04448 -2.83345 0
M  V30 5727 H 552.102 3.56952 -1.07886 0
M  V30 5728 N 554.287 1.06798 1.15896 0
M  V30 5729 C 555.25 0.687328 2.18651 0
M  V30 5730 C 556.25 -0.269559 1.58524 0
M  V30 5731 O 557.44 -0.0512627 1.74125 0
M  V30 5732 C 554.572 0.0121642 3.40898 0
M  V30 5733 H 555.765 1.59701 2.53842 0
M  V30 5734 H 553.318 0.863828 1.3026 0
M  V30 5735 H 554.053 -0.910025 3.1127 0
M  V30 5736 H 553.838 0.700309 3.85795 0
M  V30 5737 H 555.328 -0.239703 4.16911 0
M  V30 5738 N 555.766 -1.3263 0.851289 0
M  V30 5739 C 556.696 -2.31449 0.308771 0
M  V30 5740 C 557.677 -1.59531 -0.590255 0
M  V30 5741 O 558.862 -1.87351 -0.511205 0
M  V30 5742 C 555.992 -3.43586 -0.506548 0
M  V30 5743 C 554.946 -4.26963 0.297753 0
M  V30 5744 C 554.272 -5.30831 -0.642094 0
M  V30 5745 C 555.572 -4.99643 1.52166 0
M  V30 5746 H 557.266 -2.77074 1.13447 0
M  V30 5747 H 554.812 -1.33207 0.546971 0
M  V30 5748 H 556.765 -4.11754 -0.896474 0
M  V30 5749 H 555.489 -2.96681 -1.36558 0
M  V30 5750 H 554.148 -3.60437 0.669391 0
M  V30 5751 H 553.796 -4.8018 -1.49788 0
M  V30 5752 H 553.496 -5.87501 -0.107968 0
M  V30 5753 H 555.02 -6.01862 -1.02927 0
M  V30 5754 H 556.434 -5.6051 1.20421 0
M  V30 5755 H 554.831 -5.66022 1.99347 0
M  V30 5756 H 555.901 -4.27701 2.28474 0
M  V30 5757 N 557.244 -0.608902 -1.45362 0
M  V30 5758 C 558.492 -0.104401 -2.0183 0
M  V30 5759 C 558.813 1.27007 -1.47967 0
M  V30 5760 O 558.083 1.83924 -0.674455 0
M  V30 5761 H 556.663 -0.0356042 -0.746151 0
M  V30 5762 H 559.325 -0.790596 -1.78145 0
M  V30 5763 H 558.421 -0.0551793 -3.12051 0
M  V30 5764 N 558.722 1.53707 -0.348139 0
M  V30 5765 C 559.95 2.05406 0.248224 0
M  V30 5766 C 560.365 1.22282 1.43849 0
M  V30 5767 O 559.722 0.259244 1.80649 0
M  V30 5768 C 559.773 3.55446 0.658793 0
M  V30 5769 O 559.494 4.35417 -0.484149 0
M  V30 5770 C 560.995 4.23335 1.31539 0
M  V30 5771 H 558.215 0.669344 0.0471075 0
M  V30 5772 H 560.759 1.98257 -0.501456 0
M  V30 5773 H 558.914 3.62803 1.35841 0
M  V30 5774 H 559.328 5.24268 -0.155949 0
M  V30 5775 H 560.802 5.29692 1.55338 0
M  V30 5776 H 561.279 3.75967 2.27036 0
M  V30 5777 H 561.885 4.20184 0.657683 0
M  V30 5778 N 560.2 0.0768682 1.57412 0
M  V30 5779 C 561.448 -0.589918 1.93299 0
M  V30 5780 C 561.769 -1.69842 0.958049 0
M  V30 5781 O 561.039 -1.95899 0.00703261 0
M  V30 5782 H 559.619 -0.220901 0.713591 0
M  V30 5783 H 562.281 0.135917 1.94425 0
M  V30 5784 H 561.377 -1.01195 2.95239 0
M  V30 5785 N 561.678 -1.56367 -0.196722 0
M  V30 5786 C 562.926 -1.80172 -0.915554 0
M  V30 5787 C 563.247 -0.649649 -1.8386 0
M  V30 5788 O 562.517 0.332111 -1.93064 0
M  V30 5789 H 561.097 -0.664592 -0.341067 0
M  V30 5790 H 563.759 -1.93844 -0.202622 0
M  V30 5791 H 562.855 -2.7327 -1.50764 0
M  V30 5792 N 563.156 0.464375 -1.50603 0
M  V30 5793 C 564.404 1.21356 -1.61608 0
M  V30 5794 C 564.725 1.92329 -0.321643 0
M  V30 5795 O 563.995 1.84403 0.661232 0
M  V30 5796 H 562.575 0.45094 -0.595535 0
M  V30 5797 H 565.237 0.535046 -1.87412 0
M  V30 5798 H 564.333 1.95783 -2.43054 0
M  V30 5799 N 564.634 1.40294 0.718013 0
M  V30 5800 C 565.597 1.4012 1.81381 0
M  V30 5801 C 566.597 0.295405 1.58063 0
M  V30 5802 O 567.787 0.554187 1.6515 0
M  V30 5803 C 564.919 1.19056 3.19435 0
M  V30 5804 H 566.112 2.37645 1.82933 0
M  V30 5805 H 563.665 1.26107 0.923405 0
M  V30 5806 H 564.4 0.222809 3.23534 0
M  V30 5807 H 564.185 1.99152 3.37758 0
M  V30 5808 H 565.675 1.21716 3.99468 0
M  V30 5809 N 566.112 -0.949982 1.2575 0
M  V30 5810 C 567.36 -1.6918 1.10555 0
M  V30 5811 C 567.681 -1.91773 -0.353298 0
M  V30 5812 O 566.951 -1.50814 -1.25027 0
M  V30 5813 H 565.531 -0.626952 0.406129 0
M  V30 5814 H 568.193 -1.1419 1.57945 0
M  V30 5815 H 567.289 -2.66915 1.61749 0
M  V30 5816 N 567.59 -1.07411 -1.15328 0
M  V30 5817 C 568.838 -0.796073 -1.85761 0
M  V30 5818 C 569.159 0.679864 -1.82764 0
M  V30 5819 O 568.429 1.49242 -1.269 0
M  V30 5820 H 567.009 -0.291495 -0.687779 0
M  V30 5821 H 569.671 -1.35799 -1.39802 0
M  V30 5822 H 568.767 -1.13114 -2.90881 0
M  V30 5823 N 569.068 1.32177 -0.85831 0
M  V30 5824 C 570.315 1.97125 -0.463484 0
M  V30 5825 C 570.643 1.67907 0.981705 0
M  V30 5826 O 569.898 0.961717 1.70439 0
M  V30 5827 C 570.197 3.51372 -0.653658 0
M  V30 5828 C 569.863 4.00584 -2.06987 0
M  V30 5829 C 568.525 4.13733 -2.4572 0
M  V30 5830 C 570.877 4.26624 -2.99402 0
M  V30 5831 C 568.205 4.50268 -3.76132 0
M  V30 5832 C 570.557 4.64618 -4.29316 0
M  V30 5833 C 569.221 4.75975 -4.67979 0
M  V30 5834 H 568.491 0.72133 -0.169601 0
M  V30 5835 H 571.138 1.57517 -1.08907 0
M  V30 5836 H 569.443 3.91761 0.0551328 0
M  V30 5837 H 571.14 3.99655 -0.328163 0
M  V30 5838 H 567.73 3.90837 -1.75911 0
M  V30 5839 H 571.914 4.1597 -2.70708 0
M  V30 5840 H 567.17 4.57256 -4.05865 0
M  V30 5841 H 571.344 4.83722 -5.00985 0
M  V30 5842 H 568.971 5.04041 -5.69076 0
M  V30 5843 N 570.547 0.616602 1.45037 0
M  V30 5844 C 571.495 -0.109318 2.32343 0
M  V30 5845 C 572.489 -0.850543 1.465 0
M  V30 5846 O 573.695 -0.765088 1.62931 0
M  V30 5847 H 570.07 -0.0541091 0.750051 0
M  V30 5848 H 572.041 0.645326 2.91338 0
M  V30 5849 C 570.79 -1.0872 3.30266 0
M  V30 5850 H 570.113 -0.526267 3.96321 0
M  V30 5851 H 571.553 -1.56489 3.94065 0
M  V30 5852 C 570.012 -2.16525 2.58105 0
M  V30 5853 O 570.542 -3.244 2.36913 0
M  V30 5854 N 568.748 -1.92057 2.18088 0
M  V30 5855 H 568.295 -1.04337 2.35524 0
M  V30 5856 H 568.253 -2.64391 1.70131 0
M  V30 5857 N 572.025 -1.5352 0.356285 0
M  V30 5858 C 573.273 -2.00719 -0.235837 0
M  V30 5859 C 573.594 -1.24551 -1.5004 0
M  V30 5860 O 572.864 -0.356185 -1.92635 0
M  V30 5861 H 571.444 -0.741542 -0.0901366 0
M  V30 5862 H 574.106 -1.88887 0.480378 0
M  V30 5863 H 573.202 -3.08551 -0.469357 0
M  V30 5864 N 573.503 -0.0852151 -1.57369 0
M  V30 5865 C 574.733 0.588605 -1.98038 0
M  V30 5866 C 575.141 1.62869 -0.962817 0
M  V30 5867 O 574.484 1.83611 0.057134 0
M  V30 5868 C 574.546 1.30303 -3.35054 0
M  V30 5869 C 574.21 0.414855 -4.55113 0
M  V30 5870 C 575.207 -0.333011 -5.18832 0
M  V30 5871 C 572.892 0.335804 -5.01176 0
M  V30 5872 C 574.886 -1.14801 -6.26976 0
M  V30 5873 C 572.573 -0.482857 -6.09189 0
M  V30 5874 C 573.571 -1.22342 -6.71953 0
M  V30 5875 O 573.259 -2.02855 -7.77885 0
M  V30 5876 H 572.991 0.163249 -0.655992 0
M  V30 5877 H 575.545 -0.1582 -2.0479 0
M  V30 5878 H 573.775 2.0962 -3.24956 0
M  V30 5879 H 575.464 1.87041 -3.60237 0
M  V30 5880 H 576.23 -0.281611 -4.84182 0
M  V30 5881 H 572.109 0.901869 -4.52092 0
M  V30 5882 H 575.653 -1.72654 -6.75897 0
M  V30 5883 H 571.55 -0.535773 -6.43273 0
M  V30 5884 H 572.318 -1.95432 -7.94826 0
M  V30 5885 N 574.981 1.5647 0.188427 0
M  V30 5886 C 575.913 1.91611 1.25769 0
M  V30 5887 C 576.926 0.807436 1.41366 0
M  V30 5888 O 578.115 1.08586 1.41673 0
M  V30 5889 C 575.215 2.13874 2.6289 0
M  V30 5890 C 574.388 3.45047 2.68815 0
M  V30 5891 C 573.447 3.56342 3.87178 0
M  V30 5892 O 572.473 4.29109 3.73971 0
M  V30 5893 N 573.675 2.89924 5.02916 0
M  V30 5894 H 576.44 2.8393 0.959373 0
M  V30 5895 H 574.001 1.57418 0.378306 0
M  V30 5896 H 575.993 2.18713 3.4051 0
M  V30 5897 H 574.563 1.28022 2.85183 0
M  V30 5898 H 573.783 3.52017 1.77419 0
M  V30 5899 H 575.071 4.31395 2.6977 0
M  V30 5900 H 574.469 2.30644 5.16546 0
M  V30 5901 H 573.026 3.0038 5.78459 0
M  V30 5902 N 576.459 -0.456382 1.50847 0
M  V30 5903 C 577.684 -1.2349 1.66628 0
M  V30 5904 C 578.109 -1.84715 0.355254 0
M  V30 5905 O 577.467 -1.67961 -0.682559 0
M  V30 5906 C 577.515 -2.30865 2.77009 0
M  V30 5907 O 576.619 -3.35882 2.39285 0
M  V30 5908 H 575.96 -0.36266 0.556214 0
M  V30 5909 H 578.49 -0.541374 1.97308 0
M  V30 5910 H 578.5 -2.75949 3.00526 0
M  V30 5911 H 577.175 -1.85677 3.72152 0
M  V30 5912 H 575.752 -2.96406 2.26269 0
M  V30 5913 N 577.937 -1.40673 -0.710563 0
M  V30 5914 C 578.9 -1.4108 -1.80635 0
M  V30 5915 C 579.9 -0.303783 -1.57904 0
M  V30 5916 O 581.09 -0.562937 -1.64853 0
M  V30 5917 C 578.222 -1.20748 -3.18799 0
M  V30 5918 H 579.415 -2.38612 -1.81671 0
M  V30 5919 H 576.968 -1.26595 -0.916704 0
M  V30 5920 H 577.703 -0.239964 -3.23411 0
M  V30 5921 H 577.488 -2.00941 -3.36698 0
M  V30 5922 H 578.978 -1.23833 -3.98817 0
M  V30 5923 N 579.415 0.9433 -1.26252 0
M  V30 5924 C 580.661 1.69175 -1.11837 0
M  V30 5925 C 580.994 1.91238 0.337891 0
M  V30 5926 O 580.269 1.49152 1.24836 0
M  V30 5927 C 580.552 3.06783 -1.88563 0
M  V30 5928 C 580.405 2.9206 -3.42083 0
M  V30 5929 C 581.724 4.06865 -1.67776 0
M  V30 5930 H 578.843 0.61399 -0.407658 0
M  V30 5931 H 581.485 1.09572 -1.55222 0
M  V30 5932 H 579.635 3.57663 -1.51689 0
M  V30 5933 H 581.307 2.48419 -3.88698 0
M  V30 5934 H 579.55 2.27731 -3.69217 0
M  V30 5935 H 580.221 3.89651 -3.90994 0
M  V30 5936 H 582.697 3.64939 -1.99897 0
M  V30 5937 H 581.573 5.01168 -2.23879 0
M  V30 5938 H 581.834 4.37705 -0.621816 0
M  V30 5939 N 580.893 1.08022 1.14757 0
M  V30 5940 C 582.139 0.808705 1.85978 0
M  V30 5941 C 582.472 -0.663764 1.82504 0
M  V30 5942 O 581.747 -1.48765 1.25296 0
M  V30 5943 C 582.03 1.32623 3.34788 0
M  V30 5944 C 581.883 2.86375 3.46856 0
M  V30 5945 C 583.202 0.948291 4.29762 0
M  V30 5946 H 580.321 0.295244 0.675278 0
M  V30 5947 H 582.963 1.33917 1.34783 0
M  V30 5948 H 581.113 0.875002 3.78518 0
M  V30 5949 H 582.785 3.39839 3.11941 0
M  V30 5950 H 581.028 3.24232 2.88194 0
M  V30 5951 H 581.699 3.17658 4.51439 0
M  V30 5952 H 584.175 1.33722 3.94028 0
M  V30 5953 H 583.051 1.33765 5.32352 0
M  V30 5954 H 583.312 -0.145094 4.41862 0
M  V30 5955 N 582.371 -1.3172 0.865308 0
M  V30 5956 C 583.619 -1.96487 0.472995 0
M  V30 5957 C 583.94 -1.68761 -0.976975 0
M  V30 5958 O 583.21 -1.00051 -1.68424 0
M  V30 5959 H 581.79 -0.726947 0.171922 0
M  V30 5960 H 584.452 -1.60612 1.10407 0
M  V30 5961 H 583.548 -3.0574 0.62687 0
M  V30 5962 N 583.85 -0.624285 -1.44708 0
M  V30 5963 C 585.099 -0.123539 -2.01321 0
M  V30 5964 C 585.412 1.25966 -1.49639 0
M  V30 5965 O 586.618 1.85405 -1.98336 0
M  V30 5966 C 585.074 -0.170124 -3.59498 0
M  V30 5967 C 584.682 -1.55421 -4.20176 0
M  V30 5968 C 586.426 0.274513 -4.23611 0
M  V30 5969 C 584.332 -1.55628 -5.70556 0
M  V30 5970 H 583.263 -0.0424183 -0.752806 0
M  V30 5971 H 585.913 -0.782076 -1.65999 0
M  V30 5972 H 584.296 0.555385 -3.92086 0
M  V30 5973 H 585.47 -2.30276 -3.99136 0
M  V30 5974 H 583.784 -1.94235 -3.68323 0
M  V30 5975 H 586.382 0.292402 -5.339 0
M  V30 5976 H 586.725 1.3005 -3.95465 0
M  V30 5977 H 587.258 -0.398275 -3.95801 0
M  V30 5978 H 583.997 -2.56041 -6.03426 0
M  V30 5979 H 583.517 -0.850563 -5.93739 0
M  V30 5980 H 585.196 -1.28721 -6.34066 0
M  V30 5981 N 585.328 1.53329 -0.364422 0
M  V30 5982 C 586.275 2.25698 0.482607 0
M  V30 5983 C 587.245 1.26325 1.07848 0
M  V30 5984 O 588.43 1.55104 1.11119 0
M  V30 5985 C 585.57 3.04873 1.61699 0
M  V30 5986 C 584.683 4.19135 1.0464 0
M  V30 5987 C 583.818 4.85754 2.14979 0
M  V30 5988 C 582.857 5.9205 1.5538 0
M  V30 5989 N 581.994 6.52365 2.59547 0
M  V30 5990 H 586.834 2.97666 -0.141032 0
M  V30 5991 H 584.371 1.46875 -0.0813692 0
M  V30 5992 H 586.329 3.49051 2.28516 0
M  V30 5993 H 584.959 2.35162 2.2113 0
M  V30 5994 H 584.011 3.79451 0.268553 0
M  V30 5995 H 585.323 4.95525 0.570653 0
M  V30 5996 H 584.477 5.3311 2.89619 0
M  V30 5997 H 583.216 4.08834 2.65906 0
M  V30 5998 H 582.221 5.44058 0.792549 0
M  V30 5999 H 583.446 6.7089 1.0528 0
M  V30 6000 H 581.392 5.78298 3.09689 0
M  V30 6001 H 581.309 7.2429 2.16655 0
M  V30 6002 H 582.577 7.0437 3.33892 0
M  V30 6003 N 586.806 0.0935595 1.57322 0
M  V30 6004 C 588.217 -0.435807 1.81542 0
M  V30 6005 C 588.568 -1.68263 1.00907 0
M  V30 6006 O 587.693 -2.15087 0.237983 0
M  V30 6007 C 588.288 -0.797436 3.29282 0
M  V30 6008 C 586.847 -1.27155 3.54272 0
M  V30 6009 C 585.994 -0.267455 2.76007 0
M  V30 6010 H 588.945 0.31902 1.5546 0
M  V30 6011 H 588.966 -1.6571 3.42521 0
M  V30 6012 H 588.478 0.110206 3.87943 0
M  V30 6013 H 586.579 -2.19696 3.00939 0
M  V30 6014 H 586.692 -1.23445 4.62923 0
M  V30 6015 H 585.056 -0.749282 2.43429 0
M  V30 6016 H 585.839 0.632839 3.37417 0
M  V30 6017 O 588.323 -1.61433 -0.0465113 0
M  V30 6018 H 589.014 -1.8177 -0.669292 0
M  V30 END ATOM
M  V30 BEGIN BOND
M  V30 END BOND
M  V30 END CTAB
M  END
$$$$
