drugbank_target|Q72LA5 NrfC protein (DB08689)
 OpenBabel12092120523D

  0  0  0     0  0            999 V3000
M  V30 BEGIN CTAB
M  V30 COUNTS 2968 3006 0 0 0
M  V30 BEGIN ATOM
M  V30 1 H -0.908 1.98254 -0.117106 0
M  V30 2 N 0 1.576 0 0
M  V30 3 C 0.933 2.03868 1.02534 0
M  V30 4 C 1.911 0.928543 1.3348 0
M  V30 5 O 3.095 1.19667 1.45644 0
M  V30 6 C 0.222 2.43627 2.35294 0
M  V30 7 C -0.732 3.65373 2.2001 0
M  V30 8 S 0.101 5.13292 1.52614 0
M  V30 9 C 1.257 5.56322 2.86805 0
M  V30 10 H 1.49 2.90518 0.631377 0
M  V30 11 H -0.977 1.52953 0.210867 0
M  V30 12 H 0.981 2.67203 3.11629 0
M  V30 13 H -0.358 1.57376 2.7183 0
M  V30 14 H -1.165 3.90944 3.18086 0
M  V30 15 H -1.563 3.418 1.51819 0
M  V30 16 H 0.729 5.58782 3.83104 0
M  V30 17 H 1.672 6.56266 2.65933 0
M  V30 18 H 2.08 4.83886 2.90714 0
M  V30 19 N 1.4781 -0.272755 1.55222 0
M  V30 20 C 2.8891 -0.84378 1.66545 0
M  V30 21 C 3.2401 -1.87035 0.592641 0
M  V30 22 O 2.3651 -2.14761 -0.265818 0
M  V30 23 C 2.9601 -1.53723 3.01918 0
M  V30 24 C 1.5191 -2.05628 3.15268 0
M  V30 25 C 0.6661 -0.898424 2.62343 0
M  V30 26 H 3.6171 -0.0490998 1.58624 0
M  V30 27 H 3.6381 -2.40421 2.94921 0
M  V30 28 H 3.1501 -0.78983 3.79978 0
M  V30 29 H 1.2511 -2.83329 2.41983 0
M  V30 30 H 1.3641 -2.27142 4.21833 0
M  V30 31 H -0.2719 -1.29186 2.19506 0
M  V30 32 H 0.5111 -0.164528 3.42906 0
M  V30 33 N 2.9562 -1.48159 -0.537278 0
M  V30 34 C 4.3722 -1.34118 -0.865129 0
M  V30 35 C 4.5722 -0.346678 -1.98495 0
M  V30 36 O 3.6282 0.234715 -2.51407 0
M  V30 37 C 4.9412 -2.73963 -1.23954 0
M  V30 38 C 6.4892 -2.82397 -1.34984 0
M  V30 39 C 6.9642 -4.22928 -1.75772 0
M  V30 40 N 8.4552 -4.25566 -1.82887 0
M  V30 41 C 9.1902 -5.31235 -2.15817 0
M  V30 42 N 8.6862 -6.47189 -2.47222 0
M  V30 43 N 10.4792 -5.18624 -2.16761 0
M  V30 44 H 2.6302 -2.1144 0.201715 0
M  V30 45 H 4.8932 -0.947598 0.0275949 0
M  V30 46 H 4.5992 -3.48264 -0.490381 0
M  V30 47 H 4.4732 -3.0702 -2.19132 0
M  V30 48 H 6.8602 -2.08356 -2.08978 0
M  V30 49 H 6.9412 -2.5297 -0.379448 0
M  V30 50 H 6.5852 -4.97482 -1.02341 0
M  V30 51 H 6.5152 -4.49794 -2.73848 0
M  V30 52 H 9.0062 -3.41924 -1.60924 0
M  V30 53 H 9.3192 -7.23564 -2.71433 0
M  V30 54 H 7.6642 -6.50476 -2.44757 0
M  V30 55 H 10.8552 -4.27056 -1.91679 0
M  V30 56 H 11.0282 -6.01078 -2.42093 0
M  V30 57 N 4.4343 0.785586 -1.36625 0
M  V30 58 C 5.6643 1.5722 -1.34036 0
M  V30 59 C 6.0723 1.89033 0.0795062 0
M  V30 60 O 5.4153 1.50881 1.04789 0
M  V30 61 C 5.4773 2.91759 -2.10041 0
M  V30 62 C 5.1413 2.82654 -3.59104 0
M  V30 63 C 6.1383 2.54634 -4.53274 0
M  V30 64 C 3.8233 3.01111 -4.02042 0
M  V30 65 C 5.8173 2.45177 -5.88359 0
M  V30 66 C 3.5043 2.91276 -5.37216 0
M  V30 67 C 4.5023 2.63348 -6.30188 0
M  V30 68 O 4.1903 2.53514 -7.6288 0
M  V30 69 H 3.9223 0.494177 -0.461265 0
M  V30 70 H 6.4763 0.982632 -1.8037 0
M  V30 71 H 4.7063 3.52781 -1.58375 0
M  V30 72 H 6.3953 3.53059 -2.00261 0
M  V30 73 H 7.1613 2.40073 -4.21414 0
M  V30 74 H 3.0403 3.21854 -3.30047 0
M  V30 75 H 6.5843 2.23299 -6.60896 0
M  V30 76 H 2.4813 3.054 -5.68684 0
M  V30 77 H 3.2493 2.68967 -7.73045 0
M  V30 78 N 5.9124 1.20967 1.01018 0
M  V30 79 C 6.8754 0.965918 2.07853 0
M  V30 80 C 7.8754 -0.0610545 1.60684 0
M  V30 81 O 9.0654 0.175681 1.73312 0
M  V30 82 C 6.1974 0.455513 3.37843 0
M  V30 83 H 7.3904 1.91365 2.3091 0
M  V30 84 H 4.9434 1.02594 1.17916 0
M  V30 85 H 5.6784 -0.497381 3.20463 0
M  V30 86 H 5.4634 1.19622 3.73407 0
M  V30 87 H 6.9534 0.304667 4.16487 0
M  V30 88 N 7.3905 -1.2043 1.01659 0
M  V30 89 C 8.3235 -2.21924 0.531521 0
M  V30 90 C 9.3015 -1.57054 -0.421032 0
M  V30 91 O 10.4855 -1.85389 -0.341035 0
M  V30 92 C 7.6125 -3.37942 -0.226496 0
M  V30 93 C 6.6585 -4.21115 0.67561 0
M  V30 94 S 7.4915 -4.90674 2.14475 0
M  V30 95 C 8.6475 -6.10113 1.3969 0
M  V30 96 H 8.8805 -2.62725 1.3915 0
M  V30 97 H 6.4135 -1.30481 0.825479 0
M  V30 98 H 8.3715 -4.05196 -0.657738 0
M  V30 99 H 7.0325 -2.956 -1.06205 0
M  V30 100 H 6.2255 -5.03918 0.091108 0
M  V30 101 H 5.8275 -3.59115 1.04463 0
M  V30 102 H 8.1195 -6.7411 0.676897 0
M  V30 103 H 9.0625 -6.73022 2.20107 0
M  V30 104 H 9.4705 -5.57283 0.899786 0
M  V30 105 N 8.8686 -0.792821 -1.36206 0
M  V30 106 C 9.8316 -0.199459 -2.2833 0
M  V30 107 C 10.8316 0.605189 -1.48977 0
M  V30 108 O 12.0216 0.425685 -1.68919 0
M  V30 109 C 9.1536 0.723523 -3.33134 0
M  V30 110 H 10.3466 -1.01181 -2.82316 0
M  V30 111 H 7.8996 -0.562485 -1.45828 0
M  V30 112 H 8.6346 1.56008 -2.84309 0
M  V30 113 H 8.4196 0.148436 -3.91819 0
M  V30 114 H 9.9096 1.13344 -4.01924 0
M  V30 115 N 10.3467 1.47872 -0.545128 0
M  V30 116 C 11.5957 2.01695 -0.0145033 0
M  V30 117 C 11.9087 1.42609 1.33873 0
M  V30 118 O 13.1147 1.88021 1.95858 0
M  V30 119 C 11.5707 3.59892 0.0245068 0
M  V30 120 C 11.1787 4.27966 -1.32475 0
M  V30 121 C 12.9227 4.21507 0.50316 0
M  V30 122 C 10.8297 5.78136 -1.2455 0
M  V30 123 H 9.7597 0.753998 -0.00165172 0
M  V30 124 H 12.4107 1.69985 -0.691175 0
M  V30 125 H 10.7927 3.88509 0.766575 0
M  V30 126 H 11.9667 4.11003 -2.08357 0
M  V30 127 H 10.2817 3.78286 -1.74036 0
M  V30 128 H 12.8787 5.31538 0.580656 0
M  V30 129 H 13.2217 3.87855 1.51243 0
M  V30 130 H 13.7547 3.97376 -0.183681 0
M  V30 131 H 10.4937 6.16388 -2.23039 0
M  V30 132 H 10.0137 5.97469 -0.528282 0
M  V30 133 H 11.6927 6.40099 -0.942488 0
M  V30 134 N 11.8248 0.280983 1.55075 0
M  V30 135 C 13.1018 -0.386207 1.91749 0
M  V30 136 C 13.4818 -1.73264 1.20594 0
M  V30 137 O 12.8298 -2.26034 0.334784 0
M  V30 138 C 13.0398 -0.520687 3.45094 0
M  V30 139 C 14.3878 -0.800865 4.16979 0
M  V30 140 O 15.4118 -0.605271 3.5102 0
M  V30 141 O 14.2708 -1.1753 5.33712 0
M  V30 142 H 11.3648 -0.212408 0.799257 0
M  V30 143 H 13.9108 0.327568 1.66509 0
M  V30 144 H 12.6828 0.426633 3.88967 0
M  V30 145 H 12.3058 -1.2837 3.76307 0
M  V30 146 N 13.3029 -1.57598 0.00835791 0
M  V30 147 C 14.2329 -2.1198 -0.979113 0
M  V30 148 C 15.2139 -1.03091 -1.35301 0
M  V30 149 O 16.3989 -1.30818 -1.43528 0
M  V30 150 C 13.5289 -2.62995 -2.26828 0
M  V30 151 C 12.4829 -3.76485 -2.03576 0
M  V30 152 C 11.8089 -4.13846 -3.38579 0
M  V30 153 C 13.1089 -5.0342 -1.39161 0
M  V30 154 H 14.8029 -2.94738 -0.526281 0
M  V30 155 H 12.3489 -1.41783 -0.251704 0
M  V30 156 H 14.3019 -2.99669 -2.96271 0
M  V30 157 H 13.0259 -1.7737 -2.7424 0
M  V30 158 H 11.6849 -3.40217 -1.36557 0
M  V30 159 H 11.3329 -3.25232 -3.83709 0
M  V30 160 H 11.0329 -4.90312 -3.23834 0
M  V30 161 H 12.5569 -4.53086 -4.09323 0
M  V30 162 H 13.9709 -5.37812 -1.98573 0
M  V30 163 H 12.3679 -5.84746 -1.34878 0
M  V30 164 H 13.4379 -4.83548 -0.361868 0
M  V30 165 N 14.781 0.264519 -1.55364 0
M  V30 166 C 16.006 1.01726 -1.80739 0
M  V30 167 C 16.431 1.78836 -0.583044 0
M  V30 168 O 15.789 1.75167 0.467566 0
M  V30 169 C 15.837 1.94482 -3.03659 0
M  V30 170 O 14.941 3.03386 -2.7934 0
M  V30 171 H 14.282 0.290395 -0.597132 0
M  V30 172 H 16.812 0.290854 -2.02522 0
M  V30 173 H 16.822 2.36278 -3.32621 0
M  V30 174 H 15.497 1.37772 -3.92418 0
M  V30 175 H 14.074 2.65844 -2.61498 0
M  V30 176 N 16.2591 1.48442 0.529413 0
M  V30 177 C 17.1891 1.65902 1.64313 0
M  V30 178 C 18.1701 0.507897 1.6234 0
M  V30 179 O 19.3551 0.740503 1.79528 0
M  V30 180 C 16.4851 1.69911 3.02898 0
M  V30 181 C 15.4391 2.8453 3.19729 0
M  V30 182 C 14.7651 2.73629 4.59381 0
M  V30 183 C 16.0651 4.25821 3.02447 0
M  V30 184 H 17.7591 2.5914 1.49955 0
M  V30 185 H 15.3051 1.24709 0.719982 0
M  V30 186 H 17.2581 1.80715 3.80684 0
M  V30 187 H 15.9821 0.732524 3.18279 0
M  V30 188 H 14.6411 2.73283 2.44361 0
M  V30 189 H 14.2891 1.74938 4.71599 0
M  V30 190 H 13.9891 3.50541 4.71588 0
M  V30 191 H 15.5131 2.86401 5.39265 0
M  V30 192 H 16.9271 4.37898 3.70024 0
M  V30 193 H 15.3241 5.03735 3.26146 0
M  V30 194 H 16.3941 4.42244 1.98867 0
M  V30 195 N 17.7372 -0.778329 1.37039 0
M  V30 196 C 18.9772 -1.54973 1.33276 0
M  V30 197 C 19.3412 -1.91816 -0.0839376 0
M  V30 198 O 20.5422 -2.6767 -0.246228 0
M  V30 199 C 18.8132 -2.78517 2.23971 0
M  V30 200 S 20.3722 -3.6865 2.37997 0
M  V30 201 H 17.1902 -0.530639 0.473226 0
M  V30 202 H 19.7922 -0.915806 1.72723 0
M  V30 203 H 18.4962 -2.4952 3.25835 0
M  V30 204 H 18.0272 -3.46875 1.85584 0
M  V30 205 H 20.0422 -4.70182 1.58567 0
M  V30 206 N 19.2153 -1.21501 -1.00376 0
M  V30 207 C 20.4613 -1.03452 -1.74429 0
M  V30 208 C 20.7943 0.430764 -1.89362 0
M  V30 209 O 20.0693 1.31962 -1.42886 0
M  V30 210 C 20.3523 -1.73375 -3.15615 0
M  V30 211 C 20.2053 -3.27431 -3.08397 0
M  V30 212 C 21.5243 -1.47732 -4.14564 0
M  V30 213 H 18.6433 -0.377226 -0.633143 0
M  V30 214 H 21.2853 -1.49693 -1.17013 0
M  V30 215 H 19.4353 -1.34064 -3.64636 0
M  V30 216 H 21.1073 -3.76119 -2.67081 0
M  V30 217 H 19.3503 -3.5767 -2.45468 0
M  V30 218 H 20.0213 -3.71524 -4.08258 0
M  V30 219 H 22.4973 -1.8186 -3.74254 0
M  V30 220 H 21.3733 -1.99169 -5.11491 0
M  V30 221 H 21.6343 -0.407589 -4.40217 0
M  V30 222 N 20.6934 1.19889 -1.02296 0
M  V30 223 C 21.9414 1.89046 -0.714558 0
M  V30 224 C 22.2624 1.79636 0.758681 0
M  V30 225 O 21.5324 1.20292 1.54618 0
M  V30 226 H 20.1124 0.699802 -0.261317 0
M  V30 227 H 22.7744 1.45574 -1.29592 0
M  V30 228 H 21.8704 2.95524 -1.0036 0
M  V30 229 N 22.1715 0.800033 1.35784 0
M  V30 230 C 23.4115 0.382891 2.00782 0
M  V30 231 C 23.7755 -1.02891 1.62103 0
M  V30 232 O 24.9765 -1.54771 2.19771 0
M  V30 233 C 23.2475 0.553299 3.53091 0
M  V30 234 S 24.8065 0.225608 4.3822 0
M  V30 235 H 21.6245 0.145737 0.695904 0
M  V30 236 H 24.2265 1.04085 1.65489 0
M  V30 237 H 22.9305 1.58091 3.78729 0
M  V30 238 H 22.4615 -0.120214 3.93216 0
M  V30 239 H 24.4765 -0.969074 4.86645 0
M  V30 240 N 23.6496 -1.47581 0.552962 0
M  V30 241 C 24.6126 -2.28439 -0.186605 0
M  V30 242 C 25.6126 -1.36706 -0.84665 0
M  V30 243 O 26.8026 -1.59378 -0.703164 0
M  V30 244 C 23.9346 -3.16264 -1.2724 0
M  V30 245 H 25.1276 -2.95294 0.523609 0
M  V30 246 H 22.6806 -1.532 0.309745 0
M  V30 247 H 23.4156 -2.54091 -2.01514 0
M  V30 248 H 23.2006 -3.83769 -0.803968 0
M  V30 249 H 24.6906 -3.77198 -1.79196 0
M  V30 250 N 25.1277 -0.289203 -1.54924 0
M  V30 251 C 26.0907 0.579144 -2.21762 0
M  V30 252 C 27.0907 1.07047 -1.1999 0
M  V30 253 O 28.2807 0.968384 -1.44803 0
M  V30 254 C 25.4127 1.80055 -2.8947 0
M  V30 255 H 26.6057 -0.00464908 -2.999 0
M  V30 256 H 24.1587 -0.0399306 -1.56249 0
M  V30 257 H 24.8937 2.42449 -2.15381 0
M  V30 258 H 24.6787 1.45602 -3.64064 0
M  V30 259 H 26.1687 2.41773 -3.40493 0
M  V30 260 N 26.6058 1.57591 -0.0167156 0
M  V30 261 C 27.8458 1.93145 0.668902 0
M  V30 262 C 28.2098 0.892406 1.7 0
M  V30 263 O 29.4108 1.13373 2.43721 0
M  V30 264 C 27.6818 3.33678 1.28039 0
M  V30 265 S 29.2408 3.91142 1.9888 0
M  V30 266 H 26.0588 0.67593 0.220545 0
M  V30 267 H 28.6608 1.95347 -0.0774105 0
M  V30 268 H 27.3648 4.07126 0.517339 0
M  V30 269 H 26.8958 3.3489 2.06427 0
M  V30 270 H 28.9108 3.73571 3.26587 0
M  V30 271 N 28.0839 -0.256276 1.55502 0
M  V30 272 C 29.0469 -1.30047 1.88734 0
M  V30 273 C 30.0469 -1.4154 0.763086 0
M  V30 274 O 31.2369 -1.40403 1.03115 0
M  V30 275 C 28.3689 -2.67953 2.10747 0
M  V30 276 H 29.5619 -1.01802 2.82093 0
M  V30 277 H 27.1149 -0.495134 1.4825 0
M  V30 278 H 27.8499 -3.01351 1.19825 0
M  V30 279 H 27.6349 -2.60993 2.92617 0
M  V30 280 H 29.1249 -3.43368 2.37673 0
M  V30 281 N 29.562 -1.4872 -0.521534 0
M  V30 282 C 30.808 -1.574 -1.27879 0
M  V30 283 C 31.141 -0.250817 -1.92573 0
M  V30 284 O 30.416 0.743934 -1.79711 0
M  V30 285 C 30.699 -2.71843 -2.36164 0
M  V30 286 C 30.552 -4.13893 -1.76105 0
M  V30 287 C 31.871 -2.82008 -3.37875 0
M  V30 288 H 28.99 -0.572941 -0.463581 0
M  V30 289 H 31.632 -1.80927 -0.580119 0
M  V30 290 H 29.782 -2.51914 -2.95756 0
M  V30 291 H 31.454 -4.45284 -1.20499 0
M  V30 292 H 29.697 -4.20498 -1.06601 0
M  V30 293 H 30.368 -4.89804 -2.5455 0
M  V30 294 H 32.844 -3.00086 -2.88249 0
M  V30 295 H 31.72 -3.63796 -4.11028 0
M  V30 296 H 31.981 -1.90511 -3.98946 0
M  V30 297 N 31.0401 0.771051 -1.3745 0
M  V30 298 C 32.0031 1.86598 -1.33093 0
M  V30 299 C 33.0031 1.59076 -0.234845 0
M  V30 300 O 34.1931 1.67145 -0.490732 0
M  V30 301 C 31.3251 3.23747 -1.06773 0
M  V30 302 H 32.5181 1.91873 -2.30488 0
M  V30 303 H 30.0711 0.970876 -1.2249 0
M  V30 304 H 30.8061 3.24148 -0.099129 0
M  V30 305 H 30.5911 3.45115 -1.86112 0
M  V30 306 H 32.0811 4.03824 -1.06377 0
M  V30 307 N 32.5182 1.22032 0.997298 0
M  V30 308 C 33.7582 1.05375 1.75144 0
M  V30 309 C 34.1222 -0.404696 1.87686 0
M  V30 310 O 35.3232 -0.691998 2.5974 0
M  V30 311 C 33.5942 1.74046 3.12158 0
M  V30 312 S 35.1532 1.72745 4.03366 0
M  V30 313 H 31.9712 0.377449 0.602539 0
M  V30 314 H 34.5732 1.54902 1.19272 0
M  V30 315 H 33.2772 2.79332 3.00669 0
M  V30 316 H 32.8082 1.24731 3.73103 0
M  V30 317 H 34.8232 0.774015 4.90126 0
M  V30 318 N 33.9963 -1.19345 1.0293 0
M  V30 319 C 34.9433 -2.2258 0.610464 0
M  V30 320 C 35.9133 -1.6179 -0.375946 0
M  V30 321 O 37.0983 -1.88844 -0.272511 0
M  V30 322 C 34.2383 -3.45085 -0.0321473 0
M  V30 323 C 33.3513 -4.20258 1.00035 0
M  V30 324 C 32.4863 -5.3019 0.32746 0
M  V30 325 C 31.5253 -5.97121 1.34584 0
M  V30 326 N 30.6623 -6.98615 0.698726 0
M  V30 327 H 35.5023 -2.57764 1.49538 0
M  V30 328 H 33.0393 -1.26644 0.748311 0
M  V30 329 H 34.9973 -4.15061 -0.421966 0
M  V30 330 H 33.6273 -3.10555 -0.88064 0
M  V30 331 H 32.6793 -3.49223 1.50823 0
M  V30 332 H 33.9913 -4.66175 1.77433 0
M  V30 333 H 33.1453 -6.06587 -0.11718 0
M  V30 334 H 31.8843 -4.85345 -0.478713 0
M  V30 335 H 30.8893 -5.19474 1.80074 0
M  V30 336 H 32.1143 -6.4405 2.15352 0
M  V30 337 H 30.0603 -6.55942 -0.0873471 0
M  V30 338 H 29.9773 -7.42724 1.41058 0
M  V30 339 H 31.2453 -7.79004 0.278102 0
M  V30 340 N 35.4744 -0.807222 -1.35358 0
M  V30 341 C 36.4074 -0.163572 -2.27613 0
M  V30 342 C 37.3854 0.670817 -1.48118 0
M  V30 343 O 38.5694 0.63796 -1.77376 0
M  V30 344 C 35.6964 0.773015 -3.29761 0
M  V30 345 C 34.7424 0.0181653 -4.26496 0
M  V30 346 S 35.5754 -1.31831 -5.19019 0
M  V30 347 C 36.7314 -0.38619 -6.24707 0
M  V30 348 H 36.9644 -0.945757 -2.81856 0
M  V30 349 H 34.4974 -0.602315 -1.42167 0
M  V30 350 H 36.4554 1.30788 -3.89108 0
M  V30 351 H 35.1164 1.52859 -2.74396 0
M  V30 352 H 34.3094 0.729534 -4.98692 0
M  V30 353 H 33.9114 -0.446761 -3.71322 0
M  V30 354 H 36.2034 0.428295 -6.76145 0
M  V30 355 H 37.1464 -1.07736 -6.99856 0
M  V30 356 H 37.5544 0.018398 -5.64497 0
M  V30 357 N 36.9525 1.47285 -0.560781 0
M  V30 358 C 37.8625 2.33846 0.187954 0
M  V30 359 C 38.8785 1.48412 0.908293 0
M  V30 360 O 40.0545 1.81332 0.876388 0
M  V30 361 C 37.1195 3.25178 1.2025 0
M  V30 362 C 36.1805 4.26504 0.489208 0
M  V30 363 C 35.4135 5.13472 1.45542 0
M  V30 364 O 35.6365 5.02959 2.6905 0
M  V30 365 O 34.5705 5.93902 0.977963 0
M  V30 366 H 38.3965 2.99177 -0.522177 0
M  V30 367 H 35.9815 1.45903 -0.321364 0
M  V30 368 H 37.8635 3.81584 1.78805 0
M  V30 369 H 36.5385 2.6247 1.89449 0
M  V30 370 H 35.4455 3.73847 -0.137627 0
M  V30 371 H 36.7785 4.91935 -0.161399 0
M  V30 372 N 38.4306 0.297415 1.54768 0
M  V30 373 C 39.3786 -0.596051 2.24833 0
M  V30 374 C 40.3726 -1.13992 1.25308 0
M  V30 375 O 41.5786 -1.09098 1.4317 0
M  V30 376 H 37.9536 -0.210814 0.721846 0
M  V30 377 H 39.9246 0.0174667 2.98395 0
M  V30 378 C 38.6736 -1.75818 2.99972 0
M  V30 379 H 37.9966 -1.3489 3.76357 0
M  V30 380 H 39.4366 -2.35949 3.52284 0
M  V30 381 C 37.8956 -2.66014 2.06732 0
M  V30 382 O 38.4256 -3.67009 1.63302 0
M  V30 383 N 36.6316 -2.33669 1.72763 0
M  V30 384 H 36.1786 -1.51586 2.08277 0
M  V30 385 H 36.1366 -2.94285 1.10652 0
M  V30 386 N 39.9087 -1.5758 0.0250728 0
M  V30 387 C 40.8187 -2.1343 -0.973905 0
M  V30 388 C 41.8347 -1.08556 -1.35984 0
M  V30 389 O 43.0107 -1.40592 -1.44207 0
M  V30 390 C 40.0757 -2.64703 -2.23904 0
M  V30 391 C 39.1367 -3.84276 -1.91391 0
M  V30 392 C 38.3697 -4.33095 -3.11873 0
M  V30 393 O 38.5927 -3.81107 -4.24398 0
M  V30 394 O 37.5267 -5.24984 -2.94406 0
M  V30 395 H 41.3527 -2.99057 -0.529036 0
M  V30 396 H 38.9377 -1.48118 -0.195288 0
M  V30 397 H 40.8197 -2.97769 -2.98181 0
M  V30 398 H 39.4947 -1.82161 -2.6758 0
M  V30 399 H 38.4017 -3.56143 -1.14511 0
M  V30 400 H 39.7347 -4.67968 -1.52534 0
M  V30 401 N 41.3868 0.248026 -1.55636 0
M  V30 402 C 42.6328 0.97767 -1.77678 0
M  V30 403 C 42.9658 1.85016 -0.590135 0
M  V30 404 O 42.2408 1.90095 0.411611 0
M  V30 405 C 42.5238 1.83914 -3.09593 0
M  V30 406 C 42.3768 0.99491 -4.38659 0
M  V30 407 C 43.6958 2.82183 -3.37729 0
M  V30 408 H 40.8148 0.354005 -0.646413 0
M  V30 409 H 43.4568 0.248253 -1.88371 0
M  V30 410 H 41.6068 2.46104 -3.00608 0
M  V30 411 H 43.2788 0.391789 -4.59633 0
M  V30 412 H 41.5218 0.299231 -4.32767 0
M  V30 413 H 42.1928 1.63145 -5.2734 0
M  V30 414 H 44.6688 2.30129 -3.4667 0
M  V30 415 H 43.5448 3.39582 -4.31249 0
M  V30 416 H 43.8058 3.58588 -2.58586 0
M  V30 417 N 42.8649 1.48995 0.513639 0
M  V30 418 C 44.2759 1.5119 1.09537 0
M  V30 419 C 44.6269 0.290906 1.94031 0
M  V30 420 O 43.7519 -0.60049 2.07902 0
M  V30 421 C 44.3469 2.73964 1.99322 0
M  V30 422 C 42.9059 2.78978 2.52682 0
M  V30 423 C 42.0529 2.44934 1.30009 0
M  V30 424 H 45.0039 1.55875 0.298125 0
M  V30 425 H 45.0249 2.53409 2.83838 0
M  V30 426 H 44.5369 3.62813 1.37799 0
M  V30 427 H 42.6379 1.94378 3.1788 0
M  V30 428 H 42.7509 3.8083 2.90698 0
M  V30 429 H 41.1149 1.9644 1.62122 0
M  V30 430 H 41.8979 3.36043 0.702131 0
M  V30 431 N 44.343 -0.763751 1.37857 0
M  V30 432 C 45.754 -1.3405 1.29952 0
M  V30 433 C 46.105 -1.96138 -0.0492898 0
M  V30 434 O 45.23 -1.94372 -0.951239 0
M  V30 435 C 45.825 -2.43729 2.35333 0
M  V30 436 C 44.384 -2.97151 2.31037 0
M  V30 437 C 43.531 -1.70438 2.18738 0
M  V30 438 H 46.482 -0.563396 1.48363 0
M  V30 439 H 46.503 -3.23412 2.00462 0
M  V30 440 H 46.015 -1.9851 3.33489 0
M  V30 441 H 44.116 -3.46724 1.3643 0
M  V30 442 H 44.229 -3.52221 3.24772 0
M  V30 443 H 42.593 -1.93673 1.65418 0
M  V30 444 H 43.376 -1.27312 3.18821 0
M  V30 445 N 45.8211 -1.22559 -0.990812 0
M  V30 446 C 47.0691 -1.04933 -1.72724 0
M  V30 447 C 47.3901 0.416158 -1.90508 0
M  V30 448 O 46.6601 1.29918 -1.46622 0
M  V30 449 H 45.2401 -0.385296 -0.639965 0
M  V30 450 H 47.9021 -1.54105 -1.19322 0
M  V30 451 H 46.9981 -1.52886 -2.72089 0
M  V30 452 N 47.2992 1.18797 -1.03562 0
M  V30 453 C 48.5452 1.8893 -0.737113 0
M  V30 454 C 48.8782 1.79837 0.732956 0
M  V30 455 O 48.1532 1.19525 1.5344 0
M  V30 456 C 48.4362 3.39607 -1.19745 0
M  V30 457 C 48.2892 3.57537 -2.72924 0
M  V30 458 C 49.6082 4.33069 -0.783526 0
M  V30 459 H 46.7272 0.686057 -0.269249 0
M  V30 460 H 49.3692 1.39797 -1.28673 0
M  V30 461 H 47.5192 3.81583 -0.729855 0
M  V30 462 H 49.1912 3.24688 -3.27682 0
M  V30 463 H 47.4342 3.00363 -3.12993 0
M  V30 464 H 48.1052 4.63238 -3.00191 0
M  V30 465 H 50.5812 3.98846 -1.18581 0
M  V30 466 H 49.4572 5.3707 -1.13343 0
M  V30 467 H 49.7182 4.40986 0.313681 0
M  V30 468 N 48.7773 0.814389 1.34928 0
M  V30 469 C 50.0243 0.398423 1.98542 0
M  V30 470 C 50.3523 -1.03638 1.64589 0
M  V30 471 O 49.6073 -1.73509 0.90516 0
M  V30 472 C 49.9063 0.537781 3.53331 0
M  V30 473 C 49.5723 1.93704 4.07172 0
M  V30 474 C 48.2343 2.31984 4.21589 0
M  V30 475 C 50.5863 2.85213 4.36237 0
M  V30 476 C 47.9143 3.61125 4.62391 0
M  V30 477 C 50.2663 4.13809 4.78482 0
M  V30 478 C 48.9303 4.52077 4.91104 0
M  V30 479 H 48.2003 0.145793 0.726516 0
M  V30 480 H 50.8473 1.03669 1.61012 0
M  V30 481 H 49.1523 -0.183906 3.91368 0
M  V30 482 H 50.8493 0.196588 4.00518 0
M  V30 483 H 47.4393 1.62966 3.96409 0
M  V30 484 H 51.6233 2.56885 4.24645 0
M  V30 485 H 46.8793 3.90612 4.70353 0
M  V30 486 H 51.0533 4.84811 4.99932 0
M  V30 487 H 48.6803 5.52196 5.22478 0
M  V30 488 N 50.2554 -1.46986 0.568584 0
M  V30 489 C 51.2034 -2.31858 -0.185649 0
M  V30 490 C 52.1974 -1.43624 -0.898249 0
M  V30 491 O 53.4034 -1.60327 -0.818242 0
M  V30 492 H 49.7784 -0.747866 -0.0787399 0
M  V30 493 H 51.7494 -2.93303 0.549191 0
M  V30 494 C 50.4984 -3.26513 -1.19519 0
M  V30 495 H 49.8214 -3.94377 -0.656285 0
M  V30 496 H 51.2614 -3.88707 -1.6936 0
M  V30 497 C 49.7204 -2.50847 -2.24894 0
M  V30 498 O 50.2504 -2.26119 -3.32014 0
M  V30 499 N 48.4564 -2.11656 -1.99124 0
M  V30 500 H 48.0034 -2.31966 -1.12024 0
M  V30 501 H 47.9614 -1.61347 -2.69842 0
M  V30 502 N 51.7335 -0.305618 -1.54608 0
M  V30 503 C 52.6635 0.561482 -2.26649 0
M  V30 504 C 53.6445 1.13415 -1.26772 0
M  V30 505 O 54.8295 1.16262 -1.55553 0
M  V30 506 C 51.9595 1.73122 -3.01075 0
M  V30 507 C 50.9135 1.2887 -4.08138 0
M  V30 508 C 50.2395 2.54396 -4.70305 0
M  V30 509 C 51.5395 0.416578 -5.20636 0
M  V30 510 H 53.2335 -0.0393902 -2.99374 0
M  V30 511 H 50.7795 -0.020385 -1.43986 0
M  V30 512 H 52.7325 2.34396 -3.50195 0
M  V30 513 H 51.4565 2.3584 -2.25936 0
M  V30 514 H 50.1155 0.698991 -3.59875 0
M  V30 515 H 49.7635 3.15439 -3.918 0
M  V30 516 H 49.4635 2.25486 -5.42614 0
M  V30 517 H 50.9875 3.16464 -5.2219 0
M  V30 518 H 52.4015 0.935116 -5.65622 0
M  V30 519 H 50.7985 0.221046 -5.99693 0
M  V30 520 H 51.8685 -0.557162 -4.81688 0
M  V30 521 N 53.2116 1.57565 -0.0334293 0
M  V30 522 C 54.4576 1.93088 0.639417 0
M  V30 523 C 54.8126 0.910589 1.69488 0
M  V30 524 O 54.1056 -0.0727725 1.91462 0
M  V30 525 C 54.2996 3.33112 1.29504 0
M  V30 526 C 54.1286 4.48667 0.304604 0
M  V30 527 C 52.8986 5.05207 -0.0970777 0
M  V30 528 C 55.0966 5.1239 -0.442845 0
M  V30 529 N 53.0786 6.04286 -1.08223 0
M  V30 530 C 54.4496 6.06609 -1.28161 0
M  V30 531 C 56.5046 4.95352 -0.50308 0
M  V30 532 C 55.2076 6.85622 -2.17519 0
M  V30 533 C 57.2336 5.74978 -1.38401 0
M  V30 534 C 56.5956 6.68816 -2.21054 0
M  V30 535 H 52.6946 0.754335 0.206161 0
M  V30 536 H 55.2786 1.94435 -0.101613 0
M  V30 537 H 53.4496 3.32576 2.00618 0
M  V30 538 H 55.1816 3.55972 1.92525 0
M  V30 539 H 51.9366 4.72782 0.278255 0
M  V30 540 H 52.3606 6.58516 -1.57117 0
M  V30 541 H 57.0026 4.22625 0.121694 0
M  V30 542 H 54.7206 7.57652 -2.81049 0
M  V30 543 H 58.3066 5.63826 -1.43496 0
M  V30 544 H 57.1866 7.29355 -2.88116 0
M  V30 545 N 54.6897 -0.239769 1.55765 0
M  V30 546 C 55.9387 -0.964754 1.77131 0
M  V30 547 C 56.2517 -1.86213 0.59868 0
M  V30 548 O 57.4577 -2.6244 0.695522 0
M  V30 549 C 55.9137 -1.76552 3.1362 0
M  V30 550 C 55.5217 -0.915185 4.38553 0
M  V30 551 C 57.2657 -2.48281 3.44321 0
M  V30 552 C 55.1727 -1.71225 5.66071 0
M  V30 553 H 54.1027 -0.363953 0.660344 0
M  V30 554 H 56.7537 -0.219181 1.82186 0
M  V30 555 H 55.1357 -2.55331 3.02691 0
M  V30 556 H 56.3097 -0.169217 4.60489 0
M  V30 557 H 54.6247 -0.310889 4.15238 0
M  V30 558 H 57.2217 -3.08382 4.36812 0
M  V30 559 H 57.5647 -3.20256 2.65973 0
M  V30 560 H 58.0977 -1.76507 3.56497 0
M  V30 561 H 54.8367 -1.03612 6.4726 0
M  V30 562 H 54.3567 -2.43331 5.48224 0
M  V30 563 H 56.0357 -2.27758 6.05587 0
M  V30 564 N 56.1678 -1.49265 -0.50573 0
M  V30 565 C 57.5838 -1.35923 -0.836486 0
M  V30 566 C 57.7838 -0.388704 -1.97715 0
M  V30 567 O 56.8398 0.181336 -2.51848 0
M  V30 568 C 58.1528 -2.76531 -1.18115 0
M  V30 569 C 59.7008 -2.85197 -1.28964 0
M  V30 570 C 60.1758 -4.26561 -1.66761 0
M  V30 571 N 61.6668 -4.2935 -1.73819 0
M  V30 572 C 62.4018 -5.35693 -2.045 0
M  V30 573 N 61.8978 -6.52287 -2.33438 0
M  V30 574 N 63.6908 -5.23105 -2.05711 0
M  V30 575 H 55.8418 -2.10965 0.246519 0
M  V30 576 H 58.1048 -0.9468 0.0476887 0
M  V30 577 H 57.8108 -3.49226 -0.416398 0
M  V30 578 H 57.6848 -3.11599 -2.1257 0
M  V30 579 H 60.0718 -2.12742 -2.04511 0
M  V30 580 H 60.1528 -2.53718 -0.325704 0
M  V30 581 H 59.7968 -4.99541 -0.917656 0
M  V30 582 H 59.7268 -4.55502 -2.64246 0
M  V30 583 H 62.2178 -3.4526 -1.53635 0
M  V30 584 H 62.5308 -7.29158 -2.56024 0
M  V30 585 H 60.8758 -6.55521 -2.30905 0
M  V30 586 H 64.0668 -4.31026 -1.82577 0
M  V30 587 H 64.2398 -6.06078 -2.29289 0
M  V30 588 N 57.6459 0.756429 -1.3826 0
M  V30 589 C 58.5559 1.9009 -1.37488 0
M  V30 590 C 59.5719 1.71855 -0.272366 0
M  V30 591 O 60.7479 1.94827 -0.510318 0
M  V30 592 C 57.8129 3.25421 -1.19592 0
M  V30 593 C 56.8739 3.56202 -2.39622 0
M  V30 594 C 56.1069 4.85075 -2.2257 0
M  V30 595 O 56.3299 5.57246 -1.21793 0
M  V30 596 O 55.2639 5.15269 -3.11098 0
M  V30 597 H 59.0899 1.93695 -2.33914 0
M  V30 598 H 56.6749 0.901313 -1.1915 0
M  V30 599 H 58.5569 4.06337 -1.11661 0
M  V30 600 H 57.2319 3.22634 -0.262486 0
M  V30 601 H 56.1389 2.75458 -2.53128 0
M  V30 602 H 57.4719 3.63747 -3.31586 0
M  V30 603 N 59.124 1.23083 0.984299 0
M  V30 604 C 60.54 0.992637 1.24975 0
M  V30 605 C 60.74 -0.308618 1.99123 0
M  V30 606 O 59.796 -1.02905 2.30579 0
M  V30 607 C 61.109 2.19698 2.05312 0
M  V30 608 C 62.657 2.24147 2.18465 0
M  V30 609 C 63.132 3.44157 3.02192 0
M  V30 610 N 64.623 3.44372 3.09777 0
M  V30 611 C 65.358 4.33886 3.74874 0
M  V30 612 N 64.854 5.3363 4.41827 0
M  V30 613 N 66.647 4.21639 3.71721 0
M  V30 614 H 58.798 2.06731 0.487453 0
M  V30 615 H 61.061 0.906339 0.277944 0
M  V30 616 H 60.767 3.1411 1.58201 0
M  V30 617 H 60.641 2.20465 3.06064 0
M  V30 618 H 63.028 1.30277 2.64786 0
M  V30 619 H 63.109 2.27415 1.17115 0
M  V30 620 H 62.753 4.38332 2.56568 0
M  V30 621 H 62.683 3.3813 4.03702 0
M  V30 622 H 65.174 2.72201 2.62135 0
M  V30 623 H 65.487 5.98196 4.89266 0
M  V30 624 H 63.832 5.37534 4.40548 0
M  V30 625 H 67.023 3.42962 3.18582 0
M  V30 626 H 67.196 4.91604 4.22173 0
M  V30 627 N 60.6021 -1.18246 1.0419 0
M  V30 628 C 61.5121 -2.25574 0.644476 0
M  V30 629 C 62.5281 -1.70845 -0.329826 0
M  V30 630 O 63.7041 -2.00554 -0.184443 0
M  V30 631 C 60.7691 -3.46697 0.014877 0
M  V30 632 C 59.8301 -4.16554 1.03834 0
M  V30 633 C 59.0631 -5.31894 0.438692 0
M  V30 634 O 59.2861 -5.65385 -0.754752 0
M  V30 635 O 58.2201 -5.90459 1.168 0
M  V30 636 H 62.0461 -2.61836 1.53869 0
M  V30 637 H 59.6311 -1.25352 0.812854 0
M  V30 638 H 61.5131 -4.20062 -0.335538 0
M  V30 639 H 60.1881 -3.12255 -0.853138 0
M  V30 640 H 59.0951 -3.45251 1.44057 0
M  V30 641 H 60.4281 -4.54998 1.87716 0
M  V30 642 N 62.0802 -0.821533 -1.34494 0
M  V30 643 C 63.3262 -0.409552 -1.98622 0
M  V30 644 C 63.6592 1.0244 -1.64984 0
M  V30 645 O 62.9342 1.71325 -0.920758 0
M  V30 646 C 63.2172 -0.610458 -3.54888 0
M  V30 647 C 63.0702 -2.09043 -3.98273 0
M  V30 648 C 64.3892 -0.0455379 -4.40076 0
M  V30 649 H 61.5082 -0.15028 -0.721516 0
M  V30 650 H 64.1502 -1.03384 -1.59411 0
M  V30 651 H 62.3002 -0.079044 -3.8842 0
M  V30 652 H 63.9722 -2.68537 -3.75081 0
M  V30 653 H 62.2152 -2.58139 -3.48635 0
M  V30 654 H 62.8862 -2.18182 -5.07051 0
M  V30 655 H 65.3622 -0.499557 -4.1309 0
M  V30 656 H 64.2382 -0.215922 -5.48475 0
M  V30 657 H 64.4992 1.04939 -4.29465 0
M  V30 658 N 63.5583 1.46682 -0.576371 0
M  V30 659 C 64.8063 2.02013 -0.0594163 0
M  V30 660 C 65.1273 1.45101 1.30271 0
M  V30 661 O 64.3973 0.633317 1.8538 0
M  V30 662 H 62.9773 0.746759 -0.0189745 0
M  V30 663 H 65.6393 1.79862 -0.750717 0
M  V30 664 H 64.7353 3.12097 0.014345 0
M  V30 665 N 65.0364 0.313813 1.54444 0
M  V30 666 C 65.9464 -0.565714 2.27677 0
M  V30 667 C 66.9624 -1.13754 1.31666 0
M  V30 668 O 68.1384 -1.15959 1.64668 0
M  V30 669 C 65.2034 -1.71528 3.01296 0
M  V30 670 C 64.2644 -1.17624 4.12872 0
M  V30 671 C 63.4974 -2.27102 4.8297 0
M  V30 672 O 63.7204 -3.47256 4.52514 0
M  V30 673 O 62.6544 -1.9307 5.70094 0
M  V30 674 H 66.4804 0.0287296 3.03686 0
M  V30 675 H 64.0654 0.0798312 1.49187 0
M  V30 676 H 65.9474 -2.38476 3.4743 0
M  V30 677 H 64.6224 -2.29608 2.2817 0
M  V30 678 H 63.5294 -0.472124 3.71109 0
M  V30 679 H 64.8624 -0.640695 4.88012 0
M  V30 680 N 66.5145 -1.57545 0.0417849 0
M  V30 681 C 67.7445 -1.96339 -0.642995 0
M  V30 682 C 68.1525 -0.917536 -1.65463 0
M  V30 683 O 67.4955 0.107747 -1.83384 0
M  V30 684 C 67.5575 -3.31333 -1.39494 0
M  V30 685 C 67.2215 -4.53796 -0.540204 0
M  V30 686 C 68.2185 -5.19553 0.189806 0
M  V30 687 C 65.9035 -5.0006 -0.473886 0
M  V30 688 C 67.8975 -6.29904 0.974674 0
M  V30 689 C 65.5845 -6.10289 0.314677 0
M  V30 690 C 66.5825 -6.75072 1.03765 0
M  V30 691 O 66.2705 -7.83183 1.81327 0
M  V30 692 H 66.0025 -0.651241 -0.181277 0
M  V30 693 H 68.5565 -2.05148 0.101665 0
M  V30 694 H 66.7865 -3.19052 -2.18502 0
M  V30 695 H 68.4755 -3.54942 -1.96904 0
M  V30 696 H 69.2415 -4.84774 0.147981 0
M  V30 697 H 65.1205 -4.49433 -1.0262 0
M  V30 698 H 68.6645 -6.80401 1.5395 0
M  V30 699 H 64.5615 -6.44506 0.358174 0
M  V30 700 H 65.3295 -7.99913 1.73438 0
M  V30 701 N 67.9926 0.231505 -1.5589 0
M  V30 702 C 69.4036 0.799327 -1.68724 0
M  V30 703 C 69.7546 1.85398 -0.642022 0
M  V30 704 O 68.8796 2.1539 0.208784 0
M  V30 705 C 69.4746 1.45664 -3.05888 0
M  V30 706 C 68.0336 1.97197 -3.20609 0
M  V30 707 C 67.1806 0.828552 -2.64632 0
M  V30 708 H 70.1316 0.00702616 -1.58698 0
M  V30 709 H 70.1526 2.32517 -3.01191 0
M  V30 710 H 69.6646 0.688808 -3.81939 0
M  V30 711 H 67.7656 2.76813 -2.4941 0
M  V30 712 H 67.8786 2.15878 -4.27707 0
M  V30 713 H 66.2426 1.23321 -2.22854 0
M  V30 714 H 67.0256 0.0735544 -3.43221 0
M  V30 715 N 69.4707 1.49531 0.497807 0
M  V30 716 C 70.4187 1.66926 1.61983 0
M  V30 717 C 71.4127 0.535167 1.60724 0
M  V30 718 O 72.6187 0.714896 1.65195 0
M  V30 719 H 68.9937 0.526415 0.537021 0
M  V30 720 H 70.9647 2.61098 1.44465 0
M  V30 721 C 69.7137 1.75602 3.00099 0
M  V30 722 H 69.0367 2.62244 3.01775 0
M  V30 723 H 70.4767 1.91807 3.78135 0
M  V30 724 C 68.9357 0.501543 3.33146 0
M  V30 725 O 69.4657 -0.371342 3.9998 0
M  V30 726 N 67.6717 0.363531 2.88317 0
M  V30 727 H 67.2187 1.07485 2.34104 0
M  V30 728 H 67.1767 -0.474728 3.10795 0
M  V30 729 N 70.9488 -0.749086 1.3866 0
M  V30 730 C 71.8788 -1.8764 1.38973 0
M  V30 731 C 72.8598 -1.68178 0.255004 0
M  V30 732 O 74.0448 -1.88704 0.458754 0
M  V30 733 C 71.1748 -3.25222 1.21851 0
M  V30 734 C 70.1288 -3.59295 2.32575 0
M  V30 735 C 69.4548 -4.95663 2.00555 0
M  V30 736 C 70.7548 -3.63709 3.7485 0
M  V30 737 H 72.4488 -1.87635 2.3331 0
M  V30 738 H 69.9948 -0.901329 1.12303 0
M  V30 739 H 71.9478 -4.03746 1.20695 0
M  V30 740 H 70.6718 -3.25719 0.239775 0
M  V30 741 H 69.3308 -2.83093 2.32925 0
M  V30 742 H 68.9788 -4.92724 1.01154 0
M  V30 743 H 68.6788 -5.19429 2.74714 0
M  V30 744 H 70.2028 -5.7656 2.01024 0
M  V30 745 H 71.6168 -4.32338 3.76506 0
M  V30 746 H 70.0138 -3.98986 4.48252 0
M  V30 747 H 71.0838 -2.63834 4.06841 0
M  V30 748 N 72.4269 -1.23603 -0.977757 0
M  V30 749 C 73.6729 -1.07129 -1.72195 0
M  V30 750 C 74.0059 0.390501 -1.90233 0
M  V30 751 O 73.2809 1.28902 -1.45653 0
M  V30 752 C 73.5639 -1.80031 -3.11867 0
M  V30 753 C 73.4169 -3.33899 -3.01383 0
M  V30 754 C 74.7359 -1.56492 -4.11337 0
M  V30 755 H 71.8549 -0.390571 -0.624999 0
M  V30 756 H 74.4969 -1.52142 -1.13811 0
M  V30 757 H 72.6469 -1.41768 -3.6171 0
M  V30 758 H 74.3189 -3.81699 -2.59043 0
M  V30 759 H 72.5619 -3.62796 -2.37827 0
M  V30 760 H 73.2329 -3.801 -4.00285 0
M  V30 761 H 75.7089 -1.89757 -3.70313 0
M  V30 762 H 74.5849 -2.09973 -5.07151 0
M  V30 763 H 74.8459 -0.500874 -4.39254 0
M  V30 764 N 73.905 1.17692 -1.04816 0
M  V30 765 C 75.151 1.88137 -0.75711 0
M  V30 766 C 75.484 1.80604 0.713841 0
M  V30 767 O 74.759 1.21146 1.52164 0
M  V30 768 C 75.042 3.38318 -1.2334 0
M  V30 769 C 74.895 3.54622 -2.76701 0
M  V30 770 C 76.214 4.32214 -0.829415 0
M  V30 771 H 73.333 0.683163 -0.27651 0
M  V30 772 H 75.975 1.38424 -1.30149 0
M  V30 773 H 74.125 3.80787 -0.770286 0
M  V30 774 H 75.797 3.21194 -3.31107 0
M  V30 775 H 74.04 2.97026 -3.16161 0
M  V30 776 H 74.711 4.60028 -3.05088 0
M  V30 777 H 77.187 3.97565 -1.22805 0
M  V30 778 H 76.063 5.35838 -1.19033 0
M  V30 779 H 76.324 4.41294 0.266891 0
M  V30 780 N 75.3831 0.828654 1.34056 0
M  V30 781 C 76.2931 0.256725 2.33191 0
M  V30 782 C 77.3091 -0.611898 1.62886 0
M  V30 783 O 78.4851 -0.51844 1.94613 0
M  V30 784 C 75.5501 -0.567238 3.42028 0
M  V30 785 C 74.6111 0.324458 4.28072 0
M  V30 786 C 73.8441 -0.460274 5.31712 0
M  V30 787 O 74.0671 -1.693 5.44696 0
M  V30 788 O 73.0011 0.160391 6.01686 0
M  V30 789 H 76.8271 1.07739 2.83947 0
M  V30 790 H 74.4121 0.59093 1.37217 0
M  V30 791 H 76.2941 -1.03582 4.08471 0
M  V30 792 H 74.9691 -1.36513 2.93506 0
M  V30 793 H 73.8761 0.840659 3.64532 0
M  V30 794 H 75.2091 1.08685 4.8005 0
M  V30 795 N 76.8612 -1.46375 0.584142 0
M  V30 796 C 78.1082 -2.02378 0.0702675 0
M  V30 797 C 78.4362 -1.45545 -1.29023 0
M  V30 798 O 77.6912 -0.610967 -1.85918 0
M  V30 799 C 77.9902 -3.57373 -0.0439342 0
M  V30 800 C 77.6562 -4.33252 1.24915 0
M  V30 801 C 76.3182 -4.53701 1.60341 0
M  V30 802 C 78.6702 -4.7681 2.1048 0
M  V30 803 C 75.9982 -5.1496 2.81128 0
M  V30 804 C 78.3502 -5.39404 3.30494 0
M  V30 805 C 77.0142 -5.5808 3.66201 0
M  V30 806 H 76.2842 -0.740554 0.0257127 0
M  V30 807 H 78.9312 -1.75727 0.761065 0
M  V30 808 H 77.2362 -3.83169 -0.817869 0
M  V30 809 H 78.9332 -3.98384 -0.457318 0
M  V30 810 H 75.5232 -4.17633 0.963364 0
M  V30 811 H 79.7072 -4.60766 1.84414 0
M  V30 812 H 74.9632 -5.27611 3.08928 0
M  V30 813 H 79.1372 -5.72114 3.97063 0
M  V30 814 H 76.7642 -6.05318 4.59885 0
M  V30 815 N 78.3393 -0.321999 -1.54275 0
M  V30 816 C 79.7553 0.0306999 -1.5957 0
M  V30 817 C 79.9553 1.50614 -1.33857 0
M  V30 818 O 79.0113 2.2619 -1.12223 0
M  V30 819 C 80.3243 -0.386122 -2.98211 0
M  V30 820 C 81.8723 -0.336647 -3.11184 0
M  V30 821 C 82.3473 -0.728607 -4.52167 0
M  V30 822 N 83.8383 -0.681952 -4.58152 0
M  V30 823 C 84.5733 -0.957449 -5.6535 0
M  V30 824 N 84.0693 -1.3 -6.80494 0
M  V30 825 N 85.8623 -0.883113 -5.55119 0
M  V30 826 H 78.0133 -1.28332 -1.69247 0
M  V30 827 H 80.2763 -0.521716 -0.791528 0
M  V30 828 H 79.9823 -1.41404 -3.22022 0
M  V30 829 H 79.8563 0.249662 -3.76373 0
M  V30 830 H 82.2433 0.682058 -2.8711 0
M  V30 831 H 82.3243 -1.00734 -2.3513 0
M  V30 832 H 81.9683 -1.74522 -4.76974 0
M  V30 833 H 81.8983 -0.0356152 -5.26588 0
M  V30 834 H 84.3893 -0.428985 -3.75457 0
M  V30 835 H 84.7023 -1.49563 -7.58189 0
M  V30 836 H 83.0473 -1.33824 -6.81994 0
M  V30 837 H 86.2383 -0.615001 -4.64042 0
M  V30 838 H 86.4113 -1.10118 -6.38575 0
M  V30 839 N 79.8174 1.5752 -0.0501392 0
M  V30 840 C 81.2284 1.80271 0.485705 0
M  V30 841 C 81.5794 0.96228 1.70981 0
M  V30 842 O 80.7044 0.178578 2.15662 0
M  V30 843 C 81.2994 3.26957 0.887938 0
M  V30 844 C 79.8584 3.5063 1.36877 0
M  V30 845 C 79.0054 2.75165 0.343468 0
M  V30 846 H 81.9564 1.56281 -0.276028 0
M  V30 847 H 81.9774 3.37821 1.75093 0
M  V30 848 H 81.4894 3.881 -0.0031809 0
M  V30 849 H 79.5904 2.94766 2.27911 0
M  V30 850 H 79.7034 4.59343 1.36164 0
M  V30 851 H 78.0674 2.4127 0.816128 0
M  V30 852 H 78.8504 3.39034 -0.539548 0
M  V30 853 N 81.2955 -0.223234 1.56011 0
M  V30 854 C 82.2055 -1.29766 1.95443 0
M  V30 855 C 83.2215 -1.51373 0.858028 0
M  V30 856 O 84.3975 -1.64536 1.16146 0
M  V30 857 C 81.4625 -2.62772 2.26167 0
M  V30 858 C 80.5235 -2.49482 3.49367 0
M  V30 859 C 79.7565 -3.76145 3.78616 0
M  V30 860 O 79.9795 -4.79087 3.09568 0
M  V30 861 O 78.9135 -3.73358 4.72109 0
M  V30 862 H 82.7395 -0.99309 2.87004 0
M  V30 863 H 80.3245 -0.425958 1.43199 0
M  V30 864 H 82.2065 -3.41327 2.47131 0
M  V30 865 H 80.8815 -2.92913 1.37781 0
M  V30 866 H 79.7885 -1.69133 3.33684 0
M  V30 867 H 81.1215 -2.2428 4.38131 0
M  V30 868 N 82.7736 -1.49793 -0.48987 0
M  V30 869 C 83.7056 -1.63413 -1.60713 0
M  V30 870 C 84.7186 -0.516329 -1.54395 0
M  V30 871 O 85.9076 -0.788812 -1.60125 0
M  V30 872 C 83.0076 -1.58516 -2.99543 0
M  V30 873 C 82.1806 -2.86016 -3.30928 0
M  V30 874 C 81.2396 -2.74018 -4.49222 0
M  V30 875 O 80.2656 -3.47964 -4.50455 0
M  V30 876 N 81.4676 -1.86309 -5.4979 0
M  V30 877 H 84.2326 -2.59777 -1.49452 0
M  V30 878 H 81.7936 -1.47022 -0.677955 0
M  V30 879 H 83.7856 -1.48128 -3.76617 0
M  V30 880 H 82.3556 -0.69965 -3.0467 0
M  V30 881 H 81.5756 -3.10672 -2.42645 0
M  V30 882 H 82.8636 -3.70521 -3.487 0
M  V30 883 H 82.2616 -1.2551 -5.51601 0
M  V30 884 H 80.8186 -1.81837 -6.25922 0
M  V30 885 N 84.2517 0.741722 -1.39055 0
M  V30 886 C 85.4917 1.51385 -1.37338 0
M  V30 887 C 85.8557 1.91972 0.0330513 0
M  V30 888 O 87.0567 2.68229 0.175174 0
M  V30 889 C 85.3277 2.72481 -2.31276 0
M  V30 890 S 86.8867 3.62211 -2.47687 0
M  V30 891 H 83.7047 0.517906 -0.487129 0
M  V30 892 H 86.3067 0.86969 -1.7509 0
M  V30 893 H 85.0107 2.40793 -3.32336 0
M  V30 894 H 84.5417 3.41832 -1.94716 0
M  V30 895 H 86.5567 4.65812 -1.70978 0
M  V30 896 N 85.7298 1.2412 0.971189 0
M  V30 897 C 86.6598 1.05508 2.08304 0
M  V30 898 C 87.6408 -0.0308864 1.70072 0
M  V30 899 O 88.8258 0.135521 1.93727 0
M  V30 900 C 85.9558 0.655365 3.4106 0
M  V30 901 C 84.9098 1.68971 3.93234 0
M  V30 902 C 84.2358 1.14516 5.22293 0
M  V30 903 C 85.5358 3.08487 4.21465 0
M  V30 904 H 87.2298 1.98507 2.24132 0
M  V30 905 H 84.7758 0.955821 1.07704 0
M  V30 906 H 86.7288 0.51217 4.18276 0
M  V30 907 H 85.4528 -0.31032 3.25122 0
M  V30 908 H 84.1118 1.82106 3.18171 0
M  V30 909 H 83.7598 0.170189 5.02712 0
M  V30 910 H 83.4598 1.83635 5.58168 0
M  V30 911 H 84.9838 1.01401 6.02121 0
M  V30 912 H 86.3978 2.98601 4.89398 0
M  V30 913 H 84.7948 3.74926 4.68562 0
M  V30 914 H 85.8648 3.56787 3.28376 0
M  V30 915 N 87.2079 -1.17134 1.05439 0
M  V30 916 C 88.1579 -2.1919 0.627675 0
M  V30 917 C 89.1419 -1.57328 -0.337147 0
M  V30 918 O 90.3339 -1.76329 -0.153976 0
M  V30 919 C 87.4629 -3.43299 0.00651435 0
M  V30 920 C 86.5489 -4.12255 0.995312 0
M  V30 921 N 86.9399 -4.56997 2.16765 0
M  V30 922 C 85.2379 -4.38316 0.824336 0
M  V30 923 C 85.9389 -5.10239 2.7934 0
M  V30 924 N 84.9149 -5.02595 2.07122 0
M  V30 925 H 88.7169 -2.5149 1.52086 0
M  V30 926 H 86.2309 -1.33491 0.924868 0
M  V30 927 H 88.2279 -4.15693 -0.316965 0
M  V30 928 H 86.8879 -3.1249 -0.882033 0
M  V30 929 H 87.8989 -4.51006 2.54587 0
M  V30 930 H 84.5759 -4.17498 -0.0129526 0
M  V30 931 H 85.9659 -5.54961 3.78772 0
M  V30 932 N 88.686 -0.835752 -1.33615 0
M  V30 933 C 89.926 -0.43599 -1.99696 0
M  V30 934 C 90.29 0.98557 -1.64774 0
M  V30 935 O 91.491 1.48889 -2.23798 0
M  V30 936 C 89.762 -0.646721 -3.515 0
M  V30 937 S 91.321 -0.341715 -4.37467 0
M  V30 938 H 88.139 -0.164136 -0.691795 0
M  V30 939 H 90.741 -1.08436 -1.62671 0
M  V30 940 H 89.445 -1.68077 -3.74404 0
M  V30 941 H 88.976 0.0159173 -3.93397 0
M  V30 942 H 90.991 0.839708 -4.89043 0
M  V30 943 N 90.1641 1.46063 -0.591896 0
M  V30 944 C 91.0741 2.34192 0.13831 0
M  V30 945 C 92.0901 1.50305 0.876608 0
M  V30 946 O 93.2661 1.8315 0.837728 0
M  V30 947 C 90.3311 3.27656 1.13326 0
M  V30 948 C 89.3921 4.27445 0.39863 0
M  V30 949 C 88.6251 5.16443 1.34618 0
M  V30 950 O 88.8481 5.08553 2.58321 0
M  V30 951 O 87.7821 5.95843 0.851768 0
M  V30 952 H 91.6081 2.98002 -0.58552 0
M  V30 953 H 89.1931 1.45188 -0.352239 0
M  V30 954 H 91.0751 3.85291 1.70671 0
M  V30 955 H 89.7501 2.6643 1.83839 0
M  V30 956 H 88.6571 3.73471 -0.216895 0
M  V30 957 H 89.9901 4.91482 -0.265709 0
M  V30 958 N 91.6422 0.330177 1.54103 0
M  V30 959 C 92.5902 -0.548226 2.26047 0
M  V30 960 C 93.5842 -1.11309 1.27698 0
M  V30 961 O 94.7902 -1.06036 1.45452 0
M  V30 962 H 91.1652 -0.195456 0.726155 0
M  V30 963 H 93.1362 0.0807567 2.98291 0
M  V30 964 C 91.8852 -1.69415 3.03634 0
M  V30 965 H 91.2082 -1.26876 3.79134 0
M  V30 966 H 92.6482 -2.28423 3.5721 0
M  V30 967 C 91.1072 -2.61569 2.12328 0
M  V30 968 O 91.6372 -3.63462 1.7105 0
M  V30 969 N 89.8432 -2.29952 1.77681 0
M  V30 970 H 89.3902 -1.47134 2.11446 0
M  V30 971 H 89.3482 -2.91871 1.16869 0
M  V30 972 N 93.1203 -1.57491 0.0584922 0
M  V30 973 C 94.5313 -1.80526 -0.476138 0
M  V30 974 C 94.8823 -0.971334 -1.70469 0
M  V30 975 O 94.0073 -0.190012 -2.15564 0
M  V30 976 C 94.6023 -3.27424 -0.870587 0
M  V30 977 C 93.1613 -3.51351 -1.35015 0
M  V30 978 C 92.3083 -2.75343 -0.32887 0
M  V30 979 H 95.2593 -1.56133 0.284312 0
M  V30 980 H 95.2803 -3.38745 -1.73299 0
M  V30 981 H 94.7923 -3.88093 0.0237627 0
M  V30 982 H 92.8933 -2.95971 -2.26345 0
M  V30 983 H 93.0063 -4.60059 -1.33726 0
M  V30 984 H 91.3703 -2.417 -0.803321 0
M  V30 985 H 92.1533 -3.38743 0.557521 0
M  V30 986 N 94.5984 0.214957 -1.56127 0
M  V30 987 C 96.0094 0.781386 -1.69562 0
M  V30 988 C 96.3604 1.84707 -0.66165 0
M  V30 989 O 95.4854 2.156 0.185927 0
M  V30 990 C 96.0804 1.42411 -3.07416 0
M  V30 991 C 94.6394 1.93786 -3.22683 0
M  V30 992 C 93.7864 0.800438 -2.65496 0
M  V30 993 H 96.7374 -0.00980633 -1.58697 0
M  V30 994 H 96.7584 2.29309 -3.0364 0
M  V30 995 H 96.2704 0.64826 -3.82648 0
M  V30 996 H 94.3714 2.74152 -2.52332 0
M  V30 997 H 94.4844 2.1133 -4.29973 0
M  V30 998 H 92.8484 1.2095 -2.2415 0
M  V30 999 H 93.6314 0.0371471 -3.4328 0
M  V30 1000 N 96.0765 1.50051 0.48192 0
M  V30 1001 C 97.3165 1.62128 1.24474 0
M  V30 1002 C 97.6805 0.309742 1.89485 0
M  V30 1003 O 98.8815 0.305854 2.67054 0
M  V30 1004 C 97.1525 2.76151 2.26882 0
M  V30 1005 S 98.7115 3.08297 3.12247 0
M  V30 1006 H 95.5295 0.571661 0.422759 0
M  V30 1007 H 98.1315 1.87791 0.54359 0
M  V30 1008 H 96.8355 3.69942 1.77683 0
M  V30 1009 H 96.3665 2.52541 3.0164 0
M  V30 1010 H 98.3815 2.51287 4.27866 0
M  V30 1011 N 97.5546 -0.734337 1.39446 0
M  V30 1012 C 98.8006 -1.49613 1.36908 0
M  V30 1013 C 99.1336 -1.94169 -0.0347829 0
M  V30 1014 O 98.4086 -1.66833 -0.999847 0
M  V30 1015 C 98.6916 -2.73534 2.34203 0
M  V30 1016 C 98.5446 -2.34993 3.83534 0
M  V30 1017 C 99.8636 -3.75635 2.29317 0
M  V30 1018 H 96.9826 -0.542714 0.498629 0
M  V30 1019 H 99.6246 -0.839597 1.70443 0
M  V30 1020 H 97.7746 -3.29553 2.05736 0
M  V30 1021 H 99.4466 -1.84601 4.22753 0
M  V30 1022 H 97.6896 -1.67213 4.00278 0
M  V30 1023 H 98.3606 -3.23738 4.47099 0
M  V30 1024 H 100.837 -3.29203 2.54489 0
M  V30 1025 H 99.7126 -4.60008 2.99472 0
M  V30 1026 H 99.9736 -4.22603 1.29842 0
M  V30 1027 N 99.0327 -1.24633 -0.964593 0
M  V30 1028 C 100.444 -1.08045 -1.5226 0
M  V30 1029 C 100.795 0.347116 -1.93105 0
M  V30 1030 O 99.9197 1.23588 -1.77637 0
M  V30 1031 C 100.515 -1.95514 -2.76695 0
M  V30 1032 C 99.0737 -1.8314 -3.28841 0
M  V30 1033 C 98.2207 -1.90262 -2.01732 0
M  V30 1034 H 101.172 -1.38064 -0.782553 0
M  V30 1035 H 101.193 -1.48925 -3.50145 0
M  V30 1036 H 100.705 -2.99407 -2.46936 0
M  V30 1037 H 98.8057 -0.82092 -3.63444 0
M  V30 1038 H 98.9187 -2.67406 -3.97531 0
M  V30 1039 H 97.2827 -1.34027 -2.16584 0
M  V30 1040 H 98.0657 -2.9574 -1.74334 0
M  V30 1041 N 100.511 1.16574 -1.06058 0
M  V30 1042 C 101.757 1.87324 -0.777022 0
M  V30 1043 C 102.09 1.81351 0.694645 0
M  V30 1044 O 101.365 1.22753 1.50871 0
M  V30 1045 C 101.648 3.36991 -1.26922 0
M  V30 1046 C 101.501 3.51667 -2.80447 0
M  V30 1047 C 102.82 4.3131 -0.87521 0
M  V30 1048 H 99.9388 0.680191 -0.28374 0
M  V30 1049 H 102.581 1.37036 -1.3161 0
M  V30 1050 H 100.731 3.79949 -0.81063 0
M  V30 1051 H 102.403 3.17664 -3.34495 0
M  V30 1052 H 100.646 2.93656 -3.19294 0
M  V30 1053 H 101.317 4.56766 -3.0995 0
M  V30 1054 H 103.793 3.9624 -1.27014 0
M  V30 1055 H 102.669 5.34545 -1.2471 0
M  V30 1056 H 102.93 4.41552 0.220071 0
M  V30 1057 N 101.989 0.842826 1.3317 0
M  V30 1058 C 103.229 0.446574 1.99462 0
M  V30 1059 C 103.593 -0.976818 1.65295 0
M  V30 1060 O 104.794 -1.477 2.24584 0
M  V30 1061 C 103.065 0.665353 3.51152 0
M  V30 1062 S 104.624 0.364911 4.3728 0
M  V30 1063 H 101.442 0.167803 0.690915 0
M  V30 1064 H 104.044 1.09297 1.62094 0
M  V30 1065 H 102.748 1.7006 3.73507 0
M  V30 1066 H 102.279 0.00494568 3.934 0
M  V30 1067 H 104.294 -0.813761 4.89482 0
M  V30 1068 N 103.467 -1.45747 0.599634 0
M  V30 1069 C 104.878 -1.85853 0.177681 0
M  V30 1070 C 105.229 -1.50102 -1.26348 0
M  V30 1071 O 104.354 -0.923905 -1.95686 0
M  V30 1072 C 104.949 -3.37326 0.315688 0
M  V30 1073 C 103.508 -3.76365 -0.0515144 0
M  V30 1074 C 102.655 -2.69722 0.643822 0
M  V30 1075 H 105.606 -1.36661 0.806814 0
M  V30 1076 H 105.627 -3.77778 -0.454321 0
M  V30 1077 H 105.139 -3.63315 1.36468 0
M  V30 1078 H 103.24 -3.55993 -1.09999 0
M  V30 1079 H 103.353 -4.77916 0.336594 0
M  V30 1080 H 101.717 -2.54567 0.0822881 0
M  V30 1081 H 102.5 -2.98549 1.6948 0
M  V30 1082 N 104.945 -0.338344 -1.53925 0
M  V30 1083 C 106.173 0.261298 -2.05243 0
M  V30 1084 C 106.588 1.44625 -1.21363 0
M  V30 1085 O 105.945 1.80811 -0.247736 0
M  V30 1086 C 105.996 0.681412 -3.5502 0
M  V30 1087 O 105.717 -0.456414 -4.35716 0
M  V30 1088 C 107.218 1.34232 -4.22489 0
M  V30 1089 H 104.438 0.0513685 -0.669031 0
M  V30 1090 H 106.982 -0.488822 -1.98572 0
M  V30 1091 H 105.137 1.38148 -3.61931 0
M  V30 1092 H 105.551 -0.122564 -5.24357 0
M  V30 1093 H 107.025 1.58708 -5.28693 0
M  V30 1094 H 107.502 2.29426 -3.74514 0
M  V30 1095 H 108.108 0.684424 -4.19757 0
M  V30 1096 N 106.423 1.57458 -0.0668435 0
M  V30 1097 C 107.671 1.92919 0.602214 0
M  V30 1098 C 107.992 0.947215 1.70449 0
M  V30 1099 O 107.262 -0.00544117 1.95899 0
M  V30 1100 H 105.842 0.71217 0.22544 0
M  V30 1101 H 108.504 1.94508 -0.123535 0
M  V30 1102 H 107.6 2.94589 1.03073 0
M  V30 1103 N 107.901 -0.206675 1.56239 0
M  V30 1104 C 108.864 -1.23976 1.92776 0
M  V30 1105 C 109.864 -1.39041 0.807729 0
M  V30 1106 O 111.054 -1.37051 1.0753 0
M  V30 1107 C 108.186 -2.61112 2.19165 0
M  V30 1108 H 109.379 -0.927764 2.85189 0
M  V30 1109 H 106.932 -0.447718 1.4975 0
M  V30 1110 H 107.667 -2.97386 1.29352 0
M  V30 1111 H 107.452 -2.51552 3.00772 0
M  V30 1112 H 108.942 -3.35633 2.48476 0
M  V30 1113 N 109.379 -1.50304 -0.473955 0
M  V30 1114 C 110.604 -1.65175 -1.25427 0
M  V30 1115 C 111.029 -0.333673 -1.85117 0
M  V30 1116 O 110.387 0.702114 -1.67153 0
M  V30 1117 C 110.435 -2.74295 -2.34082 0
M  V30 1118 O 109.539 -2.35349 -3.38651 0
M  V30 1119 H 108.88 -0.551944 -0.369126 0
M  V30 1120 H 111.41 -1.96662 -0.564364 0
M  V30 1121 H 111.42 -2.97285 -2.79438 0
M  V30 1122 H 110.095 -3.69959 -1.90008 0
M  V30 1123 H 108.672 -2.22794 -2.99027 0
M  V30 1124 N 110.857 0.726932 -1.39834 0
M  V30 1125 C 112.087 1.51393 -1.40583 0
M  V30 1126 C 112.495 1.892 -0.000740625 0
M  V30 1127 O 111.838 1.55189 0.982951 0
M  V30 1128 C 111.9 2.82588 -2.22226 0
M  V30 1129 C 111.564 2.67169 -3.70769 0
M  V30 1130 C 112.561 2.3518 -4.63666 0
M  V30 1131 C 110.246 2.83788 -4.14451 0
M  V30 1132 C 112.24 2.20002 -5.98229 0
M  V30 1133 C 109.927 2.68229 -5.49087 0
M  V30 1134 C 110.925 2.36382 -6.4079 0
M  V30 1135 O 110.613 2.2093 -7.72946 0
M  V30 1136 H 110.345 0.474168 -0.48181 0
M  V30 1137 H 112.899 0.905247 -1.84376 0
M  V30 1138 H 111.129 3.45746 -1.73195 0
M  V30 1139 H 112.818 3.44247 -2.15055 0
M  V30 1140 H 113.584 2.21984 -4.31217 0
M  V30 1141 H 109.463 3.07566 -3.43401 0
M  V30 1142 H 113.007 1.95067 -6.69772 0
M  V30 1143 H 108.904 2.81006 -5.81125 0
M  V30 1144 H 109.672 2.35937 -7.83757 0
M  V30 1145 N 112.336 1.25143 0.95797 0
M  V30 1146 C 113.268 1.01023 2.05735 0
M  V30 1147 C 114.281 -0.0236902 1.62783 0
M  V30 1148 O 115.47 0.21448 1.77207 0
M  V30 1149 C 112.57 0.504595 3.35122 0
M  V30 1150 C 111.743 1.6039 4.06932 0
M  V30 1151 C 110.802 1.09922 5.14591 0
M  V30 1152 O 109.828 1.79293 5.40225 0
M  V30 1153 N 111.03 -0.0612545 5.80468 0
M  V30 1154 H 113.795 1.95683 2.26998 0
M  V30 1155 H 111.356 1.16303 1.12629 0
M  V30 1156 H 113.348 0.151516 4.04416 0
M  V30 1157 H 111.918 -0.347989 3.10657 0
M  V30 1158 H 111.138 2.12872 3.31782 0
M  V30 1159 H 112.426 2.34252 4.51667 0
M  V30 1160 H 111.824 -0.640985 5.62057 0
M  V30 1161 H 110.381 -0.355395 6.5083 0
M  V30 1162 N 113.814 -1.1601 1.06675 0
M  V30 1163 C 115.042 -1.90527 0.806667 0
M  V30 1164 C 115.457 -1.77643 -0.639396 0
M  V30 1165 O 114.814 -1.12369 -1.43803 0
M  V30 1166 C 114.865 -3.41106 1.19705 0
M  V30 1167 O 114.586 -3.53608 2.58636 0
M  V30 1168 C 116.087 -4.32663 0.965266 0
M  V30 1169 H 113.307 -0.604053 0.292166 0
M  V30 1170 H 115.851 -1.47026 1.4214 0
M  V30 1171 H 114.006 -3.82296 0.626774 0
M  V30 1172 H 114.42 -4.47011 2.74375 0
M  V30 1173 H 115.894 -5.36763 1.288 0
M  V30 1174 H 116.371 -4.39089 -0.0987936 0
M  V30 1175 H 116.977 -3.97206 1.52011 0
M  V30 1176 N 115.292 -0.849877 -1.32721 0
M  V30 1177 C 116.239 -0.289033 -2.28983 0
M  V30 1178 C 117.209 0.601324 -1.54833 0
M  V30 1179 O 118.394 0.537253 -1.8308 0
M  V30 1180 C 115.534 0.520623 -3.4115 0
M  V30 1181 C 114.647 -0.394989 -4.3019 0
M  V30 1182 C 113.782 0.426834 -5.29482 0
M  V30 1183 C 112.821 -0.486476 -6.10164 0
M  V30 1184 N 111.958 0.297879 -7.01468 0
M  V30 1185 H 116.798 -1.11519 -2.76347 0
M  V30 1186 H 114.335 -0.56138 -1.35967 0
M  V30 1187 H 116.293 1.00563 -4.04899 0
M  V30 1188 H 114.923 1.31165 -2.9495 0
M  V30 1189 H 113.975 -0.99836 -3.67065 0
M  V30 1190 H 115.287 -1.09612 -4.86607 0
M  V30 1191 H 114.441 0.975205 -5.98811 0
M  V30 1192 H 113.18 1.16136 -4.73671 0
M  V30 1193 H 112.185 -1.04677 -5.39743 0
M  V30 1194 H 113.41 -1.21953 -6.6806 0
M  V30 1195 H 111.356 1.01558 -6.48091 0
M  V30 1196 H 111.273 -0.344318 -7.55216 0
M  V30 1197 H 112.541 0.828131 -7.75089 0
M  V30 1198 N 116.77 1.45427 -0.607355 0
M  V30 1199 C 118.047 1.9557 -0.0344566 0
M  V30 1200 C 118.427 1.54979 1.43334 0
M  V30 1201 O 117.775 0.812241 2.13576 0
M  V30 1202 C 117.985 3.48226 -0.232321 0
M  V30 1203 C 119.333 4.2445 -0.113001 0
M  V30 1204 O 120.357 3.55829 -0.162431 0
M  V30 1205 O 119.216 5.465 0.00209442 0
M  V30 1206 H 116.31 0.826222 0.0358667 0
M  V30 1207 H 118.856 1.55594 -0.6774 0
M  V30 1208 H 117.628 3.70739 -1.25174 0
M  V30 1209 H 117.251 3.95092 0.445896 0
M  V30 1210 N 118.248 0.346503 1.53744 0
M  V30 1211 C 119.496 -0.248612 2.00565 0
M  V30 1212 C 119.817 -1.5083 1.23593 0
M  V30 1213 O 119.087 -1.92858 0.343912 0
M  V30 1214 H 117.667 -0.0948564 0.740953 0
M  V30 1215 H 120.329 0.468341 1.89189 0
M  V30 1216 H 119.425 -0.488994 3.08245 0
M  V30 1217 N 119.726 -1.57421 0.075193 0
M  V30 1218 C 120.656 -2.15942 -0.888324 0
M  V30 1219 C 121.637 -1.08737 -1.30806 0
M  V30 1220 O 122.822 -1.36787 -1.37851 0
M  V30 1221 C 119.952 -2.72379 -2.1547 0
M  V30 1222 C 118.906 -3.8478 -1.87425 0
M  V30 1223 C 118.232 -4.27834 -3.20721 0
M  V30 1224 C 119.532 -5.08869 -1.17684 0
M  V30 1225 H 121.226 -2.96705 -0.400799 0
M  V30 1226 H 118.772 -1.42723 -0.191342 0
M  V30 1227 H 120.725 -3.11965 -2.83295 0
M  V30 1228 H 119.449 -1.88841 -2.6647 0
M  V30 1229 H 118.108 -3.45703 -1.22004 0
M  V30 1230 H 117.756 -3.41214 -3.6957 0
M  V30 1231 H 117.456 -5.03605 -3.02746 0
M  V30 1232 H 118.98 -4.70039 -3.89738 0
M  V30 1233 H 120.394 -5.4575 -1.75584 0
M  V30 1234 H 118.791 -5.8994 -1.09956 0
M  V30 1235 H 119.861 -4.84648 -0.156453 0
M  V30 1236 N 121.204 0.198386 -1.56346 0
M  V30 1237 C 122.45 0.920648 -1.80698 0
M  V30 1238 C 122.783 1.83045 -0.648697 0
M  V30 1239 O 122.058 1.91308 0.350925 0
M  V30 1240 C 122.341 1.73971 -3.15287 0
M  V30 1241 C 122.194 0.85485 -4.41602 0
M  V30 1242 C 123.513 2.71296 -3.46535 0
M  V30 1243 H 120.632 0.333261 -0.657348 0
M  V30 1244 H 123.274 0.188198 -1.89066 0
M  V30 1245 H 121.424 2.36416 -3.08285 0
M  V30 1246 H 123.096 0.245362 -4.60647 0
M  V30 1247 H 121.339 0.161398 -4.335 0
M  V30 1248 H 122.01 1.46286 -5.32264 0
M  V30 1249 H 124.486 2.18983 -3.53816 0
M  V30 1250 H 123.362 3.2569 -4.41834 0
M  V30 1251 H 123.623 3.5018 -2.69864 0
M  V30 1252 N 122.682 1.50554 0.465978 0
M  V30 1253 C 123.612 1.72722 1.57128 0
M  V30 1254 C 124.593 0.576294 1.6004 0
M  V30 1255 O 125.778 0.81598 1.76225 0
M  V30 1256 C 122.908 1.82605 2.95419 0
M  V30 1257 C 121.862 2.97835 3.07373 0
M  V30 1258 C 121.188 2.92867 4.47363 0
M  V30 1259 C 122.488 4.38265 2.84114 0
M  V30 1260 H 124.182 2.65267 1.38829 0
M  V30 1261 H 121.728 1.2765 0.666441 0
M  V30 1262 H 123.681 1.96698 3.72677 0
M  V30 1263 H 122.405 0.866858 3.14886 0
M  V30 1264 H 121.064 2.83401 2.3255 0
M  V30 1265 H 120.712 1.94783 4.63755 0
M  V30 1266 H 120.412 3.70227 4.56296 0
M  V30 1267 H 121.936 3.09015 5.26633 0
M  V30 1268 H 123.35 4.53198 3.51118 0
M  V30 1269 H 121.747 5.17115 3.04487 0
M  V30 1270 H 122.817 4.50281 1.7993 0
M  V30 1271 N 124.16 -0.719506 1.40217 0
M  V30 1272 C 125.406 -1.48152 1.38488 0
M  V30 1273 C 125.739 -1.94195 -0.0141867 0
M  V30 1274 O 125.014 -1.67884 -0.982096 0
M  V30 1275 C 125.297 -2.71035 2.37091 0
M  V30 1276 C 125.15 -2.30912 3.86005 0
M  V30 1277 C 126.469 -3.73182 2.33288 0
M  V30 1278 H 123.588 -0.537395 0.504357 0
M  V30 1279 H 126.23 -0.821472 1.71324 0
M  V30 1280 H 124.38 -3.27352 2.0922 0
M  V30 1281 H 126.052 -1.80107 4.24687 0
M  V30 1282 H 124.295 -1.62958 4.02029 0
M  V30 1283 H 124.966 -3.18978 4.50508 0
M  V30 1284 H 127.442 -3.26485 2.57966 0
M  V30 1285 H 126.318 -4.56806 3.04334 0
M  V30 1286 H 126.579 -4.21202 1.34317 0
M  V30 1287 N 125.638 -1.25649 -0.95132 0
M  V30 1288 C 126.915 -1.01361 -1.67288 0
M  V30 1289 C 127.295 0.459135 -2.06046 0
M  V30 1290 O 126.643 1.43723 -1.7764 0
M  V30 1291 C 126.853 -1.95256 -2.89268 0
M  V30 1292 C 128.201 -2.23289 -3.61147 0
M  V30 1293 O 129.225 -1.93041 -2.99355 0
M  V30 1294 O 128.084 -2.74741 -4.72419 0
M  V30 1295 H 125.178 -0.38464 -0.732107 0
M  V30 1296 H 127.724 -1.36817 -1.00395 0
M  V30 1297 H 126.496 -2.94685 -2.57442 0
M  V30 1298 H 126.119 -1.60218 -3.6389 0
M  V30 1299 N 127.117 1.15442 -1.07289 0
M  V30 1300 C 128.528 1.67803 -0.818475 0
M  V30 1301 C 128.879 1.8489 0.656507 0
M  V30 1302 O 128.004 1.55176 1.50829 0
M  V30 1303 C 128.599 3.04805 -1.47917 0
M  V30 1304 C 127.158 3.54245 -1.27229 0
M  V30 1305 C 126.305 2.29986 -1.54925 0
M  V30 1306 H 129.256 0.996646 -1.23502 0
M  V30 1307 H 129.277 3.69702 -0.90005 0
M  V30 1308 H 128.789 2.92336 -2.55267 0
M  V30 1309 H 126.89 3.71956 -0.21899 0
M  V30 1310 H 127.003 4.35723 -1.99203 0
M  V30 1311 H 125.367 2.35496 -0.970242 0
M  V30 1312 H 126.15 2.20105 -2.63455 0
M  V30 1313 N 128.595 0.856903 1.32268 0
M  V30 1314 C 129.542 0.301172 2.28827 0
M  V30 1315 C 130.512 -0.593104 1.5515 0
M  V30 1316 O 131.697 -0.527537 1.83362 0
M  V30 1317 C 128.837 -0.502523 3.41422 0
M  V30 1318 C 127.95 0.417797 4.29975 0
M  V30 1319 C 127.085 -0.398749 5.29701 0
M  V30 1320 C 126.124 0.518827 6.09897 0
M  V30 1321 N 125.261 -0.260674 7.01616 0
M  V30 1322 H 130.101 1.12983 2.75751 0
M  V30 1323 H 127.638 0.568582 1.35667 0
M  V30 1324 H 129.596 -0.984141 4.05426 0
M  V30 1325 H 128.226 -1.29599 2.95642 0
M  V30 1326 H 127.278 1.01781 3.66531 0
M  V30 1327 H 128.59 1.12191 4.86019 0
M  V30 1328 H 127.744 -0.943435 5.9932 0
M  V30 1329 H 126.483 -1.13622 4.7428 0
M  V30 1330 H 125.488 1.07538 5.39181 0
M  V30 1331 H 126.713 1.25495 6.67404 0
M  V30 1332 H 124.659 -0.981198 6.4862 0
M  V30 1333 H 124.576 0.384364 7.55022 0
M  V30 1334 H 125.844 -0.787014 7.75517 0
M  V30 1335 N 130.073 -1.45103 0.615059 0
M  V30 1336 C 131.02 -2.30586 -0.0993978 0
M  V30 1337 C 131.99 -1.42544 -0.852669 0
M  V30 1338 O 133.175 -1.71465 -0.836917 0
M  V30 1339 C 130.315 -3.27572 -1.08583 0
M  V30 1340 C 129.428 -4.30717 -0.332656 0
M  V30 1341 C 128.563 -5.14807 -1.30947 0
M  V30 1342 C 127.602 -6.09673 -0.544538 0
M  V30 1343 N 126.739 -6.86517 -1.47101 0
M  V30 1344 H 131.579 -2.91144 0.635542 0
M  V30 1345 H 129.116 -1.4346 0.325206 0
M  V30 1346 H 131.074 -3.82276 -1.67095 0
M  V30 1347 H 129.704 -2.68751 -1.78809 0
M  V30 1348 H 128.756 -3.78615 0.368107 0
M  V30 1349 H 130.068 -4.98102 0.263842 0
M  V30 1350 H 129.222 -5.73948 -1.96643 0
M  V30 1351 H 127.961 -4.47458 -1.9399 0
M  V30 1352 H 126.966 -5.49656 0.126003 0
M  V30 1353 H 128.191 -6.79052 0.080947 0
M  V30 1354 H 126.137 -6.21851 -2.08895 0
M  V30 1355 H 126.054 -7.50281 -0.928137 0
M  V30 1356 H 127.322 -7.50194 -2.11731 0
M  V30 1357 N 131.551 -0.354651 -1.53558 0
M  V30 1358 C 132.791 0.238651 -2.03002 0
M  V30 1359 C 133.155 1.46878 -1.23656 0
M  V30 1360 O 134.356 2.13699 -1.63053 0
M  V30 1361 C 132.627 0.534175 -3.53386 0
M  V30 1362 S 134.186 1.10271 -4.24719 0
M  V30 1363 H 131.004 0.0702908 -0.707517 0
M  V30 1364 H 133.606 -0.494987 -1.8913 0
M  V30 1365 H 132.31 -0.368765 -4.0874 0
M  V30 1366 H 131.841 1.29718 -3.71398 0
M  V30 1367 H 133.856 2.38772 -4.34974 0
M  V30 1368 N 133.029 1.57378 -0.0835403 0
M  V30 1369 C 134.278 1.93106 0.582498 0
M  V30 1370 C 134.591 0.96651 1.70053 0
M  V30 1371 O 135.797 1.21705 2.42693 0
M  V30 1372 C 134.253 3.43076 1.08751 0
M  V30 1373 C 133.861 4.48 -0.000146404 0
M  V30 1374 C 135.605 3.87785 1.72694 0
M  V30 1375 C 133.512 5.89113 0.519568 0
M  V30 1376 H 132.442 0.720775 0.221358 0
M  V30 1377 H 135.093 1.82821 -0.157675 0
M  V30 1378 H 133.475 3.48474 1.88101 0
M  V30 1379 H 134.649 4.54233 -0.775199 0
M  V30 1380 H 132.964 4.1283 -0.54406 0
M  V30 1381 H 135.561 4.90604 2.1263 0
M  V30 1382 H 135.904 3.25796 2.59158 0
M  V30 1383 H 136.437 3.8504 0.999457 0
M  V30 1384 H 133.176 6.54775 -0.308186 0
M  V30 1385 H 132.696 5.86376 1.26188 0
M  V30 1386 H 134.375 6.39346 0.992237 0
M  V30 1387 N 134.507 -0.190092 1.56449 0
M  V30 1388 C 135.47 -1.21925 1.9408 0
M  V30 1389 C 136.47 -1.38176 0.822431 0
M  V30 1390 O 137.66 -1.35903 1.08977 0
M  V30 1391 C 134.792 -2.58773 2.21922 0
M  V30 1392 H 135.985 -0.897464 2.86157 0
M  V30 1393 H 133.538 -0.43181 1.50217 0
M  V30 1394 H 134.273 -2.95998 1.32499 0
M  V30 1395 H 134.058 -2.48348 3.03424 0
M  V30 1396 H 135.548 -3.32978 2.52022 0
M  V30 1397 N 135.985 -1.50799 -0.457987 0
M  V30 1398 C 137.225 -1.64088 -1.21879 0
M  V30 1399 C 137.589 -0.339848 -1.88968 0
M  V30 1400 O 138.79 -0.348301 -2.66534 0
M  V30 1401 C 137.061 -2.79726 -2.2246 0
M  V30 1402 S 138.62 -3.13225 -3.07303 0
M  V30 1403 H 135.438 -0.578314 -0.41361 0
M  V30 1404 H 138.04 -1.88632 -0.513645 0
M  V30 1405 H 136.744 -3.72722 -1.71775 0
M  V30 1406 H 136.275 -2.57308 -2.97584 0
M  V30 1407 H 138.29 -2.58062 -4.23814 0
M  V30 1408 N 137.463 0.71206 -1.40597 0
M  V30 1409 C 138.711 1.46907 -1.38791 0
M  V30 1410 C 139.032 1.94998 0.00780391 0
M  V30 1411 O 138.302 1.70587 0.963174 0
M  V30 1412 H 136.882 0.545043 -0.51082 0
M  V30 1413 H 139.544 0.843882 -1.75683 0
M  V30 1414 H 138.64 2.34021 -2.06496 0
M  V30 1415 N 138.941 1.26152 0.944643 0
M  V30 1416 C 139.904 1.07474 2.0244 0
M  V30 1417 C 140.904 0.0242064 1.60782 0
M  V30 1418 O 142.094 0.267302 1.72137 0
M  V30 1419 C 139.226 0.633956 3.34953 0
M  V30 1420 H 140.419 2.03336 2.20442 0
M  V30 1421 H 137.972 1.087 1.12312 0
M  V30 1422 H 138.707 -0.326811 3.22649 0
M  V30 1423 H 138.492 1.39247 3.66542 0
M  V30 1424 H 139.982 0.52501 4.14287 0
M  V30 1425 N 140.419 -1.14872 1.07899 0
M  V30 1426 C 141.659 -1.8745 0.814965 0
M  V30 1427 C 142.023 -1.80758 -0.64733 0
M  V30 1428 O 143.224 -2.48422 -1.02664 0
M  V30 1429 C 141.495 -3.32286 1.31607 0
M  V30 1430 S 143.054 -4.22537 1.18357 0
M  V30 1431 H 139.872 -0.646833 0.295174 0
M  V30 1432 H 142.474 -1.38555 1.37923 0
M  V30 1433 H 141.178 -3.34703 2.37491 0
M  V30 1434 H 140.709 -3.86238 0.747261 0
M  V30 1435 H 142.724 -4.96044 0.124586 0
M  V30 1436 N 141.898 -0.863906 -1.31812 0
M  V30 1437 C 143.147 -0.46801 -1.96195 0
M  V30 1438 C 143.46 0.983474 -1.69077 0
M  V30 1439 O 144.666 1.48523 -2.27273 0
M  V30 1440 C 143.122 -0.785995 -3.51212 0
M  V30 1441 C 142.73 -2.25383 -3.87178 0
M  V30 1442 C 144.474 -0.458274 -4.22019 0
M  V30 1443 C 142.381 -2.51455 -5.3528 0
M  V30 1444 H 141.311 -0.171283 -0.734287 0
M  V30 1445 H 143.962 -1.05597 -1.50072 0
M  V30 1446 H 142.344 -0.127359 -3.95795 0
M  V30 1447 H 143.518 -2.95502 -3.53575 0
M  V30 1448 H 141.833 -2.54698 -3.2942 0
M  V30 1449 H 144.43 -0.630369 -5.30971 0
M  V30 1450 H 144.773 0.600834 -4.11941 0
M  V30 1451 H 145.306 -1.07319 -3.8305 0
M  V30 1452 H 142.045 -3.56025 -5.50387 0
M  V30 1453 H 141.565 -1.85923 -5.70257 0
M  V30 1454 H 143.244 -2.35874 -6.02472 0
M  V30 1455 N 143.376 1.44774 -0.622745 0
M  V30 1456 C 144.339 2.29069 0.0774015 0
M  V30 1457 C 145.339 1.4059 0.780461 0
M  V30 1458 O 146.529 1.62551 0.626322 0
M  V30 1459 C 143.661 3.21974 1.12006 0
M  V30 1460 H 144.854 2.92459 -0.663901 0
M  V30 1461 H 142.407 1.51548 -0.382486 0
M  V30 1462 H 143.142 2.63417 1.89162 0
M  V30 1463 H 142.927 3.87168 0.619951 0
M  V30 1464 H 144.417 3.85318 1.60995 0
M  V30 1465 N 144.854 0.36279 1.53368 0
M  V30 1466 C 145.817 -0.472679 2.24273 0
M  V30 1467 C 146.817 -1.012 1.24961 0
M  V30 1468 O 148.007 -0.898194 1.49259 0
M  V30 1469 C 145.139 -1.66039 2.97731 0
M  V30 1470 H 146.332 0.14773 2.99536 0
M  V30 1471 H 143.885 0.114434 1.55881 0
M  V30 1472 H 144.62 -2.31896 2.26704 0
M  V30 1473 H 144.405 -1.28066 3.70596 0
M  V30 1474 H 145.895 -2.25252 3.51641 0
M  V30 1475 N 146.332 -1.57332 0.0918853 0
M  V30 1476 C 147.572 -1.96117 -0.575988 0
M  V30 1477 C 147.936 -0.972499 -1.65549 0
M  V30 1478 O 149.137 -1.24872 -2.38034 0
M  V30 1479 C 147.408 -3.39407 -1.11973 0
M  V30 1480 S 148.967 -4.00185 -1.79992 0
M  V30 1481 H 145.785 -0.685682 -0.188045 0
M  V30 1482 H 148.387 -1.94755 0.170525 0
M  V30 1483 H 147.091 -4.09131 -0.322504 0
M  V30 1484 H 146.622 -3.44358 -1.90214 0
M  V30 1485 H 148.637 -3.88728 -3.08391 0
M  V30 1486 N 147.81 0.181792 -1.56548 0
M  V30 1487 C 149.221 0.745244 -1.71181 0
M  V30 1488 C 149.572 1.83262 -0.70068 0
M  V30 1489 O 148.697 2.15946 0.140154 0
M  V30 1490 C 149.292 1.35859 -3.10367 0
M  V30 1491 C 147.851 1.86898 -3.2672 0
M  V30 1492 C 146.998 0.743942 -2.67134 0
M  V30 1493 H 149.949 -0.0434661 -1.5864 0
M  V30 1494 H 149.97 2.22817 -3.08436 0
M  V30 1495 H 149.482 0.566948 -3.83937 0
M  V30 1496 H 147.583 2.68738 -2.5809 0
M  V30 1497 H 147.696 2.02162 -4.34359 0
M  V30 1498 H 146.06 1.16169 -2.26665 0
M  V30 1499 H 146.843 -0.035676 -3.43281 0
M  V30 1500 N 149.288 1.51039 0.449983 0
M  V30 1501 C 150.518 1.66627 1.22143 0
M  V30 1502 C 150.926 0.357776 1.85786 0
M  V30 1503 O 150.269 -0.672424 1.70951 0
M  V30 1504 C 150.331 2.71562 2.35573 0
M  V30 1505 C 149.995 4.14526 1.92399 0
M  V30 1506 C 150.992 4.99717 1.43453 0
M  V30 1507 C 148.677 4.60559 2.00475 0
M  V30 1508 C 150.671 6.28998 1.03155 0
M  V30 1509 C 148.358 5.8984 1.59788 0
M  V30 1510 C 149.356 6.73886 1.11208 0
M  V30 1511 O 149.044 8.0075 0.710935 0
M  V30 1512 H 148.776 0.562635 0.374724 0
M  V30 1513 H 151.33 1.98146 0.541036 0
M  V30 1514 H 149.56 2.3533 3.06849 0
M  V30 1515 H 151.249 2.76156 2.97478 0
M  V30 1516 H 152.015 4.65361 1.36618 0
M  V30 1517 H 147.894 3.95273 2.37235 0
M  V30 1518 H 151.438 6.9455 0.651663 0
M  V30 1519 H 147.335 6.23713 1.66289 0
M  V30 1520 H 148.103 8.142 0.837913 0
M  V30 1521 N 150.766 -0.704594 1.40972 0
M  V30 1522 C 152.043 -1.45847 1.30338 0
M  V30 1523 C 152.423 -2.10973 -0.0732344 0
M  V30 1524 O 151.771 -2.00997 -1.08685 0
M  V30 1525 C 151.981 -2.48525 2.45023 0
M  V30 1526 C 153.329 -3.1404 2.8577 0
M  V30 1527 O 154.353 -2.58848 2.44696 0
M  V30 1528 O 153.212 -4.13981 3.56766 0
M  V30 1529 H 150.306 -0.649092 0.512454 0
M  V30 1530 H 152.852 -0.735836 1.52917 0
M  V30 1531 H 151.624 -1.98994 3.36923 0
M  V30 1532 H 151.247 -3.2831 2.24272 0
M  V30 1533 N 152.244 -1.26651 -0.937939 0
M  V30 1534 C 153.207 -1.08546 -2.01867 0
M  V30 1535 C 154.207 -0.0327327 -1.60767 0
M  V30 1536 O 155.397 -0.276427 -1.71993 0
M  V30 1537 C 152.529 -0.651711 -3.34613 0
M  V30 1538 H 153.722 -2.04502 -2.1936 0
M  V30 1539 H 151.275 -1.09294 -1.11734 0
M  V30 1540 H 152.01 0.309696 -3.22818 0
M  V30 1541 H 151.795 -1.41189 -3.65798 0
M  V30 1542 H 153.285 -0.546973 -4.14002 0
M  V30 1543 N 153.722 1.14298 -1.08507 0
M  V30 1544 C 155.138 1.37347 -0.812901 0
M  V30 1545 C 155.338 1.93052 0.577325 0
M  V30 1546 O 154.394 2.14389 1.33393 0
M  V30 1547 C 155.707 2.33359 -1.89642 0
M  V30 1548 C 157.255 2.46996 -1.92255 0
M  V30 1549 C 157.73 3.46309 -2.99724 0
M  V30 1550 N 159.221 3.53853 -2.98902 0
M  V30 1551 C 159.956 4.3055 -3.787 0
M  V30 1552 N 159.452 5.10482 -4.6838 0
M  V30 1553 N 161.245 4.25757 -3.66998 0
M  V30 1554 H 153.396 0.764867 -1.9815 0
M  V30 1555 H 155.659 0.398966 -0.859959 0
M  V30 1556 H 155.365 1.99565 -2.89597 0
M  V30 1557 H 155.239 3.33274 -1.76659 0
M  V30 1558 H 157.626 2.80081 -0.929445 0
M  V30 1559 H 157.707 1.47039 -2.09316 0
M  V30 1560 H 157.351 3.13957 -3.99241 0
M  V30 1561 H 157.281 4.46049 -2.79907 0
M  V30 1562 H 159.772 2.96812 -2.33904 0
M  V30 1563 H 160.085 5.66284 -5.25873 0
M  V30 1564 H 158.43 5.09747 -4.72422 0
M  V30 1565 H 161.621 3.62383 -2.96304 0
M  V30 1566 H 161.794 4.85279 -4.29427 0
M  V30 1567 N 155.201 0.870884 1.31352 0
M  V30 1568 C 156.431 0.496049 2.00557 0
M  V30 1569 C 156.839 -0.916241 1.65534 0
M  V30 1570 O 156.182 -1.61188 0.881134 0
M  V30 1571 C 156.244 0.574418 3.54881 0
M  V30 1572 C 155.908 1.94849 4.1338 0
M  V30 1573 C 156.905 2.91611 4.30417 0
M  V30 1574 C 154.59 2.25005 4.49086 0
M  V30 1575 C 156.584 4.16672 4.82352 0
M  V30 1576 C 154.271 3.50315 5.00722 0
M  V30 1577 C 155.269 4.45964 5.17306 0
M  V30 1578 O 154.957 5.69052 5.67833 0
M  V30 1579 H 154.689 0.191664 0.64826 0
M  V30 1580 H 157.243 1.17409 1.68536 0
M  V30 1581 H 155.473 -0.160549 3.86367 0
M  V30 1582 H 157.162 0.212879 4.05341 0
M  V30 1583 H 157.928 2.69622 4.03149 0
M  V30 1584 H 153.807 1.51332 4.35453 0
M  V30 1585 H 157.351 4.91336 4.95211 0
M  V30 1586 H 153.248 3.72147 5.27424 0
M  V30 1587 H 154.016 5.71236 5.86201 0
M  V30 1588 N 156.679 -1.44442 0.630414 0
M  V30 1589 C 157.609 -2.33418 -0.0618083 0
M  V30 1590 C 158.59 -1.48165 -0.835541 0
M  V30 1591 O 159.775 -1.76886 -0.801564 0
M  V30 1592 C 156.905 -3.31222 -1.04449 0
M  V30 1593 C 155.859 -4.26288 -0.382436 0
M  V30 1594 C 155.185 -5.13954 -1.47497 0
M  V30 1595 C 156.485 -5.1744 0.710865 0
M  V30 1596 H 158.179 -2.91548 0.681184 0
M  V30 1597 H 155.725 -1.40191 0.329026 0
M  V30 1598 H 157.678 -3.92351 -1.53748 0
M  V30 1599 H 156.402 -2.71299 -1.81836 0
M  V30 1600 H 155.061 -3.6649 0.0899054 0
M  V30 1601 H 154.709 -4.50385 -2.2397 0
M  V30 1602 H 154.409 -5.7837 -1.03737 0
M  V30 1603 H 155.933 -5.77955 -1.96979 0
M  V30 1604 H 157.347 -5.72509 0.300996 0
M  V30 1605 H 155.744 -5.90455 1.07156 0
M  V30 1606 H 156.814 -4.58496 1.57829 0
M  V30 1607 N 158.157 -0.370918 -1.53173 0
M  V30 1608 C 159.107 0.489588 -2.22681 0
M  V30 1609 C 160.091 1.04442 -1.22395 0
M  V30 1610 O 161.283 0.973578 -1.47819 0
M  V30 1611 C 158.412 1.626 -3.02351 0
M  V30 1612 C 157.498 1.08379 -4.10018 0
M  V30 1613 N 157.889 0.265004 -5.05105 0
M  V30 1614 C 156.187 1.35809 -4.2482 0
M  V30 1615 C 156.888 -0.0324755 -5.81691 0
M  V30 1616 N 155.864 0.566581 -5.40639 0
M  V30 1617 H 159.666 -0.142729 -2.93553 0
M  V30 1618 H 157.18 -0.179221 -1.61408 0
M  V30 1619 H 159.177 2.2547 -3.50669 0
M  V30 1620 H 157.837 2.26132 -2.33011 0
M  V30 1621 H 158.848 -0.0962352 -5.17811 0
M  V30 1622 H 155.525 1.9958 -3.66707 0
M  V30 1623 H 156.915 -0.69473 -6.68299 0
M  V30 1624 N 159.635 1.57281 -0.100228 0
M  V30 1625 C 161.046 1.81725 0.428107 0
M  V30 1626 C 161.397 1.01619 1.67833 0
M  V30 1627 O 160.522 0.247098 2.14985 0
M  V30 1628 C 161.117 3.29617 0.78347 0
M  V30 1629 C 159.676 3.54808 1.25653 0
M  V30 1630 C 158.823 2.76118 0.255752 0
M  V30 1631 H 161.774 1.55324 -0.325608 0
M  V30 1632 H 161.795 3.4322 1.64256 0
M  V30 1633 H 161.307 3.87893 -0.12665 0
M  V30 1634 H 159.408 3.01868 2.18418 0
M  V30 1635 H 159.521 4.63443 1.21482 0
M  V30 1636 H 157.885 2.43745 0.738956 0
M  V30 1637 H 158.668 3.37145 -0.647136 0
M  V30 1638 N 161.113 -0.173488 1.56642 0
M  V30 1639 C 162.076 -1.19859 1.95362 0
M  V30 1640 C 163.076 -1.37296 0.83704 0
M  V30 1641 O 164.266 -1.34739 1.10413 0
M  V30 1642 C 161.398 -2.56405 2.24654 0
M  V30 1643 H 162.591 -0.867062 2.87092 0
M  V30 1644 H 160.144 -0.415853 1.50666 0
M  V30 1645 H 160.879 -2.94576 1.35631 0
M  V30 1646 H 160.664 -2.45115 3.06041 0
M  V30 1647 H 162.154 -3.30287 2.5554 0
M  V30 1648 N 162.591 -1.51276 -0.441967 0
M  V30 1649 C 163.839 -1.63392 -1.18943 0
M  V30 1650 C 164.16 -0.350159 -1.9183 0
M  V30 1651 O 163.43 0.633784 -1.85364 0
M  V30 1652 H 162.01 -0.602164 -0.442049 0
M  V30 1653 H 164.672 -1.88186 -0.507165 0
M  V30 1654 H 163.768 -2.45934 -1.92154 0
M  V30 1655 N 164.069 0.697108 -1.41344 0
M  V30 1656 C 165.299 1.48377 -1.43763 0
M  V30 1657 C 165.707 1.89156 -0.0408726 0
M  V30 1658 O 165.05 1.57239 0.949812 0
M  V30 1659 C 165.112 2.7781 -2.2817 0
M  V30 1660 C 164.776 2.59244 -3.76353 0
M  V30 1661 C 165.773 2.25292 -4.68551 0
M  V30 1662 C 163.458 2.74933 -4.20378 0
M  V30 1663 C 165.452 2.07264 -6.02761 0
M  V30 1664 C 163.139 2.56521 -5.54653 0
M  V30 1665 C 164.137 2.22737 -6.4566 0
M  V30 1666 O 163.825 2.04485 -7.77458 0
M  V30 1667 H 163.557 0.463842 -0.491759 0
M  V30 1668 H 166.111 0.865934 -1.86255 0
M  V30 1669 H 164.341 3.41995 -1.8049 0
M  V30 1670 H 166.03 3.39608 -2.22309 0
M  V30 1671 H 166.796 2.12787 -4.35829 0
M  V30 1672 H 162.675 3.00213 -3.49848 0
M  V30 1673 H 166.219 1.80817 -6.73759 0
M  V30 1674 H 162.116 2.68616 -5.86955 0
M  V30 1675 H 162.884 2.1926 -7.88586 0
M  V30 1676 N 165.547 1.27147 0.931209 0
M  V30 1677 C 166.793 1.13446 1.68101 0
M  V30 1678 C 167.126 -0.319628 1.91552 0
M  V30 1679 O 166.401 -1.23407 1.50336 0
M  V30 1680 C 166.684 1.91482 3.0497 0
M  V30 1681 C 166.537 3.44855 2.88782 0
M  V30 1682 C 167.856 1.71651 4.05246 0
M  V30 1683 H 164.975 0.413498 0.610072 0
M  V30 1684 H 167.617 1.56261 1.08086 0
M  V30 1685 H 165.767 1.55095 3.56199 0
M  V30 1686 H 167.439 3.9105 2.44698 0
M  V30 1687 H 165.682 3.71373 2.24198 0
M  V30 1688 H 166.353 3.94694 3.85902 0
M  V30 1689 H 168.829 2.0337 3.63015 0
M  V30 1690 H 167.705 2.28651 4.99009 0
M  V30 1691 H 167.966 0.663555 4.37092 0
M  V30 1692 N 167.025 -1.13721 1.09112 0
M  V30 1693 C 168.25 -1.89314 0.847053 0
M  V30 1694 C 168.675 -1.78416 -0.595774 0
M  V30 1695 O 168.033 -1.12942 -1.41823 0
M  V30 1696 C 168.081 -3.3701 1.28284 0
M  V30 1697 O 167.185 -4.10054 0.439267 0
M  V30 1698 H 166.526 -0.588745 0.307044 0
M  V30 1699 H 169.056 -1.43902 1.45442 0
M  V30 1700 H 169.066 -3.87834 1.26683 0
M  V30 1701 H 167.741 -3.4426 2.33363 0
M  V30 1702 H 166.318 -3.69266 0.519312 0
M  V30 1703 N 168.503 -0.877838 -1.30888 0
M  V30 1704 C 169.45 -0.337538 -2.28318 0
M  V30 1705 C 170.42 0.568346 -1.56074 0
M  V30 1706 O 171.605 0.498298 -1.84178 0
M  V30 1707 C 168.745 0.448142 -3.42178 0
M  V30 1708 C 167.858 -0.48615 -4.29256 0
M  V30 1709 C 166.993 0.314427 -5.30269 0
M  V30 1710 C 166.032 -0.615791 -6.08995 0
M  V30 1711 N 165.169 0.14902 -7.01942 0
M  V30 1712 H 170.009 -1.17356 -2.73919 0
M  V30 1713 H 167.546 -0.590094 -1.34745 0
M  V30 1714 H 169.504 0.919517 -4.06941 0
M  V30 1715 H 168.134 1.24879 -2.97666 0
M  V30 1716 H 167.186 -1.076 -3.64865 0
M  V30 1717 H 168.498 -1.19909 -4.84173 0
M  V30 1718 H 167.652 0.847969 -6.00745 0
M  V30 1719 H 166.391 1.06062 -4.76027 0
M  V30 1720 H 165.396 -1.16102 -5.37401 0
M  V30 1721 H 166.621 -1.36097 -6.65323 0
M  V30 1722 H 164.567 0.877884 -6.50099 0
M  V30 1723 H 164.484 -0.504433 -7.54315 0
M  V30 1724 H 165.752 0.663537 -7.76671 0
M  V30 1725 N 169.982 1.44106 -0.638065 0
M  V30 1726 C 171.222 2.03858 -0.148733 0
M  V30 1727 C 171.586 1.49153 1.20903 0
M  V30 1728 O 172.787 2.00452 1.79088 0
M  V30 1729 C 171.058 3.57117 -0.142314 0
M  V30 1730 S 172.617 4.37897 0.281385 0
M  V30 1731 H 169.435 0.708069 -0.0644912 0
M  V30 1732 H 172.037 1.7639 -0.843009 0
M  V30 1733 H 170.741 3.94436 -1.13349 0
M  V30 1734 H 170.272 3.89205 0.572988 0
M  V30 1735 H 172.287 4.72218 1.52395 0
M  V30 1736 N 171.46 0.379036 1.52974 0
M  V30 1737 C 172.688 -0.20679 2.05864 0
M  V30 1738 C 173.103 -1.41356 1.25155 0
M  V30 1739 O 172.46 -1.8009 0.295588 0
M  V30 1740 C 172.511 -0.587045 3.56702 0
M  V30 1741 O 172.232 0.571776 4.34353 0
M  V30 1742 C 173.733 -1.22983 4.25899 0
M  V30 1743 H 170.953 -0.0336123 0.670158 0
M  V30 1744 H 173.497 0.541298 1.97206 0
M  V30 1745 H 171.652 -1.28504 3.65466 0
M  V30 1746 H 172.066 0.261544 5.23847 0
M  V30 1747 H 173.54 -1.44635 5.32715 0
M  V30 1748 H 174.017 -2.19416 3.80465 0
M  V30 1749 H 174.623 -0.572892 4.21424 0
M  V30 1750 N 172.938 -1.57226 0.108567 0
M  V30 1751 C 174.185 -1.94833 -0.551943 0
M  V30 1752 C 174.513 -0.991204 -1.67348 0
M  V30 1753 O 173.768 -0.0131878 -1.95696 0
M  V30 1754 C 174.067 -3.38911 -1.13463 0
M  V30 1755 C 173.733 -4.50696 -0.135509 0
M  V30 1756 C 172.395 -4.80998 0.139252 0
M  V30 1757 C 174.747 -5.18333 0.545957 0
M  V30 1758 C 172.075 -5.76259 1.10194 0
M  V30 1759 C 174.427 -6.14627 1.49721 0
M  V30 1760 C 173.091 -6.43327 1.78006 0
M  V30 1761 H 172.361 -0.712944 -0.20197 0
M  V30 1762 H 175.008 -1.90582 0.18726 0
M  V30 1763 H 173.313 -3.39805 -1.95037 0
M  V30 1764 H 175.01 -3.65317 -1.65362 0
M  V30 1765 H 171.6 -4.27087 -0.359846 0
M  V30 1766 H 175.784 -4.95087 0.346842 0
M  V30 1767 H 171.04 -5.96804 1.32795 0
M  V30 1768 H 175.214 -6.66126 2.03099 0
M  V30 1769 H 172.841 -7.1695 2.52759 0
M  V30 1770 N 174.416 0.165178 -1.56732 0
M  V30 1771 C 175.656 0.887231 -1.8414 0
M  V30 1772 C 176.02 1.79159 -0.690353 0
M  V30 1773 O 177.221 2.55172 -0.845032 0
M  V30 1774 C 175.492 1.65674 -3.16681 0
M  V30 1775 S 177.051 2.42671 -3.6559 0
M  V30 1776 H 173.869 0.297042 -0.645978 0
M  V30 1777 H 176.471 0.148439 -1.94936 0
M  V30 1778 H 175.175 0.983507 -3.98441 0
M  V30 1779 H 174.706 2.43679 -3.08843 0
M  V30 1780 H 176.721 3.67499 -3.33406 0
M  V30 1781 N 175.894 1.51508 0.433938 0
M  V30 1782 C 176.857 1.72473 1.50949 0
M  V30 1783 C 177.857 0.594725 1.49398 0
M  V30 1784 O 179.047 0.862315 1.5136 0
M  V30 1785 C 176.179 1.78431 2.90474 0
M  V30 1786 H 177.372 2.68467 1.33662 0
M  V30 1787 H 174.925 1.41549 0.662836 0
M  V30 1788 H 175.66 0.842645 3.13161 0
M  V30 1789 H 175.445 2.60558 2.93005 0
M  V30 1790 H 176.935 1.96479 3.68491 0
M  V30 1791 N 177.372 -0.689602 1.41712 0
M  V30 1792 C 178.322 -1.79571 1.40493 0
M  V30 1793 C 179.306 -1.58473 0.278409 0
M  V30 1794 O 180.498 -1.69204 0.519532 0
M  V30 1795 C 177.627 -3.17923 1.29536 0
M  V30 1796 C 176.713 -3.44695 2.47075 0
M  V30 1797 N 177.104 -3.42132 3.72531 0
M  V30 1798 C 175.402 -3.75269 2.41017 0
M  V30 1799 C 176.103 -3.67976 4.50521 0
M  V30 1800 N 175.079 -3.88014 3.80718 0
M  V30 1801 H 178.881 -1.75961 2.35404 0
M  V30 1802 H 176.395 -0.889839 1.35851 0
M  V30 1803 H 178.392 -3.97167 1.26745 0
M  V30 1804 H 177.052 -3.22741 0.356153 0
M  V30 1805 H 178.063 -3.22375 4.05333 0
M  V30 1806 H 174.74 -3.87421 1.55599 0
M  V30 1807 H 176.13 -3.7208 5.59469 0
M  V30 1808 N 178.85 -1.27639 -0.924453 0
M  V30 1809 C 180.266 -1.05113 -1.20097 0
M  V30 1810 C 180.466 0.213262 -2.00368 0
M  V30 1811 O 179.522 0.91787 -2.35226 0
M  V30 1812 C 180.835 -2.29244 -1.94596 0
M  V30 1813 C 182.383 -2.34315 -2.07522 0
M  V30 1814 C 182.858 -3.58183 -2.85427 0
M  V30 1815 N 184.349 -3.5876 -2.92994 0
M  V30 1816 C 185.084 -4.51277 -3.53746 0
M  V30 1817 N 184.58 -5.54102 -4.15863 0
M  V30 1818 N 186.373 -4.38894 -3.51181 0
M  V30 1819 H 178.524 -2.08821 -0.388264 0
M  V30 1820 H 180.787 -0.918568 -0.234385 0
M  V30 1821 H 180.493 -3.21301 -1.43034 0
M  V30 1822 H 180.367 -2.34816 -2.95197 0
M  V30 1823 H 182.754 -1.42762 -2.58269 0
M  V30 1824 H 182.835 -2.32744 -1.06131 0
M  V30 1825 H 182.479 -4.50074 -2.35363 0
M  V30 1826 H 182.409 -3.57006 -3.8711 0
M  V30 1827 H 184.9 -2.84398 -2.4885 0
M  V30 1828 H 185.213 -6.20859 -4.60168 0
M  V30 1829 H 183.558 -5.57941 -4.144 0
M  V30 1830 H 186.749 -3.57772 -3.01856 0
M  V30 1831 H 186.922 -5.11186 -3.98237 0
M  V30 1832 N 180.328 1.1314 -1.09713 0
M  V30 1833 C 181.258 2.20748 -0.761102 0
M  V30 1834 C 182.239 1.68061 0.262566 0
M  V30 1835 O 183.424 1.93765 0.129977 0
M  V30 1836 C 180.554 3.46812 -0.184054 0
M  V30 1837 C 179.508 4.12606 -1.13757 0
M  V30 1838 C 178.834 5.33031 -0.422083 0
M  V30 1839 C 180.134 4.59603 -2.48118 0
M  V30 1840 H 181.828 2.49113 -1.66082 0
M  V30 1841 H 179.374 1.19734 -0.799987 0
M  V30 1842 H 181.327 4.21353 0.0631215 0
M  V30 1843 H 180.051 3.17851 0.750868 0
M  V30 1844 H 178.71 3.40036 -1.37007 0
M  V30 1845 H 178.358 5.00335 0.517072 0
M  V30 1846 H 178.058 5.77999 -1.05788 0
M  V30 1847 H 179.582 6.10325 -0.183277 0
M  V30 1848 H 180.996 5.25552 -2.29059 0
M  V30 1849 H 179.393 5.15321 -3.07514 0
M  V30 1850 H 180.463 3.73971 -3.08665 0
M  V30 1851 N 181.806 0.884767 1.30421 0
M  V30 1852 C 182.716 0.355398 2.31892 0
M  V30 1853 C 183.732 -0.542261 1.65335 0
M  V30 1854 O 184.908 -0.435432 1.96637 0
M  V30 1855 C 181.973 -0.421661 3.44126 0
M  V30 1856 C 181.034 0.505727 4.26311 0
M  V30 1857 C 180.267 -0.234343 5.33185 0
M  V30 1858 O 180.49 -1.46045 5.51386 0
M  V30 1859 O 179.424 0.415443 6.00465 0
M  V30 1860 H 183.25 1.19685 2.79122 0
M  V30 1861 H 180.835 0.648596 1.34587 0
M  V30 1862 H 182.717 -0.861641 4.12497 0
M  V30 1863 H 181.392 -1.23942 2.99032 0
M  V30 1864 H 180.299 0.994513 3.60639 0
M  V30 1865 H 181.632 1.28948 4.75009 0
M  V30 1866 N 183.284 -1.43765 0.645699 0
M  V30 1867 C 184.231 -2.30745 -0.0504648 0
M  V30 1868 C 185.201 -1.4432 -0.822241 0
M  V30 1869 O 186.386 -1.73202 -0.800358 0
M  V30 1870 C 183.526 -3.29802 -1.0161 0
M  V30 1871 C 182.639 -4.31326 -0.241219 0
M  V30 1872 C 181.774 -5.17469 -1.19998 0
M  V30 1873 C 180.813 -6.10691 -0.415094 0
M  V30 1874 N 179.95 -6.89483 -1.32506 0
M  V30 1875 H 184.79 -2.8973 0.697155 0
M  V30 1876 H 182.327 -1.42738 0.355563 0
M  V30 1877 H 184.285 -3.85734 -1.58949 0
M  V30 1878 H 182.915 -2.72483 -1.73069 0
M  V30 1879 H 181.967 -3.77749 0.448334 0
M  V30 1880 H 183.279 -4.9743 0.369437 0
M  V30 1881 H 182.433 -5.7799 -1.84424 0
M  V30 1882 H 181.172 -4.51473 -1.84455 0
M  V30 1883 H 180.177 -5.49265 0.242565 0
M  V30 1884 H 181.402 -6.78727 0.224966 0
M  V30 1885 H 179.348 -6.26142 -1.95657 0
M  V30 1886 H 179.265 -7.52081 -0.768783 0
M  V30 1887 H 180.533 -7.54516 -1.9577 0
M  V30 1888 N 184.763 -0.387143 -1.52771 0
M  V30 1889 C 186.011 0.195349 -2.01154 0
M  V30 1890 C 186.332 1.475 -1.27549 0
M  V30 1891 O 185.602 1.91878 -0.394924 0
M  V30 1892 H 184.182 0.075178 -0.743207 0
M  V30 1893 H 186.844 -0.518337 -1.87881 0
M  V30 1894 H 185.94 0.407096 -3.09434 0
M  V30 1895 N 186.241 1.57166 -0.116904 0
M  V30 1896 C 187.188 2.15202 0.83408 0
M  V30 1897 C 188.158 1.07644 1.26499 0
M  V30 1898 O 189.343 1.35541 1.34288 0
M  V30 1899 C 186.483 2.75405 2.07957 0
M  V30 1900 C 185.596 3.97264 1.69721 0
M  V30 1901 C 184.731 4.45561 2.89221 0
M  V30 1902 C 183.77 5.59956 2.47215 0
M  V30 1903 N 182.907 6.03006 3.59622 0
M  V30 1904 H 187.747 2.96141 0.332335 0
M  V30 1905 H 185.284 1.46309 0.152349 0
M  V30 1906 H 187.242 3.08439 2.80929 0
M  V30 1907 H 185.872 1.97159 2.55594 0
M  V30 1908 H 184.924 3.70404 0.866316 0
M  V30 1909 H 186.236 4.80226 1.34849 0
M  V30 1910 H 185.39 4.80493 3.7042 0
M  V30 1911 H 184.129 3.61544 3.27318 0
M  V30 1912 H 183.134 5.2463 1.64448 0
M  V30 1913 H 184.359 6.45738 2.10238 0
M  V30 1914 H 182.305 5.21931 3.97396 0
M  V30 1915 H 182.222 6.80819 3.28667 0
M  V30 1916 H 183.49 6.42576 4.41267 0
M  V30 1917 N 187.719 -0.156864 1.56817 0
M  V30 1918 C 188.965 -0.872416 1.83076 0
M  V30 1919 C 189.298 -1.81261 0.697001 0
M  V30 1920 O 188.573 -1.92171 -0.30008 0
M  V30 1921 C 188.856 -1.65551 3.19789 0
M  V30 1922 C 188.709 -0.737467 4.43713 0
M  V30 1923 C 190.028 -2.62012 3.53606 0
M  V30 1924 H 187.147 -0.315715 0.665953 0
M  V30 1925 H 189.789 -0.138004 1.89498 0
M  V30 1926 H 187.939 -2.28159 3.14445 0
M  V30 1927 H 189.611 -0.123143 4.61136 0
M  V30 1928 H 187.854 -0.0464067 4.33775 0
M  V30 1929 H 188.525 -1.32122 5.35955 0
M  V30 1930 H 191.001 -2.09525 3.59497 0
M  V30 1931 H 189.877 -3.13861 4.50314 0
M  V30 1932 H 190.138 -3.42902 2.79053 0
M  V30 1933 N 189.197 -1.51736 -0.425897 0
M  V30 1934 C 190.608 -1.5732 -1.00536 0
M  V30 1935 C 190.959 -0.403537 -1.92005 0
M  V30 1936 O 190.084 0.478256 -2.11049 0
M  V30 1937 C 190.679 -2.85119 -1.8301 0
M  V30 1938 C 189.238 -2.93236 -2.35987 0
M  V30 1939 C 188.385 -2.52098 -1.15508 0
M  V30 1940 H 191.336 -1.57348 -0.206739 0
M  V30 1941 H 191.357 -2.69526 -2.68581 0
M  V30 1942 H 190.869 -3.7023 -1.16411 0
M  V30 1943 H 188.97 -2.12581 -3.06007 0
M  V30 1944 H 189.083 -3.9713 -2.68001 0
M  V30 1945 H 187.447 -2.05558 -1.50393 0
M  V30 1946 H 188.23 -3.39565 -0.505014 0
M  V30 1947 N 190.675 0.682077 -1.42076 0
M  V30 1948 C 191.638 1.77756 -1.44691 0
M  V30 1949 C 192.638 1.5726 -0.335535 0
M  V30 1950 O 193.828 1.63686 -0.596037 0
M  V30 1951 C 190.96 3.16301 -1.27146 0
M  V30 1952 H 192.153 1.76826 -2.42224 0
M  V30 1953 H 189.706 0.891012 -1.28416 0
M  V30 1954 H 190.441 3.22862 -0.305075 0
M  V30 1955 H 190.226 3.32581 -2.07683 0
M  V30 1956 H 191.716 3.96241 -1.31843 0
M  V30 1957 N 192.153 1.28127 0.917671 0
M  V30 1958 C 193.393 1.163 1.68088 0
M  V30 1959 C 193.757 -0.284515 1.8988 0
M  V30 1960 O 194.958 -0.525413 2.63615 0
M  V30 1961 C 193.229 1.93546 3.00457 0
M  V30 1962 S 194.788 1.98048 3.91564 0
M  V30 1963 H 191.606 0.415005 0.577315 0
M  V30 1964 H 194.208 1.62173 1.09179 0
M  V30 1965 H 192.912 2.97888 2.82295 0
M  V30 1966 H 192.443 1.48207 3.64415 0
M  V30 1967 H 194.458 1.08415 4.84211 0
M  V30 1968 N 193.631 -1.12557 1.10312 0
M  V30 1969 C 194.877 -1.84311 0.846011 0
M  V30 1970 C 195.21 -1.83805 -0.626859 0
M  V30 1971 O 194.485 -1.28268 -1.46211 0
M  V30 1972 C 194.768 -3.32048 1.39341 0
M  V30 1973 C 194.621 -3.41016 2.93305 0
M  V30 1974 C 195.94 -4.27764 1.03468 0
M  V30 1975 H 193.059 -0.669192 0.30879 0
M  V30 1976 H 195.701 -1.32057 1.36605 0
M  V30 1977 H 193.851 -3.76678 0.951087 0
M  V30 1978 H 195.523 -3.05031 3.46055 0
M  V30 1979 H 193.766 -2.81603 3.29973 0
M  V30 1980 H 194.437 -4.44948 3.26689 0
M  V30 1981 H 196.913 -3.91253 1.41633 0
M  V30 1982 H 195.789 -5.29549 1.44463 0
M  V30 1983 H 196.05 -4.42064 -0.0560404 0
M  V30 1984 N 195.109 -0.891671 -1.2995 0
M  V30 1985 C 196.019 -0.367691 -2.31701 0
M  V30 1986 C 197.035 0.533486 -1.6562 0
M  V30 1987 O 198.211 0.424997 -1.96865 0
M  V30 1988 C 195.276 0.403406 -3.44345 0
M  V30 1989 C 194.337 -0.528328 -4.26037 0
M  V30 1990 C 193.57 0.206063 -5.33302 0
M  V30 1991 O 193.793 1.43119 -5.52153 0
M  V30 1992 O 192.727 -0.447281 -6.00236 0
M  V30 1993 H 196.553 -1.21163 -2.78484 0
M  V30 1994 H 194.138 -0.655725 -1.34241 0
M  V30 1995 H 196.02 0.839753 -4.12948 0
M  V30 1996 H 194.695 1.22354 -2.99685 0
M  V30 1997 H 193.602 -1.01362 -3.60106 0
M  V30 1998 H 194.935 -1.31465 -4.74318 0
M  V30 1999 N 196.587 1.43421 -0.653314 0
M  V30 2000 C 197.815 2.06163 -0.174491 0
M  V30 2001 C 198.23 1.48969 1.1599 0
M  V30 2002 O 197.587 0.621042 1.71608 0
M  V30 2003 C 197.638 3.61417 -0.0774865 0
M  V30 2004 O 197.359 4.16485 -1.35912 0
M  V30 2005 C 198.86 4.41235 0.427402 0
M  V30 2006 H 196.08 0.664946 -0.0899353 0
M  V30 2007 H 198.624 1.83924 -0.893988 0
M  V30 2008 H 196.779 3.82841 0.59257 0
M  V30 2009 H 197.193 5.10153 -1.21839 0
M  V30 2010 H 198.667 5.5021 0.44423 0
M  V30 2011 H 199.144 4.14268 1.45873 0
M  V30 2012 H 199.75 4.2478 -0.210167 0
M  V30 2013 N 198.065 0.39524 1.52563 0
M  V30 2014 C 199.305 -0.184744 2.03563 0
M  V30 2015 C 199.669 -1.43548 1.27507 0
M  V30 2016 O 200.87 -2.093 1.68662 0
M  V30 2017 C 199.141 -0.440294 3.54678 0
M  V30 2018 S 200.7 -0.989712 4.27493 0
M  V30 2019 H 197.518 -0.0515075 0.709132 0
M  V30 2020 H 200.12 0.544957 1.87751 0
M  V30 2021 H 198.824 0.477005 4.07618 0
M  V30 2022 H 198.355 -1.19825 3.74707 0
M  V30 2023 H 200.37 -2.27155 4.41152 0
M  V30 2024 N 199.544 -1.57102 0.125237 0
M  V30 2025 C 200.955 -1.82384 -0.399142 0
M  V30 2026 C 201.306 -1.04276 -1.66195 0
M  V30 2027 O 200.431 -0.281269 -2.14564 0
M  V30 2028 C 201.026 -3.30821 -0.730932 0
M  V30 2029 C 199.585 -3.56762 -1.19992 0
M  V30 2030 C 198.732 -2.7649 -0.211792 0
M  V30 2031 H 201.683 -1.54786 0.350277 0
M  V30 2032 H 201.704 -3.4579 -1.58775 0
M  V30 2033 H 201.216 -3.87643 0.188345 0
M  V30 2034 H 199.317 -3.05305 -2.13588 0
M  V30 2035 H 199.43 -4.65317 -1.14093 0
M  V30 2036 H 197.794 -2.4489 -0.700085 0
M  V30 2037 H 198.577 -3.36073 0.700691 0
M  V30 2038 N 201.022 0.148545 -1.56898 0
M  V30 2039 C 202.25 0.876389 -1.87422 0
M  V30 2040 C 202.665 1.74809 -0.713256 0
M  V30 2041 O 202.022 1.79725 0.317025 0
M  V30 2042 C 202.073 1.73438 -3.17178 0
M  V30 2043 O 201.794 0.897809 -4.28802 0
M  V30 2044 C 203.295 2.56993 -3.61205 0
M  V30 2045 H 200.515 0.253489 -0.621277 0
M  V30 2046 H 203.059 0.141798 -2.04008 0
M  V30 2047 H 201.214 2.42205 -3.0235 0
M  V30 2048 H 201.628 1.48672 -5.02988 0
M  V30 2049 H 203.102 3.12773 -4.54838 0
M  V30 2050 H 203.579 3.32958 -2.86419 0
M  V30 2051 H 204.185 1.9352 -3.78722 0
M  V30 2052 N 202.5 1.5196 0.417844 0
M  V30 2053 C 203.73 1.69181 1.18581 0
M  V30 2054 C 204.138 0.397104 1.84986 0
M  V30 2055 O 203.481 -0.636011 1.72339 0
M  V30 2056 C 203.543 2.76497 2.29759 0
M  V30 2057 C 203.207 4.18514 1.83563 0
M  V30 2058 C 204.204 5.02648 1.32821 0
M  V30 2059 C 201.889 4.64708 1.90661 0
M  V30 2060 C 203.883 6.31044 0.897894 0
M  V30 2061 C 201.57 5.93096 1.47241 0
M  V30 2062 C 202.568 6.76093 0.968891 0
M  V30 2063 O 202.256 8.02078 0.540924 0
M  V30 2064 H 201.988 0.570457 0.362705 0
M  V30 2065 H 204.542 1.99249 0.498885 0
M  V30 2066 H 202.772 2.41786 3.01789 0
M  V30 2067 H 204.461 2.82403 2.91553 0
M  V30 2068 H 205.227 4.68154 1.26716 0
M  V30 2069 H 201.106 4.00216 2.28797 0
M  V30 2070 H 204.65 6.95776 0.504192 0
M  V30 2071 H 200.547 6.271 1.53022 0
M  V30 2072 H 201.315 8.15794 0.66502 0
M  V30 2073 N 203.978 -0.674533 1.42435 0
M  V30 2074 C 205.218 -1.4466 1.44405 0
M  V30 2075 C 205.582 -1.91911 0.0585784 0
M  V30 2076 O 206.783 -2.68759 -0.0469991 0
M  V30 2077 C 205.054 -2.61136 2.44013 0
M  V30 2078 S 206.613 -3.49981 2.64687 0
M  V30 2079 H 203.431 -0.494074 0.511284 0
M  V30 2080 H 206.033 -0.785162 1.7904 0
M  V30 2081 H 204.737 -2.24662 3.43446 0
M  V30 2082 H 204.268 -3.32153 2.10803 0
M  V30 2083 H 206.283 -4.57124 1.93007 0
M  V30 2084 N 205.456 -1.28612 -0.910864 0
M  V30 2085 C 206.872 -1.06381 -1.18976 0
M  V30 2086 C 207.072 0.191998 -2.00583 0
M  V30 2087 O 206.128 0.892869 -2.36187 0
M  V30 2088 C 207.441 -2.31295 -1.92154 0
M  V30 2089 C 208.989 -2.36503 -2.05025 0
M  V30 2090 C 209.464 -3.61191 -2.81612 0
M  V30 2091 N 210.955 -3.61847 -2.89172 0
M  V30 2092 C 211.69 -4.55004 -3.4894 0
M  V30 2093 N 211.186 -5.58482 -4.09963 0
M  V30 2094 N 212.979 -4.42594 -3.46506 0
M  V30 2095 H 205.13 -2.09221 -0.366094 0
M  V30 2096 H 207.393 -0.921003 -0.224629 0
M  V30 2097 H 207.099 -3.228 -1.39618 0
M  V30 2098 H 206.973 -2.37934 -2.9269 0
M  V30 2099 H 209.36 -1.45494 -2.5674 0
M  V30 2100 H 209.441 -2.33857 -1.03657 0
M  V30 2101 H 209.085 -4.52545 -2.30576 0
M  V30 2102 H 209.015 -3.61092 -3.83302 0
M  V30 2103 H 211.506 -2.87022 -2.45819 0
M  V30 2104 H 211.819 -6.25704 -4.53557 0
M  V30 2105 H 210.164 -5.62305 -4.08459 0
M  V30 2106 H 213.355 -3.60953 -2.98045 0
M  V30 2107 H 213.528 -5.15381 -3.92793 0
M  V30 2108 N 206.934 1.1197 -1.10907 0
M  V30 2109 C 208.162 1.87402 -0.876824 0
M  V30 2110 C 208.577 1.79894 0.573025 0
M  V30 2111 O 207.934 1.17629 1.39534 0
M  V30 2112 C 207.985 3.36428 -1.32282 0
M  V30 2113 O 207.706 3.43765 -2.71582 0
M  V30 2114 C 209.207 4.28783 -1.12518 0
M  V30 2115 H 206.427 0.592793 -0.314384 0
M  V30 2116 H 208.971 1.41649 -1.47499 0
M  V30 2117 H 207.126 3.79706 -0.768229 0
M  V30 2118 H 207.54 4.3652 -2.90776 0
M  V30 2119 H 209.014 5.31613 -1.48633 0
M  V30 2120 H 209.491 4.39153 -0.0642394 0
M  V30 2121 H 210.097 3.91291 -1.66648 0
M  V30 2122 N 208.412 0.89855 1.29475 0
M  V30 2123 C 209.659 0.523882 1.95606 0
M  V30 2124 C 209.987 -0.929608 1.70847 0
M  V30 2125 O 209.242 -1.67401 1.01367 0
M  V30 2126 C 209.541 0.761398 3.49195 0
M  V30 2127 C 209.207 2.19207 3.94029 0
M  V30 2128 C 207.869 2.58326 4.05982 0
M  V30 2129 C 210.221 3.12379 4.17216 0
M  V30 2130 C 207.549 3.898 4.38489 0
M  V30 2131 C 209.901 4.43401 4.51197 0
M  V30 2132 C 208.565 4.82394 4.61359 0
M  V30 2133 H 207.835 0.191702 0.715773 0
M  V30 2134 H 210.482 1.13699 1.54094 0
M  V30 2135 H 208.787 0.0653622 3.91745 0
M  V30 2136 H 210.484 0.450904 3.98457 0
M  V30 2137 H 207.074 1.87846 3.85242 0
M  V30 2138 H 211.258 2.83371 4.07449 0
M  V30 2139 H 206.514 4.19734 4.44559 0
M  V30 2140 H 210.688 5.15623 4.68087 0
M  V30 2141 H 208.315 5.84306 4.86303 0
M  V30 2142 N 209.89 -1.43072 0.660911 0
M  V30 2143 C 211.138 -2.01323 0.177094 0
M  V30 2144 C 211.459 -1.5245 -1.2159 0
M  V30 2145 O 210.729 -0.740322 -1.81373 0
M  V30 2146 H 209.309 -0.744382 0.0624804 0
M  V30 2147 H 211.971 -1.75179 0.854305 0
M  V30 2148 H 211.067 -3.11649 0.167641 0
M  V30 2149 N 211.368 -0.403325 -1.52352 0
M  V30 2150 C 212.645 0.232611 -1.94212 0
M  V30 2151 C 213.025 1.63133 -1.33981 0
M  V30 2152 O 212.373 2.22659 -0.513344 0
M  V30 2153 C 212.583 0.244811 -3.4814 0
M  V30 2154 C 213.931 0.46698 -4.22024 0
M  V30 2155 O 214.955 0.324419 -3.5472 0
M  V30 2156 O 213.814 0.74747 -5.41364 0
M  V30 2157 H 210.908 0.148223 -0.813609 0
M  V30 2158 H 213.454 -0.458848 -1.63379 0
M  V30 2159 H 212.226 -0.734378 -3.84347 0
M  V30 2160 H 211.849 0.980611 -3.85318 0
M  V30 2161 N 212.846 1.57033 -0.133567 0
M  V30 2162 C 213.776 2.1909 0.807567 0
M  V30 2163 C 214.757 1.13517 1.26681 0
M  V30 2164 O 215.942 1.41809 1.32679 0
M  V30 2165 C 213.072 2.80188 2.05212 0
M  V30 2166 C 212.026 3.91471 1.73015 0
M  V30 2167 C 211.352 4.39443 3.04622 0
M  V30 2168 C 212.652 5.12886 0.987168 0
M  V30 2169 H 214.346 2.97988 0.290403 0
M  V30 2170 H 211.892 1.43335 0.138239 0
M  V30 2171 H 213.845 3.22264 2.71521 0
M  V30 2172 H 212.569 1.98601 2.59278 0
M  V30 2173 H 211.228 3.49993 1.0909 0
M  V30 2174 H 210.876 3.54695 3.56651 0
M  V30 2175 H 210.576 5.14495 2.83847 0
M  V30 2176 H 212.1 4.8418 3.72024 0
M  V30 2177 H 213.514 5.51891 1.55208 0
M  V30 2178 H 211.911 5.93615 0.87985 0
M  V30 2179 H 212.981 4.84894 -0.0235286 0
M  V30 2180 N 214.325 -0.140222 1.56975 0
M  V30 2181 C 215.235 -1.19223 2.02047 0
M  V30 2182 C 216.251 -1.46612 0.937062 0
M  V30 2183 O 217.427 -1.58148 1.24704 0
M  V30 2184 C 214.492 -2.50414 2.39778 0
M  V30 2185 C 213.553 -2.30612 3.621 0
M  V30 2186 C 212.786 -3.55547 3.98023 0
M  V30 2187 O 213.009 -4.62004 3.34528 0
M  V30 2188 O 211.943 -3.47808 4.91237 0
M  V30 2189 H 215.769 -0.839559 2.91865 0
M  V30 2190 H 213.354 -0.349453 1.45256 0
M  V30 2191 H 215.236 -3.27747 2.64877 0
M  V30 2192 H 213.911 -2.85198 1.53114 0
M  V30 2193 H 212.818 -1.51207 3.4218 0
M  V30 2194 H 214.151 -2.00741 4.49404 0
M  V30 2195 N 215.803 -1.52179 -0.40978 0
M  V30 2196 C 217.08 -1.56769 -1.16974 0
M  V30 2197 C 217.46 -0.348322 -2.08206 0
M  V30 2198 O 216.808 0.664862 -2.18613 0
M  V30 2199 C 217.018 -2.89603 -1.9476 0
M  V30 2200 C 218.366 -3.42579 -2.50849 0
M  V30 2201 O 219.39 -2.91338 -2.04941 0
M  V30 2202 O 218.249 -4.32054 -3.34652 0
M  V30 2203 H 215.343 -0.631439 -0.534054 0
M  V30 2204 H 217.889 -1.64507 -0.416613 0
M  V30 2205 H 216.661 -3.698 -1.27921 0
M  V30 2206 H 216.284 -2.85155 -2.77079 0
M  V30 2207 N 217.281 0.66697 -1.42791 0
M  V30 2208 C 218.692 1.2478 -1.38877 0
M  V30 2209 C 219.043 1.96012 -0.0859426 0
M  V30 2210 O 218.168 2.00463 0.815081 0
M  V30 2211 C 218.763 2.26938 -2.51564 0
M  V30 2212 C 217.322 2.80529 -2.50959 0
M  V30 2213 C 216.469 1.54965 -2.29959 0
M  V30 2214 H 219.42 0.459853 -1.51892 0
M  V30 2215 H 219.441 3.08834 -2.22265 0
M  V30 2216 H 218.953 1.75065 -3.46372 0
M  V30 2217 H 217.054 3.36502 -1.59991 0
M  V30 2218 H 217.167 3.29012 -3.48265 0
M  V30 2219 H 215.531 1.81817 -1.78366 0
M  V30 2220 H 216.314 1.05047 -3.26833 0
M  V30 2221 N 218.759 1.29093 0.90403 0
M  V30 2222 C 219.669 1.15727 2.0407 0
M  V30 2223 C 220.685 0.0815308 1.73809 0
M  V30 2224 O 221.861 0.292749 1.99261 0
M  V30 2225 C 218.926 0.830424 3.36608 0
M  V30 2226 C 217.987 1.98955 3.80415 0
M  V30 2227 C 217.22 1.6782 5.06628 0
M  V30 2228 O 217.443 0.597105 5.67266 0
M  V30 2229 O 216.377 2.52486 5.46383 0
M  V30 2230 H 220.203 2.11171 2.18267 0
M  V30 2231 H 217.788 1.08504 1.027 0
M  V30 2232 H 219.67 0.662521 4.16159 0
M  V30 2233 H 218.345 -0.0942678 3.23563 0
M  V30 2234 H 217.252 2.21267 3.01648 0
M  V30 2235 H 218.585 2.89529 3.98037 0
M  V30 2236 N 220.237 -1.11381 1.11499 0
M  V30 2237 C 221.462 -1.87475 0.887019 0
M  V30 2238 C 221.887 -1.79639 -0.557796 0
M  V30 2239 O 221.245 -1.15924 -1.39396 0
M  V30 2240 C 221.293 -3.34213 1.35403 0
M  V30 2241 O 220.397 -4.0903 0.526146 0
M  V30 2242 H 219.738 -0.582099 0.319463 0
M  V30 2243 H 222.268 -1.40785 1.48461 0
M  V30 2244 H 222.278 -3.8506 1.34881 0
M  V30 2245 H 220.953 -3.39232 2.40612 0
M  V30 2246 H 219.53 -3.68082 0.597522 0
M  V30 2247 N 221.715 -0.905404 -1.28997 0
M  V30 2248 C 223.126 -0.581953 -1.77398 0
M  V30 2249 C 223.477 0.902552 -1.74208 0
M  V30 2250 O 222.602 1.70584 -1.33154 0
M  V30 2251 C 223.197 -1.04961 -3.22131 0
M  V30 2252 C 221.756 -0.777229 -3.68288 0
M  V30 2253 C 220.903 -1.22109 -2.48967 0
M  V30 2254 H 223.854 -1.08754 -1.15578 0
M  V30 2255 H 223.875 -0.387387 -3.78523 0
M  V30 2256 H 223.387 -2.13008 -3.24421 0
M  V30 2257 H 221.488 0.290383 -3.71467 0
M  V30 2258 H 221.601 -1.37911 -4.58822 0
M  V30 2259 H 219.965 -0.639971 -2.46529 0
M  V30 2260 H 220.748 -2.30972 -2.53982 0
M  V30 2261 N 223.193 1.4272 -0.668489 0
M  V30 2262 C 224.439 2.01923 -0.188419 0
M  V30 2263 C 224.772 1.52704 1.19979 0
M  V30 2264 O 224.047 0.726566 1.8042 0
M  V30 2265 C 224.33 3.59451 -0.216085 0
M  V30 2266 C 224.183 4.18864 -1.6393 0
M  V30 2267 C 225.502 4.37903 0.439179 0
M  V30 2268 H 222.621 0.733674 -0.0699412 0
M  V30 2269 H 225.263 1.69822 -0.852076 0
M  V30 2270 H 223.413 3.86929 0.349012 0
M  V30 2271 H 225.085 4.02362 -2.25616 0
M  V30 2272 H 223.328 3.74933 -2.18193 0
M  V30 2273 H 223.999 5.27987 -1.61039 0
M  V30 2274 H 226.475 4.16079 -0.0417878 0
M  V30 2275 H 225.351 5.47519 0.389157 0
M  V30 2276 H 225.612 4.15303 1.51577 0
M  V30 2277 N 224.671 0.411399 1.52136 0
M  V30 2278 C 225.634 -0.401089 2.25663 0
M  V30 2279 C 226.634 -0.971732 1.28117 0
M  V30 2280 O 227.824 -0.850254 1.52041 0
M  V30 2281 C 224.956 -1.56483 3.02863 0
M  V30 2282 H 226.149 0.24295 2.98914 0
M  V30 2283 H 223.702 0.163968 1.55438 0
M  V30 2284 H 224.437 -2.24567 2.33967 0
M  V30 2285 H 224.222 -1.16211 3.74483 0
M  V30 2286 H 225.712 -2.13951 3.58629 0
M  V30 2287 N 226.149 -1.5696 0.141893 0
M  V30 2288 C 227.096 -2.16501 -0.799737 0
M  V30 2289 C 228.066 -1.09643 -1.24771 0
M  V30 2290 O 229.251 -1.3766 -1.32115 0
M  V30 2291 C 226.391 -2.78679 -2.03549 0
M  V30 2292 C 225.504 -3.99914 -1.6338 0
M  V30 2293 C 224.639 -4.50106 -2.82096 0
M  V30 2294 C 223.678 -5.63819 -2.38275 0
M  V30 2295 N 222.815 -6.08651 -3.49983 0
M  V30 2296 H 227.655 -2.96632 -0.285179 0
M  V30 2297 H 225.192 -1.46533 -0.129053 0
M  V30 2298 H 227.15 -3.1287 -2.75986 0
M  V30 2299 H 225.78 -2.012 -2.52425 0
M  V30 2300 H 224.832 -3.71735 -0.807279 0
M  V30 2301 H 226.144 -4.82311 -1.27192 0
M  V30 2302 H 225.298 -4.86325 -3.62729 0
M  V30 2303 H 224.037 -3.66706 -3.21525 0
M  V30 2304 H 223.042 -5.2718 -1.56081 0
M  V30 2305 H 224.267 -6.49 -1.99938 0
M  V30 2306 H 222.213 -5.28188 -3.89042 0
M  V30 2307 H 222.13 -6.85961 -3.17794 0
M  V30 2308 H 223.398 -6.49515 -4.30988 0
M  V30 2309 N 227.627 0.131896 -1.57047 0
M  V30 2310 C 228.59 1.14638 -1.98471 0
M  V30 2311 C 229.59 1.35029 -0.873148 0
M  V30 2312 O 230.78 1.31764 -1.13946 0
M  V30 2313 C 227.912 2.50358 -2.31373 0
M  V30 2314 H 229.105 0.79064 -2.8929 0
M  V30 2315 H 226.658 0.375761 -1.51716 0
M  V30 2316 H 227.393 2.90876 -1.43393 0
M  V30 2317 H 227.178 2.36915 -3.12432 0
M  V30 2318 H 228.668 3.23395 -2.64207 0
M  V30 2319 N 229.106 1.52395 0.401703 0
M  V30 2320 C 230.036 1.79231 1.49661 0
M  V30 2321 C 231.017 0.643654 1.57452 0
M  V30 2322 O 232.202 0.889989 1.72606 0
M  V30 2323 C 229.332 1.94971 2.87409 0
M  V30 2324 C 228.286 3.10604 2.94465 0
M  V30 2325 C 227.612 3.11577 4.34538 0
M  V30 2326 C 228.912 4.49921 2.6527 0
M  V30 2327 H 230.606 2.70917 1.27454 0
M  V30 2328 H 228.152 1.30362 0.6117 0
M  V30 2329 H 230.105 2.12328 3.63999 0
M  V30 2330 H 228.829 0.999632 3.10926 0
M  V30 2331 H 227.488 2.93009 2.20321 0
M  V30 2332 H 227.136 2.14277 4.55076 0
M  V30 2333 H 226.836 3.89247 4.40183 0
M  V30 2334 H 228.36 3.31073 5.13053 0
M  V30 2335 H 229.774 4.67683 3.31581 0
M  V30 2336 H 228.171 5.29564 2.82281 0
M  V30 2337 H 229.241 4.57507 1.60671 0
M  V30 2338 N 230.584 -0.659388 1.43143 0
M  V30 2339 C 231.531 -1.77249 1.47822 0
M  V30 2340 C 232.501 -1.62818 0.328558 0
M  V30 2341 O 233.686 -1.83151 0.534838 0
M  V30 2342 C 230.826 -3.15371 1.40126 0
M  V30 2343 C 229.939 -3.4098 2.65249 0
M  V30 2344 C 229.074 -4.68915 2.49584 0
M  V30 2345 C 228.113 -4.87608 3.70006 0
M  V30 2346 N 227.25 -6.06796 3.53189 0
M  V30 2347 H 232.09 -1.72584 2.42938 0
M  V30 2348 H 229.627 -0.842297 1.20598 0
M  V30 2349 H 231.585 -3.9521 1.33659 0
M  V30 2350 H 230.215 -3.19121 0.485964 0
M  V30 2351 H 229.267 -2.55282 2.8202 0
M  V30 2352 H 230.579 -3.50681 3.54717 0
M  V30 2353 H 229.733 -5.56871 2.4079 0
M  V30 2354 H 228.472 -4.61524 1.5763 0
M  V30 2355 H 227.477 -3.9809 3.79215 0
M  V30 2356 H 228.702 -4.96834 4.62961 0
M  V30 2357 H 226.648 -6.00549 2.63965 0
M  V30 2358 H 226.565 -6.17428 4.36255 0
M  V30 2359 H 227.833 -6.9739 3.48236 0
M  V30 2360 N 232.062 -1.29571 -0.897171 0
M  V30 2361 C 233.025 -1.14913 -1.98312 0
M  V30 2362 C 234.025 -0.0838629 -1.60581 0
M  V30 2363 O 235.215 -0.331006 -1.71026 0
M  V30 2364 C 232.347 -0.757835 -3.3237 0
M  V30 2365 H 233.54 -2.11377 -2.12743 0
M  V30 2366 H 231.093 -1.12793 -1.08201 0
M  V30 2367 H 231.828 0.206837 -3.2364 0
M  V30 2368 H 231.613 -1.52755 -3.61121 0
M  V30 2369 H 233.103 -0.678408 -4.12053 0
M  V30 2370 N 233.54 1.10788 -1.12088 0
M  V30 2371 C 234.503 2.15207 -0.788577 0
M  V30 2372 C 235.503 1.59609 0.195317 0
M  V30 2373 O 236.693 1.74174 -0.0300193 0
M  V30 2374 C 233.825 3.4047 -0.171174 0
M  V30 2375 H 235.018 2.46116 -1.71368 0
M  V30 2376 H 232.571 1.26089 -0.923652 0
M  V30 2377 H 233.306 3.15176 0.763832 0
M  V30 2378 H 233.091 3.82109 -0.879514 0
M  V30 2379 H 234.581 4.17576 0.04496 0
M  V30 2380 N 235.018 0.912232 1.28515 0
M  V30 2381 C 235.928 0.404506 2.31086 0
M  V30 2382 C 236.944 -0.50707 1.66448 0
M  V30 2383 O 238.12 -0.393624 1.97516 0
M  V30 2384 C 235.185 -0.348572 3.44943 0
M  V30 2385 C 234.246 0.59604 4.25142 0
M  V30 2386 C 233.479 -0.121194 5.33562 0
M  V30 2387 O 233.702 -1.34317 5.5436 0
M  V30 2388 O 232.636 0.542716 5.99448 0
M  V30 2389 H 236.462 1.25579 2.76521 0
M  V30 2390 H 234.047 0.676998 1.33181 0
M  V30 2391 H 235.929 -0.77395 4.14232 0
M  V30 2392 H 234.604 -1.17571 3.01594 0
M  V30 2393 H 233.511 1.07079 3.58448 0
M  V30 2394 H 234.844 1.38995 4.72167 0
M  V30 2395 N 236.496 -1.42363 0.676048 0
M  V30 2396 C 237.912 -1.55811 0.345718 0
M  V30 2397 C 238.112 -1.65544 -1.14879 0
M  V30 2398 O 237.168 -1.62306 -1.93424 0
M  V30 2399 C 238.481 -2.80746 1.07713 0
M  V30 2400 C 240.029 -2.9452 1.05958 0
M  V30 2401 C 240.504 -4.22318 1.77233 0
M  V30 2402 N 241.995 -4.29233 1.74108 0
M  V30 2403 C 242.73 -5.26935 2.26113 0
M  V30 2404 N 242.226 -6.30783 2.86505 0
M  V30 2405 N 244.019 -5.18741 2.1648 0
M  V30 2406 H 236.17 -1.34289 1.6456 0
M  V30 2407 H 238.433 -0.646506 0.69335 0
M  V30 2408 H 238.139 -2.79696 2.13221 0
M  V30 2409 H 238.013 -3.71676 0.64316 0
M  V30 2410 H 240.4 -2.95097 0.0128255 0
M  V30 2411 H 240.481 -2.04817 1.53244 0
M  V30 2412 H 240.125 -4.22502 2.81877 0
M  V30 2413 H 240.055 -5.10958 1.27396 0
M  V30 2414 H 242.546 -3.54814 1.30059 0
M  V30 2415 H 242.859 -7.01691 3.23805 0
M  V30 2416 H 241.204 -6.31341 2.90575 0
M  V30 2417 H 244.395 -4.36533 1.68987 0
M  V30 2418 H 244.568 -5.94721 2.57316 0
M  V30 2419 N 237.974 -0.419461 -1.51915 0
M  V30 2420 C 239.22 0.153166 -2.02221 0
M  V30 2421 C 239.553 1.43907 -1.30401 0
M  V30 2422 O 238.828 1.90055 -0.413438 0
M  V30 2423 C 239.111 0.390291 -3.57979 0
M  V30 2424 C 238.964 -0.913014 -4.40436 0
M  V30 2425 C 240.283 1.16794 -4.2432 0
M  V30 2426 H 237.402 0.0541924 -0.735005 0
M  V30 2427 H 240.044 -0.554955 -1.81715 0
M  V30 2428 H 238.194 0.993491 -3.75582 0
M  V30 2429 H 239.866 -1.54882 -4.34522 0
M  V30 2430 H 238.109 -1.52168 -4.06236 0
M  V30 2431 H 238.78 -0.701361 -5.47526 0
M  V30 2432 H 241.256 0.657161 -4.10878 0
M  V30 2433 H 240.132 1.3026 -5.3322 0
M  V30 2434 H 240.393 2.19132 -3.83971 0
M  V30 2435 N 239.452 1.56882 -0.150215 0
M  V30 2436 C 240.729 1.87844 0.545327 0
M  V30 2437 C 241.109 1.0567 1.82749 0
M  V30 2438 O 240.457 0.144442 2.28043 0
M  V30 2439 C 240.667 3.39526 0.80767 0
M  V30 2440 C 242.015 4.08814 1.14703 0
M  V30 2441 O 243.039 3.44723 0.896917 0
M  V30 2442 O 241.898 5.22004 1.61784 0
M  V30 2443 H 238.992 0.778677 0.278553 0
M  V30 2444 H 241.538 1.68666 -0.187068 0
M  V30 2445 H 240.31 3.91173 -0.0996096 0
M  V30 2446 H 239.933 3.64243 1.59413 0
M  V30 2447 N 240.93 -0.123565 1.57115 0
M  V30 2448 C 242.176 -0.833386 1.84885 0
M  V30 2449 C 242.509 -1.79742 0.735292 0
M  V30 2450 O 241.784 -1.92764 -0.25925 0
M  V30 2451 C 242.067 -1.5873 3.23228 0
M  V30 2452 C 241.92 -0.643183 4.45178 0
M  V30 2453 C 243.239 -2.54453 3.59085 0
M  V30 2454 H 240.358 -0.301518 0.6725 0
M  V30 2455 H 243 -0.097778 1.89748 0
M  V30 2456 H 241.15 -2.21438 3.19214 0
M  V30 2457 H 242.822 -0.0253015 4.61293 0
M  V30 2458 H 241.065 0.0456139 4.33776 0
M  V30 2459 H 241.736 -1.20724 5.38637 0
M  V30 2460 H 244.212 -2.01853 3.63861 0
M  V30 2461 H 243.088 -3.04238 4.5687 0
M  V30 2462 H 243.349 -3.36906 2.86264 0
M  V30 2463 N 242.408 -1.52605 -0.393616 0
M  V30 2464 C 243.338 -1.80022 -1.48709 0
M  V30 2465 C 244.319 -0.651995 -1.57108 0
M  V30 2466 O 245.504 -0.89913 -1.72132 0
M  V30 2467 C 242.634 -1.96492 -2.86371 0
M  V30 2468 C 241.588 -3.12161 -2.92813 0
M  V30 2469 C 240.914 -3.13877 -4.3288 0
M  V30 2470 C 242.214 -4.51322 -2.6288 0
M  V30 2471 H 243.908 -2.71589 -1.26015 0
M  V30 2472 H 241.454 -1.30684 -0.604778 0
M  V30 2473 H 243.407 -2.14255 -3.62867 0
M  V30 2474 H 242.131 -1.01611 -3.10391 0
M  V30 2475 H 240.79 -2.94173 -2.18764 0
M  V30 2476 H 240.438 -2.16687 -4.53933 0
M  V30 2477 H 240.138 -3.91576 -4.38112 0
M  V30 2478 H 241.662 -3.33789 -5.1129 0
M  V30 2479 H 243.076 -4.69435 -3.29096 0
M  V30 2480 H 241.473 -5.31053 -2.79468 0
M  V30 2481 H 242.543 -4.58353 -1.58242 0
M  V30 2482 N 243.887 0.651787 -1.4349 0
M  V30 2483 C 245.303 0.96762 -1.26922 0
M  V30 2484 C 245.503 2.00602 -0.189982 0
M  V30 2485 O 244.559 2.48793 0.431107 0
M  V30 2486 C 245.872 1.45052 -2.63401 0
M  V30 2487 C 247.42 1.5671 -2.70945 0
M  V30 2488 C 247.895 2.0839 -4.07845 0
M  V30 2489 N 249.386 2.1569 -4.09917 0
M  V30 2490 C 250.121 2.56804 -5.12679 0
M  V30 2491 N 249.617 2.97203 -6.25813 0
M  V30 2492 N 251.41 2.56756 -5.00033 0
M  V30 2493 H 243.561 -0.0353158 -2.12371 0
M  V30 2494 H 245.824 0.0467858 -0.946845 0
M  V30 2495 H 245.53 0.761926 -3.43348 0
M  V30 2496 H 245.404 2.42529 -2.88894 0
M  V30 2497 H 247.791 2.2467 -1.9133 0
M  V30 2498 H 247.872 0.57662 -2.49216 0
M  V30 2499 H 247.516 1.41031 -4.87927 0
M  V30 2500 H 247.446 3.08271 -4.26938 0
M  V30 2501 H 249.937 1.87237 -3.28254 0
M  V30 2502 H 250.25 3.27328 -7.00055 0
M  V30 2503 H 248.595 2.95004 -6.29283 0
M  V30 2504 H 251.786 2.24572 -4.10713 0
M  V30 2505 H 251.959 2.88475 -5.80247 0
M  V30 2506 N 245.365 1.30045 0.890287 0
M  V30 2507 C 246.776 1.16738 1.45702 0
M  V30 2508 C 247.127 -0.233939 1.948 0
M  V30 2509 O 246.252 -1.13021 1.84541 0
M  V30 2510 C 246.847 2.11313 2.64825 0
M  V30 2511 C 245.406 2.02001 3.17604 0
M  V30 2512 C 244.553 2.01699 1.90296 0
M  V30 2513 H 247.504 1.42392 0.700726 0
M  V30 2514 H 247.525 1.69086 3.40867 0
M  V30 2515 H 247.037 3.13294 2.2906 0
M  V30 2516 H 245.138 1.03142 3.5804 0
M  V30 2517 H 245.251 2.90128 3.81264 0
M  V30 2518 H 243.615 1.46427 2.08402 0
M  V30 2519 H 244.398 3.05402 1.56795 0
M  V30 2520 N 246.843 -1.10192 1.12674 0
M  V30 2521 C 247.753 -2.20172 0.810026 0
M  V30 2522 C 248.769 -1.72821 -0.202188 0
M  V30 2523 O 249.945 -2.01369 -0.0351691 0
M  V30 2524 C 247.01 -3.45631 0.272007 0
M  V30 2525 C 246.071 -4.07704 1.34447 0
M  V30 2526 C 245.304 -5.27175 0.832029 0
M  V30 2527 O 245.527 -5.69425 -0.333284 0
M  V30 2528 O 244.461 -5.80168 1.60277 0
M  V30 2529 H 248.287 -2.49701 1.72867 0
M  V30 2530 H 245.872 -1.18977 0.903597 0
M  V30 2531 H 247.754 -4.21394 -0.0230219 0
M  V30 2532 H 246.429 -3.17723 -0.619164 0
M  V30 2533 H 245.336 -3.33614 1.6927 0
M  V30 2534 H 246.669 -4.3982 2.2095 0
M  V30 2535 N 248.321 -0.919034 -1.28029 0
M  V30 2536 C 249.253 -0.368762 -2.26214 0
M  V30 2537 C 250.266 0.495716 -1.55069 0
M  V30 2538 O 251.455 0.30974 -1.75792 0
M  V30 2539 C 248.555 0.491049 -3.35324 0
M  V30 2540 C 247.728 -0.352133 -4.3598 0
M  V30 2541 C 246.787 0.443622 -5.24327 0
M  V30 2542 O 245.813 -0.14566 -5.69014 0
M  V30 2543 N 247.015 1.74545 -5.53637 0
M  V30 2544 H 249.78 -1.21273 -2.74068 0
M  V30 2545 H 247.341 -0.785541 -1.41566 0
M  V30 2546 H 249.333 1.03026 -3.91366 0
M  V30 2547 H 247.903 1.23574 -2.87138 0
M  V30 2548 H 247.123 -1.07269 -3.79324 0
M  V30 2549 H 248.411 -0.928883 -5.00249 0
M  V30 2550 H 247.809 2.24666 -5.19174 0
M  V30 2551 H 246.366 2.23138 -6.12416 0
M  V30 2552 N 249.799 1.42003 -0.683588 0
M  V30 2553 C 251.047 2.01015 -0.209101 0
M  V30 2554 C 251.368 1.54365 1.19149 0
M  V30 2555 O 250.638 0.769083 1.80172 0
M  V30 2556 H 249.218 0.743294 -0.074315 0
M  V30 2557 H 251.88 1.73798 -0.882066 0
M  V30 2558 H 250.976 3.11343 -0.2172 0
M  V30 2559 N 251.277 0.427512 1.51691 0
M  V30 2560 C 252.505 -0.141191 2.06418 0
M  V30 2561 C 252.92 -1.37303 1.29589 0
M  V30 2562 O 252.277 -1.79059 0.352732 0
M  V30 2563 C 252.328 -0.473266 3.58389 0
M  V30 2564 O 252.049 0.709673 4.32314 0
M  V30 2565 C 253.55 -1.09371 4.29596 0
M  V30 2566 H 250.77 -0.0122747 0.670888 0
M  V30 2567 H 253.314 0.603764 1.95384 0
M  V30 2568 H 251.469 -1.16812 3.69369 0
M  V30 2569 H 251.883 0.42807 5.2275 0
M  V30 2570 H 253.357 -1.27613 5.37046 0
M  V30 2571 H 253.834 -2.072 3.87253 0
M  V30 2572 H 254.44 -0.43853 4.23033 0
M  V30 2573 N 252.755 -1.56801 0.158532 0
M  V30 2574 C 254.171 -1.5837 -0.197774 0
M  V30 2575 C 254.371 -1.17334 -1.63814 0
M  V30 2576 O 253.427 -0.878988 -2.36707 0
M  V30 2577 C 254.74 -3.00615 0.0714459 0
M  V30 2578 C 256.288 -3.12999 0.00864533 0
M  V30 2579 C 256.763 -4.57313 0.250685 0
M  V30 2580 N 258.254 -4.62777 0.198014 0
M  V30 2581 C 258.989 -5.72271 0.359642 0
M  V30 2582 N 258.485 -6.90371 0.579625 0
M  V30 2583 N 260.278 -5.61318 0.296438 0
M  V30 2584 H 252.429 -1.81765 1.09887 0
M  V30 2585 H 254.692 -0.841849 0.435884 0
M  V30 2586 H 254.398 -3.35068 1.06874 0
M  V30 2587 H 254.272 -3.71683 -0.642757 0
M  V30 2588 H 256.659 -2.7838 -0.979217 0
M  V30 2589 H 256.74 -2.44393 0.755359 0
M  V30 2590 H 256.384 -4.92639 1.2357 0
M  V30 2591 H 256.314 -5.24061 -0.516489 0
M  V30 2592 H 258.805 -3.77885 0.0331115 0
M  V30 2593 H 259.118 -7.69689 0.69275 0
M  V30 2594 H 257.463 -6.92264 0.616087 0
M  V30 2595 H 260.654 -4.67932 0.125258 0
M  V30 2596 H 260.827 -6.46599 0.425831 0
M  V30 2597 N 254.233 0.115231 -1.57178 0
M  V30 2598 C 255.644 0.67197 -1.74188 0
M  V30 2599 C 255.995 1.80125 -0.777777 0
M  V30 2600 O 255.12 2.16346 0.0484376 0
M  V30 2601 C 255.715 1.22573 -3.1585 0
M  V30 2602 C 254.274 1.72872 -3.34353 0
M  V30 2603 C 253.421 0.629972 -2.70049 0
M  V30 2604 H 256.372 -0.110712 -1.58313 0
M  V30 2605 H 256.393 2.09535 -3.17609 0
M  V30 2606 H 255.905 0.403598 -3.85996 0
M  V30 2607 H 254.006 2.5755 -2.69256 0
M  V30 2608 H 254.119 1.83557 -4.42542 0
M  V30 2609 H 252.483 1.0645 -2.31388 0
M  V30 2610 H 253.266 -0.181241 -3.42821 0
M  V30 2611 N 255.711 1.52812 0.385517 0
M  V30 2612 C 256.658 1.77838 1.47113 0
M  V30 2613 C 257.628 0.621757 1.54024 0
M  V30 2614 O 258.813 0.861846 1.70226 0
M  V30 2615 C 255.953 1.95618 2.84302 0
M  V30 2616 C 255.066 3.23316 2.86515 0
M  V30 2617 C 254.201 3.31394 4.15152 0
M  V30 2618 C 253.24 4.53201 4.1143 0
M  V30 2619 N 252.377 4.58542 5.3168 0
M  V30 2620 H 257.217 2.70482 1.25073 0
M  V30 2621 H 254.754 1.34006 0.606692 0
M  V30 2622 H 256.712 2.03912 3.63972 0
M  V30 2623 H 255.342 1.06331 3.04784 0
M  V30 2624 H 254.394 3.24076 1.99195 0
M  V30 2625 H 255.706 4.13045 2.79634 0
M  V30 2626 H 254.86 3.3889 5.03228 0
M  V30 2627 H 253.599 2.39645 4.24761 0
M  V30 2628 H 252.604 4.45827 3.21742 0
M  V30 2629 H 253.829 5.46271 4.03442 0
M  V30 2630 H 251.775 3.69686 5.41912 0
M  V30 2631 H 251.692 5.42148 5.26889 0
M  V30 2632 H 252.96 4.70296 6.21644 0
M  V30 2633 N 257.189 -0.644168 1.43834 0
M  V30 2634 C 258.119 -1.76814 1.52509 0
M  V30 2635 C 259.1 -1.65823 0.379052 0
M  V30 2636 O 260.285 -1.84781 0.597466 0
M  V30 2637 C 257.415 -3.15288 1.4564 0
M  V30 2638 C 256.369 -3.41053 2.58586 0
M  V30 2639 C 255.695 -4.79421 2.36769 0
M  V30 2640 C 256.995 -3.34902 4.00797 0
M  V30 2641 H 258.689 -1.69812 2.46586 0
M  V30 2642 H 256.235 -0.815542 1.1868 0
M  V30 2643 H 258.188 -3.93681 1.50311 0
M  V30 2644 H 256.912 -3.23043 0.480725 0
M  V30 2645 H 255.571 -2.65035 2.53282 0
M  V30 2646 H 255.219 -4.83863 1.37424 0
M  V30 2647 H 254.919 -4.9762 3.12487 0
M  V30 2648 H 256.443 -5.6006 2.43238 0
M  V30 2649 H 257.857 -4.03218 4.07539 0
M  V30 2650 H 256.254 -3.64637 4.76613 0
M  V30 2651 H 257.324 -2.32928 4.25291 0
M  V30 2652 N 258.668 -1.30515 -0.883378 0
M  V30 2653 C 259.915 -1.1943 -1.63532 0
M  V30 2654 C 260.243 0.250627 -1.92878 0
M  V30 2655 O 259.498 1.19556 -1.54935 0
M  V30 2656 C 259.797 -1.96994 -2.98209 0
M  V30 2657 C 259.463 -3.466 -2.88408 0
M  V30 2658 C 258.125 -3.87397 -2.85442 0
M  V30 2659 C 260.477 -4.41863 -2.76418 0
M  V30 2660 C 257.805 -5.21745 -2.68327 0
M  V30 2661 C 260.157 -5.7632 -2.60841 0
M  V30 2662 C 258.821 -6.16354 -2.56251 0
M  V30 2663 H 258.091 -0.437025 -0.598406 0
M  V30 2664 H 260.738 -1.61635 -1.02696 0
M  V30 2665 H 259.043 -1.47429 -3.63004 0
M  V30 2666 H 260.74 -1.85808 -3.55354 0
M  V30 2667 H 257.33 -3.14182 -2.91527 0
M  V30 2668 H 261.514 -4.11285 -2.77775 0
M  V30 2669 H 256.77 -5.51853 -2.63189 0
M  V30 2670 H 260.944 -6.49772 -2.50538 0
M  V30 2671 H 258.571 -7.20401 -2.42748 0
M  V30 2672 N 260.146 1.09593 -1.13257 0
M  V30 2673 C 261.376 1.85231 -0.915049 0
M  V30 2674 C 261.784 1.81345 0.539498 0
M  V30 2675 O 261.127 1.20664 1.38513 0
M  V30 2676 C 261.189 3.34275 -1.3229 0
M  V30 2677 C 260.853 3.6191 -2.79052 0
M  V30 2678 C 261.85 3.57777 -3.77216 0
M  V30 2679 C 259.535 3.90309 -3.16171 0
M  V30 2680 C 261.529 3.81652 -5.1051 0
M  V30 2681 C 259.216 4.13839 -4.49644 0
M  V30 2682 C 260.214 4.09502 -5.46623 0
M  V30 2683 O 259.902 4.32426 -6.77689 0
M  V30 2684 H 259.634 0.591997 -0.326367 0
M  V30 2685 H 262.188 1.394 -1.50854 0
M  V30 2686 H 260.418 3.80805 -0.672667 0
M  V30 2687 H 262.107 3.9132 -1.07812 0
M  V30 2688 H 262.873 3.35865 -3.49885 0
M  V30 2689 H 258.752 3.92811 -2.41289 0
M  V30 2690 H 262.296 3.78182 -5.86195 0
M  V30 2691 H 258.193 4.35232 -4.767 0
M  V30 2692 H 258.961 4.49896 -6.83766 0
M  V30 2693 N 261.624 0.925811 1.2754 0
M  V30 2694 C 262.554 0.440748 2.29303 0
M  V30 2695 C 263.535 -0.497971 1.62648 0
M  V30 2696 O 264.72 -0.403126 1.8997 0
M  V30 2697 C 261.85 -0.309048 3.45922 0
M  V30 2698 C 260.804 0.54166 4.24559 0
M  V30 2699 C 260.13 -0.337191 5.33636 0
M  V30 2700 C 261.43 1.80516 4.90114 0
M  V30 2701 H 263.124 1.29121 2.70126 0
M  V30 2702 H 260.67 0.622323 1.29858 0
M  V30 2703 H 262.623 -0.659315 4.1621 0
M  V30 2704 H 261.347 -1.19352 3.04011 0
M  V30 2705 H 260.006 0.874609 3.56014 0
M  V30 2706 H 259.654 -1.22056 4.87966 0
M  V30 2707 H 259.354 0.228497 5.87156 0
M  V30 2708 H 260.878 -0.683072 6.06767 0
M  V30 2709 H 262.292 1.52307 5.52698 0
M  V30 2710 H 260.689 2.3142 5.53683 0
M  V30 2711 H 261.759 2.52581 4.13921 0
M  V30 2712 N 263.102 -1.41638 0.69111 0
M  V30 2713 C 264.05 -2.32597 0.0115199 0
M  V30 2714 C 265.044 -1.5072 -0.773296 0
M  V30 2715 O 266.25 -1.66685 -0.67942 0
M  V30 2716 H 262.625 -0.751849 -0.0150746 0
M  V30 2717 H 264.596 -2.87593 0.795791 0
M  V30 2718 C 263.345 -3.35467 -0.914172 0
M  V30 2719 H 262.668 -3.9852 -0.319687 0
M  V30 2720 H 264.108 -4.01662 -1.35808 0
M  V30 2721 C 262.567 -2.69004 -2.02826 0
M  V30 2722 O 263.097 -2.53444 -3.11655 0
M  V30 2723 N 261.303 -2.2777 -1.80469 0
M  V30 2724 H 260.85 -2.40626 -0.919615 0
M  V30 2725 H 260.808 -1.83635 -2.55197 0
M  V30 2726 N 264.58 -0.43555 -1.51462 0
M  V30 2727 C 265.543 0.365137 -2.26273 0
M  V30 2728 C 266.543 0.951227 -1.29647 0
M  V30 2729 O 267.733 0.825958 -1.53374 0
M  V30 2730 C 264.865 1.51645 -3.05314 0
M  V30 2731 H 266.058 -0.290474 -2.9849 0
M  V30 2732 H 263.611 -0.188676 -1.55157 0
M  V30 2733 H 264.346 2.20816 -2.3751 0
M  V30 2734 H 264.131 1.10238 -3.76284 0
M  V30 2735 H 265.621 2.08218 -3.61987 0
M  V30 2736 N 266.058 1.56714 -0.166846 0
M  V30 2737 C 267.469 1.83378 0.350646 0
M  V30 2738 C 267.82 1.08646 1.63372 0
M  V30 2739 O 266.945 0.338058 2.13743 0
M  V30 2740 C 267.54 3.32643 0.642963 0
M  V30 2741 C 266.099 3.59818 1.10491 0
M  V30 2742 C 265.246 2.76954 0.138411 0
M  V30 2743 H 268.197 1.53803 -0.391193 0
M  V30 2744 H 268.218 3.49878 1.49551 0
M  V30 2745 H 267.73 3.87007 -0.291055 0
M  V30 2746 H 265.831 3.1086 2.05418 0
M  V30 2747 H 265.944 4.68178 1.01716 0
M  V30 2748 H 264.308 2.4666 0.634911 0
M  V30 2749 H 265.091 3.34097 -0.789549 0
M  V30 2750 N 267.536 -0.106894 1.57237 0
M  V30 2751 C 268.761 -0.830287 1.90055 0
M  V30 2752 C 269.186 -1.72064 0.75998 0
M  V30 2753 O 268.544 -1.78982 -0.288991 0
M  V30 2754 C 268.592 -1.6295 3.21683 0
M  V30 2755 O 267.696 -2.73748 3.08441 0
M  V30 2756 H 267.037 -0.228855 0.623315 0
M  V30 2757 H 269.567 -0.085658 2.04421 0
M  V30 2758 H 269.577 -2.01621 3.54701 0
M  V30 2759 H 268.252 -0.975989 4.04286 0
M  V30 2760 H 266.829 -2.38192 2.86913 0
M  V30 2761 N 269.014 -1.53014 -0.377408 0
M  V30 2762 C 269.961 -1.78616 -1.46168 0
M  V30 2763 C 270.931 -0.629917 -1.53692 0
M  V30 2764 O 272.116 -0.870861 -1.69766 0
M  V30 2765 C 269.256 -1.97123 -2.8326 0
M  V30 2766 C 268.369 -3.24831 -2.84796 0
M  V30 2767 C 267.504 -3.33591 -4.13389 0
M  V30 2768 C 266.543 -4.55377 -4.09021 0
M  V30 2769 N 265.68 -4.61355 -5.29241 0
M  V30 2770 H 270.52 -2.71142 -1.23637 0
M  V30 2771 H 268.057 -1.34326 -0.599577 0
M  V30 2772 H 270.015 -2.05839 -3.62886 0
M  V30 2773 H 268.645 -1.07946 -3.04216 0
M  V30 2774 H 267.697 -3.25128 -1.97474 0
M  V30 2775 H 269.009 -4.14523 -2.77439 0
M  V30 2776 H 268.163 -3.41554 -5.01424 0
M  V30 2777 H 266.902 -2.41894 -4.23484 0
M  V30 2778 H 265.907 -4.47527 -3.19373 0
M  V30 2779 H 267.132 -5.48402 -4.00539 0
M  V30 2780 H 265.078 -3.72554 -5.39944 0
M  V30 2781 H 264.995 -5.44935 -5.24006 0
M  V30 2782 H 266.263 -4.73586 -6.19141 0
M  V30 2783 N 270.492 0.636531 -1.44174 0
M  V30 2784 C 271.439 1.74875 -1.50624 0
M  V30 2785 C 272.409 1.62275 -0.35442 0
M  V30 2786 O 273.594 1.82276 -0.563908 0
M  V30 2787 C 270.734 3.13102 -1.45125 0
M  V30 2788 C 269.847 3.36717 -2.7064 0
M  V30 2789 C 268.982 4.64885 -2.57013 0
M  V30 2790 C 268.021 4.8166 -3.77717 0
M  V30 2791 N 267.158 6.01101 -3.62798 0
M  V30 2792 H 271.998 1.68697 -2.45653 0
M  V30 2793 H 269.535 0.823004 -1.21922 0
M  V30 2794 H 271.493 3.93034 -1.39929 0
M  V30 2795 H 270.123 3.18308 -0.536671 0
M  V30 2796 H 269.175 2.50763 -2.86046 0
M  V30 2797 H 270.487 3.44993 -3.60252 0
M  V30 2798 H 269.641 5.52969 -2.49619 0
M  V30 2799 H 268.38 4.58957 -1.64953 0
M  V30 2800 H 267.385 3.92007 -3.85501 0
M  V30 2801 H 268.61 4.89406 -4.70807 0
M  V30 2802 H 266.556 5.96273 -2.73486 0
M  V30 2803 H 266.473 6.10409 -4.46023 0
M  V30 2804 H 267.741 6.91761 -3.59286 0
M  V30 2805 N 271.97 1.30982 0.876444 0
M  V30 2806 C 273.218 1.20058 1.62575 0
M  V30 2807 C 273.539 -0.242947 1.93481 0
M  V30 2808 O 272.809 -1.1619 1.57724 0
M  V30 2809 H 271.389 0.44135 0.602677 0
M  V30 2810 H 274.051 1.64222 1.04962 0
M  V30 2811 H 273.147 1.76762 2.57219 0
M  V30 2812 N 273.449 -1.08991 1.13837 0
M  V30 2813 C 274.379 -2.17771 0.842507 0
M  V30 2814 C 275.36 -1.6892 -0.20001 0
M  V30 2815 O 276.545 -1.94113 -0.0579731 0
M  V30 2816 C 273.675 -3.4589 0.312644 0
M  V30 2817 C 272.629 -4.08099 1.28992 0
M  V30 2818 C 271.955 -5.31098 0.619623 0
M  V30 2819 C 273.255 -4.50077 2.65005 0
M  V30 2820 H 274.949 -2.42777 1.75213 0
M  V30 2821 H 272.495 -1.16682 0.843875 0
M  V30 2822 H 274.448 -4.21297 0.0933043 0
M  V30 2823 H 273.172 -3.20419 -0.632382 0
M  V30 2824 H 271.831 -3.34717 1.49533 0
M  V30 2825 H 271.479 -5.0191 -0.33102 0
M  V30 2826 H 271.179 -5.73674 1.27167 0
M  V30 2827 H 272.703 -6.09224 0.409669 0
M  V30 2828 H 274.117 -5.16688 2.48407 0
M  V30 2829 H 272.514 -5.03553 3.26427 0
M  V30 2830 H 273.584 -3.62257 3.22332 0
M  V30 2831 N 274.927 -0.932562 -1.27047 0
M  V30 2832 C 276.155 -0.592031 -1.98249 0
M  V30 2833 C 276.57 0.831062 -1.69525 0
M  V30 2834 O 275.927 1.55299 -0.958561 0
M  V30 2835 C 275.978 -0.814279 -3.5221 0
M  V30 2836 O 275.699 -2.18139 -3.7993 0
M  V30 2837 C 277.2 -0.483121 -4.4066 0
M  V30 2838 H 274.42 -0.223896 -0.632544 0
M  V30 2839 H 276.964 -1.25091 -1.61779 0
M  V30 2840 H 275.119 -0.20213 -3.86872 0
M  V30 2841 H 275.533 -2.235 -4.74498 0
M  V30 2842 H 277.007 -0.689298 -5.47679 0
M  V30 2843 H 277.484 0.581546 -4.35333 0
M  V30 2844 H 278.09 -1.07362 -4.11526 0
M  V30 2845 N 276.405 1.4127 -0.698611 0
M  V30 2846 C 277.821 1.55241 -0.370462 0
M  V30 2847 C 278.021 1.67351 1.12231 0
M  V30 2848 O 277.077 1.65363 1.90818 0
M  V30 2849 C 278.39 2.78997 -1.12165 0
M  V30 2850 C 279.938 2.92797 -1.1063 0
M  V30 2851 C 280.413 4.19445 -1.8393 0
M  V30 2852 N 281.904 4.26409 -1.80914 0
M  V30 2853 C 282.639 5.23271 -2.34467 0
M  V30 2854 N 282.135 6.26145 -2.96504 0
M  V30 2855 N 283.928 5.15232 -2.24706 0
M  V30 2856 H 276.079 1.31654 -1.66676 0
M  V30 2857 H 278.342 0.635393 -0.703548 0
M  V30 2858 H 278.048 2.76268 -2.17644 0
M  V30 2859 H 277.922 3.70606 -0.702209 0
M  V30 2860 H 280.309 2.95039 -0.0597713 0
M  V30 2861 H 280.39 2.02353 -1.56483 0
M  V30 2862 H 280.034 4.17964 -2.88563 0
M  V30 2863 H 279.964 5.08866 -1.35509 0
M  V30 2864 H 282.455 3.527 -1.35687 0
M  V30 2865 H 282.768 6.96451 -3.34927 0
M  V30 2866 H 281.113 6.26638 -3.00583 0
M  V30 2867 H 284.304 4.33789 -1.7591 0
M  V30 2868 H 284.477 5.90552 -2.66745 0
M  V30 2869 N 277.883 0.443576 1.51229 0
M  V30 2870 C 278.793 -0.370721 2.31652 0
M  V30 2871 C 279.809 -1.02186 1.40833 0
M  V30 2872 O 280.985 -1.01586 1.73903 0
M  V30 2873 C 278.05 -1.45376 3.14749 0
M  V30 2874 C 277.111 -0.822099 4.21355 0
M  V30 2875 C 276.344 -1.85353 5.0048 0
M  V30 2876 O 276.567 -3.07656 4.80316 0
M  V30 2877 O 275.501 -1.4406 5.84406 0
M  V30 2878 H 279.327 0.286002 3.0235 0
M  V30 2879 H 276.912 0.20598 1.47973 0
M  V30 2880 H 278.794 -2.08173 3.66391 0
M  V30 2881 H 277.469 -2.09445 2.46809 0
M  V30 2882 H 276.376 -0.155909 3.73775 0
M  V30 2883 H 277.709 -0.224797 4.91686 0
M  V30 2884 N 279.361 -1.56624 0.175154 0
M  V30 2885 C 280.586 -2.01813 -0.478137 0
M  V30 2886 C 281.011 -1.05457 -1.55757 0
M  V30 2887 O 280.369 -0.0347439 -1.81267 0
M  V30 2888 C 280.417 -3.45581 -1.02987 0
M  V30 2889 O 279.521 -3.52305 -2.14371 0
M  V30 2890 H 278.862 -0.65413 -0.114059 0
M  V30 2891 H 281.392 -2.02673 0.280173 0
M  V30 2892 H 281.402 -3.84965 -1.35151 0
M  V30 2893 H 280.077 -4.1521 -0.239556 0
M  V30 2894 H 278.654 -3.24783 -1.83222 0
M  V30 2895 N 280.839 0.0985539 -1.57292 0
M  V30 2896 C 281.749 1.13824 -2.05137 0
M  V30 2897 C 282.765 1.44076 -0.975604 0
M  V30 2898 O 283.941 1.54786 -1.28853 0
M  V30 2899 C 281.006 2.43969 -2.46333 0
M  V30 2900 C 280.067 2.2093 -3.68087 0
M  V30 2901 C 279.3 3.44869 -4.0731 0
M  V30 2902 O 279.523 4.52972 -3.46659 0
M  V30 2903 O 278.457 3.34661 -5.00285 0
M  V30 2904 H 282.283 0.761881 -2.93988 0
M  V30 2905 H 279.868 0.310818 -1.46131 0
M  V30 2906 H 281.75 3.20609 -2.73473 0
M  V30 2907 H 280.425 2.81038 -1.60621 0
M  V30 2908 H 279.332 1.42081 -3.46069 0
M  V30 2909 H 280.665 1.88755 -4.54568 0
M  V30 2910 N 282.317 1.53212 0.369288 0
M  V30 2911 C 283.563 1.69466 1.11397 0
M  V30 2912 C 283.896 0.443257 1.89074 0
M  V30 2913 O 283.171 -0.559386 1.86282 0
M  V30 2914 C 283.454 2.9422 2.07621 0
M  V30 2915 C 283.307 4.29508 1.33577 0
M  V30 2916 C 284.626 3.14565 3.07794 0
M  V30 2917 H 281.745 0.616667 0.403597 0
M  V30 2918 H 284.387 1.85845 0.395179 0
M  V30 2919 H 282.537 2.80387 2.68916 0
M  V30 2920 H 284.209 4.55147 0.750955 0
M  V30 2921 H 282.452 4.29088 0.637618 0
M  V30 2922 H 283.123 5.12926 2.03989 0
M  V30 2923 H 285.599 3.2756 2.56601 0
M  V30 2924 H 284.475 4.03297 3.72348 0
M  V30 2925 H 284.736 2.29675 3.77759 0
M  V30 2926 N 283.795 -0.628877 1.44509 0
M  V30 2927 C 284.745 -1.7345 1.47983 0
M  V30 2928 C 285.729 -1.5715 0.345373 0
M  V30 2929 O 286.921 -1.66848 0.590829 0
M  V30 2930 C 284.05 -3.12143 1.42904 0
M  V30 2931 C 283.136 -3.33906 2.61472 0
M  V30 2932 N 283.527 -3.26024 3.86706 0
M  V30 2933 C 281.825 -3.64709 2.56716 0
M  V30 2934 C 282.526 -3.48536 4.65722 0
M  V30 2935 N 281.502 -3.71517 3.96832 0
M  V30 2936 H 285.304 -1.65818 2.42655 0
M  V30 2937 H 282.818 -0.831419 1.39503 0
M  V30 2938 H 284.815 -3.91433 1.43476 0
M  V30 2939 H 283.475 -3.2094 0.492717 0
M  V30 2940 H 284.486 -3.04893 4.18641 0
M  V30 2941 H 281.163 -3.80473 1.71891 0
M  V30 2942 H 282.553 -3.48016 5.74747 0
M  V30 2943 N 285.273 -1.31445 -0.869486 0
M  V30 2944 C 286.223 -1.15731 -1.96444 0
M  V30 2945 C 287.207 -0.0681855 -1.60755 0
M  V30 2946 O 288.399 -0.293154 -1.74555 0
M  V30 2947 C 285.528 -0.867255 -3.32165 0
M  V30 2948 C 284.614 -1.99738 -3.74119 0
M  V30 2949 N 285.005 -3.24447 -3.88031 0
M  V30 2950 C 283.303 -1.89723 -4.03635 0
M  V30 2951 C 284.004 -3.98374 -4.23879 0
M  V30 2952 N 282.98 -3.26547 -4.3459 0
M  V30 2953 H 286.782 -2.10296 -2.05312 0
M  V30 2954 H 284.296 -1.23009 -1.06031 0
M  V30 2955 H 286.293 -0.735668 -4.10358 0
M  V30 2956 H 284.953 0.0701614 -3.24624 0
M  V30 2957 H 285.964 -3.59557 -3.72746 0
M  V30 2958 H 282.641 -1.03449 -4.04481 0
M  V30 2959 H 284.031 -5.05844 -4.42235 0
M  V30 2960 N 286.751 1.08385 -1.14413 0
M  V30 2961 C 287.999 1.80419 -0.910679 0
M  V30 2962 C 288.32 1.86658 0.564243 0
M  V30 2963 O 287.59 1.35985 1.41014 0
M  V30 2964 H 286.17 0.668204 -0.333934 0
M  V30 2965 H 288.832 1.31037 -1.44275 0
M  V30 2966 H 287.928 2.83238 -1.31082 0
M  V30 2967 O 288.268 1.07005 1.20964 0
M  V30 2968 H 288.959 0.754737 1.78391 0
M  V30 END ATOM
M  V30 BEGIN BOND
M  V30 END BOND
M  V30 END CTAB
M  END
$$$$
