drugbank_target|Q81Y15 Transketolase (DB02078)
 OpenBabel12092120503D

  0  0  0     0  0            999 V3000
M  V30 BEGIN CTAB
M  V30 COUNTS 10033 10142 0 0 0
M  V30 BEGIN ATOM
M  V30 1 H -0.908 1.98254 -0.117106 0
M  V30 2 N 0 1.576 0 0
M  V30 3 C 0.933 2.03868 1.02534 0
M  V30 4 C 1.911 0.928543 1.3348 0
M  V30 5 O 3.095 1.19667 1.45644 0
M  V30 6 C 0.222 2.43627 2.35294 0
M  V30 7 C -0.732 3.65373 2.2001 0
M  V30 8 S 0.101 5.13292 1.52614 0
M  V30 9 C 1.257 5.56322 2.86805 0
M  V30 10 H 1.49 2.90518 0.631377 0
M  V30 11 H -0.977 1.52953 0.210867 0
M  V30 12 H 0.981 2.67203 3.11629 0
M  V30 13 H -0.358 1.57376 2.7183 0
M  V30 14 H -1.165 3.90944 3.18086 0
M  V30 15 H -1.563 3.418 1.51819 0
M  V30 16 H 0.729 5.58782 3.83104 0
M  V30 17 H 1.672 6.56266 2.65933 0
M  V30 18 H 2.08 4.83886 2.90714 0
M  V30 19 N 1.4781 -0.272755 1.55222 0
M  V30 20 C 2.7031 -1.02683 1.80197 0
M  V30 21 C 3.1281 -1.79142 0.573551 0
M  V30 22 O 2.4861 -1.74917 -0.476849 0
M  V30 23 C 2.5341 -1.9609 3.02624 0
M  V30 24 O 1.6381 -3.04863 2.77727 0
M  V30 25 H 0.9791 -0.293557 0.595584 0
M  V30 26 H 3.5091 -0.30159 2.02365 0
M  V30 27 H 3.5191 -2.38039 3.31363 0
M  V30 28 H 2.1941 -1.39851 3.91682 0
M  V30 29 H 0.7711 -2.67228 2.60084 0
M  V30 30 N 2.9562 -1.48159 -0.537278 0
M  V30 31 C 3.9062 -1.5854 -1.63857 0
M  V30 32 C 4.8902 -0.442969 -1.54682 0
M  V30 33 O 6.0822 -0.69401 -1.62827 0
M  V30 34 C 3.2112 -1.62144 -3.02596 0
M  V30 35 C 2.2972 -2.81841 -3.16901 0
M  V30 36 N 2.6882 -4.06337 -3.01204 0
M  V30 37 C 0.9862 -2.79021 -3.47942 0
M  V30 38 C 1.6872 -4.86606 -3.18731 0
M  V30 39 N 0.6632 -4.19288 -3.45974 0
M  V30 40 H 4.4652 -2.5255 -1.50319 0
M  V30 41 H 1.9792 -1.4443 -0.742555 0
M  V30 42 H 3.9762 -1.67674 -3.81695 0
M  V30 43 H 2.6362 -0.69245 -3.17231 0
M  V30 44 H 3.6472 -4.36888 -2.78117 0
M  V30 45 H 0.3242 -1.95347 -3.6898 0
M  V30 46 H 1.7142 -5.95385 -3.11394 0
M  V30 47 N 4.4343 0.785586 -1.36625 0
M  V30 48 C 5.6593 1.57963 -1.34397 0
M  V30 49 C 6.0843 1.87964 0.071526 0
M  V30 50 O 5.4423 1.48182 1.0446 0
M  V30 51 C 5.4903 2.87511 -2.17646 0
M  V30 52 O 4.5943 3.81281 -1.57158 0
M  V30 53 H 3.9353 0.479014 -0.459828 0
M  V30 54 H 6.4653 0.973411 -1.79961 0
M  V30 55 H 6.4753 3.36745 -2.30362 0
M  V30 56 H 5.1503 2.65002 -3.20541 0
M  V30 57 H 3.7273 3.39885 -1.53403 0
M  V30 58 N 5.9124 1.20967 1.01018 0
M  V30 59 C 7.1614 1.01796 1.74128 0
M  V30 60 C 7.4744 -0.449691 1.90361 0
M  V30 61 O 8.6804 -0.76068 2.60626 0
M  V30 62 C 7.1364 1.7727 3.13215 0
M  V30 63 C 6.7444 3.28171 3.04972 0
M  V30 64 C 8.4884 1.66489 3.90489 0
M  V30 65 C 6.3954 3.96156 4.39107 0
M  V30 66 H 5.3254 0.377276 0.652824 0
M  V30 67 H 7.9764 1.44651 1.12909 0
M  V30 68 H 6.3584 1.27205 3.75013 0
M  V30 69 H 7.5324 3.85499 2.52443 0
M  V30 70 H 5.8474 3.39437 2.41188 0
M  V30 71 H 8.4444 2.14617 4.89738 0
M  V30 72 H 8.7874 0.6222 4.11624 0
M  V30 73 H 9.3204 2.14003 3.35332 0
M  V30 74 H 6.0594 5.00604 4.23174 0
M  V30 75 H 5.5794 3.43617 4.91617 0
M  V30 76 H 7.2584 4.00774 5.07926 0
M  V30 77 N 7.3905 -1.2043 1.01659 0
M  V30 78 C 8.3005 -2.2689 0.596484 0
M  V30 79 C 9.3165 -1.70107 -0.36599 0
M  V30 80 O 10.4925 -2.00117 -0.226942 0
M  V30 81 C 7.5575 -3.4665 -0.0586659 0
M  V30 82 C 6.6185 -4.18662 0.949751 0
M  V30 83 C 5.8515 -5.32705 0.32577 0
M  V30 84 O 6.0745 -5.63656 -0.874509 0
M  V30 85 O 5.0085 -5.92803 1.04249 0
M  V30 86 H 8.8345 -2.65041 1.4828 0
M  V30 87 H 6.4195 -1.27048 0.786082 0
M  V30 88 H 8.3015 -4.19256 -0.424564 0
M  V30 89 H 6.9765 -3.10375 -0.91918 0
M  V30 90 H 5.8835 -3.48229 1.36702 0
M  V30 91 H 7.2165 -4.58878 1.78023 0
M  V30 92 N 8.8686 -0.792821 -1.36206 0
M  V30 93 C 9.8006 -0.151469 -2.28699 0
M  V30 94 C 10.8136 0.641262 -1.49638 0
M  V30 95 O 12.0026 0.475885 -1.72039 0
M  V30 96 C 9.1026 0.808424 -3.29117 0
M  V30 97 C 8.2756 0.0650202 -4.37352 0
M  V30 98 C 7.3346 0.941358 -5.17711 0
M  V30 99 O 6.3606 0.397352 -5.67811 0
M  V30 100 N 7.5626 2.2652 -5.3448 0
M  V30 101 H 10.3276 -0.945982 -2.84379 0
M  V30 102 H 7.8886 -0.647032 -1.48409 0
M  V30 103 H 9.8806 1.3986 -3.79765 0
M  V30 104 H 8.4506 1.5038 -2.74052 0
M  V30 105 H 7.6706 -0.706255 -3.87822 0
M  V30 106 H 8.9586 -0.447847 -5.06825 0
M  V30 107 H 8.3566 2.73128 -4.95396 0
M  V30 108 H 6.9136 2.80493 -5.88359 0
M  V30 109 N 10.3467 1.47872 -0.545128 0
M  V30 110 C 11.2767 2.32661 0.197793 0
M  V30 111 C 12.2577 1.43041 0.920504 0
M  V30 112 O 13.4427 1.71912 0.90333 0
M  V30 113 C 10.5727 3.24569 1.23582 0
M  V30 114 C 9.5267 4.23333 0.630323 0
M  V30 115 C 8.8527 5.0448 1.77211 0
M  V30 116 C 10.1527 5.20704 -0.407974 0
M  V30 117 H 11.8467 2.95024 -0.510045 0
M  V30 118 H 9.3927 1.4187 -0.246731 0
M  V30 119 H 11.3457 3.8272 1.76362 0
M  V30 120 H 10.0697 2.60236 1.97344 0
M  V30 121 H 8.7287 3.6639 0.123922 0
M  V30 122 H 8.3767 4.36561 2.49847 0
M  V30 123 H 8.0767 5.71339 1.37281 0
M  V30 124 H 9.6007 5.65487 2.3034 0
M  V30 125 H 11.0147 5.7329 0.033305 0
M  V30 126 H 9.4117 5.95699 -0.725486 0
M  V30 127 H 10.4817 4.66917 -1.30828 0
M  V30 128 N 11.8248 0.280983 1.55075 0
M  V30 129 C 13.0498 -0.340154 2.04592 0
M  V30 130 C 13.4748 -1.48246 1.15779 0
M  V30 131 O 12.8328 -1.80614 0.15761 0
M  V30 132 C 12.8808 -0.793104 3.5177 0
M  V30 133 O 11.9848 -1.89981 3.66034 0
M  V30 134 H 11.3258 -0.0694289 0.66036 0
M  V30 135 H 13.8558 0.416993 2.00306 0
M  V30 136 H 13.8658 -1.08729 3.93245 0
M  V30 137 H 12.5408 0.0426163 4.15878 0
M  V30 138 H 11.1178 -1.60771 3.36463 0
M  V30 139 N 13.3029 -1.57598 0.00835791 0
M  V30 140 C 14.5519 -1.90107 -0.673968 0
M  V30 141 C 14.8649 -0.884275 -1.7447 0
M  V30 142 O 16.0709 -1.09987 -2.48224 0
M  V30 143 C 14.5269 -3.37497 -1.24995 0
M  V30 144 C 14.1349 -4.47491 -0.2136 0
M  V30 145 C 15.8789 -3.79104 -1.90999 0
M  V30 146 C 13.7859 -5.85963 -0.80005 0
M  V30 147 H 12.7159 -0.709393 -0.255495 0
M  V30 148 H 15.3669 -1.83365 0.0702693 0
M  V30 149 H 13.7489 -3.39102 -2.04513 0
M  V30 150 H 14.9229 -4.57414 0.557596 0
M  V30 151 H 13.2379 -4.14956 0.346474 0
M  V30 152 H 15.8349 -4.79901 -2.35795 0
M  V30 153 H 16.1779 -3.1306 -2.74407 0
M  V30 154 H 16.7109 -3.79833 -1.18203 0
M  V30 155 H 13.4499 -6.555 -0.00456708 0
M  V30 156 H 12.9699 -5.79687 -1.54021 0
M  V30 157 H 14.6489 -6.33884 -1.29615 0
M  V30 158 N 14.781 0.264519 -1.55364 0
M  V30 159 C 15.729 1.34702 -1.89626 0
M  V30 160 C 16.723 1.50712 -0.773459 0
M  V30 161 O 17.929 1.52395 -0.957897 0
M  V30 162 H 14.304 0.450682 -0.601988 0
M  V30 163 H 16.275 1.0306 -2.80038 0
M  V30 164 C 15.024 2.6989 -2.19214 0
M  V30 165 H 14.347 2.58365 -3.05103 0
M  V30 166 H 15.787 3.44553 -2.47102 0
M  V30 167 C 14.246 3.21637 -1.00254 0
M  V30 168 O 14.776 4.00973 -0.241501 0
M  V30 169 N 12.982 2.7943 -0.797938 0
M  V30 170 H 12.529 2.15026 -1.4185 0
M  V30 171 H 12.487 3.144 -0.00363422 0
M  V30 172 N 16.2591 1.48442 0.529413 0
M  V30 173 C 17.4871 1.60151 1.30994 0
M  V30 174 C 17.9021 0.261985 1.86973 0
M  V30 175 O 17.2591 -0.748805 1.66431 0
M  V30 176 C 17.3101 2.64854 2.46038 0
M  V30 177 O 17.0311 3.93608 1.92365 0
M  V30 178 C 18.5321 2.87007 3.37849 0
M  V30 179 H 15.7521 0.539971 0.398338 0
M  V30 180 H 18.2961 1.94273 0.638597 0
M  V30 181 H 16.4511 2.33589 3.09055 0
M  V30 182 H 16.8651 4.51055 2.67675 0
M  V30 183 H 18.3391 3.64068 4.14919 0
M  V30 184 H 18.8161 1.95852 3.93114 0
M  V30 185 H 19.4221 3.19579 2.80623 0
M  V30 186 N 17.7372 -0.778329 1.37039 0
M  V30 187 C 18.9862 -1.53189 1.3121 0
M  V30 188 C 19.2992 -1.95328 -0.103095 0
M  V30 189 O 20.5052 -2.70012 -0.283826 0
M  V30 190 C 18.9612 -2.76591 2.30272 0
M  V30 191 C 18.5692 -2.41577 3.77286 0
M  V30 192 C 20.3132 -3.5455 2.33441 0
M  V30 193 C 18.2202 -3.61441 4.68096 0
M  V30 194 H 17.1502 -0.5751 0.487622 0
M  V30 195 H 19.8012 -0.853101 1.62464 0
M  V30 196 H 18.1832 -3.46326 1.92027 0
M  V30 197 H 19.3572 -1.79668 4.2433 0
M  V30 198 H 17.6722 -1.76806 3.76999 0
M  V30 199 H 20.2692 -4.43628 2.98493 0
M  V30 200 H 20.6122 -3.93936 1.34611 0
M  V30 201 H 21.1452 -2.91805 2.7036 0
M  V30 202 H 17.8842 -3.27142 5.6803 0
M  V30 203 H 17.4042 -4.22478 4.25761 0
M  V30 204 H 19.0832 -4.28335 4.8491 0
M  V30 205 N 19.2153 -1.21501 -1.00376 0
M  V30 206 C 20.6313 -0.972629 -1.26539 0
M  V30 207 C 20.8313 0.340257 -1.98606 0
M  V30 208 O 19.8873 1.06561 -2.28913 0
M  V30 209 C 21.2003 -2.16404 -2.08781 0
M  V30 210 C 22.7483 -2.20643 -2.22004 0
M  V30 211 C 23.2233 -3.39306 -3.07629 0
M  V30 212 N 24.7143 -3.39401 -3.15217 0
M  V30 213 C 25.4493 -4.27867 -3.81729 0
M  V30 214 N 24.9453 -5.26533 -4.5026 0
M  V30 215 N 26.7383 -4.15672 -3.78382 0
M  V30 216 H 18.8893 -2.05929 -0.520281 0
M  V30 217 H 21.1523 -0.901803 -0.292328 0
M  V30 218 H 20.8583 -3.11554 -1.63178 0
M  V30 219 H 20.7323 -2.15567 -3.09533 0
M  V30 220 H 23.1193 -1.26048 -2.66825 0
M  V30 221 H 23.2003 -2.25523 -1.20718 0
M  V30 222 H 22.8443 -4.34195 -2.63509 0
M  V30 223 H 22.7743 -3.31665 -4.09031 0
M  V30 224 H 25.2653 -2.67997 -2.66432 0
M  V30 225 H 25.5783 -5.90337 -4.98721 0
M  V30 226 H 23.9233 -5.30457 -4.49044 0
M  V30 227 H 27.1143 -3.3785 -3.23998 0
M  V30 228 H 27.2873 -4.84825 -4.2994 0
M  V30 229 N 20.6934 1.19889 -1.02296 0
M  V30 230 C 21.9214 1.9339 -0.735399 0
M  V30 231 C 22.3364 1.75148 0.704887 0
M  V30 232 O 21.6934 1.06954 1.47875 0
M  V30 233 C 21.7444 3.45313 -1.06962 0
M  V30 234 O 21.4654 3.62964 -2.45334 0
M  V30 235 C 22.9664 4.35948 -0.804021 0
M  V30 236 H 20.1864 0.61448 -0.269546 0
M  V30 237 H 22.7304 1.522 -1.36585 0
M  V30 238 H 20.8854 3.84359 -0.484455 0
M  V30 239 H 21.2994 4.56886 -2.57595 0
M  V30 240 H 22.7734 5.41174 -1.0879 0
M  V30 241 H 23.2504 4.3842 0.261691 0
M  V30 242 H 23.8564 4.02574 -1.37164 0
M  V30 243 N 22.1715 0.800033 1.35784 0
M  V30 244 C 23.1015 0.220184 2.3246 0
M  V30 245 C 24.0825 -0.65073 1.57161 0
M  V30 246 O 25.2675 -0.582359 1.85263 0
M  V30 247 C 22.3975 -0.637353 3.41402 0
M  V30 248 C 21.3515 0.134531 4.27789 0
M  V30 249 C 20.6775 -0.844285 5.27992 0
M  V30 250 C 21.9775 1.32979 5.05088 0
M  V30 251 H 23.6715 1.02787 2.81203 0
M  V30 252 H 21.2175 0.495717 1.35199 0
M  V30 253 H 23.1705 -1.05302 4.08031 0
M  V30 254 H 21.8945 -1.47785 2.91251 0
M  V30 255 H 20.5535 0.531296 3.6273 0
M  V30 256 H 20.2015 -1.68011 4.74111 0
M  V30 257 H 19.9015 -0.332184 5.8666 0
M  V30 258 H 21.4255 -1.2583 5.97494 0
M  V30 259 H 22.8395 0.98934 5.64699 0
M  V30 260 H 21.2365 1.77593 5.7322 0
M  V30 261 H 22.3065 2.11978 4.36111 0
M  V30 262 N 23.6496 -1.47581 0.552962 0
M  V30 263 C 24.8746 -2.07378 0.0300593 0
M  V30 264 C 25.2996 -1.40355 -1.25229 0
M  V30 265 O 24.6576 -0.477099 -1.7491 0
M  V30 266 C 24.7056 -3.60274 -0.153231 0
M  V30 267 O 23.8096 -3.94041 -1.21678 0
M  V30 268 H 23.1506 -0.662158 0.0494182 0
M  V30 269 H 25.6806 -1.89662 0.767434 0
M  V30 270 H 25.6906 -4.0633 -0.368761 0
M  V30 271 H 24.3656 -4.08455 0.783397 0
M  V30 272 H 22.9426 -3.59735 -0.982079 0
M  V30 273 N 25.1277 -0.289203 -1.54924 0
M  V30 274 C 26.3767 0.324231 -1.99077 0
M  V30 275 C 26.6897 1.5591 -1.18117 0
M  V30 276 O 27.8957 2.24637 -1.52481 0
M  V30 277 C 26.3517 0.628209 -3.54375 0
M  V30 278 C 25.9597 -0.587647 -4.44129 0
M  V30 279 C 27.7037 1.20349 -4.07083 0
M  V30 280 C 25.6107 -0.257475 -5.90839 0
M  V30 281 H 24.5407 0.124924 -0.743579 0
M  V30 282 H 27.1917 -0.396063 -1.79175 0
M  V30 283 H 25.5737 1.40778 -3.70132 0
M  V30 284 H 26.7477 -1.36418 -4.40144 0
M  V30 285 H 25.0627 -1.08074 -4.0213 0
M  V30 286 H 27.6597 1.46456 -5.14252 0
M  V30 287 H 28.0027 2.14195 -3.56968 0
M  V30 288 H 28.5357 0.485889 -3.94821 0
M  V30 289 H 25.2747 -1.16419 -6.45079 0
M  V30 290 H 24.7947 0.482018 -5.9786 0
M  V30 291 H 26.4737 0.145238 -6.46837 0
M  V30 292 N 26.6058 1.57591 -0.0167156 0
M  V30 293 C 27.8828 1.82547 0.702564 0
M  V30 294 C 28.2628 0.898018 1.91047 0
M  V30 295 O 27.6108 -0.0493456 2.28447 0
M  V30 296 C 27.8208 3.31459 1.09251 0
M  V30 297 C 29.1688 3.97622 1.48937 0
M  V30 298 O 30.1928 3.35881 1.18584 0
M  V30 299 O 29.0518 5.06415 2.05442 0
M  V30 300 H 26.1458 0.752268 0.343544 0
M  V30 301 H 28.6918 1.69644 -0.0434495 0
M  V30 302 H 27.4638 3.9061 0.23227 0
M  V30 303 H 27.0868 3.49422 1.89709 0
M  V30 304 N 28.0839 -0.256276 1.55502 0
M  V30 305 C 29.0469 -1.30047 1.88734 0
M  V30 306 C 30.0469 -1.4154 0.763086 0
M  V30 307 O 31.2369 -1.40403 1.03115 0
M  V30 308 C 28.3689 -2.67953 2.10747 0
M  V30 309 H 29.5619 -1.01802 2.82093 0
M  V30 310 H 27.1149 -0.495134 1.4825 0
M  V30 311 H 27.8499 -3.01351 1.19825 0
M  V30 312 H 27.6349 -2.60993 2.92617 0
M  V30 313 H 29.1249 -3.43368 2.37673 0
M  V30 314 N 29.562 -1.4872 -0.521534 0
M  V30 315 C 30.811 -1.56419 -1.27341 0
M  V30 316 C 31.124 -0.246805 -1.94037 0
M  V30 317 O 32.33 -0.202122 -2.70747 0
M  V30 318 C 30.786 -2.75896 -2.31105 0
M  V30 319 C 30.394 -4.14311 -1.70441 0
M  V30 320 C 32.138 -2.92913 -3.07249 0
M  V30 321 C 30.045 -5.25038 -2.72194 0
M  V30 322 H 28.975 -0.582344 -0.478949 0
M  V30 323 H 31.626 -1.75071 -0.549779 0
M  V30 324 H 30.008 -2.50697 -3.06541 0
M  V30 325 H 31.182 -4.49564 -1.01136 0
M  V30 326 H 29.497 -4.02482 -1.06759 0
M  V30 327 H 32.094 -3.72805 -3.83302 0
M  V30 328 H 32.437 -2.02689 -3.63625 0
M  V30 329 H 32.97 -3.18054 -2.38928 0
M  V30 330 H 29.709 -6.17255 -2.20627 0
M  V30 331 H 29.229 -4.94263 -3.39801 0
M  V30 332 H 30.908 -5.53508 -3.35019 0
M  V30 333 N 31.0401 0.771051 -1.3745 0
M  V30 334 C 31.9501 1.91538 -1.35464 0
M  V30 335 C 32.9661 1.72134 -0.254123 0
M  V30 336 O 34.1421 1.95358 -0.489626 0
M  V30 337 C 31.2071 3.26671 -1.16134 0
M  V30 338 C 30.2681 3.58723 -2.35831 0
M  V30 339 C 29.5011 4.87409 -2.17413 0
M  V30 340 O 29.7241 5.58506 -1.15876 0
M  V30 341 O 28.6581 5.18539 -3.05615 0
M  V30 342 H 32.4841 1.96165 -2.31847 0
M  V30 343 H 30.0691 0.9139 -1.18187 0
M  V30 344 H 31.9511 4.07499 -1.07345 0
M  V30 345 H 30.6261 3.22894 -0.228251 0
M  V30 346 H 29.5331 2.78127 -2.50192 0
M  V30 347 H 30.8661 3.67243 -3.27709 0
M  V30 348 N 32.5182 1.22032 0.997298 0
M  V30 349 C 33.4652 0.986467 2.08656 0
M  V30 350 C 34.4352 -0.0902671 1.65855 0
M  V30 351 O 35.6202 0.0584294 1.90711 0
M  V30 352 C 32.7602 0.565569 3.40434 0
M  V30 353 C 31.8732 1.71259 3.96604 0
M  V30 354 C 31.0082 1.24011 5.16522 0
M  V30 355 C 30.0472 2.35896 5.64818 0
M  V30 356 N 29.1842 1.89726 6.7598 0
M  V30 357 H 34.0242 1.91892 2.27994 0
M  V30 358 H 31.5612 0.956199 1.11782 0
M  V30 359 H 33.5192 0.302738 4.161 0
M  V30 360 H 32.1492 -0.329879 3.2111 0
M  V30 361 H 31.2012 2.08986 3.17851 0
M  V30 362 H 32.5132 2.55436 4.28432 0
M  V30 363 H 31.6672 0.934395 5.99461 0
M  V30 364 H 30.4062 0.368487 4.86306 0
M  V30 365 H 29.4112 2.67261 4.8047 0
M  V30 366 H 30.6362 3.23567 5.97061 0
M  V30 367 H 28.5822 1.0492 6.47555 0
M  V30 368 H 28.4992 2.67471 7.07103 0
M  V30 369 H 29.7672 1.62211 7.62435 0
M  V30 370 N 33.9963 -1.19345 1.0293 0
M  V30 371 C 34.9593 -2.20793 0.615069 0
M  V30 372 C 35.9593 -1.57553 -0.321533 0
M  V30 373 O 37.1493 -1.73862 -0.108483 0
M  V30 374 C 34.2813 -3.40754 -0.0999222 0
M  V30 375 H 35.4743 -2.58955 1.51269 0
M  V30 376 H 33.0273 -1.3303 0.820534 0
M  V30 377 H 33.7623 -3.0811 -1.01187 0
M  V30 378 H 33.5473 -3.87889 0.57309 0
M  V30 379 H 35.0373 -4.15898 -0.376645 0
M  V30 380 N 35.4744 -0.807222 -1.35358 0
M  V30 381 C 36.4224 -0.20614 -2.31685 0
M  V30 382 C 37.4164 0.644445 -1.56663 0
M  V30 383 O 38.6224 0.537538 -1.71786 0
M  V30 384 H 34.9974 -0.0479006 -0.750473 0
M  V30 385 H 36.9684 -1.03369 -2.79924 0
M  V30 386 C 35.7174 0.630212 -3.41941 0
M  V30 387 H 35.0404 -0.0149558 -3.99797 0
M  V30 388 H 36.4804 1.01716 -4.11619 0
M  V30 389 C 34.9394 1.79601 -2.85035 0
M  V30 390 O 35.4694 2.89351 -2.78637 0
M  V30 391 N 33.6754 1.60774 -2.42074 0
M  V30 392 H 33.2224 0.715009 -2.47478 0
M  V30 393 H 33.1804 2.38933 -2.04349 0
M  V30 394 N 36.9525 1.47285 -0.560781 0
M  V30 395 C 38.1775 2.07359 -0.0410566 0
M  V30 396 C 38.6025 1.41017 1.24483 0
M  V30 397 O 37.9605 0.486368 1.74654 0
M  V30 398 C 38.0085 3.6035 0.134123 0
M  V30 399 O 37.1125 3.94681 1.19587 0
M  V30 400 H 36.4535 0.661887 -0.0529291 0
M  V30 401 H 38.9835 1.89252 -0.777482 0
M  V30 402 H 38.9935 4.0652 0.347207 0
M  V30 403 H 37.6685 4.08034 -0.805047 0
M  V30 404 H 36.2455 3.60251 0.962987 0
M  V30 405 N 38.4306 0.297415 1.54768 0
M  V30 406 C 39.6786 -0.312295 1.99673 0
M  V30 407 C 39.9996 -1.54686 1.18732 0
M  V30 408 O 39.2696 -1.93854 0.282382 0
M  V30 409 H 37.8496 -0.118381 0.73756 0
M  V30 410 H 40.5116 0.407915 1.90583 0
M  V30 411 H 39.6076 -0.586813 3.06534 0
M  V30 412 N 39.9087 -1.5758 0.0250728 0
M  V30 413 C 40.8587 -2.06468 -0.967201 0
M  V30 414 C 41.8427 -0.964376 -1.28797 0
M  V30 415 O 43.0347 -1.22797 -1.27475 0
M  V30 416 C 40.1637 -2.59203 -2.25097 0
M  V30 417 C 39.2497 -3.76157 -1.95874 0
M  V30 418 N 39.6407 -4.86919 -1.36905 0
M  V30 419 C 37.9387 -3.84566 -2.25887 0
M  V30 420 C 38.6397 -5.68172 -1.24724 0
M  V30 421 N 37.6157 -5.14953 -1.74138 0
M  V30 422 H 41.4177 -2.89508 -0.506176 0
M  V30 423 H 38.9317 -1.61399 -0.18004 0
M  V30 424 H 40.9287 -2.92517 -2.97052 0
M  V30 425 H 39.5887 -1.77592 -2.71829 0
M  V30 426 H 40.5997 -5.07256 -1.04459 0
M  V30 427 H 37.2767 -3.13854 -2.75321 0
M  V30 428 H 38.6667 -6.67221 -0.791605 0
M  V30 429 N 41.3868 0.248026 -1.55636 0
M  V30 430 C 42.7978 0.817177 -1.67866 0
M  V30 431 C 43.1488 1.86069 -0.622322 0
M  V30 432 O 42.2738 2.15157 0.231618 0
M  V30 433 C 42.8688 1.489 -3.04326 0
M  V30 434 C 41.4278 2.00587 -3.185 0
M  V30 435 C 40.5748 0.856573 -2.63739 0
M  V30 436 H 43.5258 0.0238579 -1.58682 0
M  V30 437 H 43.5468 2.35698 -2.98708 0
M  V30 438 H 43.0588 0.729279 -3.81186 0
M  V30 439 H 41.1598 2.79443 -2.4646 0
M  V30 440 H 41.2728 2.20402 -4.25393 0
M  V30 441 H 39.6368 1.25678 -2.21534 0
M  V30 442 H 40.4198 0.109953 -3.43124 0
M  V30 443 N 42.8649 1.48995 0.513639 0
M  V30 444 C 44.1129 1.57531 1.26604 0
M  V30 445 C 44.4339 0.258236 1.93283 0
M  V30 446 O 43.7039 -0.721502 1.8213 0
M  V30 447 H 42.2839 0.580387 0.470276 0
M  V30 448 H 44.9459 1.85552 0.596373 0
M  V30 449 H 44.0419 2.36486 2.03669 0
M  V30 450 N 44.343 -0.763751 1.37857 0
M  V30 451 C 45.276 -1.88486 1.28639 0
M  V30 452 C 46.254 -1.61757 0.165363 0
M  V30 453 O 47.438 -1.85391 0.340948 0
M  V30 454 C 44.565 -3.23884 0.990811 0
M  V30 455 C 43.611 -3.69514 2.12983 0
M  V30 456 S 44.444 -3.82244 3.75033 0
M  V30 457 C 45.6 -5.20477 3.47641 0
M  V30 458 H 45.833 -1.96017 2.23527 0
M  V30 459 H 43.366 -0.925684 1.23574 0
M  V30 460 H 45.324 -4.02081 0.827101 0
M  V30 461 H 43.985 -3.14044 0.0592832 0
M  V30 462 H 43.178 -4.67696 1.87821 0
M  V30 463 H 42.78 -2.98441 2.25408 0
M  V30 464 H 45.072 -6.05905 3.03125 0
M  V30 465 H 46.015 -5.50655 4.4518 0
M  V30 466 H 46.423 -4.88793 2.82385 0
M  V30 467 N 45.8211 -1.22559 -0.990812 0
M  V30 468 C 47.2321 -1.04791 -1.54518 0
M  V30 469 C 47.5831 0.387998 -1.92325 0
M  V30 470 O 46.7081 1.27328 -1.74976 0
M  V30 471 C 47.3031 -1.896 -2.80779 0
M  V30 472 C 45.8621 -1.76124 -3.32652 0
M  V30 473 C 45.0091 -1.8594 -2.05722 0
M  V30 474 H 47.9601 -1.36374 -0.811662 0
M  V30 475 H 47.9811 -1.41464 -3.53225 0
M  V30 476 H 47.4931 -2.94101 -2.53231 0
M  V30 477 H 45.5941 -0.743643 -3.65104 0
M  V30 478 H 45.7071 -2.58913 -4.03114 0
M  V30 479 H 44.0711 -1.29403 -2.19379 0
M  V30 480 H 44.8541 -2.91976 -1.80568 0
M  V30 481 N 47.2992 1.18797 -1.03562 0
M  V30 482 C 48.2322 2.2105 -0.56676 0
M  V30 483 C 49.2102 1.57704 0.395993 0
M  V30 484 O 50.3942 1.85908 0.311498 0
M  V30 485 C 47.5212 3.38259 0.172704 0
M  V30 486 C 46.5672 4.19987 -0.74252 0
M  V30 487 S 47.4002 4.87199 -2.22254 0
M  V30 488 C 48.5562 6.07813 -1.49379 0
M  V30 489 H 48.7892 2.60478 -1.43312 0
M  V30 490 H 46.3222 1.29151 -0.846133 0
M  V30 491 H 48.2802 4.06191 0.593191 0
M  V30 492 H 46.9412 2.97252 1.01488 0
M  V30 493 H 46.1342 5.03709 -0.171265 0
M  V30 494 H 45.7362 3.57408 -1.10163 0
M  V30 495 H 48.0282 6.72948 -0.784056 0
M  V30 496 H 48.9712 6.69435 -2.30786 0
M  V30 497 H 49.3792 5.55781 -0.988331 0
M  V30 498 N 48.7773 0.814389 1.34928 0
M  V30 499 C 50.0253 0.397636 1.9815 0
M  V30 500 C 50.3463 -1.04069 1.64908 0
M  V30 501 O 49.6163 -1.72121 0.93548 0
M  V30 502 H 48.1963 0.144043 0.732981 0
M  V30 503 H 50.8583 1.04195 1.6471 0
M  V30 504 H 49.9543 0.509688 3.0791 0
M  V30 505 N 50.2554 -1.46986 0.568584 0
M  V30 506 C 51.2184 -2.28624 -0.162366 0
M  V30 507 C 52.2184 -1.37596 -0.832103 0
M  V30 508 O 53.4084 -1.60115 -0.68622 0
M  V30 509 C 50.5404 -3.17596 -1.23878 0
M  V30 510 H 51.7334 -2.94722 0.554899 0
M  V30 511 H 49.2864 -1.52863 0.325976 0
M  V30 512 H 50.0214 -2.56214 -1.98808 0
M  V30 513 H 49.8064 -3.846 -0.763219 0
M  V30 514 H 51.2964 -3.79078 -1.75185 0
M  V30 515 N 51.7335 -0.305618 -1.54608 0
M  V30 516 C 52.6965 0.555591 -2.22364 0
M  V30 517 C 53.6965 1.05768 -1.21119 0
M  V30 518 O 54.8865 0.952972 -1.45822 0
M  V30 519 C 52.0185 1.76974 -2.91364 0
M  V30 520 H 53.2115 -0.0364572 -2.99878 0
M  V30 521 H 50.7645 -0.0565007 -1.56198 0
M  V30 522 H 51.4995 2.40151 -2.17941 0
M  V30 523 H 51.2845 1.41732 -3.65588 0
M  V30 524 H 52.7745 2.38148 -3.43038 0
M  V30 525 N 53.2116 1.57565 -0.0334293 0
M  V30 526 C 54.6226 1.79746 0.504798 0
M  V30 527 C 54.9736 0.944091 1.71992 0
M  V30 528 O 54.0986 0.155694 2.15839 0
M  V30 529 C 54.6936 3.25997 0.922567 0
M  V30 530 C 53.2526 3.49159 1.40588 0
M  V30 531 C 52.3996 2.74785 0.372633 0
M  V30 532 H 55.3506 1.56565 -0.259436 0
M  V30 533 H 55.3716 3.35945 1.78666 0
M  V30 534 H 54.8836 3.88081 0.0379825 0
M  V30 535 H 52.9846 2.92332 2.31025 0
M  V30 536 H 53.0976 4.57873 1.41028 0
M  V30 537 H 51.4616 2.40391 0.841672 0
M  V30 538 H 52.2446 3.39587 -0.503559 0
M  V30 539 N 54.6897 -0.239769 1.55765 0
M  V30 540 C 55.6227 -1.32356 1.85895 0
M  V30 541 C 56.6007 -1.46053 0.714662 0
M  V30 542 O 57.7847 -1.62154 0.961157 0
M  V30 543 C 54.9117 -2.6962 2.04994 0
M  V30 544 C 53.9577 -2.73036 3.27648 0
M  V30 545 S 54.7907 -2.28929 4.84099 0
M  V30 546 C 55.9467 -3.68103 5.06212 0
M  V30 547 H 56.1797 -1.06601 2.77531 0
M  V30 548 H 53.7127 -0.441112 1.47965 0
M  V30 549 H 55.6707 -3.48653 2.16682 0
M  V30 550 H 54.3317 -2.92609 1.14188 0
M  V30 551 H 53.5247 -3.7386 3.38 0
M  V30 552 H 53.1267 -2.02052 3.14723 0
M  V30 553 H 55.4187 -4.63656 4.93993 0
M  V30 554 H 56.3617 -3.6268 6.08168 0
M  V30 555 H 56.7697 -3.60947 4.34025 0
M  V30 556 N 56.1678 -1.49265 -0.50573 0
M  V30 557 C 57.1308 -1.65075 -1.59006 0
M  V30 558 C 58.1308 -0.522768 -1.52065 0
M  V30 559 O 59.3208 -0.789117 -1.55302 0
M  V30 560 C 56.4528 -1.64369 -2.98656 0
M  V30 561 H 57.6458 -2.61784 -1.46319 0
M  V30 562 H 55.1988 -1.38226 -0.729616 0
M  V30 563 H 55.9338 -0.692272 -3.16825 0
M  V30 564 H 55.7188 -2.46282 -3.05103 0
M  V30 565 H 57.2088 -1.78674 -3.77446 0
M  V30 566 N 57.6459 0.756429 -1.3826 0
M  V30 567 C 58.8759 1.54341 -1.3734 0
M  V30 568 C 59.2839 1.89159 0.0393917 0
M  V30 569 O 58.6269 1.5307 1.01565 0
M  V30 570 C 58.6889 2.87238 -2.16182 0
M  V30 571 C 58.3529 2.74973 -3.65019 0
M  V30 572 C 59.3499 2.44962 -4.58574 0
M  V30 573 C 57.0349 2.92515 -4.08338 0
M  V30 574 C 59.0289 2.32642 -5.93428 0
M  V30 575 C 56.7159 2.79815 -5.43274 0
M  V30 576 C 57.7139 2.49921 -6.35632 0
M  V30 577 O 57.4019 2.37275 -7.68086 0
M  V30 578 H 57.1339 0.484281 -0.471643 0
M  V30 579 H 59.6879 0.944152 -1.82414 0
M  V30 580 H 57.9179 3.49342 -1.65822 0
M  V30 581 H 59.6069 3.48731 -2.07705 0
M  V30 582 H 60.3729 2.31081 -4.26412 0
M  V30 583 H 56.2519 3.14781 -3.368 0
M  V30 584 H 59.7959 2.0923 -6.65484 0
M  V30 585 H 55.6929 2.93269 -5.75034 0
M  V30 586 H 56.4609 2.52509 -7.78577 0
M  V30 587 N 59.124 1.23083 0.984299 0
M  V30 588 C 60.352 1.08714 1.76037 0
M  V30 589 C 60.767 -0.361691 1.85303 0
M  V30 590 O 60.124 -1.25034 1.32939 0
M  V30 591 C 60.175 1.70206 3.18923 0
M  V30 592 O 59.896 3.09423 3.10144 0
M  V30 593 C 61.397 1.61227 4.12941 0
M  V30 594 H 58.617 0.380664 0.552572 0
M  V30 595 H 61.161 1.62853 1.23689 0
M  V30 596 H 59.316 1.20109 3.6831 0
M  V30 597 H 59.73 3.39188 4.00065 0
M  V30 598 H 61.204 2.08962 5.10919 0
M  V30 599 H 61.681 0.570375 4.35481 0
M  V30 600 H 62.287 2.10671 3.69456 0
M  V30 601 N 60.6021 -1.18246 1.0419 0
M  V30 602 C 61.5321 -2.24127 0.654914 0
M  V30 603 C 62.5131 -1.66617 -0.342451 0
M  V30 604 O 63.6981 -1.92924 -0.222277 0
M  V30 605 C 60.8281 -3.47295 0.0183757 0
M  V30 606 C 59.7821 -4.17563 0.939414 0
M  V30 607 C 59.1081 -5.34438 0.167286 0
M  V30 608 C 60.4081 -4.70917 2.25908 0
M  V30 609 H 62.1021 -2.56753 1.54007 0
M  V30 610 H 59.6481 -1.23414 0.74195 0
M  V30 611 H 61.6011 -4.20572 -0.264082 0
M  V30 612 H 60.3251 -3.13907 -0.901664 0
M  V30 613 H 58.9841 -3.46186 1.20628 0
M  V30 614 H 58.6321 -4.97298 -0.7552 0
M  V30 615 H 58.3321 -5.82388 0.780901 0
M  V30 616 H 59.8561 -6.10504 -0.108125 0
M  V30 617 H 61.2701 -5.35882 2.03724 0
M  V30 618 H 59.6671 -5.29406 2.82577 0
M  V30 619 H 60.7371 -3.88272 2.9047 0
M  V30 620 N 62.0802 -0.821533 -1.34494 0
M  V30 621 C 63.3262 -0.418729 -1.99043 0
M  V30 622 C 63.6812 1.00672 -1.6396 0
M  V30 623 O 62.9742 1.69132 -0.900271 0
M  V30 624 C 63.1682 -0.556512 -3.53041 0
M  V30 625 C 62.9972 -1.9938 -4.03085 0
M  V30 626 C 61.7672 -2.62539 -4.31742 0
M  V30 627 C 63.9652 -2.96035 -4.20556 0
M  V30 628 N 61.9472 -3.97523 -4.67813 0
M  V30 629 C 63.3182 -4.15924 -4.59791 0
M  V30 630 C 65.3732 -2.9267 -4.02801 0
M  V30 631 C 64.0762 -5.32899 -4.83126 0
M  V30 632 C 66.1022 -4.08861 -4.27302 0
M  V30 633 C 65.4642 -5.275 -4.66822 0
M  V30 634 H 61.5632 -0.201299 -0.755647 0
M  V30 635 H 64.1472 -1.06594 -1.62929 0
M  V30 636 H 62.3182 0.0607924 -3.88352 0
M  V30 637 H 64.0502 -0.126842 -4.04501 0
M  V30 638 H 60.8052 -2.13789 -4.22601 0
M  V30 639 H 61.2292 -4.67061 -4.90085 0
M  V30 640 H 65.8712 -2.02088 -3.71376 0
M  V30 641 H 63.5892 -6.24041 -5.13418 0
M  V30 642 H 67.1752 -4.07654 -4.15101 0
M  V30 643 H 66.0552 -6.15913 -4.85408 0
M  V30 644 N 63.5583 1.46682 -0.576371 0
M  V30 645 C 64.7863 2.06798 -0.0649635 0
M  V30 646 C 65.2013 1.42612 1.23723 0
M  V30 647 O 64.5583 0.529203 1.74659 0
M  V30 648 C 64.6093 3.6132 0.114202 0
M  V30 649 O 64.3303 4.23104 -1.13644 0
M  V30 650 C 65.8313 4.38349 0.66069 0
M  V30 651 H 63.0513 0.668778 -0.0545616 0
M  V30 652 H 65.5953 1.88404 -0.795237 0
M  V30 653 H 63.7503 3.79162 0.794673 0
M  V30 654 H 64.1643 5.15894 -0.946253 0
M  V30 655 H 65.6383 5.47081 0.73526 0
M  V30 656 H 66.1153 4.05953 1.67627 0
M  V30 657 H 66.7213 4.25297 0.0152951 0
M  V30 658 N 65.0364 0.313813 1.54444 0
M  V30 659 C 65.9684 -0.590425 2.21465 0
M  V30 660 C 66.9814 -1.08753 1.21147 0
M  V30 661 O 68.1704 -1.00278 1.4767 0
M  V30 662 C 65.2704 -1.82179 2.85769 0
M  V30 663 C 64.4434 -1.46502 4.12136 0
M  V30 664 C 63.5024 -2.55288 4.60124 0
M  V30 665 O 62.5284 -2.19842 5.25032 0
M  V30 666 N 63.7304 -3.86053 4.33525 0
M  V30 667 H 66.4954 -0.0166033 2.99695 0
M  V30 668 H 64.0564 0.136578 1.61323 0
M  V30 669 H 66.0484 -2.54328 3.14801 0
M  V30 670 H 64.6184 -2.30369 2.11303 0
M  V30 671 H 63.8384 -0.575595 3.89975 0
M  V30 672 H 65.1264 -1.20221 4.94393 0
M  V30 673 H 64.5244 -4.17654 3.81552 0
M  V30 674 H 63.0814 -4.54461 4.67235 0
M  V30 675 N 66.5145 -1.57545 0.0417849 0
M  V30 676 C 67.7615 -1.92317 -0.634082 0
M  V30 677 C 68.0895 -0.919334 -1.71402 0
M  V30 678 O 67.3445 0.0698253 -1.95575 0
M  V30 679 C 67.6435 -3.33794 -1.27735 0
M  V30 680 C 67.3095 -4.49716 -0.326543 0
M  V30 681 C 65.9715 -4.81156 -0.0648814 0
M  V30 682 C 68.3235 -5.20182 0.325623 0
M  V30 683 C 65.6515 -5.80414 0.856539 0
M  V30 684 C 68.0035 -6.20424 1.23518 0
M  V30 685 C 66.6675 -6.50298 1.5056 0
M  V30 686 H 65.9375 -0.703736 -0.232027 0
M  V30 687 H 68.5845 -1.91205 0.106259 0
M  V30 688 H 66.8895 -3.31228 -2.09274 0
M  V30 689 H 68.5865 -3.57975 -1.80707 0
M  V30 690 H 65.1765 -4.25176 -0.540665 0
M  V30 691 H 69.3605 -4.96112 0.136546 0
M  V30 692 H 64.6165 -6.019 1.07363 0
M  V30 693 H 68.7905 -6.74141 1.74664 0
M  V30 694 H 66.4175 -7.27025 2.22123 0
M  V30 695 N 67.9926 0.231505 -1.5589 0
M  V30 696 C 68.9256 1.31369 -1.86595 0
M  V30 697 C 69.9036 1.45671 -0.722397 0
M  V30 698 O 71.0876 1.61642 -0.969743 0
M  V30 699 C 68.2146 2.68529 -2.06421 0
M  V30 700 C 67.2606 2.71295 -3.29092 0
M  V30 701 S 68.0936 2.26358 -4.85306 0
M  V30 702 C 69.2496 3.65414 -5.08157 0
M  V30 703 H 69.4826 1.05128 -2.78092 0
M  V30 704 H 67.0156 0.433259 -1.48197 0
M  V30 705 H 68.9736 3.47499 -2.18528 0
M  V30 706 H 67.6346 2.91999 -1.15738 0
M  V30 707 H 66.8276 3.72063 -3.39978 0
M  V30 708 H 66.4296 2.0038 -3.15791 0
M  V30 709 H 68.7216 4.6103 -4.96445 0
M  V30 710 H 69.6646 3.5945 -6.10083 0
M  V30 711 H 70.0726 3.5864 -4.35933 0
M  V30 712 N 69.4707 1.49531 0.497807 0
M  V30 713 C 70.4177 1.66436 1.59899 0
M  V30 714 C 71.3877 0.505793 1.58212 0
M  V30 715 O 72.5727 0.733202 1.7615 0
M  V30 716 C 69.7127 1.7399 2.98029 0
M  V30 717 C 68.8257 3.01172 3.09708 0
M  V30 718 C 67.9607 2.99686 4.38591 0
M  V30 719 C 66.9997 4.21434 4.43914 0
M  V30 720 N 66.1367 4.1784 5.64229 0
M  V30 721 H 70.9767 2.60459 1.44793 0
M  V30 722 H 68.5137 1.29137 0.704423 0
M  V30 723 H 70.4717 1.76352 3.78095 0
M  V30 724 H 69.1017 0.834301 3.11832 0
M  V30 725 H 68.1537 3.08408 2.22685 0
M  V30 726 H 69.4657 3.91165 3.09502 0
M  V30 727 H 68.6197 3.00628 5.2698 0
M  V30 728 H 67.3587 2.07477 4.41367 0
M  V30 729 H 66.3637 4.20733 3.53926 0
M  V30 730 H 67.5887 5.14839 4.42851 0
M  V30 731 H 65.5347 3.28469 5.67841 0
M  V30 732 H 65.4517 5.01571 5.65652 0
M  V30 733 H 66.7197 4.22889 6.54817 0
M  V30 734 N 70.9488 -0.749086 1.3866 0
M  V30 735 C 71.8988 -1.85368 1.32751 0
M  V30 736 C 72.8828 -1.59511 0.210945 0
M  V30 737 O 74.0748 -1.71255 0.447299 0
M  V30 738 C 71.2038 -3.23131 1.15935 0
M  V30 739 C 70.2898 -3.54864 2.32233 0
M  V30 740 N 70.6808 -3.57625 3.57684 0
M  V30 741 C 68.9788 -3.85154 2.24883 0
M  V30 742 C 69.6798 -3.86753 4.34508 0
M  V30 743 N 68.6558 -4.03812 3.63918 0
M  V30 744 H 72.4578 -1.85787 2.27729 0
M  V30 745 H 69.9718 -0.946658 1.31955 0
M  V30 746 H 71.9688 -4.02185 1.09786 0
M  V30 747 H 70.6288 -3.23961 0.218947 0
M  V30 748 H 71.6398 -3.39276 3.91295 0
M  V30 749 H 68.3168 -3.93672 1.39027 0
M  V30 750 H 69.7068 -3.95474 5.43185 0
M  V30 751 N 72.4269 -1.23603 -0.977757 0
M  V30 752 C 73.3749 -1.01704 -2.09187 0
M  V30 753 C 74.3689 0.0448214 -1.69341 0
M  V30 754 O 75.5749 -0.108902 -1.7967 0
M  V30 755 H 71.9499 -0.311803 -0.684312 0
M  V30 756 H 73.9209 -1.96207 -2.24823 0
M  V30 757 C 72.6699 -0.627746 -3.41986 0
M  V30 758 H 71.9929 -1.43656 -3.73099 0
M  V30 759 H 73.4329 -0.514053 -4.20872 0
M  V30 760 C 71.8919 0.664238 -3.30287 0
M  V30 761 O 72.4219 1.71268 -3.6336 0
M  V30 762 N 70.6279 0.641156 -2.83439 0
M  V30 763 H 70.1749 -0.212376 -2.56723 0
M  V30 764 H 70.1329 1.50583 -2.75993 0
M  V30 765 N 73.905 1.17692 -1.04816 0
M  V30 766 C 75.316 1.69501 -0.782698 0
M  V30 767 C 75.667 1.83456 0.695577 0
M  V30 768 O 74.792 1.51942 1.54086 0
M  V30 769 C 75.387 3.07874 -1.41419 0
M  V30 770 C 73.946 3.56864 -1.19686 0
M  V30 771 C 73.093 2.3322 -1.50012 0
M  V30 772 H 76.044 1.02262 -1.2136 0
M  V30 773 H 76.065 3.71528 -0.821428 0
M  V30 774 H 75.577 2.97685 -2.49009 0
M  V30 775 H 73.678 3.72337 -0.140043 0
M  V30 776 H 73.791 4.39851 -1.89916 0
M  V30 777 H 72.155 2.37501 -0.920071 0
M  V30 778 H 72.938 2.25644 -2.58727 0
M  V30 779 N 75.3831 0.828654 1.34056 0
M  V30 780 C 76.3311 0.242973 2.31327 0
M  V30 781 C 77.3251 -0.61944 1.57668 0
M  V30 782 O 78.5311 -0.51014 1.7262 0
M  V30 783 H 74.9061 0.059834 0.749616 0
M  V30 784 H 76.8771 1.07809 2.78244 0
M  V30 785 C 75.6261 -0.575733 3.429 0
M  V30 786 H 74.9491 0.0785582 3.99723 0
M  V30 787 H 76.3891 -0.951547 4.13185 0
M  V30 788 C 74.8481 -1.75044 2.87856 0
M  V30 789 O 75.3781 -2.84882 2.83205 0
M  V30 790 N 73.5841 -1.56903 2.44602 0
M  V30 791 H 73.1311 -0.675547 2.48584 0
M  V30 792 H 73.0891 -2.35652 2.08124 0
M  V30 793 N 76.8612 -1.46375 0.584142 0
M  V30 794 C 77.8092 -2.32042 -0.161047 0
M  V30 795 C 78.8032 -1.44569 -0.882966 0
M  V30 796 O 80.0092 -1.61186 -0.801191 0
M  V30 797 H 76.3842 -0.748659 -0.0708033 0
M  V30 798 H 78.3552 -2.92704 0.580269 0
M  V30 799 C 77.1042 -3.27762 -1.1605 0
M  V30 800 H 76.4272 -3.95051 -0.614419 0
M  V30 801 H 77.8672 -3.90481 -1.65228 0
M  V30 802 C 76.3262 -2.53218 -2.22221 0
M  V30 803 O 76.8562 -2.29628 -3.29597 0
M  V30 804 N 75.0622 -2.13756 -1.96868 0
M  V30 805 H 74.6092 -2.33142 -1.09557 0
M  V30 806 H 74.5672 -1.642 -2.68115 0
M  V30 807 N 78.3393 -0.321999 -1.54275 0
M  V30 808 C 79.7503 0.166384 -1.85957 0
M  V30 809 C 80.1013 1.51747 -1.24367 0
M  V30 810 O 79.2263 2.09317 -0.549124 0
M  V30 811 C 79.8213 0.308681 -3.37391 0
M  V30 812 C 78.3803 0.741286 -3.69028 0
M  V30 813 C 77.5273 -0.137937 -2.76957 0
M  V30 814 H 80.4783 -0.542335 -1.49146 0
M  V30 815 H 80.4993 1.13984 -3.63026 0
M  V30 816 H 80.0113 -0.674809 -3.82188 0
M  V30 817 H 78.1123 1.73458 -3.29762 0
M  V30 818 H 78.2253 0.546118 -4.75977 0
M  V30 819 H 76.5893 0.386251 -2.51754 0
M  V30 820 H 77.3723 -1.11816 -3.2458 0
M  V30 821 N 79.8174 1.5752 -0.0501392 0
M  V30 822 C 81.0454 1.96963 0.633492 0
M  V30 823 C 81.4604 0.927631 1.6444 0
M  V30 824 O 80.8174 -0.0882665 1.82286 0
M  V30 825 C 80.8684 3.36487 1.32132 0
M  V30 826 O 80.5894 4.36693 0.350894 0
M  V30 827 C 82.0904 3.90682 2.09481 0
M  V30 828 H 79.3104 0.648244 0.173266 0
M  V30 829 H 81.8544 2.0417 -0.116134 0
M  V30 830 H 80.0094 3.30434 2.02218 0
M  V30 831 H 80.4234 5.17702 0.841735 0
M  V30 832 H 81.8974 4.90591 2.5303 0
M  V30 833 H 82.3744 3.26053 2.94255 0
M  V30 834 H 82.9804 4.00069 1.44307 0
M  V30 835 N 81.2955 -0.223234 1.56011 0
M  V30 836 C 82.5415 -0.944891 1.8012 0
M  V30 837 C 82.8965 -1.82039 0.622862 0
M  V30 838 O 82.1895 -1.8773 -0.383143 0
M  V30 839 C 82.3835 -1.81948 3.0762 0
M  V30 840 C 82.2125 -1.03014 4.37742 0
M  V30 841 C 80.9825 -0.72574 5.00061 0
M  V30 842 C 83.1805 -0.396256 5.12771 0
M  V30 843 N 81.1625 0.0851816 6.13841 0
M  V30 844 C 82.5335 0.278137 6.19376 0
M  V30 845 C 84.5885 -0.309117 4.9694 0
M  V30 846 C 83.2915 1.03133 7.11868 0
M  V30 847 C 85.3175 0.430607 5.8983 0
M  V30 848 C 84.6795 1.09355 6.9586 0
M  V30 849 H 80.7785 -0.326081 0.710771 0
M  V30 850 H 83.3625 -0.215914 1.93499 0
M  V30 851 H 81.5335 -2.52029 2.95527 0
M  V30 852 H 83.2655 -2.47848 3.19927 0
M  V30 853 H 80.0205 -1.04335 4.61964 0
M  V30 854 H 80.4445 0.479428 6.753 0
M  V30 855 H 85.0865 -0.807313 4.15021 0
M  V30 856 H 82.8045 1.54105 7.9327 0
M  V30 857 H 86.3905 0.499012 5.79656 0
M  V30 858 H 85.2705 1.65679 7.66499 0
M  V30 859 N 82.7736 -1.49793 -0.48987 0
M  V30 860 C 84.0206 -1.59841 -1.24327 0
M  V30 861 C 84.3486 -0.290135 -1.92324 0
M  V30 862 O 83.6036 0.722749 -1.81865 0
M  V30 863 C 83.9026 -2.71488 -2.32441 0
M  V30 864 C 83.5686 -4.12614 -1.81826 0
M  V30 865 C 82.2306 -4.51017 -1.67742 0
M  V30 866 C 84.5826 -5.00892 -1.4407 0
M  V30 867 C 81.9106 -5.75459 -1.14297 0
M  V30 868 C 84.2626 -6.25863 -0.920742 0
M  V30 869 C 82.9266 -6.63086 -0.766383 0
M  V30 870 H 82.1966 -0.584899 -0.454944 0
M  V30 871 H 84.8436 -1.83663 -0.542215 0
M  V30 872 H 83.1486 -2.4168 -3.0838 0
M  V30 873 H 84.8456 -2.76469 -2.90458 0
M  V30 874 H 81.4356 -3.82307 -1.93751 0
M  V30 875 H 85.6196 -4.7187 -1.53794 0
M  V30 876 H 80.8756 -6.02989 -1.01068 0
M  V30 877 H 85.0496 -6.9364 -0.619448 0
M  V30 878 H 82.6766 -7.59393 -0.350083 0
M  V30 879 N 84.2517 0.741722 -1.39055 0
M  V30 880 C 85.1997 1.87702 -1.3737 0
M  V30 881 C 86.1937 1.67427 -0.257812 0
M  V30 882 O 87.3997 1.7485 -0.427489 0
M  V30 883 H 83.7747 0.617757 -0.428812 0
M  V30 884 H 85.7457 1.86239 -2.33147 0
M  V30 885 C 84.4947 3.25315 -1.22741 0
M  V30 886 H 83.8177 3.41509 -2.07873 0
M  V30 887 H 85.2577 4.04964 -1.25618 0
M  V30 888 C 83.7167 3.36838 0.0647316 0
M  V30 889 O 84.2467 3.88073 1.03741 0
M  V30 890 N 82.4527 2.90329 0.125544 0
M  V30 891 H 81.9997 2.48823 -0.666682 0
M  V30 892 H 81.9577 2.98418 0.989639 0
M  V30 893 N 85.7298 1.2412 0.971189 0
M  V30 894 C 87.1458 1.00584 1.23916 0
M  V30 895 C 87.3458 -0.287481 1.99439 0
M  V30 896 O 86.4018 -1.00454 2.31658 0
M  V30 897 C 87.7148 2.21864 2.0297 0
M  V30 898 C 89.2628 2.26452 2.16076 0
M  V30 899 C 89.7378 3.47343 2.98524 0
M  V30 900 N 91.2288 3.47639 3.06107 0
M  V30 901 C 91.9638 4.37837 3.70251 0
M  V30 902 N 91.4598 5.38286 4.36142 0
M  V30 903 N 93.2528 4.25558 3.67228 0
M  V30 904 H 85.4038 2.07236 0.465499 0
M  V30 905 H 87.6668 0.909236 0.268315 0
M  V30 906 H 87.3728 3.15771 1.54861 0
M  V30 907 H 87.2468 2.23698 3.03709 0
M  V30 908 H 89.6338 1.33078 2.6339 0
M  V30 909 H 89.7148 2.28645 1.14696 0
M  V30 910 H 89.3588 4.41029 2.51905 0
M  V30 911 H 89.2888 3.42393 4.00093 0
M  V30 912 H 91.7798 2.74966 2.59233 0
M  V30 913 H 92.0928 6.03352 4.82894 0
M  V30 914 H 90.4378 5.42176 4.34822 0
M  V30 915 H 93.6288 3.46322 3.14927 0
M  V30 916 H 93.8018 4.96054 4.16935 0
M  V30 917 N 87.2079 -1.17134 1.05439 0
M  V30 918 C 88.4849 -1.83411 0.679699 0
M  V30 919 C 88.8649 -1.9368 -0.839726 0
M  V30 920 O 88.2129 -1.47325 -1.74664 0
M  V30 921 C 88.4229 -3.20918 1.37159 0
M  V30 922 C 89.7709 -3.96796 1.51123 0
M  V30 923 O 90.7949 -3.30406 1.3308 0
M  V30 924 O 89.6539 -5.15778 1.80651 0
M  V30 925 H 86.7479 -0.79154 0.239569 0
M  V30 926 H 89.2939 -1.24411 1.15413 0
M  V30 927 H 88.0659 -3.08428 2.40807 0
M  V30 928 H 87.6889 -3.87587 0.886674 0
M  V30 929 N 88.686 -0.835752 -1.33615 0
M  V30 930 C 90.102 -0.523139 -1.50783 0
M  V30 931 C 90.302 0.950171 -1.77691 0
M  V30 932 O 89.358 1.73411 -1.83534 0
M  V30 933 C 90.671 -1.39378 -2.66448 0
M  V30 934 C 92.219 -1.39223 -2.80332 0
M  V30 935 C 92.694 -2.24765 -3.99055 0
M  V30 936 N 94.185 -2.22458 -4.06284 0
M  V30 937 C 94.92 -2.85386 -4.97336 0
M  V30 938 N 94.416 -3.57354 -5.93523 0
M  V30 939 N 96.209 -2.74872 -4.90308 0
M  V30 940 H 88.36 -1.78952 -1.14411 0
M  V30 941 H 90.623 -0.763297 -0.562212 0
M  V30 942 H 90.329 -2.44061 -2.53234 0
M  V30 943 H 90.203 -1.0676 -3.61776 0
M  V30 944 H 92.59 -0.353136 -2.92979 0
M  V30 945 H 92.671 -1.75846 -1.85773 0
M  V30 946 H 92.315 -3.28732 -3.87167 0
M  V30 947 H 92.245 -1.85485 -4.92852 0
M  V30 948 H 94.736 -1.70119 -3.37443 0
M  V30 949 H 95.049 -4.02584 -6.59656 0
M  V30 950 H 93.394 -3.61461 -5.93608 0
M  V30 951 H 96.585 -2.18213 -4.14126 0
M  V30 952 H 96.758 -3.24199 -5.61069 0
M  V30 953 N 90.1641 1.46063 -0.591896 0
M  V30 954 C 91.4111 2.02338 -0.0809991 0
M  V30 955 C 91.7391 1.46228 1.28249 0
M  V30 956 O 90.9941 0.620818 1.85592 0
M  V30 957 C 91.2931 3.57391 0.0249813 0
M  V30 958 C 90.9591 4.32583 -1.27211 0
M  V30 959 C 89.6211 4.52844 -1.62745 0
M  V30 960 C 91.9731 4.75687 -2.13005 0
M  V30 961 C 89.3011 5.13462 -2.83855 0
M  V30 962 C 91.6531 5.37644 -3.3335 0
M  V30 963 C 90.3171 5.5613 -3.69155 0
M  V30 964 H 89.5871 0.740407 -0.0296397 0
M  V30 965 H 92.2341 1.75321 -0.770374 0
M  V30 966 H 90.5391 3.83597 0.797537 0
M  V30 967 H 92.2361 3.98621 0.436184 0
M  V30 968 H 88.8261 4.17116 -0.985499 0
M  V30 969 H 93.0101 4.59782 -1.86855 0
M  V30 970 H 88.2661 5.25965 -3.11722 0
M  V30 971 H 92.4401 5.7 -4.00092 0
M  V30 972 H 90.0671 6.0287 -4.63089 0
M  V30 973 N 91.6422 0.330177 1.54103 0
M  V30 974 C 92.8882 -0.270806 2.00984 0
M  V30 975 C 93.2212 -1.51265 1.21789 0
M  V30 976 O 92.4962 -1.92142 0.301927 0
M  V30 977 C 92.7792 -0.598339 3.55094 0
M  V30 978 C 92.6322 0.654674 4.4501 0
M  V30 979 C 93.9512 -1.41334 4.16789 0
M  V30 980 H 91.0702 -0.0969531 0.730595 0
M  V30 981 H 93.7122 0.448066 1.84641 0
M  V30 982 H 91.8622 -1.21078 3.69151 0
M  V30 983 H 93.5342 1.29285 4.42813 0
M  V30 984 H 91.7772 1.28224 4.14416 0
M  V30 985 H 92.4482 0.380944 5.50684 0
M  V30 986 H 94.9242 -0.895597 4.06347 0
M  V30 987 H 93.8002 -1.61127 5.24718 0
M  V30 988 H 94.0612 -2.41146 3.70541 0
M  V30 989 N 93.1203 -1.57491 0.0584922 0
M  V30 990 C 94.0503 -2.14988 -0.911178 0
M  V30 991 C 95.0313 -1.07343 -1.31952 0
M  V30 992 O 96.2163 -1.35318 -1.39294 0
M  V30 993 C 93.3463 -2.70078 -2.18347 0
M  V30 994 C 92.3003 -3.82771 -1.91495 0
M  V30 995 C 91.6263 -4.24408 -3.25241 0
M  V30 996 C 92.9263 -5.07592 -1.23075 0
M  V30 997 H 94.6203 -2.96263 -0.432246 0
M  V30 998 H 92.1663 -1.42512 -0.206469 0
M  V30 999 H 94.1193 -3.08943 -2.86587 0
M  V30 1000 H 92.8433 -1.86005 -2.68458 0
M  V30 1001 H 91.5023 -3.44389 -1.25664 0
M  V30 1002 H 91.1503 -3.37275 -3.73168 0
M  V30 1003 H 90.8503 -5.00366 -3.08071 0
M  V30 1004 H 92.3743 -4.65879 -3.94701 0
M  V30 1005 H 93.7883 -5.43857 -1.81362 0
M  V30 1006 H 92.1853 -5.88741 -1.16207 0
M  V30 1007 H 93.2553 -4.84454 -0.207847 0
M  V30 1008 N 94.5984 0.214957 -1.56127 0
M  V30 1009 C 95.8234 0.95924 -1.83884 0
M  V30 1010 C 96.2484 1.7689 -0.639644 0
M  V30 1011 O 95.6064 1.76566 0.411601 0
M  V30 1012 C 95.6544 1.84723 -3.09693 0
M  V30 1013 O 94.7584 2.94346 -2.8885 0
M  V30 1014 H 94.0994 0.27125 -0.606069 0
M  V30 1015 H 96.6294 0.226276 -2.03345 0
M  V30 1016 H 96.6394 2.25576 -3.39969 0
M  V30 1017 H 95.3144 1.25218 -3.96602 0
M  V30 1018 H 93.8914 2.57391 -2.69823 0
M  V30 1019 N 96.0765 1.50051 0.48192 0
M  V30 1020 C 97.0395 1.67584 1.5636 0
M  V30 1021 C 98.0395 0.546894 1.51214 0
M  V30 1022 O 99.2295 0.813725 1.54026 0
M  V30 1023 C 96.3615 1.691 2.96003 0
M  V30 1024 H 97.5545 2.64078 1.42136 0
M  V30 1025 H 95.1075 1.39369 0.707533 0
M  V30 1026 H 95.8425 0.742589 3.15684 0
M  V30 1027 H 95.6275 2.51105 3.01146 0
M  V30 1028 H 97.1175 1.84656 3.74556 0
M  V30 1029 N 97.5546 -0.734337 1.39446 0
M  V30 1030 C 98.8026 -1.49096 1.36436 0
M  V30 1031 C 99.1236 -1.94961 -0.0388255 0
M  V30 1032 O 98.3936 -1.69033 -0.990191 0
M  V30 1033 H 96.9736 -0.5531 0.502085 0
M  V30 1034 H 99.6356 -0.871725 1.74319 0
M  V30 1035 H 98.7316 -2.37276 2.02747 0
M  V30 1036 N 99.0327 -1.24633 -0.964593 0
M  V30 1037 C 99.9827 -1.00841 -2.04487 0
M  V30 1038 C 100.967 0.0512468 -1.60818 0
M  V30 1039 O 102.159 -0.162865 -1.76249 0
M  V30 1040 C 99.2877 -0.618474 -3.37683 0
M  V30 1041 C 98.3737 -1.71437 -3.87905 0
M  V30 1042 N 98.7647 -2.9477 -4.11029 0
M  V30 1043 C 97.0627 -1.5926 -4.16596 0
M  V30 1044 C 97.7637 -3.65834 -4.52261 0
M  V30 1045 N 96.7397 -2.9341 -4.57615 0
M  V30 1046 H 100.542 -1.94487 -2.20345 0
M  V30 1047 H 98.0557 -1.14805 -1.14863 0
M  V30 1048 H 100.053 -0.429247 -4.14684 0
M  V30 1049 H 98.7127 0.310766 -3.23209 0
M  V30 1050 H 99.7237 -3.30917 -3.9839 0
M  V30 1051 H 96.4007 -0.731606 -4.1104 0
M  V30 1052 H 97.7907 -4.71646 -4.78539 0
M  V30 1053 N 100.511 1.16574 -1.06058 0
M  V30 1054 C 101.759 1.86677 -0.77434 0
M  V30 1055 C 102.08 1.81959 0.701147 0
M  V30 1056 O 101.35 1.2515 1.50713 0
M  V30 1057 H 99.9298 0.691134 -0.283449 0
M  V30 1058 H 102.592 1.41378 -1.34158 0
M  V30 1059 H 101.688 2.92181 -1.09711 0
M  V30 1060 N 101.989 0.842826 1.3317 0
M  V30 1061 C 103.214 0.453129 2.02389 0
M  V30 1062 C 103.639 -0.939105 1.6298 0
M  V30 1063 O 102.997 -1.61472 0.8244 0
M  V30 1064 C 103.045 0.586094 3.55805 0
M  V30 1065 O 102.149 -0.386029 4.10589 0
M  V30 1066 H 101.49 0.183664 0.638094 0
M  V30 1067 H 104.02 1.13875 1.69981 0
M  V30 1068 H 104.03 0.469209 4.05293 0
M  V30 1069 H 102.705 1.6014 3.83833 0
M  V30 1070 H 101.282 -0.226371 3.72212 0
M  V30 1071 N 103.467 -1.45747 0.599634 0
M  V30 1072 C 104.4 -2.27547 -0.172552 0
M  V30 1073 C 105.378 -1.36657 -0.881116 0
M  V30 1074 O 106.562 -1.66081 -0.891595 0
M  V30 1075 C 103.689 -3.14829 -1.24903 0
M  V30 1076 C 102.735 -4.21603 -0.644465 0
M  V30 1077 S 103.568 -5.32754 0.541606 0
M  V30 1078 C 104.724 -6.23604 -0.535656 0
M  V30 1079 H 104.957 -2.92691 0.521468 0
M  V30 1080 H 102.49 -1.49473 0.386947 0
M  V30 1081 H 104.448 -3.65675 -1.86527 0
M  V30 1082 H 103.109 -2.48965 -1.91508 0
M  V30 1083 H 102.302 -4.82566 -1.45417 0
M  V30 1084 H 101.904 -3.73857 -0.103534 0
M  V30 1085 H 104.196 -6.62519 -1.41686 0
M  V30 1086 H 105.139 -7.0809 0.0376246 0
M  V30 1087 H 105.547 -5.58103 -0.84741 0
M  V30 1088 N 104.945 -0.338344 -1.53925 0
M  V30 1089 C 105.875 0.51328 -2.27789 0
M  V30 1090 C 106.856 1.107 -1.29149 0
M  V30 1091 O 108.041 1.12937 -1.57984 0
M  V30 1092 C 105.171 1.66697 -3.04679 0
M  V30 1093 C 104.125 1.20183 -4.1078 0
M  V30 1094 C 103.451 2.44363 -4.75595 0
M  V30 1095 C 104.751 0.30605 -5.21403 0
M  V30 1096 H 106.445 -0.102883 -2.99223 0
M  V30 1097 H 103.991 -0.0509219 -1.4391 0
M  V30 1098 H 105.944 2.26915 -3.55088 0
M  V30 1099 H 104.668 2.30995 -2.30887 0
M  V30 1100 H 103.327 0.622499 -3.61276 0
M  V30 1101 H 102.975 3.07057 -3.98403 0
M  V30 1102 H 102.675 2.13925 -5.47275 0
M  V30 1103 H 104.199 3.05317 -5.28786 0
M  V30 1104 H 105.613 0.814929 -5.67478 0
M  V30 1105 H 104.01 0.0937929 -6.00027 0
M  V30 1106 H 105.08 -0.65921 -4.80398 0
M  V30 1107 N 106.423 1.57458 -0.0668435 0
M  V30 1108 C 107.353 2.15468 0.899764 0
M  V30 1109 C 108.334 1.08042 1.31381 0
M  V30 1110 O 109.519 1.36054 1.38574 0
M  V30 1111 C 106.649 2.71232 2.16911 0
M  V30 1112 C 105.603 3.83781 1.89463 0
M  V30 1113 C 104.929 4.26127 3.22986 0
M  V30 1114 C 106.229 5.08238 1.20381 0
M  V30 1115 H 107.923 2.96488 0.416529 0
M  V30 1116 H 105.469 1.4262 0.198908 0
M  V30 1117 H 107.422 3.10458 2.84945 0
M  V30 1118 H 106.146 1.87426 2.67468 0
M  V30 1119 H 104.805 3.45051 1.23836 0
M  V30 1120 H 104.453 3.39249 3.71374 0
M  V30 1121 H 104.153 5.01993 3.05413 0
M  V30 1122 H 105.677 4.67966 3.92225 0
M  V30 1123 H 107.091 5.44811 1.78475 0
M  V30 1124 H 105.488 5.89349 1.13083 0
M  V30 1125 H 106.558 4.84558 0.182153 0
M  V30 1126 N 107.901 -0.206675 1.56239 0
M  V30 1127 C 109.131 -0.943975 1.83773 0
M  V30 1128 C 109.539 -1.77841 0.645703 0
M  V30 1129 O 108.882 -1.79403 -0.395008 0
M  V30 1130 C 108.944 -1.899 3.05251 0
M  V30 1131 C 108.608 -1.24764 4.39639 0
M  V30 1132 C 109.605 -0.630216 5.16066 0
M  V30 1133 C 107.29 -1.25496 4.8637 0
M  V30 1134 C 109.284 -0.0287946 6.37393 0
M  V30 1135 C 106.971 -0.649698 6.07637 0
M  V30 1136 C 107.969 -0.0376845 6.8299 0
M  V30 1137 O 107.657 0.55812 8.0196 0
M  V30 1138 H 107.389 -0.281508 0.614597 0
M  V30 1139 H 109.943 -0.222458 2.04192 0
M  V30 1140 H 108.173 -2.6599 2.80689 0
M  V30 1141 H 109.862 -2.5031 3.1953 0
M  V30 1142 H 110.628 -0.616785 4.81062 0
M  V30 1143 H 106.507 -1.72072 4.27683 0
M  V30 1144 H 110.051 0.449518 6.9615 0
M  V30 1145 H 105.948 -0.660592 6.42111 0
M  V30 1146 H 106.716 0.453891 8.17241 0
M  V30 1147 N 109.379 -1.50304 -0.473955 0
M  V30 1148 C 110.604 -1.65175 -1.25427 0
M  V30 1149 C 111.029 -0.333673 -1.85117 0
M  V30 1150 O 110.387 0.702114 -1.67153 0
M  V30 1151 C 110.435 -2.74295 -2.34082 0
M  V30 1152 O 109.539 -2.35349 -3.38651 0
M  V30 1153 H 108.88 -0.551944 -0.369126 0
M  V30 1154 H 111.41 -1.96662 -0.564364 0
M  V30 1155 H 111.42 -2.97285 -2.79438 0
M  V30 1156 H 110.095 -3.69959 -1.90008 0
M  V30 1157 H 108.672 -2.22794 -2.99027 0
M  V30 1158 N 110.857 0.726932 -1.39834 0
M  V30 1159 C 111.787 1.85405 -1.41941 0
M  V30 1160 C 112.768 1.67751 -0.281728 0
M  V30 1161 O 113.953 1.8795 -0.488717 0
M  V30 1162 C 111.083 3.23243 -1.2701 0
M  V30 1163 C 110.037 3.55549 -2.38262 0
M  V30 1164 C 109.363 4.9241 -2.08415 0
M  V30 1165 C 110.663 3.577 -3.80589 0
M  V30 1166 H 112.357 1.83899 -2.36266 0
M  V30 1167 H 109.903 0.883349 -1.13723 0
M  V30 1168 H 111.856 4.01775 -1.27103 0
M  V30 1169 H 110.58 3.25296 -0.291564 0
M  V30 1170 H 109.239 2.79351 -2.37399 0
M  V30 1171 H 108.887 4.91052 -1.0898 0
M  V30 1172 H 108.587 5.14992 -2.82943 0
M  V30 1173 H 110.111 5.73289 -2.10171 0
M  V30 1174 H 111.525 4.26293 -3.83337 0
M  V30 1175 H 109.922 3.91804 -4.54543 0
M  V30 1176 H 110.992 2.57328 -4.10987 0
M  V30 1177 N 112.336 1.25143 0.95797 0
M  V30 1178 C 113.266 1.07711 2.07173 0
M  V30 1179 C 114.247 -0.0128462 1.70095 0
M  V30 1180 O 115.432 0.156061 1.93572 0
M  V30 1181 C 112.562 0.691503 3.40346 0
M  V30 1182 C 111.516 1.73132 3.9142 0
M  V30 1183 C 110.842 1.20049 5.21049 0
M  V30 1184 C 112.142 3.1294 4.1817 0
M  V30 1185 H 113.836 2.00873 2.22014 0
M  V30 1186 H 111.382 0.967191 1.06684 0
M  V30 1187 H 113.335 0.556505 4.17709 0
M  V30 1188 H 112.059 -0.275819 3.25433 0
M  V30 1189 H 110.718 1.8547 3.16222 0
M  V30 1190 H 110.366 0.223499 5.02503 0
M  V30 1191 H 110.066 1.89545 5.56189 0
M  V30 1192 H 111.59 1.07782 6.01012 0
M  V30 1193 H 113.004 3.03775 4.86203 0
M  V30 1194 H 111.401 3.79875 4.64559 0
M  V30 1195 H 112.471 3.6025 3.24573 0
M  V30 1196 N 113.814 -1.1601 1.06675 0
M  V30 1197 C 114.764 -2.18512 0.650888 0
M  V30 1198 C 115.748 -1.57677 -0.320441 0
M  V30 1199 O 116.94 -1.76482 -0.135266 0
M  V30 1200 C 114.069 -3.43273 0.0429255 0
M  V30 1201 C 113.155 -4.11176 1.03898 0
M  V30 1202 N 113.546 -4.54672 2.216 0
M  V30 1203 C 111.844 -4.37417 0.870779 0
M  V30 1204 C 112.545 -5.07248 2.84736 0
M  V30 1205 N 111.521 -5.0037 2.12441 0
M  V30 1206 H 115.323 -2.49863 1.54745 0
M  V30 1207 H 112.837 -1.32503 0.938975 0
M  V30 1208 H 114.834 -4.16006 -0.272857 0
M  V30 1209 H 113.494 -3.13408 -0.84884 0
M  V30 1210 H 114.505 -4.4828 2.59356 0
M  V30 1211 H 111.182 -4.17488 0.0313293 0
M  V30 1212 H 112.572 -5.50912 3.84636 0
M  V30 1213 N 115.292 -0.849877 -1.32721 0
M  V30 1214 C 116.222 -0.306308 -2.31482 0
M  V30 1215 C 117.203 0.591952 -1.59468 0
M  V30 1216 O 118.388 0.513199 -1.87296 0
M  V30 1217 C 115.518 0.510204 -3.43532 0
M  V30 1218 C 114.472 -0.293209 -4.26994 0
M  V30 1219 C 113.798 0.647743 -5.30762 0
M  V30 1220 C 115.098 -1.51634 -4.99804 0
M  V30 1221 H 116.792 -1.13153 -2.77195 0
M  V30 1222 H 114.338 -0.545553 -1.33266 0
M  V30 1223 H 116.291 0.900856 -4.11658 0
M  V30 1224 H 115.015 1.36874 -2.96535 0
M  V30 1225 H 113.674 -0.665555 -3.60508 0
M  V30 1226 H 113.322 1.50299 -4.8002 0
M  V30 1227 H 113.022 0.11422 -5.87489 0
M  V30 1228 H 114.546 1.03567 -6.01753 0
M  V30 1229 H 115.96 -1.19824 -5.60638 0
M  V30 1230 H 114.357 -1.98745 -5.66234 0
M  V30 1231 H 115.427 -2.28018 -4.27943 0
M  V30 1232 N 116.77 1.45427 -0.607355 0
M  V30 1233 C 117.995 2.07124 -0.107006 0
M  V30 1234 C 118.42 1.44906 1.19933 0
M  V30 1235 O 117.778 0.541687 1.73019 0
M  V30 1236 C 117.826 3.60595 0.0194119 0
M  V30 1237 O 116.93 3.98285 1.0697 0
M  V30 1238 H 116.271 0.659868 -0.0739597 0
M  V30 1239 H 118.801 1.86683 -0.837297 0
M  V30 1240 H 118.811 4.07419 0.2177 0
M  V30 1241 H 117.486 4.05266 -0.934453 0
M  V30 1242 H 116.063 3.63133 0.847889 0
M  V30 1243 N 118.248 0.346503 1.53744 0
M  V30 1244 C 119.496 -0.248612 2.00565 0
M  V30 1245 C 119.817 -1.5083 1.23593 0
M  V30 1246 O 119.087 -1.92858 0.343912 0
M  V30 1247 H 117.667 -0.0948564 0.740953 0
M  V30 1248 H 120.329 0.468341 1.89189 0
M  V30 1249 H 119.425 -0.488994 3.08245 0
M  V30 1250 N 119.726 -1.57421 0.075193 0
M  V30 1251 C 120.956 -1.97659 -0.601203 0
M  V30 1252 C 121.364 -0.952427 -1.63479 0
M  V30 1253 O 120.707 0.0688241 -1.83571 0
M  V30 1254 C 120.769 -3.34218 -1.32434 0
M  V30 1255 C 120.433 -4.5484 -0.443826 0
M  V30 1256 C 121.43 -5.19034 0.299969 0
M  V30 1257 C 119.115 -5.00952 -0.367709 0
M  V30 1258 C 121.109 -6.27695 1.10807 0
M  V30 1259 C 118.796 -6.09484 0.444058 0
M  V30 1260 C 119.794 -6.72719 1.18061 0
M  V30 1261 O 119.482 -7.79161 1.97898 0
M  V30 1262 H 119.214 -0.65494 -0.167422 0
M  V30 1263 H 121.768 -2.04886 0.145157 0
M  V30 1264 H 119.998 -3.23615 -2.11685 0
M  V30 1265 H 121.687 -3.59038 -1.89331 0
M  V30 1266 H 122.453 -4.84351 0.250776 0
M  V30 1267 H 118.332 -4.51509 -0.930638 0
M  V30 1268 H 121.876 -6.76982 1.68347 0
M  V30 1269 H 117.773 -6.43601 0.494803 0
M  V30 1270 H 118.541 -7.96055 1.90367 0
M  V30 1271 N 121.204 0.198386 -1.56346 0
M  V30 1272 C 122.481 0.944982 -1.71258 0
M  V30 1273 C 122.861 2.0151 -0.629048 0
M  V30 1274 O 122.209 2.25639 0.360473 0
M  V30 1275 C 122.419 1.5344 -3.1346 0
M  V30 1276 C 123.767 2.01778 -3.73591 0
M  V30 1277 O 124.791 1.63288 -3.16568 0
M  V30 1278 O 123.65 2.72594 -4.73661 0
M  V30 1279 H 120.744 0.442939 -0.69838 0
M  V30 1280 H 123.29 0.188342 -1.68652 0
M  V30 1281 H 122.062 0.762869 -3.83792 0
M  V30 1282 H 121.685 2.35596 -3.20282 0
M  V30 1283 N 122.682 1.50554 0.465978 0
M  V30 1284 C 123.928 1.62038 1.21949 0
M  V30 1285 C 124.261 0.322116 1.9151 0
M  V30 1286 O 123.536 -0.676723 1.82348 0
M  V30 1287 C 123.819 2.80421 2.25912 0
M  V30 1288 C 123.672 4.20144 1.60622 0
M  V30 1289 C 124.991 2.94354 3.27176 0
M  V30 1290 H 122.11 0.589752 0.441998 0
M  V30 1291 H 124.752 1.82956 0.51257 0
M  V30 1292 H 122.902 2.62717 2.86203 0
M  V30 1293 H 124.574 4.49449 1.03889 0
M  V30 1294 H 122.817 4.24165 0.909211 0
M  V30 1295 H 123.488 4.98914 2.36196 0
M  V30 1296 H 125.964 3.10578 2.76913 0
M  V30 1297 H 124.84 3.788 3.97242 0
M  V30 1298 H 125.101 2.05186 3.916 0
M  V30 1299 N 124.16 -0.719506 1.40217 0
M  V30 1300 C 125.388 -1.50864 1.41589 0
M  V30 1301 C 125.803 -1.88794 0.0145275 0
M  V30 1302 O 125.16 -1.55174 -0.960594 0
M  V30 1303 C 125.211 -2.78646 2.30302 0
M  V30 1304 O 124.932 -2.42321 3.64983 0
M  V30 1305 C 126.433 -3.72569 2.40224 0
M  V30 1306 H 123.653 -0.465709 0.48307 0
M  V30 1307 H 126.197 -0.88785 1.84221 0
M  V30 1308 H 124.352 -3.37019 1.91042 0
M  V30 1309 H 124.766 -3.24514 4.12057 0
M  V30 1310 H 126.24 -4.5908 3.06512 0
M  V30 1311 H 126.717 -4.15403 1.42608 0
M  V30 1312 H 127.323 -3.20109 2.80019 0
M  V30 1313 N 125.638 -1.25649 -0.95132 0
M  V30 1314 C 126.571 -1.00644 -2.04807 0
M  V30 1315 C 127.549 0.0654271 -1.62468 0
M  V30 1316 O 128.733 -0.074911 -1.88351 0
M  V30 1317 C 125.86 -0.522052 -3.34653 0
M  V30 1318 C 124.906 -1.58495 -3.95957 0
M  V30 1319 S 125.739 -3.17108 -4.31512 0
M  V30 1320 C 126.895 -2.70412 -5.64471 0
M  V30 1321 H 127.128 -1.93508 -2.25703 0
M  V30 1322 H 124.661 -1.09216 -1.09139 0
M  V30 1323 H 126.619 -0.24923 -4.09743 0
M  V30 1324 H 125.28 0.386146 -3.11717 0
M  V30 1325 H 124.473 -1.1968 -4.89584 0
M  V30 1326 H 124.075 -1.80862 -3.2736 0
M  V30 1327 H 126.367 -2.14245 -6.42733 0
M  V30 1328 H 127.31 -3.62693 -6.08161 0
M  V30 1329 H 127.718 -2.10302 -5.23864 0
M  V30 1330 N 127.117 1.15442 -1.07289 0
M  V30 1331 C 128.394 1.82306 -0.708792 0
M  V30 1332 C 128.774 1.94991 0.808807 0
M  V30 1333 O 128.122 1.50085 1.72298 0
M  V30 1334 C 128.332 3.18695 -1.42247 0
M  V30 1335 C 129.68 3.94341 -1.57417 0
M  V30 1336 O 130.704 3.28247 -1.38319 0
M  V30 1337 O 129.563 5.12839 -1.88834 0
M  V30 1338 H 126.657 0.787628 -0.252132 0
M  V30 1339 H 129.203 1.22559 -1.17377 0
M  V30 1340 H 127.975 3.04557 -2.45684 0
M  V30 1341 H 127.598 3.86128 -0.948223 0
M  V30 1342 N 128.595 0.856903 1.32268 0
M  V30 1343 C 129.872 0.382583 1.91822 0
M  V30 1344 C 130.252 -1.13407 1.78051 0
M  V30 1345 O 129.6 -1.95673 1.18001 0
M  V30 1346 C 129.81 0.849446 3.38505 0
M  V30 1347 C 131.158 0.867936 4.15634 0
M  V30 1348 O 132.182 0.794232 3.47232 0
M  V30 1349 O 131.041 0.972286 5.37781 0
M  V30 1350 H 128.135 0.112014 0.819379 0
M  V30 1351 H 130.681 0.943952 1.41024 0
M  V30 1352 H 129.453 1.89267 3.42482 0
M  V30 1353 H 129.076 0.265652 3.96712 0
M  V30 1354 N 130.073 -1.45103 0.615059 0
M  V30 1355 C 131.003 -2.33339 -0.0865619 0
M  V30 1356 C 131.984 -1.4727 -0.851209 0
M  V30 1357 O 133.169 -1.76026 -0.820281 0
M  V30 1358 C 130.299 -3.30095 -1.07956 0
M  V30 1359 C 129.253 -4.25858 -0.427628 0
M  V30 1360 C 128.579 -5.12361 -1.5294 0
M  V30 1361 C 129.879 -5.18165 0.655944 0
M  V30 1362 H 131.573 -2.92254 0.650224 0
M  V30 1363 H 129.119 -1.40532 0.314138 0
M  V30 1364 H 131.072 -3.90698 -1.57901 0
M  V30 1365 H 129.796 -2.69355 -1.84703 0
M  V30 1366 H 128.455 -3.66564 0.0510292 0
M  V30 1367 H 128.103 -4.47984 -2.28734 0
M  V30 1368 H 127.803 -5.77238 -1.09865 0
M  V30 1369 H 129.327 -5.75833 -2.03098 0
M  V30 1370 H 130.741 -5.72796 0.240257 0
M  V30 1371 H 129.138 -5.91559 1.00888 0
M  V30 1372 H 130.208 -4.60144 1.52957 0
M  V30 1373 N 131.551 -0.354651 -1.53558 0
M  V30 1374 C 132.498 0.496968 -2.25386 0
M  V30 1375 C 133.468 1.0865 -1.25636 0
M  V30 1376 O 134.653 1.12104 -1.54394 0
M  V30 1377 C 131.793 1.63637 -3.03837 0
M  V30 1378 C 130.906 1.07307 -4.18461 0
M  V30 1379 C 130.041 2.18068 -4.84376 0
M  V30 1380 C 129.08 1.59147 -5.91049 0
M  V30 1381 N 128.217 2.63695 -6.50699 0
M  V30 1382 H 133.057 -0.122075 -2.9775 0
M  V30 1383 H 130.594 -0.0720154 -1.46924 0
M  V30 1384 H 132.552 2.30734 -3.47589 0
M  V30 1385 H 131.182 2.22623 -2.33749 0
M  V30 1386 H 130.234 0.292708 -3.79272 0
M  V30 1387 H 131.546 0.602193 -4.95152 0
M  V30 1388 H 130.7 2.93007 -5.31255 0
M  V30 1389 H 129.439 2.68504 -4.07133 0
M  V30 1390 H 128.444 0.827175 -5.43542 0
M  V30 1391 H 129.669 1.09549 -6.70206 0
M  V30 1392 H 127.615 3.13365 -5.76315 0
M  V30 1393 H 127.532 2.21263 -7.22896 0
M  V30 1394 H 128.8 3.3837 -7.02229 0
M  V30 1395 N 133.029 1.57378 -0.0835403 0
M  V30 1396 C 133.977 2.14602 0.89714 0
M  V30 1397 C 134.971 1.08589 1.30018 0
M  V30 1398 O 136.177 1.26952 1.27606 0
M  V30 1399 H 132.552 0.686346 0.3073 0
M  V30 1400 H 134.523 2.95845 0.38969 0
M  V30 1401 C 133.272 2.73188 2.15089 0
M  V30 1402 H 132.595 3.54442 1.84962 0
M  V30 1403 H 134.035 3.1681 2.81793 0
M  V30 1404 C 132.494 1.68517 2.91725 0
M  V30 1405 O 133.024 1.11718 3.85852 0
M  V30 1406 N 131.23 1.39277 2.55049 0
M  V30 1407 H 130.777 1.85655 1.78577 0
M  V30 1408 H 130.735 0.694791 3.06627 0
M  V30 1409 N 134.507 -0.190092 1.56449 0
M  V30 1410 C 135.754 -0.909705 1.80916 0
M  V30 1411 C 136.082 -1.83047 0.657583 0
M  V30 1412 O 135.337 -1.92428 -0.356356 0
M  V30 1413 C 135.636 -1.75382 3.1141 0
M  V30 1414 C 135.302 -0.983606 4.40041 0
M  V30 1415 C 133.964 -0.770967 4.74984 0
M  V30 1416 C 136.316 -0.442024 5.19322 0
M  V30 1417 C 133.644 -0.0053448 5.867 0
M  V30 1418 C 135.996 0.310412 6.31838 0
M  V30 1419 C 134.66 0.534023 6.6536 0
M  V30 1420 H 133.93 -0.332885 0.662019 0
M  V30 1421 H 136.577 -0.175762 1.90692 0
M  V30 1422 H 134.882 -2.55659 2.96893 0
M  V30 1423 H 136.579 -2.31331 3.27547 0
M  V30 1424 H 133.169 -1.15936 4.12622 0
M  V30 1425 H 137.353 -0.593693 4.92736 0
M  V30 1426 H 132.609 0.177825 6.11141 0
M  V30 1427 H 136.783 0.737419 6.92485 0
M  V30 1428 H 134.41 1.12918 7.51767 0
M  V30 1429 N 135.985 -1.50799 -0.457987 0
M  V30 1430 C 137.401 -1.38515 -0.792819 0
M  V30 1431 C 137.601 -0.451409 -1.96379 0
M  V30 1432 O 136.657 0.10112 -2.52297 0
M  V30 1433 C 137.97 -2.80149 -1.09258 0
M  V30 1434 C 139.518 -2.89156 -1.19825 0
M  V30 1435 C 139.993 -4.31651 -1.53106 0
M  V30 1436 N 141.484 -4.34662 -1.60072 0
M  V30 1437 C 142.219 -5.41928 -1.87354 0
M  V30 1438 N 141.715 -6.59384 -2.12568 0
M  V30 1439 N 143.508 -5.29385 -1.88965 0
M  V30 1440 H 135.659 -2.10073 0.313511 0
M  V30 1441 H 137.922 -0.944803 0.0777862 0
M  V30 1442 H 137.628 -3.50374 -0.305084 0
M  V30 1443 H 137.502 -3.18204 -2.02549 0
M  V30 1444 H 139.889 -2.19141 -1.97639 0
M  V30 1445 H 139.97 -2.54626 -0.244821 0
M  V30 1446 H 139.614 -5.02208 -0.758266 0
M  V30 1447 H 139.544 -4.63678 -2.49621 0
M  V30 1448 H 142.035 -3.49973 -1.42573 0
M  V30 1449 H 142.348 -7.36934 -2.32696 0
M  V30 1450 H 140.693 -6.62535 -2.09933 0
M  V30 1451 H 143.884 -4.36616 -1.68772 0
M  V30 1452 H 144.057 -6.13066 -2.09891 0
M  V30 1453 N 137.463 0.71206 -1.40597 0
M  V30 1454 C 138.395 1.83704 -1.37061 0
M  V30 1455 C 139.408 1.60453 -0.275426 0
M  V30 1456 O 140.597 1.70262 -0.53602 0
M  V30 1457 C 137.697 3.20172 -1.11099 0
M  V30 1458 C 136.87 3.7059 -2.3234 0
M  V30 1459 C 135.929 4.85681 -2.02485 0
M  V30 1460 O 134.955 4.9815 -2.75382 0
M  V30 1461 N 136.157 5.71735 -1.00497 0
M  V30 1462 H 138.922 1.87235 -2.34016 0
M  V30 1463 H 136.483 0.893739 -1.34996 0
M  V30 1464 H 138.475 3.94768 -0.891064 0
M  V30 1465 H 137.045 3.11767 -0.227989 0
M  V30 1466 H 136.265 2.87085 -2.7014 0
M  V30 1467 H 137.553 4.01011 -3.13157 0
M  V30 1468 H 136.951 5.64275 -0.401298 0
M  V30 1469 H 135.508 6.463 -0.844942 0
M  V30 1470 N 138.941 1.26152 0.944643 0
M  V30 1471 C 140.187 1.12665 1.69346 0
M  V30 1472 C 140.542 -0.3273 1.89596 0
M  V30 1473 O 139.835 -1.23717 1.46303 0
M  V30 1474 C 140.029 1.82541 3.07268 0
M  V30 1475 C 139.858 3.34582 3.00475 0
M  V30 1476 C 138.628 4.03863 3.03681 0
M  V30 1477 C 140.826 4.30828 2.80877 0
M  V30 1478 N 138.808 5.42603 2.87151 0
M  V30 1479 C 140.179 5.5672 2.7288 0
M  V30 1480 C 142.234 4.21122 2.65633 0
M  V30 1481 C 140.937 6.74013 2.51196 0
M  V30 1482 C 142.963 5.38118 2.45323 0
M  V30 1483 C 142.325 6.62955 2.38055 0
M  V30 1484 H 138.424 0.467041 0.627214 0
M  V30 1485 H 141.008 1.59391 1.11815 0
M  V30 1486 H 139.179 1.38296 3.62945 0
M  V30 1487 H 140.911 1.61708 3.70989 0
M  V30 1488 H 137.666 3.55198 3.1326 0
M  V30 1489 H 138.09 6.15443 2.82063 0
M  V30 1490 H 142.732 3.25344 2.70021 0
M  V30 1491 H 140.45 7.6989 2.4555 0
M  V30 1492 H 144.036 5.32475 2.34439 0
M  V30 1493 H 142.916 7.51959 2.22546 0
M  V30 1494 N 140.419 -1.14872 1.07899 0
M  V30 1495 C 141.667 -1.85422 0.803941 0
M  V30 1496 C 141.988 -1.83051 -0.67211 0
M  V30 1497 O 141.258 -1.27532 -1.48703 0
M  V30 1498 H 139.838 -0.686537 0.294408 0
M  V30 1499 H 142.5 -1.39226 1.3639 0
M  V30 1500 H 141.596 -2.90399 1.14346 0
M  V30 1501 N 141.898 -0.863906 -1.31812 0
M  V30 1502 C 143.123 -0.48527 -2.01643 0
M  V30 1503 C 143.548 0.913058 -1.64453 0
M  V30 1504 O 142.906 1.6014 -0.849985 0
M  V30 1505 C 142.954 -0.642625 -3.54828 0
M  V30 1506 O 142.058 0.320659 -4.11151 0
M  V30 1507 H 141.399 -0.193793 -0.635091 0
M  V30 1508 H 143.929 -1.16565 -1.68148 0
M  V30 1509 H 143.939 -0.533628 -4.04495 0
M  V30 1510 H 142.614 -1.66227 -3.81237 0
M  V30 1511 H 141.191 0.167126 -3.72525 0
M  V30 1512 N 143.376 1.44774 -0.622745 0
M  V30 1513 C 144.323 2.30635 0.0871679 0
M  V30 1514 C 145.293 1.42994 0.845097 0
M  V30 1515 O 146.478 1.71907 0.827812 0
M  V30 1516 C 143.618 3.28144 1.06844 0
M  V30 1517 C 142.731 4.30888 0.309809 0
M  V30 1518 C 141.866 5.15494 1.28215 0
M  V30 1519 C 140.905 6.09953 0.512198 0
M  V30 1520 N 140.042 6.87287 1.43458 0
M  V30 1521 H 144.882 2.90803 -0.650974 0
M  V30 1522 H 142.419 1.43286 -0.33281 0
M  V30 1523 H 144.377 3.83157 1.65066 0
M  V30 1524 H 143.007 2.69695 1.77382 0
M  V30 1525 H 142.059 3.78414 -0.388181 0
M  V30 1526 H 143.371 4.97955 -0.290254 0
M  V30 1527 H 142.525 5.74983 1.93596 0
M  V30 1528 H 141.264 4.48481 1.91614 0
M  V30 1529 H 140.269 5.49581 -0.155151 0
M  V30 1530 H 141.494 6.78999 -0.116958 0
M  V30 1531 H 139.44 6.2295 2.05594 0
M  V30 1532 H 139.357 7.50763 0.888335 0
M  V30 1533 H 140.625 7.51306 2.07749 0
M  V30 1534 N 144.854 0.36279 1.53368 0
M  V30 1535 C 146.082 -0.228613 2.05633 0
M  V30 1536 C 146.497 -1.42676 1.23649 0
M  V30 1537 O 145.854 -1.80394 0.27647 0
M  V30 1538 C 145.905 -0.624845 3.56059 0
M  V30 1539 O 145.626 0.525675 4.34935 0
M  V30 1540 C 147.127 -1.27493 4.24571 0
M  V30 1541 H 144.347 -0.0407183 0.669763 0
M  V30 1542 H 146.891 0.520352 1.97769 0
M  V30 1543 H 145.046 -1.32373 3.64083 0
M  V30 1544 H 145.46 0.205969 5.24095 0
M  V30 1545 H 146.934 -1.50277 5.31151 0
M  V30 1546 H 147.411 -2.23439 3.78116 0
M  V30 1547 H 148.017 -0.617558 4.20792 0
M  V30 1548 N 146.332 -1.57332 0.0918853 0
M  V30 1549 C 147.743 -1.81496 -0.437739 0
M  V30 1550 C 148.094 -1.00727 -1.6837 0
M  V30 1551 O 147.219 -0.235694 -2.15113 0
M  V30 1552 C 147.814 -3.29197 -0.800939 0
M  V30 1553 C 146.373 -3.54136 -1.27532 0
M  V30 1554 C 145.52 -2.75979 -0.270392 0
M  V30 1555 H 148.471 -1.55494 0.317366 0
M  V30 1556 H 148.492 -3.42344 -1.66074 0
M  V30 1557 H 148.004 -3.87955 0.106078 0
M  V30 1558 H 146.105 -3.00705 -2.20016 0
M  V30 1559 H 146.218 -4.62792 -1.23938 0
M  V30 1560 H 144.582 -2.43349 -0.751872 0
M  V30 1561 H 145.365 -3.37484 0.629248 0
M  V30 1562 N 147.81 0.181792 -1.56548 0
M  V30 1563 C 149.058 0.89832 -1.81038 0
M  V30 1564 C 149.379 1.83232 -0.667164 0
M  V30 1565 O 148.649 1.93372 0.313673 0
M  V30 1566 H 147.229 0.33471 -0.667816 0
M  V30 1567 H 149.891 0.184116 -1.94028 0
M  V30 1568 H 148.987 1.4815 -2.74696 0
M  V30 1569 N 149.288 1.51039 0.449983 0
M  V30 1570 C 150.238 1.67824 1.54335 0
M  V30 1571 C 151.222 0.5324 1.51836 0
M  V30 1572 O 152.414 0.787762 1.58503 0
M  V30 1573 C 149.543 1.7951 2.92628 0
M  V30 1574 C 148.629 2.99838 2.9993 0
M  V30 1575 N 149.02 4.23207 2.77001 0
M  V30 1576 C 147.318 2.98832 3.31082 0
M  V30 1577 C 148.019 5.04361 2.89818 0
M  V30 1578 N 146.995 4.38746 3.2094 0
M  V30 1579 H 150.797 2.60884 1.35339 0
M  V30 1580 H 148.311 1.48513 0.657085 0
M  V30 1581 H 150.308 1.89642 3.7127 0
M  V30 1582 H 148.968 0.876227 3.12654 0
M  V30 1583 H 149.979 4.5236 2.52172 0
M  V30 1584 H 146.656 2.16527 3.56963 0
M  V30 1585 H 148.046 6.12528 2.76151 0
M  V30 1586 N 150.766 -0.704594 1.40972 0
M  V30 1587 C 152.177 -1.28418 1.3552 0
M  V30 1588 C 152.528 -1.96171 0.0339434 0
M  V30 1589 O 151.653 -1.98231 -0.867944 0
M  V30 1590 C 152.248 -2.33528 2.45459 0
M  V30 1591 C 150.807 -2.87085 2.43433 0
M  V30 1592 C 149.954 -1.61007 2.2577 0
M  V30 1593 H 152.905 -0.499963 1.50619 0
M  V30 1594 H 152.926 -3.14619 2.13998 0
M  V30 1595 H 152.438 -1.84187 3.41609 0
M  V30 1596 H 150.539 -3.40626 1.51013 0
M  V30 1597 H 150.652 -3.3813 3.39419 0
M  V30 1598 H 149.016 -1.86482 1.73483 0
M  V30 1599 H 149.799 -1.13675 3.23933 0
M  V30 1600 N 152.244 -1.26651 -0.937939 0
M  V30 1601 C 153.154 -1.10276 -2.07066 0
M  V30 1602 C 154.17 -0.0354197 -1.73964 0
M  V30 1603 O 155.346 -0.239816 -1.99967 0
M  V30 1604 C 152.411 -0.740887 -3.38691 0
M  V30 1605 C 151.472 -1.88799 -3.85556 0
M  V30 1606 C 150.705 -1.54329 -5.10899 0
M  V30 1607 O 150.928 -0.446494 -5.6865 0
M  V30 1608 O 149.862 -2.37911 -5.52885 0
M  V30 1609 H 153.688 -2.05309 -2.23789 0
M  V30 1610 H 151.273 -1.05743 -1.0554 0
M  V30 1611 H 153.155 -0.55195 -4.1777 0
M  V30 1612 H 151.83 0.180022 -3.23199 0
M  V30 1613 H 150.737 -2.13191 -3.07409 0
M  V30 1614 H 152.07 -2.78874 -4.05574 0
M  V30 1615 N 153.722 1.14298 -1.08507 0
M  V30 1616 C 154.952 1.88945 -0.835663 0
M  V30 1617 C 155.36 1.78894 0.615928 0
M  V30 1618 O 154.703 1.1468 1.43506 0
M  V30 1619 C 154.765 3.39585 -1.17994 0
M  V30 1620 C 154.429 3.7342 -2.63451 0
M  V30 1621 C 155.426 3.73454 -3.61702 0
M  V30 1622 C 153.111 4.03368 -2.99332 0
M  V30 1623 C 155.105 4.02961 -4.93864 0
M  V30 1624 C 152.792 4.32538 -4.31687 0
M  V30 1625 C 153.79 4.32318 -5.28763 0
M  V30 1626 O 153.478 4.6078 -6.58739 0
M  V30 1627 H 153.21 0.605307 -0.300965 0
M  V30 1628 H 155.764 1.45673 -1.44806 0
M  V30 1629 H 153.994 3.83315 -0.51055 0
M  V30 1630 H 155.683 3.9554 -0.911182 0
M  V30 1631 H 156.449 3.50403 -3.35325 0
M  V30 1632 H 152.328 4.02692 -2.24411 0
M  V30 1633 H 155.872 4.02704 -5.69627 0
M  V30 1634 H 151.769 4.55059 -4.57812 0
M  V30 1635 H 152.537 4.78492 -6.64069 0
M  V30 1636 N 155.201 0.870884 1.31352 0
M  V30 1637 C 156.449 0.48132 1.96285 0
M  V30 1638 C 156.77 -0.969813 1.69173 0
M  V30 1639 O 156.04 -1.67998 1.00764 0
M  V30 1640 H 154.62 0.175002 0.726212 0
M  V30 1641 H 157.282 1.11087 1.60143 0
M  V30 1642 H 156.378 0.639825 3.05471 0
M  V30 1643 N 156.679 -1.44442 0.630414 0
M  V30 1644 C 157.629 -2.27794 -0.0968103 0
M  V30 1645 C 158.613 -1.38624 -0.816834 0
M  V30 1646 O 159.805 -1.62438 -0.70306 0
M  V30 1647 C 156.934 -3.25929 -1.07819 0
M  V30 1648 C 156.02 -4.22588 -0.357826 0
M  V30 1649 N 156.411 -5.0207 0.613169 0
M  V30 1650 C 154.709 -4.41914 -0.602365 0
M  V30 1651 C 155.41 -5.72351 1.03871 0
M  V30 1652 N 154.386 -5.42287 0.377642 0
M  V30 1653 H 158.188 -2.86653 0.648621 0
M  V30 1654 H 155.702 -1.55871 0.455862 0
M  V30 1655 H 157.699 -3.84399 -1.61378 0
M  V30 1656 H 156.359 -2.68631 -1.82393 0
M  V30 1657 H 157.37 -5.08331 0.990947 0
M  V30 1658 H 154.047 -3.95714 -1.33103 0
M  V30 1659 H 155.437 -6.4619 1.84086 0
M  V30 1660 N 158.157 -0.370918 -1.53173 0
M  V30 1661 C 159.385 0.217704 -2.05751 0
M  V30 1662 C 159.8 1.42018 -1.24404 0
M  V30 1663 O 159.157 1.80245 -0.286033 0
M  V30 1664 C 159.208 0.605954 -3.56385 0
M  V30 1665 O 158.929 -0.548734 -4.3465 0
M  V30 1666 C 160.43 1.2524 -4.25241 0
M  V30 1667 H 157.65 0.0371659 -0.66997 0
M  V30 1668 H 160.194 -0.530832 -1.9749 0
M  V30 1669 H 158.349 1.3044 -3.6478 0
M  V30 1670 H 158.763 -0.23376 -5.23979 0
M  V30 1671 H 160.237 1.47458 -5.3194 0
M  V30 1672 H 160.714 2.2143 -3.79296 0
M  V30 1673 H 161.32 0.595233 -4.21114 0
M  V30 1674 N 159.635 1.57281 -0.100228 0
M  V30 1675 C 160.598 2.13158 0.842398 0
M  V30 1676 C 161.598 1.06202 1.20738 0
M  V30 1677 O 162.788 1.32066 1.13597 0
M  V30 1678 C 159.92 2.65639 2.13655 0
M  V30 1679 H 161.113 2.97766 0.357114 0
M  V30 1680 H 158.666 1.5559 0.148823 0
M  V30 1681 H 159.401 1.84566 2.66657 0
M  V30 1682 H 159.186 3.43844 1.88451 0
M  V30 1683 H 160.676 3.08846 2.81077 0
M  V30 1684 N 161.113 -0.173488 1.56642 0
M  V30 1685 C 162.361 -0.888706 1.81512 0
M  V30 1686 C 162.682 -1.82875 0.676872 0
M  V30 1687 O 161.952 -1.93536 -0.303414 0
M  V30 1688 H 160.532 -0.331164 0.669582 0
M  V30 1689 H 163.194 -0.173823 1.94123 0
M  V30 1690 H 162.29 -1.46691 2.75478 0
M  V30 1691 N 162.591 -1.51276 -0.441967 0
M  V30 1692 C 163.837 -1.63958 -1.19355 0
M  V30 1693 C 164.17 -0.352543 -1.90973 0
M  V30 1694 O 163.445 0.647627 -1.83401 0
M  V30 1695 C 163.728 -2.83979 -2.21422 0
M  V30 1696 C 163.581 -4.22646 -1.53918 0
M  V30 1697 C 164.9 -2.99521 -3.22451 0
M  V30 1698 H 162.019 -0.596709 -0.432559 0
M  V30 1699 H 164.661 -1.83748 -0.483398 0
M  V30 1700 H 162.811 -2.67237 -2.81987 0
M  V30 1701 H 164.483 -4.51045 -0.967256 0
M  V30 1702 H 162.726 -4.25558 -0.841615 0
M  V30 1703 H 163.397 -5.02609 -2.28229 0
M  V30 1704 H 165.873 -3.14944 -2.71937 0
M  V30 1705 H 164.749 -3.85072 -3.91166 0
M  V30 1706 H 165.01 -2.11391 -3.88287 0
M  V30 1707 N 164.069 0.697108 -1.41344 0
M  V30 1708 C 165.346 1.45154 -1.31109 0
M  V30 1709 C 165.726 2.11009 0.0620449 0
M  V30 1710 O 165.074 2.01571 1.07618 0
M  V30 1711 C 165.284 2.47223 -2.46337 0
M  V30 1712 C 166.632 3.1252 -2.87431 0
M  V30 1713 O 167.656 2.57547 -2.46065 0
M  V30 1714 O 166.515 4.12083 -3.58957 0
M  V30 1715 H 163.609 0.646365 -0.515889 0
M  V30 1716 H 166.155 0.727716 -1.53305 0
M  V30 1717 H 164.927 1.97204 -3.37974 0
M  V30 1718 H 164.55 3.27116 -2.2601 0
M  V30 1719 N 165.547 1.27147 0.931209 0
M  V30 1720 C 166.51 1.09615 2.01289 0
M  V30 1721 C 167.51 0.0412581 1.60747 0
M  V30 1722 O 168.7 0.285545 1.71844 0
M  V30 1723 C 165.832 0.669447 3.34262 0
M  V30 1724 H 167.025 2.05662 2.18273 0
M  V30 1725 H 164.578 1.09885 1.11153 0
M  V30 1726 H 165.313 -0.292572 3.22978 0
M  V30 1727 H 165.098 1.43127 3.65044 0
M  V30 1728 H 166.588 0.568921 4.13706 0
M  V30 1729 N 167.025 -1.13721 1.09112 0
M  V30 1730 C 168.253 -1.88773 0.846899 0
M  V30 1731 C 168.668 -1.7896 -0.601572 0
M  V30 1732 O 168.025 -1.15394 -1.41388 0
M  V30 1733 C 168.076 -3.3849 1.26913 0
M  V30 1734 O 167.797 -3.48043 2.66079 0
M  V30 1735 C 169.298 -4.30518 1.05682 0
M  V30 1736 H 166.518 -0.59772 0.304914 0
M  V30 1737 H 169.062 -1.43977 1.45227 0
M  V30 1738 H 167.217 -3.80881 0.707723 0
M  V30 1739 H 167.631 -4.4109 2.83795 0
M  V30 1740 H 169.105 -5.3391 1.40156 0
M  V30 1741 H 169.582 -4.392 -0.00563416 0
M  V30 1742 H 170.188 -3.93893 1.60402 0
M  V30 1743 N 168.503 -0.877838 -1.30888 0
M  V30 1744 C 169.731 -0.507414 -2.00581 0
M  V30 1745 C 170.146 0.902216 -1.65848 0
M  V30 1746 O 169.503 1.59225 -0.891831 0
M  V30 1747 C 169.554 -0.664162 -3.55347 0
M  V30 1748 O 169.275 -2.01829 -3.8884 0
M  V30 1749 C 170.776 -0.295787 -4.42312 0
M  V30 1750 H 167.996 -0.196866 -0.641471 0
M  V30 1751 H 170.54 -1.18117 -1.66939 0
M  V30 1752 H 168.695 -0.0378619 -3.87381 0
M  V30 1753 H 169.109 -2.03174 -4.8355 0
M  V30 1754 H 170.583 -0.456388 -5.5011 0
M  V30 1755 H 171.06 0.765663 -4.32475 0
M  V30 1756 H 171.666 -0.898113 -4.15709 0
M  V30 1757 N 169.982 1.44106 -0.638065 0
M  V30 1758 C 171.23 2.01579 -0.145043 0
M  V30 1759 C 171.551 1.50496 1.24 0
M  V30 1760 O 170.821 0.711374 1.82527 0
M  V30 1761 H 169.401 0.745282 -0.05063 0
M  V30 1762 H 172.063 1.76516 -0.826327 0
M  V30 1763 H 171.159 3.11877 -0.118039 0
M  V30 1764 N 171.46 0.379036 1.52974 0
M  V30 1765 C 172.871 -0.0972525 1.86447 0
M  V30 1766 C 173.222 -1.47027 1.29914 0
M  V30 1767 O 172.347 -2.07135 0.626433 0
M  V30 1768 C 172.942 -0.183248 3.38304 0
M  V30 1769 C 171.501 -0.603812 3.71525 0
M  V30 1770 C 170.648 0.240632 2.76254 0
M  V30 1771 H 173.599 0.597316 1.4703 0
M  V30 1772 H 173.62 -1.00432 3.67006 0
M  V30 1773 H 173.132 0.816191 3.79421 0
M  V30 1774 H 171.233 -1.61099 3.35973 0
M  V30 1775 H 171.346 -0.369086 4.77676 0
M  V30 1776 H 169.71 -0.292548 2.53014 0
M  V30 1777 H 170.493 1.23786 3.20206 0
M  V30 1778 N 172.938 -1.57226 0.108567 0
M  V30 1779 C 173.868 -2.17778 -0.84232 0
M  V30 1780 C 174.849 -1.11487 -1.2847 0
M  V30 1781 O 176.034 -1.39681 -1.34918 0
M  V30 1782 C 173.164 -2.76888 -2.09644 0
M  V30 1783 C 172.118 -3.88669 -1.79221 0
M  V30 1784 C 171.444 -4.34541 -3.11574 0
M  V30 1785 C 172.744 -5.11251 -1.06864 0
M  V30 1786 H 174.438 -2.97489 -0.337774 0
M  V30 1787 H 171.984 -1.43097 -0.161025 0
M  V30 1788 H 173.937 -3.17904 -2.76614 0
M  V30 1789 H 172.661 -1.94451 -2.62405 0
M  V30 1790 H 171.32 -3.48213 -1.14644 0
M  V30 1791 H 170.968 -3.48977 -3.62249 0
M  V30 1792 H 170.668 -5.09914 -2.91996 0
M  V30 1793 H 172.192 -4.782 -3.7968 0
M  V30 1794 H 173.606 -5.49352 -1.63968 0
M  V30 1795 H 172.003 -5.9214 -0.974178 0
M  V30 1796 H 173.073 -4.8487 -0.0536168 0
M  V30 1797 N 174.416 0.165178 -1.56732 0
M  V30 1798 C 175.664 0.879068 -1.8198 0
M  V30 1799 C 175.985 1.82514 -0.686561 0
M  V30 1800 O 175.255 1.93694 0.293146 0
M  V30 1801 H 173.835 0.327608 -0.671329 0
M  V30 1802 H 176.497 0.163526 -1.94213 0
M  V30 1803 H 175.593 1.45228 -2.76252 0
M  V30 1804 N 175.894 1.51508 0.433938 0
M  V30 1805 C 176.826 1.69266 1.54537 0
M  V30 1806 C 177.839 0.573276 1.52373 0
M  V30 1807 O 179.028 0.847698 1.57087 0
M  V30 1808 C 176.128 1.69524 2.93453 0
M  V30 1809 C 175.301 2.98101 3.20085 0
M  V30 1810 C 174.36 2.90502 4.38742 0
M  V30 1811 O 173.386 3.64442 4.3723 0
M  V30 1812 N 174.588 2.06586 5.42496 0
M  V30 1813 H 177.353 2.65145 1.39708 0
M  V30 1814 H 174.914 1.49437 0.622922 0
M  V30 1815 H 176.906 1.62004 3.70859 0
M  V30 1816 H 175.476 0.812245 3.01863 0
M  V30 1817 H 174.696 3.19464 2.30947 0
M  V30 1818 H 175.984 3.83207 3.34708 0
M  V30 1819 H 175.382 1.45896 5.46563 0
M  V30 1820 H 173.939 2.04943 6.18742 0
M  V30 1821 N 177.372 -0.689602 1.41712 0
M  V30 1822 C 178.62 -1.4468 1.4111 0
M  V30 1823 C 178.941 -1.94986 0.0232196 0
M  V30 1824 O 178.211 -1.72097 -0.935913 0
M  V30 1825 H 176.791 -0.536847 0.519427 0
M  V30 1826 H 179.453 -0.815825 1.77004 0
M  V30 1827 H 178.549 -2.30706 2.10193 0
M  V30 1828 N 178.85 -1.27639 -0.924453 0
M  V30 1829 C 180.099 -1.13549 -1.66702 0
M  V30 1830 C 180.412 0.317487 -1.93006 0
M  V30 1831 O 181.618 0.579333 -2.65247 0
M  V30 1832 C 180.074 -1.98426 -3.00259 0
M  V30 1833 C 179.682 -3.484 -2.81641 0
M  V30 1834 C 181.426 -1.92993 -3.78092 0
M  V30 1835 C 179.333 -4.25464 -4.10773 0
M  V30 1836 H 178.263 -0.421351 -0.625283 0
M  V30 1837 H 180.914 -1.52085 -1.02676 0
M  V30 1838 H 179.296 -1.52736 -3.6536 0
M  V30 1839 H 180.47 -4.01973 -2.25287 0
M  V30 1840 H 178.785 -3.55245 -2.17232 0
M  V30 1841 H 181.382 -2.47844 -4.7379 0
M  V30 1842 H 181.725 -0.904281 -4.0636 0
M  V30 1843 H 182.258 -2.36595 -3.19793 0
M  V30 1844 H 178.997 -5.28566 -3.87683 0
M  V30 1845 H 178.517 -3.76667 -4.66779 0
M  V30 1846 H 180.196 -4.34812 -4.79111 0
M  V30 1847 N 180.328 1.1314 -1.09713 0
M  V30 1848 C 181.291 2.16831 -0.742751 0
M  V30 1849 C 182.291 1.59159 0.229129 0
M  V30 1850 O 183.481 1.74199 0.00693237 0
M  V30 1851 C 180.613 3.40756 -0.0989168 0
M  V30 1852 H 181.806 2.49695 -1.66109 0
M  V30 1853 H 179.359 1.2802 -0.896699 0
M  V30 1854 H 180.094 3.13485 0.830514 0
M  V30 1855 H 179.879 3.83888 -0.798265 0
M  V30 1856 H 181.369 4.17386 0.133524 0
M  V30 1857 N 181.806 0.884767 1.30421 0
M  V30 1858 C 183.034 0.518044 2.0031 0
M  V30 1859 C 183.449 -0.893408 1.66324 0
M  V30 1860 O 182.806 -1.5875 0.900262 0
M  V30 1861 C 182.857 0.682997 3.54989 0
M  V30 1862 O 182.578 2.03888 3.87764 0
M  V30 1863 C 184.079 0.31924 4.42149 0
M  V30 1864 H 181.299 0.200265 0.640418 0
M  V30 1865 H 183.843 1.19001 1.6631 0
M  V30 1866 H 181.998 0.0584052 3.87356 0
M  V30 1867 H 182.412 2.05735 4.82466 0
M  V30 1868 H 183.886 0.485555 5.4986 0
M  V30 1869 H 184.363 -0.742717 4.32875 0
M  V30 1870 H 184.969 0.920147 4.15227 0
M  V30 1871 N 183.284 -1.43765 0.645699 0
M  V30 1872 C 184.247 -2.29163 -0.0409488 0
M  V30 1873 C 185.247 -1.41813 -0.757996 0
M  V30 1874 O 186.437 -1.63527 -0.600382 0
M  V30 1875 C 183.569 -3.23716 -1.06869 0
M  V30 1876 H 184.762 -2.91366 0.710345 0
M  V30 1877 H 182.315 -1.5092 0.406547 0
M  V30 1878 H 183.05 -2.66393 -1.84947 0
M  V30 1879 H 182.835 -3.88105 -0.558277 0
M  V30 1880 H 184.325 -3.87831 -1.54845 0
M  V30 1881 N 184.763 -0.387143 -1.52771 0
M  V30 1882 C 186.009 0.196025 -2.0185 0
M  V30 1883 C 186.342 1.46641 -1.27319 0
M  V30 1884 O 185.617 1.90889 -0.373032 0
M  V30 1885 C 185.9 0.466136 -3.5707 0
M  V30 1886 C 185.753 -0.819385 -4.42274 0
M  V30 1887 C 187.072 1.25768 -4.21747 0
M  V30 1888 H 184.191 0.0697708 -0.73369 0
M  V30 1889 H 186.833 -0.516286 -1.82851 0
M  V30 1890 H 184.983 1.07293 -3.7339 0
M  V30 1891 H 186.655 -1.4563 -4.37709 0
M  V30 1892 H 184.898 -1.43517 -4.09372 0
M  V30 1893 H 185.569 -0.585065 -5.48891 0
M  V30 1894 H 188.045 0.744167 -4.09391 0
M  V30 1895 H 186.921 1.41541 -5.30337 0
M  V30 1896 H 187.182 2.27228 -3.79236 0
M  V30 1897 N 186.241 1.57166 -0.116904 0
M  V30 1898 C 187.489 1.94737 0.540533 0
M  V30 1899 C 187.81 1.00096 1.67349 0
M  V30 1900 O 187.08 0.0568854 1.95817 0
M  V30 1901 H 185.66 0.718981 0.202669 0
M  V30 1902 H 188.322 1.94017 -0.185353 0
M  V30 1903 H 187.418 2.97719 0.936483 0
M  V30 1904 N 187.719 -0.156864 1.56817 0
M  V30 1905 C 188.652 -1.22316 1.9265 0
M  V30 1906 C 189.63 -1.42059 0.791076 0
M  V30 1907 O 190.814 -1.56831 1.04576 0
M  V30 1908 C 187.941 -2.58375 2.18998 0
M  V30 1909 C 186.987 -2.55284 3.41661 0
M  V30 1910 S 187.82 -2.02946 4.95553 0
M  V30 1911 C 188.976 -3.40753 5.25013 0
M  V30 1912 H 189.209 -0.917403 2.82791 0
M  V30 1913 H 186.742 -0.362059 1.50095 0
M  V30 1914 H 188.7 -3.36677 2.34859 0
M  V30 1915 H 187.361 -2.86145 1.29538 0
M  V30 1916 H 186.554 -3.55418 3.57343 0
M  V30 1917 H 186.156 -1.85086 3.24991 0
M  V30 1918 H 188.448 -4.36819 5.17876 0
M  V30 1919 H 189.391 -3.29933 6.26538 0
M  V30 1920 H 189.799 -3.37433 4.52548 0
M  V30 1921 N 189.197 -1.51736 -0.425897 0
M  V30 1922 C 190.16 -1.73271 -1.50032 0
M  V30 1923 C 191.16 -0.602639 -1.4908 0
M  V30 1924 O 192.35 -0.87033 -1.509 0
M  V30 1925 C 189.482 -1.79969 -2.89523 0
M  V30 1926 H 190.675 -2.69172 -1.32237 0
M  V30 1927 H 188.228 -1.41899 -0.65532 0
M  V30 1928 H 188.963 -0.859241 -3.1271 0
M  V30 1929 H 188.748 -2.62109 -2.91619 0
M  V30 1930 H 190.238 -1.9843 -3.67444 0
M  V30 1931 N 190.675 0.682077 -1.42076 0
M  V30 1932 C 191.608 1.80666 -1.3941 0
M  V30 1933 C 192.586 1.60518 -0.25939 0
M  V30 1934 O 193.77 1.83088 -0.448456 0
M  V30 1935 C 190.897 3.17556 -1.17796 0
M  V30 1936 C 189.943 3.56468 -2.34164 0
M  V30 1937 S 190.776 3.59729 -3.96681 0
M  V30 1938 C 191.932 4.99323 -3.77395 0
M  V30 1939 H 192.165 1.82652 -2.34575 0
M  V30 1940 H 189.698 0.852062 -1.2876 0
M  V30 1941 H 191.656 3.96575 -1.06012 0
M  V30 1942 H 190.317 3.13164 -0.242279 0
M  V30 1943 H 189.51 4.5595 -2.1477 0
M  V30 1944 H 189.112 2.84792 -2.42425 0
M  V30 1945 H 191.404 5.87202 -3.37935 0
M  V30 1946 H 192.347 5.23763 -4.76527 0
M  V30 1947 H 192.755 4.71498 -3.10403 0
M  V30 1948 N 192.153 1.28127 0.917671 0
M  V30 1949 C 193.116 1.11744 2.00115 0
M  V30 1950 C 194.116 0.0583052 1.60694 0
M  V30 1951 O 195.306 0.303755 1.71531 0
M  V30 1952 C 192.438 0.704862 3.33533 0
M  V30 1953 H 193.631 2.07966 2.16079 0
M  V30 1954 H 191.184 1.11058 1.09981 0
M  V30 1955 H 191.919 -0.258299 3.2327 0
M  V30 1956 H 191.704 1.4699 3.63505 0
M  V30 1957 H 193.194 0.612768 4.1308 0
M  V30 1958 N 193.631 -1.12557 1.10312 0
M  V30 1959 C 194.541 -2.21841 0.763142 0
M  V30 1960 C 195.557 -1.72354 -0.238801 0
M  V30 1961 O 196.733 -2.01249 -0.0778746 0
M  V30 1962 C 193.798 -3.46131 0.198632 0
M  V30 1963 C 192.859 -4.10464 1.25769 0
M  V30 1964 C 192.092 -5.28821 0.72002 0
M  V30 1965 O 192.315 -5.6859 -0.453993 0
M  V30 1966 O 191.249 -5.83437 1.47935 0
M  V30 1967 H 195.075 -2.53312 1.67532 0
M  V30 1968 H 192.66 -1.20867 0.878157 0
M  V30 1969 H 194.542 -4.2125 -0.112401 0
M  V30 1970 H 193.217 -3.16338 -0.686419 0
M  V30 1971 H 192.124 -3.3713 1.62156 0
M  V30 1972 H 193.457 -4.44408 2.11571 0
M  V30 1973 N 195.109 -0.891671 -1.2995 0
M  V30 1974 C 196.525 -0.58662 -1.48428 0
M  V30 1975 C 196.725 0.873951 -1.81561 0
M  V30 1976 O 195.781 1.65471 -1.90724 0
M  V30 1977 C 197.094 -1.50553 -2.60296 0
M  V30 1978 C 198.642 -1.50988 -2.74175 0
M  V30 1979 C 199.117 -2.41488 -3.89163 0
M  V30 1980 N 200.608 -2.39489 -3.96483 0
M  V30 1981 C 201.343 -3.06223 -4.84784 0
M  V30 1982 N 200.839 -3.82206 -5.77833 0
M  V30 1983 N 202.632 -2.95421 -4.78208 0
M  V30 1984 H 194.783 -1.83644 -1.06718 0
M  V30 1985 H 197.046 -0.786455 -0.529332 0
M  V30 1986 H 196.752 -2.54581 -2.42654 0
M  V30 1987 H 196.626 -1.22008 -3.56923 0
M  V30 1988 H 199.013 -0.47708 -2.91218 0
M  V30 1989 H 199.094 -1.83567 -1.78148 0
M  V30 1990 H 198.738 -3.44857 -3.72876 0
M  V30 1991 H 198.668 -2.06222 -4.84541 0
M  V30 1992 H 201.159 -1.84278 -3.29924 0
M  V30 1993 H 201.472 -4.302 -6.41988 0
M  V30 1994 H 199.817 -3.86313 -5.77743 0
M  V30 1995 H 203.008 -2.35581 -4.04499 0
M  V30 1996 H 203.181 -3.47704 -5.46814 0
M  V30 1997 N 196.587 1.43421 -0.653314 0
M  V30 1998 C 197.537 2.2792 0.060558 0
M  V30 1999 C 198.521 1.39906 0.794677 0
M  V30 2000 O 199.713 1.63536 0.677128 0
M  V30 2001 C 196.842 3.27603 1.0262 0
M  V30 2002 C 195.928 4.23104 0.290551 0
M  V30 2003 N 196.319 5.01031 -0.692967 0
M  V30 2004 C 194.617 4.42816 0.531984 0
M  V30 2005 C 195.318 5.70626 -1.12963 0
M  V30 2006 N 194.294 5.41617 -0.463867 0
M  V30 2007 H 198.096 2.85585 -0.694143 0
M  V30 2008 H 195.61 1.55126 -0.480602 0
M  V30 2009 H 197.607 3.86918 1.55242 0
M  V30 2010 H 196.267 2.71499 1.78096 0
M  V30 2011 H 197.278 5.0669 -1.07169 0
M  V30 2012 H 193.955 3.97782 1.26791 0
M  V30 2013 H 195.345 6.4318 -1.94343 0
M  V30 2014 N 198.065 0.39524 1.52563 0
M  V30 2015 C 198.995 -0.428384 2.29537 0
M  V30 2016 C 199.976 -1.05831 1.33169 0
M  V30 2017 O 201.161 -1.06995 1.62067 0
M  V30 2018 C 198.291 -1.55274 3.10656 0
M  V30 2019 C 197.245 -1.04855 4.14957 0
M  V30 2020 C 196.571 -2.26543 4.84337 0
M  V30 2021 C 197.871 -0.112324 5.22179 0
M  V30 2022 H 199.565 0.213867 2.98635 0
M  V30 2023 H 197.111 0.104298 1.43622 0
M  V30 2024 H 199.064 -2.1358 3.63265 0
M  V30 2025 H 197.788 -2.22266 2.39302 0
M  V30 2026 H 196.447 -0.487985 3.63338 0
M  V30 2027 H 196.095 -2.92059 4.09525 0
M  V30 2028 H 195.795 -1.93466 5.54837 0
M  V30 2029 H 197.319 -2.85481 5.39753 0
M  V30 2030 H 198.733 -0.603752 5.70112 0
M  V30 2031 H 197.13 0.128968 5.99961 0
M  V30 2032 H 198.2 0.837052 4.77621 0
M  V30 2033 N 199.544 -1.57102 0.125237 0
M  V30 2034 C 200.507 -2.14471 -0.80838 0
M  V30 2035 C 201.507 -1.0811 -1.19033 0
M  V30 2036 O 202.697 -1.33856 -1.11482 0
M  V30 2037 C 199.829 -2.69005 -2.09402 0
M  V30 2038 H 201.022 -2.98297 -0.309696 0
M  V30 2039 H 198.575 -1.55807 -0.124051 0
M  V30 2040 H 199.31 -1.88785 -2.63687 0
M  V30 2041 H 199.095 -3.46799 -1.82957 0
M  V30 2042 H 200.585 -3.13278 -2.76128 0
M  V30 2043 N 201.022 0.148545 -1.56898 0
M  V30 2044 C 201.985 1.16736 -1.97244 0
M  V30 2045 C 202.985 1.35947 -0.858777 0
M  V30 2046 O 204.175 1.32966 -1.12542 0
M  V30 2047 C 201.307 2.52798 -2.28705 0
M  V30 2048 H 202.5 0.821279 -2.88435 0
M  V30 2049 H 200.053 0.391831 -1.51309 0
M  V30 2050 H 200.788 2.92381 -1.403 0
M  V30 2051 H 200.573 2.40216 -3.09901 0
M  V30 2052 H 202.063 3.26179 -2.60762 0
M  V30 2053 N 202.5 1.5196 0.417844 0
M  V30 2054 C 203.447 1.74678 1.50852 0
M  V30 2055 C 204.417 0.588947 1.55308 0
M  V30 2056 O 205.602 0.825544 1.72016 0
M  V30 2057 C 202.742 1.89544 2.88387 0
M  V30 2058 C 201.855 3.17166 2.93309 0
M  V30 2059 C 200.99 3.22513 4.22088 0
M  V30 2060 C 200.029 4.44372 4.20951 0
M  V30 2061 N 199.166 4.47161 5.41287 0
M  V30 2062 H 204.006 2.67768 1.30783 0
M  V30 2063 H 201.543 1.32689 0.63498 0
M  V30 2064 H 203.501 1.96146 3.68216 0
M  V30 2065 H 202.131 0.998424 3.06971 0
M  V30 2066 H 201.183 3.19778 2.06024 0
M  V30 2067 H 202.495 4.07021 2.88332 0
M  V30 2068 H 201.649 3.28139 5.10303 0
M  V30 2069 H 200.388 2.30581 4.29748 0
M  V30 2070 H 199.393 4.38902 3.31127 0
M  V30 2071 H 200.618 5.3759 4.14938 0
M  V30 2072 H 198.564 3.58108 5.49632 0
M  V30 2073 H 198.481 5.3085 5.3827 0
M  V30 2074 H 199.749 4.57005 6.3148 0
M  V30 2075 N 203.978 -0.674533 1.42435 0
M  V30 2076 C 205.208 -1.46071 1.46105 0
M  V30 2077 C 205.616 -1.89067 0.0709605 0
M  V30 2078 O 204.959 -1.58731 -0.924677 0
M  V30 2079 C 205.021 -2.74145 2.32561 0
M  V30 2080 C 204.685 -2.53224 3.8043 0
M  V30 2081 C 205.682 -2.17809 4.72075 0
M  V30 2082 C 203.367 -2.6821 4.24698 0
M  V30 2083 C 205.361 -1.97648 6.05982 0
M  V30 2084 C 203.048 -2.47665 5.58664 0
M  V30 2085 C 204.046 -2.12437 6.49122 0
M  V30 2086 O 203.734 -1.9209 7.80613 0
M  V30 2087 H 203.466 -0.455959 0.499076 0
M  V30 2088 H 206.02 -0.836193 1.87609 0
M  V30 2089 H 204.25 -3.3908 1.85908 0
M  V30 2090 H 205.939 -3.36028 2.27683 0
M  V30 2091 H 206.705 -2.05826 4.39159 0
M  V30 2092 H 202.584 -2.94609 3.54579 0
M  V30 2093 H 206.128 -1.70075 6.7655 0
M  V30 2094 H 202.025 -2.59244 5.91154 0
M  V30 2095 H 202.793 -2.06686 7.91974 0
M  V30 2096 N 205.456 -1.28612 -0.910864 0
M  V30 2097 C 206.404 -1.1265 -2.03501 0
M  V30 2098 C 207.398 -0.0450054 -1.6934 0
M  V30 2099 O 208.604 -0.203988 -1.7884 0
M  V30 2100 H 204.979 -0.347639 -0.666822 0
M  V30 2101 H 206.95 -2.07849 -2.14106 0
M  V30 2102 C 205.699 -0.808143 -3.38178 0
M  V30 2103 H 205.022 -1.63231 -3.6496 0
M  V30 2104 H 206.462 -0.736426 -4.17556 0
M  V30 2105 C 204.921 0.488226 -3.33344 0
M  V30 2106 O 205.451 1.51766 -3.71927 0
M  V30 2107 N 203.657 0.490009 -2.86439 0
M  V30 2108 H 203.204 -0.348161 -2.55236 0
M  V30 2109 H 203.162 1.35741 -2.83587 0
M  V30 2110 N 206.934 1.1197 -1.10907 0
M  V30 2111 C 208.35 1.35591 -0.841852 0
M  V30 2112 C 208.55 1.94233 0.536246 0
M  V30 2113 O 207.606 2.1717 1.28816 0
M  V30 2114 C 208.919 2.29284 -1.94549 0
M  V30 2115 C 210.467 2.42862 -1.97451 0
M  V30 2116 C 210.942 3.39873 -3.07002 0
M  V30 2117 N 212.433 3.47433 -3.06341 0
M  V30 2118 C 213.168 4.22421 -3.87748 0
M  V30 2119 N 212.664 5.00432 -4.79103 0
M  V30 2120 N 214.457 4.17876 -3.75946 0
M  V30 2121 H 206.608 0.722664 -1.99728 0
M  V30 2122 H 208.871 0.380635 -0.868229 0
M  V30 2123 H 208.577 1.93378 -2.93765 0
M  V30 2124 H 208.451 3.29452 -1.83688 0
M  V30 2125 H 210.838 2.78046 -0.988645 0
M  V30 2126 H 210.919 1.42566 -2.12388 0
M  V30 2127 H 210.563 3.05417 -4.05811 0
M  V30 2128 H 210.493 4.40011 -2.89306 0
M  V30 2129 H 212.984 2.91784 -2.40147 0
M  V30 2130 H 213.297 5.55002 -5.37766 0
M  V30 2131 H 211.642 4.99612 -4.83128 0
M  V30 2132 H 214.833 3.56016 -3.03924 0
M  V30 2133 H 215.006 4.76061 -4.39624 0
M  V30 2134 N 208.412 0.89855 1.29475 0
M  V30 2135 C 209.689 0.443416 1.90508 0
M  V30 2136 C 210.069 -1.07685 1.81569 0
M  V30 2137 O 209.417 -1.9182 1.24166 0
M  V30 2138 C 209.627 0.956708 3.35631 0
M  V30 2139 C 210.975 0.999728 4.12663 0
M  V30 2140 O 211.999 0.904299 3.4453 0
M  V30 2141 O 210.858 1.14289 5.34416 0
M  V30 2142 H 207.952 0.138025 0.815401 0
M  V30 2143 H 210.498 0.98834 1.37949 0
M  V30 2144 H 209.27 2.00067 3.36287 0
M  V30 2145 H 208.893 0.391728 3.95666 0
M  V30 2146 N 209.89 -1.43072 0.660911 0
M  V30 2147 C 210.853 -2.29194 -0.0166406 0
M  V30 2148 C 211.853 -1.42609 -0.742912 0
M  V30 2149 O 213.043 -1.64155 -0.583004 0
M  V30 2150 C 210.175 -3.24831 -1.0343 0
M  V30 2151 H 211.368 -2.90596 0.741208 0
M  V30 2152 H 208.921 -1.5048 0.422532 0
M  V30 2153 H 209.656 -2.68339 -1.82111 0
M  V30 2154 H 209.441 -3.88676 -0.517082 0
M  V30 2155 H 210.931 -3.89451 -1.50723 0
M  V30 2156 N 211.368 -0.403325 -1.52352 0
M  V30 2157 C 212.598 0.17376 -2.05868 0
M  V30 2158 C 213.006 1.39898 -1.27378 0
M  V30 2159 O 212.349 1.80939 -0.31729 0
M  V30 2160 C 212.411 0.594756 -3.54546 0
M  V30 2161 C 212.075 -0.518926 -4.54044 0
M  V30 2162 C 213.072 -1.3807 -5.01231 0
M  V30 2163 C 210.757 -0.689961 -4.97539 0
M  V30 2164 C 212.751 -2.39852 -5.90551 0
M  V30 2165 C 210.438 -1.71109 -5.86656 0
M  V30 2166 C 211.436 -2.56378 -6.33056 0
M  V30 2167 O 211.124 -3.56743 -7.20409 0
M  V30 2168 H 210.856 0.0264951 -0.675481 0
M  V30 2169 H 213.41 -0.571179 -1.97299 0
M  V30 2170 H 211.64 1.39189 -3.60782 0
M  V30 2171 H 213.329 1.0991 -3.90736 0
M  V30 2172 H 214.095 -1.25994 -4.68349 0
M  V30 2173 H 209.974 -0.035939 -4.60986 0
M  V30 2174 H 213.518 -3.06441 -6.26689 0
M  V30 2175 H 209.415 -1.83218 -6.18952 0
M  V30 2176 H 210.183 -3.52918 -7.38506 0
M  V30 2177 N 212.846 1.57033 -0.133567 0
M  V30 2178 C 213.794 2.17348 0.828412 0
M  V30 2179 C 214.788 1.12671 1.26498 0
M  V30 2180 O 215.994 1.30947 1.23502 0
M  V30 2181 H 212.369 0.695775 0.285309 0
M  V30 2182 H 214.34 2.96935 0.295372 0
M  V30 2183 C 213.089 2.79893 2.06289 0
M  V30 2184 H 212.412 3.60147 1.73592 0
M  V30 2185 H 213.852 3.25615 2.71572 0
M  V30 2186 C 212.311 1.77713 2.86216 0
M  V30 2187 O 212.841 1.23937 3.82103 0
M  V30 2188 N 211.047 1.47321 2.50489 0
M  V30 2189 H 210.594 1.91243 1.7258 0
M  V30 2190 H 210.552 0.79199 3.04261 0
M  V30 2191 N 214.325 -0.140222 1.56975 0
M  V30 2192 C 215.574 -0.850152 1.82908 0
M  V30 2193 C 215.887 -1.82028 0.715892 0
M  V30 2194 O 217.093 -2.57485 0.861016 0
M  V30 2195 C 215.549 -1.5625 3.24213 0
M  V30 2196 C 215.157 -0.63443 4.43485 0
M  V30 2197 C 216.901 -2.25881 3.59413 0
M  V30 2198 C 214.808 -1.34879 5.75814 0
M  V30 2199 H 213.738 -0.321221 0.682153 0
M  V30 2200 H 216.389 -0.102874 1.83211 0
M  V30 2201 H 214.771 -2.35565 3.18316 0
M  V30 2202 H 215.945 0.12398 4.60633 0
M  V30 2203 H 214.26 -0.0461836 4.16374 0
M  V30 2204 H 216.857 -2.79978 4.5554 0
M  V30 2205 H 217.2 -3.02693 2.85802 0
M  V30 2206 H 217.733 -1.53477 3.67001 0
M  V30 2207 H 214.472 -0.622385 6.52539 0
M  V30 2208 H 213.992 -2.07974 5.6259 0
M  V30 2209 H 215.671 -1.88784 6.18845 0
M  V30 2210 N 215.803 -1.52179 -0.40978 0
M  V30 2211 C 217.049 -1.66453 -1.15851 0
M  V30 2212 C 217.382 -0.392972 -1.90182 0
M  V30 2213 O 216.657 0.608579 -1.84734 0
M  V30 2214 C 216.94 -2.88612 -2.15349 0
M  V30 2215 C 216.793 -4.25815 -1.44918 0
M  V30 2216 C 218.112 -3.06294 -3.16026 0
M  V30 2217 H 215.231 -0.60575 -0.419805 0
M  V30 2218 H 217.873 -1.84732 -0.444314 0
M  V30 2219 H 216.023 -2.73158 -2.76255 0
M  V30 2220 H 217.695 -4.52995 -0.871365 0
M  V30 2221 H 215.938 -4.27247 -0.751159 0
M  V30 2222 H 216.609 -5.07337 -2.17516 0
M  V30 2223 H 219.085 -3.20641 -2.65195 0
M  V30 2224 H 217.961 -3.93283 -3.8291 0
M  V30 2225 H 218.222 -2.19579 -3.83715 0
M  V30 2226 N 217.281 0.66697 -1.42791 0
M  V30 2227 C 218.558 1.4234 -1.34159 0
M  V30 2228 C 218.938 2.11093 0.0172729 0
M  V30 2229 O 218.286 2.03808 1.03318 0
M  V30 2230 C 218.496 2.41942 -2.51526 0
M  V30 2231 C 219.844 3.06353 -2.93995 0
M  V30 2232 O 220.868 2.52269 -2.51473 0
M  V30 2233 O 219.727 4.04376 -3.67617 0
M  V30 2234 H 216.821 0.635277 -0.529483 0
M  V30 2235 H 219.367 0.695034 -1.54814 0
M  V30 2236 H 218.139 1.89991 -3.42081 0
M  V30 2237 H 217.762 3.22249 -2.32898 0
M  V30 2238 N 218.759 1.29093 0.90403 0
M  V30 2239 C 219.709 1.10482 1.99443 0
M  V30 2240 C 220.693 0.0255401 1.6088 0
M  V30 2241 O 221.885 0.24677 1.75271 0
M  V30 2242 C 219.014 0.778882 3.34348 0
M  V30 2243 C 218.1 1.89749 3.79284 0
M  V30 2244 N 218.491 3.14045 3.96497 0
M  V30 2245 C 216.789 1.78955 4.08523 0
M  V30 2246 C 217.49 3.86996 4.34292 0
M  V30 2247 N 216.466 3.14909 4.43095 0
M  V30 2248 H 220.268 2.04778 2.10815 0
M  V30 2249 H 217.782 1.20155 1.09255 0
M  V30 2250 H 219.779 0.62661 4.12164 0
M  V30 2251 H 218.439 -0.156205 3.24324 0
M  V30 2252 H 219.45 3.49548 3.82148 0
M  V30 2253 H 216.127 0.926886 4.07081 0
M  V30 2254 H 217.517 4.93941 4.55491 0
M  V30 2255 N 220.237 -1.11381 1.11499 0
M  V30 2256 C 221.467 -1.86663 0.885464 0
M  V30 2257 C 221.875 -1.80464 -0.568281 0
M  V30 2258 O 221.218 -1.18445 -1.40415 0
M  V30 2259 C 221.28 -3.36337 1.26956 0
M  V30 2260 C 220.944 -3.66304 2.73259 0
M  V30 2261 C 221.941 -3.63733 3.71476 0
M  V30 2262 C 219.626 -3.9529 3.09921 0
M  V30 2263 C 221.62 -3.89725 5.04374 0
M  V30 2264 C 219.307 -4.20941 4.43004 0
M  V30 2265 C 220.305 -4.18147 5.40039 0
M  V30 2266 O 219.993 -4.43153 6.70724 0
M  V30 2267 H 219.725 -0.597114 0.316908 0
M  V30 2268 H 222.279 -1.41782 1.48617 0
M  V30 2269 H 220.509 -3.81826 0.611999 0
M  V30 2270 H 222.198 -3.92986 1.01573 0
M  V30 2271 H 222.964 -3.41389 3.44498 0
M  V30 2272 H 218.843 -3.966 2.35009 0
M  V30 2273 H 222.387 -3.8746 5.80104 0
M  V30 2274 H 218.284 -4.42761 4.69716 0
M  V30 2275 H 219.052 -4.60717 6.76522 0
M  V30 2276 N 221.715 -0.905404 -1.28997 0
M  V30 2277 C 222.943 -0.549846 -1.9946 0
M  V30 2278 C 223.358 0.866834 -1.67724 0
M  V30 2279 O 222.715 1.57298 -0.925404 0
M  V30 2280 C 222.766 -0.739387 -3.53858 0
M  V30 2281 O 222.487 -2.10031 -3.84472 0
M  V30 2282 C 223.988 -0.389541 -4.41585 0
M  V30 2283 H 221.208 -0.210429 -0.637151 0
M  V30 2284 H 223.752 -1.21632 -1.64396 0
M  V30 2285 H 221.907 -0.120023 -3.87214 0
M  V30 2286 H 222.321 -2.13385 -4.79132 0
M  V30 2287 H 223.795 -0.572972 -5.49018 0
M  V30 2288 H 224.272 0.673756 -4.34001 0
M  V30 2289 H 224.878 -0.986089 -4.1371 0
M  V30 2290 N 223.193 1.4272 -0.668489 0
M  V30 2291 C 224.423 2.05668 -0.196063 0
M  V30 2292 C 224.831 1.5028 1.14946 0
M  V30 2293 O 224.174 0.6348 1.72383 0
M  V30 2294 C 224.236 3.59469 -0.0468879 0
M  V30 2295 C 223.9 4.37518 -1.32012 0
M  V30 2296 C 224.897 4.68584 -2.25222 0
M  V30 2297 C 222.582 4.77266 -1.56596 0
M  V30 2298 C 224.576 5.38326 -3.41297 0
M  V30 2299 C 222.263 5.4675 -2.72962 0
M  V30 2300 C 223.261 5.77204 -3.65137 0
M  V30 2301 O 222.949 6.45264 -4.79468 0
M  V30 2302 H 222.681 0.669382 -0.0943599 0
M  V30 2303 H 225.235 1.83954 -0.913788 0
M  V30 2304 H 223.465 3.79817 0.726357 0
M  V30 2305 H 225.154 4.04071 0.384852 0
M  V30 2306 H 225.92 4.38382 -2.07477 0
M  V30 2307 H 221.799 4.52959 -0.857249 0
M  V30 2308 H 225.343 5.62014 -4.13263 0
M  V30 2309 H 221.24 5.76369 -2.90635 0
M  V30 2310 H 222.008 6.63753 -4.78931 0
M  V30 2311 N 224.671 0.411399 1.52136 0
M  V30 2312 C 225.634 -0.401089 2.25663 0
M  V30 2313 C 226.634 -0.971732 1.28117 0
M  V30 2314 O 227.824 -0.850254 1.52041 0
M  V30 2315 C 224.956 -1.56483 3.02863 0
M  V30 2316 H 226.149 0.24295 2.98914 0
M  V30 2317 H 223.702 0.163968 1.55438 0
M  V30 2318 H 224.437 -2.24567 2.33967 0
M  V30 2319 H 224.222 -1.16211 3.74483 0
M  V30 2320 H 225.712 -2.13951 3.58629 0
M  V30 2321 N 226.149 -1.5696 0.141893 0
M  V30 2322 C 227.398 -1.95135 -0.510427 0
M  V30 2323 C 227.711 -1.02896 -1.66348 0
M  V30 2324 O 228.917 -1.30629 -2.38009 0
M  V30 2325 C 227.373 -3.46876 -0.959427 0
M  V30 2326 C 226.981 -4.47691 0.166419 0
M  V30 2327 C 228.725 -3.93927 -1.58183 0
M  V30 2328 C 226.632 -5.90636 -0.300565 0
M  V30 2329 H 225.562 -0.728494 -0.194454 0
M  V30 2330 H 228.213 -1.8211 0.22542 0
M  V30 2331 H 226.595 -3.55215 -1.75038 0
M  V30 2332 H 227.769 -4.51043 0.94325 0
M  V30 2333 H 226.084 -4.10527 0.696905 0
M  V30 2334 H 228.681 -4.98158 -1.94275 0
M  V30 2335 H 229.024 -3.3519 -2.46888 0
M  V30 2336 H 229.557 -3.88484 -0.855863 0
M  V30 2337 H 226.296 -6.5318 0.550989 0
M  V30 2338 H 225.816 -5.90655 -1.04338 0
M  V30 2339 H 227.495 -6.42588 -0.754265 0
M  V30 2340 N 227.627 0.131896 -1.57047 0
M  V30 2341 C 228.867 0.847972 -1.85981 0
M  V30 2342 C 229.231 1.77655 -0.7282 0
M  V30 2343 O 230.432 2.53322 -0.898968 0
M  V30 2344 C 228.703 1.58919 -3.20124 0
M  V30 2345 S 230.262 2.34862 -3.70655 0
M  V30 2346 H 227.08 0.283273 -0.652133 0
M  V30 2347 H 229.682 0.107057 -1.95207 0
M  V30 2348 H 228.386 0.898771 -4.00438 0
M  V30 2349 H 227.917 2.37073 -3.13942 0
M  V30 2350 H 229.932 3.60344 -3.41126 0
M  V30 2351 N 229.106 1.52395 0.401703 0
M  V30 2352 C 230.354 1.66488 1.14569 0
M  V30 2353 C 230.675 0.400897 1.90835 0
M  V30 2354 O 229.945 -0.584415 1.8698 0
M  V30 2355 H 228.525 0.613672 0.425929 0
M  V30 2356 H 231.187 1.89464 0.457093 0
M  V30 2357 H 230.283 2.50942 1.85566 0
M  V30 2358 N 230.584 -0.659388 1.43143 0
M  V30 2359 C 231.861 -1.41627 1.34912 0
M  V30 2360 C 232.241 -2.11099 -0.00607785 0
M  V30 2361 O 231.589 -2.04353 -1.02236 0
M  V30 2362 C 231.799 -2.40604 2.52805 0
M  V30 2363 C 233.147 -3.04789 2.95616 0
M  V30 2364 O 234.171 -2.50932 2.52807 0
M  V30 2365 O 233.03 -4.02421 3.69756 0
M  V30 2366 H 230.124 -0.63246 0.532844 0
M  V30 2367 H 232.67 -0.686814 1.5518 0
M  V30 2368 H 231.442 -1.88174 3.43083 0
M  V30 2369 H 231.065 -3.21009 2.34604 0
M  V30 2370 N 232.062 -1.29571 -0.897171 0
M  V30 2371 C 233.31 -1.17456 -1.64464 0
M  V30 2372 C 233.631 0.273698 -1.9307 0
M  V30 2373 O 232.901 1.18684 -1.55855 0
M  V30 2374 H 231.481 -0.431706 -0.609622 0
M  V30 2375 H 234.143 -1.62531 -1.07562 0
M  V30 2376 H 233.239 -1.72648 -2.59998 0
M  V30 2377 N 233.54 1.10788 -1.12088 0
M  V30 2378 C 234.817 1.79136 -0.785476 0
M  V30 2379 C 235.197 1.98246 0.725377 0
M  V30 2380 O 234.545 1.57258 1.65778 0
M  V30 2381 C 234.755 3.12375 -1.55636 0
M  V30 2382 C 236.103 3.8731 -1.74001 0
M  V30 2383 O 237.127 3.22085 -1.52117 0
M  V30 2384 O 235.986 5.04369 -2.10415 0
M  V30 2385 H 233.08 0.776226 -0.285311 0
M  V30 2386 H 235.626 1.1747 -1.2247 0
M  V30 2387 H 234.398 2.93863 -2.5838 0
M  V30 2388 H 234.021 3.81758 -1.11114 0
M  V30 2389 N 235.018 0.912232 1.28515 0
M  V30 2390 C 235.948 0.416403 2.29757 0
M  V30 2391 C 236.929 -0.515194 1.6211 0
M  V30 2392 O 238.114 -0.423253 1.89532 0
M  V30 2393 C 235.244 -0.34572 3.45575 0
M  V30 2394 C 234.198 0.496599 4.25109 0
M  V30 2395 C 233.524 -0.393771 5.33248 0
M  V30 2396 C 234.824 1.75307 4.92001 0
M  V30 2397 H 236.518 1.26249 2.7148 0
M  V30 2398 H 234.064 0.608515 1.30511 0
M  V30 2399 H 236.017 -0.703422 4.15488 0
M  V30 2400 H 234.741 -1.2257 3.02728 0
M  V30 2401 H 233.4 0.8368 3.56922 0
M  V30 2402 H 233.048 -1.27225 4.86644 0
M  V30 2403 H 232.748 0.166209 5.87365 0
M  V30 2404 H 234.272 -0.747389 6.06009 0
M  V30 2405 H 235.686 1.46437 5.54283 0
M  V30 2406 H 234.083 2.25534 5.56106 0
M  V30 2407 H 235.153 2.48176 4.16577 0
M  V30 2408 N 236.496 -1.42363 0.676048 0
M  V30 2409 C 237.429 -2.28141 -0.0516916 0
M  V30 2410 C 238.407 -1.41135 -0.807439 0
M  V30 2411 O 239.591 -1.70573 -0.802305 0
M  V30 2412 C 236.718 -3.21007 -1.08039 0
M  V30 2413 C 235.764 -4.24426 -0.420076 0
M  V30 2414 S 236.597 -5.29134 0.823246 0
M  V30 2415 C 237.753 -6.25566 -0.204344 0
M  V30 2416 H 237.986 -2.89515 0.675884 0
M  V30 2417 H 235.519 -1.47211 0.465635 0
M  V30 2418 H 237.477 -3.75048 -1.66881 0
M  V30 2419 H 236.138 -2.58766 -1.78042 0
M  V30 2420 H 235.331 -4.89596 -1.19633 0
M  V30 2421 H 234.933 -3.7388 0.0947845 0
M  V30 2422 H 237.225 -6.69098 -1.06369 0
M  V30 2423 H 238.168 -7.06895 0.412915 0
M  V30 2424 H 238.576 -5.61811 -0.55038 0
M  V30 2425 N 237.974 -0.419461 -1.51915 0
M  V30 2426 C 238.884 0.407528 -2.31033 0
M  V30 2427 C 239.9 1.04413 -1.3919 0
M  V30 2428 O 241.076 1.0434 -1.72265 0
M  V30 2429 C 238.141 1.50365 -3.12396 0
M  V30 2430 C 237.202 0.889029 -4.19994 0
M  V30 2431 C 236.435 1.93291 -4.97468 0
M  V30 2432 O 236.658 3.15259 -4.75361 0
M  V30 2433 O 235.592 1.53339 -5.8204 0
M  V30 2434 H 239.418 -0.237865 -3.02767 0
M  V30 2435 H 237.003 -0.182413 -1.48282 0
M  V30 2436 H 238.885 2.13975 -3.63032 0
M  V30 2437 H 237.56 2.13345 -2.43445 0
M  V30 2438 H 236.467 0.215353 -3.7348 0
M  V30 2439 H 237.8 0.302991 -4.91267 0
M  V30 2440 N 239.452 1.56882 -0.150215 0
M  V30 2441 C 240.7 1.9584 0.499105 0
M  V30 2442 C 241.021 1.03623 1.65188 0
M  V30 2443 O 240.291 0.0984084 1.95653 0
M  V30 2444 H 238.871 0.723119 0.187373 0
M  V30 2445 H 241.533 1.9358 -0.226466 0
M  V30 2446 H 240.629 2.99638 0.873122 0
M  V30 2447 N 240.93 -0.123565 1.57115 0
M  V30 2448 C 242.176 -0.833386 1.84885 0
M  V30 2449 C 242.509 -1.79742 0.735292 0
M  V30 2450 O 241.784 -1.92764 -0.25925 0
M  V30 2451 C 242.067 -1.5873 3.23228 0
M  V30 2452 C 241.92 -0.643183 4.45178 0
M  V30 2453 C 243.239 -2.54453 3.59085 0
M  V30 2454 H 240.358 -0.301518 0.6725 0
M  V30 2455 H 243 -0.097778 1.89748 0
M  V30 2456 H 241.15 -2.21438 3.19214 0
M  V30 2457 H 242.822 -0.0253015 4.61293 0
M  V30 2458 H 241.065 0.0456139 4.33776 0
M  V30 2459 H 241.736 -1.20724 5.38637 0
M  V30 2460 H 244.212 -2.01853 3.63861 0
M  V30 2461 H 243.088 -3.04238 4.5687 0
M  V30 2462 H 243.349 -3.36906 2.86264 0
M  V30 2463 N 242.408 -1.52605 -0.393616 0
M  V30 2464 C 243.633 -1.71592 -1.16495 0
M  V30 2465 C 244.058 -0.43133 -1.83088 0
M  V30 2466 O 243.416 0.612523 -1.7064 0
M  V30 2467 C 243.464 -2.86318 -2.19213 0
M  V30 2468 O 242.568 -2.52969 -3.257 0
M  V30 2469 H 241.909 -0.570734 -0.33935 0
M  V30 2470 H 244.439 -1.99377 -0.459324 0
M  V30 2471 H 244.449 -3.1168 -2.63286 0
M  V30 2472 H 243.124 -3.79511 -1.7013 0
M  V30 2473 H 241.701 -2.38332 -2.86797 0
M  V30 2474 N 243.887 0.651787 -1.4349 0
M  V30 2475 C 244.85 1.74647 -1.48429 0
M  V30 2476 C 245.85 1.56513 -0.368817 0
M  V30 2477 O 247.04 1.62385 -0.630623 0
M  V30 2478 C 244.172 3.13533 -1.33827 0
M  V30 2479 H 245.365 1.71649 -2.4592 0
M  V30 2480 H 242.918 0.863573 -1.30277 0
M  V30 2481 H 243.653 3.22142 -0.37349 0
M  V30 2482 H 243.438 3.28101 -2.14691 0
M  V30 2483 H 244.928 3.93356 -1.40218 0
M  V30 2484 N 245.365 1.30045 0.890287 0
M  V30 2485 C 246.275 1.17885 2.02831 0
M  V30 2486 C 247.291 0.0999609 1.73713 0
M  V30 2487 O 248.467 0.313867 1.98939 0
M  V30 2488 C 245.532 0.866079 3.35708 0
M  V30 2489 C 244.593 2.02979 3.78283 0
M  V30 2490 C 243.826 1.73184 5.0482 0
M  V30 2491 O 244.049 0.657237 5.66601 0
M  V30 2492 O 242.983 2.58267 5.43674 0
M  V30 2493 H 246.809 2.13474 2.16015 0
M  V30 2494 H 244.394 1.09587 1.01543 0
M  V30 2495 H 246.276 0.706623 4.15433 0
M  V30 2496 H 244.951 -0.0599443 3.23644 0
M  V30 2497 H 243.858 2.24454 2.99285 0
M  V30 2498 H 245.191 2.93734 3.94944 0
M  V30 2499 N 246.843 -1.10192 1.12674 0
M  V30 2500 C 247.806 -2.14786 0.799979 0
M  V30 2501 C 248.806 -1.59711 -0.18685 0
M  V30 2502 O 249.996 -1.74156 0.0392558 0
M  V30 2503 C 247.128 -3.40374 0.189228 0
M  V30 2504 H 248.321 -2.45203 1.72671 0
M  V30 2505 H 245.874 -1.25597 0.930326 0
M  V30 2506 H 246.609 -3.15577 -0.747107 0
M  V30 2507 H 246.394 -3.81637 0.899766 0
M  V30 2508 H 247.884 -4.17594 -0.0228143 0
M  V30 2509 N 248.321 -0.919034 -1.28029 0
M  V30 2510 C 249.546 -0.570357 -1.99403 0
M  V30 2511 C 249.971 0.842486 -1.68178 0
M  V30 2512 O 249.329 1.56391 -0.917141 0
M  V30 2513 C 249.377 -0.792541 -3.51783 0
M  V30 2514 O 248.481 0.145988 -4.12142 0
M  V30 2515 H 247.822 -0.220555 -0.6263 0
M  V30 2516 H 250.352 -1.23592 -1.63053 0
M  V30 2517 H 250.362 -0.704708 -4.01868 0
M  V30 2518 H 249.037 -1.82247 -3.73844 0
M  V30 2519 H 247.614 0.00897528 -3.72899 0
M  V30 2520 N 249.799 1.42003 -0.683588 0
M  V30 2521 C 251.024 2.06265 -0.216647 0
M  V30 2522 C 251.449 1.51059 1.12083 0
M  V30 2523 O 250.807 0.632638 1.69904 0
M  V30 2524 C 250.855 3.60191 -0.171759 0
M  V30 2525 O 249.959 4.03396 0.857069 0
M  V30 2526 H 249.3 0.65502 -0.108834 0
M  V30 2527 H 251.83 1.81982 -0.935077 0
M  V30 2528 H 251.84 4.08 0.0014303 0
M  V30 2529 H 250.515 3.99743 -1.14796 0
M  V30 2530 H 249.092 3.67117 0.654208 0
M  V30 2531 N 251.277 0.427512 1.51691 0
M  V30 2532 C 252.207 -0.3796 2.30394 0
M  V30 2533 C 253.188 -1.02982 1.35384 0
M  V30 2534 O 254.373 -1.03534 1.643 0
M  V30 2535 C 251.503 -1.48649 3.1388 0
M  V30 2536 C 250.457 -0.960294 4.17088 0
M  V30 2537 C 249.783 -2.16219 4.89033 0
M  V30 2538 C 251.083 -0.00153679 5.223 0
M  V30 2539 H 252.777 0.277164 2.98114 0
M  V30 2540 H 250.323 0.134739 1.43368 0
M  V30 2541 H 252.276 -2.05826 3.67714 0
M  V30 2542 H 251 -2.1714 2.43962 0
M  V30 2543 H 249.659 -0.410806 3.64291 0
M  V30 2544 H 249.307 -2.83307 4.15628 0
M  V30 2545 H 249.007 -1.81654 5.58816 0
M  V30 2546 H 250.531 -2.73968 5.45687 0
M  V30 2547 H 251.945 -0.482687 5.71264 0
M  V30 2548 H 250.342 0.256199 5.99553 0
M  V30 2549 H 251.412 0.938174 4.75738 0
M  V30 2550 N 252.755 -1.56801 0.158532 0
M  V30 2551 C 253.718 -2.16138 -0.762705 0
M  V30 2552 C 254.718 -1.1061 -1.16713 0
M  V30 2553 O 255.908 -1.36191 -1.08617 0
M  V30 2554 C 253.04 -2.73386 -2.03649 0
M  V30 2555 H 254.233 -2.98886 -0.246354 0
M  V30 2556 H 251.786 -1.56035 -0.0909744 0
M  V30 2557 H 252.521 -1.94335 -2.59623 0
M  V30 2558 H 252.306 -3.50601 -1.75559 0
M  V30 2559 H 253.796 -3.19065 -2.6942 0
M  V30 2560 N 254.233 0.115231 -1.57178 0
M  V30 2561 C 255.196 1.12526 -1.99676 0
M  V30 2562 C 256.196 1.34095 -0.88742 0
M  V30 2563 O 257.386 1.30548 -1.15337 0
M  V30 2564 C 254.518 2.4789 -2.34015 0
M  V30 2565 H 255.711 0.759912 -2.90113 0
M  V30 2566 H 253.264 0.359648 -1.52106 0
M  V30 2567 H 253.999 2.89339 -1.4647 0
M  V30 2568 H 253.784 2.33588 -3.14927 0
M  V30 2569 H 255.274 3.20575 -2.67622 0
M  V30 2570 N 255.711 1.52812 0.385517 0
M  V30 2571 C 256.661 1.74219 1.47078 0
M  V30 2572 C 257.645 0.59632 1.49442 0
M  V30 2573 O 258.837 0.85428 1.5502 0
M  V30 2574 C 255.966 1.9176 2.84751 0
M  V30 2575 C 255.052 3.12289 2.86943 0
M  V30 2576 N 255.443 4.34575 2.58802 0
M  V30 2577 C 253.741 3.12605 3.1811 0
M  V30 2578 C 254.442 5.162 2.68166 0
M  V30 2579 N 253.418 4.51964 3.02043 0
M  V30 2580 H 257.22 2.6639 1.24152 0
M  V30 2581 H 254.734 1.51166 0.593504 0
M  V30 2582 H 256.731 2.05218 3.62893 0
M  V30 2583 H 255.391 1.00805 3.08656 0
M  V30 2584 H 256.402 4.62649 2.32759 0
M  V30 2585 H 253.079 2.31472 3.47458 0
M  V30 2586 H 254.469 6.23689 2.49923 0
M  V30 2587 N 257.189 -0.644168 1.43834 0
M  V30 2588 C 258.119 -1.76814 1.52509 0
M  V30 2589 C 259.1 -1.65823 0.379052 0
M  V30 2590 O 260.285 -1.84781 0.597466 0
M  V30 2591 C 257.415 -3.15288 1.4564 0
M  V30 2592 C 256.369 -3.41053 2.58586 0
M  V30 2593 C 255.695 -4.79421 2.36769 0
M  V30 2594 C 256.995 -3.34902 4.00797 0
M  V30 2595 H 258.689 -1.69812 2.46586 0
M  V30 2596 H 256.235 -0.815542 1.1868 0
M  V30 2597 H 258.188 -3.93681 1.50311 0
M  V30 2598 H 256.912 -3.23043 0.480725 0
M  V30 2599 H 255.571 -2.65035 2.53282 0
M  V30 2600 H 255.219 -4.83863 1.37424 0
M  V30 2601 H 254.919 -4.9762 3.12487 0
M  V30 2602 H 256.443 -5.6006 2.43238 0
M  V30 2603 H 257.857 -4.03218 4.07539 0
M  V30 2604 H 256.254 -3.64637 4.76613 0
M  V30 2605 H 257.324 -2.32928 4.25291 0
M  V30 2606 N 258.668 -1.30515 -0.883378 0
M  V30 2607 C 259.6 -1.12846 -1.99496 0
M  V30 2608 C 260.613 -0.0712571 -1.62644 0
M  V30 2609 O 261.802 -0.317432 -1.75655 0
M  V30 2610 C 258.902 -0.699123 -3.3161 0
M  V30 2611 C 258.075 -1.83842 -3.96889 0
M  V30 2612 C 257.134 -1.39737 -5.07307 0
M  V30 2613 O 256.16 -2.10485 -5.28852 0
M  V30 2614 N 257.362 -0.277279 -5.79837 0
M  V30 2615 H 260.127 -2.08585 -2.15203 0
M  V30 2616 H 257.688 -1.22672 -1.05656 0
M  V30 2617 H 259.68 -0.387044 -4.02845 0
M  V30 2618 H 258.25 0.166276 -3.12157 0
M  V30 2619 H 257.47 -2.31853 -3.18807 0
M  V30 2620 H 258.758 -2.60187 -4.37241 0
M  V30 2621 H 258.156 0.3122 -5.64838 0
M  V30 2622 H 256.713 -0.0246623 -6.51795 0
M  V30 2623 N 260.146 1.09593 -1.13257 0
M  V30 2624 C 261.076 2.18214 -0.830946 0
M  V30 2625 C 262.057 1.68812 0.208966 0
M  V30 2626 O 263.242 1.9408 0.0682666 0
M  V30 2627 C 260.372 3.46051 -0.294296 0
M  V30 2628 C 259.326 4.08778 -1.26826 0
M  V30 2629 C 258.652 5.31419 -0.591449 0
M  V30 2630 C 259.952 4.51476 -2.62615 0
M  V30 2631 H 261.646 2.43703 -1.73923 0
M  V30 2632 H 259.192 1.17128 -0.837675 0
M  V30 2633 H 261.145 4.2134 -0.0709606 0
M  V30 2634 H 259.869 3.20079 0.649366 0
M  V30 2635 H 258.528 3.35505 -1.47756 0
M  V30 2636 H 258.176 5.01727 0.357633 0
M  V30 2637 H 257.876 5.74341 -1.24123 0
M  V30 2638 H 259.4 6.09433 -0.377355 0
M  V30 2639 H 260.814 5.17999 -2.45663 0
M  V30 2640 H 259.211 5.05277 -3.23752 0
M  V30 2641 H 260.281 3.63962 -3.20406 0
M  V30 2642 N 261.624 0.925811 1.2754 0
M  V30 2643 C 262.872 0.564138 1.94067 0
M  V30 2644 C 263.193 -0.897188 1.73134 0
M  V30 2645 O 262.463 -1.63573 1.07799 0
M  V30 2646 H 261.043 0.205645 0.718136 0
M  V30 2647 H 263.705 1.1778 1.55287 0
M  V30 2648 H 262.801 0.76881 3.02483 0
M  V30 2649 N 263.102 -1.41638 0.69111 0
M  V30 2650 C 264.518 -1.55435 0.362224 0
M  V30 2651 C 264.718 -1.66754 -1.13117 0
M  V30 2652 O 263.774 -1.64348 -1.91692 0
M  V30 2653 C 265.087 -2.79588 1.10684 0
M  V30 2654 C 266.635 -2.9338 1.09075 0
M  V30 2655 C 267.11 -4.20414 1.81703 0
M  V30 2656 N 268.601 -4.27362 1.7865 0
M  V30 2657 C 269.336 -5.24507 2.31689 0
M  V30 2658 N 268.832 -6.27708 2.93179 0
M  V30 2659 N 270.625 -5.16416 2.2197 0
M  V30 2660 H 262.776 -1.32536 1.65976 0
M  V30 2661 H 265.039 -0.639115 0.700168 0
M  V30 2662 H 264.745 -2.77419 2.16175 0
M  V30 2663 H 264.619 -3.70973 0.682545 0
M  V30 2664 H 267.006 -2.95067 0.0441238 0
M  V30 2665 H 267.087 -2.0318 1.55407 0
M  V30 2666 H 266.731 -4.19488 2.86343 0
M  V30 2667 H 266.661 -5.09578 1.32808 0
M  V30 2668 H 269.152 -3.53415 1.33815 0
M  V30 2669 H 269.465 -6.98217 3.31229 0
M  V30 2670 H 267.81 -6.28223 2.97255 0
M  V30 2671 H 271.001 -4.34716 1.73607 0
M  V30 2672 H 271.174 -5.91958 2.63609 0
M  V30 2673 N 264.58 -0.43555 -1.51462 0
M  V30 2674 C 265.51 0.367376 -2.30592 0
M  V30 2675 C 266.491 1.02263 -1.35928 0
M  V30 2676 O 267.676 1.02661 -1.64847 0
M  V30 2677 C 264.806 1.46983 -3.14664 0
M  V30 2678 C 263.76 0.938161 -4.17591 0
M  V30 2679 C 263.086 2.13622 -4.90173 0
M  V30 2680 C 264.386 -0.0261621 -5.22293 0
M  V30 2681 H 266.08 -0.292969 -2.97963 0
M  V30 2682 H 263.626 -0.14234 -1.43295 0
M  V30 2683 H 265.579 2.03873 -3.688 0
M  V30 2684 H 264.303 2.15843 -2.4511 0
M  V30 2685 H 262.962 0.391481 -3.64504 0
M  V30 2686 H 262.61 2.81098 -4.17124 0
M  V30 2687 H 262.31 1.78688 -5.59772 0
M  V30 2688 H 263.834 2.7107 -5.47132 0
M  V30 2689 H 265.248 0.452384 -5.71512 0
M  V30 2690 H 263.645 -0.287992 -5.99409 0
M  V30 2691 H 264.715 -0.963391 -4.75233 0
M  V30 2692 N 266.058 1.56714 -0.166846 0
M  V30 2693 C 267.304 1.97039 0.479962 0
M  V30 2694 C 267.637 1.05264 1.63197 0
M  V30 2695 O 266.912 0.0988833 1.94248 0
M  V30 2696 C 267.195 3.46867 0.967212 0
M  V30 2697 C 267.048 4.49421 -0.18466 0
M  V30 2698 C 268.367 3.9968 1.84238 0
M  V30 2699 H 265.486 0.71641 0.172992 0
M  V30 2700 H 268.128 1.8832 -0.252079 0
M  V30 2701 H 266.278 3.54428 1.59101 0
M  V30 2702 H 267.95 4.53924 -0.821621 0
M  V30 2703 H 266.193 4.25573 -0.840837 0
M  V30 2704 H 266.864 5.51644 0.198317 0
M  V30 2705 H 269.34 3.94723 1.31655 0
M  V30 2706 H 268.216 5.04941 2.15234 0
M  V30 2707 H 268.477 3.43226 2.78654 0
M  V30 2708 N 267.536 -0.106894 1.57237 0
M  V30 2709 C 268.782 -0.81373 1.85759 0
M  V30 2710 C 269.115 -1.78952 0.754315 0
M  V30 2711 O 268.39 -1.93029 -0.23879 0
M  V30 2712 C 268.673 -1.55293 3.24894 0
M  V30 2713 C 268.526 -0.595929 4.45835 0
M  V30 2714 C 269.845 -2.5063 3.61763 0
M  V30 2715 H 266.964 -0.294369 0.67566 0
M  V30 2716 H 269.606 -0.0776472 1.89841 0
M  V30 2717 H 267.756 -2.1804 3.21544 0
M  V30 2718 H 269.428 0.0236262 4.61294 0
M  V30 2719 H 267.671 0.0916191 4.33703 0
M  V30 2720 H 268.342 -1.15004 5.39887 0
M  V30 2721 H 270.818 -1.97982 3.65981 0
M  V30 2722 H 269.694 -2.99376 4.60071 0
M  V30 2723 H 269.955 -3.3385 2.89821 0
M  V30 2724 N 269.014 -1.53014 -0.377408 0
M  V30 2725 C 269.944 -1.81589 -1.46791 0
M  V30 2726 C 270.925 -0.668622 -1.56408 0
M  V30 2727 O 272.11 -0.917337 -1.71168 0
M  V30 2728 C 269.24 -1.99519 -2.8427 0
M  V30 2729 C 268.194 -3.15249 -2.89486 0
M  V30 2730 C 267.52 -3.18451 -4.29527 0
M  V30 2731 C 268.82 -4.54084 -2.58079 0
M  V30 2732 H 270.514 -2.7291 -1.23127 0
M  V30 2733 H 268.06 -1.31319 -0.590883 0
M  V30 2734 H 270.013 -2.18092 -3.60575 0
M  V30 2735 H 268.737 -1.04897 -3.09296 0
M  V30 2736 H 267.396 -2.96477 -2.15631 0
M  V30 2737 H 267.044 -2.2149 -4.5161 0
M  V30 2738 H 266.744 -3.962 -4.33934 0
M  V30 2739 H 268.268 -3.39193 -5.07721 0
M  V30 2740 H 269.682 -4.72899 -3.24098 0
M  V30 2741 H 268.079 -5.33987 -2.7382 0
M  V30 2742 H 269.149 -4.60006 -1.53372 0
M  V30 2743 N 270.492 0.636531 -1.44174 0
M  V30 2744 C 271.722 1.42146 -1.49927 0
M  V30 2745 C 272.13 1.88812 -0.121063 0
M  V30 2746 O 271.473 1.61126 0.882267 0
M  V30 2747 C 271.535 2.67883 -2.39748 0
M  V30 2748 C 271.199 2.43048 -3.8701 0
M  V30 2749 C 272.196 2.05216 -4.77684 0
M  V30 2750 C 269.881 2.56856 -4.3166 0
M  V30 2751 C 271.875 1.81512 -6.11009 0
M  V30 2752 C 269.562 2.32766 -5.65034 0
M  V30 2753 C 270.56 1.95152 -6.54526 0
M  V30 2754 O 270.248 1.71326 -7.85431 0
M  V30 2755 H 269.98 0.442567 -0.51099 0
M  V30 2756 H 272.534 0.786158 -1.8976 0
M  V30 2757 H 270.764 3.34032 -1.94832 0
M  V30 2758 H 272.453 3.29874 -2.36513 0
M  V30 2759 H 273.219 1.94111 -4.44462 0
M  V30 2760 H 269.098 2.85104 -3.62266 0
M  V30 2761 H 272.642 1.52077 -6.80822 0
M  V30 2762 H 268.539 2.43479 -5.97819 0
M  V30 2763 H 269.307 1.85616 -7.97176 0
M  V30 2764 N 271.97 1.30982 0.876444 0
M  V30 2765 C 273.247 1.10942 1.61094 0
M  V30 2766 C 273.627 -0.338223 2.08373 0
M  V30 2767 O 272.975 -1.33122 1.85717 0
M  V30 2768 C 273.185 2.11789 2.77392 0
M  V30 2769 C 274.533 2.43965 3.47514 0
M  V30 2770 O 275.557 2.10166 2.87591 0
M  V30 2771 O 274.416 3.01817 4.55597 0
M  V30 2772 H 271.51 0.42667 0.708436 0
M  V30 2773 H 274.056 1.42438 0.922474 0
M  V30 2774 H 272.828 3.09194 2.39823 0
M  V30 2775 H 272.451 1.81161 3.5393 0
M  V30 2776 N 273.449 -1.08991 1.13837 0
M  V30 2777 C 274.674 -1.85551 0.926585 0
M  V30 2778 C 275.099 -1.80782 -0.519566 0
M  V30 2779 O 274.457 -1.18855 -1.36906 0
M  V30 2780 C 274.505 -3.31266 1.42462 0
M  V30 2781 O 273.609 -4.07822 0.612789 0
M  V30 2782 H 272.95 -0.575192 0.331738 0
M  V30 2783 H 275.48 -1.37604 1.51414 0
M  V30 2784 H 275.49 -3.82112 1.43019 0
M  V30 2785 H 274.165 -3.34052 2.47754 0
M  V30 2786 H 272.742 -3.66731 0.675463 0
M  V30 2787 N 274.927 -0.932562 -1.27047 0
M  V30 2788 C 275.875 -0.42603 -2.28665 0
M  V30 2789 C 276.869 0.49219 -1.62092 0
M  V30 2790 O 278.075 0.371355 -1.76128 0
M  V30 2791 H 274.45 -0.119213 -0.742491 0
M  V30 2792 H 276.421 -1.29579 -2.68797 0
M  V30 2793 C 275.17 0.301426 -3.46391 0
M  V30 2794 H 274.493 -0.39595 -3.97834 0
M  V30 2795 H 275.933 0.6202 -4.1944 0
M  V30 2796 C 274.392 1.51616 -3.00856 0
M  V30 2797 O 274.922 2.61476 -3.04948 0
M  V30 2798 N 273.128 1.36969 -2.56296 0
M  V30 2799 H 272.675 0.475873 -2.53166 0
M  V30 2800 H 272.633 2.18368 -2.26192 0
M  V30 2801 N 276.405 1.4127 -0.698611 0
M  V30 2802 C 277.682 1.94955 -0.158762 0
M  V30 2803 C 278.062 1.63781 1.33188 0
M  V30 2804 O 277.41 0.946423 2.07979 0
M  V30 2805 C 277.62 3.46044 -0.453309 0
M  V30 2806 C 278.968 4.22872 -0.382707 0
M  V30 2807 O 279.992 3.54076 -0.388396 0
M  V30 2808 O 278.851 5.45407 -0.345463 0
M  V30 2809 H 275.945 0.82683 -0.0167505 0
M  V30 2810 H 278.491 1.50971 -0.77498 0
M  V30 2811 H 277.263 3.62028 -1.48498 0
M  V30 2812 H 276.886 3.97128 0.19373 0
M  V30 2813 N 277.883 0.443576 1.51229 0
M  V30 2814 C 279.132 -0.122332 2.01329 0
M  V30 2815 C 279.445 -1.43237 1.33201 0
M  V30 2816 O 280.651 -2.0816 1.74304 0
M  V30 2817 C 279.107 -0.268551 3.58897 0
M  V30 2818 C 278.715 1.03142 4.35965 0
M  V30 2819 C 280.459 -0.787894 4.17124 0
M  V30 2820 C 278.366 0.850504 5.85252 0
M  V30 2821 H 277.296 -0.0494929 0.752374 0
M  V30 2822 H 279.947 0.574289 1.74282 0
M  V30 2823 H 278.329 -1.02832 3.82415 0
M  V30 2824 H 279.503 1.80001 4.24189 0
M  V30 2825 H 277.818 1.47977 3.89219 0
M  V30 2826 H 280.415 -0.939841 5.26375 0
M  V30 2827 H 280.758 -1.77201 3.76703 0
M  V30 2828 H 281.291 -0.0862669 3.97706 0
M  V30 2829 H 278.03 1.80718 6.30096 0
M  V30 2830 H 277.55 0.121825 5.99676 0
M  V30 2831 H 279.229 0.506163 6.45017 0
M  V30 2832 N 279.361 -1.56624 0.175154 0
M  V30 2833 C 280.586 -2.01813 -0.478137 0
M  V30 2834 C 281.011 -1.05457 -1.55757 0
M  V30 2835 O 280.369 -0.0347439 -1.81267 0
M  V30 2836 C 280.417 -3.45581 -1.02987 0
M  V30 2837 O 279.521 -3.52305 -2.14371 0
M  V30 2838 H 278.862 -0.65413 -0.114059 0
M  V30 2839 H 281.392 -2.02673 0.280173 0
M  V30 2840 H 281.402 -3.84965 -1.35151 0
M  V30 2841 H 280.077 -4.1521 -0.239556 0
M  V30 2842 H 278.654 -3.24783 -1.83222 0
M  V30 2843 N 280.839 0.0985539 -1.57292 0
M  V30 2844 C 281.769 1.12064 -2.04851 0
M  V30 2845 C 282.75 1.41981 -0.936767 0
M  V30 2846 O 283.935 1.52071 -1.20781 0
M  V30 2847 C 281.065 2.44144 -2.47004 0
M  V30 2848 C 280.019 2.28643 -3.6181 0
M  V30 2849 C 279.345 3.65869 -3.89929 0
M  V30 2850 C 280.645 1.72986 -4.92822 0
M  V30 2851 H 282.339 0.724979 -2.9049 0
M  V30 2852 H 279.885 0.34729 -1.39749 0
M  V30 2853 H 281.838 3.15914 -2.78884 0
M  V30 2854 H 280.562 2.85639 -1.5836 0
M  V30 2855 H 279.221 1.59318 -3.30172 0
M  V30 2856 H 278.869 4.04885 -2.98458 0
M  V30 2857 H 278.569 3.56344 -4.67218 0
M  V30 2858 H 280.093 4.39112 -4.2428 0
M  V30 2859 H 281.507 2.34593 -5.23105 0
M  V30 2860 H 279.904 1.74229 -5.74251 0
M  V30 2861 H 280.974 0.689007 -4.7998 0
M  V30 2862 N 282.317 1.53212 0.369288 0
M  V30 2863 C 283.594 1.59815 1.12776 0
M  V30 2864 C 283.974 0.403402 2.0721 0
M  V30 2865 O 283.322 -0.606667 2.20299 0
M  V30 2866 C 283.532 2.94664 1.87013 0
M  V30 2867 C 284.88 3.49109 2.41677 0
M  V30 2868 O 285.904 2.96669 1.97144 0
M  V30 2869 O 284.763 4.40775 3.23079 0
M  V30 2870 H 281.857 0.645376 0.517125 0
M  V30 2871 H 284.403 1.65553 0.37285 0
M  V30 2872 H 283.175 3.73061 1.18071 0
M  V30 2873 H 282.798 2.92401 2.69421 0
M  V30 2874 N 283.795 -0.628877 1.44509 0
M  V30 2875 C 285.043 -1.38565 1.4712 0
M  V30 2876 C 285.364 -1.94712 0.105899 0
M  V30 2877 O 284.634 -1.75912 -0.862079 0
M  V30 2878 H 283.214 -0.514333 0.541729 0
M  V30 2879 H 285.876 -0.740018 1.80305 0
M  V30 2880 H 284.972 -2.21583 2.19789 0
M  V30 2881 N 285.273 -1.31445 -0.869486 0
M  V30 2882 C 286.55 -1.11795 -1.60503 0
M  V30 2883 C 286.93 0.327168 -2.08549 0
M  V30 2884 O 286.278 1.32135 -1.8642 0
M  V30 2885 C 286.488 -2.13258 -2.76265 0
M  V30 2886 C 287.836 -2.45805 -3.46215 0
M  V30 2887 O 288.86 -2.11688 -2.86473 0
M  V30 2888 O 287.719 -3.04228 -4.5399 0
M  V30 2889 H 284.813 -0.430421 -0.706163 0
M  V30 2890 H 287.359 -1.42925 -0.914907 0
M  V30 2891 H 286.131 -3.10461 -2.3818 0
M  V30 2892 H 285.754 -1.83035 -3.52964 0
M  V30 2893 N 286.751 1.08385 -1.14413 0
M  V30 2894 C 287.681 2.17321 -0.854044 0
M  V30 2895 C 288.662 1.69024 0.191049 0
M  V30 2896 O 289.847 1.94141 0.0476779 0
M  V30 2897 C 286.977 3.45719 -0.330983 0
M  V30 2898 C 285.931 4.07409 -1.31155 0
M  V30 2899 C 285.257 5.30762 -0.64778 0
M  V30 2900 C 286.557 4.48665 -2.67388 0
M  V30 2901 H 288.251 2.41845 -1.76498 0
M  V30 2902 H 285.797 1.16233 -0.850051 0
M  V30 2903 H 287.75 4.21241 -0.115645 0
M  V30 2904 H 286.474 3.2075 0.615381 0
M  V30 2905 H 285.133 3.33919 -1.51306 0
M  V30 2906 H 284.781 5.02078 0.304398 0
M  V30 2907 H 284.481 5.72992 -1.30207 0
M  V30 2908 H 286.005 6.08998 -0.441972 0
M  V30 2909 H 287.419 5.15364 -2.51143 0
M  V30 2910 H 285.816 5.01814 -3.29093 0
M  V30 2911 H 286.886 3.60543 -3.24248 0
M  V30 2912 N 288.23 0.939286 1.26551 0
M  V30 2913 C 289.178 0.43815 2.28436 0
M  V30 2914 C 290.172 -0.483587 1.62351 0
M  V30 2915 O 291.378 -0.362009 1.76322 0
M  V30 2916 H 287.753 0.123149 0.741848 0
M  V30 2917 H 289.724 1.31002 2.68106 0
M  V30 2918 C 288.473 -0.283052 3.46546 0
M  V30 2919 H 287.796 0.417043 3.97619 0
M  V30 2920 H 289.236 -0.597948 4.19763 0
M  V30 2921 C 287.695 -1.50018 3.01656 0
M  V30 2922 O 288.225 -2.59855 3.0633 0
M  V30 2923 N 286.431 -1.35608 2.57019 0
M  V30 2924 H 285.978 -0.46244 2.53415 0
M  V30 2925 H 285.936 -2.17165 2.27347 0
M  V30 2926 N 289.708 -1.40897 0.706093 0
M  V30 2927 C 291.124 -1.55042 0.37869 0
M  V30 2928 C 291.324 -1.67944 -1.11342 0
M  V30 2929 O 290.38 -1.66372 -1.89938 0
M  V30 2930 C 291.693 -2.78398 1.13643 0
M  V30 2931 C 293.241 -2.92206 1.12181 0
M  V30 2932 C 293.716 -4.18463 1.86152 0
M  V30 2933 N 295.207 -4.25443 1.83173 0
M  V30 2934 C 295.942 -5.2202 2.37239 0
M  V30 2935 N 295.438 -6.24563 2.99821 0
M  V30 2936 N 297.231 -5.14033 2.27435 0
M  V30 2937 H 289.382 -1.30769 1.67372 0
M  V30 2938 H 291.645 -0.631653 0.706907 0
M  V30 2939 H 291.351 -2.7511 2.19106 0
M  V30 2940 H 291.225 -3.70228 0.721853 0
M  V30 2941 H 293.612 -2.95004 0.0754171 0
M  V30 2942 H 293.693 -2.01521 1.57554 0
M  V30 2943 H 293.337 -4.16427 2.90776 0
M  V30 2944 H 293.267 -5.08141 1.38206 0
M  V30 2945 H 295.758 -3.51976 1.37556 0
M  V30 2946 H 296.071 -6.94665 3.38616 0
M  V30 2947 H 294.416 -6.25035 3.03902 0
M  V30 2948 H 297.607 -4.3285 1.78208 0
M  V30 2949 H 297.78 -5.89129 2.69873 0
M  V30 2950 N 291.186 -0.45159 -1.50991 0
M  V30 2951 C 292.411 0.110667 -2.07105 0
M  V30 2952 C 292.836 1.3446 -1.31538 0
M  V30 2953 O 292.194 1.77743 -0.357365 0
M  V30 2954 C 292.242 0.397238 -3.58405 0
M  V30 2955 O 291.346 1.48124 -3.84881 0
M  V30 2956 H 290.687 -0.00439271 -0.663985 0
M  V30 2957 H 293.217 -0.637026 -1.9443 0
M  V30 2958 H 293.227 0.64351 -4.02893 0
M  V30 2959 H 291.902 -0.504553 -4.12828 0
M  V30 2960 H 290.479 1.22381 -3.52246 0
M  V30 2961 N 292.664 1.56529 -0.183458 0
M  V30 2962 C 293.911 1.97244 0.458357 0
M  V30 2963 C 294.239 1.06992 1.62428 0
M  V30 2964 O 293.494 0.106542 1.9541 0
M  V30 2965 C 293.793 3.43939 0.971637 0
M  V30 2966 C 293.459 4.5083 -0.0796784 0
M  V30 2967 C 292.121 4.79786 -0.368584 0
M  V30 2968 C 294.473 5.15138 -0.792638 0
M  V30 2969 C 291.801 5.70345 -1.37563 0
M  V30 2970 C 294.153 6.06784 -1.78875 0
M  V30 2971 C 292.817 6.34102 -2.08497 0
M  V30 2972 H 292.087 0.721768 0.167725 0
M  V30 2973 H 294.734 1.89472 -0.277976 0
M  V30 2974 H 293.039 3.48724 1.78602 0
M  V30 2975 H 294.736 3.72791 1.47744 0
M  V30 2976 H 291.326 4.28317 0.155668 0
M  V30 2977 H 295.51 4.92868 -0.582659 0
M  V30 2978 H 290.766 5.89789 -1.61118 0
M  V30 2979 H 294.94 6.55677 -2.3465 0
M  V30 2980 H 292.567 7.04074 -2.86678 0
M  V30 2981 N 294.142 -0.090211 1.57342 0
M  V30 2982 C 295.367 -0.810082 1.90925 0
M  V30 2983 C 295.792 -1.71248 0.778187 0
M  V30 2984 O 295.15 -1.79278 -0.269991 0
M  V30 2985 C 295.198 -1.59529 3.23393 0
M  V30 2986 O 294.302 -2.70461 3.11327 0
M  V30 2987 H 293.643 -0.222231 0.625707 0
M  V30 2988 H 296.173 -0.0639716 2.045 0
M  V30 2989 H 296.183 -1.97847 3.5682 0
M  V30 2990 H 294.858 -0.933055 4.05299 0
M  V30 2991 H 293.435 -2.35135 2.89423 0
M  V30 2992 N 295.62 -1.53406 -0.361157 0
M  V30 2993 C 296.53 -1.83122 -1.4664 0
M  V30 2994 C 297.546 -0.719943 -1.58407 0
M  V30 2995 O 298.722 -1.01046 -1.74218 0
M  V30 2996 C 295.787 -2.01891 -2.81853 0
M  V30 2997 C 294.848 -3.25784 -2.79577 0
M  V30 2998 C 294.081 -3.43648 -4.0834 0
M  V30 2999 O 294.304 -2.65714 -5.0473 0
M  V30 3000 O 293.238 -4.37018 -4.13883 0
M  V30 3001 H 297.064 -2.7703 -1.24451 0
M  V30 3002 H 294.649 -1.38841 -0.551678 0
M  V30 3003 H 296.531 -2.15782 -3.61962 0
M  V30 3004 H 295.206 -1.11173 -3.0401 0
M  V30 3005 H 294.113 -3.17312 -1.98151 0
M  V30 3006 H 295.446 -4.16439 -2.62373 0
M  V30 3007 N 297.098 0.621204 -1.44841 0
M  V30 3008 C 298.323 1.41244 -1.51871 0
M  V30 3009 C 298.748 1.87519 -0.147764 0
M  V30 3010 O 298.106 1.59334 0.865 0
M  V30 3011 C 298.154 2.60221 -2.49634 0
M  V30 3012 O 297.258 3.60395 -2.00473 0
M  V30 3013 H 296.599 0.42223 -0.512463 0
M  V30 3014 H 299.129 0.757305 -1.90069 0
M  V30 3015 H 299.139 3.0764 -2.67996 0
M  V30 3016 H 297.814 2.25887 -3.4921 0
M  V30 3017 H 296.391 3.19717 -1.91925 0
M  V30 3018 N 298.576 1.31904 0.862503 0
M  V30 3019 C 299.822 1.22197 1.61851 0
M  V30 3020 C 300.155 -0.217641 1.92977 0
M  V30 3021 O 299.43 -1.15264 1.56666 0
M  V30 3022 C 299.713 2.07378 2.94391 0
M  V30 3023 C 299.566 3.59678 2.70096 0
M  V30 3024 C 300.885 1.92891 3.95577 0
M  V30 3025 H 298.004 0.445255 0.587296 0
M  V30 3026 H 300.646 1.6177 0.99651 0
M  V30 3027 H 298.796 1.73758 3.47477 0
M  V30 3028 H 300.468 4.03472 2.23625 0
M  V30 3029 H 298.711 3.82735 2.04197 0
M  V30 3030 H 299.382 4.14595 3.64438 0
M  V30 3031 H 301.858 2.22327 3.51724 0
M  V30 3032 H 300.734 2.54781 4.86187 0
M  V30 3033 H 300.995 0.894315 4.3296 0
M  V30 3034 N 300.054 -1.07777 1.14986 0
M  V30 3035 C 300.964 -2.18404 0.856546 0
M  V30 3036 C 301.98 -1.73211 -0.165485 0
M  V30 3037 O 303.156 -2.01399 0.00755219 0
M  V30 3038 C 300.221 -3.44977 0.34526 0
M  V30 3039 C 299.282 -4.0476 1.43065 0
M  V30 3040 C 298.515 -5.25291 0.943663 0
M  V30 3041 O 298.738 -5.70004 -0.212426 0
M  V30 3042 O 297.672 -5.76638 1.72547 0
M  V30 3043 H 301.498 -2.45978 1.78125 0
M  V30 3044 H 299.083 -1.17033 0.928631 0
M  V30 3045 H 300.965 -4.21348 0.0663671 0
M  V30 3046 H 299.64 -3.18965 -0.551631 0
M  V30 3047 H 298.547 -3.29949 1.76309 0
M  V30 3048 H 299.88 -4.35035 2.30229 0
M  V30 3049 N 301.532 -0.945985 -1.26051 0
M  V30 3050 C 302.809 -0.513816 -1.88731 0
M  V30 3051 C 303.189 1.00872 -1.8544 0
M  V30 3052 O 302.537 1.8708 -1.312 0
M  V30 3053 C 302.747 -1.08062 -3.31849 0
M  V30 3054 C 304.095 -1.1522 -4.08668 0
M  V30 3055 O 305.119 -1.03155 -3.40936 0
M  V30 3056 O 303.978 -1.34044 -5.29806 0
M  V30 3057 H 301.072 -0.168193 -0.809716 0
M  V30 3058 H 303.618 -1.03886 -1.34186 0
M  V30 3059 H 302.39 -2.1241 -3.2863 0
M  V30 3060 H 302.013 -0.538307 -3.93939 0
M  V30 3061 N 303.011 1.40521 -0.713556 0
M  V30 3062 C 304.427 1.54839 -0.386907 0
M  V30 3063 C 304.627 1.68532 1.1045 0
M  V30 3064 O 303.683 1.67377 1.89053 0
M  V30 3065 C 304.996 2.77792 -1.15118 0
M  V30 3066 C 306.544 2.91607 -1.13729 0
M  V30 3067 C 307.019 4.1747 -1.88368 0
M  V30 3068 N 308.51 4.24466 -1.85427 0
M  V30 3069 C 309.245 5.20755 -2.40004 0
M  V30 3070 N 308.741 6.22965 -3.03129 0
M  V30 3071 N 310.534 5.1282 -2.30158 0
M  V30 3072 H 302.685 1.29879 -1.68063 0
M  V30 3073 H 304.948 0.627896 -0.710247 0
M  V30 3074 H 304.654 2.73944 -2.20561 0
M  V30 3075 H 304.528 3.6984 -0.741477 0
M  V30 3076 H 306.915 2.94959 -0.0910608 0
M  V30 3077 H 306.996 2.00682 -1.5862 0
M  V30 3078 H 306.64 4.1488 -2.9298 0
M  V30 3079 H 306.57 5.074 -1.40898 0
M  V30 3080 H 309.061 3.51241 -1.3942 0
M  V30 3081 H 309.374 6.92859 -3.42295 0
M  V30 3082 H 307.719 6.23415 -3.07212 0
M  V30 3083 H 310.91 4.31899 -1.80501 0
M  V30 3084 H 311.083 5.87689 -2.72993 0
M  V30 3085 N 304.489 0.459591 1.5075 0
M  V30 3086 C 305.719 -0.0972338 2.06371 0
M  V30 3087 C 306.127 -1.35074 1.32483 0
M  V30 3088 O 305.47 -1.79637 0.384226 0
M  V30 3089 C 305.532 -0.462759 3.56509 0
M  V30 3090 C 305.196 0.687084 4.51805 0
M  V30 3091 C 306.193 1.56578 4.95761 0
M  V30 3092 C 303.878 0.874144 4.94635 0
M  V30 3093 C 305.872 2.61604 5.81242 0
M  V30 3094 C 303.559 1.92765 5.79901 0
M  V30 3095 C 304.557 2.79697 6.23104 0
M  V30 3096 O 304.245 3.83235 7.06673 0
M  V30 3097 H 303.977 -0.00140687 0.675999 0
M  V30 3098 H 306.531 0.644011 1.95043 0
M  V30 3099 H 304.761 -1.25703 3.65699 0
M  V30 3100 H 306.45 -0.953323 3.94546 0
M  V30 3101 H 307.216 1.4329 4.6335 0
M  V30 3102 H 303.095 0.207006 4.60535 0
M  V30 3103 H 306.639 3.29489 6.14884 0
M  V30 3104 H 302.536 2.06064 6.11725 0
M  V30 3105 H 303.304 3.80084 7.24899 0
M  V30 3106 N 305.967 -1.56429 0.191757 0
M  V30 3107 C 306.914 -2.18936 -0.730454 0
M  V30 3108 C 307.884 -1.13557 -1.21219 0
M  V30 3109 O 309.069 -1.41794 -1.27668 0
M  V30 3110 C 306.209 -2.85013 -1.9458 0
M  V30 3111 C 305.322 -4.04909 -1.50574 0
M  V30 3112 C 304.457 -4.58853 -2.67634 0
M  V30 3113 C 303.496 -5.71114 -2.20217 0
M  V30 3114 N 302.633 -6.19478 -3.30442 0
M  V30 3115 H 307.473 -2.97389 -0.190664 0
M  V30 3116 H 305.01 -1.46869 -0.0823694 0
M  V30 3117 H 306.968 -3.21492 -2.65893 0
M  V30 3118 H 305.598 -2.09129 -2.45896 0
M  V30 3119 H 304.65 -3.74115 -0.688605 0
M  V30 3120 H 305.962 -4.86113 -1.11784 0
M  V30 3121 H 305.116 -4.97619 -3.47074 0
M  V30 3122 H 303.855 -3.76749 -3.09696 0
M  V30 3123 H 302.86 -5.31879 -1.3923 0
M  V30 3124 H 304.085 -6.55033 -1.79189 0
M  V30 3125 H 302.031 -5.40297 -3.72041 0
M  V30 3126 H 301.948 -6.95725 -2.9581 0
M  V30 3127 H 303.216 -6.62898 -4.10106 0
M  V30 3128 N 307.445 0.0818655 -1.57387 0
M  V30 3129 C 308.408 1.08265 -2.02018 0
M  V30 3130 C 309.408 1.32183 -0.915664 0
M  V30 3131 O 310.598 1.28073 -1.18081 0
M  V30 3132 C 307.73 2.42871 -2.39221 0
M  V30 3133 H 308.923 0.698204 -2.91659 0
M  V30 3134 H 306.476 0.327303 -1.52835 0
M  V30 3135 H 307.211 2.86167 -1.52575 0
M  V30 3136 H 306.996 2.26855 -3.19811 0
M  V30 3137 H 308.486 3.14826 -2.74362 0
M  V30 3138 N 308.923 1.53595 0.353017 0
M  V30 3139 C 310.153 1.74058 1.11299 0
M  V30 3140 C 310.561 0.475205 1.83135 0
M  V30 3141 O 309.904 -0.562344 1.74881 0
M  V30 3142 C 309.966 2.85994 2.17825 0
M  V30 3143 C 309.63 4.25923 1.65647 0
M  V30 3144 C 310.627 5.07829 1.11383 0
M  V30 3145 C 308.312 4.72377 1.7078 0
M  V30 3146 C 310.306 6.34285 0.629439 0
M  V30 3147 C 307.993 5.98808 1.21953 0
M  V30 3148 C 308.991 6.79594 0.681265 0
M  V30 3149 O 308.679 8.03651 0.200248 0
M  V30 3150 H 308.411 0.585327 0.338183 0
M  V30 3151 H 310.965 2.01186 0.413927 0
M  V30 3152 H 309.195 2.54368 2.91262 0
M  V30 3153 H 310.884 2.94515 2.79313 0
M  V30 3154 H 311.65 4.73107 1.06746 0
M  V30 3155 H 307.529 4.0956 2.11617 0
M  V30 3156 H 311.073 6.97288 0.208636 0
M  V30 3157 H 306.97 6.33026 1.26287 0
M  V30 3158 H 307.738 8.1788 0.318416 0
M  V30 3159 N 310.401 -0.613514 1.45168 0
M  V30 3160 C 311.649 -1.36997 1.48581 0
M  V30 3161 C 311.97 -1.94589 0.126545 0
M  V30 3162 O 311.24 -1.76816 -0.843372 0
M  V30 3163 H 309.82 -0.508558 0.547154 0
M  V30 3164 H 312.482 -0.720853 1.81079 0
M  V30 3165 H 311.578 -2.1924 2.22127 0
M  V30 3166 N 311.879 -1.3236 -0.855495 0
M  V30 3167 C 313.125 -1.24064 -1.61182 0
M  V30 3168 C 313.48 0.195914 -1.914 0
M  V30 3169 O 312.773 1.13345 -1.54478 0
M  V30 3170 C 312.967 -2.03275 -2.93963 0
M  V30 3171 C 312.796 -3.54486 -2.76712 0
M  V30 3172 C 311.566 -4.23824 -2.75139 0
M  V30 3173 C 313.764 -4.49154 -2.50531 0
M  V30 3174 N 311.746 -5.61095 -2.4909 0
M  V30 3175 C 313.117 -5.74195 -2.3388 0
M  V30 3176 C 315.172 -4.3842 -2.35992 0
M  V30 3177 C 313.875 -6.89716 -2.04168 0
M  V30 3178 C 315.901 -5.53739 -2.0767 0
M  V30 3179 C 315.263 -6.77779 -1.9182 0
M  V30 3180 H 311.362 -0.509139 -0.59355 0
M  V30 3181 H 313.946 -1.66715 -1.00569 0
M  V30 3182 H 312.117 -1.6297 -3.52555 0
M  V30 3183 H 313.849 -1.86881 -3.58967 0
M  V30 3184 H 310.604 -3.75934 -2.88047 0
M  V30 3185 H 311.028 -6.33411 -2.38996 0
M  V30 3186 H 315.67 -3.43172 -2.46967 0
M  V30 3187 H 313.388 -7.84977 -1.9193 0
M  V30 3188 H 316.974 -5.4736 -1.97201 0
M  V30 3189 H 315.854 -7.65504 -1.70217 0
M  V30 3190 N 313.357 1.07166 -1.15556 0
M  V30 3191 C 314.289 2.14341 -0.811815 0
M  V30 3192 C 315.302 1.61835 0.177015 0
M  V30 3193 O 316.491 1.78439 -0.0464996 0
M  V30 3194 C 313.591 3.38387 -0.186481 0
M  V30 3195 C 312.764 4.20238 -1.21321 0
M  V30 3196 C 311.823 5.2266 -0.609302 0
M  V30 3197 O 310.849 5.54719 -1.27576 0
M  V30 3198 N 312.051 5.77306 0.608099 0
M  V30 3199 H 314.816 2.44431 -1.73417 0
M  V30 3200 H 312.377 1.23089 -1.0517 0
M  V30 3201 H 314.369 4.04044 0.230339 0
M  V30 3202 H 312.939 3.05994 0.639249 0
M  V30 3203 H 312.159 3.50369 -1.80652 0
M  V30 3204 H 313.447 4.71736 -1.90638 0
M  V30 3205 H 312.845 5.53513 1.1679 0
M  V30 3206 H 311.402 6.44583 0.96725 0
M  V30 3207 N 314.835 0.952656 1.25548 0
M  V30 3208 C 316.081 0.607272 1.93494 0
M  V30 3209 C 316.414 -0.853245 1.74452 0
M  V30 3210 O 315.689 -1.61194 1.08843 0
M  V30 3211 C 315.972 0.96435 3.46947 0
M  V30 3212 C 315.825 2.48045 3.75225 0
M  V30 3213 C 317.144 0.487987 4.37386 0
M  V30 3214 H 314.263 0.222096 0.702739 0
M  V30 3215 H 316.905 1.18895 1.48203 0
M  V30 3216 H 315.055 0.469361 3.85654 0
M  V30 3217 H 316.727 3.04905 3.46166 0
M  V30 3218 H 314.97 2.919 3.209 0
M  V30 3219 H 315.641 2.6808 4.82532 0
M  V30 3220 H 318.117 0.912558 4.0597 0
M  V30 3221 H 316.993 0.766547 5.43521 0
M  V30 3222 H 317.254 -0.612063 4.37843 0
M  V30 3223 N 316.313 -1.40141 0.720998 0
M  V30 3224 C 317.562 -2.0002 0.259804 0
M  V30 3225 C 317.875 -1.57839 -1.15526 0
M  V30 3226 O 319.081 -2.10455 -1.71525 0
M  V30 3227 C 317.537 -3.57516 0.413566 0
M  V30 3228 C 317.145 -4.08667 1.83562 0
M  V30 3229 C 318.889 -4.24498 0.0134387 0
M  V30 3230 C 316.796 -5.58686 1.93968 0
M  V30 3231 H 315.726 -0.748195 0.0933806 0
M  V30 3232 H 318.377 -1.60313 0.892866 0
M  V30 3233 H 316.759 -3.9495 -0.288169 0
M  V30 3234 H 317.933 -3.82598 2.56817 0
M  V30 3235 H 316.248 -3.543 2.1877 0
M  V30 3236 H 318.845 -5.34654 0.0703954 0
M  V30 3237 H 319.188 -4.03375 -1.02927 0
M  V30 3238 H 319.721 -3.92188 0.665815 0
M  V30 3239 H 316.46 -5.8467 2.96379 0
M  V30 3240 H 315.98 -5.86602 1.25131 0
M  V30 3241 H 317.659 -6.23875 1.71431 0
M  V30 3242 N 317.792 -0.46758 -1.50504 0
M  V30 3243 C 319.208 -0.121533 -1.59137 0
M  V30 3244 C 319.408 1.3717 -1.47603 0
M  V30 3245 O 318.464 2.14464 -1.33272 0
M  V30 3246 C 319.777 -0.6686 -2.93173 0
M  V30 3247 C 321.325 -0.631716 -3.06559 0
M  V30 3248 C 321.8 -1.15627 -4.43164 0
M  V30 3249 N 323.291 -1.11553 -4.49567 0
M  V30 3250 C 324.026 -1.49195 -5.5365 0
M  V30 3251 N 323.522 -1.94269 -6.65005 0
M  V30 3252 N 325.315 -1.4082 -5.44175 0
M  V30 3253 H 317.466 -1.4388 -1.56245 0
M  V30 3254 H 319.729 -0.594784 -0.738198 0
M  V30 3255 H 319.435 -1.71453 -3.07078 0
M  V30 3256 H 319.309 -0.11021 -3.77039 0
M  V30 3257 H 321.696 0.405297 -2.92304 0
M  V30 3258 H 321.777 -1.22687 -2.24458 0
M  V30 3259 H 321.421 -2.1919 -4.58168 0
M  V30 3260 H 321.351 -0.537365 -5.23851 0
M  V30 3261 H 323.842 -0.784895 -3.69659 0
M  V30 3262 H 324.155 -2.21148 -7.40482 0
M  V30 3263 H 322.5 -1.98219 -6.66134 0
M  V30 3264 H 325.691 -1.0545 -4.56068 0
M  V30 3265 H 325.864 -1.70481 -6.25172 0
M  V30 3266 N 319.27 1.56325 -0.20005 0
M  V30 3267 C 320.516 1.98012 0.438059 0
M  V30 3268 C 320.849 1.08702 1.60927 0
M  V30 3269 O 320.124 0.140064 1.93995 0
M  V30 3270 C 320.407 3.48841 0.893419 0
M  V30 3271 C 320.26 4.48928 -0.279947 0
M  V30 3272 C 321.579 4.03498 1.75719 0
M  V30 3273 H 318.698 0.719918 0.157757 0
M  V30 3274 H 321.34 1.87743 -0.291968 0
M  V30 3275 H 319.49 3.57723 1.51547 0
M  V30 3276 H 321.162 4.52079 -0.91772 0
M  V30 3277 H 319.405 4.23694 -0.930919 0
M  V30 3278 H 320.076 5.5194 0.0812601 0
M  V30 3279 H 322.552 3.97427 1.23253 0
M  V30 3280 H 321.428 5.09393 2.04476 0
M  V30 3281 H 321.689 3.4906 2.71311 0
M  V30 3282 N 320.748 -0.0735177 1.57428 0
M  V30 3283 C 321.658 -1.10547 2.06922 0
M  V30 3284 C 322.674 -1.42506 0.998402 0
M  V30 3285 O 323.85 -1.52717 1.31299 0
M  V30 3286 C 320.915 -2.40019 2.50184 0
M  V30 3287 C 319.976 -2.15046 3.71556 0
M  V30 3288 C 319.209 -3.38345 4.12745 0
M  V30 3289 O 319.432 -4.47399 3.53822 0
M  V30 3290 O 318.366 -3.2666 5.05546 0
M  V30 3291 H 322.192 -0.715013 2.95163 0
M  V30 3292 H 319.777 -0.287531 1.46607 0
M  V30 3293 H 321.659 -3.16218 2.78539 0
M  V30 3294 H 320.334 -2.78447 1.65072 0
M  V30 3295 H 319.241 -1.36558 3.48285 0
M  V30 3296 H 320.574 -1.81499 4.57514 0
M  V30 3297 N 322.226 -1.5378 -0.344866 0
M  V30 3298 C 323.503 -1.61589 -1.10219 0
M  V30 3299 C 323.883 -0.436316 -2.06542 0
M  V30 3300 O 323.231 0.571543 -2.21237 0
M  V30 3301 C 323.441 -2.97602 -1.82301 0
M  V30 3302 C 324.789 -3.5291 -2.36093 0
M  V30 3303 O 325.813 -2.99768 -1.924 0
M  V30 3304 O 324.672 -4.45859 -3.16026 0
M  V30 3305 H 321.766 -0.653522 -0.506792 0
M  V30 3306 H 324.312 -1.66126 -0.346465 0
M  V30 3307 H 323.084 -3.74893 -1.12121 0
M  V30 3308 H 322.707 -2.9665 -2.64735 0
M  V30 3309 N 323.704 0.605807 -1.45491 0
M  V30 3310 C 324.952 1.36207 -1.49305 0
M  V30 3311 C 325.273 1.94519 -0.136863 0
M  V30 3312 O 324.543 1.77261 0.833983 0
M  V30 3313 H 323.123 0.50565 -0.549843 0
M  V30 3314 H 325.785 0.711239 -1.81459 0
M  V30 3315 H 324.881 2.18058 -2.23287 0
M  V30 3316 N 325.182 1.32811 0.848464 0
M  V30 3317 C 326.13 1.22231 1.97895 0
M  V30 3318 C 327.124 0.125749 1.68933 0
M  V30 3319 O 328.33 0.289083 1.77663 0
M  V30 3320 H 324.705 0.379058 0.649476 0
M  V30 3321 H 326.676 2.17828 2.03945 0
M  V30 3322 C 325.425 0.968572 3.33937 0
M  V30 3323 H 324.748 1.80458 3.56756 0
M  V30 3324 H 326.188 0.934808 4.13567 0
M  V30 3325 C 324.647 -0.328628 3.35293 0
M  V30 3326 O 325.177 -1.33848 3.78745 0
M  V30 3327 N 323.383 -0.352788 2.88451 0
M  V30 3328 H 322.93 0.469541 2.53285 0
M  V30 3329 H 322.888 -1.22057 2.89741 0
M  V30 3330 N 326.66 -1.06551 1.16123 0
M  V30 3331 C 327.937 -1.76097 0.85142 0
M  V30 3332 C 328.317 -2.00802 -0.6513 0
M  V30 3333 O 327.665 -1.63302 -1.59827 0
M  V30 3334 C 327.875 -3.06384 1.67122 0
M  V30 3335 C 329.223 -3.80585 1.88255 0
M  V30 3336 O 330.247 -3.16218 1.63966 0
M  V30 3337 O 329.106 -4.96212 2.2899 0
M  V30 3338 H 326.2 -0.765102 0.313923 0
M  V30 3339 H 328.746 -1.12844 1.26745 0
M  V30 3340 H 327.518 -2.84071 2.69108 0
M  V30 3341 H 327.141 -3.77371 1.25206 0
M  V30 3342 N 328.138 -0.959301 -1.25041 0
M  V30 3343 C 329.387 -0.612254 -1.92183 0
M  V30 3344 C 329.7 0.855347 -1.75907 0
M  V30 3345 O 330.906 1.31256 -2.37664 0
M  V30 3346 C 329.362 -1.04435 -3.44414 0
M  V30 3347 C 328.97 -2.53482 -3.69393 0
M  V30 3348 C 330.714 -0.770055 -4.17457 0
M  V30 3349 C 328.621 -2.90468 -5.15153 0
M  V30 3350 H 327.551 -0.225279 -0.719559 0
M  V30 3351 H 330.202 -1.16438 -1.41825 0
M  V30 3352 H 328.584 -0.4206 -3.9376 0
M  V30 3353 H 329.758 -3.20916 -3.30681 0
M  V30 3354 H 328.073 -2.78432 -3.0962 0
M  V30 3355 H 330.67 -1.02249 -5.24832 0
M  V30 3356 H 331.013 0.293611 -4.15263 0
M  V30 3357 H 331.546 -1.35437 -3.74034 0
M  V30 3358 H 328.285 -3.95871 -5.22462 0
M  V30 3359 H 327.805 -2.27711 -5.54894 0
M  V30 3360 H 329.484 -2.79914 -5.83315 0
M  V30 3361 N 329.616 1.39756 -0.72842 0
M  V30 3362 C 330.526 2.34444 -0.0855374 0
M  V30 3363 C 331.542 1.57976 0.729356 0
M  V30 3364 O 332.718 1.90301 0.659346 0
M  V30 3365 C 329.783 3.36965 0.815798 0
M  V30 3366 C 328.844 4.29299 -0.0105996 0
M  V30 3367 C 328.077 5.26923 0.84781 0
M  V30 3368 O 328.3 5.30859 2.08673 0
M  V30 3369 O 327.234 6.01249 0.279969 0
M  V30 3370 H 331.06 2.91065 -0.866892 0
M  V30 3371 H 328.645 1.4117 -0.48902 0
M  V30 3372 H 330.527 3.99804 1.33171 0
M  V30 3373 H 329.202 2.82739 1.57608 0
M  V30 3374 H 328.109 3.69703 -0.571877 0
M  V30 3375 H 329.442 4.86712 -0.73295 0
M  V30 3376 N 331.094 0.475555 1.50254 0
M  V30 3377 C 332.057 -0.305016 2.27161 0
M  V30 3378 C 333.057 -0.916519 1.32123 0
M  V30 3379 O 334.247 -0.785003 1.5551 0
M  V30 3380 C 331.379 -1.43496 3.09227 0
M  V30 3381 H 332.572 0.369511 2.97615 0
M  V30 3382 H 330.125 0.229747 1.54602 0
M  V30 3383 H 330.86 -2.14441 2.43281 0
M  V30 3384 H 330.645 -1.00223 3.79075 0
M  V30 3385 H 332.135 -1.98548 3.67381 0
M  V30 3386 N 332.573 -1.56217 0.208337 0
M  V30 3387 C 333.822 -1.97124 -0.427204 0
M  V30 3388 C 334.135 -1.09859 -1.61835 0
M  V30 3389 O 335.341 -1.40606 -2.32255 0
M  V30 3390 C 333.797 -3.50633 -0.811442 0
M  V30 3391 C 333.405 -4.46582 0.35615 0
M  V30 3392 C 335.149 -4.00282 -1.41332 0
M  V30 3393 C 333.056 -5.91379 -0.0497852 0
M  V30 3394 H 331.986 -0.736086 -0.163381 0
M  V30 3395 H 334.637 -1.8099 0.302456 0
M  V30 3396 H 333.019 -3.62319 -1.59815 0
M  V30 3397 H 334.193 -4.46636 1.1337 0
M  V30 3398 H 332.508 -4.07202 0.870396 0
M  V30 3399 H 335.105 -5.0595 -1.72972 0
M  V30 3400 H 335.448 -3.45359 -2.32449 0
M  V30 3401 H 335.981 -3.91764 -0.690323 0
M  V30 3402 H 332.72 -6.50255 0.827529 0
M  V30 3403 H 332.24 -5.94549 -0.791926 0
M  V30 3404 H 333.919 -6.45209 -0.481042 0
M  V30 3405 N 334.051 0.0651679 -1.57465 0
M  V30 3406 C 335.014 1.06117 -2.03155 0
M  V30 3407 C 336.014 1.31204 -0.929632 0
M  V30 3408 O 337.204 1.26813 -1.19432 0
M  V30 3409 C 334.336 2.4032 -2.41783 0
M  V30 3410 H 335.529 0.667231 -2.92383 0
M  V30 3411 H 333.082 0.311075 -1.53173 0
M  V30 3412 H 333.817 2.84532 -1.55601 0
M  V30 3413 H 333.602 2.23451 -3.22199 0
M  V30 3414 H 335.092 3.11898 -2.77685 0
M  V30 3415 N 335.529 1.53961 0.336706 0
M  V30 3416 C 336.476 1.82428 1.41381 0
M  V30 3417 C 337.446 0.670444 1.51968 0
M  V30 3418 O 338.631 0.915565 1.67398 0
M  V30 3419 C 335.771 2.04564 2.77934 0
M  V30 3420 C 334.884 3.32267 2.76084 0
M  V30 3421 C 334.019 3.44434 4.04399 0
M  V30 3422 C 333.058 4.66061 3.96804 0
M  V30 3423 N 332.195 4.75224 5.16823 0
M  V30 3424 H 337.035 2.74324 1.16405 0
M  V30 3425 H 334.572 1.35869 0.563752 0
M  V30 3426 H 336.53 2.15388 3.57301 0
M  V30 3427 H 335.16 1.15974 3.01247 0
M  V30 3428 H 334.212 3.3025 1.88784 0
M  V30 3429 H 335.524 4.21733 2.66351 0
M  V30 3430 H 334.678 3.54728 4.92192 0
M  V30 3431 H 333.417 2.53037 4.16921 0
M  V30 3432 H 332.422 4.55838 3.07396 0
M  V30 3433 H 333.647 5.58829 3.85858 0
M  V30 3434 H 331.593 3.86739 5.29876 0
M  V30 3435 H 331.51 5.58636 5.09374 0
M  V30 3436 H 332.778 4.89835 6.06367 0
M  V30 3437 N 337.007 -0.598083 1.45811 0
M  V30 3438 C 337.97 -1.69018 1.54808 0
M  V30 3439 C 338.97 -1.55037 0.426652 0
M  V30 3440 O 340.16 -1.59932 0.690456 0
M  V30 3441 C 337.292 -3.0835 1.45371 0
M  V30 3442 H 338.485 -1.62403 2.52121 0
M  V30 3443 H 336.038 -0.814626 1.33392 0
M  V30 3444 H 336.773 -3.20534 0.492793 0
M  V30 3445 H 336.558 -3.19907 2.26721 0
M  V30 3446 H 338.048 -3.8788 1.54721 0
M  V30 3447 N 338.485 -1.33259 -0.841409 0
M  V30 3448 C 339.734 -1.23921 -1.59143 0
M  V30 3449 C 340.047 0.1941 -1.94635 0
M  V30 3450 O 341.253 0.409474 -2.68394 0
M  V30 3451 C 339.709 -2.17119 -2.87032 0
M  V30 3452 C 339.317 -3.65606 -2.58914 0
M  V30 3453 C 341.061 -2.16648 -3.65053 0
M  V30 3454 C 338.968 -4.50726 -3.82884 0
M  V30 3455 H 337.898 -0.460264 -0.597221 0
M  V30 3456 H 340.549 -1.58307 -0.927959 0
M  V30 3457 H 338.931 -1.75663 -3.54906 0
M  V30 3458 H 340.105 -4.15487 -1.99267 0
M  V30 3459 H 338.42 -3.68341 -1.942 0
M  V30 3460 H 341.017 -2.77474 -4.57069 0
M  V30 3461 H 341.36 -1.16088 -3.99787 0
M  V30 3462 H 341.893 -2.56453 -3.041 0
M  V30 3463 H 338.632 -5.52151 -3.53283 0
M  V30 3464 H 338.152 -4.0559 -4.41879 0
M  V30 3465 H 339.831 -4.64401 -4.50489 0
M  V30 3466 N 339.963 1.05934 -1.16686 0
M  V30 3467 C 340.873 2.17014 -0.891183 0
M  V30 3468 C 341.889 1.73453 0.137907 0
M  V30 3469 O 343.065 2.01361 -0.039592 0
M  V30 3470 C 340.13 3.44384 -0.400099 0
M  V30 3471 C 339.191 4.02433 -1.49486 0
M  V30 3472 C 338.424 5.23723 -1.02711 0
M  V30 3473 O 338.647 5.7027 0.121716 0
M  V30 3474 O 337.581 5.7382 -1.81699 0
M  V30 3475 H 341.407 2.43113 -1.82015 0
M  V30 3476 H 338.992 1.15541 -0.947132 0
M  V30 3477 H 340.874 4.21189 -0.133392 0
M  V30 3478 H 339.549 3.19802 0.500817 0
M  V30 3479 H 338.456 3.27102 -1.81535 0
M  V30 3480 H 339.789 4.31317 -2.37121 0
M  V30 3481 N 341.441 0.965919 1.2453 0
M  V30 3482 C 342.351 0.502154 2.29163 0
M  V30 3483 C 343.367 -0.436017 1.68448 0
M  V30 3484 O 344.543 -0.309497 1.99008 0
M  V30 3485 C 341.608 -0.201956 3.46111 0
M  V30 3486 C 340.669 0.775821 4.22232 0
M  V30 3487 C 339.902 0.105217 5.33596 0
M  V30 3488 O 340.125 -1.10683 5.59558 0
M  V30 3489 O 339.059 0.796475 5.96607 0
M  V30 3490 H 342.885 1.37194 2.70946 0
M  V30 3491 H 340.47 0.732875 1.30189 0
M  V30 3492 H 342.352 -0.597564 4.17142 0
M  V30 3493 H 341.027 -1.04673 3.06309 0
M  V30 3494 H 339.934 1.22185 3.53584 0
M  V30 3495 H 341.267 1.58896 4.65846 0
M  V30 3496 N 342.919 -1.39368 0.735821 0
M  V30 3497 C 343.882 -2.2896 0.104874 0
M  V30 3498 C 344.882 -1.46347 -0.666274 0
M  V30 3499 O 346.072 -1.67014 -0.49517 0
M  V30 3500 C 343.204 -3.29857 -0.860656 0
M  V30 3501 H 344.397 -2.86259 0.894205 0
M  V30 3502 H 341.95 -1.48029 0.501704 0
M  V30 3503 H 342.685 -2.77615 -1.67631 0
M  V30 3504 H 342.47 -3.9087 -0.310327 0
M  V30 3505 H 343.96 -3.96893 -1.29867 0
M  V30 3506 N 344.397 -0.483516 -1.5 0
M  V30 3507 C 345.344 0.304164 -2.28787 0
M  V30 3508 C 346.314 0.976114 -1.34392 0
M  V30 3509 O 347.499 0.986156 -1.63339 0
M  V30 3510 C 344.639 1.37298 -3.16612 0
M  V30 3511 C 343.752 0.714561 -4.26049 0
M  V30 3512 C 342.887 1.76232 -5.01114 0
M  V30 3513 C 341.926 1.08483 -6.0241 0
M  V30 3514 N 341.063 2.076 -6.70706 0
M  V30 3515 H 345.903 -0.373981 -2.95644 0
M  V30 3516 H 343.44 -0.196275 -1.45785 0
M  V30 3517 H 345.398 2.00445 -3.65893 0
M  V30 3518 H 344.028 2.02012 -2.51776 0
M  V30 3519 H 343.08 -0.0297798 -3.80388 0
M  V30 3520 H 344.392 0.180383 -4.98474 0
M  V30 3521 H 343.546 2.46929 -5.54176 0
M  V30 3522 H 342.285 2.33033 -4.28424 0
M  V30 3523 H 341.29 0.363545 -5.48597 0
M  V30 3524 H 342.515 0.523551 -6.77079 0
M  V30 3525 H 340.461 2.63394 -6.00799 0
M  V30 3526 H 340.378 1.59201 -7.39047 0
M  V30 3527 H 341.646 2.77639 -7.2838 0
M  V30 3528 N 345.875 1.56104 -0.216619 0
M  V30 3529 C 346.838 2.18819 0.681962 0
M  V30 3530 C 347.838 1.14866 1.12528 0
M  V30 3531 O 349.028 1.40128 1.03488 0
M  V30 3532 C 346.16 2.80756 1.93362 0
M  V30 3533 H 347.353 2.99595 0.135254 0
M  V30 3534 H 344.906 1.56265 0.0330003 0
M  V30 3535 H 345.641 2.03837 2.52232 0
M  V30 3536 H 345.426 3.56876 1.62426 0
M  V30 3537 H 346.916 3.28844 2.57393 0
M  V30 3538 N 347.353 -0.0568162 1.57498 0
M  V30 3539 C 348.63 -0.786954 1.79071 0
M  V30 3540 C 349.01 -1.95028 0.80792 0
M  V30 3541 O 348.358 -2.27968 -0.155858 0
M  V30 3542 C 348.568 -1.24594 3.26002 0
M  V30 3543 C 349.916 -1.67323 3.90241 0
M  V30 3544 O 350.94 -1.34124 3.29984 0
M  V30 3545 O 349.799 -2.28842 4.9628 0
M  V30 3546 H 346.893 -0.378262 0.735423 0
M  V30 3547 H 349.439 -0.035734 1.69662 0
M  V30 3548 H 348.211 -0.41423 3.89101 0
M  V30 3549 H 347.834 -2.05803 3.40192 0
M  V30 3550 N 348.832 -1.54138 -0.328536 0
M  V30 3551 C 349.742 -1.86192 -1.42723 0
M  V30 3552 C 350.758 -0.753382 -1.56844 0
M  V30 3553 O 351.934 -1.04718 -1.72035 0
M  V30 3554 C 348.999 -2.07824 -2.77507 0
M  V30 3555 C 348.06 -3.31641 -2.72603 0
M  V30 3556 C 347.293 -3.52232 -4.00959 0
M  V30 3557 O 347.516 -2.7636 -4.9898 0
M  V30 3558 O 346.45 -4.45699 -4.0452 0
M  V30 3559 H 350.276 -2.79608 -1.18547 0
M  V30 3560 H 347.861 -1.3998 -0.522104 0
M  V30 3561 H 349.743 -2.23411 -3.57303 0
M  V30 3562 H 348.418 -1.17596 -3.01584 0
M  V30 3563 H 347.325 -3.21444 -1.91376 0
M  V30 3564 H 348.658 -4.2191 -2.53481 0
M  V30 3565 N 350.31 0.590341 -1.46126 0
M  V30 3566 C 351.257 1.69994 -1.56111 0
M  V30 3567 C 352.227 1.61065 -0.405867 0
M  V30 3568 O 353.412 1.8039 -0.621613 0
M  V30 3569 C 350.552 3.08326 -1.55013 0
M  V30 3570 C 349.665 3.27936 -2.81215 0
M  V30 3571 C 348.8 4.56473 -2.71673 0
M  V30 3572 C 347.839 4.694 -3.92849 0
M  V30 3573 N 346.976 5.89254 -3.81738 0
M  V30 3574 H 351.816 1.60797 -2.50895 0
M  V30 3575 H 349.353 0.783799 -1.24479 0
M  V30 3576 H 351.311 3.88383 -1.52362 0
M  V30 3577 H 349.941 3.16439 -0.637667 0
M  V30 3578 H 348.993 2.41536 -2.93879 0
M  V30 3579 H 350.305 3.33357 -3.71045 0
M  V30 3580 H 349.459 5.44748 -2.67085 0
M  V30 3581 H 348.198 4.53477 -1.7947 0
M  V30 3582 H 347.203 3.79544 -3.97777 0
M  V30 3583 H 348.428 4.7418 -4.86138 0
M  V30 3584 H 346.374 5.87271 -2.92317 0
M  V30 3585 H 346.291 5.95911 -4.65217 0
M  V30 3586 H 347.559 6.79981 -3.81112 0
M  V30 3587 N 351.788 1.33704 0.83433 0
M  V30 3588 C 353.204 1.13137 1.12571 0
M  V30 3589 C 353.404 -0.0747261 2.01361 0
M  V30 3590 O 352.46 -0.753647 2.4099 0
M  V30 3591 C 353.773 2.42105 1.78342 0
M  V30 3592 C 355.321 2.48054 1.90888 0
M  V30 3593 C 355.796 3.76995 2.60075 0
M  V30 3594 N 357.287 3.78092 2.67584 0
M  V30 3595 C 358.022 4.74574 3.21818 0
M  V30 3596 N 357.518 5.81434 3.76705 0
M  V30 3597 N 359.311 4.62044 3.20112 0
M  V30 3598 H 351.462 2.11 0.243489 0
M  V30 3599 H 353.725 0.932532 0.17055 0
M  V30 3600 H 353.431 3.30391 1.20561 0
M  V30 3601 H 353.305 2.54594 2.7832 0
M  V30 3602 H 355.692 1.60215 2.47821 0
M  V30 3603 H 355.773 2.39502 0.898459 0
M  V30 3604 H 355.417 4.65219 2.03799 0
M  V30 3605 H 355.347 3.82825 3.61597 0
M  V30 3606 H 357.838 3.00865 2.28667 0
M  V30 3607 H 358.151 6.51084 4.16305 0
M  V30 3608 H 356.496 5.85163 3.7498 0
M  V30 3609 H 359.687 3.77716 2.76493 0
M  V30 3610 H 359.86 5.37406 3.62076 0
M  V30 3611 N 353.266 -1.05314 1.17247 0
M  V30 3612 C 354.677 -1.59753 0.96623 0
M  V30 3613 C 355.028 -1.9005 -0.487378 0
M  V30 3614 O 354.153 -1.68126 -1.36245 0
M  V30 3615 C 354.748 -2.90249 1.74759 0
M  V30 3616 C 353.307 -3.41352 1.58606 0
M  V30 3617 C 352.454 -2.15103 1.75002 0
M  V30 3618 H 355.405 -0.881406 1.31973 0
M  V30 3619 H 355.426 -3.60097 1.22925 0
M  V30 3620 H 354.938 -2.68166 2.8055 0
M  V30 3621 H 353.039 -3.68474 0.552985 0
M  V30 3622 H 353.152 -4.16019 2.37624 0
M  V30 3623 H 351.516 -2.25804 1.17833 0
M  V30 3624 H 352.299 -1.95491 2.82202 0
M  V30 3625 N 354.744 -0.972509 -1.24016 0
M  V30 3626 C 355.972 -0.654803 -1.96265 0
M  V30 3627 C 356.387 0.776708 -1.72083 0
M  V30 3628 O 355.744 1.52171 -1.00748 0
M  V30 3629 C 355.795 -0.92592 -3.49441 0
M  V30 3630 O 355.516 -2.30116 -3.72798 0
M  V30 3631 C 357.017 -0.623068 -4.38899 0
M  V30 3632 H 354.237 -0.243907 -0.6251 0
M  V30 3633 H 356.781 -1.30175 -1.57717 0
M  V30 3634 H 354.936 -0.325108 -3.86033 0
M  V30 3635 H 355.35 -2.38483 -4.67147 0
M  V30 3636 H 356.824 -0.863189 -5.45209 0
M  V30 3637 H 357.301 0.442754 -4.36963 0
M  V30 3638 H 357.907 -1.204 -4.07902 0
M  V30 3639 N 356.222 1.38976 -0.743202 0
M  V30 3640 C 357.152 2.33171 -0.123873 0
M  V30 3641 C 358.133 1.54336 0.71516 0
M  V30 3642 O 359.318 1.82696 0.658467 0
M  V30 3643 C 356.448 3.38474 0.777978 0
M  V30 3644 C 355.402 4.27979 0.0424758 0
M  V30 3645 C 354.728 5.2405 1.06189 0
M  V30 3646 C 356.028 5.10155 -1.1198 0
M  V30 3647 H 357.722 2.85213 -0.910709 0
M  V30 3648 H 355.268 1.37133 -0.439388 0
M  V30 3649 H 357.221 4.03328 1.22084 0
M  V30 3650 H 355.945 2.84891 1.59702 0
M  V30 3651 H 354.604 3.64616 -0.380853 0
M  V30 3652 H 354.252 4.66758 1.87472 0
M  V30 3653 H 353.952 5.84785 0.574485 0
M  V30 3654 H 355.476 5.9178 1.50428 0
M  V30 3655 H 356.89 5.68307 -0.75499 0
M  V30 3656 H 355.287 5.80073 -1.53738 0
M  V30 3657 H 356.357 4.44504 -1.93764 0
M  V30 3658 N 357.7 0.491464 1.49741 0
M  V30 3659 C 358.949 -0.0582189 2.01616 0
M  V30 3660 C 359.262 -1.38927 1.3769 0
M  V30 3661 O 360.468 -2.02509 1.80838 0
M  V30 3662 C 358.924 -0.154235 3.59569 0
M  V30 3663 C 358.532 1.1696 4.32463 0
M  V30 3664 C 360.276 -0.65479 4.1942 0
M  V30 3665 C 358.183 1.03627 5.8225 0
M  V30 3666 H 357.113 -0.0255317 0.753568 0
M  V30 3667 H 359.764 0.629445 1.72367 0
M  V30 3668 H 358.146 -0.906138 3.85493 0
M  V30 3669 H 359.32 1.93405 4.18248 0
M  V30 3670 H 357.635 1.60285 3.84315 0
M  V30 3671 H 360.232 -0.771903 5.29099 0
M  V30 3672 H 360.575 -1.65127 3.8215 0
M  V30 3673 H 361.108 0.040304 3.9778 0
M  V30 3674 H 357.847 2.00672 6.24028 0
M  V30 3675 H 357.367 0.312546 5.98985 0
M  V30 3676 H 359.046 0.711114 6.4308 0
M  V30 3677 N 359.178 -1.55987 0.224894 0
M  V30 3678 C 360.088 -2.24066 -0.69511 0
M  V30 3679 C 361.104 -1.24939 -1.21104 0
M  V30 3680 O 362.28 -1.5776 -1.25195 0
M  V30 3681 C 359.345 -2.90983 -1.88493 0
M  V30 3682 C 358.406 -4.05462 -1.41064 0
M  V30 3683 C 357.639 -4.69179 -2.54375 0
M  V30 3684 O 357.862 -4.31895 -3.72589 0
M  V30 3685 O 356.796 -5.58108 -2.25386 0
M  V30 3686 H 360.622 -3.03353 -0.145149 0
M  V30 3687 H 358.207 -1.49399 -0.00569476 0
M  V30 3688 H 360.089 -3.33209 -2.57972 0
M  V30 3689 H 358.764 -2.14653 -2.42293 0
M  V30 3690 H 357.671 -3.67798 -0.683774 0
M  V30 3691 H 359.004 -4.83545 -0.918985 0
M  V30 3692 N 360.656 0.0484629 -1.57525 0
M  V30 3693 C 361.902 0.744226 -1.88651 0
M  V30 3694 C 362.235 1.76029 -0.820212 0
M  V30 3695 O 361.51 1.93782 0.166985 0
M  V30 3696 C 361.793 1.43128 -3.30434 0
M  V30 3697 C 361.646 0.43005 -4.47739 0
M  V30 3698 C 362.965 2.37031 -3.70816 0
M  V30 3699 H 360.084 0.269089 -0.68612 0
M  V30 3700 H 362.726 0.00713532 -1.89999 0
M  V30 3701 H 360.876 2.05956 -3.29415 0
M  V30 3702 H 362.548 -0.194816 -4.60888 0
M  V30 3703 H 360.791 -0.252522 -4.33064 0
M  V30 3704 H 361.462 0.948874 -5.43783 0
M  V30 3705 H 363.938 1.84263 -3.73077 0
M  V30 3706 H 362.814 2.82094 -4.70865 0
M  V30 3707 H 363.075 3.22864 -3.02012 0
M  V30 3708 N 362.134 1.5431 0.320358 0
M  V30 3709 C 363.55 1.45091 0.664889 0
M  V30 3710 C 363.75 0.626382 1.91517 0
M  V30 3711 O 362.806 0.126443 2.52183 0
M  V30 3712 C 364.119 2.88848 0.83591 0
M  V30 3713 C 365.667 2.9877 0.933046 0
M  V30 3714 C 366.142 4.43683 1.13621 0
M  V30 3715 N 367.633 4.47309 1.20287 0
M  V30 3716 C 368.368 5.56595 1.37801 0
M  V30 3717 N 367.864 6.75844 1.52338 0
M  V30 3718 N 369.657 5.44248 1.40535 0
M  V30 3719 H 361.808 2.06398 -0.501374 0
M  V30 3720 H 364.071 0.933963 -0.162534 0
M  V30 3721 H 363.777 3.51698 -0.0116092 0
M  V30 3722 H 363.651 3.35148 1.73078 0
M  V30 3723 H 366.038 2.36045 1.77107 0
M  V30 3724 H 366.119 2.55796 0.0145782 0
M  V30 3725 H 365.763 5.06995 0.303032 0
M  V30 3726 H 365.693 4.84269 2.0686 0
M  V30 3727 H 368.184 3.61388 1.10485 0
M  V30 3728 H 368.497 7.54892 1.65403 0
M  V30 3729 H 366.842 6.78746 1.4943 0
M  V30 3730 H 370.033 4.50038 1.28777 0
M  V30 3731 H 370.206 6.29473 1.53842 0
M  V30 3732 N 363.613 -0.582584 1.46437 0
M  V30 3733 C 364.841 -1.36682 1.55324 0
M  V30 3734 C 365.256 -1.87796 0.194409 0
M  V30 3735 O 364.613 -1.63623 -0.808318 0
M  V30 3736 C 364.664 -2.55426 2.55812 0
M  V30 3737 O 364.385 -2.0643 3.86417 0
M  V30 3738 C 365.886 -3.47976 2.74641 0
M  V30 3739 H 363.106 -0.417545 0.525259 0
M  V30 3740 H 365.65 -0.708219 1.91845 0
M  V30 3741 H 363.805 -3.17275 2.22295 0
M  V30 3742 H 364.219 -2.83762 4.41111 0
M  V30 3743 H 365.693 -4.27775 3.48874 0
M  V30 3744 H 366.17 -3.99919 1.81553 0
M  V30 3745 H 366.776 -2.91962 3.09255 0
M  V30 3746 N 365.091 -1.34144 -0.827227 0
M  V30 3747 C 366.319 -1.29325 -1.61501 0
M  V30 3748 C 366.734 0.13354 -1.88327 0
M  V30 3749 O 366.091 1.0793 -1.47164 0
M  V30 3750 C 366.142 -2.07746 -2.95844 0
M  V30 3751 O 365.863 -3.4486 -2.70191 0
M  V30 3752 C 367.364 -2.10273 -3.90256 0
M  V30 3753 H 364.584 -0.445069 -0.50215 0
M  V30 3754 H 367.128 -1.76693 -1.02955 0
M  V30 3755 H 365.283 -1.6403 -3.5096 0
M  V30 3756 H 365.697 -3.85345 -3.55822 0
M  V30 3757 H 367.171 -2.69575 -4.81698 0
M  V30 3758 H 367.648 -1.096 -4.25305 0
M  V30 3759 H 368.254 -2.54059 -3.41078 0
M  V30 3760 N 366.569 1.04691 -1.17803 0
M  V30 3761 C 367.818 1.77176 -0.963931 0
M  V30 3762 C 368.131 1.88888 0.508015 0
M  V30 3763 O 369.337 2.58164 0.840465 0
M  V30 3764 C 367.793 3.18518 -1.67555 0
M  V30 3765 C 367.401 3.14919 -3.18637 0
M  V30 3766 C 369.145 3.95424 -1.54402 0
M  V30 3767 C 367.052 4.51081 -3.82466 0
M  V30 3768 H 365.982 0.664116 -0.357023 0
M  V30 3769 H 368.633 1.17303 -1.4111 0
M  V30 3770 H 367.015 3.78748 -1.15613 0
M  V30 3771 H 368.189 2.64178 -3.77554 0
M  V30 3772 H 366.504 2.51512 -3.31859 0
M  V30 3773 H 369.101 4.96106 -1.99456 0
M  V30 3774 H 369.444 4.13343 -0.495329 0
M  V30 3775 H 369.977 3.41754 -2.0359 0
M  V30 3776 H 366.716 4.38368 -4.87354 0
M  V30 3777 H 366.236 5.01951 -3.28337 0
M  V30 3778 H 367.915 5.2001 -3.84965 0
M  V30 3779 N 368.047 0.979072 1.23499 0
M  V30 3780 C 369.295 0.645941 1.91499 0
M  V30 3781 C 369.616 -0.822948 1.76784 0
M  V30 3782 O 368.886 -1.58854 1.14639 0
M  V30 3783 H 367.466 0.235919 0.708767 0
M  V30 3784 H 370.128 1.2426 1.50152 0
M  V30 3785 H 369.224 0.896411 2.9895 0
M  V30 3786 N 369.525 -1.3858 0.750561 0
M  V30 3787 C 370.772 -2.00184 0.305373 0
M  V30 3788 C 371.1 -1.59575 -1.11203 0
M  V30 3789 O 370.355 -0.823236 -1.77542 0
M  V30 3790 C 370.654 -3.55455 0.372373 0
M  V30 3791 C 370.32 -4.15765 1.745 0
M  V30 3792 C 368.982 -4.31951 2.12065 0
M  V30 3793 C 371.334 -4.49067 2.64553 0
M  V30 3794 C 368.662 -4.78734 3.39162 0
M  V30 3795 C 371.014 -4.97265 3.91038 0
M  V30 3796 C 369.678 -5.11658 4.28676 0
M  V30 3797 H 368.948 -0.732526 0.111744 0
M  V30 3798 H 371.595 -1.65673 0.960451 0
M  V30 3799 H 369.9 -3.90084 -0.366272 0
M  V30 3800 H 371.597 -4.00999 0.00953918 0
M  V30 3801 H 368.187 -4.03579 1.44297 0
M  V30 3802 H 372.371 -4.36166 2.36796 0
M  V30 3803 H 367.627 -4.88062 3.68246 0
M  V30 3804 H 371.801 -5.22003 4.60962 0
M  V30 3805 H 369.428 -5.47668 5.27222 0
M  V30 3806 N 371.003 -0.499398 -1.49478 0
M  V30 3807 C 372.251 0.0455996 -2.02049 0
M  V30 3808 C 372.572 1.37633 -1.38138 0
M  V30 3809 O 371.842 1.8842 -0.536166 0
M  V30 3810 H 370.422 0.0198416 -0.746736 0
M  V30 3811 H 373.084 -0.656274 -1.83519 0
M  V30 3812 H 372.18 0.176445 -3.11601 0
M  V30 3813 N 372.481 1.55866 -0.233164 0
M  V30 3814 C 373.706 2.03449 0.402906 0
M  V30 3815 C 374.131 1.11166 1.51736 0
M  V30 3816 O 373.489 0.101996 1.81013 0
M  V30 3817 C 373.537 3.49165 0.9009 0
M  V30 3818 O 372.641 3.60019 2.01147 0
M  V30 3819 H 371.982 0.657913 0.0897025 0
M  V30 3820 H 374.512 2.01493 -0.355201 0
M  V30 3821 H 374.522 3.89716 1.2077 0
M  V30 3822 H 373.197 4.15813 0.0852889 0
M  V30 3823 H 371.774 3.3136 1.71042 0
M  V30 3824 N 373.959 -0.0401083 1.57549 0
M  V30 3825 C 375.37 -0.588097 1.77196 0
M  V30 3826 C 375.721 -1.76209 0.862832 0
M  V30 3827 O 374.846 -2.16331 0.0548389 0
M  V30 3828 C 375.441 -1.07363 3.21339 0
M  V30 3829 C 374 -1.56723 3.42221 0
M  V30 3830 C 373.147 -0.50041 2.72747 0
M  V30 3831 H 376.098 0.186119 1.57605 0
M  V30 3832 H 376.119 -1.94143 3.27244 0
M  V30 3833 H 375.631 -0.218975 3.87482 0
M  V30 3834 H 373.732 -2.4441 2.81237 0
M  V30 3835 H 373.845 -1.62234 4.50796 0
M  V30 3836 H 372.209 -0.952894 2.36203 0
M  V30 3837 H 372.992 0.344599 3.41566 0
M  V30 3838 N 375.437 -1.54477 -0.31217 0
M  V30 3839 C 376.385 -1.85395 -1.40469 0
M  V30 3840 C 377.379 -0.726749 -1.53019 0
M  V30 3841 O 378.585 -0.910582 -1.55269 0
M  V30 3842 H 374.96 -0.587845 -0.46898 0
M  V30 3843 H 376.931 -2.76736 -1.11623 0
M  V30 3844 C 375.68 -2.10811 -2.76503 0
M  V30 3845 H 375.003 -2.97014 -2.67625 0
M  V30 3846 H 376.443 -2.3639 -3.51988 0
M  V30 3847 C 374.902 -0.903165 -3.24568 0
M  V30 3848 O 375.432 -0.118085 -4.01526 0
M  V30 3849 N 373.638 -0.711634 -2.81752 0
M  V30 3850 H 373.185 -1.35171 -2.19286 0
M  V30 3851 H 373.143 0.0930473 -3.14262 0
M  V30 3852 N 376.915 0.57481 -1.46744 0
M  V30 3853 C 377.862 1.68329 -1.57905 0
M  V30 3854 C 378.832 1.60625 -0.422927 0
M  V30 3855 O 380.017 1.79721 -0.640711 0
M  V30 3856 C 377.157 3.06665 -1.58274 0
M  V30 3857 C 376.27 3.24935 -2.84678 0
M  V30 3858 C 375.405 4.53566 -2.76499 0
M  V30 3859 C 374.444 4.65207 -3.97806 0
M  V30 3860 N 373.581 5.85172 -3.87967 0
M  V30 3861 H 378.421 1.58127 -2.52587 0
M  V30 3862 H 375.958 0.770552 -1.25303 0
M  V30 3863 H 377.916 3.86745 -1.56473 0
M  V30 3864 H 376.546 3.15745 -0.671194 0
M  V30 3865 H 375.598 2.38405 -2.96424 0
M  V30 3866 H 376.91 3.29403 -3.7456 0
M  V30 3867 H 376.064 5.41885 -2.72848 0
M  V30 3868 H 374.803 4.51548 -1.8427 0
M  V30 3869 H 373.808 3.75304 -4.0178 0
M  V30 3870 H 375.033 4.68997 -4.9114 0
M  V30 3871 H 372.979 5.84137 -2.98529 0
M  V30 3872 H 372.896 5.90943 -4.71511 0
M  V30 3873 H 374.164 6.759 -3.88303 0
M  V30 3874 N 378.394 1.34581 0.820102 0
M  V30 3875 C 379.619 1.30333 1.61332 0
M  V30 3876 C 380.044 -0.119339 1.87721 0
M  V30 3877 O 379.402 -1.08197 1.45475 0
M  V30 3878 C 379.45 2.10258 2.92957 0
M  V30 3879 O 378.554 1.47404 3.85157 0
M  V30 3880 H 377.895 0.447488 0.490561 0
M  V30 3881 H 380.425 1.77425 1.01889 0
M  V30 3882 H 380.435 2.21718 3.42498 0
M  V30 3883 H 379.11 3.13693 2.73074 0
M  V30 3884 H 377.687 1.44703 3.43679 0
M  V30 3885 N 379.872 -1.04064 1.18357 0
M  V30 3886 C 381.12 -1.76915 0.977013 0
M  V30 3887 C 381.441 -1.88624 -0.494577 0
M  V30 3888 O 380.711 -1.41125 -1.3587 0
M  V30 3889 H 379.291 -0.65535 0.358504 0
M  V30 3890 H 381.953 -1.25592 1.49039 0
M  V30 3891 H 381.049 -2.78178 1.41504 0
M  V30 3892 N 381.35 -0.985608 -1.22978 0
M  V30 3893 C 382.297 -0.529825 -2.24636 0
M  V30 3894 C 383.267 0.434028 -1.60329 0
M  V30 3895 O 384.452 0.340414 -1.87739 0
M  V30 3896 C 381.592 0.156533 -3.44745 0
M  V30 3897 C 380.705 -0.848197 -4.23591 0
M  V30 3898 C 379.84 -0.136109 -5.31026 0
M  V30 3899 C 378.879 -1.1297 -6.01585 0
M  V30 3900 N 378.016 -0.446415 -7.00679 0
M  V30 3901 H 382.856 -1.40148 -2.62988 0
M  V30 3902 H 380.393 -0.702168 -1.29259 0
M  V30 3903 H 382.351 0.571324 -4.1327 0
M  V30 3904 H 380.981 0.992025 -3.07179 0
M  V30 3905 H 380.033 -1.38135 -3.54433 0
M  V30 3906 H 381.345 -1.60512 -4.72268 0
M  V30 3907 H 380.499 0.335784 -6.0577 0
M  V30 3908 H 379.238 0.653373 -4.83304 0
M  V30 3909 H 378.243 -1.6123 -5.25628 0
M  V30 3910 H 379.468 -1.91993 -6.51395 0
M  V30 3911 H 377.414 0.323763 -6.55201 0
M  V30 3912 H 377.331 -1.1419 -7.47326 0
M  V30 3913 H 378.599 0.00291697 -7.795 0
M  V30 3914 N 382.828 1.3818 -0.7579 0
M  V30 3915 C 384.053 2.04827 -0.325679 0
M  V30 3916 C 384.478 1.56788 1.03919 0
M  V30 3917 O 383.836 0.721811 1.66312 0
M  V30 3918 C 383.884 3.58774 -0.362447 0
M  V30 3919 O 382.988 4.07372 0.642033 0
M  V30 3920 H 382.329 0.64833 -0.143402 0
M  V30 3921 H 384.859 1.7677 -1.03023 0
M  V30 3922 H 384.869 4.07434 -0.214844 0
M  V30 3923 H 383.544 3.93096 -1.35824 0
M  V30 3924 H 382.121 3.70068 0.458688 0
M  V30 3925 N 384.306 0.507319 1.49211 0
M  V30 3926 C 385.269 -0.256763 2.27757 0
M  V30 3927 C 386.269 -0.888287 1.34038 0
M  V30 3928 O 387.459 -0.751841 1.5714 0
M  V30 3929 C 384.591 -1.36905 3.12202 0
M  V30 3930 H 385.784 0.432557 2.96764 0
M  V30 3931 H 383.337 0.262488 1.5408 0
M  V30 3932 H 384.072 -2.09233 2.47775 0
M  V30 3933 H 383.857 -0.921599 3.81115 0
M  V30 3934 H 385.347 -1.9071 3.7151 0
M  V30 3935 N 385.784 -1.5574 0.241426 0
M  V30 3936 C 387.009 -2.0366 -0.392111 0
M  V30 3937 C 387.434 -1.11969 -1.51144 0
M  V30 3938 O 386.792 -0.111594 -1.80956 0
M  V30 3939 C 386.84 -3.49638 -0.882371 0
M  V30 3940 O 385.944 -3.6108 -1.99235 0
M  V30 3941 H 385.285 -0.658379 -0.0862122 0
M  V30 3942 H 387.815 -2.01302 0.365881 0
M  V30 3943 H 387.825 -3.90351 -1.18702 0
M  V30 3944 H 386.5 -4.15852 -0.0632361 0
M  V30 3945 H 385.077 -3.32262 -1.69282 0
M  V30 3946 N 387.262 0.0317525 -1.57568 0
M  V30 3947 C 388.212 1.04101 -2.02847 0
M  V30 3948 C 389.196 1.3219 -0.917317 0
M  V30 3949 O 390.388 1.31819 -1.18121 0
M  V30 3950 C 387.517 2.34295 -2.5092 0
M  V30 3951 C 386.603 2.09308 -3.68851 0
M  V30 3952 N 386.994 1.5437 -4.81667 0
M  V30 3953 C 385.292 2.39604 -3.76172 0
M  V30 3954 C 385.993 1.45126 -5.63306 0
M  V30 3955 N 384.969 1.92589 -5.08341 0
M  V30 3956 H 388.771 0.610217 -2.87495 0
M  V30 3957 H 386.285 0.238108 -1.60645 0
M  V30 3958 H 388.282 3.07404 -2.81617 0
M  V30 3959 H 386.942 2.78055 -1.67677 0
M  V30 3960 H 387.953 1.22678 -5.03161 0
M  V30 3961 H 384.63 2.86457 -3.03724 0
M  V30 3962 H 386.02 1.03163 -6.63933 0
M  V30 3963 N 388.74 1.54641 0.303973 0
M  V30 3964 C 389.988 1.73437 1.0375 0
M  V30 3965 C 390.309 0.521449 1.87899 0
M  V30 3966 O 389.579 -0.46432 1.90318 0
M  V30 3967 H 388.159 0.639518 0.386039 0
M  V30 3968 H 390.821 1.91988 0.335675 0
M  V30 3969 H 389.917 2.62235 1.69231 0
M  V30 3970 N 390.218 -0.567019 1.47046 0
M  V30 3971 C 391.443 -1.3551 1.57009 0
M  V30 3972 C 391.868 -1.86841 0.217259 0
M  V30 3973 O 391.226 -1.62435 -0.805268 0
M  V30 3974 C 391.274 -2.50777 2.5912 0
M  V30 3975 O 390.378 -3.52706 2.13711 0
M  V30 3976 H 389.719 -0.402919 0.52778 0
M  V30 3977 H 392.249 -0.686241 1.92748 0
M  V30 3978 H 392.259 -2.97481 2.79229 0
M  V30 3979 H 390.934 -2.12771 3.57353 0
M  V30 3980 H 389.511 -3.12374 2.03659 0
M  V30 3981 N 391.696 -1.35014 -0.812953 0
M  V30 3982 C 393.107 -1.25035 -1.38648 0
M  V30 3983 C 393.458 0.119967 -1.95833 0
M  V30 3984 O 392.583 1.02069 -1.90816 0
M  V30 3985 C 393.178 -2.26394 -2.52054 0
M  V30 3986 C 391.737 -2.20175 -3.05287 0
M  V30 3987 C 390.884 -2.12451 -1.78213 0
M  V30 3988 H 393.835 -1.46235 -0.616516 0
M  V30 3989 H 393.856 -1.88672 -3.30429 0
M  V30 3990 H 393.368 -3.26116 -2.10404 0
M  V30 3991 H 391.469 -1.23841 -3.51417 0
M  V30 3992 H 391.582 -3.11863 -3.63701 0
M  V30 3993 H 389.946 -1.58328 -1.9951 0
M  V30 3994 H 390.729 -3.14024 -1.38723 0
M  V30 3995 N 393.175 1.03435 -1.18907 0
M  V30 3996 C 394.105 2.13503 -0.945448 0
M  V30 3997 C 395.086 1.69682 0.119189 0
M  V30 3998 O 396.271 1.94169 -0.034707 0
M  V30 3999 C 393.401 3.44004 -0.477316 0
M  V30 4000 C 392.355 4.0148 -1.48316 0
M  V30 4001 C 391.681 5.27537 -0.872311 0
M  V30 4002 C 392.981 4.36921 -2.86177 0
M  V30 4003 H 394.675 2.34141 -1.86597 0
M  V30 4004 H 392.221 1.12523 -0.898584 0
M  V30 4005 H 394.174 4.20372 -0.294204 0
M  V30 4006 H 392.898 3.23072 0.478786 0
M  V30 4007 H 391.557 3.27201 -1.65332 0
M  V30 4008 H 391.205 5.02917 0.0911752 0
M  V30 4009 H 390.905 5.66954 -1.54393 0
M  V30 4010 H 392.429 6.06576 -0.699871 0
M  V30 4011 H 393.843 5.04248 -2.72776 0
M  V30 4012 H 392.24 4.87405 -3.50081 0
M  V30 4013 H 393.31 3.46466 -3.39248 0
M  V30 4014 N 394.653 0.992116 1.22453 0
M  V30 4015 C 395.901 0.666215 1.90804 0
M  V30 4016 C 396.222 -0.804152 1.77647 0
M  V30 4017 O 395.492 -1.57629 1.16318 0
M  V30 4018 H 394.072 0.243423 0.706225 0
M  V30 4019 H 396.734 1.25845 1.48825 0
M  V30 4020 H 395.83 0.928069 2.97982 0
M  V30 4021 N 396.131 -1.37776 0.765217 0
M  V30 4022 C 397.377 -2.00145 0.327072 0
M  V30 4023 C 397.71 -1.60607 -1.09175 0
M  V30 4024 O 396.985 -0.849127 -1.74986 0
M  V30 4025 C 397.268 -3.57109 0.46319 0
M  V30 4026 C 397.121 -4.06576 1.92395 0
M  V30 4027 C 398.44 -4.39888 -0.136473 0
M  V30 4028 H 395.559 -0.727113 0.120316 0
M  V30 4029 H 398.201 -1.63549 0.967039 0
M  V30 4030 H 396.351 -3.88414 -0.0816358 0
M  V30 4031 H 398.023 -3.85864 2.52798 0
M  V30 4032 H 396.266 -3.59011 2.43503 0
M  V30 4033 H 396.937 -5.15639 1.97028 0
M  V30 4034 H 399.413 -4.14803 0.328317 0
M  V30 4035 H 398.289 -5.48899 -0.0110582 0
M  V30 4036 H 398.55 -4.24758 -1.22608 0
M  V30 4037 N 397.609 -0.515225 -1.4894 0
M  V30 4038 C 398.519 0.259774 -2.33157 0
M  V30 4039 C 399.535 0.953501 -1.45548 0
M  V30 4040 O 400.711 0.931735 -1.78552 0
M  V30 4041 C 397.776 1.30193 -3.21326 0
M  V30 4042 C 396.837 0.620129 -4.24797 0
M  V30 4043 C 396.07 1.61263 -5.08753 0
M  V30 4044 O 396.293 2.84389 -4.94448 0
M  V30 4045 O 395.227 1.16013 -5.90614 0
M  V30 4046 H 399.053 -0.429932 -3.00641 0
M  V30 4047 H 396.638 -0.276346 -1.46822 0
M  V30 4048 H 398.52 1.90455 -3.75905 0
M  V30 4049 H 397.195 1.97431 -2.56521 0
M  V30 4050 H 396.102 -0.0226019 -3.74093 0
M  V30 4051 H 397.435 -0.0100493 -4.92199 0
M  V30 4052 N 399.087 1.5561 -0.249682 0
M  V30 4053 C 399.997 2.25143 0.659375 0
M  V30 4054 C 401.013 1.2685 1.19101 0
M  V30 4055 O 402.189 1.59732 1.22669 0
M  V30 4056 C 399.254 2.93945 1.8384 0
M  V30 4057 C 398.315 4.07655 1.34596 0
M  V30 4058 C 397.548 4.73167 2.46878 0
M  V30 4059 O 397.771 4.37768 3.65671 0
M  V30 4060 O 396.705 5.61623 2.16478 0
M  V30 4061 H 400.531 3.03545 0.0968698 0
M  V30 4062 H 398.116 1.49389 -0.018074 0
M  V30 4063 H 399.998 3.37271 2.52638 0
M  V30 4064 H 398.673 2.18481 2.38847 0
M  V30 4065 H 397.58 3.68839 0.625174 0
M  V30 4066 H 398.913 4.84946 0.841941 0
M  V30 4067 N 400.565 -0.0233959 1.57583 0
M  V30 4068 C 401.793 -0.724682 1.93794 0
M  V30 4069 C 402.208 -1.68588 0.849912 0
M  V30 4070 O 401.565 -1.81676 -0.173204 0
M  V30 4071 C 401.616 -1.47684 3.29957 0
M  V30 4072 O 401.337 -0.554222 4.3458 0
M  V30 4073 C 402.838 -2.27477 3.80485 0
M  V30 4074 H 400.058 -0.203317 0.639455 0
M  V30 4075 H 402.602 0.0207653 2.04489 0
M  V30 4076 H 400.757 -2.17412 3.20641 0
M  V30 4077 H 401.171 -1.08232 5.13212 0
M  V30 4078 H 402.645 -2.7564 4.78254 0
M  V30 4079 H 403.122 -3.09144 3.11972 0
M  V30 4080 H 403.728 -1.62813 3.92902 0
M  V30 4081 N 402.043 -1.548 -0.295768 0
M  V30 4082 C 402.99 -1.86113 -1.36494 0
M  V30 4083 C 403.96 -0.7105 -1.50137 0
M  V30 4084 O 405.145 -0.959626 -1.64912 0
M  V30 4085 C 402.285 -2.11861 -2.72413 0
M  V30 4086 C 401.398 -3.39471 -2.67177 0
M  V30 4087 C 400.533 -3.55035 -3.95125 0
M  V30 4088 C 399.572 -4.76418 -3.84308 0
M  V30 4089 N 398.709 -4.8876 -5.04042 0
M  V30 4090 H 403.549 -2.77314 -1.09091 0
M  V30 4091 H 401.086 -1.37315 -0.52753 0
M  V30 4092 H 403.044 -2.24786 -3.51464 0
M  V30 4093 H 401.674 -1.2392 -2.98066 0
M  V30 4094 H 400.726 -3.35139 -1.79962 0
M  V30 4095 H 402.038 -4.28646 -2.55076 0
M  V30 4096 H 401.192 -3.67653 -4.82614 0
M  V30 4097 H 399.931 -2.64002 -4.10066 0
M  V30 4098 H 398.936 -4.63827 -2.95202 0
M  V30 4099 H 400.161 -5.68863 -3.70906 0
M  V30 4100 H 398.107 -4.00652 -5.19436 0
M  V30 4101 H 398.024 -5.71945 -4.94384 0
M  V30 4102 H 399.292 -5.0574 -5.93167 0
M  V30 4103 N 403.521 0.559213 -1.47345 0
M  V30 4104 C 404.451 1.67622 -1.62558 0
M  V30 4105 C 405.432 1.63331 -0.475087 0
M  V30 4106 O 406.617 1.80983 -0.704182 0
M  V30 4107 C 403.747 3.0626 -1.63774 0
M  V30 4108 C 402.701 3.25397 -2.7803 0
M  V30 4109 C 402.027 4.64801 -2.64318 0
M  V30 4110 C 403.327 3.10965 -4.19641 0
M  V30 4111 H 405.021 1.55146 -2.56067 0
M  V30 4112 H 402.567 0.744961 -1.23233 0
M  V30 4113 H 404.52 3.84247 -1.73008 0
M  V30 4114 H 403.244 3.1969 -0.66825 0
M  V30 4115 H 401.903 2.49817 -2.68304 0
M  V30 4116 H 401.551 4.75028 -1.65401 0
M  V30 4117 H 401.251 4.78555 -3.40968 0
M  V30 4118 H 402.775 5.44926 -2.75478 0
M  V30 4119 H 404.189 3.78772 -4.30354 0
M  V30 4120 H 402.586 3.36229 -4.97062 0
M  V30 4121 H 403.656 2.07736 -4.38148 0
M  V30 4122 N 404.999 1.35443 0.805782 0
M  V30 4123 C 406.227 1.31878 1.59423 0
M  V30 4124 C 406.642 -0.103562 1.88516 0
M  V30 4125 O 405.999 -1.05575 1.48863 0
M  V30 4126 C 406.05 2.12426 2.92502 0
M  V30 4127 O 405.771 3.49115 2.6467 0
M  V30 4128 C 407.272 2.16455 3.86862 0
M  V30 4129 H 404.492 0.453002 0.495005 0
M  V30 4130 H 407.036 1.78309 1.00131 0
M  V30 4131 H 405.191 1.69593 3.48306 0
M  V30 4132 H 405.605 3.90957 3.49647 0
M  V30 4133 H 407.079 2.77204 4.77349 0
M  V30 4134 H 407.556 1.16352 4.23508 0
M  V30 4135 H 408.162 2.59453 3.36993 0
M  V30 4136 N 406.477 -1.02803 1.19454 0
M  V30 4137 C 407.424 -2.11099 0.933046 0
M  V30 4138 C 408.394 -1.65571 -0.132447 0
M  V30 4139 O 409.579 -1.90797 0.00987576 0
M  V30 4140 C 406.719 -3.41763 0.478747 0
M  V30 4141 C 405.832 -4.00833 1.6111 0
M  V30 4142 C 404.967 -5.19511 1.10825 0
M  V30 4143 C 404.006 -5.70639 2.21445 0
M  V30 4144 N 403.143 -6.80589 1.72461 0
M  V30 4145 H 407.983 -2.32804 1.86028 0
M  V30 4146 H 405.52 -1.14179 0.927441 0
M  V30 4147 H 407.478 -4.16736 0.196745 0
M  V30 4148 H 406.108 -3.20166 -0.411493 0
M  V30 4149 H 405.16 -3.23066 2.00829 0
M  V30 4150 H 406.472 -4.34794 2.4445 0
M  V30 4151 H 405.626 -6.01645 0.781533 0
M  V30 4152 H 404.365 -4.87086 0.244606 0
M  V30 4153 H 403.37 -4.87116 2.54947 0
M  V30 4154 H 404.595 -6.05102 3.08267 0
M  V30 4155 H 402.541 -6.50016 0.884056 0
M  V30 4156 H 402.458 -7.13681 2.49389 0
M  V30 4157 H 403.726 -7.66317 1.42755 0
M  V30 4158 N 407.956 -0.998596 -1.21925 0
M  V30 4159 C 408.866 -0.562736 -2.27751 0
M  V30 4160 C 409.882 0.391203 -1.69545 0
M  V30 4161 O 411.058 0.256625 -1.99758 0
M  V30 4162 C 408.123 0.11012 -3.46525 0
M  V30 4163 C 407.184 -0.887495 -4.20026 0
M  V30 4164 C 406.417 -0.246654 -5.3313 0
M  V30 4165 O 406.64 0.958088 -5.62296 0
M  V30 4166 O 405.574 -0.954374 -5.94286 0
M  V30 4167 H 409.4 -1.44329 -2.67213 0
M  V30 4168 H 406.985 -0.767135 -1.28201 0
M  V30 4169 H 408.867 0.486756 -4.18579 0
M  V30 4170 H 407.542 0.965154 -3.08976 0
M  V30 4171 H 406.449 -1.31517 -3.5022 0
M  V30 4172 H 407.782 -1.71191 -4.6147 0
M  V30 4173 N 409.434 1.37368 -0.772513 0
M  V30 4174 C 410.397 2.28601 -0.165541 0
M  V30 4175 C 411.397 1.48062 0.627238 0
M  V30 4176 O 412.587 1.68268 0.450715 0
M  V30 4177 C 409.719 3.32023 0.772897 0
M  V30 4178 H 410.912 2.83787 -0.969787 0
M  V30 4179 H 408.465 1.46647 -0.540775 0
M  V30 4180 H 409.2 2.81962 1.60212 0
M  V30 4181 H 408.985 3.91555 0.206585 0
M  V30 4182 H 410.475 4.00197 1.19298 0
M  V30 4183 N 410.912 0.523116 1.48665 0
M  V30 4184 C 412.142 -0.00961724 2.06598 0
M  V30 4185 C 412.55 -1.29333 1.38093 0
M  V30 4186 O 411.893 -1.77846 0.46007 0
M  V30 4187 C 411.955 -0.311135 3.58151 0
M  V30 4188 C 411.619 0.878092 4.48485 0
M  V30 4189 C 412.616 1.77464 4.88674 0
M  V30 4190 C 410.301 1.08315 4.90483 0
M  V30 4191 C 412.295 2.86021 5.69623 0
M  V30 4192 C 409.982 2.17187 5.71203 0
M  V30 4193 C 410.98 3.05873 6.10681 0
M  V30 4194 O 410.668 4.12862 6.89783 0
M  V30 4195 H 410.4 0.0272658 0.67545 0
M  V30 4196 H 412.954 0.726156 1.92136 0
M  V30 4197 H 411.184 -1.10079 3.70701 0
M  V30 4198 H 412.873 -0.785125 3.98234 0
M  V30 4199 H 413.639 1.62813 4.56855 0
M  V30 4200 H 409.518 0.402149 4.59243 0
M  V30 4201 H 413.062 3.55272 6.00356 0
M  V30 4202 H 408.959 2.31824 6.02435 0
M  V30 4203 H 409.727 4.10487 7.08126 0
M  V30 4204 N 412.39 -1.55475 0.257931 0
M  V30 4205 C 413.353 -2.20551 -0.623706 0
M  V30 4206 C 414.353 -1.17809 -1.09443 0
M  V30 4207 O 415.543 -1.42823 -0.997362 0
M  V30 4208 C 412.675 -2.85784 -1.8585 0
M  V30 4209 H 413.868 -2.99848 -0.0557743 0
M  V30 4210 H 411.421 -1.56298 0.0084422 0
M  V30 4211 H 412.156 -2.10453 -2.46739 0
M  V30 4212 H 411.941 -3.61057 -1.52907 0
M  V30 4213 H 413.431 -3.35553 -2.48584 0
M  V30 4214 N 413.868 0.0150385 -1.57593 0
M  V30 4215 C 415.114 0.69849 -1.91031 0
M  V30 4216 C 415.469 1.72208 -0.85804 0
M  V30 4217 O 414.762 1.91147 0.131614 0
M  V30 4218 C 414.956 1.39686 -3.28972 0
M  V30 4219 C 414.785 0.442428 -4.47518 0
M  V30 4220 C 413.555 0.0583223 -5.05266 0
M  V30 4221 C 415.753 -0.285072 -5.13509 0
M  V30 4222 N 413.735 -0.895893 -6.07328 0
M  V30 4223 C 415.106 -1.09447 -6.10263 0
M  V30 4224 C 417.161 -0.350518 -4.96665 0
M  V30 4225 C 415.864 -1.96333 -6.91987 0
M  V30 4226 C 417.89 -1.20655 -5.78962 0
M  V30 4227 C 417.252 -2.00383 -6.75297 0
M  V30 4228 H 413.351 0.22926 -0.747639 0
M  V30 4229 H 415.935 -0.0417748 -1.94655 0
M  V30 4230 H 414.106 2.1075 -3.2625 0
M  V30 4231 H 415.838 2.03381 -3.49883 0
M  V30 4232 H 412.593 0.423506 -4.71703 0
M  V30 4233 H 413.017 -1.36792 -6.63036 0
M  V30 4234 H 417.659 0.251596 -4.22051 0
M  V30 4235 H 415.377 -2.57618 -7.65936 0
M  V30 4236 H 418.963 -1.2609 -5.67972 0
M  V30 4237 H 417.843 -2.65552 -7.3787 0
M  V30 4238 N 415.346 1.54954 0.287554 0
M  V30 4239 C 416.574 1.78881 1.03967 0
M  V30 4240 C 416.989 0.554894 1.80462 0
M  V30 4241 O 416.346 -0.475676 1.76192 0
M  V30 4242 C 416.397 3.00488 2.0097 0
M  V30 4243 O 416.118 4.19113 1.27577 0
M  V30 4244 C 417.619 3.36907 2.88112 0
M  V30 4245 H 414.839 0.596259 0.307761 0
M  V30 4246 H 417.383 2.01937 0.322749 0
M  V30 4247 H 415.538 2.79601 2.68145 0
M  V30 4248 H 415.952 4.87765 1.92835 0
M  V30 4249 H 417.426 4.25205 3.52001 0
M  V30 4250 H 417.903 2.55659 3.57121 0
M  V30 4251 H 418.509 3.60001 2.26449 0
M  V30 4252 N 416.824 -0.551391 1.4764 0
M  V30 4253 C 417.787 -1.64007 1.60107 0
M  V30 4254 C 418.787 -1.53601 0.47576 0
M  V30 4255 O 419.977 -1.57655 0.740988 0
M  V30 4256 C 417.109 -3.03569 1.55108 0
M  V30 4257 H 418.302 -1.543 2.57161 0
M  V30 4258 H 415.855 -0.771776 1.35917 0
M  V30 4259 H 416.59 -3.18804 0.594519 0
M  V30 4260 H 416.375 -3.12532 2.36783 0
M  V30 4261 H 417.865 -3.82762 1.66982 0
M  V30 4262 N 418.302 -1.35869 -0.798587 0
M  V30 4263 C 419.212 -1.31578 -1.94228 0
M  V30 4264 C 420.228 -0.21939 -1.72611 0
M  V30 4265 O 421.404 -0.450167 -1.96305 0
M  V30 4266 C 418.469 -1.09528 -3.28944 0
M  V30 4267 C 417.53 -2.28556 -3.63402 0
M  V30 4268 C 416.763 -2.07549 -4.9169 0
M  V30 4269 O 416.986 -1.046 -5.60727 0
M  V30 4270 O 415.92 -2.95106 -5.24591 0
M  V30 4271 H 419.746 -2.27847 -2.00796 0
M  V30 4272 H 417.331 -1.16322 -0.937526 0
M  V30 4273 H 419.213 -0.991127 -4.09579 0
M  V30 4274 H 417.888 -0.16315 -3.23289 0
M  V30 4275 H 416.795 -2.44538 -2.83112 0
M  V30 4276 H 418.128 -3.20244 -3.73771 0
M  V30 4277 N 419.78 1.02168 -1.19998 0
M  V30 4278 C 420.712 2.10705 -0.901994 0
M  V30 4279 C 421.725 1.6244 0.108216 0
M  V30 4280 O 422.914 1.78082 -0.12214 0
M  V30 4281 C 420.014 3.37291 -0.329834 0
M  V30 4282 C 419.187 4.14714 -1.39035 0
M  V30 4283 C 418.246 5.19606 -0.830432 0
M  V30 4284 O 417.272 5.48809 -1.50989 0
M  V30 4285 N 418.474 5.79366 0.362696 0
M  V30 4286 H 421.239 2.36856 -1.83628 0
M  V30 4287 H 418.8 1.18518 -1.10296 0
M  V30 4288 H 420.792 4.04657 0.0587633 0
M  V30 4289 H 419.362 3.0843 0.508891 0
M  V30 4290 H 418.582 3.42392 -1.9535 0
M  V30 4291 H 419.87 4.63226 -2.10474 0
M  V30 4292 H 419.268 5.57968 0.932081 0
M  V30 4293 H 417.825 6.48106 0.69299 0
M  V30 4294 N 421.258 1.00505 1.21394 0
M  V30 4295 C 422.535 0.603277 1.86064 0
M  V30 4296 C 422.915 -0.919095 1.90042 0
M  V30 4297 O 422.263 -1.80607 1.39977 0
M  V30 4298 C 422.473 1.23772 3.26315 0
M  V30 4299 C 423.821 1.34586 4.02705 0
M  V30 4300 O 424.845 1.19304 3.35626 0
M  V30 4301 O 423.704 1.59169 5.22807 0
M  V30 4302 H 420.798 0.206634 0.800769 0
M  V30 4303 H 423.344 1.1017 1.29076 0
M  V30 4304 H 422.116 2.27848 3.18121 0
M  V30 4305 H 421.739 0.725648 3.90922 0
M  V30 4306 N 422.737 -1.36956 0.779787 0
M  V30 4307 C 423.984 -1.99491 0.347766 0
M  V30 4308 C 424.312 -1.61898 -1.07793 0
M  V30 4309 O 423.567 -0.86071 -1.75756 0
M  V30 4310 C 423.866 -3.54585 0.447686 0
M  V30 4311 C 423.532 -4.1197 1.83279 0
M  V30 4312 C 422.194 -4.27356 2.2118 0
M  V30 4313 C 424.546 -4.43354 2.74019 0
M  V30 4314 C 421.874 -4.71432 3.4924 0
M  V30 4315 C 424.226 -4.88858 4.01497 0
M  V30 4316 C 422.89 -5.0245 4.39432 0
M  V30 4317 H 422.16 -0.729991 0.127257 0
M  V30 4318 H 424.807 -1.63599 0.995376 0
M  V30 4319 H 423.112 -3.90773 -0.283447 0
M  V30 4320 H 424.809 -4.00888 0.0945948 0
M  V30 4321 H 421.399 -4.00428 1.52825 0
M  V30 4322 H 425.583 -4.31045 2.45995 0
M  V30 4323 H 420.839 -4.80141 3.78516 0
M  V30 4324 H 425.013 -5.12108 4.71931 0
M  V30 4325 H 422.64 -5.36362 5.38721 0
M  V30 4326 N 424.215 -0.530993 -1.48385 0
M  V30 4327 C 425.165 0.251092 -2.26613 0
M  V30 4328 C 426.149 0.908977 -1.32765 0
M  V30 4329 O 427.341 0.811616 -1.57295 0
M  V30 4330 C 424.47 1.29677 -3.17866 0
M  V30 4331 C 423.556 0.643627 -4.19188 0
M  V30 4332 N 423.947 -0.271223 -5.05072 0
M  V30 4333 C 422.245 0.900711 -4.3681 0
M  V30 4334 C 422.946 -0.648109 -5.78078 0
M  V30 4335 N 421.922 -0.00895987 -5.43599 0
M  V30 4336 H 425.724 -0.452702 -2.90393 0
M  V30 4337 H 423.238 -0.349091 -1.58604 0
M  V30 4338 H 425.235 1.87079 -3.72568 0
M  V30 4339 H 423.895 2.00193 -2.55642 0
M  V30 4340 H 424.906 -0.643883 -5.13882 0
M  V30 4341 H 421.583 1.59636 -3.85775 0
M  V30 4342 H 422.973 -1.39833 -6.57188 0
M  V30 4343 N 425.693 1.55336 -0.266172 0
M  V30 4344 C 426.939 1.99692 0.353681 0
M  V30 4345 C 427.272 1.1543 1.56172 0
M  V30 4346 O 426.547 0.222218 1.93226 0
M  V30 4347 C 426.83 3.52316 0.74466 0
M  V30 4348 C 426.683 4.47337 -0.470101 0
M  V30 4349 C 428.002 4.10588 1.58447 0
M  V30 4350 H 425.121 0.725961 0.12708 0
M  V30 4351 H 427.763 1.86336 -0.371333 0
M  V30 4352 H 425.913 3.63829 1.36239 0
M  V30 4353 H 427.585 4.4778 -1.10864 0
M  V30 4354 H 425.828 4.19364 -1.10978 0
M  V30 4355 H 426.499 5.51788 -0.15291 0
M  V30 4356 H 428.975 4.02297 1.06286 0
M  V30 4357 H 427.851 5.17607 1.82686 0
M  V30 4358 H 428.112 3.60253 2.56262 0
M  V30 4359 N 427.171 -0.0066808 1.57599 0
M  V30 4360 C 428.134 -0.985035 2.06953 0
M  V30 4361 C 429.134 -1.27663 0.977687 0
M  V30 4362 O 430.324 -1.22293 1.24057 0
M  V30 4363 C 427.456 -2.3118 2.50536 0
M  V30 4364 H 428.649 -0.558255 2.94658 0
M  V30 4365 H 426.202 -0.254011 1.54222 0
M  V30 4366 H 426.937 -2.78561 1.66054 0
M  V30 4367 H 426.722 -2.11338 3.3027 0
M  V30 4368 H 428.212 -3.01377 2.8907 0
M  V30 4369 N 428.649 -1.55105 -0.279332 0
M  V30 4370 C 429.559 -1.90638 -1.36727 0
M  V30 4371 C 430.575 -0.802899 -1.54368 0
M  V30 4372 O 431.751 -1.10138 -1.68616 0
M  V30 4373 C 428.816 -2.16547 -2.70755 0
M  V30 4374 C 427.877 -3.40146 -2.61915 0
M  V30 4375 C 427.11 -3.6481 -3.8955 0
M  V30 4376 O 427.333 -2.92095 -4.89935 0
M  V30 4377 O 426.267 -4.58343 -3.90135 0
M  V30 4378 H 430.093 -2.83237 -1.09591 0
M  V30 4379 H 427.678 -1.4157 -0.477306 0
M  V30 4380 H 429.56 -2.34665 -3.50014 0
M  V30 4381 H 428.235 -1.27131 -2.9769 0
M  V30 4382 H 427.142 -3.2737 -1.81052 0
M  V30 4383 H 428.475 -4.29761 -2.3993 0
M  V30 4384 N 430.127 0.543554 -1.4793 0
M  V30 4385 C 431.037 1.67657 -1.64098 0
M  V30 4386 C 432.053 1.65934 -0.523622 0
M  V30 4387 O 433.229 1.85133 -0.792943 0
M  V30 4388 C 430.294 3.04146 -1.66421 0
M  V30 4389 C 429.355 3.16831 -2.89684 0
M  V30 4390 C 428.588 4.46809 -2.91886 0
M  V30 4391 O 428.811 5.33095 -2.02895 0
M  V30 4392 O 427.745 4.63573 -3.83906 0
M  V30 4393 H 431.571 1.56957 -2.59997 0
M  V30 4394 H 429.156 0.715116 -1.31173 0
M  V30 4395 H 431.038 3.85346 -1.70548 0
M  V30 4396 H 429.713 3.152 -0.736923 0
M  V30 4397 H 428.62 2.34977 -2.91095 0
M  V30 4398 H 429.953 3.10687 -3.81752 0
M  V30 4399 N 431.605 1.3629 0.791371 0
M  V30 4400 C 432.851 1.30605 1.55146 0
M  V30 4401 C 433.184 -0.115042 1.93859 0
M  V30 4402 O 432.459 -1.06798 1.62556 0
M  V30 4403 C 432.742 2.22692 2.82985 0
M  V30 4404 C 432.595 3.73489 2.50651 0
M  V30 4405 C 433.914 2.13588 3.84796 0
M  V30 4406 H 431.033 0.475761 0.562868 0
M  V30 4407 H 433.675 1.66825 0.909358 0
M  V30 4408 H 431.825 1.91933 3.37778 0
M  V30 4409 H 433.497 4.14758 2.01924 0
M  V30 4410 H 431.74 3.93021 1.83622 0
M  V30 4411 H 432.411 4.3333 3.41949 0
M  V30 4412 H 434.887 2.40659 3.39445 0
M  V30 4413 H 433.763 2.80195 4.71998 0
M  V30 4414 H 434.024 1.12256 4.27611 0
M  V30 4415 N 433.083 -1.0153 1.20538 0
M  V30 4416 C 434.313 -1.78487 1.04048 0
M  V30 4417 C 434.721 -1.84631 -0.413292 0
M  V30 4418 O 434.064 -1.29919 -1.29872 0
M  V30 4419 C 434.126 -3.24367 1.55003 0
M  V30 4420 C 433.79 -3.41827 3.0332 0
M  V30 4421 C 434.787 -3.30941 4.00966 0
M  V30 4422 C 432.472 -3.67602 3.42307 0
M  V30 4423 C 434.466 -3.45577 5.35589 0
M  V30 4424 C 432.153 -3.81881 4.77085 0
M  V30 4425 C 433.151 -3.70874 5.73534 0
M  V30 4426 O 432.839 -3.84714 7.05868 0
M  V30 4427 H 432.571 -0.568108 0.366373 0
M  V30 4428 H 435.125 -1.28677 1.60098 0
M  V30 4429 H 433.355 -3.75266 0.933397 0
M  V30 4430 H 435.044 -3.82963 1.34514 0
M  V30 4431 H 435.81 -3.10964 3.72191 0
M  V30 4432 H 431.689 -3.75256 2.67776 0
M  V30 4433 H 435.233 -3.36902 6.10854 0
M  V30 4434 H 431.13 -4.01359 5.0555 0
M  V30 4435 H 431.898 -4.01724 7.13134 0
M  V30 4436 N 434.561 -1.01147 -1.20859 0
M  V30 4437 C 435.471 -0.58686 -2.27141 0
M  V30 4438 C 436.487 0.373198 -1.69951 0
M  V30 4439 O 437.663 0.235423 -2.00019 0
M  V30 4440 C 434.728 0.0733602 -3.46622 0
M  V30 4441 C 433.789 -0.931995 -4.19061 0
M  V30 4442 C 433.022 -0.303186 -5.32838 0
M  V30 4443 O 433.245 0.898395 -5.63281 0
M  V30 4444 O 432.179 -1.01735 -5.9324 0
M  V30 4445 H 436.005 -1.47155 -2.65667 0
M  V30 4446 H 433.59 -0.780689 -1.2738 0
M  V30 4447 H 435.472 0.442333 -4.19072 0
M  V30 4448 H 434.147 0.932329 -3.09983 0
M  V30 4449 H 433.054 -1.35224 -3.48805 0
M  V30 4450 H 434.387 -1.76076 -4.59628 0
M  V30 4451 N 436.039 1.36541 -0.78704 0
M  V30 4452 C 436.987 2.31965 -0.171724 0
M  V30 4453 C 437.981 1.55689 0.667631 0
M  V30 4454 O 439.187 1.70969 0.562981 0
M  V30 4455 H 435.562 0.751101 -0.0367545 0
M  V30 4456 H 437.533 2.81428 -0.992017 0
M  V30 4457 C 436.282 3.40968 0.680904 0
M  V30 4458 H 435.605 3.99775 0.0443961 0
M  V30 4459 H 437.045 4.10063 1.07815 0
M  V30 4460 C 435.504 2.82338 1.83813 0
M  V30 4461 O 436.034 2.74311 2.93456 0
M  V30 4462 N 434.24 2.39661 1.6435 0
M  V30 4463 H 433.787 2.46389 0.751668 0
M  V30 4464 H 433.745 2.00779 2.4194 0
M  V30 4465 N 437.518 0.538854 1.48102 0
M  V30 4466 C 438.765 0.0080018 2.02498 0
M  V30 4467 C 439.093 -1.33437 1.41509 0
M  V30 4468 O 438.348 -1.87709 0.553507 0
M  V30 4469 C 438.647 -0.153808 3.57069 0
M  V30 4470 C 438.313 1.11533 4.36888 0
M  V30 4471 C 436.975 1.46314 4.58417 0
M  V30 4472 C 439.327 1.95718 4.83057 0
M  V30 4473 C 436.655 2.6516 5.23361 0
M  V30 4474 C 439.007 3.13751 5.49312 0
M  V30 4475 C 437.671 3.48866 5.69077 0
M  V30 4476 H 436.941 0.00292807 0.740994 0
M  V30 4477 H 439.588 0.706668 1.77984 0
M  V30 4478 H 437.893 -0.935309 3.80472 0
M  V30 4479 H 439.59 -0.579607 3.96789 0
M  V30 4480 H 436.18 0.834484 4.20398 0
M  V30 4481 H 440.364 1.70158 4.66219 0
M  V30 4482 H 435.62 2.92558 5.36861 0
M  V30 4483 H 439.794 3.79282 5.84053 0
M  V30 4484 H 437.421 4.41054 6.19173 0
M  V30 4485 N 438.996 -1.55193 0.274407 0
M  V30 4486 C 440.412 -1.59401 -0.0797543 0
M  V30 4487 C 440.612 -1.29162 -1.54659 0
M  V30 4488 O 439.668 -1.05215 -2.29534 0
M  V30 4489 C 440.981 -2.99257 0.294238 0
M  V30 4490 C 442.529 -3.12072 0.240796 0
M  V30 4491 C 443.004 -4.54194 0.589218 0
M  V30 4492 N 444.495 -4.60033 0.540744 0
M  V30 4493 C 445.23 -5.68027 0.783147 0
M  V30 4494 N 444.726 -6.8417 1.09013 0
M  V30 4495 N 446.519 -5.57572 0.711993 0
M  V30 4496 H 438.67 -1.73113 1.23067 0
M  V30 4497 H 440.933 -0.807197 0.497129 0
M  V30 4498 H 440.639 -3.26217 1.31435 0
M  V30 4499 H 440.513 -3.75427 -0.365281 0
M  V30 4500 H 442.9 -2.84877 -0.770024 0
M  V30 4501 H 442.981 -2.38117 0.934563 0
M  V30 4502 H 442.625 -4.82115 1.59772 0
M  V30 4503 H 442.555 -5.26448 -0.126331 0
M  V30 4504 H 445.046 -3.76599 0.313327 0
M  V30 4505 H 445.359 -7.6243 1.26178 0
M  V30 4506 H 443.704 -6.85787 1.12789 0
M  V30 4507 H 446.895 -4.65714 0.472014 0
M  V30 4508 H 447.068 -6.41659 0.90429 0
M  V30 4509 N 440.474 -0.00167713 -1.576 0
M  V30 4510 C 441.421 0.989195 -2.08527 0
M  V30 4511 C 442.391 1.34031 -0.981065 0
M  V30 4512 O 443.576 1.43839 -1.2536 0
M  V30 4513 C 440.716 2.27537 -2.59463 0
M  V30 4514 C 439.829 1.98314 -3.83791 0
M  V30 4515 C 438.964 3.21025 -4.23222 0
M  V30 4516 C 438.003 2.87495 -5.40382 0
M  V30 4517 N 437.14 4.02749 -5.75098 0
M  V30 4518 H 441.98 0.547973 -2.92919 0
M  V30 4519 H 439.517 0.258917 -1.44803 0
M  V30 4520 H 441.475 3.02729 -2.87073 0
M  V30 4521 H 440.105 2.69325 -1.77943 0
M  V30 4522 H 439.157 1.13482 -3.63078 0
M  V30 4523 H 440.469 1.69601 -4.69081 0
M  V30 4524 H 439.623 4.04561 -4.52123 0
M  V30 4525 H 438.362 3.52877 -3.36644 0
M  V30 4526 H 437.367 2.02367 -5.11202 0
M  V30 4527 H 438.592 2.56889 -6.28637 0
M  V30 4528 H 436.538 4.34494 -4.91478 0
M  V30 4529 H 436.455 3.77566 -6.54966 0
M  V30 4530 H 437.723 4.87068 -6.08592 0
M  V30 4531 N 441.952 1.55251 0.271103 0
M  V30 4532 C 443.18 1.79974 1.02064 0
M  V30 4533 C 443.595 0.574003 1.79863 0
M  V30 4534 O 442.952 -0.456962 1.76686 0
M  V30 4535 C 443.003 3.02603 1.97772 0
M  V30 4536 O 442.724 4.20443 1.23124 0
M  V30 4537 C 444.225 3.39944 2.84522 0
M  V30 4538 H 441.445 0.599489 0.301419 0
M  V30 4539 H 443.989 2.02268 0.301313 0
M  V30 4540 H 442.144 2.8243 2.65165 0
M  V30 4541 H 442.558 4.89783 1.87651 0
M  V30 4542 H 444.032 4.28915 3.47471 0
M  V30 4543 H 444.509 2.59432 3.54389 0
M  V30 4544 H 445.115 3.62383 2.22618 0
M  V30 4545 N 443.43 -0.535701 1.48216 0
M  V30 4546 C 444.676 -1.29375 1.56173 0
M  V30 4547 C 445.009 -1.92804 0.232429 0
M  V30 4548 O 444.284 -1.78992 -0.761048 0
M  V30 4549 C 444.567 -2.38747 2.69577 0
M  V30 4550 C 444.42 -1.80046 4.12193 0
M  V30 4551 C 445.739 -3.40551 2.78771 0
M  V30 4552 H 442.858 -0.469027 0.568491 0
M  V30 4553 H 445.5 -0.597358 1.80365 0
M  V30 4554 H 443.65 -2.98147 2.4908 0
M  V30 4555 H 445.322 -1.24742 4.44114 0
M  V30 4556 H 443.565 -1.10609 4.19462 0
M  V30 4557 H 444.236 -2.59212 4.87353 0
M  V30 4558 H 446.712 -2.91099 2.97322 0
M  V30 4559 H 445.588 -4.1448 3.59857 0
M  V30 4560 H 445.849 -4.00746 1.86696 0
M  V30 4561 N 444.908 -1.36708 -0.784132 0
M  V30 4562 C 445.84 -1.27333 -1.90575 0
M  V30 4563 C 446.853 -0.191706 -1.61667 0
M  V30 4564 O 448.042 -0.446854 -1.72816 0
M  V30 4565 C 445.142 -0.943177 -3.25511 0
M  V30 4566 C 444.315 -2.12776 -3.82158 0
M  V30 4567 C 443.374 -1.76983 -4.95544 0
M  V30 4568 O 442.4 -2.49134 -5.11782 0
M  V30 4569 N 443.602 -0.706624 -5.76183 0
M  V30 4570 H 446.367 -2.23974 -1.99138 0
M  V30 4571 H 443.928 -1.30171 -0.962656 0
M  V30 4572 H 445.92 -0.684799 -3.98864 0
M  V30 4573 H 444.49 -0.0657333 -3.12531 0
M  V30 4574 H 443.71 -2.54863 -3.0073 0
M  V30 4575 H 444.998 -2.91904 -4.16737 0
M  V30 4576 H 444.396 -0.107643 -5.65598 0
M  V30 4577 H 442.953 -0.50808 -6.49817 0
M  V30 4578 N 446.386 1.0089 -1.21074 0
M  V30 4579 C 447.663 1.71834 -0.934469 0
M  V30 4580 C 448.043 2.0368 0.554753 0
M  V30 4581 O 447.391 1.70742 1.51854 0
M  V30 4582 C 447.601 2.98061 -1.8155 0
M  V30 4583 C 448.949 3.7117 -2.06199 0
M  V30 4584 O 449.973 3.08034 -1.78867 0
M  V30 4585 O 448.832 4.84721 -2.52404 0
M  V30 4586 H 445.926 0.749253 -0.35007 0
M  V30 4587 H 448.472 1.06668 -1.31985 0
M  V30 4588 H 447.244 2.70908 -2.82355 0
M  V30 4589 H 446.867 3.70968 -1.43068 0
M  V30 4590 N 447.864 1.01787 1.20321 0
M  V30 4591 C 449.11 0.708985 1.90003 0
M  V30 4592 C 449.443 -0.759572 1.78729 0
M  V30 4593 O 448.718 -1.55198 1.17234 0
M  V30 4594 C 449.001 1.1469 3.41348 0
M  V30 4595 C 448.854 2.67586 3.61549 0
M  V30 4596 C 450.173 0.71915 4.34185 0
M  V30 4597 H 447.292 0.259034 0.689978 0
M  V30 4598 H 449.934 1.26584 1.41692 0
M  V30 4599 H 448.084 0.673128 3.82624 0
M  V30 4600 H 449.756 3.22826 3.29517 0
M  V30 4601 H 447.999 3.085 3.04976 0
M  V30 4602 H 448.67 2.93281 4.67643 0
M  V30 4603 H 451.146 1.12647 4.00562 0
M  V30 4604 H 450.022 1.05358 5.38694 0
M  V30 4605 H 450.283 -0.379111 4.40472 0
M  V30 4606 N 449.342 -1.36122 0.79427 0
M  V30 4607 C 450.59 -1.98718 0.368177 0
M  V30 4608 C 450.911 -1.63345 -1.06506 0
M  V30 4609 O 450.181 -0.909825 -1.73491 0
M  V30 4610 H 448.761 -0.735038 0.133146 0
M  V30 4611 H 451.423 -1.66239 1.01739 0
M  V30 4612 H 450.519 -3.08633 0.463923 0
M  V30 4613 N 450.82 -0.546701 -1.47814 0
M  V30 4614 C 451.73 0.21026 -2.33656 0
M  V30 4615 C 452.746 0.922413 -1.47538 0
M  V30 4616 O 453.922 0.893652 -1.80488 0
M  V30 4617 C 450.987 1.23348 -3.24016 0
M  V30 4618 C 450.048 0.529883 -4.26017 0
M  V30 4619 C 449.281 1.50435 -5.12059 0
M  V30 4620 O 449.504 2.73837 -5.00369 0
M  V30 4621 O 448.438 1.03459 -5.92942 0
M  V30 4622 H 452.264 -0.493605 -2.99662 0
M  V30 4623 H 449.849 -0.307427 -1.46203 0
M  V30 4624 H 451.731 1.82438 -3.79861 0
M  V30 4625 H 450.406 1.91945 -2.60651 0
M  V30 4626 H 449.313 -0.101948 -3.73961 0
M  V30 4627 H 450.646 -0.11445 -4.92067 0
M  V30 4628 N 452.299 1.55045 -0.282633 0
M  V30 4629 C 453.527 2.04168 0.33512 0
M  V30 4630 C 453.942 1.16071 1.48906 0
M  V30 4631 O 453.299 0.182391 1.81586 0
M  V30 4632 C 453.35 3.52332 0.808957 0
M  V30 4633 O 453.071 4.37078 -0.299038 0
M  V30 4634 C 454.572 4.17375 1.49375 0
M  V30 4635 H 451.792 0.666744 0.0754543 0
M  V30 4636 H 454.336 2.00205 -0.416918 0
M  V30 4637 H 452.491 3.56715 1.51106 0
M  V30 4638 H 452.905 5.24458 0.0665514 0
M  V30 4639 H 454.379 5.22627 1.77664 0
M  V30 4640 H 454.856 3.65999 2.42778 0
M  V30 4641 H 455.462 4.17016 0.835305 0
M  V30 4642 N 453.777 0.010035 1.57597 0
M  V30 4643 C 454.74 -0.963029 2.07986 0
M  V30 4644 C 455.74 -1.26619 0.991173 0
M  V30 4645 O 456.93 -1.2097 1.25347 0
M  V30 4646 C 454.062 -2.2851 2.52974 0
M  V30 4647 H 455.255 -0.526971 2.95234 0
M  V30 4648 H 452.808 -0.237639 1.54483 0
M  V30 4649 H 453.543 -2.76784 1.69 0
M  V30 4650 H 453.328 -2.07824 3.32493 0
M  V30 4651 H 454.818 -2.98294 2.9225 0
M  V30 4652 N 455.255 -1.55392 -0.262866 0
M  V30 4653 C 456.187 -1.85392 -1.34768 0
M  V30 4654 C 457.2 -0.739069 -1.45057 0
M  V30 4655 O 458.389 -1.01703 -1.46693 0
M  V30 4656 C 455.489 -2.01088 -2.72795 0
M  V30 4657 C 454.662 -3.31828 -2.84972 0
M  V30 4658 C 453.721 -3.37464 -4.03738 0
M  V30 4659 O 452.747 -4.10778 -3.94018 0
M  V30 4660 N 453.949 -2.65599 -5.16176 0
M  V30 4661 H 456.714 -2.79029 -1.09375 0
M  V30 4662 H 454.275 -1.55434 -0.452981 0
M  V30 4663 H 456.267 -2.02217 -3.50557 0
M  V30 4664 H 454.837 -1.1427 -2.90966 0
M  V30 4665 H 454.057 -3.43152 -1.94012 0
M  V30 4666 H 455.345 -4.18032 -2.90045 0
M  V30 4667 H 454.743 -2.05736 -5.26962 0
M  V30 4668 H 453.3 -2.72439 -5.92132 0
M  V30 4669 N 456.733 0.527833 -1.48498 0
M  V30 4670 C 457.696 1.61439 -1.62696 0
M  V30 4671 C 458.696 1.52824 -0.500136 0
M  V30 4672 O 459.886 1.56456 -0.765976 0
M  V30 4673 C 457.018 3.01063 -1.59918 0
M  V30 4674 H 458.211 1.50189 -2.59583 0
M  V30 4675 H 455.764 0.750055 -1.37127 0
M  V30 4676 H 456.499 3.17818 -0.645163 0
M  V30 4677 H 456.284 3.08725 -2.41726 0
M  V30 4678 H 457.774 3.80057 -1.73051 0
M  V30 4679 N 458.211 1.37122 0.776871 0
M  V30 4680 C 459.121 1.34651 1.9211 0
M  V30 4681 C 460.137 0.246824 1.7224 0
M  V30 4682 O 461.313 0.48134 1.95563 0
M  V30 4683 C 458.378 1.14748 3.2716 0
M  V30 4684 C 457.439 2.34308 3.5972 0
M  V30 4685 C 456.672 2.15345 4.88326 0
M  V30 4686 O 456.895 1.13507 5.58992 0
M  V30 4687 O 455.829 3.03414 5.1983 0
M  V30 4688 H 459.655 2.31013 1.97146 0
M  V30 4689 H 457.24 1.17799 0.918901 0
M  V30 4690 H 459.122 1.05616 4.0795 0
M  V30 4691 H 457.797 0.214562 3.22988 0
M  V30 4692 H 456.704 2.49011 2.79185 0
M  V30 4693 H 458.037 3.26149 3.68629 0
M  V30 4694 N 459.689 -1.00246 1.21608 0
M  V30 4695 C 460.935 -1.74417 1.04643 0
M  V30 4696 C 461.29 -1.87862 -0.415387 0
M  V30 4697 O 460.583 -1.40373 -1.30407 0
M  V30 4698 C 460.777 -3.15448 1.68009 0
M  V30 4699 C 460.606 -3.15755 3.20201 0
M  V30 4700 C 459.376 -3.2219 3.89258 0
M  V30 4701 C 461.574 -3.00668 4.17257 0
M  V30 4702 N 459.556 -3.1215 5.28617 0
M  V30 4703 C 460.927 -2.98553 5.43384 0
M  V30 4704 C 462.982 -2.84989 4.08272 0
M  V30 4705 C 461.685 -2.82364 6.61561 0
M  V30 4706 C 463.711 -2.70158 5.26088 0
M  V30 4707 C 463.073 -2.68721 6.51128 0
M  V30 4708 H 459.172 -0.648317 0.437274 0
M  V30 4709 H 461.756 -1.19129 1.54001 0
M  V30 4710 H 459.927 -3.69001 1.21215 0
M  V30 4711 H 461.659 -3.78128 1.44226 0
M  V30 4712 H 458.414 -3.29488 3.40198 0
M  V30 4713 H 458.838 -3.10465 6.01615 0
M  V30 4714 H 463.48 -2.84904 3.12393 0
M  V30 4715 H 461.198 -2.81196 7.57598 0
M  V30 4716 H 464.784 -2.59022 5.20959 0
M  V30 4717 H 463.664 -2.57382 7.40759 0
M  V30 4718 N 461.167 -1.02423 -1.1978 0
M  V30 4719 C 462.115 -0.594474 -2.24875 0
M  V30 4720 C 463.109 0.370598 -1.65296 0
M  V30 4721 O 464.315 0.239684 -1.78397 0
M  V30 4722 H 460.69 -0.173961 -0.731602 0
M  V30 4723 H 462.661 -1.4916 -2.58445 0
M  V30 4724 C 461.41 0.0436512 -3.47673 0
M  V30 4725 H 460.733 -0.689963 -3.93801 0
M  V30 4726 H 462.173 0.307362 -4.22884 0
M  V30 4727 C 460.632 1.28881 -3.11274 0
M  V30 4728 O 461.162 2.38135 -3.23503 0
M  V30 4729 N 459.368 1.1758 -2.6575 0
M  V30 4730 H 458.915 0.286769 -2.55999 0
M  V30 4731 H 458.873 2.00988 -2.41767 0
M  V30 4732 N 462.645 1.35699 -0.801477 0
M  V30 4733 C 463.873 2.03157 -0.391768 0
M  V30 4734 C 464.288 1.60412 0.995668 0
M  V30 4735 O 463.645 0.799228 1.64069 0
M  V30 4736 C 463.696 3.58566 -0.459671 0
M  V30 4737 O 463.417 3.99756 -1.7924 0
M  V30 4738 C 464.918 4.4328 -0.0421205 0
M  V30 4739 H 462.138 0.651688 -0.159825 0
M  V30 4740 H 464.682 1.73426 -1.08368 0
M  V30 4741 H 462.837 3.86963 0.183939 0
M  V30 4742 H 463.251 4.94387 -1.75162 0
M  V30 4743 H 464.725 5.51821 -0.140754 0
M  V30 4744 H 465.202 4.27383 1.01196 0
M  V30 4745 H 465.808 4.20168 -0.658687 0
M  V30 4746 N 464.123 0.554532 1.47522 0
M  V30 4747 C 465.056 -0.242442 2.26908 0
M  V30 4748 C 466.034 -0.922722 1.33883 0
M  V30 4749 O 467.218 -0.942244 1.63261 0
M  V30 4750 C 464.345 -1.34525 3.10839 0
M  V30 4751 C 463.391 -0.773805 4.19422 0
M  V30 4752 S 464.224 0.377525 5.34168 0
M  V30 4753 C 465.38 -0.727164 6.21662 0
M  V30 4754 H 465.613 0.431218 2.94156 0
M  V30 4755 H 463.146 0.3408 1.50592 0
M  V30 4756 H 465.104 -1.97683 3.59766 0
M  V30 4757 H 463.765 -1.99073 2.42958 0
M  V30 4758 H 462.958 -1.60187 4.77866 0
M  V30 4759 H 462.56 -0.218448 3.73361 0
M  V30 4760 H 464.852 -1.61992 6.57849 0
M  V30 4761 H 465.795 -0.180135 7.07871 0
M  V30 4762 H 466.203 -1.01863 5.55233 0
M  V30 4763 N 465.601 -1.54893 0.290851 0
M  V30 4764 C 466.531 -2.26103 -0.583084 0
M  V30 4765 C 467.512 -1.25684 -1.14619 0
M  V30 4766 O 468.697 -1.54436 -1.17741 0
M  V30 4767 C 465.827 -2.99409 -1.75987 0
M  V30 4768 C 464.781 -4.0689 -1.32758 0
M  V30 4769 C 464.107 -4.67856 -2.58872 0
M  V30 4770 C 465.407 -5.20215 -0.46624 0
M  V30 4771 H 467.101 -2.99398 0.0108214 0
M  V30 4772 H 464.647 -1.43998 0.00664468 0
M  V30 4773 H 466.6 -3.47943 -2.37727 0
M  V30 4774 H 465.324 -2.23675 -2.37985 0
M  V30 4775 H 463.983 -3.59191 -0.733299 0
M  V30 4776 H 463.631 -3.88772 -3.19163 0
M  V30 4777 H 463.331 -5.40438 -2.30653 0
M  V30 4778 H 464.855 -5.19147 -3.21433 0
M  V30 4779 H 466.269 -5.64704 -0.989047 0
M  V30 4780 H 464.666 -5.99455 -0.27826 0
M  V30 4781 H 465.736 -4.82198 0.511173 0
M  V30 4782 N 467.08 -0.0183926 -1.57589 0
M  V30 4783 C 468.328 0.661253 -1.90976 0
M  V30 4784 C 468.649 1.73281 -0.894353 0
M  V30 4785 O 467.919 1.9579 0.0656788 0
M  V30 4786 H 466.499 0.247233 -0.704901 0
M  V30 4787 H 469.161 -0.0636639 -1.94796 0
M  V30 4788 H 468.257 1.12083 -2.9128 0
M  V30 4789 N 468.558 1.5553 0.254621 0
M  V30 4790 C 469.468 1.92789 1.33677 0
M  V30 4791 C 470.484 0.827356 1.53071 0
M  V30 4792 O 471.66 1.12807 1.66843 0
M  V30 4793 C 468.725 2.20827 2.67275 0
M  V30 4794 C 467.786 3.4427 2.5647 0
M  V30 4795 C 467.019 3.70961 3.83697 0
M  V30 4796 O 467.242 2.99852 4.85227 0
M  V30 4797 O 466.176 4.64491 3.82794 0
M  V30 4798 H 470.002 2.84945 1.05071 0
M  V30 4799 H 467.587 1.42312 0.454723 0
M  V30 4800 H 469.469 2.40204 3.46237 0
M  V30 4801 H 468.144 1.31851 2.9563 0
M  V30 4802 H 467.051 3.30209 1.75821 0
M  V30 4803 H 468.384 4.33524 2.33062 0
M  V30 4804 N 470.036 -0.519951 1.48776 0
M  V30 4805 C 471.266 -1.29783 1.60748 0
M  V30 4806 C 471.674 -1.87253 0.27072 0
M  V30 4807 O 471.017 -1.67628 -0.751438 0
M  V30 4808 C 471.079 -2.47984 2.60277 0
M  V30 4809 C 470.743 -2.11526 4.051 0
M  V30 4810 C 471.74 -1.66608 4.92481 0
M  V30 4811 C 469.425 -2.21742 4.50706 0
M  V30 4812 C 471.419 -1.32384 6.23501 0
M  V30 4813 C 469.106 -1.87129 5.81744 0
M  V30 4814 C 470.104 -1.42523 6.67964 0
M  V30 4815 O 469.792 -1.0837 7.96562 0
M  V30 4816 H 469.524 -0.400562 0.544542 0
M  V30 4817 H 472.078 -0.632879 1.95407 0
M  V30 4818 H 470.308 -3.17493 2.2076 0
M  V30 4819 H 471.997 -3.10036 2.61978 0
M  V30 4820 H 472.763 -1.58178 4.58481 0
M  V30 4821 H 468.642 -2.55415 3.83776 0
M  V30 4822 H 472.186 -0.974949 6.90754 0
M  V30 4823 H 468.083 -1.95204 6.15277 0
M  V30 4824 H 468.851 -1.21681 8.09405 0
M  V30 4825 N 471.514 -1.37532 -0.769588 0
M  V30 4826 C 472.477 -1.33292 -1.86456 0
M  V30 4827 C 473.477 -0.236537 -1.59051 0
M  V30 4828 O 474.667 -0.492511 -1.67093 0
M  V30 4829 C 471.799 -1.07118 -3.23633 0
M  V30 4830 H 472.992 -2.30692 -1.91628 0
M  V30 4831 H 470.545 -1.22593 -0.969572 0
M  V30 4832 H 471.28 -0.102578 -3.24138 0
M  V30 4833 H 471.065 -1.86479 -3.44917 0
M  V30 4834 H 472.555 -1.06806 -4.03711 0
M  V30 4835 N 472.992 0.995999 -1.22138 0
M  V30 4836 C 473.924 2.08745 -0.946485 0
M  V30 4837 C 474.937 1.62633 0.0737356 0
M  V30 4838 O 476.126 1.77782 -0.159886 0
M  V30 4839 C 473.226 3.36516 -0.401305 0
M  V30 4840 C 472.399 4.11672 -1.47801 0
M  V30 4841 C 471.458 5.17728 -0.940461 0
M  V30 4842 O 470.484 5.45482 -1.62596 0
M  V30 4843 N 471.686 5.80005 0.239723 0
M  V30 4844 H 474.451 2.32908 -1.88611 0
M  V30 4845 H 472.012 1.16152 -1.12785 0
M  V30 4846 H 474.004 4.04691 -0.0270837 0
M  V30 4847 H 472.574 3.0944 0.443354 0
M  V30 4848 H 471.794 3.38171 -2.02568 0
M  V30 4849 H 473.082 4.58657 -2.20253 0
M  V30 4850 H 472.48 5.5982 0.813518 0
M  V30 4851 H 471.037 6.4943 0.555361 0
M  V30 4852 N 474.47 1.03057 1.19235 0
M  V30 4853 C 475.433 0.617418 2.20727 0
M  V30 4854 C 476.433 -0.319856 1.57587 0
M  V30 4855 O 477.623 -0.106633 1.73873 0
M  V30 4856 C 474.755 -0.096296 3.40764 0
M  V30 4857 H 475.948 1.51544 2.58794 0
M  V30 4858 H 473.501 0.821949 1.32942 0
M  V30 4859 H 474.236 -1.00859 3.08217 0
M  V30 4860 H 474.021 0.577217 3.87828 0
M  V30 4861 H 475.511 -0.372219 4.15938 0
M  V30 4862 N 475.948 -1.35272 0.808662 0
M  V30 4863 C 477.178 -2.02652 0.401953 0
M  V30 4864 C 477.586 -1.6108 -0.992462 0
M  V30 4865 O 476.929 -0.804984 -1.65123 0
M  V30 4866 C 476.991 -3.57174 0.408246 0
M  V30 4867 C 476.655 -4.22019 1.75353 0
M  V30 4868 C 477.652 -4.43552 2.71215 0
M  V30 4869 C 475.337 -4.59093 2.03811 0
M  V30 4870 C 477.331 -5.01264 3.93717 0
M  V30 4871 C 475.018 -5.16519 3.26576 0
M  V30 4872 C 476.016 -5.37546 4.21347 0
M  V30 4873 O 475.704 -5.93761 5.41944 0
M  V30 4874 H 475.436 -0.656495 0.161216 0
M  V30 4875 H 477.99 -1.73829 1.0942 0
M  V30 4876 H 476.22 -3.85197 -0.340608 0
M  V30 4877 H 477.909 -4.05893 0.0235623 0
M  V30 4878 H 478.675 -4.15288 2.50522 0
M  V30 4879 H 474.554 -4.42039 1.30854 0
M  V30 4880 H 478.098 -5.17592 4.67701 0
M  V30 4881 H 473.995 -5.4421 3.47139 0
M  V30 4882 H 474.763 -6.1221 5.43269 0
M  V30 4883 N 477.426 -0.562348 -1.47226 0
M  V30 4884 C 478.837 -0.130325 -1.86245 0
M  V30 4885 C 479.188 1.30128 -1.46838 0
M  V30 4886 O 478.313 1.97974 -0.873805 0
M  V30 4887 C 478.908 -0.229738 -3.3802 0
M  V30 4888 C 477.467 0.14728 -3.76112 0
M  V30 4889 C 476.614 -0.574971 -2.71274 0
M  V30 4890 H 479.565 -0.771773 -1.3867 0
M  V30 4891 H 479.586 0.550316 -3.76499 0
M  V30 4892 H 479.098 -1.27178 -3.66671 0
M  V30 4893 H 477.199 1.19023 -3.53078 0
M  V30 4894 H 477.312 -0.214858 -4.78618 0
M  V30 4895 H 475.676 -0.0174756 -2.54694 0
M  V30 4896 H 476.459 -1.61827 -3.02766 0
M  V30 4897 N 478.904 1.54736 -0.299062 0
M  V30 4898 C 479.814 2.27127 0.587413 0
M  V30 4899 C 480.83 1.30575 1.15005 0
M  V30 4900 O 482.006 1.63554 1.17525 0
M  V30 4901 C 479.071 2.99645 1.74395 0
M  V30 4902 C 478.132 4.11731 1.21559 0
M  V30 4903 C 477.365 4.80781 2.317 0
M  V30 4904 O 477.588 4.4918 3.51558 0
M  V30 4905 O 476.522 5.68226 1.98501 0
M  V30 4906 H 480.348 3.037 0.000250109 0
M  V30 4907 H 477.933 1.49256 -0.0655919 0
M  V30 4908 H 479.815 3.45138 2.4178 0
M  V30 4909 H 478.49 2.25969 2.31775 0
M  V30 4910 H 477.397 3.70641 0.507514 0
M  V30 4911 H 478.73 4.87379 0.687233 0
M  V30 4912 N 480.382 0.0267497 1.57577 0
M  V30 4913 C 481.312 -0.954308 2.13108 0
M  V30 4914 C 482.293 -1.34088 1.04663 0
M  V30 4915 O 483.478 -1.41992 1.32484 0
M  V30 4916 C 480.608 -2.23744 2.65624 0
M  V30 4917 C 479.562 -1.99168 3.78835 0
M  V30 4918 C 478.888 -3.33726 4.17769 0
M  V30 4919 C 480.188 -1.33277 5.0501 0
M  V30 4920 H 481.882 -0.491848 2.95332 0
M  V30 4921 H 479.428 -0.23514 1.42067 0
M  V30 4922 H 481.381 -2.92754 3.03106 0
M  V30 4923 H 480.105 -2.72151 1.80558 0
M  V30 4924 H 478.764 -1.32577 3.41788 0
M  V30 4925 H 478.412 -3.79888 3.29688 0
M  V30 4926 H 478.112 -3.18089 4.94058 0
M  V30 4927 H 479.636 -4.04008 4.57832 0
M  V30 4928 H 481.05 -1.92283 5.40093 0
M  V30 4929 H 479.447 -1.28045 5.8628 0
M  V30 4930 H 480.517 -0.305411 4.83937 0
M  V30 4931 N 481.861 -1.55662 -0.24637 0
M  V30 4932 C 482.824 -1.89558 -1.28842 0
M  V30 4933 C 483.824 -0.772082 -1.41052 0
M  V30 4934 O 485.014 -1.04007 -1.39743 0
M  V30 4935 C 482.146 -2.12449 -2.66605 0
M  V30 4936 H 483.339 -2.82735 -1.00004 0
M  V30 4937 H 480.892 -1.48562 -0.485684 0
M  V30 4938 H 481.627 -1.21742 -3.00582 0
M  V30 4939 H 481.412 -2.94273 -2.59125 0
M  V30 4940 H 482.902 -2.39854 -3.41847 0
M  V30 4941 N 483.339 0.512053 -1.4905 0
M  V30 4942 C 484.287 1.63568 -1.65373 0
M  V30 4943 C 485.281 1.61228 -0.519806 0
M  V30 4944 O 486.487 1.65869 -0.699101 0
M  V30 4945 H 482.862 0.542019 -0.521267 0
M  V30 4946 H 484.833 1.4695 -2.59708 0
M  V30 4947 C 483.582 3.01761 -1.7273 0
M  V30 4948 H 482.905 3.04263 -2.59353 0
M  V30 4949 H 484.345 3.79948 -1.8819 0
M  V30 4950 C 482.804 3.33609 -0.46973 0
M  V30 4951 O 483.334 3.99607 0.409492 0
M  V30 4952 N 481.54 2.88651 -0.336003 0
M  V30 4953 H 481.087 2.35119 -1.05247 0
M  V30 4954 H 481.045 3.10328 0.504363 0
M  V30 4955 N 484.817 1.37938 0.762283 0
M  V30 4956 C 485.727 1.36681 1.90671 0
M  V30 4957 C 486.743 0.265078 1.71969 0
M  V30 4958 O 487.919 0.502055 1.95042 0
M  V30 4959 C 484.984 1.18211 3.25925 0
M  V30 4960 C 484.045 2.3811 3.57214 0
M  V30 4961 C 483.278 2.20512 4.86014 0
M  V30 4962 O 483.501 1.19429 5.57757 0
M  V30 4963 O 482.435 3.08911 5.16583 0
M  V30 4964 H 486.261 2.33091 1.94685 0
M  V30 4965 H 483.846 1.18767 0.906356 0
M  V30 4966 H 485.728 1.09937 4.06807 0
M  V30 4967 H 484.403 0.248807 3.22742 0
M  V30 4968 H 483.31 2.51958 2.76529 0
M  V30 4969 H 484.643 3.30041 3.65149 0
M  V30 4970 N 486.295 -0.989507 1.22664 0
M  V30 4971 C 487.225 -2.09847 1.02404 0
M  V30 4972 C 488.206 -1.70007 -0.0561303 0
M  V30 4973 O 489.391 -1.93906 0.106748 0
M  V30 4974 C 486.521 -3.41996 0.604663 0
M  V30 4975 C 485.475 -3.95699 1.63115 0
M  V30 4976 C 484.801 -5.23936 1.0675 0
M  V30 4977 C 486.101 -4.25999 3.02196 0
M  V30 4978 H 487.795 -2.27054 1.95158 0
M  V30 4979 H 485.341 -1.09111 0.939727 0
M  V30 4980 H 487.294 -4.1899 0.45002 0
M  V30 4981 H 486.018 -3.24626 -0.35855 0
M  V30 4982 H 484.677 -3.2084 1.77362 0
M  V30 4983 H 484.325 -5.02909 0.0955422 0
M  V30 4984 H 484.025 -5.60833 1.75328 0
M  V30 4985 H 485.549 -6.0356 0.924516 0
M  V30 4986 H 486.963 -4.93777 2.91303 0
M  V30 4987 H 485.36 -4.74076 3.67929 0
M  V30 4988 H 486.43 -3.33636 3.51873 0
M  V30 4989 N 487.773 -1.03688 -1.18687 0
M  V30 4990 C 488.705 -0.582696 -2.21669 0
M  V30 4991 C 489.718 0.345656 -1.59088 0
M  V30 4992 O 490.907 0.140776 -1.77944 0
M  V30 4993 C 488.007 0.169204 -3.38477 0
M  V30 4994 C 487.18 -0.766079 -4.30639 0
M  V30 4995 C 486.239 -0.0581541 -5.26168 0
M  V30 4996 O 485.265 -0.687346 -5.65035 0
M  V30 4997 N 486.467 1.20981 -5.67753 0
M  V30 4998 H 489.232 -1.46843 -2.61261 0
M  V30 4999 H 486.793 -0.916896 -1.33434 0
M  V30 5000 H 488.785 0.652543 -3.99405 0
M  V30 5001 H 487.355 0.956435 -2.97609 0
M  V30 5002 H 486.575 -1.42935 -3.67373 0
M  V30 5003 H 487.863 -1.40146 -4.89118 0
M  V30 5004 H 487.261 1.74159 -5.38224 0
M  V30 5005 H 485.818 1.6375 -6.30896 0
M  V30 5006 N 489.251 1.34841 -0.815825 0
M  V30 5007 C 490.214 2.27959 -0.238185 0
M  V30 5008 C 491.214 1.49983 0.579816 0
M  V30 5009 O 492.404 1.69617 0.396953 0
M  V30 5010 C 489.536 3.34314 0.666876 0
M  V30 5011 H 490.729 2.80558 -1.05958 0
M  V30 5012 H 488.282 1.44852 -0.587156 0
M  V30 5013 H 489.017 2.86916 1.5116 0
M  V30 5014 H 488.802 3.92014 0.0819106 0
M  V30 5015 H 490.292 4.0379 1.06506 0
M  V30 5016 N 490.729 0.570148 1.46925 0
M  V30 5017 C 491.692 -0.159933 2.28641 0
M  V30 5018 C 492.692 -0.830638 1.37685 0
M  V30 5019 O 493.882 -0.684516 1.60187 0
M  V30 5020 C 491.014 -1.2354 3.17727 0
M  V30 5021 H 492.207 0.558035 2.94662 0
M  V30 5022 H 489.76 0.327603 1.52828 0
M  V30 5023 H 490.495 -1.98535 2.56426 0
M  V30 5024 H 490.28 -0.759125 3.84681 0
M  V30 5025 H 491.77 -1.74782 3.79264 0
M  V30 5026 N 492.207 -1.54576 0.307264 0
M  V30 5027 C 493.14 -2.19946 -0.608195 0
M  V30 5028 C 494.118 -1.17096 -1.12815 0
M  V30 5029 O 495.302 -1.45766 -1.19518 0
M  V30 5030 C 492.429 -2.84826 -1.8328 0
M  V30 5031 C 491.475 -4.01256 -1.44554 0
M  V30 5032 S 492.308 -5.33197 -0.49612 0
M  V30 5033 C 493.464 -6.01563 -1.72838 0
M  V30 5034 H 493.697 -2.97253 -0.0528544 0
M  V30 5035 H 491.23 -1.54129 0.0913837 0
M  V30 5036 H 493.188 -3.22832 -2.53554 0
M  V30 5037 H 491.849 -2.07353 -2.35931 0
M  V30 5038 H 491.042 -4.45457 -2.35762 0
M  V30 5039 H 490.644 -3.6484 -0.822671 0
M  V30 5040 H 492.936 -6.22751 -2.6681 0
M  V30 5041 H 493.879 -6.9552 -1.32882 0
M  V30 5042 H 494.287 -5.31279 -1.90795 0
M  V30 5043 N 493.685 -0.035106 -1.57561 0
M  V30 5044 C 494.633 0.962707 -2.11742 0
M  V30 5045 C 495.627 1.33296 -1.0454 0
M  V30 5046 O 496.833 1.31449 -1.22968 0
M  V30 5047 H 493.208 0.32826 -0.676572 0
M  V30 5048 H 495.179 0.48048 -2.94506 0
M  V30 5049 C 493.928 2.23388 -2.66445 0
M  V30 5050 H 493.251 1.95774 -3.48587 0
M  V30 5051 H 494.691 2.91402 -3.07995 0
M  V30 5052 C 493.15 2.96769 -1.59467 0
M  V30 5053 O 493.68 3.89105 -0.998 0
M  V30 5054 N 491.886 2.59212 -1.31369 0
M  V30 5055 H 491.433 1.84202 -1.80076 0
M  V30 5056 H 491.391 3.08618 -0.600173 0
M  V30 5057 N 495.163 1.55791 0.238111 0
M  V30 5058 C 496.411 1.77681 0.963001 0
M  V30 5059 C 496.732 0.600674 1.85518 0
M  V30 5060 O 496.002 -0.383182 1.92116 0
M  V30 5061 H 494.582 0.655315 0.358568 0
M  V30 5062 H 497.244 1.93239 0.253945 0
M  V30 5063 H 496.34 2.69177 1.57956 0
M  V30 5064 N 496.642 -0.504142 1.49319 0
M  V30 5065 C 497.572 -1.61473 1.68667 0
M  V30 5066 C 498.553 -1.61455 0.535378 0
M  V30 5067 O 499.738 -1.78245 0.770868 0
M  V30 5068 C 496.868 -2.99971 1.75028 0
M  V30 5069 C 495.822 -3.14854 2.89916 0
M  V30 5070 C 495.148 -4.54671 2.81387 0
M  V30 5071 C 496.448 -2.95176 4.30893 0
M  V30 5072 H 498.142 -1.45535 2.61648 0
M  V30 5073 H 495.688 -0.698711 1.25913 0
M  V30 5074 H 497.641 -3.77562 1.8715 0
M  V30 5075 H 496.365 -3.1699 0.786441 0
M  V30 5076 H 495.024 -2.39687 2.77391 0
M  V30 5077 H 494.672 -4.68562 1.82917 0
M  V30 5078 H 494.372 -4.6557 3.58494 0
M  V30 5079 H 495.896 -5.34327 2.95512 0
M  V30 5080 H 497.31 -3.62538 4.44116 0
M  V30 5081 H 495.707 -3.17549 5.09198 0
M  V30 5082 H 496.777 -1.91332 4.45556 0
M  V30 5083 N 498.12 -1.38341 -0.754957 0
M  V30 5084 C 499.05 -1.38176 -1.88227 0
M  V30 5085 C 500.031 -0.247873 -1.68284 0
M  V30 5086 O 501.216 -0.45075 -1.88896 0
M  V30 5087 C 498.346 -1.20471 -3.25736 0
M  V30 5088 C 497.3 -2.3105 -3.60278 0
M  V30 5089 C 496.626 -1.98452 -4.96509 0
M  V30 5090 C 497.926 -3.73305 -3.65295 0
M  V30 5091 H 499.62 -2.32512 -1.88622 0
M  V30 5092 H 497.166 -1.1192 -0.906082 0
M  V30 5093 H 499.119 -1.18982 -4.04254 0
M  V30 5094 H 497.843 -0.225965 -3.25817 0
M  V30 5095 H 496.502 -2.31723 -2.84078 0
M  V30 5096 H 496.15 -0.990641 -4.93148 0
M  V30 5097 H 495.85 -2.7251 -5.20588 0
M  V30 5098 H 497.374 -1.98578 -5.77407 0
M  V30 5099 H 498.788 -3.7467 -4.3393 0
M  V30 5100 H 497.185 -4.46557 -4.00883 0
M  V30 5101 H 498.255 -4.05719 -2.65556 0
M  V30 5102 N 499.598 0.982988 -1.23187 0
M  V30 5103 C 501.009 1.53847 -1.05773 0
M  V30 5104 C 501.36 1.92568 0.375744 0
M  V30 5105 O 500.485 1.75783 1.26211 0
M  V30 5106 C 501.08 2.79567 -1.91384 0
M  V30 5107 C 499.639 3.31524 -1.78238 0
M  V30 5108 C 498.786 2.04534 -1.87246 0
M  V30 5109 H 501.737 0.802962 -1.36888 0
M  V30 5110 H 501.758 3.52317 -1.43711 0
M  V30 5111 H 501.27 2.51353 -2.95708 0
M  V30 5112 H 499.371 3.64623 -0.766875 0
M  V30 5113 H 499.484 4.01457 -2.61475 0
M  V30 5114 H 497.848 2.1855 -1.30797 0
M  V30 5115 H 498.631 1.78706 -2.9312 0
M  V30 5116 N 501.076 1.04316 1.18135 0
M  V30 5117 C 501.986 0.646876 2.25505 0
M  V30 5118 C 503.002 -0.328008 1.7088 0
M  V30 5119 O 504.178 -0.182309 2.00573 0
M  V30 5120 C 501.243 0.0185664 3.46695 0
M  V30 5121 C 500.304 1.04277 4.16443 0
M  V30 5122 C 499.537 0.444352 5.31847 0
M  V30 5123 O 499.76 -0.748735 5.65465 0
M  V30 5124 O 498.694 1.17428 5.90334 0
M  V30 5125 H 502.52 1.54147 2.61672 0
M  V30 5126 H 500.105 0.814188 1.25265 0
M  V30 5127 H 501.987 -0.331068 4.20097 0
M  V30 5128 H 500.662 -0.849814 3.12346 0
M  V30 5129 H 499.569 1.44425 3.45098 0
M  V30 5130 H 500.902 1.882 4.54798 0
M  V30 5131 N 502.554 -1.34406 0.822964 0
M  V30 5132 C 503.802 -1.97892 0.410245 0
M  V30 5133 C 504.123 -1.65567 -1.03017 0
M  V30 5134 O 503.393 -0.94642 -1.71522 0
M  V30 5135 H 501.973 -0.732049 0.148707 0
M  V30 5136 H 504.635 -1.64043 1.05242 0
M  V30 5137 H 503.731 -3.07579 0.529284 0
M  V30 5138 N 504.032 -0.577932 -1.46621 0
M  V30 5139 C 505.278 -0.0700937 -2.03279 0
M  V30 5140 C 505.633 1.27376 -1.44198 0
M  V30 5141 O 504.926 1.82097 -0.595911 0
M  V30 5142 C 505.12 0.0590832 -3.57351 0
M  V30 5143 C 504.949 -1.2707 -4.31374 0
M  V30 5144 C 503.719 -1.84357 -4.70469 0
M  V30 5145 C 505.917 -2.19278 -4.65211 0
M  V30 5146 N 503.899 -3.11124 -5.29221 0
M  V30 5147 C 505.27 -3.30631 -5.24484 0
M  V30 5148 C 507.325 -2.19018 -4.47142 0
M  V30 5149 C 506.028 -4.41849 -5.67593 0
M  V30 5150 C 508.054 -3.29262 -4.91264 0
M  V30 5151 C 507.416 -4.39335 -5.50604 0
M  V30 5152 H 503.515 -0.0683127 -0.779011 0
M  V30 5153 H 506.099 -0.76978 -1.78836 0
M  V30 5154 H 504.27 0.727929 -3.81518 0
M  V30 5155 H 506.002 0.57087 -4.00653 0
M  V30 5156 H 502.757 -1.37906 -4.53077 0
M  V30 5157 H 503.181 -3.75794 -5.63123 0
M  V30 5158 H 507.823 -1.35191 -4.00604 0
M  V30 5159 H 505.541 -5.26421 -6.13112 0
M  V30 5160 H 509.127 -3.30172 -4.79038 0
M  V30 5161 H 508.007 -5.23233 -5.84121 0
M  V30 5162 N 505.51 1.54411 -0.315457 0
M  V30 5163 C 506.42 2.27737 0.56329 0
M  V30 5164 C 507.436 1.31787 1.13614 0
M  V30 5165 O 508.612 1.64791 1.15784 0
M  V30 5166 C 505.677 3.01478 1.71207 0
M  V30 5167 C 504.738 4.12997 1.17185 0
M  V30 5168 C 503.971 4.83212 2.26588 0
M  V30 5169 O 504.194 4.52884 3.46775 0
M  V30 5170 O 503.128 5.70299 1.92463 0
M  V30 5171 H 506.954 3.03683 -0.0319614 0
M  V30 5172 H 504.539 1.49178 -0.0814188 0
M  V30 5173 H 506.421 3.47683 2.38106 0
M  V30 5174 H 505.096 2.28414 2.29366 0
M  V30 5175 H 504.003 3.71159 0.468174 0
M  V30 5176 H 505.336 4.8808 0.635501 0
M  V30 5177 N 506.988 0.0434614 1.5754 0
M  V30 5178 C 507.92 -0.962586 2.08007 0
M  V30 5179 C 508.933 -1.27972 1.00634 0
M  V30 5180 O 510.122 -1.24186 1.28219 0
M  V30 5181 C 507.222 -2.28621 2.50171 0
M  V30 5182 C 506.395 -2.15214 3.80791 0
M  V30 5183 C 505.454 -3.30633 4.09351 0
M  V30 5184 O 504.48 -3.0688 4.79388 0
M  V30 5185 N 505.682 -4.54873 3.60654 0
M  V30 5186 H 508.447 -0.531891 2.94942 0
M  V30 5187 H 506.008 -0.142965 1.61268 0
M  V30 5188 H 508 -3.04689 2.66359 0
M  V30 5189 H 506.57 -2.63283 1.68525 0
M  V30 5190 H 505.79 -1.23785 3.74261 0
M  V30 5191 H 507.078 -2.03475 4.66343 0
M  V30 5192 H 506.476 -4.77063 3.04019 0
M  V30 5193 H 505.033 -5.2806 3.82094 0
M  V30 5194 N 508.466 -1.55915 -0.229846 0
M  V30 5195 C 509.414 -1.9258 -1.30444 0
M  V30 5196 C 510.408 -0.806839 -1.48951 0
M  V30 5197 O 511.614 -0.991606 -1.50224 0
M  V30 5198 H 507.989 -0.611878 -0.437161 0
M  V30 5199 H 509.96 -2.82264 -0.96797 0
M  V30 5200 C 508.709 -2.25171 -2.6494 0
M  V30 5201 H 508.032 -3.10782 -2.51504 0
M  V30 5202 H 509.472 -2.54716 -3.38963 0
M  V30 5203 C 507.931 -1.07394 -3.19324 0
M  V30 5204 O 508.461 -0.330759 -4.00336 0
M  V30 5205 N 506.667 -0.859984 -2.77584 0
M  V30 5206 H 506.214 -1.46605 -2.11813 0
M  V30 5207 H 506.172 -0.0736671 -3.14314 0
M  V30 5208 N 509.944 0.496216 -1.49584 0
M  V30 5209 C 510.874 1.60576 -1.69521 0
M  V30 5210 C 511.855 1.61169 -0.543933 0
M  V30 5211 O 513.04 1.77834 -0.78031 0
M  V30 5212 C 510.17 2.99038 -1.76616 0
M  V30 5213 C 509.124 3.13312 -2.91581 0
M  V30 5214 C 508.45 4.53172 -2.83794 0
M  V30 5215 C 509.75 2.92886 -4.32452 0
M  V30 5216 H 511.444 1.44146 -2.62416 0
M  V30 5217 H 508.99 0.692024 -1.26282 0
M  V30 5218 H 510.943 3.76564 -1.8915 0
M  V30 5219 H 509.667 3.16568 -0.80324 0
M  V30 5220 H 508.326 2.38213 -2.78658 0
M  V30 5221 H 507.974 4.67585 -1.854 0
M  V30 5222 H 507.674 4.63662 -3.60958 0
M  V30 5223 H 509.198 5.32752 -2.98342 0
M  V30 5224 H 510.612 3.60178 -4.46032 0
M  V30 5225 H 509.009 3.14844 -5.10875 0
M  V30 5226 H 510.079 1.88966 -4.46565 0
M  V30 5227 N 511.423 1.38739 0.74761 0
M  V30 5228 C 512.834 1.31507 1.32524 0
M  V30 5229 C 513.185 -0.0263963 1.96182 0
M  V30 5230 O 512.31 -0.92849 1.95469 0
M  V30 5231 C 512.905 2.38162 2.40966 0
M  V30 5232 C 511.464 2.34489 2.94434 0
M  V30 5233 C 510.611 2.20712 1.67873 0
M  V30 5234 H 513.562 1.4901 0.546043 0
M  V30 5235 H 513.583 2.04222 3.21051 0
M  V30 5236 H 513.095 3.35783 1.94605 0
M  V30 5237 H 511.196 1.40467 3.45108 0
M  V30 5238 H 511.309 3.28861 3.48407 0
M  V30 5239 H 509.673 1.67667 1.91729 0
M  V30 5240 H 510.456 3.20285 1.23582 0
M  V30 5241 N 512.901 -0.976442 1.23707 0
M  V30 5242 C 514.129 -1.75341 1.09833 0
M  V30 5243 C 514.544 -1.8553 -0.349885 0
M  V30 5244 O 513.901 -1.33732 -1.24185 0
M  V30 5245 C 513.952 -3.17833 1.72233 0
M  V30 5246 O 513.673 -3.08167 3.11391 0
M  V30 5247 C 515.174 -4.11906 1.63853 0
M  V30 5248 H 512.394 -0.550137 0.384175 0
M  V30 5249 H 514.938 -1.2265 1.63638 0
M  V30 5250 H 513.093 -3.67538 1.22452 0
M  V30 5251 H 513.507 -3.97897 3.41729 0
M  V30 5252 H 514.981 -5.09579 2.12211 0
M  V30 5253 H 515.458 -4.35109 0.598092 0
M  V30 5254 H 516.064 -3.68107 2.13019 0
M  V30 5255 N 514.379 -1.04941 -1.1758 0
M  V30 5256 C 515.609 -0.777166 -1.91425 0
M  V30 5257 C 516.017 0.670647 -1.76915 0
M  V30 5258 O 515.36 1.46965 -1.10213 0
M  V30 5259 C 515.422 -1.07495 -3.43052 0
M  V30 5260 C 515.086 -2.51844 -3.81345 0
M  V30 5261 C 516.083 -3.50047 -3.844 0
M  V30 5262 C 513.768 -2.86787 -4.12382 0
M  V30 5263 C 515.762 -4.81239 -4.17957 0
M  V30 5264 C 513.449 -4.18182 -4.45608 0
M  V30 5265 C 514.447 -5.15219 -4.48373 0
M  V30 5266 O 514.135 -6.44258 -4.80819 0
M  V30 5267 H 513.867 -0.282209 -0.614275 0
M  V30 5268 H 516.421 -1.40258 -1.50056 0
M  V30 5269 H 514.651 -0.392437 -3.84704 0
M  V30 5270 H 516.34 -0.78912 -3.98155 0
M  V30 5271 H 517.106 -3.24391 -3.60548 0
M  V30 5272 H 512.985 -2.11922 -4.09402 0
M  V30 5273 H 516.529 -5.56974 -4.2003 0
M  V30 5274 H 512.426 -4.43602 -4.68922 0
M  V30 5275 H 513.194 -6.49041 -4.98686 0
M  V30 5276 N 515.857 1.33968 -0.830081 0
M  V30 5277 C 516.767 2.33164 -0.259207 0
M  V30 5278 C 517.783 1.62951 0.610164 0
M  V30 5279 O 518.959 1.94668 0.516369 0
M  V30 5280 C 516.024 3.42088 0.563598 0
M  V30 5281 C 515.085 4.28037 -0.329014 0
M  V30 5282 C 514.318 5.3176 0.454616 0
M  V30 5283 O 514.541 5.44876 1.6872 0
M  V30 5284 O 513.475 6.01669 -0.166794 0
M  V30 5285 H 517.301 2.83832 -1.08041 0
M  V30 5286 H 514.886 1.37154 -0.59239 0
M  V30 5287 H 516.768 4.08581 1.03147 0
M  V30 5288 H 515.443 2.93651 1.36201 0
M  V30 5289 H 514.35 3.64443 -0.844538 0
M  V30 5290 H 515.683 4.79934 -1.09196 0
M  V30 5291 N 517.335 0.585699 1.46312 0
M  V30 5292 C 518.265 -0.133556 2.33118 0
M  V30 5293 C 519.246 -0.880707 1.45525 0
M  V30 5294 O 520.431 -0.855579 1.74337 0
M  V30 5295 C 517.561 -1.14585 3.27853 0
M  V30 5296 C 516.515 -0.513341 4.2491 0
M  V30 5297 C 515.841 -1.63231 5.09175 0
M  V30 5298 C 517.141 0.551413 5.19381 0
M  V30 5299 H 518.835 0.59121 2.93505 0
M  V30 5300 H 516.381 0.285761 1.41136 0
M  V30 5301 H 518.334 -1.65741 3.87438 0
M  V30 5302 H 517.058 -1.90093 2.65579 0
M  V30 5303 H 515.717 -0.0228349 3.66593 0
M  V30 5304 H 515.365 -2.37713 4.43285 0
M  V30 5305 H 515.065 -1.21473 5.74907 0
M  V30 5306 H 516.589 -2.14658 5.71624 0
M  V30 5307 H 518.003 0.124804 5.73164 0
M  V30 5308 H 516.4 0.889486 5.93471 0
M  V30 5309 H 517.47 1.43655 4.63132 0
M  V30 5310 N 518.813 -1.54241 0.323641 0
M  V30 5311 C 520.061 -2.00174 -0.278359 0
M  V30 5312 C 520.382 -1.2134 -1.52648 0
M  V30 5313 O 519.652 -0.315244 -1.93347 0
M  V30 5314 H 518.232 -0.739463 -0.105845 0
M  V30 5315 H 520.894 -1.89864 0.440204 0
M  V30 5316 H 519.99 -3.07486 -0.5347 0
M  V30 5317 N 520.291 -0.0518155 -1.57515 0
M  V30 5318 C 521.516 0.634896 -1.97443 0
M  V30 5319 C 521.941 1.63546 -0.929207 0
M  V30 5320 O 521.299 1.80981 0.107484 0
M  V30 5321 C 521.347 1.29765 -3.36442 0
M  V30 5322 O 520.451 2.41333 -3.34413 0
M  V30 5323 H 519.792 0.164994 -0.643174 0
M  V30 5324 H 522.322 -0.120407 -2.04245 0
M  V30 5325 H 522.332 1.64918 -3.73184 0
M  V30 5326 H 521.007 0.564361 -4.12053 0
M  V30 5327 H 519.584 2.08122 -3.09418 0
M  V30 5328 N 521.769 1.56035 0.221574 0
M  V30 5329 C 522.716 1.92413 1.27459 0
M  V30 5330 C 523.686 0.781323 1.46576 0
M  V30 5331 O 524.871 1.03721 1.60145 0
M  V30 5332 C 522.011 2.24617 2.61995 0
M  V30 5333 C 521.124 3.51831 2.50677 0
M  V30 5334 C 520.259 3.73482 3.77736 0
M  V30 5335 C 519.298 4.94211 3.6114 0
M  V30 5336 N 518.435 5.12252 4.80148 0
M  V30 5337 H 523.275 2.82203 0.957355 0
M  V30 5338 H 520.812 1.39676 0.461415 0
M  V30 5339 H 522.77 2.41298 3.40339 0
M  V30 5340 H 521.4 1.38 2.91815 0
M  V30 5341 H 520.452 3.43343 1.63767 0
M  V30 5342 H 521.764 4.40328 2.34334 0
M  V30 5343 H 520.918 3.9026 4.64523 0
M  V30 5344 H 519.657 2.83266 3.97003 0
M  V30 5345 H 518.662 4.77384 2.72736 0
M  V30 5346 H 519.887 5.85912 3.43343 0
M  V30 5347 H 517.833 4.24978 4.99729 0
M  V30 5348 H 517.75 5.94881 4.66532 0
M  V30 5349 H 519.018 5.33465 5.68362 0
M  V30 5350 N 523.247 -0.488276 1.49845 0
M  V30 5351 C 524.21 -1.57069 1.66919 0
M  V30 5352 C 525.21 -1.51445 0.540479 0
M  V30 5353 O 526.4 -1.5437 0.807188 0
M  V30 5354 C 523.532 -2.96718 1.67844 0
M  V30 5355 H 524.725 -1.43254 2.63474 0
M  V30 5356 H 522.278 -0.713435 1.39068 0
M  V30 5357 H 523.013 -3.15996 0.7292 0
M  V30 5358 H 522.798 -3.02208 2.49826 0
M  V30 5359 H 524.288 -3.75335 1.83066 0
M  V30 5360 N 524.725 -1.39134 -0.740242 0
M  V30 5361 C 525.688 -1.37217 -1.83587 0
M  V30 5362 C 526.688 -0.270221 -1.58513 0
M  V30 5363 O 527.878 -0.527843 -1.6601 0
M  V30 5364 C 525.01 -1.13959 -3.21288 0
M  V30 5365 H 526.203 -2.34705 -1.86691 0
M  V30 5366 H 523.756 -1.24622 -0.94335 0
M  V30 5367 H 524.491 -0.17131 -3.23847 0
M  V30 5368 H 524.276 -1.93754 -3.40884 0
M  V30 5369 H 525.766 -1.15346 -4.01354 0
M  V30 5370 N 526.204 0.969867 -1.24223 0
M  V30 5371 C 527.432 1.74756 -1.10761 0
M  V30 5372 C 527.847 1.85713 0.340041 0
M  V30 5373 O 527.204 1.34389 1.23474 0
M  V30 5374 C 527.255 3.16915 -1.73917 0
M  V30 5375 O 526.976 3.06511 -3.13021 0
M  V30 5376 C 528.477 4.11032 -1.66036 0
M  V30 5377 H 525.697 0.548092 -0.387087 0
M  V30 5378 H 528.241 1.2178 -1.64286 0
M  V30 5379 H 526.396 3.66884 -1.244 0
M  V30 5380 H 526.81 3.96079 -3.43834 0
M  V30 5381 H 528.284 5.08446 -2.14911 0
M  V30 5382 H 528.761 4.34785 -0.621159 0
M  V30 5383 H 529.367 3.66972 -2.14969 0
M  V30 5384 N 527.682 1.05563 1.17022 0
M  V30 5385 C 529.098 0.777684 1.39371 0
M  V30 5386 C 529.298 -0.626269 1.91521 0
M  V30 5387 O 528.354 -1.38806 2.10924 0
M  V30 5388 C 529.667 1.83642 2.3811 0
M  V30 5389 C 531.215 1.85907 2.51809 0
M  V30 5390 C 531.69 2.90813 3.53824 0
M  V30 5391 N 533.181 2.898 3.61345 0
M  V30 5392 C 533.916 3.6762 4.40049 0
M  V30 5393 N 533.412 4.55237 5.22237 0
M  V30 5394 N 535.205 3.56044 4.34959 0
M  V30 5395 H 527.356 1.9614 0.815047 0
M  V30 5396 H 529.619 0.849527 0.420722 0
M  V30 5397 H 529.325 2.84425 2.06871 0
M  V30 5398 H 529.199 1.6812 3.37662 0
M  V30 5399 H 531.586 0.857865 2.82356 0
M  V30 5400 H 531.667 2.05506 1.52318 0
M  V30 5401 H 531.311 3.91122 3.24015 0
M  V30 5402 H 531.241 2.68465 4.53028 0
M  V30 5403 H 533.732 2.26274 3.02669 0
M  V30 5404 H 534.045 5.11291 5.79484 0
M  V30 5405 H 532.39 4.59296 5.21605 0
M  V30 5406 H 535.581 2.86986 3.69806 0
M  V30 5407 H 535.754 4.16938 4.96051 0
M  V30 5408 N 529.16 -1.33526 0.837174 0
M  V30 5409 C 530.108 -2.31168 0.257698 0
M  V30 5410 C 531.102 -1.5806 -0.609388 0
M  V30 5411 O 532.308 -1.72941 -0.499139 0
M  V30 5412 H 528.683 -0.74922 0.0646058 0
M  V30 5413 H 530.654 -2.77552 1.09578 0
M  V30 5414 C 529.403 -3.4326 -0.553887 0
M  V30 5415 H 528.726 -3.99665 0.104008 0
M  V30 5416 H 530.166 -4.13782 -0.925219 0
M  V30 5417 C 528.625 -2.88965 -1.73207 0
M  V30 5418 O 529.155 -2.85013 -2.83073 0
M  V30 5419 N 527.361 -2.45596 -1.55342 0
M  V30 5420 H 526.908 -2.49009 -0.659705 0
M  V30 5421 H 526.866 -2.0962 -2.34322 0
M  V30 5422 N 530.638 -0.59345 -1.46 0
M  V30 5423 C 531.863 -0.0872365 -2.07216 0
M  V30 5424 C 532.288 1.2131 -1.43755 0
M  V30 5425 O 531.646 1.73528 -0.525152 0
M  V30 5426 C 531.694 0.0538197 -3.6056 0
M  V30 5427 O 530.798 1.10765 -3.97247 0
M  V30 5428 H 530.139 -0.0676598 -0.660544 0
M  V30 5429 H 532.669 -0.819445 -1.87473 0
M  V30 5430 H 532.679 0.256567 -4.07193 0
M  V30 5431 H 531.354 -0.895739 -4.0614 0
M  V30 5432 H 529.931 0.882501 -3.62307 0
M  V30 5433 N 532.116 1.54067 -0.331816 0
M  V30 5434 C 533.341 2.05599 0.272705 0
M  V30 5435 C 533.766 1.2059 1.44359 0
M  V30 5436 O 533.124 0.216907 1.79998 0
M  V30 5437 C 533.172 3.54188 0.677021 0
M  V30 5438 O 532.276 3.72082 1.77844 0
M  V30 5439 H 531.617 0.662286 0.0476801 0
M  V30 5440 H 534.147 1.98826 -0.482624 0
M  V30 5441 H 534.157 3.96608 0.957415 0
M  V30 5442 H 532.832 4.15513 -0.179325 0
M  V30 5443 H 531.409 3.41566 1.49622 0
M  V30 5444 N 533.594 0.0601682 1.57485 0
M  V30 5445 C 534.842 -0.610386 1.92662 0
M  V30 5446 C 535.163 -1.70849 0.939981 0
M  V30 5447 O 534.433 -1.95895 -0.0137455 0
M  V30 5448 H 533.013 -0.228457 0.711208 0
M  V30 5449 H 535.675 0.115288 1.94559 0
M  V30 5450 H 534.771 -1.0432 2.94149 0
M  V30 5451 N 535.072 -1.5615 -0.213296 0
M  V30 5452 C 536.035 -1.92249 -1.24792 0
M  V30 5453 C 537.035 -0.801828 -1.39382 0
M  V30 5454 O 538.225 -1.06948 -1.37506 0
M  V30 5455 C 535.357 -2.18056 -2.62039 0
M  V30 5456 H 536.55 -2.84793 -0.939845 0
M  V30 5457 H 534.103 -1.49559 -0.454062 0
M  V30 5458 H 534.838 -1.2809 -2.97932 0
M  V30 5459 H 534.623 -2.99703 -2.52825 0
M  V30 5460 H 536.113 -2.47051 -3.36683 0
M  V30 5461 N 536.55 0.480323 -1.50102 0
M  V30 5462 C 537.796 1.23489 -1.60867 0
M  V30 5463 C 538.129 1.91809 -0.303827 0
M  V30 5464 O 537.404 1.81694 0.694092 0
M  V30 5465 C 537.687 2.28578 -2.78252 0
M  V30 5466 C 537.54 1.64624 -4.18592 0
M  V30 5467 C 538.859 3.2997 -2.91218 0
M  V30 5468 H 535.978 0.447605 -0.585507 0
M  V30 5469 H 538.62 0.530005 -1.82458 0
M  V30 5470 H 536.77 2.88697 -2.59974 0
M  V30 5471 H 538.442 1.08173 -4.48438 0
M  V30 5472 H 536.685 0.949645 -4.23278 0
M  V30 5473 H 537.356 2.40946 -4.96638 0
M  V30 5474 H 539.832 2.79864 -3.07921 0
M  V30 5475 H 538.708 4.00839 -3.74993 0
M  V30 5476 H 538.969 3.93541 -2.0144 0
M  V30 5477 N 538.028 1.39524 0.732853 0
M  V30 5478 C 539.277 1.36175 1.48792 0
M  V30 5479 C 539.59 -0.0388195 1.95561 0
M  V30 5480 O 540.796 -0.194899 2.708 0
M  V30 5481 C 539.252 2.39242 2.68871 0
M  V30 5482 C 538.86 3.85024 2.29042 0
M  V30 5483 C 540.604 2.44972 3.46683 0
M  V30 5484 C 538.511 4.79727 3.45856 0
M  V30 5485 H 537.441 0.506267 0.558757 0
M  V30 5486 H 540.092 1.65181 0.799226 0
M  V30 5487 H 538.474 2.0331 3.39825 0
M  V30 5488 H 539.648 4.30008 1.6562 0
M  V30 5489 H 537.963 3.82609 1.64316 0
M  V30 5490 H 540.56 3.12918 4.33574 0
M  V30 5491 H 540.903 1.4749 3.89297 0
M  V30 5492 H 541.436 2.79808 2.82759 0
M  V30 5493 H 538.175 5.78479 3.08289 0
M  V30 5494 H 537.695 4.39421 4.08251 0
M  V30 5495 H 539.374 4.98731 4.12161 0
M  V30 5496 N 539.506 -0.963266 1.24736 0
M  V30 5497 C 540.454 -2.07985 1.04139 0
M  V30 5498 C 541.448 -1.69381 -0.0250556 0
M  V30 5499 O 542.654 -1.79531 0.129863 0
M  V30 5500 H 539.029 -0.680627 0.319768 0
M  V30 5501 H 541 -2.22517 1.98818 0
M  V30 5502 C 539.749 -3.4123 0.667615 0
M  V30 5503 H 539.072 -3.71397 1.48 0
M  V30 5504 H 540.512 -4.20244 0.563136 0
M  V30 5505 C 538.971 -3.3104 -0.625647 0
M  V30 5506 O 539.501 -3.65334 -1.67016 0
M  V30 5507 N 537.707 -2.84168 -0.608033 0
M  V30 5508 H 537.254 -2.56458 0.242323 0
M  V30 5509 H 537.212 -2.77732 -1.47352 0
M  V30 5510 N 540.985 -1.06182 -1.16461 0
M  V30 5511 C 541.948 -0.675723 -2.19013 0
M  V30 5512 C 542.948 0.277963 -1.58379 0
M  V30 5513 O 544.138 0.0604962 -1.74095 0
M  V30 5514 C 541.27 0.00591459 -3.40899 0
M  V30 5515 H 542.463 -1.58353 -2.54685 0
M  V30 5516 H 540.016 -0.856908 -1.30716 0
M  V30 5517 H 540.751 0.92652 -3.10783 0
M  V30 5518 H 540.536 -0.67984 -3.86161 0
M  V30 5519 H 542.026 0.26181 -4.16778 0
M  V30 5520 N 542.463 1.3308 -0.844243 0
M  V30 5521 C 543.712 1.96868 -0.438833 0
M  V30 5522 C 544.025 1.67599 1.00846 0
M  V30 5523 O 545.231 2.25043 1.51881 0
M  V30 5524 C 543.687 3.5234 -0.73377 0
M  V30 5525 C 543.295 3.90481 -2.1961 0
M  V30 5526 C 545.039 4.22653 -0.395574 0
M  V30 5527 C 542.946 5.38954 -2.43481 0
M  V30 5528 H 541.876 0.736749 -0.160364 0
M  V30 5529 H 544.527 1.51623 -1.03358 0
M  V30 5530 H 542.909 3.95941 -0.068589 0
M  V30 5531 H 544.083 3.57922 -2.90221 0
M  V30 5532 H 542.398 3.33165 -2.4978 0
M  V30 5533 H 544.995 5.31848 -0.551477 0
M  V30 5534 H 545.338 4.11004 0.661921 0
M  V30 5535 H 545.871 3.84601 -1.01621 0
M  V30 5536 H 542.61 5.55612 -3.47816 0
M  V30 5537 H 542.13 5.72954 -1.77437 0
M  V30 5538 H 543.809 6.05907 -2.26905 0
M  V30 5539 N 543.941 0.601185 1.45683 0
M  V30 5540 C 544.904 -0.111398 2.28929 0
M  V30 5541 C 545.904 -0.801246 1.39416 0
M  V30 5542 O 547.094 -0.650383 1.61603 0
M  V30 5543 C 544.226 -1.16773 3.20276 0
M  V30 5544 H 545.419 0.620412 2.93413 0
M  V30 5545 H 542.972 0.359946 1.52099 0
M  V30 5546 H 543.707 -1.93051 2.60579 0
M  V30 5547 H 543.492 -0.677358 3.86205 0
M  V30 5548 H 544.982 -1.66698 3.82886 0
M  V30 5549 N 545.419 -1.53889 0.339982 0
M  V30 5550 C 546.329 -2.28604 -0.526988 0
M  V30 5551 C 547.345 -1.33578 -1.11503 0
M  V30 5552 O 548.521 -1.66612 -1.13148 0
M  V30 5553 C 545.586 -3.04164 -1.66389 0
M  V30 5554 C 544.647 -4.14809 -1.10599 0
M  V30 5555 C 543.88 -4.86756 -2.18871 0
M  V30 5556 O 544.103 -4.58343 -3.39526 0
M  V30 5557 O 543.037 -5.73289 -1.83366 0
M  V30 5558 H 546.863 -3.03594 0.0802707 0
M  V30 5559 H 544.448 -1.4903 0.105141 0
M  V30 5560 H 546.33 -3.51427 -2.32544 0
M  V30 5561 H 545.005 -2.32035 -2.25703 0
M  V30 5562 H 543.912 -3.71857 -0.409067 0
M  V30 5563 H 545.245 -4.89029 -0.557771 0
M  V30 5564 N 546.897 -0.0685191 -1.57451 0
M  V30 5565 C 548.122 0.613919 -1.98106 0
M  V30 5566 C 548.547 1.62551 -0.946501 0
M  V30 5567 O 547.905 1.81085 0.0882824 0
M  V30 5568 C 547.953 1.26189 -3.378 0
M  V30 5569 O 547.057 2.37773 -3.36954 0
M  V30 5570 H 546.398 0.158163 -0.644888 0
M  V30 5571 H 548.928 -0.142063 -2.04106 0
M  V30 5572 H 548.938 1.60951 -3.74912 0
M  V30 5573 H 547.613 0.520625 -4.12629 0
M  V30 5574 H 546.19 2.04829 -3.11608 0
M  V30 5575 N 548.375 1.56261 0.205012 0
M  V30 5576 C 549.621 1.80306 0.9283 0
M  V30 5577 C 549.954 0.640932 1.83319 0
M  V30 5578 O 549.229 -0.359032 1.91158 0
M  V30 5579 C 549.512 3.14547 1.75306 0
M  V30 5580 C 549.365 4.41236 0.873562 0
M  V30 5581 C 550.684 3.45382 2.72762 0
M  V30 5582 H 547.803 0.655929 0.336044 0
M  V30 5583 H 550.445 1.88984 0.196211 0
M  V30 5584 H 548.595 3.0728 2.37721 0
M  V30 5585 H 550.267 4.60539 0.264887 0
M  V30 5586 H 548.51 4.33427 0.179773 0
M  V30 5587 H 549.181 5.31639 1.48541 0
M  V30 5588 H 551.657 3.52884 2.20481 0
M  V30 5589 H 550.533 4.40449 3.2756 0
M  V30 5590 H 550.794 2.68377 3.51321 0
M  V30 5591 N 549.853 -0.472356 1.50355 0
M  V30 5592 C 551.264 -1.05326 1.54154 0
M  V30 5593 C 551.615 -1.93155 0.344303 0
M  V30 5594 O 550.74 -2.09479 -0.542928 0
M  V30 5595 C 551.335 -1.91691 2.79356 0
M  V30 5596 C 549.894 -2.44892 2.8584 0
M  V30 5597 C 549.041 -1.23205 2.48426 0
M  V30 5598 H 551.992 -0.255027 1.56637 0
M  V30 5599 H 552.013 -2.76742 2.6114 0
M  V30 5600 H 551.525 -1.27741 3.66475 0
M  V30 5601 H 549.626 -3.12399 2.0307 0
M  V30 5602 H 549.739 -2.80086 3.88701 0
M  V30 5603 H 548.103 -1.56643 2.00836 0
M  V30 5604 H 548.886 -0.609194 3.37852 0
M  V30 5605 N 551.331 -1.39911 -0.725443 0
M  V30 5606 C 552.556 -1.41137 -1.5197 0
M  V30 5607 C 552.981 -0.010262 -1.88097 0
M  V30 5608 O 552.339 0.979184 -1.52583 0
M  V30 5609 C 552.387 -2.2994 -2.77777 0
M  V30 5610 O 551.491 -1.73586 -3.74088 0
M  V30 5611 H 550.832 -0.480219 -0.458569 0
M  V30 5612 H 553.362 -1.84023 -0.894249 0
M  V30 5613 H 553.372 -2.44785 -3.26411 0
M  V30 5614 H 552.047 -3.31759 -2.50816 0
M  V30 5615 H 550.624 -1.68035 -3.32894 0
M  V30 5616 N 552.809 0.956637 -1.25245 0
M  V30 5617 C 554.056 1.701 -1.09874 0
M  V30 5618 C 554.384 1.91128 0.36062 0
M  V30 5619 O 553.639 1.47837 1.28229 0
M  V30 5620 C 553.938 3.08996 -1.79601 0
M  V30 5621 C 553.604 3.07774 -3.29523 0
M  V30 5622 C 552.266 3.07149 -3.70423 0
M  V30 5623 C 554.618 3.01257 -4.25316 0
M  V30 5624 C 551.946 2.97752 -5.0553 0
M  V30 5625 C 554.298 2.93403 -5.60444 0
M  V30 5626 C 552.962 2.91111 -6.00675 0
M  V30 5627 H 552.232 0.62244 -0.402056 0
M  V30 5628 H 554.879 1.1178 -1.55491 0
M  V30 5629 H 553.184 3.70848 -1.26408 0
M  V30 5630 H 554.881 3.65407 -1.65162 0
M  V30 5631 H 551.471 3.09032 -2.9698 0
M  V30 5632 H 555.655 3.00861 -3.9471 0
M  V30 5633 H 550.911 2.94346 -5.35883 0
M  V30 5634 H 555.085 2.87321 -6.34366 0
M  V30 5635 H 552.712 2.83586 -7.05325 0
M  V30 5636 N 554.287 1.06798 1.15896 0
M  V30 5637 C 555.534 0.787767 1.86549 0
M  V30 5638 C 555.862 -0.685959 1.82002 0
M  V30 5639 O 555.117 -1.5188 1.23414 0
M  V30 5640 C 555.416 1.23414 3.35416 0
M  V30 5641 C 555.082 2.71285 3.6016 0
M  V30 5642 C 553.744 3.11676 3.66622 0
M  V30 5643 C 556.096 3.6676 3.7032 0
M  V30 5644 C 553.424 4.4637 3.8075 0
M  V30 5645 C 555.776 5.01209 3.8597 0
M  V30 5646 C 554.44 5.41229 3.90676 0
M  V30 5647 H 553.71 0.288264 0.682631 0
M  V30 5648 H 556.357 1.338 1.37003 0
M  V30 5649 H 554.662 0.60319 3.87129 0
M  V30 5650 H 556.359 0.994298 3.88477 0
M  V30 5651 H 552.949 2.39015 3.55767 0
M  V30 5652 H 557.133 3.36685 3.64633 0
M  V30 5653 H 552.389 4.76855 3.82648 0
M  V30 5654 H 556.563 5.75067 3.92773 0
M  V30 5655 H 554.19 6.45602 4.01375 0
M  V30 5656 N 555.766 -1.3263 0.851289 0
M  V30 5657 C 557.014 -1.96978 0.452128 0
M  V30 5658 C 557.335 -1.67715 -0.99482 0
M  V30 5659 O 556.605 -0.98259 -1.69476 0
M  V30 5660 H 555.185 -0.72873 0.164202 0
M  V30 5661 H 557.847 -1.61774 1.08698 0
M  V30 5662 H 556.943 -3.06387 0.594407 0
M  V30 5663 N 557.244 -0.608902 -1.45362 0
M  V30 5664 C 558.492 -0.104401 -2.0183 0
M  V30 5665 C 558.813 1.27007 -1.47967 0
M  V30 5666 O 558.083 1.83924 -0.674455 0
M  V30 5667 H 556.663 -0.0356042 -0.746151 0
M  V30 5668 H 559.325 -0.790596 -1.78145 0
M  V30 5669 H 558.421 -0.0551793 -3.12051 0
M  V30 5670 N 558.722 1.53707 -0.348139 0
M  V30 5671 C 559.947 2.05877 0.250883 0
M  V30 5672 C 560.372 1.22115 1.43072 0
M  V30 5673 O 559.73 0.235986 1.79758 0
M  V30 5674 C 559.778 3.54886 0.639416 0
M  V30 5675 O 558.882 3.73948 1.73888 0
M  V30 5676 H 558.223 0.662754 0.040653 0
M  V30 5677 H 560.753 1.98303 -0.503685 0
M  V30 5678 H 560.763 3.97601 0.915295 0
M  V30 5679 H 559.438 4.153 -0.223386 0
M  V30 5680 H 558.015 3.43134 1.45991 0
M  V30 5681 N 560.2 0.0768682 1.57412 0
M  V30 5682 C 561.163 -0.873949 2.11884 0
M  V30 5683 C 562.163 -1.22301 1.04398 0
M  V30 5684 O 563.353 -1.15545 1.30365 0
M  V30 5685 C 560.485 -2.17575 2.62438 0
M  V30 5686 H 561.678 -0.401278 2.97203 0
M  V30 5687 H 559.231 -0.171904 1.55352 0
M  V30 5688 H 559.966 -2.69368 1.80587 0
M  V30 5689 H 559.751 -1.93534 3.41009 0
M  V30 5690 H 561.241 -2.85631 3.04639 0
M  V30 5691 N 561.678 -1.56367 -0.196722 0
M  V30 5692 C 562.955 -1.71359 -0.943159 0
M  V30 5693 C 563.335 -0.631192 -2.01443 0
M  V30 5694 O 562.683 0.358071 -2.25677 0
M  V30 5695 C 562.893 -3.13623 -1.53106 0
M  V30 5696 C 564.241 -3.73806 -2.01381 0
M  V30 5697 O 565.265 -3.16742 -1.62951 0
M  V30 5698 O 564.124 -4.73951 -2.7209 0
M  V30 5699 H 561.218 -0.698851 -0.442195 0
M  V30 5700 H 563.764 -1.68672 -0.186547 0
M  V30 5701 H 562.536 -3.83873 -0.758785 0
M  V30 5702 H 562.159 -3.20532 -2.35255 0
M  V30 5703 N 563.156 0.464375 -1.50603 0
M  V30 5704 C 564.086 1.56944 -1.72889 0
M  V30 5705 C 565.067 1.59979 -0.577997 0
M  V30 5706 O 566.252 1.76138 -0.817855 0
M  V30 5707 C 563.382 2.95225 -1.8292 0
M  V30 5708 C 562.336 3.07056 -2.98162 0
M  V30 5709 C 561.662 4.47051 -2.93343 0
M  V30 5710 C 562.962 2.83648 -4.38567 0
M  V30 5711 H 564.656 1.38547 -2.65415 0
M  V30 5712 H 562.202 0.665082 -1.27721 0
M  V30 5713 H 564.155 3.72467 -1.97095 0
M  V30 5714 H 562.879 3.14793 -0.870209 0
M  V30 5715 H 561.538 2.32248 -2.83648 0
M  V30 5716 H 561.186 4.63547 -1.95276 0
M  V30 5717 H 560.886 4.55902 -3.70712 0
M  V30 5718 H 562.41 5.26304 -3.09575 0
M  V30 5719 H 563.824 3.50636 -4.53572 0
M  V30 5720 H 562.221 3.03937 -5.17438 0
M  V30 5721 H 563.291 1.79451 -4.50472 0
M  V30 5722 N 564.634 1.40294 0.718013 0
M  V30 5723 C 565.597 1.4012 1.81381 0
M  V30 5724 C 566.597 0.295405 1.58063 0
M  V30 5725 O 567.787 0.554187 1.6515 0
M  V30 5726 C 564.919 1.19056 3.19435 0
M  V30 5727 H 566.112 2.37645 1.82933 0
M  V30 5728 H 563.665 1.26107 0.923405 0
M  V30 5729 H 564.4 0.222809 3.23534 0
M  V30 5730 H 564.185 1.99152 3.37758 0
M  V30 5731 H 565.675 1.21716 3.99468 0
M  V30 5732 N 566.112 -0.949982 1.2575 0
M  V30 5733 C 567.36 -1.6918 1.10555 0
M  V30 5734 C 567.681 -1.91773 -0.353298 0
M  V30 5735 O 566.951 -1.50814 -1.25027 0
M  V30 5736 H 565.531 -0.626952 0.406129 0
M  V30 5737 H 568.193 -1.1419 1.57945 0
M  V30 5738 H 567.289 -2.66915 1.61749 0
M  V30 5739 N 567.59 -1.07411 -1.15328 0
M  V30 5740 C 568.815 -0.818856 -1.90551 0
M  V30 5741 C 569.24 0.622194 -1.77512 0
M  V30 5742 O 568.598 1.43484 -1.10824 0
M  V30 5743 C 568.646 -1.23267 -3.38877 0
M  V30 5744 O 567.75 -0.378345 -4.10661 0
M  V30 5745 H 567.091 -0.29827 -0.593238 0
M  V30 5746 H 569.621 -1.43289 -1.46046 0
M  V30 5747 H 569.631 -1.20912 -3.89672 0
M  V30 5748 H 568.306 -2.28226 -3.47686 0
M  V30 5749 H 566.883 -0.464437 -3.69996 0
M  V30 5750 N 569.068 1.32177 -0.85831 0
M  V30 5751 C 570.016 2.30729 -0.294442 0
M  V30 5752 C 571.01 1.59009 0.584165 0
M  V30 5753 O 572.216 1.73713 0.471562 0
M  V30 5754 H 568.591 0.748097 -0.0765171 0
M  V30 5755 H 570.562 2.75774 -1.1398 0
M  V30 5756 C 569.311 3.44098 0.499208 0
M  V30 5757 H 568.634 3.99449 -0.167579 0
M  V30 5758 H 570.074 4.15202 0.859273 0
M  V30 5759 C 568.533 2.91684 1.68588 0
M  V30 5760 O 569.063 2.89481 2.78503 0
M  V30 5761 N 567.269 2.48036 1.51415 0
M  V30 5762 H 566.816 2.50027 0.620006 0
M  V30 5763 H 566.774 2.13322 2.30957 0
M  V30 5764 N 570.547 0.616602 1.45037 0
M  V30 5765 C 571.494 -0.0969439 2.30596 0
M  V30 5766 C 572.464 -0.851151 1.42635 0
M  V30 5767 O 573.649 -0.835092 1.71554 0
M  V30 5768 C 570.789 -1.08234 3.27688 0
M  V30 5769 C 569.902 -0.328072 4.30752 0
M  V30 5770 C 569.037 -1.30399 5.14946 0
M  V30 5771 C 568.076 -0.538049 6.09731 0
M  V30 5772 N 567.213 -1.46371 6.86673 0
M  V30 5773 H 572.053 0.63864 2.91076 0
M  V30 5774 H 569.59 0.326733 1.43425 0
M  V30 5775 H 571.548 -1.66688 3.82454 0
M  V30 5776 H 570.178 -1.78523 2.68941 0
M  V30 5777 H 569.23 0.372136 3.78575 0
M  V30 5778 H 570.542 0.269142 4.98073 0
M  V30 5779 H 569.696 -1.96032 5.74157 0
M  V30 5780 H 568.435 -1.93514 4.47665 0
M  V30 5781 H 567.44 0.131852 5.49642 0
M  V30 5782 H 568.665 0.0881732 6.79043 0
M  V30 5783 H 566.611 -2.08233 6.22073 0
M  V30 5784 H 566.528 -0.920152 7.50379 0
M  V30 5785 H 567.796 -2.10932 7.50418 0
M  V30 5786 N 572.025 -1.5352 0.356285 0
M  V30 5787 C 573.253 -2.05534 -0.237328 0
M  V30 5788 C 573.668 -1.23043 -1.43199 0
M  V30 5789 O 573.025 -0.268821 -1.80509 0
M  V30 5790 C 573.076 -3.55791 -0.639933 0
M  V30 5791 O 572.797 -4.35154 0.507233 0
M  V30 5792 C 574.298 -4.24027 -1.29292 0
M  V30 5793 H 571.518 -0.669585 -0.0435572 0
M  V30 5794 H 574.062 -1.97988 0.511963 0
M  V30 5795 H 572.217 -3.63518 -1.33915 0
M  V30 5796 H 572.631 -5.24178 0.18375 0
M  V30 5797 H 574.105 -5.30509 -1.52527 0
M  V30 5798 H 574.582 -3.77166 -2.25039 0
M  V30 5799 H 575.188 -4.20527 -0.63539 0
M  V30 5800 N 573.503 -0.0852151 -1.57369 0
M  V30 5801 C 574.733 0.588605 -1.98038 0
M  V30 5802 C 575.141 1.62869 -0.962817 0
M  V30 5803 O 574.484 1.83611 0.057134 0
M  V30 5804 C 574.546 1.30303 -3.35054 0
M  V30 5805 C 574.21 0.414855 -4.55113 0
M  V30 5806 C 575.207 -0.333011 -5.18832 0
M  V30 5807 C 572.892 0.335804 -5.01176 0
M  V30 5808 C 574.886 -1.14801 -6.26976 0
M  V30 5809 C 572.573 -0.482857 -6.09189 0
M  V30 5810 C 573.571 -1.22342 -6.71953 0
M  V30 5811 O 573.259 -2.02855 -7.77885 0
M  V30 5812 H 572.991 0.163249 -0.655992 0
M  V30 5813 H 575.545 -0.1582 -2.0479 0
M  V30 5814 H 573.775 2.0962 -3.24956 0
M  V30 5815 H 575.464 1.87041 -3.60237 0
M  V30 5816 H 576.23 -0.281611 -4.84182 0
M  V30 5817 H 572.109 0.901869 -4.52092 0
M  V30 5818 H 575.653 -1.72654 -6.75897 0
M  V30 5819 H 571.55 -0.535773 -6.43273 0
M  V30 5820 H 572.318 -1.95432 -7.94826 0
M  V30 5821 N 574.981 1.5647 0.188427 0
M  V30 5822 C 575.914 1.90146 1.26173 0
M  V30 5823 C 576.892 0.762294 1.43624 0
M  V30 5824 O 578.076 1.01395 1.58907 0
M  V30 5825 C 575.203 2.13748 2.62735 0
M  V30 5826 C 574.249 3.36448 2.62116 0
M  V30 5827 S 575.082 4.91364 2.12889 0
M  V30 5828 C 576.238 5.18041 3.51261 0
M  V30 5829 H 576.471 2.80886 0.974192 0
M  V30 5830 H 574.004 1.49335 0.392226 0
M  V30 5831 H 575.962 2.28028 3.41341 0
M  V30 5832 H 574.623 1.23747 2.88696 0
M  V30 5833 H 573.816 3.50109 3.62546 0
M  V30 5834 H 573.418 3.21196 1.91596 0
M  V30 5835 H 575.71 5.0897 4.47164 0
M  V30 5836 H 576.653 6.19764 3.42489 0
M  V30 5837 H 577.061 4.45657 3.46482 0
M  V30 5838 N 576.459 -0.456382 1.50847 0
M  V30 5839 C 577.407 -1.57318 1.71329 0
M  V30 5840 C 578.401 -1.59187 0.579287 0
M  V30 5841 O 579.607 -1.6316 0.76018 0
M  V30 5842 H 575.982 -0.5223 0.541024 0
M  V30 5843 H 577.953 -1.3721 2.64983 0
M  V30 5844 C 576.702 -2.95142 1.83811 0
M  V30 5845 H 576.025 -2.94428 2.70467 0
M  V30 5846 H 577.465 -3.72702 2.02161 0
M  V30 5847 C 575.924 -3.31636 0.593224 0
M  V30 5848 O 576.454 -4.00852 -0.260898 0
M  V30 5849 N 574.66 -2.87205 0.442902 0
M  V30 5850 H 574.207 -2.31051 1.13901 0
M  V30 5851 H 574.165 -3.11986 -0.38884 0
M  V30 5852 N 577.937 -1.40673 -0.710563 0
M  V30 5853 C 578.885 -1.41517 -1.84596 0
M  V30 5854 C 579.879 -0.295043 -1.66811 0
M  V30 5855 O 581.085 -0.466331 -1.73854 0
M  V30 5856 H 577.46 -0.442467 -0.608052 0
M  V30 5857 H 579.431 -2.37238 -1.80999 0
M  V30 5858 C 578.18 -1.29957 -3.225 0
M  V30 5859 H 577.503 -2.15429 -3.36794 0
M  V30 5860 H 578.943 -1.34608 -4.02066 0
M  V30 5861 C 577.402 -0.0103164 -3.36898 0
M  V30 5862 O 577.932 0.950707 -3.90288 0
M  V30 5863 N 576.138 0.0608409 -2.90536 0
M  V30 5864 H 575.685 -0.721943 -2.47277 0
M  V30 5865 H 575.643 0.92292 -3.00549 0
M  V30 5866 N 579.415 0.9433 -1.26252 0
M  V30 5867 C 580.325 2.07532 -1.09397 0
M  V30 5868 C 581.341 1.73977 -0.0280449 0
M  V30 5869 O 582.517 2.00067 -0.231337 0
M  V30 5870 C 579.582 3.39002 -0.726523 0
M  V30 5871 C 578.643 3.86353 -1.87163 0
M  V30 5872 C 577.876 5.11549 -1.52162 0
M  V30 5873 O 578.099 5.68834 -0.422385 0
M  V30 5874 O 577.033 5.53889 -2.35565 0
M  V30 5875 H 580.859 2.24658 -2.04359 0
M  V30 5876 H 578.444 1.05988 -1.05295 0
M  V30 5877 H 580.326 4.18 -0.534236 0
M  V30 5878 H 579.001 3.2312 0.193721 0
M  V30 5879 H 577.908 3.0831 -2.11886 0
M  V30 5880 H 579.241 4.06752 -2.77152 0
M  V30 5881 N 580.893 1.08022 1.14757 0
M  V30 5882 C 581.84 0.706657 2.19716 0
M  V30 5883 C 582.81 -0.30525 1.63271 0
M  V30 5884 O 583.995 -0.19015 1.8985 0
M  V30 5885 C 581.135 0.117914 3.44898 0
M  V30 5886 C 580.248 1.18212 4.15512 0
M  V30 5887 C 579.383 0.557659 5.28265 0
M  V30 5888 C 578.422 1.60418 5.90705 0
M  V30 5889 N 577.559 1.0018 6.94916 0
M  V30 5890 H 582.399 1.60603 2.51019 0
M  V30 5891 H 579.936 0.802664 1.23271 0
M  V30 5892 H 581.894 -0.241112 4.16503 0
M  V30 5893 H 580.524 -0.744788 3.1409 0
M  V30 5894 H 579.576 1.65863 3.42335 0
M  V30 5895 H 580.888 1.97533 4.5802 0
M  V30 5896 H 580.042 0.146654 6.06523 0
M  V30 5897 H 578.781 -0.267249 4.86967 0
M  V30 5898 H 577.786 2.02489 5.11154 0
M  V30 5899 H 579.011 2.43149 6.34078 0
M  V30 5900 H 576.957 0.197917 6.55701 0
M  V30 5901 H 576.874 1.73216 7.35889 0
M  V30 5902 H 578.142 0.616523 7.77058 0
M  V30 5903 N 582.371 -1.3172 0.865308 0
M  V30 5904 C 583.648 -1.91574 0.394789 0
M  V30 5905 C 584.028 -1.78769 -1.12271 0
M  V30 5906 O 583.376 -1.19245 -1.94918 0
M  V30 5907 C 583.586 -3.37957 0.870982 0
M  V30 5908 C 584.934 -4.15073 0.894384 0
M  V30 5909 O 585.958 -3.4672 0.816325 0
M  V30 5910 O 584.817 -5.37151 1.00651 0
M  V30 5911 H 581.911 -0.818649 0.117229 0
M  V30 5912 H 584.457 -1.4042 0.952913 0
M  V30 5913 H 583.229 -3.41269 1.91444 0
M  V30 5914 H 582.852 -3.96534 0.290907 0
M  V30 5915 N 583.85 -0.624285 -1.44708 0
M  V30 5916 C 585.096 -0.126051 -2.02107 0
M  V30 5917 C 585.425 1.2496 -1.49048 0
M  V30 5918 O 584.68 1.84163 -0.662005 0
M  V30 5919 C 584.979 -0.0546353 -3.57358 0
M  V30 5920 C 584.644 -1.36815 -4.29642 0
M  V30 5921 C 583.307 -1.72792 -4.49106 0
M  V30 5922 C 585.659 -2.23549 -4.70824 0
M  V30 5923 C 582.986 -2.95222 -5.07012 0
M  V30 5924 C 585.339 -3.45243 -5.30085 0
M  V30 5925 C 584.003 -3.81452 -5.47769 0
M  V30 5926 H 583.273 -0.0461252 -0.739563 0
M  V30 5927 H 585.92 -0.809236 -1.73562 0
M  V30 5928 H 584.225 0.711891 -3.85278 0
M  V30 5929 H 585.922 0.347282 -3.99493 0
M  V30 5930 H 582.512 -1.07817 -4.14817 0
M  V30 5931 H 586.696 -1.9705 -4.55505 0
M  V30 5932 H 581.952 -3.23361 -5.18891 0
M  V30 5933 H 586.125 -4.12689 -5.60946 0
M  V30 5934 H 583.753 -4.76403 -5.92405 0
M  V30 5935 N 585.328 1.53329 -0.364422 0
M  V30 5936 C 586.556 2.05657 0.226424 0
M  V30 5937 C 586.971 1.23801 1.42544 0
M  V30 5938 O 586.328 0.27839 1.80364 0
M  V30 5939 C 586.379 3.56125 0.621056 0
M  V30 5940 O 586.1 4.34879 -0.530304 0
M  V30 5941 C 587.601 4.24706 1.27041 0
M  V30 5942 H 584.821 0.669806 0.0400056 0
M  V30 5943 H 587.365 1.97714 -0.522456 0
M  V30 5944 H 585.52 3.64223 1.31985 0
M  V30 5945 H 585.934 5.24073 -0.211546 0
M  V30 5946 H 587.408 5.3131 1.49711 0
M  V30 5947 H 587.885 3.78354 2.23036 0
M  V30 5948 H 588.491 4.20858 0.613079 0
M  V30 5949 N 586.806 0.0935595 1.57322 0
M  V30 5950 C 588.222 -0.263091 1.57417 0
M  V30 5951 C 588.422 -1.68526 1.1046 0
M  V30 5952 O 587.478 -2.40139 0.780357 0
M  V30 5953 C 588.791 -0.0529201 3.00653 0
M  V30 5954 C 590.339 -0.120788 3.12767 0
M  V30 5955 C 590.814 0.0613707 4.57959 0
M  V30 5956 N 592.305 0.00648534 4.632 0
M  V30 5957 C 593.04 0.122699 5.73269 0
M  V30 5958 N 592.536 0.29366 6.92177 0
M  V30 5959 N 594.329 0.0640787 5.62063 0
M  V30 5960 H 586.48 1.02277 1.86154 0
M  V30 5961 H 588.743 0.4007 0.859153 0
M  V30 5962 H 588.449 0.929279 3.39201 0
M  V30 5963 H 588.323 -0.795899 3.68708 0
M  V30 5964 H 590.71 -1.09349 2.74093 0
M  V30 5965 H 590.791 0.653656 2.47307 0
M  V30 5966 H 590.435 1.03093 4.97327 0
M  V30 5967 H 590.365 -0.732748 5.21477 0
M  V30 5968 H 592.856 -0.123173 3.77699 0
M  V30 5969 H 593.169 0.37389 7.71895 0
M  V30 5970 H 591.514 0.329307 6.94219 0
M  V30 5971 H 594.705 -0.0683396 4.6805 0
M  V30 5972 H 594.878 0.158097 6.47807 0
M  V30 5973 N 588.284 -1.56567 -0.180126 0
M  V30 5974 C 589.561 -1.7235 -0.924931 0
M  V30 5975 C 589.941 -0.652523 -2.00762 0
M  V30 5976 O 589.289 0.334115 -2.26044 0
M  V30 5977 C 589.499 -3.1523 -1.49771 0
M  V30 5978 C 590.847 -3.75921 -1.97405 0
M  V30 5979 O 591.871 -3.18452 -1.59583 0
M  V30 5980 O 590.73 -4.7681 -2.67048 0
M  V30 5981 H 587.824 -0.703502 -0.434758 0
M  V30 5982 H 590.37 -1.6886 -0.168647 0
M  V30 5983 H 589.142 -3.84656 -0.718027 0
M  V30 5984 H 588.765 -3.23009 -2.31842 0
M  V30 5985 N 589.762 0.448376 -1.51087 0
M  V30 5986 C 591.039 1.20926 -1.53741 0
M  V30 5987 C 591.419 2.09025 -0.295222 0
M  V30 5988 O 590.767 2.16851 0.720283 0
M  V30 5989 C 590.977 2.02067 -2.84552 0
M  V30 5990 C 592.325 2.59486 -3.36084 0
M  V30 5991 O 593.349 2.12289 -2.86028 0
M  V30 5992 O 592.208 3.45539 -4.23397 0
M  V30 5993 H 589.302 0.549951 -0.617643 0
M  V30 5994 H 591.848 0.458344 -1.63393 0
M  V30 5995 H 590.62 1.37291 -3.66425 0
M  V30 5996 H 590.243 2.84246 -2.78011 0
M  V30 5997 N 591.24 1.41047 0.703093 0
M  V30 5998 C 592.47 1.43133 1.48985 0
M  V30 5999 C 592.878 0.0328537 1.89171 0
M  V30 6000 O 592.221 -0.956469 1.56835 0
M  V30 6001 C 592.283 2.26991 2.78775 0
M  V30 6002 C 591.947 3.7525 2.60837 0
M  V30 6003 C 592.944 4.67591 2.27276 0
M  V30 6004 C 590.629 4.19208 2.76712 0
M  V30 6005 C 592.623 6.01877 2.09817 0
M  V30 6006 C 590.31 5.53561 2.5887 0
M  V30 6007 C 591.308 6.4471 2.25472 0
M  V30 6008 O 590.996 7.76584 2.07778 0
M  V30 6009 H 590.728 0.489788 0.465922 0
M  V30 6010 H 593.282 1.85886 0.873822 0
M  V30 6011 H 591.512 1.79038 3.42757 0
M  V30 6012 H 593.201 2.20867 3.40547 0
M  V30 6013 H 593.967 4.34923 2.14633 0
M  V30 6014 H 589.846 3.48572 3.01693 0
M  V30 6015 H 593.39 6.72986 1.83671 0
M  V30 6016 H 589.287 5.85811 2.71102 0
M  V30 6017 H 590.055 7.87649 2.22601 0
M  V30 6018 N 592.718 -0.936591 1.26751 0
M  V30 6019 C 593.943 -1.72288 1.15462 0
M  V30 6020 C 594.368 -1.85915 -0.285887 0
M  V30 6021 O 593.726 -1.35272 -1.20711 0
M  V30 6022 C 593.774 -3.10503 1.83359 0
M  V30 6023 O 592.878 -3.96745 1.1255 0
M  V30 6024 H 592.219 -0.52843 0.402067 0
M  V30 6025 H 594.749 -1.17271 1.67656 0
M  V30 6026 H 594.759 -3.60867 1.90365 0
M  V30 6027 H 593.434 -2.99901 2.88153 0
M  V30 6028 H 592.011 -3.55191 1.13551 0
M  V30 6029 N 594.196 -1.08629 -1.14182 0
M  V30 6030 C 595.444 -0.815731 -1.84906 0
M  V30 6031 C 595.765 0.660441 -1.83475 0
M  V30 6032 O 595.035 1.47888 -1.28476 0
M  V30 6033 H 593.615 -0.298773 -0.684648 0
M  V30 6034 H 596.277 -1.37274 -1.38354 0
M  V30 6035 H 595.373 -1.16193 -2.89665 0
M  V30 6036 N 595.674 1.31259 -0.872281 0
M  V30 6037 C 596.621 2.28459 -0.327857 0
M  V30 6038 C 597.591 1.55831 0.574957 0
M  V30 6039 O 598.776 1.83965 0.506101 0
M  V30 6040 C 595.916 3.41985 0.462644 0
M  V30 6041 C 595.029 4.29458 -0.467949 0
M  V30 6042 C 594.164 5.30131 0.336903 0
M  V30 6043 C 593.203 6.0925 -0.58997 0
M  V30 6044 N 592.34 7.01872 0.178775 0
M  V30 6045 H 597.18 2.74414 -1.16193 0
M  V30 6046 H 594.717 1.34994 -0.584376 0
M  V30 6047 H 596.675 4.06547 0.936759 0
M  V30 6048 H 595.305 2.97134 1.2614 0
M  V30 6049 H 594.357 3.65318 -1.06052 0
M  V30 6050 H 595.669 4.84677 -1.17856 0
M  V30 6051 H 594.823 6.0038 0.873427 0
M  V30 6052 H 593.562 4.75573 1.08079 0
M  V30 6053 H 592.567 5.37889 -1.13823 0
M  V30 6054 H 593.792 6.65894 -1.33275 0
M  V30 6055 H 591.738 6.49721 0.905435 0
M  V30 6056 H 591.655 7.54522 -0.472452 0
M  V30 6057 H 592.923 7.76382 0.696454 0
M  V30 6058 N 597.152 0.631951 1.44375 0
M  V30 6059 C 598.1 -0.0846693 2.32446 0
M  V30 6060 C 599.094 -0.834957 1.47393 0
M  V30 6061 O 600.3 -0.747764 1.63733 0
M  V30 6062 H 596.675 -0.0461508 0.750583 0
M  V30 6063 H 598.646 0.67619 2.90638 0
M  V30 6064 C 597.395 -1.05211 3.314 0
M  V30 6065 H 596.718 -0.484203 3.96857 0
M  V30 6066 H 598.158 -1.523 3.95703 0
M  V30 6067 C 596.617 -2.13776 2.60387 0
M  V30 6068 O 597.147 -3.21869 2.4034 0
M  V30 6069 N 595.353 -1.89733 2.20113 0
M  V30 6070 H 594.9 -1.01833 2.36618 0
M  V30 6071 H 594.858 -2.62572 1.72926 0
M  V30 6072 N 598.631 -1.53133 0.372548 0
M  V30 6073 C 599.88 -2.00539 -0.216115 0
M  V30 6074 C 600.193 -1.26374 -1.49295 0
M  V30 6075 O 601.399 -1.64404 -2.16064 0
M  V30 6076 C 599.855 -3.57253 -0.435678 0
M  V30 6077 C 599.463 -4.40302 0.82693 0
M  V30 6078 C 601.207 -4.12995 -0.981618 0
M  V30 6079 C 599.114 -5.88583 0.576567 0
M  V30 6080 H 598.044 -0.749246 -0.084536 0
M  V30 6081 H 600.695 -1.76771 0.492364 0
M  V30 6082 H 599.077 -3.77202 -1.20559 0
M  V30 6083 H 600.251 -4.32124 1.60017 0
M  V30 6084 H 598.566 -3.95699 1.29659 0
M  V30 6085 H 601.163 -5.21418 -1.18436 0
M  V30 6086 H 601.506 -3.68027 -1.94581 0
M  V30 6087 H 602.039 -3.96871 -0.271696 0
M  V30 6088 H 598.778 -6.37841 1.51128 0
M  V30 6089 H 598.298 -5.99592 -0.158047 0
M  V30 6090 H 599.977 -6.46676 0.204722 0
M  V30 6091 N 600.109 -0.101901 -1.5727 0
M  V30 6092 C 601.355 0.554864 -1.95686 0
M  V30 6093 C 601.71 1.65368 -0.983415 0
M  V30 6094 O 601.003 1.91597 -0.0105374 0
M  V30 6095 C 601.197 1.14898 -3.38427 0
M  V30 6096 C 601.026 0.109251 -4.49567 0
M  V30 6097 C 599.796 -0.316633 -5.04307 0
M  V30 6098 C 601.994 -0.665196 -5.0998 0
M  V30 6099 N 599.976 -1.34393 -5.99009 0
M  V30 6100 C 601.347 -1.54413 -6.00464 0
M  V30 6101 C 603.402 -0.717966 -4.92696 0
M  V30 6102 C 602.105 -2.47122 -6.75517 0
M  V30 6103 C 604.131 -1.63268 -5.68417 0
M  V30 6104 C 603.493 -2.49923 -6.58572 0
M  V30 6105 H 599.592 0.17317 -0.762585 0
M  V30 6106 H 602.176 -0.18605 -1.93809 0
M  V30 6107 H 600.347 1.85969 -3.40984 0
M  V30 6108 H 602.079 1.76867 -3.64006 0
M  V30 6109 H 598.834 0.0724419 -4.73545 0
M  V30 6110 H 599.258 -1.85598 -6.51062 0
M  V30 6111 H 603.9 -0.0621637 -4.22754 0
M  V30 6112 H 601.618 -3.13724 -7.44717 0
M  V30 6113 H 605.204 -1.67874 -5.57054 0
M  V30 6114 H 604.084 -3.19553 -7.16139 0
M  V30 6115 N 601.587 1.56661 0.17182 0
M  V30 6116 C 602.817 1.85831 0.902804 0
M  V30 6117 C 603.225 0.685157 1.76358 0
M  V30 6118 O 602.568 -0.354947 1.80238 0
M  V30 6119 C 602.63 3.09406 1.83053 0
M  V30 6120 C 602.294 4.4231 1.1494 0
M  V30 6121 C 603.291 5.17342 0.515104 0
M  V30 6122 C 600.976 4.89045 1.14631 0
M  V30 6123 C 602.97 6.37299 -0.113194 0
M  V30 6124 C 600.657 6.08933 0.514184 0
M  V30 6125 C 601.655 6.82904 -0.114463 0
M  V30 6126 O 601.343 8.00518 -0.736622 0
M  V30 6127 H 601.075 0.620715 0.267748 0
M  V30 6128 H 603.629 2.04637 0.176918 0
M  V30 6129 H 601.859 2.86544 2.59672 0
M  V30 6130 H 603.548 3.25027 2.4313 0
M  V30 6131 H 604.314 4.82317 0.509474 0
M  V30 6132 H 600.193 4.31409 1.62502 0
M  V30 6133 H 603.737 6.94976 -0.604477 0
M  V30 6134 H 599.634 6.43423 0.517395 0
M  V30 6135 H 600.402 8.16027 -0.635822 0
M  V30 6136 N 603.065 -0.440357 1.51323 0
M  V30 6137 C 604.313 -1.18769 1.63518 0
M  V30 6138 C 604.634 -1.91793 0.352201 0
M  V30 6139 O 603.904 -1.85432 -0.631811 0
M  V30 6140 H 602.484 -0.441408 0.602634 0
M  V30 6141 H 605.146 -0.505162 1.8824 0
M  V30 6142 H 604.242 -1.91892 2.46138 0
M  V30 6143 N 604.543 -1.41418 -0.695603 0
M  V30 6144 C 605.789 -1.40982 -1.4578 0
M  V30 6145 C 606.122 -0.0187763 -1.94191 0
M  V30 6146 O 605.397 0.95346 -1.69527 0
M  V30 6147 C 605.68 -2.41657 -2.66972 0
M  V30 6148 C 605.533 -3.89869 -2.24327 0
M  V30 6149 C 606.852 -2.39589 -3.69168 0
M  V30 6150 H 603.971 -0.513405 -0.528757 0
M  V30 6151 H 606.613 -1.72693 -0.792275 0
M  V30 6152 H 604.763 -2.14746 -3.23754 0
M  V30 6153 H 606.435 -4.27683 -1.72872 0
M  V30 6154 H 604.678 -4.04737 -1.56111 0
M  V30 6155 H 605.349 -4.55857 -3.11285 0
M  V30 6156 H 607.825 -2.63471 -3.2206 0
M  V30 6157 H 606.701 -3.12044 -4.51575 0
M  V30 6158 H 606.962 -1.41447 -4.18862 0
M  V30 6159 N 606.021 0.929856 -1.27246 0
M  V30 6160 C 607.437 1.20542 -1.04603 0
M  V30 6161 C 607.637 2.00276 0.221754 0
M  V30 6162 O 606.693 2.34835 0.927833 0
M  V30 6163 C 608.006 1.95566 -2.28417 0
M  V30 6164 C 609.554 2.08513 -2.33433 0
M  V30 6165 C 610.029 2.86943 -3.5697 0
M  V30 6166 N 611.52 2.94512 -3.57515 0
M  V30 6167 C 612.255 3.55656 -4.49774 0
M  V30 6168 N 611.751 4.18209 -5.52334 0
M  V30 6169 N 613.544 3.53038 -4.37402 0
M  V30 6170 H 605.695 0.397113 -2.08655 0
M  V30 6171 H 607.958 0.238277 -0.917566 0
M  V30 6172 H 607.664 1.44395 -3.20691 0
M  V30 6173 H 607.538 2.9619 -2.33563 0
M  V30 6174 H 609.925 2.58872 -1.41666 0
M  V30 6175 H 610.006 1.07117 -2.32292 0
M  V30 6176 H 609.65 2.37268 -4.49072 0
M  V30 6177 H 609.58 3.8862 -3.55362 0
M  V30 6178 H 612.071 2.50053 -2.83341 0
M  V30 6179 H 612.384 4.62796 -6.18902 0
M  V30 6180 H 610.729 4.16761 -5.56179 0
M  V30 6181 H 613.92 3.0337 -3.56489 0
M  V30 6182 H 614.093 4.004 -5.09493 0
M  V30 6183 N 607.499 1.09233 1.13605 0
M  V30 6184 C 608.409 0.741939 2.22559 0
M  V30 6185 C 609.425 -0.255236 1.72118 0
M  V30 6186 O 610.601 -0.0970747 2.01166 0
M  V30 6187 C 607.666 0.165595 3.46304 0
M  V30 6188 C 606.727 1.21846 4.11645 0
M  V30 6189 C 605.96 0.669526 5.29484 0
M  V30 6190 O 606.183 -0.508228 5.68131 0
M  V30 6191 O 605.117 1.42361 5.84822 0
M  V30 6192 H 608.943 1.65107 2.54899 0
M  V30 6193 H 606.528 0.866584 1.21699 0
M  V30 6194 H 608.41 -0.152592 4.21124 0
M  V30 6195 H 607.085 -0.716573 3.15669 0
M  V30 6196 H 605.992 1.58931 3.38662 0
M  V30 6197 H 607.325 2.07321 4.46407 0
M  V30 6198 N 608.977 -1.30795 0.87923 0
M  V30 6199 C 610.224 -1.96362 0.494786 0
M  V30 6200 C 610.552 -1.69448 -0.954868 0
M  V30 6201 O 609.807 -0.988711 -1.68888 0
M  V30 6202 C 610.106 -3.50287 0.709476 0
M  V30 6203 C 609.772 -3.9724 2.13333 0
M  V30 6204 C 608.434 -4.09772 2.52271 0
M  V30 6205 C 610.786 -4.21807 3.06151 0
M  V30 6206 C 608.114 -4.44227 3.83248 0
M  V30 6207 C 610.466 -4.5773 4.36654 0
M  V30 6208 C 609.13 -4.68469 4.75492 0
M  V30 6209 H 608.4 -0.71854 0.181055 0
M  V30 6210 H 611.047 -1.55764 1.11399 0
M  V30 6211 H 609.352 -3.91799 0.0072 0
M  V30 6212 H 611.049 -3.99082 0.391703 0
M  V30 6213 H 607.639 -3.87988 1.82107 0
M  V30 6214 H 611.823 -4.11611 2.77291 0
M  V30 6215 H 607.079 -4.50741 4.13089 0
M  V30 6216 H 611.253 -4.7569 5.08617 0
M  V30 6217 H 608.88 -4.94923 5.77022 0
M  V30 6218 N 610.455 -0.639598 -1.44038 0
M  V30 6219 C 611.418 0.0506628 -2.29144 0
M  V30 6220 C 612.418 0.764001 -1.41491 0
M  V30 6221 O 613.608 0.607309 -1.63271 0
M  V30 6222 C 610.74 1.0824 -3.2326 0
M  V30 6223 H 611.933 -0.697987 -2.91664 0
M  V30 6224 H 609.486 -0.400146 -1.51091 0
M  V30 6225 H 610.221 1.86075 -2.65606 0
M  V30 6226 H 610.006 0.574725 -3.87865 0
M  V30 6227 H 611.496 1.56487 -3.87171 0
M  V30 6228 N 611.933 1.52934 -0.380664 0
M  V30 6229 C 612.866 2.22597 0.502564 0
M  V30 6230 C 613.844 1.22345 1.071 0
M  V30 6231 O 615.028 1.51302 1.12428 0
M  V30 6232 C 612.155 2.93246 1.69482 0
M  V30 6233 C 611.201 4.07696 1.25244 0
M  V30 6234 S 612.034 5.34957 0.241159 0
M  V30 6235 C 613.19 6.09124 1.4394 0
M  V30 6236 H 613.423 2.97167 -0.089029 0
M  V30 6237 H 610.956 1.53518 -0.164817 0
M  V30 6238 H 612.914 3.34562 2.37863 0
M  V30 6239 H 611.575 2.18373 2.2577 0
M  V30 6240 H 610.768 4.56199 2.1424 0
M  V30 6241 H 610.37 3.68349 0.647664 0
M  V30 6242 H 612.662 6.34771 2.36794 0
M  V30 6243 H 613.605 7.01068 0.995464 0
M  V30 6244 H 614.013 5.39777 1.65229 0
M  V30 6245 N 613.412 0.11024 1.57214 0
M  V30 6246 C 614.66 -0.548783 1.94506 0
M  V30 6247 C 614.981 -1.67772 0.99386 0
M  V30 6248 O 614.251 -1.9584 0.0485841 0
M  V30 6249 H 612.831 -0.205715 0.718116 0
M  V30 6250 H 615.493 0.177127 1.94093 0
M  V30 6251 H 614.589 -0.949096 2.97319 0
M  V30 6252 N 614.89 -1.56749 -0.16351 0
M  V30 6253 C 615.853 -1.96121 -1.18613 0
M  V30 6254 C 616.853 -0.845765 -1.36761 0
M  V30 6255 O 618.043 -1.11268 -1.34033 0
M  V30 6256 C 615.175 -2.26282 -2.54969 0
M  V30 6257 H 616.368 -2.87639 -0.848764 0
M  V30 6258 H 613.921 -1.50928 -0.406251 0
M  V30 6259 H 614.656 -1.37504 -2.93706 0
M  V30 6260 H 614.441 -3.07595 -2.43162 0
M  V30 6261 H 615.931 -2.57638 -3.28653 0
M  V30 6262 N 616.368 0.432326 -1.51554 0
M  V30 6263 C 617.331 1.50765 -1.72634 0
M  V30 6264 C 618.331 1.49334 -0.596314 0
M  V30 6265 O 619.521 1.51268 -0.863925 0
M  V30 6266 C 616.653 2.90284 -1.7874 0
M  V30 6267 H 617.846 1.33377 -2.68609 0
M  V30 6268 H 615.399 0.661329 -1.4162 0
M  V30 6269 H 616.134 3.13071 -0.845977 0
M  V30 6270 H 615.919 2.92727 -2.6087 0
M  V30 6271 H 617.409 3.68282 -1.96871 0
M  V30 6272 N 617.846 1.41785 0.688094 0
M  V30 6273 C 618.779 1.38643 1.81255 0
M  V30 6274 C 619.757 0.252583 1.60626 0
M  V30 6275 O 620.941 0.440691 1.83276 0
M  V30 6276 C 618.068 1.16449 3.18053 0
M  V30 6277 C 617.114 2.32651 3.57457 0
M  V30 6278 S 617.947 3.95152 3.61407 0
M  V30 6279 C 619.103 3.75275 5.00919 0
M  V30 6280 H 619.336 2.33799 1.83644 0
M  V30 6281 H 616.869 1.28398 0.857513 0
M  V30 6282 H 618.827 1.0433 3.97021 0
M  V30 6283 H 617.488 0.229002 3.13264 0
M  V30 6284 H 616.681 2.12835 4.56856 0
M  V30 6285 H 616.283 2.41215 2.85817 0
M  V30 6286 H 618.575 3.35443 5.88629 0
M  V30 6287 H 619.518 4.74302 5.25778 0
M  V30 6288 H 619.926 3.08401 4.7281 0
M  V30 6289 N 619.324 -0.923095 1.27737 0
M  V30 6290 C 620.272 -2.04567 1.10703 0
M  V30 6291 C 621.266 -1.69375 0.0288445 0
M  V30 6292 O 622.472 -1.79027 0.186913 0
M  V30 6293 H 618.847 -0.670109 0.34126 0
M  V30 6294 H 620.818 -2.1608 2.05796 0
M  V30 6295 C 619.567 -3.38934 0.775837 0
M  V30 6296 H 618.89 -3.66501 1.59741 0
M  V30 6297 H 620.33 -4.18239 0.696548 0
M  V30 6298 C 618.789 -3.32863 -0.520012 0
M  V30 6299 O 619.319 -3.70462 -1.55308 0
M  V30 6300 N 617.525 -2.85958 -0.51732 0
M  V30 6301 H 617.072 -2.55557 0.32379 0
M  V30 6302 H 617.03 -2.82279 -1.38441 0
M  V30 6303 N 620.802 -1.09834 -1.13024 0
M  V30 6304 C 622.05 -0.835297 -1.8403 0
M  V30 6305 C 622.371 0.640944 -1.84165 0
M  V30 6306 O 621.641 1.46517 -1.30037 0
M  V30 6307 H 620.221 -0.306018 -0.681441 0
M  V30 6308 H 622.883 -1.38734 -1.36891 0
M  V30 6309 H 621.979 -1.19258 -2.88416 0
M  V30 6310 N 622.28 1.30327 -0.886154 0
M  V30 6311 C 623.529 1.95373 -0.501243 0
M  V30 6312 C 623.842 1.70722 0.954634 0
M  V30 6313 O 625.048 2.29761 1.44644 0
M  V30 6314 C 623.504 3.49828 -0.845493 0
M  V30 6315 C 623.112 3.83296 -2.31922 0
M  V30 6316 C 624.856 4.2118 -0.529838 0
M  V30 6317 C 622.763 5.30935 -2.60504 0
M  V30 6318 H 621.693 0.731274 -0.183722 0
M  V30 6319 H 624.344 1.48258 -1.08129 0
M  V30 6320 H 622.726 3.95522 -0.19452 0
M  V30 6321 H 623.9 3.48508 -3.01461 0
M  V30 6322 H 622.215 3.2505 -2.60253 0
M  V30 6323 H 624.812 5.29825 -0.720401 0
M  V30 6324 H 625.155 4.12902 0.530828 0
M  V30 6325 H 625.688 3.81173 -1.13806 0
M  V30 6326 H 622.427 5.44265 -3.65316 0
M  V30 6327 H 621.947 5.67019 -1.95575 0
M  V30 6328 H 623.626 5.98381 -2.46066 0
M  V30 6329 N 623.758 0.647228 1.43697 0
M  V30 6330 C 624.721 -0.0385101 2.29168 0
M  V30 6331 C 625.721 -0.756487 1.41894 0
M  V30 6332 O 626.911 -0.598641 1.63591 0
M  V30 6333 C 624.043 -1.06524 3.23829 0
M  V30 6334 H 625.236 0.713445 2.9129 0
M  V30 6335 H 622.789 0.408153 1.50877 0
M  V30 6336 H 623.524 -1.84664 2.66589 0
M  V30 6337 H 623.309 -0.554147 3.88164 0
M  V30 6338 H 624.799 -1.54432 3.87996 0
M  V30 6339 N 625.236 -1.5273 0.388769 0
M  V30 6340 C 626.166 -2.29353 -0.438111 0
M  V30 6341 C 627.147 -1.32719 -1.06394 0
M  V30 6342 O 628.332 -1.61612 -1.07681 0
M  V30 6343 C 625.462 -3.09995 -1.56589 0
M  V30 6344 C 624.416 -4.14509 -1.06613 0
M  V30 6345 C 623.742 -4.83372 -2.28594 0
M  V30 6346 C 625.042 -5.22127 -0.134459 0
M  V30 6347 H 626.736 -2.98723 0.201206 0
M  V30 6348 H 624.282 -1.43665 0.0982089 0
M  V30 6349 H 626.235 -3.62357 -2.15118 0
M  V30 6350 H 624.959 -2.38357 -2.23279 0
M  V30 6351 H 623.618 -3.63128 -0.503383 0
M  V30 6352 H 623.266 -4.08283 -2.93792 0
M  V30 6353 H 622.966 -5.54012 -1.95817 0
M  V30 6354 H 624.49 -5.38538 -2.87766 0
M  V30 6355 H 625.904 -5.69851 -0.627914 0
M  V30 6356 H 624.301 -6.00011 0.103534 0
M  V30 6357 H 625.371 -4.77971 0.816798 0
M  V30 6358 N 626.714 -0.118576 -1.57153 0
M  V30 6359 C 627.664 0.842924 -2.11846 0
M  V30 6360 C 628.648 1.22845 -1.03914 0
M  V30 6361 O 629.84 1.19961 -1.30148 0
M  V30 6362 C 626.969 2.09312 -2.72109 0
M  V30 6363 C 626.055 1.73198 -3.87122 0
M  V30 6364 N 626.446 1.07758 -4.94188 0
M  V30 6365 C 624.744 2.02659 -3.97298 0
M  V30 6366 C 625.445 0.907741 -5.74574 0
M  V30 6367 N 624.421 1.4326 -5.24383 0
M  V30 6368 H 628.223 0.333416 -2.92003 0
M  V30 6369 H 625.737 0.0839073 -1.62183 0
M  V30 6370 H 627.734 2.79162 -3.09635 0
M  V30 6371 H 626.394 2.60807 -1.93416 0
M  V30 6372 H 627.405 0.741613 -5.12563 0
M  V30 6373 H 624.082 2.56204 -3.29645 0
M  V30 6374 H 625.472 0.394112 -6.70743 0
M  V30 6375 N 628.193 1.56834 0.155195 0
M  V30 6376 C 629.441 1.82536 0.867462 0
M  V30 6377 C 629.762 0.698168 1.82073 0
M  V30 6378 O 629.032 -0.280807 1.93877 0
M  V30 6379 H 627.612 0.673401 0.323327 0
M  V30 6380 H 630.274 1.94313 0.151156 0
M  V30 6381 H 629.37 2.77171 1.43466 0
M  V30 6382 N 629.671 -0.424282 1.51781 0
M  V30 6383 C 630.919 -1.17028 1.64769 0
M  V30 6384 C 631.24 -1.91409 0.372523 0
M  V30 6385 O 630.51 -1.86091 -0.612108 0
M  V30 6386 H 629.09 -0.434992 0.607282 0
M  V30 6387 H 631.752 -0.485169 1.88765 0
M  V30 6388 H 630.848 -1.8927 2.4816 0
M  V30 6389 N 631.149 -1.42148 -0.680565 0
M  V30 6390 C 632.079 -1.4796 -1.80638 0
M  V30 6391 C 633.06 -0.336728 -1.66734 0
M  V30 6392 O 634.245 -0.550247 -1.86242 0
M  V30 6393 C 631.375 -1.37569 -3.18892 0
M  V30 6394 C 630.329 -2.49823 -3.47524 0
M  V30 6395 C 629.655 -2.24491 -4.85291 0
M  V30 6396 C 630.955 -3.92144 -3.44994 0
M  V30 6397 H 632.649 -2.42184 -1.76032 0
M  V30 6398 H 630.195 -1.16566 -0.845481 0
M  V30 6399 H 632.148 -1.40243 -3.97379 0
M  V30 6400 H 630.872 -0.398357 -3.24162 0
M  V30 6401 H 629.531 -2.46455 -2.71395 0
M  V30 6402 H 629.179 -1.25066 -4.87204 0
M  V30 6403 H 628.879 -2.99722 -5.05411 0
M  V30 6404 H 630.403 -2.28906 -5.66069 0
M  V30 6405 H 631.817 -3.97145 -4.13459 0
M  V30 6406 H 630.214 -4.67179 -3.76648 0
M  V30 6407 H 631.284 -4.19225 -2.43676 0
M  V30 6408 N 632.627 0.916307 -1.28225 0
M  V30 6409 C 633.574 2.01841 -1.11932 0
M  V30 6410 C 634.544 1.66091 -0.0171604 0
M  V30 6411 O 635.729 1.89934 -0.181617 0
M  V30 6412 C 632.869 3.36065 -0.784504 0
M  V30 6413 C 631.982 3.847 -1.96544 0
M  V30 6414 C 631.117 5.07423 -1.57149 0
M  V30 6415 C 630.156 5.48384 -2.71922 0
M  V30 6416 N 629.293 6.62298 -2.33037 0
M  V30 6417 H 634.133 2.1511 -2.06232 0
M  V30 6418 H 631.67 1.05366 -1.02647 0
M  V30 6419 H 633.628 4.13272 -0.571148 0
M  V30 6420 H 632.258 3.22571 0.121565 0
M  V30 6421 H 631.31 3.03673 -2.291 0
M  V30 6422 H 632.622 4.1102 -2.82603 0
M  V30 6423 H 631.776 5.92165 -1.32004 0
M  V30 6424 H 630.515 4.82906 -0.682153 0
M  V30 6425 H 629.52 4.62184 -2.97768 0
M  V30 6426 H 630.745 5.7489 -3.61494 0
M  V30 6427 H 628.691 6.39416 -1.4657 0
M  V30 6428 H 628.608 6.8833 -3.12631 0
M  V30 6429 H 629.876 7.50352 -2.11169 0
M  V30 6430 N 634.105 1.10431 1.1244 0
M  V30 6431 C 635.333 0.868872 1.87772 0
M  V30 6432 C 635.748 -0.580645 1.7965 0
M  V30 6433 O 635.105 -1.40031 1.17036 0
M  V30 6434 C 635.156 1.30855 3.36986 0
M  V30 6435 O 634.877 2.70123 3.44914 0
M  V30 6436 C 636.378 1.107 4.29256 0
M  V30 6437 H 633.598 0.311868 0.59412 0
M  V30 6438 H 636.142 1.46897 1.42273 0
M  V30 6439 H 634.297 0.752126 3.80029 0
M  V30 6440 H 634.711 2.88923 4.37748 0
M  V30 6441 H 636.185 1.46378 5.32238 0
M  V30 6442 H 636.662 0.0456228 4.39176 0
M  V30 6443 H 637.268 1.64988 3.91994 0
M  V30 6444 N 635.583 -1.29855 0.893053 0
M  V30 6445 C 636.813 -1.99686 0.530019 0
M  V30 6446 C 637.221 -1.67066 -0.888012 0
M  V30 6447 O 636.564 -0.908366 -1.5967 0
M  V30 6448 C 636.626 -3.53855 0.63457 0
M  V30 6449 C 636.29 -4.10013 2.01837 0
M  V30 6450 C 637.287 -4.25406 2.98874 0
M  V30 6451 C 634.972 -4.45202 2.32595 0
M  V30 6452 C 636.966 -4.7521 4.24799 0
M  V30 6453 C 634.653 -4.94704 3.58763 0
M  V30 6454 C 635.651 -5.09662 4.5468 0
M  V30 6455 O 635.339 -5.58093 5.78608 0
M  V30 6456 H 635.071 -0.644913 0.20264 0
M  V30 6457 H 637.625 -1.66518 1.20253 0
M  V30 6458 H 635.855 -3.86583 -0.0949477 0
M  V30 6459 H 637.544 -4.04922 0.281648 0
M  V30 6460 H 638.31 -3.98515 2.76425 0
M  V30 6461 H 634.189 -4.32822 1.58701 0
M  V30 6462 H 637.733 -4.86801 4.99671 0
M  V30 6463 H 633.63 -5.21032 3.81046 0
M  V30 6464 H 634.398 -5.7642 5.81104 0
M  V30 6465 N 637.061 -0.65484 -1.43351 0
M  V30 6466 C 638.309 -0.168559 -2.01396 0
M  V30 6467 C 638.63 1.22235 -1.51933 0
M  V30 6468 O 637.9 1.81685 -0.732627 0
M  V30 6469 H 636.48 -0.0593244 -0.744641 0
M  V30 6470 H 639.142 -0.846871 -1.75539 0
M  V30 6471 H 638.238 -0.154428 -3.11718 0
M  V30 6472 N 638.539 1.52521 -0.396863 0
M  V30 6473 C 639.787 2.01274 0.182536 0
M  V30 6474 C 640.108 1.28485 1.46685 0
M  V30 6475 O 639.378 0.407134 1.91623 0
M  V30 6476 H 637.958 0.743671 0.0704442 0
M  V30 6477 H 640.62 1.87547 -0.530289 0
M  V30 6478 H 639.716 3.09687 0.387385 0
M  V30 6479 N 640.017 0.126909 1.57088 0
M  V30 6480 C 641.245 -0.53667 1.99819 0
M  V30 6481 C 641.66 -1.5972 1.00673 0
M  V30 6482 O 641.017 -1.825 0.000747365 0
M  V30 6483 C 641.068 -1.15563 3.42531 0
M  V30 6484 O 640.789 -0.137483 4.37884 0
M  V30 6485 C 642.29 -1.90176 4.00435 0
M  V30 6486 H 639.51 -0.141443 0.655923 0
M  V30 6487 H 642.054 0.215578 2.03361 0
M  V30 6488 H 640.209 -1.85861 3.39904 0
M  V30 6489 H 640.623 -0.588229 5.21191 0
M  V30 6490 H 642.097 -2.28801 5.02349 0
M  V30 6491 H 642.574 -2.78002 3.40017 0
M  V30 6492 H 643.18 -1.24623 4.06632 0
M  V30 6493 N 641.495 -1.56914 -0.146875 0
M  V30 6494 C 642.742 -1.83356 -0.859467 0
M  V30 6495 C 643.07 -0.707811 -1.81164 0
M  V30 6496 O 642.325 0.303155 -1.93338 0
M  V30 6497 C 642.624 -3.16128 -1.66727 0
M  V30 6498 C 642.29 -4.42586 -0.861881 0
M  V30 6499 C 640.952 -4.76929 -0.639687 0
M  V30 6500 C 643.304 -5.20344 -0.298643 0
M  V30 6501 C 640.632 -5.86491 0.156451 0
M  V30 6502 C 642.984 -6.30742 0.484536 0
M  V30 6503 C 641.648 -6.63635 0.717306 0
M  V30 6504 H 640.918 -0.670947 -0.314501 0
M  V30 6505 H 643.565 -1.91104 -0.123108 0
M  V30 6506 H 641.87 -3.03831 -2.47374 0
M  V30 6507 H 643.567 -3.33802 -2.2221 0
M  V30 6508 H 640.157 -4.15662 -1.04513 0
M  V30 6509 H 644.341 -4.94186 -0.457585 0
M  V30 6510 H 639.597 -6.10419 0.346292 0
M  V30 6511 H 643.771 -6.90188 0.928105 0
M  V30 6512 H 641.398 -7.48367 1.33607 0
M  V30 6513 N 642.974 0.416227 -1.52004 0
M  V30 6514 C 644.221 1.16383 -1.65714 0
M  V30 6515 C 644.549 1.9068 -0.383594 0
M  V30 6516 O 643.804 1.85174 0.633185 0
M  V30 6517 C 644.103 2.18923 -2.82502 0
M  V30 6518 C 643.769 1.61485 -4.20991 0
M  V30 6519 C 642.431 1.45545 -4.58661 0
M  V30 6520 C 644.783 1.19468 -5.07323 0
M  V30 6521 C 642.111 0.860937 -5.80349 0
M  V30 6522 C 644.463 0.614386 -6.29609 0
M  V30 6523 C 643.127 0.442056 -6.66035 0
M  V30 6524 H 642.397 0.425875 -0.606392 0
M  V30 6525 H 645.044 0.45199 -1.8609 0
M  V30 6526 H 643.349 2.96225 -2.56433 0
M  V30 6527 H 645.046 2.76628 -2.90307 0
M  V30 6528 H 641.636 1.74873 -3.91302 0
M  V30 6529 H 645.82 1.30596 -4.78809 0
M  V30 6530 H 641.076 0.715372 -6.072 0
M  V30 6531 H 645.25 0.280393 -6.95835 0
M  V30 6532 H 642.877 -0.0207218 -7.60197 0
M  V30 6533 N 644.452 1.42507 0.673017 0
M  V30 6534 C 645.698 1.43284 1.43519 0
M  V30 6535 C 646.031 0.049668 1.94136 0
M  V30 6536 O 645.306 -0.926369 1.71022 0
M  V30 6537 C 645.589 2.45874 2.63093 0
M  V30 6538 C 645.442 3.93388 2.18096 0
M  V30 6539 C 646.761 2.45431 3.6531 0
M  V30 6540 H 643.88 0.521752 0.520522 0
M  V30 6541 H 646.522 1.73932 0.764701 0
M  V30 6542 H 644.672 2.19869 3.20296 0
M  V30 6543 H 646.344 4.30379 1.66046 0
M  V30 6544 H 644.587 4.07169 1.49652 0
M  V30 6545 H 645.258 4.60752 3.03993 0
M  V30 6546 H 647.734 2.68561 3.17827 0
M  V30 6547 H 646.61 3.19189 4.46553 0
M  V30 6548 H 646.871 1.48092 4.16559 0
M  V30 6549 N 645.93 -0.909495 1.28709 0
M  V30 6550 C 647.177 -1.65905 1.16111 0
M  V30 6551 C 647.505 -1.92334 -0.289436 0
M  V30 6552 O 646.76 -1.52495 -1.22653 0
M  V30 6553 C 647.059 -3.02117 1.90945 0
M  V30 6554 C 646.725 -2.95332 3.40719 0
M  V30 6555 C 645.387 -2.93189 3.81567 0
M  V30 6556 C 647.739 -2.85264 4.36204 0
M  V30 6557 C 645.067 -2.78784 5.16233 0
M  V30 6558 C 647.419 -2.724 5.70948 0
M  V30 6559 C 646.083 -2.68617 6.11066 0
M  V30 6560 H 645.353 -0.60709 0.42488 0
M  V30 6561 H 648 -1.05932 1.59533 0
M  V30 6562 H 646.305 -3.65901 1.40085 0
M  V30 6563 H 648.002 -3.59026 1.7861 0
M  V30 6564 H 644.592 -2.97797 3.08245 0
M  V30 6565 H 648.776 -2.86005 4.05605 0
M  V30 6566 H 644.032 -2.74254 5.46438 0
M  V30 6567 H 648.206 -2.63579 6.44592 0
M  V30 6568 H 645.833 -2.57213 7.15364 0
M  V30 6569 N 647.408 -1.11026 -1.11852 0
M  V30 6570 C 648.633 -0.879064 -1.87849 0
M  V30 6571 C 649.058 0.565406 -1.79401 0
M  V30 6572 O 648.416 1.39886 -1.15333 0
M  V30 6573 C 648.464 -1.33985 -3.34784 0
M  V30 6574 O 647.568 -0.508803 -4.09249 0
M  V30 6575 H 646.909 -0.316992 -0.583448 0
M  V30 6576 H 649.439 -1.47863 -1.41413 0
M  V30 6577 H 649.449 -1.33248 -3.85628 0
M  V30 6578 H 648.124 -2.39172 -3.40249 0
M  V30 6579 H 646.701 -0.581913 -3.68332 0
M  V30 6580 N 648.886 1.2938 -0.899927 0
M  V30 6581 C 650.163 1.9046 -0.445443 0
M  V30 6582 C 650.543 1.81683 1.07492 0
M  V30 6583 O 649.891 1.24371 1.91688 0
M  V30 6584 C 650.101 3.35529 -0.960279 0
M  V30 6585 C 651.449 4.12556 -1.00412 0
M  V30 6586 O 652.473 3.44434 -0.907965 0
M  V30 6587 O 651.332 5.34294 -1.14857 0
M  V30 6588 H 648.426 0.815253 -0.138893 0
M  V30 6589 H 650.972 1.37844 -0.989808 0
M  V30 6590 H 649.744 3.36074 -2.00425 0
M  V30 6591 H 649.367 3.95624 -0.395939 0
M  V30 6592 N 650.364 0.662433 1.43002 0
M  V30 6593 C 651.594 0.187343 2.05749 0
M  V30 6594 C 652.002 -1.15582 1.49791 0
M  V30 6595 O 651.345 -1.72651 0.627487 0
M  V30 6596 C 651.407 0.0316493 3.59486 0
M  V30 6597 C 651.071 1.30156 4.38073 0
M  V30 6598 C 652.068 2.23234 4.69535 0
M  V30 6599 C 649.753 1.54572 4.77926 0
M  V30 6600 C 651.747 3.39012 5.39768 0
M  V30 6601 C 649.434 2.70641 5.47902 0
M  V30 6602 C 650.432 3.62687 5.78746 0
M  V30 6603 O 650.12 4.76728 6.47291 0
M  V30 6604 H 649.852 0.0915214 0.669776 0
M  V30 6605 H 652.406 0.905982 1.8434 0
M  V30 6606 H 650.636 -0.742451 3.79506 0
M  V30 6607 H 652.325 -0.401977 4.03905 0
M  V30 6608 H 653.091 2.05616 4.39257 0
M  V30 6609 H 648.97 0.83804 4.53319 0
M  V30 6610 H 652.514 4.10877 5.63761 0
M  V30 6611 H 648.411 2.88189 5.77596 0
M  V30 6612 H 649.179 4.76113 6.65777 0
M  V30 6613 N 651.842 -1.52309 0.404946 0
M  V30 6614 C 652.772 -2.29805 -0.41376 0
M  V30 6615 C 653.753 -1.3384 -1.0498 0
M  V30 6616 O 654.938 -1.62745 -1.05961 0
M  V30 6617 C 652.068 -3.11639 -1.53292 0
M  V30 6618 C 651.022 -4.15616 -1.02211 0
M  V30 6619 C 650.348 -4.8577 -2.23455 0
M  V30 6620 C 651.648 -5.2224 -0.0790725 0
M  V30 6621 H 653.342 -2.98493 0.232878 0
M  V30 6622 H 650.888 -1.43552 0.113441 0
M  V30 6623 H 652.841 -3.64618 -2.11262 0
M  V30 6624 H 651.565 -2.40712 -2.20738 0
M  V30 6625 H 650.224 -3.63641 -0.46484 0
M  V30 6626 H 649.872 -4.11376 -2.89445 0
M  V30 6627 H 649.572 -5.56058 -1.89929 0
M  V30 6628 H 651.096 -5.4156 -2.82038 0
M  V30 6629 H 652.51 -5.70485 -0.567438 0
M  V30 6630 H 650.907 -5.99867 0.167167 0
M  V30 6631 H 651.977 -4.77078 0.867447 0
M  V30 6632 N 653.32 -0.135238 -1.57019 0
M  V30 6633 C 654.736 0.221262 -1.58059 0
M  V30 6634 C 654.936 1.65538 -1.14889 0
M  V30 6635 O 653.992 2.37985 -0.843751 0
M  V30 6636 C 655.305 -0.0268114 -3.00688 0
M  V30 6637 C 656.853 0.0378206 -3.12977 0
M  V30 6638 C 657.328 -0.182769 -4.57635 0
M  V30 6639 N 658.819 -0.129292 -4.6302 0
M  V30 6640 C 659.554 -0.274648 -5.72742 0
M  V30 6641 N 659.05 -0.477075 -6.91155 0
M  V30 6642 N 660.843 -0.213077 -5.61696 0
M  V30 6643 H 652.994 -1.07177 -1.83376 0
M  V30 6644 H 655.257 -0.423338 -0.848227 0
M  V30 6645 H 654.963 -1.01889 -3.36618 0
M  V30 6646 H 654.837 0.697863 -3.70688 0
M  V30 6647 H 657.224 1.02043 -2.76896 0
M  V30 6648 H 657.305 -0.718996 -2.45487 0
M  V30 6649 H 656.949 -1.16243 -4.94419 0
M  V30 6650 H 656.879 0.59423 -5.23237 0
M  V30 6651 H 659.37 0.0229896 -3.77893 0
M  V30 6652 H 659.683 -0.578413 -7.70632 0
M  V30 6653 H 658.028 -0.513252 -6.93102 0
M  V30 6654 H 661.219 -0.0557796 -4.68067 0
M  V30 6655 H 661.392 -0.329796 -6.4716 0
M  V30 6656 N 654.798 1.5699 0.138552 0
M  V30 6657 C 656.209 1.73171 0.697754 0
M  V30 6658 C 656.56 0.750952 1.8126 0
M  V30 6659 O 655.685 -0.080549 2.1625 0
M  V30 6660 C 656.28 3.13996 1.27248 0
M  V30 6661 C 654.839 3.3175 1.77816 0
M  V30 6662 C 653.986 2.69084 0.669991 0
M  V30 6663 H 656.937 1.5846 -0.0871979 0
M  V30 6664 H 656.958 3.14463 2.14227 0
M  V30 6665 H 656.47 3.85354 0.460855 0
M  V30 6666 H 654.571 2.65403 2.61519 0
M  V30 6667 H 654.684 4.39768 1.90107 0
M  V30 6668 H 653.048 2.29782 1.09874 0
M  V30 6669 H 653.831 3.43053 -0.130329 0
M  V30 6670 N 656.276 -0.40816 1.52223 0
M  V30 6671 C 657.239 -1.48 1.7501 0
M  V30 6672 C 658.239 -1.48367 0.619996 0
M  V30 6673 O 659.429 -1.49874 0.887881 0
M  V30 6674 C 656.561 -2.87403 1.83336 0
M  V30 6675 H 657.754 -1.29086 2.70697 0
M  V30 6676 H 655.307 -0.638715 1.42654 0
M  V30 6677 H 656.042 -3.11686 0.895677 0
M  V30 6678 H 655.827 -2.8854 2.65494 0
M  V30 6679 H 657.317 -3.65103 2.02705 0
M  V30 6680 N 657.755 -1.42862 -0.66545 0
M  V30 6681 C 659.004 -1.43119 -1.42126 0
M  V30 6682 C 659.317 -0.0545297 -1.95524 0
M  V30 6683 O 660.523 0.0654747 -2.71421 0
M  V30 6684 C 658.979 -2.51797 -2.5715 0
M  V30 6685 C 658.587 -3.95514 -2.10411 0
M  V30 6686 C 660.331 -2.61233 -3.346 0
M  V30 6687 C 658.238 -4.95682 -3.22573 0
M  V30 6688 H 657.168 -0.532349 -0.533966 0
M  V30 6689 H 659.819 -1.68806 -0.719506 0
M  V30 6690 H 658.201 -2.19292 -3.29738 0
M  V30 6691 H 659.375 -4.3742 -1.44915 0
M  V30 6692 H 657.69 -3.90012 -1.45874 0
M  V30 6693 H 660.287 -3.33248 -4.18151 0
M  V30 6694 H 660.63 -1.65896 -3.81817 0
M  V30 6695 H 661.163 -2.9298 -2.69087 0
M  V30 6696 H 657.902 -5.92529 -2.80338 0
M  V30 6697 H 657.422 -4.58399 -3.86821 0
M  V30 6698 H 659.101 -5.17828 -3.87896 0
M  V30 6699 N 659.233 0.902656 -1.29189 0
M  V30 6700 C 660.649 1.18296 -1.07137 0
M  V30 6701 C 660.849 2.00701 0.179223 0
M  V30 6702 O 659.905 2.3675 0.877812 0
M  V30 6703 C 661.218 1.90677 -2.32514 0
M  V30 6704 C 662.766 2.03515 -2.37804 0
M  V30 6705 C 663.241 2.79307 -3.62976 0
M  V30 6706 N 664.732 2.86862 -3.63681 0
M  V30 6707 C 665.467 3.46035 -4.57217 0
M  V30 6708 N 664.963 4.06399 -5.61081 0
M  V30 6709 N 666.756 3.43681 -4.44792 0
M  V30 6710 H 658.907 0.352765 -2.0945 0
M  V30 6711 H 661.17 0.21876 -0.922414 0
M  V30 6712 H 660.876 1.3756 -3.23682 0
M  V30 6713 H 660.75 2.91169 -2.39793 0
M  V30 6714 H 663.137 2.55809 -1.47125 0
M  V30 6715 H 663.218 1.02166 -2.34512 0
M  V30 6716 H 662.862 2.2769 -4.54004 0
M  V30 6717 H 662.792 3.80995 -3.63525 0
M  V30 6718 H 665.283 2.43987 -2.88581 0
M  V30 6719 H 665.596 4.49564 -6.2858 0
M  V30 6720 H 663.941 4.0487 -5.64894 0
M  V30 6721 H 667.132 2.9574 -3.62843 0
M  V30 6722 H 667.305 3.89503 -5.17872 0
M  V30 6723 N 660.711 1.11618 1.11262 0
M  V30 6724 C 661.641 0.79846 2.19424 0
M  V30 6725 C 662.622 -0.234003 1.68483 0
M  V30 6726 O 663.807 -0.0970704 1.93957 0
M  V30 6727 C 660.937 0.242892 3.4645 0
M  V30 6728 C 659.891 1.20744 4.10615 0
M  V30 6729 C 659.217 0.512494 5.32238 0
M  V30 6730 C 660.517 2.55884 4.55325 0
M  V30 6731 H 662.211 1.70286 2.46258 0
M  V30 6732 H 659.757 0.820195 1.18359 0
M  V30 6733 H 661.71 0.00840447 4.21399 0
M  V30 6734 H 660.434 -0.696811 3.1908 0
M  V30 6735 H 659.093 1.42759 3.37662 0
M  V30 6736 H 658.741 -0.432075 5.01141 0
M  V30 6737 H 658.441 1.15583 5.7612 0
M  V30 6738 H 659.965 0.286842 6.09926 0
M  V30 6739 H 661.379 2.37946 5.21588 0
M  V30 6740 H 659.776 3.16216 5.10027 0
M  V30 6741 H 660.846 3.14968 3.68678 0
M  V30 6742 N 662.189 -1.289 0.906776 0
M  V30 6743 C 663.152 -2.25777 0.394656 0
M  V30 6744 C 664.152 -1.53621 -0.475119 0
M  V30 6745 O 665.342 -1.71949 -0.279165 0
M  V30 6746 C 662.474 -3.38113 -0.43499 0
M  V30 6747 H 663.667 -2.72592 1.25033 0
M  V30 6748 H 661.22 -1.40463 0.685547 0
M  V30 6749 H 661.955 -2.96648 -1.31036 0
M  V30 6750 H 661.74 -3.91647 0.188334 0
M  V30 6751 H 663.23 -4.10168 -0.784365 0
M  V30 6752 N 663.667 -0.670007 -1.42649 0
M  V30 6753 C 664.63 0.00204659 -2.292 0
M  V30 6754 C 665.63 0.733817 -1.4308 0
M  V30 6755 O 666.82 0.57254 -1.64522 0
M  V30 6756 C 663.952 1.01359 -3.25483 0
M  V30 6757 H 665.145 -0.759696 -2.90118 0
M  V30 6758 H 662.698 -0.432105 -1.50208 0
M  V30 6759 H 663.433 1.80399 -2.69493 0
M  V30 6760 H 663.218 0.492323 -3.88997 0
M  V30 6761 H 664.708 1.4824 -3.90403 0
M  V30 6762 N 665.145 1.52092 -0.413018 0
M  V30 6763 C 666.075 2.30021 0.401567 0
M  V30 6764 C 667.056 1.34395 1.04269 0
M  V30 6765 O 668.241 1.63304 1.05097 0
M  V30 6766 C 665.371 3.12447 1.51638 0
M  V30 6767 C 664.325 4.16153 1.00005 0
M  V30 6768 C 663.651 4.86948 2.20875 0
M  V30 6769 C 664.951 5.22275 0.0513757 0
M  V30 6770 H 666.645 2.98365 -0.248704 0
M  V30 6771 H 664.191 1.4349 -0.121052 0
M  V30 6772 H 666.144 3.65733 2.09326 0
M  V30 6773 H 664.868 2.41879 2.19458 0
M  V30 6774 H 663.527 3.63882 0.445549 0
M  V30 6775 H 663.175 4.12905 2.8726 0
M  V30 6776 H 662.875 5.57057 1.86978 0
M  V30 6777 H 664.399 5.43048 2.79162 0
M  V30 6778 H 665.813 5.70778 0.537176 0
M  V30 6779 H 664.21 5.9977 -0.198977 0
M  V30 6780 H 665.28 4.76611 -0.892736 0
M  V30 6781 N 666.623 0.143563 1.56945 0
M  V30 6782 C 667.556 -0.835367 2.1236 0
M  V30 6783 C 668.534 -1.24466 1.04627 0
M  V30 6784 O 669.718 -1.34138 1.32436 0
M  V30 6785 C 666.845 -2.12123 2.64048 0
M  V30 6786 C 665.891 -1.85812 3.83896 0
M  V30 6787 S 666.724 -1.05222 5.25061 0
M  V30 6788 C 667.88 -2.34935 5.80135 0
M  V30 6789 H 668.113 -0.364109 2.95062 0
M  V30 6790 H 665.646 -0.0706601 1.54238 0
M  V30 6791 H 667.604 -2.85993 2.94479 0
M  V30 6792 H 666.265 -2.56364 1.81483 0
M  V30 6793 H 665.458 -2.81151 4.18294 0
M  V30 6794 H 665.06 -1.20052 3.54208 0
M  V30 6795 H 667.352 -3.3061 5.91357 0
M  V30 6796 H 668.295 -2.05046 6.77762 0
M  V30 6797 H 668.703 -2.45426 5.08356 0
M  V30 6798 N 668.101 -1.57061 -0.130224 0
M  V30 6799 C 669.033 -1.96147 -1.18571 0
M  V30 6800 C 670.046 -0.859347 -1.38272 0
M  V30 6801 O 671.235 -1.13769 -1.37545 0
M  V30 6802 C 668.335 -2.23484 -2.54771 0
M  V30 6803 C 667.508 -3.54786 -2.55824 0
M  V30 6804 C 666.567 -3.70467 -3.73686 0
M  V30 6805 O 665.593 -4.42693 -3.57787 0
M  V30 6806 N 666.795 -3.08389 -4.91809 0
M  V30 6807 H 669.56 -2.87295 -0.853333 0
M  V30 6808 H 667.121 -1.58714 -0.319621 0
M  V30 6809 H 669.113 -2.312 -3.32158 0
M  V30 6810 H 667.683 -1.38518 -2.80235 0
M  V30 6811 H 666.903 -3.5836 -1.64232 0
M  V30 6812 H 668.191 -4.4111 -2.53573 0
M  V30 6813 H 667.589 -2.49656 -5.0763 0
M  V30 6814 H 666.146 -3.21642 -5.66912 0
M  V30 6815 N 669.579 0.400081 -1.52437 0
M  V30 6816 C 670.509 1.4947 -1.7939 0
M  V30 6817 C 671.49 1.57383 -0.645329 0
M  V30 6818 O 672.675 1.72511 -0.891826 0
M  V30 6819 C 669.805 2.87201 -1.95276 0
M  V30 6820 C 668.759 2.94134 -3.10917 0
M  V30 6821 C 668.085 4.34207 -3.1204 0
M  V30 6822 C 669.385 2.64791 -4.50203 0
M  V30 6823 H 671.079 1.27165 -2.71052 0
M  V30 6824 H 668.625 0.610312 -1.30427 0
M  V30 6825 H 670.578 3.63772 -2.12715 0
M  V30 6826 H 669.302 3.10819 -1.00294 0
M  V30 6827 H 667.961 2.20009 -2.93243 0
M  V30 6828 H 667.609 4.54848 -2.14761 0
M  V30 6829 H 667.309 4.39768 -3.89715 0
M  V30 6830 H 668.833 5.127 -3.31619 0
M  V30 6831 H 670.247 3.31083 -4.68035 0
M  V30 6832 H 668.644 2.81717 -5.29864 0
M  V30 6833 H 669.714 1.60184 -4.57678 0
M  V30 6834 N 671.057 1.43213 0.657864 0
M  V30 6835 C 672.468 1.39669 1.23893 0
M  V30 6836 C 672.819 0.0984217 1.95953 0
M  V30 6837 O 671.944 -0.8023 2.00978 0
M  V30 6838 C 672.539 2.53004 2.25332 0
M  V30 6839 C 671.098 2.5274 2.78926 0
M  V30 6840 C 670.245 2.30941 1.53497 0
M  V30 6841 H 673.196 1.52181 0.450172 0
M  V30 6842 H 673.217 2.24226 3.07413 0
M  V30 6843 H 672.729 3.4748 1.72856 0
M  V30 6844 H 670.83 1.6213 3.35477 0
M  V30 6845 H 670.943 3.50352 3.26787 0
M  V30 6846 H 669.307 1.7952 1.80678 0
M  V30 6847 H 670.09 3.27496 1.02963 0
M  V30 6848 N 672.536 -0.895792 1.29666 0
M  V30 6849 C 673.782 -1.64908 1.18039 0
M  V30 6850 C 674.115 -1.9236 -0.266682 0
M  V30 6851 O 673.39 -1.53682 -1.19214 0
M  V30 6852 C 673.673 -2.99574 1.99819 0
M  V30 6853 C 673.526 -2.79163 3.52687 0
M  V30 6854 C 674.845 -4.00358 1.82761 0
M  V30 6855 H 671.964 -0.598437 0.430165 0
M  V30 6856 H 674.606 -1.03736 1.59182 0
M  V30 6857 H 672.756 -3.51786 1.64859 0
M  V30 6858 H 674.428 -2.33821 3.9765 0
M  V30 6859 H 672.671 -2.13871 3.77414 0
M  V30 6860 H 673.342 -3.74871 4.05186 0
M  V30 6861 H 675.818 -3.57268 2.13304 0
M  V30 6862 H 674.694 -4.92514 2.42325 0
M  V30 6863 H 674.955 -4.35096 0.783839 0
M  V30 6864 N 674.014 -1.12206 -1.10668 0
M  V30 6865 C 675.242 -0.898635 -1.86366 0
M  V30 6866 C 675.657 0.551991 -1.80551 0
M  V30 6867 O 675.014 1.38152 -1.19249 0
M  V30 6868 C 675.065 -1.36199 -3.34861 0
M  V30 6869 O 674.786 -2.75576 -3.40573 0
M  V30 6870 C 676.287 -1.17515 -4.2744 0
M  V30 6871 H 673.507 -0.321281 -0.589084 0
M  V30 6872 H 676.051 -1.49142 -1.39918 0
M  V30 6873 H 674.206 -0.81249 -3.78784 0
M  V30 6874 H 674.62 -2.95851 -4.33096 0
M  V30 6875 H 676.094 -1.54827 -5.29842 0
M  V30 6876 H 676.571 -0.115486 -4.39048 0
M  V30 6877 H 677.177 -1.71203 -3.89319 0
M  V30 6878 N 675.492 1.28418 -0.913599 0
M  V30 6879 C 676.722 1.98817 -0.56172 0
M  V30 6880 C 677.13 1.68457 0.861321 0
M  V30 6881 O 676.473 0.933653 1.58204 0
M  V30 6882 C 676.535 3.52801 -0.690785 0
M  V30 6883 C 676.199 4.0675 -2.08334 0
M  V30 6884 C 677.196 4.20597 -3.05604 0
M  V30 6885 C 674.881 4.41445 -2.39648 0
M  V30 6886 C 676.875 4.68392 -4.32305 0
M  V30 6887 C 674.562 4.88934 -3.66588 0
M  V30 6888 C 675.56 5.02364 -4.6273 0
M  V30 6889 O 675.248 5.48817 -5.87414 0
M  V30 6890 H 674.98 0.641608 -0.212874 0
M  V30 6891 H 677.534 1.64584 -1.22887 0
M  V30 6892 H 675.764 3.86686 0.0334336 0
M  V30 6893 H 677.453 4.04422 -0.346031 0
M  V30 6894 H 678.219 3.94067 -2.8273 0
M  V30 6895 H 674.098 4.30242 -1.65567 0
M  V30 6896 H 677.642 4.7879 -5.07352 0
M  V30 6897 H 673.539 5.14904 -3.89287 0
M  V30 6898 H 674.307 5.67103 -5.90201 0
M  V30 6899 N 676.97 0.677563 1.42291 0
M  V30 6900 C 678.216 0.201272 2.01799 0
M  V30 6901 C 678.549 -1.19004 1.53465 0
M  V30 6902 O 677.824 -1.79953 0.738039 0
M  V30 6903 C 678.107 0.238968 3.59306 0
M  V30 6904 C 677.96 1.66594 4.17812 0
M  V30 6905 C 679.279 -0.411287 4.38174 0
M  V30 6906 H 676.398 0.0746114 0.733214 0
M  V30 6907 H 679.04 0.862872 1.69276 0
M  V30 6908 H 677.19 -0.324368 3.87144 0
M  V30 6909 H 678.862 2.28173 4.00917 0
M  V30 6910 H 677.105 2.20576 3.73536 0
M  V30 6911 H 677.776 1.64398 5.26951 0
M  V30 6912 H 680.252 0.0682804 4.16044 0
M  V30 6913 H 679.128 -0.354286 5.47755 0
M  V30 6914 H 679.389 -1.4893 4.1626 0
M  V30 6915 N 678.448 -1.51871 0.421078 0
M  V30 6916 C 679.695 -2.01938 -0.15079 0
M  V30 6917 C 680.023 -1.30611 -1.44121 0
M  V30 6918 O 679.278 -0.404631 -1.91471 0
M  V30 6919 C 679.577 -3.54764 -0.433292 0
M  V30 6920 C 679.243 -4.44288 0.76936 0
M  V30 6921 C 677.905 -4.68477 1.09921 0
M  V30 6922 C 680.257 -4.96915 1.57242 0
M  V30 6923 C 677.585 -5.4254 2.2331 0
M  V30 6924 C 679.937 -5.7222 2.69716 0
M  V30 6925 C 678.601 -5.94678 3.03174 0
M  V30 6926 H 677.871 -0.738943 -0.0551781 0
M  V30 6927 H 680.518 -1.82977 0.564945 0
M  V30 6928 H 678.823 -3.71968 -1.23074 0
M  V30 6929 H 680.52 -3.91023 -0.888922 0
M  V30 6930 H 677.11 -4.25646 0.502305 0
M  V30 6931 H 681.294 -4.78125 1.3308 0
M  V30 6932 H 676.55 -5.58146 2.49565 0
M  V30 6933 H 680.724 -6.11992 3.32323 0
M  V30 6934 H 678.351 -6.51848 3.9115 0
M  V30 6935 N 679.926 -0.151884 -1.56866 0
M  V30 6936 C 681.154 0.504813 -2.00647 0
M  V30 6937 C 681.569 1.58098 -1.03201 0
M  V30 6938 O 680.926 1.82476 -0.0297814 0
M  V30 6939 C 680.977 1.10099 -3.44326 0
M  V30 6940 O 680.698 0.0678021 -4.38048 0
M  V30 6941 C 682.199 1.83782 -4.03409 0
M  V30 6942 H 679.419 0.130989 -0.65809 0
M  V30 6943 H 681.963 -0.247903 -2.02992 0
M  V30 6944 H 680.118 1.8043 -3.42817 0
M  V30 6945 H 680.532 0.505237 -5.22061 0
M  V30 6946 H 682.006 2.2078 -5.05925 0
M  V30 6947 H 682.483 2.72557 -3.44397 0
M  V30 6948 H 683.089 1.18138 -4.08563 0
M  V30 6949 N 681.404 1.57128 0.121893 0
M  V30 6950 C 682.354 1.96556 1.15541 0
M  V30 6951 C 683.338 0.840147 1.37224 0
M  V30 6952 O 684.53 1.10382 1.38365 0
M  V30 6953 C 681.659 2.37097 2.48274 0
M  V30 6954 C 680.745 3.56265 2.30078 0
M  V30 6955 N 681.136 4.72041 1.81688 0
M  V30 6956 C 679.434 3.61841 2.60744 0
M  V30 6957 C 680.135 5.54075 1.77132 0
M  V30 6958 N 679.111 4.96483 2.21371 0
M  V30 6959 H 682.913 2.83531 0.77378 0
M  V30 6960 H 680.427 1.59019 0.329672 0
M  V30 6961 H 682.424 2.6356 3.2302 0
M  V30 6962 H 681.084 1.51486 2.87197 0
M  V30 6963 H 682.095 4.95313 1.51278 0
M  V30 6964 H 678.772 2.8683 3.03373 0
M  V30 6965 H 680.162 6.56939 1.40998 0
M  V30 6966 N 682.882 -0.391992 1.52647 0
M  V30 6967 C 684.159 -1.15136 1.58123 0
M  V30 6968 C 684.539 -2.07786 0.372597 0
M  V30 6969 O 683.887 -2.19374 -0.639304 0
M  V30 6970 C 684.097 -1.91367 2.91856 0
M  V30 6971 C 685.445 -2.46833 3.45483 0
M  V30 6972 O 686.469 -2.01527 2.9371 0
M  V30 6973 O 685.328 -3.29587 4.3593 0
M  V30 6974 H 682.422 -0.526649 0.637629 0
M  V30 6975 H 684.968 -0.397386 1.64982 0
M  V30 6976 H 683.74 -1.23597 3.71268 0
M  V30 6977 H 683.363 -2.73732 2.88369 0
M  V30 6978 N 684.36 -1.4356 -0.65026 0
M  V30 6979 C 685.585 -1.48995 -1.44275 0
M  V30 6980 C 686.01 -0.109954 -1.87778 0
M  V30 6981 O 685.368 0.896926 -1.57559 0
M  V30 6982 C 685.416 -2.44341 -2.65198 0
M  V30 6983 O 684.52 -1.93172 -3.6436 0
M  V30 6984 H 683.861 -0.503852 -0.432469 0
M  V30 6985 H 686.391 -1.88504 -0.795446 0
M  V30 6986 H 686.401 -2.61743 -3.12977 0
M  V30 6987 H 685.076 -3.44588 -2.32877 0
M  V30 6988 H 683.653 -1.85445 -3.23519 0
M  V30 6989 N 685.838 0.888903 -1.30139 0
M  V30 6990 C 687.087 1.63507 -1.18103 0
M  V30 6991 C 687.4 1.93808 0.264141 0
M  V30 6992 O 688.606 2.66744 0.505966 0
M  V30 6993 C 687.062 2.94673 -2.0663 0
M  V30 6994 C 686.67 2.71926 -3.56034 0
M  V30 6995 C 688.414 3.72626 -2.03346 0
M  V30 6996 C 686.321 3.98884 -4.3663 0
M  V30 6997 H 685.251 0.613426 -0.438435 0
M  V30 6998 H 687.902 0.984427 -1.54859 0
M  V30 6999 H 686.284 3.61009 -1.62754 0
M  V30 7000 H 687.458 2.14116 -4.08033 0
M  V30 7001 H 685.773 2.07353 -3.61101 0
M  V30 7002 H 688.37 4.66775 -2.60816 0
M  V30 7003 H 688.713 4.03712 -1.016 0
M  V30 7004 H 689.246 3.13147 -2.45324 0
M  V30 7005 H 685.985 3.72959 -5.39056 0
M  V30 7006 H 685.505 4.56214 -3.89396 0
M  V30 7007 H 687.184 4.66938 -4.47859 0
M  V30 7008 N 687.317 1.12792 1.10072 0
M  V30 7009 C 688.28 0.802264 2.14701 0
M  V30 7010 C 689.28 -0.18515 1.59731 0
M  V30 7011 O 690.47 0.041109 1.74151 0
M  V30 7012 C 687.602 0.19285 3.40354 0
M  V30 7013 H 688.795 1.72932 2.45019 0
M  V30 7014 H 686.348 0.931662 1.25498 0
M  V30 7015 H 687.083 -0.743748 3.15656 0
M  V30 7016 H 686.868 0.903827 3.81541 0
M  V30 7017 H 688.358 -0.0183704 4.17596 0
M  V30 7018 N 688.795 -1.27931 0.920396 0
M  V30 7019 C 690.041 -1.94977 0.557832 0
M  V30 7020 C 690.374 -1.72224 -0.897365 0
M  V30 7021 O 689.649 -1.04705 -1.63912 0
M  V30 7022 C 689.932 -3.49289 0.875741 0
M  V30 7023 C 689.785 -3.81416 2.38416 0
M  V30 7024 C 691.104 -4.38486 0.376517 0
M  V30 7025 H 688.223 -0.708164 0.20414 0
M  V30 7026 H 690.865 -1.5118 1.15085 0
M  V30 7027 H 689.015 -3.86724 0.371062 0
M  V30 7028 H 690.687 -3.53813 2.95997 0
M  V30 7029 H 688.93 -3.28225 2.83639 0
M  V30 7030 H 689.601 -4.89198 2.55713 0
M  V30 7031 H 692.077 -4.08161 0.808945 0
M  V30 7032 H 690.953 -5.45296 0.627976 0
M  V30 7033 H 691.214 -4.36143 -0.723293 0
M  V30 7034 N 690.273 -0.685099 -1.4193 0
M  V30 7035 C 691.521 -0.21124 -2.00993 0
M  V30 7036 C 691.842 1.18985 -1.54491 0
M  V30 7037 O 691.112 1.8009 -0.771 0
M  V30 7038 H 689.692 -0.0751059 -0.743215 0
M  V30 7039 H 692.354 -0.883915 -1.73704 0
M  V30 7040 H 691.45 -0.220513 -3.1132 0
M  V30 7041 N 691.751 1.51645 -0.429126 0
M  V30 7042 C 692.661 2.31288 0.392809 0
M  V30 7043 C 693.677 1.39852 1.03525 0
M  V30 7044 O 694.853 1.72926 1.03241 0
M  V30 7045 C 691.918 3.13347 1.48372 0
M  V30 7046 C 690.979 4.20551 0.862268 0
M  V30 7047 C 690.212 4.98688 1.9012 0
M  V30 7048 O 690.435 4.77359 3.12225 0
M  V30 7049 O 689.369 5.83005 1.4963 0
M  V30 7050 H 693.195 3.02609 -0.257138 0
M  V30 7051 H 690.78 1.48163 -0.191851 0
M  V30 7052 H 692.662 3.64387 2.1166 0
M  V30 7053 H 691.337 2.44799 2.1179 0
M  V30 7054 H 690.244 3.73609 0.191568 0
M  V30 7055 H 691.577 4.91449 0.271704 0
M  V30 7056 N 693.229 0.160201 1.56784 0
M  V30 7057 C 694.506 -0.533355 1.88188 0
M  V30 7058 C 694.886 -1.82072 1.06831 0
M  V30 7059 O 694.234 -2.27946 0.158959 0
M  V30 7060 C 694.444 -0.786034 3.40033 0
M  V30 7061 C 695.792 -1.12097 4.09536 0
M  V30 7062 O 696.816 -0.874949 3.45287 0
M  V30 7063 O 695.675 -1.58457 5.23023 0
M  V30 7064 H 692.769 -0.273589 0.780434 0
M  V30 7065 H 695.315 0.197803 1.68543 0
M  V30 7066 H 694.087 0.124515 3.91102 0
M  V30 7067 H 693.71 -1.57091 3.65251 0
M  V30 7068 N 694.707 -1.5719 -0.113559 0
M  V30 7069 C 695.955 -1.84772 -0.818761 0
M  V30 7070 C 696.276 -0.746196 -1.80158 0
M  V30 7071 O 695.546 0.229305 -1.94553 0
M  V30 7072 H 694.126 -0.681737 -0.305359 0
M  V30 7073 H 696.788 -1.94645 -0.0995845 0
M  V30 7074 H 695.884 -2.80878 -1.36067 0
M  V30 7075 N 696.185 0.383891 -1.52853 0
M  V30 7076 C 697.596 0.961591 -1.60032 0
M  V30 7077 C 697.947 1.90819 -0.456333 0
M  V30 7078 O 697.072 2.12288 0.419873 0
M  V30 7079 C 697.667 1.75078 -2.90057 0
M  V30 7080 C 696.226 2.2781 -2.99632 0
M  V30 7081 C 695.373 1.08512 -2.55187 0
M  V30 7082 H 698.324 0.163269 -1.57858 0
M  V30 7083 H 698.345 2.61046 -2.7683 0
M  V30 7084 H 697.857 1.06157 -3.73299 0
M  V30 7085 H 695.958 3.00028 -2.20939 0
M  V30 7086 H 696.071 2.56947 -4.0437 0
M  V30 7087 H 694.435 1.44667 -2.09627 0
M  V30 7088 H 695.218 0.41118 -3.40829 0
M  V30 7089 N 697.663 1.43903 0.642637 0
M  V30 7090 C 698.891 1.4954 1.42988 0
M  V30 7091 C 699.306 0.116588 1.8844 0
M  V30 7092 O 698.663 -0.875285 1.60141 0
M  V30 7093 C 698.714 2.45031 2.65785 0
M  V30 7094 O 698.435 3.77551 2.22232 0
M  V30 7095 C 699.936 2.60017 3.59035 0
M  V30 7096 H 697.156 0.507544 0.438907 0
M  V30 7097 H 699.7 1.88752 0.786942 0
M  V30 7098 H 697.855 2.08985 3.26196 0
M  V30 7099 H 698.269 4.29001 3.01759 0
M  V30 7100 H 699.743 3.30887 4.41835 0
M  V30 7101 H 700.22 1.64861 4.07084 0
M  V30 7102 H 700.826 2.96918 3.045 0
M  V30 7103 N 699.141 -0.881989 1.30609 0
M  V30 7104 C 700.091 -1.97539 1.13852 0
M  V30 7105 C 701.075 -1.60813 0.0528428 0
M  V30 7106 O 702.267 -1.74827 0.276484 0
M  V30 7107 C 699.396 -3.32977 0.835519 0
M  V30 7108 C 698.482 -3.76008 1.96159 0
M  V30 7109 N 698.873 -3.91109 3.20729 0
M  V30 7110 C 697.171 -4.05427 1.85863 0
M  V30 7111 C 697.872 -4.27661 3.94311 0
M  V30 7112 N 696.848 -4.37686 3.22385 0
M  V30 7113 H 700.65 -2.07309 2.08327 0
M  V30 7114 H 698.164 -1.072 1.21992 0
M  V30 7115 H 700.161 -4.11041 0.696477 0
M  V30 7116 H 698.821 -3.24542 -0.101135 0
M  V30 7117 H 699.832 -3.7616 3.55984 0
M  V30 7118 H 696.509 -4.05449 0.995847 0
M  V30 7119 H 697.899 -4.47042 5.01601 0
M  V30 7120 N 700.619 -1.13374 -1.09472 0
M  V30 7121 C 701.529 -0.824029 -2.19652 0
M  V30 7122 C 702.545 0.19118 -1.72947 0
M  V30 7123 O 703.721 0.0223464 -2.01388 0
M  V30 7124 C 700.786 -0.294009 -3.45451 0
M  V30 7125 C 699.847 -1.3704 -4.0684 0
M  V30 7126 C 699.08 -0.86558 -5.26634 0
M  V30 7127 O 699.303 0.29702 -5.69626 0
M  V30 7128 O 698.237 -1.63968 -5.79136 0
M  V30 7129 H 702.063 -1.74454 -2.48595 0
M  V30 7130 H 699.648 -0.911155 -1.18399 0
M  V30 7131 H 701.53 -0.00381039 -4.214 0
M  V30 7132 H 700.205 0.598921 -3.18111 0
M  V30 7133 H 699.112 -1.71391 -3.3253 0
M  V30 7134 H 700.445 -2.23746 -4.38405 0
M  V30 7135 N 702.098 1.27442 -0.927168 0
M  V30 7136 C 703.509 1.76385 -0.611979 0
M  V30 7137 C 703.86 1.75715 0.872853 0
M  V30 7138 O 702.985 1.3603 1.683 0
M  V30 7139 C 703.58 3.20303 -1.10414 0
M  V30 7140 C 702.139 3.66916 -0.839628 0
M  V30 7141 C 701.286 2.46859 -1.26317 0
M  V30 7142 H 704.237 1.13716 -1.107 0
M  V30 7143 H 704.258 3.77811 -0.451578 0
M  V30 7144 H 703.77 3.20759 -2.18484 0
M  V30 7145 H 701.871 3.71906 0.227292 0
M  V30 7146 H 701.984 4.56415 -1.45679 0
M  V30 7147 H 700.348 2.45407 -0.681723 0
M  V30 7148 H 701.131 2.50025 -2.3525 0
M  V30 7149 N 703.576 0.692616 1.41565 0
M  V30 7150 C 704.825 0.219452 2.00503 0
M  V30 7151 C 705.138 -1.18683 1.55479 0
M  V30 7152 O 706.344 -1.75731 2.06956 0
M  V30 7153 C 704.8 0.341451 3.58277 0
M  V30 7154 C 704.408 1.75291 4.12283 0
M  V30 7155 C 706.152 -0.0720899 4.24439 0
M  V30 7156 C 704.059 1.82673 5.62481 0
M  V30 7157 H 702.989 0.0782874 0.749925 0
M  V30 7158 H 705.64 0.860386 1.62079 0
M  V30 7159 H 704.022 -0.367683 3.94289 0
M  V30 7160 H 705.196 2.49057 3.87695 0
M  V30 7161 H 703.511 2.11587 3.58636 0
M  V30 7162 H 706.108 -0.0373385 5.34687 0
M  V30 7163 H 706.451 -1.11034 4.0122 0
M  V30 7164 H 706.984 0.586663 3.9345 0
M  V30 7165 H 703.723 2.84539 5.90523 0
M  V30 7166 H 703.243 1.13288 5.89004 0
M  V30 7167 H 704.922 1.58827 6.27203 0
M  V30 7168 N 705.054 -1.51416 0.437162 0
M  V30 7169 C 705.964 -2.31493 -0.380537 0
M  V30 7170 C 706.98 -1.40399 -1.02782 0
M  V30 7171 O 708.156 -1.73471 -1.02323 0
M  V30 7172 C 705.221 -3.1413 -1.46709 0
M  V30 7173 C 704.282 -4.21003 -0.839953 0
M  V30 7174 C 703.515 -4.9969 -1.87473 0
M  V30 7175 O 703.738 -4.79008 -3.09689 0
M  V30 7176 O 702.672 -5.8379 -1.46536 0
M  V30 7177 H 706.498 -3.02469 0.273183 0
M  V30 7178 H 704.083 -1.48059 0.199706 0
M  V30 7179 H 705.965 -3.65505 -2.09724 0
M  V30 7180 H 704.64 -2.45919 -2.10489 0
M  V30 7181 H 703.547 -3.73706 -0.171752 0
M  V30 7182 H 704.88 -4.91587 -0.245638 0
M  V30 7183 N 706.532 -0.168513 -1.56696 0
M  V30 7184 C 707.464 0.794249 -2.14998 0
M  V30 7185 C 708.477 1.1957 -1.10485 0
M  V30 7186 O 709.666 1.13604 -1.37682 0
M  V30 7187 C 706.766 2.08018 -2.67547 0
M  V30 7188 C 705.939 1.84274 -3.96689 0
M  V30 7189 C 704.998 2.97059 -4.3433 0
M  V30 7190 O 704.024 2.67815 -5.02259 0
M  V30 7191 N 705.226 4.24775 -3.9566 0
M  V30 7192 H 707.991 0.295832 -2.98236 0
M  V30 7193 H 705.552 0.0143611 -1.61894 0
M  V30 7194 H 707.544 2.82559 -2.89729 0
M  V30 7195 H 706.114 2.49059 -1.88914 0
M  V30 7196 H 705.334 0.936528 -3.82914 0
M  V30 7197 H 706.622 1.65773 -4.81037 0
M  V30 7198 H 706.02 4.51395 -3.40968 0
M  V30 7199 H 704.577 4.96027 -4.22848 0
M  V30 7200 N 708.01 1.57248 0.105221 0
M  V30 7201 C 708.94 2.04374 1.12931 0
M  V30 7202 C 709.921 0.93074 1.42377 0
M  V30 7203 O 711.106 1.20136 1.52581 0
M  V30 7204 C 708.236 2.45967 2.45189 0
M  V30 7205 C 707.19 3.60838 2.30174 0
M  V30 7206 C 706.516 3.88374 3.67518 0
M  V30 7207 C 707.816 4.92084 1.75073 0
M  V30 7208 H 709.51 2.9018 0.737287 0
M  V30 7209 H 707.056 1.39601 0.353211 0
M  V30 7210 H 709.009 2.77542 3.17094 0
M  V30 7211 H 707.733 1.57148 2.86308 0
M  V30 7212 H 706.392 3.29493 1.60716 0
M  V30 7213 H 706.04 2.96739 4.06147 0
M  V30 7214 H 705.74 4.65703 3.58321 0
M  V30 7215 H 707.264 4.22415 4.40906 0
M  V30 7216 H 708.678 5.22106 2.36809 0
M  V30 7217 H 707.075 5.73507 1.76662 0
M  V30 7218 H 708.145 4.79684 0.709347 0
M  V30 7219 N 709.488 -0.375779 1.53054 0
M  V30 7220 C 710.451 -1.44254 1.7811 0
M  V30 7221 C 711.451 -1.47018 0.651328 0
M  V30 7222 O 712.641 -1.47957 0.919472 0
M  V30 7223 C 709.773 -2.8345 1.89391 0
M  V30 7224 H 710.966 -1.23316 2.73374 0
M  V30 7225 H 708.519 -0.608312 1.43977 0
M  V30 7226 H 709.254 -3.09716 0.961589 0
M  V30 7227 H 709.039 -2.82844 2.71555 0
M  V30 7228 H 710.529 -3.60722 2.10404 0
M  V30 7229 N 710.966 -1.44241 -0.634997 0
M  V30 7230 C 711.929 -1.50457 -1.72903 0
M  V30 7231 C 712.929 -0.387058 -1.56072 0
M  V30 7232 O 714.119 -0.649531 -1.61638 0
M  V30 7233 C 711.251 -1.37477 -3.1195 0
M  V30 7234 H 712.444 -2.47907 -1.68767 0
M  V30 7235 H 709.997 -1.31276 -0.84831 0
M  V30 7236 H 710.732 -0.41106 -3.21684 0
M  V30 7237 H 710.517 -2.18506 -3.25573 0
M  V30 7238 H 712.007 -1.44799 -3.91692 0
M  V30 7239 N 712.444 0.87505 -1.31075 0
M  V30 7240 C 713.374 1.99775 -1.20881 0
M  V30 7241 C 714.355 1.69822 -0.0971612 0
M  V30 7242 O 715.54 1.92158 -0.280895 0
M  V30 7243 C 712.67 3.35163 -0.910118 0
M  V30 7244 C 711.624 3.79406 -1.98078 0
M  V30 7245 C 710.95 5.12197 -1.53488 0
M  V30 7246 C 712.25 3.97061 -3.39323 0
M  V30 7247 H 713.944 2.08562 -2.14808 0
M  V30 7248 H 711.49 1.00207 -1.03415 0
M  V30 7249 H 713.443 4.13237 -0.825423 0
M  V30 7250 H 712.167 3.26536 0.064822 0
M  V30 7251 H 710.826 3.03568 -2.05528 0
M  V30 7252 H 710.474 5.00007 -0.547941 0
M  V30 7253 H 710.174 5.4277 -2.2511 0
M  V30 7254 H 711.698 5.92785 -1.46417 0
M  V30 7255 H 713.112 4.65545 -3.34576 0
M  V30 7256 H 711.509 4.39025 -4.09118 0
M  V30 7257 H 712.579 3.00601 -3.80483 0
M  V30 7258 N 713.922 1.13953 1.08869 0
M  V30 7259 C 715.338 0.878924 1.33218 0
M  V30 7260 C 715.538 -0.482478 1.95638 0
M  V30 7261 O 714.594 -1.22778 2.2064 0
M  V30 7262 C 715.907 2.00798 2.23832 0
M  V30 7263 C 717.455 2.04073 2.37325 0
M  V30 7264 C 717.93 3.16258 3.31278 0
M  V30 7265 N 719.421 3.15805 3.38853 0
M  V30 7266 C 720.156 3.99249 4.11567 0
M  V30 7267 N 719.652 4.92721 4.87029 0
M  V30 7268 N 721.445 3.87327 4.0735 0
M  V30 7269 H 713.596 2.01645 0.66731 0
M  V30 7270 H 715.859 0.878395 0.356547 0
M  V30 7271 H 715.565 2.98986 1.85203 0
M  V30 7272 H 715.439 1.92704 3.24261 0
M  V30 7273 H 717.826 1.06495 2.75214 0
M  V30 7274 H 717.907 2.16239 1.36654 0
M  V30 7275 H 717.551 4.14079 2.9411 0
M  V30 7276 H 717.481 3.0133 4.31866 0
M  V30 7277 H 719.972 2.48102 2.8505 0
M  V30 7278 H 720.285 5.52867 5.39961 0
M  V30 7279 H 718.63 4.96723 4.86098 0
M  V30 7280 H 721.821 3.13627 3.475 0
M  V30 7281 H 721.994 4.52585 4.63757 0
M  V30 7282 N 715.4 -1.26948 0.933913 0
M  V30 7283 C 716.363 -2.24889 0.442457 0
M  V30 7284 C 717.363 -1.54594 -0.442426 0
M  V30 7285 O 718.553 -1.72502 -0.242629 0
M  V30 7286 C 715.685 -3.3896 -0.363173 0
M  V30 7287 H 716.878 -2.69879 1.30787 0
M  V30 7288 H 714.431 -1.38978 0.715187 0
M  V30 7289 H 715.166 -2.99361 -1.24714 0
M  V30 7290 H 714.951 -3.9116 0.271366 0
M  V30 7291 H 716.441 -4.11739 -0.697186 0
M  V30 7292 N 716.879 -0.700114 -1.41195 0
M  V30 7293 C 717.812 0.0129614 -2.28196 0
M  V30 7294 C 718.79 0.783367 -1.42486 0
M  V30 7295 O 719.974 0.773238 -1.71911 0
M  V30 7296 C 717.101 1.02575 -3.22794 0
M  V30 7297 C 716.147 0.347977 -4.25078 0
M  V30 7298 S 716.98 -0.912938 -5.27661 0
M  V30 7299 C 718.136 0.0981362 -6.25823 0
M  V30 7300 H 718.369 -0.724927 -2.88326 0
M  V30 7301 H 715.902 -0.490554 -1.464 0
M  V30 7302 H 717.86 1.60491 -3.77826 0
M  V30 7303 H 716.521 1.73624 -2.61751 0
M  V30 7304 H 715.714 1.11305 -4.91556 0
M  V30 7305 H 715.316 -0.15823 -3.73665 0
M  V30 7306 H 717.608 0.949965 -6.70807 0
M  V30 7307 H 718.551 -0.532838 -7.06092 0
M  V30 7308 H 718.959 0.454944 -5.62664 0
M  V30 7309 N 718.357 1.51182 -0.445186 0
M  V30 7310 C 719.768 1.86693 0.0160999 0
M  V30 7311 C 720.119 1.36183 1.4124 0
M  V30 7312 O 719.244 0.715895 2.04215 0
M  V30 7313 C 719.839 3.38781 0.0359918 0
M  V30 7314 C 718.398 3.73799 0.441715 0
M  V30 7315 C 717.545 2.74947 -0.360511 0
M  V30 7316 H 720.496 1.44294 -0.660674 0
M  V30 7317 H 720.517 3.71026 0.843813 0
M  V30 7318 H 720.029 3.75513 -0.980378 0
M  V30 7319 H 718.13 3.42659 1.4634 0
M  V30 7320 H 718.243 4.78829 0.16106 0
M  V30 7321 H 716.607 2.54047 0.182269 0
M  V30 7322 H 717.39 3.14521 -1.3759 0
M  V30 7323 N 719.835 0.176821 1.56605 0
M  V30 7324 C 720.783 -0.768159 2.1955 0
M  V30 7325 C 721.777 -1.23343 1.16116 0
M  V30 7326 O 722.983 -1.19844 1.34303 0
M  V30 7327 H 719.358 -0.266013 0.703378 0
M  V30 7328 H 721.329 -0.213374 2.97636 0
M  V30 7329 C 720.078 -1.98492 2.85475 0
M  V30 7330 H 719.401 -1.63595 3.64797 0
M  V30 7331 H 720.841 -2.62489 3.3298 0
M  V30 7332 C 719.3 -2.81207 1.85538 0
M  V30 7333 O 719.83 -3.7854 1.34427 0
M  V30 7334 N 718.036 -2.46331 1.54173 0
M  V30 7335 H 717.583 -1.67241 1.95929 0
M  V30 7336 H 717.541 -3.01961 0.875595 0
M  V30 7337 N 721.313 -1.57302 -0.09688 0
M  V30 7338 C 722.559 -1.86273 -0.801885 0
M  V30 7339 C 722.892 -0.765694 -1.78468 0
M  V30 7340 O 722.167 0.226495 -1.93177 0
M  V30 7341 C 722.45 -3.25876 -1.53221 0
M  V30 7342 C 722.303 -4.46205 -0.567529 0
M  V30 7343 C 723.622 -3.63352 -2.48321 0
M  V30 7344 H 720.741 -0.67752 -0.29006 0
M  V30 7345 H 723.383 -1.89887 -0.0655577 0
M  V30 7346 H 721.533 -3.22926 -2.15988 0
M  V30 7347 H 723.205 -4.6127 0.0529982 0
M  V30 7348 H 721.448 -4.33636 0.119233 0
M  V30 7349 H 722.119 -5.40608 -1.11564 0
M  V30 7350 H 724.595 -3.67234 -1.95648 0
M  V30 7351 H 723.471 -4.61968 -2.9644 0
M  V30 7352 H 723.732 -2.91941 -3.31998 0
M  V30 7353 N 722.791 0.367657 -1.53252 0
M  V30 7354 C 724.016 1.13566 -1.73544 0
M  V30 7355 C 724.441 1.82329 -0.462344 0
M  V30 7356 O 723.799 1.71655 0.583472 0
M  V30 7357 C 723.847 2.14322 -2.89997 0
M  V30 7358 O 722.951 3.21359 -2.58461 0
M  V30 7359 H 722.292 0.329614 -0.576412 0
M  V30 7360 H 724.822 0.425417 -2.00128 0
M  V30 7361 H 724.832 2.57958 -3.16104 0
M  V30 7362 H 723.507 1.63664 -3.82344 0
M  V30 7363 H 722.084 2.8271 -2.43165 0
M  V30 7364 N 724.269 1.44576 0.627338 0
M  V30 7365 C 725.515 1.47777 1.38888 0
M  V30 7366 C 725.848 0.111406 1.9388 0
M  V30 7367 O 725.123 -0.87149 1.73883 0
M  V30 7368 C 725.406 2.54119 2.55138 0
M  V30 7369 C 725.259 4.00128 2.0547 0
M  V30 7370 C 726.578 2.56929 3.57317 0
M  V30 7371 H 723.697 0.538048 0.50366 0
M  V30 7372 H 726.339 1.76277 0.708978 0
M  V30 7373 H 724.489 2.29948 3.13139 0
M  V30 7374 H 726.161 4.35444 1.5227 0
M  V30 7375 H 724.404 4.11724 1.36623 0
M  V30 7376 H 725.075 4.7019 2.89181 0
M  V30 7377 H 727.551 2.78536 3.09122 0
M  V30 7378 H 726.427 3.33234 4.36173 0
M  V30 7379 H 726.688 1.6127 4.11636 0
M  V30 7380 N 725.747 -0.868086 1.31537 0
M  V30 7381 C 726.996 -1.61607 1.20689 0
M  V30 7382 C 727.309 -1.94204 -0.233275 0
M  V30 7383 O 728.515 -2.67515 -0.463465 0
M  V30 7384 C 726.971 -2.91348 2.11292 0
M  V30 7385 C 726.579 -2.66227 3.60315 0
M  V30 7386 C 728.323 -3.69344 2.09249 0
M  V30 7387 C 726.23 -3.91887 4.42921 0
M  V30 7388 H 725.16 -0.606373 0.448138 0
M  V30 7389 H 727.811 -0.959666 1.56405 0
M  V30 7390 H 726.193 -3.58374 1.68477 0
M  V30 7391 H 727.367 -2.07597 4.11388 0
M  V30 7392 H 725.682 -2.01582 3.64354 0
M  V30 7393 H 728.279 -4.62567 2.68209 0
M  V30 7394 H 728.622 -4.02044 1.0801 0
M  V30 7395 H 729.155 -3.09205 2.50274 0
M  V30 7396 H 725.894 -3.64336 5.44922 0
M  V30 7397 H 725.414 -4.49961 3.96605 0
M  V30 7398 H 727.093 -4.59754 4.55231 0
M  V30 7399 N 727.225 -1.14528 -1.08264 0
M  V30 7400 C 728.641 -0.885976 -1.3275 0
M  V30 7401 C 728.841 0.472096 -1.95892 0
M  V30 7402 O 727.897 1.21606 -2.21288 0
M  V30 7403 C 729.21 -2.01982 -2.22764 0
M  V30 7404 C 730.758 -2.05329 -2.36239 0
M  V30 7405 C 731.233 -3.1801 -3.29596 0
M  V30 7406 N 732.724 -3.17598 -3.37173 0
M  V30 7407 C 733.459 -4.01426 -4.09444 0
M  V30 7408 N 732.955 -4.95297 -4.8441 0
M  V30 7409 N 734.748 -3.89482 -4.0529 0
M  V30 7410 H 726.899 -2.01996 -0.656607 0
M  V30 7411 H 729.162 -0.880274 -0.351884 0
M  V30 7412 H 728.868 -2.99964 -1.83615 0
M  V30 7413 H 728.742 -1.94421 -3.23234 0
M  V30 7414 H 731.129 -1.07953 -2.74646 0
M  V30 7415 H 731.21 -2.1696 -1.35506 0
M  V30 7416 H 730.854 -4.15633 -2.9191 0
M  V30 7417 H 730.784 -3.03616 -4.30261 0
M  V30 7418 H 733.275 -2.4961 -2.83731 0
M  V30 7419 H 733.588 -5.55723 -5.37021 0
M  V30 7420 H 731.933 -4.99293 -4.83457 0
M  V30 7421 H 735.124 -3.15465 -3.45832 0
M  V30 7422 H 735.297 -4.55039 -4.6135 0
M  V30 7423 N 728.703 1.26451 -0.940633 0
M  V30 7424 C 730.114 1.75726 -0.630653 0
M  V30 7425 C 730.465 1.76631 0.854167 0
M  V30 7426 O 729.59 1.37807 1.66848 0
M  V30 7427 C 730.185 3.19114 -1.13805 0
M  V30 7428 C 728.744 3.66005 -0.878497 0
M  V30 7429 C 727.891 2.45505 -1.28928 0
M  V30 7430 H 730.842 1.12535 -1.119 0
M  V30 7431 H 730.863 3.77311 -0.491625 0
M  V30 7432 H 730.375 3.18424 -2.21874 0
M  V30 7433 H 728.476 3.72126 0.187833 0
M  V30 7434 H 728.589 4.54844 -1.50512 0
M  V30 7435 H 726.953 2.4467 -0.707713 0
M  V30 7436 H 727.736 2.47516 -2.37888 0
M  V30 7437 N 730.181 0.707592 1.40822 0
M  V30 7438 C 731.144 0.0587224 2.29125 0
M  V30 7439 C 732.144 -0.695624 1.44975 0
M  V30 7440 O 733.334 -0.528718 1.65983 0
M  V30 7441 C 730.466 -0.926939 3.28056 0
M  V30 7442 H 731.659 0.836349 2.88002 0
M  V30 7443 H 729.212 0.471778 1.4901 0
M  V30 7444 H 729.947 -1.7319 2.74182 0
M  V30 7445 H 729.732 -0.389015 3.90165 0
M  V30 7446 H 731.222 -1.37837 3.94196 0
M  V30 7447 N 731.66 -1.50943 0.453197 0
M  V30 7448 C 732.937 -1.94872 -0.168633 0
M  V30 7449 C 733.317 -1.39272 -1.5864 0
M  V30 7450 O 732.665 -0.586272 -2.20851 0
M  V30 7451 C 732.875 -3.48757 -0.130217 0
M  V30 7452 C 734.223 -4.23331 -0.327975 0
M  V30 7453 O 735.247 -3.55594 -0.207619 0
M  V30 7454 O 734.106 -5.43529 -0.569077 0
M  V30 7455 H 731.2 -0.818042 -0.121394 0
M  V30 7456 H 733.746 -1.61782 0.512316 0
M  V30 7457 H 732.518 -3.81725 0.860346 0
M  V30 7458 H 732.141 -3.88333 -0.853397 0
M  V30 7459 N 733.138 -0.185124 -1.56509 0
M  V30 7460 C 734.386 0.455357 -1.96903 0
M  V30 7461 C 734.707 1.62839 -1.07277 0
M  V30 7462 O 733.977 1.95385 -0.141966 0
M  V30 7463 H 732.557 0.171218 -0.727113 0
M  V30 7464 H 735.219 -0.26953 -1.93027 0
M  V30 7465 H 734.315 0.80616 -3.01509 0
M  V30 7466 N 734.616 1.57351 0.0885366 0
M  V30 7467 C 735.564 2.03542 1.12576 0
M  V30 7468 C 736.558 0.937668 1.41082 0
M  V30 7469 O 737.764 1.12283 1.40686 0
M  V30 7470 H 734.139 0.648752 0.380296 0
M  V30 7471 H 736.11 2.89833 0.709906 0
M  V30 7472 C 734.859 2.4811 2.43591 0
M  V30 7473 H 734.182 3.32164 2.22502 0
M  V30 7474 H 735.622 2.842 3.14653 0
M  V30 7475 C 734.081 1.35708 3.08359 0
M  V30 7476 O 734.611 0.689852 3.95732 0
M  V30 7477 N 732.817 1.10641 2.68713 0
M  V30 7478 H 732.364 1.6508 1.97753 0
M  V30 7479 H 732.322 0.356355 3.12374 0
M  V30 7480 N 736.094 -0.359525 1.53444 0
M  V30 7481 C 737.004 -1.46445 1.83278 0
M  V30 7482 C 738.02 -1.5833 0.721629 0
M  V30 7483 O 739.196 -1.7411 1.01231 0
M  V30 7484 C 736.261 -2.81638 2.02191 0
M  V30 7485 C 735.322 -2.7923 3.26082 0
M  V30 7486 C 734.555 -4.07974 3.44082 0
M  V30 7487 O 734.778 -5.04447 2.66251 0
M  V30 7488 O 733.712 -4.13417 4.37458 0
M  V30 7489 H 737.538 -1.24156 2.77162 0
M  V30 7490 H 735.123 -0.550201 1.389 0
M  V30 7491 H 737.005 -3.61732 2.16167 0
M  V30 7492 H 735.68 -3.03892 1.11496 0
M  V30 7493 H 734.587 -1.97813 3.17523 0
M  V30 7494 H 735.92 -2.6193 4.16718 0
M  V30 7495 N 737.572 -1.44907 -0.619662 0
M  V30 7496 C 738.797 -1.52021 -1.41083 0
M  V30 7497 C 739.222 -0.14976 -1.87503 0
M  V30 7498 O 738.58 0.863303 -1.59426 0
M  V30 7499 C 738.628 -2.49911 -2.59955 0
M  V30 7500 O 737.732 -2.00857 -3.60181 0
M  V30 7501 H 737.073 -0.512912 -0.421684 0
M  V30 7502 H 739.603 -1.90149 -0.755282 0
M  V30 7503 H 739.613 -2.68323 -3.07354 0
M  V30 7504 H 738.288 -3.4945 -2.25516 0
M  V30 7505 H 736.865 -1.92265 -3.19513 0
M  V30 7506 N 739.05 0.861098 -1.31996 0
M  V30 7507 C 740.296 1.61721 -1.22369 0
M  V30 7508 C 740.629 1.93 0.215587 0
M  V30 7509 O 739.904 1.56789 1.15098 0
M  V30 7510 C 740.187 2.9417 -2.07691 0
M  V30 7511 C 740.04 2.69714 -3.59965 0
M  V30 7512 C 741.359 3.95372 -1.93312 0
M  V30 7513 H 738.478 0.586822 -0.44588 0
M  V30 7514 H 741.12 0.994788 -1.61876 0
M  V30 7515 H 739.27 3.47292 -1.74128 0
M  V30 7516 H 740.942 2.23196 -4.03709 0
M  V30 7517 H 739.185 2.03789 -3.82952 0
M  V30 7518 H 739.856 3.63996 -4.14983 0
M  V30 7519 H 742.332 3.51487 -2.22701 0
M  V30 7520 H 741.208 4.85916 -2.55298 0
M  V30 7521 H 741.469 4.32865 -0.898922 0
M  V30 7522 N 740.528 1.15101 1.07655 0
M  V30 7523 C 741.491 0.847625 2.12951 0
M  V30 7524 C 742.491 -0.151227 1.60087 0
M  V30 7525 O 743.681 0.0780399 1.74025 0
M  V30 7526 C 740.813 0.265 3.39868 0
M  V30 7527 H 742.006 1.7809 2.41296 0
M  V30 7528 H 739.559 0.958072 1.23494 0
M  V30 7529 H 740.294 -0.676625 3.17163 0
M  V30 7530 H 740.079 0.984554 3.79538 0
M  V30 7531 H 741.569 0.0702121 4.17541 0
M  V30 7532 N 742.006 -1.2595 0.947325 0
M  V30 7533 C 742.969 -2.24407 0.466285 0
M  V30 7534 C 743.969 -1.55054 -0.426005 0
M  V30 7535 O 745.159 -1.7275 -0.224319 0
M  V30 7536 C 742.291 -3.39326 -0.327201 0
M  V30 7537 H 743.484 -2.68477 1.33642 0
M  V30 7538 H 741.037 -1.38211 0.729887 0
M  V30 7539 H 741.772 -3.00667 -1.21532 0
M  V30 7540 H 741.557 -3.9085 0.312839 0
M  V30 7541 H 743.047 -4.12455 -0.653477 0
M  V30 7542 N 743.484 -0.715051 -1.40445 0
M  V30 7543 C 744.73 -0.263528 -2.01686 0
M  V30 7544 C 745.085 1.13052 -1.55683 0
M  V30 7545 O 744.378 1.75588 -0.766762 0
M  V30 7546 C 744.572 -0.281791 -3.56287 0
M  V30 7547 C 744.401 -1.67607 -4.17298 0
M  V30 7548 C 743.171 -2.2836 -4.50755 0
M  V30 7549 C 745.369 -2.62621 -4.42193 0
M  V30 7550 N 743.351 -3.6015 -4.97157 0
M  V30 7551 C 744.722 -3.79116 -4.90582 0
M  V30 7552 C 746.777 -2.60639 -4.24231 0
M  V30 7553 C 745.48 -4.93937 -5.22895 0
M  V30 7554 C 747.506 -3.74587 -4.57644 0
M  V30 7555 C 746.868 -4.89815 -5.06222 0
M  V30 7556 H 742.967 -0.142252 -0.768953 0
M  V30 7557 H 745.551 -0.936732 -1.70685 0
M  V30 7558 H 743.722 0.360975 -3.86719 0
M  V30 7559 H 745.454 0.186393 -4.04271 0
M  V30 7560 H 742.209 -1.80463 -4.3787 0
M  V30 7561 H 742.633 -4.27757 -5.24741 0
M  V30 7562 H 747.275 -1.72759 -3.85894 0
M  V30 7563 H 744.993 -5.82462 -5.60146 0
M  V30 7564 H 748.579 -3.74328 -4.45387 0
M  V30 7565 H 747.459 -5.76525 -5.3159 0
M  V30 7566 N 744.962 1.50701 -0.461195 0
M  V30 7567 C 746.378 1.59187 -0.114786 0
M  V30 7568 C 746.578 1.4702 1.37794 0
M  V30 7569 O 745.634 1.32361 2.15027 0
M  V30 7570 C 746.947 2.93453 -0.656167 0
M  V30 7571 C 748.495 3.06824 -0.618715 0
M  V30 7572 C 748.97 4.4365 -1.13747 0
M  V30 7573 N 750.461 4.50035 -1.09646 0
M  V30 7574 C 751.196 5.54278 -1.46846 0
M  V30 7575 N 750.692 6.65822 -1.91448 0
M  V30 7576 N 752.485 5.44767 -1.38512 0
M  V30 7577 H 744.636 1.56853 -1.43216 0
M  V30 7578 H 746.899 0.740712 -0.59165 0
M  V30 7579 H 746.605 3.07802 -1.7015 0
M  V30 7580 H 746.479 3.77082 -0.0942261 0
M  V30 7581 H 748.866 2.92129 0.417685 0
M  V30 7582 H 748.947 2.24976 -1.21734 0
M  V30 7583 H 748.591 4.59093 -2.17245 0
M  V30 7584 H 748.521 5.24074 -0.515153 0
M  V30 7585 H 751.012 3.69988 -0.769217 0
M  V30 7586 H 751.325 7.41413 -2.18007 0
M  V30 7587 H 749.67 6.66968 -1.95393 0
M  V30 7588 H 752.861 4.56511 -1.03516 0
M  V30 7589 H 753.034 6.25889 -1.6783 0
M  V30 7590 N 746.441 0.193421 1.56409 0
M  V30 7591 C 747.371 -0.723334 2.22014 0
M  V30 7592 C 748.352 -1.22254 1.1827 0
M  V30 7593 O 749.537 -1.27168 1.46771 0
M  V30 7594 C 746.667 -1.94366 2.87818 0
M  V30 7595 C 745.621 -1.57943 3.97791 0
M  V30 7596 C 744.947 -2.87623 4.50752 0
M  V30 7597 C 746.247 -0.790639 5.16281 0
M  V30 7598 H 747.941 -0.176426 2.9888 0
M  V30 7599 H 745.487 -0.0834166 1.43758 0
M  V30 7600 H 747.44 -2.5902 3.32396 0
M  V30 7601 H 746.164 -2.51507 2.08355 0
M  V30 7602 H 744.823 -0.956482 3.53903 0
M  V30 7603 H 744.471 -3.4285 3.68053 0
M  V30 7604 H 744.171 -2.63998 5.24956 0
M  V30 7605 H 745.695 -3.53268 4.9803 0
M  V30 7606 H 747.109 -1.34024 5.57414 0
M  V30 7607 H 745.506 -0.65258 5.96541 0
M  V30 7608 H 746.576 0.208633 4.84451 0
M  V30 7609 N 747.919 -1.57396 -0.0801906 0
M  V30 7610 C 748.882 -2.02133 -1.0805 0
M  V30 7611 C 749.882 -0.91707 -1.32085 0
M  V30 7612 O 751.072 -1.18217 -1.27947 0
M  V30 7613 C 748.204 -2.39479 -2.42616 0
M  V30 7614 H 749.397 -2.91733 -0.6951 0
M  V30 7615 H 746.95 -1.52869 -0.325677 0
M  V30 7616 H 747.685 -1.52879 -2.86004 0
M  V30 7617 H 747.47 -3.20052 -2.26515 0
M  V30 7618 H 748.96 -2.74697 -3.14534 0
M  V30 7619 N 749.397 0.351382 -1.53633 0
M  V30 7620 C 750.327 1.43688 -1.84055 0
M  V30 7621 C 751.308 1.55251 -0.695073 0
M  V30 7622 O 752.493 1.69587 -0.946257 0
M  V30 7623 C 749.623 2.80843 -2.04315 0
M  V30 7624 C 748.577 2.84094 -3.20117 0
M  V30 7625 C 747.903 4.2406 -3.25696 0
M  V30 7626 C 749.203 2.50334 -4.58399 0
M  V30 7627 H 750.897 1.18478 -2.74961 0
M  V30 7628 H 748.443 0.568509 -1.32303 0
M  V30 7629 H 750.396 3.56821 -2.2418 0
M  V30 7630 H 749.12 3.07471 -1.10132 0
M  V30 7631 H 747.779 2.10568 -3.00094 0
M  V30 7632 H 747.427 4.47785 -2.29123 0
M  V30 7633 H 747.127 4.27147 -4.03509 0
M  V30 7634 H 748.651 5.0189 -3.47762 0
M  V30 7635 H 750.065 3.16025 -4.78332 0
M  V30 7636 H 748.462 2.64717 -5.38558 0
M  V30 7637 H 749.532 1.45542 -4.62543 0
M  V30 7638 N 750.875 1.45233 0.611969 0
M  V30 7639 C 751.785 1.56098 1.7513 0
M  V30 7640 C 752.801 0.445646 1.68196 0
M  V30 7641 O 753.977 0.705718 1.88631 0
M  V30 7642 C 751.042 1.52052 3.11579 0
M  V30 7643 C 750.103 2.74589 3.29999 0
M  V30 7644 C 749.336 2.70726 4.59938 0
M  V30 7645 O 749.559 1.77806 5.41979 0
M  V30 7646 O 748.493 3.61864 4.80976 0
M  V30 7647 H 752.319 2.52392 1.68914 0
M  V30 7648 H 749.904 1.27695 0.775528 0
M  V30 7649 H 751.786 1.52387 3.92882 0
M  V30 7650 H 750.461 0.589085 3.18295 0
M  V30 7651 H 749.368 2.79817 2.48301 0
M  V30 7652 H 750.701 3.66843 3.28157 0
M  V30 7653 N 752.353 -0.854086 1.3245 0
M  V30 7654 C 753.578 -1.64597 1.26185 0
M  V30 7655 C 754.003 -1.87357 -0.167074 0
M  V30 7656 O 753.361 -1.42675 -1.11864 0
M  V30 7657 C 753.409 -2.98213 2.02734 0
M  V30 7658 O 752.513 -3.88784 1.37554 0
M  V30 7659 H 751.854 -0.50179 0.434859 0
M  V30 7660 H 754.384 -1.06372 1.74775 0
M  V30 7661 H 754.394 -3.4803 2.1293 0
M  V30 7662 H 753.069 -2.80969 3.06642 0
M  V30 7663 H 751.646 -3.4725 1.3591 0
M  V30 7664 N 753.831 -1.1567 -1.07043 0
M  V30 7665 C 755.059 -0.957471 -1.83412 0
M  V30 7666 C 755.474 0.494271 -1.82215 0
M  V30 7667 O 754.831 1.34288 -1.23584 0
M  V30 7668 C 754.882 -1.46784 -3.30359 0
M  V30 7669 O 754.603 -2.86271 -3.31633 0
M  V30 7670 C 756.104 -1.31054 -4.23485 0
M  V30 7671 H 753.324 -0.33986 -0.578564 0
M  V30 7672 H 755.868 -1.53518 -1.35102 0
M  V30 7673 H 754.023 -0.932586 -3.76007 0
M  V30 7674 H 754.437 -3.0948 -4.23465 0
M  V30 7675 H 755.911 -1.71605 -5.24648 0
M  V30 7676 H 756.388 -0.255107 -4.38458 0
M  V30 7677 H 756.994 -1.83503 -3.83676 0
M  V30 7678 N 755.309 1.25446 -0.953992 0
M  V30 7679 C 756.257 2.27909 -0.46478 0
M  V30 7680 C 757.251 1.62904 0.464607 0
M  V30 7681 O 758.457 1.76733 0.341407 0
M  V30 7682 H 754.832 0.74036 -0.131798 0
M  V30 7683 H 756.803 2.66559 -1.34122 0
M  V30 7684 C 755.552 3.46853 0.242589 0
M  V30 7685 H 754.875 3.97105 -0.463418 0
M  V30 7686 H 756.315 4.20432 0.548919 0
M  V30 7687 C 754.774 3.03386 1.46487 0
M  V30 7688 O 755.304 3.09342 2.56262 0
M  V30 7689 N 753.51 2.58584 1.32599 0
M  V30 7690 H 753.057 2.53938 0.432834 0
M  V30 7691 H 753.015 2.29866 2.14497 0
M  V30 7692 N 756.787 0.722489 1.40064 0
M  V30 7693 C 757.734 0.0743738 2.3068 0
M  V30 7694 C 758.704 -0.743004 1.48555 0
M  V30 7695 O 759.889 -0.705536 1.77276 0
M  V30 7696 C 757.029 -0.836292 3.34814 0
M  V30 7697 C 756.142 -0.00764663 4.31999 0
M  V30 7698 C 755.277 -0.918428 5.232 0
M  V30 7699 C 754.316 -0.0842838 6.12042 0
M  V30 7700 N 753.453 -0.950316 6.95639 0
M  V30 7701 H 758.293 0.852794 2.85537 0
M  V30 7702 H 755.83 0.432222 1.40607 0
M  V30 7703 H 757.788 -1.3786 3.93765 0
M  V30 7704 H 756.418 -1.58082 2.81443 0
M  V30 7705 H 755.47 0.651928 3.74772 0
M  V30 7706 H 756.782 0.63786 4.94705 0
M  V30 7707 H 755.936 -1.52902 5.87116 0
M  V30 7708 H 754.675 -1.59774 4.60786 0
M  V30 7709 H 753.68 0.5392 5.4715 0
M  V30 7710 H 754.905 0.591628 6.76518 0
M  V30 7711 H 752.851 -1.61515 6.35806 0
M  V30 7712 H 752.768 -0.361004 7.55138 0
M  V30 7713 H 754.036 -1.54687 7.63997 0
M  V30 7714 N 758.265 -1.50454 0.469181 0
M  V30 7715 C 759.676 -1.86695 0.0136034 0
M  V30 7716 C 760.027 -1.38413 -1.39055 0
M  V30 7717 O 759.152 -0.748294 -2.03051 0
M  V30 7718 C 759.747 -3.38795 0.0179098 0
M  V30 7719 C 758.306 -3.74455 -0.382191 0
M  V30 7720 C 757.453 -2.74338 0.404207 0
M  V30 7721 H 760.404 -1.43225 0.683547 0
M  V30 7722 H 760.425 -3.72321 -0.78468 0
M  V30 7723 H 759.937 -3.73906 1.04 0
M  V30 7724 H 758.038 -3.44944 -1.4087 0
M  V30 7725 H 758.151 -4.79025 -0.084862 0
M  V30 7726 H 756.515 -2.54305 -0.141829 0
M  V30 7727 H 757.298 -3.12293 1.42577 0
M  V30 7728 N 759.743 -0.201713 -1.56304 0
M  V30 7729 C 760.971 0.440723 -2.02152 0
M  V30 7730 C 761.386 1.54735 -1.08179 0
M  V30 7731 O 760.743 1.82289 -0.0878196 0
M  V30 7732 C 760.794 0.990884 -3.47655 0
M  V30 7733 O 760.515 -0.0715937 -4.38041 0
M  V30 7734 C 762.016 1.70854 -4.09052 0
M  V30 7735 H 759.236 0.109987 -0.661924 0
M  V30 7736 H 761.78 -0.312358 -2.021 0
M  V30 7737 H 759.935 1.69432 -3.48384 0
M  V30 7738 H 760.349 0.338892 -5.23404 0
M  V30 7739 H 761.823 2.04572 -5.12693 0
M  V30 7740 H 762.3 2.61462 -3.52894 0
M  V30 7741 H 762.906 1.0508 -4.12114 0
M  V30 7742 N 761.222 1.57436 0.0718424 0
M  V30 7743 C 762.185 2.02703 1.06977 0
M  V30 7744 C 763.185 0.924062 1.31597 0
M  V30 7745 O 764.375 1.18894 1.27318 0
M  V30 7746 C 761.507 2.40763 2.41342 0
M  V30 7747 H 762.7 2.92098 0.679619 0
M  V30 7748 H 760.253 1.5304 0.317565 0
M  V30 7749 H 760.988 1.54394 2.8519 0
M  V30 7750 H 760.773 3.21249 2.24814 0
M  V30 7751 H 762.263 2.76361 3.13073 0
M  V30 7752 N 762.7 -0.34323 1.53817 0
M  V30 7753 C 763.63 -1.42709 1.84814 0
M  V30 7754 C 764.611 -1.5488 0.703297 0
M  V30 7755 O 765.796 -1.69082 0.955237 0
M  V30 7756 C 762.926 -2.79756 2.05801 0
M  V30 7757 C 761.88 -2.82392 3.21619 0
M  V30 7758 C 761.206 -4.22326 3.2794 0
M  V30 7759 C 762.506 -2.479 4.59721 0
M  V30 7760 H 764.2 -1.17018 2.75585 0
M  V30 7761 H 761.746 -0.561485 1.32602 0
M  V30 7762 H 763.699 -3.55627 2.26069 0
M  V30 7763 H 762.423 -3.06883 1.11761 0
M  V30 7764 H 761.082 -2.08974 3.01207 0
M  V30 7765 H 760.73 -4.46564 2.31494 0
M  V30 7766 H 760.43 -4.25001 4.05768 0
M  V30 7767 H 761.954 -5.00039 3.50419 0
M  V30 7768 H 763.368 -3.13484 4.80001 0
M  V30 7769 H 761.765 -2.61857 5.39954 0
M  V30 7770 H 762.835 -1.43087 4.63308 0
M  V30 7771 N 764.178 -1.45556 -0.604258 0
M  V30 7772 C 765.424 -1.49968 -1.36519 0
M  V30 7773 C 765.757 -0.142236 -1.93678 0
M  V30 7774 O 765.032 0.843717 -1.75247 0
M  V30 7775 C 765.315 -2.58146 -2.51063 0
M  V30 7776 C 765.168 -4.03346 -1.99078 0
M  V30 7777 C 766.487 -2.62581 -3.53184 0
M  V30 7778 H 763.606 -0.545993 -0.495036 0
M  V30 7779 H 766.248 -1.77382 -0.680845 0
M  V30 7780 H 764.398 -2.34901 -3.09441 0
M  V30 7781 H 766.07 -4.37811 -1.45323 0
M  V30 7782 H 764.313 -4.13845 -1.30055 0
M  V30 7783 H 764.984 -4.74731 -2.81664 0
M  V30 7784 H 767.46 -2.83419 -3.04652 0
M  V30 7785 H 766.336 -3.40131 -4.30816 0
M  V30 7786 H 766.597 -1.67798 -4.09019 0
M  V30 7787 N 765.656 0.84705 -1.32902 0
M  V30 7788 C 766.586 1.97166 -1.25091 0
M  V30 7789 C 767.567 1.69578 -0.133161 0
M  V30 7790 O 768.752 1.91519 -0.321591 0
M  V30 7791 C 765.882 3.33157 -0.981006 0
M  V30 7792 C 764.836 3.75119 -2.06082 0
M  V30 7793 C 764.162 5.08826 -1.64318 0
M  V30 7794 C 765.462 3.89774 -3.47669 0
M  V30 7795 H 767.156 2.03958 -2.19184 0
M  V30 7796 H 764.702 0.979907 -1.05517 0
M  V30 7797 H 766.655 4.11393 -0.912891 0
M  V30 7798 H 765.379 3.266 -0.00445559 0
M  V30 7799 H 764.038 2.9914 -2.11921 0
M  V30 7800 H 763.686 4.98732 -0.653876 0
M  V30 7801 H 763.386 5.37873 -2.36572 0
M  V30 7802 H 764.91 5.89546 -1.58958 0
M  V30 7803 H 766.324 4.58343 -3.44376 0
M  V30 7804 H 764.721 4.30248 -4.18338 0
M  V30 7805 H 765.791 2.92463 -3.86773 0
M  V30 7806 N 767.134 1.16236 1.06428 0
M  V30 7807 C 768.362 0.967184 1.82902 0
M  V30 7808 C 768.777 -0.484601 1.82475 0
M  V30 7809 O 768.134 -1.33631 1.24294 0
M  V30 7810 C 768.185 1.48534 3.29576 0
M  V30 7811 O 767.906 2.88026 3.3011 0
M  V30 7812 C 769.407 1.33298 4.22784 0
M  V30 7813 H 766.627 0.342923 0.576754 0
M  V30 7814 H 769.171 1.54232 1.34286 0
M  V30 7815 H 767.326 0.952513 3.75508 0
M  V30 7816 H 767.74 3.11721 4.21818 0
M  V30 7817 H 769.214 1.74385 5.23731 0
M  V30 7818 H 769.691 0.278356 4.38317 0
M  V30 7819 H 770.297 1.85535 3.82697 0
M  V30 7820 N 768.612 -1.24939 0.960631 0
M  V30 7821 C 770.028 -1.45039 0.666018 0
M  V30 7822 C 770.228 -1.86021 -0.774501 0
M  V30 7823 O 769.284 -1.99392 -1.54916 0
M  V30 7824 C 770.597 -2.51775 1.64408 0
M  V30 7825 C 772.145 -2.6561 1.65592 0
M  V30 7826 C 772.62 -3.75536 2.62177 0
M  V30 7827 N 774.111 -3.82954 2.60577 0
M  V30 7828 C 774.846 -4.67517 3.31987 0
M  V30 7829 N 774.342 -5.56321 4.1289 0
M  V30 7830 N 776.135 -4.61535 3.20845 0
M  V30 7831 H 768.286 -0.96632 1.89145 0
M  V30 7832 H 770.549 -0.486034 0.813926 0
M  V30 7833 H 770.255 -2.28534 2.67329 0
M  V30 7834 H 770.129 -3.49804 1.41128 0
M  V30 7835 H 772.516 -2.88212 0.633846 0
M  V30 7836 H 772.597 -1.67962 1.92931 0
M  V30 7837 H 772.241 -3.53684 3.64514 0
M  V30 7838 H 772.171 -4.72682 2.32119 0
M  V30 7839 H 774.662 -3.19478 2.01847 0
M  V30 7840 H 774.975 -6.17787 4.64283 0
M  V30 7841 H 773.32 -5.5601 4.16987 0
M  V30 7842 H 776.511 -3.91169 2.57108 0
M  V30 7843 H 776.684 -5.27214 3.76762 0
M  V30 7844 N 770.09 -0.729906 -1.39679 0
M  V30 7845 C 771.022 -0.0470588 -2.29152 0
M  V30 7846 C 772.035 0.708808 -1.4656 0
M  V30 7847 O 773.224 0.553815 -1.69691 0
M  V30 7848 C 770.324 0.957612 -3.25089 0
M  V30 7849 C 769.497 0.264321 -4.36601 0
M  V30 7850 C 768.556 1.17638 -5.12882 0
M  V30 7851 O 767.582 0.655777 -5.6541 0
M  V30 7852 N 768.784 2.50649 -5.23598 0
M  V30 7853 H 771.549 -0.815364 -2.88395 0
M  V30 7854 H 769.11 -0.578707 -1.51204 0
M  V30 7855 H 771.102 1.57026 -3.72995 0
M  V30 7856 H 769.672 1.62716 -2.66912 0
M  V30 7857 H 768.892 -0.528732 -3.90638 0
M  V30 7858 H 770.18 -0.216344 -5.0834 0
M  V30 7859 H 769.578 2.95427 -4.82431 0
M  V30 7860 H 768.135 3.07022 -5.74961 0
M  V30 7861 N 771.568 1.50203 -0.477153 0
M  V30 7862 C 772.845 1.95115 0.137609 0
M  V30 7863 C 773.225 1.41778 1.56404 0
M  V30 7864 O 772.573 0.621333 2.1989 0
M  V30 7865 C 772.783 3.4892 0.0747168 0
M  V30 7866 C 774.131 4.238 0.260585 0
M  V30 7867 O 775.155 3.5588 0.151021 0
M  V30 7868 O 774.014 5.44366 0.482534 0
M  V30 7869 H 771.108 0.81987 0.108364 0
M  V30 7870 H 773.654 1.60946 -0.537989 0
M  V30 7871 H 772.426 3.80308 -0.920966 0
M  V30 7872 H 772.049 3.89642 0.791509 0
M  V30 7873 N 773.046 0.209999 1.56195 0
M  V30 7874 C 773.976 -0.699746 2.22769 0
M  V30 7875 C 774.957 -1.20993 1.1956 0
M  V30 7876 O 776.142 -1.25605 1.48112 0
M  V30 7877 C 773.272 -1.91302 2.89863 0
M  V30 7878 C 772.226 -1.53715 3.99444 0
M  V30 7879 C 771.552 -2.82826 4.53777 0
M  V30 7880 C 772.852 -0.735836 5.17091 0
M  V30 7881 H 774.546 -0.144716 2.9905 0
M  V30 7882 H 772.092 -0.0681645 1.43839 0
M  V30 7883 H 774.045 -2.5548 3.35124 0
M  V30 7884 H 772.769 -2.49283 2.11011 0
M  V30 7885 H 771.428 -0.918892 3.54897 0
M  V30 7886 H 771.076 -3.38927 3.71669 0
M  V30 7887 H 770.776 -2.58415 5.27727 0
M  V30 7888 H 772.3 -3.47966 5.01749 0
M  V30 7889 H 773.714 -1.28105 5.58804 0
M  V30 7890 H 772.111 -0.589272 5.972 0
M  V30 7891 H 773.181 0.260004 4.84202 0
M  V30 7892 N 774.524 -1.57472 -0.0634922 0
M  V30 7893 C 775.935 -1.76303 -0.614337 0
M  V30 7894 C 776.286 -0.836578 -1.77471 0
M  V30 7895 O 775.411 -0.0227184 -2.16388 0
M  V30 7896 C 776.006 -3.19709 -1.12122 0
M  V30 7897 C 774.565 -3.39856 -1.61786 0
M  V30 7898 C 773.712 -2.71975 -0.540845 0
M  V30 7899 H 776.663 -1.57864 0.162702 0
M  V30 7900 H 776.684 -3.24326 -1.98979 0
M  V30 7901 H 776.196 -3.87114 -0.276472 0
M  V30 7902 H 774.297 -2.77578 -2.48558 0
M  V30 7903 H 774.41 -4.48338 -1.68908 0
M  V30 7904 H 772.774 -2.34763 -0.987854 0
M  V30 7905 H 773.557 -3.4204 0.293856 0
M  V30 7906 N 776.003 0.335068 -1.53997 0
M  V30 7907 C 777.231 1.09418 -1.756 0
M  V30 7908 C 777.646 1.82083 -0.499138 0
M  V30 7909 O 777.003 1.74646 0.529631 0
M  V30 7910 C 777.054 2.10115 -2.94166 0
M  V30 7911 O 776.775 1.40404 -4.14992 0
M  V30 7912 C 778.276 2.98336 -3.27888 0
M  V30 7913 H 775.496 0.32595 -0.586513 0
M  V30 7914 H 778.04 0.384693 -2.00849 0
M  V30 7915 H 776.195 2.76616 -2.71224 0
M  V30 7916 H 776.609 2.07743 -4.81605 0
M  V30 7917 H 778.083 3.6491 -4.1418 0
M  V30 7918 H 778.56 3.64814 -2.44556 0
M  V30 7919 H 779.166 2.37412 -3.52868 0
M  V30 7920 N 777.481 1.45874 0.596531 0
M  V30 7921 C 778.411 1.5824 1.71705 0
M  V30 7922 C 779.392 0.433366 1.64487 0
M  V30 7923 O 780.577 0.657895 1.82717 0
M  V30 7924 C 777.707 1.55927 3.10329 0
M  V30 7925 C 776.661 2.69659 3.32367 0
M  V30 7926 C 775.987 2.52403 4.71377 0
M  V30 7927 C 777.287 4.11591 3.21544 0
M  V30 7928 H 778.981 2.52035 1.61613 0
M  V30 7929 H 776.527 1.21297 0.776082 0
M  V30 7930 H 778.48 1.63173 3.88526 0
M  V30 7931 H 777.204 0.586674 3.21288 0
M  V30 7932 H 775.863 2.61859 2.56564 0
M  V30 7933 H 775.511 1.53258 4.79083 0
M  V30 7934 H 775.211 3.28679 4.87077 0
M  V30 7935 H 776.735 2.6152 5.5176 0
M  V30 7936 H 778.149 4.20576 3.89601 0
M  V30 7937 H 776.546 4.88344 3.4877 0
M  V30 7938 H 777.616 4.32719 2.1882 0
M  V30 7939 N 778.959 -0.83999 1.33349 0
M  V30 7940 C 779.869 -1.98182 1.25543 0
M  V30 7941 C 780.885 -1.73204 0.166208 0
M  V30 7942 O 782.061 -1.97596 0.389589 0
M  V30 7943 C 779.126 -3.32157 0.993614 0
M  V30 7944 C 778.187 -3.70258 2.17273 0
M  V30 7945 C 777.42 -4.9784 1.92331 0
M  V30 7946 O 777.643 -5.63679 0.873074 0
M  V30 7947 O 776.577 -5.33418 2.78835 0
M  V30 7948 H 780.403 -2.07708 2.21565 0
M  V30 7949 H 777.988 -0.972852 1.13384 0
M  V30 7950 H 779.87 -4.12433 0.864711 0
M  V30 7951 H 778.545 -3.23637 0.0636596 0
M  V30 7952 H 777.452 -2.90497 2.35716 0
M  V30 7953 H 778.785 -3.83442 3.08598 0
M  V30 7954 N 780.437 -1.16799 -1.0581 0
M  V30 7955 C 781.685 -0.950642 -1.78346 0
M  V30 7956 C 782.006 0.522524 -1.87869 0
M  V30 7957 O 781.276 1.3795 -1.39092 0
M  V30 7958 H 779.856 -0.348736 -0.6606 0
M  V30 7959 H 782.518 -1.47158 -1.27791 0
M  V30 7960 H 781.614 -1.37359 -2.80248 0
M  V30 7961 N 781.915 1.24427 -0.967243 0
M  V30 7962 C 782.878 2.23637 -0.501927 0
M  V30 7963 C 783.878 1.55712 0.401283 0
M  V30 7964 O 785.068 1.73085 0.196808 0
M  V30 7965 C 782.2 3.39804 0.273176 0
M  V30 7966 H 783.393 2.66317 -1.37897 0
M  V30 7967 H 780.946 1.37033 -0.751783 0
M  V30 7968 H 781.681 3.02562 1.16733 0
M  V30 7969 H 781.466 3.90303 -0.37498 0
M  V30 7970 H 782.956 4.13443 0.587776 0
M  V30 7971 N 783.393 0.737304 1.3929 0
M  V30 7972 C 784.34 0.0988364 2.30588 0
M  V30 7973 C 785.31 -0.727206 1.49335 0
M  V30 7974 O 786.495 -0.686694 1.78014 0
M  V30 7975 C 783.635 -0.800734 3.35682 0
M  V30 7976 C 782.748 0.0381731 4.31983 0
M  V30 7977 C 781.883 -0.862884 5.24145 0
M  V30 7978 C 780.922 -0.0193639 6.12097 0
M  V30 7979 N 780.059 -0.87648 6.96608 0
M  V30 7980 H 784.899 0.883031 2.84617 0
M  V30 7981 H 782.436 0.447111 1.4014 0
M  V30 7982 H 784.394 -1.33676 3.95205 0
M  V30 7983 H 783.024 -1.55088 2.83103 0
M  V30 7984 H 782.076 0.691641 3.74059 0
M  V30 7985 H 783.388 0.690294 4.94 0
M  V30 7986 H 782.542 -1.46667 5.88705 0
M  V30 7987 H 781.281 -1.54878 4.62454 0
M  V30 7988 H 780.286 0.597202 5.46547 0
M  V30 7989 H 781.511 0.663348 6.75852 0
M  V30 7990 H 779.457 -1.54762 6.37483 0
M  V30 7991 H 779.374 -0.280892 7.55478 0
M  V30 7992 H 780.642 -1.46575 7.65595 0
M  V30 7993 N 784.871 -1.49948 0.485112 0
M  V30 7994 C 786.148 -1.95186 -0.12726 0
M  V30 7995 C 786.528 -1.42605 -1.5565 0
M  V30 7996 O 785.876 -0.632986 -2.19558 0
M  V30 7997 C 786.086 -3.48955 -0.0562117 0
M  V30 7998 C 787.434 -4.23932 -0.238106 0
M  V30 7999 O 788.458 -3.55955 -0.132145 0
M  V30 8000 O 787.317 -5.44614 -0.453658 0
M  V30 8001 H 784.411 -0.820433 -0.104014 0
M  V30 8002 H 786.957 -1.60659 0.546517 0
M  V30 8003 H 785.729 -3.79814 0.941122 0
M  V30 8004 H 785.352 -3.90056 -0.770834 0
M  V30 8005 N 786.349 -0.21828 -1.56081 0
M  V30 8006 C 787.626 0.463143 -1.90038 0
M  V30 8007 C 788.006 1.77982 -1.13515 0
M  V30 8008 O 787.354 2.27199 -0.24345 0
M  V30 8009 C 787.564 0.659292 -3.42716 0
M  V30 8010 C 788.912 0.968203 -4.13414 0
M  V30 8011 O 789.936 0.746195 -3.48296 0
M  V30 8012 O 788.795 1.38936 -5.28544 0
M  V30 8013 H 785.889 0.244435 -0.790051 0
M  V30 8014 H 788.435 -0.260221 -1.67693 0
M  V30 8015 H 787.207 -0.269584 -3.9037 0
M  V30 8016 H 786.83 1.43426 -3.7083 0
M  V30 8017 N 787.827 1.57504 0.0551401 0
M  V30 8018 C 789.055 1.92294 0.76358 0
M  V30 8019 C 789.47 0.815774 1.70266 0
M  V30 8020 O 788.827 -0.209772 1.8129 0
M  V30 8021 C 788.878 3.26914 1.54302 0
M  V30 8022 O 788.599 4.33375 0.641666 0
M  V30 8023 C 790.1 3.75825 2.35097 0
M  V30 8024 H 787.32 0.635229 0.216159 0
M  V30 8025 H 789.864 2.0449 0.0204385 0
M  V30 8026 H 788.019 3.16196 2.23828 0
M  V30 8027 H 788.433 5.10927 1.1855 0
M  V30 8028 H 789.907 4.72603 2.8522 0
M  V30 8029 H 790.384 3.0568 3.15367 0
M  V30 8030 H 790.99 3.89542 1.70696 0
M  V30 8031 N 789.305 -0.326896 1.54172 0
M  V30 8032 C 790.535 -1.08328 1.75922 0
M  V30 8033 C 790.943 -1.82302 0.50622 0
M  V30 8034 O 790.286 -1.7581 -0.532581 0
M  V30 8035 C 790.348 -2.1294 2.8965 0
M  V30 8036 C 790.012 -1.58394 4.28673 0
M  V30 8037 C 791.009 -1.02747 5.09646 0
M  V30 8038 C 788.694 -1.62737 4.75207 0
M  V30 8039 C 790.688 -0.52169 6.35261 0
M  V30 8040 C 788.375 -1.11772 6.00791 0
M  V30 8041 C 789.373 -0.565819 6.80652 0
M  V30 8042 O 789.061 -0.0638146 8.03875 0
M  V30 8043 H 788.793 -0.3282 0.590983 0
M  V30 8044 H 791.347 -0.37972 2.0186 0
M  V30 8045 H 789.577 -2.86903 2.59275 0
M  V30 8046 H 791.266 -2.74274 2.99213 0
M  V30 8047 H 792.032 -0.987007 4.74851 0
M  V30 8048 H 787.911 -2.04635 4.13093 0
M  V30 8049 H 791.455 -0.0902544 6.97542 0
M  V30 8050 H 787.352 -1.15524 6.35078 0
M  V30 8051 H 788.12 -0.17955 8.18303 0
M  V30 8052 N 790.784 -1.46188 -0.588786 0
M  V30 8053 C 791.694 -1.58865 -1.72624 0
M  V30 8054 C 792.71 -0.472348 -1.67466 0
M  V30 8055 O 793.886 -0.735638 -1.87484 0
M  V30 8056 C 790.951 -1.56989 -3.0912 0
M  V30 8057 C 790.012 -2.79804 -3.25589 0
M  V30 8058 C 789.245 -2.78009 -4.55573 0
M  V30 8059 O 789.468 -1.86406 -5.39082 0
M  V30 8060 O 788.402 -3.6947 -4.75159 0
M  V30 8061 H 792.228 -2.55047 -1.64878 0
M  V30 8062 H 789.813 -1.28912 -0.755115 0
M  V30 8063 H 791.695 -1.58618 -3.90408 0
M  V30 8064 H 790.37 -0.639648 -3.17317 0
M  V30 8065 H 789.277 -2.83732 -2.43818 0
M  V30 8066 H 790.61 -3.72017 -3.22279 0
M  V30 8067 N 792.262 0.832906 -1.33792 0
M  V30 8068 C 793.209 1.94314 -1.24541 0
M  V30 8069 C 794.179 1.65646 -0.122753 0
M  V30 8070 O 795.364 1.88394 -0.30204 0
M  V30 8071 C 792.504 3.30395 -0.996641 0
M  V30 8072 C 791.617 3.71422 -2.20612 0
M  V30 8073 C 790.752 4.96401 -1.89101 0
M  V30 8074 C 789.791 5.2998 -3.06247 0
M  V30 8075 N 788.928 6.46137 -2.74685 0
M  V30 8076 H 793.768 2.01559 -2.19495 0
M  V30 8077 H 791.305 0.986243 -1.09141 0
M  V30 8078 H 793.263 4.08803 -0.832817 0
M  V30 8079 H 791.893 3.22691 -0.0838242 0
M  V30 8080 H 790.945 2.88488 -2.47949 0
M  V30 8081 H 792.257 3.92215 -3.0817 0
M  V30 8082 H 791.411 5.82572 -1.69396 0
M  V30 8083 H 790.15 4.7759 -0.987882 0
M  V30 8084 H 789.155 4.42312 -3.26559 0
M  V30 8085 H 790.38 5.50737 -3.97323 0
M  V30 8086 H 788.326 6.28801 -1.86938 0
M  V30 8087 H 788.243 6.67054 -3.55774 0
M  V30 8088 H 789.511 7.35403 -2.58461 0
M  V30 8089 N 793.74 1.17359 1.05189 0
M  V30 8090 C 794.986 0.963413 1.78455 0
M  V30 8091 C 795.319 -0.506703 1.87473 0
M  V30 8092 O 794.594 -1.37611 1.37453 0
M  V30 8093 C 794.877 1.60519 3.22344 0
M  V30 8094 C 794.73 3.14741 3.21338 0
M  V30 8095 C 796.049 1.3091 4.20179 0
M  V30 8096 H 793.168 0.351412 0.647826 0
M  V30 8097 H 795.81 1.44858 1.22948 0
M  V30 8098 H 793.96 1.19265 3.69741 0
M  V30 8099 H 795.632 3.65053 2.82017 0
M  V30 8100 H 793.875 3.4749 2.59679 0
M  V30 8101 H 794.546 3.54775 4.22894 0
M  V30 8102 H 797.022 1.66635 3.81277 0
M  V30 8103 H 795.898 1.784 5.191 0
M  V30 8104 H 796.159 0.229908 4.41502 0
M  V30 8105 N 795.218 -1.23913 0.973828 0
M  V30 8106 C 796.181 -2.23367 0.51378 0
M  V30 8107 C 797.181 -1.55923 -0.39302 0
M  V30 8108 O 798.371 -1.73187 -0.187626 0
M  V30 8109 C 795.503 -3.39944 -0.255152 0
M  V30 8110 H 796.696 -2.65581 1.39307 0
M  V30 8111 H 794.249 -1.36632 0.759039 0
M  V30 8112 H 794.984 -3.03177 -1.15127 0
M  V30 8113 H 794.769 -3.90098 0.395673 0
M  V30 8114 H 796.259 -4.13749 -0.565842 0
M  V30 8115 N 796.696 -0.74468 -1.38897 0
M  V30 8116 C 797.643 -0.111064 -2.30533 0
M  V30 8117 C 798.613 0.719276 -1.49719 0
M  V30 8118 O 799.798 0.677244 -1.78376 0
M  V30 8119 C 796.938 0.78292 -3.36102 0
M  V30 8120 C 796.051 -0.0610817 -4.31957 0
M  V30 8121 C 795.186 0.835075 -5.24595 0
M  V30 8122 C 794.225 -0.0130974 -6.12099 0
M  V30 8123 N 793.362 0.839525 -6.97063 0
M  V30 8124 H 798.202 -0.898113 -2.84144 0
M  V30 8125 H 795.739 -0.454537 -1.39901 0
M  V30 8126 H 797.697 1.31578 -3.95908 0
M  V30 8127 H 796.327 1.53585 -2.83922 0
M  V30 8128 H 795.379 -0.711469 -3.73687 0
M  V30 8129 H 796.691 -0.716482 -4.93627 0
M  V30 8130 H 795.845 1.43542 -5.89475 0
M  V30 8131 H 794.584 1.52423 -4.63269 0
M  V30 8132 H 793.589 -0.626179 -5.46223 0
M  V30 8133 H 794.814 -0.699181 -6.75491 0
M  V30 8134 H 792.76 1.5138 -6.38295 0
M  V30 8135 H 792.677 0.240823 -7.55616 0
M  V30 8136 H 793.945 1.42513 -7.66362 0
M  V30 8137 N 798.174 1.49689 -0.493057 0
M  V30 8138 C 799.422 2.02027 0.0541642 0
M  V30 8139 C 799.743 1.37554 1.38217 0
M  V30 8140 O 799.013 0.528174 1.88646 0
M  V30 8141 H 797.593 0.746646 0.0230069 0
M  V30 8142 H 800.255 1.83795 -0.648489 0
M  V30 8143 H 799.351 3.11523 0.189652 0
M  V30 8144 N 799.652 0.226554 1.55963 0
M  V30 8145 C 800.615 -0.668015 2.19249 0
M  V30 8146 C 801.615 -1.11794 1.1558 0
M  V30 8147 O 802.805 -1.02593 1.40784 0
M  V30 8148 C 799.937 -1.91571 2.81981 0
M  V30 8149 H 801.13 -0.116175 2.99675 0
M  V30 8150 H 798.683 -0.0230497 1.56283 0
M  V30 8151 H 799.418 -2.50929 2.05439 0
M  V30 8152 H 799.203 -1.6015 3.57903 0
M  V30 8153 H 800.693 -2.55294 3.30477 0
M  V30 8154 N 801.13 -1.57531 -0.0467866 0
M  V30 8155 C 802.36 -1.92417 -0.752279 0
M  V30 8156 C 802.768 -0.823134 -1.70356 0
M  V30 8157 O 802.111 0.210598 -1.82489 0
M  V30 8158 C 802.173 -3.22974 -1.57887 0
M  V30 8159 C 801.837 -4.50045 -0.794285 0
M  V30 8160 C 802.834 -5.19799 -0.102368 0
M  V30 8161 C 800.519 -4.96608 -0.754061 0
M  V30 8162 C 802.513 -6.34385 0.619267 0
M  V30 8163 C 800.2 -6.11093 -0.0286682 0
M  V30 8164 C 801.198 -6.79835 0.656772 0
M  V30 8165 O 800.886 -7.92133 1.37042 0
M  V30 8166 H 800.618 -0.640029 -0.217576 0
M  V30 8167 H 803.172 -2.05395 -0.0137438 0
M  V30 8168 H 801.402 -3.06273 -2.3608 0
M  V30 8169 H 803.091 -3.43319 -2.16533 0
M  V30 8170 H 803.857 -4.8484 -0.124589 0
M  V30 8171 H 799.736 -4.42958 -1.27706 0
M  V30 8172 H 803.28 -6.87975 1.15483 0
M  V30 8173 H 799.177 -6.455 -0.00446214 0
M  V30 8174 H 799.945 -8.08394 1.28227 0
M  V30 8175 N 802.608 0.318715 -1.54344 0
M  V30 8176 C 803.854 1.05765 -1.73037 0
M  V30 8177 C 804.187 1.87514 -0.505181 0
M  V30 8178 O 803.462 1.88021 0.497838 0
M  V30 8179 C 803.745 1.97836 -3.00887 0
M  V30 8180 C 803.598 1.19384 -4.33668 0
M  V30 8181 C 804.917 2.97285 -3.24514 0
M  V30 8182 H 802.036 0.383104 -0.629603 0
M  V30 8183 H 804.678 0.333864 -1.87044 0
M  V30 8184 H 802.828 2.59552 -2.89076 0
M  V30 8185 H 804.5 0.600906 -4.57369 0
M  V30 8186 H 802.743 0.496198 -4.30953 0
M  V30 8187 H 803.414 1.87014 -5.19355 0
M  V30 8188 H 805.89 2.45693 -3.35819 0
M  V30 8189 H 804.766 3.58887 -4.15321 0
M  V30 8190 H 805.027 3.70003 -2.41971 0
M  V30 8191 N 804.086 1.46499 0.581025 0
M  V30 8192 C 805.332 1.52121 1.34116 0
M  V30 8193 C 805.665 0.173031 1.93428 0
M  V30 8194 O 804.94 -0.815729 1.76568 0
M  V30 8195 C 805.223 2.62108 2.46924 0
M  V30 8196 C 805.076 4.06462 1.92636 0
M  V30 8197 C 806.395 2.68167 3.48962 0
M  V30 8198 H 803.514 0.5538 0.486287 0
M  V30 8199 H 806.156 1.78443 0.652538 0
M  V30 8200 H 804.306 2.39794 3.05665 0
M  V30 8201 H 805.978 4.40068 1.3834 0
M  V30 8202 H 804.221 4.15862 1.23455 0
M  V30 8203 H 804.892 4.79152 2.74076 0
M  V30 8204 H 807.368 2.8823 3.00104 0
M  V30 8205 H 806.244 3.46942 4.2535 0
M  V30 8206 H 806.505 1.74284 4.06297 0
M  V30 8207 N 805.565 -0.825799 1.34232 0
M  V30 8208 C 806.79 -1.61883 1.29648 0
M  V30 8209 C 807.215 -1.87669 -0.127295 0
M  V30 8210 O 806.573 -1.45016 -1.08813 0
M  V30 8211 C 806.621 -2.93846 2.09014 0
M  V30 8212 O 805.725 -3.85778 1.4577 0
M  V30 8213 H 805.066 -0.492454 0.445405 0
M  V30 8214 H 807.596 -1.02641 1.76992 0
M  V30 8215 H 807.606 -3.43435 2.20264 0
M  V30 8216 H 806.281 -2.74401 3.12533 0
M  V30 8217 H 804.858 -3.4429 1.43245 0
M  V30 8218 N 807.043 -1.17915 -1.04565 0
M  V30 8219 C 808.006 -0.903787 -2.10628 0
M  V30 8220 C 809.006 0.10873 -1.60432 0
M  V30 8221 O 810.196 -0.124152 -1.73757 0
M  V30 8222 C 807.328 -0.355017 -3.39046 0
M  V30 8223 H 808.521 -1.84425 -2.3649 0
M  V30 8224 H 806.074 -0.990477 -1.2091 0
M  V30 8225 H 806.809 0.592297 -3.18845 0
M  V30 8226 H 806.594 -1.08484 -3.76794 0
M  V30 8227 H 808.084 -0.180891 -4.17208 0
M  V30 8228 N 808.521 1.23394 -0.980386 0
M  V30 8229 C 809.746 1.96384 -0.666935 0
M  V30 8230 C 810.171 1.72087 0.759456 0
M  V30 8231 O 809.529 0.992328 1.51732 0
M  V30 8232 C 809.577 3.47499 -0.963177 0
M  V30 8233 O 808.681 4.12363 -0.0552051 0
M  V30 8234 H 808.022 0.614797 -0.250839 0
M  V30 8235 H 810.552 1.56831 -1.31398 0
M  V30 8236 H 810.562 3.97953 -0.899877 0
M  V30 8237 H 809.237 3.6451 -2.00264 0
M  V30 8238 H 807.814 3.72499 -0.172914 0
M  V30 8239 N 809.999 0.752036 1.385 0
M  V30 8240 C 810.946 0.123288 2.3047 0
M  V30 8241 C 811.916 -0.711326 1.50098 0
M  V30 8242 O 813.101 -0.667775 1.78733 0
M  V30 8243 C 810.241 -0.765085 3.36512 0
M  V30 8244 C 809.354 0.0839885 4.31918 0
M  V30 8245 C 808.489 -0.807243 5.25031 0
M  V30 8246 C 807.528 0.0455583 6.12083 0
M  V30 8247 N 806.665 -0.802547 6.97498 0
M  V30 8248 H 811.505 0.913169 2.83664 0
M  V30 8249 H 809.042 0.46195 1.39658 0
M  V30 8250 H 811 -1.29476 3.966 0
M  V30 8251 H 809.63 -1.52077 2.84732 0
M  V30 8252 H 808.682 0.731276 3.73305 0
M  V30 8253 H 809.994 0.74265 4.9324 0
M  V30 8254 H 809.148 -1.40414 5.90228 0
M  V30 8255 H 807.887 -1.49964 4.64071 0
M  V30 8256 H 806.892 0.655137 5.45883 0
M  V30 8257 H 808.117 0.734994 6.75111 0
M  V30 8258 H 806.063 -1.47992 6.39089 0
M  V30 8259 H 805.98 -0.200747 7.55733 0
M  V30 8260 H 807.248 -1.38447 7.67107 0
M  V30 8261 N 811.477 -1.49425 0.500989 0
M  V30 8262 C 812.424 -2.29126 -0.277443 0
M  V30 8263 C 813.394 -1.35522 -0.960363 0
M  V30 8264 O 814.579 -1.64479 -0.967027 0
M  V30 8265 C 811.719 -3.18193 -1.33593 0
M  V30 8266 C 810.832 -4.26854 -0.664791 0
M  V30 8267 C 809.967 -5.03137 -1.70372 0
M  V30 8268 C 809.006 -6.03635 -1.01445 0
M  V30 8269 N 808.143 -6.73083 -1.99758 0
M  V30 8270 H 812.983 -2.95187 0.408458 0
M  V30 8271 H 810.52 -1.45546 0.213275 0
M  V30 8272 H 812.478 -3.68207 -1.96161 0
M  V30 8273 H 811.108 -2.54116 -1.9906 0
M  V30 8274 H 810.16 -3.80328 0.0741708 0
M  V30 8275 H 811.472 -4.9865 -0.122197 0
M  V30 8276 H 810.626 -5.5702 -2.40445 0
M  V30 8277 H 809.365 -4.31114 -2.28017 0
M  V30 8278 H 808.37 -5.48984 -0.299496 0
M  V30 8279 H 809.595 -6.77644 -0.444497 0
M  V30 8280 H 807.541 -6.03832 -2.56365 0
M  V30 8281 H 807.458 -7.40855 -1.50565 0
M  V30 8282 H 808.726 -7.3157 -2.69119 0
M  V30 8283 N 812.955 -0.234822 -1.55841 0
M  V30 8284 C 813.865 0.680828 -2.24504 0
M  V30 8285 C 814.881 1.20306 -1.25708 0
M  V30 8286 O 816.057 1.24188 -1.58554 0
M  V30 8287 C 813.122 1.86636 -2.92178 0
M  V30 8288 C 812.183 1.3848 -4.06352 0
M  V30 8289 C 811.416 2.51382 -4.70789 0
M  V30 8290 O 811.639 3.69831 -4.34259 0
M  V30 8291 O 810.573 2.21828 -5.59532 0
M  V30 8292 H 814.399 0.12583 -3.03439 0
M  V30 8293 H 811.984 -0.00381817 -1.494 0
M  V30 8294 H 813.866 2.55845 -3.34845 0
M  V30 8295 H 812.541 2.40921 -2.16192 0
M  V30 8296 H 811.448 0.660341 -3.68226 0
M  V30 8297 H 812.781 0.888177 -4.8412 0
M  V30 8298 N 814.433 1.57553 0.0384317 0
M  V30 8299 C 815.661 1.93093 0.743141 0
M  V30 8300 C 816.076 0.833787 1.69391 0
M  V30 8301 O 815.433 -0.190532 1.81503 0
M  V30 8302 C 815.484 3.28533 1.50826 0
M  V30 8303 O 815.205 4.34032 0.595665 0
M  V30 8304 C 816.706 3.78297 2.31098 0
M  V30 8305 H 813.926 0.637486 0.20941 0
M  V30 8306 H 816.47 2.045 -0.00125154 0
M  V30 8307 H 814.625 3.18552 2.20462 0
M  V30 8308 H 815.039 5.12155 1.13124 0
M  V30 8309 H 816.513 4.75602 2.80191 0
M  V30 8310 H 816.99 3.09008 3.12107 0
M  V30 8311 H 817.596 3.91331 1.66555 0
M  V30 8312 N 815.911 -0.310526 1.54511 0
M  V30 8313 C 816.874 -1.3657 1.84068 0
M  V30 8314 C 817.874 -1.44123 0.713097 0
M  V30 8315 O 819.064 -1.43924 0.981399 0
M  V30 8316 C 816.196 -2.75162 2.01243 0
M  V30 8317 H 817.389 -1.1161 2.78358 0
M  V30 8318 H 814.942 -0.546699 1.46427 0
M  V30 8319 H 815.677 -3.05359 1.09208 0
M  V30 8320 H 815.462 -2.71071 2.83307 0
M  V30 8321 H 816.952 -3.51473 2.25514 0
M  V30 8322 N 817.389 -1.46805 -0.573248 0
M  V30 8323 C 818.666 -1.43082 -1.33368 0
M  V30 8324 C 819.046 -0.119252 -2.10763 0
M  V30 8325 O 818.394 0.899239 -2.10062 0
M  V30 8326 C 818.604 -2.66643 -2.25172 0
M  V30 8327 C 819.952 -3.13188 -2.86702 0
M  V30 8328 O 820.976 -2.67258 -2.35482 0
M  V30 8329 O 819.835 -3.92994 -3.79761 0
M  V30 8330 H 816.929 -0.569451 -0.599712 0
M  V30 8331 H 819.475 -1.58984 -0.59348 0
M  V30 8332 H 818.247 -3.53649 -1.67475 0
M  V30 8333 H 817.87 -2.53247 -3.06516 0
M  V30 8334 N 818.867 0.818669 -1.34668 0
M  V30 8335 C 820.113 1.57746 -1.27453 0
M  V30 8336 C 820.446 1.93588 0.154077 0
M  V30 8337 O 819.721 1.60371 1.10051 0
M  V30 8338 C 820.004 2.87414 -2.16945 0
M  V30 8339 C 819.857 2.58125 -3.68363 0
M  V30 8340 C 821.176 3.89021 -2.05792 0
M  V30 8341 H 818.295 0.572339 -0.464324 0
M  V30 8342 H 820.937 0.942784 -1.64959 0
M  V30 8343 H 819.087 3.41576 -1.85089 0
M  V30 8344 H 820.759 2.10239 -4.10606 0
M  V30 8345 H 819.002 1.91503 -3.89242 0
M  V30 8346 H 819.673 3.5061 -4.26353 0
M  V30 8347 H 822.149 3.44224 -2.33771 0
M  V30 8348 H 821.025 4.77548 -2.70628 0
M  V30 8349 H 821.286 4.29786 -1.03618 0
M  V30 8350 N 820.346 1.18468 1.03938 0
M  V30 8351 C 821.595 0.975193 1.76558 0
M  V30 8352 C 821.908 -0.495978 1.89207 0
M  V30 8353 O 823.114 -0.824009 2.58694 0
M  V30 8354 C 821.57 1.69579 3.17444 0
M  V30 8355 C 821.178 3.20636 3.12884 0
M  V30 8356 C 822.922 1.56917 3.94433 0
M  V30 8357 C 820.829 3.8533 4.48636 0
M  V30 8358 H 819.759 0.361244 0.66183 0
M  V30 8359 H 822.41 1.41854 1.16403 0
M  V30 8360 H 820.792 1.18022 3.78004 0
M  V30 8361 H 821.966 3.79228 2.61768 0
M  V30 8362 H 820.281 3.33454 2.49394 0
M  V30 8363 H 822.878 2.02611 4.94826 0
M  V30 8364 H 823.221 0.521638 4.13019 0
M  V30 8365 H 823.754 2.05762 3.40451 0
M  V30 8366 H 820.493 4.90136 4.35255 0
M  V30 8367 H 820.013 3.31526 4.99851 0
M  V30 8368 H 821.692 3.88269 5.17549 0
M  V30 8369 N 821.824 -1.22873 0.986916 0
M  V30 8370 C 822.754 -2.2688 0.552064 0
M  V30 8371 C 823.735 -1.64883 -0.418048 0
M  V30 8372 O 824.92 -1.9171 -0.30999 0
M  V30 8373 C 822.05 -3.47018 -0.139959 0
M  V30 8374 C 821.004 -4.21411 0.748091 0
M  V30 8375 C 820.33 -5.34645 -0.0765132 0
M  V30 8376 C 821.63 -4.80726 2.04206 0
M  V30 8377 H 823.324 -2.63507 1.42143 0
M  V30 8378 H 820.87 -1.26668 0.68492 0
M  V30 8379 H 822.823 -4.18931 -0.455527 0
M  V30 8380 H 821.547 -3.0947 -1.04382 0
M  V30 8381 H 820.206 -3.51325 1.04721 0
M  V30 8382 H 819.854 -4.93339 -0.981109 0
M  V30 8383 H 819.554 -5.85342 0.514606 0
M  V30 8384 H 821.078 -6.09377 -0.386313 0
M  V30 8385 H 822.492 -5.44612 1.79083 0
M  V30 8386 H 820.889 -5.41737 2.5815 0
M  V30 8387 H 821.959 -4.01109 2.72469 0
M  V30 8388 N 823.302 -0.75937 -1.38099 0
M  V30 8389 C 824.232 -0.151077 -2.33011 0
M  V30 8390 C 825.213 0.697099 -1.5516 0
M  V30 8391 O 826.398 0.637101 -1.83452 0
M  V30 8392 C 823.528 0.738423 -3.39359 0
M  V30 8393 C 822.482 -0.0074741 -4.27999 0
M  V30 8394 C 821.808 1.00066 -5.25253 0
M  V30 8395 C 823.108 -1.17926 -5.08813 0
M  V30 8396 H 824.802 -0.943933 -2.84131 0
M  V30 8397 H 822.348 -0.455362 -1.36611 0
M  V30 8398 H 824.301 1.17369 -4.04725 0
M  V30 8399 H 823.025 1.56366 -2.86735 0
M  V30 8400 H 821.684 -0.423379 -3.64147 0
M  V30 8401 H 821.332 1.82012 -4.68914 0
M  V30 8402 H 821.032 0.506199 -5.85416 0
M  V30 8403 H 822.556 1.43512 -5.93495 0
M  V30 8404 H 823.97 -0.821262 -5.67387 0
M  V30 8405 H 822.367 -1.60497 -5.78239 0
M  V30 8406 H 823.437 -1.98938 -4.42212 0
M  V30 8407 N 824.78 1.49157 -0.508906 0
M  V30 8408 C 825.743 2.27784 0.25434 0
M  V30 8409 C 826.743 1.34132 0.88686 0
M  V30 8410 O 827.933 1.5722 0.750168 0
M  V30 8411 C 825.065 3.12347 1.36573 0
M  V30 8412 H 826.258 2.96718 -0.435714 0
M  V30 8413 H 823.811 1.54052 -0.264128 0
M  V30 8414 H 824.546 2.47997 2.08969 0
M  V30 8415 H 824.331 3.81213 0.917543 0
M  V30 8416 H 825.821 3.71712 1.90315 0
M  V30 8417 N 826.258 0.243083 1.55714 0
M  V30 8418 C 827.486 -0.386971 2.03249 0
M  V30 8419 C 827.901 -1.51812 1.12243 0
M  V30 8420 O 827.258 -1.81992 0.136119 0
M  V30 8421 C 827.309 -0.898361 3.5016 0
M  V30 8422 O 827.03 0.187708 4.37698 0
M  V30 8423 C 828.531 -1.59949 4.13438 0
M  V30 8424 H 825.751 -0.0923981 0.664608 0
M  V30 8425 H 828.295 0.365832 2.01201 0
M  V30 8426 H 826.45 -1.60136 3.52754 0
M  V30 8427 H 826.864 -0.200001 5.24119 0
M  V30 8428 H 828.338 -1.90907 5.17937 0
M  V30 8429 H 828.815 -2.52014 3.59702 0
M  V30 8430 H 829.421 -0.941163 4.14756 0
M  V30 8431 N 827.736 -1.57571 -0.0300757 0
M  V30 8432 C 828.984 -1.88852 -0.719666 0
M  V30 8433 C 829.305 -0.840645 -1.75949 0
M  V30 8434 O 828.575 0.125854 -1.95495 0
M  V30 8435 H 827.155 -0.696965 -0.268792 0
M  V30 8436 H 829.817 -1.949 0.00373285 0
M  V30 8437 H 828.913 -2.87695 -1.20987 0
M  V30 8438 N 829.214 0.302327 -1.54673 0
M  V30 8439 C 830.439 1.06103 -1.78205 0
M  V30 8440 C 830.864 1.80204 -0.53926 0
M  V30 8441 O 830.222 1.73975 0.510142 0
M  V30 8442 C 830.27 2.01829 -2.98827 0
M  V30 8443 O 829.374 3.10108 -2.71858 0
M  V30 8444 H 828.715 0.30487 -0.589873 0
M  V30 8445 H 831.245 0.340153 -2.01753 0
M  V30 8446 H 831.255 2.44319 -3.2676 0
M  V30 8447 H 829.93 1.473 -3.88942 0
M  V30 8448 H 828.507 2.72142 -2.54937 0
M  V30 8449 N 830.692 1.47107 0.565454 0
M  V30 8450 C 831.602 1.61591 1.70075 0
M  V30 8451 C 832.618 0.498931 1.66693 0
M  V30 8452 O 833.794 0.765372 1.8629 0
M  V30 8453 C 830.859 1.61887 3.06583 0
M  V30 8454 C 829.92 2.84949 3.21096 0
M  V30 8455 C 829.153 2.85221 4.51093 0
M  V30 8456 O 829.376 1.94959 5.36048 0
M  V30 8457 O 828.31 3.76982 4.69221 0
M  V30 8458 H 832.136 2.57638 1.60799 0
M  V30 8459 H 829.721 1.30097 0.73451 0
M  V30 8460 H 831.603 1.64809 3.87835 0
M  V30 8461 H 830.278 0.69005 3.16259 0
M  V30 8462 H 829.185 2.87575 2.39273 0
M  V30 8463 H 830.518 3.77098 3.1632 0
M  V30 8464 N 832.17 -0.811516 1.35101 0
M  V30 8465 C 833.416 -1.57068 1.28287 0
M  V30 8466 C 833.749 -1.93667 -0.143808 0
M  V30 8467 O 833.024 -1.60953 -1.09199 0
M  V30 8468 C 833.307 -2.86259 2.18466 0
M  V30 8469 C 833.16 -2.56168 3.69727 0
M  V30 8470 C 834.479 -3.87924 2.07852 0
M  V30 8471 H 831.598 -0.569869 0.467353 0
M  V30 8472 H 834.24 -0.934023 1.65457 0
M  V30 8473 H 832.39 -3.4059 1.86898 0
M  V30 8474 H 834.062 -2.08059 4.11715 0
M  V30 8475 H 832.305 -1.89436 3.90252 0
M  V30 8476 H 832.976 -3.48344 4.28206 0
M  V30 8477 H 835.452 -3.4298 2.35593 0
M  V30 8478 H 834.328 -4.76106 2.73157 0
M  V30 8479 H 834.589 -4.2923 1.05896 0
M  V30 8480 N 833.648 -1.19017 -1.03309 0
M  V30 8481 C 834.873 -1.01598 -1.80811 0
M  V30 8482 C 835.298 0.430773 -1.83101 0
M  V30 8483 O 834.656 1.30946 -1.25391 0
M  V30 8484 C 834.704 -1.5845 -3.23923 0
M  V30 8485 O 833.808 -0.810972 -4.04348 0
M  V30 8486 H 833.149 -0.359398 -0.558327 0
M  V30 8487 H 835.679 -1.57945 -1.30055 0
M  V30 8488 H 835.689 -1.61486 -3.74682 0
M  V30 8489 H 834.364 -2.63752 -3.21571 0
M  V30 8490 H 832.941 -0.85353 -3.63 0
M  V30 8491 N 835.127 1.22348 -0.993418 0
M  V30 8492 C 836.057 2.26584 -0.564088 0
M  V30 8493 C 837.038 1.65102 0.409298 0
M  V30 8494 O 838.223 1.91872 0.299819 0
M  V30 8495 C 835.353 3.47087 0.121554 0
M  V30 8496 C 834.307 4.21009 -0.770429 0
M  V30 8497 C 833.633 5.34678 0.0481586 0
M  V30 8498 C 834.933 4.79636 -2.06752 0
M  V30 8499 H 836.627 2.62749 -1.43538 0
M  V30 8500 H 834.173 1.26303 -0.691628 0
M  V30 8501 H 836.126 4.19166 0.433303 0
M  V30 8502 H 834.85 3.1002 1.0274 0
M  V30 8503 H 833.509 3.50764 -1.06583 0
M  V30 8504 H 833.157 4.93852 0.954933 0
M  V30 8505 H 832.857 5.85061 -0.545641 0
M  V30 8506 H 834.381 6.09573 0.353991 0
M  V30 8507 H 835.795 5.43654 -1.81969 0
M  V30 8508 H 834.192 5.4036 -2.61019 0
M  V30 8509 H 835.262 3.99659 -2.74592 0
M  V30 8510 N 836.605 0.766683 1.37694 0
M  V30 8511 C 837.568 0.155849 2.2867 0
M  V30 8512 C 838.568 -0.633509 1.47795 0
M  V30 8513 O 839.758 -0.457844 1.68076 0
M  V30 8514 C 836.89 -0.786965 3.31692 0
M  V30 8515 H 838.083 0.957748 2.84196 0
M  V30 8516 H 835.636 0.534554 1.46875 0
M  V30 8517 H 836.371 -1.61406 2.8128 0
M  V30 8518 H 836.156 -0.223182 3.91464 0
M  V30 8519 H 837.646 -1.20994 3.99688 0
M  V30 8520 N 838.083 -1.48885 0.516809 0
M  V30 8521 C 839.329 -2.02788 -0.0220928 0
M  V30 8522 C 839.662 -1.39433 -1.35175 0
M  V30 8523 O 838.937 -0.535459 -1.86984 0
M  V30 8524 C 839.22 -3.59753 -0.158012 0
M  V30 8525 C 839.073 -4.33611 1.19588 0
M  V30 8526 C 840.392 -4.30984 -0.891133 0
M  V30 8527 H 837.511 -0.736971 -0.00655488 0
M  V30 8528 H 840.153 -1.77746 0.671287 0
M  V30 8529 H 838.303 -3.8122 -0.748568 0
M  V30 8530 H 839.975 -4.23598 1.82653 0
M  V30 8531 H 838.218 -3.95547 1.78116 0
M  V30 8532 H 838.889 -5.41846 1.05391 0
M  V30 8533 H 841.365 -4.14267 -0.39012 0
M  V30 8534 H 840.241 -5.40527 -0.955107 0
M  V30 8535 H 840.502 -3.97336 -1.93847 0
M  V30 8536 N 839.561 -0.251338 -1.55583 0
M  V30 8537 C 840.471 0.656978 -2.25213 0
M  V30 8538 C 841.487 1.18966 -1.26977 0
M  V30 8539 O 842.663 1.22499 -1.59862 0
M  V30 8540 C 839.728 1.83527 -2.94141 0
M  V30 8541 C 838.789 1.34162 -4.07798 0
M  V30 8542 C 838.022 2.46375 -4.73429 0
M  V30 8543 O 838.245 3.65205 -4.38157 0
M  V30 8544 O 837.179 2.15881 -5.61853 0
M  V30 8545 H 841.005 0.0936395 -3.03556 0
M  V30 8546 H 838.59 -0.0196638 -1.49387 0
M  V30 8547 H 840.472 2.52279 -3.3754 0
M  V30 8548 H 839.147 2.38614 -2.18735 0
M  V30 8549 H 838.054 0.621249 -3.68906 0
M  V30 8550 H 839.387 0.836779 -4.85035 0
M  V30 8551 N 841.039 1.57585 0.0217189 0
M  V30 8552 C 842.002 2.06004 1.00474 0
M  V30 8553 C 843.002 0.965461 1.2859 0
M  V30 8554 O 844.192 1.22884 1.23471 0
M  V30 8555 C 841.324 2.48319 2.33561 0
M  V30 8556 H 842.517 2.94112 0.586346 0
M  V30 8557 H 840.07 1.53973 0.268716 0
M  V30 8558 H 840.805 1.63389 2.80133 0
M  V30 8559 H 840.59 3.28239 2.1448 0
M  V30 8560 H 842.08 2.86181 3.04122 0
M  V30 8561 N 842.517 -0.29412 1.54831 0
M  V30 8562 C 843.449 -1.38476 1.82639 0
M  V30 8563 C 844.462 -1.46517 0.709694 0
M  V30 8564 O 845.651 -1.48712 0.987269 0
M  V30 8565 C 842.751 -2.76791 1.95551 0
M  V30 8566 C 841.924 -2.91599 3.26019 0
M  V30 8567 C 840.983 -4.10456 3.29261 0
M  V30 8568 O 840.009 -4.02214 4.02756 0
M  V30 8569 N 841.211 -5.21422 2.55145 0
M  V30 8570 H 843.976 -1.14974 2.76769 0
M  V30 8571 H 841.537 -0.484206 1.5449 0
M  V30 8572 H 843.529 -3.5456 1.95113 0
M  V30 8573 H 842.099 -2.93209 1.08384 0
M  V30 8574 H 841.319 -2.00886 3.39173 0
M  V30 8575 H 842.607 -2.98409 4.12104 0
M  V30 8576 H 842.005 -5.31 1.95078 0
M  V30 8577 H 840.562 -5.97501 2.60454 0
M  V30 8578 N 843.995 -1.47404 -0.557645 0
M  V30 8579 C 844.942 -1.59859 -1.66475 0
M  V30 8580 C 845.912 -0.441644 -1.60121 0
M  V30 8581 O 847.097 -0.661641 -1.78961 0
M  V30 8582 C 844.237 -1.61843 -3.04797 0
M  V30 8583 C 843.35 -2.8845 -3.2159 0
M  V30 8584 C 842.485 -2.81773 -4.50308 0
M  V30 8585 C 841.524 -4.03208 -4.60532 0
M  V30 8586 N 840.661 -3.94769 -5.80604 0
M  V30 8587 H 845.501 -2.54415 -1.55168 0
M  V30 8588 H 843.038 -1.26194 -0.755876 0
M  V30 8589 H 844.996 -1.60976 -3.84893 0
M  V30 8590 H 843.626 -0.707997 -3.1494 0
M  V30 8591 H 842.678 -2.99186 -2.34929 0
M  V30 8592 H 843.99 -3.78379 -3.25009 0
M  V30 8593 H 843.144 -2.79153 -5.38663 0
M  V30 8594 H 841.883 -1.89527 -4.49367 0
M  V30 8595 H 840.888 -4.06133 -3.70589 0
M  V30 8596 H 842.113 -4.9658 -4.63233 0
M  V30 8597 H 840.059 -3.05326 -5.80613 0
M  V30 8598 H 839.976 -4.78375 -5.854 0
M  V30 8599 H 841.244 -3.96165 -6.71322 0
M  V30 8600 N 845.473 0.80434 -1.35529 0
M  V30 8601 C 846.436 1.89788 -1.28503 0
M  V30 8602 C 847.436 1.59601 -0.195983 0
M  V30 8603 O 848.626 1.68292 -0.449827 0
M  V30 8604 C 845.758 3.26255 -0.98847 0
M  V30 8605 H 846.951 1.97436 -2.25741 0
M  V30 8606 H 844.504 1.00046 -1.20086 0
M  V30 8607 H 845.239 3.24294 -0.0200541 0
M  V30 8608 H 845.024 3.49551 -1.77641 0
M  V30 8609 H 846.514 4.06298 -0.964975 0
M  V30 8610 N 846.951 1.19563 1.02676 0
M  V30 8611 C 847.881 0.959024 2.12897 0
M  V30 8612 C 848.862 -0.108382 1.69754 0
M  V30 8613 O 850.047 0.0470698 1.94143 0
M  V30 8614 C 847.177 0.499211 3.43693 0
M  V30 8615 C 846.131 1.5087 4.00528 0
M  V30 8616 C 845.457 0.905884 5.2697 0
M  V30 8617 C 846.757 2.88954 4.3509 0
M  V30 8618 H 848.451 1.88084 2.32948 0
M  V30 8619 H 845.997 0.905731 1.11949 0
M  V30 8620 H 847.95 0.320965 4.20176 0
M  V30 8621 H 846.674 -0.458205 3.2337 0
M  V30 8622 H 845.333 1.67413 3.26142 0
M  V30 8623 H 844.981 -0.0591506 5.02965 0
M  V30 8624 H 844.681 1.58 5.65959 0
M  V30 8625 H 846.205 0.73848 6.06118 0
M  V30 8626 H 847.619 2.75981 5.02501 0
M  V30 8627 H 846.016 3.53177 4.85166 0
M  V30 8628 H 847.086 3.41447 3.44299 0
M  V30 8629 N 848.429 -1.21819 0.999893 0
M  V30 8630 C 849.392 -2.22227 0.561044 0
M  V30 8631 C 850.392 -1.56722 -0.359858 0
M  V30 8632 O 851.582 -1.73546 -0.150848 0
M  V30 8633 C 848.714 -3.40409 -0.182987 0
M  V30 8634 H 849.907 -2.62567 1.44909 0
M  V30 8635 H 847.46 -1.34991 0.78785 0
M  V30 8636 H 848.195 -3.05551 -1.08671 0
M  V30 8637 H 847.98 -3.89171 0.47833 0
M  V30 8638 H 849.47 -4.14856 -0.477952 0
M  V30 8639 N 849.908 -0.773975 -1.37286 0
M  V30 8640 C 851.154 -0.339809 -1.99933 0
M  V30 8641 C 851.487 1.0815 -1.61299 0
M  V30 8642 O 850.762 1.74442 -0.860252 0
M  V30 8643 C 851.045 -0.485919 -3.56806 0
M  V30 8644 C 850.898 -1.9498 -4.05343 0
M  V30 8645 C 852.217 0.108461 -4.39966 0
M  V30 8646 H 849.336 -0.124944 -0.726332 0
M  V30 8647 H 851.978 -0.977433 -1.6293 0
M  V30 8648 H 850.128 0.0569023 -3.88458 0
M  V30 8649 H 851.8 -2.5525 -3.84246 0
M  V30 8650 H 850.043 -2.45784 -3.57453 0
M  V30 8651 H 850.714 -2.00308 -5.14374 0
M  V30 8652 H 853.19 -0.354722 -4.14585 0
M  V30 8653 H 852.066 -0.0238926 -5.48895 0
M  V30 8654 H 852.327 1.19901 -4.25531 0
M  V30 8655 N 851.386 1.48609 -0.524698 0
M  V30 8656 C 852.663 1.95454 0.075465 0
M  V30 8657 C 853.043 1.46682 1.51814 0
M  V30 8658 O 852.391 0.690975 2.17802 0
M  V30 8659 C 852.601 3.48981 -0.0363273 0
M  V30 8660 C 853.949 4.24414 0.125624 0
M  V30 8661 O 854.973 3.5618 0.0377239 0
M  V30 8662 O 853.832 5.45625 0.309104 0
M  V30 8663 H 850.926 0.822902 0.0822256 0
M  V30 8664 H 853.472 1.59153 -0.588921 0
M  V30 8665 H 852.244 3.77185 -1.04149 0
M  V30 8666 H 851.867 3.91963 0.667146 0
M  V30 8667 N 852.864 0.259585 1.55447 0
M  V30 8668 C 854.112 -0.360893 1.98852 0
M  V30 8669 C 854.433 -1.57535 1.14924 0
M  V30 8670 O 853.703 -1.94485 0.235025 0
M  V30 8671 H 852.283 -0.136332 0.734454 0
M  V30 8672 H 854.945 0.361319 1.91522 0
M  V30 8673 H 854.041 -0.661388 3.05012 0
M  V30 8674 N 854.342 -1.57594 -0.0133615 0
M  V30 8675 C 855.588 -1.90262 -0.702019 0
M  V30 8676 C 855.921 -0.859219 -1.74158 0
M  V30 8677 O 855.196 0.123778 -1.94106 0
M  V30 8678 C 855.479 -3.3354 -1.35732 0
M  V30 8679 C 855.332 -4.48586 -0.330208 0
M  V30 8680 C 856.651 -3.76004 -2.28712 0
M  V30 8681 H 853.77 -0.691943 -0.253739 0
M  V30 8682 H 856.412 -1.89967 0.0351894 0
M  V30 8683 H 854.562 -3.33921 -1.98567 0
M  V30 8684 H 856.234 -4.6034 0.297433 0
M  V30 8685 H 854.477 -4.32394 0.348926 0
M  V30 8686 H 855.148 -5.45762 -0.827508 0
M  V30 8687 H 857.624 -3.77089 -1.75906 0
M  V30 8688 H 856.5 -4.77032 -2.71535 0
M  V30 8689 H 856.761 -3.09129 -3.16056 0
M  V30 8690 N 855.82 0.285905 -1.54985 0
M  V30 8691 C 857.097 1.0397 -1.65679 0
M  V30 8692 C 857.477 2.04725 -0.514851 0
M  V30 8693 O 856.825 2.23257 0.486663 0
M  V30 8694 C 857.035 1.70807 -3.04345 0
M  V30 8695 C 858.383 2.22447 -3.61666 0
M  V30 8696 O 859.407 1.80815 -3.06895 0
M  V30 8697 O 858.266 2.98773 -4.57599 0
M  V30 8698 H 855.36 0.481473 -0.672394 0
M  V30 8699 H 857.906 0.282789 -1.67327 0
M  V30 8700 H 856.678 0.977271 -3.789 0
M  V30 8701 H 856.301 2.53217 -3.06541 0
M  V30 8702 N 857.298 1.47698 0.54982 0
M  V30 8703 C 858.261 1.60282 1.63837 0
M  V30 8704 C 859.261 0.477394 1.5355 0
M  V30 8705 O 860.451 0.742665 1.57576 0
M  V30 8706 C 857.583 1.55431 3.03404 0
M  V30 8707 H 858.776 2.57325 1.54026 0
M  V30 8708 H 856.329 1.35999 0.770329 0
M  V30 8709 H 857.064 0.597912 3.1874 0
M  V30 8710 H 856.849 2.37116 3.12279 0
M  V30 8711 H 858.339 1.6739 3.82584 0
M  V30 8712 N 858.776 -0.797141 1.35954 0
M  V30 8713 C 860.001 -1.59097 1.33053 0
M  V30 8714 C 860.426 -1.87897 -0.0874592 0
M  V30 8715 O 859.784 -1.47291 -1.05712 0
M  V30 8716 C 859.832 -2.89346 2.152 0
M  V30 8717 O 858.936 -3.826 1.5392 0
M  V30 8718 H 858.277 -0.482895 0.45575 0
M  V30 8719 H 860.807 -0.988633 1.79129 0
M  V30 8720 H 860.817 -3.38686 2.27499 0
M  V30 8721 H 859.492 -2.6771 3.18283 0
M  V30 8722 H 858.069 -3.41174 1.50516 0
M  V30 8723 N 860.254 -1.20106 -1.0204 0
M  V30 8724 C 861.5 -1.01039 -1.75838 0
M  V30 8725 C 861.833 0.456819 -1.88751 0
M  V30 8726 O 861.108 1.33919 -1.41053 0
M  V30 8727 C 861.391 -1.69009 -3.17975 0
M  V30 8728 C 861.244 -3.2315 -3.1288 0
M  V30 8729 C 862.563 -1.42005 -4.16561 0
M  V30 8730 H 859.682 -0.368465 -0.638281 0
M  V30 8731 H 862.324 -1.48066 -1.19064 0
M  V30 8732 H 860.474 -1.29026 -3.66449 0
M  V30 8733 H 862.146 -3.72402 -2.72239 0
M  V30 8734 H 860.389 -3.54253 -2.50374 0
M  V30 8735 H 861.06 -3.65862 -4.13339 0
M  V30 8736 H 863.536 -1.76685 -3.76725 0
M  V30 8737 H 862.412 -1.92101 -5.14187 0
M  V30 8738 H 862.673 -0.346884 -4.40737 0
M  V30 8739 N 861.732 1.21287 -1.00634 0
M  V30 8740 C 862.978 1.90671 -0.690822 0
M  V30 8741 C 863.311 1.77996 0.776592 0
M  V30 8742 O 862.586 1.15748 1.5631 0
M  V30 8743 C 862.869 3.42426 -1.11428 0
M  V30 8744 C 862.722 3.64086 -2.64124 0
M  V30 8745 C 864.041 4.34851 -0.677686 0
M  V30 8746 H 861.16 0.692419 -0.252439 0
M  V30 8747 H 863.802 1.42893 -1.25226 0
M  V30 8748 H 861.952 3.83249 -0.636586 0
M  V30 8749 H 863.624 3.32582 -3.19667 0
M  V30 8750 H 861.867 3.07906 -3.05576 0
M  V30 8751 H 862.538 4.7042 -2.88806 0
M  V30 8752 H 865.014 4.01619 -1.0882 0
M  V30 8753 H 863.89 5.39675 -1.00213 0
M  V30 8754 H 864.151 4.4009 0.421125 0
M  V30 8755 N 863.21 0.781244 1.36873 0
M  V30 8756 C 864.435 0.360398 2.04245 0
M  V30 8757 C 864.86 -1.01242 1.58529 0
M  V30 8758 O 864.218 -1.65063 0.749936 0
M  V30 8759 C 864.266 0.42329 3.58107 0
M  V30 8760 O 863.37 -0.572796 4.08403 0
M  V30 8761 H 862.711 0.154386 0.645803 0
M  V30 8762 H 865.241 1.06008 1.74996 0
M  V30 8763 H 865.251 0.283967 4.07011 0
M  V30 8764 H 863.926 1.42477 3.90734 0
M  V30 8765 H 862.503 -0.395809 3.70793 0
M  V30 8766 N 864.689 -1.48329 0.532571 0
M  V30 8767 C 865.622 -2.26524 -0.2761 0
M  V30 8768 C 866.6 -1.32498 -0.942496 0
M  V30 8769 O 867.784 -1.61844 -0.966376 0
M  V30 8770 C 864.911 -3.08808 -1.39124 0
M  V30 8771 C 863.957 -4.18227 -0.835984 0
M  V30 8772 S 864.79 -5.34669 0.298186 0
M  V30 8773 C 865.946 -6.20514 -0.81937 0
M  V30 8774 H 866.179 -2.94764 0.387502 0
M  V30 8775 H 863.712 -1.51081 0.318407 0
M  V30 8776 H 865.67 -3.56792 -2.03002 0
M  V30 8777 H 864.331 -2.39976 -2.02658 0
M  V30 8778 H 863.524 -4.75435 -1.67264 0
M  V30 8779 H 863.126 -3.72996 -0.27385 0
M  V30 8780 H 865.418 -6.55371 -1.7174 0
M  V30 8781 H 866.361 -7.07525 -0.285199 0
M  V30 8782 H 866.769 -5.5366 -1.10094 0
M  V30 8783 N 866.167 -0.267825 -1.55308 0
M  V30 8784 C 867.578 0.231344 -1.85261 0
M  V30 8785 C 867.929 1.56006 -1.18982 0
M  V30 8786 O 867.054 2.1111 -0.475554 0
M  V30 8787 C 867.649 0.426537 -3.36104 0
M  V30 8788 C 866.208 0.869945 -3.66209 0
M  V30 8789 C 865.355 -0.0409522 -2.7727 0
M  V30 8790 H 868.306 -0.489821 -1.50952 0
M  V30 8791 H 868.327 1.26616 -3.58816 0
M  V30 8792 H 867.839 -0.540678 -3.84315 0
M  V30 8793 H 865.94 1.84889 -3.23492 0
M  V30 8794 H 866.053 0.712316 -4.73775 0
M  V30 8795 H 864.417 0.474097 -2.50249 0
M  V30 8796 H 865.2 -1.00392 -3.28293 0
M  V30 8797 N 867.645 1.57599 0.00500368 0
M  V30 8798 C 868.87 1.95026 0.705663 0
M  V30 8799 C 869.295 0.869643 1.6679 0
M  V30 8800 O 868.653 -0.172659 1.80476 0
M  V30 8801 C 868.701 3.31545 1.4181 0
M  V30 8802 O 867.805 3.25495 2.53232 0
M  V30 8803 H 867.146 0.636808 0.188074 0
M  V30 8804 H 869.676 2.04547 -0.046696 0
M  V30 8805 H 869.686 3.66996 1.78265 0
M  V30 8806 H 868.361 4.09751 0.712543 0
M  V30 8807 H 866.938 3.01714 2.19142 0
M  V30 8808 N 869.123 -0.277682 1.55134 0
M  V30 8809 C 870.056 -1.3685 1.82612 0
M  V30 8810 C 871.034 -1.47752 0.678833 0
M  V30 8811 O 872.218 -1.6445 0.921329 0
M  V30 8812 C 869.345 -2.74539 1.98359 0
M  V30 8813 C 868.391 -2.80945 3.20893 0
M  V30 8814 S 869.224 -2.40666 4.78373 0
M  V30 8815 C 870.38 -3.80338 4.97085 0
M  V30 8816 H 870.613 -1.13338 2.74849 0
M  V30 8817 H 868.146 -0.477063 1.46845 0
M  V30 8818 H 870.104 -3.53834 2.08115 0
M  V30 8819 H 868.765 -2.95306 1.07019 0
M  V30 8820 H 867.958 -3.81992 3.28783 0
M  V30 8821 H 867.56 -2.09667 3.09703 0
M  V30 8822 H 869.852 -4.75565 4.8254 0
M  V30 8823 H 870.795 -3.77403 5.99143 0
M  V30 8824 H 871.203 -3.71424 4.25094 0
M  V30 8825 N 870.601 -1.47988 -0.541979 0
M  V30 8826 C 871.878 -1.45878 -1.30303 0
M  V30 8827 C 872.258 -0.163931 -2.10463 0
M  V30 8828 O 871.606 0.854479 -2.11922 0
M  V30 8829 C 871.816 -2.71359 -2.19466 0
M  V30 8830 C 873.164 -3.19199 -2.79995 0
M  V30 8831 O 874.188 -2.72193 -2.2976 0
M  V30 8832 O 873.047 -4.00961 -3.71339 0
M  V30 8833 H 870.141 -0.582043 -0.587498 0
M  V30 8834 H 872.687 -1.60207 -0.559623 0
M  V30 8835 H 871.459 -3.57122 -1.59936 0
M  V30 8836 H 871.082 -2.59692 -3.01075 0
M  V30 8837 N 872.079 0.78992 -1.36375 0
M  V30 8838 C 873.495 1.0879 -1.16777 0
M  V30 8839 C 873.695 2.01498 0.00848236 0
M  V30 8840 O 872.751 2.43338 0.674007 0
M  V30 8841 C 874.064 1.70285 -2.47837 0
M  V30 8842 C 875.612 1.82629 -2.54196 0
M  V30 8843 C 876.087 2.47539 -3.85342 0
M  V30 8844 N 877.578 2.55008 -3.86685 0
M  V30 8845 C 878.313 3.06041 -4.84898 0
M  V30 8846 N 877.809 3.57385 -5.93505 0
M  V30 8847 N 879.602 3.04748 -4.72319 0
M  V30 8848 H 871.753 0.173985 -2.11686 0
M  V30 8849 H 874.016 0.139798 -0.937636 0
M  V30 8850 H 873.722 1.09633 -3.34176 0
M  V30 8851 H 873.596 2.69799 -2.63607 0
M  V30 8852 H 875.983 2.42419 -1.68276 0
M  V30 8853 H 876.064 0.81923 -2.42327 0
M  V30 8854 H 875.708 1.88393 -4.71668 0
M  V30 8855 H 875.638 3.48815 -3.94507 0
M  V30 8856 H 878.129 2.18651 -3.08221 0
M  V30 8857 H 878.442 3.94674 -6.64419 0
M  V30 8858 H 876.787 3.55538 -5.97175 0
M  V30 8859 H 879.978 2.63925 -3.86602 0
M  V30 8860 H 880.151 3.44212 -5.49019 0
M  V30 8861 N 873.557 1.20646 1.01402 0
M  V30 8862 C 874.804 1.01819 1.7504 0
M  V30 8863 C 875.132 -0.449386 1.89237 0
M  V30 8864 O 874.387 -1.34985 1.41695 0
M  V30 8865 C 874.686 1.64991 3.17037 0
M  V30 8866 C 874.352 3.14808 3.22811 0
M  V30 8867 C 873.014 3.55692 3.24094 0
M  V30 8868 C 875.366 4.108 3.2077 0
M  V30 8869 C 872.694 4.9109 3.2101 0
M  V30 8870 C 875.046 5.46147 3.19227 0
M  V30 8871 C 873.71 5.86441 3.18815 0
M  V30 8872 H 872.98 0.372582 0.640518 0
M  V30 8873 H 875.627 1.50108 1.18911 0
M  V30 8874 H 873.932 1.08971 3.76341 0
M  V30 8875 H 875.629 1.47937 3.72714 0
M  V30 8876 H 872.219 2.8224 3.2255 0
M  V30 8877 H 876.403 3.80246 3.18946 0
M  V30 8878 H 871.659 5.21569 3.19023 0
M  V30 8879 H 875.833 6.20272 3.166 0
M  V30 8880 H 873.46 6.91328 3.16179 0
M  V30 8881 N 875.035 -1.20752 1.01276 0
M  V30 8882 C 875.945 -2.27079 0.589277 0
M  V30 8883 C 876.961 -1.6999 -0.371389 0
M  V30 8884 O 878.137 -2.00044 -0.233294 0
M  V30 8885 C 875.202 -3.4663 -0.0696715 0
M  V30 8886 C 874.263 -4.18962 0.936454 0
M  V30 8887 C 873.496 -5.32806 0.308856 0
M  V30 8888 O 873.719 -5.63376 -0.8924 0
M  V30 8889 O 872.653 -5.93131 1.02367 0
M  V30 8890 H 876.479 -2.6551 1.47438 0
M  V30 8891 H 874.064 -1.27297 0.782045 0
M  V30 8892 H 875.946 -4.19119 -0.437873 0
M  V30 8893 H 874.621 -3.10082 -0.929029 0
M  V30 8894 H 873.528 -3.48661 1.35595 0
M  V30 8895 H 874.861 -4.59441 1.76565 0
M  V30 8896 N 876.513 -0.788492 -1.36457 0
M  V30 8897 C 877.476 -0.192209 -2.28393 0
M  V30 8898 C 878.476 0.609916 -1.48784 0
M  V30 8899 O 879.666 0.431046 -1.68783 0
M  V30 8900 C 876.798 0.734096 -3.32902 0
M  V30 8901 H 877.991 -1.00284 -2.82636 0
M  V30 8902 H 875.544 -0.557852 -1.46006 0
M  V30 8903 H 876.279 1.5691 -2.83813 0
M  V30 8904 H 876.064 0.160875 -3.9177 0
M  V30 8905 H 877.554 1.1462 -4.01562 0
M  V30 8906 N 877.991 1.48044 -0.54043 0
M  V30 8907 C 878.923 2.2779 0.253854 0
M  V30 8908 C 879.936 1.35999 0.894883 0
M  V30 8909 O 881.125 1.60963 0.771563 0
M  V30 8910 C 878.225 3.09724 1.37566 0
M  V30 8911 C 877.398 4.29364 0.83459 0
M  V30 8912 C 876.457 4.93026 1.83881 0
M  V30 8913 O 875.483 5.51927 1.39159 0
M  V30 8914 N 876.685 4.86207 3.17149 0
M  V30 8915 H 879.45 2.96597 -0.430125 0
M  V30 8916 H 877.011 1.57487 -0.375423 0
M  V30 8917 H 879.003 3.49181 2.04584 0
M  V30 8918 H 877.573 2.43269 1.96314 0
M  V30 8919 H 876.793 3.94198 -0.0118878 0
M  V30 8920 H 878.081 5.06787 0.452155 0
M  V30 8921 H 877.479 4.39523 3.56141 0
M  V30 8922 H 876.036 5.29733 3.79771 0
M  V30 8923 N 879.47 0.276058 1.55163 0
M  V30 8924 C 880.698 -0.343772 2.04024 0
M  V30 8925 C 881.113 -1.49397 1.15438 0
M  V30 8926 O 880.47 -1.81662 0.174692 0
M  V30 8927 C 880.521 -0.823885 3.51986 0
M  V30 8928 O 880.242 0.280507 4.37201 0
M  V30 8929 C 881.743 -1.51143 4.16738 0
M  V30 8930 H 878.963 -0.07828 0.666418 0
M  V30 8931 H 881.507 0.408427 2.0038 0
M  V30 8932 H 879.662 -1.52617 3.56071 0
M  V30 8933 H 880.076 -0.0887831 5.24425 0
M  V30 8934 H 881.55 -1.79878 5.2187 0
M  V30 8935 H 882.027 -2.44327 3.64967 0
M  V30 8936 H 882.633 -0.852975 4.16659 0
M  V30 8937 N 880.948 -1.576 0.00335426 0
M  V30 8938 C 881.911 -2.07576 -0.971838 0
M  V30 8939 C 882.911 -0.985796 -1.27038 0
M  V30 8940 O 884.101 -1.24833 -1.21501 0
M  V30 8941 C 881.233 -2.52003 -2.29581 0
M  V30 8942 H 882.426 -2.95008 -0.539481 0
M  V30 8943 H 879.979 -1.54381 -0.244186 0
M  V30 8944 H 880.714 -1.67825 -2.77498 0
M  V30 8945 H 880.499 -3.31609 -2.09231 0
M  V30 8946 H 881.989 -2.90983 -2.99531 0
M  V30 8947 N 882.426 0.269451 -1.5528 0
M  V30 8948 C 883.336 1.35511 -1.91505 0
M  V30 8949 C 884.352 1.53854 -0.812712 0
M  V30 8950 O 885.528 1.67912 -1.1121 0
M  V30 8951 C 882.593 2.6937 -2.18267 0
M  V30 8952 C 881.654 2.59743 -3.41807 0
M  V30 8953 C 880.887 3.87219 -3.67283 0
M  V30 8954 O 881.11 4.88066 -2.95208 0
M  V30 8955 O 880.044 3.87209 -4.60818 0
M  V30 8956 H 883.87 1.07785 -2.8393 0
M  V30 8957 H 881.455 0.468282 -1.41871 0
M  V30 8958 H 883.337 3.48513 -2.36889 0
M  V30 8959 H 882.012 2.96874 -1.29024 0
M  V30 8960 H 880.919 1.78964 -3.28516 0
M  V30 8961 H 882.252 2.37188 -4.3128 0
M  V30 8962 N 883.904 1.48273 0.534124 0
M  V30 8963 C 885.134 1.59503 1.31311 0
M  V30 8964 C 885.542 0.25284 1.87503 0
M  V30 8965 O 884.885 -0.767399 1.66903 0
M  V30 8966 C 884.947 2.57899 2.50456 0
M  V30 8967 C 884.611 4.03063 2.15382 0
M  V30 8968 C 885.608 4.90869 1.713 0
M  V30 8969 C 883.293 4.4857 2.26032 0
M  V30 8970 C 885.287 6.22209 1.38328 0
M  V30 8971 C 882.974 5.79932 1.92672 0
M  V30 8972 C 883.972 6.66574 1.4889 0
M  V30 8973 O 883.66 7.95492 1.15966 0
M  V30 8974 H 883.392 0.540695 0.405739 0
M  V30 8975 H 885.946 1.94794 0.651497 0
M  V30 8976 H 884.176 2.1772 3.19585 0
M  V30 8977 H 885.865 2.59008 3.12522 0
M  V30 8978 H 886.631 4.56951 1.62545 0
M  V30 8979 H 882.51 3.81321 2.59066 0
M  V30 8980 H 886.054 6.89792 1.04082 0
M  V30 8981 H 881.951 6.13386 2.01066 0
M  V30 8982 H 882.719 8.08207 1.29399 0
M  V30 8983 N 885.382 -0.782676 1.36792 0
M  V30 8984 C 886.329 -1.89558 1.31667 0
M  V30 8985 C 887.299 -1.65076 0.184147 0
M  V30 8986 O 888.484 -1.87143 0.371753 0
M  V30 8987 C 885.624 -3.26469 1.11858 0
M  V30 8988 C 884.737 -3.62978 2.34245 0
M  V30 8989 C 883.872 -4.89041 2.07394 0
M  V30 8990 C 882.911 -5.18249 3.25706 0
M  V30 8991 N 882.048 -6.35497 2.98476 0
M  V30 8992 H 886.888 -1.93274 2.26824 0
M  V30 8993 H 884.425 -0.945057 1.12726 0
M  V30 8994 H 886.383 -4.05431 0.983968 0
M  V30 8995 H 885.013 -3.22158 0.203531 0
M  V30 8996 H 884.065 -2.79087 2.58485 0
M  V30 8997 H 885.377 -3.80507 3.22514 0
M  V30 8998 H 884.531 -5.75883 1.90901 0
M  V30 8999 H 883.27 -4.73594 1.16446 0
M  V30 9000 H 882.275 -4.29887 3.4275 0
M  V30 9001 H 883.5 -5.35611 4.1749 0
M  V30 9002 H 881.446 -6.21429 2.10146 0
M  V30 9003 H 881.363 -6.5339 3.80286 0
M  V30 9004 H 882.631 -7.25304 2.85577 0
M  V30 9005 N 886.86 -1.21182 -1.00761 0
M  V30 9006 C 887.77 -0.984691 -2.12934 0
M  V30 9007 C 888.786 0.0623657 -1.73888 0
M  V30 9008 O 889.962 -0.1271 -2.00999 0
M  V30 9009 C 887.027 -0.549447 -3.42319 0
M  V30 9010 C 886.088 -1.66841 -3.95553 0
M  V30 9011 C 885.321 -1.25384 -5.18763 0
M  V30 9012 O 885.544 -0.126333 -5.7026 0
M  V30 9013 O 884.478 -2.06475 -5.65377 0
M  V30 9014 H 888.304 -1.92413 -2.3497 0
M  V30 9015 H 885.889 -0.99647 -1.11314 0
M  V30 9016 H 887.771 -0.316384 -4.20211 0
M  V30 9017 H 886.446 0.361304 -3.21677 0
M  V30 9018 H 885.353 -1.95585 -3.189 0
M  V30 9019 H 886.686 -2.55649 -4.206 0
M  V30 9020 N 888.338 1.20213 -1.01915 0
M  V30 9021 C 889.563 1.94163 -0.729076 0
M  V30 9022 C 889.988 1.74416 0.704323 0
M  V30 9023 O 889.346 1.0401 1.48498 0
M  V30 9024 C 889.394 3.44258 -1.07324 0
M  V30 9025 O 888.498 4.11979 -0.186367 0
M  V30 9026 H 887.839 0.606506 -0.270272 0
M  V30 9027 H 890.369 1.52571 -1.3632 0
M  V30 9028 H 890.379 3.94888 -1.02603 0
M  V30 9029 H 889.054 3.57954 -2.11759 0
M  V30 9030 H 887.631 3.7176 -0.291334 0
M  V30 9031 N 889.816 0.795718 1.36037 0
M  V30 9032 C 891.062 0.371574 1.99367 0
M  V30 9033 C 891.395 -1.0557 1.62999 0
M  V30 9034 O 890.67 -1.73051 0.887895 0
M  V30 9035 C 890.953 0.542622 3.55988 0
M  V30 9036 C 890.806 2.01404 4.0219 0
M  V30 9037 C 892.125 -0.0384527 4.40083 0
M  V30 9038 H 889.244 0.136483 0.724252 0
M  V30 9039 H 891.886 1.00323 1.61355 0
M  V30 9040 H 890.036 0.0049053 3.885 0
M  V30 9041 H 891.708 2.6133 3.80137 0
M  V30 9042 H 889.951 2.51439 3.53498 0
M  V30 9043 H 890.622 2.08466 5.11122 0
M  V30 9044 H 893.098 0.420634 4.13968 0
M  V30 9045 H 891.974 0.111214 5.48787 0
M  V30 9046 H 892.235 -1.13116 4.27384 0
M  V30 9047 N 891.294 -1.47756 0.548274 0
M  V30 9048 C 892.224 -2.32702 -0.19284 0
M  V30 9049 C 893.205 -1.43237 -0.917457 0
M  V30 9050 O 894.39 -1.72103 -0.89967 0
M  V30 9051 C 891.52 -3.24831 -1.22891 0
M  V30 9052 C 890.474 -4.23466 -0.621312 0
M  V30 9053 C 889.8 -5.04856 -1.76137 0
M  V30 9054 C 891.1 -5.20616 0.419055 0
M  V30 9055 H 892.794 -2.94914 0.516323 0
M  V30 9056 H 890.34 -1.41818 0.24975 0
M  V30 9057 H 892.293 -3.83094 -1.75547 0
M  V30 9058 H 891.017 -2.60656 -1.9679 0
M  V30 9059 H 889.676 -3.66416 -0.116123 0
M  V30 9060 H 889.324 -4.37091 -2.48918 0
M  V30 9061 H 889.024 -5.71629 -1.36065 0
M  V30 9062 H 890.548 -5.65976 -2.29136 0
M  V30 9063 H 891.962 -5.73296 -0.0211034 0
M  V30 9064 H 890.359 -5.95543 0.738163 0
M  V30 9065 H 891.429 -4.66638 1.31822 0
M  V30 9066 N 892.772 -0.284283 -1.55015 0
M  V30 9067 C 894.183 0.211681 -1.85496 0
M  V30 9068 C 894.534 1.54735 -1.2063 0
M  V30 9069 O 893.659 2.10594 -0.497918 0
M  V30 9070 C 894.254 0.390864 -3.36538 0
M  V30 9071 C 892.813 0.831055 -3.67111 0
M  V30 9072 C 891.96 -0.0703581 -2.77211 0
M  V30 9073 H 894.911 -0.505803 -1.50424 0
M  V30 9074 H 894.932 1.22803 -3.60138 0
M  V30 9075 H 894.444 -0.581409 -3.8372 0
M  V30 9076 H 892.545 1.81447 -3.25434 0
M  V30 9077 H 892.658 0.662026 -4.74504 0
M  V30 9078 H 891.022 0.447528 -2.50737 0
M  V30 9079 H 891.805 -1.03868 -3.2721 0
M  V30 9080 N 894.251 1.57596 -0.0117121 0
M  V30 9081 C 895.198 2.09153 0.975897 0
M  V30 9082 C 896.168 0.989579 1.33404 0
M  V30 9083 O 897.353 1.26273 1.43038 0
M  V30 9084 C 894.493 2.60906 2.2588 0
M  V30 9085 C 893.606 3.85046 1.95866 0
M  V30 9086 C 892.741 4.25257 3.18323 0
M  V30 9087 C 891.78 5.42202 2.84049 0
M  V30 9088 N 890.917 5.77651 3.99079 0
M  V30 9089 H 895.757 2.93261 0.52931 0
M  V30 9090 H 893.294 1.44965 0.249691 0
M  V30 9091 H 895.252 2.88995 3.00895 0
M  V30 9092 H 893.882 1.79654 2.68187 0
M  V30 9093 H 892.934 3.63794 1.11168 0
M  V30 9094 H 894.246 4.70151 1.66611 0
M  V30 9095 H 893.4 4.5469 4.01674 0
M  V30 9096 H 892.139 3.38884 3.50726 0
M  V30 9097 H 891.144 5.1248 1.99107 0
M  V30 9098 H 892.369 6.3026 2.52881 0
M  V30 9099 H 890.315 4.94235 4.31356 0
M  V30 9100 H 890.232 6.57356 3.73388 0
M  V30 9101 H 891.5 6.11681 4.83183 0
M  V30 9102 N 895.729 -0.261212 1.5542 0
M  V30 9103 C 896.692 -1.30645 1.8832 0
M  V30 9104 C 897.692 -1.41782 0.758588 0
M  V30 9105 O 898.882 -1.40729 1.02669 0
M  V30 9106 C 896.014 -2.6862 2.09895 0
M  V30 9107 H 897.207 -1.02698 2.81768 0
M  V30 9108 H 894.76 -0.499838 1.48092 0
M  V30 9109 H 895.495 -3.0173 1.18868 0
M  V30 9110 H 895.28 -2.61921 2.91787 0
M  V30 9111 H 896.77 -3.44121 2.36581 0
M  V30 9112 N 897.207 -1.48554 -0.526253 0
M  V30 9113 C 898.453 -1.56994 -1.28378 0
M  V30 9114 C 898.786 -0.244701 -1.92652 0
M  V30 9115 O 898.061 0.749636 -1.79473 0
M  V30 9116 C 898.344 -2.71092 -2.37026 0
M  V30 9117 C 898.197 -4.13331 -1.77418 0
M  V30 9118 C 899.516 -2.80934 -3.38769 0
M  V30 9119 H 896.635 -0.571466 -0.465398 0
M  V30 9120 H 899.277 -1.80742 -0.585861 0
M  V30 9121 H 897.427 -2.50973 -2.96555 0
M  V30 9122 H 899.099 -4.44899 -1.21912 0
M  V30 9123 H 897.342 -4.20158 -1.07936 0
M  V30 9124 H 898.013 -4.88994 -2.56104 0
M  V30 9125 H 900.489 -2.9917 -2.892 0
M  V30 9126 H 899.365 -3.62489 -4.12181 0
M  V30 9127 H 899.626 -1.89244 -3.99549 0
M  V30 9128 N 898.685 0.775411 -1.37205 0
M  V30 9129 C 899.913 1.56446 -1.35397 0
M  V30 9130 C 900.328 1.887 0.0615437 0
M  V30 9131 O 899.685 1.51178 1.02233 0
M  V30 9132 C 899.736 2.87697 -2.18889 0
M  V30 9133 O 899.457 2.56828 -3.54924 0
M  V30 9134 C 900.958 3.81944 -2.25019 0
M  V30 9135 H 898.178 0.484792 -0.463916 0
M  V30 9136 H 900.722 0.961346 -1.80495 0
M  V30 9137 H 898.877 3.44442 -1.7731 0
M  V30 9138 H 899.291 3.40851 -3.98649 0
M  V30 9139 H 900.765 4.71055 -2.87769 0
M  V30 9140 H 901.242 4.20811 -1.25757 0
M  V30 9141 H 901.848 3.3113 -2.66895 0
M  V30 9142 N 900.163 1.21714 1.00117 0
M  V30 9143 C 901.11 0.979837 2.08968 0
M  V30 9144 C 902.08 -0.0955324 1.65825 0
M  V30 9145 O 903.265 0.0523742 1.90728 0
M  V30 9146 C 900.405 0.554758 3.40612 0
M  V30 9147 C 899.518 1.69999 3.97145 0
M  V30 9148 C 898.653 1.2237 5.16913 0
M  V30 9149 C 897.692 2.34101 5.65564 0
M  V30 9150 N 896.829 1.87579 6.76579 0
M  V30 9151 H 901.669 1.91167 2.28602 0
M  V30 9152 H 899.206 0.952645 1.12085 0
M  V30 9153 H 901.164 0.289526 4.16194 0
M  V30 9154 H 899.794 -0.340073 3.21004 0
M  V30 9155 H 898.846 2.07976 3.18512 0
M  V30 9156 H 900.158 2.54074 4.29241 0
M  V30 9157 H 899.312 0.915358 5.99755 0
M  V30 9158 H 898.051 0.353045 4.8642 0
M  V30 9159 H 897.056 2.65734 4.81316 0
M  V30 9160 H 898.281 3.21669 5.98085 0
M  V30 9161 H 896.227 1.02863 6.47885 0
M  V30 9162 H 896.144 2.65225 7.07949 0
M  V30 9163 H 897.412 1.5979 7.62947 0
M  V30 9164 N 901.641 -1.19671 1.02551 0
M  V30 9165 C 903.057 -1.41305 0.741963 0
M  V30 9166 C 903.257 -1.89865 -0.674807 0
M  V30 9167 O 902.313 -2.07323 -1.44129 0
M  V30 9168 C 903.626 -2.42706 1.77522 0
M  V30 9169 C 905.174 -2.56458 1.79438 0
M  V30 9170 C 905.649 -3.61111 2.81715 0
M  V30 9171 N 907.14 -3.68603 2.8051 0
M  V30 9172 C 907.875 -4.49262 3.56302 0
M  V30 9173 N 907.371 -5.33653 4.41799 0
M  V30 9174 N 909.164 -4.43879 3.44859 0
M  V30 9175 H 901.315 -0.8647 1.94002 0
M  V30 9176 H 903.578 -0.442206 0.838545 0
M  V30 9177 H 903.284 -2.14042 2.79068 0
M  V30 9178 H 903.158 -3.41831 1.59472 0
M  V30 9179 H 905.545 -2.84447 0.78573 0
M  V30 9180 H 905.626 -1.57499 2.01563 0
M  V30 9181 H 905.27 -3.33864 3.82749 0
M  V30 9182 H 905.2 -4.59713 2.56849 0
M  V30 9183 H 907.691 -3.08329 2.18498 0
M  V30 9184 H 908.004 -5.92308 4.96378 0
M  V30 9185 H 906.349 -5.33125 4.45873 0
M  V30 9186 H 909.54 -3.7699 2.77482 0
M  V30 9187 H 909.713 -5.06501 4.04179 0
M  V30 9188 N 903.119 -0.802921 -1.35613 0
M  V30 9189 C 904.366 -0.381576 -1.98872 0
M  V30 9190 C 904.694 1.0503 -1.63704 0
M  V30 9191 O 903.949 1.7427 -0.890418 0
M  V30 9192 C 904.248 -0.507806 -3.53774 0
M  V30 9193 C 903.914 -1.90245 -4.088 0
M  V30 9194 C 902.576 -2.28401 -4.2354 0
M  V30 9195 C 904.928 -2.81504 -4.3864 0
M  V30 9196 C 902.256 -3.57192 -4.65436 0
M  V30 9197 C 904.608 -4.09737 -4.81973 0
M  V30 9198 C 903.272 -4.47897 -4.94919 0
M  V30 9199 H 902.542 -0.139629 -0.727726 0
M  V30 9200 H 905.189 -1.023 -1.61886 0
M  V30 9201 H 903.494 0.21708 -3.91198 0
M  V30 9202 H 905.191 -0.162625 -4.0067 0
M  V30 9203 H 901.781 -1.596 -3.97776 0
M  V30 9204 H 905.965 -2.53276 -4.26808 0
M  V30 9205 H 901.221 -3.86611 -4.73648 0
M  V30 9206 H 905.395 -4.80555 -5.04024 0
M  V30 9207 H 903.022 -5.47747 -5.27141 0
M  V30 9208 N 904.597 1.47463 -0.556102 0
M  V30 9209 C 905.56 2.28478 0.181743 0
M  V30 9210 C 906.56 1.36886 0.843738 0
M  V30 9211 O 907.75 1.59527 0.69977 0
M  V30 9212 C 904.882 3.16534 1.26566 0
M  V30 9213 H 906.075 2.95182 -0.529892 0
M  V30 9214 H 903.628 1.53134 -0.313005 0
M  V30 9215 H 904.363 2.5452 2.00973 0
M  V30 9216 H 904.148 3.83939 0.795798 0
M  V30 9217 H 905.638 3.77579 1.78393 0
M  V30 9218 N 906.075 0.2925 1.54862 0
M  V30 9219 C 907.324 -0.319994 1.99146 0
M  V30 9220 C 907.637 -1.55658 1.18448 0
M  V30 9221 O 908.843 -2.24312 1.52959 0
M  V30 9222 C 907.299 -0.620665 3.54508 0
M  V30 9223 C 906.907 0.597098 4.44003 0
M  V30 9224 C 908.651 -1.19482 4.07338 0
M  V30 9225 C 906.558 0.270049 5.90783 0
M  V30 9226 H 905.488 -0.123342 0.743843 0
M  V30 9227 H 908.139 0.399876 1.7909 0
M  V30 9228 H 906.521 -1.3999 3.7043 0
M  V30 9229 H 907.695 1.37354 4.39853 0
M  V30 9230 H 906.01 1.0893 4.019 0
M  V30 9231 H 908.607 -1.45362 5.14562 0
M  V30 9232 H 908.95 -2.13435 3.57423 0
M  V30 9233 H 909.483 -0.477485 3.94924 0
M  V30 9234 H 906.222 1.17791 6.4483 0
M  V30 9235 H 905.742 -0.469292 5.97961 0
M  V30 9236 H 907.421 -0.131471 6.46866 0
M  V30 9237 N 907.553 -1.57587 0.0200696 0
M  V30 9238 C 908.463 -2.13119 -0.980676 0
M  V30 9239 C 909.479 -1.08124 -1.36328 0
M  V30 9240 O 910.655 -1.40134 -1.44653 0
M  V30 9241 C 907.72 -2.63991 -2.24743 0
M  V30 9242 C 906.781 -3.83667 -1.9261 0
M  V30 9243 C 906.014 -4.32103 -3.13246 0
M  V30 9244 O 906.237 -3.79758 -4.25606 0
M  V30 9245 O 905.171 -5.24047 -2.96072 0
M  V30 9246 H 908.997 -2.98887 -0.538528 0
M  V30 9247 H 906.582 -1.48055 -0.19999 0
M  V30 9248 H 908.464 -2.9682 -2.99125 0
M  V30 9249 H 907.139 -1.81311 -2.68157 0
M  V30 9250 H 906.046 -3.55778 -1.15641 0
M  V30 9251 H 907.379 -4.67482 -1.54019 0
M  V30 9252 N 909.032 0.252966 -1.55557 0
M  V30 9253 C 909.965 1.33928 -1.84766 0
M  V30 9254 C 910.943 1.46653 -0.702254 0
M  V30 9255 O 912.127 1.62963 -0.947375 0
M  V30 9256 C 909.254 2.71348 -2.02701 0
M  V30 9257 C 908.3 2.75804 -3.25322 0
M  V30 9258 S 909.133 2.33025 -4.82141 0
M  V30 9259 C 910.289 3.72382 -5.03073 0
M  V30 9260 H 910.522 1.08951 -2.76617 0
M  V30 9261 H 908.055 0.45364 -1.47585 0
M  V30 9262 H 910.013 3.50478 -2.13718 0
M  V30 9263 H 908.674 2.93566 -1.11703 0
M  V30 9264 H 907.867 3.76713 -3.34819 0
M  V30 9265 H 907.469 2.04713 -3.12999 0
M  V30 9266 H 909.761 4.67828 -4.90044 0
M  V30 9267 H 910.704 3.67824 -6.05071 0
M  V30 9268 H 911.112 3.64614 -4.30949 0
M  V30 9269 N 910.51 1.48831 0.518367 0
M  V30 9270 C 911.758 1.57128 1.27103 0
M  V30 9271 C 912.079 0.252098 1.93364 0
M  V30 9272 O 911.349 -0.727281 1.819 0
M  V30 9273 H 909.929 0.578891 0.472116 0
M  V30 9274 H 912.591 1.85361 0.602262 0
M  V30 9275 H 911.687 2.35838 2.04418 0
M  V30 9276 N 911.988 -0.768124 1.37614 0
M  V30 9277 C 912.951 -1.86314 1.3349 0
M  V30 9278 C 913.951 -1.59025 0.23823 0
M  V30 9279 O 915.141 -1.6704 0.494288 0
M  V30 9280 C 912.273 -3.23519 1.07462 0
M  V30 9281 H 913.466 -1.91382 2.30896 0
M  V30 9282 H 911.019 -0.968267 1.22696 0
M  V30 9283 H 911.754 -3.24127 0.106028 0
M  V30 9284 H 911.539 -3.44719 1.86846 0
M  V30 9285 H 913.029 -4.03597 1.07236 0
M  V30 9286 N 913.466 -1.22244 -0.994698 0
M  V30 9287 C 914.694 -1.07218 -1.76952 0
M  V30 9288 C 915.109 0.377388 -1.8499 0
M  V30 9289 O 914.466 1.26157 -1.31874 0
M  V30 9290 C 914.517 -1.67496 -3.20355 0
M  V30 9291 O 914.238 -3.06782 -3.12756 0
M  V30 9292 C 915.739 -1.57721 -4.14294 0
M  V30 9293 H 912.959 -0.375966 -0.555779 0
M  V30 9294 H 915.503 -1.61799 -1.25065 0
M  V30 9295 H 913.658 -1.16982 -3.69315 0
M  V30 9296 H 914.072 -3.35784 -4.02926 0
M  V30 9297 H 915.546 -2.04623 -5.12673 0
M  V30 9298 H 916.023 -0.533434 -4.35949 0
M  V30 9299 H 916.629 -2.07531 -3.71229 0
M  V30 9300 N 914.944 1.19125 -1.03184 0
M  V30 9301 C 916.191 1.88883 -0.730029 0
M  V30 9302 C 916.519 1.79807 0.741602 0
M  V30 9303 O 915.774 1.18686 1.55603 0
M  V30 9304 C 916.073 3.39052 -1.13041 0
M  V30 9305 C 915.739 3.68332 -2.60082 0
M  V30 9306 C 914.401 3.76033 -3.00254 0
M  V30 9307 C 916.753 3.81423 -3.55199 0
M  V30 9308 C 914.081 3.94296 -4.34451 0
M  V30 9309 C 916.433 4.012 -4.89103 0
M  V30 9310 C 915.097 4.07134 -5.28959 0
M  V30 9311 H 914.367 0.691172 -0.267137 0
M  V30 9312 H 917.014 1.41053 -1.29523 0
M  V30 9313 H 915.319 3.88801 -0.48386 0
M  V30 9314 H 917.016 3.91351 -0.874368 0
M  V30 9315 H 913.606 3.62948 -2.27961 0
M  V30 9316 H 917.79 3.74814 -3.25313 0
M  V30 9317 H 913.046 3.97131 -4.64863 0
M  V30 9318 H 917.22 4.10271 -5.62717 0
M  V30 9319 H 914.847 4.21038 -6.32954 0
M  V30 9320 N 916.422 0.810101 1.35185 0
M  V30 9321 C 917.67 0.391343 1.98275 0
M  V30 9322 C 917.991 -1.04592 1.64577 0
M  V30 9323 O 917.261 -1.72417 0.93001 0
M  V30 9324 H 915.841 0.141715 0.733434 0
M  V30 9325 H 918.503 1.03672 1.6504 0
M  V30 9326 H 917.599 0.49991 3.0807 0
M  V30 9327 N 917.9 -1.47166 0.563914 0
M  V30 9328 C 919.146 -2.03337 0.0506932 0
M  V30 9329 C 919.501 -1.42976 -1.28746 0
M  V30 9330 O 918.794 -0.578508 -1.82658 0
M  V30 9331 C 918.988 -3.57279 -0.0931797 0
M  V30 9332 C 918.817 -4.32567 1.22948 0
M  V30 9333 C 917.587 -4.72206 1.79859 0
M  V30 9334 C 919.785 -4.67282 2.14829 0
M  V30 9335 N 917.767 -5.32166 3.0606 0
M  V30 9336 C 919.138 -5.27615 3.25611 0
M  V30 9337 C 921.193 -4.49211 2.14741 0
M  V30 9338 C 919.896 -5.71784 4.36412 0
M  V30 9339 C 921.922 -4.94384 3.24559 0
M  V30 9340 C 921.284 -5.54771 4.34061 0
M  V30 9341 H 917.383 -0.779627 0.0608761 0
M  V30 9342 H 919.967 -1.79563 0.75268 0
M  V30 9343 H 918.138 -3.80806 -0.764301 0
M  V30 9344 H 919.87 -4.0009 -0.609075 0
M  V30 9345 H 916.625 -4.54372 1.33577 0
M  V30 9346 H 917.049 -5.66684 3.70404 0
M  V30 9347 H 921.691 -4.01875 1.31362 0
M  V30 9348 H 919.409 -6.18108 5.20546 0
M  V30 9349 H 922.995 -4.82167 3.25586 0
M  V30 9350 H 921.875 -5.89087 5.17635 0
M  V30 9351 N 919.378 -0.300708 -1.54705 0
M  V30 9352 C 920.328 0.590589 -2.20218 0
M  V30 9353 C 921.312 1.09913 -1.17507 0
M  V30 9354 O 922.504 1.03995 -1.43227 0
M  V30 9355 C 919.633 1.76214 -2.94625 0
M  V30 9356 C 918.719 1.26957 -4.04651 0
M  V30 9357 N 919.11 0.494982 -5.03372 0
M  V30 9358 C 917.408 1.55033 -4.18188 0
M  V30 9359 C 918.109 0.232724 -5.81234 0
M  V30 9360 N 917.085 0.812443 -5.37494 0
M  V30 9361 H 920.887 -0.00876354 -2.93899 0
M  V30 9362 H 918.401 -0.105456 -1.62057 0
M  V30 9363 H 920.398 2.41221 -3.40027 0
M  V30 9364 H 919.058 2.36519 -2.22461 0
M  V30 9365 H 920.069 0.13991 -5.17711 0
M  V30 9366 H 916.746 2.16089 -3.57228 0
M  V30 9367 H 918.136 -0.389362 -6.70771 0
M  V30 9368 N 920.856 1.57574 -0.0284266 0
M  V30 9369 C 922.272 1.56194 0.327958 0
M  V30 9370 C 922.472 1.03397 1.72949 0
M  V30 9371 O 921.528 0.680392 2.4316 0
M  V30 9372 C 922.841 3.00177 0.177196 0
M  V30 9373 C 924.389 3.12 0.250014 0
M  V30 9374 C 924.864 4.57821 0.128049 0
M  V30 9375 N 926.355 4.6283 0.185054 0
M  V30 9376 C 927.09 5.73286 0.114454 0
M  V30 9377 N 926.586 6.928 -0.00719225 0
M  V30 9378 N 928.379 5.61848 0.16839 0
M  V30 9379 H 920.53 1.90224 -0.944921 0
M  V30 9380 H 922.793 0.874987 -0.364832 0
M  V30 9381 H 922.499 3.42753 -0.788224 0
M  V30 9382 H 922.373 3.65101 0.94768 0
M  V30 9383 H 924.76 2.69337 1.20589 0
M  V30 9384 H 924.841 2.49799 -0.550835 0
M  V30 9385 H 924.485 5.01165 -0.824407 0
M  V30 9386 H 924.415 5.18001 0.947753 0
M  V30 9387 H 926.906 3.76867 0.279247 0
M  V30 9388 H 927.219 7.72781 -0.0543903 0
M  V30 9389 H 925.564 6.94987 -0.0419648 0
M  V30 9390 H 928.755 4.67367 0.261821 0
M  V30 9391 H 928.928 6.47907 0.109908 0
M  V30 9392 N 922.334 -0.244713 1.55689 0
M  V30 9393 C 923.564 -0.988508 1.81417 0
M  V30 9394 C 923.972 -1.79362 0.602143 0
M  V30 9395 O 923.315 -1.78386 -0.438639 0
M  V30 9396 C 923.377 -1.97287 3.0053 0
M  V30 9397 C 923.041 -1.35448 4.36466 0
M  V30 9398 C 924.038 -0.755874 5.14376 0
M  V30 9399 C 921.723 -1.37319 4.83165 0
M  V30 9400 C 923.717 -0.184218 6.37134 0
M  V30 9401 C 921.404 -0.797681 6.05871 0
M  V30 9402 C 922.402 -0.204224 6.82695 0
M  V30 9403 O 922.09 0.362392 8.03083 0
M  V30 9404 H 921.822 -0.296412 0.607549 0
M  V30 9405 H 924.376 -0.272185 2.03589 0
M  V30 9406 H 922.606 -2.72756 2.74119 0
M  V30 9407 H 924.295 -2.58028 3.13331 0
M  V30 9408 H 925.061 -0.733912 4.79415 0
M  V30 9409 H 920.94 -1.8245 4.23359 0
M  V30 9410 H 924.484 0.279624 6.97039 0
M  V30 9411 H 920.381 -0.816978 6.40309 0
M  V30 9412 H 921.149 0.254467 8.18104 0
M  V30 9413 N 923.813 -1.49104 -0.510467 0
M  V30 9414 C 925.059 -1.58346 -1.26705 0
M  V30 9415 C 925.392 -0.265121 -1.92382 0
M  V30 9416 O 924.667 0.730558 -1.80258 0
M  V30 9417 C 924.95 -2.7359 -2.34137 0
M  V30 9418 C 924.803 -4.1519 -1.73024 0
M  V30 9419 C 926.122 -2.84511 -3.3577 0
M  V30 9420 H 923.241 -0.57637 -0.459311 0
M  V30 9421 H 925.883 -1.81353 -0.566658 0
M  V30 9422 H 924.033 -2.54105 -2.93876 0
M  V30 9423 H 925.705 -4.46167 -1.17186 0
M  V30 9424 H 923.948 -4.21279 -1.03473 0
M  V30 9425 H 924.619 -4.91683 -2.50903 0
M  V30 9426 H 927.095 -3.0222 -2.86011 0
M  V30 9427 H 925.971 -3.6684 -4.08313 0
M  V30 9428 H 926.232 -1.93471 -3.97519 0
M  V30 9429 N 925.291 0.760815 -1.38019 0
M  V30 9430 C 926.539 1.51673 -1.33566 0
M  V30 9431 C 926.86 1.94852 0.076024 0
M  V30 9432 O 926.13 1.67112 1.02227 0
M  V30 9433 H 924.71 0.562581 -0.491438 0
M  V30 9434 H 927.372 0.904832 -1.72623 0
M  V30 9435 H 926.468 2.41102 -1.98182 0
M  V30 9436 N 926.769 1.22769 0.988202 0
M  V30 9437 C 927.699 1.02627 2.09738 0
M  V30 9438 C 928.68 -0.0543211 1.70013 0
M  V30 9439 O 929.865 0.108811 1.93895 0
M  V30 9440 C 926.995 0.608302 3.41931 0
M  V30 9441 C 925.949 1.63536 3.95525 0
M  V30 9442 C 925.275 1.07308 5.23822 0
M  V30 9443 C 926.575 3.02649 4.25677 0
M  V30 9444 H 928.269 1.954 2.26847 0
M  V30 9445 H 925.815 0.940888 1.09011 0
M  V30 9446 H 927.768 0.454478 4.18942 0
M  V30 9447 H 926.492 -0.355095 3.24664 0
M  V30 9448 H 925.151 1.77704 3.20651 0
M  V30 9449 H 924.799 0.100894 5.02899 0
M  V30 9450 H 924.499 1.75925 5.60646 0
M  V30 9451 H 926.023 0.930938 6.03462 0
M  V30 9452 H 927.437 2.91828 4.93467 0
M  V30 9453 H 925.834 3.68434 4.73684 0
M  V30 9454 H 926.904 3.52228 3.33262 0
M  V30 9455 N 928.247 -1.18576 1.03814 0
M  V30 9456 C 929.157 -2.25778 0.637311 0
M  V30 9457 C 930.173 -1.7074 -0.335248 0
M  V30 9458 O 931.349 -2.00494 -0.19081 0
M  V30 9459 C 928.414 -3.467 0.00386953 0
M  V30 9460 C 927.475 -4.16881 1.02511 0
M  V30 9461 C 926.708 -5.32031 0.421802 0
M  V30 9462 O 926.931 -5.65142 -0.772699 0
M  V30 9463 O 925.865 -5.90826 1.14925 0
M  V30 9464 H 929.691 -2.62323 1.53037 0
M  V30 9465 H 927.276 -1.25609 0.80887 0
M  V30 9466 H 929.158 -4.19953 -0.348873 0
M  V30 9467 H 927.833 -3.11983 -0.863047 0
M  V30 9468 H 926.74 -3.45707 1.4296 0
M  V30 9469 H 928.073 -4.55592 1.86271 0
M  V30 9470 N 929.725 -0.817259 -1.34754 0
M  V30 9471 C 930.973 -0.401852 -1.98065 0
M  V30 9472 C 931.294 1.03718 -1.65129 0
M  V30 9473 O 930.564 1.71921 -0.939141 0
M  V30 9474 H 929.144 -0.145603 -0.732672 0
M  V30 9475 H 931.806 -1.04545 -1.64488 0
M  V30 9476 H 930.902 -0.516241 -3.07801 0
M  V30 9477 N 931.203 1.46865 -0.571711 0
M  V30 9478 C 932.48 1.95596 0.0132445 0
M  V30 9479 C 932.86 1.51438 1.47071 0
M  V30 9480 O 932.208 0.759917 2.15494 0
M  V30 9481 C 932.418 3.48689 -0.147335 0
M  V30 9482 C 933.766 4.24599 -0.00946329 0
M  V30 9483 O 934.79 3.5612 -0.0756112 0
M  V30 9484 O 933.649 5.46332 0.135361 0
M  V30 9485 H 930.743 0.825102 0.0560039 0
M  V30 9486 H 933.289 1.57199 -0.639256 0
M  V30 9487 H 932.061 3.73681 -1.16096 0
M  V30 9488 H 931.684 3.93887 0.542109 0
M  V30 9489 N 932.681 0.308908 1.54543 0
M  V30 9490 C 933.927 -0.298478 2.00592 0
M  V30 9491 C 934.26 -1.52929 1.19692 0
M  V30 9492 O 933.535 -1.9254 0.27542 0
M  V30 9493 C 933.818 -0.647218 3.54236 0
M  V30 9494 C 933.671 0.593284 4.4587 0
M  V30 9495 C 934.99 -1.47064 4.14801 0
M  V30 9496 H 932.109 -0.107012 0.72919 0
M  V30 9497 H 934.751 0.422578 1.85241 0
M  V30 9498 H 932.901 -1.26153 3.67447 0
M  V30 9499 H 934.573 1.2317 4.44552 0
M  V30 9500 H 932.816 1.22501 4.16144 0
M  V30 9501 H 933.487 0.305018 5.51157 0
M  V30 9502 H 935.963 -0.951511 4.05075 0
M  V30 9503 H 934.839 -1.68343 5.22448 0
M  V30 9504 H 935.1 -2.4623 3.67183 0
M  V30 9505 N 934.159 -1.57557 0.0367827 0
M  V30 9506 C 935.089 -2.13712 -0.940719 0
M  V30 9507 C 936.07 -1.05515 -1.33419 0
M  V30 9508 O 937.255 -1.33385 -1.41146 0
M  V30 9509 C 934.385 -2.67043 -2.22048 0
M  V30 9510 C 933.339 -3.80096 -1.96752 0
M  V30 9511 C 932.665 -4.19886 -3.31059 0
M  V30 9512 C 933.965 -5.05848 -1.30058 0
M  V30 9513 H 935.659 -2.9564 -0.473033 0
M  V30 9514 H 933.205 -1.42214 -0.226089 0
M  V30 9515 H 935.158 -3.04964 -2.90818 0
M  V30 9516 H 933.882 -1.82287 -2.70996 0
M  V30 9517 H 932.541 -3.42625 -1.30398 0
M  V30 9518 H 932.189 -3.32101 -3.77781 0
M  V30 9519 H 931.889 -4.96073 -3.14937 0
M  V30 9520 H 933.413 -4.60395 -4.01084 0
M  V30 9521 H 934.827 -5.41306 -1.8884 0
M  V30 9522 H 933.224 -5.87084 -1.24309 0
M  V30 9523 H 934.294 -4.84122 -0.274591 0
M  V30 9524 N 935.637 0.236453 -1.55816 0
M  V30 9525 C 936.885 0.96111 -1.77784 0
M  V30 9526 C 937.206 1.85454 -0.602648 0
M  V30 9527 O 936.476 1.92157 0.381137 0
M  V30 9528 H 935.056 0.35787 -0.655697 0
M  V30 9529 H 937.718 0.251888 -1.93265 0
M  V30 9530 H 936.814 1.5767 -2.69345 0
M  V30 9531 N 937.115 1.49373 0.502552 0
M  V30 9532 C 938.364 1.58028 1.25339 0
M  V30 9533 C 938.677 0.271494 1.93707 0
M  V30 9534 O 939.883 0.236584 2.70467 0
M  V30 9535 C 938.339 2.78817 2.27572 0
M  V30 9536 C 937.947 4.16448 1.65151 0
M  V30 9537 C 939.691 2.96802 3.03494 0
M  V30 9538 C 937.598 5.28461 2.65486 0
M  V30 9539 H 936.528 0.588396 0.471494 0
M  V30 9540 H 939.179 1.75756 0.52744 0
M  V30 9541 H 937.561 2.5458 3.03323 0
M  V30 9542 H 938.735 4.50816 0.954029 0
M  V30 9543 H 937.05 4.03809 1.01625 0
M  V30 9544 H 939.647 3.77656 3.78524 0
M  V30 9545 H 939.99 2.07303 3.61014 0
M  V30 9546 H 940.523 3.21071 2.34858 0
M  V30 9547 H 937.262 6.20015 2.12749 0
M  V30 9548 H 936.782 4.9855 3.33479 0
M  V30 9549 H 938.461 5.5773 3.27943 0
M  V30 9550 N 938.594 -0.753485 1.38421 0
M  V30 9551 C 939.871 -1.50318 1.25155 0
M  V30 9552 C 940.251 -2.10588 -0.147003 0
M  V30 9553 O 939.599 -1.97071 -1.15651 0
M  V30 9554 C 939.809 -2.56946 2.36177 0
M  V30 9555 C 941.157 -3.23846 2.74607 0
M  V30 9556 O 942.181 -2.67251 2.3549 0
M  V30 9557 O 941.04 -4.2621 3.42064 0
M  V30 9558 H 938.134 -0.666624 0.48943 0
M  V30 9559 H 940.68 -0.788887 1.50249 0
M  V30 9560 H 939.452 -2.1066 3.29754 0
M  V30 9561 H 939.075 -3.35956 2.12648 0
M  V30 9562 N 940.072 -1.23292 -0.981677 0
M  V30 9563 C 941.3 -1.09088 -1.75805 0
M  V30 9564 C 941.715 0.357746 -1.8538 0
M  V30 9565 O 941.072 1.24751 -1.33205 0
M  V30 9566 C 941.123 -1.70885 -3.1856 0
M  V30 9567 O 940.844 -3.10082 -3.09484 0
M  V30 9568 C 942.345 -1.62106 -4.12597 0
M  V30 9569 H 939.565 -0.38184 -0.55176 0
M  V30 9570 H 942.109 -1.63116 -1.23342 0
M  V30 9571 H 940.264 -1.20893 -3.68054 0
M  V30 9572 H 940.678 -3.40039 -3.99342 0
M  V30 9573 H 942.152 -2.10049 -5.10474 0
M  V30 9574 H 942.629 -0.579642 -4.35358 0
M  V30 9575 H 943.235 -2.11457 -3.69007 0
M  V30 9576 N 941.55 1.18024 -1.04442 0
M  V30 9577 C 942.797 1.88098 -0.750022 0
M  V30 9578 C 943.125 1.80583 0.722489 0
M  V30 9579 O 942.38 1.20329 1.54335 0
M  V30 9580 C 942.679 3.37834 -1.16631 0
M  V30 9581 C 942.345 3.65553 -2.63974 0
M  V30 9582 C 941.007 3.72827 -3.04226 0
M  V30 9583 C 943.359 3.77634 -3.59224 0
M  V30 9584 C 940.687 3.89666 -4.38608 0
M  V30 9585 C 943.039 3.9599 -4.9333 0
M  V30 9586 C 941.703 4.01501 -5.33248 0
M  V30 9587 H 940.973 0.6883 -0.274452 0
M  V30 9588 H 943.62 1.39671 -1.31012 0
M  V30 9589 H 941.925 3.88266 -0.525071 0
M  V30 9590 H 943.622 3.90402 -0.915827 0
M  V30 9591 H 940.212 3.6051 -2.31798 0
M  V30 9592 H 944.396 3.71342 -3.2927 0
M  V30 9593 H 939.652 3.92178 -4.69048 0
M  V30 9594 H 943.826 4.0428 -5.67037 0
M  V30 9595 H 941.453 4.14301 -6.37384 0
M  V30 9596 N 943.028 0.824394 1.34319 0
M  V30 9597 C 944.276 0.41235 1.97849 0
M  V30 9598 C 944.597 -1.02841 1.65677 0
M  V30 9599 O 943.867 -1.71421 0.948245 0
M  V30 9600 H 942.447 0.149486 0.73189 0
M  V30 9601 H 945.109 1.05416 1.63931 0
M  V30 9602 H 944.205 0.532557 3.07523 0
M  V30 9603 N 944.506 -1.46559 0.579492 0
M  V30 9604 C 945.469 -2.28739 -0.145371 0
M  V30 9605 C 946.469 -1.38211 -0.821854 0
M  V30 9606 O 947.659 -1.6062 -0.674302 0
M  V30 9607 C 944.791 -3.18507 -1.21515 0
M  V30 9608 H 945.984 -2.94301 0.576786 0
M  V30 9609 H 943.537 -1.52616 0.337327 0
M  V30 9610 H 944.272 -2.57685 -1.96899 0
M  V30 9611 H 944.057 -3.85157 -0.734616 0
M  V30 9612 H 945.547 -3.80369 -1.72363 0
M  V30 9613 N 945.984 -0.3171 -1.54377 0
M  V30 9614 C 947.209 0.292311 -2.0533 0
M  V30 9615 C 947.634 1.45503 -1.19207 0
M  V30 9616 O 946.992 1.80197 -0.199721 0
M  V30 9617 C 947.04 0.710787 -3.53525 0
M  V30 9618 O 946.144 1.81387 -3.70368 0
M  V30 9619 H 945.485 0.0539976 -0.661801 0
M  V30 9620 H 948.015 -0.463629 -1.99278 0
M  V30 9621 H 948.025 0.995216 -3.95676 0
M  V30 9622 H 946.7 -0.139668 -4.15665 0
M  V30 9623 H 945.277 1.52875 -3.40123 0
M  V30 9624 N 947.462 1.57535 -0.0451378 0
M  V30 9625 C 948.425 2.1008 0.916461 0
M  V30 9626 C 949.425 1.01913 1.2438 0
M  V30 9627 O 950.615 1.2801 1.18148 0
M  V30 9628 C 947.747 2.58001 2.22818 0
M  V30 9629 H 948.94 2.96334 0.461076 0
M  V30 9630 H 946.493 1.54974 0.203169 0
M  V30 9631 H 947.228 1.75123 2.72951 0
M  V30 9632 H 947.013 3.3704 2.00366 0
M  V30 9633 H 948.503 2.98822 2.9171 0
M  V30 9634 N 948.94 -0.228186 1.55939 0
M  V30 9635 C 950.351 -0.795734 1.68893 0
M  V30 9636 C 950.702 -1.85261 0.645967 0
M  V30 9637 O 949.827 -2.15434 -0.2042 0
M  V30 9638 C 950.422 -1.45013 3.06197 0
M  V30 9639 C 948.981 -1.96514 3.21028 0
M  V30 9640 C 948.128 -0.822918 2.64808 0
M  V30 9641 H 951.079 -0.0036485 1.587 0
M  V30 9642 H 951.1 -2.31875 3.01685 0
M  V30 9643 H 950.612 -0.680678 3.82084 0
M  V30 9644 H 948.713 -2.76282 2.49998 0
M  V30 9645 H 948.826 -2.14967 4.28166 0
M  V30 9646 H 947.19 -1.22846 2.23116 0
M  V30 9647 H 947.973 -0.0662493 3.43236 0
M  V30 9648 N 950.418 -1.49637 -0.494624 0
M  V30 9649 C 951.666 -1.5913 -1.24587 0
M  V30 9650 C 951.987 -0.282828 -1.92938 0
M  V30 9651 O 951.257 0.69825 -1.83034 0
M  V30 9652 H 949.837 -0.586329 -0.462847 0
M  V30 9653 H 952.499 -1.86296 -0.572696 0
M  V30 9654 H 951.595 -2.3906 -2.00641 0
M  V30 9655 N 951.896 0.746133 -1.38819 0
M  V30 9656 C 952.806 1.89063 -1.38897 0
M  V30 9657 C 953.822 1.71648 -0.28513 0
M  V30 9658 O 954.998 1.94443 -0.524783 0
M  V30 9659 C 952.063 3.24523 -1.22007 0
M  V30 9660 C 951.124 3.54411 -2.42263 0
M  V30 9661 C 950.357 4.83408 -2.26169 0
M  V30 9662 O 950.58 5.56325 -1.25931 0
M  V30 9663 O 949.514 5.12943 -3.14918 0
M  V30 9664 H 953.34 1.91951 -2.35347 0
M  V30 9665 H 950.925 0.892433 -1.19816 0
M  V30 9666 H 952.807 4.05496 -1.14677 0
M  V30 9667 H 951.482 3.2243 -0.286455 0
M  V30 9668 H 950.389 2.73569 -2.55168 0
M  V30 9669 H 951.722 3.61273 -3.3428 0
M  V30 9670 N 953.375 1.23811 0.975125 0
M  V30 9671 C 954.322 1.02394 2.06843 0
M  V30 9672 C 955.292 -0.060337 1.6599 0
M  V30 9673 O 956.477 0.0928187 1.90574 0
M  V30 9674 C 953.617 0.626882 3.39359 0
M  V30 9675 C 952.73 1.78385 3.9345 0
M  V30 9676 C 951.865 1.33307 5.14201 0
M  V30 9677 C 950.904 2.46045 5.60471 0
M  V30 9678 N 950.041 2.01888 6.72448 0
M  V30 9679 H 954.881 1.95973 2.24496 0
M  V30 9680 H 952.418 0.976206 1.10039 0
M  V30 9681 H 954.376 0.377742 4.15486 0
M  V30 9682 H 953.006 -0.271907 3.21653 0
M  V30 9683 H 952.058 2.14685 3.14029 0
M  V30 9684 H 953.37 2.63122 4.23755 0
M  V30 9685 H 952.524 1.04237 5.97678 0
M  V30 9686 H 951.263 0.456143 4.85562 0
M  V30 9687 H 950.268 2.75884 4.75571 0
M  V30 9688 H 951.493 3.34283 5.91127 0
M  V30 9689 H 949.439 1.16583 6.45558 0
M  V30 9690 H 949.356 2.80182 7.02164 0
M  V30 9691 H 950.624 1.75937 7.59386 0
M  V30 9692 N 954.853 -1.17469 1.05066 0
M  V30 9693 C 956.102 -1.87032 0.755114 0
M  V30 9694 C 956.415 -1.81844 -0.720572 0
M  V30 9695 O 957.621 -2.46866 -1.13002 0
M  V30 9696 C 956.077 -3.35581 1.30052 0
M  V30 9697 C 955.685 -3.49274 2.80556 0
M  V30 9698 C 957.429 -4.1048 1.08196 0
M  V30 9699 C 955.336 -4.91838 3.28404 0
M  V30 9700 H 954.266 -0.70057 0.278779 0
M  V30 9701 H 956.917 -1.32663 1.26779 0
M  V30 9702 H 955.299 -3.89479 0.715667 0
M  V30 9703 H 956.473 -3.05598 3.44886 0
M  V30 9704 H 954.788 -2.87793 3.00939 0
M  V30 9705 H 957.385 -5.15652 1.41447 0
M  V30 9706 H 957.728 -4.16295 0.0196603 0
M  V30 9707 H 958.261 -3.62784 1.63195 0
M  V30 9708 H 955 -4.91196 4.34058 0
M  V30 9709 H 954.52 -5.36189 2.68815 0
M  V30 9710 H 956.199 -5.60602 3.23009 0
M  V30 9711 N 956.331 -0.831506 -1.3388 0
M  V30 9712 C 957.264 -0.2046 -2.27281 0
M  V30 9713 C 958.242 0.643992 -1.49303 0
M  V30 9714 O 959.426 0.605863 -1.78498 0
M  V30 9715 C 956.553 0.713409 -3.31101 0
M  V30 9716 C 955.599 -0.0587654 -4.2646 0
M  V30 9717 S 956.432 -1.41172 -5.16557 0
M  V30 9718 C 957.588 -0.498807 -6.23909 0
M  V30 9719 H 957.821 -0.996442 -2.80104 0
M  V30 9720 H 955.354 -0.62786 -1.41058 0
M  V30 9721 H 957.312 1.23748 -3.91403 0
M  V30 9722 H 955.973 1.47885 -2.77108 0
M  V30 9723 H 955.166 0.639466 -4.99927 0
M  V30 9724 H 954.768 -0.513665 -3.70456 0
M  V30 9725 H 957.06 0.306268 -6.76807 0
M  V30 9726 H 958.003 -1.20342 -6.97799 0
M  V30 9727 H 958.411 -0.0834242 -5.64438 0
M  V30 9728 N 957.809 1.4625 -0.587256 0
M  V30 9729 C 958.719 2.34147 0.145744 0
M  V30 9730 C 959.735 1.50026 0.881376 0
M  V30 9731 O 960.911 1.82884 0.843539 0
M  V30 9732 C 957.976 3.27294 1.14366 0
M  V30 9733 C 957.037 4.27317 0.412199 0
M  V30 9734 C 956.27 5.16013 1.36257 0
M  V30 9735 O 956.493 5.0773 2.59934 0
M  V30 9736 O 955.427 5.95569 0.870681 0
M  V30 9737 H 959.253 2.98187 -0.576055 0
M  V30 9738 H 956.838 1.45299 -0.347628 0
M  V30 9739 H 958.72 3.84747 1.71894 0
M  V30 9740 H 957.395 2.65845 1.84684 0
M  V30 9741 H 956.302 3.73538 -0.205036 0
M  V30 9742 H 957.635 4.91564 -0.250104 0
M  V30 9743 N 959.287 0.325282 1.54207 0
M  V30 9744 C 960.197 -0.548778 2.28091 0
M  V30 9745 C 961.213 -1.12772 1.32508 0
M  V30 9746 O 962.389 -1.14732 1.65525 0
M  V30 9747 C 959.454 -1.69284 3.02562 0
M  V30 9748 C 958.515 -1.14553 4.13734 0
M  V30 9749 C 957.748 -2.23506 4.84645 0
M  V30 9750 O 957.971 -3.43884 4.55082 0
M  V30 9751 O 956.905 -1.88828 5.71513 0
M  V30 9752 H 960.731 0.0512974 3.03657 0
M  V30 9753 H 958.316 0.0909159 1.49123 0
M  V30 9754 H 960.198 -2.35887 3.49192 0
M  V30 9755 H 958.873 -2.27906 2.2987 0
M  V30 9756 H 957.78 -0.444532 3.71449 0
M  V30 9757 H 959.113 -0.60441 4.88475 0
M  V30 9758 N 960.765 -1.57509 0.0534917 0
M  V30 9759 C 961.995 -1.96812 -0.628386 0
M  V30 9760 C 962.403 -0.929808 -1.64776 0
M  V30 9761 O 961.746 0.0941155 -1.83459 0
M  V30 9762 C 961.808 -3.32361 -1.37027 0
M  V30 9763 C 961.472 -4.54185 -0.506465 0
M  V30 9764 C 962.469 -5.19398 0.228412 0
M  V30 9765 C 960.154 -5.00398 -0.43671 0
M  V30 9766 C 962.148 -6.29162 1.02146 0
M  V30 9767 C 959.835 -6.10039 0.360022 0
M  V30 9768 C 960.833 -6.74282 1.08779 0
M  V30 9769 O 960.521 -7.81814 1.87142 0
M  V30 9770 H 960.253 -0.65257 -0.176432 0
M  V30 9771 H 962.807 -2.05067 0.116908 0
M  V30 9772 H 961.037 -3.20667 -2.16125 0
M  V30 9773 H 962.726 -3.56395 -1.94261 0
M  V30 9774 H 963.492 -4.84651 0.184003 0
M  V30 9775 H 959.371 -4.50183 -0.992772 0
M  V30 9776 H 962.915 -6.79238 1.59002 0
M  V30 9777 H 958.812 -6.44222 0.406061 0
M  V30 9778 H 959.58 -7.98602 1.79378 0
M  V30 9779 N 962.243 0.219913 -1.56058 0
M  V30 9780 C 963.491 0.942199 -1.78793 0
M  V30 9781 C 963.812 1.84804 -0.622284 0
M  V30 9782 O 963.082 1.9255 0.360735 0
M  V30 9783 H 961.662 0.350895 -0.659455 0
M  V30 9784 H 964.324 0.231376 -1.93522 0
M  V30 9785 H 963.42 1.54804 -2.71002 0
M  V30 9786 N 963.721 1.49897 0.486681 0
M  V30 9787 C 964.968 1.60105 1.23986 0
M  V30 9788 C 965.296 0.294228 1.92262 0
M  V30 9789 O 964.551 -0.718876 1.82018 0
M  V30 9790 C 964.85 2.71982 2.31863 0
M  V30 9791 C 964.516 4.13 1.80948 0
M  V30 9792 C 963.178 4.51373 1.66782 0
M  V30 9793 C 965.53 5.01198 1.43004 0
M  V30 9794 C 962.858 5.75701 1.13072 0
M  V30 9795 C 965.21 6.26058 0.90742 0
M  V30 9796 C 963.874 6.63247 0.752269 0
M  V30 9797 H 963.144 0.585866 0.453698 0
M  V30 9798 H 965.791 1.83778 0.538305 0
M  V30 9799 H 964.096 2.42336 3.07865 0
M  V30 9800 H 965.793 2.77087 2.89869 0
M  V30 9801 H 962.383 3.82718 1.92937 0
M  V30 9802 H 966.567 4.72196 1.52789 0
M  V30 9803 H 961.823 6.03202 0.997842 0
M  V30 9804 H 965.997 6.9377 0.604684 0
M  V30 9805 H 963.624 7.59466 0.33392 0
M  V30 9806 N 965.199 -0.738761 1.39212 0
M  V30 9807 C 966.427 -1.52801 1.39497 0
M  V30 9808 C 966.842 -1.88797 -0.0114917 0
M  V30 9809 O 966.199 -1.53835 -0.981887 0
M  V30 9810 C 966.25 -2.81793 2.2644 0
M  V30 9811 O 965.971 -2.47328 3.61608 0
M  V30 9812 C 967.472 -3.75844 2.35067 0
M  V30 9813 H 964.692 -0.472322 0.476606 0
M  V30 9814 H 967.236 -0.913153 1.8298 0
M  V30 9815 H 965.391 -3.3962 1.8638 0
M  V30 9816 H 965.805 -3.30162 4.07545 0
M  V30 9817 H 967.279 -4.6326 3.00157 0
M  V30 9818 H 967.756 -4.17329 1.3687 0
M  V30 9819 H 968.362 -3.23937 2.75581 0
M  V30 9820 N 966.677 -1.24326 -0.968545 0
M  V30 9821 C 967.923 -1.08406 -1.71394 0
M  V30 9822 C 968.256 0.376353 -1.90518 0
M  V30 9823 O 967.531 1.27816 -1.46606 0
M  V30 9824 C 967.814 -1.82344 -3.1052 0
M  V30 9825 C 967.667 -3.3613 -2.98893 0
M  V30 9826 C 968.986 -1.59545 -4.10163 0
M  V30 9827 H 966.105 -0.395205 -0.622079 0
M  V30 9828 H 968.747 -1.52983 -1.12677 0
M  V30 9829 H 966.897 -1.44452 -3.60646 0
M  V30 9830 H 968.569 -3.83614 -2.56199 0
M  V30 9831 H 966.812 -3.64553 -2.35124 0
M  V30 9832 H 967.483 -3.83064 -3.97449 0
M  V30 9833 H 969.959 -1.92504 -3.68892 0
M  V30 9834 H 968.835 -2.13736 -5.05577 0
M  V30 9835 H 969.096 -0.533503 -4.38869 0
M  V30 9836 N 968.156 1.1691 -1.05688 0
M  V30 9837 C 969.066 2.24735 -0.67315 0
M  V30 9838 C 970.082 1.71252 0.308043 0
M  V30 9839 O 971.258 2.00772 0.158889 0
M  V30 9840 C 968.323 3.4665 -0.059026 0
M  V30 9841 C 967.384 4.15198 -1.0913 0
M  V30 9842 C 966.617 5.31292 -0.50639 0
M  V30 9843 O 966.84 5.663 0.682692 0
M  V30 9844 O 965.774 5.88923 -1.2431 0
M  V30 9845 H 969.6 2.59855 -1.57191 0
M  V30 9846 H 967.185 1.24306 -0.828751 0
M  V30 9847 H 969.067 4.20455 0.282018 0
M  V30 9848 H 967.742 3.13316 0.813304 0
M  V30 9849 H 966.649 3.43389 -1.48442 0
M  V30 9850 H 967.982 4.52571 -1.93495 0
M  V30 9851 N 969.634 0.838594 1.33437 0
M  V30 9852 C 970.582 0.260158 2.31141 0
M  V30 9853 C 971.576 -0.607706 1.58124 0
M  V30 9854 O 972.782 -0.497298 1.72994 0
M  V30 9855 H 969.157 0.0654031 0.74915 0
M  V30 9856 H 971.128 1.09874 2.77435 0
M  V30 9857 C 969.877 -0.550234 3.43319 0
M  V30 9858 H 969.2 0.108262 3.99653 0
M  V30 9859 H 970.64 -0.920815 4.1388 0
M  V30 9860 C 969.099 -1.729 2.89149 0
M  V30 9861 O 969.629 -2.82769 2.85315 0
M  V30 9862 N 967.835 -1.5508 2.45761 0
M  V30 9863 H 967.382 -0.657055 2.49079 0
M  V30 9864 H 967.34 -2.34099 2.0987 0
M  V30 9865 N 971.112 -1.45937 0.595003 0
M  V30 9866 C 972.358 -2.0262 0.0854317 0
M  V30 9867 C 972.691 -1.46402 -1.27594 0
M  V30 9868 O 971.966 -0.633823 -1.83883 0
M  V30 9869 C 972.249 -3.60085 0.0329075 0
M  V30 9870 C 972.102 -4.26663 1.42405 0
M  V30 9871 C 973.421 -4.35101 -0.661426 0
M  V30 9872 H 970.54 -0.736282 0.0325196 0
M  V30 9873 H 973.182 -1.73938 0.764563 0
M  V30 9874 H 971.332 -3.84652 -0.545439 0
M  V30 9875 H 973.004 -4.13321 2.04851 0
M  V30 9876 H 971.247 -3.85549 1.98833 0
M  V30 9877 H 971.918 -5.35497 1.33965 0
M  V30 9878 H 974.394 -4.15753 -0.169977 0
M  V30 9879 H 973.27 -5.44829 -0.667243 0
M  V30 9880 H 973.531 -4.07053 -1.72513 0
M  V30 9881 N 972.59 -0.333456 -1.54032 0
M  V30 9882 C 973.836 0.266527 -2.01041 0
M  V30 9883 C 974.169 1.51006 -1.2211 0
M  V30 9884 O 973.444 1.92078 -0.306016 0
M  V30 9885 C 973.727 0.59078 -3.55221 0
M  V30 9886 C 973.58 -0.664143 -4.4487 0
M  V30 9887 C 974.899 1.40447 -4.17088 0
M  V30 9888 H 972.018 0.0953979 -0.7308 0
M  V30 9889 H 974.66 -0.451995 -1.84545 0
M  V30 9890 H 972.81 1.20292 -3.69408 0
M  V30 9891 H 974.482 -1.30227 -4.42537 0
M  V30 9892 H 972.725 -1.29106 -4.14143 0
M  V30 9893 H 973.396 -0.392664 -5.50602 0
M  V30 9894 H 975.872 0.886946 -4.06537 0
M  V30 9895 H 974.748 1.6001 -5.2506 0
M  V30 9896 H 975.009 2.40357 -3.71054 0
M  V30 9897 N 974.068 1.57479 -0.061844 0
M  V30 9898 C 975.484 1.56855 0.294753 0
M  V30 9899 C 975.684 1.07042 1.70717 0
M  V30 9900 O 974.74 0.731817 2.41662 0
M  V30 9901 C 976.053 3.00486 0.113484 0
M  V30 9902 C 977.601 3.1246 0.183778 0
M  V30 9903 C 978.076 4.5799 0.0309092 0
M  V30 9904 N 979.567 4.63119 0.0868393 0
M  V30 9905 C 980.302 5.734 -0.00717446 0
M  V30 9906 N 979.798 6.92628 -0.154144 0
M  V30 9907 N 981.591 5.62078 0.0491763 0
M  V30 9908 H 973.742 1.88176 -0.985058 0
M  V30 9909 H 976.005 0.867051 -0.383309 0
M  V30 9910 H 975.711 3.41004 -0.86075 0
M  V30 9911 H 975.585 3.67029 0.870023 0
M  V30 9912 H 977.972 2.71834 1.14849 0
M  V30 9913 H 978.053 2.48574 -0.603697 0
M  V30 9914 H 977.697 4.99303 -0.930526 0
M  V30 9915 H 977.627 5.19895 0.837664 0
M  V30 9916 H 980.118 3.77374 0.199245 0
M  V30 9917 H 980.431 7.72492 -0.218296 0
M  V30 9918 H 978.776 6.94742 -0.189372 0
M  V30 9919 H 981.967 4.67817 0.162626 0
M  V30 9920 H 982.14 6.47994 -0.0275478 0
M  V30 9921 N 975.546 -0.211634 1.56173 0
M  V30 9922 C 976.493 -1.26231 1.93221 0
M  V30 9923 C 977.463 -1.46076 0.790641 0
M  V30 9924 O 978.648 -1.59482 1.04739 0
M  V30 9925 C 975.788 -2.60559 2.26281 0
M  V30 9926 C 974.901 -2.48431 3.5342 0
M  V30 9927 C 974.036 -3.7535 3.7588 0
M  V30 9928 C 973.075 -3.57985 4.96501 0
M  V30 9929 N 972.212 -4.76877 5.15299 0
M  V30 9930 H 977.052 -0.939367 2.82807 0
M  V30 9931 H 974.589 -0.452511 1.39967 0
M  V30 9932 H 976.547 -3.38796 2.43461 0
M  V30 9933 H 975.177 -2.9093 1.39855 0
M  V30 9934 H 974.229 -1.61577 3.44379 0
M  V30 9935 H 975.541 -2.31526 4.41811 0
M  V30 9936 H 974.695 -4.62029 3.9321 0
M  V30 9937 H 973.434 -3.95191 2.85788 0
M  V30 9938 H 972.439 -2.69691 4.79111 0
M  V30 9939 H 973.664 -3.39605 5.88086 0
M  V30 9940 H 971.61 -4.97013 4.28152 0
M  V30 9941 H 971.527 -4.62735 5.9784 0
M  V30 9942 H 972.795 -5.64954 5.37073 0
M  V30 9943 N 977.024 -1.50153 -0.478725 0
M  V30 9944 C 978.27 -1.60998 -1.23318 0
M  V30 9945 C 978.603 -0.305868 -1.91776 0
M  V30 9946 O 977.878 0.692158 -1.81767 0
M  V30 9947 C 978.161 -2.78495 -2.28282 0
M  V30 9948 C 978.014 -4.18767 -1.64178 0
M  V30 9949 C 979.333 -2.91569 -3.2966 0
M  V30 9950 H 976.452 -0.585983 -0.446982 0
M  V30 9951 H 979.094 -1.82514 -0.528063 0
M  V30 9952 H 977.244 -2.60281 -2.8842 0
M  V30 9953 H 978.916 -4.48552 -1.07696 0
M  V30 9954 H 977.159 -4.23379 -0.94514 0
M  V30 9955 H 977.83 -4.96894 -2.40417 0
M  V30 9956 H 980.306 -3.08219 -2.79536 0
M  V30 9957 H 979.182 -3.75419 -4.0044 0
M  V30 9958 H 979.443 -2.01859 -3.93326 0
M  V30 9959 N 978.502 0.731368 -1.39602 0
M  V30 9960 C 979.449 1.84541 -1.38612 0
M  V30 9961 C 980.419 1.64279 -0.245287 0
M  V30 9962 O 981.604 1.85635 -0.440954 0
M  V30 9963 C 978.744 3.22092 -1.23897 0
M  V30 9964 C 977.857 3.54034 -2.47555 0
M  V30 9965 C 976.992 4.81007 -2.25402 0
M  V30 9966 C 976.031 5.05804 -3.44716 0
M  V30 9967 N 975.168 6.23981 -3.21857 0
M  V30 9968 H 980.008 1.84722 -2.33841 0
M  V30 9969 H 977.545 0.902569 -1.16156 0
M  V30 9970 H 979.503 4.01499 -1.13376 0
M  V30 9971 H 978.133 3.2118 -0.322958 0
M  V30 9972 H 977.185 2.69301 -2.68665 0
M  V30 9973 H 978.497 3.68275 -3.36415 0
M  V30 9974 H 977.651 5.68401 -2.12143 0
M  V30 9975 H 976.39 4.68946 -1.33943 0
M  V30 9976 H 975.395 4.1687 -3.58468 0
M  V30 9977 H 976.62 5.19747 -4.37081 0
M  V30 9978 H 974.566 6.13202 -2.33065 0
M  V30 9979 H 974.483 6.38826 -4.04274 0
M  V30 9980 H 975.751 7.14205 -3.123 0
M  V30 9981 N 979.98 1.24838 0.961938 0
M  V30 9982 C 980.89 1.06304 2.09133 0
M  V30 9983 C 981.906 0.00221475 1.74 0
M  V30 9984 O 983.082 0.201611 2.00388 0
M  V30 9985 C 980.147 0.676117 3.40043 0
M  V30 9986 C 979.208 1.81407 3.89089 0
M  V30 9987 C 978.441 1.44551 5.13752 0
M  V30 9988 O 978.664 0.337894 5.69398 0
M  V30 9989 O 977.598 2.27316 5.57325 0
M  V30 9990 H 981.424 2.01001 2.27667 0
M  V30 9991 H 979.009 1.0371 1.07539 0
M  V30 9992 H 980.891 0.472124 4.18747 0
M  V30 9993 H 979.566 -0.241667 3.22797 0
M  V30 9994 H 978.473 2.07286 3.11421 0
M  V30 9995 H 979.806 2.71083 4.10822 0
M  V30 9996 N 981.458 -1.16348 1.06306 0
M  V30 9997 C 982.391 -2.19667 0.618197 0
M  V30 9998 C 983.369 -1.58586 -0.359078 0
M  V30 9999 O 984.553 -1.86585 -0.268023 0
M  V30 10000 C 981.68 -3.3857 -0.0937091 0
M  V30 10001 C 980.726 -4.18139 0.840339 0
M  V30 10002 S 981.559 -4.81879 2.33565 0
M  V30 10003 C 982.715 -6.04161 1.63524 0
M  V30 10004 H 982.948 -2.57063 1.49352 0
M  V30 10005 H 980.481 -1.27141 0.876046 0
M  V30 10006 H 982.439 -4.07465 -0.498227 0
M  V30 10007 H 981.1 -2.9954 -0.94523 0
M  V30 10008 H 980.293 -5.03172 0.288781 0
M  V30 10009 H 979.895 -3.54739 1.18474 0
M  V30 10010 H 982.187 -6.70935 0.940904 0
M  V30 10011 H 983.13 -6.63866 2.46347 0
M  V30 10012 H 983.538 -5.53323 1.11778 0
M  V30 10013 N 982.937 -0.845659 -1.3299 0
M  V30 10014 C 983.867 -0.298957 -2.31578 0
M  V30 10015 C 984.848 0.597012 -1.59279 0
M  V30 10016 O 986.033 0.519142 -1.87132 0
M  V30 10017 C 983.163 0.521109 -3.43368 0
M  V30 10018 C 982.117 -0.279651 -4.27085 0
M  V30 10019 C 981.443 0.664591 -5.30554 0
M  V30 10020 C 982.743 -1.50046 -5.00283 0
M  V30 10021 H 984.437 -1.12272 -2.77552 0
M  V30 10022 H 981.983 -0.54132 -1.33438 0
M  V30 10023 H 983.936 0.913921 -4.1137 0
M  V30 10024 H 982.66 1.37815 -2.96099 0
M  V30 10025 H 981.319 -0.654106 -3.60717 0
M  V30 10026 H 980.967 1.51822 -4.79541 0
M  V30 10027 H 980.667 0.132871 -5.8745 0
M  V30 10028 H 982.191 1.05477 -6.01421 0
M  V30 10029 H 983.605 -1.18044 -5.61016 0
M  V30 10030 H 982.002 -1.96946 -5.66862 0
M  V30 10031 H 983.072 -2.26659 -4.28665 0
M  V30 10032 O 984.454 1.43385 -0.743168 0
M  V30 10033 H 985.145 1.91402 -0.297468 0
M  V30 END ATOM
M  V30 BEGIN BOND
M  V30 END BOND
M  V30 END CTAB
M  END
$$$$
