drugbank_target|Q13427 Peptidyl-prolyl cis-trans isomerase G (DB00172)
 OpenBabel12092120093D

  0  0  0     0  0            999 V3000
M  V30 BEGIN CTAB
M  V30 COUNTS 12420 12506 0 0 0
M  V30 BEGIN ATOM
M  V30 1 H -0.908 1.98254 -0.117106 0
M  V30 2 N 0 1.576 0 0
M  V30 3 C 0.933 2.03868 1.02534 0
M  V30 4 C 1.911 0.928543 1.3348 0
M  V30 5 O 3.095 1.19667 1.45644 0
M  V30 6 C 0.222 2.43627 2.35294 0
M  V30 7 C -0.732 3.65373 2.2001 0
M  V30 8 S 0.101 5.13292 1.52614 0
M  V30 9 C 1.257 5.56322 2.86805 0
M  V30 10 H 1.49 2.90518 0.631377 0
M  V30 11 H -0.977 1.52953 0.210867 0
M  V30 12 H 0.981 2.67203 3.11629 0
M  V30 13 H -0.358 1.57376 2.7183 0
M  V30 14 H -1.165 3.90944 3.18086 0
M  V30 15 H -1.563 3.418 1.51819 0
M  V30 16 H 0.729 5.58782 3.83104 0
M  V30 17 H 1.672 6.56266 2.65933 0
M  V30 18 H 2.08 4.83886 2.90714 0
M  V30 19 N 1.4781 -0.272755 1.55222 0
M  V30 20 C 2.7261 -1.00234 1.75492 0
M  V30 21 C 3.0471 -1.8681 0.5592 0
M  V30 22 O 2.3171 -1.91215 -0.425882 0
M  V30 23 H 0.8971 -0.373076 0.647166 0
M  V30 24 H 3.5591 -0.296926 1.92625 0
M  V30 25 H 2.6551 -1.63913 2.65592 0
M  V30 26 N 2.9562 -1.48159 -0.537278 0
M  V30 27 C 4.2052 -1.5506 -1.28993 0
M  V30 28 C 4.5182 -0.226211 -1.94288 0
M  V30 29 O 5.7242 -0.173395 -2.70946 0
M  V30 30 C 4.1802 -2.73429 -2.34018 0
M  V30 31 C 3.7882 -4.1248 -1.74825 0
M  V30 32 C 5.5322 -2.89638 -3.10339 0
M  V30 33 C 3.4392 -5.22121 -2.77747 0
M  V30 34 H 2.3692 -0.577231 -0.485098 0
M  V30 35 H 5.0202 -1.74478 -0.568317 0
M  V30 36 H 3.4022 -2.47431 -3.09182 0
M  V30 37 H 4.5762 -4.48466 -1.05899 0
M  V30 38 H 2.8912 -4.01327 -1.11022 0
M  V30 39 H 5.4882 -3.68718 -3.87235 0
M  V30 40 H 5.8312 -1.9882 -3.65754 0
M  V30 41 H 6.3642 -3.15502 -2.42288 0
M  V30 42 H 3.1032 -6.1488 -2.27161 0
M  V30 43 H 2.6232 -4.90631 -3.45024 0
M  V30 44 H 4.3022 -5.49924 -3.4087 0
M  V30 45 N 4.4343 0.785586 -1.36625 0
M  V30 46 C 5.3813 1.89838 -1.31264 0
M  V30 47 C 6.3513 1.65115 -0.180633 0
M  V30 48 O 7.5363 1.87222 -0.36777 0
M  V30 49 C 4.6763 3.26706 -1.11163 0
M  V30 50 C 3.7893 3.63476 -2.33472 0
M  V30 51 C 2.9243 4.89481 -2.06353 0
M  V30 52 C 1.9633 5.18941 -3.24602 0
M  V30 53 N 1.1003 6.36131 -2.97123 0
M  V30 54 H 5.9403 1.93756 -2.26413 0
M  V30 55 H 3.4773 0.947454 -1.12524 0
M  V30 56 H 5.4353 4.05639 -0.975337 0
M  V30 57 H 4.0653 3.222 -0.196674 0
M  V30 58 H 3.1173 2.79636 -2.57891 0
M  V30 59 H 4.4293 3.81193 -3.21704 0
M  V30 60 H 3.5833 5.76288 -1.89675 0
M  V30 61 H 2.3223 4.73841 -1.15437 0
M  V30 62 H 1.3273 4.30615 -3.41834 0
M  V30 63 H 2.5523 5.36498 -4.16349 0
M  V30 64 H 0.4983 6.21875 -2.08823 0
M  V30 65 H 0.4153 6.54198 -3.78894 0
M  V30 66 H 1.6833 7.2591 -2.84033 0
M  V30 67 N 5.9124 1.20967 1.01018 0
M  V30 68 C 7.1584 1.02526 1.74975 0
M  V30 69 C 7.4914 -0.4408 1.89131 0
M  V30 70 O 6.7664 -1.32718 1.42184 0
M  V30 71 C 7.0494 1.71699 3.1653 0
M  V30 72 C 6.9024 3.25791 3.10129 0
M  V30 73 C 8.2214 1.45531 4.15342 0
M  V30 74 H 5.3404 0.373863 0.635134 0
M  V30 75 H 7.9824 1.49071 1.17805 0
M  V30 76 H 6.1324 1.32128 3.65341 0
M  V30 77 H 7.8044 3.74697 2.69072 0
M  V30 78 H 6.0474 3.56363 2.47362 0
M  V30 79 H 6.7184 3.69353 4.10222 0
M  V30 80 H 9.1944 1.79872 3.75213 0
M  V30 81 H 8.0704 1.96453 5.1254 0
M  V30 82 H 8.3314 0.384237 4.40427 0
M  V30 83 N 7.3905 -1.2043 1.01659 0
M  V30 84 C 8.3225 -2.22626 0.544988 0
M  V30 85 C 9.3355 -1.58479 -0.372609 0
M  V30 86 O 10.5245 -1.77679 -0.170958 0
M  V30 87 C 7.6245 -3.38141 -0.22663 0
M  V30 88 C 6.7975 -4.31877 0.692876 0
M  V30 89 C 5.8565 -5.26191 -0.0311616 0
M  V30 90 O 4.8825 -5.6612 0.591343 0
M  V30 91 N 6.0845 -5.65618 -1.30601 0
M  V30 92 H 8.8495 -2.63716 1.42388 0
M  V30 93 H 6.4105 -1.34971 0.894116 0
M  V30 94 H 8.4025 -3.98239 -0.72024 0
M  V30 95 H 6.9725 -2.95943 -1.00681 0
M  V30 96 H 6.1925 -3.69746 1.36679 0
M  V30 97 H 7.4805 -4.91426 1.31824 0
M  V30 98 H 6.8785 -5.3519 -1.83269 0
M  V30 99 H 5.4355 -6.28025 -1.74435 0
M  V30 100 N 8.8686 -0.792821 -1.36206 0
M  V30 101 C 10.2846 -0.474903 -1.52371 0
M  V30 102 C 10.4846 1.00622 -1.74578 0
M  V30 103 O 9.5406 1.79162 -1.77924 0
M  V30 104 C 10.8536 -1.3083 -2.70747 0
M  V30 105 C 12.4016 -1.30234 -2.84619 0
M  V30 106 C 12.8766 -2.11956 -4.06004 0
M  V30 107 N 14.3676 -2.09419 -4.13156 0
M  V30 108 C 15.1026 -2.69419 -5.06163 0
M  V30 109 N 14.5986 -3.3829 -6.04592 0
M  V30 110 N 16.3916 -2.59134 -4.98804 0
M  V30 111 H 8.5426 -1.75222 -1.20046 0
M  V30 112 H 10.8056 -0.745024 -0.586211 0
M  V30 113 H 10.5116 -2.35881 -2.6087 0
M  V30 114 H 10.3856 -0.95196 -3.6499 0
M  V30 115 H 12.7726 -0.259748 -2.93955 0
M  V30 116 H 12.8536 -1.69847 -1.91274 0
M  V30 117 H 12.4976 -3.16248 -3.97429 0
M  V30 118 H 12.4276 -1.69711 -4.98503 0
M  V30 119 H 14.9186 -1.59297 -3.42685 0
M  V30 120 H 15.2316 -3.81394 -6.7213 0
M  V30 121 H 13.5766 -3.42393 -6.04807 0
M  V30 122 H 16.7676 -2.04927 -4.20859 0
M  V30 123 H 16.9406 -3.06185 -5.711 0
M  V30 124 N 10.3467 1.47872 -0.545128 0
M  V30 125 C 11.7577 1.86384 -0.108581 0
M  V30 126 C 12.1087 1.45309 1.31832 0
M  V30 127 O 11.2337 0.850641 1.9898 0
M  V30 128 C 11.8287 3.38265 -0.190274 0
M  V30 129 C 10.3877 3.75914 0.191164 0
M  V30 130 C 9.5347 2.71926 -0.543273 0
M  V30 131 H 12.4857 1.39561 -0.755537 0
M  V30 132 H 12.5067 3.75831 0.594217 0
M  V30 133 H 12.0187 3.6813 -1.2289 0
M  V30 134 H 10.1197 3.51665 1.23136 0
M  V30 135 H 10.2327 4.78836 -0.158987 0
M  V30 136 H 8.5967 2.54697 0.0122495 0
M  V30 137 H 9.3797 3.04634 -1.58282 0
M  V30 138 N 11.8248 0.280983 1.55075 0
M  V30 139 C 13.2408 -0.0729964 1.59433 0
M  V30 140 C 13.4408 -1.5411 1.29817 0
M  V30 141 O 12.4968 -2.29086 1.06187 0
M  V30 142 C 13.8098 0.306921 2.9913 0
M  V30 143 C 15.3578 0.254023 3.11968 0
M  V30 144 C 15.8328 0.608467 4.5394 0
M  V30 145 N 17.3238 0.560241 4.59799 0
M  V30 146 C 18.0588 0.80722 5.6769 0
M  V30 147 N 17.5548 1.11912 6.83701 0
M  V30 148 N 19.3478 0.735623 5.57266 0
M  V30 149 H 11.4988 1.238 1.7259 0
M  V30 150 H 13.7618 0.500547 0.805082 0
M  V30 151 H 13.4678 1.32816 3.25657 0
M  V30 152 H 13.3418 -0.349363 3.75579 0
M  V30 153 H 15.7288 -0.75794 2.852 0
M  V30 154 H 15.8098 0.944649 2.37718 0
M  V30 155 H 15.4538 1.61814 4.81434 0
M  V30 156 H 15.3838 -0.104013 5.26497 0
M  V30 157 H 17.8748 0.329288 3.76463 0
M  V30 158 H 18.1878 1.29409 7.61888 0
M  V30 159 H 16.5328 1.15695 6.85303 0
M  V30 160 H 19.7238 0.491752 4.6551 0
M  V30 161 H 19.8968 0.931482 6.4127 0
M  V30 162 N 13.3029 -1.57598 0.00835791 0
M  V30 163 C 14.5429 -1.92788 -0.679136 0
M  V30 164 C 14.9069 -0.883378 -1.70471 0
M  V30 165 O 16.1079 -1.12079 -2.44319 0
M  V30 166 C 14.3789 -3.32994 -1.29807 0
M  V30 167 S 15.9379 -3.90082 -2.00952 0
M  V30 168 H 12.7559 -0.67475 -0.224127 0
M  V30 169 H 15.3579 -1.95385 0.0670497 0
M  V30 170 H 14.0619 -4.06846 -0.538922 0
M  V30 171 H 13.5929 -3.33791 -2.082 0
M  V30 172 H 15.6079 -3.71834 -3.28563 0
M  V30 173 N 14.781 0.264519 -1.55364 0
M  V30 174 C 16.028 0.994986 -1.7637 0
M  V30 175 C 16.356 1.85976 -0.5695 0
M  V30 176 O 15.611 1.90509 0.44776 0
M  V30 177 C 15.91 1.9004 -3.02687 0
M  V30 178 C 15.576 1.19243 -4.34847 0
M  V30 179 C 14.238 0.996709 -4.70764 0
M  V30 180 C 16.59 0.689296 -5.16622 0
M  V30 181 C 13.918 0.285261 -5.86006 0
M  V30 182 C 16.27 -0.00860079 -6.32599 0
M  V30 183 C 14.934 -0.215963 -6.67151 0
M  V30 184 H 14.204 0.364091 -0.645383 0
M  V30 185 H 16.851 0.266543 -1.89636 0
M  V30 186 H 15.156 2.69533 -2.84357 0
M  V30 187 H 16.853 2.46695 -3.16137 0
M  V30 188 H 13.443 1.3549 -4.06621 0
M  V30 189 H 17.627 0.828108 -4.89342 0
M  V30 190 H 12.883 0.113961 -6.11294 0
M  V30 191 H 17.057 -0.406186 -6.95214 0
M  V30 192 H 14.684 -0.769217 -7.56298 0
M  V30 193 N 16.2591 1.48442 0.529413 0
M  V30 194 C 17.5061 1.56488 1.28521 0
M  V30 195 C 17.8341 0.239042 1.93025 0
M  V30 196 O 17.0891 -0.770713 1.79885 0
M  V30 197 C 17.3881 2.6523 2.39558 0
M  V30 198 C 17.0541 4.07648 1.92702 0
M  V30 199 C 15.7161 4.46411 1.79641 0
M  V30 200 C 18.0681 4.96896 1.573 0
M  V30 201 C 15.3961 5.72226 1.29514 0
M  V30 202 C 17.7481 6.23202 1.08636 0
M  V30 203 C 16.4121 6.60821 0.941919 0
M  V30 204 H 15.6821 0.572631 0.470292 0
M  V30 205 H 18.3291 1.82161 0.59072 0
M  V30 206 H 16.6341 2.33419 3.14679 0
M  V30 207 H 18.3311 2.68671 2.97686 0
M  V30 208 H 14.9211 3.77036 2.03819 0
M  V30 209 H 19.1051 4.67626 1.66251 0
M  V30 210 H 14.3611 6.00097 1.17019 0
M  V30 211 H 18.5351 6.91753 0.803136 0
M  V30 212 H 16.1621 7.58198 0.5513 0
M  V30 213 N 17.7372 -0.778329 1.37039 0
M  V30 214 C 19.0142 -1.52551 1.22424 0
M  V30 215 C 19.3942 -2.10288 -0.184964 0
M  V30 216 O 18.7422 -1.94953 -1.19187 0
M  V30 217 C 18.9522 -2.61164 2.31504 0
M  V30 218 C 20.3002 -3.28746 2.68721 0
M  V30 219 O 21.3242 -2.71455 2.30631 0
M  V30 220 O 20.1832 -4.3231 3.3432 0
M  V30 221 H 17.2772 -0.675343 0.477326 0
M  V30 222 H 19.8232 -0.815859 1.48801 0
M  V30 223 H 18.5952 -2.16574 3.25901 0
M  V30 224 H 18.2182 -3.39737 2.06554 0
M  V30 225 N 19.2153 -1.21501 -1.00376 0
M  V30 226 C 20.4643 -1.02718 -1.73586 0
M  V30 227 C 20.7773 0.439589 -1.90596 0
M  V30 228 O 21.9833 0.746848 -2.61026 0
M  V30 229 C 20.4393 -1.78929 -3.1227 0
M  V30 230 C 20.0473 -3.29783 -3.03228 0
M  V30 231 C 21.7913 -1.68557 -3.89601 0
M  V30 232 C 19.6983 -3.98479 -4.36999 0
M  V30 233 H 18.6283 -0.380733 -0.650814 0
M  V30 234 H 21.2793 -1.45248 -1.1214 0
M  V30 235 H 19.6613 -1.29192 -3.74333 0
M  V30 236 H 20.8353 -3.86832 -2.50395 0
M  V30 237 H 19.1503 -3.40711 -2.39385 0
M  V30 238 H 21.7473 -2.17211 -4.88593 0
M  V30 239 H 22.0903 -0.644021 -4.11288 0
M  V30 240 H 22.6233 -2.15778 -3.34193 0
M  V30 241 H 19.3623 -5.02841 -4.20513 0
M  V30 242 H 18.8823 -3.46219 -4.89788 0
M  V30 243 H 20.5613 -4.03462 -5.05794 0
M  V30 244 N 20.6934 1.19889 -1.02296 0
M  V30 245 C 21.6564 2.21116 -0.603351 0
M  V30 246 C 22.6564 1.5738 0.329884 0
M  V30 247 O 23.8464 1.73802 0.117702 0
M  V30 248 C 20.9784 3.40696 0.117992 0
M  V30 249 H 22.1714 2.59754 -1.49893 0
M  V30 250 H 19.7244 1.33463 -0.813468 0
M  V30 251 H 20.4594 3.07569 1.0282 0
M  V30 252 H 20.2444 3.88188 -0.552511 0
M  V30 253 H 21.7344 4.15692 0.398696 0
M  V30 254 N 22.1715 0.800033 1.35784 0
M  V30 255 C 23.4205 0.37387 1.98205 0
M  V30 256 C 23.7335 -1.06302 1.64193 0
M  V30 257 O 24.9395 -1.59198 2.19928 0
M  V30 258 C 23.3955 0.617532 3.54562 0
M  V30 259 C 23.0035 2.06654 3.9749 0
M  V30 260 C 24.7475 0.256401 4.23725 0
M  V30 261 C 22.6545 2.2563 5.46667 0
M  V30 262 H 21.5845 0.136055 0.741623 0
M  V30 263 H 24.2355 0.983166 1.54939 0
M  V30 264 H 22.6175 -0.0616248 3.95952 0
M  V30 265 H 23.7915 2.78296 3.67271 0
M  V30 266 H 22.1065 2.38691 3.41197 0
M  V30 267 H 24.7035 0.376318 5.33374 0
M  V30 268 H 25.0465 -0.796692 4.08606 0
M  V30 269 H 25.5795 0.889214 3.87734 0
M  V30 270 H 22.3185 3.2936 5.66747 0
M  V30 271 H 21.8385 1.58504 5.78478 0
M  V30 272 H 23.5175 2.06861 6.1304 0
M  V30 273 N 23.6496 -1.47581 0.552962 0
M  V30 274 C 24.5976 -2.31648 -0.21023 0
M  V30 275 C 25.5916 -1.42663 -0.913432 0
M  V30 276 O 26.7976 -1.5945 -0.835201 0
M  V30 277 H 23.1726 -0.746989 -0.0866676 0
M  V30 278 H 25.1436 -2.93869 0.518051 0
M  V30 279 C 23.8926 -3.25226 -1.22976 0
M  V30 280 H 23.2156 -3.93658 -0.698077 0
M  V30 281 H 24.6556 -3.86889 -1.73473 0
M  V30 282 C 23.1146 -2.48448 -2.27542 0
M  V30 283 O 23.6446 -2.22585 -3.34393 0
M  V30 284 N 21.8506 -2.09532 -2.01357 0
M  V30 285 H 21.3976 -2.30765 -1.14478 0
M  V30 286 H 21.3556 -1.58476 -2.71538 0
M  V30 287 N 25.1277 -0.289203 -1.54924 0
M  V30 288 C 26.0757 0.607966 -2.24514 0
M  V30 289 C 27.0697 1.14655 -1.24702 0
M  V30 290 O 28.2757 1.09856 -1.4259 0
M  V30 291 H 24.6507 0.21464 -0.720718 0
M  V30 292 H 26.6217 -0.00164182 -2.984 0
M  V30 293 C 25.3707 1.77406 -2.99036 0
M  V30 294 H 24.6937 1.36884 -3.75637 0
M  V30 295 H 26.1337 2.37814 -3.51028 0
M  V30 296 C 24.5927 2.67107 -2.05318 0
M  V30 297 O 25.1227 3.6787 -1.61353 0
M  V30 298 N 23.3287 2.34582 -1.71521 0
M  V30 299 H 22.8757 1.52688 -2.07471 0
M  V30 300 H 22.8337 2.94867 -1.0909 0
M  V30 301 N 26.6058 1.57591 -0.0167156 0
M  V30 302 C 27.5378 2.06343 0.997753 0
M  V30 303 C 28.5508 0.984469 1.29661 0
M  V30 304 O 29.7398 1.26093 1.26344 0
M  V30 305 C 26.8398 2.46255 2.32834 0
M  V30 306 C 26.0128 3.77083 2.21646 0
M  V30 307 C 25.0718 4.0368 3.37534 0
M  V30 308 O 24.0978 4.7411 3.14973 0
M  V30 309 N 25.2998 3.52881 4.60929 0
M  V30 310 H 28.0648 2.93997 0.581875 0
M  V30 311 H 25.6258 1.61002 0.170316 0
M  V30 312 H 27.6178 2.61149 3.09166 0
M  V30 313 H 26.1878 1.64032 2.66106 0
M  V30 314 H 25.4078 3.72106 1.30119 0
M  V30 315 H 26.6958 4.62822 2.11361 0
M  V30 316 H 26.0938 2.95878 4.82154 0
M  V30 317 H 24.6508 3.73076 5.34469 0
M  V30 318 N 28.0839 -0.256276 1.55502 0
M  V30 319 C 29.4949 -0.826068 1.67431 0
M  V30 320 C 29.8459 -1.86396 0.612446 0
M  V30 321 O 28.9709 -2.15031 -0.243025 0
M  V30 322 C 29.5659 -1.50512 3.03532 0
M  V30 323 C 28.1249 -2.02273 3.17431 0
M  V30 324 C 27.2719 -0.870548 2.63281 0
M  V30 325 H 30.2229 -0.0322728 1.58667 0
M  V30 326 H 30.2439 -2.37279 2.97454 0
M  V30 327 H 29.7559 -0.749484 3.80794 0
M  V30 328 H 27.8569 -2.80746 2.44974 0
M  V30 329 H 27.9699 -2.22655 4.24219 0
M  V30 330 H 26.3339 -1.26851 2.20864 0
M  V30 331 H 27.1169 -0.128149 3.43061 0
M  V30 332 N 29.562 -1.4872 -0.521534 0
M  V30 333 C 30.525 -1.63379 -1.60748 0
M  V30 334 C 31.525 -0.50661 -1.52611 0
M  V30 335 O 32.715 -0.772601 -1.5613 0
M  V30 336 C 29.847 -1.61192 -3.00383 0
M  V30 337 H 31.04 -2.60217 -1.49087 0
M  V30 338 H 28.593 -1.37444 -0.744235 0
M  V30 339 H 29.328 -0.65863 -3.17541 0
M  V30 340 H 29.113 -2.43032 -3.07698 0
M  V30 341 H 30.603 -1.7466 -3.7932 0
M  V30 342 N 31.0401 0.771051 -1.3745 0
M  V30 343 C 32.2881 1.52661 -1.32435 0
M  V30 344 C 32.6091 1.9479 0.0905024 0
M  V30 345 O 31.8791 1.66348 1.03466 0
M  V30 346 H 30.4591 0.566218 -0.487244 0
M  V30 347 H 33.1211 0.917636 -1.71946 0
M  V30 348 H 32.2171 2.42568 -1.96385 0
M  V30 349 N 32.5182 1.22032 0.997298 0
M  V30 350 C 33.9342 0.979326 1.26021 0
M  V30 351 C 34.1342 -0.32972 1.98784 0
M  V30 352 O 33.1902 -1.05345 2.29475 0
M  V30 353 C 34.5032 2.17509 2.07631 0
M  V30 354 C 36.0512 2.21817 2.2083 0
M  V30 355 C 36.5262 3.40933 3.05825 0
M  V30 356 N 38.0172 3.41067 3.13412 0
M  V30 357 C 38.7522 4.29885 3.79455 0
M  V30 358 N 38.2482 5.28914 4.47462 0
M  V30 359 N 40.0412 4.17673 3.76173 0
M  V30 360 H 32.1922 2.06202 0.509352 0
M  V30 361 H 34.4552 0.90334 0.287541 0
M  V30 362 H 34.1612 3.12415 1.61524 0
M  V30 363 H 34.0352 2.17206 3.08385 0
M  V30 364 H 36.4222 1.27462 2.66153 0
M  V30 365 H 36.5032 2.2616 1.1952 0
M  V30 366 H 36.1472 4.35586 2.61203 0
M  V30 367 H 36.0772 3.33829 4.07266 0
M  V30 368 H 38.5682 2.69406 2.65007 0
M  V30 369 H 38.8812 5.92973 4.95583 0
M  V30 370 H 37.2262 5.32831 4.46224 0
M  V30 371 H 40.4172 3.39564 3.22202 0
M  V30 372 H 40.5902 4.87098 4.27363 0
M  V30 373 N 33.9963 -1.19345 1.0293 0
M  V30 374 C 35.2423 -1.89318 0.727083 0
M  V30 375 C 35.5753 -1.79446 -0.742483 0
M  V30 376 O 34.8503 -1.1871 -1.54072 0
M  V30 377 C 35.1333 -3.40238 1.17942 0
M  V30 378 C 34.9863 -3.58979 2.71024 0
M  V30 379 C 36.3053 -4.33479 0.760548 0
M  V30 380 H 33.4243 -0.687475 0.265606 0
M  V30 381 H 36.0663 -1.40477 1.2793 0
M  V30 382 H 34.2163 -3.81964 0.709608 0
M  V30 383 H 35.8883 -3.26421 3.25955 0
M  V30 384 H 34.1313 -3.02018 3.11396 0
M  V30 385 H 34.8023 -4.64823 2.9773 0
M  V30 386 H 37.2783 -3.99469 1.16464 0
M  V30 387 H 36.1543 -5.37664 1.10493 0
M  V30 388 H 36.4153 -4.40813 -0.337063 0
M  V30 389 N 35.4744 -0.807222 -1.35358 0
M  V30 390 C 36.7204 -0.388463 -1.99045 0
M  V30 391 C 37.0534 1.04184 -1.63888 0
M  V30 392 O 36.3284 1.72292 -0.902535 0
M  V30 393 C 36.6114 -0.572783 -3.55515 0
M  V30 394 C 36.4644 -2.04807 -4.00468 0
M  V30 395 C 37.7834 0.00114064 -4.401 0
M  V30 396 H 34.9024 -0.142619 -0.723069 0
M  V30 397 H 37.5444 -1.01687 -1.60498 0
M  V30 398 H 35.6944 -0.0378425 -3.88482 0
M  V30 399 H 37.3664 -2.64544 -3.77908 0
M  V30 400 H 35.6094 -2.54427 -3.51353 0
M  V30 401 H 36.2804 -2.12792 -5.09337 0
M  V30 402 H 38.7564 -0.455716 -4.13597 0
M  V30 403 H 37.6324 -0.157737 -5.48673 0
M  V30 404 H 37.8934 1.09488 -4.28328 0
M  V30 405 N 36.9525 1.47285 -0.560781 0
M  V30 406 C 38.1995 2.02464 -0.038062 0
M  V30 407 C 38.5275 1.43474 1.31322 0
M  V30 408 O 37.7825 0.581311 1.86867 0
M  V30 409 C 38.0815 3.57258 0.100784 0
M  V30 410 C 37.7475 4.35184 -1.18007 0
M  V30 411 C 36.4095 4.56194 -1.53103 0
M  V30 412 C 38.7615 4.80098 -2.02867 0
M  V30 413 C 36.0895 5.19367 -2.729 0
M  V30 414 C 38.4415 5.44593 -3.21871 0
M  V30 415 C 37.1055 5.63835 -3.57276 0
M  V30 416 H 36.3755 0.740869 -0.0139279 0
M  V30 417 H 39.0225 1.76916 -0.733012 0
M  V30 418 H 37.3275 3.81819 0.878724 0
M  V30 419 H 39.0245 3.97606 0.520639 0
M  V30 420 H 35.6145 4.19113 -0.8968 0
M  V30 421 H 39.7985 4.63642 -1.7706 0
M  V30 422 H 35.0545 5.32459 -3.00496 0
M  V30 423 H 39.2285 5.78358 -3.87911 0
M  V30 424 H 36.8555 6.12557 -4.50197 0
M  V30 425 N 38.4306 0.297415 1.54768 0
M  V30 426 C 39.3406 -0.58983 2.27064 0
M  V30 427 C 40.3566 -1.15144 1.30453 0
M  V30 428 O 41.5326 -1.17699 1.63428 0
M  V30 429 C 38.5976 -1.74714 2.9946 0
M  V30 430 C 37.6586 -1.21997 4.11601 0
M  V30 431 C 36.8916 -2.32212 4.80535 0
M  V30 432 O 37.1146 -3.52036 4.48806 0
M  V30 433 O 36.0486 -1.99106 5.68014 0
M  V30 434 H 39.8746 -0.00348199 3.037 0
M  V30 435 H 37.4596 0.0640035 1.49263 0
M  V30 436 H 39.3416 -2.42147 3.44881 0
M  V30 437 H 38.0166 -2.32016 2.25722 0
M  V30 438 H 36.9236 -0.511458 3.70587 0
M  V30 439 H 38.2566 -0.692419 4.87305 0
M  V30 440 N 39.9087 -1.5758 0.0250728 0
M  V30 441 C 40.8387 -2.13007 -0.956575 0
M  V30 442 C 41.8197 -1.0452 -1.342 0
M  V30 443 O 43.0047 -1.32332 -1.42133 0
M  V30 444 C 40.1347 -2.65386 -2.24026 0
M  V30 445 C 39.0887 -3.78623 -1.99571 0
M  V30 446 C 38.4147 -4.17414 -3.3417 0
M  V30 447 C 39.7147 -5.04867 -1.33814 0
M  V30 448 H 41.4087 -2.9528 -0.494991 0
M  V30 449 H 38.9547 -1.42042 -0.236651 0
M  V30 450 H 40.9077 -3.02794 -2.93076 0
M  V30 451 H 39.6317 -1.80268 -2.72343 0
M  V30 452 H 38.2907 -3.41646 -1.32941 0
M  V30 453 H 37.9387 -3.29284 -3.80238 0
M  V30 454 H 37.6387 -4.93719 -3.18615 0
M  V30 455 H 39.1627 -4.57402 -4.04495 0
M  V30 456 H 40.5767 -5.39888 -1.92857 0
M  V30 457 H 38.9737 -5.86144 -1.28669 0
M  V30 458 H 40.0437 -4.83904 -0.310561 0
M  V30 459 N 41.3868 0.248026 -1.55636 0
M  V30 460 C 42.6338 0.976224 -1.77415 0
M  V30 461 C 42.9618 1.85361 -0.589193 0
M  V30 462 O 42.2168 1.90973 0.427529 0
M  V30 463 C 42.5158 1.86819 -3.04686 0
M  V30 464 C 42.1818 1.14625 -4.36087 0
M  V30 465 C 40.8438 0.946723 -4.71795 0
M  V30 466 C 43.1958 0.634463 -5.17324 0
M  V30 467 C 40.5238 0.223091 -5.86276 0
M  V30 468 C 42.8758 -0.0756959 -6.32555 0
M  V30 469 C 41.5398 -0.286711 -6.66884 0
M  V30 470 H 40.8098 0.357226 -0.649208 0
M  V30 471 H 43.4568 0.246415 -1.89908 0
M  V30 472 H 41.7618 2.66502 -2.872 0
M  V30 473 H 43.4588 2.43329 -3.18735 0
M  V30 474 H 40.0488 1.3117 -4.08035 0
M  V30 475 H 44.2328 0.77616 -4.90193 0
M  V30 476 H 39.4888 0.0491185 -6.1138 0
M  V30 477 H 43.6628 -0.479899 -6.94745 0
M  V30 478 H 41.2898 -0.849389 -7.5544 0
M  V30 479 N 42.8649 1.48995 0.513639 0
M  V30 480 C 44.0899 1.61792 1.29762 0
M  V30 481 C 44.5149 0.284475 1.85936 0
M  V30 482 O 43.8729 -0.746185 1.65232 0
M  V30 483 C 43.9209 2.67993 2.41272 0
M  V30 484 O 43.0249 2.26287 3.44772 0
M  V30 485 H 42.3659 0.541963 0.38363 0
M  V30 486 H 44.8959 1.95097 0.616307 0
M  V30 487 H 44.9059 2.89772 2.87221 0
M  V30 488 H 43.5809 3.64791 1.9975 0
M  V30 489 H 42.1579 2.14788 3.04829 0
M  V30 490 N 44.343 -0.763751 1.37857 0
M  V30 491 C 45.62 -1.51244 1.24035 0
M  V30 492 C 46 -2.10472 -0.162649 0
M  V30 493 O 45.348 -1.96206 -1.17112 0
M  V30 494 C 45.558 -2.58694 2.34261 0
M  V30 495 C 46.906 -3.25878 2.72193 0
M  V30 496 O 47.93 -2.68993 2.33497 0
M  V30 497 O 46.789 -4.2874 3.38887 0
M  V30 498 H 43.883 -0.670243 0.484462 0
M  V30 499 H 46.429 -0.800031 1.49658 0
M  V30 500 H 45.201 -2.13105 3.2818 0
M  V30 501 H 44.824 -3.37527 2.10146 0
M  V30 502 N 45.8211 -1.22559 -0.990812 0
M  V30 503 C 47.0671 -1.05297 -1.73322 0
M  V30 504 C 47.4001 0.410655 -1.89808 0
M  V30 505 O 46.6751 1.30439 -1.44277 0
M  V30 506 C 46.9581 -1.76713 -3.13759 0
M  V30 507 C 46.8111 -3.30684 -3.04907 0
M  V30 508 C 48.1301 -1.52121 -4.12974 0
M  V30 509 H 45.2491 -0.38392 -0.629106 0
M  V30 510 H 47.8911 -1.50926 -1.15418 0
M  V30 511 H 46.0411 -1.37924 -3.63193 0
M  V30 512 H 47.7131 -3.7893 -2.63077 0
M  V30 513 H 45.9561 -3.60253 -2.41661 0
M  V30 514 H 46.6271 -3.75833 -4.04294 0
M  V30 515 H 49.1031 -1.85819 -3.72304 0
M  V30 516 H 47.9791 -2.04582 -5.0935 0
M  V30 517 H 48.2401 -0.454257 -4.3976 0
M  V30 518 N 47.2992 1.18797 -1.03562 0
M  V30 519 C 48.5392 1.90346 -0.744832 0
M  V30 520 C 48.9032 1.78231 0.713972 0
M  V30 521 O 50.1042 2.44441 1.11813 0
M  V30 522 C 48.3752 3.36942 -1.19184 0
M  V30 523 S 49.9342 4.26638 -1.02593 0
M  V30 524 H 46.7522 0.657343 -0.270963 0
M  V30 525 H 49.3542 1.43579 -1.32685 0
M  V30 526 H 48.0582 3.43287 -2.24905 0
M  V30 527 H 47.5892 3.88745 -0.603397 0
M  V30 528 H 49.6042 4.96164 0.0596033 0
M  V30 529 N 48.7773 0.814389 1.34928 0
M  V30 530 C 50.1883 0.458364 1.80986 0
M  V30 531 C 50.5393 -1.02042 1.67577 0
M  V30 532 O 49.6643 -1.79352 1.21086 0
M  V30 533 C 50.2593 0.825212 3.28597 0
M  V30 534 C 48.8183 0.521677 3.72767 0
M  V30 535 C 47.9653 1.04668 2.56788 0
M  V30 536 H 50.9163 1.00533 1.22795 0
M  V30 537 H 50.9373 0.12571 3.80292 0
M  V30 538 H 50.4493 1.90154 3.38324 0
M  V30 539 H 48.5503 -0.545589 3.68584 0
M  V30 540 H 48.6633 1.05977 4.67232 0
M  V30 541 H 47.0273 0.468622 2.50352 0
M  V30 542 H 47.8103 2.12927 2.6929 0
M  V30 543 N 50.2554 -1.46986 0.568584 0
M  V30 544 C 51.2024 -2.30153 -0.172707 0
M  V30 545 C 52.1724 -1.39759 -0.897586 0
M  V30 546 O 53.3574 -1.68716 -0.891044 0
M  V30 547 C 50.4974 -3.23952 -1.1895 0
M  V30 548 C 49.6104 -4.29441 -0.469517 0
M  V30 549 C 48.7454 -5.1038 -1.47259 0
M  V30 550 C 47.7844 -6.07632 -0.738225 0
M  V30 551 N 46.9214 -6.8149 -1.68868 0
M  V30 552 H 51.7614 -2.93019 0.542596 0
M  V30 553 H 49.2984 -1.44422 0.279401 0
M  V30 554 H 51.2564 -3.76767 -1.79173 0
M  V30 555 H 49.8864 -2.62926 -1.87269 0
M  V30 556 H 48.9384 -3.79594 0.247467 0
M  V30 557 H 50.2504 -4.98689 0.105241 0
M  V30 558 H 49.4044 -5.67402 -2.14803 0
M  V30 559 H 48.1434 -4.4106 -2.08128 0
M  V30 560 H 47.1484 -5.49778 -0.0489293 0
M  V30 561 H 48.3734 -6.78966 -0.135129 0
M  V30 562 H 46.3194 -6.14891 -2.28573 0
M  V30 563 H 46.2364 -7.46948 -1.16636 0
M  V30 564 H 47.5044 -7.43078 -2.3549 0
M  V30 565 N 51.7335 -0.305618 -1.54608 0
M  V30 566 C 52.9615 0.304775 -2.04643 0
M  V30 567 C 53.3765 1.47167 -1.18268 0
M  V30 568 O 52.7335 1.81296 -0.209328 0
M  V30 569 C 52.7845 0.756564 -3.53495 0
M  V30 570 O 52.5055 -0.36389 -4.36586 0
M  V30 571 C 54.0065 1.43163 -4.19546 0
M  V30 572 H 51.2265 0.0655481 -0.667791 0
M  V30 573 H 53.7705 -0.446592 -1.99564 0
M  V30 574 H 51.9255 1.45794 -3.58919 0
M  V30 575 H 52.3395 -0.0113121 -5.24499 0
M  V30 576 H 53.8135 1.69886 -5.25207 0
M  V30 577 H 54.2905 2.37318 -3.69563 0
M  V30 578 H 54.8965 0.773307 -4.18211 0
M  V30 579 N 53.2116 1.57565 -0.0334293 0
M  V30 580 C 54.4516 1.93844 0.648379 0
M  V30 581 C 54.8156 0.910387 1.69044 0
M  V30 582 O 56.0166 1.15952 2.42505 0
M  V30 583 C 54.2876 3.35017 1.24492 0
M  V30 584 S 55.8466 3.93229 1.94721 0
M  V30 585 H 52.6646 0.678231 0.213364 0
M  V30 586 H 55.2666 1.95254 -0.0981253 0
M  V30 587 H 53.9706 4.07652 0.474128 0
M  V30 588 H 53.5016 3.37061 2.02864 0
M  V30 589 H 55.5166 3.77014 3.22606 0
M  V30 590 N 54.6897 -0.239769 1.55765 0
M  V30 591 C 55.5997 -1.31831 1.94056 0
M  V30 592 C 56.6157 -1.52275 0.841925 0
M  V30 593 O 57.7917 -1.65759 1.14394 0
M  V30 594 C 54.8567 -2.65156 2.23368 0
M  V30 595 C 53.9177 -2.53173 3.46701 0
M  V30 596 C 53.1507 -3.8014 3.74606 0
M  V30 597 O 53.3737 -4.82343 3.04469 0
M  V30 598 O 52.3077 -3.78344 4.68123 0
M  V30 599 H 56.1337 -1.02347 2.85935 0
M  V30 600 H 53.7187 -0.441123 1.42739 0
M  V30 601 H 55.6007 -3.43929 2.43497 0
M  V30 602 H 54.2757 -2.94358 1.34666 0
M  V30 603 H 53.1827 -1.72662 3.31871 0
M  V30 604 H 54.5157 -2.28915 4.35728 0
M  V30 605 N 56.1678 -1.49265 -0.50573 0
M  V30 606 C 57.1158 -1.66065 -1.62866 0
M  V30 607 C 58.1098 -0.526636 -1.61006 0
M  V30 608 O 59.3158 -0.706126 -1.65571 0
M  V30 609 H 55.6908 -0.52356 -0.539805 0
M  V30 610 H 57.6618 -2.60329 -1.45848 0
M  V30 611 C 56.4108 -1.74008 -3.01026 0
M  V30 612 H 55.7338 -2.6064 -3.03161 0
M  V30 613 H 57.1738 -1.89798 -3.79147 0
M  V30 614 C 55.6328 -0.483868 -3.33407 0
M  V30 615 O 56.1628 0.392548 -3.99777 0
M  V30 616 N 54.3688 -0.348236 -2.88506 0
M  V30 617 H 53.9158 -1.06242 -2.34671 0
M  V30 618 H 53.8738 0.491204 -3.10539 0
M  V30 619 N 57.6459 0.756429 -1.3826 0
M  V30 620 C 58.8929 1.51547 -1.34312 0
M  V30 621 C 59.2209 1.94382 0.0677144 0
M  V30 622 O 58.4759 1.65514 1.04421 0
M  V30 623 C 58.7749 2.78313 -2.24224 0
M  V30 624 C 58.4409 2.54455 -3.72241 0
M  V30 625 C 57.1029 2.47657 -4.12576 0
M  V30 626 C 59.4549 2.3354 -4.65949 0
M  V30 627 C 56.7829 2.17956 -5.44713 0
M  V30 628 C 59.1349 2.05359 -5.9834 0
M  V30 629 C 57.7989 1.97016 -6.37762 0
M  V30 630 H 57.0689 0.55455 -0.491482 0
M  V30 631 H 59.7159 0.870039 -1.70595 0
M  V30 632 H 58.0209 3.47492 -1.80987 0
M  V30 633 H 59.7179 3.36259 -2.18474 0
M  V30 634 H 56.3079 2.60616 -3.40261 0
M  V30 635 H 60.4919 2.37772 -4.35635 0
M  V30 636 H 55.7479 2.10003 -5.74203 0
M  V30 637 H 59.9219 1.88179 -6.70494 0
M  V30 638 H 57.5489 1.73766 -7.40074 0
M  V30 639 N 59.124 1.23083 0.984299 0
M  V30 640 C 60.54 0.992637 1.24975 0
M  V30 641 C 60.74 -0.308618 1.99123 0
M  V30 642 O 59.796 -1.02905 2.30579 0
M  V30 643 C 61.109 2.19698 2.05312 0
M  V30 644 C 62.657 2.24147 2.18465 0
M  V30 645 C 63.132 3.44157 3.02192 0
M  V30 646 N 64.623 3.44372 3.09777 0
M  V30 647 C 65.358 4.33886 3.74874 0
M  V30 648 N 64.854 5.3363 4.41827 0
M  V30 649 N 66.647 4.21639 3.71721 0
M  V30 650 H 58.798 2.06731 0.487453 0
M  V30 651 H 61.061 0.906339 0.277944 0
M  V30 652 H 60.767 3.1411 1.58201 0
M  V30 653 H 60.641 2.20465 3.06064 0
M  V30 654 H 63.028 1.30277 2.64786 0
M  V30 655 H 63.109 2.27415 1.17115 0
M  V30 656 H 62.753 4.38332 2.56568 0
M  V30 657 H 62.683 3.3813 4.03702 0
M  V30 658 H 65.174 2.72201 2.62135 0
M  V30 659 H 65.487 5.98196 4.89266 0
M  V30 660 H 63.832 5.37534 4.40548 0
M  V30 661 H 67.023 3.42962 3.18582 0
M  V30 662 H 67.196 4.91604 4.22173 0
M  V30 663 N 60.6021 -1.18246 1.0419 0
M  V30 664 C 61.8421 -1.89948 0.754916 0
M  V30 665 C 62.2061 -1.78608 -0.70451 0
M  V30 666 O 63.4071 -2.4503 -1.10516 0
M  V30 667 C 61.6781 -3.36305 1.20969 0
M  V30 668 S 63.2371 -4.26088 1.04854 0
M  V30 669 H 60.0551 -0.655897 0.274446 0
M  V30 670 H 62.6571 -1.42873 1.33445 0
M  V30 671 H 61.3611 -3.42089 2.26722 0
M  V30 672 H 60.8921 -3.8842 0.624004 0
M  V30 673 H 62.9071 -4.96189 -0.0332896 0
M  V30 674 N 62.0802 -0.821533 -1.34494 0
M  V30 675 C 63.0102 -0.257138 -2.3208 0
M  V30 676 C 63.9912 0.625645 -1.58176 0
M  V30 677 O 65.1762 0.552811 -1.86166 0
M  V30 678 C 62.3062 0.582958 -3.42372 0
M  V30 679 C 61.2602 -0.202571 -4.2752 0
M  V30 680 C 60.5862 0.760179 -5.29269 0
M  V30 681 C 61.8862 -1.40998 -5.02908 0
M  V30 682 H 63.5802 -1.07247 -2.79532 0
M  V30 683 H 61.1262 -0.517163 -1.34393 0
M  V30 684 H 63.0792 0.987972 -4.09655 0
M  V30 685 H 61.8032 1.43133 -2.93565 0
M  V30 686 H 60.4622 -0.588936 -3.61838 0
M  V30 687 H 60.1102 1.60447 -4.76724 0
M  V30 688 H 59.8102 0.238809 -5.87115 0
M  V30 689 H 61.3342 1.16308 -5.9942 0
M  V30 690 H 62.7482 -1.07905 -5.63054 0
M  V30 691 H 61.1452 -1.86689 -5.70322 0
M  V30 692 H 62.2152 -2.1889 -4.32684 0
M  V30 693 N 63.5583 1.46682 -0.576371 0
M  V30 694 C 64.7983 2.04306 -0.0621356 0
M  V30 695 C 65.1623 1.4389 1.2712 0
M  V30 696 O 66.3633 1.92675 1.87429 0
M  V30 697 C 64.6343 3.57399 0.00927922 0
M  V30 698 S 66.1933 4.36309 0.466859 0
M  V30 699 H 63.0113 0.710167 -0.0344016 0
M  V30 700 H 65.6133 1.79807 -0.767437 0
M  V30 701 H 64.3173 3.98889 -0.965178 0
M  V30 702 H 63.8483 3.86424 0.737547 0
M  V30 703 H 65.8633 4.6533 1.72287 0
M  V30 704 N 65.0364 0.313813 1.54444 0
M  V30 705 C 66.2644 -0.293918 2.04802 0
M  V30 706 C 66.6794 -1.46537 1.19047 0
M  V30 707 O 66.0364 -1.81182 0.218939 0
M  V30 708 C 66.0874 -0.737806 3.53891 0
M  V30 709 O 65.8084 0.387038 4.36387 0
M  V30 710 C 67.3094 -1.40936 4.203 0
M  V30 711 H 64.5294 -0.0620057 0.668129 0
M  V30 712 H 67.0734 0.457169 1.99324 0
M  V30 713 H 65.2284 -1.43889 3.59687 0
M  V30 714 H 65.6424 0.0391274 5.24485 0
M  V30 715 H 67.1164 -1.67099 5.26101 0
M  V30 716 H 67.5934 -2.35355 3.70816 0
M  V30 717 H 68.1994 -0.751117 4.18615 0
M  V30 718 N 66.5145 -1.57545 0.0417849 0
M  V30 719 C 67.7625 -1.91937 -0.632829 0
M  V30 720 C 68.0835 -0.919978 -1.71934 0
M  V30 721 O 67.3535 0.0366064 -1.95866 0
M  V30 722 H 65.9335 -0.708493 -0.236742 0
M  V30 723 H 68.5955 -1.9468 0.0925745 0
M  V30 724 H 67.6915 -2.92912 -1.07746 0
M  V30 725 N 67.9926 0.231505 -1.5589 0
M  V30 726 C 68.9026 1.308 -1.94752 0
M  V30 727 C 69.9186 1.51826 -0.849989 0
M  V30 728 O 71.0946 1.6515 -1.15271 0
M  V30 729 C 68.1596 2.63968 -2.24771 0
M  V30 730 C 67.2206 2.51331 -3.48039 0
M  V30 731 C 66.4536 3.78148 -3.76616 0
M  V30 732 O 66.6766 4.80722 -3.07022 0
M  V30 733 O 65.6106 3.75857 -4.70123 0
M  V30 734 H 69.4366 1.0083 -2.86474 0
M  V30 735 H 67.0216 0.433547 -1.42971 0
M  V30 736 H 68.9036 3.42633 -2.45318 0
M  V30 737 H 67.5786 2.9364 -1.36225 0
M  V30 738 H 66.4856 1.709 -3.32782 0
M  V30 739 H 67.8186 2.26601 -4.36936 0
M  V30 740 N 69.4707 1.49531 0.497807 0
M  V30 741 C 70.4177 1.66436 1.59899 0
M  V30 742 C 71.3877 0.505793 1.58212 0
M  V30 743 O 72.5727 0.733202 1.7615 0
M  V30 744 C 69.7127 1.7399 2.98029 0
M  V30 745 C 68.8257 3.01172 3.09708 0
M  V30 746 C 67.9607 2.99686 4.38591 0
M  V30 747 C 66.9997 4.21434 4.43914 0
M  V30 748 N 66.1367 4.1784 5.64229 0
M  V30 749 H 70.9767 2.60459 1.44793 0
M  V30 750 H 68.5137 1.29137 0.704423 0
M  V30 751 H 70.4717 1.76352 3.78095 0
M  V30 752 H 69.1017 0.834301 3.11832 0
M  V30 753 H 68.1537 3.08408 2.22685 0
M  V30 754 H 69.4657 3.91165 3.09502 0
M  V30 755 H 68.6197 3.00628 5.2698 0
M  V30 756 H 67.3587 2.07477 4.41367 0
M  V30 757 H 66.3637 4.20733 3.53926 0
M  V30 758 H 67.5887 5.14839 4.42851 0
M  V30 759 H 65.5347 3.28469 5.67841 0
M  V30 760 H 65.4517 5.01571 5.65652 0
M  V30 761 H 66.7197 4.22889 6.54817 0
M  V30 762 N 70.9488 -0.749086 1.3866 0
M  V30 763 C 72.1968 -1.50535 1.34847 0
M  V30 764 C 72.5178 -1.94909 -0.0595016 0
M  V30 765 O 71.7878 -1.67973 -1.00806 0
M  V30 766 H 70.3678 -0.558395 0.49619 0
M  V30 767 H 73.0298 -0.890165 1.73384 0
M  V30 768 H 72.1258 -2.39413 2.00219 0
M  V30 769 N 72.4269 -1.23603 -0.977757 0
M  V30 770 C 73.6549 -1.09646 -1.75458 0
M  V30 771 C 74.0699 0.351859 -1.85492 0
M  V30 772 O 73.4269 1.24327 -1.336 0
M  V30 773 C 73.4779 -1.71895 -3.18016 0
M  V30 774 O 73.1989 -3.11063 -3.08498 0
M  V30 775 C 74.6999 -1.63415 -4.12081 0
M  V30 776 H 71.9199 -0.38359 -0.550545 0
M  V30 777 H 74.4639 -1.63507 -1.22824 0
M  V30 778 H 72.6189 -1.22061 -3.67668 0
M  V30 779 H 73.0329 -3.41305 -3.9826 0
M  V30 780 H 74.5069 -2.11669 -5.09804 0
M  V30 781 H 74.9839 -0.593462 -4.35172 0
M  V30 782 H 75.5899 -2.12628 -3.68334 0
M  V30 783 N 73.905 1.17692 -1.04816 0
M  V30 784 C 75.153 1.87488 -0.754497 0
M  V30 785 C 75.474 1.81205 0.720407 0
M  V30 786 O 74.744 1.23544 1.52032 0
M  V30 787 H 73.324 0.694101 -0.276102 0
M  V30 788 H 75.986 1.42793 -1.32651 0
M  V30 789 H 75.082 2.93328 -1.06606 0
M  V30 790 N 75.3831 0.828654 1.34056 0
M  V30 791 C 76.3301 0.252567 2.29414 0
M  V30 792 C 77.3001 -0.62588 1.53857 0
M  V30 793 O 78.4851 -0.566312 1.82202 0
M  V30 794 C 75.6251 -0.574831 3.40279 0
M  V30 795 C 74.7381 0.326499 4.30764 0
M  V30 796 C 73.8731 -0.511016 5.28736 0
M  V30 797 C 72.9121 0.389342 6.1086 0
M  V30 798 N 72.0491 -0.409439 7.00905 0
M  V30 799 H 76.8891 1.07108 2.78086 0
M  V30 800 H 74.4261 0.539677 1.36843 0
M  V30 801 H 76.3841 -1.06992 4.03248 0
M  V30 802 H 75.0141 -1.35841 2.92826 0
M  V30 803 H 74.0661 0.939837 3.68607 0
M  V30 804 H 75.3781 1.01857 4.88289 0
M  V30 805 H 74.5321 -1.07035 5.97184 0
M  V30 806 H 73.2711 -1.23657 4.71763 0
M  V30 807 H 72.2761 0.960769 5.4134 0
M  V30 808 H 73.5011 1.1131 6.69916 0
M  V30 809 H 71.4471 -1.11856 6.46393 0
M  V30 810 H 71.3641 0.224126 7.55668 0
M  V30 811 H 72.6321 -0.951336 7.73673 0
M  V30 812 N 76.8612 -1.46375 0.584142 0
M  V30 813 C 78.0862 -2.07268 0.0740405 0
M  V30 814 C 78.5112 -1.42979 -1.22223 0
M  V30 815 O 77.8692 -0.514092 -1.73859 0
M  V30 816 C 77.9172 -3.60518 -0.0767769 0
M  V30 817 O 77.0212 -3.96533 -1.13292 0
M  V30 818 H 76.3622 -0.660961 0.0634524 0
M  V30 819 H 78.8922 -1.87991 0.807492 0
M  V30 820 H 78.9022 -4.07021 -0.282489 0
M  V30 821 H 77.5772 -4.06702 0.86986 0
M  V30 822 H 76.1542 -3.61738 -0.905553 0
M  V30 823 N 78.3393 -0.321999 -1.54275 0
M  V30 824 C 79.5673 0.283052 -2.04955 0
M  V30 825 C 79.9823 1.45904 -1.19823 0
M  V30 826 O 79.3393 1.81063 -0.228545 0
M  V30 827 C 79.3903 0.719028 -3.54277 0
M  V30 828 O 79.1113 -0.410175 -4.36176 0
M  V30 829 C 80.6123 1.38705 -4.21041 0
M  V30 830 H 77.8323 0.0584616 -0.668448 0
M  V30 831 H 80.3763 -0.467734 -1.99079 0
M  V30 832 H 78.5313 1.41979 -3.60445 0
M  V30 833 H 78.9453 -0.0669416 -5.24457 0
M  V30 834 H 80.4193 1.64306 -5.2698 0
M  V30 835 H 80.8963 2.33385 -3.72059 0
M  V30 836 H 81.5023 0.728906 -4.19007 0
M  V30 837 N 79.8174 1.5752 -0.0501392 0
M  V30 838 C 80.7494 2.08413 0.95376 0
M  V30 839 C 81.7624 1.01175 1.27544 0
M  V30 840 O 82.9514 1.28744 1.23641 0
M  V30 841 C 80.0514 2.51138 2.27559 0
M  V30 842 C 79.2244 3.817 2.13598 0
M  V30 843 C 78.2834 4.10749 3.28895 0
M  V30 844 O 77.3094 4.80685 3.04845 0
M  V30 845 N 78.5114 3.62579 4.5334 0
M  V30 846 H 81.2764 2.95165 0.519383 0
M  V30 847 H 78.8374 1.61327 0.136127 0
M  V30 848 H 80.8294 2.67648 3.03557 0
M  V30 849 H 79.3994 1.6964 2.62567 0
M  V30 850 H 78.6194 3.74782 1.22197 0
M  V30 851 H 79.9074 4.67201 2.01496 0
M  V30 852 H 79.3054 3.06039 4.75769 0
M  V30 853 H 77.8624 3.84329 5.26436 0
M  V30 854 N 81.2955 -0.223234 1.56011 0
M  V30 855 C 82.2425 -1.27664 1.92277 0
M  V30 856 C 83.2125 -1.46659 0.779763 0
M  V30 857 O 84.3975 -1.60256 1.03551 0
M  V30 858 C 81.5375 -2.62234 2.24338 0
M  V30 859 C 80.6505 -2.51051 3.51564 0
M  V30 860 C 79.7855 -3.78133 3.7308 0
M  V30 861 C 78.8245 -3.61665 4.93827 0
M  V30 862 N 77.9615 -4.80693 5.11741 0
M  V30 863 H 82.8015 -0.960358 2.82101 0
M  V30 864 H 80.3385 -0.462901 1.39627 0
M  V30 865 H 82.2965 -3.40596 2.40936 0
M  V30 866 H 80.9265 -2.91961 1.3769 0
M  V30 867 H 79.9785 -1.64132 3.43169 0
M  V30 868 H 81.2905 -2.34803 4.40079 0
M  V30 869 H 80.4445 -4.64938 3.89766 0
M  V30 870 H 79.1835 -3.97304 2.82844 0
M  V30 871 H 78.1885 -2.73244 4.77093 0
M  V30 872 H 79.4135 -3.43966 5.85546 0
M  V30 873 H 77.3595 -5.00181 4.24446 0
M  V30 874 H 77.2765 -4.67165 5.94384 0
M  V30 875 H 78.5445 -5.6893 5.3286 0
M  V30 876 N 82.7736 -1.49793 -0.48987 0
M  V30 877 C 84.1846 -1.52914 -1.07118 0
M  V30 878 C 84.5356 -0.321738 -1.93544 0
M  V30 879 O 83.6606 0.567338 -2.08831 0
M  V30 880 C 84.2556 -2.771 -1.94938 0
M  V30 881 C 82.8146 -2.82963 -2.48212 0
M  V30 882 C 81.9616 -2.46972 -1.26096 0
M  V30 883 H 84.9126 -1.56329 -0.273289 0
M  V30 884 H 84.9336 -2.57892 -2.79771 0
M  V30 885 H 84.4456 -3.64959 -1.32009 0
M  V30 886 H 82.5466 -1.99411 -3.14748 0
M  V30 887 H 82.6596 -3.85406 -2.84603 0
M  V30 888 H 81.0236 -1.98994 -1.58976 0
M  V30 889 H 81.8066 -3.37118 -0.648581 0
M  V30 890 N 84.2517 0.741722 -1.39055 0
M  V30 891 C 85.1817 1.869 -1.39966 0
M  V30 892 C 86.1627 1.6804 -0.26392 0
M  V30 893 O 87.3477 1.88458 -0.468755 0
M  V30 894 C 84.4777 3.24572 -1.23574 0
M  V30 895 C 83.4317 3.58056 -2.34477 0
M  V30 896 C 82.7577 4.94593 -2.0318 0
M  V30 897 C 84.0577 3.61716 -3.76774 0
M  V30 898 H 85.7517 1.86395 -2.34302 0
M  V30 899 H 83.2977 0.895361 -1.1278 0
M  V30 900 H 85.2507 4.031 -1.22834 0
M  V30 901 H 83.9747 3.25587 -0.257045 0
M  V30 902 H 82.6337 2.81854 -2.34423 0
M  V30 903 H 82.2817 4.92181 -1.03765 0
M  V30 904 H 81.9817 5.17964 -2.77465 0
M  V30 905 H 83.5057 5.75486 -2.04079 0
M  V30 906 H 84.9197 4.30335 -3.78794 0
M  V30 907 H 83.3167 3.96603 -4.50362 0
M  V30 908 H 84.3867 2.61672 -4.08235 0
M  V30 909 N 85.7298 1.2412 0.971189 0
M  V30 910 C 86.6798 0.997551 2.05019 0
M  V30 911 C 87.6638 -0.0597747 1.60789 0
M  V30 912 O 88.8558 0.153516 1.76333 0
M  V30 913 C 85.9848 0.600557 3.38006 0
M  V30 914 C 85.0708 1.69377 3.88809 0
M  V30 915 N 85.4618 2.92586 4.12586 0
M  V30 916 C 83.7598 1.57048 4.17435 0
M  V30 917 C 84.4608 3.63431 4.54195 0
M  V30 918 N 83.4368 2.90979 4.59165 0
M  V30 919 H 87.2388 1.93316 2.21374 0
M  V30 920 H 84.7528 1.14194 1.1547 0
M  V30 921 H 86.7498 0.40725 4.14906 0
M  V30 922 H 85.4098 -0.327903 3.2304 0
M  V30 923 H 86.4208 3.288 4.00139 0
M  V30 924 H 83.0978 0.709798 4.11422 0
M  V30 925 H 84.4878 4.69102 4.81033 0
M  V30 926 N 87.2079 -1.17134 1.05439 0
M  V30 927 C 88.4379 -1.91094 0.785274 0
M  V30 928 C 88.8459 -1.77198 -0.663142 0
M  V30 929 O 88.1889 -1.10835 -1.46497 0
M  V30 930 C 88.2509 -3.42594 1.08949 0
M  V30 931 C 87.9149 -3.80274 2.53458 0
M  V30 932 C 88.9119 -3.82912 3.51673 0
M  V30 933 C 86.5969 -4.11162 2.88532 0
M  V30 934 C 88.5909 -4.15913 4.83006 0
M  V30 935 C 86.2779 -4.43831 4.20068 0
M  V30 936 C 87.2759 -4.46185 5.17115 0
M  V30 937 O 86.9639 -4.78083 6.46291 0
M  V30 938 H 86.6959 -0.613073 0.284811 0
M  V30 939 H 89.2499 -1.49461 1.40893 0
M  V30 940 H 87.4799 -3.84534 0.408741 0
M  V30 941 H 89.1689 -3.97817 0.805991 0
M  V30 942 H 89.9349 -3.5917 3.25917 0
M  V30 943 H 85.8139 -4.085 2.13656 0
M  V30 944 H 89.3579 -4.17665 5.5875 0
M  V30 945 H 85.2549 -4.67037 4.45586 0
M  V30 946 H 86.0229 -4.9593 6.51149 0
M  V30 947 N 88.686 -0.835752 -1.33615 0
M  V30 948 C 89.633 -0.26473 -2.29277 0
M  V30 949 C 90.603 0.617712 -1.54187 0
M  V30 950 O 91.788 0.556641 -1.825 0
M  V30 951 C 88.928 0.556777 -3.40579 0
M  V30 952 C 88.041 -0.349339 -4.30585 0
M  V30 953 C 87.176 0.482969 -5.29 0
M  V30 954 C 86.215 -0.421732 -6.10645 0
M  V30 955 N 85.352 0.372262 -7.01112 0
M  V30 956 H 90.192 -1.08582 -2.77514 0
M  V30 957 H 87.729 -0.546927 -1.36554 0
M  V30 958 H 89.687 1.04852 -4.03809 0
M  V30 959 H 88.317 1.34286 -2.93542 0
M  V30 960 H 87.369 -0.959372 -3.68104 0
M  V30 961 H 88.681 -1.04445 -4.87742 0
M  V30 962 H 87.835 1.03866 -5.97743 0
M  V30 963 H 86.574 1.21153 -4.72412 0
M  V30 964 H 85.579 -0.989464 -5.40823 0
M  V30 965 H 86.804 -1.14861 -6.69316 0
M  V30 966 H 84.75 1.08426 -6.46977 0
M  V30 967 H 84.667 -0.264198 -7.55538 0
M  V30 968 H 85.935 0.910293 -7.74167 0
M  V30 969 N 90.1641 1.46063 -0.591896 0
M  V30 970 C 91.3891 2.07226 -0.0850314 0
M  V30 971 C 91.8141 1.43625 1.21463 0
M  V30 972 O 91.1721 0.523305 1.73583 0
M  V30 973 C 91.2201 3.60554 0.0576567 0
M  V30 974 O 90.3241 3.97128 1.11188 0
M  V30 975 H 89.6651 0.660615 -0.0669568 0
M  V30 976 H 92.1951 1.8756 -0.81745 0
M  V30 977 H 92.2051 4.07165 0.2609 0
M  V30 978 H 90.8801 4.06235 -0.891416 0
M  V30 979 H 89.4571 3.62213 0.886356 0
M  V30 980 N 91.6422 0.330177 1.54103 0
M  V30 981 C 92.8822 -0.270916 2.02597 0
M  V30 982 C 93.2462 -1.48826 1.21304 0
M  V30 983 O 94.4472 -2.16266 1.59633 0
M  V30 984 C 92.7182 -0.590328 3.52491 0
M  V30 985 S 94.2772 -1.17014 4.2291 0
M  V30 986 H 91.0952 -0.0815379 0.706309 0
M  V30 987 H 93.6972 0.464835 1.89893 0
M  V30 988 H 92.4012 0.303691 4.09275 0
M  V30 989 H 91.9322 -1.3561 3.69288 0
M  V30 990 H 93.9472 -2.45662 4.3112 0
M  V30 991 N 93.1203 -1.57491 0.0584922 0
M  V30 992 C 94.0503 -2.14988 -0.911178 0
M  V30 993 C 95.0313 -1.07343 -1.31952 0
M  V30 994 O 96.2163 -1.35318 -1.39294 0
M  V30 995 C 93.3463 -2.70078 -2.18347 0
M  V30 996 C 92.3003 -3.82771 -1.91495 0
M  V30 997 C 91.6263 -4.24408 -3.25241 0
M  V30 998 C 92.9263 -5.07592 -1.23075 0
M  V30 999 H 94.6203 -2.96263 -0.432246 0
M  V30 1000 H 92.1663 -1.42512 -0.206469 0
M  V30 1001 H 94.1193 -3.08943 -2.86587 0
M  V30 1002 H 92.8433 -1.86005 -2.68458 0
M  V30 1003 H 91.5023 -3.44389 -1.25664 0
M  V30 1004 H 91.1503 -3.37275 -3.73168 0
M  V30 1005 H 90.8503 -5.00366 -3.08071 0
M  V30 1006 H 92.3743 -4.65879 -3.94701 0
M  V30 1007 H 93.7883 -5.43857 -1.81362 0
M  V30 1008 H 92.1853 -5.88741 -1.16207 0
M  V30 1009 H 93.2553 -4.84454 -0.207847 0
M  V30 1010 N 94.5984 0.214957 -1.56127 0
M  V30 1011 C 95.8454 0.938372 -1.79446 0
M  V30 1012 C 96.1734 1.8407 -0.628378 0
M  V30 1013 O 95.4284 1.91837 0.386925 0
M  V30 1014 C 95.7274 1.80314 -3.0858 0
M  V30 1015 C 95.3934 1.05349 -4.3842 0
M  V30 1016 C 94.0554 0.846435 -4.73697 0
M  V30 1017 C 96.4074 0.524588 -5.18553 0
M  V30 1018 C 93.7354 0.098683 -5.86617 0
M  V30 1019 C 96.0874 -0.209853 -6.32252 0
M  V30 1020 C 94.7514 -0.428102 -6.66126 0
M  V30 1021 H 94.0214 0.343375 -0.656639 0
M  V30 1022 H 96.6684 0.206077 -1.90388 0
M  V30 1023 H 94.9734 2.6035 -2.92789 0
M  V30 1024 H 96.6704 2.36513 -3.23825 0
M  V30 1025 H 93.2604 1.22486 -4.10725 0
M  V30 1026 H 97.4444 0.672008 -4.91729 0
M  V30 1027 H 92.7004 -0.0805753 -6.11347 0
M  V30 1028 H 96.8744 -0.627157 -6.9357 0
M  V30 1029 H 94.5014 -1.00944 -7.53468 0
M  V30 1030 N 96.0765 1.50051 0.48192 0
M  V30 1031 C 97.0265 1.64512 1.5786 0
M  V30 1032 C 98.0105 0.500073 1.52932 0
M  V30 1033 O 99.2025 0.753964 1.60139 0
M  V30 1034 C 96.3315 1.73263 2.9637 0
M  V30 1035 C 95.4175 2.93409 3.06222 0
M  V30 1036 N 95.8085 4.17236 2.85915 0
M  V30 1037 C 94.1065 2.91742 3.37346 0
M  V30 1038 C 94.8075 4.981 3.00451 0
M  V30 1039 N 93.7835 4.3184 3.30174 0
M  V30 1040 H 97.5855 2.57955 1.40842 0
M  V30 1041 H 95.0995 1.47086 0.688439 0
M  V30 1042 H 97.0965 1.81724 3.75209 0
M  V30 1043 H 95.7565 0.809711 3.14442 0
M  V30 1044 H 96.7675 4.46909 2.6171 0
M  V30 1045 H 93.4445 2.08907 3.61475 0
M  V30 1046 H 94.8345 6.06532 2.89082 0
M  V30 1047 N 97.5546 -0.734337 1.39446 0
M  V30 1048 C 98.9706 -1.03997 1.21065 0
M  V30 1049 C 99.1706 -2.01369 0.0727019 0
M  V30 1050 O 98.2266 -2.45856 -0.575426 0
M  V30 1051 C 99.5396 -1.60163 2.54496 0
M  V30 1052 C 101.088 -1.7224 2.61347 0
M  V30 1053 C 101.563 -2.31814 3.95002 0
M  V30 1054 N 103.054 -2.39223 3.96644 0
M  V30 1055 C 103.789 -2.86258 4.96834 0
M  V30 1056 N 103.285 -3.33184 6.07421 0
M  V30 1057 N 105.078 -2.85473 4.84213 0
M  V30 1058 H 97.2286 -0.0885624 2.12215 0
M  V30 1059 H 99.4916 -0.10191 0.942506 0
M  V30 1060 H 99.1976 -0.960811 3.38321 0
M  V30 1061 H 99.0716 -2.5896 2.74262 0
M  V30 1062 H 101.459 -2.35443 1.77906 0
M  V30 1063 H 101.54 -0.720939 2.4543 0
M  V30 1064 H 101.184 -1.69238 4.78875 0
M  V30 1065 H 101.114 -3.32638 4.08239 0
M  V30 1066 H 103.605 -2.06057 3.16779 0
M  V30 1067 H 103.918 -3.67586 6.7978 0
M  V30 1068 H 102.263 -3.31191 6.11013 0
M  V30 1069 H 105.454 -2.48136 3.96921 0
M  V30 1070 H 105.627 -3.21814 5.62441 0
M  V30 1071 N 99.0327 -1.24633 -0.964593 0
M  V30 1072 C 100.279 -1.08949 -1.71049 0
M  V30 1073 C 100.612 0.370302 -1.90637 0
M  V30 1074 O 99.8867 1.27349 -1.47011 0
M  V30 1075 C 100.17 -1.83329 -3.0994 0
M  V30 1076 C 100.023 -3.37077 -2.97824 0
M  V30 1077 C 101.342 -1.60846 -4.09654 0
M  V30 1078 H 98.4607 -0.397178 -0.620821 0
M  V30 1079 H 101.103 -1.5334 -1.12191 0
M  V30 1080 H 99.2527 -1.45597 -3.60186 0
M  V30 1081 H 100.925 -3.84425 -2.5498 0
M  V30 1082 H 99.1677 -3.65298 -2.33965 0
M  V30 1083 H 99.8387 -3.84324 -3.96231 0
M  V30 1084 H 102.315 -1.93674 -3.68279 0
M  V30 1085 H 101.191 -2.1534 -5.04896 0
M  V30 1086 H 101.452 -0.547434 -4.38698 0
M  V30 1087 N 100.511 1.16574 -1.06058 0
M  V30 1088 C 101.757 1.87324 -0.777022 0
M  V30 1089 C 102.09 1.81351 0.694645 0
M  V30 1090 O 101.365 1.22753 1.50871 0
M  V30 1091 C 101.648 3.36991 -1.26922 0
M  V30 1092 C 101.501 3.51667 -2.80447 0
M  V30 1093 C 102.82 4.3131 -0.87521 0
M  V30 1094 H 99.9388 0.680191 -0.28374 0
M  V30 1095 H 102.581 1.37036 -1.3161 0
M  V30 1096 H 100.731 3.79949 -0.81063 0
M  V30 1097 H 102.403 3.17664 -3.34495 0
M  V30 1098 H 100.646 2.93656 -3.19294 0
M  V30 1099 H 101.317 4.56766 -3.0995 0
M  V30 1100 H 103.793 3.9624 -1.27014 0
M  V30 1101 H 102.669 5.34545 -1.2471 0
M  V30 1102 H 102.93 4.41552 0.220071 0
M  V30 1103 N 101.989 0.842826 1.3317 0
M  V30 1104 C 102.936 0.276885 2.29133 0
M  V30 1105 C 103.906 -0.609527 1.54512 0
M  V30 1106 O 105.091 -0.546955 1.82792 0
M  V30 1107 C 102.231 -0.538707 3.40869 0
M  V30 1108 C 101.344 0.372169 4.30394 0
M  V30 1109 C 100.479 -0.454908 5.29249 0
M  V30 1110 C 99.5179 0.45411 6.10413 0
M  V30 1111 N 98.6549 -0.335075 7.013 0
M  V30 1112 H 103.495 1.10052 2.76934 0
M  V30 1113 H 101.032 0.554161 1.36262 0
M  V30 1114 H 102.99 -1.02709 4.0436 0
M  V30 1115 H 101.62 -1.32727 2.9425 0
M  V30 1116 H 100.672 0.97888 3.6759 0
M  V30 1117 H 101.984 1.0703 4.87182 0
M  V30 1118 H 101.138 -1.00695 5.98285 0
M  V30 1119 H 99.8769 -1.18646 4.73048 0
M  V30 1120 H 98.8819 1.01813 5.40291 0
M  V30 1121 H 100.107 1.18409 6.68697 0
M  V30 1122 H 98.0529 -1.04994 6.47543 0
M  V30 1123 H 97.9699 0.304262 7.55387 0
M  V30 1124 H 99.2379 -0.869224 7.74638 0
M  V30 1125 N 103.467 -1.45747 0.599634 0
M  V30 1126 C 104.744 -1.95585 0.0240846 0
M  V30 1127 C 105.124 -1.54217 -1.44154 0
M  V30 1128 O 104.472 -0.800903 -2.14004 0
M  V30 1129 C 104.682 -3.48344 0.21385 0
M  V30 1130 C 106.03 -4.24504 0.0904902 0
M  V30 1131 O 107.054 -3.55911 0.143558 0
M  V30 1132 O 105.913 -5.46491 -0.0310766 0
M  V30 1133 H 103.007 -0.82602 -0.0402478 0
M  V30 1134 H 105.553 -1.55951 0.669139 0
M  V30 1135 H 104.325 -3.71397 1.23206 0
M  V30 1136 H 103.948 -3.9485 -0.466842 0
M  V30 1137 N 104.945 -0.338344 -1.53925 0
M  V30 1138 C 106.192 0.259758 -2.00827 0
M  V30 1139 C 106.52 1.50973 -1.22628 0
M  V30 1140 O 105.775 1.93379 -0.300509 0
M  V30 1141 C 106.074 0.62448 -3.51902 0
M  V30 1142 C 105.74 -0.528006 -4.47798 0
M  V30 1143 C 104.402 -0.844298 -4.73735 0
M  V30 1144 C 106.754 -1.30143 -5.0469 0
M  V30 1145 C 104.082 -1.93648 -5.53821 0
M  V30 1146 C 106.434 -2.38382 -5.85967 0
M  V30 1147 C 105.098 -2.70576 -6.10201 0
M  V30 1148 H 104.368 0.0950523 -0.734878 0
M  V30 1149 H 107.015 -0.465182 -1.85764 0
M  V30 1150 H 105.32 1.43006 -3.64769 0
M  V30 1151 H 107.017 1.09905 -3.85645 0
M  V30 1152 H 103.607 -0.271421 -4.2774 0
M  V30 1153 H 107.791 -1.07033 -4.84621 0
M  V30 1154 H 103.047 -2.19021 -5.70824 0
M  V30 1155 H 107.221 -2.98746 -6.29066 0
M  V30 1156 H 104.848 -3.55333 -6.72044 0
M  V30 1157 N 106.423 1.57458 -0.0668435 0
M  V30 1158 C 107.356 2.08033 0.93795 0
M  V30 1159 C 108.334 0.984321 1.29421 0
M  V30 1160 O 109.518 1.25736 1.40437 0
M  V30 1161 C 106.645 2.53388 2.24749 0
M  V30 1162 C 105.691 3.74376 2.04315 0
M  V30 1163 S 106.524 5.19303 1.30706 0
M  V30 1164 C 107.68 5.67986 2.62951 0
M  V30 1165 H 107.913 2.92935 0.50759 0
M  V30 1166 H 105.446 1.5371 0.145804 0
M  V30 1167 H 107.404 2.8018 3.00016 0
M  V30 1168 H 106.065 1.68763 2.64911 0
M  V30 1169 H 105.258 4.04083 3.01218 0
M  V30 1170 H 104.86 3.47931 1.37186 0
M  V30 1171 H 107.152 5.74528 3.5906 0
M  V30 1172 H 108.095 6.66955 2.3786 0
M  V30 1173 H 108.503 4.95781 2.69929 0
M  V30 1174 N 107.901 -0.206675 1.56239 0
M  V30 1175 C 109.147 -0.930218 1.80208 0
M  V30 1176 C 109.48 -1.83387 0.638981 0
M  V30 1177 O 108.755 -1.91119 -0.361066 0
M  V30 1178 C 109.038 -1.75641 3.1436 0
M  V30 1179 C 108.891 -0.878257 4.41142 0
M  V30 1180 C 110.21 -2.73129 3.45092 0
M  V30 1181 H 107.329 -0.336742 0.655571 0
M  V30 1182 H 109.971 -0.198222 1.88963 0
M  V30 1183 H 108.121 -2.38048 3.07027 0
M  V30 1184 H 109.793 -0.269787 4.6051 0
M  V30 1185 H 108.036 -0.184385 4.33408 0
M  V30 1186 H 108.707 -1.49106 5.3148 0
M  V30 1187 H 111.183 -2.20856 3.52649 0
M  V30 1188 H 110.059 -3.28028 4.40101 0
M  V30 1189 H 110.32 -3.51606 2.68003 0
M  V30 1190 N 109.379 -1.50304 -0.473955 0
M  V30 1191 C 110.311 -1.65109 -1.58971 0
M  V30 1192 C 111.324 -0.532676 -1.53839 0
M  V30 1193 O 112.513 -0.805751 -1.59279 0
M  V30 1194 C 109.613 -1.61684 -2.97845 0
M  V30 1195 C 108.786 -2.8951 -3.27876 0
M  V30 1196 C 107.845 -2.78768 -4.4629 0
M  V30 1197 O 106.871 -3.52722 -4.46739 0
M  V30 1198 N 108.073 -1.9213 -5.47783 0
M  V30 1199 H 110.838 -2.61347 -1.46689 0
M  V30 1200 H 108.399 -1.47732 -0.662324 0
M  V30 1201 H 110.391 -1.52114 -3.75024 0
M  V30 1202 H 108.961 -0.731925 -3.03911 0
M  V30 1203 H 108.181 -3.13228 -2.39336 0
M  V30 1204 H 109.469 -3.74199 -3.4475 0
M  V30 1205 H 108.867 -1.31353 -5.50239 0
M  V30 1206 H 107.424 -1.88466 -6.23958 0
M  V30 1207 N 110.857 0.726932 -1.39834 0
M  V30 1208 C 112.105 1.4837 -1.37225 0
M  V30 1209 C 112.426 1.94979 0.0284857 0
M  V30 1210 O 111.696 1.69555 0.981213 0
M  V30 1211 H 110.276 0.55043 -0.505011 0
M  V30 1212 H 112.938 0.862468 -1.74778 0
M  V30 1213 H 112.034 2.36198 -2.04003 0
M  V30 1214 N 112.336 1.25143 0.95797 0
M  V30 1215 C 113.584 1.09476 1.69881 0
M  V30 1216 C 113.905 -0.365502 1.91544 0
M  V30 1217 O 113.175 -1.25985 1.50015 0
M  V30 1218 H 111.755 0.402128 0.629525 0
M  V30 1219 H 114.417 1.57214 1.15194 0
M  V30 1220 H 113.513 1.60046 2.6794 0
M  V30 1221 N 113.814 -1.1601 1.06675 0
M  V30 1222 C 115.091 -1.82679 0.699114 0
M  V30 1223 C 115.471 -1.94559 -0.819137 0
M  V30 1224 O 114.819 -1.49169 -1.73092 0
M  V30 1225 C 115.029 -3.19445 1.40555 0
M  V30 1226 C 116.377 -3.95171 1.55323 0
M  V30 1227 O 117.401 -3.28976 1.36577 0
M  V30 1228 O 116.26 -5.13833 1.86112 0
M  V30 1229 H 113.354 -0.788954 0.247951 0
M  V30 1230 H 115.9 -1.23179 1.16726 0
M  V30 1231 H 114.672 -3.05856 2.44065 0
M  V30 1232 H 114.295 -3.86625 0.927733 0
M  V30 1233 N 115.292 -0.849877 -1.32721 0
M  V30 1234 C 116.539 -0.450923 -1.97416 0
M  V30 1235 C 116.867 0.992376 -1.67279 0
M  V30 1236 O 116.122 1.71048 -0.950845 0
M  V30 1237 C 116.421 -0.631272 -3.51781 0
M  V30 1238 C 116.087 -2.04432 -4.01894 0
M  V30 1239 C 114.749 -2.4308 -4.1529 0
M  V30 1240 C 117.101 -2.96679 -4.28522 0
M  V30 1241 C 114.429 -3.73257 -4.52654 0
M  V30 1242 C 116.781 -4.26349 -4.67343 0
M  V30 1243 C 115.445 -4.64939 -4.78945 0
M  V30 1244 H 114.715 -0.165004 -0.722395 0
M  V30 1245 H 117.362 -1.07901 -1.58207 0
M  V30 1246 H 115.667 0.0800767 -3.91718 0
M  V30 1247 H 117.364 -0.302709 -3.99856 0
M  V30 1248 H 113.954 -1.73419 -3.91949 0
M  V30 1249 H 118.138 -2.68054 -4.17685 0
M  V30 1250 H 113.394 -4.02946 -4.59831 0
M  V30 1251 H 117.568 -4.97895 -4.86902 0
M  V30 1252 H 115.195 -5.65855 -5.07654 0
M  V30 1253 N 116.77 1.45427 -0.607355 0
M  V30 1254 C 117.995 2.07124 -0.107006 0
M  V30 1255 C 118.42 1.44906 1.19933 0
M  V30 1256 O 117.778 0.541687 1.73019 0
M  V30 1257 C 117.826 3.60595 0.0194119 0
M  V30 1258 O 116.93 3.98285 1.0697 0
M  V30 1259 H 116.271 0.659868 -0.0739597 0
M  V30 1260 H 118.801 1.86683 -0.837297 0
M  V30 1261 H 118.811 4.07419 0.2177 0
M  V30 1262 H 117.486 4.05266 -0.934453 0
M  V30 1263 H 116.063 3.63133 0.847889 0
M  V30 1264 N 118.248 0.346503 1.53744 0
M  V30 1265 C 119.158 -0.517293 2.28826 0
M  V30 1266 C 120.174 -1.10935 1.3405 0
M  V30 1267 O 121.35 -1.1244 1.6709 0
M  V30 1268 C 118.415 -1.65098 3.04866 0
M  V30 1269 C 117.476 -1.0884 4.15274 0
M  V30 1270 C 116.709 -2.16806 4.87679 0
M  V30 1271 O 116.932 -3.3758 4.59778 0
M  V30 1272 O 115.866 -1.80934 5.74061 0
M  V30 1273 H 119.692 0.0931396 3.03557 0
M  V30 1274 H 117.277 0.111458 1.48984 0
M  V30 1275 H 119.159 -2.31053 3.5241 0
M  V30 1276 H 117.834 -2.24717 2.32989 0
M  V30 1277 H 116.741 -0.3933 3.72027 0
M  V30 1278 H 118.074 -0.537036 4.89261 0
M  V30 1279 N 119.726 -1.57421 0.075193 0
M  V30 1280 C 120.974 -1.93236 -0.591974 0
M  V30 1281 C 121.295 -0.956241 -1.69944 0
M  V30 1282 O 120.565 -0.00494792 -1.95899 0
M  V30 1283 H 119.145 -0.713355 -0.22166 0
M  V30 1284 H 121.807 -1.9444 0.133848 0
M  V30 1285 H 120.903 -2.95131 -1.01509 0
M  V30 1286 N 121.204 0.198386 -1.56346 0
M  V30 1287 C 122.152 1.26538 -1.95169 0
M  V30 1288 C 123.146 1.47295 -0.836685 0
M  V30 1289 O 124.352 1.48195 -1.02167 0
M  V30 1290 H 120.727 0.424744 -0.620561 0
M  V30 1291 H 122.698 0.910904 -2.84157 0
M  V30 1292 C 121.447 2.6035 -2.30463 0
M  V30 1293 H 120.77 2.45192 -3.15786 0
M  V30 1294 H 122.21 3.33762 -2.61494 0
M  V30 1295 C 120.669 3.17096 -1.13806 0
M  V30 1296 O 121.199 3.99588 -0.41135 0
M  V30 1297 N 119.405 2.75795 -0.915736 0
M  V30 1298 H 118.952 2.08816 -1.50843 0
M  V30 1299 H 118.91 3.14101 -0.136979 0
M  V30 1300 N 122.682 1.50554 0.465978 0
M  V30 1301 C 123.93 1.61479 1.21528 0
M  V30 1302 C 124.251 0.319596 1.92363 0
M  V30 1303 O 123.521 -0.663194 1.84333 0
M  V30 1304 H 122.101 0.595055 0.451573 0
M  V30 1305 H 124.763 1.87355 0.53704 0
M  V30 1306 H 123.859 2.42846 1.96042 0
M  V30 1307 N 124.16 -0.719506 1.40217 0
M  V30 1308 C 125.576 -1.02707 1.22161 0
M  V30 1309 C 125.776 -2.0128 0.0940557 0
M  V30 1310 O 124.832 -2.46452 -0.549318 0
M  V30 1311 C 126.145 -1.57454 2.56181 0
M  V30 1312 C 127.693 -1.69458 2.63159 0
M  V30 1313 C 128.168 -2.27611 3.97438 0
M  V30 1314 N 129.659 -2.35002 3.99159 0
M  V30 1315 C 130.394 -2.80972 4.99842 0
M  V30 1316 N 129.89 -3.26723 6.10921 0
M  V30 1317 N 131.683 -2.80321 4.87213 0
M  V30 1318 H 123.834 -0.0660492 2.12297 0
M  V30 1319 H 126.097 -0.0919077 0.943534 0
M  V30 1320 H 125.803 -0.924873 3.39321 0
M  V30 1321 H 125.677 -2.56036 2.76993 0
M  V30 1322 H 128.064 -2.33543 1.80393 0
M  V30 1323 H 128.145 -0.694867 2.46181 0
M  V30 1324 H 127.789 -1.6415 4.80643 0
M  V30 1325 H 127.719 -3.2829 4.11744 0
M  V30 1326 H 130.21 -2.02685 3.18947 0
M  V30 1327 H 130.523 -3.60355 6.8364 0
M  V30 1328 H 128.868 -3.24692 6.14492 0
M  V30 1329 H 132.059 -2.43912 3.9953 0
M  V30 1330 H 132.232 -3.15831 5.65822 0
M  V30 1331 N 125.638 -1.25649 -0.95132 0
M  V30 1332 C 126.886 -1.10375 -1.69298 0
M  V30 1333 C 127.207 0.355339 -1.91735 0
M  V30 1334 O 126.477 1.25188 -1.50681 0
M  V30 1335 H 125.057 -0.405461 -0.627384 0
M  V30 1336 H 127.719 -1.57823 -1.14358 0
M  V30 1337 H 126.815 -1.61465 -2.67087 0
M  V30 1338 N 127.117 1.15442 -1.07289 0
M  V30 1339 C 128.365 1.85845 -0.794096 0
M  V30 1340 C 128.686 1.82692 0.681809 0
M  V30 1341 O 127.956 1.26741 1.49377 0
M  V30 1342 H 126.536 0.688089 -0.290763 0
M  V30 1343 H 129.198 1.39947 -1.3565 0
M  V30 1344 H 128.294 2.91001 -1.12804 0
M  V30 1345 N 128.595 0.856903 1.32268 0
M  V30 1346 C 129.505 0.306131 2.32594 0
M  V30 1347 C 130.521 -0.577209 1.64147 0
M  V30 1348 O 131.697 -0.477043 1.95669 0
M  V30 1349 C 128.762 -0.494561 3.43154 0
M  V30 1350 C 127.823 0.415186 4.27288 0
M  V30 1351 C 127.056 -0.347387 5.32568 0
M  V30 1352 O 127.279 -1.57708 5.48165 0
M  V30 1353 O 126.213 0.287982 6.01211 0
M  V30 1354 H 130.039 1.13737 2.81598 0
M  V30 1355 H 127.624 0.619902 1.35932 0
M  V30 1356 H 129.506 -0.948944 4.10576 0
M  V30 1357 H 128.181 -1.30257 2.96336 0
M  V30 1358 H 127.088 0.917793 3.62667 0
M  V30 1359 H 128.421 1.18844 4.77637 0
M  V30 1360 N 130.073 -1.45103 0.615059 0
M  V30 1361 C 131.298 -2.07064 0.117988 0
M  V30 1362 C 131.723 -1.4554 -1.19163 0
M  V30 1363 O 131.081 -0.550855 -1.72729 0
M  V30 1364 C 131.129 -3.606 -0.000288387 0
M  V30 1365 O 130.233 -3.98847 -1.04856 0
M  V30 1366 H 129.574 -0.659467 0.0774581 0
M  V30 1367 H 132.104 -1.86236 0.847186 0
M  V30 1368 H 132.114 -4.07529 -0.196091 0
M  V30 1369 H 130.789 -4.04765 0.955932 0
M  V30 1370 H 129.366 -3.63577 -0.828619 0
M  V30 1371 N 131.551 -0.354651 -1.53558 0
M  V30 1372 C 132.8 0.239504 -2.00273 0
M  V30 1373 C 133.113 1.50759 -1.24623 0
M  V30 1374 O 134.319 2.17968 -1.61871 0
M  V30 1375 C 132.775 0.477341 -3.5672 0
M  V30 1376 C 132.383 -0.775488 -4.41237 0
M  V30 1377 C 134.127 1.02975 -4.11821 0
M  V30 1378 C 132.034 -0.507838 -5.89216 0
M  V30 1379 H 130.964 0.0932743 -0.748208 0
M  V30 1380 H 133.615 -0.471701 -1.77334 0
M  V30 1381 H 131.997 1.24953 -3.7577 0
M  V30 1382 H 133.171 -1.54963 -4.33962 0
M  V30 1383 H 131.486 -1.25033 -3.97185 0
M  V30 1384 H 134.083 1.24513 -5.2 0
M  V30 1385 H 134.426 1.98862 -3.65731 0
M  V30 1386 H 134.959 0.317994 -3.96527 0
M  V30 1387 H 131.698 -1.43674 -6.39561 0
M  V30 1388 H 131.218 0.228011 -5.99366 0
M  V30 1389 H 132.897 -0.129238 -6.46871 0
M  V30 1390 N 133.029 1.57378 -0.0835403 0
M  V30 1391 C 134.259 1.97975 0.590713 0
M  V30 1392 C 134.667 0.961083 1.62972 0
M  V30 1393 O 134.01 -0.0590879 1.83605 0
M  V30 1394 C 134.072 3.34915 1.3066 0
M  V30 1395 C 133.736 4.55069 0.419698 0
M  V30 1396 C 134.733 5.18868 -0.32749 0
M  V30 1397 C 132.418 5.0114 0.341137 0
M  V30 1398 C 134.412 6.27098 -1.14134 0
M  V30 1399 C 132.099 6.0924 -0.476374 0
M  V30 1400 C 133.097 6.72083 -1.21627 0
M  V30 1401 O 132.785 7.781 -2.02028 0
M  V30 1402 H 132.517 0.655818 0.163947 0
M  V30 1403 H 135.071 2.04807 -0.156021 0
M  V30 1404 H 133.301 3.24733 2.09966 0
M  V30 1405 H 134.99 3.60037 1.87424 0
M  V30 1406 H 135.756 4.84211 -0.276459 0
M  V30 1407 H 131.635 4.51996 0.90668 0
M  V30 1408 H 135.179 6.7608 -1.71935 0
M  V30 1409 H 131.076 6.43329 -0.528927 0
M  V30 1410 H 131.844 7.95034 -1.94586 0
M  V30 1411 N 134.507 -0.190092 1.56449 0
M  V30 1412 C 135.755 -0.907908 1.80559 0
M  V30 1413 C 136.076 -1.83583 0.657438 0
M  V30 1414 O 135.346 -1.93203 -0.323924 0
M  V30 1415 H 133.926 -0.338247 0.666032 0
M  V30 1416 H 136.588 -0.194403 1.93928 0
M  V30 1417 H 135.684 -1.49604 2.73907 0
M  V30 1418 N 135.985 -1.50799 -0.457987 0
M  V30 1419 C 137.233 -1.62121 -1.2067 0
M  V30 1420 C 137.554 -0.329793 -1.92191 0
M  V30 1421 O 136.824 0.653409 -1.84682 0
M  V30 1422 H 135.404 -0.597441 -0.448411 0
M  V30 1423 H 138.066 -1.87637 -0.527096 0
M  V30 1424 H 137.162 -2.43882 -1.94751 0
M  V30 1425 N 137.463 0.71206 -1.40597 0
M  V30 1426 C 138.71 1.47197 -1.39065 0
M  V30 1427 C 139.038 1.94499 0.00583891 0
M  V30 1428 O 138.293 1.68752 0.99102 0
M  V30 1429 C 138.592 2.71039 -2.32965 0
M  V30 1430 C 138.258 2.42484 -3.80148 0
M  V30 1431 C 136.92 2.34406 -4.20247 0
M  V30 1432 C 139.272 2.18598 -4.73143 0
M  V30 1433 C 136.6 2.00516 -5.51371 0
M  V30 1434 C 138.952 1.8622 -6.0457 0
M  V30 1435 C 137.616 1.76626 -6.43708 0
M  V30 1436 H 136.886 0.538634 -0.508876 0
M  V30 1437 H 139.533 0.815325 -1.73276 0
M  V30 1438 H 137.838 3.41558 -1.91951 0
M  V30 1439 H 139.535 3.29138 -2.29061 0
M  V30 1440 H 136.125 2.49659 -3.4838 0
M  V30 1441 H 140.309 2.23793 -4.42979 0
M  V30 1442 H 135.565 1.91628 -5.80593 0
M  V30 1443 H 139.739 1.66752 -6.76141 0
M  V30 1444 H 137.366 1.50133 -7.45228 0
M  V30 1445 N 138.941 1.26152 0.944643 0
M  V30 1446 C 140.188 1.11492 1.69044 0
M  V30 1447 C 140.516 -0.342366 1.91463 0
M  V30 1448 O 139.771 -1.26812 1.49054 0
M  V30 1449 C 140.07 1.82541 3.07268 0
M  V30 1450 C 139.736 3.32445 3.04616 0
M  V30 1451 C 138.398 3.73337 3.036 0
M  V30 1452 C 140.75 4.28171 2.97185 0
M  V30 1453 C 138.078 5.08348 2.92915 0
M  V30 1454 C 140.43 5.63218 2.88041 0
M  V30 1455 C 139.094 6.03426 2.85366 0
M  V30 1456 H 138.364 0.407977 0.618576 0
M  V30 1457 H 141.011 1.56551 1.10291 0
M  V30 1458 H 139.316 1.29941 3.69625 0
M  V30 1459 H 141.013 1.68642 3.63815 0
M  V30 1460 H 137.603 2.99915 3.06185 0
M  V30 1461 H 141.787 3.97563 2.97081 0
M  V30 1462 H 137.043 5.38667 2.89219 0
M  V30 1463 H 141.217 6.37078 2.81254 0
M  V30 1464 H 138.844 7.07999 2.76842 0
M  V30 1465 N 140.419 -1.14872 1.07899 0
M  V30 1466 C 141.329 -2.2341 0.715915 0
M  V30 1467 C 142.345 -1.71808 -0.275306 0
M  V30 1468 O 143.521 -2.01039 -0.120545 0
M  V30 1469 C 140.586 -3.46474 0.125168 0
M  V30 1470 C 139.647 -4.13039 1.17034 0
M  V30 1471 C 138.88 -5.30229 0.607688 0
M  V30 1472 O 139.103 -5.675 -0.574497 0
M  V30 1473 O 138.037 -5.86444 1.35526 0
M  V30 1474 H 141.863 -2.56808 1.62121 0
M  V30 1475 H 139.448 -1.22702 0.852322 0
M  V30 1476 H 141.33 -4.20917 -0.201729 0
M  V30 1477 H 140.005 -3.14811 -0.753364 0
M  V30 1478 H 138.912 -3.40493 1.54968 0
M  V30 1479 H 140.245 -4.48796 2.02097 0
M  V30 1480 N 141.898 -0.863906 -1.31812 0
M  V30 1481 C 143.175 -0.39275 -1.91616 0
M  V30 1482 C 143.555 1.12461 -1.7865 0
M  V30 1483 O 142.903 1.95045 -1.19037 0
M  V30 1484 C 143.113 -0.867385 -3.38049 0
M  V30 1485 C 144.461 -0.889966 -4.15168 0
M  V30 1486 O 145.485 -0.812635 -3.46806 0
M  V30 1487 O 144.344 -1.00079 -5.37258 0
M  V30 1488 H 141.438 -0.116358 -0.818773 0
M  V30 1489 H 143.984 -0.951418 -1.40521 0
M  V30 1490 H 142.756 -1.91081 -3.41473 0
M  V30 1491 H 142.379 -0.286687 -3.96565 0
M  V30 1492 N 143.376 1.44774 -0.622745 0
M  V30 1493 C 144.286 2.34433 0.0886031 0
M  V30 1494 C 145.302 1.52131 0.844529 0
M  V30 1495 O 146.478 1.84886 0.798691 0
M  V30 1496 C 143.543 3.29986 1.0635 0
M  V30 1497 C 142.604 4.28195 0.307873 0
M  V30 1498 C 141.837 5.19183 1.23633 0
M  V30 1499 O 142.06 5.13918 2.47476 0
M  V30 1500 O 140.994 5.97515 0.725189 0
M  V30 1501 H 144.82 2.96693 -0.648599 0
M  V30 1502 H 142.405 1.44408 -0.382957 0
M  V30 1503 H 144.287 3.88825 1.6246 0
M  V30 1504 H 142.962 2.70269 1.78146 0
M  V30 1505 H 141.869 3.72927 -0.296064 0
M  V30 1506 H 143.202 4.90808 -0.3699 0
M  V30 1507 N 144.854 0.36279 1.53368 0
M  V30 1508 C 146.079 -0.231226 2.06107 0
M  V30 1509 C 146.504 -1.419 1.23474 0
M  V30 1510 O 145.862 -1.79524 0.253128 0
M  V30 1511 C 145.91 -0.605523 3.5548 0
M  V30 1512 O 145.014 -1.70312 3.7559 0
M  V30 1513 H 144.355 -0.034327 0.663112 0
M  V30 1514 H 146.885 0.522584 1.97814 0
M  V30 1515 H 146.895 -0.877314 3.98456 0
M  V30 1516 H 145.57 0.263004 4.15068 0
M  V30 1517 H 144.147 -1.4271 3.44512 0
M  V30 1518 N 146.332 -1.57332 0.0918853 0
M  V30 1519 C 147.579 -1.94236 -0.572577 0
M  V30 1520 C 147.907 -0.973398 -1.6839 0
M  V30 1521 O 147.162 0.00756912 -1.95699 0
M  V30 1522 C 147.461 -3.37689 -1.17051 0
M  V30 1523 C 147.127 -4.50527 -0.183304 0
M  V30 1524 C 145.789 -4.81119 0.0882276 0
M  V30 1525 C 148.141 -5.18883 0.49095 0
M  V30 1526 C 145.469 -5.77395 1.04076 0
M  V30 1527 C 147.821 -6.1618 1.43193 0
M  V30 1528 C 146.485 -6.45179 1.71173 0
M  V30 1529 H 145.755 -0.710762 -0.209521 0
M  V30 1530 H 148.402 -1.9077 0.167036 0
M  V30 1531 H 146.707 -3.37718 -1.9863 0
M  V30 1532 H 148.404 -3.63543 -1.69227 0
M  V30 1533 H 144.994 -4.26681 -0.405124 0
M  V30 1534 H 149.178 -4.95427 0.294312 0
M  V30 1535 H 144.434 -5.98179 1.26457 0
M  V30 1536 H 148.608 -6.68243 1.96023 0
M  V30 1537 H 146.235 -7.1959 2.4514 0
M  V30 1538 N 147.81 0.181792 -1.56548 0
M  V30 1539 C 148.773 1.20894 -1.94724 0
M  V30 1540 C 149.773 1.37738 -0.829747 0
M  V30 1541 O 150.963 1.35323 -1.09697 0
M  V30 1542 C 148.095 2.57593 -2.23291 0
M  V30 1543 H 149.288 0.882275 -2.86629 0
M  V30 1544 H 146.841 0.423838 -1.50444 0
M  V30 1545 H 147.576 2.95291 -1.34067 0
M  V30 1546 H 147.361 2.46735 -3.04736 0
M  V30 1547 H 148.851 3.31637 -2.53785 0
M  V30 1548 N 149.288 1.51039 0.449983 0
M  V30 1549 C 150.534 1.63322 1.20223 0
M  V30 1550 C 150.867 0.34241 1.91158 0
M  V30 1551 O 150.142 -0.657344 1.83055 0
M  V30 1552 C 150.425 2.82801 2.22925 0
M  V30 1553 C 150.278 4.21823 1.56157 0
M  V30 1554 C 151.597 2.97807 3.24035 0
M  V30 1555 H 148.716 0.594407 0.435718 0
M  V30 1556 H 151.358 1.83489 0.493136 0
M  V30 1557 H 149.508 2.65738 2.834 0
M  V30 1558 H 151.18 4.50526 0.991162 0
M  V30 1559 H 149.423 4.25105 0.864172 0
M  V30 1560 H 150.094 5.01391 2.30891 0
M  V30 1561 H 152.57 3.13497 2.73603 0
M  V30 1562 H 151.446 3.82992 3.93202 0
M  V30 1563 H 151.707 2.09328 3.89402 0
M  V30 1564 N 150.766 -0.704594 1.40972 0
M  V30 1565 C 151.713 -1.81862 1.42109 0
M  V30 1566 C 152.683 -1.63781 0.276593 0
M  V30 1567 O 153.868 -1.84759 0.4763 0
M  V30 1568 C 151.008 -3.19669 1.30022 0
M  V30 1569 C 150.121 -3.49246 2.54267 0
M  V30 1570 C 149.256 -4.76618 2.3454 0
M  V30 1571 C 148.295 -4.99133 3.54306 0
M  V30 1572 N 147.432 -6.17726 3.33706 0
M  V30 1573 H 152.272 -1.80226 2.37324 0
M  V30 1574 H 149.809 -0.880238 1.17857 0
M  V30 1575 H 151.767 -3.99263 1.21018 0
M  V30 1576 H 150.397 -3.20506 0.384192 0
M  V30 1577 H 149.449 -2.64125 2.73756 0
M  V30 1578 H 150.761 -3.61788 3.43381 0
M  V30 1579 H 149.915 -5.64249 2.22952 0
M  V30 1580 H 148.654 -4.66305 1.42867 0
M  V30 1581 H 147.659 -4.09953 3.66359 0
M  V30 1582 H 148.884 -5.11311 4.4692 0
M  V30 1583 H 146.83 -6.08642 2.44725 0
M  V30 1584 H 146.747 -6.30995 4.16391 0
M  V30 1585 H 148.015 -7.08115 3.25873 0
M  V30 1586 N 152.244 -1.26651 -0.937939 0
M  V30 1587 C 153.194 -1.05156 -2.02302 0
M  V30 1588 C 154.178 0.0171233 -1.60891 0
M  V30 1589 O 155.37 -0.200213 -1.75864 0
M  V30 1590 C 152.499 -0.689962 -3.36295 0
M  V30 1591 C 151.585 -1.79626 -3.84181 0
M  V30 1592 N 151.976 -3.03422 -4.04684 0
M  V30 1593 C 150.274 -1.6806 -4.13124 0
M  V30 1594 C 150.975 -3.75345 -4.444 0
M  V30 1595 N 149.951 -3.03051 -4.51288 0
M  V30 1596 H 153.753 -1.99117 -2.1617 0
M  V30 1597 H 151.267 -1.17216 -1.12402 0
M  V30 1598 H 153.264 -0.517112 -4.13681 0
M  V30 1599 H 151.924 0.242139 -3.23796 0
M  V30 1600 H 152.935 -3.39293 -3.91281 0
M  V30 1601 H 149.612 -0.818629 -4.09396 0
M  V30 1602 H 151.002 -4.81691 -4.68427 0
M  V30 1603 N 153.722 1.14298 -1.08507 0
M  V30 1604 C 154.67 2.21483 -0.710483 0
M  V30 1605 C 155.664 1.66998 0.284234 0
M  V30 1606 O 156.87 1.79401 0.146692 0
M  V30 1607 H 153.245 0.721578 -0.211729 0
M  V30 1608 H 155.216 2.50348 -1.62384 0
M  V30 1609 C 153.965 3.4743 -0.137007 0
M  V30 1610 H 153.288 3.89686 -0.893592 0
M  V30 1611 H 154.728 4.2391 0.0872789 0
M  V30 1612 C 153.187 3.17548 1.12538 0
M  V30 1613 O 153.717 3.35437 2.21009 0
M  V30 1614 N 151.923 2.71499 1.03617 0
M  V30 1615 H 151.47 2.57143 0.153403 0
M  V30 1616 H 151.428 2.51881 1.88158 0
M  V30 1617 N 155.201 0.870884 1.31352 0
M  V30 1618 C 156.148 0.325425 2.28494 0
M  V30 1619 C 157.118 -0.576615 1.5577 0
M  V30 1620 O 158.303 -0.508059 1.83911 0
M  V30 1621 C 155.443 -0.466283 3.41935 0
M  V30 1622 C 154.556 0.463378 4.29508 0
M  V30 1623 C 153.691 -0.342544 5.30094 0
M  V30 1624 C 152.73 0.583486 6.09313 0
M  V30 1625 N 151.867 -0.186244 7.01853 0
M  V30 1626 H 156.707 1.15901 2.74538 0
M  V30 1627 H 154.244 0.58294 1.35056 0
M  V30 1628 H 156.202 -0.941085 4.06447 0
M  V30 1629 H 154.832 -1.26456 2.97 0
M  V30 1630 H 153.884 1.05663 3.65431 0
M  V30 1631 H 155.196 1.1734 4.84802 0
M  V30 1632 H 154.35 -0.879816 6.00287 0
M  V30 1633 H 153.089 -1.08585 4.75458 0
M  V30 1634 H 152.094 1.13251 5.3801 0
M  V30 1635 H 153.319 1.32566 6.66035 0
M  V30 1636 H 151.265 -0.912348 6.49625 0
M  V30 1637 H 151.182 0.464422 7.54572 0
M  V30 1638 H 152.45 -0.704716 7.76308 0
M  V30 1639 N 156.679 -1.44442 0.630414 0
M  V30 1640 C 157.589 -2.34476 -0.0761693 0
M  V30 1641 C 158.605 -1.52576 -0.836449 0
M  V30 1642 O 159.781 -1.85307 -0.788874 0
M  V30 1643 C 156.846 -3.30545 -1.04599 0
M  V30 1644 C 155.907 -4.28352 -0.28516 0
M  V30 1645 C 155.14 -5.19831 -1.20878 0
M  V30 1646 O 155.363 -5.15223 -2.44747 0
M  V30 1647 O 154.297 -5.97892 -0.693491 0
M  V30 1648 H 158.123 -2.96345 0.664324 0
M  V30 1649 H 155.708 -1.44203 0.39061 0
M  V30 1650 H 157.59 -3.89681 -1.60396 0
M  V30 1651 H 156.265 -2.7121 -1.76711 0
M  V30 1652 H 155.172 -3.72764 0.315837 0
M  V30 1653 H 156.505 -4.90605 0.395924 0
M  V30 1654 N 158.157 -0.370918 -1.53173 0
M  V30 1655 C 159.404 0.217102 -2.01333 0
M  V30 1656 C 159.732 1.48338 -1.25802 0
M  V30 1657 O 158.987 1.92698 -0.34146 0
M  V30 1658 C 159.286 0.549696 -3.53147 0
M  V30 1659 C 158.952 -0.622872 -4.46577 0
M  V30 1660 C 157.614 -0.944595 -4.71838 0
M  V30 1661 C 159.966 -1.40819 -5.01816 0
M  V30 1662 C 157.294 -2.05351 -5.49589 0
M  V30 1663 C 159.646 -2.50757 -5.80778 0
M  V30 1664 C 158.31 -2.83458 -6.04324 0
M  V30 1665 H 157.58 0.0794431 -0.736729 0
M  V30 1666 H 160.227 -0.504481 -1.84736 0
M  V30 1667 H 158.532 1.35237 -3.6772 0
M  V30 1668 H 160.229 1.017 -3.87889 0
M  V30 1669 H 156.819 -0.36209 -4.27068 0
M  V30 1670 H 161.003 -1.17289 -4.82242 0
M  V30 1671 H 156.259 -2.3108 -5.6605 0
M  V30 1672 H 160.433 -3.12022 -6.22588 0
M  V30 1673 H 158.06 -3.69508 -6.64355 0
M  V30 1674 N 159.635 1.57281 -0.100228 0
M  V30 1675 C 160.565 2.17328 0.853857 0
M  V30 1676 C 161.546 1.10804 1.2906 0
M  V30 1677 O 162.731 1.38963 1.35657 0
M  V30 1678 C 159.861 2.75772 2.11109 0
M  V30 1679 C 158.815 3.87713 1.81279 0
M  V30 1680 C 158.141 4.32882 3.13874 0
M  V30 1681 C 159.441 5.10677 1.09574 0
M  V30 1682 H 161.135 2.97305 0.353545 0
M  V30 1683 H 158.681 1.43009 0.168612 0
M  V30 1684 H 160.634 3.16433 2.78296 0
M  V30 1685 H 159.358 1.93057 2.63432 0
M  V30 1686 H 158.017 3.476 1.16489 0
M  V30 1687 H 157.665 3.47051 3.64095 0
M  V30 1688 H 157.365 5.08358 2.94696 0
M  V30 1689 H 158.889 4.7618 3.82211 0
M  V30 1690 H 160.303 5.48474 1.66879 0
M  V30 1691 H 158.7 5.91615 1.00557 0
M  V30 1692 H 159.77 4.84835 0.0793299 0
M  V30 1693 N 161.113 -0.173488 1.56642 0
M  V30 1694 C 162.043 -1.2171 1.99271 0
M  V30 1695 C 163.024 -1.46289 0.867959 0
M  V30 1696 O 164.209 -1.5766 1.13388 0
M  V30 1697 C 161.339 -2.55651 2.35074 0
M  V30 1698 C 160.293 -2.45645 3.50489 0
M  V30 1699 C 159.619 -3.84056 3.72028 0
M  V30 1700 C 160.919 -1.96302 4.84007 0
M  V30 1701 H 162.613 -0.86275 2.867 0
M  V30 1702 H 160.159 -0.413571 1.37933 0
M  V30 1703 H 162.112 -3.2886 2.63494 0
M  V30 1704 H 160.836 -2.92869 1.44552 0
M  V30 1705 H 159.495 -1.7489 3.22194 0
M  V30 1706 H 159.143 -4.18664 2.788 0
M  V30 1707 H 158.843 -3.7823 4.49684 0
M  V30 1708 H 160.367 -4.58854 4.02846 0
M  V30 1709 H 161.781 -2.59284 5.11317 0
M  V30 1710 H 160.178 -2.01429 5.65284 0
M  V30 1711 H 161.248 -0.917226 4.76146 0
M  V30 1712 N 162.591 -1.51276 -0.441967 0
M  V30 1713 C 163.816 -1.67799 -1.21895 0
M  V30 1714 C 164.241 -0.372864 -1.84367 0
M  V30 1715 O 163.599 0.666501 -1.68604 0
M  V30 1716 C 163.647 -2.79199 -2.28211 0
M  V30 1717 O 162.751 -2.42479 -3.33583 0
M  V30 1718 H 162.092 -0.559649 -0.357336 0
M  V30 1719 H 164.622 -1.97815 -0.522522 0
M  V30 1720 H 164.632 -3.03146 -2.73069 0
M  V30 1721 H 163.307 -3.73906 -1.82118 0
M  V30 1722 H 161.884 -2.29087 -2.94234 0
M  V30 1723 N 164.069 0.697108 -1.41344 0
M  V30 1724 C 165.002 1.82134 -1.37486 0
M  V30 1725 C 165.98 1.60784 -0.242351 0
M  V30 1726 O 167.164 1.83553 -0.429012 0
M  V30 1727 C 164.291 3.18788 -1.14421 0
M  V30 1728 C 163.337 3.58932 -2.3037 0
M  V30 1729 S 164.17 3.63916 -3.92843 0
M  V30 1730 C 165.326 5.03298 -3.72078 0
M  V30 1731 H 165.559 1.85129 -2.32625 0
M  V30 1732 H 163.092 0.865671 -1.2785 0
M  V30 1733 H 165.05 3.97677 -1.018 0
M  V30 1734 H 163.711 3.13404 -0.20905 0
M  V30 1735 H 162.904 4.58202 -2.09922 0
M  V30 1736 H 162.506 2.87347 -2.39391 0
M  V30 1737 H 164.798 5.90753 -3.31688 0
M  V30 1738 H 165.741 5.28788 -4.70945 0
M  V30 1739 H 166.149 4.74764 -3.05384 0
M  V30 1740 N 165.547 1.27147 0.931209 0
M  V30 1741 C 166.51 1.09615 2.01289 0
M  V30 1742 C 167.51 0.0412581 1.60747 0
M  V30 1743 O 168.7 0.285545 1.71844 0
M  V30 1744 C 165.832 0.669447 3.34262 0
M  V30 1745 H 167.025 2.05662 2.18273 0
M  V30 1746 H 164.578 1.09885 1.11153 0
M  V30 1747 H 165.313 -0.292572 3.22978 0
M  V30 1748 H 165.098 1.43127 3.65044 0
M  V30 1749 H 166.588 0.568921 4.13706 0
M  V30 1750 N 167.025 -1.13721 1.09112 0
M  V30 1751 C 167.973 -2.21103 0.722219 0
M  V30 1752 C 168.967 -1.67147 -0.275374 0
M  V30 1753 O 170.173 -1.79477 -0.137176 0
M  V30 1754 H 166.548 -0.720445 0.215553 0
M  V30 1755 H 168.519 -2.49483 1.63709 0
M  V30 1756 C 167.268 -3.47352 0.15543 0
M  V30 1757 H 166.591 -3.89206 0.914246 0
M  V30 1758 H 168.031 -4.2395 -0.0647967 0
M  V30 1759 C 166.49 -3.1814 -1.10852 0
M  V30 1760 O 167.02 -3.36604 -2.19227 0
M  V30 1761 N 165.226 -2.72045 -1.02176 0
M  V30 1762 H 164.773 -2.57221 -0.139764 0
M  V30 1763 H 164.731 -2.52875 -1.8682 0
M  V30 1764 N 168.503 -0.877838 -1.30888 0
M  V30 1765 C 169.919 -0.570844 -1.49042 0
M  V30 1766 C 170.119 0.893159 -1.80624 0
M  V30 1767 O 169.175 1.67485 -1.88958 0
M  V30 1768 C 170.488 -1.47784 -2.61878 0
M  V30 1769 C 172.036 -1.48071 -2.75761 0
M  V30 1770 C 172.511 -2.37347 -3.91702 0
M  V30 1771 N 174.002 -2.35271 -3.99001 0
M  V30 1772 C 174.737 -3.01063 -4.88004 0
M  V30 1773 N 174.233 -3.76055 -5.81854 0
M  V30 1774 N 176.026 -2.90332 -4.81315 0
M  V30 1775 H 168.177 -1.82502 -1.0866 0
M  V30 1776 H 170.44 -0.780797 -0.537644 0
M  V30 1777 H 170.146 -2.51993 -2.45341 0
M  V30 1778 H 170.02 -1.18215 -3.58197 0
M  V30 1779 H 172.407 -0.446166 -2.91708 0
M  V30 1780 H 172.488 -1.81668 -1.80085 0
M  V30 1781 H 172.132 -3.40883 -3.76512 0
M  V30 1782 H 172.062 -2.01071 -4.86701 0
M  V30 1783 H 174.553 -1.80768 -3.3186 0
M  V30 1784 H 174.866 -4.23366 -6.46514 0
M  V30 1785 H 173.211 -3.80163 -5.81808 0
M  V30 1786 H 176.402 -2.31278 -4.06974 0
M  V30 1787 H 176.575 -3.41885 -5.50471 0
M  V30 1788 N 169.982 1.44106 -0.638065 0
M  V30 1789 C 171.23 2.01579 -0.145043 0
M  V30 1790 C 171.551 1.50496 1.24 0
M  V30 1791 O 170.821 0.711374 1.82527 0
M  V30 1792 H 169.401 0.745282 -0.05063 0
M  V30 1793 H 172.063 1.76516 -0.826327 0
M  V30 1794 H 171.159 3.11877 -0.118039 0
M  V30 1795 N 171.46 0.379036 1.52974 0
M  V30 1796 C 172.407 -0.461048 2.26148 0
M  V30 1797 C 173.377 -1.06637 1.27349 0
M  V30 1798 O 174.562 -1.09633 1.56157 0
M  V30 1799 C 171.702 -1.58782 3.06402 0
M  V30 1800 C 170.815 -1.00636 4.20115 0
M  V30 1801 C 169.95 -2.10334 4.87784 0
M  V30 1802 C 168.989 -1.49724 5.93506 0
M  V30 1803 N 168.126 -2.5331 6.54812 0
M  V30 1804 H 172.966 0.169429 2.97518 0
M  V30 1805 H 170.503 0.0953806 1.4679 0
M  V30 1806 H 172.461 -2.25174 3.51215 0
M  V30 1807 H 171.091 -2.18876 2.37261 0
M  V30 1808 H 170.143 -0.232332 3.7969 0
M  V30 1809 H 171.455 -0.523343 4.96047 0
M  V30 1810 H 170.609 -2.84519 5.35849 0
M  V30 1811 H 169.348 -2.61992 4.11353 0
M  V30 1812 H 168.353 -0.740598 5.44789 0
M  V30 1813 H 169.578 -0.988732 6.71864 0
M  V30 1814 H 167.524 -3.04156 5.81227 0
M  V30 1815 H 167.441 -2.09734 7.26325 0
M  V30 1816 H 168.709 -3.27155 7.07524 0
M  V30 1817 N 172.938 -1.57226 0.108567 0
M  V30 1818 C 174.215 -1.86333 -0.594939 0
M  V30 1819 C 174.595 -1.00788 -1.85486 0
M  V30 1820 O 173.943 -0.0839293 -2.28346 0
M  V30 1821 C 174.153 -3.37265 -0.897405 0
M  V30 1822 C 175.501 -4.05629 -1.25501 0
M  V30 1823 O 176.525 -3.42224 -0.987998 0
M  V30 1824 O 175.384 -5.17531 -1.75567 0
M  V30 1825 H 172.478 -0.771018 -0.2991 0
M  V30 1826 H 175.024 -1.69102 0.142283 0
M  V30 1827 H 173.796 -3.913 -0.00413806 0
M  V30 1828 H 173.419 -3.59889 -1.69014 0
M  V30 1829 N 174.416 0.165178 -1.56732 0
M  V30 1830 C 175.644 0.896218 -1.86482 0
M  V30 1831 C 176.059 1.75555 -0.694675 0
M  V30 1832 O 175.416 1.79379 0.33607 0
M  V30 1833 C 175.467 1.76792 -3.1532 0
M  V30 1834 O 175.188 0.943239 -4.27825 0
M  V30 1835 C 176.689 2.6081 -3.58459 0
M  V30 1836 H 173.909 0.260064 -0.618553 0
M  V30 1837 H 176.453 0.163428 -2.03846 0
M  V30 1838 H 174.608 2.45398 -2.99764 0
M  V30 1839 H 175.022 1.53998 -5.01383 0
M  V30 1840 H 176.496 3.17579 -4.51495 0
M  V30 1841 H 176.973 3.35977 -2.82872 0
M  V30 1842 H 177.579 1.97526 -3.76648 0
M  V30 1843 N 175.894 1.51508 0.433938 0
M  V30 1844 C 176.842 1.73646 1.54757 0
M  V30 1845 C 177.836 0.602854 1.5831 0
M  V30 1846 O 179.042 0.784318 1.62014 0
M  V30 1847 H 175.417 0.548718 0.51421 0
M  V30 1848 H 177.388 2.66991 1.33261 0
M  V30 1849 C 176.137 1.88172 2.92381 0
M  V30 1850 H 175.46 2.74808 2.90381 0
M  V30 1851 H 176.9 2.07672 3.6966 0
M  V30 1852 C 175.359 0.64239 3.30719 0
M  V30 1853 O 175.889 -0.201362 4.01195 0
M  V30 1854 N 174.095 0.485489 2.86516 0
M  V30 1855 H 173.642 1.17318 2.29334 0
M  V30 1856 H 173.6 -0.342482 3.12529 0
M  V30 1857 N 177.372 -0.689602 1.41712 0
M  V30 1858 C 178.62 -1.4468 1.4111 0
M  V30 1859 C 178.941 -1.94986 0.0232196 0
M  V30 1860 O 178.211 -1.72097 -0.935913 0
M  V30 1861 H 176.791 -0.536847 0.519427 0
M  V30 1862 H 179.453 -0.815825 1.77004 0
M  V30 1863 H 178.549 -2.30706 2.10193 0
M  V30 1864 N 178.85 -1.27639 -0.924453 0
M  V30 1865 C 180.075 -1.17101 -1.71179 0
M  V30 1866 C 180.5 0.268134 -1.86179 0
M  V30 1867 O 179.858 1.19415 -1.36418 0
M  V30 1868 C 179.906 -1.86313 -3.08739 0
M  V30 1869 O 179.01 -1.16331 -3.95652 0
M  V30 1870 H 178.351 -0.407091 -0.524569 0
M  V30 1871 H 180.881 -1.68767 -1.15666 0
M  V30 1872 H 180.891 -1.938 -3.59034 0
M  V30 1873 H 179.566 -2.91001 -2.97138 0
M  V30 1874 H 178.143 -1.16935 -3.54091 0
M  V30 1875 N 180.328 1.1314 -1.09713 0
M  V30 1876 C 181.26 2.18343 -0.697056 0
M  V30 1877 C 182.273 1.60669 0.262551 0
M  V30 1878 O 183.462 1.78435 0.0481527 0
M  V30 1879 C 180.562 3.38899 -0.00684728 0
M  V30 1880 C 179.735 4.26078 -0.988741 0
M  V30 1881 C 178.794 5.25155 -0.331394 0
M  V30 1882 O 177.82 5.60701 -0.979926 0
M  V30 1883 N 179.022 5.73271 0.913261 0
M  V30 1884 H 181.787 2.5328 -1.60216 0
M  V30 1885 H 179.348 1.28491 -0.984971 0
M  V30 1886 H 181.34 4.02255 0.444191 0
M  V30 1887 H 179.91 3.02175 0.800551 0
M  V30 1888 H 179.13 3.59453 -1.61826 0
M  V30 1889 H 180.418 4.81178 -1.65364 0
M  V30 1890 H 179.816 5.46544 1.45966 0
M  V30 1891 H 178.373 6.3855 1.30757 0
M  V30 1892 N 181.806 0.884767 1.30421 0
M  V30 1893 C 183.053 0.503105 1.96151 0
M  V30 1894 C 183.381 -0.947676 1.69851 0
M  V30 1895 O 182.636 -1.68467 0.995861 0
M  V30 1896 C 182.935 0.724318 3.49983 0
M  V30 1897 C 182.601 2.15015 3.96332 0
M  V30 1898 C 181.263 2.54005 4.08699 0
M  V30 1899 C 183.615 3.07936 4.20505 0
M  V30 1900 C 180.943 3.85128 4.42599 0
M  V30 1901 C 183.295 4.3859 4.55874 0
M  V30 1902 C 181.959 4.77474 4.66449 0
M  V30 1903 H 181.229 0.184099 0.717766 0
M  V30 1904 H 183.876 1.12058 1.55291 0
M  V30 1905 H 182.181 0.0238086 3.91793 0
M  V30 1906 H 183.878 0.408617 3.98913 0
M  V30 1907 H 180.468 1.8375 3.87213 0
M  V30 1908 H 184.652 2.79033 4.10431 0
M  V30 1909 H 179.908 4.14996 4.48986 0
M  V30 1910 H 184.082 5.10629 4.7353 0
M  V30 1911 H 181.709 5.79115 4.92473 0
M  V30 1912 N 183.284 -1.43765 0.645699 0
M  V30 1913 C 184.531 -2.01898 0.15604 0
M  V30 1914 C 184.859 -1.50887 -1.22733 0
M  V30 1915 O 184.114 -0.689271 -1.8316 0
M  V30 1916 C 184.413 -3.57238 0.107679 0
M  V30 1917 C 184.079 -4.27564 1.43178 0
M  V30 1918 C 182.741 -4.46492 1.7944 0
M  V30 1919 C 185.093 -4.67454 2.30513 0
M  V30 1920 C 182.421 -5.02573 3.02716 0
M  V30 1921 C 184.773 -5.24901 3.53074 0
M  V30 1922 C 183.437 -5.42046 3.89541 0
M  V30 1923 H 182.707 -0.738797 0.057099 0
M  V30 1924 H 185.354 -1.72341 0.834912 0
M  V30 1925 H 183.659 -3.86293 -0.654618 0
M  V30 1926 H 185.356 -3.99965 -0.287938 0
M  V30 1927 H 181.946 -4.13171 1.13963 0
M  V30 1928 H 186.13 -4.5253 2.0379 0
M  V30 1929 H 181.386 -5.14033 3.31028 0
M  V30 1930 H 185.56 -5.54758 4.20971 0
M  V30 1931 H 183.187 -5.85268 4.85145 0
M  V30 1932 N 184.763 -0.387143 -1.52771 0
M  V30 1933 C 186.012 0.19697 -2.00736 0
M  V30 1934 C 186.325 1.48082 -1.27793 0
M  V30 1935 O 187.531 2.14485 -1.66458 0
M  V30 1936 C 185.987 0.401568 -3.57653 0
M  V30 1937 C 185.595 -0.868907 -4.39493 0
M  V30 1938 C 187.339 0.942164 -4.13912 0
M  V30 1939 C 185.246 -0.632705 -5.88006 0
M  V30 1940 H 184.176 0.0773827 -0.750019 0
M  V30 1941 H 186.827 -0.50921 -1.76293 0
M  V30 1942 H 185.209 1.16954 -3.78335 0
M  V30 1943 H 186.383 -1.64133 -4.30577 0
M  V30 1944 H 184.698 -1.33429 -3.94443 0
M  V30 1945 H 187.295 1.13455 -5.22525 0
M  V30 1946 H 187.638 1.9106 -3.69867 0
M  V30 1947 H 188.171 0.233814 -3.97112 0
M  V30 1948 H 184.91 -1.57208 -6.36369 0
M  V30 1949 H 184.43 0.100825 -5.99715 0
M  V30 1950 H 186.109 -0.26642 -6.46451 0
M  V30 1951 N 186.241 1.57166 -0.116904 0
M  V30 1952 C 187.469 1.99473 0.549383 0
M  V30 1953 C 187.884 0.996541 1.60357 0
M  V30 1954 O 187.241 -0.0108731 1.82497 0
M  V30 1955 C 187.292 3.41788 1.17741 0
M  V30 1956 O 187.013 4.37788 0.165362 0
M  V30 1957 C 188.514 3.99216 1.92722 0
M  V30 1958 H 185.734 0.655009 0.145616 0
M  V30 1959 H 188.278 2.03494 -0.202625 0
M  V30 1960 H 186.433 3.38713 1.88021 0
M  V30 1961 H 186.847 5.20806 0.621403 0
M  V30 1962 H 188.321 5.00882 2.31995 0
M  V30 1963 H 188.798 3.3824 2.80161 0
M  V30 1964 H 189.404 4.0583 1.27209 0
M  V30 1965 N 187.719 -0.156864 1.56817 0
M  V30 1966 C 188.947 -0.886316 1.86955 0
M  V30 1967 C 189.362 -1.75185 0.703975 0
M  V30 1968 O 188.719 -1.79555 -0.326552 0
M  V30 1969 C 188.77 -1.75117 3.16253 0
M  V30 1970 O 188.491 -0.920537 4.2832 0
M  V30 1971 C 189.992 -2.58905 3.59837 0
M  V30 1972 H 187.212 -0.25678 0.619923 0
M  V30 1973 H 189.756 -0.152615 2.0393 0
M  V30 1974 H 187.911 -2.43805 3.01062 0
M  V30 1975 H 188.325 -1.51337 5.02192 0
M  V30 1976 H 189.799 -3.1518 4.53172 0
M  V30 1977 H 190.276 -3.34472 2.84649 0
M  V30 1978 H 190.882 -1.95526 3.7769 0
M  V30 1979 N 189.197 -1.51736 -0.425897 0
M  V30 1980 C 190.144 -1.73875 -1.51776 0
M  V30 1981 C 191.114 -0.580702 -1.55618 0
M  V30 1982 O 192.299 -0.81641 -1.72451 0
M  V30 1983 C 189.439 -1.88012 -2.89388 0
M  V30 1984 C 188.552 -3.15606 -2.94986 0
M  V30 1985 C 187.687 -3.20271 -4.23793 0
M  V30 1986 C 186.726 -4.42134 -4.23302 0
M  V30 1987 N 185.863 -4.44284 -5.43651 0
M  V30 1988 H 190.703 -2.67071 -1.32201 0
M  V30 1989 H 188.24 -1.32351 -0.642008 0
M  V30 1990 H 190.198 -1.9419 -3.69251 0
M  V30 1991 H 188.828 -0.98213 -3.07496 0
M  V30 1992 H 187.88 -3.18681 -2.07717 0
M  V30 1993 H 189.192 -4.05486 -2.90486 0
M  V30 1994 H 188.346 -3.25428 -5.12036 0
M  V30 1995 H 187.085 -2.28299 -4.30965 0
M  V30 1996 H 186.09 -4.3714 -3.3345 0
M  V30 1997 H 187.315 -5.35382 -4.17783 0
M  V30 1998 H 185.261 -3.55188 -5.51523 0
M  V30 1999 H 185.178 -5.27988 -5.41078 0
M  V30 2000 H 186.446 -4.53649 -6.33895 0
M  V30 2001 N 190.675 0.682077 -1.42076 0
M  V30 2002 C 192.086 1.26246 -1.37546 0
M  V30 2003 C 192.437 1.96092 -0.0651481 0
M  V30 2004 O 191.562 1.99587 0.836297 0
M  V30 2005 C 192.157 2.29594 -2.49143 0
M  V30 2006 C 190.716 2.83175 -2.47969 0
M  V30 2007 C 189.863 1.57395 -2.28303 0
M  V30 2008 H 192.814 0.475937 -1.51395 0
M  V30 2009 H 192.835 3.11175 -2.18976 0
M  V30 2010 H 192.347 1.78729 -3.44496 0
M  V30 2011 H 190.448 3.3818 -1.56413 0
M  V30 2012 H 190.561 3.32687 -3.44755 0
M  V30 2013 H 188.925 1.83699 -1.76428 0
M  V30 2014 H 189.708 1.08507 -3.25701 0
M  V30 2015 N 192.153 1.28127 0.917671 0
M  V30 2016 C 193.381 1.17892 1.70026 0
M  V30 2017 C 193.796 -0.262958 1.8696 0
M  V30 2018 O 193.153 -1.17811 1.3938 0
M  V30 2019 C 193.204 1.86872 3.09453 0
M  V30 2020 O 192.925 3.25428 2.93306 0
M  V30 2021 C 194.426 1.8289 4.03815 0
M  V30 2022 H 191.646 0.40942 0.531617 0
M  V30 2023 H 194.19 1.69181 1.14883 0
M  V30 2024 H 192.345 1.39464 3.61426 0
M  V30 2025 H 192.759 3.59918 3.81523 0
M  V30 2026 H 194.233 2.35751 4.99125 0
M  V30 2027 H 194.71 0.800412 4.31845 0
M  V30 2028 H 195.316 2.29959 3.57769 0
M  V30 2029 N 193.631 -1.12557 1.10312 0
M  V30 2030 C 195.042 -1.65574 0.862678 0
M  V30 2031 C 195.393 -1.86566 -0.607256 0
M  V30 2032 O 194.518 -1.59121 -1.46662 0
M  V30 2033 C 195.113 -3.00776 1.55947 0
M  V30 2034 C 193.672 -3.50748 1.36576 0
M  V30 2035 C 192.819 -2.25797 1.60968 0
M  V30 2036 H 195.77 -0.963552 1.26101 0
M  V30 2037 H 195.791 -3.67185 0.997753 0
M  V30 2038 H 195.303 -2.85465 2.62928 0
M  V30 2039 H 193.404 -3.71245 0.317531 0
M  V30 2040 H 193.517 -4.30289 2.10686 0
M  V30 2041 H 191.881 -2.32841 1.03234 0
M  V30 2042 H 192.664 -2.13043 2.69198 0
M  V30 2043 N 195.109 -0.891671 -1.2995 0
M  V30 2044 C 196.059 -0.334811 -2.25528 0
M  V30 2045 C 197.043 0.540553 -1.51548 0
M  V30 2046 O 198.235 0.383882 -1.72787 0
M  V30 2047 C 195.364 0.44374 -3.4042 0
M  V30 2048 C 194.45 -0.44609 -4.21747 0
M  V30 2049 N 194.841 -1.54963 -4.81477 0
M  V30 2050 C 193.139 -0.242415 -4.45341 0
M  V30 2051 C 193.84 -2.10015 -5.42465 0
M  V30 2052 N 192.816 -1.39423 -5.25416 0
M  V30 2053 H 196.618 -1.17792 -2.69262 0
M  V30 2054 H 194.132 -0.741822 -1.44467 0
M  V30 2055 H 196.129 0.859362 -4.07947 0
M  V30 2056 H 194.789 1.28421 -2.98225 0
M  V30 2057 H 195.8 -1.93244 -4.80497 0
M  V30 2058 H 192.477 0.560342 -4.13723 0
M  V30 2059 H 193.867 -3.02724 -5.9984 0
M  V30 2060 N 196.587 1.43421 -0.653314 0
M  V30 2061 C 197.517 2.33487 0.0246656 0
M  V30 2062 C 198.498 1.49475 0.811863 0
M  V30 2063 O 199.683 1.78139 0.773322 0
M  V30 2064 C 196.813 3.32841 0.99166 0
M  V30 2065 C 195.767 4.26842 0.314568 0
M  V30 2066 C 195.093 5.16236 1.39302 0
M  V30 2067 C 196.393 5.16243 -0.793095 0
M  V30 2068 H 198.087 2.90427 -0.727481 0
M  V30 2069 H 195.633 1.39649 -0.351287 0
M  V30 2070 H 197.586 3.94747 1.47487 0
M  V30 2071 H 196.31 2.74158 1.77497 0
M  V30 2072 H 194.969 3.663 -0.148199 0
M  V30 2073 H 194.617 4.53891 2.16776 0
M  V30 2074 H 194.317 5.79948 0.945223 0
M  V30 2075 H 195.841 5.81015 1.87759 0
M  V30 2076 H 197.255 5.71958 -0.392039 0
M  V30 2077 H 195.652 5.88676 -1.16536 0
M  V30 2078 H 196.722 4.55927 -1.65103 0
M  V30 2079 N 198.065 0.39524 1.52563 0
M  V30 2080 C 199.342 -0.242908 1.94086 0
M  V30 2081 C 199.722 -1.63841 1.33114 0
M  V30 2082 O 199.07 -2.22928 0.501529 0
M  V30 2083 C 199.28 -0.26327 3.48006 0
M  V30 2084 C 200.628 -0.489354 4.21771 0
M  V30 2085 O 201.652 -0.343226 3.54543 0
M  V30 2086 O 200.511 -0.776169 5.4096 0
M  V30 2087 H 197.605 -0.152536 0.812811 0
M  V30 2088 H 200.151 0.450178 1.6362 0
M  V30 2089 H 198.923 0.713985 3.84731 0
M  V30 2090 H 198.546 -1.00103 3.84792 0
M  V30 2091 N 199.544 -1.57102 0.125237 0
M  V30 2092 C 200.792 -1.95021 -0.530198 0
M  V30 2093 C 201.113 -1.00982 -1.66816 0
M  V30 2094 O 200.383 -0.0672693 -1.95784 0
M  V30 2095 H 198.963 -0.720046 -0.198853 0
M  V30 2096 H 201.625 -1.93916 0.19564 0
M  V30 2097 H 200.721 -2.98211 -0.920681 0
M  V30 2098 N 201.022 0.148545 -1.56898 0
M  V30 2099 C 201.972 1.1886 -1.94567 0
M  V30 2100 C 202.956 1.3863 -0.816735 0
M  V30 2101 O 204.148 1.40218 -1.08018 0
M  V30 2102 C 201.277 2.52262 -2.32849 0
M  V30 2103 C 200.363 2.36092 -3.52309 0
M  V30 2104 N 200.754 1.89674 -4.6889 0
M  V30 2105 C 199.052 2.66848 -3.57363 0
M  V30 2106 C 199.753 1.86511 -5.50989 0
M  V30 2107 N 198.729 2.29766 -4.92655 0
M  V30 2108 H 202.531 0.821793 -2.82177 0
M  V30 2109 H 200.045 0.356615 -1.58436 0
M  V30 2110 H 202.042 3.27447 -2.58039 0
M  V30 2111 H 200.702 2.89727 -1.46589 0
M  V30 2112 H 201.713 1.59663 -4.92674 0
M  V30 2113 H 198.39 3.08198 -2.81639 0
M  V30 2114 H 199.78 1.52128 -6.54452 0
M  V30 2115 N 202.5 1.5196 0.417844 0
M  V30 2116 C 203.45 1.7106 1.5074 0
M  V30 2117 C 204.434 0.564487 1.50673 0
M  V30 2118 O 205.626 0.821206 1.56797 0
M  V30 2119 C 202.755 1.85677 2.88754 0
M  V30 2120 C 201.841 3.06133 2.93502 0
M  V30 2121 N 202.232 4.28987 2.67962 0
M  V30 2122 C 200.53 3.05787 3.24669 0
M  V30 2123 C 201.231 5.10395 2.79055 0
M  V30 2124 N 200.207 4.45455 3.11561 0
M  V30 2125 H 204.009 2.63696 1.29775 0
M  V30 2126 H 201.523 1.49873 0.625436 0
M  V30 2127 H 203.52 1.97475 3.67164 0
M  V30 2128 H 202.18 0.942348 3.10725 0
M  V30 2129 H 203.191 4.57607 2.4252 0
M  V30 2130 H 199.868 2.2405 3.52289 0
M  V30 2131 H 201.258 6.18247 2.63097 0
M  V30 2132 N 203.978 -0.674533 1.42435 0
M  V30 2133 C 205.224 -1.43671 1.43131 0
M  V30 2134 C 205.557 -1.94142 0.0476021 0
M  V30 2135 O 204.832 -1.70924 -0.928188 0
M  V30 2136 C 205.115 -2.63355 2.45594 0
M  V30 2137 C 204.968 -2.18514 3.93156 0
M  V30 2138 C 206.287 -3.65571 2.45043 0
M  V30 2139 H 203.406 -0.521077 0.521198 0
M  V30 2140 H 206.048 -0.766551 1.7385 0
M  V30 2141 H 204.198 -3.2053 2.19528 0
M  V30 2142 H 205.87 -1.66504 4.30202 0
M  V30 2143 H 204.113 -1.50086 4.07009 0
M  V30 2144 H 204.784 -3.04484 4.60428 0
M  V30 2145 H 207.26 -3.18113 2.68223 0
M  V30 2146 H 206.136 -4.46893 3.18713 0
M  V30 2147 H 206.397 -4.16716 1.47649 0
M  V30 2148 N 205.456 -1.28612 -0.910864 0
M  V30 2149 C 206.702 -1.16106 -1.66274 0
M  V30 2150 C 207.035 0.289113 -1.92036 0
M  V30 2151 O 206.31 1.21 -1.52281 0
M  V30 2152 C 206.593 -1.96309 -3.01885 0
M  V30 2153 C 206.446 -3.49405 -2.8326 0
M  V30 2154 C 207.765 -1.78076 -4.02463 0
M  V30 2155 H 204.884 -0.423152 -0.603417 0
M  V30 2156 H 207.526 -1.57961 -1.05586 0
M  V30 2157 H 205.676 -1.60742 -3.53687 0
M  V30 2158 H 207.348 -3.94894 -2.38446 0
M  V30 2159 H 205.591 -3.74893 -2.18261 0
M  V30 2160 H 206.262 -4.00784 -3.79574 0
M  V30 2161 H 208.738 -2.0912 -3.59733 0
M  V30 2162 H 207.614 -2.36561 -4.95308 0
M  V30 2163 H 207.875 -0.733008 -4.35981 0
M  V30 2164 N 206.934 1.1197 -1.10907 0
M  V30 2165 C 208.181 1.83588 -0.854507 0
M  V30 2166 C 208.509 1.84357 0.6199 0
M  V30 2167 O 207.764 1.28809 1.47332 0
M  V30 2168 C 208.063 3.30749 -1.35425 0
M  V30 2169 C 207.729 3.50146 -2.84093 0
M  V30 2170 C 206.391 3.55148 -3.2469 0
M  V30 2171 C 208.743 3.56857 -3.79872 0
M  V30 2172 C 206.071 3.6441 -4.59806 0
M  V30 2173 C 208.423 3.6765 -5.14797 0
M  V30 2174 C 207.087 3.7091 -5.54961 0
M  V30 2175 H 206.357 0.671795 -0.312686 0
M  V30 2176 H 209.004 1.32091 -1.38652 0
M  V30 2177 H 207.309 3.84703 -0.742361 0
M  V30 2178 H 209.006 3.8464 -1.1337 0
M  V30 2179 H 205.596 3.46919 -2.51685 0
M  V30 2180 H 209.78 3.52258 -3.49611 0
M  V30 2181 H 205.036 3.65208 -4.9034 0
M  V30 2182 H 209.21 3.71786 -5.88853 0
M  V30 2183 H 206.837 3.7784 -6.59652 0
M  V30 2184 N 208.412 0.89855 1.29475 0
M  V30 2185 C 209.66 0.522847 1.9522 0
M  V30 2186 C 209.981 -0.93371 1.71192 0
M  V30 2187 O 209.251 -1.65823 1.04305 0
M  V30 2188 H 207.831 0.190366 0.722336 0
M  V30 2189 H 210.493 1.14459 1.5775 0
M  V30 2190 H 209.589 0.704476 3.04045 0
M  V30 2191 N 209.89 -1.43072 0.660911 0
M  V30 2192 C 210.822 -2.29108 -0.0647641 0
M  V30 2193 C 211.835 -1.42928 -0.779448 0
M  V30 2194 O 213.024 -1.66788 -0.635921 0
M  V30 2195 C 210.124 -3.20032 -1.11503 0
M  V30 2196 C 209.297 -4.34792 -0.476955 0
M  V30 2197 C 208.356 -5.06534 -1.42513 0
M  V30 2198 O 207.382 -5.61538 -0.930771 0
M  V30 2199 N 208.584 -5.1075 -2.75889 0
M  V30 2200 H 211.349 -2.92029 0.673731 0
M  V30 2201 H 208.91 -1.53846 0.50427 0
M  V30 2202 H 210.902 -3.64892 -1.75032 0
M  V30 2203 H 209.472 -2.58658 -1.75541 0
M  V30 2204 H 208.692 -3.92752 0.337572 0
M  V30 2205 H 209.98 -5.0879 -0.0318525 0
M  V30 2206 H 209.378 -4.67447 -3.18606 0
M  V30 2207 H 207.935 -5.59302 -3.347 0
M  V30 2208 N 211.368 -0.403325 -1.52352 0
M  V30 2209 C 212.614 0.174605 -2.02047 0
M  V30 2210 C 212.947 1.45282 -1.28867 0
M  V30 2211 O 212.222 1.90483 -0.393257 0
M  V30 2212 C 212.505 0.428238 -3.57545 0
M  V30 2213 C 212.358 -0.866248 -4.4138 0
M  V30 2214 C 213.677 1.21287 -4.23057 0
M  V30 2215 H 210.796 0.0619851 -0.734389 0
M  V30 2216 H 213.438 -0.53565 -1.82293 0
M  V30 2217 H 211.588 1.03327 -3.74507 0
M  V30 2218 H 213.26 -1.50265 -4.3614 0
M  V30 2219 H 211.503 -1.47851 -4.07827 0
M  V30 2220 H 212.174 -0.643249 -5.48239 0
M  V30 2221 H 214.65 0.700703 -4.10158 0
M  V30 2222 H 213.526 1.35909 -5.31808 0
M  V30 2223 H 213.787 2.23193 -3.81625 0
M  V30 2224 N 212.846 1.57033 -0.133567 0
M  V30 2225 C 214.095 1.94861 0.520768 0
M  V30 2226 C 214.408 1.02012 1.66892 0
M  V30 2227 O 215.614 1.29365 2.38699 0
M  V30 2228 C 214.07 3.46362 0.977809 0
M  V30 2229 C 213.678 4.47773 -0.142674 0
M  V30 2230 C 215.422 3.93083 1.60269 0
M  V30 2231 C 213.329 5.90468 0.331883 0
M  V30 2232 H 212.259 0.727453 0.198315 0
M  V30 2233 H 214.91 1.82227 -0.215759 0
M  V30 2234 H 213.292 3.54282 1.7692 0
M  V30 2235 H 214.466 4.51536 -0.919317 0
M  V30 2236 H 212.781 4.10891 -0.675124 0
M  V30 2237 H 215.378 4.97121 1.96914 0
M  V30 2238 H 215.721 3.33876 2.48662 0
M  V30 2239 H 216.254 3.88025 0.876453 0
M  V30 2240 H 212.993 6.53463 -0.516341 0
M  V30 2241 H 212.513 5.90094 1.07469 0
M  V30 2242 H 214.192 6.42179 0.788332 0
M  V30 2243 N 214.325 -0.140222 1.56975 0
M  V30 2244 C 215.55 -0.870414 1.88251 0
M  V30 2245 C 215.975 -1.73637 0.723312 0
M  V30 2246 O 215.333 -1.78329 -0.32689 0
M  V30 2247 C 215.381 -1.69737 3.18154 0
M  V30 2248 O 214.485 -2.80229 3.02565 0
M  V30 2249 H 213.826 -0.242025 0.61832 0
M  V30 2250 H 216.356 -0.128999 2.04193 0
M  V30 2251 H 216.366 -2.09099 3.50345 0
M  V30 2252 H 215.041 -1.06152 4.02125 0
M  V30 2253 H 213.618 -2.44224 2.81796 0
M  V30 2254 N 215.803 -1.52179 -0.40978 0
M  V30 2255 C 217.051 -1.65878 -1.15451 0
M  V30 2256 C 217.372 -0.390771 -1.91044 0
M  V30 2257 O 216.642 0.594323 -1.86667 0
M  V30 2258 H 215.222 -0.611405 -0.429177 0
M  V30 2259 H 217.884 -1.89219 -0.467134 0
M  V30 2260 H 216.98 -2.49954 -1.86894 0
M  V30 2261 N 217.281 0.66697 -1.42791 0
M  V30 2262 C 218.213 1.7925 -1.42836 0
M  V30 2263 C 219.226 1.59496 -0.326333 0
M  V30 2264 O 220.415 1.6847 -0.589916 0
M  V30 2265 C 217.515 3.16476 -1.21229 0
M  V30 2266 C 216.688 3.63011 -2.44013 0
M  V30 2267 C 215.747 4.78993 -2.17834 0
M  V30 2268 O 214.773 4.89137 -2.91091 0
M  V30 2269 N 215.975 5.68248 -1.18635 0
M  V30 2270 H 218.74 1.79695 -2.39854 0
M  V30 2271 H 216.301 0.850338 -1.37771 0
M  V30 2272 H 218.293 3.91734 -1.01621 0
M  V30 2273 H 216.863 3.10884 -0.32706 0
M  V30 2274 H 216.083 2.78346 -2.79137 0
M  V30 2275 H 217.371 3.90845 -3.25757 0
M  V30 2276 H 216.769 5.62712 -0.580615 0
M  V30 2277 H 215.326 6.43285 -1.05013 0
M  V30 2278 N 218.759 1.29093 0.90403 0
M  V30 2279 C 219.669 1.15727 2.0407 0
M  V30 2280 C 220.685 0.0815308 1.73809 0
M  V30 2281 O 221.861 0.292749 1.99261 0
M  V30 2282 C 218.926 0.830424 3.36608 0
M  V30 2283 C 217.987 1.98955 3.80415 0
M  V30 2284 C 217.22 1.6782 5.06628 0
M  V30 2285 O 217.443 0.597105 5.67266 0
M  V30 2286 O 216.377 2.52486 5.46383 0
M  V30 2287 H 220.203 2.11171 2.18267 0
M  V30 2288 H 217.788 1.08504 1.027 0
M  V30 2289 H 219.67 0.662521 4.16159 0
M  V30 2290 H 218.345 -0.0942678 3.23563 0
M  V30 2291 H 217.252 2.21267 3.01648 0
M  V30 2292 H 218.585 2.89529 3.98037 0
M  V30 2293 N 220.237 -1.11381 1.11499 0
M  V30 2294 C 221.483 -1.83403 0.865512 0
M  V30 2295 C 221.816 -1.84459 -0.607329 0
M  V30 2296 O 221.091 -1.29811 -1.44842 0
M  V30 2297 C 221.374 -3.30552 1.42855 0
M  V30 2298 C 221.227 -3.37886 2.96906 0
M  V30 2299 C 222.546 -4.26643 1.08 0
M  V30 2300 H 219.665 -0.665879 0.31587 0
M  V30 2301 H 222.307 -1.30601 1.37998 0
M  V30 2302 H 220.457 -3.75648 0.990985 0
M  V30 2303 H 222.129 -3.01343 3.49271 0
M  V30 2304 H 220.372 -2.78088 3.32941 0
M  V30 2305 H 221.043 -4.41458 3.31389 0
M  V30 2306 H 223.519 -3.89729 1.45775 0
M  V30 2307 H 222.395 -5.27986 1.50072 0
M  V30 2308 H 222.656 -4.42099 -0.00915037 0
M  V30 2309 N 221.715 -0.905404 -1.28997 0
M  V30 2310 C 222.961 -0.535039 -1.95615 0
M  V30 2311 C 223.294 0.917404 -1.71165 0
M  V30 2312 O 222.569 1.65123 -1.02785 0
M  V30 2313 C 222.852 -0.834918 -3.50287 0
M  V30 2314 C 222.705 -2.33948 -3.84172 0
M  V30 2315 C 224.024 -0.325318 -4.38896 0
M  V30 2316 H 221.143 -0.195861 -0.710498 0
M  V30 2317 H 223.785 -1.13313 -1.52513 0
M  V30 2318 H 221.935 -0.325904 -3.87131 0
M  V30 2319 H 223.607 -2.91847 -3.57243 0
M  V30 2320 H 221.85 -2.79789 -3.31513 0
M  V30 2321 H 222.521 -2.49987 -4.92149 0
M  V30 2322 H 224.997 -0.761256 -4.09077 0
M  V30 2323 H 223.873 -0.564295 -5.45992 0
M  V30 2324 H 224.134 0.774144 -4.35269 0
M  V30 2325 N 223.193 1.4272 -0.668489 0
M  V30 2326 C 224.609 1.55992 -0.33745 0
M  V30 2327 C 224.809 1.64933 1.15756 0
M  V30 2328 O 223.865 1.61278 1.94282 0
M  V30 2329 C 225.178 2.81314 -1.06222 0
M  V30 2330 C 226.726 2.95078 -1.04394 0
M  V30 2331 C 227.201 4.23252 -1.74991 0
M  V30 2332 N 228.692 4.3015 -1.71829 0
M  V30 2333 C 229.427 5.28127 -2.23315 0
M  V30 2334 N 228.923 6.32293 -2.83156 0
M  V30 2335 N 230.716 5.19882 -2.13726 0
M  V30 2336 H 222.867 1.3516 -1.63846 0
M  V30 2337 H 225.13 0.650174 -0.689912 0
M  V30 2338 H 224.836 2.80823 -2.11734 0
M  V30 2339 H 224.71 3.72012 -0.62344 0
M  V30 2340 H 227.097 2.951 0.0028244 0
M  V30 2341 H 227.178 2.05627 -1.52155 0
M  V30 2342 H 226.822 4.2399 -2.79633 0
M  V30 2343 H 226.752 5.11626 -1.24685 0
M  V30 2344 H 229.243 3.55499 -1.28175 0
M  V30 2345 H 229.556 7.03398 -3.20079 0
M  V30 2346 H 227.901 6.32873 -2.87223 0
M  V30 2347 H 231.092 4.37423 -1.66669 0
M  V30 2348 H 231.265 5.96077 -2.54158 0
M  V30 2349 N 224.671 0.411399 1.52136 0
M  V30 2350 C 225.581 -0.419774 2.30814 0
M  V30 2351 C 226.597 -1.0515 1.38634 0
M  V30 2352 O 227.773 -1.05252 1.71709 0
M  V30 2353 C 224.838 -1.52019 3.11594 0
M  V30 2354 C 223.899 -0.91129 4.19516 0
M  V30 2355 C 223.132 -1.95927 4.96436 0
M  V30 2356 O 223.355 -3.17775 4.73683 0
M  V30 2357 O 222.289 -1.56423 5.81219 0
M  V30 2358 H 226.115 0.221805 3.02889 0
M  V30 2359 H 223.7 0.174547 1.48377 0
M  V30 2360 H 225.582 -2.15898 3.61892 0
M  V30 2361 H 224.257 -2.14633 2.42311 0
M  V30 2362 H 223.164 -0.235157 3.7336 0
M  V30 2363 H 224.497 -0.32904 4.91099 0
M  V30 2364 N 226.149 -1.5696 0.141893 0
M  V30 2365 C 227.398 -1.95135 -0.510427 0
M  V30 2366 C 227.711 -1.02896 -1.66348 0
M  V30 2367 O 228.917 -1.30629 -2.38009 0
M  V30 2368 C 227.373 -3.46876 -0.959427 0
M  V30 2369 C 226.981 -4.47691 0.166419 0
M  V30 2370 C 228.725 -3.93927 -1.58183 0
M  V30 2371 C 226.632 -5.90636 -0.300565 0
M  V30 2372 H 225.562 -0.728494 -0.194454 0
M  V30 2373 H 228.213 -1.8211 0.22542 0
M  V30 2374 H 226.595 -3.55215 -1.75038 0
M  V30 2375 H 227.769 -4.51043 0.94325 0
M  V30 2376 H 226.084 -4.10527 0.696905 0
M  V30 2377 H 228.681 -4.98158 -1.94275 0
M  V30 2378 H 229.024 -3.3519 -2.46888 0
M  V30 2379 H 229.557 -3.88484 -0.855863 0
M  V30 2380 H 226.296 -6.5318 0.550989 0
M  V30 2381 H 225.816 -5.90655 -1.04338 0
M  V30 2382 H 227.495 -6.42588 -0.754265 0
M  V30 2383 N 227.627 0.131896 -1.57047 0
M  V30 2384 C 228.537 1.1815 -2.02676 0
M  V30 2385 C 229.553 1.46113 -0.944824 0
M  V30 2386 O 230.729 1.57485 -1.25541 0
M  V30 2387 C 227.794 2.49139 -2.41103 0
M  V30 2388 C 226.855 2.28688 -3.63318 0
M  V30 2389 C 226.088 3.53431 -3.99903 0
M  V30 2390 O 226.311 4.60223 -3.36973 0
M  V30 2391 O 225.245 3.45198 -4.93074 0
M  V30 2392 H 229.071 0.824069 -2.92306 0
M  V30 2393 H 226.656 0.341745 -1.45439 0
M  V30 2394 H 228.538 3.26338 -2.66611 0
M  V30 2395 H 227.213 2.84382 -1.54624 0
M  V30 2396 H 226.12 1.4939 -3.42977 0
M  V30 2397 H 227.453 1.98355 -4.50462 0
M  V30 2398 N 229.106 1.52395 0.401703 0
M  V30 2399 C 230.054 1.7689 1.51039 0
M  V30 2400 C 231.048 0.636298 1.56996 0
M  V30 2401 O 232.254 0.818507 1.60314 0
M  V30 2402 H 228.629 0.559502 0.502456 0
M  V30 2403 H 230.6 2.69757 1.27568 0
M  V30 2404 C 229.349 1.94331 2.88324 0
M  V30 2405 H 228.672 2.80905 2.84486 0
M  V30 2406 H 230.112 2.15466 3.65172 0
M  V30 2407 C 228.571 0.712396 3.29282 0
M  V30 2408 O 229.101 -0.116218 4.01532 0
M  V30 2409 N 227.307 0.546154 2.85422 0
M  V30 2410 H 226.854 1.22156 2.26794 0
M  V30 2411 H 226.812 -0.276113 3.13185 0
M  V30 2412 N 230.584 -0.659388 1.43143 0
M  V30 2413 C 231.516 -1.7849 1.43784 0
M  V30 2414 C 232.529 -1.5932 0.334787 0
M  V30 2415 O 233.718 -1.68155 0.598842 0
M  V30 2416 C 230.818 -3.15828 1.22906 0
M  V30 2417 C 229.991 -3.61711 2.45934 0
M  V30 2418 C 229.05 -4.77831 2.20371 0
M  V30 2419 O 228.076 -4.87586 2.93681 0
M  V30 2420 N 229.278 -5.67611 1.21647 0
M  V30 2421 H 232.043 -1.7842 2.40803 0
M  V30 2422 H 229.604 -0.84302 1.3822 0
M  V30 2423 H 231.596 -3.91189 1.03697 0
M  V30 2424 H 230.166 -3.10707 0.343542 0
M  V30 2425 H 229.386 -2.76861 2.80609 0
M  V30 2426 H 230.674 -3.89112 3.27825 0
M  V30 2427 H 230.072 -5.62397 0.610449 0
M  V30 2428 H 228.629 -6.42719 1.08423 0
M  V30 2429 N 232.062 -1.29571 -0.897171 0
M  V30 2430 C 233.009 -1.14916 -2.00158 0
M  V30 2431 C 233.979 -0.0418149 -1.66047 0
M  V30 2432 O 235.164 -0.209793 -1.89643 0
M  V30 2433 C 232.304 -0.834307 -3.34863 0
M  V30 2434 C 231.417 -2.02234 -3.8174 0
M  V30 2435 C 230.552 -1.64664 -5.05034 0
M  V30 2436 C 229.591 -2.80033 -5.44286 0
M  V30 2437 N 228.728 -2.42843 -6.58765 0
M  V30 2438 H 233.568 -2.09403 -2.12025 0
M  V30 2439 H 231.105 -1.042 -1.0383 0
M  V30 2440 H 233.063 -0.632436 -4.12379 0
M  V30 2441 H 231.693 0.0736656 -3.22716 0
M  V30 2442 H 230.745 -2.33583 -3.00238 0
M  V30 2443 H 232.057 -2.88673 -4.06779 0
M  V30 2444 H 231.211 -1.4078 -5.9014 0
M  V30 2445 H 229.95 -0.753766 -4.8184 0
M  V30 2446 H 228.955 -3.04596 -4.57713 0
M  V30 2447 H 230.18 -3.69989 -5.6946 0
M  V30 2448 H 228.126 -1.56046 -6.3717 0
M  V30 2449 H 228.043 -3.22815 -6.83613 0
M  V30 2450 H 229.311 -2.22285 -7.47134 0
M  V30 2451 N 233.54 1.10788 -1.12088 0
M  V30 2452 C 234.768 1.86461 -0.896651 0
M  V30 2453 C 235.183 1.80492 0.553912 0
M  V30 2454 O 234.54 1.19102 1.38278 0
M  V30 2455 C 234.591 3.35006 -1.35843 0
M  V30 2456 O 234.312 3.40866 -2.75213 0
M  V30 2457 C 235.813 4.27565 -1.1706 0
M  V30 2458 H 233.033 0.589425 -0.320654 0
M  V30 2459 H 235.577 1.40076 -1.48993 0
M  V30 2460 H 233.732 3.7887 -0.808458 0
M  V30 2461 H 234.146 4.33411 -2.9539 0
M  V30 2462 H 235.62 5.30007 -1.54263 0
M  V30 2463 H 236.097 4.3906 -0.110814 0
M  V30 2464 H 236.703 3.89501 -1.70789 0
M  V30 2465 N 235.018 0.912232 1.28515 0
M  V30 2466 C 236.295 0.463597 1.90027 0
M  V30 2467 C 236.675 -1.05753 1.82701 0
M  V30 2468 O 236.023 -1.90492 1.26194 0
M  V30 2469 C 236.233 0.992253 3.34597 0
M  V30 2470 C 237.581 1.04344 4.11579 0
M  V30 2471 O 238.605 0.94079 3.43551 0
M  V30 2472 O 237.464 1.1995 5.33174 0
M  V30 2473 H 234.558 0.146666 0.813891 0
M  V30 2474 H 237.104 1.00292 1.36893 0
M  V30 2475 H 235.876 2.03623 3.34146 0
M  V30 2476 H 235.499 0.433672 3.95228 0
M  V30 2477 N 236.496 -1.42363 0.676048 0
M  V30 2478 C 237.459 -2.29199 0.00766941 0
M  V30 2479 C 238.459 -1.43389 -0.727745 0
M  V30 2480 O 239.649 -1.64764 -0.56556 0
M  V30 2481 C 236.781 -3.2591 -0.999785 0
M  V30 2482 H 237.974 -2.89794 0.771988 0
M  V30 2483 H 235.527 -1.50024 0.438468 0
M  V30 2484 H 236.262 -2.70256 -1.79255 0
M  V30 2485 H 236.047 -3.89202 -0.475829 0
M  V30 2486 H 237.537 -3.91028 -1.46583 0
M  V30 2487 N 237.974 -0.419461 -1.51915 0
M  V30 2488 C 238.937 0.389116 -2.25873 0
M  V30 2489 C 239.937 0.964924 -1.28631 0
M  V30 2490 O 241.127 0.842179 -1.52489 0
M  V30 2491 C 238.259 1.54874 -3.03689 0
M  V30 2492 H 239.452 -0.258799 -2.98781 0
M  V30 2493 H 237.005 -0.172209 -1.55348 0
M  V30 2494 H 237.74 2.23323 -2.35154 0
M  V30 2495 H 237.525 1.14223 -3.75094 0
M  V30 2496 H 239.015 2.12046 -3.59759 0
M  V30 2497 N 239.452 1.56882 -0.150215 0
M  V30 2498 C 240.677 2.01027 0.510184 0
M  V30 2499 C 241.102 1.02966 1.57415 0
M  V30 2500 O 240.46 0.00590158 1.81299 0
M  V30 2501 C 240.508 3.43899 1.08472 0
M  V30 2502 O 239.612 3.4885 2.19948 0
M  V30 2503 H 238.953 0.652233 0.124451 0
M  V30 2504 H 241.483 2.03093 -0.247894 0
M  V30 2505 H 241.493 3.82766 1.41259 0
M  V30 2506 H 240.168 4.14776 0.305582 0
M  V30 2507 H 238.745 3.21827 1.88366 0
M  V30 2508 N 240.93 -0.123565 1.57115 0
M  V30 2509 C 241.877 -1.15177 2.00007 0
M  V30 2510 C 242.847 -1.41403 0.871454 0
M  V30 2511 O 244.032 -1.53346 1.13533 0
M  V30 2512 C 241.172 -2.47436 2.40561 0
M  V30 2513 C 240.285 -2.28184 3.66819 0
M  V30 2514 C 239.42 -3.53641 3.96373 0
M  V30 2515 C 238.459 -3.29528 5.15827 0
M  V30 2516 N 237.596 -4.47175 5.41275 0
M  V30 2517 H 242.436 -0.779008 2.87638 0
M  V30 2518 H 239.973 -0.373166 1.42288 0
M  V30 2519 H 241.931 -3.24584 2.62109 0
M  V30 2520 H 240.561 -2.82614 1.55978 0
M  V30 2521 H 239.613 -1.41976 3.52912 0
M  V30 2522 H 240.925 -2.0634 4.5412 0
M  V30 2523 H 240.079 -4.39209 4.18545 0
M  V30 2524 H 238.818 -3.78512 3.07538 0
M  V30 2525 H 237.823 -2.42349 4.93505 0
M  V30 2526 H 239.048 -3.06031 6.06236 0
M  V30 2527 H 236.994 -4.72175 4.55397 0
M  V30 2528 H 236.911 -4.28419 6.22891 0
M  V30 2529 H 238.179 -5.3389 5.67963 0
M  V30 2530 N 242.408 -1.52605 -0.393616 0
M  V30 2531 C 243.819 -1.59417 -0.971761 0
M  V30 2532 C 244.17 -0.444173 -1.91106 0
M  V30 2533 O 243.295 0.433382 -2.12016 0
M  V30 2534 C 243.89 -2.88936 -1.76921 0
M  V30 2535 C 242.449 -2.98175 -2.29714 0
M  V30 2536 C 241.596 -2.54491 -1.10135 0
M  V30 2537 H 244.547 -1.57751 -0.173317 0
M  V30 2538 H 244.568 -2.75163 -2.62804 0
M  V30 2539 H 244.08 -3.72616 -1.08532 0
M  V30 2540 H 242.181 -2.19024 -3.01429 0
M  V30 2541 H 242.294 -4.02726 -2.59517 0
M  V30 2542 H 240.658 -2.08702 -1.45999 0
M  V30 2543 H 241.441 -3.4056 -0.432874 0
M  V30 2544 N 243.887 0.651787 -1.4349 0
M  V30 2545 C 245.134 1.41167 -1.45183 0
M  V30 2546 C 245.462 1.94349 -0.0766601 0
M  V30 2547 O 244.717 1.72804 0.918555 0
M  V30 2548 C 245.016 2.60914 -2.44251 0
M  V30 2549 C 244.682 2.26142 -3.9009 0
M  V30 2550 C 243.344 2.16371 -4.2981 0
M  V30 2551 C 245.696 1.98334 -4.81989 0
M  V30 2552 C 243.024 1.7695 -5.5938 0
M  V30 2553 C 245.376 1.6041 -6.11924 0
M  V30 2554 C 244.04 1.49166 -6.5062 0
M  V30 2555 H 243.31 0.516566 -0.531263 0
M  V30 2556 H 245.957 0.741099 -1.76579 0
M  V30 2557 H 244.262 3.3311 -2.06265 0
M  V30 2558 H 245.959 3.19127 -2.42815 0
M  V30 2559 H 242.549 2.34658 -3.58655 0
M  V30 2560 H 246.733 2.04803 -4.52072 0
M  V30 2561 H 241.989 1.66831 -5.88198 0
M  V30 2562 H 246.163 1.37925 -6.82605 0
M  V30 2563 H 243.79 1.1839 -7.50925 0
M  V30 2564 N 245.365 1.30045 0.890287 0
M  V30 2565 C 246.328 1.15963 1.977 0
M  V30 2566 C 247.328 0.0923777 1.60534 0
M  V30 2567 O 248.518 0.340071 1.70848 0
M  V30 2568 C 245.65 0.775451 3.31963 0
M  V30 2569 H 246.843 2.12502 2.11619 0
M  V30 2570 H 244.396 1.13366 1.07601 0
M  V30 2571 H 245.131 -0.189671 3.23745 0
M  V30 2572 H 244.916 1.54668 3.60306 0
M  V30 2573 H 246.406 0.700251 4.11687 0
M  V30 2574 N 246.843 -1.10192 1.12674 0
M  V30 2575 C 247.753 -2.20172 0.810026 0
M  V30 2576 C 248.769 -1.72821 -0.202188 0
M  V30 2577 O 249.945 -2.01369 -0.0351691 0
M  V30 2578 C 247.01 -3.45631 0.272007 0
M  V30 2579 C 246.071 -4.07704 1.34447 0
M  V30 2580 C 245.304 -5.27175 0.832029 0
M  V30 2581 O 245.527 -5.69425 -0.333284 0
M  V30 2582 O 244.461 -5.80168 1.60277 0
M  V30 2583 H 248.287 -2.49701 1.72867 0
M  V30 2584 H 245.872 -1.18977 0.903597 0
M  V30 2585 H 247.754 -4.21394 -0.0230219 0
M  V30 2586 H 246.429 -3.17723 -0.619164 0
M  V30 2587 H 245.336 -3.33614 1.6927 0
M  V30 2588 H 246.669 -4.3982 2.2095 0
M  V30 2589 N 248.321 -0.919034 -1.28029 0
M  V30 2590 C 249.567 -0.555757 -1.95036 0
M  V30 2591 C 249.9 0.899198 -1.72128 0
M  V30 2592 O 249.175 1.64023 -1.04531 0
M  V30 2593 C 249.458 -0.872024 -3.49382 0
M  V30 2594 C 249.311 -2.3801 -3.81669 0
M  V30 2595 C 250.63 -0.37185 -4.38526 0
M  V30 2596 H 247.749 -0.203386 -0.708381 0
M  V30 2597 H 250.391 -1.14924 -1.51303 0
M  V30 2598 H 248.541 -0.366946 -3.86763 0
M  V30 2599 H 250.213 -2.9562 -3.54128 0
M  V30 2600 H 248.456 -2.83289 -3.28526 0
M  V30 2601 H 249.127 -2.55192 -4.8947 0
M  V30 2602 H 251.603 -0.804602 -4.08247 0
M  V30 2603 H 250.479 -0.622173 -5.45362 0
M  V30 2604 H 250.74 0.727934 -4.36066 0
M  V30 2605 N 249.799 1.42003 -0.683588 0
M  V30 2606 C 251.215 1.55625 -0.353976 0
M  V30 2607 C 251.415 1.66151 1.14 0
M  V30 2608 O 250.471 1.63329 1.92561 0
M  V30 2609 C 251.784 2.80171 -1.092 0
M  V30 2610 C 253.332 2.93954 -1.07518 0
M  V30 2611 C 253.807 4.21372 -1.79471 0
M  V30 2612 N 255.298 4.28303 -1.76381 0
M  V30 2613 C 256.033 5.25729 -2.28904 0
M  V30 2614 N 255.529 6.29254 -2.89846 0
M  V30 2615 N 257.322 5.17586 -2.19228 0
M  V30 2616 H 249.473 1.33415 -1.6527 0
M  V30 2617 H 251.736 0.64282 -0.696769 0
M  V30 2618 H 251.442 2.78561 -2.14701 0
M  V30 2619 H 251.316 3.7133 -0.662862 0
M  V30 2620 H 253.703 2.95086 -0.028475 0
M  V30 2621 H 253.784 2.04002 -1.54328 0
M  V30 2622 H 253.428 4.21001 -2.84114 0
M  V30 2623 H 253.358 5.10275 -1.30104 0
M  V30 2624 H 255.849 3.54119 -1.31939 0
M  V30 2625 H 256.162 6.99964 -3.27522 0
M  V30 2626 H 254.507 6.29791 -2.93919 0
M  V30 2627 H 257.698 4.35631 -1.71299 0
M  V30 2628 H 257.871 5.93348 -2.60466 0
M  V30 2629 N 251.277 0.427512 1.51691 0
M  V30 2630 C 252.526 -0.143679 2.01188 0
M  V30 2631 C 252.839 -1.44642 1.31674 0
M  V30 2632 O 254.045 -2.09997 1.72086 0
M  V30 2633 C 252.501 -0.306602 3.58592 0
M  V30 2634 C 252.109 0.985125 4.37035 0
M  V30 2635 C 253.853 -0.832091 4.16265 0
M  V30 2636 C 251.76 0.788382 5.86122 0
M  V30 2637 H 250.69 -0.0574701 0.751807 0
M  V30 2638 H 253.341 0.555772 1.74881 0
M  V30 2639 H 251.723 -1.06882 3.81303 0
M  V30 2640 H 252.897 1.75492 4.26074 0
M  V30 2641 H 251.212 1.4384 3.90767 0
M  V30 2642 H 253.809 -0.995617 5.25349 0
M  V30 2643 H 254.152 -1.81186 3.74803 0
M  V30 2644 H 254.685 -0.128444 3.97593 0
M  V30 2645 H 251.424 1.74025 6.31978 0
M  V30 2646 H 250.944 0.0582143 5.99772 0
M  V30 2647 H 252.623 0.437722 6.45518 0
M  V30 2648 N 252.755 -1.56801 0.158532 0
M  V30 2649 C 253.685 -2.20347 -0.772609 0
M  V30 2650 C 254.666 -1.15518 -1.24859 0
M  V30 2651 O 255.851 -1.43902 -1.30406 0
M  V30 2652 C 252.981 -2.83417 -2.00729 0
M  V30 2653 C 251.935 -3.94174 -1.66765 0
M  V30 2654 C 251.261 -4.44233 -2.97592 0
M  V30 2655 C 252.561 -5.14392 -0.905447 0
M  V30 2656 H 254.255 -2.98413 -0.242959 0
M  V30 2657 H 251.801 -1.43537 -0.115419 0
M  V30 2658 H 253.754 -3.26543 -2.6636 0
M  V30 2659 H 252.478 -2.02701 -2.56086 0
M  V30 2660 H 251.137 -3.51684 -1.03508 0
M  V30 2661 H 250.785 -3.60325 -3.50963 0
M  V30 2662 H 250.485 -5.18945 -2.75626 0
M  V30 2663 H 252.009 -4.90037 -3.64274 0
M  V30 2664 H 253.423 -5.5429 -1.46408 0
M  V30 2665 H 251.82 -5.9494 -0.7853 0
M  V30 2666 H 252.89 -4.84795 0.100668 0
M  V30 2667 N 254.233 0.115231 -1.57178 0
M  V30 2668 C 255.458 0.840354 -1.89612 0
M  V30 2669 C 255.883 1.72464 -0.750845 0
M  V30 2670 O 255.241 1.78826 0.298478 0
M  V30 2671 C 255.289 1.64654 -3.20814 0
M  V30 2672 O 254.393 2.7538 -3.06985 0
M  V30 2673 H 253.734 0.232158 -0.622092 0
M  V30 2674 H 256.264 0.0964977 -2.04372 0
M  V30 2675 H 256.274 2.03499 -3.53627 0
M  V30 2676 H 254.949 0.997416 -4.03763 0
M  V30 2677 H 253.526 2.3971 -2.85646 0
M  V30 2678 N 255.711 1.52812 0.385517 0
M  V30 2679 C 256.951 1.69716 1.13911 0
M  V30 2680 C 257.315 0.42962 1.87132 0
M  V30 2681 O 258.516 0.475071 2.64569 0
M  V30 2682 C 256.787 2.90021 2.0886 0
M  V30 2683 S 258.346 3.27531 2.92009 0
M  V30 2684 H 255.164 0.59739 0.385547 0
M  V30 2685 H 257.766 1.90868 0.423061 0
M  V30 2686 H 256.47 3.80493 1.53797 0
M  V30 2687 H 256.001 2.71213 2.84969 0
M  V30 2688 H 258.016 2.77989 4.11019 0
M  V30 2689 N 257.189 -0.644168 1.43834 0
M  V30 2690 C 258.437 -1.40117 1.45642 0
M  V30 2691 C 258.758 -1.94814 0.0852413 0
M  V30 2692 O 258.028 -1.74988 -0.880688 0
M  V30 2693 H 256.608 -0.52005 0.536243 0
M  V30 2694 H 259.27 -0.7591 1.7951 0
M  V30 2695 H 258.366 -2.23902 2.17427 0
M  V30 2696 N 258.668 -1.30515 -0.883378 0
M  V30 2697 C 259.578 -1.18959 -2.02203 0
M  V30 2698 C 260.594 -0.109172 -1.73657 0
M  V30 2699 O 261.77 -0.324413 -1.9877 0
M  V30 2700 C 258.835 -0.883871 -3.35244 0
M  V30 2701 C 257.896 -2.04982 -3.77201 0
M  V30 2702 C 257.129 -1.75859 -5.03894 0
M  V30 2703 O 257.352 -0.687276 -5.66244 0
M  V30 2704 O 256.286 -2.61146 -5.42297 0
M  V30 2705 H 260.112 -2.14616 -2.1488 0
M  V30 2706 H 257.697 -1.10124 -1.0096 0
M  V30 2707 H 259.579 -0.728644 -4.15053 0
M  V30 2708 H 258.254 0.0427798 -3.23672 0
M  V30 2709 H 257.161 -2.26038 -2.9809 0
M  V30 2710 H 258.494 -2.95825 -3.93381 0
M  V30 2711 N 260.146 1.09593 -1.13257 0
M  V30 2712 C 261.076 2.18214 -0.830946 0
M  V30 2713 C 262.057 1.68812 0.208966 0
M  V30 2714 O 263.242 1.9408 0.0682666 0
M  V30 2715 C 260.372 3.46051 -0.294296 0
M  V30 2716 C 259.326 4.08778 -1.26826 0
M  V30 2717 C 258.652 5.31419 -0.591449 0
M  V30 2718 C 259.952 4.51476 -2.62615 0
M  V30 2719 H 261.646 2.43703 -1.73923 0
M  V30 2720 H 259.192 1.17128 -0.837675 0
M  V30 2721 H 261.145 4.2134 -0.0709606 0
M  V30 2722 H 259.869 3.20079 0.649366 0
M  V30 2723 H 258.528 3.35505 -1.47756 0
M  V30 2724 H 258.176 5.01727 0.357633 0
M  V30 2725 H 257.876 5.74341 -1.24123 0
M  V30 2726 H 259.4 6.09433 -0.377355 0
M  V30 2727 H 260.814 5.17999 -2.45663 0
M  V30 2728 H 259.211 5.05277 -3.23752 0
M  V30 2729 H 260.281 3.63962 -3.20406 0
M  V30 2730 N 261.624 0.925811 1.2754 0
M  V30 2731 C 262.873 0.561084 1.93739 0
M  V30 2732 C 263.186 -0.901685 1.73577 0
M  V30 2733 O 264.392 -1.37511 2.34101 0
M  V30 2734 C 262.848 0.952668 3.47062 0
M  V30 2735 C 262.456 2.43599 3.75983 0
M  V30 2736 C 264.2 0.659103 4.19352 0
M  V30 2737 C 262.107 2.76707 5.22673 0
M  V30 2738 H 261.037 0.206122 0.725279 0
M  V30 2739 H 263.688 1.12637 1.44863 0
M  V30 2740 H 262.07 0.316053 3.94737 0
M  V30 2741 H 263.244 3.12035 3.39073 0
M  V30 2742 H 261.559 2.70125 3.16893 0
M  V30 2743 H 264.156 0.882985 5.27359 0
M  V30 2744 H 264.499 -0.403607 4.14339 0
M  V30 2745 H 265.032 1.25473 3.77494 0
M  V30 2746 H 261.771 3.8188 5.32774 0
M  V30 2747 H 261.291 2.12919 5.60737 0
M  V30 2748 H 262.97 2.6435 5.90532 0
M  V30 2749 N 263.102 -1.41638 0.69111 0
M  V30 2750 C 264.513 -1.84346 0.295517 0
M  V30 2751 C 264.864 -1.57833 -1.16547 0
M  V30 2752 O 263.989 -1.04648 -1.89414 0
M  V30 2753 C 264.584 -3.34636 0.529575 0
M  V30 2754 C 263.143 -3.7593 0.187944 0
M  V30 2755 C 262.29 -2.65082 0.814052 0
M  V30 2756 H 265.241 -1.31253 0.892092 0
M  V30 2757 H 265.262 -3.79903 -0.213148 0
M  V30 2758 H 264.774 -3.53901 1.59297 0
M  V30 2759 H 262.875 -3.62268 -0.871367 0
M  V30 2760 H 262.988 -4.74808 0.63985 0
M  V30 2761 H 261.352 -2.53528 0.244017 0
M  V30 2762 H 262.135 -2.87167 1.88123 0
M  V30 2763 N 264.58 -0.43555 -1.51462 0
M  V30 2764 C 265.527 0.376797 -2.27703 0
M  V30 2765 C 266.497 1.01838 -1.31219 0
M  V30 2766 O 267.682 1.03762 -1.60119 0
M  V30 2767 C 264.822 1.47301 -3.12084 0
M  V30 2768 C 263.935 0.849744 -4.2356 0
M  V30 2769 C 263.07 1.92086 -4.95254 0
M  V30 2770 C 262.109 1.27593 -5.98654 0
M  V30 2771 N 261.246 2.28833 -6.63762 0
M  V30 2772 H 266.086 -0.279734 -2.96684 0
M  V30 2773 H 263.623 -0.149795 -1.46335 0
M  V30 2774 H 265.581 2.11984 -3.59331 0
M  V30 2775 H 264.211 2.0992 -2.45221 0
M  V30 2776 H 263.263 0.0912529 -3.80291 0
M  V30 2777 H 264.575 0.338878 -4.97648 0
M  V30 2778 H 263.729 2.64435 -5.46039 0
M  V30 2779 H 262.468 2.46545 -4.20793 0
M  V30 2780 H 261.473 0.537893 -5.47162 0
M  V30 2781 H 262.698 0.738693 -6.7507 0
M  V30 2782 H 260.644 2.82375 -5.92115 0
M  V30 2783 H 260.561 1.82632 -7.33608 0
M  V30 2784 H 261.829 3.00671 -7.19178 0
M  V30 2785 N 266.058 1.56714 -0.166846 0
M  V30 2786 C 267.283 2.01557 0.488833 0
M  V30 2787 C 267.708 1.0463 1.56314 0
M  V30 2788 O 267.066 0.0251304 1.81283 0
M  V30 2789 C 267.114 3.4503 1.04818 0
M  V30 2790 O 266.218 3.51163 2.16236 0
M  V30 2791 H 265.559 0.653516 0.117526 0
M  V30 2792 H 268.089 2.02818 -0.269421 0
M  V30 2793 H 268.099 3.84243 1.37191 0
M  V30 2794 H 266.774 4.15077 0.261572 0
M  V30 2795 H 265.351 3.23807 1.84942 0
M  V30 2796 N 267.536 -0.106894 1.57237 0
M  V30 2797 C 268.483 -1.13049 2.01217 0
M  V30 2798 C 269.453 -1.40471 0.886403 0
M  V30 2799 O 270.638 -1.52133 1.15153 0
M  V30 2800 C 267.778 -2.4487 2.43172 0
M  V30 2801 C 266.891 -2.24281 3.69218 0
M  V30 2802 C 266.026 -3.49417 4.00101 0
M  V30 2803 C 265.065 -3.24038 5.19294 0
M  V30 2804 N 264.202 -4.41409 5.45988 0
M  V30 2805 H 269.042 -0.748456 2.88448 0
M  V30 2806 H 266.579 -0.358054 1.42676 0
M  V30 2807 H 268.537 -3.21786 2.65537 0
M  V30 2808 H 267.167 -2.80944 1.58967 0
M  V30 2809 H 266.219 -1.38224 3.54398 0
M  V30 2810 H 267.531 -2.01512 4.56283 0
M  V30 2811 H 266.685 -4.34746 4.2318 0
M  V30 2812 H 265.424 -3.75229 3.11535 0
M  V30 2813 H 264.429 -2.37102 4.96047 0
M  V30 2814 H 265.654 -2.99584 6.09447 0
M  V30 2815 H 263.6 -4.67319 4.60379 0
M  V30 2816 H 263.517 -4.21788 6.274 0
M  V30 2817 H 264.785 -5.27836 5.73593 0
M  V30 2818 N 269.014 -1.53014 -0.377408 0
M  V30 2819 C 270.26 -1.68872 -1.12294 0
M  V30 2820 C 270.593 -0.433224 -1.89306 0
M  V30 2821 O 269.868 0.569258 -1.85983 0
M  V30 2822 C 270.151 -2.93115 -2.09179 0
M  V30 2823 C 270.004 -4.28794 -1.35853 0
M  V30 2824 C 271.323 -3.12928 -3.09458 0
M  V30 2825 H 268.442 -0.614518 -0.406862 0
M  V30 2826 H 271.084 -1.85633 -0.40503 0
M  V30 2827 H 269.234 -2.78956 -2.70399 0
M  V30 2828 H 270.906 -4.54742 -0.775082 0
M  V30 2829 H 269.149 -4.28744 -0.660364 0
M  V30 2830 H 269.82 -5.11837 -2.06706 0
M  V30 2831 H 272.296 -3.26194 -2.58334 0
M  V30 2832 H 271.172 -4.01316 -3.74482 0
M  V30 2833 H 271.433 -2.27669 -3.78971 0
M  V30 2834 N 270.492 0.636531 -1.44174 0
M  V30 2835 C 271.439 1.74875 -1.50624 0
M  V30 2836 C 272.409 1.62275 -0.35442 0
M  V30 2837 O 273.594 1.82276 -0.563908 0
M  V30 2838 C 270.734 3.13102 -1.45125 0
M  V30 2839 C 269.847 3.36717 -2.7064 0
M  V30 2840 C 268.982 4.64885 -2.57013 0
M  V30 2841 C 268.021 4.8166 -3.77717 0
M  V30 2842 N 267.158 6.01101 -3.62798 0
M  V30 2843 H 271.998 1.68697 -2.45653 0
M  V30 2844 H 269.535 0.823004 -1.21922 0
M  V30 2845 H 271.493 3.93034 -1.39929 0
M  V30 2846 H 270.123 3.18308 -0.536671 0
M  V30 2847 H 269.175 2.50763 -2.86046 0
M  V30 2848 H 270.487 3.44993 -3.60252 0
M  V30 2849 H 269.641 5.52969 -2.49619 0
M  V30 2850 H 268.38 4.58957 -1.64953 0
M  V30 2851 H 267.385 3.92007 -3.85501 0
M  V30 2852 H 268.61 4.89406 -4.70807 0
M  V30 2853 H 266.556 5.96273 -2.73486 0
M  V30 2854 H 266.473 6.10409 -4.46023 0
M  V30 2855 H 267.741 6.91761 -3.59286 0
M  V30 2856 N 271.97 1.30982 0.876444 0
M  V30 2857 C 272.917 1.18085 1.98304 0
M  V30 2858 C 273.887 0.0682263 1.6596 0
M  V30 2859 O 275.072 0.239937 1.89285 0
M  V30 2860 C 272.212 0.887475 3.33493 0
M  V30 2861 C 271.325 2.08281 3.78475 0
M  V30 2862 C 270.46 1.72678 5.0235 0
M  V30 2863 C 269.499 2.88657 5.39762 0
M  V30 2864 N 268.636 2.53292 6.54819 0
M  V30 2865 H 273.476 2.1275 2.08666 0
M  V30 2866 H 271.013 1.05839 1.02159 0
M  V30 2867 H 272.971 0.697961 4.1132 0
M  V30 2868 H 271.601 -0.022315 3.22792 0
M  V30 2869 H 270.653 2.3833 2.96484 0
M  V30 2870 H 271.965 2.95108 4.02135 0
M  V30 2871 H 271.119 1.50151 5.87826 0
M  V30 2872 H 269.858 0.830327 4.8058 0
M  V30 2873 H 268.863 3.1184 4.52809 0
M  V30 2874 H 270.088 3.79002 5.63502 0
M  V30 2875 H 268.034 1.66163 6.34607 0
M  V30 2876 H 267.951 3.3365 6.7839 0
M  V30 2877 H 269.219 2.34143 7.43503 0
M  V30 2878 N 273.449 -1.08991 1.13837 0
M  V30 2879 C 274.359 -2.19301 0.833333 0
M  V30 2880 C 275.375 -1.73026 -0.183847 0
M  V30 2881 O 276.551 -2.01395 -0.0138092 0
M  V30 2882 C 273.616 -3.45323 0.308651 0
M  V30 2883 C 272.677 -4.06255 1.38764 0
M  V30 2884 C 271.91 -5.26262 0.887896 0
M  V30 2885 O 272.133 -5.69747 -0.27287 0
M  V30 2886 O 271.067 -5.78435 1.66421 0
M  V30 2887 H 274.893 -2.47854 1.75506 0
M  V30 2888 H 272.478 -1.18012 0.916166 0
M  V30 2889 H 274.36 -4.21394 0.0216739 0
M  V30 2890 H 273.035 -3.18362 -0.585431 0
M  V30 2891 H 271.942 -3.318 1.72799 0
M  V30 2892 H 273.275 -4.37452 2.25602 0
M  V30 2893 N 274.927 -0.932562 -1.27047 0
M  V30 2894 C 275.837 -0.441219 -2.30414 0
M  V30 2895 C 276.853 0.480525 -1.67233 0
M  V30 2896 O 278.029 0.362151 -1.98117 0
M  V30 2897 C 275.094 0.293651 -3.45454 0
M  V30 2898 C 274.155 -0.663601 -4.2414 0
M  V30 2899 C 273.388 0.0362932 -5.33688 0
M  V30 2900 O 273.611 1.2548 -5.56427 0
M  V30 2901 O 272.545 -0.638015 -5.98509 0
M  V30 2902 H 276.371 -1.29962 -2.74488 0
M  V30 2903 H 273.956 -0.6981 -1.32087 0
M  V30 2904 H 275.838 0.707951 -4.15411 0
M  V30 2905 H 274.513 1.12758 -3.03426 0
M  V30 2906 H 273.42 -1.12768 -3.56699 0
M  V30 2907 H 274.753 -1.46489 -4.69896 0
M  V30 2908 N 276.405 1.4127 -0.698611 0
M  V30 2909 C 277.352 2.30773 -0.0352094 0
M  V30 2910 C 278.322 1.47273 0.768111 0
M  V30 2911 O 279.507 1.76053 0.735524 0
M  V30 2912 C 276.647 3.33346 0.893 0
M  V30 2913 C 275.76 4.31924 0.0809695 0
M  V30 2914 C 274.895 5.21566 1.0071 0
M  V30 2915 C 273.934 6.11811 0.188155 0
M  V30 2916 N 273.071 6.93926 1.06825 0
M  V30 2917 H 277.911 2.86943 -0.804207 0
M  V30 2918 H 275.448 1.4132 -0.408294 0
M  V30 2919 H 277.406 3.91368 1.44523 0
M  V30 2920 H 276.036 2.78719 1.62836 0
M  V30 2921 H 275.088 3.75825 -0.588224 0
M  V30 2922 H 276.4 4.95716 -0.553801 0
M  V30 2923 H 275.554 5.84437 1.62845 0
M  V30 2924 H 274.293 4.58008 1.67572 0
M  V30 2925 H 273.298 5.47986 -0.446254 0
M  V30 2926 H 274.523 6.77425 -0.476716 0
M  V30 2927 H 272.469 6.32973 1.72283 0
M  V30 2928 H 272.386 7.54416 0.489123 0
M  V30 2929 H 273.654 7.61262 1.67632 0
M  V30 2930 N 277.883 0.443576 1.51229 0
M  V30 2931 C 278.83 -0.364716 2.279 0
M  V30 2932 C 279.8 -1.0114 1.31757 0
M  V30 2933 O 280.985 -1.02912 1.60667 0
M  V30 2934 C 278.125 -1.45644 3.12861 0
M  V30 2935 C 277.238 -0.827269 4.24005 0
M  V30 2936 C 276.373 -1.89456 4.96266 0
M  V30 2937 C 275.412 -1.24416 5.99322 0
M  V30 2938 N 274.549 -2.25309 6.64966 0
M  V30 2939 H 279.389 0.295464 2.96532 0
M  V30 2940 H 276.926 0.157554 1.46254 0
M  V30 2941 H 278.884 -2.10076 3.6045 0
M  V30 2942 H 277.514 -2.08616 2.46331 0
M  V30 2943 H 276.566 -0.0710839 3.80334 0
M  V30 2944 H 277.878 -0.312481 4.9782 0
M  V30 2945 H 277.032 -2.61535 5.47434 0
M  V30 2946 H 275.771 -2.4431 4.22095 0
M  V30 2947 H 274.776 -0.508868 5.4744 0
M  V30 2948 H 276.001 -0.702882 6.75453 0
M  V30 2949 H 273.947 -2.79231 5.93604 0
M  V30 2950 H 273.864 -1.78739 7.34567 0
M  V30 2951 H 275.132 -2.96853 7.20763 0
M  V30 2952 N 279.361 -1.56624 0.175154 0
M  V30 2953 C 280.777 -1.58571 -0.180966 0
M  V30 2954 C 280.977 -1.19065 -1.6256 0
M  V30 2955 O 280.033 -0.904044 -2.35761 0
M  V30 2956 C 281.346 -3.00522 0.103326 0
M  V30 2957 C 282.894 -3.12972 0.0418426 0
M  V30 2958 C 283.369 -4.57022 0.299175 0
M  V30 2959 N 284.86 -4.62541 0.247086 0
M  V30 2960 C 285.595 -5.71857 0.420318 0
M  V30 2961 N 285.091 -6.89717 0.652816 0
M  V30 2962 N 286.884 -5.60972 0.355957 0
M  V30 2963 H 279.035 -1.80589 1.11809 0
M  V30 2964 H 281.298 -0.837178 0.444788 0
M  V30 2965 H 281.004 -3.33916 1.10422 0
M  V30 2966 H 280.878 -3.72344 -0.603299 0
M  V30 2967 H 283.265 -2.79403 -0.949636 0
M  V30 2968 H 283.346 -2.43578 0.781238 0
M  V30 2969 H 282.99 -4.913 1.28788 0
M  V30 2970 H 282.92 -5.24579 -0.460876 0
M  V30 2971 H 285.411 -3.77829 0.0731895 0
M  V30 2972 H 285.724 -7.68911 0.774347 0
M  V30 2973 H 284.069 -6.91572 0.689476 0
M  V30 2974 H 287.26 -4.67773 0.174882 0
M  V30 2975 H 287.433 -6.46111 0.494388 0
M  V30 2976 N 280.839 0.0985539 -1.57292 0
M  V30 2977 C 281.789 1.1261 -1.9825 0
M  V30 2978 C 282.773 1.35961 -0.860426 0
M  V30 2979 O 283.965 1.36711 -1.12424 0
M  V30 2980 C 281.094 2.44727 -2.40757 0
M  V30 2981 C 280.18 2.24764 -3.59642 0
M  V30 2982 N 280.571 1.74661 -4.74687 0
M  V30 2983 C 278.869 2.55344 -3.65672 0
M  V30 2984 C 279.57 1.68887 -5.56644 0
M  V30 2985 N 278.546 2.13976 -4.99715 0
M  V30 2986 H 282.348 0.731604 -2.84648 0
M  V30 2987 H 279.862 0.306029 -1.59491 0
M  V30 2988 H 281.859 3.19072 -2.68326 0
M  V30 2989 H 280.519 2.84917 -1.55733 0
M  V30 2990 H 281.53 1.43908 -4.97505 0
M  V30 2991 H 278.207 2.99081 -2.91302 0
M  V30 2992 H 279.597 1.3123 -6.5896 0
M  V30 2993 N 282.317 1.53212 0.369288 0
M  V30 2994 C 283.264 1.79388 1.45219 0
M  V30 2995 C 284.234 0.638059 1.53356 0
M  V30 2996 O 285.419 0.879852 1.69302 0
M  V30 2997 C 282.559 1.98623 2.82211 0
M  V30 2998 C 281.672 3.26337 2.8307 0
M  V30 2999 C 280.807 3.35779 4.11614 0
M  V30 3000 C 279.846 4.5754 4.06601 0
M  V30 3001 N 278.983 4.64155 5.26787 0
M  V30 3002 H 283.823 2.71794 1.22198 0
M  V30 3003 H 281.36 1.34642 0.592444 0
M  V30 3004 H 283.318 2.07761 3.61789 0
M  V30 3005 H 281.948 1.09558 3.03639 0
M  V30 3006 H 281 3.26171 1.95747 0
M  V30 3007 H 282.312 4.15988 2.75237 0
M  V30 3008 H 281.466 3.44208 4.99606 0
M  V30 3009 H 280.205 2.44137 4.22195 0
M  V30 3010 H 279.21 4.49215 3.16996 0
M  V30 3011 H 280.435 5.50519 3.97625 0
M  V30 3012 H 278.381 3.75413 5.3796 0
M  V30 3013 H 278.298 5.47706 5.21109 0
M  V30 3014 H 279.566 4.76863 6.16621 0
M  V30 3015 N 283.795 -0.628877 1.44509 0
M  V30 3016 C 285.02 -1.42048 1.5112 0
M  V30 3017 C 285.445 -1.87594 0.137818 0
M  V30 3018 O 284.803 -1.58873 -0.873437 0
M  V30 3019 C 284.851 -2.61541 2.48251 0
M  V30 3020 O 283.955 -3.61453 1.98559 0
M  V30 3021 H 283.296 -0.424942 0.510216 0
M  V30 3022 H 285.826 -0.767374 1.89664 0
M  V30 3023 H 285.836 -3.09057 2.66361 0
M  V30 3024 H 284.511 -2.27736 3.48007 0
M  V30 3025 H 283.088 -3.20731 1.90227 0
M  V30 3026 N 285.273 -1.31445 -0.869486 0
M  V30 3027 C 286.498 -1.24256 -1.66058 0
M  V30 3028 C 286.923 0.188928 -1.87149 0
M  V30 3029 O 286.281 1.13522 -1.4136 0
M  V30 3030 C 286.329 -1.9924 -3.00559 0
M  V30 3031 O 285.433 -1.33007 -3.90362 0
M  V30 3032 H 284.774 -0.428973 -0.506831 0
M  V30 3033 H 287.304 -1.73521 -1.08404 0
M  V30 3034 H 287.314 -2.08854 -3.50491 0
M  V30 3035 H 285.989 -3.03342 -2.84528 0
M  V30 3036 H 284.566 -1.31848 -3.48813 0
M  V30 3037 N 286.751 1.08385 -1.14413 0
M  V30 3038 C 287.976 1.85057 -0.936413 0
M  V30 3039 C 288.401 1.81055 0.509971 0
M  V30 3040 O 287.759 1.1958 1.36273 0
M  V30 3041 C 287.807 3.30505 -1.44217 0
M  V30 3042 O 286.911 4.07491 -0.634409 0
M  V30 3043 H 286.252 0.573425 -0.334784 0
M  V30 3044 H 288.782 1.36799 -1.52142 0
M  V30 3045 H 288.792 3.81348 -1.45043 0
M  V30 3046 H 287.467 3.32734 -2.49522 0
M  V30 3047 H 286.044 3.66368 -0.694902 0
M  V30 3048 N 288.23 0.939286 1.26551 0
M  V30 3049 C 289.455 0.602008 1.98471 0
M  V30 3050 C 289.88 -0.815624 1.69497 0
M  V30 3051 O 289.238 -1.54912 0.941905 0
M  V30 3052 C 289.286 0.848407 3.50477 0
M  V30 3053 O 288.39 -0.0804009 4.12322 0
M  V30 3054 H 287.731 0.23049 0.622712 0
M  V30 3055 H 290.261 1.2617 1.61066 0
M  V30 3056 H 290.271 0.768553 4.00696 0
M  V30 3057 H 288.946 1.88171 3.70897 0
M  V30 3058 H 287.523 0.0503508 3.72866 0
M  V30 3059 N 289.708 -1.40897 0.706093 0
M  V30 3060 C 290.933 -2.05895 0.249435 0
M  V30 3061 C 291.358 -1.52823 -1.09666 0
M  V30 3062 O 290.716 -0.659589 -1.68876 0
M  V30 3063 C 290.764 -3.59872 0.22904 0
M  V30 3064 O 289.868 -4.04708 -0.792784 0
M  V30 3065 H 289.209 -0.653206 0.119241 0
M  V30 3066 H 291.739 -1.80471 0.96391 0
M  V30 3067 H 291.749 -4.07951 0.0634791 0
M  V30 3068 H 290.424 -3.97866 1.21141 0
M  V30 3069 H 289.001 -3.68111 -0.59572 0
M  V30 3070 N 291.186 -0.45159 -1.50991 0
M  V30 3071 C 292.411 0.110667 -2.07105 0
M  V30 3072 C 292.836 1.3446 -1.31538 0
M  V30 3073 O 292.194 1.77743 -0.357365 0
M  V30 3074 C 292.242 0.397238 -3.58405 0
M  V30 3075 O 291.346 1.48124 -3.84881 0
M  V30 3076 H 290.687 -0.00439271 -0.663985 0
M  V30 3077 H 293.217 -0.637026 -1.9443 0
M  V30 3078 H 293.227 0.64351 -4.02893 0
M  V30 3079 H 291.902 -0.504553 -4.12828 0
M  V30 3080 H 290.479 1.22381 -3.52246 0
M  V30 3081 N 292.664 1.56529 -0.183458 0
M  V30 3082 C 293.889 2.02064 0.467428 0
M  V30 3083 C 294.314 1.06282 1.55196 0
M  V30 3084 O 293.672 0.0443565 1.81246 0
M  V30 3085 C 293.72 3.46122 1.01153 0
M  V30 3086 O 292.824 3.53437 2.12499 0
M  V30 3087 H 292.165 0.654726 0.110588 0
M  V30 3088 H 294.695 2.02521 -0.290917 0
M  V30 3089 H 294.705 3.85676 1.33108 0
M  V30 3090 H 293.38 4.15331 0.217533 0
M  V30 3091 H 291.957 3.2575 1.81497 0
M  V30 3092 N 294.142 -0.090211 1.57342 0
M  V30 3093 C 295.367 -0.810082 1.90925 0
M  V30 3094 C 295.792 -1.71248 0.778187 0
M  V30 3095 O 295.15 -1.79278 -0.269991 0
M  V30 3096 C 295.198 -1.59529 3.23393 0
M  V30 3097 O 294.302 -2.70461 3.11327 0
M  V30 3098 H 293.643 -0.222231 0.625707 0
M  V30 3099 H 296.173 -0.0639716 2.045 0
M  V30 3100 H 296.183 -1.97847 3.5682 0
M  V30 3101 H 294.858 -0.933055 4.05299 0
M  V30 3102 H 293.435 -2.35135 2.89423 0
M  V30 3103 N 295.62 -1.53406 -0.361157 0
M  V30 3104 C 296.845 -1.74024 -1.12829 0
M  V30 3105 C 297.27 -0.470069 -1.82132 0
M  V30 3106 O 296.628 0.57619 -1.719 0
M  V30 3107 C 296.676 -2.90903 -2.13091 0
M  V30 3108 O 295.78 -2.59821 -3.20261 0
M  V30 3109 H 295.121 -0.577804 -0.327168 0
M  V30 3110 H 297.651 -2.00307 -0.41693 0
M  V30 3111 H 297.661 -3.17194 -2.56616 0
M  V30 3112 H 296.336 -3.83034 -1.62042 0
M  V30 3113 H 294.913 -2.44362 -2.81677 0
M  V30 3114 N 297.098 0.621204 -1.44841 0
M  V30 3115 C 298.323 1.41244 -1.51871 0
M  V30 3116 C 298.748 1.87519 -0.147764 0
M  V30 3117 O 298.106 1.59334 0.865 0
M  V30 3118 C 298.154 2.60221 -2.49634 0
M  V30 3119 O 297.258 3.60395 -2.00473 0
M  V30 3120 H 296.599 0.42223 -0.512463 0
M  V30 3121 H 299.129 0.757305 -1.90069 0
M  V30 3122 H 299.139 3.0764 -2.67996 0
M  V30 3123 H 297.814 2.25887 -3.4921 0
M  V30 3124 H 296.391 3.19717 -1.91925 0
M  V30 3125 N 298.576 1.31904 0.862503 0
M  V30 3126 C 299.853 1.12644 1.59908 0
M  V30 3127 C 300.233 -0.316104 2.0872 0
M  V30 3128 O 299.581 -1.31145 1.87118 0
M  V30 3129 C 299.791 2.1472 2.7513 0
M  V30 3130 C 301.139 2.47637 3.44907 0
M  V30 3131 O 302.163 2.13205 2.85346 0
M  V30 3132 O 301.022 3.06632 4.52371 0
M  V30 3133 H 298.116 0.43416 0.703871 0
M  V30 3134 H 300.662 1.43408 0.907314 0
M  V30 3135 H 299.434 3.1172 2.3653 0
M  V30 3136 H 299.057 1.84905 3.51989 0
M  V30 3137 N 300.054 -1.07777 1.14986 0
M  V30 3138 C 301.279 -1.84558 0.946213 0
M  V30 3139 C 301.704 -1.81323 -0.500362 0
M  V30 3140 O 301.062 -1.20301 -1.35637 0
M  V30 3141 C 301.11 -3.29736 1.45968 0
M  V30 3142 O 300.214 -4.07149 0.65601 0
M  V30 3143 H 299.555 -0.571641 0.33782 0
M  V30 3144 H 302.085 -1.35991 1.52865 0
M  V30 3145 H 302.095 -3.80574 1.47063 0
M  V30 3146 H 300.77 -3.31406 2.51283 0
M  V30 3147 H 299.347 -3.65994 0.714322 0
M  V30 3148 N 301.532 -0.945985 -1.26051 0
M  V30 3149 C 302.809 -0.513816 -1.88731 0
M  V30 3150 C 303.189 1.00872 -1.8544 0
M  V30 3151 O 302.537 1.8708 -1.312 0
M  V30 3152 C 302.747 -1.08062 -3.31849 0
M  V30 3153 C 304.095 -1.1522 -4.08668 0
M  V30 3154 O 305.119 -1.03155 -3.40936 0
M  V30 3155 O 303.978 -1.34044 -5.29806 0
M  V30 3156 H 301.072 -0.168193 -0.809716 0
M  V30 3157 H 303.618 -1.03886 -1.34186 0
M  V30 3158 H 302.39 -2.1241 -3.2863 0
M  V30 3159 H 302.013 -0.538307 -3.93939 0
M  V30 3160 N 303.011 1.40521 -0.713556 0
M  V30 3161 C 304.236 2.05759 -0.26035 0
M  V30 3162 C 304.661 1.53403 1.08854 0
M  V30 3163 O 304.019 0.668535 1.68524 0
M  V30 3164 C 304.067 3.59745 -0.248122 0
M  V30 3165 O 303.171 4.05123 0.77131 0
M  V30 3166 H 302.512 0.652564 -0.122703 0
M  V30 3167 H 305.042 1.79958 -0.973467 0
M  V30 3168 H 305.052 4.07911 -0.0851129 0
M  V30 3169 H 303.727 3.97218 -1.2325 0
M  V30 3170 H 302.304 3.68422 0.57619 0
M  V30 3171 N 304.489 0.459591 1.5075 0
M  V30 3172 C 305.714 -0.0996819 2.0716 0
M  V30 3173 C 306.139 -1.33761 1.32249 0
M  V30 3174 O 305.497 -1.77551 0.366786 0
M  V30 3175 C 305.545 -0.378226 3.58611 0
M  V30 3176 O 304.649 -1.46081 3.85661 0
M  V30 3177 H 303.99 0.00791392 0.663953 0
M  V30 3178 H 306.52 0.647329 1.9409 0
M  V30 3179 H 306.53 -0.622135 4.03229 0
M  V30 3180 H 305.205 0.526439 4.12555 0
M  V30 3181 H 303.782 -1.20511 3.5289 0
M  V30 3182 N 305.967 -1.56429 0.191757 0
M  V30 3183 C 307.192 -2.02309 -0.456706 0
M  V30 3184 C 307.617 -1.07103 -1.5463 0
M  V30 3185 O 306.975 -0.0539677 -1.8122 0
M  V30 3186 C 307.023 -3.46654 -0.993159 0
M  V30 3187 O 306.127 -3.54559 -2.10622 0
M  V30 3188 H 305.468 -0.655303 -0.107114 0
M  V30 3189 H 307.998 -2.02364 0.301653 0
M  V30 3190 H 308.008 -3.86377 -1.31061 0
M  V30 3191 H 306.683 -4.1544 -0.195504 0
M  V30 3192 H 305.26 -3.26708 -1.79767 0
M  V30 3193 N 307.445 0.0818655 -1.57387 0
M  V30 3194 C 308.722 0.815343 -1.77796 0
M  V30 3195 C 309.102 1.96289 -0.77679 0
M  V30 3196 O 308.45 2.27691 0.192106 0
M  V30 3197 C 308.66 1.29765 -3.23978 0
M  V30 3198 C 310.008 1.7351 -3.8753 0
M  V30 3199 O 311.032 1.39356 -3.27808 0
M  V30 3200 O 309.891 2.36708 -4.92576 0
M  V30 3201 H 306.985 0.389914 -0.729312 0
M  V30 3202 H 309.531 0.0627213 -1.69584 0
M  V30 3203 H 308.303 0.47608 -3.88393 0
M  V30 3204 H 307.926 2.11189 -3.36875 0
M  V30 3205 N 308.923 1.53595 0.353017 0
M  V30 3206 C 310.148 1.7462 1.11904 0
M  V30 3207 C 310.573 0.479721 1.8188 0
M  V30 3208 O 309.931 -0.567066 1.72204 0
M  V30 3209 C 309.979 2.92029 2.11545 0
M  V30 3210 O 309.083 2.61516 3.18878 0
M  V30 3211 H 308.424 0.579531 0.324099 0
M  V30 3212 H 310.954 2.00525 0.406301 0
M  V30 3213 H 310.964 3.18551 2.5493 0
M  V30 3214 H 309.639 3.83888 1.60008 0
M  V30 3215 H 308.216 2.45852 2.80377 0
M  V30 3216 N 310.401 -0.613514 1.45168 0
M  V30 3217 C 311.333 -1.73825 1.4939 0
M  V30 3218 C 312.346 -1.58175 0.385304 0
M  V30 3219 O 313.535 -1.66165 0.652036 0
M  V30 3220 C 310.635 -3.11758 1.32891 0
M  V30 3221 C 309.808 -3.53704 2.57317 0
M  V30 3222 C 308.867 -4.70579 2.35462 0
M  V30 3223 O 307.893 -4.77996 3.09044 0
M  V30 3224 N 309.095 -5.63454 1.39644 0
M  V30 3225 H 311.86 -1.70669 2.46358 0
M  V30 3226 H 309.421 -0.79862 1.40832 0
M  V30 3227 H 311.413 -3.87692 1.1609 0
M  V30 3228 H 309.983 -3.09456 0.442218 0
M  V30 3229 H 309.203 -2.67794 2.89275 0
M  V30 3230 H 310.491 -3.78486 3.40038 0
M  V30 3231 H 309.889 -5.6017 0.789062 0
M  V30 3232 H 308.446 -6.38944 1.28816 0
M  V30 3233 N 311.879 -1.3236 -0.855495 0
M  V30 3234 C 313.104 -1.2601 -1.64731 0
M  V30 3235 C 313.529 0.169068 -1.87339 0
M  V30 3236 O 312.887 1.12016 -1.42556 0
M  V30 3237 C 312.935 -2.02417 -2.98429 0
M  V30 3238 O 312.039 -1.3714 -3.8893 0
M  V30 3239 H 311.38 -0.434325 -0.502253 0
M  V30 3240 H 313.91 -1.74661 -1.06558 0
M  V30 3241 H 313.92 -2.12559 -3.48257 0
M  V30 3242 H 312.595 -3.06343 -2.81295 0
M  V30 3243 H 311.172 -1.3554 -3.47395 0
M  V30 3244 N 313.357 1.07166 -1.15556 0
M  V30 3245 C 314.582 1.84053 -0.955988 0
M  V30 3246 C 315.007 1.81586 0.490739 0
M  V30 3247 O 314.365 1.21018 1.34997 0
M  V30 3248 C 314.413 3.28957 -1.47714 0
M  V30 3249 O 313.517 4.06795 -0.677593 0
M  V30 3250 H 312.858 0.569842 -0.340847 0
M  V30 3251 H 315.388 1.35178 -1.53584 0
M  V30 3252 H 315.398 3.79788 -1.4908 0
M  V30 3253 H 314.073 3.30068 -2.53037 0
M  V30 3254 H 312.65 3.6561 -0.733721 0
M  V30 3255 N 314.835 0.952656 1.25548 0
M  V30 3256 C 316.06 0.623025 1.97821 0
M  V30 3257 C 316.485 -0.7976 1.70352 0
M  V30 3258 O 315.843 -1.53905 0.958283 0
M  V30 3259 C 315.891 0.885532 3.49558 0
M  V30 3260 O 314.995 -0.0366641 4.12384 0
M  V30 3261 H 314.336 0.237082 0.620232 0
M  V30 3262 H 316.866 1.27871 1.59719 0
M  V30 3263 H 316.876 0.811009 3.99858 0
M  V30 3264 H 315.551 1.92094 3.6888 0
M  V30 3265 H 314.128 0.0898954 3.72792 0
M  V30 3266 N 316.313 -1.40141 0.720998 0
M  V30 3267 C 317.59 -1.94677 0.189757 0
M  V30 3268 C 317.97 -1.65879 -1.30566 0
M  V30 3269 O 317.318 -0.979391 -2.06447 0
M  V30 3270 C 317.528 -3.45279 0.508304 0
M  V30 3271 C 318.876 -4.22209 0.449934 0
M  V30 3272 O 319.9 -3.53413 0.444677 0
M  V30 3273 O 318.759 -5.44788 0.432189 0
M  V30 3274 H 315.853 -0.826459 0.0299026 0
M  V30 3275 H 318.399 -1.49719 0.7989 0
M  V30 3276 H 317.171 -3.59619 1.54239 0
M  V30 3277 H 316.794 -3.97386 -0.130525 0
M  V30 3278 N 317.792 -0.46758 -1.50504 0
M  V30 3279 C 319.017 0.0886943 -2.0721 0
M  V30 3280 C 319.442 1.33057 -1.32956 0
M  V30 3281 O 318.8 1.77354 -0.376197 0
M  V30 3282 C 318.848 0.359202 -3.58806 0
M  V30 3283 O 317.952 1.44034 -3.8643 0
M  V30 3284 H 317.293 -0.0114349 -0.663902 0
M  V30 3285 H 319.823 -0.657613 -1.93744 0
M  V30 3286 H 319.833 0.600742 -4.03553 0
M  V30 3287 H 318.508 -0.548311 -4.1227 0
M  V30 3288 H 317.085 1.18638 -3.53524 0
M  V30 3289 N 319.27 1.56325 -0.20005 0
M  V30 3290 C 320.495 2.02548 0.44597 0
M  V30 3291 C 320.92 1.07922 1.5406 0
M  V30 3292 O 320.278 0.0635775 1.81188 0
M  V30 3293 C 320.326 3.47175 0.974761 0
M  V30 3294 O 319.43 3.55671 2.08739 0
M  V30 3295 H 318.771 0.655862 0.103638 0
M  V30 3296 H 321.301 2.02201 -0.312381 0
M  V30 3297 H 321.311 3.87067 1.2901 0
M  V30 3298 H 319.986 4.15538 0.17347 0
M  V30 3299 H 318.563 3.27657 1.78032 0
M  V30 3300 N 320.748 -0.0735177 1.57428 0
M  V30 3301 C 322.025 -0.805903 1.78226 0
M  V30 3302 C 322.405 -1.95874 0.787189 0
M  V30 3303 O 321.753 -2.2779 -0.180029 0
M  V30 3304 C 321.963 -1.28045 3.24662 0
M  V30 3305 C 323.311 -1.71453 3.88444 0
M  V30 3306 O 324.335 -1.37616 3.28543 0
M  V30 3307 O 323.194 -2.34093 4.93825 0
M  V30 3308 H 320.288 -0.386041 0.73137 0
M  V30 3309 H 322.834 -0.0537269 1.69615 0
M  V30 3310 H 321.606 -0.455476 3.8864 0
M  V30 3311 H 321.229 -2.094 3.37991 0
M  V30 3312 N 322.226 -1.5378 -0.344866 0
M  V30 3313 C 323.451 -1.75211 -1.10977 0
M  V30 3314 C 323.876 -0.48936 -1.81623 0
M  V30 3315 O 323.234 0.557925 -1.72502 0
M  V30 3316 C 323.282 -2.93147 -2.09993 0
M  V30 3317 O 322.386 -2.63203 -3.17487 0
M  V30 3318 H 321.727 -0.581241 -0.321021 0
M  V30 3319 H 324.257 -2.00738 -0.395661 0
M  V30 3320 H 324.267 -3.19898 -2.53237 0
M  V30 3321 H 322.942 -3.84731 -1.5797 0
M  V30 3322 H 321.519 -2.47336 -2.79069 0
M  V30 3323 N 323.704 0.605807 -1.45491 0
M  V30 3324 C 324.614 1.74466 -1.56839 0
M  V30 3325 C 325.63 1.68006 -0.452772 0
M  V30 3326 O 326.806 1.8833 -0.713708 0
M  V30 3327 C 323.871 3.10931 -1.53371 0
M  V30 3328 C 322.932 3.28832 -2.75986 0
M  V30 3329 C 322.165 4.58787 -2.72673 0
M  V30 3330 O 322.388 5.4122 -1.80102 0
M  V30 3331 O 321.322 4.79438 -3.63899 0
M  V30 3332 H 325.148 1.67843 -2.53106 0
M  V30 3333 H 322.733 0.770108 -1.28022 0
M  V30 3334 H 324.615 3.92233 -1.54051 0
M  V30 3335 H 323.29 3.18042 -0.602572 0
M  V30 3336 H 322.197 2.47112 -2.80867 0
M  V30 3337 H 323.53 3.26599 -3.68231 0
M  V30 3338 N 325.182 1.32811 0.848464 0
M  V30 3339 C 326.407 1.26882 1.6406 0
M  V30 3340 C 326.832 -0.15913 1.87426 0
M  V30 3341 O 326.19 -1.11258 1.43148 0
M  V30 3342 C 326.238 2.03997 2.97351 0
M  V30 3343 O 325.342 1.39201 3.88197 0
M  V30 3344 H 324.683 0.436982 0.499943 0
M  V30 3345 H 327.213 1.75224 1.0563 0
M  V30 3346 H 327.223 2.14403 3.47124 0
M  V30 3347 H 325.898 3.0783 2.79666 0
M  V30 3348 H 324.475 1.37381 3.46671 0
M  V30 3349 N 326.66 -1.06551 1.16123 0
M  V30 3350 C 327.623 -2.12132 0.867906 0
M  V30 3351 C 328.623 -1.60224 -0.135944 0
M  V30 3352 O 329.813 -1.73943 0.0946422 0
M  V30 3353 C 326.945 -3.396 0.297419 0
M  V30 3354 H 328.138 -2.39586 1.80385 0
M  V30 3355 H 325.691 -1.22574 0.969812 0
M  V30 3356 H 326.426 -3.17794 -0.64633 0
M  V30 3357 H 326.211 -3.78581 1.02073 0
M  V30 3358 H 327.701 -4.17455 0.110052 0
M  V30 3359 N 328.138 -0.959301 -1.25041 0
M  V30 3360 C 329.366 -0.633949 -1.96948 0
M  V30 3361 C 329.781 0.794916 -1.7125 0
M  V30 3362 O 329.138 1.53231 -0.991287 0
M  V30 3363 C 329.189 -0.888805 -3.50403 0
M  V30 3364 O 328.91 -2.26149 -3.75218 0
M  V30 3365 C 330.411 -0.576482 -4.39536 0
M  V30 3366 H 327.631 -0.237263 -0.627652 0
M  V30 3367 H 330.175 -1.28495 -1.59089 0
M  V30 3368 H 328.33 -0.284145 -3.86357 0
M  V30 3369 H 328.744 -2.33514 -4.6965 0
M  V30 3370 H 330.218 -0.805314 -5.46094 0
M  V30 3371 H 330.695 0.489075 -4.36468 0
M  V30 3372 H 331.301 -1.16067 -4.09156 0
M  V30 3373 N 329.616 1.39756 -0.72842 0
M  V30 3374 C 330.526 2.34444 -0.0855374 0
M  V30 3375 C 331.542 1.57976 0.729356 0
M  V30 3376 O 332.718 1.90301 0.659346 0
M  V30 3377 C 329.783 3.36965 0.815798 0
M  V30 3378 C 328.844 4.29299 -0.0105996 0
M  V30 3379 C 328.077 5.26923 0.84781 0
M  V30 3380 O 328.3 5.30859 2.08673 0
M  V30 3381 O 327.234 6.01249 0.279969 0
M  V30 3382 H 331.06 2.91065 -0.866892 0
M  V30 3383 H 328.645 1.4117 -0.48902 0
M  V30 3384 H 330.527 3.99804 1.33171 0
M  V30 3385 H 329.202 2.82739 1.57608 0
M  V30 3386 H 328.109 3.69703 -0.571877 0
M  V30 3387 H 329.442 4.86712 -0.73295 0
M  V30 3388 N 331.094 0.475555 1.50254 0
M  V30 3389 C 332.004 -0.321501 2.32387 0
M  V30 3390 C 333.02 -0.991755 1.42969 0
M  V30 3391 O 334.196 -0.978747 1.76018 0
M  V30 3392 C 331.261 -1.38667 3.17762 0
M  V30 3393 C 330.322 -0.732538 4.23004 0
M  V30 3394 C 329.555 -1.74695 5.04299 0
M  V30 3395 O 329.778 -2.97399 4.86734 0
M  V30 3396 O 328.712 -1.31631 5.8733 0
M  V30 3397 H 332.538 0.350071 3.01676 0
M  V30 3398 H 330.123 0.237321 1.47503 0
M  V30 3399 H 332.005 -2.00354 3.70724 0
M  V30 3400 H 330.68 -2.04163 2.51196 0
M  V30 3401 H 329.587 -0.0765902 3.74022 0
M  V30 3402 H 330.92 -0.120452 4.92053 0
M  V30 3403 N 332.573 -1.56217 0.208337 0
M  V30 3404 C 333.52 -2.19699 -0.707192 0
M  V30 3405 C 334.49 -1.14836 -1.20008 0
M  V30 3406 O 335.675 -1.4314 -1.26157 0
M  V30 3407 C 332.815 -2.87061 -1.91546 0
M  V30 3408 C 331.928 -4.06483 -1.46271 0
M  V30 3409 C 331.063 -4.61665 -2.62752 0
M  V30 3410 C 330.102 -5.73417 -2.14147 0
M  V30 3411 N 329.239 -6.22948 -3.23853 0
M  V30 3412 H 334.079 -2.97575 -0.159111 0
M  V30 3413 H 331.616 -1.46948 -0.0667874 0
M  V30 3414 H 333.574 -3.24294 -2.62468 0
M  V30 3415 H 332.204 -2.11725 -2.43664 0
M  V30 3416 H 331.256 -3.74825 -0.648886 0
M  V30 3417 H 332.568 -4.87271 -1.06622 0
M  V30 3418 H 331.722 -5.01272 -3.41776 0
M  V30 3419 H 330.461 -3.80013 -3.05682 0
M  V30 3420 H 329.466 -5.33326 -1.33581 0
M  V30 3421 H 330.691 -6.56897 -1.72232 0
M  V30 3422 H 328.637 -5.44213 -3.6629 0
M  V30 3423 H 328.554 -6.98823 -2.88414 0
M  V30 3424 H 329.822 -6.6721 -4.03052 0
M  V30 3425 N 334.051 0.0651679 -1.57465 0
M  V30 3426 C 335.276 0.779605 -1.9219 0
M  V30 3427 C 335.701 1.69988 -0.805333 0
M  V30 3428 O 335.059 1.79685 0.241435 0
M  V30 3429 C 335.107 1.54364 -3.2589 0
M  V30 3430 O 334.211 2.65474 -3.1559 0
M  V30 3431 H 333.552 0.212249 -0.629163 0
M  V30 3432 H 336.082 0.0314294 -2.04576 0
M  V30 3433 H 336.092 1.92146 -3.59922 0
M  V30 3434 H 334.767 0.868457 -4.06732 0
M  V30 3435 H 333.344 2.30501 -2.93128 0
M  V30 3436 N 335.529 1.53961 0.336706 0
M  V30 3437 C 336.476 1.82428 1.41381 0
M  V30 3438 C 337.446 0.670444 1.51968 0
M  V30 3439 O 338.631 0.915565 1.67398 0
M  V30 3440 C 335.771 2.04564 2.77934 0
M  V30 3441 C 334.884 3.32267 2.76084 0
M  V30 3442 C 334.019 3.44434 4.04399 0
M  V30 3443 C 333.058 4.66061 3.96804 0
M  V30 3444 N 332.195 4.75224 5.16823 0
M  V30 3445 H 337.035 2.74324 1.16405 0
M  V30 3446 H 334.572 1.35869 0.563752 0
M  V30 3447 H 336.53 2.15388 3.57301 0
M  V30 3448 H 335.16 1.15974 3.01247 0
M  V30 3449 H 334.212 3.3025 1.88784 0
M  V30 3450 H 335.524 4.21733 2.66351 0
M  V30 3451 H 334.678 3.54728 4.92192 0
M  V30 3452 H 333.417 2.53037 4.16921 0
M  V30 3453 H 332.422 4.55838 3.07396 0
M  V30 3454 H 333.647 5.58829 3.85858 0
M  V30 3455 H 331.593 3.86739 5.29876 0
M  V30 3456 H 331.51 5.58636 5.09374 0
M  V30 3457 H 332.778 4.89835 6.06367 0
M  V30 3458 N 337.007 -0.598083 1.45811 0
M  V30 3459 C 337.954 -1.7082 1.55207 0
M  V30 3460 C 338.924 -1.61278 0.39732 0
M  V30 3461 O 340.109 -1.80717 0.612038 0
M  V30 3462 C 337.249 -3.09144 1.53376 0
M  V30 3463 C 336.362 -3.29423 2.79472 0
M  V30 3464 C 335.497 -4.57907 2.69248 0
M  V30 3465 C 334.536 -4.71476 3.90354 0
M  V30 3466 N 333.673 -5.9127 3.78608 0
M  V30 3467 H 338.513 -1.62125 2.50039 0
M  V30 3468 H 336.05 -0.790389 1.24062 0
M  V30 3469 H 338.008 -3.89186 1.50301 0
M  V30 3470 H 336.638 -3.16773 0.620876 0
M  V30 3471 H 335.69 -2.43091 2.92594 0
M  V30 3472 H 337.002 -3.3532 3.69272 0
M  V30 3473 H 336.156 -5.46157 2.64192 0
M  V30 3474 H 334.895 -4.54423 1.77063 0
M  V30 3475 H 333.9 -3.81648 3.95759 0
M  V30 3476 H 335.125 -4.76751 4.83617 0
M  V30 3477 H 333.071 -5.88813 2.89199 0
M  V30 3478 H 332.988 -5.98369 4.6205 0
M  V30 3479 H 334.256 -6.81992 3.77501 0
M  V30 3480 N 338.485 -1.33259 -0.841409 0
M  V30 3481 C 339.901 -1.12538 -1.13169 0
M  V30 3482 C 340.101 0.0854037 -2.01319 0
M  V30 3483 O 339.157 0.766417 -2.40587 0
M  V30 3484 C 340.47 -2.41156 -1.79623 0
M  V30 3485 C 342.018 -2.47038 -1.922 0
M  V30 3486 C 342.493 -3.7561 -2.6207 0
M  V30 3487 N 343.984 -3.76667 -2.69585 0
M  V30 3488 C 344.719 -4.72861 -3.2433 0
M  V30 3489 N 344.215 -5.79428 -3.79783 0
M  V30 3490 N 346.008 -4.6034 -3.22558 0
M  V30 3491 H 338.159 -2.10868 -0.254676 0
M  V30 3492 H 340.422 -0.931615 -0.175493 0
M  V30 3493 H 340.128 -3.29747 -1.22311 0
M  V30 3494 H 340.002 -2.53114 -2.79666 0
M  V30 3495 H 342.389 -1.58898 -2.48667 0
M  V30 3496 H 342.47 -2.39022 -0.911148 0
M  V30 3497 H 342.114 -4.64131 -2.06263 0
M  V30 3498 H 342.044 -3.80902 -3.63622 0
M  V30 3499 H 344.535 -2.99648 -2.30259 0
M  V30 3500 H 344.848 -6.48867 -4.19752 0
M  V30 3501 H 343.193 -5.83166 -3.78078 0
M  V30 3502 H 346.384 -3.76244 -2.78492 0
M  V30 3503 H 346.557 -5.35478 -3.64921 0
M  V30 3504 N 339.963 1.05934 -1.16686 0
M  V30 3505 C 340.91 2.13499 -0.876748 0
M  V30 3506 C 341.88 1.65162 0.176299 0
M  V30 3507 O 343.065 1.90757 0.0407143 0
M  V30 3508 C 340.205 3.42912 -0.387967 0
M  V30 3509 C 339.318 4.04964 -1.50426 0
M  V30 3510 C 338.453 5.22266 -0.970125 0
M  V30 3511 C 337.492 5.76309 -2.06238 0
M  V30 3512 N 336.629 6.84922 -1.54356 0
M  V30 3513 H 341.469 2.37654 -1.7979 0
M  V30 3514 H 339.006 1.16598 -0.896843 0
M  V30 3515 H 340.964 4.17111 -0.086186 0
M  V30 3516 H 339.594 3.18963 0.496235 0
M  V30 3517 H 338.646 3.28277 -1.92193 0
M  V30 3518 H 339.958 4.41122 -2.32836 0
M  V30 3519 H 339.112 6.03506 -0.621743 0
M  V30 3520 H 337.851 4.87564 -0.115377 0
M  V30 3521 H 336.856 4.93704 -2.41942 0
M  V30 3522 H 338.081 6.13062 -2.92115 0
M  V30 3523 H 336.027 6.52131 -0.711406 0
M  V30 3524 H 335.944 7.20043 -2.30379 0
M  V30 3525 H 337.212 7.69832 -1.22387 0
M  V30 3526 N 341.441 0.965919 1.2453 0
M  V30 3527 C 342.388 0.49402 2.25451 0
M  V30 3528 C 343.358 -0.45948 1.59618 0
M  V30 3529 O 344.543 -0.370238 1.87173 0
M  V30 3530 C 341.683 -0.211359 3.44452 0
M  V30 3531 C 340.796 0.7807 4.24887 0
M  V30 3532 C 339.931 0.0516105 5.31175 0
M  V30 3533 C 338.97 1.03385 6.03306 0
M  V30 3534 N 338.107 0.334887 7.01301 0
M  V30 3535 H 342.947 1.35946 2.65184 0
M  V30 3536 H 340.484 0.681515 1.3036 0
M  V30 3537 H 342.442 -0.637 4.12308 0
M  V30 3538 H 341.072 -1.04077 3.05562 0
M  V30 3539 H 340.124 1.32479 3.56586 0
M  V30 3540 H 341.436 1.52978 4.74762 0
M  V30 3541 H 340.59 -0.432114 6.05159 0
M  V30 3542 H 339.329 -0.730179 4.82203 0
M  V30 3543 H 338.334 1.52847 5.28127 0
M  V30 3544 H 339.559 1.81606 6.54367 0
M  V30 3545 H 337.505 -0.427959 6.54603 0
M  V30 3546 H 337.422 1.02287 7.49048 0
M  V30 3547 H 338.69 -0.126928 7.79397 0
M  V30 3548 N 342.919 -1.39368 0.735821 0
M  V30 3549 C 343.866 -2.30599 0.0963825 0
M  V30 3550 C 344.836 -1.49257 -0.728794 0
M  V30 3551 O 346.021 -1.77941 -0.688588 0
M  V30 3552 C 343.161 -3.35596 -0.804305 0
M  V30 3553 C 342.274 -4.31987 0.0335761 0
M  V30 3554 C 341.409 -5.24053 -0.868461 0
M  V30 3555 C 340.448 -6.12095 -0.0258776 0
M  V30 3556 N 339.585 -6.96514 -0.883893 0
M  V30 3557 H 344.425 -2.8471 0.880002 0
M  V30 3558 H 341.962 -1.40188 0.445619 0
M  V30 3559 H 343.92 -3.95062 -1.34096 0
M  V30 3560 H 342.55 -2.82938 -1.55389 0
M  V30 3561 H 341.602 -3.74133 0.68766 0
M  V30 3562 H 342.914 -4.94074 0.685036 0
M  V30 3563 H 342.068 -5.88549 -1.47293 0
M  V30 3564 H 340.807 -4.62289 -1.5537 0
M  V30 3565 H 339.812 -5.4661 0.591386 0
M  V30 3566 H 341.037 -6.75923 0.656156 0
M  V30 3567 H 338.983 -6.37318 -1.55441 0
M  V30 3568 H 338.9 -7.55448 -0.288931 0
M  V30 3569 H 340.168 -7.65439 -1.4739 0
M  V30 3570 N 344.397 -0.483516 -1.5 0
M  V30 3571 C 345.347 0.32306 -2.257 0
M  V30 3572 C 346.331 0.950755 -1.29805 0
M  V30 3573 O 347.523 0.861247 -1.54634 0
M  V30 3574 C 344.652 1.39724 -3.13579 0
M  V30 3575 C 343.738 0.776663 -4.16928 0
M  V30 3576 N 344.129 -0.1104 -5.0568 0
M  V30 3577 C 342.427 1.03922 -4.33724 0
M  V30 3578 C 343.128 -0.46387 -5.79848 0
M  V30 3579 N 342.104 0.163987 -5.43353 0
M  V30 3580 H 345.906 -0.360086 -2.91686 0
M  V30 3581 H 343.42 -0.298456 -1.59634 0
M  V30 3582 H 345.417 1.98837 -3.66428 0
M  V30 3583 H 344.077 2.08225 -2.49143 0
M  V30 3584 H 345.088 -0.480069 -5.1567 0
M  V30 3585 H 341.765 1.71829 -3.80501 0
M  V30 3586 H 343.155 -1.18854 -6.61304 0
M  V30 3587 N 345.875 1.56104 -0.216619 0
M  V30 3588 C 347.291 1.58995 0.13886 0
M  V30 3589 C 347.491 1.23333 1.59346 0
M  V30 3590 O 346.547 0.966234 2.33281 0
M  V30 3591 C 347.86 3.00143 -0.182968 0
M  V30 3592 C 349.408 3.12751 -0.124807 0
M  V30 3593 C 349.883 4.56068 -0.420241 0
M  V30 3594 N 351.374 4.61723 -0.369634 0
M  V30 3595 C 352.109 5.70542 -0.571789 0
M  V30 3596 N 351.605 6.87744 -0.835453 0
M  V30 3597 N 353.398 5.59831 -0.504563 0
M  V30 3598 H 345.549 1.77562 -1.16557 0
M  V30 3599 H 347.812 0.825091 -0.466828 0
M  V30 3600 H 347.518 3.30871 -1.19237 0
M  V30 3601 H 347.392 3.73813 0.504367 0
M  V30 3602 H 349.779 2.81822 0.875223 0
M  V30 3603 H 349.86 2.41421 -0.845544 0
M  V30 3604 H 349.504 4.87713 -1.41769 0
M  V30 3605 H 349.434 5.25617 0.321631 0
M  V30 3606 H 351.925 3.77502 -0.173338 0
M  V30 3607 H 352.238 7.66587 -0.977938 0
M  V30 3608 H 350.583 6.895 -0.872592 0
M  V30 3609 H 353.774 4.67145 -0.298842 0
M  V30 3610 H 353.947 6.44573 -0.665519 0
M  V30 3611 N 347.353 -0.0568162 1.57498 0
M  V30 3612 C 348.3 -1.06591 2.04712 0
M  V30 3613 C 349.27 -1.3758 0.930644 0
M  V30 3614 O 350.455 -1.48392 1.19935 0
M  V30 3615 C 347.595 -2.3701 2.50839 0
M  V30 3616 C 346.708 -2.12421 3.76167 0
M  V30 3617 C 345.843 -3.36511 4.11015 0
M  V30 3618 C 344.882 -3.07353 5.2934 0
M  V30 3619 N 344.019 -4.23816 5.59754 0
M  V30 3620 H 348.859 -0.65631 2.90683 0
M  V30 3621 H 346.396 -0.312481 1.43743 0
M  V30 3622 H 348.354 -3.13175 2.7564 0
M  V30 3623 H 346.984 -2.75744 1.67825 0
M  V30 3624 H 346.036 -1.2688 3.58616 0
M  V30 3625 H 347.348 -1.86894 4.62463 0
M  V30 3626 H 346.502 -4.21062 4.36797 0
M  V30 3627 H 345.241 -3.65128 3.23315 0
M  V30 3628 H 344.246 -2.212 5.03339 0
M  V30 3629 H 345.471 -2.80043 6.1867 0
M  V30 3630 H 343.417 -4.52436 4.75014 0
M  V30 3631 H 343.334 -4.01614 6.40501 0
M  V30 3632 H 344.602 -5.0932 5.90096 0
M  V30 3633 N 348.832 -1.54138 -0.328536 0
M  V30 3634 C 349.78 -1.83894 -1.42428 0
M  V30 3635 C 350.774 -0.710478 -1.53781 0
M  V30 3636 O 351.98 -0.894062 -1.56226 0
M  V30 3637 H 348.355 -0.582837 -0.475189 0
M  V30 3638 H 350.326 -2.75537 -1.14552 0
M  V30 3639 C 349.075 -2.07866 -2.78724 0
M  V30 3640 H 348.398 -2.94158 -2.7076 0
M  V30 3641 H 349.838 -2.32644 -3.54476 0
M  V30 3642 C 348.297 -0.868689 -3.25508 0
M  V30 3643 O 348.827 -0.0754908 -4.01629 0
M  V30 3644 N 347.033 -0.681711 -2.82491 0
M  V30 3645 H 346.58 -1.32838 -2.20708 0
M  V30 3646 H 346.538 0.126374 -3.14146 0
M  V30 3647 N 350.31 0.590341 -1.46126 0
M  V30 3648 C 351.535 1.37991 -1.54833 0
M  V30 3649 C 351.96 1.87163 -0.187506 0
M  V30 3650 O 351.318 1.61133 0.831008 0
M  V30 3651 C 351.366 2.54867 -2.55098 0
M  V30 3652 O 350.47 3.56061 -2.08073 0
M  V30 3653 H 349.811 0.411265 -0.521303 0
M  V30 3654 H 352.341 0.716819 -1.91632 0
M  V30 3655 H 352.351 3.01886 -2.74461 0
M  V30 3656 H 351.026 2.18429 -3.53923 0
M  V30 3657 H 349.603 3.15574 -1.98664 0
M  V30 3658 N 351.788 1.33704 0.83433 0
M  V30 3659 C 353.204 1.13137 1.12571 0
M  V30 3660 C 353.404 -0.0747261 2.01361 0
M  V30 3661 O 352.46 -0.753647 2.4099 0
M  V30 3662 C 353.773 2.42105 1.78342 0
M  V30 3663 C 355.321 2.48054 1.90888 0
M  V30 3664 C 355.796 3.76995 2.60075 0
M  V30 3665 N 357.287 3.78092 2.67584 0
M  V30 3666 C 358.022 4.74574 3.21818 0
M  V30 3667 N 357.518 5.81434 3.76705 0
M  V30 3668 N 359.311 4.62044 3.20112 0
M  V30 3669 H 351.462 2.11 0.243489 0
M  V30 3670 H 353.725 0.932532 0.17055 0
M  V30 3671 H 353.431 3.30391 1.20561 0
M  V30 3672 H 353.305 2.54594 2.7832 0
M  V30 3673 H 355.692 1.60215 2.47821 0
M  V30 3674 H 355.773 2.39502 0.898459 0
M  V30 3675 H 355.417 4.65219 2.03799 0
M  V30 3676 H 355.347 3.82825 3.61597 0
M  V30 3677 H 357.838 3.00865 2.28667 0
M  V30 3678 H 358.151 6.51084 4.16305 0
M  V30 3679 H 356.496 5.85163 3.7498 0
M  V30 3680 H 359.687 3.77716 2.76493 0
M  V30 3681 H 359.86 5.37406 3.62076 0
M  V30 3682 N 353.266 -1.05314 1.17247 0
M  V30 3683 C 354.213 -2.13031 0.888058 0
M  V30 3684 C 355.183 -1.65253 -0.167537 0
M  V30 3685 O 356.368 -1.90775 -0.0305974 0
M  V30 3686 C 353.508 -3.42702 0.406147 0
M  V30 3687 C 352.621 -4.04161 1.52572 0
M  V30 3688 C 351.756 -5.21744 0.997808 0
M  V30 3689 C 350.795 -5.75207 2.09291 0
M  V30 3690 N 349.932 -6.84094 1.57986 0
M  V30 3691 H 354.772 -2.36698 1.81048 0
M  V30 3692 H 352.309 -1.16121 0.903013 0
M  V30 3693 H 354.267 -4.17059 0.108305 0
M  V30 3694 H 352.897 -3.19222 -0.479313 0
M  V30 3695 H 351.949 -3.27253 1.93931 0
M  V30 3696 H 353.261 -4.39881 2.35172 0
M  V30 3697 H 352.415 -6.03168 0.653739 0
M  V30 3698 H 351.154 -4.87495 0.141232 0
M  V30 3699 H 350.159 -4.92414 2.44557 0
M  V30 3700 H 351.384 -6.11505 2.95362 0
M  V30 3701 H 349.33 -6.51745 0.74598 0
M  V30 3702 H 349.247 -7.18811 2.34195 0
M  V30 3703 H 350.515 -7.69172 1.26468 0
M  V30 3704 N 354.744 -0.972509 -1.24016 0
M  V30 3705 C 355.694 -0.477561 -2.22942 0
M  V30 3706 C 356.678 0.44308 -1.54679 0
M  V30 3707 O 357.87 0.273219 -1.74879 0
M  V30 3708 C 354.999 0.226348 -3.42553 0
M  V30 3709 C 354.085 -0.713403 -4.18057 0
M  V30 3710 N 354.476 -1.8527 -4.70647 0
M  V30 3711 C 352.774 -0.525145 -4.42898 0
M  V30 3712 C 353.475 -2.44089 -5.28011 0
M  V30 3713 N 352.451 -1.72556 -5.15486 0
M  V30 3714 H 356.253 -1.34678 -2.61226 0
M  V30 3715 H 353.767 -0.832196 -1.39457 0
M  V30 3716 H 355.764 0.598184 -4.12586 0
M  V30 3717 H 354.424 1.09195 -3.05788 0
M  V30 3718 H 355.435 -2.2341 -4.67235 0
M  V30 3719 H 352.112 0.296096 -4.16449 0
M  V30 3720 H 353.502 -3.40259 -5.79374 0
M  V30 3721 N 356.222 1.38976 -0.743202 0
M  V30 3722 C 357.169 2.30544 -0.10861 0
M  V30 3723 C 358.139 1.49642 0.720869 0
M  V30 3724 O 359.324 1.78304 0.679142 0
M  V30 3725 C 356.464 3.36018 0.786496 0
M  V30 3726 C 355.577 4.31963 -0.0564849 0
M  V30 3727 C 354.712 5.24506 0.840657 0
M  V30 3728 C 353.751 6.121 -0.00658363 0
M  V30 3729 N 352.888 6.96973 0.846943 0
M  V30 3730 H 357.728 2.8424 -0.895088 0
M  V30 3731 H 355.265 1.3995 -0.453048 0
M  V30 3732 H 357.223 3.95768 1.31999 0
M  V30 3733 H 355.853 2.83758 1.53887 0
M  V30 3734 H 354.905 3.73763 -0.707492 0
M  V30 3735 H 356.217 4.93703 -0.711229 0
M  V30 3736 H 355.371 5.89322 1.4417 0
M  V30 3737 H 354.11 4.63107 1.52916 0
M  V30 3738 H 353.115 5.46289 -0.620366 0
M  V30 3739 H 354.34 6.75565 -0.691992 0
M  V30 3740 H 352.286 6.38133 1.52059 0
M  V30 3741 H 352.203 7.5559 0.248864 0
M  V30 3742 H 353.471 7.6621 1.43328 0
M  V30 3743 N 357.7 0.491464 1.49741 0
M  V30 3744 C 358.647 -0.292027 2.28945 0
M  V30 3745 C 359.617 -0.968973 1.34908 0
M  V30 3746 O 360.802 -0.97748 1.6386 0
M  V30 3747 C 357.942 -1.35617 3.17336 0
M  V30 3748 C 357.055 -0.691957 4.26422 0
M  V30 3749 C 356.19 -1.73572 5.02042 0
M  V30 3750 C 355.229 -1.05286 6.02977 0
M  V30 3751 N 354.366 -2.0404 6.71798 0
M  V30 3752 H 359.206 0.389654 2.95442 0
M  V30 3753 H 356.743 0.204003 1.45679 0
M  V30 3754 H 358.701 -1.98502 3.66951 0
M  V30 3755 H 357.331 -2.00674 2.52844 0
M  V30 3756 H 356.383 0.0499523 3.80367 0
M  V30 3757 H 357.695 -0.153946 4.98562 0
M  V30 3758 H 356.849 -2.43987 5.55478 0
M  V30 3759 H 355.588 -2.30757 4.29654 0
M  V30 3760 H 354.593 -0.334446 5.48782 0
M  V30 3761 H 355.818 -0.487636 6.77347 0
M  V30 3762 H 353.764 -2.60205 6.02187 0
M  V30 3763 H 353.681 -1.55279 7.39881 0
M  V30 3764 H 354.949 -2.73772 7.29842 0
M  V30 3765 N 359.178 -1.55987 0.224894 0
M  V30 3766 C 360.088 -2.24066 -0.69511 0
M  V30 3767 C 361.104 -1.24939 -1.21104 0
M  V30 3768 O 362.28 -1.5776 -1.25195 0
M  V30 3769 C 359.345 -2.90983 -1.88493 0
M  V30 3770 C 358.406 -4.05462 -1.41064 0
M  V30 3771 C 357.639 -4.69179 -2.54375 0
M  V30 3772 O 357.862 -4.31895 -3.72589 0
M  V30 3773 O 356.796 -5.58108 -2.25386 0
M  V30 3774 H 360.622 -3.03353 -0.145149 0
M  V30 3775 H 358.207 -1.49399 -0.00569476 0
M  V30 3776 H 360.089 -3.33209 -2.57972 0
M  V30 3777 H 358.764 -2.14653 -2.42293 0
M  V30 3778 H 357.671 -3.67798 -0.683774 0
M  V30 3779 H 359.004 -4.83545 -0.918985 0
M  V30 3780 N 360.656 0.0484629 -1.57525 0
M  V30 3781 C 361.603 1.05504 -2.05275 0
M  V30 3782 C 362.573 1.37084 -0.937927 0
M  V30 3783 O 363.758 1.47754 -1.2072 0
M  V30 3784 C 360.898 2.35676 -2.52093 0
M  V30 3785 C 360.011 2.10423 -3.77288 0
M  V30 3786 C 359.146 3.34327 -4.12794 0
M  V30 3787 C 358.185 3.04542 -5.30962 0
M  V30 3788 N 357.322 4.20841 -5.61994 0
M  V30 3789 H 362.162 0.640885 -2.91027 0
M  V30 3790 H 359.699 0.304854 -1.43906 0
M  V30 3791 H 361.657 3.11709 -2.77297 0
M  V30 3792 H 360.287 2.7485 -1.69285 0
M  V30 3793 H 359.339 1.24976 -3.59284 0
M  V30 3794 H 360.651 1.84438 -4.63448 0
M  V30 3795 H 359.805 4.1874 -4.39024 0
M  V30 3796 H 358.544 3.63408 -3.25247 0
M  V30 3797 H 357.549 2.18528 -5.04505 0
M  V30 3798 H 358.774 2.76758 -6.20146 0
M  V30 3799 H 356.72 4.4991 -4.77406 0
M  V30 3800 H 356.637 3.98212 -6.42622 0
M  V30 3801 H 357.905 5.06184 -5.92789 0
M  V30 3802 N 362.134 1.5431 0.320358 0
M  V30 3803 C 363.081 1.83918 1.39438 0
M  V30 3804 C 364.051 0.686525 1.51248 0
M  V30 3805 O 365.236 0.933269 1.66417 0
M  V30 3806 C 362.376 2.075 2.75749 0
M  V30 3807 C 361.489 3.35177 2.72544 0
M  V30 3808 C 360.624 3.48704 4.00723 0
M  V30 3809 C 359.663 4.70244 3.91838 0
M  V30 3810 N 358.8 4.80679 5.11754 0
M  V30 3811 H 363.64 2.75544 1.13489 0
M  V30 3812 H 361.177 1.36459 0.549309 0
M  V30 3813 H 363.135 2.19166 3.54996 0
M  V30 3814 H 361.765 1.19163 3 0
M  V30 3815 H 360.817 3.32233 1.85271 0
M  V30 3816 H 362.129 4.24534 2.61863 0
M  V30 3817 H 361.283 3.59928 4.88402 0
M  V30 3818 H 360.022 2.57445 4.14214 0
M  V30 3819 H 359.027 4.59072 3.02544 0
M  V30 3820 H 360.252 5.6289 3.7991 0
M  V30 3821 H 358.198 3.92337 5.25745 0
M  V30 3822 H 358.115 5.64007 5.0342 0
M  V30 3823 H 359.383 4.96239 6.01138 0
M  V30 3824 N 363.613 -0.582584 1.46437 0
M  V30 3825 C 364.56 -1.69164 1.5701 0
M  V30 3826 C 365.53 -1.60847 0.414403 0
M  V30 3827 O 366.715 -1.80058 0.631171 0
M  V30 3828 C 363.855 -3.075 1.56646 0
M  V30 3829 C 362.968 -3.2644 2.82951 0
M  V30 3830 C 362.103 -4.55026 2.7409 0
M  V30 3831 C 361.142 -4.6731 3.95333 0
M  V30 3832 N 360.279 -5.87221 3.84858 0
M  V30 3833 H 365.119 -1.59464 2.51744 0
M  V30 3834 H 362.656 -0.777186 1.24893 0
M  V30 3835 H 364.614 -3.8757 1.5442 0
M  V30 3836 H 363.244 -3.16096 0.654439 0
M  V30 3837 H 362.296 -2.39974 2.95155 0
M  V30 3838 H 363.608 -3.31385 3.72808 0
M  V30 3839 H 362.762 -5.43324 2.6997 0
M  V30 3840 H 361.501 -4.52519 1.81873 0
M  V30 3841 H 360.506 -3.77429 3.99784 0
M  V30 3842 H 361.731 -4.71595 4.88646 0
M  V30 3843 H 359.677 -5.85712 2.95427 0
M  V30 3844 H 359.594 -5.93435 4.6837 0
M  V30 3845 H 360.862 -6.7795 3.84713 0
M  V30 3846 N 365.091 -1.34144 -0.827227 0
M  V30 3847 C 366.507 -1.13732 -1.11969 0
M  V30 3848 C 366.707 0.0640463 -2.01398 0
M  V30 3849 O 365.763 0.740856 -2.41387 0
M  V30 3850 C 367.076 -2.43047 -1.77055 0
M  V30 3851 C 368.624 -2.49063 -1.89569 0
M  V30 3852 C 369.099 -3.78369 -2.58072 0
M  V30 3853 N 370.59 -3.79505 -2.65575 0
M  V30 3854 C 371.325 -4.76274 -3.19297 0
M  V30 3855 N 370.821 -5.83424 -3.73616 0
M  V30 3856 N 372.614 -4.63735 -3.17658 0
M  V30 3857 H 364.765 -2.11126 -0.232296 0
M  V30 3858 H 367.028 -0.933424 -0.165602 0
M  V30 3859 H 366.734 -3.31025 -1.18807 0
M  V30 3860 H 366.608 -2.56066 -2.76966 0
M  V30 3861 H 368.995 -1.61527 -2.46968 0
M  V30 3862 H 369.076 -2.39975 -0.885745 0
M  V30 3863 H 368.72 -4.66293 -2.01329 0
M  V30 3864 H 368.65 -3.84737 -3.59562 0
M  V30 3865 H 371.141 -3.02074 -2.27068 0
M  V30 3866 H 371.454 -6.53282 -4.12846 0
M  V30 3867 H 369.799 -5.87143 -3.71871 0
M  V30 3868 H 372.99 -3.79177 -2.74486 0
M  V30 3869 H 373.163 -5.39318 -3.59221 0
M  V30 3870 N 366.569 1.04691 -1.17803 0
M  V30 3871 C 367.516 2.12557 -0.899343 0
M  V30 3872 C 368.486 1.65339 0.158771 0
M  V30 3873 O 369.671 1.90789 0.0204797 0
M  V30 3874 C 366.811 3.42481 -0.424315 0
M  V30 3875 C 365.924 4.03346 -1.54713 0
M  V30 3876 C 365.059 5.21208 -1.02546 0
M  V30 3877 C 364.098 5.74089 -2.12339 0
M  V30 3878 N 363.235 6.83247 -1.61612 0
M  V30 3879 H 368.075 2.35734 -1.823 0
M  V30 3880 H 365.612 1.1564 -0.909159 0
M  V30 3881 H 367.57 4.16996 -0.130421 0
M  V30 3882 H 366.2 3.19471 0.462377 0
M  V30 3883 H 365.252 3.2622 -1.95664 0
M  V30 3884 H 366.564 4.38628 -2.37501 0
M  V30 3885 H 365.718 6.02812 -0.685718 0
M  V30 3886 H 364.457 4.87414 -0.167084 0
M  V30 3887 H 363.462 4.91111 -2.47165 0
M  V30 3888 H 364.687 6.0993 -2.98601 0
M  V30 3889 H 362.633 6.5134 -0.780533 0
M  V30 3890 H 362.55 7.17559 -2.38003 0
M  V30 3891 H 363.818 7.68491 -1.30545 0
M  V30 3892 N 368.047 0.979072 1.23499 0
M  V30 3893 C 368.994 0.517904 2.24914 0
M  V30 3894 C 369.964 -0.442525 1.60097 0
M  V30 3895 O 371.149 -0.350365 1.87556 0
M  V30 3896 C 368.289 -0.174813 3.44657 0
M  V30 3897 C 367.402 0.825721 4.24035 0
M  V30 3898 C 366.537 0.107946 5.3109 0
M  V30 3899 C 365.576 1.09778 6.02175 0
M  V30 3900 N 364.713 0.40925 7.00906 0
M  V30 3901 H 369.553 1.38751 2.63727 0
M  V30 3902 H 367.09 0.695303 1.2963 0
M  V30 3903 H 369.048 -0.593233 4.12961 0
M  V30 3904 H 367.678 -1.0083 3.06648 0
M  V30 3905 H 366.73 1.36253 3.55161 0
M  V30 3906 H 368.042 1.58005 4.73113 0
M  V30 3907 H 367.196 -0.367904 6.05583 0
M  V30 3908 H 365.935 -0.678994 4.8295 0
M  V30 3909 H 364.94 1.5844 5.26476 0
M  V30 3910 H 366.165 1.88536 6.52404 0
M  V30 3911 H 364.111 -0.358506 6.5502 0
M  V30 3912 H 364.028 1.10226 7.47921 0
M  V30 3913 H 365.296 -0.0442557 7.79487 0
M  V30 3914 N 369.525 -1.3858 0.750561 0
M  V30 3915 C 370.75 -2.04997 0.314812 0
M  V30 3916 C 371.175 -1.56235 -1.04749 0
M  V30 3917 O 370.533 -0.712981 -1.66692 0
M  V30 3918 C 370.581 -3.58961 0.343415 0
M  V30 3919 O 369.685 -4.07025 -0.663628 0
M  V30 3920 H 369.026 -0.649081 0.139962 0
M  V30 3921 H 371.556 -1.77313 1.02084 0
M  V30 3922 H 371.566 -4.07542 0.193233 0
M  V30 3923 H 370.241 -3.93811 1.33738 0
M  V30 3924 H 368.818 -3.6982 -0.478307 0
M  V30 3925 N 371.003 -0.499398 -1.49478 0
M  V30 3926 C 371.95 0.279881 -2.29097 0
M  V30 3927 C 372.92 0.961805 -1.3542 0
M  V30 3928 O 374.105 0.968777 -1.64376 0
M  V30 3929 C 371.245 1.33932 -3.18051 0
M  V30 3930 C 370.358 0.669333 -4.26783 0
M  V30 3931 C 369.493 1.70907 -5.02955 0
M  V30 3932 C 368.532 1.02087 -6.03527 0
M  V30 3933 N 367.669 2.00474 -6.7287 0
M  V30 3934 H 372.509 -0.405317 -2.95231 0
M  V30 3935 H 370.046 -0.211726 -1.45568 0
M  V30 3936 H 372.004 1.96553 -3.67998 0
M  V30 3937 H 370.634 1.9933 -2.53904 0
M  V30 3938 H 369.686 -0.0701234 -3.80335 0
M  V30 3939 H 370.998 0.127503 -4.98637 0
M  V30 3940 H 370.152 2.41037 -5.56764 0
M  V30 3941 H 368.891 2.28476 -4.30871 0
M  V30 3942 H 367.896 0.305338 -5.48951 0
M  V30 3943 H 369.121 0.451708 -6.77596 0
M  V30 3944 H 367.067 2.57007 -6.03559 0
M  V30 3945 H 366.984 1.51353 -7.40694 0
M  V30 3946 H 368.252 2.69897 -7.31284 0
M  V30 3947 N 372.481 1.55866 -0.233164 0
M  V30 3948 C 373.428 2.20796 0.67215 0
M  V30 3949 C 374.398 1.16731 1.18166 0
M  V30 3950 O 375.583 1.45129 1.23864 0
M  V30 3951 C 372.723 2.90072 1.86955 0
M  V30 3952 C 371.836 4.08759 1.39786 0
M  V30 3953 C 370.971 4.65787 2.55374 0
M  V30 3954 C 370.01 5.76752 2.04998 0
M  V30 3955 N 369.147 6.28021 3.13901 0
M  V30 3956 H 373.987 2.9779 0.111749 0
M  V30 3957 H 371.524 1.47036 0.0434007 0
M  V30 3958 H 373.482 3.28428 2.57276 0
M  V30 3959 H 372.112 2.15575 2.40265 0
M  V30 3960 H 371.164 3.7581 0.589173 0
M  V30 3961 H 372.476 4.88906 0.98856 0
M  V30 3962 H 371.63 5.06646 3.33758 0
M  V30 3963 H 370.369 3.84828 2.99598 0
M  V30 3964 H 369.374 5.35383 1.25079 0
M  V30 3965 H 370.599 6.59553 1.61759 0
M  V30 3966 H 368.545 5.49971 3.57586 0
M  V30 3967 H 368.462 7.03323 2.7726 0
M  V30 3968 H 369.73 6.73538 3.92386 0
M  V30 3969 N 373.959 -0.0401083 1.57549 0
M  V30 3970 C 375.184 -0.748931 1.93406 0
M  V30 3971 C 375.609 -1.68686 0.832274 0
M  V30 3972 O 374.967 -1.80047 -0.212818 0
M  V30 3973 C 375.015 -1.4916 3.28304 0
M  V30 3974 O 374.119 -2.6042 3.19774 0
M  V30 3975 H 373.46 -0.202212 0.63246 0
M  V30 3976 H 375.99 0.00112086 2.046 0
M  V30 3977 H 376 -1.86395 3.62934 0
M  V30 3978 H 374.675 -0.80364 4.08062 0
M  V30 3979 H 373.252 -2.25808 2.96758 0
M  V30 3980 N 375.437 -1.54477 -0.31217 0
M  V30 3981 C 376.4 -1.83923 -1.36766 0
M  V30 3982 C 377.4 -0.711563 -1.44199 0
M  V30 3983 O 378.59 -0.979866 -1.44029 0
M  V30 3984 C 375.722 -2.0095 -2.75376 0
M  V30 3985 H 376.915 -2.78239 -1.11906 0
M  V30 3986 H 374.468 -1.46369 -0.548257 0
M  V30 3987 H 375.203 -1.08883 -3.05475 0
M  V30 3988 H 374.988 -2.83018 -2.71373 0
M  V30 3989 H 376.478 -2.2514 -3.51713 0
M  V30 3990 N 376.915 0.57481 -1.46744 0
M  V30 3991 C 378.14 1.36341 -1.56288 0
M  V30 3992 C 378.565 1.86954 -0.207347 0
M  V30 3993 O 377.923 1.62006 0.813871 0
M  V30 3994 C 377.971 2.52147 -2.57787 0
M  V30 3995 O 377.075 3.53834 -2.11838 0
M  V30 3996 H 376.416 0.405713 -0.525636 0
M  V30 3997 H 378.946 0.696453 -1.92382 0
M  V30 3998 H 378.956 2.98958 -2.77648 0
M  V30 3999 H 377.631 2.14663 -3.5622 0
M  V30 4000 H 376.208 3.1345 -2.01999 0
M  V30 4001 N 378.394 1.34581 0.820102 0
M  V30 4002 C 379.619 1.30333 1.61332 0
M  V30 4003 C 380.044 -0.119339 1.87721 0
M  V30 4004 O 379.402 -1.08197 1.45475 0
M  V30 4005 C 379.45 2.10258 2.92957 0
M  V30 4006 O 378.554 1.47404 3.85157 0
M  V30 4007 H 377.895 0.447488 0.490561 0
M  V30 4008 H 380.425 1.77425 1.01889 0
M  V30 4009 H 380.435 2.21718 3.42498 0
M  V30 4010 H 379.11 3.13693 2.73074 0
M  V30 4011 H 377.687 1.44703 3.43679 0
M  V30 4012 N 379.872 -1.04064 1.18357 0
M  V30 4013 C 380.782 -2.15569 0.925596 0
M  V30 4014 C 381.798 -1.7365 -0.110295 0
M  V30 4015 O 382.974 -2.01273 0.0716218 0
M  V30 4016 C 380.039 -3.43704 0.454836 0
M  V30 4017 C 379.1 -4.00004 1.55869 0
M  V30 4018 C 378.333 -5.22023 1.1103 0
M  V30 4019 O 378.556 -5.70392 -0.0309756 0
M  V30 4020 O 377.49 -5.70856 1.90805 0
M  V30 4021 H 381.316 -2.40187 1.8586 0
M  V30 4022 H 378.901 -1.1402 0.965394 0
M  V30 4023 H 380.783 -4.20923 0.200382 0
M  V30 4024 H 379.458 -3.20559 -0.449876 0
M  V30 4025 H 378.365 -3.24172 1.86716 0
M  V30 4026 H 379.698 -4.2749 2.43953 0
M  V30 4027 N 381.35 -0.985608 -1.22978 0
M  V30 4028 C 382.575 -0.675254 -1.961 0
M  V30 4029 C 383 0.752154 -1.72407 0
M  V30 4030 O 382.358 1.5131 -0.998751 0
M  V30 4031 C 382.406 -0.977899 -3.47087 0
M  V30 4032 O 381.51 -0.072685 -4.12336 0
M  V30 4033 H 380.851 -0.253443 -0.613728 0
M  V30 4034 H 383.381 -1.32061 -1.56272 0
M  V30 4035 H 383.391 -0.916739 -3.97567 0
M  V30 4036 H 382.066 -2.01807 -3.63657 0
M  V30 4037 H 380.643 -0.188703 -3.72422 0
M  V30 4038 N 382.828 1.3818 -0.7579 0
M  V30 4039 C 383.738 2.3421 -0.135247 0
M  V30 4040 C 384.754 1.59487 0.695683 0
M  V30 4041 O 385.93 1.91657 0.618832 0
M  V30 4042 C 382.995 3.3862 0.744139 0
M  V30 4043 C 382.056 4.2918 -0.101658 0
M  V30 4044 C 381.289 5.28603 0.735851 0
M  V30 4045 O 381.512 5.35166 1.97366 0
M  V30 4046 O 380.446 6.01707 0.152372 0
M  V30 4047 H 384.272 2.8916 -0.928436 0
M  V30 4048 H 381.857 1.40101 -0.518855 0
M  V30 4049 H 383.739 4.02539 1.2466 0
M  V30 4050 H 382.414 2.86019 1.51575 0
M  V30 4051 H 381.321 3.68407 -0.650167 0
M  V30 4052 H 382.654 4.85048 -0.836024 0
M  V30 4053 N 384.306 0.507319 1.49211 0
M  V30 4054 C 385.269 -0.256763 2.27757 0
M  V30 4055 C 386.269 -0.888287 1.34038 0
M  V30 4056 O 387.459 -0.751841 1.5714 0
M  V30 4057 C 384.591 -1.36905 3.12202 0
M  V30 4058 H 385.784 0.432557 2.96764 0
M  V30 4059 H 383.337 0.262488 1.5408 0
M  V30 4060 H 384.072 -2.09233 2.47775 0
M  V30 4061 H 383.857 -0.921599 3.81115 0
M  V30 4062 H 385.347 -1.9071 3.7151 0
M  V30 4063 N 385.784 -1.5574 0.241426 0
M  V30 4064 C 386.694 -2.2479 -0.671305 0
M  V30 4065 C 387.71 -1.26217 -1.19772 0
M  V30 4066 O 388.886 -1.59079 -1.23514 0
M  V30 4067 C 385.951 -2.92966 -1.85396 0
M  V30 4068 C 385.012 -4.06935 -1.36756 0
M  V30 4069 C 384.245 -4.71851 -2.49384 0
M  V30 4070 O 384.468 -4.35823 -3.67987 0
M  V30 4071 O 383.402 -5.60467 -2.19454 0
M  V30 4072 H 387.228 -3.0349 -0.112966 0
M  V30 4073 H 384.813 -1.49397 0.0101513 0
M  V30 4074 H 386.695 -3.35927 -2.54423 0
M  V30 4075 H 385.37 -2.17211 -2.40002 0
M  V30 4076 H 384.277 -3.68503 -0.644726 0
M  V30 4077 H 385.61 -4.84492 -0.867647 0
M  V30 4078 N 387.262 0.0317525 -1.57568 0
M  V30 4079 C 388.21 1.05165 -2.07468 0
M  V30 4080 C 389.204 1.3761 -0.98792 0
M  V30 4081 O 390.41 1.36546 -1.17282 0
M  V30 4082 H 386.785 0.35666 -0.66204 0
M  V30 4083 H 388.756 0.604958 -2.92203 0
M  V30 4084 C 387.505 2.34488 -2.56731 0
M  V30 4085 H 386.828 2.10383 -3.39969 0
M  V30 4086 H 388.268 3.04203 -2.95358 0
M  V30 4087 C 386.727 3.03266 -1.46736 0
M  V30 4088 O 387.257 3.92988 -0.832069 0
M  V30 4089 N 385.463 2.6455 -1.20256 0
M  V30 4090 H 385.01 1.91674 -1.72102 0
M  V30 4091 H 384.968 3.10886 -0.468737 0
M  V30 4092 N 388.74 1.54641 0.303973 0
M  V30 4093 C 389.67 1.88386 1.3796 0
M  V30 4094 C 390.651 0.742485 1.5304 0
M  V30 4095 O 391.836 0.997959 1.66597 0
M  V30 4096 C 388.966 2.12854 2.74427 0
M  V30 4097 C 387.92 3.28702 2.74115 0
M  V30 4098 C 387.246 3.38582 4.13844 0
M  V30 4099 C 388.546 4.65881 2.3612 0
M  V30 4100 H 390.24 2.78474 1.09966 0
M  V30 4101 H 387.786 1.33988 0.527556 0
M  V30 4102 H 389.739 2.35047 3.49758 0
M  V30 4103 H 388.463 1.19535 3.03939 0
M  V30 4104 H 387.122 3.06428 2.0124 0
M  V30 4105 H 386.77 2.42784 4.40528 0
M  V30 4106 H 386.47 4.16453 4.14537 0
M  V30 4107 H 387.994 3.63031 4.90959 0
M  V30 4108 H 389.408 4.87823 3.01167 0
M  V30 4109 H 387.805 5.46444 2.48031 0
M  V30 4110 H 388.875 4.66799 1.3125 0
M  V30 4111 N 390.218 -0.567019 1.47046 0
M  V30 4112 C 391.128 -1.70247 1.6141 0
M  V30 4113 C 392.144 -1.66746 0.497157 0
M  V30 4114 O 393.32 -1.86371 0.763389 0
M  V30 4115 C 390.385 -3.06756 1.61561 0
M  V30 4116 C 389.446 -3.21399 2.84607 0
M  V30 4117 C 388.679 -4.51396 2.84741 0
M  V30 4118 O 388.902 -5.36255 1.94388 0
M  V30 4119 O 387.836 -4.69621 3.76483 0
M  V30 4120 H 391.662 -1.61073 2.57467 0
M  V30 4121 H 389.247 -0.735894 1.30019 0
M  V30 4122 H 391.129 -3.8801 1.64396 0
M  V30 4123 H 389.804 -3.16333 0.686684 0
M  V30 4124 H 388.711 -2.39579 2.8732 0
M  V30 4125 H 390.044 -3.16721 3.76761 0
M  V30 4126 N 391.696 -1.35014 -0.812953 0
M  V30 4127 C 392.659 -1.27292 -1.90602 0
M  V30 4128 C 393.659 -0.185817 -1.59723 0
M  V30 4129 O 394.849 -0.439102 -1.68575 0
M  V30 4130 C 391.981 -0.967676 -3.26877 0
M  V30 4131 H 393.174 -2.24479 -1.9887 0
M  V30 4132 H 390.727 -1.19446 -1.00808 0
M  V30 4133 H 391.462 0.0005954 -3.243 0
M  V30 4134 H 391.247 -1.75412 -3.50675 0
M  V30 4135 H 392.737 -0.939085 -4.06904 0
M  V30 4136 N 393.175 1.03435 -1.18907 0
M  V30 4137 C 394.107 2.1165 -0.879595 0
M  V30 4138 C 395.12 1.62316 0.125439 0
M  V30 4139 O 396.309 1.78201 -0.103245 0
M  V30 4140 C 393.409 3.37622 -0.294042 0
M  V30 4141 C 392.582 4.16166 -1.34629 0
M  V30 4142 C 391.641 5.20457 -0.775274 0
M  V30 4143 O 390.667 5.50379 -1.4516 0
M  V30 4144 N 391.869 5.78949 0.424126 0
M  V30 4145 H 394.634 2.38791 -1.81105 0
M  V30 4146 H 392.195 1.19681 -1.09032 0
M  V30 4147 H 394.187 4.04572 0.101679 0
M  V30 4148 H 392.757 3.07873 0.541575 0
M  V30 4149 H 391.977 3.44444 -1.91707 0
M  V30 4150 H 393.265 4.65432 -2.05549 0
M  V30 4151 H 392.663 5.56948 0.991209 0
M  V30 4152 H 391.22 6.47334 0.761691 0
M  V30 4153 N 394.653 0.992116 1.22453 0
M  V30 4154 C 396.064 0.702776 1.72968 0
M  V30 4155 C 396.415 -0.780399 1.80012 0
M  V30 4156 O 395.54 -1.61007 1.44589 0
M  V30 4157 C 396.135 1.26903 3.14135 0
M  V30 4158 C 394.694 1.02909 3.62059 0
M  V30 4159 C 393.841 1.38969 2.39964 0
M  V30 4160 H 396.792 1.16457 1.07812 0
M  V30 4161 H 396.813 0.647223 3.74955 0
M  V30 4162 H 396.325 2.34851 3.08977 0
M  V30 4163 H 394.426 -0.0337979 3.72585 0
M  V30 4164 H 394.539 1.69191 4.48231 0
M  V30 4165 H 392.903 0.808279 2.41535 0
M  V30 4166 H 393.686 2.4792 2.37467 0
M  V30 4167 N 396.131 -1.37776 0.765217 0
M  V30 4168 C 397.063 -2.28958 0.105361 0
M  V30 4169 C 398.076 -1.48316 -0.67128 0
M  V30 4170 O 399.265 -1.71046 -0.51045 0
M  V30 4171 C 396.365 -3.27421 -0.874569 0
M  V30 4172 C 395.538 -4.37132 -0.153123 0
M  V30 4173 C 394.597 -5.1571 -1.04547 0
M  V30 4174 O 393.623 -5.66896 -0.511672 0
M  V30 4175 N 394.825 -5.29808 -2.37243 0
M  V30 4176 H 397.59 -2.86227 0.888495 0
M  V30 4177 H 395.151 -1.49682 0.617 0
M  V30 4178 H 397.143 -3.7687 -1.47483 0
M  V30 4179 H 395.713 -2.70967 -1.55871 0
M  V30 4180 H 394.933 -3.89166 0.627975 0
M  V30 4181 H 396.221 -5.07625 0.345643 0
M  V30 4182 H 395.619 -4.89793 -2.83054 0
M  V30 4183 H 394.176 -5.82589 -2.9229 0
M  V30 4184 N 397.609 -0.515225 -1.4894 0
M  V30 4185 C 398.834 0.022727 -2.07388 0
M  V30 4186 C 399.259 1.2876 -1.37122 0
M  V30 4187 O 398.617 1.76067 -0.432431 0
M  V30 4188 C 398.665 0.244869 -3.59768 0
M  V30 4189 O 397.769 1.31667 -3.90817 0
M  V30 4190 H 397.11 -0.0325506 -0.663202 0
M  V30 4191 H 399.64 -0.718918 -1.91553 0
M  V30 4192 H 399.65 0.47205 -4.0526 0
M  V30 4193 H 398.325 -0.679194 -4.10317 0
M  V30 4194 H 396.902 1.07331 -3.5712 0
M  V30 4195 N 399.087 1.5561 -0.249682 0
M  V30 4196 C 400.315 2.03411 0.378352 0
M  V30 4197 C 400.73 1.12886 1.51335 0
M  V30 4198 O 400.087 0.143833 1.81932 0
M  V30 4199 C 400.138 3.50537 0.88351 0
M  V30 4200 O 399.859 4.37614 -0.20626 0
M  V30 4201 C 401.36 4.14113 1.58195 0
M  V30 4202 H 398.58 0.664994 0.08958 0
M  V30 4203 H 401.124 2.01044 -0.374357 0
M  V30 4204 H 399.279 3.5343 1.58639 0
M  V30 4205 H 399.693 5.24199 0.177782 0
M  V30 4206 H 401.167 5.18741 1.8871 0
M  V30 4207 H 401.644 3.60767 2.50487 0
M  V30 4208 H 402.25 4.15151 0.923573 0
M  V30 4209 N 400.565 -0.0233959 1.57583 0
M  V30 4210 C 401.811 -0.714119 1.89811 0
M  V30 4211 C 402.144 -1.74702 0.848113 0
M  V30 4212 O 401.419 -1.94023 -0.136135 0
M  V30 4213 C 401.702 -1.37853 3.32669 0
M  V30 4214 C 401.555 -0.358764 4.48367 0
M  V30 4215 C 402.874 -2.31101 3.7454 0
M  V30 4216 H 399.993 -0.25814 0.690314 0
M  V30 4217 H 402.635 0.0230927 1.89986 0
M  V30 4218 H 400.785 -2.00689 3.3265 0
M  V30 4219 H 402.457 0.268115 4.6052 0
M  V30 4220 H 400.7 0.321387 4.32608 0
M  V30 4221 H 401.371 -0.862242 5.45224 0
M  V30 4222 H 403.847 -1.78304 3.75961 0
M  V30 4223 H 402.723 -2.74567 4.75294 0
M  V30 4224 H 402.984 -3.18018 3.0711 0
M  V30 4225 N 402.043 -1.548 -0.295768 0
M  V30 4226 C 403.459 -1.4613 -0.641722 0
M  V30 4227 C 403.659 -0.656771 -1.90496 0
M  V30 4228 O 402.715 -0.166547 -2.5195 0
M  V30 4229 C 404.028 -2.90141 -0.789852 0
M  V30 4230 C 405.576 -3.00216 -0.885396 0
M  V30 4231 C 406.051 -4.45434 -1.06548 0
M  V30 4232 N 407.542 -4.49166 -1.13156 0
M  V30 4233 C 408.277 -5.58717 -1.28929 0
M  V30 4234 N 407.773 -6.78182 -1.41567 0
M  V30 4235 N 409.566 -5.46415 -1.31859 0
M  V30 4236 H 401.717 -2.05574 0.534147 0
M  V30 4237 H 403.98 -0.931259 0.177372 0
M  V30 4238 H 403.686 -3.51635 0.0675598 0
M  V30 4239 H 403.56 -3.37859 -1.67724 0
M  V30 4240 H 405.947 -2.38833 -1.73329 0
M  V30 4241 H 406.028 -2.55787 0.0261185 0
M  V30 4242 H 405.672 -5.07413 -0.222335 0
M  V30 4243 H 405.602 -4.87499 -1.9913 0
M  V30 4244 H 408.093 -3.631 -1.04721 0
M  V30 4245 H 408.406 -7.57428 -1.53372 0
M  V30 4246 H 406.751 -6.81037 -1.38613 0
M  V30 4247 H 409.942 -4.5203 -1.21601 0
M  V30 4248 H 410.115 -6.31841 -1.43808 0
M  V30 4249 N 403.521 0.559213 -1.47345 0
M  V30 4250 C 404.932 1.14134 -1.47751 0
M  V30 4251 C 405.283 1.94834 -0.231103 0
M  V30 4252 O 404.408 2.05957 0.664137 0
M  V30 4253 C 405.003 2.07653 -2.67705 0
M  V30 4254 C 403.562 2.61141 -2.71076 0
M  V30 4255 C 402.709 1.3748 -2.40821 0
M  V30 4256 H 405.66 0.345917 -1.54884 0
M  V30 4257 H 405.681 2.91497 -2.44561 0
M  V30 4258 H 405.193 1.4889 -3.58404 0
M  V30 4259 H 403.294 3.23707 -1.84511 0
M  V30 4260 H 403.407 3.02272 -3.7171 0
M  V30 4261 H 401.771 1.68086 -1.91362 0
M  V30 4262 H 402.554 0.805135 -3.33725 0
M  V30 4263 N 404.999 1.35443 0.805782 0
M  V30 4264 C 405.909 1.30546 1.94923 0
M  V30 4265 C 406.925 0.210233 1.72725 0
M  V30 4266 O 408.101 0.43975 1.9654 0
M  V30 4267 C 405.166 1.07782 3.29521 0
M  V30 4268 C 404.227 2.26625 3.64609 0
M  V30 4269 C 403.46 2.04938 4.92784 0
M  V30 4270 O 403.683 1.01624 5.61274 0
M  V30 4271 O 402.617 2.9232 5.26149 0
M  V30 4272 H 406.443 2.26779 2.02002 0
M  V30 4273 H 404.028 1.15823 0.943682 0
M  V30 4274 H 405.91 0.969392 4.10098 0
M  V30 4275 H 404.585 0.146003 3.23371 0
M  V30 4276 H 403.492 2.43033 2.84404 0
M  V30 4277 H 404.825 3.18257 3.75464 0
M  V30 4278 N 406.477 -1.02803 1.19454 0
M  V30 4279 C 407.387 -2.14575 0.948408 0
M  V30 4280 C 408.403 -1.73757 -0.091871 0
M  V30 4281 O 409.579 -2.01185 0.0929654 0
M  V30 4282 C 406.644 -3.43202 0.491265 0
M  V30 4283 C 405.705 -3.98328 1.60103 0
M  V30 4284 C 404.938 -5.20816 1.16561 0
M  V30 4285 O 405.161 -5.70392 0.0295238 0
M  V30 4286 O 404.095 -5.68801 1.96849 0
M  V30 4287 H 407.921 -2.38202 1.88397 0
M  V30 4288 H 405.506 -1.12989 0.977433 0
M  V30 4289 H 407.388 -4.20687 0.245015 0
M  V30 4290 H 406.063 -3.21018 -0.415851 0
M  V30 4291 H 404.97 -3.22174 1.90144 0
M  V30 4292 H 406.303 -4.24879 2.48473 0
M  V30 4293 N 407.956 -0.998596 -1.21925 0
M  V30 4294 C 409.205 -0.673085 -1.90138 0
M  V30 4295 C 409.518 0.79895 -1.78539 0
M  V30 4296 O 410.724 1.23628 -2.4172 0
M  V30 4297 C 409.18 -1.15339 -3.40918 0
M  V30 4298 C 408.788 -2.65106 -3.61141 0
M  V30 4299 C 410.532 -0.902476 -4.14796 0
M  V30 4300 C 408.439 -3.0671 -5.05651 0
M  V30 4301 H 407.369 -0.248057 -0.712028 0
M  V30 4302 H 410.02 -1.20891 -1.38049 0
M  V30 4303 H 408.402 -0.545658 -3.92223 0
M  V30 4304 H 409.576 -3.31274 -3.20304 0
M  V30 4305 H 407.891 -2.88142 -3.00605 0
M  V30 4306 H 410.488 -1.18895 -5.21314 0
M  V30 4307 H 410.831 0.161349 -4.15987 0
M  V30 4308 H 411.364 -1.47269 -3.69536 0
M  V30 4309 H 408.103 -4.12292 -5.09603 0
M  V30 4310 H 407.623 -2.45249 -5.47369 0
M  V30 4311 H 409.302 -2.9833 -5.74115 0
M  V30 4312 N 409.434 1.37368 -0.772513 0
M  V30 4313 C 410.845 1.8231 -0.402493 0
M  V30 4314 C 411.196 1.6436 1.07146 0
M  V30 4315 O 410.321 1.15514 1.82991 0
M  V30 4316 C 410.916 3.30979 -0.723776 0
M  V30 4317 C 409.475 3.74195 -0.406802 0
M  V30 4318 C 408.622 2.59885 -0.967218 0
M  V30 4319 H 411.573 1.25829 -0.967099 0
M  V30 4320 H 411.594 3.80499 -0.00870832 0
M  V30 4321 H 411.106 3.44011 -1.7966 0
M  V30 4322 H 409.207 3.66732 0.658673 0
M  V30 4323 H 409.32 4.7027 -0.915588 0
M  V30 4324 H 407.684 2.51674 -0.391416 0
M  V30 4325 H 408.467 2.7571 -2.04546 0
M  V30 4326 N 410.912 0.523116 1.48665 0
M  V30 4327 C 412.323 0.0808997 1.86525 0
M  V30 4328 C 412.674 -1.33975 1.43336 0
M  V30 4329 O 411.799 -2.00221 0.821009 0
M  V30 4330 C 412.394 0.140037 3.3851 0
M  V30 4331 C 410.953 -0.246948 3.75589 0
M  V30 4332 C 410.1 0.502845 2.72703 0
M  V30 4333 H 413.051 0.734736 1.40667 0
M  V30 4334 H 413.072 -0.649945 3.74908 0
M  V30 4335 H 412.584 1.17412 3.69914 0
M  V30 4336 H 410.685 -1.28343 3.49798 0
M  V30 4337 H 410.798 0.0878859 4.79019 0
M  V30 4338 H 409.162 -0.0500581 2.54651 0
M  V30 4339 H 409.945 1.53743 3.0695 0
M  V30 4340 N 412.39 -1.55475 0.257931 0
M  V30 4341 C 413.639 -1.98383 -0.364275 0
M  V30 4342 C 413.952 -1.14952 -1.58258 0
M  V30 4343 O 415.158 -1.47924 -2.27664 0
M  V30 4344 C 413.614 -3.53037 -0.699479 0
M  V30 4345 C 413.222 -4.45223 0.498046 0
M  V30 4346 C 414.966 -4.04575 -1.28526 0
M  V30 4347 C 412.873 -5.91238 0.138383 0
M  V30 4348 H 411.803 -0.740911 -0.13988 0
M  V30 4349 H 414.454 -1.79936 0.359883 0
M  V30 4350 H 412.836 -3.6722 -1.48207 0
M  V30 4351 H 414.01 -4.42803 1.27522 0
M  V30 4352 H 412.325 -4.04226 0.999503 0
M  V30 4353 H 414.922 -5.11196 -1.56788 0
M  V30 4354 H 415.265 -3.5258 -2.21344 0
M  V30 4355 H 415.798 -3.93762 -0.565337 0
M  V30 4356 H 412.537 -6.47294 1.03398 0
M  V30 4357 H 412.057 -5.96768 -0.602374 0
M  V30 4358 H 413.736 -6.46413 -0.27553 0
M  V30 4359 N 413.868 0.0150385 -1.57593 0
M  V30 4360 C 415.279 0.559832 -1.78109 0
M  V30 4361 C 415.63 1.74814 -0.890756 0
M  V30 4362 O 414.755 2.16216 -0.0892482 0
M  V30 4363 C 415.35 1.02238 -3.23006 0
M  V30 4364 C 413.909 1.51258 -3.44671 0
M  V30 4365 C 413.056 0.456955 -2.73509 0
M  V30 4366 H 416.007 -0.211169 -1.57289 0
M  V30 4367 H 416.028 1.88912 -3.30292 0
M  V30 4368 H 415.54 0.157302 -3.87781 0
M  V30 4369 H 413.641 2.39905 -2.8509 0
M  V30 4370 H 413.754 1.55042 -4.5332 0
M  V30 4371 H 412.118 0.915196 -2.37689 0
M  V30 4372 H 412.901 -0.398896 -3.40975 0
M  V30 4373 N 415.346 1.54954 0.287554 0
M  V30 4374 C 416.256 1.8991 1.37736 0
M  V30 4375 C 417.272 0.794701 1.54792 0
M  V30 4376 O 418.448 1.09243 1.69198 0
M  V30 4377 C 415.513 2.15108 2.71899 0
M  V30 4378 C 414.574 3.38752 2.63715 0
M  V30 4379 C 413.807 3.62739 3.91479 0
M  V30 4380 O 414.03 2.89492 4.91478 0
M  V30 4381 O 412.964 4.56267 3.92561 0
M  V30 4382 H 416.79 2.82652 1.11092 0
M  V30 4383 H 414.375 1.41315 0.484807 0
M  V30 4384 H 416.257 2.32806 3.51254 0
M  V30 4385 H 414.932 1.25551 2.9836 0
M  V30 4386 H 413.839 3.26405 1.82786 0
M  V30 4387 H 415.172 4.28483 2.42205 0
M  V30 4388 N 416.824 -0.551391 1.4764 0
M  V30 4389 C 417.772 -1.67896 1.60978 0
M  V30 4390 C 418.766 -1.62549 0.476877 0
M  V30 4391 O 419.972 -1.67664 0.654878 0
M  V30 4392 H 416.347 -0.555649 0.506713 0
M  V30 4393 H 418.318 -1.53784 2.55721 0
M  V30 4394 C 417.067 -3.06234 1.64669 0
M  V30 4395 H 416.39 -3.11033 2.51194 0
M  V30 4396 H 417.83 -3.84804 1.7805 0
M  V30 4397 C 416.289 -3.34737 0.381115 0
M  V30 4398 O 416.819 -3.98381 -0.515297 0
M  V30 4399 N 415.025 -2.8944 0.259354 0
M  V30 4400 H 414.572 -2.37827 0.98976 0
M  V30 4401 H 414.53 -3.08882 -0.586464 0
M  V30 4402 N 418.302 -1.35869 -0.798587 0
M  V30 4403 C 419.718 -1.16082 -1.09532 0
M  V30 4404 C 419.918 0.0213124 -2.01489 0
M  V30 4405 O 418.974 0.689488 -2.42904 0
M  V30 4406 C 420.287 -2.46748 -1.7186 0
M  V30 4407 C 421.835 -2.53028 -1.84244 0
M  V30 4408 C 422.31 -3.83758 -2.49988 0
M  V30 4409 N 423.801 -3.85053 -2.57465 0
M  V30 4410 C 424.536 -4.8294 -3.09122 0
M  V30 4411 N 424.032 -5.91217 -3.61157 0
M  V30 4412 N 425.825 -4.70369 -3.0775 0
M  V30 4413 H 417.976 -2.11571 -0.187461 0
M  V30 4414 H 420.239 -0.936726 -0.145765 0
M  V30 4415 H 419.945 -3.33471 -1.11759 0
M  V30 4416 H 419.819 -2.61883 -2.71472 0
M  V30 4417 H 422.206 -1.66729 -2.43486 0
M  V30 4418 H 422.287 -2.418 -0.834643 0
M  V30 4419 H 421.931 -4.70459 -1.91393 0
M  V30 4420 H 421.861 -3.92278 -3.5132 0
M  V30 4421 H 424.352 -3.06822 -2.20609 0
M  V30 4422 H 424.665 -6.61892 -3.98896 0
M  V30 4423 H 423.01 -5.94899 -3.59333 0
M  V30 4424 H 426.201 -3.84914 -2.66381 0
M  V30 4425 H 426.374 -5.46816 -3.47701 0
M  V30 4426 N 419.78 1.02168 -1.19998 0
M  V30 4427 C 421.027 1.75685 -1.00702 0
M  V30 4428 C 421.355 1.88947 0.461426 0
M  V30 4429 O 420.61 1.40832 1.35885 0
M  V30 4430 C 420.909 3.18081 -1.62969 0
M  V30 4431 C 420.575 3.24809 -3.12746 0
M  V30 4432 C 419.237 3.26352 -3.53621 0
M  V30 4433 C 421.589 3.23379 -4.08749 0
M  V30 4434 C 418.917 3.2413 -4.89036 0
M  V30 4435 C 421.269 3.22698 -5.44104 0
M  V30 4436 C 419.933 3.22542 -5.84399 0
M  V30 4437 H 419.203 0.642877 -0.368496 0
M  V30 4438 H 421.85 1.19865 -1.49348 0
M  V30 4439 H 420.155 3.77027 -1.06573 0
M  V30 4440 H 421.852 3.73648 -1.45561 0
M  V30 4441 H 418.442 3.2434 -2.80181 0
M  V30 4442 H 422.626 3.21361 -3.78207 0
M  V30 4443 H 417.882 3.22338 -5.19527 0
M  V30 4444 H 422.056 3.20543 -6.18244 0
M  V30 4445 H 419.683 3.20575 -6.89301 0
M  V30 4446 N 421.258 1.00505 1.21394 0
M  V30 4447 C 422.188 0.585684 2.26035 0
M  V30 4448 C 423.169 -0.393525 1.65485 0
M  V30 4449 O 424.354 -0.281497 1.92149 0
M  V30 4450 C 421.484 -0.0884283 3.47187 0
M  V30 4451 C 420.438 0.810567 4.20254 0
M  V30 4452 C 419.764 0.00286382 5.347 0
M  V30 4453 C 421.064 2.1132 4.77641 0
M  V30 4454 H 422.758 1.46039 2.61368 0
M  V30 4455 H 420.304 0.703648 1.25638 0
M  V30 4456 H 422.257 -0.393286 4.19561 0
M  V30 4457 H 420.981 -0.997766 3.10986 0
M  V30 4458 H 419.64 1.09925 3.49731 0
M  V30 4459 H 419.288 -0.907765 4.94741 0
M  V30 4460 H 418.988 0.601444 5.84514 0
M  V30 4461 H 420.512 -0.295808 6.09883 0
M  V30 4462 H 421.926 1.87148 5.41893 0
M  V30 4463 H 420.323 2.66164 5.37845 0
M  V30 4464 H 421.393 2.78393 3.9702 0
M  V30 4465 N 422.737 -1.36956 0.779787 0
M  V30 4466 C 423.67 -2.27896 0.117681 0
M  V30 4467 C 424.648 -1.46736 -0.700523 0
M  V30 4468 O 425.832 -1.76055 -0.673568 0
M  V30 4469 C 422.959 -3.28136 -0.839296 0
M  V30 4470 C 422.005 -4.26373 -0.10409 0
M  V30 4471 S 422.838 -5.2157 1.21348 0
M  V30 4472 C 423.994 -6.25359 0.260249 0
M  V30 4473 H 424.227 -2.83704 0.888778 0
M  V30 4474 H 421.76 -1.43352 0.57355 0
M  V30 4475 H 423.718 -3.86394 -1.38601 0
M  V30 4476 H 422.379 -2.7126 -1.58356 0
M  V30 4477 H 421.572 -4.97121 -0.82986 0
M  V30 4478 H 421.174 -3.72147 0.371858 0
M  V30 4479 H 423.466 -6.75145 -0.564435 0
M  V30 4480 H 424.409 -7.01885 0.936135 0
M  V30 4481 H 424.817 -5.64345 -0.132127 0
M  V30 4482 N 424.215 -0.530993 -1.48385 0
M  V30 4483 C 425.631 -0.188919 -1.58478 0
M  V30 4484 C 425.831 1.30786 -1.53288 0
M  V30 4485 O 424.887 2.08619 -1.42248 0
M  V30 4486 C 426.2 -0.792343 -2.90073 0
M  V30 4487 C 427.748 -0.76117 -3.03604 0
M  V30 4488 C 428.223 -1.34319 -4.37861 0
M  V30 4489 N 429.714 -1.3052 -4.44431 0
M  V30 4490 C 430.449 -1.72543 -5.46824 0
M  V30 4491 N 429.945 -2.22299 -6.56167 0
M  V30 4492 N 431.738 -1.63773 -5.37712 0
M  V30 4493 H 423.889 -1.50377 -1.50002 0
M  V30 4494 H 426.152 -0.625559 -0.712306 0
M  V30 4495 H 425.858 -1.84323 -2.99529 0
M  V30 4496 H 425.732 -0.270026 -3.76232 0
M  V30 4497 H 428.119 0.280957 -2.93759 0
M  V30 4498 H 428.2 -1.32097 -2.19053 0
M  V30 4499 H 427.844 -2.38425 -4.4846 0
M  V30 4500 H 427.774 -0.759064 -5.21101 0
M  V30 4501 H 430.265 -0.940973 -3.65997 0
M  V30 4502 H 430.578 -2.52356 -7.30436 0
M  V30 4503 H 428.923 -2.26293 -6.57127 0
M  V30 4504 H 432.114 -1.24698 -4.51185 0
M  V30 4505 H 432.287 -1.96844 -6.17379 0
M  V30 4506 N 425.693 1.55336 -0.266172 0
M  V30 4507 C 426.64 2.22172 0.625165 0
M  V30 4508 C 427.61 1.19211 1.15663 0
M  V30 4509 O 428.795 1.47723 1.20758 0
M  V30 4510 C 425.935 2.93972 1.8076 0
M  V30 4511 C 425.048 4.11632 1.31084 0
M  V30 4512 C 424.183 4.71099 2.45436 0
M  V30 4513 C 423.222 5.8097 1.92718 0
M  V30 4514 N 422.359 6.34538 3.00509 0
M  V30 4515 H 427.199 2.9796 0.0485582 0
M  V30 4516 H 424.736 1.47095 0.0122024 0
M  V30 4517 H 426.694 3.33811 2.50251 0
M  V30 4518 H 425.324 2.20623 2.35638 0
M  V30 4519 H 424.376 3.76975 0.509326 0
M  V30 4520 H 425.688 4.90893 0.884633 0
M  V30 4521 H 424.842 5.13612 3.22936 0
M  V30 4522 H 423.581 3.91096 2.91368 0
M  V30 4523 H 422.586 5.37916 1.13695 0
M  V30 4524 H 423.811 6.62836 1.47733 0
M  V30 4525 H 421.757 5.57433 3.45839 0
M  V30 4526 H 421.674 7.09046 2.62279 0
M  V30 4527 H 422.942 6.81709 3.78011 0
M  V30 4528 N 427.171 -0.0066808 1.57599 0
M  V30 4529 C 428.396 -0.707738 1.94951 0
M  V30 4530 C 428.821 -1.66882 0.867868 0
M  V30 4531 O 428.179 -1.80457 -0.17458 0
M  V30 4532 C 428.227 -1.42162 3.31394 0
M  V30 4533 O 427.331 -2.53578 3.25226 0
M  V30 4534 H 426.672 -0.188752 0.636607 0
M  V30 4535 H 429.202 0.0445193 2.04552 0
M  V30 4536 H 429.212 -1.78655 3.66806 0
M  V30 4537 H 427.887 -0.716903 4.09675 0
M  V30 4538 H 426.464 -2.19463 3.01481 0
M  V30 4539 N 428.649 -1.55105 -0.279332 0
M  V30 4540 C 430.06 -1.66186 -0.850832 0
M  V30 4541 C 430.411 -0.584707 -1.87285 0
M  V30 4542 O 429.536 0.274919 -2.14647 0
M  V30 4543 C 430.131 -3.01264 -1.55001 0
M  V30 4544 C 428.69 -3.14394 -2.06963 0
M  V30 4545 C 427.837 -2.61959 -0.909536 0
M  V30 4546 H 430.788 -1.58602 -0.0558235 0
M  V30 4547 H 430.809 -2.93899 -2.41669 0
M  V30 4548 H 430.321 -3.7964 -0.805931 0
M  V30 4549 H 428.422 -2.4078 -2.84352 0
M  V30 4550 H 428.535 -4.20867 -2.28928 0
M  V30 4551 H 426.899 -2.18957 -1.30116 0
M  V30 4552 H 427.682 -3.42833 -0.179062 0
M  V30 4553 N 430.127 0.543554 -1.4793 0
M  V30 4554 C 431.538 1.12561 -1.48953 0
M  V30 4555 C 431.889 1.94578 -0.251754 0
M  V30 4556 O 431.014 2.0665 0.642255 0
M  V30 4557 C 431.609 2.04801 -2.69892 0
M  V30 4558 C 430.168 2.58251 -2.73831 0
M  V30 4559 C 429.315 1.34918 -2.42265 0
M  V30 4560 H 432.266 0.32947 -1.55242 0
M  V30 4561 H 432.287 2.88886 -2.47639 0
M  V30 4562 H 431.799 1.4508 -3.59963 0
M  V30 4563 H 429.9 3.21732 -1.87934 0
M  V30 4564 H 430.013 2.98312 -3.74895 0
M  V30 4565 H 428.377 1.66046 -1.93134 0
M  V30 4566 H 429.16 0.769693 -3.3456 0
M  V30 4567 N 431.605 1.3629 0.791371 0
M  V30 4568 C 432.552 1.30458 1.90393 0
M  V30 4569 C 433.522 0.173632 1.6519 0
M  V30 4570 O 434.707 0.35983 1.87376 0
M  V30 4571 C 431.847 1.09777 3.27174 0
M  V30 4572 C 430.96 2.31929 3.64462 0
M  V30 4573 C 430.095 2.04276 4.90352 0
M  V30 4574 C 429.134 3.224 5.20312 0
M  V30 4575 N 428.271 2.94424 6.37385 0
M  V30 4576 H 433.111 2.25589 1.94714 0
M  V30 4577 H 430.648 1.12122 0.952216 0
M  V30 4578 H 432.606 0.958133 4.06049 0
M  V30 4579 H 431.236 0.183014 3.22281 0
M  V30 4580 H 430.288 2.56703 2.80727 0
M  V30 4581 H 431.6 3.20085 3.82553 0
M  V30 4582 H 430.754 1.87231 5.77087 0
M  V30 4583 H 429.493 1.13428 4.74326 0
M  V30 4584 H 428.498 3.40005 4.32061 0
M  V30 4585 H 429.723 4.14071 5.38258 0
M  V30 4586 H 427.669 2.06185 6.22755 0
M  V30 4587 H 427.586 3.76118 6.55798 0
M  V30 4588 H 428.854 2.80953 7.27108 0
M  V30 4589 N 433.083 -1.0153 1.20538 0
M  V30 4590 C 434.046 -2.0826 0.957098 0
M  V30 4591 C 435.046 -1.60657 -0.0678655 0
M  V30 4592 O 436.236 -1.73385 0.168332 0
M  V30 4593 C 433.368 -3.38033 0.441188 0
M  V30 4594 H 434.561 -2.31719 1.90384 0
M  V30 4595 H 432.114 -1.1835 1.02093 0
M  V30 4596 H 432.849 -3.20249 -0.510961 0
M  V30 4597 H 432.634 -3.73911 1.18038 0
M  V30 4598 H 434.124 -4.16613 0.287009 0
M  V30 4599 N 434.561 -1.01147 -1.20859 0
M  V30 4600 C 435.838 -0.613136 -1.85742 0
M  V30 4601 C 436.218 0.909004 -1.90526 0
M  V30 4602 O 435.566 1.79862 -1.40932 0
M  V30 4603 C 435.776 -1.255 -3.25654 0
M  V30 4604 C 437.124 -1.3672 -4.01986 0
M  V30 4605 O 438.148 -1.21082 -3.34989 0
M  V30 4606 O 437.007 -1.6194 -5.21956 0
M  V30 4607 H 434.101 -0.210878 -0.799662 0
M  V30 4608 H 436.647 -1.10853 -1.2849 0
M  V30 4609 H 435.419 -2.29532 -3.16908 0
M  V30 4610 H 435.042 -0.746369 -3.90532 0
M  V30 4611 N 436.039 1.36541 -0.78704 0
M  V30 4612 C 436.949 2.3387 -0.184896 0
M  V30 4613 C 437.965 1.60927 0.661697 0
M  V30 4614 O 439.141 1.92927 0.57804 0
M  V30 4615 C 436.206 3.40122 0.672145 0
M  V30 4616 C 435.267 4.28867 -0.19267 0
M  V30 4617 C 434.5 5.30045 0.623561 0
M  V30 4618 O 434.723 5.39232 1.8597 0
M  V30 4619 O 433.657 6.01895 0.0247068 0
M  V30 4620 H 437.483 2.87126 -0.989562 0
M  V30 4621 H 435.068 1.38969 -0.548455 0
M  V30 4622 H 436.95 4.05093 1.16094 0
M  V30 4623 H 435.625 2.89169 1.45474 0
M  V30 4624 H 434.532 3.66945 -0.728166 0
M  V30 4625 H 435.865 4.83165 -0.938722 0
M  V30 4626 N 437.518 0.538854 1.48102 0
M  V30 4627 C 438.465 -0.219042 2.29758 0
M  V30 4628 C 439.435 -0.925562 1.37922 0
M  V30 4629 O 440.62 -0.924855 1.66886 0
M  V30 4630 C 437.76 -1.25452 3.2149 0
M  V30 4631 C 436.873 -0.555943 4.28408 0
M  V30 4632 C 436.008 -1.57512 5.0731 0
M  V30 4633 C 435.047 -0.860498 6.06021 0
M  V30 4634 N 434.184 -1.82564 6.77949 0
M  V30 4635 H 439.024 0.483449 2.94052 0
M  V30 4636 H 436.561 0.250247 1.44956 0
M  V30 4637 H 438.519 -1.86727 3.7308 0
M  V30 4638 H 437.149 -1.92528 2.591 0
M  V30 4639 H 436.201 0.170938 3.80016 0
M  V30 4640 H 437.513 0.00474616 4.988 0
M  V30 4641 H 436.667 -2.26191 5.62959 0
M  V30 4642 H 435.406 -2.16972 4.36778 0
M  V30 4643 H 434.411 -0.159686 5.49568 0
M  V30 4644 H 435.636 -0.271897 6.78555 0
M  V30 4645 H 433.582 -2.40915 6.10161 0
M  V30 4646 H 433.499 -1.31662 7.44447 0
M  V30 4647 H 434.767 -2.50414 7.38182 0
M  V30 4648 N 438.996 -1.55193 0.274407 0
M  V30 4649 C 439.906 -2.26164 -0.623473 0
M  V30 4650 C 440.922 -1.28729 -1.17068 0
M  V30 4651 O 442.098 -1.61663 -1.20112 0
M  V30 4652 C 439.163 -2.96833 -1.7914 0
M  V30 4653 C 438.224 -4.09745 -1.28093 0
M  V30 4654 C 437.457 -4.77034 -2.3932 0
M  V30 4655 O 437.68 -4.4353 -3.5866 0
M  V30 4656 O 436.614 -5.64996 -2.07516 0
M  V30 4657 H 440.44 -3.03661 -0.0485661 0
M  V30 4658 H 438.025 -1.49341 0.0418382 0
M  V30 4659 H 439.907 -3.41248 -2.4724 0
M  V30 4660 H 438.582 -2.22253 -2.35341 0
M  V30 4661 H 437.489 -3.69787 -0.566416 0
M  V30 4662 H 438.822 -4.86224 -0.764683 0
M  V30 4663 N 440.474 -0.00167713 -1.576 0
M  V30 4664 C 441.89 0.354422 -1.55615 0
M  V30 4665 C 442.09 1.74679 -1.00447 0
M  V30 4666 O 441.146 2.4428 -0.639022 0
M  V30 4667 C 442.459 0.22812 -2.99833 0
M  V30 4668 C 444.007 0.302934 -3.11531 0
M  V30 4669 C 444.482 0.205737 -4.57538 0
M  V30 4670 N 445.973 0.263584 -4.62449 0
M  V30 4671 C 446.708 0.211742 -5.73009 0
M  V30 4672 N 446.204 0.110399 -6.92712 0
M  V30 4673 N 447.997 0.263729 -5.61481 0
M  V30 4674 H 440.148 -0.912498 -1.918 0
M  V30 4675 H 442.411 -0.349928 -0.881053 0
M  V30 4676 H 442.117 -0.729934 -3.44042 0
M  V30 4677 H 441.991 1.00951 -3.6344 0
M  V30 4678 H 444.378 1.25143 -2.67251 0
M  V30 4679 H 444.459 -0.508357 -2.50698 0
M  V30 4680 H 444.103 -0.739225 -5.02492 0
M  V30 4681 H 444.033 1.03554 -5.16318 0
M  V30 4682 H 446.524 0.343173 -3.76339 0
M  V30 4683 H 446.837 0.0767828 -7.72762 0
M  V30 4684 H 445.182 0.0760025 -6.94958 0
M  V30 4685 H 448.373 0.34111 -4.66855 0
M  V30 4686 H 448.546 0.219862 -6.47627 0
M  V30 4687 N 441.952 1.55251 0.271103 0
M  V30 4688 C 442.899 1.88261 1.33516 0
M  V30 4689 C 443.869 0.734296 1.48988 0
M  V30 4690 O 445.054 0.985741 1.63364 0
M  V30 4691 C 442.194 2.16168 2.69008 0
M  V30 4692 C 441.307 3.43678 2.61743 0
M  V30 4693 C 440.442 3.61276 3.89427 0
M  V30 4694 C 439.481 4.82472 3.7668 0
M  V30 4695 N 438.618 4.96717 4.96202 0
M  V30 4696 H 443.458 2.79015 1.04665 0
M  V30 4697 H 440.995 1.38137 0.505618 0
M  V30 4698 H 442.953 2.30349 3.47844 0
M  V30 4699 H 441.583 1.28646 2.96057 0
M  V30 4700 H 440.635 3.37959 1.74607 0
M  V30 4701 H 441.947 4.3265 2.48224 0
M  V30 4702 H 441.101 3.75284 4.76704 0
M  V30 4703 H 439.84 2.70492 4.05814 0
M  V30 4704 H 438.845 4.68465 2.87786 0
M  V30 4705 H 440.07 5.74692 3.61809 0
M  V30 4706 H 438.016 4.08865 5.12997 0
M  V30 4707 H 437.933 5.79738 4.85222 0
M  V30 4708 H 439.201 5.15113 5.85046 0
M  V30 4709 N 443.43 -0.535701 1.48216 0
M  V30 4710 C 444.378 -1.66179 1.62749 0
M  V30 4711 C 445.372 -1.62034 0.49409 0
M  V30 4712 O 446.578 -1.6696 0.672624 0
M  V30 4713 H 442.953 -0.550244 0.512578 0
M  V30 4714 H 444.924 -1.51063 2.57337 0
M  V30 4715 C 443.673 -3.04471 1.67907 0
M  V30 4716 H 442.996 -3.08351 2.54479 0
M  V30 4717 H 444.436 -3.82894 1.82121 0
M  V30 4718 C 442.895 -3.34314 0.416596 0
M  V30 4719 O 443.425 -3.98905 -0.473014 0
M  V30 4720 N 441.631 -2.89149 0.290038 0
M  V30 4721 H 441.178 -2.36764 1.01493 0
M  V30 4722 H 441.136 -3.09486 -0.55367 0
M  V30 4723 N 444.908 -1.36708 -0.784132 0
M  V30 4724 C 446.324 -1.17237 -1.08294 0
M  V30 4725 C 446.524 -5.93947e-05 -2.015 0
M  V30 4726 O 445.58 0.663686 -2.43622 0
M  V30 4727 C 446.893 -2.48557 -1.69233 0
M  V30 4728 C 448.441 -2.54968 -1.8155 0
M  V30 4729 C 448.916 -3.86388 -2.45904 0
M  V30 4730 N 450.407 -3.87762 -2.53367 0
M  V30 4731 C 451.142 -4.86191 -3.03983 0
M  V30 4732 N 450.638 -5.95015 -3.54866 0
M  V30 4733 N 452.431 -4.73606 -3.02743 0
M  V30 4734 H 444.582 -2.11758 -0.16501 0
M  V30 4735 H 446.845 -0.93822 -0.135822 0
M  V30 4736 H 446.551 -3.34638 -1.08215 0
M  V30 4737 H 446.425 -2.64748 -2.68679 0
M  V30 4738 H 448.812 -1.69302 -2.41704 0
M  V30 4739 H 448.893 -2.42672 -0.80895 0
M  V30 4740 H 448.537 -4.72462 -1.86392 0
M  V30 4741 H 448.467 -3.95982 -3.4714 0
M  V30 4742 H 450.958 -3.09145 -2.17343 0
M  V30 4743 H 451.271 -6.66086 -3.91854 0
M  V30 4744 H 449.616 -5.98676 -3.53003 0
M  V30 4745 H 452.807 -3.87717 -2.62284 0
M  V30 4746 H 452.98 -5.50473 -3.41881 0
M  V30 4747 N 446.386 1.0089 -1.21074 0
M  V30 4748 C 447.296 2.13039 -0.982425 0
M  V30 4749 C 448.312 1.73881 0.0642161 0
M  V30 4750 O 449.488 2.01012 -0.12496 0
M  V30 4751 C 446.553 3.42377 -0.545803 0
M  V30 4752 C 445.614 3.95731 -1.6642 0
M  V30 4753 C 444.847 5.18896 -1.24832 0
M  V30 4754 O 445.07 5.70273 -0.120265 0
M  V30 4755 O 444.004 5.65597 -2.05873 0
M  V30 4756 H 447.83 2.35175 -1.92163 0
M  V30 4757 H 445.415 1.1142 -0.995285 0
M  V30 4758 H 447.297 4.20244 -0.311912 0
M  V30 4759 H 445.972 3.21639 0.364727 0
M  V30 4760 H 444.879 3.19108 -1.95246 0
M  V30 4761 H 446.212 4.20872 -2.55201 0
M  V30 4762 N 447.864 1.01787 1.20321 0
M  V30 4763 C 449.28 0.732951 1.41774 0
M  V30 4764 C 449.48 -0.686883 1.89431 0
M  V30 4765 O 448.536 -1.45446 2.06402 0
M  V30 4766 C 449.849 1.75973 2.43832 0
M  V30 4767 C 451.397 1.77802 2.57596 0
M  V30 4768 C 451.872 2.7941 3.62897 0
M  V30 4769 N 453.363 2.78157 3.70382 0
M  V30 4770 C 454.098 3.53434 4.51521 0
M  V30 4771 N 453.594 4.38392 5.36455 0
M  V30 4772 N 455.387 3.42026 4.46066 0
M  V30 4773 H 447.538 1.93447 0.877035 0
M  V30 4774 H 449.801 0.835712 0.447536 0
M  V30 4775 H 449.507 2.77699 2.15815 0
M  V30 4776 H 449.381 1.57292 3.4284 0
M  V30 4777 H 451.768 0.767602 2.84942 0
M  V30 4778 H 451.849 2.00557 1.58779 0
M  V30 4779 H 451.493 3.80616 3.36295 0
M  V30 4780 H 451.423 2.53916 4.61339 0
M  V30 4781 H 453.914 2.16531 3.09714 0
M  V30 4782 H 454.227 4.92596 5.95457 0
M  V30 4783 H 452.572 4.4247 5.35953 0
M  V30 4784 H 455.763 2.75075 3.78749 0
M  V30 4785 H 455.936 4.00946 5.09064 0
M  V30 4786 N 449.342 -1.36122 0.79427 0
M  V30 4787 C 450.252 -2.33769 0.197296 0
M  V30 4788 C 451.268 -1.61276 -0.653153 0
M  V30 4789 O 452.444 -1.9323 -0.5678 0
M  V30 4790 C 449.509 -3.40474 -0.654098 0
M  V30 4791 C 448.57 -4.28759 0.215411 0
M  V30 4792 C 447.803 -5.30368 -0.595443 0
M  V30 4793 O 448.026 -5.40211 -1.83107 0
M  V30 4794 O 446.96 -6.019 0.00721351 0
M  V30 4795 H 450.786 -2.86597 1.00478 0
M  V30 4796 H 448.371 -1.38676 0.555818 0
M  V30 4797 H 450.253 -4.05703 -1.13944 0
M  V30 4798 H 448.928 -2.89937 -1.43938 0
M  V30 4799 H 447.835 -3.66554 0.747615 0
M  V30 4800 H 449.168 -4.82661 0.964332 0
M  V30 4801 N 450.82 -0.546701 -1.47814 0
M  V30 4802 C 452.236 -0.205717 -1.58269 0
M  V30 4803 C 452.436 1.29153 -1.54667 0
M  V30 4804 O 451.492 2.07098 -1.44453 0
M  V30 4805 C 452.805 -0.823065 -2.89216 0
M  V30 4806 C 454.353 -0.793328 -3.02779 0
M  V30 4807 C 454.828 -1.38955 -4.36412 0
M  V30 4808 N 456.319 -1.35227 -4.43021 0
M  V30 4809 C 457.054 -1.78333 -5.44963 0
M  V30 4810 N 456.55 -2.29246 -6.53772 0
M  V30 4811 N 458.343 -1.69467 -5.35945 0
M  V30 4812 H 450.494 -1.5196 -1.48398 0
M  V30 4813 H 452.757 -0.633078 -0.705632 0
M  V30 4814 H 452.463 -1.8749 -2.97558 0
M  V30 4815 H 452.337 -0.309915 -3.75925 0
M  V30 4816 H 454.724 0.249784 -2.94041 0
M  V30 4817 H 454.805 -1.34412 -2.17639 0
M  V30 4818 H 454.449 -2.43168 -4.45906 0
M  V30 4819 H 454.379 -0.814291 -5.20266 0
M  V30 4820 H 456.87 -0.979739 -3.64979 0
M  V30 4821 H 457.183 -2.60089 -7.27718 0
M  V30 4822 H 455.528 -2.3325 -6.5469 0
M  V30 4823 H 458.719 -1.29477 -4.49837 0
M  V30 4824 H 458.892 -2.03381 -6.15256 0
M  V30 4825 N 452.299 1.55045 -0.282633 0
M  V30 4826 C 453.209 2.26491 0.61147 0
M  V30 4827 C 454.225 1.29348 1.16384 0
M  V30 4828 O 455.401 1.62298 1.19253 0
M  V30 4829 C 452.466 2.97779 1.77563 0
M  V30 4830 C 451.527 4.10418 1.25919 0
M  V30 4831 C 450.76 4.78297 2.36786 0
M  V30 4832 O 450.983 4.45426 3.56303 0
M  V30 4833 O 449.917 5.66089 2.04517 0
M  V30 4834 H 453.743 3.03683 0.0324615 0
M  V30 4835 H 451.328 1.49317 -0.0497576 0
M  V30 4836 H 453.21 3.42554 2.45427 0
M  V30 4837 H 451.885 2.23498 2.34159 0
M  V30 4838 H 450.792 3.70082 0.546797 0
M  V30 4839 H 452.125 4.86622 0.738887 0
M  V30 4840 N 453.777 0.010035 1.57597 0
M  V30 4841 C 455.193 -0.346164 1.55801 0
M  V30 4842 C 455.393 -1.74144 1.01371 0
M  V30 4843 O 454.449 -2.43938 0.651968 0
M  V30 4844 C 455.762 -0.212216 2.9995 0
M  V30 4845 C 457.31 -0.286409 3.11687 0
M  V30 4846 C 457.785 -0.18147 4.5764 0
M  V30 4847 N 459.276 -0.239056 4.62583 0
M  V30 4848 C 460.011 -0.181351 5.73113 0
M  V30 4849 N 459.507 -0.073661 6.92761 0
M  V30 4850 N 461.3 -0.233949 5.61613 0
M  V30 4851 H 453.451 0.922657 1.91313 0
M  V30 4852 H 455.714 0.354595 0.879185 0
M  V30 4853 H 455.42 0.748169 3.4365 0
M  V30 4854 H 455.294 -0.990224 3.6397 0
M  V30 4855 H 457.681 -1.23724 2.67911 0
M  V30 4856 H 457.762 0.521645 2.50425 0
M  V30 4857 H 457.406 0.765863 5.02093 0
M  V30 4858 H 457.336 -1.00814 5.1686 0
M  V30 4859 H 459.827 -0.32321 3.76515 0
M  V30 4860 H 460.14 -0.0358003 7.72792 0
M  V30 4861 H 458.485 -0.0391461 6.94989 0
M  V30 4862 H 461.676 -0.316347 4.6703 0
M  V30 4863 H 461.849 -0.185514 6.47734 0
M  V30 4864 N 455.255 -1.55392 -0.262866 0
M  V30 4865 C 456.165 -1.92077 -1.34698 0
M  V30 4866 C 457.181 -0.819227 -1.53508 0
M  V30 4867 O 458.357 -1.11921 -1.67439 0
M  V30 4868 C 455.422 -2.19407 -2.68443 0
M  V30 4869 C 454.483 -3.42905 -2.58292 0
M  V30 4870 C 453.716 -3.68921 -3.85659 0
M  V30 4871 O 453.939 -2.97275 -4.8681 0
M  V30 4872 O 452.873 -4.62455 -3.85252 0
M  V30 4873 H 456.699 -2.84384 -1.06581 0
M  V30 4874 H 454.284 -1.42069 -0.462264 0
M  V30 4875 H 456.166 -2.38365 -3.47506 0
M  V30 4876 H 454.841 -1.30282 -2.96325 0
M  V30 4877 H 453.748 -3.29272 -1.7757 0
M  V30 4878 H 455.081 -4.32282 -2.35358 0
M  V30 4879 N 456.733 0.527833 -1.48498 0
M  V30 4880 C 457.973 1.29401 -1.58224 0
M  V30 4881 C 458.337 1.90348 -0.251327 0
M  V30 4882 O 459.538 2.67868 -0.223588 0
M  V30 4883 C 457.809 2.35266 -2.69044 0
M  V30 4884 S 459.368 3.2158 -2.98549 0
M  V30 4885 H 456.186 0.440138 -0.558391 0
M  V30 4886 H 458.788 0.601079 -1.8603 0
M  V30 4887 H 457.492 1.88975 -3.64303 0
M  V30 4888 H 457.023 3.09263 -2.43146 0
M  V30 4889 H 459.038 4.35391 -2.38011 0
M  V30 4890 N 458.211 1.37122 0.776871 0
M  V30 4891 C 459.159 1.32549 1.91138 0
M  V30 4892 C 460.153 0.215119 1.68029 0
M  V30 4893 O 461.359 0.382852 1.75881 0
M  V30 4894 H 457.734 0.412952 0.62847 0
M  V30 4895 H 459.705 2.28332 1.92112 0
M  V30 4896 C 458.454 1.14422 3.28333 0
M  V30 4897 H 457.777 1.99115 3.46689 0
M  V30 4898 H 459.217 1.15272 4.0803 0
M  V30 4899 C 457.676 -0.150434 3.36564 0
M  V30 4900 O 458.206 -1.13584 3.85307 0
M  V30 4901 N 456.412 -0.19939 2.89915 0
M  V30 4902 H 455.959 0.603142 2.5044 0
M  V30 4903 H 455.917 -1.06526 2.95803 0
M  V30 4904 N 459.689 -1.00246 1.21608 0
M  V30 4905 C 461.1 -1.55511 1.03312 0
M  V30 4906 C 461.451 -1.91946 -0.406332 0
M  V30 4907 O 460.576 -1.73753 -1.28992 0
M  V30 4908 C 461.171 -2.82576 1.86913 0
M  V30 4909 C 459.73 -3.34318 1.72941 0
M  V30 4910 C 458.877 -2.07487 1.83968 0
M  V30 4911 H 461.828 -0.824638 1.35593 0
M  V30 4912 H 461.849 -3.54559 1.38087 0
M  V30 4913 H 461.361 -2.56026 2.91672 0
M  V30 4914 H 459.462 -3.65797 0.70877 0
M  V30 4915 H 459.575 -4.05566 2.55055 0
M  V30 4916 H 457.939 -2.20603 1.27304 0
M  V30 4917 H 458.722 -1.83346 2.9024 0
M  V30 4918 N 461.167 -1.02423 -1.1978 0
M  V30 4919 C 462.578 -0.748389 -1.71044 0
M  V30 4920 C 462.929 0.732398 -1.82017 0
M  V30 4921 O 462.054 1.57116 -1.48807 0
M  V30 4922 C 462.649 -1.35187 -3.1066 0
M  V30 4923 C 461.208 -1.12472 -3.59203 0
M  V30 4924 C 460.355 -1.45283 -2.36195 0
M  V30 4925 H 463.306 -1.19275 -1.04686 0
M  V30 4926 H 463.327 -0.746408 -3.73107 0
M  V30 4927 H 462.839 -2.4296 -3.02642 0
M  V30 4928 H 460.94 -0.0649983 -3.72543 0
M  V30 4929 H 461.053 -1.81016 -4.43588 0
M  V30 4930 H 459.417 -0.872034 -2.39307 0
M  V30 4931 H 460.2 -2.54129 -2.30811 0
M  V30 4932 N 462.645 1.35699 -0.801477 0
M  V30 4933 C 463.593 2.3177 -0.196317 0
M  V30 4934 C 464.587 1.56388 0.651081 0
M  V30 4935 O 465.793 1.71557 0.544815 0
M  V30 4936 H 462.168 0.750669 -0.0447189 0
M  V30 4937 H 464.139 2.8036 -1.02181 0
M  V30 4938 C 462.888 3.41671 0.644702 0
M  V30 4939 H 462.211 3.998 0.0019921 0
M  V30 4940 H 463.651 4.11184 1.0346 0
M  V30 4941 C 462.11 2.84271 1.80808 0
M  V30 4942 O 462.64 2.77408 2.9053 0
M  V30 4943 N 460.846 2.41391 1.61799 0
M  V30 4944 H 460.393 2.47173 0.725493 0
M  V30 4945 H 460.351 2.03334 2.39797 0
M  V30 4946 N 464.123 0.554532 1.47522 0
M  V30 4947 C 465.348 0.0322661 2.07375 0
M  V30 4948 C 465.773 -1.25079 1.40488 0
M  V30 4949 O 465.131 -1.74859 0.47896 0
M  V30 4950 C 465.179 -0.149397 3.6029 0
M  V30 4951 O 464.283 -1.21259 3.9417 0
M  V30 4952 H 463.624 0.0501228 0.662106 0
M  V30 4953 H 466.154 0.769452 1.8958 0
M  V30 4954 H 466.164 -0.364437 4.06369 0
M  V30 4955 H 464.839 0.787743 4.08372 0
M  V30 4956 H 463.416 -0.97825 3.5984 0
M  V30 4957 N 465.601 -1.54893 0.290851 0
M  V30 4958 C 466.533 -2.20564 -0.623236 0
M  V30 4959 C 467.546 -1.19519 -1.1054 0
M  V30 4960 O 468.735 -1.46165 -1.02459 0
M  V30 4961 C 465.835 -2.83033 -1.86401 0
M  V30 4962 C 465.008 -4.09916 -1.52604 0
M  V30 4963 C 464.067 -4.56284 -2.62091 0
M  V30 4964 O 463.093 -5.2171 -2.27612 0
M  V30 4965 N 464.295 -4.27746 -3.92446 0
M  V30 4966 H 467.06 -2.99638 -0.0610915 0
M  V30 4967 H 464.621 -1.61508 0.112615 0
M  V30 4968 H 466.613 -3.1099 -2.58973 0
M  V30 4969 H 465.183 -2.0786 -2.33481 0
M  V30 4970 H 464.403 -3.89078 -0.633424 0
M  V30 4971 H 465.691 -4.92554 -1.27547 0
M  V30 4972 H 465.089 -3.7531 -4.23272 0
M  V30 4973 H 463.646 -4.60437 -4.61347 0
M  V30 4974 N 467.08 -0.0183926 -1.57589 0
M  V30 4975 C 468.491 0.521927 -1.79256 0
M  V30 4976 C 468.842 1.72885 -0.927636 0
M  V30 4977 O 467.967 2.15978 -0.135091 0
M  V30 4978 C 468.562 0.953632 -3.25102 0
M  V30 4979 C 467.121 1.43913 -3.47801 0
M  V30 4980 C 466.268 0.398837 -2.74417 0
M  V30 4981 H 469.219 -0.244485 -1.56805 0
M  V30 4982 H 469.24 1.81863 -3.34224 0
M  V30 4983 H 468.752 0.0750123 -3.88028 0
M  V30 4984 H 466.853 2.33804 -2.90115 0
M  V30 4985 H 466.966 1.45391 -4.56507 0
M  V30 4986 H 465.33 0.864572 -2.39577 0
M  V30 4987 H 466.113 -0.471132 -3.40052 0
M  V30 4988 N 468.558 1.5553 0.254621 0
M  V30 4989 C 469.521 1.88872 1.29846 0
M  V30 4990 C 470.521 0.764591 1.41459 0
M  V30 4991 O 471.711 1.03265 1.40293 0
M  V30 4992 C 468.843 2.11032 2.67728 0
M  V30 4993 H 470.036 2.82201 1.01502 0
M  V30 4994 H 467.589 1.48303 0.493556 0
M  V30 4995 H 468.324 1.20146 3.01223 0
M  V30 4996 H 468.109 2.92895 2.60682 0
M  V30 4997 H 469.599 2.38038 3.43115 0
M  V30 4998 N 470.036 -0.519951 1.48776 0
M  V30 4999 C 471.261 -1.30447 1.6124 0
M  V30 5000 C 471.686 -1.86055 0.276591 0
M  V30 5001 O 471.044 -1.64915 -0.753183 0
M  V30 5002 C 471.092 -2.42406 2.66967 0
M  V30 5003 O 470.196 -3.45728 2.24824 0
M  V30 5004 H 469.537 -0.385924 0.540332 0
M  V30 5005 H 472.067 -0.624572 1.94834 0
M  V30 5006 H 472.077 -2.88447 2.88552 0
M  V30 5007 H 470.752 -2.01294 3.63941 0
M  V30 5008 H 469.329 -3.05737 2.13494 0
M  V30 5009 N 471.514 -1.37532 -0.769588 0
M  V30 5010 C 472.744 -1.35861 -1.55645 0
M  V30 5011 C 473.152 0.0574398 -1.89113 0
M  V30 5012 O 472.495 1.03021 -1.52093 0
M  V30 5013 C 472.557 -2.13431 -2.89288 0
M  V30 5014 C 472.221 -3.62378 -2.78444 0
M  V30 5015 C 473.218 -4.56215 -2.49326 0
M  V30 5016 C 470.903 -4.05529 -2.96398 0
M  V30 5017 C 472.897 -5.91181 -2.38294 0
M  V30 5018 C 470.584 -5.40579 -2.84987 0
M  V30 5019 C 471.582 -6.33218 -2.55975 0
M  V30 5020 O 471.27 -7.65787 -2.44594 0
M  V30 5021 H 471.002 -0.467001 -0.48876 0
M  V30 5022 H 473.556 -1.81505 -0.961515 0
M  V30 5023 H 471.786 -1.62481 -3.50909 0
M  V30 5024 H 473.475 -2.04368 -3.50697 0
M  V30 5025 H 474.241 -4.24187 -2.35139 0
M  V30 5026 H 470.12 -3.33781 -3.1798 0
M  V30 5027 H 473.664 -6.63457 -2.15571 0
M  V30 5028 H 469.561 -5.72209 -2.98743 0
M  V30 5029 H 470.329 -7.76132 -2.59927 0
M  V30 5030 N 472.992 0.995999 -1.22138 0
M  V30 5031 C 473.924 2.08745 -0.946485 0
M  V30 5032 C 474.937 1.62633 0.0737356 0
M  V30 5033 O 476.126 1.77782 -0.159886 0
M  V30 5034 C 473.226 3.36516 -0.401305 0
M  V30 5035 C 472.399 4.11672 -1.47801 0
M  V30 5036 C 471.458 5.17728 -0.940461 0
M  V30 5037 O 470.484 5.45482 -1.62596 0
M  V30 5038 N 471.686 5.80005 0.239723 0
M  V30 5039 H 474.451 2.32908 -1.88611 0
M  V30 5040 H 472.012 1.16152 -1.12785 0
M  V30 5041 H 474.004 4.04691 -0.0270837 0
M  V30 5042 H 472.574 3.0944 0.443354 0
M  V30 5043 H 471.794 3.38171 -2.02568 0
M  V30 5044 H 473.082 4.58657 -2.20253 0
M  V30 5045 H 472.48 5.5982 0.813518 0
M  V30 5046 H 471.037 6.4943 0.555361 0
M  V30 5047 N 474.47 1.03057 1.19235 0
M  V30 5048 C 475.886 0.747947 1.40989 0
M  V30 5049 C 476.086 -0.666752 1.90149 0
M  V30 5050 O 475.142 -1.43249 2.07933 0
M  V30 5051 C 476.455 1.7855 2.41951 0
M  V30 5052 C 478.003 1.80524 2.55695 0
M  V30 5053 C 478.478 2.83243 3.59913 0
M  V30 5054 N 479.969 2.8207 3.67411 0
M  V30 5055 C 480.704 3.58204 4.47747 0
M  V30 5056 N 480.2 4.44057 5.31775 0
M  V30 5057 N 481.993 3.46738 4.42413 0
M  V30 5058 H 474.144 1.94367 0.856468 0
M  V30 5059 H 476.407 0.840412 0.438647 0
M  V30 5060 H 476.113 2.79973 2.12857 0
M  V30 5061 H 475.987 1.6092 3.41152 0
M  V30 5062 H 478.374 0.79778 2.84112 0
M  V30 5063 H 478.455 2.02229 1.56643 0
M  V30 5064 H 478.099 3.84161 3.32239 0
M  V30 5065 H 478.029 2.58795 4.5862 0
M  V30 5066 H 480.52 2.19803 3.074 0
M  V30 5067 H 480.833 4.98884 5.90199 0
M  V30 5068 H 479.178 4.48129 5.3123 0
M  V30 5069 H 482.369 2.79077 3.75811 0
M  V30 5070 H 482.542 4.06322 5.04783 0
M  V30 5071 N 475.948 -1.35272 0.808662 0
M  V30 5072 C 477.364 -1.51806 0.492653 0
M  V30 5073 C 477.564 -1.7574 -0.985778 0
M  V30 5074 O 476.62 -1.80003 -1.77074 0
M  V30 5075 C 477.933 -2.69202 1.33981 0
M  V30 5076 C 479.481 -2.8308 1.33547 0
M  V30 5077 C 479.956 -4.03502 2.16679 0
M  V30 5078 N 481.447 -4.10684 2.14227 0
M  V30 5079 C 482.182 -5.02984 2.75308 0
M  V30 5080 N 481.678 -6.00603 3.45323 0
M  V30 5081 N 483.471 -4.95746 2.64938 0
M  V30 5082 H 475.622 -1.17993 1.76611 0
M  V30 5083 H 477.885 -0.577476 0.751814 0
M  V30 5084 H 477.591 -2.581 2.38909 0
M  V30 5085 H 477.465 -3.63854 0.994491 0
M  V30 5086 H 479.852 -2.93631 0.294036 0
M  V30 5087 H 479.933 -1.89278 1.72068 0
M  V30 5088 H 479.577 -3.93711 3.20864 0
M  V30 5089 H 479.507 -4.96489 1.75517 0
M  V30 5090 H 481.998 -3.40802 1.63285 0
M  V30 5091 H 482.311 -6.67633 3.89212 0
M  V30 5092 H 480.656 -6.0077 3.49428 0
M  V30 5093 H 483.847 -4.18439 2.09825 0
M  V30 5094 H 484.02 -5.67487 3.12829 0
M  V30 5095 N 477.426 -0.562348 -1.47226 0
M  V30 5096 C 478.356 0.170627 -2.32876 0
M  V30 5097 C 479.337 0.903748 -1.44106 0
M  V30 5098 O 480.522 0.883206 -1.72954 0
M  V30 5099 C 477.652 1.19786 -3.25989 0
M  V30 5100 C 476.606 0.580875 -4.2404 0
M  V30 5101 C 475.932 1.71311 -5.06514 0
M  V30 5102 C 477.232 -0.468714 -5.20193 0
M  V30 5103 H 478.926 -0.544441 -2.94408 0
M  V30 5104 H 476.472 -0.263271 -1.41573 0
M  V30 5105 H 478.425 1.71884 -3.84752 0
M  V30 5106 H 477.149 1.94294 -2.62521 0
M  V30 5107 H 475.808 0.0811538 -3.6651 0
M  V30 5108 H 475.456 2.44736 -4.39447 0
M  V30 5109 H 475.156 1.30604 -5.72902 0
M  V30 5110 H 476.68 2.23725 -5.68137 0
M  V30 5111 H 478.094 -0.0336028 -5.7329 0
M  V30 5112 H 476.491 -0.794957 -5.94811 0
M  V30 5113 H 477.561 -1.36269 -4.65359 0
M  V30 5114 N 478.904 1.54736 -0.299062 0
M  V30 5115 C 479.834 2.26409 0.571085 0
M  V30 5116 C 480.815 1.2629 1.13951 0
M  V30 5117 O 482 1.55059 1.16921 0
M  V30 5118 C 479.13 3.00338 1.74396 0
M  V30 5119 C 478.084 4.07588 1.30599 0
M  V30 5120 C 477.41 4.69222 2.56387 0
M  V30 5121 C 478.71 5.20455 0.438645 0
M  V30 5122 H 480.404 2.99388 -0.0266991 0
M  V30 5123 H 477.95 1.43993 -0.0142812 0
M  V30 5124 H 479.903 3.49198 2.35878 0
M  V30 5125 H 478.627 2.24934 2.36796 0
M  V30 5126 H 477.286 3.59575 0.71424 0
M  V30 5127 H 476.934 3.9046 3.17097 0
M  V30 5128 H 476.634 5.41653 2.27784 0
M  V30 5129 H 478.158 5.20844 3.18675 0
M  V30 5130 H 479.572 5.65221 0.959085 0
M  V30 5131 H 477.969 5.99594 0.246466 0
M  V30 5132 H 479.039 4.8192 -0.536738 0
M  V30 5133 N 480.382 0.0267497 1.57577 0
M  V30 5134 C 481.628 -0.653371 1.91987 0
M  V30 5135 C 481.961 -1.71915 0.903263 0
M  V30 5136 O 481.236 -1.94358 -0.0743387 0
M  V30 5137 C 481.519 -1.272 3.36886 0
M  V30 5138 C 481.372 -0.215938 4.49281 0
M  V30 5139 C 482.691 -2.19069 3.81703 0
M  V30 5140 H 479.81 -0.236047 0.698177 0
M  V30 5141 H 482.452 0.0835236 1.89816 0
M  V30 5142 H 480.602 -1.90005 3.38866 0
M  V30 5143 H 482.274 0.41449 4.59434 0
M  V30 5144 H 480.517 0.458855 4.31366 0
M  V30 5145 H 481.188 -0.688347 5.47691 0
M  V30 5146 H 483.664 -1.66253 3.81444 0
M  V30 5147 H 482.54 -2.59307 4.83788 0
M  V30 5148 H 482.801 -3.08087 3.17072 0
M  V30 5149 N 481.861 -1.55662 -0.24637 0
M  V30 5150 C 483.089 -1.81575 -0.991876 0
M  V30 5151 C 483.504 -0.602545 -1.78927 0
M  V30 5152 O 482.861 0.428795 -1.77391 0
M  V30 5153 C 482.912 -3.05711 -1.92933 0
M  V30 5154 O 482.633 -4.22348 -1.1642 0
M  V30 5155 C 484.134 -3.44428 -2.79078 0
M  V30 5156 H 481.354 -0.604209 -0.291844 0
M  V30 5157 H 483.898 -2.02722 -0.269095 0
M  V30 5158 H 482.053 -2.86612 -2.60638 0
M  V30 5159 H 482.467 -4.92706 -1.79835 0
M  V30 5160 H 483.941 -4.34388 -3.40603 0
M  V30 5161 H 484.418 -2.65037 -3.50217 0
M  V30 5162 H 485.024 -3.65879 -2.16824 0
M  V30 5163 N 483.339 0.512053 -1.4905 0
M  V30 5164 C 484.755 0.84224 -1.35567 0
M  V30 5165 C 484.955 1.97878 -0.380319 0
M  V30 5166 O 484.011 2.51769 0.19201 0
M  V30 5167 C 485.324 1.19286 -2.76028 0
M  V30 5168 C 486.872 1.30171 -2.84648 0
M  V30 5169 C 487.347 1.68568 -4.25851 0
M  V30 5170 N 488.838 1.75638 -4.28609 0
M  V30 5171 C 489.573 2.06769 -5.34821 0
M  V30 5172 N 489.069 2.36201 -6.51292 0
M  V30 5173 N 490.862 2.07927 -5.22229 0
M  V30 5174 H 483.013 -0.237574 -2.11067 0
M  V30 5175 H 485.276 -0.0436747 -0.946993 0
M  V30 5176 H 484.982 0.431199 -3.49047 0
M  V30 5177 H 484.856 2.13889 -3.10695 0
M  V30 5178 H 487.243 2.05411 -2.11873 0
M  V30 5179 H 487.324 0.336457 -2.53578 0
M  V30 5180 H 486.968 0.938824 -4.99148 0
M  V30 5181 H 486.898 2.66174 -4.54377 0
M  V30 5182 H 489.389 1.55097 -3.44606 0
M  V30 5183 H 489.702 2.59112 -7.28066 0
M  V30 5184 H 488.047 2.33681 -6.54536 0
M  V30 5185 H 491.238 1.84403 -4.30248 0
M  V30 5186 H 491.411 2.31856 -6.05101 0
M  V30 5187 N 484.817 1.37938 0.762283 0
M  V30 5188 C 486.042 1.37059 1.55659 0
M  V30 5189 C 486.467 -0.0396123 1.88058 0
M  V30 5190 O 485.825 -1.01929 1.49934 0
M  V30 5191 C 485.873 2.22494 2.83776 0
M  V30 5192 O 484.977 1.63607 3.78559 0
M  V30 5193 H 484.318 0.467892 0.47114 0
M  V30 5194 H 486.848 1.81587 0.942725 0
M  V30 5195 H 486.858 2.36045 3.32786 0
M  V30 5196 H 485.533 3.24993 2.59524 0
M  V30 5197 H 484.11 1.5915 3.37233 0
M  V30 5198 N 486.295 -0.989507 1.22664 0
M  V30 5199 C 487.543 -1.72612 1.05117 0
M  V30 5200 C 487.864 -1.90552 -0.414131 0
M  V30 5201 O 487.134 -1.4676 -1.29762 0
M  V30 5202 H 485.714 -0.639555 0.385977 0
M  V30 5203 H 488.376 -1.19158 1.54232 0
M  V30 5204 H 487.472 -2.71926 1.53175 0
M  V30 5205 N 487.773 -1.03688 -1.18687 0
M  V30 5206 C 489.189 -0.755413 -1.4059 0
M  V30 5207 C 489.389 0.656659 -1.905 0
M  V30 5208 O 488.445 1.42144 -2.08689 0
M  V30 5209 C 489.758 -1.7983 -2.41001 0
M  V30 5210 C 491.306 -1.81877 -2.54735 0
M  V30 5211 C 491.781 -2.85148 -3.58406 0
M  V30 5212 N 493.272 -2.84015 -3.6591 0
M  V30 5213 C 494.007 -3.60573 -4.45841 0
M  V30 5214 N 493.503 -4.46871 -5.29413 0
M  V30 5215 N 495.296 -3.49079 -4.40568 0
M  V30 5216 H 487.447 -1.94818 -0.846148 0
M  V30 5217 H 489.71 -0.842727 -0.434184 0
M  V30 5218 H 489.416 -2.81097 -2.1137 0
M  V30 5219 H 489.29 -1.62727 -3.40294 0
M  V30 5220 H 491.677 -0.812836 -2.83685 0
M  V30 5221 H 491.758 -2.03057 -1.55568 0
M  V30 5222 H 491.402 -3.85918 -3.30197 0
M  V30 5223 H 491.332 -2.61224 -4.57241 0
M  V30 5224 H 493.823 -2.21431 -3.0623 0
M  V30 5225 H 494.136 -5.02007 -5.87545 0
M  V30 5226 H 492.481 -4.5094 -5.28846 0
M  V30 5227 H 495.672 -2.81066 -3.74325 0
M  V30 5228 H 495.845 -4.08994 -5.02621 0
M  V30 5229 N 489.251 1.34841 -0.815825 0
M  V30 5230 C 490.198 2.29644 -0.230664 0
M  V30 5231 C 491.168 1.53253 0.640533 0
M  V30 5232 O 492.353 1.81653 0.583672 0
M  V30 5233 C 489.493 3.39715 0.607275 0
M  V30 5234 C 488.606 4.31056 -0.28538 0
M  V30 5235 C 487.741 5.28225 0.561446 0
M  V30 5236 C 486.78 6.11204 -0.331035 0
M  V30 5237 N 485.917 7.00483 0.476302 0
M  V30 5238 H 490.757 2.79095 -1.0445 0
M  V30 5239 H 488.294 1.37351 -0.526595 0
M  V30 5240 H 490.252 4.02208 1.10835 0
M  V30 5241 H 488.882 2.91517 1.38629 0
M  V30 5242 H 487.934 3.69487 -0.904621 0
M  V30 5243 H 489.246 4.89239 -0.97193 0
M  V30 5244 H 488.4 5.96135 1.12728 0
M  V30 5245 H 487.139 4.70562 1.28153 0
M  V30 5246 H 486.144 5.42232 -0.909069 0
M  V30 5247 H 487.369 6.70947 -1.04912 0
M  V30 5248 H 485.315 6.45296 1.18019 0
M  V30 5249 H 485.232 7.55847 -0.152008 0
M  V30 5250 H 486.5 7.7273 1.02512 0
M  V30 5251 N 490.729 0.570148 1.46925 0
M  V30 5252 C 491.978 0.0487352 2.01641 0
M  V30 5253 C 492.291 -1.31433 1.44861 0
M  V30 5254 O 493.497 -1.92638 1.91318 0
M  V30 5255 C 491.953 0.0365817 3.59881 0
M  V30 5256 C 491.561 1.39719 4.25655 0
M  V30 5257 C 493.305 -0.431545 4.22301 0
M  V30 5258 C 491.212 1.34345 5.75939 0
M  V30 5259 H 490.142 0.0144492 0.753862 0
M  V30 5260 H 492.793 0.719928 1.68788 0
M  V30 5261 H 491.175 -0.700522 3.89755 0
M  V30 5262 H 492.349 2.15303 4.07408 0
M  V30 5263 H 490.664 1.80431 3.75278 0
M  V30 5264 H 493.261 -0.490354 5.32447 0
M  V30 5265 H 493.604 -1.44638 3.90366 0
M  V30 5266 H 494.137 0.251102 3.97007 0
M  V30 5267 H 490.876 2.33469 6.12513 0
M  V30 5268 H 490.396 0.629615 5.96486 0
M  V30 5269 H 492.075 1.051 6.38407 0
M  V30 5270 N 492.207 -1.54576 0.307264 0
M  V30 5271 C 493.154 -2.23751 -0.56604 0
M  V30 5272 C 494.124 -1.22235 -1.12462 0
M  V30 5273 O 495.309 -1.50873 -1.16799 0
M  V30 5274 C 492.449 -2.98661 -1.72903 0
M  V30 5275 C 491.562 -4.14963 -1.20124 0
M  V30 5276 C 490.697 -4.77441 -2.3286 0
M  V30 5277 C 489.736 -5.85875 -1.77247 0
M  V30 5278 N 488.873 -6.42282 -2.8358 0
M  V30 5279 H 493.713 -2.97984 0.0304578 0
M  V30 5280 H 491.25 -1.47076 0.0268015 0
M  V30 5281 H 493.208 -3.40329 -2.41313 0
M  V30 5282 H 491.838 -2.26793 -2.29706 0
M  V30 5283 H 490.89 -3.78193 -0.409198 0
M  V30 5284 H 492.202 -4.93066 -0.754171 0
M  V30 5285 H 491.356 -5.21993 -3.09205 0
M  V30 5286 H 490.095 -3.98684 -2.80896 0
M  V30 5287 H 489.1 -5.40741 -0.993926 0
M  V30 5288 H 490.325 -6.6652 -1.30107 0
M  V30 5289 H 488.271 -5.66406 -3.30939 0
M  V30 5290 H 488.188 -7.1575 -2.43388 0
M  V30 5291 H 489.456 -6.91492 -3.59804 0
M  V30 5292 N 493.685 -0.035106 -1.57561 0
M  V30 5293 C 494.933 0.64096 -1.91667 0
M  V30 5294 C 495.254 1.72323 -0.912681 0
M  V30 5295 O 494.524 1.95849 0.0449089 0
M  V30 5296 H 493.104 0.239743 -0.707483 0
M  V30 5297 H 495.766 -0.084321 -1.94718 0
M  V30 5298 H 494.862 1.08987 -2.92452 0
M  V30 5299 N 495.163 1.55791 0.238111 0
M  V30 5300 C 496.579 1.48411 0.587045 0
M  V30 5301 C 496.779 0.72702 1.87927 0
M  V30 5302 O 495.835 0.259942 2.51158 0
M  V30 5303 C 497.148 2.92873 0.681623 0
M  V30 5304 C 498.696 3.03295 0.773363 0
M  V30 5305 C 499.171 4.49082 0.899428 0
M  V30 5306 N 500.662 4.53056 0.964075 0
M  V30 5307 C 501.397 5.63117 1.08104 0
M  V30 5308 N 500.893 6.82969 1.16299 0
M  V30 5309 N 502.686 5.50933 1.11488 0
M  V30 5310 H 494.837 2.0345 -0.610076 0
M  V30 5311 H 497.1 0.924034 -0.211813 0
M  V30 5312 H 496.806 3.51142 -0.19802 0
M  V30 5313 H 496.68 3.43851 1.55069 0
M  V30 5314 H 499.067 2.45101 1.64346 0
M  V30 5315 H 499.148 2.55513 -0.121034 0
M  V30 5316 H 498.792 5.07889 0.0338586 0
M  V30 5317 H 498.722 4.94553 1.809 0
M  V30 5318 H 501.213 3.66737 0.91173 0
M  V30 5319 H 501.526 7.62598 1.25155 0
M  V30 5320 H 499.871 6.85712 1.13241 0
M  V30 5321 H 503.062 4.56231 1.0474 0
M  V30 5322 H 503.235 6.36743 1.20259 0
M  V30 5323 N 496.642 -0.504142 1.49319 0
M  V30 5324 C 497.89 -1.25598 1.58334 0
M  V30 5325 C 498.211 -1.93114 0.270538 0
M  V30 5326 O 497.481 -1.82585 -0.709891 0
M  V30 5327 H 496.061 -0.466571 0.58337 0
M  V30 5328 H 498.723 -0.584547 1.85928 0
M  V30 5329 H 497.819 -2.02159 2.37778 0
M  V30 5330 N 498.12 -1.38341 -0.754957 0
M  V30 5331 C 499.531 -1.30803 -1.3322 0
M  V30 5332 C 499.882 0.0368 -1.96165 0
M  V30 5333 O 499.007 0.938844 -1.94974 0
M  V30 5334 C 499.602 -2.3688 -2.42225 0
M  V30 5335 C 498.161 -2.32925 -2.95674 0
M  V30 5336 C 497.308 -2.19819 -1.69042 0
M  V30 5337 H 500.259 -1.48719 -0.553937 0
M  V30 5338 H 500.28 -2.02517 -3.22129 0
M  V30 5339 H 499.792 -3.34747 -1.96383 0
M  V30 5340 H 497.893 -1.38635 -3.45848 0
M  V30 5341 H 498.006 -3.27008 -3.50146 0
M  V30 5342 H 496.37 -1.66648 -1.92615 0
M  V30 5343 H 497.153 -3.19625 -1.25279 0
M  V30 5344 N 499.598 0.982988 -1.23187 0
M  V30 5345 C 501.014 1.2487 -0.993967 0
M  V30 5346 C 501.214 1.99155 0.306498 0
M  V30 5347 O 500.27 2.30688 1.0266 0
M  V30 5348 C 501.583 2.05078 -2.19917 0
M  V30 5349 C 503.131 2.18227 -2.2438 0
M  V30 5350 C 503.606 3.01825 -3.44479 0
M  V30 5351 N 505.097 3.09411 -3.44702 0
M  V30 5352 C 505.832 3.74412 -4.34285 0
M  V30 5353 N 505.328 4.41259 -5.341 0
M  V30 5354 N 507.121 3.71273 -4.22035 0
M  V30 5355 H 499.272 0.485253 -2.06783 0
M  V30 5356 H 501.535 0.276979 -0.906635 0
M  V30 5357 H 501.241 1.57867 -3.14279 0
M  V30 5358 H 501.115 3.05829 -2.2079 0
M  V30 5359 H 503.502 2.64648 -1.30559 0
M  V30 5360 H 503.583 1.16873 -2.2754 0
M  V30 5361 H 503.227 2.56102 -4.38605 0
M  V30 5362 H 503.157 4.03342 -3.38559 0
M  V30 5363 H 505.648 2.61845 -2.7248 0
M  V30 5364 H 505.961 4.88629 -5.98717 0
M  V30 5365 H 504.306 4.39975 -5.38002 0
M  V30 5366 H 507.497 3.18217 -3.43301 0
M  V30 5367 H 507.67 4.21649 -4.92053 0
M  V30 5368 N 501.076 1.04316 1.18135 0
M  V30 5369 C 502.492 0.762858 1.40188 0
M  V30 5370 C 502.692 -0.646547 1.90846 0
M  V30 5371 O 501.748 -1.41036 2.0944 0
M  V30 5372 C 503.061 1.81106 2.40044 0
M  V30 5373 C 504.609 1.83226 2.53766 0
M  V30 5374 C 505.084 2.87044 3.56889 0
M  V30 5375 N 506.575 2.85951 3.64398 0
M  V30 5376 C 507.31 3.62932 4.43923 0
M  V30 5377 N 506.806 4.49672 5.27036 0
M  V30 5378 N 508.599 3.51411 4.38711 0
M  V30 5379 H 500.75 1.95264 0.835805 0
M  V30 5380 H 503.013 0.845017 0.429709 0
M  V30 5381 H 502.719 2.82214 2.09876 0
M  V30 5382 H 502.593 1.64529 3.39426 0
M  V30 5383 H 504.98 0.827869 2.8325 0
M  V30 5384 H 505.061 2.03879 1.54489 0
M  V30 5385 H 504.705 3.87663 3.28145 0
M  V30 5386 H 504.635 2.63645 4.5585 0
M  V30 5387 H 507.126 2.23051 3.05052 0
M  V30 5388 H 507.439 5.05116 5.84874 0
M  V30 5389 H 505.784 4.53738 5.26447 0
M  V30 5390 H 508.975 2.83047 3.72829 0
M  V30 5391 H 509.148 4.11654 5.00445 0
M  V30 5392 N 502.554 -1.34406 0.822964 0
M  V30 5393 C 503.784 -2.02214 0.423424 0
M  V30 5394 C 504.192 -1.62124 -0.975322 0
M  V30 5395 O 503.535 -0.822452 -1.6426 0
M  V30 5396 C 503.597 -3.56721 0.446107 0
M  V30 5397 C 503.261 -4.20136 1.79819 0
M  V30 5398 C 504.258 -4.4065 2.75904 0
M  V30 5399 C 501.943 -4.56906 2.08669 0
M  V30 5400 C 503.937 -4.9706 3.99012 0
M  V30 5401 C 501.624 -5.13026 3.32036 0
M  V30 5402 C 502.622 -5.33047 4.27024 0
M  V30 5403 O 502.31 -5.87979 5.48211 0
M  V30 5404 H 502.042 -0.654748 0.168169 0
M  V30 5405 H 504.596 -1.72659 1.11257 0
M  V30 5406 H 502.826 -3.85537 -0.299734 0
M  V30 5407 H 504.515 -4.05845 0.0666114 0
M  V30 5408 H 505.281 -4.12607 2.54912 0
M  V30 5409 H 501.16 -4.40626 1.35535 0
M  V30 5410 H 504.704 -5.12603 4.73164 0
M  V30 5411 H 500.601 -5.40498 3.52891 0
M  V30 5412 H 501.369 -6.06413 5.49732 0
M  V30 5413 N 504.032 -0.577932 -1.46621 0
M  V30 5414 C 505.448 -0.239242 -1.57797 0
M  V30 5415 C 505.648 1.25843 -1.57371 0
M  V30 5416 O 504.704 2.03988 -1.48813 0
M  V30 5417 C 506.017 -0.884227 -2.87405 0
M  V30 5418 C 507.565 -0.857373 -3.01028 0
M  V30 5419 C 508.04 -1.48181 -4.33366 0
M  V30 5420 N 509.531 -1.44593 -4.40053 0
M  V30 5421 C 510.266 -1.89852 -5.41058 0
M  V30 5422 N 509.762 -2.43062 -6.48762 0
M  V30 5423 N 511.555 -1.80797 -5.3223 0
M  V30 5424 H 503.706 -1.55073 -1.45142 0
M  V30 5425 H 505.969 -0.647903 -0.692044 0
M  V30 5426 H 505.675 -1.93759 -2.93514 0
M  V30 5427 H 505.549 -0.389585 -3.75183 0
M  V30 5428 H 507.936 0.187357 -2.94505 0
M  V30 5429 H 508.017 -1.38999 -2.14739 0
M  V30 5430 H 507.661 -2.52572 -4.40647 0
M  V30 5431 H 507.591 -0.924464 -5.18422 0
M  V30 5432 H 510.082 -1.05694 -3.62819 0
M  V30 5433 H 510.395 -2.75466 -7.22038 0
M  V30 5434 H 508.74 -2.47085 -6.49595 0
M  V30 5435 H 511.931 -1.38989 -4.46989 0
M  V30 5436 H 512.104 -2.16385 -6.10804 0
M  V30 5437 N 505.51 1.54411 -0.315457 0
M  V30 5438 C 506.738 2.04833 0.291738 0
M  V30 5439 C 507.153 1.19203 1.46411 0
M  V30 5440 O 506.51 0.220867 1.81159 0
M  V30 5441 C 506.561 3.53969 0.73404 0
M  V30 5442 O 506.282 4.36346 -0.391682 0
M  V30 5443 C 507.783 4.2045 1.40489 0
M  V30 5444 H 505.003 0.668195 0.0612947 0
M  V30 5445 H 507.547 1.99276 -0.45929 0
M  V30 5446 H 505.702 3.5984 1.43506 0
M  V30 5447 H 506.116 5.24481 -0.0447088 0
M  V30 5448 H 507.59 5.26278 1.66539 0
M  V30 5449 H 508.067 3.71067 2.3496 0
M  V30 5450 H 508.673 4.18694 0.746662 0
M  V30 5451 N 506.988 0.0434614 1.5754 0
M  V30 5452 C 508.399 -0.493343 1.80064 0
M  V30 5453 C 508.75 -1.71388 0.955023 0
M  V30 5454 O 507.875 -2.15736 0.169434 0
M  V30 5455 C 508.47 -0.90179 3.26578 0
M  V30 5456 C 507.029 -1.38362 3.50047 0
M  V30 5457 C 506.176 -0.355129 2.75017 0
M  V30 5458 H 509.127 0.2694 1.56397 0
M  V30 5459 H 509.148 -1.76523 3.37075 0
M  V30 5460 H 508.66 -0.013271 3.88098 0
M  V30 5461 H 506.761 -2.29159 2.93798 0
M  V30 5462 H 506.874 -1.3811 4.58762 0
M  V30 5463 H 505.238 -0.826348 2.40922 0
M  V30 5464 H 506.021 0.525172 3.39259 0
M  V30 5465 N 508.466 -1.55915 -0.229846 0
M  V30 5466 C 509.691 -1.8296 -0.976743 0
M  V30 5467 C 510.116 -0.622735 -1.77493 0
M  V30 5468 O 509.474 0.428431 -1.76165 0
M  V30 5469 C 509.522 -3.07916 -1.8767 0
M  V30 5470 O 508.626 -2.86028 -2.97088 0
M  V30 5471 H 507.967 -0.603453 -0.277021 0
M  V30 5472 H 510.497 -2.0312 -0.245669 0
M  V30 5473 H 510.507 -3.37802 -2.2881 0
M  V30 5474 H 509.182 -3.95389 -1.28996 0
M  V30 5475 H 507.759 -2.67355 -2.59954 0
M  V30 5476 N 509.944 0.496216 -1.49584 0
M  V30 5477 C 511.36 0.827814 -1.36453 0
M  V30 5478 C 511.56 1.97464 -0.401285 0
M  V30 5479 O 510.616 2.51958 0.165296 0
M  V30 5480 C 511.929 1.16352 -2.77277 0
M  V30 5481 C 513.477 1.27145 -2.86013 0
M  V30 5482 C 513.952 1.64042 -4.27615 0
M  V30 5483 N 515.443 1.71082 -4.30448 0
M  V30 5484 C 516.178 2.01085 -5.36984 0
M  V30 5485 N 515.674 2.2928 -6.5376 0
M  V30 5486 N 517.467 2.02376 -5.24405 0
M  V30 5487 H 509.618 -0.259947 -2.10803 0
M  V30 5488 H 511.881 -0.0537163 -0.946477 0
M  V30 5489 H 511.587 0.394153 -3.49484 0
M  V30 5490 H 511.461 2.10582 -3.12946 0
M  V30 5491 H 513.848 2.03152 -2.1404 0
M  V30 5492 H 513.929 0.309542 -2.5392 0
M  V30 5493 H 513.573 0.88583 -5.00115 0
M  V30 5494 H 513.503 2.6134 -4.57175 0
M  V30 5495 H 515.994 1.51434 -3.46232 0
M  V30 5496 H 516.307 2.51376 -7.30774 0
M  V30 5497 H 514.652 2.26726 -6.56978 0
M  V30 5498 H 517.843 1.79829 -4.32179 0
M  V30 5499 H 518.016 2.25425 -6.07526 0
M  V30 5500 N 511.423 1.38739 0.74761 0
M  V30 5501 C 512.648 1.38702 1.54197 0
M  V30 5502 C 513.073 -0.019664 1.8809 0
M  V30 5503 O 512.431 -1.00333 1.51006 0
M  V30 5504 C 512.479 2.25492 2.814 0
M  V30 5505 O 511.583 1.67613 3.76802 0
M  V30 5506 H 510.924 0.472863 0.466151 0
M  V30 5507 H 513.454 1.82577 0.923413 0
M  V30 5508 H 513.464 2.39561 3.30264 0
M  V30 5509 H 512.139 3.27727 2.56062 0
M  V30 5510 H 510.716 1.62718 3.35526 0
M  V30 5511 N 512.901 -0.976442 1.23707 0
M  V30 5512 C 514.317 -1.24341 1.00058 0
M  V30 5513 C 514.517 -1.99315 -0.295932 0
M  V30 5514 O 513.573 -2.3123 -1.01435 0
M  V30 5515 C 514.886 -2.03909 2.21001 0
M  V30 5516 C 516.434 -2.17034 2.25534 0
M  V30 5517 C 516.909 -2.99994 3.46075 0
M  V30 5518 N 518.4 -3.07578 3.46338 0
M  V30 5519 C 519.135 -3.72104 4.36264 0
M  V30 5520 N 518.631 -4.3842 5.36432 0
M  V30 5521 N 520.424 -3.69029 4.23998 0
M  V30 5522 H 512.575 -0.47428 2.07037 0
M  V30 5523 H 514.838 -0.272167 0.908091 0
M  V30 5524 H 514.544 -1.56198 3.15111 0
M  V30 5525 H 514.418 -3.04654 2.22409 0
M  V30 5526 H 516.805 -2.63951 1.31961 0
M  V30 5527 H 516.886 -1.15664 2.28156 0
M  V30 5528 H 516.53 -2.53772 4.39957 0
M  V30 5529 H 516.46 -4.01541 3.40694 0
M  V30 5530 H 518.951 -2.60397 2.73865 0
M  V30 5531 H 519.264 -4.85447 6.013 0
M  V30 5532 H 517.609 -4.37116 5.40328 0
M  V30 5533 H 520.8 -3.16392 3.44984 0
M  V30 5534 H 520.973 -4.19034 4.94282 0
M  V30 5535 N 514.379 -1.04941 -1.1758 0
M  V30 5536 C 515.604 -0.778253 -1.92245 0
M  V30 5537 C 516.029 0.659707 -1.76152 0
M  V30 5538 O 515.387 1.45803 -1.07755 0
M  V30 5539 C 515.435 -1.16051 -3.41416 0
M  V30 5540 O 514.539 -0.291153 -4.11371 0
M  V30 5541 H 513.88 -0.285619 -0.599431 0
M  V30 5542 H 516.41 -1.40159 -1.49052 0
M  V30 5543 H 516.42 -1.12619 -3.92149 0
M  V30 5544 H 515.095 -2.208 -3.52449 0
M  V30 5545 H 513.672 -0.385851 -3.70898 0
M  V30 5546 N 515.857 1.33968 -0.830081 0
M  V30 5547 C 517.273 1.51003 -0.516742 0
M  V30 5548 C 517.473 1.77286 0.957694 0
M  V30 5549 O 516.529 1.82797 1.74188 0
M  V30 5550 C 517.842 2.67036 -1.38247 0
M  V30 5551 C 519.39 2.80919 -1.38034 0
M  V30 5552 C 519.865 4.00004 -2.23071 0
M  V30 5553 N 521.356 4.07224 -2.20733 0
M  V30 5554 C 522.091 4.98541 -2.83275 0
M  V30 5555 N 521.587 5.95033 -3.54835 0
M  V30 5556 N 523.38 4.91469 -2.72791 0
M  V30 5557 H 515.531 1.15168 -1.78466 0
M  V30 5558 H 517.794 0.565443 -0.760906 0
M  V30 5559 H 517.5 2.54266 -2.42985 0
M  V30 5560 H 517.374 3.62226 -1.05225 0
M  V30 5561 H 519.761 2.93127 -0.340713 0
M  V30 5562 H 519.842 1.86517 -1.75057 0
M  V30 5563 H 519.486 3.88557 -3.27087 0
M  V30 5564 H 519.416 4.93634 -1.83394 0
M  V30 5565 H 521.907 3.38162 -1.68687 0
M  V30 5566 H 522.22 6.61357 -3.99784 0
M  V30 5567 H 520.565 5.95135 -3.58942 0
M  V30 5568 H 523.756 4.15048 -2.16456 0
M  V30 5569 H 523.929 5.62439 -3.21818 0
M  V30 5570 N 517.335 0.585699 1.46312 0
M  V30 5571 C 518.612 0.00542031 1.95599 0
M  V30 5572 C 518.992 -1.45619 1.52834 0
M  V30 5573 O 518.34 -2.14759 0.780446 0
M  V30 5574 C 518.55 0.180601 3.48532 0
M  V30 5575 C 519.898 0.049979 4.24571 0
M  V30 5576 O 520.922 0.109589 3.56031 0
M  V30 5577 O 519.781 -0.0832226 5.46437 0
M  V30 5578 H 516.875 -0.0481281 0.825598 0
M  V30 5579 H 519.421 0.654227 1.56582 0
M  V30 5580 H 518.193 1.19657 3.72556 0
M  V30 5581 H 517.816 -0.504498 3.94386 0
M  V30 5582 N 518.813 -1.54241 0.323641 0
M  V30 5583 C 520.229 -1.59574 -0.0290018 0
M  V30 5584 C 520.429 -1.34017 -1.50472 0
M  V30 5585 O 519.485 -1.12464 -2.26071 0
M  V30 5586 C 520.798 -2.98169 0.389295 0
M  V30 5587 C 522.346 -3.11148 0.339958 0
M  V30 5588 C 522.821 -4.5209 0.733418 0
M  V30 5589 N 524.312 -4.5808 0.686827 0
M  V30 5590 C 525.047 -5.65248 0.963464 0
M  V30 5591 N 524.543 -6.80355 1.30724 0
M  V30 5592 N 526.336 -5.55025 0.88902 0
M  V30 5593 H 518.487 -1.6911 1.28512 0
M  V30 5594 H 520.75 -0.790972 0.522558 0
M  V30 5595 H 520.456 -3.21871 1.41746 0
M  V30 5596 H 520.33 -3.76399 -0.245657 0
M  V30 5597 H 522.717 -2.87182 -0.679002 0
M  V30 5598 H 522.798 -2.35023 1.00985 0
M  V30 5599 H 522.442 -4.76788 1.75029 0
M  V30 5600 H 522.372 -5.26584 0.0412189 0
M  V30 5601 H 524.863 -3.75411 0.43298 0
M  V30 5602 H 525.176 -7.58029 1.5037 0
M  V30 5603 H 523.521 -6.81851 1.3455 0
M  V30 5604 H 526.712 -4.63977 0.619939 0
M  V30 5605 H 526.885 -6.38458 1.10797 0
M  V30 5606 N 520.291 -0.0518155 -1.57515 0
M  V30 5607 C 521.538 0.621823 -1.92716 0
M  V30 5608 C 521.866 1.70813 -0.930229 0
M  V30 5609 O 521.121 1.95616 0.0573708 0
M  V30 5610 C 521.42 1.25607 -3.34601 0
M  V30 5611 C 521.086 0.297901 -4.49915 0
M  V30 5612 C 519.748 0.034243 -4.81188 0
M  V30 5613 C 522.1 -0.358738 -5.19964 0
M  V30 5614 C 519.428 -0.893479 -5.79857 0
M  V30 5615 C 521.78 -1.27466 -6.19625 0
M  V30 5616 C 520.444 -1.54698 -6.49326 0
M  V30 5617 H 519.714 0.227541 -0.705199 0
M  V30 5618 H 522.361 -0.118432 -1.91133 0
M  V30 5619 H 520.666 2.07161 -3.32553 0
M  V30 5620 H 522.363 1.78424 -3.59118 0
M  V30 5621 H 518.953 0.513581 -4.25512 0
M  V30 5622 H 523.137 -0.168133 -4.96015 0
M  V30 5623 H 518.393 -1.11193 -6.01204 0
M  V30 5624 H 522.567 -1.78953 -6.73015 0
M  V30 5625 H 520.194 -2.26748 -7.25596 0
M  V30 5626 N 521.769 1.56035 0.221574 0
M  V30 5627 C 523.185 1.49026 0.571271 0
M  V30 5628 C 523.385 0.746912 1.87146 0
M  V30 5629 O 522.441 0.286566 2.50869 0
M  V30 5630 C 523.754 2.93579 0.650522 0
M  V30 5631 C 525.302 3.04099 0.741151 0
M  V30 5632 C 525.777 4.5001 0.851747 0
M  V30 5633 N 527.268 4.54053 0.915968 0
M  V30 5634 C 528.003 5.64232 1.02125 0
M  V30 5635 N 527.499 6.84164 1.09049 0
M  V30 5636 N 529.292 5.52084 1.05639 0
M  V30 5637 H 521.443 2.02791 -0.63162 0
M  V30 5638 H 523.706 0.921736 -0.221602 0
M  V30 5639 H 523.412 3.50912 -0.235253 0
M  V30 5640 H 523.286 3.45476 1.51413 0
M  V30 5641 H 525.673 2.4683 1.61737 0
M  V30 5642 H 525.754 2.55371 -0.148128 0
M  V30 5643 H 525.398 5.07896 -0.0200117 0
M  V30 5644 H 525.328 4.96444 1.75644 0
M  V30 5645 H 527.819 3.67683 0.872782 0
M  V30 5646 H 528.132 7.63883 1.1706 0
M  V30 5647 H 526.477 6.86875 1.05962 0
M  V30 5648 H 529.668 4.57317 0.998953 0
M  V30 5649 H 529.841 6.37983 1.13498 0
M  V30 5650 N 523.247 -0.488276 1.49845 0
M  V30 5651 C 524.663 -0.820566 1.3689 0
M  V30 5652 C 524.863 -1.97248 0.411752 0
M  V30 5653 O 523.919 -2.52042 -0.151931 0
M  V30 5654 C 525.232 -1.1488 2.77891 0
M  V30 5655 C 526.78 -1.25626 2.86683 0
M  V30 5656 C 527.255 -1.61772 4.28479 0
M  V30 5657 N 528.746 -1.68797 4.31349 0
M  V30 5658 C 529.481 -1.98235 5.38043 0
M  V30 5659 N 528.977 -2.2581 6.54967 0
M  V30 5660 N 530.77 -1.99593 5.2547 0
M  V30 5661 H 522.921 0.271123 2.10662 0
M  V30 5662 H 525.184 0.058735 0.946179 0
M  V30 5663 H 524.89 -0.375614 3.49688 0
M  V30 5664 H 524.764 -2.08919 3.14058 0
M  V30 5665 H 527.151 -2.02014 2.15114 0
M  V30 5666 H 527.232 -0.296072 2.54081 0
M  V30 5667 H 526.876 -0.859295 5.00578 0
M  V30 5668 H 526.806 -2.58912 4.58554 0
M  V30 5669 H 529.297 -1.49595 3.4703 0
M  V30 5670 H 529.61 -2.47497 7.32096 0
M  V30 5671 H 527.955 -2.23239 6.58171 0
M  V30 5672 H 531.146 -1.77535 4.33127 0
M  V30 5673 H 531.319 -2.222 6.08713 0
M  V30 5674 N 524.725 -1.39134 -0.740242 0
M  V30 5675 C 525.95 -1.39518 -1.53459 0
M  V30 5676 C 526.375 0.00968883 -1.88098 0
M  V30 5677 O 525.733 0.995312 -1.51536 0
M  V30 5678 C 525.781 -2.26981 -2.802 0
M  V30 5679 O 524.885 -1.69609 -3.75908 0
M  V30 5680 H 524.226 -0.475328 -0.463637 0
M  V30 5681 H 526.756 -1.83064 -0.913717 0
M  V30 5682 H 526.766 -2.41309 -3.28989 0
M  V30 5683 H 525.441 -3.29081 -2.5432 0
M  V30 5684 H 524.018 -1.64495 -3.34658 0
M  V30 5685 N 526.204 0.969867 -1.24223 0
M  V30 5686 C 527.114 2.09806 -1.0497 0
M  V30 5687 C 528.13 1.73998 0.00886455 0
M  V30 5688 O 529.306 2.00513 -0.188848 0
M  V30 5689 C 526.371 3.40467 -0.654452 0
M  V30 5690 C 525.432 3.90236 -1.78926 0
M  V30 5691 C 524.665 5.14662 -1.41277 0
M  V30 5692 O 524.888 5.69602 -0.301632 0
M  V30 5693 O 523.822 5.58761 -2.23763 0
M  V30 5694 H 527.648 2.28942 -1.99548 0
M  V30 5695 H 525.233 1.08197 -1.03023 0
M  V30 5696 H 527.115 4.19039 -0.445452 0
M  V30 5697 H 525.79 3.22636 0.262216 0
M  V30 5698 H 524.697 3.12735 -2.05299 0
M  V30 5699 H 526.03 4.1254 -2.68462 0
M  V30 5700 N 527.682 1.05563 1.17022 0
M  V30 5701 C 528.91 0.78845 1.91288 0
M  V30 5702 C 529.325 -0.656318 1.77025 0
M  V30 5703 O 528.682 -1.44869 1.10992 0
M  V30 5704 C 528.733 1.16444 3.42232 0
M  V30 5705 O 528.454 2.5525 3.5606 0
M  V30 5706 C 529.955 0.923937 4.33565 0
M  V30 5707 H 527.175 0.286389 0.606813 0
M  V30 5708 H 529.719 1.4073 1.48375 0
M  V30 5709 H 527.874 0.590266 3.82877 0
M  V30 5710 H 528.288 2.70097 4.49609 0
M  V30 5711 H 529.762 1.23672 5.37968 0
M  V30 5712 H 530.239 -0.140688 4.38975 0
M  V30 5713 H 530.845 1.48214 3.98639 0
M  V30 5714 N 529.16 -1.33526 0.837174 0
M  V30 5715 C 530.571 -1.80182 0.489017 0
M  V30 5716 C 530.922 -1.69285 -0.991826 0
M  V30 5717 O 530.047 -1.24113 -1.77271 0
M  V30 5718 C 530.642 -3.27149 0.880866 0
M  V30 5719 C 529.201 -3.71828 0.584872 0
M  V30 5720 C 528.348 -2.54974 1.09011 0
M  V30 5721 H 531.299 -1.21071 1.02603 0
M  V30 5722 H 531.32 -3.80024 0.190239 0
M  V30 5723 H 530.832 -3.35048 1.95869 0
M  V30 5724 H 528.933 -3.69457 -0.48295 0
M  V30 5725 H 529.046 -4.65366 1.13892 0
M  V30 5726 H 527.41 -2.4952 0.511047 0
M  V30 5727 H 528.193 -2.65637 2.17467 0
M  V30 5728 N 530.638 -0.59345 -1.46 0
M  V30 5729 C 532.049 -0.169801 -1.85926 0
M  V30 5730 C 532.4 1.26984 -1.49565 0
M  V30 5731 O 531.525 1.96076 -0.915602 0
M  V30 5732 C 532.12 -0.301385 -3.37457 0
M  V30 5733 C 530.679 0.0674684 -3.7634 0
M  V30 5734 C 529.826 -0.632383 -2.69993 0
M  V30 5735 H 532.777 -0.801014 -1.37002 0
M  V30 5736 H 532.798 0.470331 -3.77582 0
M  V30 5737 H 532.31 -1.34927 -3.63891 0
M  V30 5738 H 530.411 1.11507 -3.55523 0
M  V30 5739 H 530.524 -0.316332 -4.78055 0
M  V30 5740 H 528.888 -0.0714961 -2.546 0
M  V30 5741 H 529.671 -1.68212 -2.99265 0
M  V30 5742 N 532.116 1.54067 -0.331816 0
M  V30 5743 C 533.066 2.21363 0.546101 0
M  V30 5744 C 534.05 1.19698 1.07523 0
M  V30 5745 O 535.242 1.45293 1.01088 0
M  V30 5746 C 532.371 2.98115 1.70242 0
M  V30 5747 C 531.457 4.07127 1.18779 0
M  V30 5748 N 531.848 5.04267 0.393465 0
M  V30 5749 C 530.146 4.21226 1.46576 0
M  V30 5750 C 530.847 5.81585 0.115572 0
M  V30 5751 N 529.823 5.39022 0.703987 0
M  V30 5752 H 533.625 2.93821 -0.0679751 0
M  V30 5753 H 531.139 1.61812 -0.138085 0
M  V30 5754 H 533.136 3.44818 2.34321 0
M  V30 5755 H 531.796 2.27181 2.31989 0
M  V30 5756 H 532.807 5.17888 0.0355757 0
M  V30 5757 H 529.484 3.61509 2.08848 0
M  V30 5758 H 530.874 6.6985 -0.524426 0
M  V30 5759 N 533.594 0.0601682 1.57485 0
M  V30 5760 C 534.84 -0.606552 1.94146 0
M  V30 5761 C 535.195 -1.67918 0.939225 0
M  V30 5762 O 534.488 -1.91558 -0.0402649 0
M  V30 5763 C 534.682 -1.23831 3.35262 0
M  V30 5764 C 534.511 -0.228408 4.4912 0
M  V30 5765 C 533.281 0.182813 5.04969 0
M  V30 5766 C 535.479 0.52975 5.11564 0
M  V30 5767 N 533.461 1.18464 6.02362 0
M  V30 5768 C 534.832 1.38439 6.04346 0
M  V30 5769 C 536.887 0.587084 4.94427 0
M  V30 5770 C 535.59 2.29125 6.81832 0
M  V30 5771 C 537.616 1.4814 5.72546 0
M  V30 5772 C 536.978 2.32375 6.64967 0
M  V30 5773 H 533.077 -0.193328 0.757726 0
M  V30 5774 H 535.661 0.1346 1.94234 0
M  V30 5775 H 533.832 -1.94944 3.35933 0
M  V30 5776 H 535.564 -1.86456 3.59188 0
M  V30 5777 H 532.319 -0.197968 4.73186 0
M  V30 5778 H 532.743 1.68271 6.55754 0
M  V30 5779 H 537.385 -0.049944 4.22771 0
M  V30 5780 H 535.103 2.93868 7.52773 0
M  V30 5781 H 538.689 1.53045 5.6131 0
M  V30 5782 H 537.569 3.00454 7.2436 0
M  V30 5783 N 535.072 -1.5615 -0.213296 0
M  V30 5784 C 536.488 -1.49327 -0.56336 0
M  V30 5785 C 536.688 -0.756826 -1.86747 0
M  V30 5786 O 535.744 -0.299866 -2.50713 0
M  V30 5787 C 537.057 -2.9392 -0.634944 0
M  V30 5788 C 538.605 -3.04487 -0.725013 0
M  V30 5789 C 539.08 -4.50456 -0.82787 0
M  V30 5790 N 540.571 -4.54533 -0.891876 0
M  V30 5791 C 541.306 -5.64766 -0.991315 0
M  V30 5792 N 540.802 -6.84733 -1.05419 0
M  V30 5793 N 542.595 -5.52637 -1.02709 0
M  V30 5794 H 534.746 -2.02453 0.642366 0
M  V30 5795 H 537.009 -0.920548 0.226487 0
M  V30 5796 H 536.715 -3.50783 0.253859 0
M  V30 5797 H 536.589 -3.46274 -1.49579 0
M  V30 5798 H 538.976 -2.47685 -1.60425 0
M  V30 5799 H 539.057 -2.55289 0.161669 0
M  V30 5800 H 538.701 -5.07878 0.0469464 0
M  V30 5801 H 538.631 -4.97369 -1.73009 0
M  V30 5802 H 541.122 -3.68141 -0.85327 0
M  V30 5803 H 541.435 -7.64493 -1.13007 0
M  V30 5804 H 539.78 -6.87427 -1.02318 0
M  V30 5805 H 542.971 -4.5784 -0.974687 0
M  V30 5806 H 543.144 -6.38576 -1.10113 0
M  V30 5807 N 536.55 0.480323 -1.50102 0
M  V30 5808 C 537.482 1.59669 -1.64433 0
M  V30 5809 C 538.495 1.54063 -0.52615 0
M  V30 5810 O 539.684 1.59619 -0.798992 0
M  V30 5811 C 536.784 2.98527 -1.6042 0
M  V30 5812 C 535.957 3.291 -2.88117 0
M  V30 5813 C 535.016 4.47468 -2.76873 0
M  V30 5814 O 534.042 4.4823 -3.50825 0
M  V30 5815 N 535.244 5.48593 -1.89806 0
M  V30 5816 H 538.009 1.47795 -2.60723 0
M  V30 5817 H 535.57 0.66858 -1.4745 0
M  V30 5818 H 537.562 3.75666 -1.50523 0
M  V30 5819 H 536.132 3.04218 -0.719036 0
M  V30 5820 H 535.352 2.40662 -3.12211 0
M  V30 5821 H 536.64 3.46334 -3.72734 0
M  V30 5822 H 536.038 5.50791 -1.2902 0
M  V30 5823 H 534.595 6.24752 -1.85819 0
M  V30 5824 N 538.028 1.39524 0.732853 0
M  V30 5825 C 538.938 1.40695 1.87729 0
M  V30 5826 C 539.954 0.301496 1.71368 0
M  V30 5827 O 541.13 0.543313 1.93933 0
M  V30 5828 C 538.195 1.25098 3.23344 0
M  V30 5829 C 537.256 2.45634 3.52083 0
M  V30 5830 C 536.489 2.30772 4.81228 0
M  V30 5831 O 536.712 1.31233 5.55098 0
M  V30 5832 O 535.646 3.19799 5.09914 0
M  V30 5833 H 539.472 2.37168 1.89697 0
M  V30 5834 H 537.057 1.20663 0.880959 0
M  V30 5835 H 538.939 1.18541 4.04383 0
M  V30 5836 H 537.614 0.317209 3.22142 0
M  V30 5837 H 536.521 2.57767 2.71122 0
M  V30 5838 H 537.854 3.37712 3.58066 0
M  V30 5839 N 539.506 -0.963266 1.24736 0
M  V30 5840 C 540.439 -2.05758 0.986852 0
M  V30 5841 C 541.417 -1.62398 -0.0809272 0
M  V30 5842 O 542.601 -1.88414 0.0569347 0
M  V30 5843 C 539.728 -3.35135 0.490095 0
M  V30 5844 C 538.774 -3.97451 1.54709 0
M  V30 5845 S 539.607 -4.34519 3.12976 0
M  V30 5846 C 540.763 -5.67026 2.65014 0
M  V30 5847 H 540.996 -2.27539 1.91346 0
M  V30 5848 H 538.529 -1.10176 1.08169 0
M  V30 5849 H 540.487 -4.09962 0.21012 0
M  V30 5850 H 539.148 -3.11335 -0.415873 0
M  V30 5851 H 538.341 -4.90704 1.15003 0
M  V30 5852 H 537.943 -3.29071 1.77731 0
M  V30 5853 H 540.235 -6.44748 2.08102 0
M  V30 5854 H 541.178 -6.11594 3.56873 0
M  V30 5855 H 541.586 -5.25847 2.05294 0
M  V30 5856 N 540.985 -1.06182 -1.16461 0
M  V30 5857 C 541.917 -0.629584 -2.20383 0
M  V30 5858 C 542.93 0.311834 -1.59786 0
M  V30 5859 O 544.119 0.103 -1.78203 0
M  V30 5860 C 541.219 0.0973695 -3.3876 0
M  V30 5861 C 540.392 -0.857252 -4.28917 0
M  V30 5862 C 539.451 -0.169749 -5.25926 0
M  V30 5863 O 538.477 -0.807044 -5.6345 0
M  V30 5864 N 539.679 1.08911 -5.70192 0
M  V30 5865 H 542.444 -1.52352 -2.58087 0
M  V30 5866 H 540.005 -0.944993 -1.31459 0
M  V30 5867 H 541.997 0.567676 -4.00699 0
M  V30 5868 H 540.567 0.893093 -2.99571 0
M  V30 5869 H 539.787 -1.50696 -3.64259 0
M  V30 5870 H 541.075 -1.50489 -4.86035 0
M  V30 5871 H 540.473 1.62703 -5.41797 0
M  V30 5872 H 539.03 1.50331 -6.34227 0
M  V30 5873 N 542.463 1.3308 -0.844243 0
M  V30 5874 C 543.879 1.50447 -0.532729 0
M  V30 5875 C 544.079 1.78292 0.938837 0
M  V30 5876 O 543.135 1.84635 1.72239 0
M  V30 5877 C 544.448 2.65555 -1.41072 0
M  V30 5878 C 545.996 2.7944 -1.41005 0
M  V30 5879 C 546.471 3.97616 -2.27301 0
M  V30 5880 N 547.962 4.0486 -2.2504 0
M  V30 5881 C 548.697 4.95508 -2.88547 0
M  V30 5882 N 548.193 5.91236 -3.61126 0
M  V30 5883 N 549.986 4.88548 -2.77989 0
M  V30 5884 H 542.137 1.13269 -1.79677 0
M  V30 5885 H 544.4 0.55734 -0.766861 0
M  V30 5886 H 544.106 2.51675 -2.45668 0
M  V30 5887 H 543.98 3.61089 -1.09061 0
M  V30 5888 H 546.367 2.92749 -0.371784 0
M  V30 5889 H 546.448 1.8465 -1.77026 0
M  V30 5890 H 546.092 3.85066 -3.3119 0
M  V30 5891 H 546.022 4.91661 -1.88619 0
M  V30 5892 H 548.513 3.36353 -1.72264 0
M  V30 5893 H 548.826 6.57079 -4.06776 0
M  V30 5894 H 547.171 5.91295 -3.65234 0
M  V30 5895 H 550.362 4.12729 -2.20846 0
M  V30 5896 H 550.535 5.58994 -3.27765 0
M  V30 5897 N 543.941 0.601185 1.45683 0
M  V30 5898 C 544.904 -0.111398 2.28929 0
M  V30 5899 C 545.904 -0.801246 1.39416 0
M  V30 5900 O 547.094 -0.650383 1.61603 0
M  V30 5901 C 544.226 -1.16773 3.20276 0
M  V30 5902 H 545.419 0.620412 2.93413 0
M  V30 5903 H 542.972 0.359946 1.52099 0
M  V30 5904 H 543.707 -1.93051 2.60579 0
M  V30 5905 H 543.492 -0.677358 3.86205 0
M  V30 5906 H 544.982 -1.66698 3.82886 0
M  V30 5907 N 545.419 -1.53889 0.339982 0
M  V30 5908 C 546.351 -2.22435 -0.55275 0
M  V30 5909 C 547.364 -1.22975 -1.06681 0
M  V30 5910 O 548.553 -1.49351 -0.977575 0
M  V30 5911 C 545.653 -2.8882 -1.77302 0
M  V30 5912 C 544.826 -4.14563 -1.39486 0
M  V30 5913 C 543.885 -4.64391 -2.47442 0
M  V30 5914 O 542.911 -5.28687 -2.10899 0
M  V30 5915 N 544.113 -4.40015 -3.78639 0
M  V30 5916 H 546.878 -2.9968 0.0342669 0
M  V30 5917 H 544.439 -1.61068 0.16394 0
M  V30 5918 H 546.431 -3.19072 -2.48948 0
M  V30 5919 H 545.001 -2.15182 -2.26749 0
M  V30 5920 H 544.221 -3.90896 -0.509321 0
M  V30 5921 H 545.509 -4.96362 -1.11813 0
M  V30 5922 H 544.907 -3.88586 -4.11118 0
M  V30 5923 H 543.464 -4.74881 -4.46465 0
M  V30 5924 N 546.897 -0.0685191 -1.57451 0
M  V30 5925 C 548.313 0.288101 -1.56978 0
M  V30 5926 C 548.513 1.70262 -1.07765 0
M  V30 5927 O 547.569 2.4135 -0.742054 0
M  V30 5928 C 548.882 0.100745 -3.00531 0
M  V30 5929 C 550.43 0.170531 -3.12535 0
M  V30 5930 C 550.905 0.0114944 -4.57999 0
M  V30 5931 N 552.396 0.0672065 -4.63151 0
M  V30 5932 C 553.131 -0.0314813 -5.73391 0
M  V30 5933 N 552.627 -0.183503 -6.92557 0
M  V30 5934 N 554.42 0.0253489 -5.62094 0
M  V30 5935 H 546.571 -0.993026 -1.87757 0
M  V30 5936 H 548.834 -0.386981 -0.865419 0
M  V30 5937 H 548.54 -0.875197 -3.40636 0
M  V30 5938 H 548.414 0.854457 -3.67395 0
M  V30 5939 H 550.801 1.13696 -2.72318 0
M  V30 5940 H 550.882 -0.614229 -2.48316 0
M  V30 5941 H 550.526 -0.951684 -4.98904 0
M  V30 5942 H 550.456 0.815617 -5.20245 0
M  V30 5943 H 552.947 0.183246 -3.77455 0
M  V30 5944 H 553.26 -0.251041 -7.72392 0
M  V30 5945 H 551.605 -0.218822 -6.94655 0
M  V30 5946 H 554.796 0.142794 -4.67882 0
M  V30 5947 H 554.969 -0.0550166 -6.47977 0
M  V30 5948 N 548.375 1.56261 0.205012 0
M  V30 5949 C 549.308 1.88797 1.28183 0
M  V30 5950 C 550.286 0.747018 1.44424 0
M  V30 5951 O 551.47 0.997039 1.59973 0
M  V30 5952 C 548.597 2.10949 2.64987 0
M  V30 5953 C 547.643 3.33649 2.6567 0
M  V30 5954 S 548.476 4.89078 2.18088 0
M  V30 5955 C 549.632 5.14286 3.56736 0
M  V30 5956 H 549.865 2.79837 1.00393 0
M  V30 5957 H 547.398 1.48911 0.408042 0
M  V30 5958 H 549.356 2.24395 3.4374 0
M  V30 5959 H 548.017 1.20678 2.89993 0
M  V30 5960 H 547.21 3.46245 3.66239 0
M  V30 5961 H 546.812 3.19146 1.94992 0
M  V30 5962 H 549.104 5.04198 4.52537 0
M  V30 5963 H 550.047 6.16096 3.49043 0
M  V30 5964 H 550.455 4.41957 3.51189 0
M  V30 5965 N 549.853 -0.472356 1.50355 0
M  V30 5966 C 551.269 -0.806001 1.37753 0
M  V30 5967 C 551.469 -1.968 0.432649 0
M  V30 5968 O 550.525 -2.52189 -0.12519 0
M  V30 5969 C 551.838 -1.11926 2.79093 0
M  V30 5970 C 553.386 -1.22579 2.87999 0
M  V30 5971 C 553.861 -1.57218 4.3017 0
M  V30 5972 N 555.352 -1.64212 4.33115 0
M  V30 5973 C 556.087 -1.92517 5.40116 0
M  V30 5974 N 555.583 -2.1885 6.57325 0
M  V30 5975 N 557.376 -1.94008 5.27558 0
M  V30 5976 H 549.527 0.293451 2.10363 0
M  V30 5977 H 551.79 0.0687672 0.945503 0
M  V30 5978 H 551.496 -0.338504 3.50067 0
M  V30 5979 H 551.37 -2.05577 3.16256 0
M  V30 5980 H 553.757 -1.99722 2.17245 0
M  V30 5981 H 553.838 -0.269107 2.54381 0
M  V30 5982 H 553.482 -0.806154 5.01461 0
M  V30 5983 H 553.412 -2.54034 4.61275 0
M  V30 5984 H 555.903 -1.45906 3.48597 0
M  V30 5985 H 556.216 -2.39718 7.3468 0
M  V30 5986 H 554.561 -2.16245 6.60502 0
M  V30 5987 H 557.752 -1.72931 4.34986 0
M  V30 5988 H 557.925 -2.15731 6.11035 0
M  V30 5989 N 551.331 -1.39911 -0.725443 0
M  V30 5990 C 552.577 -1.37858 -1.48738 0
M  V30 5991 C 552.91 0.0224187 -1.94187 0
M  V30 5992 O 552.185 0.989204 -1.67466 0
M  V30 5993 C 552.468 -2.3594 -2.72038 0
M  V30 5994 C 552.321 -3.85023 -2.32546 0
M  V30 5995 C 553.64 -2.31704 -3.74167 0
M  V30 5996 H 550.759 -0.502074 -0.539528 0
M  V30 5997 H 553.401 -1.70974 -0.828728 0
M  V30 5998 H 551.551 -2.0783 -3.28236 0
M  V30 5999 H 553.223 -4.2392 -1.81905 0
M  V30 6000 H 551.466 -4.01334 -1.64661 0
M  V30 6001 H 552.137 -4.49152 -3.20884 0
M  V30 6002 H 554.613 -2.5658 -3.27576 0
M  V30 6003 H 553.489 -3.02395 -4.58092 0
M  V30 6004 H 553.75 -1.3253 -4.21768 0
M  V30 6005 N 552.809 0.956637 -1.25245 0
M  V30 6006 C 554.034 1.74104 -1.12706 0
M  V30 6007 C 554.459 1.85436 0.315429 0
M  V30 6008 O 553.817 1.33334 1.22848 0
M  V30 6009 C 553.865 3.1338 -1.78396 0
M  V30 6010 O 552.969 3.98485 -1.06224 0
M  V30 6011 H 552.31 0.53476 -0.393609 0
M  V30 6012 H 554.84 1.19924 -1.65769 0
M  V30 6013 H 554.85 3.6385 -1.846 0
M  V30 6014 H 553.525 3.04448 -2.83345 0
M  V30 6015 H 552.102 3.56952 -1.07886 0
M  V30 6016 N 554.287 1.06798 1.15896 0
M  V30 6017 C 555.512 0.808739 1.90982 0
M  V30 6018 C 555.937 -0.6316 1.77179 0
M  V30 6019 O 555.295 -1.4407 1.10061 0
M  V30 6020 C 555.343 1.21468 3.39526 0
M  V30 6021 O 554.447 0.356562 4.10856 0
M  V30 6022 H 553.788 0.29512 0.594811 0
M  V30 6023 H 556.318 1.42513 1.46804 0
M  V30 6024 H 556.328 1.18844 3.90308 0
M  V30 6025 H 555.003 2.26379 3.48891 0
M  V30 6026 H 553.58 0.444808 3.70238 0
M  V30 6027 N 555.766 -1.3263 0.851289 0
M  V30 6028 C 557.014 -1.96978 0.452128 0
M  V30 6029 C 557.335 -1.67715 -0.99482 0
M  V30 6030 O 556.605 -0.98259 -1.69476 0
M  V30 6031 H 555.185 -0.72873 0.164202 0
M  V30 6032 H 557.847 -1.61774 1.08698 0
M  V30 6033 H 556.943 -3.06387 0.594407 0
M  V30 6034 N 557.244 -0.608902 -1.45362 0
M  V30 6035 C 558.154 0.110969 -2.34337 0
M  V30 6036 C 559.17 0.859007 -1.51318 0
M  V30 6037 O 560.346 0.816296 -1.84116 0
M  V30 6038 C 557.411 1.09494 -3.28956 0
M  V30 6039 C 556.472 0.348718 -4.27881 0
M  V30 6040 C 555.705 1.28582 -5.17979 0
M  V30 6041 O 555.928 2.52369 -5.11533 0
M  V30 6042 O 554.862 0.782172 -5.96796 0
M  V30 6043 H 558.688 -0.620258 -2.97299 0
M  V30 6044 H 556.273 -0.36916 -1.44767 0
M  V30 6045 H 558.155 1.66163 -3.87257 0
M  V30 6046 H 556.83 1.80717 -2.68557 0
M  V30 6047 H 555.737 -0.260465 -3.73192 0
M  V30 6048 H 557.07 -0.323049 -4.91139 0
M  V30 6049 N 558.722 1.53707 -0.348139 0
M  V30 6050 C 560.138 1.596 0.00361134 0
M  V30 6051 C 560.338 1.36394 1.4832 0
M  V30 6052 O 559.394 1.16046 2.24253 0
M  V30 6053 C 560.707 2.97512 -0.436682 0
M  V30 6054 C 562.255 3.10568 -0.389416 0
M  V30 6055 C 562.73 4.50866 -0.805249 0
M  V30 6056 N 564.221 4.56929 -0.759616 0
M  V30 6057 C 564.956 5.63643 -1.05327 0
M  V30 6058 N 564.452 6.78189 -1.41531 0
M  V30 6059 N 566.245 5.5354 -0.977207 0
M  V30 6060 H 558.396 1.67044 -1.31187 0
M  V30 6061 H 560.659 0.782559 -0.535075 0
M  V30 6062 H 560.365 3.19575 -1.46849 0
M  V30 6063 H 560.239 3.76742 0.185744 0
M  V30 6064 H 562.626 2.88226 0.633228 0
M  V30 6065 H 562.707 2.33387 -1.04711 0
M  V30 6066 H 562.351 4.73943 -1.82593 0
M  V30 6067 H 562.281 5.26452 -0.124989 0
M  V30 6068 H 564.772 3.74675 -0.49265 0
M  V30 6069 H 565.085 7.55541 -1.62411 0
M  V30 6070 H 563.43 6.79624 -1.45381 0
M  V30 6071 H 566.621 4.62932 -0.693675 0
M  V30 6072 H 566.794 6.36614 -1.2094 0
M  V30 6073 N 560.2 0.0768682 1.57412 0
M  V30 6074 C 561.446 -0.585926 1.94778 0
M  V30 6075 C 561.801 -1.66912 0.956982 0
M  V30 6076 O 561.094 -1.9159 -0.0199454 0
M  V30 6077 C 561.288 -1.20268 3.36557 0
M  V30 6078 C 561.117 -0.18076 4.49337 0
M  V30 6079 C 559.887 0.236362 5.04747 0
M  V30 6080 C 562.085 0.583978 5.10974 0
M  V30 6081 N 560.067 1.24846 6.01071 0
M  V30 6082 C 561.438 1.44841 6.02844 0
M  V30 6083 C 563.493 0.639492 4.93776 0
M  V30 6084 C 562.196 2.36343 6.79363 0
M  V30 6085 C 564.222 1.54204 5.70942 0
M  V30 6086 C 563.584 2.39414 6.62465 0
M  V30 6087 H 559.683 -0.185281 0.759734 0
M  V30 6088 H 562.267 0.155193 1.9408 0
M  V30 6089 H 560.438 -1.9137 3.37982 0
M  V30 6090 H 562.17 -1.82636 3.61146 0
M  V30 6091 H 558.925 -0.14777 4.73369 0
M  V30 6092 H 559.349 1.75217 6.53933 0
M  V30 6093 H 563.991 -0.00510074 4.228 0
M  V30 6094 H 561.709 3.01836 7.49614 0
M  V30 6095 H 565.295 1.5899 5.59655 0
M  V30 6096 H 564.175 3.0812 7.21132 0
M  V30 6097 N 561.678 -1.56367 -0.196722 0
M  V30 6098 C 562.927 -1.79724 -0.915539 0
M  V30 6099 C 563.24 -0.649804 -1.84491 0
M  V30 6100 O 564.446 -0.767631 -2.60422 0
M  V30 6101 C 562.902 -3.18369 -1.67836 0
M  V30 6102 C 562.51 -4.4091 -0.793897 0
M  V30 6103 C 564.254 -3.51037 -2.38691 0
M  V30 6104 C 562.161 -5.70577 -1.55549 0
M  V30 6105 H 561.091 -0.67013 -0.345604 0
M  V30 6106 H 563.742 -1.82721 -0.168856 0
M  V30 6107 H 562.124 -3.09617 -2.46887 0
M  V30 6108 H 563.298 -4.60781 -0.042163 0
M  V30 6109 H 561.613 -4.15937 -0.19626 0
M  V30 6110 H 564.21 -4.4515 -2.96219 0
M  V30 6111 H 564.553 -2.74704 -3.12799 0
M  V30 6112 H 565.086 -3.61229 -1.66608 0
M  V30 6113 H 561.825 -6.49871 -0.857226 0
M  V30 6114 H 561.345 -5.54726 -2.2812 0
M  V30 6115 H 563.024 -6.11637 -2.10971 0
M  V30 6116 N 563.156 0.464375 -1.50603 0
M  V30 6117 C 564.103 1.56152 -1.69956 0
M  V30 6118 C 565.073 1.57046 -0.54091 0
M  V30 6119 O 566.258 1.74473 -0.772258 0
M  V30 6120 C 563.398 2.94079 -1.80586 0
M  V30 6121 C 562.511 3.02923 -3.07996 0
M  V30 6122 C 561.646 4.31806 -3.09382 0
M  V30 6123 C 560.685 4.34417 -4.31218 0
M  V30 6124 N 559.822 5.54782 -4.30304 0
M  V30 6125 H 564.662 1.38955 -2.6362 0
M  V30 6126 H 562.199 0.675482 -1.30674 0
M  V30 6127 H 564.157 3.74073 -1.8473 0
M  V30 6128 H 562.787 3.09896 -0.903556 0
M  V30 6129 H 561.839 2.1576 -3.13292 0
M  V30 6130 H 563.151 3.00712 -3.97962 0
M  V30 6131 H 562.305 5.20153 -3.12292 0
M  V30 6132 H 561.044 4.36636 -2.17257 0
M  V30 6133 H 560.049 3.44467 -4.28512 0
M  V30 6134 H 561.274 4.31273 -5.24576 0
M  V30 6135 H 559.22 5.60384 -3.41037 0
M  V30 6136 H 559.137 5.54339 -5.14047 0
M  V30 6137 H 560.405 6.45235 -4.3737 0
M  V30 6138 N 564.634 1.40294 0.718013 0
M  V30 6139 C 565.882 1.38167 1.47494 0
M  V30 6140 C 566.203 -0.01607 1.94993 0
M  V30 6141 O 565.473 -0.970396 1.70177 0
M  V30 6142 H 564.053 0.508505 0.547203 0
M  V30 6143 H 566.715 1.75324 0.851322 0
M  V30 6144 H 565.811 2.05503 2.34894 0
M  V30 6145 N 566.112 -0.949982 1.2575 0
M  V30 6146 C 567.389 -1.6718 1.01539 0
M  V30 6147 C 567.769 -2.06095 -0.456942 0
M  V30 6148 O 567.117 -1.77792 -1.43534 0
M  V30 6149 C 567.327 -2.8906 1.95564 0
M  V30 6150 C 568.675 -3.60909 2.23673 0
M  V30 6151 O 569.699 -2.9915 1.9336 0
M  V30 6152 O 568.558 -4.72127 2.75243 0
M  V30 6153 H 565.652 -0.731697 0.385419 0
M  V30 6154 H 568.198 -1.00249 1.36924 0
M  V30 6155 H 566.97 -2.57128 2.94959 0
M  V30 6156 H 566.593 -3.63719 1.60605 0
M  V30 6157 N 567.59 -1.07411 -1.15328 0
M  V30 6158 C 568.537 -0.694995 -2.20087 0
M  V30 6159 C 569.507 0.313904 -1.63107 0
M  V30 6160 O 570.692 0.200216 -1.89747 0
M  V30 6161 C 567.832 -0.0996218 -3.44956 0
M  V30 6162 C 566.945 -1.16007 -4.16133 0
M  V30 6163 C 566.08 -0.529636 -5.28553 0
M  V30 6164 C 565.119 -1.57283 -5.91548 0
M  V30 6165 N 564.256 -0.964932 -6.95438 0
M  V30 6166 H 569.096 -1.5927 -2.51867 0
M  V30 6167 H 566.633 -0.796115 -1.23695 0
M  V30 6168 H 568.591 0.263197 -4.16369 0
M  V30 6169 H 567.221 0.761435 -3.13691 0
M  V30 6170 H 566.273 -1.64045 -3.4321 0
M  V30 6171 H 567.585 -1.95101 -4.59061 0
M  V30 6172 H 566.739 -0.114487 -6.06592 0
M  V30 6173 H 565.478 0.29307 -4.86819 0
M  V30 6174 H 564.483 -1.99775 -5.12221 0
M  V30 6175 H 565.708 -2.39783 -6.35359 0
M  V30 6176 H 563.654 -0.16314 -6.55797 0
M  V30 6177 H 563.571 -1.69311 -7.36797 0
M  V30 6178 H 564.839 -0.575305 -7.77374 0
M  V30 6179 N 569.068 1.32177 -0.85831 0
M  V30 6180 C 570.293 2.01847 -0.476718 0
M  V30 6181 C 570.718 1.64065 0.920021 0
M  V30 6182 O 570.076 0.843189 1.60499 0
M  V30 6183 C 570.124 3.55097 -0.627578 0
M  V30 6184 O 569.228 4.11012 0.338086 0
M  V30 6185 H 568.569 0.635907 -0.191099 0
M  V30 6186 H 571.099 1.68641 -1.15851 0
M  V30 6187 H 571.109 4.04718 -0.516476 0
M  V30 6188 H 569.784 3.81938 -1.64609 0
M  V30 6189 H 568.361 3.72451 0.182917 0
M  V30 6190 N 570.547 0.616602 1.45037 0
M  V30 6191 C 571.457 -0.0985401 2.34393 0
M  V30 6192 C 572.473 -0.850971 1.51771 0
M  V30 6193 O 573.649 -0.806521 1.84546 0
M  V30 6194 C 570.714 -1.07748 3.29532 0
M  V30 6195 C 569.775 -0.326022 4.2806 0
M  V30 6196 C 569.008 -1.25833 5.18654 0
M  V30 6197 O 569.231 -2.49652 5.12864 0
M  V30 6198 O 568.165 -0.750512 5.97203 0
M  V30 6199 H 571.991 0.636016 2.96966 0
M  V30 6200 H 569.576 0.376832 1.44569 0
M  V30 6201 H 571.458 -1.64107 3.88133 0
M  V30 6202 H 570.133 -1.79291 2.69512 0
M  V30 6203 H 569.04 0.280253 3.73049 0
M  V30 6204 H 570.373 0.349091 4.9096 0
M  V30 6205 N 572.025 -1.5352 0.356285 0
M  V30 6206 C 572.955 -2.28372 -0.486661 0
M  V30 6207 C 573.936 -1.30432 -1.09185 0
M  V30 6208 O 575.121 -1.59291 -1.11085 0
M  V30 6209 C 572.251 -3.06604 -1.63129 0
M  V30 6210 C 571.205 -4.12154 -1.15381 0
M  V30 6211 C 570.531 -4.78415 -2.38796 0
M  V30 6212 C 571.831 -5.21724 -0.245179 0
M  V30 6213 H 573.525 -2.99083 0.137797 0
M  V30 6214 H 571.071 -1.43841 0.0677134 0
M  V30 6215 H 573.024 -3.57712 -2.22755 0
M  V30 6216 H 571.748 -2.33568 -2.28284 0
M  V30 6217 H 570.407 -3.61978 -0.580294 0
M  V30 6218 H 570.055 -4.01959 -3.02387 0
M  V30 6219 H 569.755 -5.49734 -2.07524 0
M  V30 6220 H 571.279 -5.32313 -2.99125 0
M  V30 6221 H 572.693 -5.68391 -0.748646 0
M  V30 6222 H 571.09 -6.00095 -0.0237608 0
M  V30 6223 H 572.16 -4.79596 0.715229 0
M  V30 6224 N 573.503 -0.0852151 -1.57369 0
M  V30 6225 C 574.451 0.894856 -2.14698 0
M  V30 6226 C 575.445 1.29903 -1.08727 0
M  V30 6227 O 576.651 1.27471 -1.27088 0
M  V30 6228 H 573.026 0.306569 -0.686673 0
M  V30 6229 H 574.997 0.386542 -2.95886 0
M  V30 6230 C 573.746 2.14798 -2.73417 0
M  V30 6231 H 573.069 1.84585 -3.54638 0
M  V30 6232 H 574.509 2.81456 -3.1711 0
M  V30 6233 C 572.968 2.91546 -1.68828 0
M  V30 6234 O 573.498 3.85733 -1.12129 0
M  V30 6235 N 571.704 2.54901 -1.39549 0
M  V30 6236 H 571.251 1.7838 -1.85845 0
M  V30 6237 H 571.209 3.06553 -0.698054 0
M  V30 6238 N 574.981 1.5647 0.188427 0
M  V30 6239 C 575.891 1.98285 1.2538 0
M  V30 6240 C 576.907 0.891535 1.49424 0
M  V30 6241 O 578.083 1.19782 1.61908 0
M  V30 6242 C 575.148 2.31965 2.57669 0
M  V30 6243 C 574.209 3.54838 2.41638 0
M  V30 6244 C 573.442 3.86901 3.67618 0
M  V30 6245 O 573.665 3.20163 4.72072 0
M  V30 6246 O 572.599 4.80309 3.62749 0
M  V30 6247 H 576.425 2.89145 0.928912 0
M  V30 6248 H 574.01 1.44112 0.393955 0
M  V30 6249 H 575.892 2.54673 3.35737 0
M  V30 6250 H 574.567 1.44271 2.89771 0
M  V30 6251 H 573.474 3.37369 1.61658 0
M  V30 6252 H 574.807 4.43019 2.14465 0
M  V30 6253 N 576.459 -0.456382 1.50847 0
M  V30 6254 C 577.708 -1.2042 1.61808 0
M  V30 6255 C 578.021 -1.9278 0.330932 0
M  V30 6256 O 579.227 -2.69612 0.319643 0
M  V30 6257 C 577.683 -2.18891 2.85683 0
M  V30 6258 C 577.291 -1.52267 4.2133 0
M  V30 6259 C 579.035 -2.94224 3.05994 0
M  V30 6260 C 576.942 -2.4911 5.36375 0
M  V30 6261 H 575.872 -0.453177 0.602616 0
M  V30 6262 H 578.523 -0.473144 1.77295 0
M  V30 6263 H 576.905 -2.95351 2.63787 0
M  V30 6264 H 578.079 -0.814949 4.53536 0
M  V30 6265 H 576.394 -0.891594 4.06743 0
M  V30 6266 H 578.991 -3.66732 3.89117 0
M  V30 6267 H 579.334 -3.54469 2.18306 0
M  V30 6268 H 579.867 -2.24874 3.28141 0
M  V30 6269 H 576.606 -1.93582 6.26264 0
M  V30 6270 H 576.126 -3.17991 5.08569 0
M  V30 6271 H 577.805 -3.10637 5.67551 0
M  V30 6272 N 577.937 -1.40673 -0.710563 0
M  V30 6273 C 578.884 -1.41336 -1.82463 0
M  V30 6274 C 579.854 -0.269648 -1.63897 0
M  V30 6275 O 581.039 -0.468463 -1.8496 0
M  V30 6276 C 578.179 -1.28665 -3.20218 0
M  V30 6277 C 577.292 -2.52784 -3.5032 0
M  V30 6278 C 576.427 -2.32517 -4.77608 0
M  V30 6279 C 575.466 -3.52187 -5.0063 0
M  V30 6280 N 574.603 -3.31084 -6.19135 0
M  V30 6281 H 579.443 -2.36558 -1.8123 0
M  V30 6282 H 576.98 -1.17483 -0.885226 0
M  V30 6283 H 578.938 -1.19324 -3.99772 0
M  V30 6284 H 577.568 -0.370602 -3.20666 0
M  V30 6285 H 576.62 -2.72634 -2.65283 0
M  V30 6286 H 577.932 -3.41845 -3.63241 0
M  V30 6287 H 577.086 -2.20558 -5.65189 0
M  V30 6288 H 575.825 -1.40889 -4.66906 0
M  V30 6289 H 574.83 -3.64617 -4.11502 0
M  V30 6290 H 576.055 -4.44749 -5.13201 0
M  V30 6291 H 574.001 -2.42143 -6.09674 0
M  V30 6292 H 573.918 -4.13713 -6.32754 0
M  V30 6293 H 575.186 -3.22868 -7.0949 0
M  V30 6294 N 579.415 0.9433 -1.26252 0
M  V30 6295 C 580.325 2.07532 -1.09397 0
M  V30 6296 C 581.341 1.73977 -0.0280449 0
M  V30 6297 O 582.517 2.00067 -0.231337 0
M  V30 6298 C 579.582 3.39002 -0.726523 0
M  V30 6299 C 578.643 3.86353 -1.87163 0
M  V30 6300 C 577.876 5.11549 -1.52162 0
M  V30 6301 O 578.099 5.68834 -0.422385 0
M  V30 6302 O 577.033 5.53889 -2.35565 0
M  V30 6303 H 580.859 2.24658 -2.04359 0
M  V30 6304 H 578.444 1.05988 -1.05295 0
M  V30 6305 H 580.326 4.18 -0.534236 0
M  V30 6306 H 579.001 3.2312 0.193721 0
M  V30 6307 H 577.908 3.0831 -2.11886 0
M  V30 6308 H 579.241 4.06752 -2.77152 0
M  V30 6309 N 580.893 1.08022 1.14757 0
M  V30 6310 C 581.841 0.701088 2.21783 0
M  V30 6311 C 582.835 -0.291311 1.66876 0
M  V30 6312 O 584.041 -0.154296 1.79337 0
M  V30 6313 H 580.416 0.208668 0.722469 0
M  V30 6314 H 582.387 1.61321 2.51034 0
M  V30 6315 C 581.136 0.122278 3.47485 0
M  V30 6316 H 580.459 0.877065 3.90061 0
M  V30 6317 H 581.899 -0.105248 4.23869 0
M  V30 6318 C 580.358 -1.13883 3.17068 0
M  V30 6319 O 580.888 -2.22429 3.34497 0
M  V30 6320 N 579.094 -1.04767 2.71058 0
M  V30 6321 H 578.641 -0.164302 2.57075 0
M  V30 6322 H 578.599 -1.89224 2.51081 0
M  V30 6323 N 582.371 -1.3172 0.865308 0
M  V30 6324 C 583.303 -2.27545 0.274906 0
M  V30 6325 C 584.316 -1.52887 -0.559413 0
M  V30 6326 O 585.505 -1.74361 -0.382166 0
M  V30 6327 C 582.605 -3.33006 -0.629286 0
M  V30 6328 C 581.778 -4.37063 0.171553 0
M  V30 6329 C 580.837 -5.22044 -0.660052 0
M  V30 6330 O 579.863 -5.69129 -0.0897527 0
M  V30 6331 N 581.065 -5.45946 -1.97289 0
M  V30 6332 H 583.83 -2.78848 1.09836 0
M  V30 6333 H 581.391 -1.44693 0.726331 0
M  V30 6334 H 583.383 -3.86772 -1.19121 0
M  V30 6335 H 581.953 -2.81782 -1.35342 0
M  V30 6336 H 581.173 -3.83436 0.914919 0
M  V30 6337 H 582.461 -5.03662 0.721235 0
M  V30 6338 H 581.859 -5.0944 -2.45942 0
M  V30 6339 H 580.416 -6.02665 -2.4827 0
M  V30 6340 N 583.85 -0.624285 -1.44708 0
M  V30 6341 C 585.266 -0.289322 -1.56956 0
M  V30 6342 C 585.466 1.20773 -1.61295 0
M  V30 6343 O 584.522 1.9915 -1.55227 0
M  V30 6344 C 585.835 -0.975215 -2.84447 0
M  V30 6345 C 587.383 -0.952709 -2.98148 0
M  V30 6346 C 587.858 -1.61893 -4.28433 0
M  V30 6347 N 589.349 -1.5852 -4.35231 0
M  V30 6348 C 590.084 -2.06969 -5.34744 0
M  V30 6349 N 589.58 -2.63579 -6.40701 0
M  V30 6350 N 591.373 -1.97638 -5.26209 0
M  V30 6351 H 583.524 -1.59612 -1.40135 0
M  V30 6352 H 585.787 -0.669592 -0.671081 0
M  V30 6353 H 585.493 -2.02999 -2.87201 0
M  V30 6354 H 585.367 -0.508749 -3.73753 0
M  V30 6355 H 587.754 0.093568 -2.94952 0
M  V30 6356 H 587.835 -1.4576 -2.10209 0
M  V30 6357 H 587.479 -2.66463 -4.32389 0
M  V30 6358 H 587.409 -1.08893 -5.15218 0
M  V30 6359 H 589.899 -1.17183 -3.59272 0
M  V30 6360 H 590.213 -2.98298 -7.12908 0
M  V30 6361 H 588.558 -2.67626 -6.41406 0
M  V30 6362 H 591.749 -1.5314 -4.42341 0
M  V30 6363 H 591.922 -2.35708 -6.03611 0
M  V30 6364 N 585.328 1.53329 -0.364422 0
M  V30 6365 C 586.553 2.06132 0.229033 0
M  V30 6366 C 586.978 1.23625 1.41769 0
M  V30 6367 O 586.336 0.255038 1.79497 0
M  V30 6368 C 586.384 3.55544 0.60174 0
M  V30 6369 O 585.488 3.75771 1.69912 0
M  V30 6370 H 584.829 0.663148 0.0336213 0
M  V30 6371 H 587.359 1.97758 -0.524689 0
M  V30 6372 H 587.369 3.98549 0.873073 0
M  V30 6373 H 586.044 4.15039 -0.267421 0
M  V30 6374 H 584.621 3.44663 1.42343 0
M  V30 6375 N 586.806 0.0935595 1.57322 0
M  V30 6376 C 588.217 -0.435807 1.81542 0
M  V30 6377 C 588.568 -1.68263 1.00907 0
M  V30 6378 O 587.693 -2.15087 0.237983 0
M  V30 6379 C 588.288 -0.797436 3.29282 0
M  V30 6380 C 586.847 -1.27155 3.54272 0
M  V30 6381 C 585.994 -0.267455 2.76007 0
M  V30 6382 H 588.945 0.31902 1.5546 0
M  V30 6383 H 588.966 -1.6571 3.42521 0
M  V30 6384 H 588.478 0.110206 3.87943 0
M  V30 6385 H 586.579 -2.19696 3.00939 0
M  V30 6386 H 586.692 -1.23445 4.62923 0
M  V30 6387 H 585.056 -0.749282 2.43429 0
M  V30 6388 H 585.839 0.632839 3.37417 0
M  V30 6389 N 588.284 -1.56567 -0.180126 0
M  V30 6390 C 589.53 -1.81761 -0.899497 0
M  V30 6391 C 589.863 -0.670015 -1.82276 0
M  V30 6392 O 589.138 0.328575 -1.91705 0
M  V30 6393 C 589.421 -3.17296 -1.7028 0
M  V30 6394 C 589.274 -4.4257 -0.803255 0
M  V30 6395 C 590.593 -3.49678 -2.67233 0
M  V30 6396 H 587.712 -0.661192 -0.325567 0
M  V30 6397 H 590.354 -1.89272 -0.16612 0
M  V30 6398 H 588.504 -3.11023 -2.32802 0
M  V30 6399 H 590.176 -4.60902 -0.191585 0
M  V30 6400 H 588.419 -4.33658 -0.110796 0
M  V30 6401 H 589.09 -5.33935 -1.40064 0
M  V30 6402 H 591.566 -3.56347 -2.14839 0
M  V30 6403 H 590.442 -4.45605 -3.20511 0
M  V30 6404 H 590.703 -2.73932 -3.47007 0
M  V30 6405 N 589.762 0.448376 -1.51087 0
M  V30 6406 C 591.178 0.783984 -1.39017 0
M  V30 6407 C 591.378 1.96087 -0.463904 0
M  V30 6408 O 590.434 2.52357 0.0850534 0
M  V30 6409 C 591.747 1.07471 -2.80839 0
M  V30 6410 C 593.295 1.17981 -2.89913 0
M  V30 6411 C 593.77 1.50354 -4.32617 0
M  V30 6412 N 595.261 1.57301 -4.35673 0
M  V30 6413 C 595.996 1.839 -5.4311 0
M  V30 6414 N 595.492 2.08365 -6.60724 0
M  V30 6415 N 597.285 1.8559 -5.30578 0
M  V30 6416 H 589.436 -0.326881 -2.0987 0
M  V30 6417 H 591.699 -0.0838006 -0.944289 0
M  V30 6418 H 591.405 0.282768 -3.50561 0
M  V30 6419 H 591.279 2.00519 -3.19487 0
M  V30 6420 H 593.666 1.9624 -2.20395 0
M  V30 6421 H 593.747 0.228603 -2.54776 0
M  V30 6422 H 593.391 0.726273 -5.0268 0
M  V30 6423 H 593.321 2.46663 -4.65258 0
M  V30 6424 H 595.812 1.40342 -3.50874 0
M  V30 6425 H 596.125 2.27999 -7.38401 0
M  V30 6426 H 594.47 2.0571 -6.63859 0
M  V30 6427 H 597.661 1.65989 -4.37682 0
M  V30 6428 H 597.834 2.05983 -6.1439 0
M  V30 6429 N 591.24 1.41047 0.703093 0
M  V30 6430 C 592.486 1.40207 1.46526 0
M  V30 6431 C 592.819 0.00847763 1.94198 0
M  V30 6432 O 592.094 -0.962437 1.69019 0
M  V30 6433 C 592.377 2.40238 2.6825 0
M  V30 6434 C 592.23 3.88674 2.26391 0
M  V30 6435 C 593.549 2.37627 3.70434 0
M  V30 6436 H 590.668 0.510594 0.531472 0
M  V30 6437 H 593.31 1.72271 0.801422 0
M  V30 6438 H 591.46 2.13026 3.24888 0
M  V30 6439 H 593.132 4.2676 1.75138 0
M  V30 6440 H 591.375 4.03903 1.58255 0
M  V30 6441 H 592.046 4.542 3.13698 0
M  V30 6442 H 594.522 2.61759 3.23452 0
M  V30 6443 H 593.398 3.09645 4.53223 0
M  V30 6444 H 593.659 1.39223 4.19606 0
M  V30 6445 N 592.718 -0.936591 1.26751 0
M  V30 6446 C 593.665 -2.03597 1.08706 0
M  V30 6447 C 594.635 -1.66097 -0.00926542 0
M  V30 6448 O 595.82 -1.90199 0.151377 0
M  V30 6449 C 592.96 -3.3727 0.73094 0
M  V30 6450 C 592.073 -3.87778 1.90399 0
M  V30 6451 C 591.208 -5.09859 1.49056 0
M  V30 6452 C 590.247 -5.5264 2.63164 0
M  V30 6453 N 589.384 -6.65921 2.22471 0
M  V30 6454 H 594.224 -2.18364 2.02784 0
M  V30 6455 H 591.761 -1.06985 1.00958 0
M  V30 6456 H 593.719 -4.14128 0.505328 0
M  V30 6457 H 592.349 -3.22337 -0.172868 0
M  V30 6458 H 591.401 -3.07279 2.2424 0
M  V30 6459 H 592.713 -4.15464 2.76028 0
M  V30 6460 H 591.867 -5.9419 1.22567 0
M  V30 6461 H 590.606 -4.8393 0.60524 0
M  V30 6462 H 589.611 -4.66863 2.90377 0
M  V30 6463 H 590.836 -5.80568 3.52303 0
M  V30 6464 H 588.782 -6.41667 1.36379 0
M  V30 6465 H 588.699 -6.93216 3.01641 0
M  V30 6466 H 589.967 -7.53616 1.99205 0
M  V30 6467 N 594.196 -1.08629 -1.14182 0
M  V30 6468 C 595.106 -0.730126 -2.22949 0
M  V30 6469 C 596.122 0.26436 -1.7198 0
M  V30 6470 O 597.298 0.107742 -2.01112 0
M  V30 6471 C 594.363 -0.147227 -3.46387 0
M  V30 6472 C 593.424 -1.19662 -4.12286 0
M  V30 6473 C 592.657 -0.641437 -5.29831 0
M  V30 6474 O 592.88 0.538351 -5.67854 0
M  V30 6475 O 591.814 -1.39257 -5.85569 0
M  V30 6476 H 595.64 -1.63753 -2.55771 0
M  V30 6477 H 593.225 -0.860118 -1.22157 0
M  V30 6478 H 595.107 0.174923 -4.21037 0
M  V30 6479 H 593.782 0.733304 -3.15285 0
M  V30 6480 H 592.689 -1.57133 -3.395 0
M  V30 6481 H 594.022 -2.0495 -4.475 0
M  V30 6482 N 595.674 1.31259 -0.872281 0
M  V30 6483 C 597.09 1.49283 -0.564521 0
M  V30 6484 C 597.29 1.80243 0.900807 0
M  V30 6485 O 596.346 1.88246 1.68284 0
M  V30 6486 C 597.659 2.62503 -1.46673 0
M  V30 6487 C 599.207 2.76386 -1.46901 0
M  V30 6488 C 599.682 3.92705 -2.35684 0
M  V30 6489 N 601.173 3.99995 -2.33577 0
M  V30 6490 C 601.908 4.89276 -2.98992 0
M  V30 6491 N 601.404 5.83443 -3.73585 0
M  V30 6492 N 603.197 4.82541 -2.88289 0
M  V30 6493 H 595.348 1.09432 -1.82039 0
M  V30 6494 H 597.611 0.540949 -0.77851 0
M  V30 6495 H 597.317 2.46407 -2.50951 0
M  V30 6496 H 597.191 3.58695 -1.16696 0
M  V30 6497 H 599.578 2.91894 -0.433796 0
M  V30 6498 H 599.659 1.80853 -1.80903 0
M  V30 6499 H 599.303 3.77954 -3.39283 0
M  V30 6500 H 599.233 4.87549 -1.99006 0
M  V30 6501 H 601.724 3.32624 -1.7936 0
M  V30 6502 H 602.037 6.48303 -4.20622 0
M  V30 6503 H 600.382 5.83415 -3.77694 0
M  V30 6504 H 603.573 4.07951 -2.2955 0
M  V30 6505 H 603.746 5.51916 -3.39549 0
M  V30 6506 N 597.152 0.631951 1.44375 0
M  V30 6507 C 598.099 -0.0724807 2.30686 0
M  V30 6508 C 599.069 -0.835975 1.43529 0
M  V30 6509 O 600.254 -0.816849 1.7243 0
M  V30 6510 C 597.394 -1.04753 3.28817 0
M  V30 6511 C 596.507 -0.282367 4.31076 0
M  V30 6512 C 595.642 -1.2493 5.163 0
M  V30 6513 C 594.681 -0.473349 6.10267 0
M  V30 6514 N 593.818 -1.39079 6.88187 0
M  V30 6515 H 598.658 0.669477 2.90383 0
M  V30 6516 H 596.195 0.341927 1.43071 0
M  V30 6517 H 598.153 -1.62623 3.842 0
M  V30 6518 H 596.783 -1.75661 2.70819 0
M  V30 6519 H 595.835 0.412268 3.78159 0
M  V30 6520 H 597.147 0.321955 4.9776 0
M  V30 6521 H 596.301 -1.89931 5.76204 0
M  V30 6522 H 595.04 -1.88755 4.49692 0
M  V30 6523 H 594.045 0.190142 5.49471 0
M  V30 6524 H 595.27 0.16019 6.78911 0
M  V30 6525 H 593.216 -2.01623 6.24247 0
M  V30 6526 H 593.133 -0.840513 7.51313 0
M  V30 6527 H 594.401 -2.02961 7.52613 0
M  V30 6528 N 598.631 -1.53133 0.372548 0
M  V30 6529 C 599.88 -2.00539 -0.216115 0
M  V30 6530 C 600.193 -1.26374 -1.49295 0
M  V30 6531 O 601.399 -1.64404 -2.16064 0
M  V30 6532 C 599.855 -3.57253 -0.435678 0
M  V30 6533 C 599.463 -4.40302 0.82693 0
M  V30 6534 C 601.207 -4.12995 -0.981618 0
M  V30 6535 C 599.114 -5.88583 0.576567 0
M  V30 6536 H 598.044 -0.749246 -0.084536 0
M  V30 6537 H 600.695 -1.76771 0.492364 0
M  V30 6538 H 599.077 -3.77202 -1.20559 0
M  V30 6539 H 600.251 -4.32124 1.60017 0
M  V30 6540 H 598.566 -3.95699 1.29659 0
M  V30 6541 H 601.163 -5.21418 -1.18436 0
M  V30 6542 H 601.506 -3.68027 -1.94581 0
M  V30 6543 H 602.039 -3.96871 -0.271696 0
M  V30 6544 H 598.778 -6.37841 1.51128 0
M  V30 6545 H 598.298 -5.99592 -0.158047 0
M  V30 6546 H 599.977 -6.46676 0.204722 0
M  V30 6547 N 600.109 -0.101901 -1.5727 0
M  V30 6548 C 601.337 0.568392 -1.98939 0
M  V30 6549 C 601.752 1.61301 -0.981194 0
M  V30 6550 O 601.109 1.82478 0.0282869 0
M  V30 6551 C 601.16 1.20997 -3.40649 0
M  V30 6552 O 600.881 0.207129 -4.3761 0
M  V30 6553 C 602.382 1.96523 -3.97358 0
M  V30 6554 H 599.602 0.15186 -0.65359 0
M  V30 6555 H 602.146 -0.183198 -2.03678 0
M  V30 6556 H 600.301 1.91245 -3.36904 0
M  V30 6557 H 600.715 0.671071 -5.20189 0
M  V30 6558 H 602.189 2.36764 -4.98645 0
M  V30 6559 H 602.666 2.83376 -3.35552 0
M  V30 6560 H 603.272 1.31076 -4.04598 0
M  V30 6561 N 601.587 1.56661 0.17182 0
M  V30 6562 C 602.864 1.72838 0.915778 0
M  V30 6563 C 603.244 0.66316 2.00413 0
M  V30 6564 O 602.592 -0.322123 2.26218 0
M  V30 6565 C 602.802 3.16019 1.48097 0
M  V30 6566 C 604.15 3.76962 1.95408 0
M  V30 6567 O 605.174 3.19294 1.57892 0
M  V30 6568 O 604.033 4.78219 2.64516 0
M  V30 6569 H 601.127 0.705797 0.431021 0
M  V30 6570 H 603.673 1.68947 0.159689 0
M  V30 6571 H 602.445 3.85031 0.697618 0
M  V30 6572 H 602.068 3.24234 2.30126 0
M  V30 6573 N 603.065 -0.440357 1.51323 0
M  V30 6574 C 604.015 -1.53263 1.68803 0
M  V30 6575 C 604.999 -1.51494 0.542057 0
M  V30 6576 O 606.191 -1.57999 0.797839 0
M  V30 6577 C 603.32 -2.91479 1.8137 0
M  V30 6578 C 602.406 -2.98015 3.01742 0
M  V30 6579 N 602.797 -2.743 4.24962 0
M  V30 6580 C 601.095 -3.29173 3.00934 0
M  V30 6581 C 601.796 -2.86601 5.06197 0
M  V30 6582 N 600.772 -3.1814 4.40781 0
M  V30 6583 H 604.574 -1.33675 2.61741 0
M  V30 6584 H 602.088 -0.647616 1.48929 0
M  V30 6585 H 604.085 -3.70055 1.92002 0
M  V30 6586 H 602.745 -3.12089 0.896117 0
M  V30 6587 H 603.756 -2.49287 4.53957 0
M  V30 6588 H 600.433 -3.55577 2.18796 0
M  V30 6589 H 601.823 -2.72246 6.14274 0
M  V30 6590 N 604.543 -1.41418 -0.695603 0
M  V30 6591 C 605.959 -1.23887 -1.00619 0
M  V30 6592 C 606.159 -0.128206 -2.01092 0
M  V30 6593 O 605.215 0.507408 -2.47349 0
M  V30 6594 C 606.528 -2.58816 -1.53083 0
M  V30 6595 C 608.076 -2.65998 -1.64967 0
M  V30 6596 C 608.551 -4.01244 -2.20833 0
M  V30 6597 N 610.042 -4.0309 -2.28194 0
M  V30 6598 C 610.777 -5.04539 -2.72448 0
M  V30 6599 N 610.273 -6.16378 -3.16306 0
M  V30 6600 N 612.066 -4.91901 -2.72011 0
M  V30 6601 H 604.217 -2.12379 -0.0300061 0
M  V30 6602 H 606.48 -0.944958 -0.0758797 0
M  V30 6603 H 606.186 -3.40842 -0.867147 0
M  V30 6604 H 606.06 -2.81299 -2.51298 0
M  V30 6605 H 608.447 -1.84331 -2.30448 0
M  V30 6606 H 608.528 -2.47325 -0.652982 0
M  V30 6607 H 608.172 -4.83359 -1.55968 0
M  V30 6608 H 608.102 -4.17257 -3.21254 0
M  V30 6609 H 610.593 -3.22341 -1.97242 0
M  V30 6610 H 610.906 -6.89658 -3.487 0
M  V30 6611 H 609.251 -6.19914 -3.14215 0
M  V30 6612 H 612.442 -4.03613 -2.37095 0
M  V30 6613 H 612.615 -5.71102 -3.06181 0
M  V30 6614 N 606.021 0.929856 -1.27246 0
M  V30 6615 C 606.969 2.05151 -1.09616 0
M  V30 6616 C 607.963 1.69388 -0.0198617 0
M  V30 6617 O 609.169 1.79124 -0.177417 0
M  V30 6618 H 605.544 0.671909 -0.337701 0
M  V30 6619 H 607.515 2.17168 -2.04648 0
M  V30 6620 C 606.264 3.3934 -0.757851 0
M  V30 6621 H 605.587 3.67343 -1.57795 0
M  V30 6622 H 607.027 4.18603 -0.674358 0
M  V30 6623 C 605.486 3.32582 0.537658 0
M  V30 6624 O 606.016 3.69633 1.57271 0
M  V30 6625 N 604.222 2.8568 0.532478 0
M  V30 6626 H 603.769 2.55725 -0.310233 0
M  V30 6627 H 603.727 2.81541 1.39936 0
M  V30 6628 N 607.499 1.09233 1.13605 0
M  V30 6629 C 608.745 0.828385 1.8511 0
M  V30 6630 C 609.078 -0.64437 1.83198 0
M  V30 6631 O 608.353 -1.47428 1.26867 0
M  V30 6632 C 608.636 1.36167 3.33363 0
M  V30 6633 C 608.489 2.90038 3.438 0
M  V30 6634 C 609.808 0.993819 4.28732 0
M  V30 6635 H 606.927 0.30239 0.672108 0
M  V30 6636 H 609.569 1.35339 1.33355 0
M  V30 6637 H 607.719 0.9151 3.77569 0
M  V30 6638 H 609.391 3.43128 3.08319 0
M  V30 6639 H 607.634 3.27271 2.84739 0
M  V30 6640 H 608.305 3.22428 4.48045 0
M  V30 6641 H 610.781 1.37893 3.92587 0
M  V30 6642 H 609.657 1.39403 5.30903 0
M  V30 6643 H 609.918 -0.0982206 4.41991 0
M  V30 6644 N 608.977 -1.30795 0.87923 0
M  V30 6645 C 610.202 -2.01063 0.508769 0
M  V30 6646 C 610.627 -1.65508 -0.893803 0
M  V30 6647 O 609.985 -0.868616 -1.59138 0
M  V30 6648 C 610.033 -3.54054 0.683991 0
M  V30 6649 O 609.137 -4.11498 -0.272654 0
M  V30 6650 H 608.478 -0.632786 0.201191 0
M  V30 6651 H 611.008 -1.66776 1.18519 0
M  V30 6652 H 611.018 -4.03845 0.580798 0
M  V30 6653 H 609.693 -3.79271 1.70665 0
M  V30 6654 H 608.27 -3.72695 -0.12364 0
M  V30 6655 N 610.455 -0.639598 -1.44038 0
M  V30 6656 C 611.365 0.0612377 -2.3452 0
M  V30 6657 C 612.381 0.826717 -1.53106 0
M  V30 6658 O 613.557 0.777059 -1.85806 0
M  V30 6659 C 610.622 1.02492 -3.31204 0
M  V30 6660 C 609.683 0.25788 -4.28525 0
M  V30 6661 C 608.916 1.17566 -5.2059 0
M  V30 6662 O 609.139 2.41461 -5.16771 0
M  V30 6663 O 608.073 0.655407 -5.98321 0
M  V30 6664 H 611.899 -0.68318 -2.95916 0
M  V30 6665 H 609.484 -0.399784 -1.43952 0
M  V30 6666 H 611.366 1.57911 -3.90694 0
M  V30 6667 H 610.041 1.7498 -2.7233 0
M  V30 6668 H 608.948 -0.339566 -3.72556 0
M  V30 6669 H 610.281 -0.427154 -4.90343 0
M  V30 6670 N 611.933 1.52934 -0.380664 0
M  V30 6671 C 613.158 2.06363 0.207157 0
M  V30 6672 C 613.583 1.25122 1.4045 0
M  V30 6673 O 612.941 0.274062 1.79217 0
M  V30 6674 C 612.989 3.56162 0.563996 0
M  V30 6675 O 612.093 3.77552 1.65917 0
M  V30 6676 H 611.434 0.663468 0.0265859 0
M  V30 6677 H 613.964 1.9719 -0.545635 0
M  V30 6678 H 613.974 3.99453 0.830752 0
M  V30 6679 H 612.649 4.14732 -0.311427 0
M  V30 6680 H 611.226 3.46154 1.3868 0
M  V30 6681 N 613.412 0.11024 1.57214 0
M  V30 6682 C 614.823 -0.416527 1.81994 0
M  V30 6683 C 615.174 -1.67183 1.02686 0
M  V30 6684 O 614.299 -2.14823 0.260782 0
M  V30 6685 C 614.894 -0.762466 3.30109 0
M  V30 6686 C 613.453 -1.23391 3.556 0
M  V30 6687 C 612.6 -0.238166 2.76275 0
M  V30 6688 H 615.551 0.335491 1.55113 0
M  V30 6689 H 615.572 -1.62068 3.44259 0
M  V30 6690 H 615.084 0.151346 3.87805 0
M  V30 6691 H 613.185 -2.16492 3.03253 0
M  V30 6692 H 613.298 -1.18528 4.64207 0
M  V30 6693 H 611.662 -0.723421 2.4421 0
M  V30 6694 H 612.445 0.668591 3.36727 0
M  V30 6695 N 614.89 -1.56749 -0.16351 0
M  V30 6696 C 615.838 -1.97939 -1.22159 0
M  V30 6697 C 616.832 -0.869288 -1.45395 0
M  V30 6698 O 618.038 -1.05443 -1.45883 0
M  V30 6699 H 614.413 -0.629869 -0.410815 0
M  V30 6700 H 616.384 -2.86115 -0.847381 0
M  V30 6701 C 615.133 -2.36206 -2.55151 0
M  V30 6702 H 614.456 -3.2117 -2.38097 0
M  V30 6703 H 615.896 -2.68863 -3.27854 0
M  V30 6704 C 614.355 -1.20841 -3.14482 0
M  V30 6705 O 614.885 -0.500258 -3.98573 0
M  V30 6706 N 613.091 -0.976943 -2.73686 0
M  V30 6707 H 612.638 -1.55457 -2.05404 0
M  V30 6708 H 612.596 -0.206912 -3.13718 0
M  V30 6709 N 616.368 0.432326 -1.51554 0
M  V30 6710 C 617.784 0.769195 -1.39841 0
M  V30 6711 C 617.984 1.95584 -0.484675 0
M  V30 6712 O 617.04 2.52433 0.0582829 0
M  V30 6713 C 618.353 1.04487 -2.81963 0
M  V30 6714 C 619.901 1.149 -2.91148 0
M  V30 6715 C 620.376 1.45758 -4.34187 0
M  V30 6716 N 621.867 1.52671 -4.37317 0
M  V30 6717 C 622.602 1.78129 -5.4503 0
M  V30 6718 N 622.098 2.01345 -6.62897 0
M  V30 6719 N 623.891 1.79953 -5.32516 0
M  V30 6720 H 616.042 -0.349122 -2.09511 0
M  V30 6721 H 618.305 -0.0938113 -0.943347 0
M  V30 6722 H 618.011 0.24557 -3.50842 0
M  V30 6723 H 617.885 1.97119 -3.21596 0
M  V30 6724 H 620.272 1.93891 -2.22464 0
M  V30 6725 H 620.353 0.201568 -2.55005 0
M  V30 6726 H 619.997 0.672917 -5.03423 0
M  V30 6727 H 619.927 2.41715 -4.67848 0
M  V30 6728 H 622.418 1.36612 -3.52343 0
M  V30 6729 H 622.731 2.20155 -7.40778 0
M  V30 6730 H 621.076 1.98657 -6.66003 0
M  V30 6731 H 624.267 1.61337 -4.39418 0
M  V30 6732 H 624.44 1.99455 -6.1654 0
M  V30 6733 N 617.846 1.41785 0.688094 0
M  V30 6734 C 618.793 1.44221 1.80191 0
M  V30 6735 C 619.763 0.295688 1.63447 0
M  V30 6736 O 620.948 0.49783 1.84191 0
M  V30 6737 C 618.088 1.33743 3.1813 0
M  V30 6738 C 617.201 2.58325 3.46254 0
M  V30 6739 C 616.336 2.40086 4.73848 0
M  V30 6740 C 615.375 3.60107 4.94964 0
M  V30 6741 N 614.512 3.40892 6.13789 0
M  V30 6742 H 619.352 2.39411 1.77444 0
M  V30 6743 H 616.889 1.18876 0.866423 0
M  V30 6744 H 618.847 1.25669 3.97823 0
M  V30 6745 H 617.477 0.42157 3.20035 0
M  V30 6746 H 616.529 2.7682 2.60912 0
M  V30 6747 H 617.841 3.4758 3.57756 0
M  V30 6748 H 616.995 2.29522 5.61609 0
M  V30 6749 H 615.734 1.483 4.64606 0
M  V30 6750 H 614.739 3.71118 4.05649 0
M  V30 6751 H 615.964 4.52857 5.06061 0
M  V30 6752 H 613.91 2.51812 6.05745 0
M  V30 6753 H 613.827 4.23727 6.26092 0
M  V30 6754 H 615.095 3.34114 7.04264 0
M  V30 6755 N 619.324 -0.923095 1.27737 0
M  V30 6756 C 620.272 -2.04567 1.10703 0
M  V30 6757 C 621.266 -1.69375 0.0288445 0
M  V30 6758 O 622.472 -1.79027 0.186913 0
M  V30 6759 H 618.847 -0.670109 0.34126 0
M  V30 6760 H 620.818 -2.1608 2.05796 0
M  V30 6761 C 619.567 -3.38934 0.775837 0
M  V30 6762 H 618.89 -3.66501 1.59741 0
M  V30 6763 H 620.33 -4.18239 0.696548 0
M  V30 6764 C 618.789 -3.32863 -0.520012 0
M  V30 6765 O 619.319 -3.70462 -1.55308 0
M  V30 6766 N 617.525 -2.85958 -0.51732 0
M  V30 6767 H 617.072 -2.55557 0.32379 0
M  V30 6768 H 617.03 -2.82279 -1.38441 0
M  V30 6769 N 620.802 -1.09834 -1.13024 0
M  V30 6770 C 621.712 -0.753731 -2.22162 0
M  V30 6771 C 622.728 0.246105 -1.72251 0
M  V30 6772 O 623.904 0.0864051 -2.01215 0
M  V30 6773 C 620.969 -0.183958 -3.46212 0
M  V30 6774 C 620.03 -1.24028 -4.10993 0
M  V30 6775 C 619.263 -0.697597 -5.29121 0
M  V30 6776 O 619.486 0.478092 -5.68393 0
M  V30 6777 O 618.42 -1.4546 -5.84059 0
M  V30 6778 H 622.246 -1.66456 -2.5402 0
M  V30 6779 H 619.831 -0.873026 -1.21238 0
M  V30 6780 H 621.713 0.130257 -4.21199 0
M  V30 6781 H 620.388 0.699823 -3.16045 0
M  V30 6782 H 619.295 -1.60725 -3.37814 0
M  V30 6783 H 620.628 -2.09685 -4.45301 0
M  V30 6784 N 622.28 1.30327 -0.886154 0
M  V30 6785 C 623.227 2.28099 -0.352069 0
M  V30 6786 C 624.197 1.56433 0.558397 0
M  V30 6787 O 625.382 1.84492 0.486561 0
M  V30 6788 C 622.522 3.42456 0.426346 0
M  V30 6789 C 621.635 4.28938 -0.513472 0
M  V30 6790 C 620.77 5.30458 0.280657 0
M  V30 6791 C 619.809 6.0859 -0.654556 0
M  V30 6792 N 618.946 7.02022 0.104322 0
M  V30 6793 H 623.786 2.73166 -1.19097 0
M  V30 6794 H 621.323 1.34367 -0.598662 0
M  V30 6795 H 623.281 4.07518 0.893587 0
M  V30 6796 H 621.911 2.98455 1.22981 0
M  V30 6797 H 620.963 3.64173 -1.09921 0
M  V30 6798 H 622.275 4.83399 -1.2299 0
M  V30 6799 H 621.429 6.01273 0.8097 0
M  V30 6800 H 620.168 4.76693 1.03029 0
M  V30 6801 H 619.173 5.36651 -1.19522 0
M  V30 6802 H 620.398 6.64443 -1.4033 0
M  V30 6803 H 618.344 6.50645 0.836472 0
M  V30 6804 H 618.261 7.53979 -0.552453 0
M  V30 6805 H 619.529 7.77077 0.614069 0
M  V30 6806 N 623.758 0.647228 1.43697 0
M  V30 6807 C 624.668 -0.0487997 2.34549 0
M  V30 6808 C 625.684 -0.818586 1.53542 0
M  V30 6809 O 626.86 -0.767195 1.86215 0
M  V30 6810 C 623.925 -1.00734 3.31743 0
M  V30 6811 C 622.986 -0.23515 4.28655 0
M  V30 6812 C 622.219 -1.14803 5.21206 0
M  V30 6813 O 622.442 -2.38717 5.18045 0
M  V30 6814 O 621.376 -0.623667 5.9866 0
M  V30 6815 H 625.202 0.698863 2.9555 0
M  V30 6816 H 622.787 0.407412 1.43738 0
M  V30 6817 H 624.669 -1.55837 3.91526 0
M  V30 6818 H 623.344 -1.73534 2.73254 0
M  V30 6819 H 622.251 0.359319 3.7237 0
M  V30 6820 H 623.584 0.453152 4.9011 0
M  V30 6821 N 625.236 -1.5273 0.388769 0
M  V30 6822 C 626.183 -2.26437 -0.446639 0
M  V30 6823 C 627.153 -1.28025 -1.05824 0
M  V30 6824 O 628.338 -1.56852 -1.08637 0
M  V30 6825 C 625.478 -3.07407 -1.56828 0
M  V30 6826 C 624.591 -4.20747 -0.979589 0
M  V30 6827 C 623.726 -4.89113 -2.07224 0
M  V30 6828 C 622.765 -5.94447 -1.45942 0
M  V30 6829 N 621.902 -6.56411 -2.49135 0
M  V30 6830 H 626.742 -2.97404 0.18837 0
M  V30 6831 H 624.279 -1.46727 0.104725 0
M  V30 6832 H 626.237 -3.52642 -2.22934 0
M  V30 6833 H 624.867 -2.3865 -2.17361 0
M  V30 6834 H 623.919 -3.7983 -0.208151 0
M  V30 6835 H 625.231 -4.9637 -0.491747 0
M  V30 6836 H 624.385 -5.3765 -2.81101 0
M  V30 6837 H 623.124 -4.13013 -2.59368 0
M  V30 6838 H 622.129 -5.4525 -0.705894 0
M  V30 6839 H 623.354 -6.7248 -0.945932 0
M  V30 6840 H 621.3 -5.83152 -3.00449 0
M  V30 6841 H 621.217 -7.27645 -2.05105 0
M  V30 6842 H 622.485 -7.09592 -3.22644 0
M  V30 6843 N 626.714 -0.118576 -1.57153 0
M  V30 6844 C 627.661 0.831789 -2.1529 0
M  V30 6845 C 628.631 1.26385 -1.07778 0
M  V30 6846 O 629.816 1.34144 -1.35684 0
M  V30 6847 C 626.956 2.07664 -2.75626 0
M  V30 6848 C 626.069 1.69298 -3.97444 0
M  V30 6849 C 625.204 2.88747 -4.45868 0
M  V30 6850 C 624.243 2.46619 -5.60219 0
M  V30 6851 N 623.38 3.5898 -6.03389 0
M  V30 6852 H 628.22 0.329183 -2.96176 0
M  V30 6853 H 625.757 0.150792 -1.46325 0
M  V30 6854 H 627.715 2.80601 -3.08738 0
M  V30 6855 H 626.345 2.55384 -1.97431 0
M  V30 6856 H 625.397 0.862374 -3.70496 0
M  V30 6857 H 626.709 1.34338 -4.80369 0
M  V30 6858 H 625.863 3.69909 -4.80887 0
M  V30 6859 H 624.602 3.26933 -3.61892 0
M  V30 6860 H 623.607 1.63889 -5.24805 0
M  V30 6861 H 624.832 2.0955 -6.45961 0
M  V30 6862 H 622.778 3.9684 -5.22354 0
M  V30 6863 H 622.695 3.27942 -6.81168 0
M  V30 6864 H 623.963 4.40583 -6.43045 0
M  V30 6865 N 628.193 1.56834 0.155195 0
M  V30 6866 C 629.439 1.83169 0.870467 0
M  V30 6867 C 629.772 0.698929 1.81187 0
M  V30 6868 O 629.047 -0.298035 1.92203 0
M  V30 6869 C 629.33 3.19965 1.65211 0
M  V30 6870 C 629.183 4.43792 0.732744 0
M  V30 6871 C 630.502 3.53885 2.61636 0
M  V30 6872 H 627.621 0.666288 0.315006 0
M  V30 6873 H 630.263 1.89513 0.135988 0
M  V30 6874 H 628.413 3.14687 2.27825 0
M  V30 6875 H 630.085 4.61148 0.118236 0
M  V30 6876 H 628.328 4.3378 0.0417906 0
M  V30 6877 H 628.999 5.36095 1.31552 0
M  V30 6878 H 631.475 3.5972 2.09143 0
M  V30 6879 H 630.351 4.50648 3.13381 0
M  V30 6880 H 630.612 2.79418 3.42605 0
M  V30 6881 N 629.671 -0.424282 1.51781 0
M  V30 6882 C 630.618 -1.51591 1.74037 0
M  V30 6883 C 631.588 -1.55556 0.582358 0
M  V30 6884 O 632.773 -1.72364 0.818245 0
M  V30 6885 C 629.913 -2.89188 1.8832 0
M  V30 6886 C 629.026 -2.9465 3.1592 0
M  V30 6887 C 628.161 -4.23452 3.20721 0
M  V30 6888 C 627.2 -4.22831 4.42584 0
M  V30 6889 N 626.337 -5.43178 4.44862 0
M  V30 6890 H 631.177 -1.31917 2.67212 0
M  V30 6891 H 628.714 -0.640599 1.32419 0
M  V30 6892 H 630.672 -3.69044 1.94583 0
M  V30 6893 H 629.302 -3.07392 0.985402 0
M  V30 6894 H 628.354 -2.07378 3.18902 0
M  V30 6895 H 629.666 -2.90055 4.05795 0
M  V30 6896 H 628.82 -5.1169 3.25973 0
M  V30 6897 H 627.559 -4.30722 2.28757 0
M  V30 6898 H 626.564 -3.32984 4.37495 0
M  V30 6899 H 627.789 -4.17213 5.35826 0
M  V30 6900 H 625.735 -5.51145 3.55775 0
M  V30 6901 H 625.652 -5.40515 5.28563 0
M  V30 6902 H 626.92 -6.33412 4.54324 0
M  V30 6903 N 631.149 -1.42148 -0.680565 0
M  V30 6904 C 632.426 -1.32795 -1.43614 0
M  V30 6905 C 632.806 0.037415 -2.11067 0
M  V30 6906 O 632.154 1.05258 -2.02813 0
M  V30 6907 C 632.364 -2.49206 -2.44331 0
M  V30 6908 C 633.712 -2.91059 -3.09144 0
M  V30 6909 O 634.736 -2.49054 -2.54657 0
M  V30 6910 O 633.595 -3.63741 -4.07866 0
M  V30 6911 H 630.689 -0.523397 -0.640301 0
M  V30 6912 H 633.235 -1.54144 -0.709775 0
M  V30 6913 H 632.007 -3.40252 -1.93247 0
M  V30 6914 H 631.63 -2.29813 -3.24456 0
M  V30 6915 N 632.627 0.916307 -1.28225 0
M  V30 6916 C 633.577 2.00488 -1.08574 0
M  V30 6917 C 634.561 1.60897 -0.0101874 0
M  V30 6918 O 635.753 1.75499 -0.230034 0
M  V30 6919 C 632.882 3.35076 -0.746943 0
M  V30 6920 C 631.968 3.81077 -1.86121 0
M  V30 6921 N 632.359 3.99475 -3.10247 0
M  V30 6922 C 630.657 4.10212 -1.75048 0
M  V30 6923 C 631.358 4.37965 -3.82834 0
M  V30 6924 N 630.334 4.4608 -3.10667 0
M  V30 6925 H 634.136 2.1276 -2.02757 0
M  V30 6926 H 631.65 1.10397 -1.19107 0
M  V30 6927 H 633.647 4.12743 -0.587252 0
M  V30 6928 H 632.307 3.2416 0.187146 0
M  V30 6929 H 633.318 3.85466 -3.45885 0
M  V30 6930 H 629.995 4.07947 -0.887999 0
M  V30 6931 H 631.385 4.60183 -4.89572 0
M  V30 6932 N 634.105 1.10431 1.1244 0
M  V30 6933 C 635.052 0.753103 2.18167 0
M  V30 6934 C 636.022 -0.270549 1.63882 0
M  V30 6935 O 637.207 -0.149837 1.90211 0
M  V30 6936 C 634.347 0.191046 3.44571 0
M  V30 6937 C 633.46 1.26999 4.12911 0
M  V30 6938 C 632.595 0.669586 5.26963 0
M  V30 6939 C 631.634 1.72912 5.87169 0
M  V30 6940 N 630.771 1.14898 6.92635 0
M  V30 6941 H 635.611 1.65892 2.47556 0
M  V30 6942 H 633.148 0.828631 1.21541 0
M  V30 6943 H 635.106 -0.152712 4.1692 0
M  V30 6944 H 633.736 -0.677997 3.15599 0
M  V30 6945 H 632.788 1.73087 3.3874 0
M  V30 6946 H 634.1 2.07204 4.53727 0
M  V30 6947 H 633.254 0.275274 6.06075 0
M  V30 6948 H 631.993 -0.163895 4.87425 0
M  V30 6949 H 630.998 2.13286 5.06744 0
M  V30 6950 H 632.223 2.56544 6.28778 0
M  V30 6951 H 630.169 0.336956 6.55134 0
M  V30 6952 H 630.086 1.88786 7.32049 0
M  V30 6953 H 631.354 0.78121 7.75576 0
M  V30 6954 N 635.583 -1.29855 0.893053 0
M  V30 6955 C 636.808 -2.00512 0.530066 0
M  V30 6956 C 637.233 -1.66446 -0.876199 0
M  V30 6957 O 636.591 -0.885446 -1.58207 0
M  V30 6958 C 636.639 -3.53308 0.721505 0
M  V30 6959 O 635.743 -4.11764 -0.228994 0
M  V30 6960 H 635.084 -0.630617 0.207891 0
M  V30 6961 H 637.614 -1.6551 1.20282 0
M  V30 6962 H 637.624 -4.03206 0.623599 0
M  V30 6963 H 636.299 -3.77439 1.74678 0
M  V30 6964 H 634.876 -3.72805 -0.0841034 0
M  V30 6965 N 637.061 -0.65484 -1.43351 0
M  V30 6966 C 638.009 0.0476784 -2.32551 0
M  V30 6967 C 639.003 0.811403 -1.48703 0
M  V30 6968 O 640.209 0.721621 -1.64902 0
M  V30 6969 H 636.584 0.0342038 -0.751222 0
M  V30 6970 H 638.555 -0.722342 -2.89525 0
M  V30 6971 C 637.304 0.999251 -3.33032 0
M  V30 6972 H 636.627 0.421005 -3.97577 0
M  V30 6973 H 638.067 1.45986 -3.98076 0
M  V30 6974 C 636.526 2.09606 -2.63756 0
M  V30 6975 O 637.056 3.18004 -2.4543 0
M  V30 6976 N 635.262 1.86207 -2.23103 0
M  V30 6977 H 634.809 0.980555 -2.38208 0
M  V30 6978 H 634.767 2.59787 -1.77081 0
M  V30 6979 N 638.539 1.52521 -0.396863 0
M  V30 6980 C 639.764 2.06571 0.185258 0
M  V30 6981 C 640.189 1.26605 1.39115 0
M  V30 6982 O 639.547 0.293055 1.78916 0
M  V30 6983 C 639.595 3.5674 0.526189 0
M  V30 6984 O 638.699 3.7929 1.61903 0
M  V30 6985 H 638.04 0.663712 0.0195474 0
M  V30 6986 H 640.57 1.966 -0.566519 0
M  V30 6987 H 640.58 4.00311 0.788338 0
M  V30 6988 H 639.255 4.14379 -0.355397 0
M  V30 6989 H 637.832 3.47605 1.35 0
M  V30 6990 N 640.017 0.126909 1.57088 0
M  V30 6991 C 640.964 -0.82036 2.15728 0
M  V30 6992 C 641.934 -1.25811 1.08447 0
M  V30 6993 O 643.119 -1.33422 1.36393 0
M  V30 6994 C 640.259 -2.06199 2.76724 0
M  V30 6995 C 639.372 -1.67188 3.98337 0
M  V30 6996 C 638.507 -2.86378 4.47393 0
M  V30 6997 C 637.546 -2.43644 5.61519 0
M  V30 6998 N 636.683 -3.55775 6.05284 0
M  V30 6999 H 641.523 -0.313472 2.96347 0
M  V30 7000 H 639.06 -0.14303 1.46403 0
M  V30 7001 H 641.018 -2.78959 3.10222 0
M  V30 7002 H 639.648 -2.54333 1.98782 0
M  V30 7003 H 638.7 -0.842714 3.70948 0
M  V30 7004 H 640.012 -1.31789 4.81075 0
M  V30 7005 H 639.166 -3.67353 4.82842 0
M  V30 7006 H 637.905 -3.25009 3.63621 0
M  V30 7007 H 636.91 -1.61104 5.25667 0
M  V30 7008 H 638.135 -2.06122 6.47063 0
M  V30 7009 H 636.081 -3.94065 5.24451 0
M  V30 7010 H 635.998 -3.24325 6.82898 0
M  V30 7011 H 637.266 -4.37166 6.45373 0
M  V30 7012 N 641.495 -1.56914 -0.146875 0
M  V30 7013 C 642.405 -2.0154 -1.20079 0
M  V30 7014 C 643.421 -0.930838 -1.47008 0
M  V30 7015 O 644.597 -1.24032 -1.58676 0
M  V30 7016 C 641.662 -2.38715 -2.51428 0
M  V30 7017 C 640.723 -3.6112 -2.32145 0
M  V30 7018 C 639.956 -3.96512 -3.57231 0
M  V30 7019 O 640.179 -3.32566 -4.63418 0
M  V30 7020 O 639.113 -4.89758 -3.49887 0
M  V30 7021 H 642.939 -2.91506 -0.851924 0
M  V30 7022 H 640.524 -1.45106 -0.355607 0
M  V30 7023 H 642.406 -2.63485 -3.28867 0
M  V30 7024 H 641.081 -1.51903 -2.85845 0
M  V30 7025 H 639.988 -3.41536 -1.52656 0
M  V30 7026 H 641.321 -4.48549 -2.02644 0
M  V30 7027 N 642.974 0.416227 -1.52004 0
M  V30 7028 C 644.39 0.754319 -1.40649 0
M  V30 7029 C 644.59 1.95059 -0.505392 0
M  V30 7030 O 643.646 2.5248 0.0315057 0
M  V30 7031 C 644.959 1.0149 -2.83055 0
M  V30 7032 C 646.507 1.11805 -2.9235 0
M  V30 7033 C 646.982 1.41144 -4.35709 0
M  V30 7034 N 648.473 1.48024 -4.38911 0
M  V30 7035 C 649.208 1.72338 -5.46889 0
M  V30 7036 N 648.704 1.94303 -6.64995 0
M  V30 7037 N 650.497 1.74294 -5.34395 0
M  V30 7038 H 642.648 -0.371324 -2.09129 0
M  V30 7039 H 644.911 -0.103811 -0.942299 0
M  V30 7040 H 644.617 0.208345 -3.51082 0
M  V30 7041 H 644.491 1.93697 -3.23668 0
M  V30 7042 H 646.878 1.91521 -2.24508 0
M  V30 7043 H 646.959 0.17451 -2.55204 0
M  V30 7044 H 646.603 0.619484 -5.04108 0
M  V30 7045 H 646.533 2.36739 -4.70385 0
M  V30 7046 H 649.024 1.32868 -3.53772 0
M  V30 7047 H 649.337 2.12286 -7.43071 0
M  V30 7048 H 647.682 1.91582 -6.68073 0
M  V30 7049 H 650.873 1.56667 -4.41104 0
M  V30 7050 H 651.046 1.92904 -6.18621 0
M  V30 7051 N 644.452 1.42507 0.673017 0
M  V30 7052 C 645.729 1.33554 1.42908 0
M  V30 7053 C 646.109 -0.0262211 2.11084 0
M  V30 7054 O 645.457 -1.04181 2.03368 0
M  V30 7055 C 645.667 2.50498 2.43006 0
M  V30 7056 C 647.015 2.92694 3.07596 0
M  V30 7057 O 648.039 2.50401 2.53333 0
M  V30 7058 O 646.898 3.65899 4.05931 0
M  V30 7059 H 643.992 0.526785 0.637516 0
M  V30 7060 H 646.538 1.54518 0.701591 0
M  V30 7061 H 645.31 3.41272 1.9144 0
M  V30 7062 H 644.933 2.3153 3.23233 0
M  V30 7063 N 645.93 -0.909495 1.28709 0
M  V30 7064 C 647.179 -1.65365 1.15487 0
M  V30 7065 C 647.492 -1.93364 -0.294941 0
M  V30 7066 O 648.698 -2.65905 -0.548338 0
M  V30 7067 C 647.154 -2.97923 2.01916 0
M  V30 7068 C 646.762 -2.77556 3.51663 0
M  V30 7069 C 648.506 -3.75814 1.97393 0
M  V30 7070 C 646.413 -4.0578 4.30229 0
M  V30 7071 H 645.343 -0.620323 0.42862 0
M  V30 7072 H 647.994 -1.00894 1.53273 0
M  V30 7073 H 646.376 -3.63552 1.5699 0
M  V30 7074 H 647.55 -2.2058 4.04575 0
M  V30 7075 H 645.865 -2.13072 3.57756 0
M  V30 7076 H 648.462 -4.70866 2.53357 0
M  V30 7077 H 648.805 -4.05277 0.951643 0
M  V30 7078 H 649.338 -3.1701 2.40311 0
M  V30 7079 H 646.077 -3.81488 5.33055 0
M  V30 7080 H 645.597 -4.62351 3.82089 0
M  V30 7081 H 647.276 -4.74004 4.40374 0
M  V30 7082 N 647.408 -1.11026 -1.11852 0
M  V30 7083 C 648.824 -0.843294 -1.35502 0
M  V30 7084 C 649.024 0.534179 -1.9429 0
M  V30 7085 O 648.08 1.28585 -2.17307 0
M  V30 7086 C 649.393 -1.94793 -2.29077 0
M  V30 7087 C 650.941 -1.97709 -2.42652 0
M  V30 7088 C 651.416 -3.07364 -3.39546 0
M  V30 7089 N 652.907 -3.0671 -3.47107 0
M  V30 7090 C 653.642 -3.88197 -4.22008 0
M  V30 7091 N 653.138 -4.79635 -4.99922 0
M  V30 7092 N 654.931 -3.76391 -4.17476 0
M  V30 7093 H 647.082 -1.99805 -0.720538 0
M  V30 7094 H 649.345 -0.868633 -0.379711 0
M  V30 7095 H 649.051 -2.93971 -1.93065 0
M  V30 7096 H 648.925 -1.84039 -3.29256 0
M  V30 7097 H 651.312 -0.991604 -2.77941 0
M  V30 7098 H 651.393 -2.1254 -1.4234 0
M  V30 7099 H 651.037 -4.06136 -3.04985 0
M  V30 7100 H 650.967 -2.89774 -4.39703 0
M  V30 7101 H 653.458 -2.40457 -2.91528 0
M  V30 7102 H 653.771 -5.38357 -5.54429 0
M  V30 7103 H 652.116 -4.8366 -4.99097 0
M  V30 7104 H 655.307 -3.04303 -3.55693 0
M  V30 7105 H 655.48 -4.40131 -4.75593 0
M  V30 7106 N 648.886 1.2938 -0.899927 0
M  V30 7107 C 650.302 1.48052 -0.596059 0
M  V30 7108 C 650.502 1.82114 0.862372 0
M  V30 7109 O 649.558 1.91774 1.64253 0
M  V30 7110 C 650.871 2.59332 -1.52208 0
M  V30 7111 C 652.419 2.73208 -1.5273 0
M  V30 7112 C 652.894 3.87617 -2.43961 0
M  V30 7113 N 654.385 3.9495 -2.42009 0
M  V30 7114 C 655.12 4.82824 -3.09303 0
M  V30 7115 N 654.616 5.75387 -3.85877 0
M  V30 7116 N 656.409 4.76317 -2.98459 0
M  V30 7117 H 648.56 1.05546 -1.8432 0
M  V30 7118 H 650.823 0.524314 -0.78981 0
M  V30 7119 H 650.529 2.41029 -2.56121 0
M  V30 7120 H 650.403 3.56139 -1.24278 0
M  V30 7121 H 652.79 2.90908 -0.495614 0
M  V30 7122 H 652.871 1.76975 -1.84698 0
M  V30 7123 H 652.515 3.70672 -3.47224 0
M  V30 7124 H 652.445 4.83218 -2.09303 0
M  V30 7125 H 654.936 3.28744 -1.86375 0
M  V30 7126 H 655.249 6.39235 -4.34279 0
M  V30 7127 H 653.594 5.75272 -3.89984 0
M  V30 7128 H 656.785 4.0299 -2.38152 0
M  V30 7129 H 656.958 5.44589 -3.51179 0
M  V30 7130 N 650.364 0.662433 1.43002 0
M  V30 7131 C 651.312 -0.035345 2.32573 0
M  V30 7132 C 652.306 -0.803505 1.49131 0
M  V30 7133 O 653.512 -0.712865 1.65282 0
M  V30 7134 H 649.887 -0.0302194 0.751393 0
M  V30 7135 H 651.858 0.737686 2.89138 0
M  V30 7136 C 650.607 -0.981575 3.33557 0
M  V30 7137 H 649.93 -0.399914 3.97795 0
M  V30 7138 H 651.37 -1.43873 3.98844 0
M  V30 7139 C 649.829 -2.08204 2.64863 0
M  V30 7140 O 650.359 -3.16698 2.47113 0
M  V30 7141 N 648.565 -1.85022 2.24088 0
M  V30 7142 H 648.112 -0.967909 2.38724 0
M  V30 7143 H 648.07 -2.58845 1.78457 0
M  V30 7144 N 651.842 -1.52309 0.404946 0
M  V30 7145 C 653.067 -2.06666 -0.1743 0
M  V30 7146 C 653.492 -1.27341 -1.38441 0
M  V30 7147 O 652.85 -0.302539 -1.78758 0
M  V30 7148 C 652.898 -3.57014 -0.507262 0
M  V30 7149 O 652.002 -3.80144 -1.59889 0
M  V30 7150 H 651.343 -0.663807 -0.0160273 0
M  V30 7151 H 653.873 -1.96297 0.576937 0
M  V30 7152 H 653.883 -4.00724 -0.767098 0
M  V30 7153 H 652.558 -4.14184 0.377368 0
M  V30 7154 H 651.135 -3.48316 -1.33155 0
M  V30 7155 N 653.32 -0.135238 -1.57019 0
M  V30 7156 C 654.23 0.822226 -2.19719 0
M  V30 7157 C 655.246 1.28057 -1.17802 0
M  V30 7158 O 656.422 1.3402 -1.50335 0
M  V30 7159 C 653.487 2.0484 -2.79717 0
M  V30 7160 C 652.548 1.64042 -3.96723 0
M  V30 7161 C 651.781 2.80814 -4.53849 0
M  V30 7162 O 652.004 3.967 -4.0986 0
M  V30 7163 O 650.938 2.56963 -5.44292 0
M  V30 7164 H 654.764 0.318552 -3.02025 0
M  V30 7165 H 652.349 0.0912021 -1.49121 0
M  V30 7166 H 654.231 2.76622 -3.17897 0
M  V30 7167 H 652.906 2.54182 -2.00432 0
M  V30 7168 H 651.813 0.893182 -3.63281 0
M  V30 7169 H 653.146 1.19426 -4.77492 0
M  V30 7170 N 654.798 1.5699 0.138552 0
M  V30 7171 C 655.745 1.98899 1.17081 0
M  V30 7172 C 656.715 0.857922 1.42228 0
M  V30 7173 O 657.9 1.12065 1.54422 0
M  V30 7174 C 655.04 2.38189 2.4972 0
M  V30 7175 C 654.153 3.64624 2.31674 0
M  V30 7176 C 653.288 3.9298 3.57407 0
M  V30 7177 C 652.327 5.1266 3.34435 0
M  V30 7178 N 651.464 5.36983 4.5232 0
M  V30 7179 H 656.304 2.86881 0.80642 0
M  V30 7180 H 653.841 1.41925 0.386727 0
M  V30 7181 H 655.799 2.59 3.2707 0
M  V30 7182 H 654.429 1.53275 2.84089 0
M  V30 7183 H 653.481 3.51542 1.45337 0
M  V30 7184 H 654.793 4.52131 2.10664 0
M  V30 7185 H 653.947 4.14335 4.43183 0
M  V30 7186 H 652.686 3.03912 3.8143 0
M  V30 7187 H 651.691 4.9117 2.47048 0
M  V30 7188 H 652.916 6.03288 3.11802 0
M  V30 7189 H 650.862 4.50871 4.76499 0
M  V30 7190 H 650.779 6.18775 4.34343 0
M  V30 7191 H 652.047 5.62842 5.39285 0
M  V30 7192 N 656.276 -0.40816 1.52223 0
M  V30 7193 C 657.553 -1.16807 1.56893 0
M  V30 7194 C 657.933 -2.08169 0.350537 0
M  V30 7195 O 657.281 -2.18684 -0.662536 0
M  V30 7196 C 657.491 -1.94451 2.8981 0
M  V30 7197 C 658.839 -2.50484 3.42845 0
M  V30 7198 O 659.863 -2.0463 2.91556 0
M  V30 7199 O 658.722 -3.34192 4.3241 0
M  V30 7200 H 655.816 -0.533382 0.632007 0
M  V30 7201 H 658.362 -0.414862 1.64551 0
M  V30 7202 H 657.134 -1.27527 3.69936 0
M  V30 7203 H 656.757 -2.76775 2.85449 0
M  V30 7204 N 657.755 -1.42862 -0.66545 0
M  V30 7205 C 659.032 -1.3431 -1.42197 0
M  V30 7206 C 659.412 0.0150265 -2.11095 0
M  V30 7207 O 658.76 1.03101 -2.03918 0
M  V30 7208 C 658.97 -2.51783 -2.41674 0
M  V30 7209 C 660.318 -2.94321 -3.0604 0
M  V30 7210 O 661.342 -2.51741 -2.52001 0
M  V30 7211 O 660.201 -3.68047 -4.03985 0
M  V30 7212 H 657.295 -0.530159 -0.634713 0
M  V30 7213 H 659.841 -1.54888 -0.693386 0
M  V30 7214 H 658.613 -3.42282 -1.89627 0
M  V30 7215 H 658.236 -2.33241 -3.22001 0
M  V30 7216 N 659.233 0.902656 -1.29189 0
M  V30 7217 C 660.18 2.00643 -1.14066 0
M  V30 7218 C 661.15 1.66064 -0.0347756 0
M  V30 7219 O 662.335 1.8973 -0.201752 0
M  V30 7220 C 659.475 3.35214 -0.820104 0
M  V30 7221 C 658.588 3.82594 -2.00614 0
M  V30 7222 C 657.723 5.05727 -1.62522 0
M  V30 7223 C 656.762 5.45469 -2.77724 0
M  V30 7224 N 655.899 6.59789 -2.40048 0
M  V30 7225 H 660.739 2.1291 -2.08502 0
M  V30 7226 H 658.276 1.04271 -1.03759 0
M  V30 7227 H 660.234 4.12643 -0.614949 0
M  V30 7228 H 658.864 3.22682 0.0873452 0
M  V30 7229 H 657.916 3.01226 -2.32308 0
M  V30 7230 H 659.228 4.07999 -2.86946 0
M  V30 7231 H 658.382 5.90732 -1.38277 0
M  V30 7232 H 657.121 4.82155 -0.733333 0
M  V30 7233 H 656.126 4.59 -3.02653 0
M  V30 7234 H 657.351 5.71024 -3.67572 0
M  V30 7235 H 655.297 6.37826 -1.53343 0
M  V30 7236 H 655.214 6.84975 -3.19914 0
M  V30 7237 H 656.482 7.4807 -2.19116 0
M  V30 7238 N 660.711 1.11618 1.11262 0
M  V30 7239 C 661.941 0.88745 1.86569 0
M  V30 7240 C 662.349 -0.56636 1.80524 0
M  V30 7241 O 661.692 -1.40289 1.18594 0
M  V30 7242 C 661.754 1.27313 3.36202 0
M  V30 7243 C 661.418 2.73649 3.66013 0
M  V30 7244 C 662.415 3.71863 3.63337 0
M  V30 7245 C 660.1 3.10342 3.9496 0
M  V30 7246 C 662.094 5.04788 3.89188 0
M  V30 7247 C 659.781 4.43451 4.20469 0
M  V30 7248 C 660.779 5.40484 4.17572 0
M  V30 7249 O 660.467 6.71195 4.42439 0
M  V30 7250 H 660.199 0.317543 0.596777 0
M  V30 7251 H 662.753 1.48768 1.41624 0
M  V30 7252 H 660.983 0.616062 3.81761 0
M  V30 7253 H 662.672 1.01991 3.92877 0
M  V30 7254 H 663.438 3.44861 3.41022 0
M  V30 7255 H 659.317 2.35431 3.9635 0
M  V30 7256 H 662.861 5.80516 3.86842 0
M  V30 7257 H 658.758 4.70187 4.42261 0
M  V30 7258 H 659.526 6.77012 4.59997 0
M  V30 7259 N 662.189 -1.289 0.906776 0
M  V30 7260 C 663.136 -2.2751 0.388313 0
M  V30 7261 C 664.106 -1.57301 -0.533439 0
M  V30 7262 O 665.291 -1.85243 -0.457148 0
M  V30 7263 C 662.431 -3.43091 -0.37181 0
M  V30 7264 C 661.544 -4.28066 0.581647 0
M  V30 7265 C 660.679 -5.30837 -0.19623 0
M  V30 7266 C 659.718 -6.07472 0.751294 0
M  V30 7267 N 658.855 -7.021 0.00737727 0
M  V30 7268 H 663.695 -2.71237 1.23428 0
M  V30 7269 H 661.232 -1.33397 0.619962 0
M  V30 7270 H 663.19 -4.08888 -0.828641 0
M  V30 7271 H 661.82 -3.00374 -1.18218 0
M  V30 7272 H 660.872 -3.62378 1.157 0
M  V30 7273 H 662.184 -4.81382 1.30665 0
M  V30 7274 H 661.338 -6.02485 -0.71394 0
M  V30 7275 H 660.077 -4.78272 -0.954324 0
M  V30 7276 H 659.082 -5.34682 1.28044 0
M  V30 7277 H 660.307 -6.62126 1.50883 0
M  V30 7278 H 658.253 -6.51894 -0.732854 0
M  V30 7279 H 658.17 -7.53004 0.672334 0
M  V30 7280 H 659.438 -7.77956 -0.490365 0
M  V30 7281 N 663.667 -0.670007 -1.42649 0
M  V30 7282 C 664.615 0.0230106 -2.32589 0
M  V30 7283 C 665.609 0.795585 -1.49555 0
M  V30 7284 O 666.815 0.70409 -1.65658 0
M  V30 7285 H 663.19 0.0262342 -0.751542 0
M  V30 7286 H 665.161 -0.753009 -2.88743 0
M  V30 7287 C 663.91 0.963872 -3.34073 0
M  V30 7288 H 663.233 0.378813 -3.98001 0
M  V30 7289 H 664.673 1.41755 -3.99602 0
M  V30 7290 C 663.132 2.06797 -2.65964 0
M  V30 7291 O 663.662 3.15383 -2.48789 0
M  V30 7292 N 661.868 1.83831 -2.25066 0
M  V30 7293 H 661.415 0.955235 -2.39234 0
M  V30 7294 H 661.373 2.57895 -1.79827 0
M  V30 7295 N 665.145 1.52092 -0.413018 0
M  V30 7296 C 666.092 2.27119 0.410558 0
M  V30 7297 C 667.062 1.29692 1.03774 0
M  V30 7298 O 668.247 1.58561 1.06128 0
M  V30 7299 C 665.387 3.09863 1.51918 0
M  V30 7300 C 664.5 4.22252 0.912528 0
M  V30 7301 C 663.635 4.92348 1.99417 0
M  V30 7302 C 662.674 5.96694 1.36466 0
M  V30 7303 N 661.811 6.60292 2.38661 0
M  V30 7304 H 666.651 2.97067 -0.235661 0
M  V30 7305 H 664.188 1.46542 -0.128055 0
M  V30 7306 H 666.146 3.56144 2.17295 0
M  V30 7307 H 664.776 2.42078 2.13537 0
M  V30 7308 H 663.828 3.80113 0.147697 0
M  V30 7309 H 665.14 4.9709 0.412717 0
M  V30 7310 H 664.294 5.42054 2.72512 0
M  V30 7311 H 663.033 4.17087 2.52764 0
M  V30 7312 H 662.038 5.46304 0.61906 0
M  V30 7313 H 663.263 6.73899 0.838827 0
M  V30 7314 H 661.209 5.87858 2.91134 0
M  V30 7315 H 661.126 7.30816 1.93503 0
M  V30 7316 H 662.394 7.14635 3.11314 0
M  V30 7317 N 666.623 0.143563 1.56945 0
M  V30 7318 C 667.869 -0.50916 1.96304 0
M  V30 7319 C 668.202 -1.64741 1.0283 0
M  V30 7320 O 667.477 -1.94374 0.0700361 0
M  V30 7321 C 667.76 -1.0186 3.45393 0
M  V30 7322 C 667.613 0.117923 4.49645 0
M  V30 7323 C 668.932 -1.90151 3.96901 0
M  V30 7324 H 666.051 -0.183608 0.713763 0
M  V30 7325 H 668.693 0.224095 1.88674 0
M  V30 7326 H 666.843 -1.64345 3.52027 0
M  V30 7327 H 668.515 0.754145 4.55094 0
M  V30 7328 H 666.758 0.777568 4.26774 0
M  V30 7329 H 667.429 -0.280187 5.51288 0
M  V30 7330 H 669.905 -1.375 3.92725 0
M  V30 7331 H 668.781 -2.22707 5.0169 0
M  V30 7332 H 669.042 -2.83718 3.39052 0
M  V30 7333 N 668.101 -1.57061 -0.130224 0
M  V30 7334 C 669.048 -1.99517 -1.16024 0
M  V30 7335 C 670.018 -0.865452 -1.41771 0
M  V30 7336 O 671.203 -1.12882 -1.53826 0
M  V30 7337 C 668.343 -2.3951 -2.48453 0
M  V30 7338 C 667.456 -3.65848 -2.29737 0
M  V30 7339 C 666.591 -3.9487 -3.55318 0
M  V30 7340 C 665.63 -5.14426 -3.31711 0
M  V30 7341 N 664.767 -5.39375 -4.49466 0
M  V30 7342 H 669.607 -2.87305 -0.791194 0
M  V30 7343 H 667.144 -1.42129 -0.379195 0
M  V30 7344 H 669.102 -2.60731 -3.25692 0
M  V30 7345 H 667.732 -1.54779 -2.83272 0
M  V30 7346 H 666.784 -3.52307 -1.4347 0
M  V30 7347 H 668.096 -4.53241 -2.08263 0
M  V30 7348 H 667.25 -4.16679 -4.4098 0
M  V30 7349 H 665.989 -3.05931 -3.79813 0
M  V30 7350 H 664.994 -4.92473 -2.44439 0
M  V30 7351 H 666.219 -6.04933 -3.08598 0
M  V30 7352 H 664.165 -4.53391 -4.74102 0
M  V30 7353 H 664.082 -6.21069 -4.31055 0
M  V30 7354 H 665.35 -5.65694 -5.36293 0
M  V30 7355 N 669.579 0.400081 -1.52437 0
M  V30 7356 C 670.526 1.48803 -1.76426 0
M  V30 7357 C 671.496 1.5461 -0.607032 0
M  V30 7358 O 672.681 1.71041 -0.845563 0
M  V30 7359 C 669.821 2.86156 -1.92896 0
M  V30 7360 C 668.934 2.89587 -3.20567 0
M  V30 7361 C 668.069 4.18296 -3.27417 0
M  V30 7362 C 667.108 4.15736 -4.49255 0
M  V30 7363 N 666.245 5.36032 -4.53447 0
M  V30 7364 H 671.085 1.27649 -2.69276 0
M  V30 7365 H 668.622 0.619451 -1.33421 0
M  V30 7366 H 670.58 3.65901 -2.00429 0
M  V30 7367 H 669.21 3.05785 -1.03418 0
M  V30 7368 H 668.262 2.02278 -3.22161 0
M  V30 7369 H 669.574 2.83562 -4.10358 0
M  V30 7370 H 668.728 5.06439 -3.34072 0
M  V30 7371 H 667.467 4.27028 -2.35581 0
M  V30 7372 H 666.472 3.25982 -4.42737 0
M  V30 7373 H 667.697 4.08636 -5.42396 0
M  V30 7374 H 665.643 5.45415 -3.64498 0
M  V30 7375 H 665.56 5.32038 -5.37096 0
M  V30 7376 H 666.828 6.26104 -4.64343 0
M  V30 7377 N 671.057 1.43213 0.657864 0
M  V30 7378 C 672.473 1.26511 0.972992 0
M  V30 7379 C 672.673 0.181477 2.00681 0
M  V30 7380 O 671.729 -0.441649 2.48608 0
M  V30 7381 C 673.042 2.62784 1.46168 0
M  V30 7382 C 674.59 2.70278 1.57857 0
M  V30 7383 C 675.065 4.06958 2.10117 0
M  V30 7384 N 676.556 4.08999 2.17426 0
M  V30 7385 C 677.291 5.11585 2.58975 0
M  V30 7386 N 676.787 6.24548 2.99853 0
M  V30 7387 N 678.58 4.9894 2.58873 0
M  V30 7388 H 670.731 2.12384 -0.0263129 0
M  V30 7389 H 672.994 0.946638 0.0507992 0
M  V30 7390 H 672.7 3.43022 0.776474 0
M  V30 7391 H 672.574 2.87863 2.43751 0
M  V30 7392 H 674.961 1.90376 2.25479 0
M  V30 7393 H 675.042 2.4897 0.587179 0
M  V30 7394 H 674.686 4.87325 1.43098 0
M  V30 7395 H 674.616 4.25628 3.10078 0
M  V30 7396 H 677.107 3.27457 1.88627 0
M  V30 7397 H 677.42 6.98661 3.30292 0
M  V30 7398 H 675.765 6.28027 2.97669 0
M  V30 7399 H 678.956 4.09757 2.26311 0
M  V30 7400 H 679.129 5.79019 2.90932 0
M  V30 7401 N 672.536 -0.895792 1.29666 0
M  V30 7402 C 673.499 -1.98189 1.15124 0
M  V30 7403 C 674.499 -1.60572 0.0855717 0
M  V30 7404 O 675.689 -1.70991 0.332826 0
M  V30 7405 C 672.821 -3.32289 0.761372 0
M  V30 7406 H 674.014 -2.12518 2.11603 0
M  V30 7407 H 671.567 -1.0808 1.12908 0
M  V30 7408 H 672.302 -3.23662 -0.203393 0
M  V30 7409 H 672.087 -3.60958 1.53139 0
M  V30 7410 H 673.577 -4.1198 0.682792 0
M  V30 7411 N 674.014 -1.12206 -1.10668 0
M  V30 7412 C 674.961 -0.787716 -2.16942 0
M  V30 7413 C 675.931 0.244442 -1.64291 0
M  V30 7414 O 677.116 0.119558 -1.90425 0
M  V30 7415 C 674.256 -0.24584 -3.44223 0
M  V30 7416 C 673.369 -1.33552 -4.10838 0
M  V30 7417 C 672.504 -0.753337 -5.25831 0
M  V30 7418 C 671.543 -1.82231 -5.84344 0
M  V30 7419 N 670.68 -1.25902 -6.90719 0
M  V30 7420 H 675.52 -1.69809 -2.44885 0
M  V30 7421 H 673.057 -0.847862 -1.20207 0
M  V30 7422 H 675.015 0.0863639 -4.17111 0
M  V30 7423 H 673.645 0.627702 -3.16638 0
M  V30 7424 H 672.697 -1.78454 -3.35944 0
M  V30 7425 H 674.009 -2.14396 -4.50373 0
M  V30 7426 H 673.163 -0.37166 -6.05561 0
M  V30 7427 H 671.902 0.0863297 -4.87624 0
M  V30 7428 H 670.907 -2.2132 -5.03287 0
M  V30 7429 H 672.132 -2.66515 -6.24617 0
M  V30 7430 H 670.078 -0.44114 -6.54515 0
M  V30 7431 H 669.995 -2.00408 -7.28953 0
M  V30 7432 H 671.263 -0.904498 -7.74235 0
M  V30 7433 N 675.492 1.28418 -0.913599 0
M  V30 7434 C 676.717 1.99643 -0.561899 0
M  V30 7435 C 677.142 1.67819 0.849608 0
M  V30 7436 O 676.5 0.910503 1.56779 0
M  V30 7437 C 676.548 3.52116 -0.777622 0
M  V30 7438 O 675.652 4.12076 0.163457 0
M  V30 7439 H 674.993 0.627229 -0.217898 0
M  V30 7440 H 677.523 1.63575 -1.229 0
M  V30 7441 H 677.533 4.02163 -0.687666 0
M  V30 7442 H 676.208 3.74613 -1.8066 0
M  V30 7443 H 674.785 3.72892 0.0247827 0
M  V30 7444 N 676.97 0.677563 1.42291 0
M  V30 7445 C 677.917 0.000947061 2.308 0
M  V30 7446 C 678.887 -0.789889 1.46116 0
M  V30 7447 O 680.072 -0.761578 1.74942 0
M  V30 7448 C 677.212 -0.942387 3.31984 0
M  V30 7449 C 676.325 -0.14508 4.31756 0
M  V30 7450 C 675.46 -1.08442 5.20013 0
M  V30 7451 C 674.499 -0.278958 6.11464 0
M  V30 7452 N 673.636 -1.17115 6.92263 0
M  V30 7453 H 678.476 0.761521 2.88106 0
M  V30 7454 H 676.013 0.38727 1.41911 0
M  V30 7455 H 677.971 -1.50317 3.89179 0
M  V30 7456 H 676.601 -1.66956 2.76271 0
M  V30 7457 H 675.653 0.532368 3.76656 0
M  V30 7458 H 676.965 0.48015 4.96484 0
M  V30 7459 H 676.119 -1.71504 5.81955 0
M  V30 7460 H 674.858 -1.74353 4.55469 0
M  V30 7461 H 673.863 0.364856 5.48588 0
M  V30 7462 H 675.088 0.376099 6.78058 0
M  V30 7463 H 673.034 -1.81661 6.30345 0
M  V30 7464 H 672.951 -0.601063 7.53607 0
M  V30 7465 H 674.219 -1.78915 7.58689 0
M  V30 7466 N 678.448 -1.51871 0.421078 0
M  V30 7467 C 679.673 -2.0684 -0.152371 0
M  V30 7468 C 680.098 -1.28802 -1.37083 0
M  V30 7469 O 679.456 -0.321482 -1.78427 0
M  V30 7470 C 679.504 -3.57532 -0.469368 0
M  V30 7471 O 678.608 -3.81818 -1.55848 0
M  V30 7472 H 677.949 -0.663939 -0.00898586 0
M  V30 7473 H 680.479 -1.95674 0.597724 0
M  V30 7474 H 680.489 -4.01515 -0.724553 0
M  V30 7475 H 679.164 -4.13761 0.421276 0
M  V30 7476 H 677.741 -3.49709 -1.29453 0
M  V30 7477 N 679.926 -0.151884 -1.56866 0
M  V30 7478 C 681.342 0.204486 -1.58285 0
M  V30 7479 C 681.542 1.6431 -1.16639 0
M  V30 7480 O 680.598 2.37077 -0.868946 0
M  V30 7481 C 681.911 -0.0587019 -3.00643 0
M  V30 7482 C 683.459 0.00462303 -3.13 0
M  V30 7483 C 683.934 -0.231297 -4.57416 0
M  V30 7484 N 685.425 -0.178394 -4.62856 0
M  V30 7485 C 686.16 -0.335379 -5.72418 0
M  V30 7486 N 685.656 -0.550355 -6.90611 0
M  V30 7487 N 687.449 -0.272641 -5.61438 0
M  V30 7488 H 679.6 -1.09116 -1.82229 0
M  V30 7489 H 681.863 -0.432311 -0.843689 0
M  V30 7490 H 681.569 -1.05453 -3.35518 0
M  V30 7491 H 681.443 0.658508 -3.71407 0
M  V30 7492 H 683.83 0.991009 -2.77962 0
M  V30 7493 H 683.911 -0.744992 -2.44711 0
M  V30 7494 H 683.555 -1.2148 -4.93158 0
M  V30 7495 H 683.485 0.5387 -5.23837 0
M  V30 7496 H 685.976 -0.0170923 -3.77896 0
M  V30 7497 H 686.289 -0.660116 -7.69976 0
M  V30 7498 H 684.634 -0.586736 -6.92519 0
M  V30 7499 H 687.825 -0.105421 -4.67981 0
M  V30 7500 H 687.998 -0.398418 -6.46774 0
M  V30 7501 N 681.404 1.57128 0.121893 0
M  V30 7502 C 682.629 1.89254 0.848385 0
M  V30 7503 C 683.054 0.743527 1.72781 0
M  V30 7504 O 682.412 -0.306056 1.78698 0
M  V30 7505 C 682.46 3.20113 1.66012 0
M  V30 7506 O 681.564 3.05815 2.76679 0
M  V30 7507 H 680.905 0.621103 0.234793 0
M  V30 7508 H 683.435 2.0433 0.10516 0
M  V30 7509 H 683.445 3.52761 2.04996 0
M  V30 7510 H 682.12 4.03336 1.01452 0
M  V30 7511 H 680.697 2.84627 2.40918 0
M  V30 7512 N 682.882 -0.391992 1.52647 0
M  V30 7513 C 683.829 -1.47866 1.77213 0
M  V30 7514 C 684.799 -1.54286 0.615223 0
M  V30 7515 O 685.984 -1.7059 0.854622 0
M  V30 7516 C 683.124 -2.85129 1.94411 0
M  V30 7517 C 682.237 -2.87883 3.22098 0
M  V30 7518 C 681.372 -4.16553 3.29631 0
M  V30 7519 C 680.411 -4.13348 4.51453 0
M  V30 7520 N 679.548 -5.33619 4.56284 0
M  V30 7521 H 684.388 -1.26219 2.6995 0
M  V30 7522 H 681.925 -0.612367 1.33748 0
M  V30 7523 H 683.883 -3.64833 2.02367 0
M  V30 7524 H 682.513 -3.05232 1.05038 0
M  V30 7525 H 681.565 -2.00567 3.23229 0
M  V30 7526 H 682.877 -2.81382 4.11856 0
M  V30 7527 H 682.031 -5.0466 3.36753 0
M  V30 7528 H 680.77 -4.25773 2.37842 0
M  V30 7529 H 679.775 -3.23629 4.44459 0
M  V30 7530 H 681 -4.05754 5.44555 0
M  V30 7531 H 678.946 -5.43474 3.67385 0
M  V30 7532 H 678.863 -5.29182 5.3991 0
M  V30 7533 H 680.131 -6.23632 4.67657 0
M  V30 7534 N 684.36 -1.4356 -0.65026 0
M  V30 7535 C 685.585 -1.48995 -1.44275 0
M  V30 7536 C 686.01 -0.109954 -1.87778 0
M  V30 7537 O 685.368 0.896926 -1.57559 0
M  V30 7538 C 685.416 -2.44341 -2.65198 0
M  V30 7539 O 684.52 -1.93172 -3.6436 0
M  V30 7540 H 683.861 -0.503852 -0.432469 0
M  V30 7541 H 686.391 -1.88504 -0.795446 0
M  V30 7542 H 686.401 -2.61743 -3.12977 0
M  V30 7543 H 685.076 -3.44588 -2.32877 0
M  V30 7544 H 683.653 -1.85445 -3.23519 0
M  V30 7545 N 685.838 0.888903 -1.30139 0
M  V30 7546 C 686.785 1.99422 -1.16188 0
M  V30 7547 C 687.755 1.66017 -0.0523869 0
M  V30 7548 O 688.94 1.89506 -0.221864 0
M  V30 7549 C 686.08 3.34325 -0.855612 0
M  V30 7550 C 685.193 3.80445 -2.0466 0
M  V30 7551 C 684.328 5.03975 -1.67876 0
M  V30 7552 C 683.367 5.42492 -2.83493 0
M  V30 7553 N 682.504 6.57206 -2.47032 0
M  V30 7554 H 687.344 2.10687 -2.10749 0
M  V30 7555 H 684.881 1.03165 -1.04859 0
M  V30 7556 H 686.839 4.11968 -0.658681 0
M  V30 7557 H 685.469 3.22756 0.0531155 0
M  V30 7558 H 684.521 2.98745 -2.3549 0
M  V30 7559 H 685.833 4.04933 -2.91257 0
M  V30 7560 H 684.987 5.89232 -1.44535 0
M  V30 7561 H 683.726 4.8135 -0.784431 0
M  V30 7562 H 682.731 4.55764 -3.07505 0
M  V30 7563 H 683.956 5.67093 -3.73607 0
M  V30 7564 H 681.902 6.36164 -1.601 0
M  V30 7565 H 681.819 6.81543 -3.27161 0
M  V30 7566 H 683.087 7.45704 -2.27038 0
M  V30 7567 N 687.317 1.12792 1.10072 0
M  V30 7568 C 688.227 0.812369 2.20086 0
M  V30 7569 C 689.243 -0.200349 1.72843 0
M  V30 7570 O 690.419 -0.0330262 2.01373 0
M  V30 7571 C 687.484 0.275685 3.45602 0
M  V30 7572 C 686.545 1.34881 4.07561 0
M  V30 7573 C 685.778 0.837639 5.27086 0
M  V30 7574 O 686.001 -0.327224 5.69461 0
M  V30 7575 O 684.935 1.60894 5.79997 0
M  V30 7576 H 688.761 1.73133 2.49517 0
M  V30 7577 H 686.346 0.904863 1.18881 0
M  V30 7578 H 688.228 -0.0185375 4.21396 0
M  V30 7579 H 686.903 -0.615783 3.17789 0
M  V30 7580 H 685.81 1.69625 3.33434 0
M  V30 7581 H 687.143 2.21418 4.39585 0
M  V30 7582 N 688.795 -1.27931 0.920396 0
M  V30 7583 C 689.742 -2.27085 0.412422 0
M  V30 7584 C 690.712 -1.57858 -0.516725 0
M  V30 7585 O 691.897 -1.85717 -0.437475 0
M  V30 7586 C 689.037 -3.43466 -0.335399 0
M  V30 7587 C 688.15 -4.27425 0.627017 0
M  V30 7588 C 687.285 -5.31016 -0.139916 0
M  V30 7589 C 686.324 -6.06641 0.815683 0
M  V30 7590 N 685.461 -7.02052 0.0818439 0
M  V30 7591 H 690.301 -2.69913 1.26298 0
M  V30 7592 H 687.838 -1.32732 0.634076 0
M  V30 7593 H 689.796 -4.09744 -0.785226 0
M  V30 7594 H 688.426 -3.01611 -1.15025 0
M  V30 7595 H 687.478 -3.6113 1.19537 0
M  V30 7596 H 688.79 -4.79969 1.35763 0
M  V30 7597 H 687.944 -6.03208 -0.649998 0
M  V30 7598 H 686.683 -4.79257 -0.903543 0
M  V30 7599 H 685.688 -5.33294 1.33708 0
M  V30 7600 H 686.913 -6.60489 1.57897 0
M  V30 7601 H 684.859 -6.52634 -0.663671 0
M  V30 7602 H 684.776 -7.52249 0.752163 0
M  V30 7603 H 686.044 -7.78432 -0.407825 0
M  V30 7604 N 690.273 -0.685099 -1.4193 0
M  V30 7605 C 691.498 -0.218842 -2.06242 0
M  V30 7606 C 691.923 1.11923 -1.51178 0
M  V30 7607 O 691.281 1.69837 -0.634446 0
M  V30 7608 C 691.329 -0.175592 -3.60172 0
M  V30 7609 O 690.433 0.852776 -4.03487 0
M  V30 7610 H 689.774 -0.109531 -0.654904 0
M  V30 7611 H 692.304 -0.937013 -1.81882 0
M  V30 7612 H 692.314 -0.00291151 -4.08 0
M  V30 7613 H 690.989 -1.15222 -3.99621 0
M  V30 7614 H 689.566 0.650301 -3.67186 0
M  V30 7615 N 691.751 1.51645 -0.429126 0
M  V30 7616 C 692.698 2.27542 0.386446 0
M  V30 7617 C 693.668 1.30786 1.02393 0
M  V30 7618 O 694.853 1.59678 1.0444 0
M  V30 7619 C 691.993 3.11457 1.48623 0
M  V30 7620 C 691.106 4.23196 0.867691 0
M  V30 7621 C 690.241 4.94435 1.94183 0
M  V30 7622 C 689.28 5.98108 1.30129 0
M  V30 7623 N 688.417 6.62786 2.31644 0
M  V30 7624 H 693.257 2.968 -0.267155 0
M  V30 7625 H 690.794 1.46397 -0.143591 0
M  V30 7626 H 692.752 3.58429 2.13506 0
M  V30 7627 H 691.382 2.44329 2.10957 0
M  V30 7628 H 690.434 3.80248 0.107373 0
M  V30 7629 H 691.746 4.97499 0.35997 0
M  V30 7630 H 690.9 5.44914 2.66747 0
M  V30 7631 H 689.639 4.19744 2.48326 0
M  V30 7632 H 688.644 5.4693 0.561082 0
M  V30 7633 H 689.869 6.74751 0.767303 0
M  V30 7634 H 687.815 5.90913 2.84883 0
M  V30 7635 H 687.732 7.32828 1.85741 0
M  V30 7636 H 689 7.17897 3.03717 0
M  V30 7637 N 693.229 0.160201 1.56784 0
M  V30 7638 C 694.454 -0.497373 2.01348 0
M  V30 7639 C 694.879 -1.56757 1.03966 0
M  V30 7640 O 694.237 -1.81292 0.0174455 0
M  V30 7641 C 694.285 -1.0628 3.44582 0
M  V30 7642 O 693.389 -2.17723 3.50244 0
M  V30 7643 H 692.73 -0.120295 0.653012 0
M  V30 7644 H 695.26 0.260821 2.02931 0
M  V30 7645 H 695.27 -1.38819 3.83658 0
M  V30 7646 H 693.945 -0.279166 4.14962 0
M  V30 7647 H 692.522 -1.86313 3.2302 0
M  V30 7648 N 694.707 -1.5719 -0.113559 0
M  V30 7649 C 695.654 -2.00736 -1.13901 0
M  V30 7650 C 696.624 -0.88044 -1.40846 0
M  V30 7651 O 697.809 -1.14507 -1.5262 0
M  V30 7652 C 694.949 -2.42132 -2.45899 0
M  V30 7653 C 694.062 -3.68264 -2.25844 0
M  V30 7654 C 693.197 -3.98617 -3.5111 0
M  V30 7655 C 692.236 -5.17915 -3.26236 0
M  V30 7656 N 691.373 -5.44111 -4.4372 0
M  V30 7657 H 696.213 -2.88128 -0.760677 0
M  V30 7658 H 693.75 -1.42523 -0.364099 0
M  V30 7659 H 695.708 -2.6417 -3.22908 0
M  V30 7660 H 694.338 -1.57775 -2.81615 0
M  V30 7661 H 693.39 -3.53809 -1.39726 0
M  V30 7662 H 694.702 -4.55425 -2.03444 0
M  V30 7663 H 693.856 -4.21333 -4.36536 0
M  V30 7664 H 692.595 -3.09942 -3.76546 0
M  V30 7665 H 691.6 -4.95038 -2.39202 0
M  V30 7666 H 692.825 -6.08172 -3.02165 0
M  V30 7667 H 690.771 -4.58394 -4.69266 0
M  V30 7668 H 690.688 -6.25606 -4.24444 0
M  V30 7669 H 691.956 -5.71351 -5.30263 0
M  V30 7670 N 696.185 0.383891 -1.52853 0
M  V30 7671 C 697.095 1.49343 -1.80925 0
M  V30 7672 C 698.111 1.59458 -0.696348 0
M  V30 7673 O 699.287 1.75698 -0.984481 0
M  V30 7674 C 696.352 2.84819 -1.97684 0
M  V30 7675 C 695.413 2.84382 -3.21598 0
M  V30 7676 C 694.646 4.13397 -3.37548 0
M  V30 7677 O 694.869 5.08619 -2.58192 0
M  V30 7678 O 693.803 4.20325 -4.30826 0
M  V30 7679 H 697.629 1.2855 -2.75152 0
M  V30 7680 H 695.214 0.572229 -1.38007 0
M  V30 7681 H 697.096 3.65125 -2.10385 0
M  V30 7682 H 695.771 3.05627 -1.06647 0
M  V30 7683 H 694.678 2.0284 -3.14336 0
M  V30 7684 H 696.011 2.68526 -4.12498 0
M  V30 7685 N 697.663 1.43903 0.642637 0
M  V30 7686 C 699.079 1.27536 0.959519 0
M  V30 7687 C 699.279 0.202751 2.00477 0
M  V30 7688 O 698.335 -0.415256 2.49062 0
M  V30 7689 C 699.648 2.6432 1.43372 0
M  V30 7690 C 701.196 2.71937 1.54981 0
M  V30 7691 C 701.671 4.09164 2.05789 0
M  V30 7692 N 703.162 4.11282 2.13076 0
M  V30 7693 C 703.897 5.14303 2.53534 0
M  V30 7694 N 703.393 6.27693 2.93212 0
M  V30 7695 N 705.186 5.01657 2.53567 0
M  V30 7696 H 697.337 2.12344 -0.0488376 0
M  V30 7697 H 699.6 0.947124 0.0407559 0
M  V30 7698 H 699.306 3.43826 0.740048 0
M  V30 7699 H 699.18 2.90432 2.40685 0
M  V30 7700 H 701.567 1.92757 2.23448 0
M  V30 7701 H 701.648 2.49578 0.560739 0
M  V30 7702 H 701.292 4.88815 1.37921 0
M  V30 7703 H 701.222 4.28893 3.05546 0
M  V30 7704 H 703.713 3.2944 1.85143 0
M  V30 7705 H 704.026 7.02125 3.22863 0
M  V30 7706 H 702.371 6.31149 2.90991 0
M  V30 7707 H 705.562 4.12134 2.21952 0
M  V30 7708 H 705.735 5.82072 2.84774 0
M  V30 7709 N 699.141 -0.881989 1.30609 0
M  V30 7710 C 700.418 -1.61563 1.10258 0
M  V30 7711 C 700.798 -2.08228 -0.347053 0
M  V30 7712 O 700.146 -1.85151 -1.33908 0
M  V30 7713 C 700.356 -2.78287 2.10612 0
M  V30 7714 C 701.704 -3.48545 2.4249 0
M  V30 7715 O 702.728 -2.88479 2.08945 0
M  V30 7716 O 701.587 -4.56873 2.99883 0
M  V30 7717 H 698.681 -0.710238 0.423663 0
M  V30 7718 H 701.227 -0.928503 1.42045 0
M  V30 7719 H 699.999 -2.41131 3.08174 0
M  V30 7720 H 699.622 -3.54695 1.79659 0
M  V30 7721 N 700.619 -1.13374 -1.09472 0
M  V30 7722 C 701.844 -0.918711 -1.85942 0
M  V30 7723 C 702.269 0.527225 -1.8056 0
M  V30 7724 O 701.627 1.37408 -1.18274 0
M  V30 7725 C 701.675 -1.41056 -3.31867 0
M  V30 7726 O 700.779 -0.595496 -4.08078 0
M  V30 7727 H 700.12 -0.329297 -0.576593 0
M  V30 7728 H 702.65 -1.50829 -1.38245 0
M  V30 7729 H 702.66 -1.41398 -3.82715 0
M  V30 7730 H 701.335 -2.46335 -3.35099 0
M  V30 7731 H 699.912 -0.659911 -3.67014 0
M  V30 7732 N 702.098 1.27442 -0.927168 0
M  V30 7733 C 703.045 2.26863 -0.424459 0
M  V30 7734 C 704.015 1.5813 0.508346 0
M  V30 7735 O 705.2 1.85946 0.42762 0
M  V30 7736 C 702.34 3.43639 0.31718 0
M  V30 7737 C 701.453 4.27087 -0.649675 0
M  V30 7738 C 700.588 5.31082 0.111753 0
M  V30 7739 C 699.627 6.062 -0.847843 0
M  V30 7740 N 698.764 7.01999 -0.119074 0
M  V30 7741 H 703.604 2.69239 -1.27728 0
M  V30 7742 H 701.141 1.32394 -0.641106 0
M  V30 7743 H 703.099 4.10155 0.763486 0
M  V30 7744 H 701.729 3.02217 1.13424 0
M  V30 7745 H 700.781 3.60491 -1.21451 0
M  V30 7746 H 702.093 4.79242 -1.38307 0
M  V30 7747 H 701.247 6.03544 0.618 0
M  V30 7748 H 699.986 4.7973 0.878114 0
M  V30 7749 H 698.991 5.32577 -1.36534 0
M  V30 7750 H 700.216 6.59642 -1.61398 0
M  V30 7751 H 698.162 6.52977 0.629051 0
M  V30 7752 H 698.079 7.5184 -0.792046 0
M  V30 7753 H 699.347 7.78638 0.366537 0
M  V30 7754 N 703.576 0.692616 1.41565 0
M  V30 7755 C 704.526 0.00231847 2.28 0
M  V30 7756 C 705.51 -0.755793 1.42044 0
M  V30 7757 O 706.702 -0.631772 1.65341 0
M  V30 7758 C 703.831 -0.935468 3.30309 0
M  V30 7759 C 702.917 -0.173761 4.23744 0
M  V30 7760 N 703.308 0.830872 4.98929 0
M  V30 7761 C 701.606 -0.409666 4.44115 0
M  V30 7762 C 702.307 1.28656 5.67294 0
M  V30 7763 N 701.283 0.613053 5.40132 0
M  V30 7764 H 705.085 0.772635 2.83562 0
M  V30 7765 H 702.599 0.523198 1.53741 0
M  V30 7766 H 704.596 -1.44513 3.91052 0
M  V30 7767 H 703.256 -1.70542 2.76307 0
M  V30 7768 H 704.267 1.21101 5.03542 0
M  V30 7769 H 700.944 -1.15773 4.01127 0
M  V30 7770 H 702.334 2.12006 6.37576 0
M  V30 7771 N 705.054 -1.51416 0.437162 0
M  V30 7772 C 706.002 -2.29328 -0.388765 0
M  V30 7773 C 706.996 -1.35171 -1.02104 0
M  V30 7774 O 708.202 -1.52513 -0.956024 0
M  V30 7775 H 704.577 -0.738048 -0.144183 0
M  V30 7776 H 706.548 -2.96995 0.289212 0
M  V30 7777 C 705.297 -3.14741 -1.47761 0
M  V30 7778 H 704.62 -3.8708 -1.00045 0
M  V30 7779 H 706.06 -3.72313 -2.02877 0
M  V30 7780 C 704.519 -2.30105 -2.46076 0
M  V30 7781 O 705.049 -1.96055 -3.50607 0
M  V30 7782 N 703.255 -1.93331 -2.1696 0
M  V30 7783 H 702.802 -2.2122 -1.31983 0
M  V30 7784 H 702.76 -1.36999 -2.82982 0
M  V30 7785 N 706.532 -0.168513 -1.56696 0
M  V30 7786 C 707.948 0.187686 -1.58493 0
M  V30 7787 C 708.148 1.63063 -1.18375 0
M  V30 7788 O 707.204 2.36142 -0.894042 0
M  V30 7789 C 708.517 -0.0905858 -3.00564 0
M  V30 7790 C 710.065 -0.028575 -3.12987 0
M  V30 7791 C 710.54 -0.279799 -4.57145 0
M  V30 7792 N 712.031 -0.227476 -4.62641 0
M  V30 7793 C 712.766 -0.396073 -5.7203 0
M  V30 7794 N 712.262 -0.623572 -6.89988 0
M  V30 7795 N 714.055 -0.332173 -5.61118 0
M  V30 7796 H 706.206 -1.11042 -1.81062 0
M  V30 7797 H 708.469 -0.441235 -0.839056 0
M  V30 7798 H 708.175 -1.09006 -3.34381 0
M  V30 7799 H 708.049 0.619078 -3.72085 0
M  V30 7800 H 710.436 0.961471 -2.78998 0
M  V30 7801 H 710.517 -0.770905 -2.43907 0
M  V30 7802 H 710.161 -1.26704 -4.91842 0
M  V30 7803 H 710.091 0.48311 -5.24379 0
M  V30 7804 H 712.582 -0.0571723 -3.77857 0
M  V30 7805 H 712.895 -0.741745 -7.69232 0
M  V30 7806 H 711.24 -0.660153 -6.91858 0
M  V30 7807 H 714.431 -0.155051 -4.67843 0
M  V30 7808 H 714.604 -0.466994 -6.46315 0
M  V30 7809 N 708.01 1.57248 0.105221 0
M  V30 7810 C 708.958 2.02337 1.14728 0
M  V30 7811 C 709.952 0.922652 1.42069 0
M  V30 7812 O 711.158 1.10785 1.41869 0
M  V30 7813 H 707.533 0.644682 0.387155 0
M  V30 7814 H 709.504 2.89063 0.740607 0
M  V30 7815 C 708.253 2.45513 2.46209 0
M  V30 7816 H 707.576 3.29785 2.26013 0
M  V30 7817 H 709.016 2.80846 3.1765 0
M  V30 7818 C 707.475 1.3243 3.09781 0
M  V30 7819 O 708.005 0.647841 3.96442 0
M  V30 7820 N 706.211 1.07785 2.69872 0
M  V30 7821 H 705.758 1.62973 1.99493 0
M  V30 7822 H 705.716 0.323204 3.12734 0
M  V30 7823 N 709.488 -0.375779 1.53054 0
M  V30 7824 C 710.398 -1.48381 1.81715 0
M  V30 7825 C 711.414 -1.59087 0.704795 0
M  V30 7826 O 712.59 -1.75174 0.993785 0
M  V30 7827 C 709.655 -2.83767 1.99192 0
M  V30 7828 C 708.716 -2.82673 3.23102 0
M  V30 7829 C 707.949 -4.11601 3.39736 0
M  V30 7830 O 708.172 -5.07243 2.60885 0
M  V30 7831 O 707.106 -4.18034 4.33049 0
M  V30 7832 H 710.932 -1.27089 2.7583 0
M  V30 7833 H 708.517 -0.564902 1.38308 0
M  V30 7834 H 710.399 -3.64004 2.12318 0
M  V30 7835 H 709.074 -3.05057 1.08267 0
M  V30 7836 H 707.981 -2.0117 3.15407 0
M  V30 7837 H 709.314 -2.66335 4.13916 0
M  V30 7838 N 710.966 -1.44241 -0.634997 0
M  V30 7839 C 711.876 -1.53293 -1.77591 0
M  V30 7840 C 712.892 -0.418831 -1.68884 0
M  V30 7841 O 714.068 -0.675619 -1.8973 0
M  V30 7842 C 711.133 -1.47075 -3.13958 0
M  V30 7843 C 710.194 -2.69304 -3.34326 0
M  V30 7844 C 709.427 -2.63374 -4.64187 0
M  V30 7845 O 709.65 -1.69161 -5.44739 0
M  V30 7846 O 708.584 -3.54166 -4.86673 0
M  V30 7847 H 712.41 -2.49673 -1.72908 0
M  V30 7848 H 709.995 -1.26445 -0.795745 0
M  V30 7849 H 711.877 -1.46117 -3.95257 0
M  V30 7850 H 710.552 -0.538373 -3.19192 0
M  V30 7851 H 709.459 -2.75831 -2.52721 0
M  V30 7852 H 710.792 -3.61576 -3.33951 0
M  V30 7853 N 712.444 0.87505 -1.31075 0
M  V30 7854 C 713.391 1.98178 -1.18296 0
M  V30 7855 C 714.361 1.65952 -0.0699923 0
M  V30 7856 O 715.546 1.8926 -0.241951 0
M  V30 7857 C 712.686 3.33399 -0.891024 0
M  V30 7858 C 711.799 3.78253 -2.08684 0
M  V30 7859 C 710.934 5.02166 -1.73212 0
M  V30 7860 C 709.973 5.39455 -2.89231 0
M  V30 7861 N 709.11 6.54549 -2.53989 0
M  V30 7862 H 713.95 2.0844 -2.12971 0
M  V30 7863 H 711.487 1.02047 -1.05948 0
M  V30 7864 H 713.445 4.11246 -0.702338 0
M  V30 7865 H 712.075 3.22794 0.0188799 0
M  V30 7866 H 711.127 2.9623 -2.38646 0
M  V30 7867 H 712.439 4.01821 -2.95536 0
M  V30 7868 H 711.593 5.87666 -1.50777 0
M  V30 7869 H 710.332 4.80491 -0.83544 0
M  V30 7870 H 709.337 4.52477 -3.12321 0
M  V30 7871 H 710.562 5.63098 -3.79601 0
M  V30 7872 H 708.508 6.3443 -1.66838 0
M  V30 7873 H 708.425 6.78035 -3.34372 0
M  V30 7874 H 709.693 7.43254 -2.34934 0
M  V30 7875 N 713.922 1.13953 1.08869 0
M  V30 7876 C 715.338 0.878924 1.33218 0
M  V30 7877 C 715.538 -0.482478 1.95638 0
M  V30 7878 O 714.594 -1.22778 2.2064 0
M  V30 7879 C 715.907 2.00798 2.23832 0
M  V30 7880 C 717.455 2.04073 2.37325 0
M  V30 7881 C 717.93 3.16258 3.31278 0
M  V30 7882 N 719.421 3.15805 3.38853 0
M  V30 7883 C 720.156 3.99249 4.11567 0
M  V30 7884 N 719.652 4.92721 4.87029 0
M  V30 7885 N 721.445 3.87327 4.0735 0
M  V30 7886 H 713.596 2.01645 0.66731 0
M  V30 7887 H 715.859 0.878395 0.356547 0
M  V30 7888 H 715.565 2.98986 1.85203 0
M  V30 7889 H 715.439 1.92704 3.24261 0
M  V30 7890 H 717.826 1.06495 2.75214 0
M  V30 7891 H 717.907 2.16239 1.36654 0
M  V30 7892 H 717.551 4.14079 2.9411 0
M  V30 7893 H 717.481 3.0133 4.31866 0
M  V30 7894 H 719.972 2.48102 2.8505 0
M  V30 7895 H 720.285 5.52867 5.39961 0
M  V30 7896 H 718.63 4.96723 4.86098 0
M  V30 7897 H 721.821 3.13627 3.475 0
M  V30 7898 H 721.994 4.52585 4.63757 0
M  V30 7899 N 715.4 -1.26948 0.933913 0
M  V30 7900 C 716.333 -2.24977 0.382169 0
M  V30 7901 C 717.311 -1.53893 -0.524949 0
M  V30 7902 O 718.495 -1.82699 -0.464048 0
M  V30 7903 C 715.622 -3.35676 -0.451615 0
M  V30 7904 C 714.668 -4.24686 0.392947 0
M  V30 7905 S 715.501 -5.03898 1.81237 0
M  V30 7906 C 716.657 -6.18078 0.986443 0
M  V30 7907 H 716.89 -2.71429 1.21299 0
M  V30 7908 H 714.423 -1.35701 0.736523 0
M  V30 7909 H 716.381 -3.99901 -0.926797 0
M  V30 7910 H 715.042 -2.8785 -1.25703 0
M  V30 7911 H 714.235 -5.03402 -0.245533 0
M  V30 7912 H 713.837 -3.65288 0.802537 0
M  V30 7913 H 716.129 -6.77125 0.225321 0
M  V30 7914 H 717.072 -6.86216 1.74682 0
M  V30 7915 H 717.48 -5.62047 0.525711 0
M  V30 7916 N 716.879 -0.700114 -1.41195 0
M  V30 7917 C 718.295 -0.372114 -1.55201 0
M  V30 7918 C 718.495 1.12053 -1.6747 0
M  V30 7919 O 717.551 1.90642 -1.65566 0
M  V30 7920 C 718.864 -1.12462 -2.78878 0
M  V30 7921 C 720.412 -1.10941 -2.92679 0
M  V30 7922 C 720.887 -1.84376 -4.19249 0
M  V30 7923 N 722.378 -1.81368 -4.26216 0
M  V30 7924 C 723.113 -2.35024 -5.23021 0
M  V30 7925 N 722.609 -2.9717 -6.25829 0
M  V30 7926 N 724.402 -2.25254 -5.14992 0
M  V30 7927 H 716.553 -1.66816 -1.31477 0
M  V30 7928 H 718.816 -0.704223 -0.634644 0
M  V30 7929 H 718.522 -2.17937 -2.76037 0
M  V30 7930 H 718.396 -0.706152 -3.70531 0
M  V30 7931 H 720.783 -0.062911 -2.95033 0
M  V30 7932 H 720.864 -1.56698 -2.02187 0
M  V30 7933 H 720.508 -2.89008 -4.17656 0
M  V30 7934 H 720.438 -1.3605 -5.08722 0
M  V30 7935 H 722.929 -1.36062 -3.52556 0
M  V30 7936 H 723.242 -3.35668 -6.96094 0
M  V30 7937 H 721.587 -3.01249 -6.26318 0
M  V30 7938 H 724.778 -1.76372 -4.33602 0
M  V30 7939 H 724.951 -2.67373 -5.90268 0
M  V30 7940 N 718.357 1.51182 -0.445186 0
M  V30 7941 C 719.582 2.07056 0.119445 0
M  V30 7942 C 720.007 1.30966 1.35016 0
M  V30 7943 O 719.365 0.349827 1.77893 0
M  V30 7944 C 719.413 3.58234 0.412428 0
M  V30 7945 O 718.517 3.84249 1.49754 0
M  V30 7946 H 717.858 0.663998 -0.00157797 0
M  V30 7947 H 720.388 1.94699 -0.628779 0
M  V30 7948 H 720.398 4.02617 0.660583 0
M  V30 7949 H 719.073 4.13038 -0.487049 0
M  V30 7950 H 717.65 3.51724 1.23873 0
M  V30 7951 N 719.835 0.176821 1.56605 0
M  V30 7952 C 721.251 -0.179278 1.5859 0
M  V30 7953 C 721.451 -1.62433 1.19238 0
M  V30 7954 O 720.507 -2.35665 0.906552 0
M  V30 7955 C 721.82 0.106524 3.00511 0
M  V30 7956 C 723.368 0.0451731 3.12967 0
M  V30 7957 C 723.843 0.304038 4.5699 0
M  V30 7958 N 725.334 0.252008 4.62514 0
M  V30 7959 C 726.069 0.426404 5.71812 0
M  V30 7960 N 725.565 0.660155 6.89648 0
M  V30 7961 N 727.358 0.361926 5.60934 0
M  V30 7962 H 719.509 1.12001 1.8047 0
M  V30 7963 H 721.772 0.445679 0.836704 0
M  V30 7964 H 721.478 1.10778 3.33798 0
M  V30 7965 H 721.352 -0.599337 3.72408 0
M  V30 7966 H 723.739 -0.946662 2.79504 0
M  V30 7967 H 723.82 0.78383 2.43495 0
M  V30 7968 H 723.464 1.29311 4.91163 0
M  V30 7969 H 723.394 -0.455294 5.24628 0
M  V30 7970 H 725.885 0.0772102 3.77821 0
M  V30 7971 H 726.198 0.782529 7.68828 0
M  V30 7972 H 724.543 0.696835 6.91498 0
M  V30 7973 H 727.734 0.17986 4.67754 0
M  V30 7974 H 727.907 0.501263 6.46058 0
M  V30 7975 N 721.313 -1.57302 -0.09688 0
M  V30 7976 C 722.538 -1.9058 -0.818169 0
M  V30 7977 C 722.963 -0.770921 -1.71576 0
M  V30 7978 O 722.321 0.277588 -1.79162 0
M  V30 7979 C 722.369 -3.22714 -1.60898 0
M  V30 7980 O 721.473 -3.10178 -2.71779 0
M  V30 7981 H 720.814 -0.624759 -0.224882 0
M  V30 7982 H 723.344 -2.04471 -0.07264 0
M  V30 7983 H 723.354 -3.55978 -1.99358 0
M  V30 7984 H 722.029 -4.04899 -0.950227 0
M  V30 7985 H 720.606 -2.88424 -2.3636 0
M  V30 7986 N 722.791 0.367657 -1.53252 0
M  V30 7987 C 723.738 1.45028 -1.79543 0
M  V30 7988 C 724.708 1.53288 -0.63969 0
M  V30 7989 O 725.893 1.69209 -0.881653 0
M  V30 7990 C 723.033 2.82 -1.98923 0
M  V30 7991 C 722.146 2.82722 -3.26638 0
M  V30 7992 C 721.281 4.11257 -3.36216 0
M  V30 7993 C 720.32 4.06113 -4.57972 0
M  V30 7994 N 719.457 5.26293 -4.64715 0
M  V30 7995 H 724.297 1.21908 -2.71923 0
M  V30 7996 H 721.834 0.591011 -1.34705 0
M  V30 7997 H 723.792 3.61568 -2.08146 0
M  V30 7998 H 722.422 3.03523 -1.09881 0
M  V30 7999 H 721.474 1.95399 -3.26379 0
M  V30 8000 H 722.786 2.74794 -4.16281 0
M  V30 8001 H 721.94 4.99239 -3.44739 0
M  V30 8002 H 720.679 4.21935 -2.44586 0
M  V30 8003 H 719.684 3.16517 -4.49552 0
M  V30 8004 H 720.909 3.97039 -5.50942 0
M  V30 8005 H 718.855 5.37561 -3.75985 0
M  V30 8006 H 718.772 5.20526 -5.4826 0
M  V30 8007 H 720.04 6.16113 -4.77519 0
M  V30 8008 N 724.269 1.44576 0.627338 0
M  V30 8009 C 725.517 1.47267 1.38408 0
M  V30 8010 C 725.838 0.107971 1.94701 0
M  V30 8011 O 725.108 -0.860206 1.76004 0
M  V30 8012 H 723.688 0.542276 0.513756 0
M  V30 8013 H 726.35 1.80383 0.738099 0
M  V30 8014 H 725.446 2.20025 2.21349 0
M  V30 8015 N 725.747 -0.868086 1.31537 0
M  V30 8016 C 727.163 -1.15414 1.10235 0
M  V30 8017 C 727.363 -2.01106 -0.125947 0
M  V30 8018 O 726.419 -2.38994 -0.814734 0
M  V30 8019 C 727.732 -1.84445 2.37488 0
M  V30 8020 C 729.28 -1.97139 2.43116 0
M  V30 8021 C 729.755 -2.69585 3.70254 0
M  V30 8022 N 731.246 -2.77119 3.71159 0
M  V30 8023 C 731.981 -3.33791 4.6623 0
M  V30 8024 N 731.477 -3.9138 5.71659 0
M  V30 8025 N 733.27 -3.31767 4.53747 0
M  V30 8026 H 725.421 -0.297109 2.10312 0
M  V30 8027 H 727.684 -0.194227 0.92789 0
M  V30 8028 H 727.39 -1.2893 3.27215 0
M  V30 8029 H 727.264 -2.84709 2.47428 0
M  V30 8030 H 729.651 -2.51818 1.53856 0
M  V30 8031 H 729.732 -0.95912 2.37138 0
M  V30 8032 H 729.376 -2.15572 4.59881 0
M  V30 8033 H 729.306 -3.71223 3.73499 0
M  V30 8034 H 731.797 -2.3625 2.94948 0
M  V30 8035 H 732.11 -4.3274 6.40278 0
M  V30 8036 H 730.455 -3.8975 5.7543 0
M  V30 8037 H 733.646 -2.86016 3.70557 0
M  V30 8038 H 733.819 -3.75636 5.28017 0
M  V30 8039 N 727.225 -1.14528 -1.08264 0
M  V30 8040 C 728.502 -0.825185 -1.77342 0
M  V30 8041 C 728.882 0.681037 -1.99813 0
M  V30 8042 O 728.23 1.62234 -1.60912 0
M  V30 8043 C 728.44 -1.62556 -3.08831 0
M  V30 8044 C 729.788 -1.82585 -3.83338 0
M  V30 8045 O 730.812 -1.59254 -3.18617 0
M  V30 8046 O 729.671 -2.21598 -4.99556 0
M  V30 8047 H 726.765 -0.302531 -0.769678 0
M  V30 8048 H 729.311 -1.25056 -1.14713 0
M  V30 8049 H 728.083 -2.64862 -2.88035 0
M  V30 8050 H 727.706 -1.1959 -3.79189 0
M  V30 8051 N 728.703 1.26451 -0.940633 0
M  V30 8052 C 729.653 2.24086 -0.420669 0
M  V30 8053 C 730.637 1.53501 0.482301 0
M  V30 8054 O 731.829 1.74127 0.317636 0
M  V30 8055 C 728.958 3.41866 0.313452 0
M  V30 8056 C 728.044 4.19737 -0.606779 0
M  V30 8057 N 728.435 4.7521 -1.73232 0
M  V30 8058 C 726.733 4.44091 -0.41226 0
M  V30 8059 C 727.434 5.34052 -2.30572 0
M  V30 8060 N 726.41 5.1971 -1.59381 0
M  V30 8061 H 730.212 2.64569 -1.27986 0
M  V30 8062 H 727.726 1.4153 -0.796436 0
M  V30 8063 H 729.723 4.1093 0.702991 0
M  V30 8064 H 728.383 3.0291 1.16942 0
M  V30 8065 H 729.394 4.72769 -2.11447 0
M  V30 8066 H 726.071 4.1556 0.401984 0
M  V30 8067 H 727.461 5.87845 -3.25404 0
M  V30 8068 N 730.181 0.707592 1.40822 0
M  V30 8069 C 731.091 0.0507246 2.34545 0
M  V30 8070 C 732.107 -0.752727 1.56876 0
M  V30 8071 O 733.283 -0.687524 1.89302 0
M  V30 8072 C 730.348 -0.865731 3.35717 0
M  V30 8073 C 729.409 -0.0531313 4.29267 0
M  V30 8074 C 728.642 -0.925939 5.25606 0
M  V30 8075 O 728.865 -2.16531 5.27703 0
M  V30 8076 O 727.799 -0.369194 6.00767 0
M  V30 8077 H 731.625 0.823587 2.9232 0
M  V30 8078 H 729.21 0.46801 1.4188 0
M  V30 8079 H 731.092 -1.39091 3.97783 0
M  V30 8080 H 729.767 -1.61788 2.80368 0
M  V30 8081 H 728.674 0.516931 3.70511 0
M  V30 8082 H 730.007 0.660617 4.87747 0
M  V30 8083 N 731.66 -1.50943 0.453197 0
M  V30 8084 C 732.608 -2.29728 -0.364419 0
M  V30 8085 C 733.602 -1.36246 -1.00664 0
M  V30 8086 O 734.808 -1.53518 -0.939794 0
M  V30 8087 H 731.183 -0.739536 -0.136347 0
M  V30 8088 H 733.154 -2.96672 0.320696 0
M  V30 8089 C 731.903 -3.1629 -1.44415 0
M  V30 8090 H 731.226 -3.88119 -0.959343 0
M  V30 8091 H 732.666 -3.74444 -1.98917 0
M  V30 8092 C 731.125 -2.32702 -2.43622 0
M  V30 8093 O 731.655 -1.99763 -3.48508 0
M  V30 8094 N 729.861 -1.95621 -2.14897 0
M  V30 8095 H 729.408 -2.22607 -1.29629 0
M  V30 8096 H 729.366 -1.39993 -2.81513 0
M  V30 8097 N 733.138 -0.185124 -1.56509 0
M  V30 8098 C 734.384 0.456934 -1.97585 0
M  V30 8099 C 734.717 1.61957 -1.07161 0
M  V30 8100 O 733.992 1.9412 -0.121546 0
M  V30 8101 C 734.275 0.926666 -3.47973 0
M  V30 8102 C 734.128 -0.237097 -4.49175 0
M  V30 8103 C 735.447 1.79561 -4.01803 0
M  V30 8104 H 732.566 0.164619 -0.71838 0
M  V30 8105 H 735.208 -0.274039 -1.88013 0
M  V30 8106 H 733.358 1.54954 -3.56261 0
M  V30 8107 H 735.03 -0.87454 -4.52934 0
M  V30 8108 H 733.273 -0.890446 -4.24563 0
M  V30 8109 H 733.944 0.133924 -5.51838 0
M  V30 8110 H 736.42 1.27039 -3.96232 0
M  V30 8111 H 735.296 2.09327 -5.07418 0
M  V30 8112 H 735.557 2.74629 -3.46455 0
M  V30 8113 N 734.616 1.57351 0.0885366 0
M  V30 8114 C 735.563 2.02523 1.10693 0
M  V30 8115 C 736.533 0.902736 1.39427 0
M  V30 8116 O 737.718 1.16921 1.50779 0
M  V30 8117 C 734.858 2.46013 2.42016 0
M  V30 8118 C 733.971 3.7181 2.19957 0
M  V30 8119 C 733.106 4.04152 3.44724 0
M  V30 8120 C 732.145 5.2304 3.17956 0
M  V30 8121 N 731.282 5.51102 4.35007 0
M  V30 8122 H 736.122 2.89302 0.714742 0
M  V30 8123 H 733.659 1.43084 0.341378 0
M  V30 8124 H 735.617 2.69274 3.18665 0
M  V30 8125 H 734.247 1.62235 2.79069 0
M  V30 8126 H 733.299 3.55987 1.34079 0
M  V30 8127 H 734.611 4.58604 1.96173 0
M  V30 8128 H 733.765 4.28225 4.29777 0
M  V30 8129 H 732.504 3.15893 3.71568 0
M  V30 8130 H 731.509 4.98781 2.31296 0
M  V30 8131 H 732.734 6.12902 2.92451 0
M  V30 8132 H 730.68 4.65802 4.61914 0
M  V30 8133 H 730.597 6.3228 4.14437 0
M  V30 8134 H 731.865 5.79714 5.21106 0
M  V30 8135 N 736.094 -0.359525 1.53444 0
M  V30 8136 C 737.004 -1.46445 1.83278 0
M  V30 8137 C 738.02 -1.5833 0.721629 0
M  V30 8138 O 739.196 -1.7411 1.01231 0
M  V30 8139 C 736.261 -2.81638 2.02191 0
M  V30 8140 C 735.322 -2.7923 3.26082 0
M  V30 8141 C 734.555 -4.07974 3.44082 0
M  V30 8142 O 734.778 -5.04447 2.66251 0
M  V30 8143 O 733.712 -4.13417 4.37458 0
M  V30 8144 H 737.538 -1.24156 2.77162 0
M  V30 8145 H 735.123 -0.550201 1.389 0
M  V30 8146 H 737.005 -3.61732 2.16167 0
M  V30 8147 H 735.68 -3.03892 1.11496 0
M  V30 8148 H 734.587 -1.97813 3.17523 0
M  V30 8149 H 735.92 -2.6193 4.16718 0
M  V30 8150 N 737.572 -1.44907 -0.619662 0
M  V30 8151 C 738.519 -1.52654 -1.73105 0
M  V30 8152 C 739.489 -0.373334 -1.6185 0
M  V30 8153 O 740.674 -0.585143 -1.81606 0
M  V30 8154 C 737.814 -1.48769 -3.11387 0
M  V30 8155 C 736.927 -2.74551 -3.33535 0
M  V30 8156 C 736.062 -2.62421 -4.61854 0
M  V30 8157 C 735.101 -3.83312 -4.77219 0
M  V30 8158 N 734.238 -3.69789 -5.96826 0
M  V30 8159 H 739.078 -2.47605 -1.65819 0
M  V30 8160 H 736.615 -1.22875 -0.808719 0
M  V30 8161 H 738.573 -1.44507 -3.91374 0
M  V30 8162 H 737.203 -0.573783 -3.1766 0
M  V30 8163 H 736.255 -2.88953 -2.47408 0
M  V30 8164 H 737.567 -3.64253 -3.40765 0
M  V30 8165 H 736.721 -2.56056 -5.50019 0
M  V30 8166 H 735.46 -1.70298 -4.57001 0
M  V30 8167 H 734.465 -3.90049 -3.87481 0
M  V30 8168 H 735.69 -4.76486 -4.83878 0
M  V30 8169 H 733.636 -2.80426 -5.93041 0
M  V30 8170 H 733.553 -4.53116 -6.05163 0
M  V30 8171 H 734.821 -3.67335 -6.87521 0
M  V30 8172 N 739.05 0.861098 -1.31996 0
M  V30 8173 C 739.96 2.00154 -1.22374 0
M  V30 8174 C 740.976 1.73447 -0.138631 0
M  V30 8175 O 742.152 1.98191 -0.358104 0
M  V30 8176 C 739.217 3.33696 -0.940645 0
M  V30 8177 C 738.278 3.73668 -2.11355 0
M  V30 8178 C 737.511 5.00837 -1.84386 0
M  V30 8179 O 737.734 5.64996 -0.783287 0
M  V30 8180 O 736.668 5.37787 -2.70313 0
M  V30 8181 H 740.494 2.11207 -2.18233 0
M  V30 8182 H 738.079 0.990768 -1.11822 0
M  V30 8183 H 739.961 4.13756 -0.798987 0
M  V30 8184 H 738.636 3.23698 -0.0121636 0
M  V30 8185 H 737.543 2.94211 -2.31065 0
M  V30 8186 H 738.876 3.88303 -3.02459 0
M  V30 8187 N 740.528 1.15101 1.07655 0
M  V30 8188 C 741.475 0.844958 2.14777 0
M  V30 8189 C 742.445 -0.200798 1.64882 0
M  V30 8190 O 743.63 -0.0690278 1.90675 0
M  V30 8191 C 740.77 0.337018 3.4345 0
M  V30 8192 C 739.883 1.44398 4.07153 0
M  V30 8193 C 739.018 0.892487 5.23649 0
M  V30 8194 C 738.057 1.9766 5.79307 0
M  V30 8195 N 737.194 1.44171 6.87138 0
M  V30 8196 H 742.034 1.76242 2.40297 0
M  V30 8197 H 739.571 0.879435 1.17917 0
M  V30 8198 H 741.529 0.024256 4.17193 0
M  V30 8199 H 740.159 -0.543531 3.18191 0
M  V30 8200 H 739.211 1.87299 3.31094 0
M  V30 8201 H 740.523 2.26262 4.4453 0
M  V30 8202 H 739.677 0.532083 6.04362 0
M  V30 8203 H 738.416 0.0429854 4.87681 0
M  V30 8204 H 737.421 2.34586 4.97242 0
M  V30 8205 H 738.646 2.82982 6.17331 0
M  V30 8206 H 736.592 0.614518 6.53115 0
M  V30 8207 H 736.509 2.19665 7.23383 0
M  V30 8208 H 737.777 1.10945 7.71564 0
M  V30 8209 N 742.006 -1.2595 0.947325 0
M  V30 8210 C 742.938 -2.25336 0.41906 0
M  V30 8211 C 743.951 -1.56135 -0.461051 0
M  V30 8212 O 745.14 -1.76438 -0.270505 0
M  V30 8213 C 742.24 -3.36334 -0.416233 0
M  V30 8214 C 741.413 -4.35088 0.449162 0
M  V30 8215 C 740.472 -5.25185 -0.326716 0
M  V30 8216 O 739.498 -5.68548 0.272374 0
M  V30 8217 N 740.7 -5.57388 -1.6217 0
M  V30 8218 H 743.465 -2.71298 1.27348 0
M  V30 8219 H 741.026 -1.39781 0.81688 0
M  V30 8220 H 743.018 -3.93564 -0.942826 0
M  V30 8221 H 741.588 -2.89819 -1.17148 0
M  V30 8222 H 740.808 -3.76841 1.15692 0
M  V30 8223 H 742.096 -4.98056 1.04008 0
M  V30 8224 H 741.494 -5.2405 -2.13046 0
M  V30 8225 H 740.051 -6.17234 -2.0944 0
M  V30 8226 N 743.484 -0.715051 -1.40445 0
M  V30 8227 C 744.709 -0.26254 -2.05732 0
M  V30 8228 C 745.134 1.08691 -1.53519 0
M  V30 8229 O 744.492 1.68453 -0.670328 0
M  V30 8230 C 744.54 -0.25195 -3.59719 0
M  V30 8231 O 743.644 0.766998 -4.05205 0
M  V30 8232 H 742.985 -0.123398 -0.652433 0
M  V30 8233 H 745.515 -0.975382 -1.79854 0
M  V30 8234 H 745.525 -0.0894537 -4.07902 0
M  V30 8235 H 744.2 -1.23672 -3.97087 0
M  V30 8236 H 742.777 0.572269 -3.68483 0
M  V30 8237 N 744.962 1.50701 -0.461195 0
M  V30 8238 C 746.239 1.94958 0.158296 0
M  V30 8239 C 746.619 1.40111 1.57899 0
M  V30 8240 O 745.967 0.597976 2.20537 0
M  V30 8241 C 746.177 3.48821 0.11172 0
M  V30 8242 C 747.525 4.23499 0.30552 0
M  V30 8243 O 748.549 3.557 0.188758 0
M  V30 8244 O 747.408 5.43823 0.540244 0
M  V30 8245 H 744.502 0.818674 0.117054 0
M  V30 8246 H 747.048 1.61508 -0.520888 0
M  V30 8247 H 745.82 3.81263 -0.880577 0
M  V30 8248 H 745.443 3.88781 0.832791 0
M  V30 8249 N 746.441 0.193421 1.56409 0
M  V30 8250 C 747.666 -0.454552 2.02358 0
M  V30 8251 C 748.091 -1.54516 1.07268 0
M  V30 8252 O 747.449 -1.81214 0.0558962 0
M  V30 8253 C 747.497 -0.989469 3.46759 0
M  V30 8254 O 746.601 -2.10244 3.54783 0
M  V30 8255 H 745.942 -0.106417 0.655417 0
M  V30 8256 H 748.472 0.303807 2.02332 0
M  V30 8257 H 748.482 -1.30649 3.86516 0
M  V30 8258 H 747.157 -0.191083 4.15461 0
M  V30 8259 H 745.734 -1.79419 3.26899 0
M  V30 8260 N 747.919 -1.57396 -0.0801906 0
M  V30 8261 C 748.866 -2.03107 -1.09618 0
M  V30 8262 C 749.836 -0.910118 -1.38946 0
M  V30 8263 O 751.021 -1.17719 -1.50156 0
M  V30 8264 C 748.161 -2.47293 -2.40708 0
M  V30 8265 C 747.274 -3.72972 -2.17982 0
M  V30 8266 C 746.409 -4.05975 -3.42576 0
M  V30 8267 C 745.448 -5.24719 -3.15177 0
M  V30 8268 N 744.585 -5.53401 -4.32078 0
M  V30 8269 H 749.425 -2.89677 -0.69939 0
M  V30 8270 H 746.962 -1.43263 -0.333785 0
M  V30 8271 H 748.92 -2.7096 -3.17232 0
M  V30 8272 H 747.55 -1.63713 -2.78205 0
M  V30 8273 H 746.602 -3.56693 -1.32189 0
M  V30 8274 H 747.914 -4.59638 -1.93738 0
M  V30 8275 H 747.068 -4.30498 -4.275 0
M  V30 8276 H 745.807 -3.17859 -3.69887 0
M  V30 8277 H 744.812 -5 -2.28648 0
M  V30 8278 H 746.037 -6.14445 -2.89197 0
M  V30 8279 H 743.983 -4.68245 -4.59437 0
M  V30 8280 H 743.9 -6.34469 -4.11078 0
M  V30 8281 H 745.168 -5.8247 -5.18024 0
M  V30 8282 N 749.397 0.351382 -1.53633 0
M  V30 8283 C 750.645 1.09034 -1.70165 0
M  V30 8284 C 750.966 1.89413 -0.463422 0
M  V30 8285 O 750.236 1.888 0.522624 0
M  V30 8286 H 748.816 0.405522 -0.627344 0
M  V30 8287 H 751.478 0.394554 -1.90865 0
M  V30 8288 H 750.574 1.77215 -2.56907 0
M  V30 8289 N 750.875 1.45233 0.611969 0
M  V30 8290 C 751.822 1.5357 1.72293 0
M  V30 8291 C 752.792 0.381912 1.6165 0
M  V30 8292 O 753.977 0.594765 1.81293 0
M  V30 8293 C 751.117 1.50419 3.10593 0
M  V30 8294 C 750.23 2.76316 3.32074 0
M  V30 8295 C 749.365 2.64866 4.60456 0
M  V30 8296 C 748.404 3.85838 4.7518 0
M  V30 8297 N 747.541 3.72949 5.94856 0
M  V30 8298 H 752.381 2.4848 1.64504 0
M  V30 8299 H 749.918 1.23302 0.802191 0
M  V30 8300 H 751.876 1.4658 3.90602 0
M  V30 8301 H 750.506 0.590621 3.17351 0
M  V30 8302 H 749.558 2.90261 2.45872 0
M  V30 8303 H 750.87 3.66055 3.38829 0
M  V30 8304 H 750.024 2.58969 5.48653 0
M  V30 8305 H 748.763 1.72719 4.56092 0
M  V30 8306 H 747.768 3.92099 3.85407 0
M  V30 8307 H 748.993 4.79045 4.81344 0
M  V30 8308 H 746.939 2.83567 5.91545 0
M  V30 8309 H 746.856 4.56319 6.02751 0
M  V30 8310 H 748.124 3.70976 6.85563 0
M  V30 8311 N 752.353 -0.854086 1.3245 0
M  V30 8312 C 753.63 -1.59188 1.1366 0
M  V30 8313 C 754.01 -2.08917 -0.302807 0
M  V30 8314 O 753.358 -1.8795 -1.29951 0
M  V30 8315 C 753.568 -2.73757 2.16467 0
M  V30 8316 C 754.916 -3.43323 2.49829 0
M  V30 8317 O 755.94 -2.83983 2.15017 0
M  V30 8318 O 754.799 -4.50409 3.09506 0
M  V30 8319 H 751.893 -0.701092 0.438633 0
M  V30 8320 H 754.439 -0.898165 1.43983 0
M  V30 8321 H 753.211 -2.3454 3.1322 0
M  V30 8322 H 752.834 -3.50804 1.87142 0
M  V30 8323 N 753.831 -1.1567 -1.07043 0
M  V30 8324 C 754.763 -0.814095 -2.14255 0
M  V30 8325 C 755.776 0.175293 -1.61854 0
M  V30 8326 O 756.965 -0.0483984 -1.78434 0
M  V30 8327 C 754.065 -0.190082 -3.38367 0
M  V30 8328 C 753.238 -1.21768 -4.20109 0
M  V30 8329 C 752.297 -0.614863 -5.22595 0
M  V30 8330 O 751.323 -1.28167 -5.54583 0
M  V30 8331 N 752.525 0.601955 -5.77371 0
M  V30 8332 H 755.29 -1.73677 -2.44247 0
M  V30 8333 H 752.851 -1.05301 -1.22977 0
M  V30 8334 H 754.843 0.22604 -4.04068 0
M  V30 8335 H 753.413 0.635992 -3.06062 0
M  V30 8336 H 752.633 -1.81025 -3.50177 0
M  V30 8337 H 753.921 -1.9114 -4.71533 0
M  V30 8338 H 753.319 1.162 -5.53637 0
M  V30 8339 H 751.876 0.96039 -6.44686 0
M  V30 8340 N 755.309 1.25446 -0.953992 0
M  V30 8341 C 756.219 2.29632 -0.480264 0
M  V30 8342 C 757.235 1.68025 0.452071 0
M  V30 8343 O 758.411 1.98703 0.328472 0
M  V30 8344 C 755.476 3.45903 0.234974 0
M  V30 8345 C 754.537 4.22953 -0.735495 0
M  V30 8346 C 753.77 5.33672 -0.0542957 0
M  V30 8347 O 753.993 5.58477 1.16018 0
M  V30 8348 O 752.927 5.9734 -0.739509 0
M  V30 8349 H 756.753 2.72242 -1.34602 0
M  V30 8350 H 754.338 1.30883 -0.720419 0
M  V30 8351 H 756.22 4.16552 0.637341 0
M  V30 8352 H 754.895 3.05296 1.07592 0
M  V30 8353 H 753.802 3.54734 -1.18806 0
M  V30 8354 H 755.135 4.67341 -1.54444 0
M  V30 8355 N 756.787 0.722489 1.40064 0
M  V30 8356 C 758.203 0.396758 1.5459 0
M  V30 8357 C 758.403 -1.09375 1.69232 0
M  V30 8358 O 757.459 -1.87984 1.68578 0
M  V30 8359 C 758.772 1.16885 2.77053 0
M  V30 8360 C 760.32 1.15583 2.90877 0
M  V30 8361 C 760.795 1.91023 4.16262 0
M  V30 8362 N 762.286 1.88126 4.23276 0
M  V30 8363 C 763.021 2.43315 5.19216 0
M  V30 8364 N 762.517 3.07089 6.21022 0
M  V30 8365 N 764.31 2.33418 5.11344 0
M  V30 8366 H 756.461 1.68887 1.28806 0
M  V30 8367 H 758.724 0.714231 0.62336 0
M  V30 8368 H 758.43 2.22301 2.72534 0
M  V30 8369 H 758.304 0.765011 3.69361 0
M  V30 8370 H 760.691 0.10984 2.94896 0
M  V30 8371 H 760.772 1.59895 1.99668 0
M  V30 8372 H 760.416 2.95616 4.13006 0
M  V30 8373 H 760.346 1.44126 5.06493 0
M  V30 8374 H 762.837 1.41654 3.50346 0
M  V30 8375 H 763.15 3.467 6.90666 0
M  V30 8376 H 761.495 3.11175 6.21446 0
M  V30 8377 H 764.686 1.83248 4.30741 0
M  V30 8378 H 764.859 2.7673 5.85939 0
M  V30 8379 N 758.265 -1.50454 0.469181 0
M  V30 8380 C 759.49 -2.0722 -0.0864892 0
M  V30 8381 C 759.915 -1.33098 -1.32916 0
M  V30 8382 O 759.273 -0.378084 -1.77314 0
M  V30 8383 C 759.321 -3.58845 -0.355384 0
M  V30 8384 O 758.425 -3.86583 -1.43622 0
M  V30 8385 H 757.766 -0.663889 0.0121414 0
M  V30 8386 H 760.296 -1.93674 0.659674 0
M  V30 8387 H 760.306 -4.03617 -0.596447 0
M  V30 8388 H 758.981 -4.12211 0.552698 0
M  V30 8389 H 757.558 -3.5365 -1.18262 0
M  V30 8390 N 759.743 -0.201713 -1.56304 0
M  V30 8391 C 761.159 0.154025 -1.58855 0
M  V30 8392 C 761.359 1.60516 -1.21807 0
M  V30 8393 O 760.415 2.34193 -0.94393 0
M  V30 8394 C 761.728 -0.154319 -3.00304 0
M  V30 8395 C 763.276 -0.0949578 -3.12856 0
M  V30 8396 C 763.751 -0.376703 -4.56448 0
M  V30 8397 N 765.242 -0.325558 -4.62054 0
M  V30 8398 C 765.977 -0.51732 -5.71062 0
M  V30 8399 N 765.473 -0.769789 -6.8851 0
M  V30 8400 N 767.266 -0.45112 -5.60287 0
M  V30 8401 H 759.417 -1.14858 -1.78666 0
M  V30 8402 H 761.68 -0.458934 -0.829508 0
M  V30 8403 H 761.386 -1.16074 -3.31994 0
M  V30 8404 H 761.26 0.540014 -3.73314 0
M  V30 8405 H 763.647 0.902075 -2.80974 0
M  V30 8406 H 763.728 -0.822468 -2.42217 0
M  V30 8407 H 763.372 -1.37108 -4.89044 0
M  V30 8408 H 763.302 0.371772 -5.25286 0
M  V30 8409 H 765.793 -0.137308 -3.7765 0
M  V30 8410 H 766.106 -0.904744 -7.67486 0
M  V30 8411 H 764.451 -0.806758 -6.90302 0
M  V30 8412 H 767.642 -0.254253 -4.67409 0
M  V30 8413 H 767.815 -0.603982 -6.45179 0
M  V30 8414 N 761.222 1.57436 0.0718424 0
M  V30 8415 C 762.447 1.91858 0.787745 0
M  V30 8416 C 762.872 0.798119 1.70328 0
M  V30 8417 O 762.23 -0.24905 1.79581 0
M  V30 8418 C 762.278 3.25232 1.55744 0
M  V30 8419 O 761.382 3.14462 2.6681 0
M  V30 8420 H 760.723 0.628258 0.214914 0
M  V30 8421 H 763.253 2.04561 0.0401012 0
M  V30 8422 H 763.263 3.59105 1.9367 0
M  V30 8423 H 761.938 4.0636 0.885691 0
M  V30 8424 H 760.515 2.92148 2.31741 0
M  V30 8425 N 762.7 -0.34323 1.53817 0
M  V30 8426 C 763.647 -1.42153 1.81827 0
M  V30 8427 C 764.617 -1.52251 0.663996 0
M  V30 8428 O 765.802 -1.67784 0.908461 0
M  V30 8429 C 762.942 -2.78799 2.03384 0
M  V30 8430 C 762.055 -2.7749 3.31094 0
M  V30 8431 C 761.19 -4.05856 3.42717 0
M  V30 8432 C 760.229 -3.98776 4.64375 0
M  V30 8433 N 759.366 -5.18833 4.73029 0
M  V30 8434 H 764.206 -1.17567 2.73829 0
M  V30 8435 H 761.743 -0.569506 1.35628 0
M  V30 8436 H 763.701 -3.58211 2.13872 0
M  V30 8437 H 762.331 -3.01736 1.14696 0
M  V30 8438 H 761.383 -1.90182 3.29446 0
M  V30 8439 H 762.695 -2.68137 4.206 0
M  V30 8440 H 761.849 -4.93691 3.52638 0
M  V30 8441 H 760.588 -4.1799 2.51267 0
M  V30 8442 H 759.593 -3.09325 4.5453 0
M  V30 8443 H 760.818 -3.88224 5.57189 0
M  V30 8444 H 758.764 -5.31511 3.84489 0
M  V30 8445 H 758.681 -5.11737 5.56472 0
M  V30 8446 H 759.949 -6.08439 4.87261 0
M  V30 8447 N 764.178 -1.45556 -0.604258 0
M  V30 8448 C 765.088 -1.57025 -1.74299 0
M  V30 8449 C 766.104 -0.45456 -1.67958 0
M  V30 8450 O 767.28 -0.715711 -1.88254 0
M  V30 8451 C 764.345 -1.53702 -3.10768 0
M  V30 8452 C 763.406 -2.76335 -3.28538 0
M  V30 8453 C 762.639 -2.73161 -4.58496 0
M  V30 8454 O 762.862 -1.80678 -5.41028 0
M  V30 8455 O 761.796 -3.64409 -4.79051 0
M  V30 8456 H 765.622 -2.53284 -1.67573 0
M  V30 8457 H 763.207 -1.28104 -0.768745 0
M  V30 8458 H 765.089 -1.54468 -3.92068 0
M  V30 8459 H 763.764 -0.605957 -3.17978 0
M  V30 8460 H 762.671 -2.8113 -2.46813 0
M  V30 8461 H 764.004 -3.68578 -3.26207 0
M  V30 8462 N 765.656 0.84705 -1.32902 0
M  V30 8463 C 766.603 1.95624 -1.22473 0
M  V30 8464 C 767.573 1.65767 -0.105178 0
M  V30 8465 O 768.758 1.88704 -0.282042 0
M  V30 8466 C 765.898 3.31434 -0.961542 0
M  V30 8467 C 765.011 3.73741 -2.1666 0
M  V30 8468 C 764.146 4.98379 -1.83825 0
M  V30 8469 C 763.185 5.33199 -3.00609 0
M  V30 8470 N 762.322 6.49014 -2.67816 0
M  V30 8471 H 767.162 2.03875 -2.17345 0
M  V30 8472 H 764.699 0.997764 -1.08088 0
M  V30 8473 H 766.657 4.09663 -0.789411 0
M  V30 8474 H 765.287 3.22762 -0.0495938 0
M  V30 8475 H 764.339 2.91102 -2.44875 0
M  V30 8476 H 765.651 3.95462 -3.03993 0
M  V30 8477 H 764.805 5.84336 -1.63208 0
M  V30 8478 H 763.544 4.78611 -0.937172 0
M  V30 8479 H 762.549 4.4575 -3.21849 0
M  V30 8480 H 763.774 5.5492 -3.9146 0
M  V30 8481 H 761.72 6.30748 -1.80258 0
M  V30 8482 H 761.637 6.7079 -3.48679 0
M  V30 8483 H 762.905 7.38103 -2.50647 0
M  V30 8484 N 767.134 1.16236 1.06428 0
M  V30 8485 C 768.359 0.967688 1.83441 0
M  V30 8486 C 768.784 -0.479167 1.81894 0
M  V30 8487 O 768.142 -1.34224 1.21875 0
M  V30 8488 C 768.19 1.49806 3.2801 0
M  V30 8489 O 767.294 0.703481 4.06356 0
M  V30 8490 H 766.635 0.344468 0.56766 0
M  V30 8491 H 769.165 1.54442 1.34197 0
M  V30 8492 H 769.175 1.51495 3.78831 0
M  V30 8493 H 767.85 2.55133 3.2845 0
M  V30 8494 H 766.427 0.756986 3.65136 0
M  V30 8495 N 768.612 -1.24939 0.960631 0
M  V30 8496 C 769.559 -2.25658 0.484459 0
M  V30 8497 C 770.529 -1.59422 -0.466242 0
M  V30 8498 O 771.714 -1.87015 -0.378169 0
M  V30 8499 C 768.854 -3.44359 -0.225958 0
M  V30 8500 C 767.967 -4.25214 0.762682 0
M  V30 8501 C 767.102 -5.31192 0.0290931 0
M  V30 8502 C 766.141 -6.03739 1.00827 0
M  V30 8503 N 765.278 -7.01437 0.305155 0
M  V30 8504 H 770.118 -2.65758 1.34821 0
M  V30 8505 H 767.655 -1.30648 0.675983 0
M  V30 8506 H 769.613 -4.12035 -0.654472 0
M  V30 8507 H 768.243 -3.05118 -1.05371 0
M  V30 8508 H 767.295 -3.57144 1.30966 0
M  V30 8509 H 768.607 -4.75406 1.50964 0
M  V30 8510 H 767.761 -6.04971 -0.457763 0
M  V30 8511 H 766.5 -4.81889 -0.750614 0
M  V30 8512 H 765.505 -5.2877 1.50607 0
M  V30 8513 H 766.73 -6.55131 1.7883 0
M  V30 8514 H 764.676 -6.54415 -0.455704 0
M  V30 8515 H 764.593 -7.49475 0.991104 0
M  V30 8516 H 765.861 -7.79336 -0.159966 0
M  V30 8517 N 770.09 -0.729906 -1.39679 0
M  V30 8518 C 771.022 -0.0470588 -2.29152 0
M  V30 8519 C 772.035 0.708808 -1.4656 0
M  V30 8520 O 773.224 0.553815 -1.69691 0
M  V30 8521 C 770.324 0.957612 -3.25089 0
M  V30 8522 C 769.497 0.264321 -4.36601 0
M  V30 8523 C 768.556 1.17638 -5.12882 0
M  V30 8524 O 767.582 0.655777 -5.6541 0
M  V30 8525 N 768.784 2.50649 -5.23598 0
M  V30 8526 H 771.549 -0.815364 -2.88395 0
M  V30 8527 H 769.11 -0.578707 -1.51204 0
M  V30 8528 H 771.102 1.57026 -3.72995 0
M  V30 8529 H 769.672 1.62716 -2.66912 0
M  V30 8530 H 768.892 -0.528732 -3.90638 0
M  V30 8531 H 770.18 -0.216344 -5.0834 0
M  V30 8532 H 769.578 2.95427 -4.82431 0
M  V30 8533 H 768.135 3.07022 -5.74961 0
M  V30 8534 N 771.568 1.50203 -0.477153 0
M  V30 8535 C 772.498 2.31517 0.303646 0
M  V30 8536 C 773.479 1.38696 0.984753 0
M  V30 8537 O 774.664 1.67615 0.980758 0
M  V30 8538 C 771.794 3.18598 1.38249 0
M  V30 8539 C 770.748 4.2002 0.822645 0
M  V30 8540 C 770.074 4.95878 2.00024 0
M  V30 8541 C 771.374 5.22023 -0.170185 0
M  V30 8542 H 773.068 2.97042 -0.375027 0
M  V30 8543 H 770.614 1.42848 -0.181802 0
M  V30 8544 H 772.567 3.74282 1.93625 0
M  V30 8545 H 771.291 2.5097 2.09002 0
M  V30 8546 H 769.95 3.65445 0.290813 0
M  V30 8547 H 769.598 4.24717 2.69489 0
M  V30 8548 H 769.298 5.64487 1.63183 0
M  V30 8549 H 770.822 5.54399 2.55878 0
M  V30 8550 H 772.236 5.72543 0.294606 0
M  V30 8551 H 770.633 5.98386 -0.453181 0
M  V30 8552 H 771.703 4.72396 -1.09408 0
M  V30 8553 N 773.046 0.209999 1.56195 0
M  V30 8554 C 773.956 -0.716459 2.23392 0
M  V30 8555 C 774.972 -1.22291 1.23778 0
M  V30 8556 O 776.148 -1.26694 1.56558 0
M  V30 8557 C 773.213 -1.91261 2.89172 0
M  V30 8558 C 772.274 -1.44927 4.04097 0
M  V30 8559 C 771.507 -2.5884 4.66731 0
M  V30 8560 O 771.73 -3.76693 4.2832 0
M  V30 8561 O 770.664 -2.30701 5.55932 0
M  V30 8562 H 774.49 -0.174089 3.03201 0
M  V30 8563 H 772.075 -0.0199505 1.49387 0
M  V30 8564 H 773.957 -2.6114 3.30733 0
M  V30 8565 H 772.632 -2.4433 2.12331 0
M  V30 8566 H 771.539 -0.718839 3.67129 0
M  V30 8567 H 772.872 -0.965084 4.82646 0
M  V30 8568 N 774.524 -1.57472 -0.0634922 0
M  V30 8569 C 775.749 -1.92273 -0.77756 0
M  V30 8570 C 776.174 -0.807141 -1.69902 0
M  V30 8571 O 775.532 0.239523 -1.79711 0
M  V30 8572 C 775.58 -3.26054 -1.54017 0
M  V30 8573 O 774.684 -3.15873 -2.65138 0
M  V30 8574 H 774.025 -0.629389 -0.211579 0
M  V30 8575 H 776.555 -2.04579 -0.0292523 0
M  V30 8576 H 776.565 -3.60127 -1.91763 0
M  V30 8577 H 775.24 -4.06824 -0.864128 0
M  V30 8578 H 773.817 -2.93373 -2.30189 0
M  V30 8579 N 776.003 0.335068 -1.53997 0
M  V30 8580 C 776.95 1.41187 -1.82579 0
M  V30 8581 C 777.92 1.51897 -0.672061 0
M  V30 8582 O 779.105 1.673 -0.917346 0
M  V30 8583 C 776.245 2.77717 -2.0486 0
M  V30 8584 C 775.358 2.7573 -3.32561 0
M  V30 8585 C 774.493 4.04032 -3.44864 0
M  V30 8586 C 773.532 3.96308 -4.66483 0
M  V30 8587 N 772.669 5.16317 -4.75774 0
M  V30 8588 H 777.509 1.16113 -2.74448 0
M  V30 8589 H 775.046 0.562305 -1.35928 0
M  V30 8590 H 777.004 3.57071 -2.15768 0
M  V30 8591 H 775.634 3.01124 -1.16294 0
M  V30 8592 H 774.686 1.88432 -3.3045 0
M  V30 8593 H 775.998 2.65902 -4.22016 0
M  V30 8594 H 775.152 4.91814 -3.55251 0
M  V30 8595 H 773.891 4.16652 -2.53481 0
M  V30 8596 H 772.896 3.06911 -4.56164 0
M  V30 8597 H 774.121 3.85263 -5.5924 0
M  V30 8598 H 772.067 5.29464 -3.87303 0
M  V30 8599 H 771.984 5.08779 -5.59178 0
M  V30 8600 H 773.252 6.05846 -4.9048 0
M  V30 8601 N 777.481 1.45874 0.596531 0
M  V30 8602 C 778.706 1.54247 1.38646 0
M  V30 8603 C 779.131 0.179571 1.87241 0
M  V30 8604 O 778.489 -0.837831 1.6078 0
M  V30 8605 C 778.537 2.54015 2.55946 0
M  V30 8606 O 777.641 2.06561 3.5694 0
M  V30 8607 H 776.982 0.519555 0.413471 0
M  V30 8608 H 779.512 1.91327 0.724936 0
M  V30 8609 H 779.522 2.73179 3.03047 0
M  V30 8610 H 778.197 3.52994 2.19928 0
M  V30 8611 H 776.774 1.97324 3.16414 0
M  V30 8612 N 778.959 -0.83999 1.33349 0
M  V30 8613 C 779.907 -1.97113 1.23488 0
M  V30 8614 C 780.901 -1.68849 0.136503 0
M  V30 8615 O 782.107 -1.77476 0.300389 0
M  V30 8616 H 778.482 -0.647049 0.383185 0
M  V30 8617 H 780.453 -2.02554 2.19122 0
M  V30 8618 C 779.202 -3.33314 0.989815 0
M  V30 8619 H 778.525 -3.556 1.82726 0
M  V30 8620 H 779.965 -4.12963 0.961123 0
M  V30 8621 C 778.424 -3.35496 -0.307272 0
M  V30 8622 O 778.954 -3.79589 -1.31434 0
M  V30 8623 N 777.16 -2.88669 -0.334414 0
M  V30 8624 H 776.707 -2.5298 0.485659 0
M  V30 8625 H 776.665 -2.90512 -1.20209 0
M  V30 8626 N 780.437 -1.16799 -1.0581 0
M  V30 8627 C 781.347 -0.893492 -2.16919 0
M  V30 8628 C 782.363 0.136061 -1.73467 0
M  V30 8629 O 783.539 -0.0417348 -2.01357 0
M  V30 8630 C 780.604 -0.403763 -3.44341 0
M  V30 8631 C 779.665 -1.49914 -4.02274 0
M  V30 8632 C 778.898 -1.03269 -5.23614 0
M  V30 8633 O 779.121 0.115647 -5.70283 0
M  V30 8634 O 778.055 -1.8231 -5.73626 0
M  V30 8635 H 781.881 -1.82274 -2.42919 0
M  V30 8636 H 779.466 -0.948361 -1.1544 0
M  V30 8637 H 781.348 -0.137874 -4.21174 0
M  V30 8638 H 780.023 0.497413 -3.19855 0
M  V30 8639 H 778.93 -1.81883 -3.26909 0
M  V30 8640 H 780.263 -2.3758 -4.31064 0
M  V30 8641 N 781.915 1.24427 -0.967243 0
M  V30 8642 C 782.865 2.23143 -0.468106 0
M  V30 8643 C 783.849 1.5449 0.449633 0
M  V30 8644 O 785.041 1.74761 0.28063 0
M  V30 8645 C 782.17 3.42454 0.240867 0
M  V30 8646 C 781.256 4.18355 -0.695674 0
M  V30 8647 N 781.647 4.71428 -1.83273 0
M  V30 8648 C 779.945 4.43116 -0.506365 0
M  V30 8649 C 780.646 5.29041 -2.41849 0
M  V30 8650 N 779.622 5.16213 -1.70369 0
M  V30 8651 H 783.424 2.61795 -1.3357 0
M  V30 8652 H 780.938 1.39809 -0.826277 0
M  V30 8653 H 782.935 4.12329 0.615668 0
M  V30 8654 H 781.595 3.05323 1.10491 0
M  V30 8655 H 782.606 4.68177 -2.21428 0
M  V30 8656 H 779.283 4.16319 0.313747 0
M  V30 8657 H 780.673 5.80811 -3.37799 0
M  V30 8658 N 783.393 0.737304 1.3929 0
M  V30 8659 C 784.67 0.212464 1.94443 0
M  V30 8660 C 785.05 -1.28621 1.67391 0
M  V30 8661 O 784.398 -2.0529 1.00342 0
M  V30 8662 C 784.608 0.548565 3.44662 0
M  V30 8663 C 785.956 0.499177 4.21656 0
M  V30 8664 O 786.98 0.485892 3.5287 0
M  V30 8665 O 785.839 0.495739 5.44247 0
M  V30 8666 H 782.933 0.0395457 0.826054 0
M  V30 8667 H 785.479 0.816319 1.48776 0
M  V30 8668 H 784.251 1.58426 3.57795 0
M  V30 8669 H 783.874 -0.0841399 3.97511 0
M  V30 8670 N 784.871 -1.49948 0.485112 0
M  V30 8671 C 785.821 -2.25734 -0.320658 0
M  V30 8672 C 786.805 -1.29907 -0.949373 0
M  V30 8673 O 787.997 -1.54725 -0.859601 0
M  V30 8674 C 785.126 -3.13728 -1.39391 0
M  V30 8675 C 784.212 -4.1701 -0.772225 0
M  V30 8676 N 784.603 -5.05667 0.115782 0
M  V30 8677 C 782.901 -4.33834 -1.03461 0
M  V30 8678 C 783.602 -5.79798 0.47004 0
M  V30 8679 N 782.578 -5.4337 -0.158204 0
M  V30 8680 H 786.38 -2.91647 0.36319 0
M  V30 8681 H 783.894 -1.59602 0.300154 0
M  V30 8682 H 785.891 -3.66639 -1.98447 0
M  V30 8683 H 784.551 -2.49365 -2.0796 0
M  V30 8684 H 785.562 -5.15619 0.485557 0
M  V30 8685 H 782.239 -3.80684 -1.71424 0
M  V30 8686 H 783.629 -6.61177 1.19558 0
M  V30 8687 N 786.349 -0.21828 -1.56081 0
M  V30 8688 C 787.574 0.422302 -2.03055 0
M  V30 8689 C 787.999 1.5279 -1.09713 0
M  V30 8690 O 787.357 1.81102 -0.0847187 0
M  V30 8691 C 787.405 0.934177 -3.48289 0
M  V30 8692 O 786.509 2.04574 -3.58083 0
M  V30 8693 H 785.85 0.0959764 -0.657027 0
M  V30 8694 H 788.38 -0.335958 -2.01823 0
M  V30 8695 H 788.39 1.24484 -3.88546 0
M  V30 8696 H 787.065 0.124963 -4.15712 0
M  V30 8697 H 785.642 1.74196 -3.29712 0
M  V30 8698 N 787.827 1.57504 0.0551401 0
M  V30 8699 C 788.774 2.04825 1.06373 0
M  V30 8700 C 789.744 0.932108 1.37481 0
M  V30 8701 O 790.929 1.20093 1.48265 0
M  V30 8702 C 788.069 2.51091 2.36743 0
M  V30 8703 C 787.182 3.76392 2.12021 0
M  V30 8704 C 786.317 4.11373 3.36074 0
M  V30 8705 C 785.356 5.29666 3.0679 0
M  V30 8706 N 784.493 5.60205 4.2322 0
M  V30 8707 H 789.333 2.90753 0.653216 0
M  V30 8708 H 786.87 1.43776 0.310951 0
M  V30 8709 H 788.828 2.75973 3.12881 0
M  V30 8710 H 787.458 1.68118 2.75565 0
M  V30 8711 H 786.51 3.58751 1.26498 0
M  V30 8712 H 787.822 4.62662 1.86401 0
M  V30 8713 H 786.976 4.37245 4.20597 0
M  V30 8714 H 785.715 3.23704 3.64784 0
M  V30 8715 H 784.72 5.03574 2.20664 0
M  V30 8716 H 785.945 6.18968 2.79385 0
M  V30 8717 H 783.891 4.75495 4.5193 0
M  V30 8718 H 783.808 6.40928 4.00933 0
M  V30 8719 H 785.076 5.90637 5.08692 0
M  V30 8720 N 789.305 -0.326896 1.54172 0
M  V30 8721 C 790.53 -1.08924 1.76494 0
M  V30 8722 C 790.955 -1.81039 0.510523 0
M  V30 8723 O 790.313 -1.73141 -0.537756 0
M  V30 8724 C 790.361 -2.06558 2.95578 0
M  V30 8725 O 789.465 -3.14394 2.6689 0
M  V30 8726 H 788.806 -0.314216 0.584948 0
M  V30 8727 H 791.336 -0.372207 2.01186 0
M  V30 8728 H 791.346 -2.49487 3.22832 0
M  V30 8729 H 790.021 -1.53469 3.86549 0
M  V30 8730 H 788.598 -2.76164 2.50576 0
M  V30 8731 N 790.784 -1.46188 -0.588786 0
M  V30 8732 C 791.731 -1.56292 -1.69828 0
M  V30 8733 C 792.701 -0.407581 -1.61022 0
M  V30 8734 O 793.886 -0.623532 -1.80324 0
M  V30 8735 C 791.026 -1.55341 -3.08161 0
M  V30 8736 C 790.139 -2.81564 -3.27636 0
M  V30 8737 C 789.274 -2.72158 -4.56183 0
M  V30 8738 C 788.313 -3.93348 -4.68981 0
M  V30 8739 N 787.45 -3.82365 -5.88848 0
M  V30 8740 H 792.29 -2.51066 -1.6053 0
M  V30 8741 H 789.827 -1.24562 -0.782474 0
M  V30 8742 H 791.785 -1.52776 -3.88221 0
M  V30 8743 H 790.415 -0.641034 -3.16371 0
M  V30 8744 H 789.467 -2.94136 -2.41223 0
M  V30 8745 H 790.779 -3.714 -3.32962 0
M  V30 8746 H 789.933 -2.67665 -5.44464 0
M  V30 8747 H 788.672 -1.79953 -4.53286 0
M  V30 8748 H 787.677 -3.98181 -3.7912 0
M  V30 8749 H 788.902 -4.86643 -4.73662 0
M  V30 8750 H 786.848 -2.92942 -5.86959 0
M  V30 8751 H 786.765 -4.65851 -5.95415 0
M  V30 8752 H 788.033 -3.81836 -6.79575 0
M  V30 8753 N 792.262 0.832906 -1.33792 0
M  V30 8754 C 793.172 1.97514 -1.26592 0
M  V30 8755 C 794.188 1.73114 -0.175391 0
M  V30 8756 O 795.364 1.97387 -0.400062 0
M  V30 8757 C 792.429 3.31625 -1.01121 0
M  V30 8758 C 791.49 3.69101 -2.19233 0
M  V30 8759 C 790.723 4.96813 -1.94968 0
M  V30 8760 O 790.946 5.63208 -0.902955 0
M  V30 8761 O 789.88 5.31932 -2.8166 0
M  V30 8762 H 793.706 2.0653 -2.22664 0
M  V30 8763 H 791.291 0.966826 -1.13898 0
M  V30 8764 H 793.173 4.11968 -0.886571 0
M  V30 8765 H 791.848 3.23599 -0.080822 0
M  V30 8766 H 790.755 2.89243 -2.37253 0
M  V30 8767 H 792.088 3.818 -3.10628 0
M  V30 8768 N 793.74 1.17359 1.05189 0
M  V30 8769 C 794.687 0.890325 2.12936 0
M  V30 8770 C 795.657 -0.165779 1.65271 0
M  V30 8771 O 796.842 -0.0285672 1.90779 0
M  V30 8772 C 793.982 0.409793 3.42658 0
M  V30 8773 C 793.095 1.53002 4.03998 0
M  V30 8774 C 792.23 1.00336 5.21638 0
M  V30 8775 C 791.269 2.09903 5.74984 0
M  V30 8776 N 790.406 1.58714 6.83926 0
M  V30 8777 H 795.246 1.81299 2.36505 0
M  V30 8778 H 792.783 0.904249 1.16025 0
M  V30 8779 H 794.741 0.112743 4.17048 0
M  V30 8780 H 793.371 -0.475915 3.19272 0
M  V30 8781 H 792.423 1.9428 3.27047 0
M  V30 8782 H 793.735 2.3564 4.39631 0
M  V30 8783 H 792.889 0.660158 6.03098 0
M  V30 8784 H 791.628 0.14642 4.8748 0
M  V30 8785 H 790.633 2.45081 4.92154 0
M  V30 8786 H 791.858 2.96013 6.1119 0
M  V30 8787 H 789.804 0.752915 6.51665 0
M  V30 8788 H 789.721 2.34959 7.18561 0
M  V30 8789 H 790.989 1.27287 7.69037 0
M  V30 8790 N 795.218 -1.23913 0.973828 0
M  V30 8791 C 796.495 -1.87539 0.555729 0
M  V30 8792 C 796.875 -1.87641 -0.967162 0
M  V30 8793 O 796.223 -1.35335 -1.84111 0
M  V30 8794 C 796.433 -3.29359 1.15427 0
M  V30 8795 C 797.781 -4.06 1.24294 0
M  V30 8796 O 798.805 -3.38554 1.10723 0
M  V30 8797 O 797.664 -5.26689 1.45813 0
M  V30 8798 H 794.758 -0.805769 0.186188 0
M  V30 8799 H 797.304 -1.31838 1.06849 0
M  V30 8800 H 796.076 -3.23817 2.19678 0
M  V30 8801 H 795.699 -3.92642 0.625925 0
M  V30 8802 N 796.696 -0.74468 -1.38897 0
M  V30 8803 C 798.112 -0.421302 -1.53939 0
M  V30 8804 C 798.312 1.06668 -1.70951 0
M  V30 8805 O 797.368 1.85278 -1.71547 0
M  V30 8806 C 798.681 -1.21278 -2.75159 0
M  V30 8807 C 800.229 -1.20196 -2.89001 0
M  V30 8808 C 800.704 -1.97621 -4.13171 0
M  V30 8809 N 802.195 -1.94836 -4.2023 0
M  V30 8810 C 802.93 -2.51545 -5.15279 0
M  V30 8811 N 802.426 -3.1693 -6.16058 0
M  V30 8812 N 804.219 -2.41524 -5.07565 0
M  V30 8813 H 796.37 -1.70914 -1.26103 0
M  V30 8814 H 798.633 -0.724058 -0.611919 0
M  V30 8815 H 798.339 -2.26609 -2.68963 0
M  V30 8816 H 798.213 -0.823677 -3.68097 0
M  V30 8817 H 800.6 -0.156742 -2.94683 0
M  V30 8818 H 800.681 -1.63051 -1.97099 0
M  V30 8819 H 800.325 -3.02149 -4.0825 0
M  V30 8820 H 800.255 -1.52166 -5.04136 0
M  V30 8821 H 802.746 -1.4721 -3.48048 0
M  V30 8822 H 803.059 -3.57644 -6.85062 0
M  V30 8823 H 801.404 -3.21023 -6.16417 0
M  V30 8824 H 804.595 -1.90077 -4.27771 0
M  V30 8825 H 804.768 -2.86016 -5.81462 0
M  V30 8826 N 798.174 1.49689 -0.493057 0
M  V30 8827 C 799.59 1.58907 -0.148526 0
M  V30 8828 C 799.79 1.4991 1.34645 0
M  V30 8829 O 798.846 1.36893 2.12171 0
M  V30 8830 C 800.159 2.91996 -0.718265 0
M  V30 8831 C 801.707 3.05443 -0.683658 0
M  V30 8832 C 802.182 4.41138 -1.23132 0
M  V30 8833 N 803.673 4.47608 -1.19167 0
M  V30 8834 C 804.408 5.51038 -1.5857 0
M  V30 8835 N 803.904 6.61612 -2.05528 0
M  V30 8836 N 805.697 5.41706 -1.50036 0
M  V30 8837 H 797.848 1.5378 -1.46511 0
M  V30 8838 H 800.111 0.727996 -0.607228 0
M  V30 8839 H 799.817 3.04123 -1.7664 0
M  V30 8840 H 799.691 3.76798 -0.17419 0
M  V30 8841 H 802.078 2.92949 0.355626 0
M  V30 8842 H 802.159 2.22344 -1.26479 0
M  V30 8843 H 801.803 4.54382 -2.26935 0
M  V30 8844 H 801.733 5.22864 -0.626201 0
M  V30 8845 H 804.224 3.68274 -0.847524 0
M  V30 8846 H 804.537 7.36622 -2.33685 0
M  V30 8847 H 802.882 6.62674 -2.09497 0
M  V30 8848 H 806.073 4.54212 -1.13176 0
M  V30 8849 H 806.246 6.22188 -1.81068 0
M  V30 8850 N 799.652 0.226554 1.55963 0
M  V30 8851 C 800.615 -0.668015 2.19249 0
M  V30 8852 C 801.615 -1.11794 1.1558 0
M  V30 8853 O 802.805 -1.02593 1.40784 0
M  V30 8854 C 799.937 -1.91571 2.81981 0
M  V30 8855 H 801.13 -0.116175 2.99675 0
M  V30 8856 H 798.683 -0.0230497 1.56283 0
M  V30 8857 H 799.418 -2.50929 2.05439 0
M  V30 8858 H 799.203 -1.6015 3.57903 0
M  V30 8859 H 800.693 -2.55294 3.30477 0
M  V30 8860 N 801.13 -1.57531 -0.0467866 0
M  V30 8861 C 802.062 -2.02156 -1.08007 0
M  V30 8862 C 803.075 -0.931434 -1.33522 0
M  V30 8863 O 804.264 -1.209 -1.31321 0
M  V30 8864 C 801.364 -2.36675 -2.42566 0
M  V30 8865 C 800.537 -3.67848 -2.36658 0
M  V30 8866 C 799.596 -3.89754 -3.53523 0
M  V30 8867 O 798.622 -4.61036 -3.33818 0
M  V30 8868 N 799.824 -3.34025 -4.74771 0
M  V30 8869 H 802.589 -2.91414 -0.699845 0
M  V30 8870 H 800.15 -1.60185 -0.235041 0
M  V30 8871 H 802.142 -2.48482 -3.19435 0
M  V30 8872 H 800.712 -1.53178 -2.72498 0
M  V30 8873 H 799.932 -3.66561 -1.45005 0
M  V30 8874 H 801.22 -4.53931 -2.29835 0
M  V30 8875 H 800.618 -2.76214 -4.93683 0
M  V30 8876 H 799.175 -3.51241 -5.49066 0
M  V30 8877 N 802.608 0.318715 -1.54344 0
M  V30 8878 C 803.833 1.07987 -1.77069 0
M  V30 8879 C 804.258 1.80766 -0.520117 0
M  V30 8880 O 803.616 1.73424 0.528566 0
M  V30 8881 C 803.664 2.04987 -2.96669 0
M  V30 8882 O 802.768 3.12974 -2.68554 0
M  V30 8883 H 802.109 0.311109 -0.586606 0
M  V30 8884 H 804.639 0.361533 -2.0138 0
M  V30 8885 H 804.649 2.47771 -3.2415 0
M  V30 8886 H 803.324 1.51417 -3.87357 0
M  V30 8887 H 801.901 2.74831 -2.52037 0
M  V30 8888 N 804.086 1.46499 0.581025 0
M  V30 8889 C 805.502 1.31491 0.904563 0
M  V30 8890 C 805.702 0.287598 1.99437 0
M  V30 8891 O 804.758 -0.309247 2.50599 0
M  V30 8892 C 806.071 2.70163 1.32032 0
M  V30 8893 C 807.619 2.78266 1.43308 0
M  V30 8894 C 808.094 4.17524 1.8825 0
M  V30 8895 N 809.585 4.19949 1.9544 0
M  V30 8896 C 810.32 5.24594 2.31493 0
M  V30 8897 N 809.816 6.39564 2.66326 0
M  V30 8898 N 811.609 5.11961 2.32062 0
M  V30 8899 H 803.76 2.11946 -0.138856 0
M  V30 8900 H 806.023 0.948 0.000548528 0
M  V30 8901 H 805.729 3.46655 0.593554 0
M  V30 8902 H 805.603 3.00379 2.2815 0
M  V30 8903 H 807.99 2.02061 2.15071 0
M  V30 8904 H 808.071 2.51732 0.45438 0
M  V30 8905 H 807.715 4.94225 1.17065 0
M  V30 8906 H 807.645 4.41466 2.87081 0
M  V30 8907 H 810.136 3.36996 1.71004 0
M  V30 8908 H 810.449 7.15187 2.92793 0
M  V30 8909 H 808.794 6.42923 2.6396 0
M  V30 8910 H 811.985 4.21177 2.04272 0
M  V30 8911 H 812.158 5.93626 2.5983 0
M  V30 8912 N 805.565 -0.825799 1.34232 0
M  V30 8913 C 806.79 -1.61883 1.29648 0
M  V30 8914 C 807.215 -1.87669 -0.127295 0
M  V30 8915 O 806.573 -1.45016 -1.08813 0
M  V30 8916 C 806.621 -2.93846 2.09014 0
M  V30 8917 O 805.725 -3.85778 1.4577 0
M  V30 8918 H 805.066 -0.492454 0.445405 0
M  V30 8919 H 807.596 -1.02641 1.76992 0
M  V30 8920 H 807.606 -3.43435 2.20264 0
M  V30 8921 H 806.281 -2.74401 3.12533 0
M  V30 8922 H 804.858 -3.4429 1.43245 0
M  V30 8923 N 807.043 -1.17915 -1.04565 0
M  V30 8924 C 808.459 -0.927761 -1.29864 0
M  V30 8925 C 808.659 0.409536 -1.97294 0
M  V30 8926 O 807.715 1.14505 -2.25044 0
M  V30 8927 C 809.028 -2.08967 -2.16225 0
M  V30 8928 C 810.576 -2.12741 -2.29587 0
M  V30 8929 C 811.051 -3.28335 -3.19312 0
M  V30 8930 N 812.542 -3.28164 -3.26898 0
M  V30 8931 C 813.277 -4.14249 -3.96466 0
M  V30 8932 N 812.773 -5.10457 -4.68407 0
M  V30 8933 N 814.566 -4.02179 -3.92694 0
M  V30 8934 H 806.717 -2.03983 -0.592011 0
M  V30 8935 H 808.98 -0.891023 -0.323701 0
M  V30 8936 H 808.686 -3.05654 -1.73979 0
M  V30 8937 H 808.56 -2.04606 -3.16885 0
M  V30 8938 H 810.947 -1.16636 -2.71072 0
M  V30 8939 H 811.028 -2.21162 -1.28535 0
M  V30 8940 H 810.672 -4.2471 -2.78539 0
M  V30 8941 H 810.602 -3.17151 -4.20384 0
M  V30 8942 H 813.093 -2.58511 -2.75646 0
M  V30 8943 H 813.406 -5.72526 -5.1907 0
M  V30 8944 H 811.751 -5.14422 -4.67328 0
M  V30 8945 H 814.942 -3.26308 -3.3562 0
M  V30 8946 H 815.115 -4.69486 -4.4664 0
M  V30 8947 N 808.521 1.23394 -0.980386 0
M  V30 8948 C 809.431 2.28561 -0.528864 0
M  V30 8949 C 810.447 1.68946 0.416329 0
M  V30 8950 O 811.623 1.99355 0.286251 0
M  V30 8951 C 808.688 3.46323 0.16155 0
M  V30 8952 C 807.749 4.21297 -0.825044 0
M  V30 8953 C 806.982 5.33437 -0.167483 0
M  V30 8954 O 807.205 5.60812 1.04146 0
M  V30 8955 O 806.139 5.95637 -0.866047 0
M  V30 8956 H 809.965 2.69326 -1.40346 0
M  V30 8957 H 807.55 1.29325 -0.748019 0
M  V30 8958 H 809.432 4.17811 0.548841 0
M  V30 8959 H 808.107 3.0751 1.01092 0
M  V30 8960 H 807.014 3.52134 -1.26303 0
M  V30 8961 H 808.347 4.6396 -1.64322 0
M  V30 8962 N 809.999 0.752036 1.385 0
M  V30 8963 C 811.239 0.312408 2.01998 0
M  V30 8964 C 811.603 -1.085 1.58404 0
M  V30 8965 O 812.804 -1.62365 2.14222 0
M  V30 8966 C 811.075 0.429423 3.54811 0
M  V30 8967 S 812.634 0.0721487 4.38741 0
M  V30 8968 H 809.452 0.1213 0.700576 0
M  V30 8969 H 812.054 0.982312 1.69029 0
M  V30 8970 H 810.758 1.44743 3.84028 0
M  V30 8971 H 810.289 -0.257716 3.92555 0
M  V30 8972 H 812.304 -1.13875 4.82957 0
M  V30 8973 N 811.477 -1.49425 0.500989 0
M  V30 8974 C 812.754 -1.9531 -0.106551 0
M  V30 8975 C 813.134 -1.44248 -1.54129 0
M  V30 8976 O 812.482 -0.656237 -2.18874 0
M  V30 8977 C 812.692 -3.48995 -0.0191972 0
M  V30 8978 C 814.04 -4.24161 -0.193129 0
M  V30 8979 O 815.064 -3.56075 -0.0943843 0
M  V30 8980 O 813.923 -5.45064 -0.395869 0
M  V30 8981 H 811.017 -0.82149 -0.0953068 0
M  V30 8982 H 813.563 -1.6007 0.563526 0
M  V30 8983 H 812.335 -3.78794 0.981353 0
M  V30 8984 H 811.958 -3.90852 -0.72942 0
M  V30 8985 N 812.955 -0.234822 -1.55841 0
M  V30 8986 C 814.204 0.393685 -1.97821 0
M  V30 8987 C 814.517 1.59947 -1.1259 0
M  V30 8988 O 815.723 2.29835 -1.44528 0
M  V30 8989 C 814.179 0.751811 -3.5196 0
M  V30 8990 C 813.787 -0.431898 -4.45913 0
M  V30 8991 C 815.531 1.34518 -4.02623 0
M  V30 8992 C 813.438 -0.0505976 -5.91378 0
M  V30 8993 H 812.368 0.150864 -0.738753 0
M  V30 8994 H 815.019 -0.333132 -1.80451 0
M  V30 8995 H 813.401 1.53642 -3.6498 0
M  V30 8996 H 814.575 -1.20935 -4.44647 0
M  V30 8997 H 812.89 -0.939385 -4.05666 0
M  V30 8998 H 815.487 1.64359 -5.08813 0
M  V30 8999 H 815.83 2.26554 -3.49255 0
M  V30 9000 H 816.363 0.623729 -3.9288 0
M  V30 9001 H 813.102 -0.937779 -6.48757 0
M  V30 9002 H 812.622 0.690898 -5.95808 0
M  V30 9003 H 814.301 0.37146 -6.45933 0
M  V30 9004 N 814.433 1.57553 0.0384317 0
M  V30 9005 C 815.661 1.93093 0.743141 0
M  V30 9006 C 816.076 0.833787 1.69391 0
M  V30 9007 O 815.433 -0.190532 1.81503 0
M  V30 9008 C 815.484 3.28533 1.50826 0
M  V30 9009 O 815.205 4.34032 0.595665 0
M  V30 9010 C 816.706 3.78297 2.31098 0
M  V30 9011 H 813.926 0.637486 0.20941 0
M  V30 9012 H 816.47 2.045 -0.00125154 0
M  V30 9013 H 814.625 3.18552 2.20462 0
M  V30 9014 H 815.039 5.12155 1.13124 0
M  V30 9015 H 816.513 4.75602 2.80191 0
M  V30 9016 H 816.99 3.09008 3.12107 0
M  V30 9017 H 817.596 3.91331 1.66555 0
M  V30 9018 N 815.911 -0.310526 1.54511 0
M  V30 9019 C 816.858 -1.38264 1.84802 0
M  V30 9020 C 817.828 -1.50808 0.696141 0
M  V30 9021 O 819.013 -1.6582 0.943846 0
M  V30 9022 C 816.153 -2.74422 2.09252 0
M  V30 9023 C 815.266 -2.70405 3.36906 0
M  V30 9024 C 814.401 -3.98495 3.51248 0
M  V30 9025 C 813.44 -3.88836 4.72729 0
M  V30 9026 N 812.577 -5.08683 4.83928 0
M  V30 9027 H 817.417 -1.11732 2.76261 0
M  V30 9028 H 814.954 -0.540609 1.36806 0
M  V30 9029 H 816.912 -3.53593 2.21422 0
M  V30 9030 H 815.542 -2.99235 1.2107 0
M  V30 9031 H 814.594 -1.83151 3.33406 0
M  V30 9032 H 815.906 -2.59155 4.26193 0
M  V30 9033 H 815.06 -4.861 3.63031 0
M  V30 9034 H 813.799 -4.12567 2.60077 0
M  V30 9035 H 812.804 -2.99615 4.60989 0
M  V30 9036 H 814.029 -3.76318 5.65298 0
M  V30 9037 H 811.975 -5.23236 3.95677 0
M  V30 9038 H 811.892 -4.99819 5.67201 0
M  V30 9039 H 813.16 -5.97966 5.00057 0
M  V30 9040 N 817.389 -1.46805 -0.573248 0
M  V30 9041 C 818.637 -1.52302 -1.32847 0
M  V30 9042 C 818.958 -0.180159 -1.94166 0
M  V30 9043 O 818.228 0.794291 -1.79075 0
M  V30 9044 H 816.808 -0.56097 -0.493276 0
M  V30 9045 H 819.47 -1.82998 -0.670642 0
M  V30 9046 H 818.566 -2.28089 -2.13031 0
M  V30 9047 N 818.867 0.818669 -1.34668 0
M  V30 9048 C 819.814 1.92983 -1.26595 0
M  V30 9049 C 820.784 1.65506 -0.140315 0
M  V30 9050 O 821.969 1.88063 -0.322005 0
M  V30 9051 C 819.109 3.2932 -1.03163 0
M  V30 9052 C 818.222 3.69061 -2.24539 0
M  V30 9053 C 817.357 4.94368 -1.94355 0
M  V30 9054 C 816.396 5.26702 -3.11851 0
M  V30 9055 N 815.533 6.43187 -2.81522 0
M  V30 9056 H 820.373 1.99219 -2.2162 0
M  V30 9057 H 817.91 0.974612 -1.1018 0
M  V30 9058 H 819.868 4.07897 -0.87613 0
M  V30 9059 H 818.498 3.22584 -0.118045 0
M  V30 9060 H 817.55 2.85842 -2.50995 0
M  V30 9061 H 818.862 3.88924 -3.12313 0
M  V30 9062 H 818.016 5.80742 -1.75566 0
M  V30 9063 H 816.755 4.76515 -1.03848 0
M  V30 9064 H 815.76 4.38823 -3.31231 0
M  V30 9065 H 816.985 5.46492 -4.03142 0
M  V30 9066 H 814.931 6.26783 -1.93596 0
M  V30 9067 H 814.848 6.63243 -3.62829 0
M  V30 9068 H 816.116 7.32621 -2.66247 0
M  V30 9069 N 820.346 1.18468 1.03938 0
M  V30 9070 C 821.296 0.880799 2.103 0
M  V30 9071 C 822.28 -0.150008 1.60199 0
M  V30 9072 O 823.472 0.054213 1.76917 0
M  V30 9073 C 820.601 0.409723 3.40846 0
M  V30 9074 C 819.687 1.47267 3.9771 0
M  V30 9075 N 820.078 2.68945 4.28371 0
M  V30 9076 C 818.376 1.33349 4.25598 0
M  V30 9077 C 819.077 3.37341 4.73894 0
M  V30 9078 N 818.053 2.64725 4.74786 0
M  V30 9079 H 821.855 1.80574 2.31884 0
M  V30 9080 H 819.369 1.07527 1.21703 0
M  V30 9081 H 821.366 0.17352 4.16539 0
M  V30 9082 H 820.026 -0.508862 3.20688 0
M  V30 9083 H 821.037 3.05801 4.17978 0
M  V30 9084 H 817.714 0.477548 4.1476 0
M  V30 9085 H 819.104 4.41338 5.06627 0
M  V30 9086 N 821.824 -1.22873 0.986916 0
M  V30 9087 C 823.049 -1.96028 0.677341 0
M  V30 9088 C 823.474 -1.72487 -0.750319 0
M  V30 9089 O 822.832 -1.00036 -1.51203 0
M  V30 9090 C 822.88 -3.46983 0.981593 0
M  V30 9091 O 821.984 -4.12328 0.0770729 0
M  V30 9092 H 821.325 -0.613458 0.254096 0
M  V30 9093 H 823.855 -1.56132 1.32227 0
M  V30 9094 H 823.865 -3.9747 0.920969 0
M  V30 9095 H 822.54 -3.63442 2.02194 0
M  V30 9096 H 821.117 -3.72402 0.192666 0
M  V30 9097 N 823.302 -0.75937 -1.38099 0
M  V30 9098 C 824.532 -0.328634 -2.0397 0
M  V30 9099 C 824.94 1.04989 -1.57398 0
M  V30 9100 O 824.283 1.67918 -0.744932 0
M  V30 9101 C 824.345 -0.279216 -3.58414 0
M  V30 9102 C 824.009 -1.60025 -4.28067 0
M  V30 9103 C 825.006 -2.55048 -4.53041 0
M  V30 9104 C 822.691 -1.87128 -4.66142 0
M  V30 9105 C 824.685 -3.7539 -5.15132 0
M  V30 9106 C 822.372 -3.07742 -5.27956 0
M  V30 9107 C 823.37 -4.01694 -5.52387 0
M  V30 9108 O 823.058 -5.20186 -6.12912 0
M  V30 9109 H 822.79 -0.137443 -0.66188 0
M  V30 9110 H 825.344 -1.03082 -1.77661 0
M  V30 9111 H 823.574 0.479254 -3.83719 0
M  V30 9112 H 825.263 0.122781 -4.05714 0
M  V30 9113 H 826.029 -2.35387 -4.24049 0
M  V30 9114 H 821.908 -1.14833 -4.46469 0
M  V30 9115 H 825.452 -4.48737 -5.34117 0
M  V30 9116 H 821.349 -3.27294 -5.56371 0
M  V30 9117 H 822.117 -5.20846 -6.31397 0
M  V30 9118 N 824.78 1.49157 -0.508906 0
M  V30 9119 C 825.728 2.30922 0.278906 0
M  V30 9120 C 826.722 1.39889 0.955382 0
M  V30 9121 O 827.928 1.56901 0.882169 0
M  V30 9122 H 824.303 0.744087 0.108805 0
M  V30 9123 H 826.274 2.95277 -0.430583 0
M  V30 9124 C 825.023 3.21432 1.32576 0
M  V30 9125 H 824.346 3.91413 0.814634 0
M  V30 9126 H 825.786 3.81568 1.84882 0
M  V30 9127 C 824.245 2.41583 2.34817 0
M  V30 9128 O 824.775 2.1256 3.40854 0
M  V30 9129 N 822.981 2.03462 2.07489 0
M  V30 9130 H 822.528 2.27265 1.21278 0
M  V30 9131 H 822.486 1.50345 2.76123 0
M  V30 9132 N 826.258 0.243083 1.55714 0
M  V30 9133 C 827.483 -0.389944 2.03701 0
M  V30 9134 C 827.908 -1.51025 1.12129 0
M  V30 9135 O 827.266 -1.80944 0.11352 0
M  V30 9136 C 827.314 -0.878649 3.49731 0
M  V30 9137 O 826.418 -1.98851 3.61292 0
M  V30 9138 H 825.759 -0.0855115 0.658471 0
M  V30 9139 H 828.289 0.368023 2.01263 0
M  V30 9140 H 828.299 -1.18287 3.90477 0
M  V30 9141 H 826.974 -0.0588107 4.15858 0
M  V30 9142 H 825.551 -1.68928 3.32442 0
M  V30 9143 N 827.736 -1.57571 -0.0300757 0
M  V30 9144 C 829.152 -1.54869 -0.385703 0
M  V30 9145 C 829.352 -0.969068 -1.76667 0
M  V30 9146 O 828.408 -0.589676 -2.45518 0
M  V30 9147 C 829.721 -2.99313 -0.288482 0
M  V30 9148 C 831.269 -3.10857 -0.365638 0
M  V30 9149 C 831.744 -4.5703 -0.297878 0
M  V30 9150 N 833.235 -4.61825 -0.356703 0
M  V30 9151 C 833.97 -5.72466 -0.327146 0
M  V30 9152 N 833.466 -6.92349 -0.249941 0
M  V30 9153 N 835.259 -5.60836 -0.376801 0
M  V30 9154 H 827.41 -1.936 0.87367 0
M  V30 9155 H 829.673 -0.887924 0.332106 0
M  V30 9156 H 829.379 -3.45443 0.66047 0
M  V30 9157 H 829.253 -3.61332 -1.08253 0
M  V30 9158 H 831.64 -2.64676 -1.30502 0
M  V30 9159 H 831.721 -2.51671 0.457744 0
M  V30 9160 H 831.365 -5.03879 0.637835 0
M  V30 9161 H 831.295 -5.14127 -1.13935 0
M  V30 9162 H 833.786 -3.75571 -0.418926 0
M  V30 9163 H 834.099 -7.7245 -0.23246 0
M  V30 9164 H 832.444 -6.94664 -0.216004 0
M  V30 9165 H 835.635 -4.66073 -0.435101 0
M  V30 9166 H 835.808 -6.47052 -0.350298 0
M  V30 9167 N 829.214 0.302327 -1.54673 0
M  V30 9168 C 830.442 1.05669 -1.77881 0
M  V30 9169 C 830.857 1.80983 -0.537648 0
M  V30 9170 O 830.214 1.7573 0.492467 0
M  V30 9171 C 830.265 2.03828 -2.98557 0
M  V30 9172 O 829.986 1.3157 -4.17877 0
M  V30 9173 C 831.487 2.91314 -3.34143 0
M  V30 9174 H 828.707 0.313436 -0.593295 0
M  V30 9175 H 831.251 0.342003 -2.0162 0
M  V30 9176 H 829.406 2.70801 -2.7703 0
M  V30 9177 H 829.82 1.97481 -4.85903 0
M  V30 9178 H 831.294 3.56042 -4.21827 0
M  V30 9179 H 831.771 3.59544 -2.52239 0
M  V30 9180 H 832.377 2.29874 -3.57824 0
M  V30 9181 N 830.692 1.47107 0.565454 0
M  V30 9182 C 832.108 1.32443 0.890566 0
M  V30 9183 C 832.308 0.308735 1.99121 0
M  V30 9184 O 831.364 -0.28265 2.50913 0
M  V30 9185 C 832.677 2.71548 1.2916 0
M  V30 9186 C 834.225 2.7977 1.40349 0
M  V30 9187 C 834.7 4.19497 1.83811 0
M  V30 9188 N 836.191 4.21998 1.90975 0
M  V30 9189 C 836.926 5.2702 2.25916 0
M  V30 9190 N 836.422 6.42353 2.59527 0
M  V30 9191 N 838.215 5.14393 2.26619 0
M  V30 9192 H 830.366 2.11786 -0.161328 0
M  V30 9193 H 832.629 0.947952 -0.00950631 0
M  V30 9194 H 832.335 3.47265 0.556753 0
M  V30 9195 H 832.209 3.02782 2.24951 0
M  V30 9196 H 834.596 2.0433 2.12916 0
M  V30 9197 H 834.677 2.522 0.427655 0
M  V30 9198 H 834.321 4.95439 1.11816 0
M  V30 9199 H 834.251 4.44486 2.82382 0
M  V30 9200 H 836.742 3.38791 1.6742 0
M  V30 9201 H 837.055 7.18252 2.85191 0
M  V30 9202 H 835.4 6.45687 2.57126 0
M  V30 9203 H 838.591 4.2332 1.99794 0
M  V30 9204 H 838.764 5.96349 2.5352 0
M  V30 9205 N 832.17 -0.811516 1.35101 0
M  V30 9206 C 833.08 -1.95475 1.29718 0
M  V30 9207 C 834.096 -1.72813 0.202909 0
M  V30 9208 O 835.272 -1.96725 0.431414 0
M  V30 9209 C 832.337 -3.29975 1.06385 0
M  V30 9210 C 831.398 -3.65566 2.25077 0
M  V30 9211 C 830.631 -4.93648 2.02848 0
M  V30 9212 O 830.854 -5.617 0.992442 0
M  V30 9213 O 829.788 -5.27384 2.90087 0
M  V30 9214 H 833.614 -2.02961 2.25921 0
M  V30 9215 H 831.199 -0.948583 1.15422 0
M  V30 9216 H 833.081 -4.10506 0.951999 0
M  V30 9217 H 831.756 -3.2343 0.132294 0
M  V30 9218 H 830.663 -2.85432 2.41825 0
M  V30 9219 H 831.996 -3.7681 3.16662 0
M  V30 9220 N 833.648 -1.19017 -1.03309 0
M  V30 9221 C 835.064 -0.941483 -1.28873 0
M  V30 9222 C 835.264 0.388587 -1.97718 0
M  V30 9223 O 834.32 1.12111 -2.26246 0
M  V30 9224 C 835.633 -2.11249 -2.13996 0
M  V30 9225 C 837.181 -2.15164 -2.27318 0
M  V30 9226 C 837.656 -3.31704 -3.15811 0
M  V30 9227 N 839.147 -3.31613 -3.23399 0
M  V30 9228 C 839.882 -4.18431 -3.9205 0
M  V30 9229 N 839.378 -5.15397 -4.62966 0
M  V30 9230 N 841.171 -4.06321 -3.88406 0
M  V30 9231 H 833.322 -2.04599 -0.570343 0
M  V30 9232 H 835.585 -0.894406 -0.314232 0
M  V30 9233 H 835.291 -3.07482 -1.70727 0
M  V30 9234 H 835.165 -2.07955 -3.14697 0
M  V30 9235 H 837.552 -1.19504 -2.6982 0
M  V30 9236 H 837.633 -2.22513 -1.26182 0
M  V30 9237 H 837.277 -4.2764 -2.74019 0
M  V30 9238 H 837.207 -3.21592 -4.16997 0
M  V30 9239 H 839.698 -2.6142 -2.72888 0
M  V30 9240 H 840.011 -5.78 -5.12968 0
M  V30 9241 H 838.356 -5.19349 -4.61846 0
M  V30 9242 H 841.547 -3.29849 -3.3214 0
M  V30 9243 H 841.72 -4.74196 -4.41635 0
M  V30 9244 N 835.127 1.22348 -0.993418 0
M  V30 9245 C 836.352 1.95666 -0.687727 0
M  V30 9246 C 836.777 1.72883 0.741161 0
M  V30 9247 O 836.135 1.00837 1.50671 0
M  V30 9248 C 836.183 3.46457 -0.99998 0
M  V30 9249 O 835.287 4.12281 -0.0989386 0
M  V30 9250 H 834.628 0.612102 -0.257346 0
M  V30 9251 H 837.158 1.55428 -1.33054 0
M  V30 9252 H 837.168 3.96976 -0.942035 0
M  V30 9253 H 835.843 3.62365 -2.04118 0
M  V30 9254 H 834.42 3.72295 -0.212413 0
M  V30 9255 N 836.605 0.766683 1.37694 0
M  V30 9256 C 838.021 0.445739 1.53249 0
M  V30 9257 C 838.221 -1.03935 1.72626 0
M  V30 9258 O 837.277 -1.82525 1.74473 0
M  V30 9259 C 838.59 1.2564 2.73194 0
M  V30 9260 C 840.138 1.24779 2.87053 0
M  V30 9261 C 840.613 2.04169 4.09974 0
M  V30 9262 N 842.104 2.01497 4.17077 0
M  V30 9263 C 842.839 2.5971 5.11212 0
M  V30 9264 N 842.335 3.26691 6.10938 0
M  V30 9265 N 844.128 2.49568 5.03659 0
M  V30 9266 H 836.279 1.72899 1.23368 0
M  V30 9267 H 838.542 0.733701 0.600322 0
M  V30 9268 H 838.248 2.30859 2.65324 0
M  V30 9269 H 838.122 0.882133 3.6674 0
M  V30 9270 H 840.509 0.203603 2.94397 0
M  V30 9271 H 840.59 1.66166 1.9448 0
M  V30 9272 H 840.234 3.08606 4.03392 0
M  V30 9273 H 840.164 1.60167 5.01651 0
M  V30 9274 H 842.655 1.52728 3.45662 0
M  V30 9275 H 842.968 3.68497 6.79286 0
M  V30 9276 H 841.313 3.30789 6.11231 0
M  V30 9277 H 844.504 1.96859 4.24693 0
M  V30 9278 H 844.677 2.95231 5.76839 0
M  V30 9279 N 838.083 -1.48885 0.516809 0
M  V30 9280 C 839.308 -2.0739 -0.0205201 0
M  V30 9281 C 839.733 -1.37259 -1.28614 0
M  V30 9282 O 839.091 -0.434304 -1.76021 0
M  V30 9283 C 839.139 -3.59793 -0.24104 0
M  V30 9284 O 838.243 -3.90957 -1.31251 0
M  V30 9285 H 837.584 -0.663167 0.0332564 0
M  V30 9286 H 840.114 -1.91477 0.720956 0
M  V30 9287 H 840.124 -4.0531 -0.467737 0
M  V30 9288 H 838.799 -4.10244 0.68356 0
M  V30 9289 H 837.376 -3.57234 -1.06951 0
M  V30 9290 N 839.561 -0.251338 -1.55583 0
M  V30 9291 C 840.977 0.103409 -1.59265 0
M  V30 9292 C 841.177 1.56559 -1.26852 0
M  V30 9293 O 840.233 2.31071 -1.01796 0
M  V30 9294 C 841.546 -0.249781 -2.99661 0
M  V30 9295 C 843.094 -0.194442 -3.12395 0
M  V30 9296 C 843.569 -0.521728 -4.55019 0
M  V30 9297 N 845.06 -0.472393 -4.60785 0
M  V30 9298 C 845.795 -0.698737 -5.69127 0
M  V30 9299 N 845.291 -0.988443 -6.85713 0
M  V30 9300 N 847.084 -0.629143 -5.58568 0
M  V30 9301 H 839.235 -1.20484 -1.74921 0
M  V30 9302 H 841.498 -0.485092 -0.814488 0
M  V30 9303 H 841.204 -1.26577 -3.28133 0
M  V30 9304 H 841.078 0.420973 -3.74844 0
M  V30 9305 H 843.465 0.812229 -2.83702 0
M  V30 9306 H 843.546 -0.899111 -2.39478 0
M  V30 9307 H 843.19 -1.52597 -4.84434 0
M  V30 9308 H 843.12 0.204468 -5.26203 0
M  V30 9309 H 845.611 -0.257386 -3.77022 0
M  V30 9310 H 845.924 -1.14846 -7.64219 0
M  V30 9311 H 844.269 -1.02596 -6.87386 0
M  V30 9312 H 847.46 -0.402826 -4.66364 0
M  V30 9313 H 847.633 -0.808935 -6.42931 0
M  V30 9314 N 841.039 1.57585 0.0217189 0
M  V30 9315 C 842.316 1.80779 0.74687 0
M  V30 9316 C 842.696 0.851163 1.9318 0
M  V30 9317 O 842.044 -0.105039 2.28258 0
M  V30 9318 C 842.254 3.28696 1.17302 0
M  V30 9319 C 843.602 3.93871 1.58589 0
M  V30 9320 O 844.626 3.3289 1.2674 0
M  V30 9321 O 843.485 5.01254 2.1773 0
M  V30 9322 H 840.579 0.743666 0.361786 0
M  V30 9323 H 843.125 1.697 -0.00206785 0
M  V30 9324 H 841.897 3.89927 0.327453 0
M  V30 9325 H 841.52 3.44692 1.98174 0
M  V30 9326 N 842.517 -0.29412 1.54831 0
M  V30 9327 C 843.933 -0.640167 1.46199 0
M  V30 9328 C 844.133 -1.90426 0.658798 0
M  V30 9329 O 843.189 -2.51932 0.169228 0
M  V30 9330 C 844.502 -0.786763 2.90225 0
M  V30 9331 C 846.05 -0.882201 3.0031 0
M  V30 9332 C 846.525 -1.06074 4.45547 0
M  V30 9333 N 848.016 -1.12678 4.49286 0
M  V30 9334 C 848.751 -1.28334 5.58854 0
M  V30 9335 N 848.247 -1.40845 6.78332 0
M  V30 9336 N 850.04 -1.31277 5.46555 0
M  V30 9337 H 842.191 0.536334 2.05517 0
M  V30 9338 H 844.454 0.178363 0.93107 0
M  V30 9339 H 844.16 0.0713018 3.51628 0
M  V30 9340 H 844.034 -1.67364 3.38037 0
M  V30 9341 H 846.421 -1.73075 2.39017 0
M  V30 9342 H 846.502 0.0288405 2.55784 0
M  V30 9343 H 846.146 -0.216935 5.07437 0
M  V30 9344 H 846.076 -1.98611 4.8771 0
M  V30 9345 H 848.567 -1.04335 3.63212 0
M  V30 9346 H 848.88 -1.52566 7.57591 0
M  V30 9347 H 847.225 -1.37888 6.81184 0
M  V30 9348 H 850.416 -1.2112 4.52159 0
M  V30 9349 H 850.589 -1.43136 6.31994 0
M  V30 9350 N 843.995 -1.47404 -0.557645 0
M  V30 9351 C 845.22 -1.57868 -1.34508 0
M  V30 9352 C 845.645 -0.229151 -1.86699 0
M  V30 9353 O 845.003 0.794908 -1.62944 0
M  V30 9354 C 845.051 -2.60712 -2.49122 0
M  V30 9355 O 844.155 -2.15952 -3.51338 0
M  V30 9356 H 843.496 -0.530335 -0.399551 0
M  V30 9357 H 846.026 -1.93181 -0.673954 0
M  V30 9358 H 846.036 -2.81118 -2.95697 0
M  V30 9359 H 844.711 -3.58701 -2.10491 0
M  V30 9360 H 843.288 -2.05644 -3.11071 0
M  V30 9361 N 845.473 0.80434 -1.35529 0
M  V30 9362 C 846.889 1.10023 -1.15616 0
M  V30 9363 C 847.089 2.01478 0.0298535 0
M  V30 9364 O 846.145 2.42609 0.699778 0
M  V30 9365 C 847.458 1.72905 -2.46017 0
M  V30 9366 C 849.006 1.85315 -2.52245 0
M  V30 9367 C 849.481 2.51612 -3.82695 0
M  V30 9368 N 850.972 2.59095 -3.83958 0
M  V30 9369 C 851.707 3.11167 -4.81625 0
M  V30 9370 N 851.203 3.63659 -5.89681 0
M  V30 9371 N 852.996 3.09741 -4.6906 0
M  V30 9372 H 845.147 0.196428 -2.1149 0
M  V30 9373 H 847.41 0.149735 -0.9361 0
M  V30 9374 H 847.116 1.13171 -3.32994 0
M  V30 9375 H 846.99 2.72579 -2.6073 0
M  V30 9376 H 849.377 2.44191 -1.65695 0
M  V30 9377 H 849.458 0.844886 -2.41444 0
M  V30 9378 H 849.102 1.93385 -4.69643 0
M  V30 9379 H 849.032 3.5298 -3.90785 0
M  V30 9380 H 851.523 2.21908 -3.05884 0
M  V30 9381 H 851.836 4.01699 -6.60195 0
M  V30 9382 H 850.181 3.61852 -5.9337 0
M  V30 9383 H 853.372 2.68011 -3.83781 0
M  V30 9384 H 853.545 3.50016 -5.45338 0
M  V30 9385 N 846.951 1.19563 1.02676 0
M  V30 9386 C 848.367 0.948304 1.28372 0
M  V30 9387 C 848.567 -0.378096 1.97921 0
M  V30 9388 O 847.623 -1.1091 2.26838 0
M  V30 9389 C 848.936 2.12381 2.12873 0
M  V30 9390 C 850.484 2.16366 2.26174 0
M  V30 9391 C 850.959 3.33374 3.14048 0
M  V30 9392 N 852.45 3.33323 3.21636 0
M  V30 9393 C 853.185 4.20504 3.89825 0
M  V30 9394 N 852.681 5.17845 4.60227 0
M  V30 9395 N 854.474 4.08375 3.86246 0
M  V30 9396 H 846.625 2.04899 0.559485 0
M  V30 9397 H 848.888 0.89606 0.309484 0
M  V30 9398 H 848.594 3.08383 1.69094 0
M  V30 9399 H 848.468 2.09621 3.1359 0
M  V30 9400 H 850.855 1.20933 2.69182 0
M  V30 9401 H 850.936 2.23179 1.25 0
M  V30 9402 H 850.58 4.29087 2.71747 0
M  V30 9403 H 850.51 3.23798 4.15286 0
M  V30 9404 H 853.001 2.62863 2.71498 0
M  V30 9405 H 853.314 5.80712 5.09896 0
M  V30 9406 H 851.659 5.21791 4.59085 0
M  V30 9407 H 854.85 3.31606 3.30386 0
M  V30 9408 H 855.023 4.76532 4.39114 0
M  V30 9409 N 848.429 -1.21819 0.999893 0
M  V30 9410 C 849.675 -1.91035 0.680701 0
M  V30 9411 C 850.008 -1.77582 -0.786021 0
M  V30 9412 O 849.283 -1.14917 -1.56921 0
M  V30 9413 C 849.566 -3.43013 1.0961 0
M  V30 9414 C 849.419 -3.65481 2.6219 0
M  V30 9415 C 850.738 -4.35204 0.654616 0
M  V30 9416 H 847.857 -0.693748 0.248763 0
M  V30 9417 H 850.499 -1.43555 1.24466 0
M  V30 9418 H 848.649 -3.83581 0.616253 0
M  V30 9419 H 850.321 -3.34273 3.17899 0
M  V30 9420 H 848.564 -3.09522 3.03938 0
M  V30 9421 H 849.235 -4.71945 2.86307 0
M  V30 9422 H 851.711 -4.0219 1.06688 0
M  V30 9423 H 850.587 -5.40198 0.973492 0
M  V30 9424 H 850.848 -4.3986 -0.444458 0
M  V30 9425 N 849.908 -0.773975 -1.37286 0
M  V30 9426 C 851.324 -0.45386 -1.53011 0
M  V30 9427 C 851.524 1.03018 -1.73175 0
M  V30 9428 O 850.58 1.81597 -1.75438 0
M  V30 9429 C 851.893 -1.27087 -2.72524 0
M  V30 9430 C 853.441 -1.26299 -2.86387 0
M  V30 9431 C 853.916 -2.0634 -4.08886 0
M  V30 9432 N 855.407 -2.03706 -4.16003 0
M  V30 9433 C 856.142 -2.62418 -5.09828 0
M  V30 9434 N 855.638 -3.29926 -6.09197 0
M  V30 9435 N 857.431 -2.52236 -5.02328 0
M  V30 9436 H 849.582 -1.73551 -1.22449 0
M  V30 9437 H 851.845 -0.736874 -0.596423 0
M  V30 9438 H 851.551 -2.32263 -2.64096 0
M  V30 9439 H 851.425 -0.90157 -3.66267 0
M  V30 9440 H 853.812 -0.219213 -2.94285 0
M  V30 9441 H 853.893 -1.67195 -1.93596 0
M  V30 9442 H 853.537 -3.10741 -4.01749 0
M  V30 9443 H 853.467 -1.62825 -5.00795 0
M  V30 9444 H 855.958 -1.54559 -3.44848 0
M  V30 9445 H 856.271 -3.72095 -6.77322 0
M  V30 9446 H 854.616 -3.34026 -6.09469 0
M  V30 9447 H 857.807 -1.99108 -4.23643 0
M  V30 9448 H 857.98 -2.98286 -5.75265 0
M  V30 9449 N 851.386 1.48609 -0.524698 0
M  V30 9450 C 852.611 2.07398 0.00952139 0
M  V30 9451 C 853.036 1.37939 1.27884 0
M  V30 9452 O 852.394 0.443633 1.75788 0
M  V30 9453 C 852.442 3.59916 0.221956 0
M  V30 9454 O 851.546 3.91647 1.29175 0
M  V30 9455 H 850.887 0.662981 -0.0367729 0
M  V30 9456 H 853.417 1.91092 -0.7311 0
M  V30 9457 H 853.427 4.05552 0.446236 0
M  V30 9458 H 852.102 4.09876 -0.705306 0
M  V30 9459 H 850.679 3.57796 1.05055 0
M  V30 9460 N 852.864 0.259585 1.55447 0
M  V30 9461 C 854.28 -0.094961 1.59317 0
M  V30 9462 C 854.48 -1.55884 1.2768 0
M  V30 9463 O 853.536 -2.30528 1.0302 0
M  V30 9464 C 854.849 0.265669 2.99524 0
M  V30 9465 C 856.397 0.211007 3.12288 0
M  V30 9466 C 856.872 0.545851 4.54736 0
M  V30 9467 N 858.363 0.496823 4.60528 0
M  V30 9468 C 859.098 0.728909 5.68748 0
M  V30 9469 N 858.594 1.02479 6.85179 0
M  V30 9470 N 860.387 0.658756 5.58226 0
M  V30 9471 H 852.538 1.2141 1.7428 0
M  V30 9472 H 854.801 0.489404 0.811904 0
M  V30 9473 H 854.507 1.28316 3.27457 0
M  V30 9474 H 854.381 -0.401089 3.75061 0
M  V30 9475 H 856.768 -0.797172 2.84129 0
M  V30 9476 H 856.849 0.911799 2.38998 0
M  V30 9477 H 856.493 1.55164 4.83618 0
M  V30 9478 H 856.423 -0.17656 5.26304 0
M  V30 9479 H 858.914 0.277376 3.76881 0
M  V30 9480 H 859.227 1.18897 7.63599 0
M  V30 9481 H 857.572 1.0624 6.86832 0
M  V30 9482 H 860.763 0.427553 4.66143 0
M  V30 9483 H 860.936 0.84302 6.42493 0
M  V30 9484 N 854.342 -1.57594 -0.0133615 0
M  V30 9485 C 855.57 -1.94251 -0.712328 0
M  V30 9486 C 855.985 -0.86063 -1.68043 0
M  V30 9487 O 855.342 0.161632 -1.81783 0
M  V30 9488 C 855.393 -3.30891 -1.45581 0
M  V30 9489 O 855.114 -4.34924 -0.526539 0
M  V30 9490 C 856.615 -3.81926 -2.2505 0
M  V30 9491 H 853.835 -0.640737 -0.199241 0
M  V30 9492 H 856.379 -2.04472 0.0337855 0
M  V30 9493 H 854.534 -3.22019 -2.15366 0
M  V30 9494 H 854.948 -5.1389 -1.04962 0
M  V30 9495 H 856.422 -4.79999 -2.72589 0
M  V30 9496 H 856.899 -3.13934 -3.07152 0
M  V30 9497 H 857.505 -3.93931 -1.60308 0
M  V30 9498 N 855.82 0.285905 -1.54985 0
M  V30 9499 C 856.77 1.35505 -1.83364 0
M  V30 9500 C 857.754 1.45273 -0.691698 0
M  V30 9501 O 858.946 1.49172 -0.952725 0
M  V30 9502 C 856.075 2.71756 -2.0977 0
M  V30 9503 C 855.161 2.6615 -3.30189 0
M  V30 9504 N 855.552 2.30161 -4.50399 0
M  V30 9505 C 853.85 2.97232 -3.3252 0
M  V30 9506 C 854.551 2.34228 -5.32459 0
M  V30 9507 N 853.527 2.72187 -4.70548 0
M  V30 9508 H 857.329 1.06668 -2.7386 0
M  V30 9509 H 854.843 0.494521 -1.54688 0
M  V30 9510 H 856.84 3.48864 -2.28253 0
M  V30 9511 H 855.5 3.01492 -1.20551 0
M  V30 9512 H 856.511 2.02358 -4.7673 0
M  V30 9513 H 853.188 3.31764 -2.53454 0
M  V30 9514 H 854.578 2.09074 -6.38543 0
M  V30 9515 N 857.298 1.47698 0.54982 0
M  V30 9516 C 858.575 1.45185 1.31075 0
M  V30 9517 C 858.955 0.152768 2.10547 0
M  V30 9518 O 858.303 -0.865706 2.11466 0
M  V30 9519 C 858.513 2.70192 2.20902 0
M  V30 9520 C 859.861 3.1771 2.81683 0
M  V30 9521 O 860.885 2.70971 2.312 0
M  V30 9522 O 859.744 3.98986 3.7346 0
M  V30 9523 H 856.838 0.57892 0.590577 0
M  V30 9524 H 859.384 1.59908 0.568112 0
M  V30 9525 H 858.156 3.56269 1.61828 0
M  V30 9526 H 857.779 2.58091 3.02448 0
M  V30 9527 N 858.776 -0.797141 1.35954 0
M  V30 9528 C 860.192 -1.09408 1.16198 0
M  V30 9529 C 860.392 -2.01491 -0.0191682 0
M  V30 9530 O 859.448 -2.42977 -0.686902 0
M  V30 9531 C 860.761 -1.71597 2.46931 0
M  V30 9532 C 862.309 -1.83974 2.53224 0
M  V30 9533 C 862.784 -2.49579 3.84024 0
M  V30 9534 N 864.275 -2.57055 3.85327 0
M  V30 9535 C 865.01 -3.08608 4.83268 0
M  V30 9536 N 864.506 -3.60527 5.91601 0
M  V30 9537 N 866.299 -3.07249 4.70696 0
M  V30 9538 H 858.45 -0.185209 2.11591 0
M  V30 9539 H 860.713 -0.144768 0.936881 0
M  V30 9540 H 860.419 -1.11404 3.3359 0
M  V30 9541 H 860.293 -2.71193 2.62172 0
M  V30 9542 H 862.68 -2.43308 1.66988 0
M  V30 9543 H 862.761 -0.83207 2.41889 0
M  V30 9544 H 862.405 -1.90892 4.70662 0
M  V30 9545 H 862.335 -3.50902 3.92651 0
M  V30 9546 H 864.826 -2.20283 3.07057 0
M  V30 9547 H 865.139 -3.98192 6.62317 0
M  V30 9548 H 863.484 -3.587 5.95281 0
M  V30 9549 H 866.675 -2.65972 3.85197 0
M  V30 9550 H 866.848 -3.47119 5.47186 0
M  V30 9551 N 860.254 -1.20106 -1.0204 0
M  V30 9552 C 861.531 -0.918029 -1.72718 0
M  V30 9553 C 861.911 0.574163 -2.03142 0
M  V30 9554 O 861.259 1.53476 -1.69285 0
M  V30 9555 C 861.469 -1.78698 -2.9978 0
M  V30 9556 C 862.817 -2.02648 -3.7312 0
M  V30 9557 O 863.841 -1.75919 -3.09727 0
M  V30 9558 O 862.7 -2.47767 -4.87107 0
M  V30 9559 H 859.794 -0.342904 -0.752559 0
M  V30 9560 H 862.34 -1.30961 -1.07923 0
M  V30 9561 H 861.112 -2.79757 -2.7359 0
M  V30 9562 H 860.735 -1.39522 -3.72316 0
M  V30 9563 N 861.732 1.21287 -1.00634 0
M  V30 9564 C 863.148 1.42467 -0.719389 0
M  V30 9565 C 863.348 1.88767 0.704927 0
M  V30 9566 O 862.404 2.05004 1.47409 0
M  V30 9567 C 863.717 2.455 -1.73639 0
M  V30 9568 C 865.265 2.59281 -1.75335 0
M  V30 9569 C 865.74 3.65547 -2.75934 0
M  V30 9570 N 867.231 3.73019 -2.74611 0
M  V30 9571 C 867.966 4.54873 -3.4911 0
M  V30 9572 N 867.462 5.40614 -4.33253 0
M  V30 9573 N 869.255 4.49309 -3.37754 0
M  V30 9574 H 861.406 0.895454 -1.92602 0
M  V30 9575 H 863.669 0.455491 -0.831404 0
M  V30 9576 H 863.375 2.18455 -2.75627 0
M  V30 9577 H 863.249 3.44325 -1.54014 0
M  V30 9578 H 865.636 2.85661 -0.740377 0
M  V30 9579 H 865.717 1.60685 -1.99032 0
M  V30 9580 H 865.361 3.39911 -3.77389 0
M  V30 9581 H 865.291 4.63741 -2.49503 0
M  V30 9582 H 867.782 3.11766 -2.13565 0
M  V30 9583 H 868.095 6.0013 -4.86892 0
M  V30 9584 H 866.44 5.40151 -4.37335 0
M  V30 9585 H 869.631 3.81357 -2.71449 0
M  V30 9586 H 869.804 5.12867 -3.9607 0
M  V30 9587 N 863.21 0.781244 1.36873 0
M  V30 9588 C 864.435 0.360398 2.04245 0
M  V30 9589 C 864.86 -1.01242 1.58529 0
M  V30 9590 O 864.218 -1.65063 0.749936 0
M  V30 9591 C 864.266 0.42329 3.58107 0
M  V30 9592 O 863.37 -0.572796 4.08403 0
M  V30 9593 H 862.711 0.154386 0.645803 0
M  V30 9594 H 865.241 1.06008 1.74996 0
M  V30 9595 H 865.251 0.283967 4.07011 0
M  V30 9596 H 863.926 1.42477 3.90734 0
M  V30 9597 H 862.503 -0.395809 3.70793 0
M  V30 9598 N 864.689 -1.48329 0.532571 0
M  V30 9599 C 866.105 -1.58458 0.190605 0
M  V30 9600 C 866.305 -1.53427 -1.30623 0
M  V30 9601 O 865.361 -1.4247 -2.08467 0
M  V30 9602 C 866.674 -2.89989 0.79543 0
M  V30 9603 C 868.222 -3.03523 0.7644 0
M  V30 9604 C 868.697 -4.37718 1.34785 0
M  V30 9605 N 870.188 -4.44292 1.30993 0
M  V30 9606 C 870.923 -5.4664 1.73124 0
M  V30 9607 N 870.419 -6.5593 2.22997 0
M  V30 9608 N 872.212 -5.37538 1.64346 0
M  V30 9609 H 864.363 -1.49842 1.50537 0
M  V30 9610 H 866.626 -0.71164 0.626316 0
M  V30 9611 H 866.332 -2.99333 1.84642 0
M  V30 9612 H 866.206 -3.76203 0.27403 0
M  V30 9613 H 868.593 -2.93789 -0.277831 0
M  V30 9614 H 868.674 -2.18912 1.3233 0
M  V30 9615 H 868.318 -4.48206 2.38902 0
M  V30 9616 H 868.248 -5.21019 0.764609 0
M  V30 9617 H 870.739 -3.65897 0.944868 0
M  V30 9618 H 871.052 -7.30167 2.53133 0
M  V30 9619 H 869.397 -6.56886 2.26992 0
M  V30 9620 H 872.588 -4.51052 1.25178 0
M  V30 9621 H 872.761 -6.17169 1.97501 0
M  V30 9622 N 866.167 -0.267825 -1.55308 0
M  V30 9623 C 867.392 0.357487 -2.04296 0
M  V30 9624 C 867.817 1.49222 -1.14518 0
M  V30 9625 O 867.175 1.80741 -0.142292 0
M  V30 9626 C 867.223 0.822899 -3.51085 0
M  V30 9627 O 866.327 1.93078 -3.6441 0
M  V30 9628 H 865.668 0.075025 -0.659748 0
M  V30 9629 H 868.198 -0.399996 -2.00652 0
M  V30 9630 H 868.208 1.12059 -3.92309 0
M  V30 9631 H 866.883 -0.0073562 -4.15899 0
M  V30 9632 H 865.46 1.63618 -3.35087 0
M  V30 9633 N 867.645 1.57599 0.00500368 0
M  V30 9634 C 868.592 2.08106 0.998025 0
M  V30 9635 C 869.562 0.975374 1.34446 0
M  V30 9636 O 870.747 1.24749 1.44369 0
M  V30 9637 C 867.887 2.58496 2.28635 0
M  V30 9638 C 867 3.82947 1.99939 0
M  V30 9639 C 866.135 4.21857 3.22816 0
M  V30 9640 C 865.174 5.39159 2.89783 0
M  V30 9641 N 864.311 5.73386 4.05183 0
M  V30 9642 H 869.151 2.92684 0.560385 0
M  V30 9643 H 866.688 1.44692 0.265053 0
M  V30 9644 H 868.646 2.85787 3.03943 0
M  V30 9645 H 867.276 1.768 2.70077 0
M  V30 9646 H 866.328 3.62594 1.1502 0
M  V30 9647 H 867.64 4.68358 1.71588 0
M  V30 9648 H 866.794 4.50404 4.06474 0
M  V30 9649 H 865.533 3.35145 3.54301 0
M  V30 9650 H 864.538 5.1034 2.04532 0
M  V30 9651 H 865.763 6.27543 2.59551 0
M  V30 9652 H 863.709 4.89632 4.36574 0
M  V30 9653 H 863.626 6.53359 3.80339 0
M  V30 9654 H 864.894 6.06522 4.89644 0
M  V30 9655 N 869.123 -0.277682 1.55134 0
M  V30 9656 C 870.033 -1.36524 1.90783 0
M  V30 9657 C 871.049 -1.54283 0.804542 0
M  V30 9658 O 872.225 -1.68499 1.10318 0
M  V30 9659 C 869.29 -2.70524 2.16835 0
M  V30 9660 C 868.351 -2.61552 3.40424 0
M  V30 9661 C 867.584 -3.89162 3.65224 0
M  V30 9662 O 867.807 -4.89624 2.92616 0
M  V30 9663 O 866.741 -3.89647 4.58758 0
M  V30 9664 H 870.567 -1.0929 2.83354 0
M  V30 9665 H 868.152 -0.475799 1.41621 0
M  V30 9666 H 870.034 -3.49765 2.35038 0
M  V30 9667 H 868.709 -2.97555 1.27448 0
M  V30 9668 H 867.616 -1.80704 3.27562 0
M  V30 9669 H 868.949 -2.39472 4.30016 0
M  V30 9670 N 870.601 -1.47988 -0.541979 0
M  V30 9671 C 871.831 -1.58804 -1.32155 0
M  V30 9672 C 872.239 -0.242893 -1.87634 0
M  V30 9673 O 871.582 0.776239 -1.66494 0
M  V30 9674 C 871.644 -2.56567 -2.51821 0
M  V30 9675 C 871.308 -4.01915 -2.17517 0
M  V30 9676 C 872.305 -4.89954 -1.73901 0
M  V30 9677 C 869.99 -4.47365 -2.28408 0
M  V30 9678 C 871.984 -6.21467 -1.41625 0
M  V30 9679 C 869.671 -5.78902 -1.95745 0
M  V30 9680 C 870.669 -6.65775 -1.52423 0
M  V30 9681 O 870.357 -7.94866 -1.20183 0
M  V30 9682 H 870.089 -0.538536 -0.408601 0
M  V30 9683 H 872.643 -1.94446 -0.661818 0
M  V30 9684 H 870.873 -2.16023 -3.20735 0
M  V30 9685 H 872.562 -2.57347 -3.13891 0
M  V30 9686 H 873.328 -4.56082 -1.64966 0
M  V30 9687 H 869.207 -3.79942 -2.61084 0
M  V30 9688 H 872.751 -6.8923 -1.07738 0
M  V30 9689 H 868.648 -6.12311 -2.04316 0
M  V30 9690 H 869.416 -8.07509 -1.33683 0
M  V30 9691 N 872.079 0.78992 -1.36375 0
M  V30 9692 C 873.029 1.89227 -1.27189 0
M  V30 9693 C 874.013 1.60067 -0.163498 0
M  V30 9694 O 875.205 1.72507 -0.396262 0
M  V30 9695 C 872.334 3.26431 -1.06292 0
M  V30 9696 C 871.42 3.61602 -2.21596 0
M  V30 9697 N 871.811 3.68086 -3.4691 0
M  V30 9698 C 870.109 3.9166 -2.1335 0
M  V30 9699 C 870.81 3.99481 -4.22835 0
M  V30 9700 N 869.786 4.14438 -3.5177 0
M  V30 9701 H 873.588 1.92465 -2.22113 0
M  V30 9702 H 871.102 0.985414 -1.29087 0
M  V30 9703 H 873.099 4.05267 -0.97798 0
M  V30 9704 H 871.759 3.24468 -0.122676 0
M  V30 9705 H 872.77 3.50743 -3.81051 0
M  V30 9706 H 869.447 3.97626 -1.27279 0
M  V30 9707 H 870.837 4.11425 -5.31205 0
M  V30 9708 N 873.557 1.20646 1.01402 0
M  V30 9709 C 874.973 0.961866 1.27359 0
M  V30 9710 C 875.173 -0.357083 1.98311 0
M  V30 9711 O 874.229 -1.08498 2.28001 0
M  V30 9712 C 875.542 2.14627 2.10609 0
M  V30 9713 C 877.09 2.18753 2.23866 0
M  V30 9714 C 877.565 3.36686 3.10494 0
M  V30 9715 N 879.056 3.36716 3.18083 0
M  V30 9716 C 879.791 4.24615 3.85343 0
M  V30 9717 N 879.287 5.22697 4.54708 0
M  V30 9718 N 881.08 4.12449 3.81893 0
M  V30 9719 H 873.231 2.05481 0.537721 0
M  V30 9720 H 875.494 0.899292 0.299963 0
M  V30 9721 H 875.2 3.10159 1.65814 0
M  V30 9722 H 875.074 2.12935 3.11349 0
M  V30 9723 H 877.461 1.23782 2.67885 0
M  V30 9724 H 877.542 2.24492 1.22626 0
M  V30 9725 H 877.186 4.31945 2.67181 0
M  V30 9726 H 877.116 3.28185 4.11828 0
M  V30 9727 H 879.607 2.65728 2.68695 0
M  V30 9728 H 879.92 5.86087 5.03708 0
M  V30 9729 H 878.265 5.26631 4.53525 0
M  V30 9730 H 881.456 3.35091 3.26851 0
M  V30 9731 H 881.629 4.81162 4.34035 0
M  V30 9732 N 875.035 -1.20752 1.01276 0
M  V30 9733 C 876.265 -1.93725 0.717934 0
M  V30 9734 C 876.673 -1.74769 -0.724732 0
M  V30 9735 O 876.016 -1.05642 -1.50285 0
M  V30 9736 C 876.078 -3.46196 0.968954 0
M  V30 9737 C 875.742 -3.88909 2.39998 0
M  V30 9738 C 876.739 -3.94982 3.38061 0
M  V30 9739 C 874.424 -4.21006 2.7397 0
M  V30 9740 C 876.418 -4.32558 4.68159 0
M  V30 9741 C 874.105 -4.58257 4.04282 0
M  V30 9742 C 875.103 -4.64004 5.01187 0
M  V30 9743 O 874.791 -5.00403 6.29168 0
M  V30 9744 H 874.523 -0.622663 0.263186 0
M  V30 9745 H 877.077 -1.54299 1.35577 0
M  V30 9746 H 875.307 -3.85728 0.273952 0
M  V30 9747 H 876.996 -4.00394 0.666312 0
M  V30 9748 H 877.762 -3.70353 3.13151 0
M  V30 9749 H 873.641 -4.15725 1.99233 0
M  V30 9750 H 877.185 -4.36959 5.43795 0
M  V30 9751 H 873.082 -4.82341 4.28973 0
M  V30 9752 H 873.85 -5.18409 6.33399 0
M  V30 9753 N 876.513 -0.788492 -1.36457 0
M  V30 9754 C 877.929 -0.470063 -1.52521 0
M  V30 9755 C 878.129 1.01176 -1.74258 0
M  V30 9756 O 877.185 1.79726 -1.77355 0
M  V30 9757 C 878.498 -1.2997 -2.71161 0
M  V30 9758 C 880.046 -1.2933 -2.85031 0
M  V30 9759 C 880.521 -2.10665 -4.06674 0
M  V30 9760 N 882.012 -2.08107 -4.13819 0
M  V30 9761 C 882.747 -2.6781 -5.07016 0
M  V30 9762 N 882.243 -3.36369 -6.05663 0
M  V30 9763 N 884.036 -2.57549 -4.99625 0
M  V30 9764 H 876.187 -1.7484 -1.20602 0
M  V30 9765 H 878.45 -0.743159 -0.588574 0
M  V30 9766 H 878.156 -2.35051 -2.61618 0
M  V30 9767 H 878.03 -0.940367 -3.6529 0
M  V30 9768 H 880.417 -0.250414 -2.94036 0
M  V30 9769 H 880.498 -1.69239 -1.91812 0
M  V30 9770 H 880.142 -3.14984 -3.98431 0
M  V30 9771 H 880.072 -1.68128 -4.9904 0
M  V30 9772 H 882.563 -1.58208 -3.43189 0
M  V30 9773 H 882.876 -3.79258 -6.73338 0
M  V30 9774 H 881.221 -3.40471 -6.05891 0
M  V30 9775 H 884.412 -2.0359 -4.21508 0
M  V30 9776 H 884.585 -3.0437 -5.72069 0
M  V30 9777 N 877.991 1.48044 -0.54043 0
M  V30 9778 C 878.901 2.33565 0.220163 0
M  V30 9779 C 879.917 1.47146 0.928659 0
M  V30 9780 O 881.093 1.80107 0.901295 0
M  V30 9781 C 878.158 3.2349 1.2472 0
M  V30 9782 C 877.219 4.25789 0.547938 0
M  V30 9783 C 876.452 5.11417 1.52605 0
M  V30 9784 O 876.675 4.99204 2.75956 0
M  V30 9785 O 875.609 5.92498 1.05972 0
M  V30 9786 H 879.435 2.99868 -0.480898 0
M  V30 9787 H 877.02 1.46332 -0.301226 0
M  V30 9788 H 878.902 3.79084 1.84047 0
M  V30 9789 H 877.577 2.59835 1.93048 0
M  V30 9790 H 876.484 3.74001 -0.0860941 0
M  V30 9791 H 877.817 4.92111 -0.0935896 0
M  V30 9792 N 879.47 0.276058 1.55163 0
M  V30 9793 C 880.402 -0.644254 2.19959 0
M  V30 9794 C 881.415 -1.11675 1.18459 0
M  V30 9795 O 882.604 -1.0385 1.45181 0
M  V30 9796 C 879.704 -1.89093 2.81242 0
M  V30 9797 C 878.877 -1.56509 4.08441 0
M  V30 9798 C 877.936 -2.66433 4.53762 0
M  V30 9799 O 876.962 -2.32579 5.19515 0
M  V30 9800 N 878.164 -3.96509 4.23982 0
M  V30 9801 H 880.929 -0.0896808 2.99566 0
M  V30 9802 H 878.49 0.0971981 1.61608 0
M  V30 9803 H 880.482 -2.61929 3.08505 0
M  V30 9804 H 879.052 -2.35453 2.05622 0
M  V30 9805 H 878.272 -0.670522 3.88455 0
M  V30 9806 H 879.56 -1.32242 4.91314 0
M  V30 9807 H 878.958 -4.26834 3.71254 0
M  V30 9808 H 877.515 -4.6572 4.56014 0
M  V30 9809 N 880.948 -1.576 0.00335426 0
M  V30 9810 C 881.858 -2.12067 -1.00322 0
M  V30 9811 C 882.874 -1.06672 -1.37467 0
M  V30 9812 O 884.05 -1.38592 -1.46131 0
M  V30 9813 C 881.115 -2.61593 -2.27531 0
M  V30 9814 C 880.176 -3.81602 -1.96668 0
M  V30 9815 C 879.409 -4.28756 -3.17811 0
M  V30 9816 O 879.632 -3.75222 -4.2961 0
M  V30 9817 O 878.566 -5.20877 -3.01613 0
M  V30 9818 H 882.392 -2.98299 -0.570199 0
M  V30 9819 H 879.977 -1.47835 -0.215682 0
M  V30 9820 H 881.859 -2.93631 -3.02256 0
M  V30 9821 H 880.534 -1.78457 -2.70065 0
M  V30 9822 H 879.441 -3.54531 -1.19408 0
M  V30 9823 H 880.774 -4.65822 -1.58968 0
M  V30 9824 N 882.426 0.269451 -1.5528 0
M  V30 9825 C 883.656 1.01724 -1.79821 0
M  V30 9826 C 884.064 1.80298 -0.573532 0
M  V30 9827 O 883.407 1.77666 0.466963 0
M  V30 9828 C 883.469 2.02043 -2.97353 0
M  V30 9829 C 883.133 1.42375 -4.34256 0
M  V30 9830 C 884.13 0.837611 -5.13108 0
M  V30 9831 C 881.815 1.44988 -4.8092 0
M  V30 9832 C 883.809 0.285557 -6.3676 0
M  V30 9833 C 881.496 0.893969 -6.04526 0
M  V30 9834 C 882.494 0.312809 -6.82283 0
M  V30 9835 O 882.182 -0.234582 -8.03558 0
M  V30 9836 H 881.914 0.30604 -0.602757 0
M  V30 9837 H 884.468 0.30454 -2.0313 0
M  V30 9838 H 882.698 2.77082 -2.69745 0
M  V30 9839 H 884.387 2.6298 -3.09187 0
M  V30 9840 H 885.153 0.81009 -4.78187 0
M  V30 9841 H 881.032 1.89162 -4.20403 0
M  V30 9842 H 884.576 -0.168696 -6.97396 0
M  V30 9843 H 880.473 0.918742 -6.38928 0
M  V30 9844 H 881.241 -0.124282 -8.18406 0
M  V30 9845 N 883.904 1.48273 0.534124 0
M  V30 9846 C 885.32 1.34302 0.862272 0
M  V30 9847 C 885.52 0.350902 1.98421 0
M  V30 9848 O 884.576 -0.229364 2.51456 0
M  V30 9849 C 885.889 2.74227 1.23371 0
M  V30 9850 C 887.437 2.82684 1.34383 0
M  V30 9851 C 887.912 4.23301 1.74871 0
M  V30 9852 N 889.403 4.25954 1.81981 0
M  V30 9853 C 890.138 5.31693 2.14686 0
M  V30 9854 N 889.634 6.47714 2.45844 0
M  V30 9855 N 891.427 5.19084 2.15657 0
M  V30 9856 H 883.578 2.11397 -0.206215 0
M  V30 9857 H 885.841 0.947537 -0.0296116 0
M  V30 9858 H 885.547 3.48368 0.482967 0
M  V30 9859 H 885.421 3.07485 2.18478 0
M  V30 9860 H 887.808 2.08801 2.08534 0
M  V30 9861 H 887.889 2.5305 0.374063 0
M  V30 9862 H 887.533 4.97699 1.01282 0
M  V30 9863 H 887.463 4.50376 2.7289 0
M  V30 9864 H 889.954 3.42266 1.60196 0
M  V30 9865 H 890.267 7.2414 2.69892 0
M  V30 9866 H 888.612 6.50995 2.43372 0
M  V30 9867 H 891.803 4.27463 1.9077 0
M  V30 9868 H 891.976 6.01592 2.40813 0
M  V30 9869 N 885.382 -0.782676 1.36792 0
M  V30 9870 C 886.798 -1.08169 1.17352 0
M  V30 9871 C 886.998 -2.015 0.0022037 0
M  V30 9872 O 886.054 -2.43692 -0.661093 0
M  V30 9873 C 887.367 -1.68969 2.48737 0
M  V30 9874 C 888.915 -1.81278 2.55161 0
M  V30 9875 C 889.39 -2.45492 3.86649 0
M  V30 9876 N 890.881 -2.52954 3.88032 0
M  V30 9877 C 891.616 -3.03465 4.86515 0
M  V30 9878 N 891.112 -3.54232 5.95392 0
M  V30 9879 N 892.905 -3.02239 4.73928 0
M  V30 9880 H 885.056 -0.162757 2.11775 0
M  V30 9881 H 887.319 -0.134823 0.938364 0
M  V30 9882 H 887.025 -1.07859 3.34753 0
M  V30 9883 H 886.899 -2.68397 2.65034 0
M  V30 9884 H 889.286 -2.41524 1.69559 0
M  V30 9885 H 889.367 -0.806367 2.42758 0
M  V30 9886 H 889.011 -1.85889 4.7266 0
M  V30 9887 H 888.941 -3.46718 3.96351 0
M  V30 9888 H 891.432 -2.17014 3.09376 0
M  V30 9889 H 891.745 -3.91145 6.66503 0
M  V30 9890 H 890.09 -3.52366 5.99052 0
M  V30 9891 H 893.281 -2.61871 3.87996 0
M  V30 9892 H 893.454 -3.41295 5.50837 0
M  V30 9893 N 886.86 -1.21182 -1.00761 0
M  V30 9894 C 888.276 -0.968607 -1.26847 0
M  V30 9895 C 888.476 0.346561 -1.98497 0
M  V30 9896 O 887.532 1.07287 -2.28573 0
M  V30 9897 C 888.845 -2.1574 -2.09467 0
M  V30 9898 C 890.393 -2.19937 -2.22703 0
M  V30 9899 C 890.868 -3.38328 -3.08704 0
M  V30 9900 N 892.359 -3.38398 -3.16293 0
M  V30 9901 C 893.094 -4.26653 -3.83086 0
M  V30 9902 N 892.59 -5.25101 -4.5193 0
M  V30 9903 N 894.383 -4.14469 -3.797 0
M  V30 9904 H 886.534 -2.05763 -0.526816 0
M  V30 9905 H 888.797 -0.90087 -0.29519 0
M  V30 9906 H 888.503 -3.11034 -1.64167 0
M  V30 9907 H 888.377 -2.14584 -3.10216 0
M  V30 9908 H 890.764 -1.25201 -2.67224 0
M  V30 9909 H 890.845 -2.25139 -1.21433 0
M  V30 9910 H 890.489 -4.33356 -2.64886 0
M  V30 9911 H 890.419 -3.30364 -4.10082 0
M  V30 9912 H 892.91 -2.67149 -2.67282 0
M  V30 9913 H 893.223 -5.8875 -5.00592 0
M  V30 9914 H 891.568 -5.29029 -4.50726 0
M  V30 9915 H 894.759 -3.3682 -3.25069 0
M  V30 9916 H 894.932 -4.83458 -4.31477 0
M  V30 9917 N 888.338 1.20213 -1.01915 0
M  V30 9918 C 889.586 1.89272 -0.708552 0
M  V30 9919 C 889.907 1.79394 0.76438 0
M  V30 9920 O 889.177 1.198 1.54999 0
M  V30 9921 H 887.757 0.700628 -0.259094 0
M  V30 9922 H 890.419 1.45985 -1.29129 0
M  V30 9923 H 889.515 2.95841 -0.994215 0
M  V30 9924 N 889.816 0.795718 1.36037 0
M  V30 9925 C 891.232 0.478145 1.52269 0
M  V30 9926 C 891.432 -1.0025 1.74792 0
M  V30 9927 O 890.488 -1.78783 1.78305 0
M  V30 9928 C 891.801 1.31406 2.70468 0
M  V30 9929 C 893.349 1.3084 2.84341 0
M  V30 9930 C 893.824 2.12819 4.05551 0
M  V30 9931 N 895.315 2.10298 4.12709 0
M  V30 9932 C 896.05 2.70495 5.05589 0
M  V30 9933 N 895.546 3.39576 6.03871 0
M  V30 9934 N 897.339 2.60195 4.98252 0
M  V30 9935 H 889.49 1.75477 1.19673 0
M  V30 9936 H 891.753 0.74627 0.584624 0
M  V30 9937 H 891.459 2.36435 2.60368 0
M  V30 9938 H 891.333 0.959726 3.64786 0
M  V30 9939 H 893.72 0.266003 2.93899 0
M  V30 9940 H 893.801 1.70254 1.90912 0
M  V30 9941 H 893.445 3.17093 3.96755 0
M  V30 9942 H 893.375 1.70772 4.98141 0
M  V30 9943 H 895.866 1.60026 3.42345 0
M  V30 9944 H 896.179 3.82823 6.71317 0
M  V30 9945 H 894.524 3.43679 6.04077 0
M  V30 9946 H 897.715 2.05823 4.20422 0
M  V30 9947 H 897.888 3.074 5.70447 0
M  V30 9948 N 891.294 -1.47756 0.548274 0
M  V30 9949 C 892.519 -2.07387 0.023475 0
M  V30 9950 C 892.944 -1.39956 -1.25674 0
M  V30 9951 O 892.302 -0.471543 -1.7506 0
M  V30 9952 C 892.35 -3.60224 -0.164669 0
M  V30 9953 O 891.454 -3.93653 -1.22928 0
M  V30 9954 H 890.795 -0.662312 0.0473156 0
M  V30 9955 H 893.325 -1.89905 0.761409 0
M  V30 9956 H 893.335 -4.06211 -0.38166 0
M  V30 9957 H 892.01 -4.08702 0.770425 0
M  V30 9958 H 890.587 -3.59422 -0.993495 0
M  V30 9959 N 892.772 -0.284283 -1.55015 0
M  V30 9960 C 894.188 0.069603 -1.59448 0
M  V30 9961 C 894.388 1.53833 -1.30144 0
M  V30 9962 O 893.444 2.2886 -1.06674 0
M  V30 9963 C 894.757 -0.313287 -2.99064 0
M  V30 9964 C 896.305 -0.260662 -3.11913 0
M  V30 9965 C 896.78 -0.618127 -4.5381 0
M  V30 9966 N 898.271 -0.570026 -4.59679 0
M  V30 9967 C 899.006 -0.8193 -5.67517 0
M  V30 9968 N 898.502 -1.13367 -6.83462 0
M  V30 9969 N 900.295 -0.747482 -5.57108 0
M  V30 9970 H 892.446 -1.24167 -1.72326 0
M  V30 9971 H 894.709 -0.502259 -0.804015 0
M  V30 9972 H 894.415 -1.33509 -3.25374 0
M  V30 9973 H 894.289 0.341369 -3.75652 0
M  V30 9974 H 896.676 0.751869 -2.85361 0
M  V30 9975 H 896.757 -0.949706 -2.37517 0
M  V30 9976 H 896.401 -1.62839 -4.81088 0
M  V30 9977 H 896.331 0.092807 -5.26518 0
M  V30 9978 H 898.822 -0.3373 -3.76392 0
M  V30 9979 H 899.135 -1.3103 -7.61611 0
M  V30 9980 H 897.48 -1.17154 -6.85055 0
M  V30 9981 H 900.671 -0.501658 -4.65404 0
M  V30 9982 H 900.844 -0.945128 -6.4107 0
M  V30 9983 N 894.251 1.57596 -0.0117121 0
M  V30 9984 C 895.476 1.95764 0.684938 0
M  V30 9985 C 895.901 0.887285 1.65858 0
M  V30 9986 O 895.259 -0.153508 1.80649 0
M  V30 9987 C 895.307 3.33031 1.38285 0
M  V30 9988 O 894.411 3.28163 2.49765 0
M  V30 9989 H 893.752 0.638767 0.181309 0
M  V30 9990 H 896.282 2.04486 -0.0683883 0
M  V30 9991 H 896.292 3.68866 1.74362 0
M  V30 9992 H 894.967 4.10483 0.669043 0
M  V30 9993 H 893.544 3.04021 2.15929 0
M  V30 9994 N 895.729 -0.261212 1.5542 0
M  V30 9995 C 897.145 -0.609012 1.47524 0
M  V30 9996 C 897.345 -1.88986 0.699042 0
M  V30 9997 O 896.401 -2.51517 0.222628 0
M  V30 9998 C 897.714 -0.725025 2.91828 0
M  V30 9999 C 899.262 -0.818302 3.02114 0
M  V30 10000 C 899.737 -0.965996 4.47697 0
M  V30 10001 N 901.228 -1.03123 4.51575 0
M  V30 10002 C 901.963 -1.16451 5.6145 0
M  V30 10003 N 901.459 -1.26425 6.81167 0
M  V30 10004 N 903.252 -1.19655 5.49217 0
M  V30 10005 H 895.403 0.579807 2.04333 0
M  V30 10006 H 897.666 0.198072 0.927077 0
M  V30 10007 H 897.372 0.145871 3.51397 0
M  V30 10008 H 897.246 -1.60156 3.41511 0
M  V30 10009 H 899.633 -1.67966 2.42634 0
M  V30 10010 H 899.714 0.0830895 2.55665 0
M  V30 10011 H 899.358 -0.109251 5.07782 0
M  V30 10012 H 899.288 -1.88221 4.91813 0
M  V30 10013 H 901.779 -0.966072 3.65343 0
M  V30 10014 H 902.092 -1.36462 7.60656 0
M  V30 10015 H 900.437 -1.23408 6.83956 0
M  V30 10016 H 903.628 -1.11501 4.54626 0
M  V30 10017 H 903.801 -1.29698 6.34888 0
M  V30 10018 N 897.207 -1.48554 -0.526253 0
M  V30 10019 C 898.117 -1.66044 -1.65731 0
M  V30 10020 C 899.133 -0.542951 -1.65312 0
M  V30 10021 O 900.309 -0.814495 -1.84195 0
M  V30 10022 C 897.374 -1.69959 -3.02184 0
M  V30 10023 C 896.435 -2.93362 -3.13428 0
M  V30 10024 C 895.668 -2.97081 -4.43372 0
M  V30 10025 O 895.891 -2.09103 -5.3069 0
M  V30 10026 O 894.825 -3.8929 -4.59061 0
M  V30 10027 H 898.651 -2.61811 -1.53912 0
M  V30 10028 H 896.236 -1.31999 -0.699759 0
M  V30 10029 H 898.118 -1.75033 -3.83329 0
M  V30 10030 H 896.793 -0.773658 -3.14319 0
M  V30 10031 H 895.7 -2.93818 -2.31564 0
M  V30 10032 H 897.033 -3.85352 -3.06211 0
M  V30 10033 N 898.685 0.775411 -1.37205 0
M  V30 10034 C 900.101 1.07546 -1.17924 0
M  V30 10035 C 900.301 2.01496 -0.0128897 0
M  V30 10036 O 899.357 2.44039 0.64816 0
M  V30 10037 C 900.67 1.67647 -2.49629 0
M  V30 10038 C 902.218 1.79923 -2.56119 0
M  V30 10039 C 902.693 2.43438 -3.87946 0
M  V30 10040 N 904.184 2.50893 -3.89368 0
M  V30 10041 C 904.919 3.00881 -4.88117 0
M  V30 10042 N 904.415 3.5107 -5.97262 0
M  V30 10043 N 906.208 2.99722 -4.75524 0
M  V30 10044 H 898.359 0.151524 -2.11859 0
M  V30 10045 H 900.622 0.129845 -0.939066 0
M  V30 10046 H 900.328 1.06082 -3.3532 0
M  V30 10047 H 900.202 2.66988 -2.66453 0
M  V30 10048 H 902.589 2.40621 -1.70838 0
M  V30 10049 H 902.67 0.793482 -2.43182 0
M  V30 10050 H 902.314 1.8338 -4.73639 0
M  V30 10051 H 902.244 3.44611 -3.98184 0
M  V30 10052 H 904.735 2.1537 -3.10522 0
M  V30 10053 H 905.048 3.87604 -6.68568 0
M  V30 10054 H 903.393 3.49184 -6.00912 0
M  V30 10055 H 906.584 2.5981 -3.8938 0
M  V30 10056 H 906.757 3.38369 -5.52639 0
M  V30 10057 N 900.163 1.21714 1.00117 0
M  V30 10058 C 901.579 0.97532 1.26332 0
M  V30 10059 C 901.779 -0.336029 1.98678 0
M  V30 10060 O 900.835 -1.06073 2.29139 0
M  V30 10061 C 902.148 2.16848 2.0832 0
M  V30 10062 C 903.696 2.21115 2.21533 0
M  V30 10063 C 904.171 3.3996 3.06906 0
M  V30 10064 N 905.662 3.40071 3.14494 0
M  V30 10065 C 906.397 4.28678 3.80818 0
M  V30 10066 N 905.893 5.2749 4.49139 0
M  V30 10067 N 907.686 4.16476 3.77497 0
M  V30 10068 H 899.837 2.06039 0.515897 0
M  V30 10069 H 902.1 0.902423 0.290408 0
M  V30 10070 H 901.806 3.119 1.62515 0
M  V30 10071 H 901.68 2.16226 3.09073 0
M  V30 10072 H 904.067 1.26616 2.66557 0
M  V30 10073 H 904.148 2.2578 1.20238 0
M  V30 10074 H 903.792 4.34755 2.62585 0
M  V30 10075 H 903.722 3.32534 4.08324 0
M  V30 10076 H 906.213 2.68563 2.65861 0
M  V30 10077 H 906.526 5.91397 4.97463 0
M  V30 10078 H 904.871 5.31412 4.47914 0
M  V30 10079 H 908.062 3.38539 3.23278 0
M  V30 10080 H 908.235 4.85739 4.28908 0
M  V30 10081 N 901.641 -1.19671 1.02551 0
M  V30 10082 C 902.869 -1.93233 0.739513 0
M  V30 10083 C 903.284 -1.75298 -0.701158 0
M  V30 10084 O 902.641 -1.07269 -1.47647 0
M  V30 10085 C 902.692 -3.45085 1.07697 0
M  V30 10086 O 902.413 -3.62441 2.46106 0
M  V30 10087 C 903.914 -4.35776 0.813298 0
M  V30 10088 H 901.134 -0.613905 0.270853 0
M  V30 10089 H 903.678 -1.51909 1.36909 0
M  V30 10090 H 901.833 -3.84255 0.492635 0
M  V30 10091 H 902.247 -4.56337 2.58567 0
M  V30 10092 H 903.721 -5.40941 1.09941 0
M  V30 10093 H 904.198 -4.38474 -0.252359 0
M  V30 10094 H 904.804 -4.02282 1.38021 0
M  V30 10095 N 903.119 -0.802921 -1.35613 0
M  V30 10096 C 904.53 -0.443004 -1.81368 0
M  V30 10097 C 904.881 1.03459 -1.66706 0
M  V30 10098 O 904.006 1.80372 -1.19561 0
M  V30 10099 C 904.601 -0.797324 -3.29284 0
M  V30 10100 C 903.16 -0.490055 -3.73196 0
M  V30 10101 C 902.307 -1.02487 -2.57666 0
M  V30 10102 H 905.258 -0.994888 -1.23643 0
M  V30 10103 H 905.279 -0.0934638 -3.80385 0
M  V30 10104 H 904.791 -1.87278 -3.39924 0
M  V30 10105 H 902.892 0.576818 -3.68108 0
M  V30 10106 H 903.005 -1.02012 -4.68114 0
M  V30 10107 H 901.369 -0.44738 -2.5074 0
M  V30 10108 H 902.152 -2.10636 -2.71085 0
M  V30 10109 N 904.597 1.47463 -0.556102 0
M  V30 10110 C 906.008 1.86298 -0.122429 0
M  V30 10111 C 906.359 1.46285 1.30749 0
M  V30 10112 O 905.484 0.865405 1.98342 0
M  V30 10113 C 906.079 3.38115 -0.215407 0
M  V30 10114 C 904.638 3.76046 0.163223 0
M  V30 10115 C 903.785 2.71515 -0.563466 0
M  V30 10116 H 906.736 1.38996 -0.765888 0
M  V30 10117 H 906.757 3.76263 0.566271 0
M  V30 10118 H 906.269 3.67207 -1.25622 0
M  V30 10119 H 904.37 3.5257 1.20519 0
M  V30 10120 H 904.483 4.78705 -0.194568 0
M  V30 10121 H 902.847 2.54699 -0.00667879 0
M  V30 10122 H 903.63 3.03449 -1.60542 0
M  V30 10123 N 906.075 0.2925 1.54862 0
M  V30 10124 C 907.323 -0.318633 1.99572 0
M  V30 10125 C 907.644 -1.55062 1.1824 0
M  V30 10126 O 906.914 -1.93943 0.276226 0
M  V30 10127 H 905.494 -0.120722 0.737181 0
M  V30 10128 H 908.156 0.401862 1.90712 0
M  V30 10129 H 907.252 -0.596542 3.06346 0
M  V30 10130 N 907.553 -1.57587 0.0200696 0
M  V30 10131 C 908.969 -1.56018 -0.336237 0
M  V30 10132 C 909.169 -1.02478 -1.73495 0
M  V30 10133 O 908.225 -0.667487 -2.43518 0
M  V30 10134 C 909.538 -3.00079 -0.193112 0
M  V30 10135 C 911.086 -3.11863 -0.266557 0
M  V30 10136 C 911.561 -4.57747 -0.152326 0
M  V30 10137 N 913.052 -4.62726 -0.209596 0
M  V30 10138 C 913.787 -5.73217 -0.144855 0
M  V30 10139 N 913.283 -6.92794 -0.0295487 0
M  V30 10140 N 915.076 -5.61751 -0.198184 0
M  V30 10141 H 907.227 -1.90722 0.93482 0
M  V30 10142 H 909.49 -0.876909 0.360186 0
M  V30 10143 H 909.196 -3.43167 0.770036 0
M  V30 10144 H 909.07 -3.64593 -0.967029 0
M  V30 10145 H 911.457 -2.68693 -1.22016 0
M  V30 10146 H 911.538 -2.50087 0.53758 0
M  V30 10147 H 911.182 -5.01595 0.797817 0
M  V30 10148 H 911.112 -5.17491 -0.97521 0
M  V30 10149 H 913.603 -3.76713 -0.299229 0
M  V30 10150 H 913.916 -7.72799 0.0134071 0
M  V30 10151 H 912.261 -6.95 0.00510737 0
M  V30 10152 H 915.452 -4.67222 -0.286603 0
M  V30 10153 H 915.625 -6.47839 -0.144266 0
M  V30 10154 N 909.032 0.252966 -1.55557 0
M  V30 10155 C 910.257 1.0038 -1.8149 0
M  V30 10156 C 910.682 1.78397 -0.596318 0
M  V30 10157 O 910.04 1.7551 0.454535 0
M  V30 10158 C 910.088 1.9222 -3.05096 0
M  V30 10159 O 909.192 3.01302 -2.81587 0
M  V30 10160 H 908.533 0.285949 -0.599274 0
M  V30 10161 H 911.063 0.275795 -2.02733 0
M  V30 10162 H 911.073 2.338 -3.34368 0
M  V30 10163 H 909.748 1.34852 -3.93431 0
M  V30 10164 H 908.325 2.63894 -2.63466 0
M  V30 10165 N 910.51 1.48831 0.518367 0
M  V30 10166 C 911.926 1.35209 0.847979 0
M  V30 10167 C 912.126 0.371927 1.98038 0
M  V30 10168 O 911.182 -0.202681 2.51685 0
M  V30 10169 C 912.495 2.7552 1.20455 0
M  V30 10170 C 914.043 2.84094 1.31377 0
M  V30 10171 C 914.518 4.25132 1.70372 0
M  V30 10172 N 916.009 4.27861 1.77453 0
M  V30 10173 C 916.744 5.3394 2.09035 0
M  V30 10174 N 916.24 6.50285 2.3896 0
M  V30 10175 N 918.033 5.21343 2.10139 0
M  V30 10176 H 910.184 2.11166 -0.228624 0
M  V30 10177 H 912.447 0.94717 -0.0396599 0
M  V30 10178 H 912.153 3.48861 0.445991 0
M  V30 10179 H 912.027 3.09785 2.15204 0
M  V30 10180 H 914.414 2.11001 2.06307 0
M  V30 10181 H 914.495 2.53433 0.347203 0
M  V30 10182 H 914.139 4.98745 0.959975 0
M  V30 10183 H 914.069 4.53245 2.68098 0
M  V30 10184 H 916.56 3.43945 1.56557 0
M  V30 10185 H 916.873 7.26961 2.62196 0
M  V30 10186 H 915.218 6.5354 2.36454 0
M  V30 10187 H 918.409 4.29462 1.86225 0
M  V30 10188 H 918.582 6.04112 2.34419 0
M  V30 10189 N 911.988 -0.768124 1.37614 0
M  V30 10190 C 913.213 -1.56239 1.36397 0
M  V30 10191 C 913.638 -1.8804 -0.0475839 0
M  V30 10192 O 912.996 -1.495 -1.02564 0
M  V30 10193 C 913.044 -2.84716 2.21289 0
M  V30 10194 O 912.148 -3.79249 1.62001 0
M  V30 10195 H 911.489 -0.473119 0.465891 0
M  V30 10196 H 914.019 -0.950415 1.81186 0
M  V30 10197 H 914.029 -3.33784 2.34632 0
M  V30 10198 H 912.704 -2.60899 3.2389 0
M  V30 10199 H 911.281 -3.37904 1.57719 0
M  V30 10200 N 913.466 -1.22244 -0.994698 0
M  V30 10201 C 914.413 -0.990906 -2.08446 0
M  V30 10202 C 915.383 0.086737 -1.65873 0
M  V30 10203 O 916.568 -0.0624882 -1.90698 0
M  V30 10204 C 913.708 -0.572813 -3.40313 0
M  V30 10205 C 912.821 -1.72103 -3.96238 0
M  V30 10206 C 911.956 -1.2511 -5.16257 0
M  V30 10207 C 910.995 -2.37098 -5.64315 0
M  V30 10208 N 910.132 -1.91164 -6.75574 0
M  V30 10209 H 914.972 -1.92377 -2.27585 0
M  V30 10210 H 912.509 -0.958576 -1.11578 0
M  V30 10211 H 914.467 -0.311594 -4.16035 0
M  V30 10212 H 913.097 0.323044 -3.21179 0
M  V30 10213 H 912.149 -2.09662 -3.17405 0
M  V30 10214 H 913.461 -2.56347 -4.27888 0
M  V30 10215 H 912.615 -0.947152 -5.99261 0
M  V30 10216 H 911.354 -0.378836 -4.86226 0
M  V30 10217 H 910.359 -2.68283 -4.799 0
M  V30 10218 H 911.584 -3.24837 -5.96371 0
M  V30 10219 H 909.53 -1.06298 -6.47331 0
M  V30 10220 H 909.447 -2.68975 -7.06533 0
M  V30 10221 H 910.715 -1.63833 -7.62088 0
M  V30 10222 N 914.944 1.19125 -1.03184 0
M  V30 10223 C 916.221 1.84674 -0.644574 0
M  V30 10224 C 916.601 1.92042 0.876534 0
M  V30 10225 O 915.949 1.43965 1.77444 0
M  V30 10226 C 916.159 3.23477 -1.3101 0
M  V30 10227 C 917.507 3.99608 -1.43524 0
M  V30 10228 O 918.531 3.32886 -1.2675 0
M  V30 10229 O 917.39 5.19132 -1.70776 0
M  V30 10230 H 914.484 0.795968 -0.22442 0
M  V30 10231 H 917.03 1.2659 -1.13018 0
M  V30 10232 H 915.802 3.12967 -2.34878 0
M  V30 10233 H 915.425 3.89209 -0.812547 0
M  V30 10234 N 916.422 0.810101 1.35185 0
M  V30 10235 C 917.838 0.494269 1.51754 0
M  V30 10236 C 918.038 -0.983907 1.75845 0
M  V30 10237 O 917.094 -1.76882 1.80191 0
M  V30 10238 C 918.407 1.34268 2.69059 0
M  V30 10239 C 919.955 1.33848 2.82938 0
M  V30 10240 C 920.43 2.17109 4.03271 0
M  V30 10241 N 921.921 2.14664 4.10456 0
M  V30 10242 C 922.656 2.75843 5.02691 0
M  V30 10243 N 922.152 3.45962 6.00235 0
M  V30 10244 N 923.945 2.65465 4.95464 0
M  V30 10245 H 916.096 1.76736 1.17805 0
M  V30 10246 H 918.359 0.752429 0.576676 0
M  V30 10247 H 918.065 2.39183 2.57845 0
M  V30 10248 H 917.939 0.998362 3.63748 0
M  V30 10249 H 920.326 0.29716 2.936 0
M  V30 10250 H 920.407 1.72269 1.89095 0
M  V30 10251 H 920.051 3.21283 3.93369 0
M  V30 10252 H 919.981 1.76046 4.96302 0
M  V30 10253 H 922.472 1.63648 3.40628 0
M  V30 10254 H 922.785 3.89922 6.67219 0
M  V30 10255 H 921.13 3.50067 6.00398 0
M  V30 10256 H 924.321 2.1027 4.18215 0
M  V30 10257 H 924.494 3.13433 5.67154 0
M  V30 10258 N 917.9 -1.47166 0.563914 0
M  V30 10259 C 919.316 -1.58018 0.224173 0
M  V30 10260 C 919.516 -1.56163 -1.27339 0
M  V30 10261 O 918.572 -1.4686 -2.05398 0
M  V30 10262 C 919.885 -2.88236 0.856762 0
M  V30 10263 C 921.433 -3.01833 0.82861 0
M  V30 10264 C 921.908 -4.34761 1.44039 0
M  V30 10265 N 923.399 -4.41413 1.40388 0
M  V30 10266 C 924.134 -5.42845 1.84681 0
M  V30 10267 N 923.63 -6.51052 2.3686 0
M  V30 10268 N 925.423 -5.33931 1.75711 0
M  V30 10269 H 917.574 -1.46615 1.53681 0
M  V30 10270 H 919.837 -0.698195 0.64127 0
M  V30 10271 H 919.543 -2.95349 1.90949 0
M  V30 10272 H 919.417 -3.75537 0.353766 0
M  V30 10273 H 921.804 -2.94312 -0.215451 0
M  V30 10274 H 921.885 -2.16056 1.36943 0
M  V30 10275 H 921.529 -4.43037 2.48355 0
M  V30 10276 H 921.459 -5.1928 0.874953 0
M  V30 10277 H 923.95 -3.63811 1.02227 0
M  V30 10278 H 924.263 -7.24633 2.68564 0
M  V30 10279 H 922.608 -6.51924 2.40875 0
M  V30 10280 H 925.799 -4.48295 1.34718 0
M  V30 10281 H 925.972 -6.12841 2.10547 0
M  V30 10282 N 919.378 -0.300708 -1.54705 0
M  V30 10283 C 920.794 0.0526874 -1.59513 0
M  V30 10284 C 920.994 1.52444 -1.31769 0
M  V30 10285 O 920.05 2.27716 -1.09096 0
M  V30 10286 C 921.363 -0.344989 -2.98714 0
M  V30 10287 C 922.911 -0.29373 -3.11619 0
M  V30 10288 C 923.386 -0.666225 -4.53129 0
M  V30 10289 N 924.877 -0.618749 -4.59049 0
M  V30 10290 C 925.612 -0.879447 -5.66616 0
M  V30 10291 N 925.108 -1.2061 -6.82221 0
M  V30 10292 N 926.901 -0.806528 -5.56284 0
M  V30 10293 H 919.052 -1.25988 -1.71 0
M  V30 10294 H 921.315 -0.510758 -0.798643 0
M  V30 10295 H 921.021 -1.36953 -3.2394 0
M  V30 10296 H 920.895 0.301507 -3.75993 0
M  V30 10297 H 923.282 0.72156 -2.86142 0
M  V30 10298 H 923.363 -0.974844 -2.36496 0
M  V30 10299 H 923.007 -1.67932 -4.79334 0
M  V30 10300 H 922.937 0.0369575 -5.26587 0
M  V30 10301 H 925.428 -0.377202 -3.76013 0
M  V30 10302 H 925.741 -1.391 -7.60178 0
M  V30 10303 H 924.086 -1.24413 -6.83774 0
M  V30 10304 H 927.277 -0.550993 -4.64846 0
M  V30 10305 H 927.45 -1.01307 -6.40032 0
M  V30 10306 N 920.856 1.57574 -0.0284266 0
M  V30 10307 C 922.272 1.56194 0.327958 0
M  V30 10308 C 922.472 1.03397 1.72949 0
M  V30 10309 O 921.528 0.680392 2.4316 0
M  V30 10310 C 922.841 3.00177 0.177196 0
M  V30 10311 C 924.389 3.12 0.250014 0
M  V30 10312 C 924.864 4.57821 0.128049 0
M  V30 10313 N 926.355 4.6283 0.185054 0
M  V30 10314 C 927.09 5.73286 0.114454 0
M  V30 10315 N 926.586 6.928 -0.00719225 0
M  V30 10316 N 928.379 5.61848 0.16839 0
M  V30 10317 H 920.53 1.90224 -0.944921 0
M  V30 10318 H 922.793 0.874987 -0.364832 0
M  V30 10319 H 922.499 3.42753 -0.788224 0
M  V30 10320 H 922.373 3.65101 0.94768 0
M  V30 10321 H 924.76 2.69337 1.20589 0
M  V30 10322 H 924.841 2.49799 -0.550835 0
M  V30 10323 H 924.485 5.01165 -0.824407 0
M  V30 10324 H 924.415 5.18001 0.947753 0
M  V30 10325 H 926.906 3.76867 0.279247 0
M  V30 10326 H 927.219 7.72781 -0.0543903 0
M  V30 10327 H 925.564 6.94987 -0.0419648 0
M  V30 10328 H 928.755 4.67367 0.261821 0
M  V30 10329 H 928.928 6.47907 0.109908 0
M  V30 10330 N 922.334 -0.244713 1.55689 0
M  V30 10331 C 923.75 -0.593331 1.48161 0
M  V30 10332 C 923.95 -1.88234 0.719047 0
M  V30 10333 O 923.006 -2.51266 0.249292 0
M  V30 10334 C 924.319 -0.694032 2.92581 0
M  V30 10335 C 925.867 -0.786213 3.02965 0
M  V30 10336 C 926.342 -0.918457 4.48696 0
M  V30 10337 N 927.833 -0.983272 4.52643 0
M  V30 10338 C 928.568 -1.1049 5.62654 0
M  V30 10339 N 928.064 -1.19193 6.8247 0
M  V30 10340 N 929.857 -1.13823 5.50455 0
M  V30 10341 H 922.008 0.601446 2.03707 0
M  V30 10342 H 924.271 0.207894 0.924924 0
M  V30 10343 H 923.977 0.183133 3.51223 0
M  V30 10344 H 923.851 -1.56525 3.4319 0
M  V30 10345 H 926.238 -1.65383 2.44402 0
M  V30 10346 H 926.319 0.110202 2.55563 0
M  V30 10347 H 925.963 -0.0553881 5.0787 0
M  V30 10348 H 925.893 -1.82994 4.93782 0
M  V30 10349 H 928.384 -0.927269 3.66347 0
M  V30 10350 H 928.697 -1.28387 7.62061 0
M  V30 10351 H 927.042 -1.16147 6.85226 0
M  V30 10352 H 930.233 -1.06673 4.55783 0
M  V30 10353 H 930.406 -1.22957 6.36228 0
M  V30 10354 N 923.813 -1.49104 -0.510467 0
M  V30 10355 C 925.229 -1.35657 -0.840797 0
M  V30 10356 C 925.429 -0.382425 -1.97838 0
M  V30 10357 O 924.485 0.189331 -2.51789 0
M  V30 10358 C 925.798 -2.76155 -1.18992 0
M  V30 10359 C 927.346 -2.84786 -1.29868 0
M  V30 10360 C 927.821 -4.2603 -1.68115 0
M  V30 10361 N 929.312 -4.28796 -1.75181 0
M  V30 10362 C 930.047 -5.35041 -2.062 0
M  V30 10363 N 929.543 -6.51543 -2.35508 0
M  V30 10364 N 931.336 -5.2245 -2.07371 0
M  V30 10365 H 923.487 -2.11042 0.23982 0
M  V30 10366 H 925.75 -0.946946 0.0446824 0
M  V30 10367 H 925.456 -3.49092 -0.427484 0
M  V30 10368 H 925.33 -3.10922 -2.13558 0
M  V30 10369 H 927.717 -2.12092 -2.05186 0
M  V30 10370 H 927.798 -2.53613 -0.333758 0
M  V30 10371 H 927.442 -4.99247 -0.933512 0
M  V30 10372 H 927.372 -4.5466 -2.65691 0
M  V30 10373 H 929.863 -3.44771 -1.5473 0
M  V30 10374 H 930.176 -7.28342 -2.58337 0
M  V30 10375 H 928.521 -6.54785 -2.32985 0
M  V30 10376 H 931.712 -4.30444 -1.83945 0
M  V30 10377 H 931.885 -6.05347 -2.31212 0
M  V30 10378 N 925.291 0.760815 -1.38019 0
M  V30 10379 C 926.568 1.5098 -1.24356 0
M  V30 10380 C 926.948 2.10507 0.158169 0
M  V30 10381 O 926.296 1.96455 1.16695 0
M  V30 10382 C 926.506 2.58195 -2.34811 0
M  V30 10383 C 927.854 3.25297 -2.72886 0
M  V30 10384 O 928.878 2.68496 -2.34069 0
M  V30 10385 O 927.737 4.28018 -3.39799 0
M  V30 10386 H 924.831 0.66921 -0.485888 0
M  V30 10387 H 927.377 0.796844 -1.49828 0
M  V30 10388 H 926.149 2.12406 -3.28633 0
M  V30 10389 H 925.772 3.37079 -2.10864 0
M  V30 10390 N 926.769 1.22769 0.988202 0
M  V30 10391 C 927.994 1.08239 1.76915 0
M  V30 10392 C 928.419 -0.362519 1.84574 0
M  V30 10393 O 927.777 -1.26202 1.30165 0
M  V30 10394 C 927.825 1.70363 3.17819 0
M  V30 10395 O 926.929 0.960484 4.01059 0
M  V30 10396 H 926.27 0.379872 0.544604 0
M  V30 10397 H 928.8 1.62663 1.24104 0
M  V30 10398 H 928.81 1.7528 3.6843 0
M  V30 10399 H 927.485 2.75505 3.1156 0
M  V30 10400 H 926.062 0.987667 3.59582 0
M  V30 10401 N 928.247 -1.18576 1.03814 0
M  V30 10402 C 929.663 -1.4051 0.756909 0
M  V30 10403 C 929.863 -1.9057 -0.654631 0
M  V30 10404 O 928.919 -2.0884 -1.41922 0
M  V30 10405 C 930.232 -2.4081 1.80087 0
M  V30 10406 C 931.78 -2.54541 1.82148 0
M  V30 10407 C 932.255 -3.58102 2.85529 0
M  V30 10408 N 933.746 -3.65607 2.84404 0
M  V30 10409 C 934.481 -4.45458 3.61047 0
M  V30 10410 N 933.977 -5.28937 4.47434 0
M  V30 10411 N 935.77 -4.40196 3.49548 0
M  V30 10412 H 927.921 -0.844075 1.94908 0
M  V30 10413 H 930.184 -0.433287 0.843188 0
M  V30 10414 H 929.89 -2.1107 2.81322 0
M  V30 10415 H 929.764 -3.4012 1.63089 0
M  V30 10416 H 932.151 -2.83598 0.815855 0
M  V30 10417 H 932.232 -1.55352 2.03223 0
M  V30 10418 H 931.876 -3.29786 3.86269 0
M  V30 10419 H 931.806 -4.56963 2.6171 0
M  V30 10420 H 934.297 -3.05994 2.21756 0
M  V30 10421 H 934.61 -5.8701 5.02632 0
M  V30 10422 H 932.955 -5.28366 4.51503 0
M  V30 10423 H 936.146 -3.74026 2.81464 0
M  V30 10424 H 936.319 -5.02186 4.09528 0
M  V30 10425 N 929.725 -0.817259 -1.34754 0
M  V30 10426 C 930.95 -0.414423 -2.03217 0
M  V30 10427 C 931.375 0.970037 -1.61158 0
M  V30 10428 O 930.733 1.63016 -0.793436 0
M  V30 10429 C 930.781 -0.518087 -3.56859 0
M  V30 10430 O 929.885 0.464314 -4.09778 0
M  V30 10431 H 929.226 -0.171454 -0.641482 0
M  V30 10432 H 931.756 -1.10611 -1.72123 0
M  V30 10433 H 931.766 -0.391779 -4.06115 0
M  V30 10434 H 930.441 -1.52786 -3.86819 0
M  V30 10435 H 929.018 0.297361 -3.71712 0
M  V30 10436 N 931.203 1.46865 -0.571711 0
M  V30 10437 C 932.428 2.07323 -0.0564655 0
M  V30 10438 C 932.853 1.41938 1.23431 0
M  V30 10439 O 932.211 0.499334 1.74288 0
M  V30 10440 C 932.259 3.6044 0.107339 0
M  V30 10441 O 931.363 3.95558 1.1665 0
M  V30 10442 H 930.704 0.661475 -0.0578465 0
M  V30 10443 H 933.234 1.88669 -0.791524 0
M  V30 10444 H 933.244 4.06767 0.316987 0
M  V30 10445 H 931.919 4.07425 -0.835348 0
M  V30 10446 H 930.496 3.60957 0.936189 0
M  V30 10447 N 932.681 0.308908 1.54543 0
M  V30 10448 C 933.591 -0.572939 2.27496 0
M  V30 10449 C 934.607 -1.14171 1.31305 0
M  V30 10450 O 935.783 -1.16481 1.64299 0
M  V30 10451 C 932.848 -1.72483 3.0075 0
M  V30 10452 C 931.909 -1.18934 4.12496 0
M  V30 10453 C 931.142 -2.28634 4.82247 0
M  V30 10454 O 931.365 -3.48691 4.5141 0
M  V30 10455 O 930.299 -1.94879 5.69478 0
M  V30 10456 H 934.125 0.0190877 3.03694 0
M  V30 10457 H 931.71 0.0750943 1.49211 0
M  V30 10458 H 933.592 -2.39578 3.46671 0
M  V30 10459 H 932.267 -2.30332 2.2744 0
M  V30 10460 H 931.174 -0.483904 3.70957 0
M  V30 10461 H 932.507 -0.656185 4.87806 0
M  V30 10462 N 934.159 -1.57557 0.0367827 0
M  V30 10463 C 935.575 -1.56366 -0.31967 0
M  V30 10464 C 935.775 -1.04313 -1.72398 0
M  V30 10465 O 934.831 -0.693278 -2.42796 0
M  V30 10466 C 936.144 -3.00267 -0.161274 0
M  V30 10467 C 937.692 -3.12128 -0.233464 0
M  V30 10468 C 938.167 -4.57882 -0.103767 0
M  V30 10469 N 939.658 -4.62922 -0.160506 0
M  V30 10470 C 940.393 -5.73338 -0.0840493 0
M  V30 10471 N 939.889 -6.92786 0.043933 0
M  V30 10472 N 941.682 -5.61929 -0.138592 0
M  V30 10473 H 933.833 -1.8972 0.954996 0
M  V30 10474 H 936.096 -0.87304 0.369467 0
M  V30 10475 H 935.802 -3.42331 0.80639 0
M  V30 10476 H 935.676 -3.65599 -0.928304 0
M  V30 10477 H 938.063 -2.69972 -1.19159 0
M  V30 10478 H 938.144 -2.49503 0.564075 0
M  V30 10479 H 937.788 -5.0072 0.850973 0
M  V30 10480 H 937.718 -5.18496 -0.920268 0
M  V30 10481 H 940.209 -3.7701 -0.259257 0
M  V30 10482 H 940.522 -7.72741 0.095372 0
M  V30 10483 H 938.867 -6.94955 0.0788211 0
M  V30 10484 H 942.058 -4.67499 -0.237031 0
M  V30 10485 H 942.231 -6.47956 -0.075546 0
M  V30 10486 N 935.637 0.236453 -1.55816 0
M  V30 10487 C 936.547 1.31418 -1.94336 0
M  V30 10488 C 937.563 1.52095 -0.845164 0
M  V30 10489 O 938.739 1.65515 -1.14746 0
M  V30 10490 C 935.804 2.6468 -2.23932 0
M  V30 10491 C 934.865 2.52435 -3.47239 0
M  V30 10492 C 934.098 3.79342 -3.75414 0
M  V30 10493 O 934.321 4.81694 -3.05495 0
M  V30 10494 O 933.255 3.77347 -4.68927 0
M  V30 10495 H 937.081 1.01739 -2.86152 0
M  V30 10496 H 934.666 0.438084 -1.42833 0
M  V30 10497 H 936.548 3.4341 -2.44228 0
M  V30 10498 H 935.223 2.94071 -1.35292 0
M  V30 10499 H 934.13 1.71955 -3.32238 0
M  V30 10500 H 935.463 2.27987 -4.36214 0
M  V30 10501 N 937.115 1.49373 0.502552 0
M  V30 10502 C 938.025 1.68659 1.63068 0
M  V30 10503 C 939.041 0.569182 1.64427 0
M  V30 10504 O 940.217 0.843695 1.82876 0
M  V30 10505 C 937.282 1.74745 2.99441 0
M  V30 10506 C 936.343 2.98311 3.08721 0
M  V30 10507 C 935.576 3.04097 4.38589 0
M  V30 10508 O 935.799 2.17519 5.27297 0
M  V30 10509 O 934.733 3.96544 4.52809 0
M  V30 10510 H 938.559 2.64226 1.49727 0
M  V30 10511 H 936.144 1.33096 0.67867 0
M  V30 10512 H 938.026 1.8111 3.80496 0
M  V30 10513 H 936.701 0.823565 3.13048 0
M  V30 10514 H 935.608 2.97465 2.2686 0
M  V30 10515 H 936.941 3.90174 3.00041 0
M  V30 10516 N 938.594 -0.753485 1.38421 0
M  V30 10517 C 939.819 -1.54783 1.38047 0
M  V30 10518 C 940.244 -1.8808 -0.0276371 0
M  V30 10519 O 939.602 -1.5058 -1.00973 0
M  V30 10520 C 939.65 -2.82353 2.24297 0
M  V30 10521 O 938.754 -3.77509 1.66014 0
M  V30 10522 H 938.095 -0.468151 0.470883 0
M  V30 10523 H 940.625 -0.931144 1.82184 0
M  V30 10524 H 940.635 -3.31277 2.38159 0
M  V30 10525 H 939.31 -2.57449 3.26639 0
M  V30 10526 H 937.887 -3.36212 1.61294 0
M  V30 10527 N 940.072 -1.23292 -0.981677 0
M  V30 10528 C 941.004 -0.970782 -2.07626 0
M  V30 10529 C 942.017 0.0547506 -1.62708 0
M  V30 10530 O 943.206 -0.180623 -1.77584 0
M  V30 10531 C 940.306 -0.44055 -3.36024 0
M  V30 10532 C 939.479 -1.52595 -4.09919 0
M  V30 10533 C 938.538 -1.00082 -5.16595 0
M  V30 10534 O 937.564 -1.68951 -5.43548 0
M  V30 10535 N 938.766 0.172017 -5.80245 0
M  V30 10536 H 941.531 -1.91316 -2.30691 0
M  V30 10537 H 939.092 -1.14133 -1.14828 0
M  V30 10538 H 941.084 -0.0743111 -4.04632 0
M  V30 10539 H 939.654 0.407211 -3.09936 0
M  V30 10540 H 938.874 -2.06501 -3.35784 0
M  V30 10541 H 940.162 -2.2559 -4.56055 0
M  V30 10542 H 939.56 0.748129 -5.60731 0
M  V30 10543 H 938.117 0.479532 -6.50034 0
M  V30 10544 N 941.55 1.18024 -1.04442 0
M  V30 10545 C 942.775 1.92573 -0.770097 0
M  V30 10546 C 943.2 1.75871 0.667169 0
M  V30 10547 O 942.558 1.07136 1.46258 0
M  V30 10548 C 942.606 3.41904 -1.14602 0
M  V30 10549 O 941.71 4.11491 -0.273712 0
M  V30 10550 H 941.051 0.600636 -0.283076 0
M  V30 10551 H 943.581 1.49645 -1.39526 0
M  V30 10552 H 943.591 3.92623 -1.10956 0
M  V30 10553 H 942.266 3.53382 -2.19304 0
M  V30 10554 H 940.843 3.71059 -0.370124 0
M  V30 10555 N 943.028 0.824394 1.34319 0
M  V30 10556 C 944.444 0.510336 1.51221 0
M  V30 10557 C 944.644 -0.965201 1.76879 0
M  V30 10558 O 943.7 -1.74961 1.82057 0
M  V30 10559 C 945.013 1.37114 2.6762 0
M  V30 10560 C 946.561 1.36842 2.81502 0
M  V30 10561 C 947.036 2.21374 4.00946 0
M  V30 10562 N 948.527 2.19005 4.08156 0
M  V30 10563 C 949.262 2.81159 4.99737 0
M  V30 10564 N 948.758 3.52309 5.96532 0
M  V30 10565 N 950.551 2.70706 4.9262 0
M  V30 10566 H 942.702 1.77976 1.15924 0
M  V30 10567 H 944.965 0.758503 0.568663 0
M  V30 10568 H 944.671 2.41905 2.55294 0
M  V30 10569 H 944.545 1.03689 3.62669 0
M  V30 10570 H 946.932 0.328284 2.93268 0
M  V30 10571 H 947.013 1.74265 1.87257 0
M  V30 10572 H 946.657 3.25437 3.8994 0
M  V30 10573 H 946.587 1.813 4.94407 0
M  V30 10574 H 949.078 1.67252 3.38874 0
M  V30 10575 H 949.391 3.96977 6.63045 0
M  V30 10576 H 947.736 3.56415 5.96652 0
M  V30 10577 H 950.927 2.14694 4.15962 0
M  V30 10578 H 951.1 3.19431 5.63798 0
M  V30 10579 N 944.506 -1.46559 0.579492 0
M  V30 10580 C 945.454 -2.3199 -0.168413 0
M  V30 10581 C 946.448 -1.44288 -0.887551 0
M  V30 10582 O 947.654 -1.60931 -0.806305 0
M  V30 10583 H 944.029 -0.748431 -0.0731799 0
M  V30 10584 H 946 -2.92886 0.570973 0
M  V30 10585 C 944.749 -3.27392 -1.1709 0
M  V30 10586 H 944.072 -3.94853 -0.626958 0
M  V30 10587 H 945.512 -3.89955 -1.66467 0
M  V30 10588 C 943.971 -2.52511 -2.23024 0
M  V30 10589 O 944.501 -2.2858 -3.30324 0
M  V30 10590 N 942.707 -2.1313 -1.97545 0
M  V30 10591 H 942.254 -2.32793 -1.10297 0
M  V30 10592 H 942.212 -1.63348 -2.68635 0
M  V30 10593 N 945.984 -0.3171 -1.54377 0
M  V30 10594 C 946.931 0.551782 -2.24107 0
M  V30 10595 C 947.901 1.11681 -1.22949 0
M  V30 10596 O 949.086 1.15836 -1.51614 0
M  V30 10597 C 946.226 1.70997 -2.99756 0
M  V30 10598 C 945.339 1.17479 -4.15719 0
M  V30 10599 C 944.474 2.29815 -4.78914 0
M  V30 10600 C 943.513 1.73513 -5.86992 0
M  V30 10601 N 942.65 2.79485 -6.44075 0
M  V30 10602 H 947.49 -0.049431 -2.97959 0
M  V30 10603 H 945.027 -0.0361658 -1.47056 0
M  V30 10604 H 946.985 2.39141 -3.41859 0
M  V30 10605 H 945.615 2.28257 -2.28251 0
M  V30 10606 H 944.667 0.385109 -3.78446 0
M  V30 10607 H 945.979 0.72276 -4.93536 0
M  V30 10608 H 945.133 3.05875 -5.23952 0
M  V30 10609 H 943.872 2.78352 -4.00464 0
M  V30 10610 H 942.877 0.959475 -5.41363 0
M  V30 10611 H 944.102 1.2586 -6.67335 0
M  V30 10612 H 942.048 3.27325 -5.68502 0
M  V30 10613 H 941.965 2.38825 -7.17286 0
M  V30 10614 H 943.233 3.55394 -6.93769 0
M  V30 10615 N 947.462 1.57535 -0.0451378 0
M  V30 10616 C 948.739 1.83785 0.669523 0
M  V30 10617 C 949.119 0.932331 1.89396 0
M  V30 10618 O 948.467 -0.00813229 2.28499 0
M  V30 10619 C 948.677 3.33376 1.03255 0
M  V30 10620 C 950.025 4.00243 1.41741 0
M  V30 10621 O 951.049 3.37965 1.12507 0
M  V30 10622 O 949.908 5.10038 1.96275 0
M  V30 10623 H 947.002 0.758342 0.329919 0
M  V30 10624 H 949.548 1.69538 -0.0740415 0
M  V30 10625 H 948.32 3.90965 0.161777 0
M  V30 10626 H 947.943 3.52787 1.83376 0
M  V30 10627 N 948.94 -0.228186 1.55939 0
M  V30 10628 C 949.887 -1.28274 1.91871 0
M  V30 10629 C 950.857 -1.46906 0.775103 0
M  V30 10630 O 952.042 -1.60583 1.03042 0
M  V30 10631 C 949.182 -2.62945 2.23504 0
M  V30 10632 C 948.295 -2.52166 3.50766 0
M  V30 10633 C 947.43 -3.79316 3.71878 0
M  V30 10634 C 946.469 -3.63231 4.92676 0
M  V30 10635 N 945.606 -4.82315 5.10212 0
M  V30 10636 H 950.446 -0.96931 2.81795 0
M  V30 10637 H 947.983 -0.467331 1.39479 0
M  V30 10638 H 949.941 -3.41359 2.39854 0
M  V30 10639 H 948.571 -2.92397 1.36762 0
M  V30 10640 H 947.623 -1.65221 3.42646 0
M  V30 10641 H 948.935 -2.36199 4.39331 0
M  V30 10642 H 948.089 -4.66173 3.88288 0
M  V30 10643 H 946.828 -3.982 2.81581 0
M  V30 10644 H 945.833 -2.74757 4.76223 0
M  V30 10645 H 947.058 -3.45823 5.84451 0
M  V30 10646 H 945.004 -5.01526 4.22856 0
M  V30 10647 H 944.921 -4.6905 5.92898 0
M  V30 10648 H 946.189 -5.70618 5.31051 0
M  V30 10649 N 950.418 -1.49637 -0.494624 0
M  V30 10650 C 951.648 -1.62928 -1.27036 0
M  V30 10651 C 952.056 -0.302464 -1.86767 0
M  V30 10652 O 951.399 0.722878 -1.68879 0
M  V30 10653 C 951.461 -2.64449 -2.43531 0
M  V30 10654 C 951.125 -4.08632 -2.0462 0
M  V30 10655 C 952.122 -4.95238 -1.58225 0
M  V30 10656 C 949.807 -4.54405 -2.1406 0
M  V30 10657 C 951.801 -6.25658 -1.21782 0
M  V30 10658 C 949.488 -5.84836 -1.77228 0
M  V30 10659 C 950.486 -6.70287 -1.31165 0
M  V30 10660 O 950.174 -7.98287 -0.948339 0
M  V30 10661 H 949.906 -0.551263 -0.391261 0
M  V30 10662 H 952.46 -1.96453 -0.599621 0
M  V30 10663 H 950.69 -2.26117 -3.137 0
M  V30 10664 H 952.379 -2.67203 -3.05545 0
M  V30 10665 H 953.145 -4.611 -1.50373 0
M  V30 10666 H 949.024 -3.88056 -2.48865 0
M  V30 10667 H 952.568 -6.92309 -0.857566 0
M  V30 10668 H 948.465 -6.18502 -1.84732 0
M  V30 10669 H 949.233 -8.11353 -1.07925 0
M  V30 10670 N 951.896 0.746133 -1.38819 0
M  V30 10671 C 953.312 1.0502 -1.20179 0
M  V30 10672 C 953.512 2.01423 -0.0556271 0
M  V30 10673 O 952.568 2.45359 0.59625 0
M  V30 10674 C 953.881 1.62315 -2.53129 0
M  V30 10675 C 955.429 1.74449 -2.59878 0
M  V30 10676 C 955.904 2.35155 -3.93022 0
M  V30 10677 N 957.395 2.42577 -3.94602 0
M  V30 10678 C 958.13 2.9046 -4.94389 0
M  V30 10679 N 957.626 3.38322 -6.04574 0
M  V30 10680 N 959.419 2.89568 -4.81775 0
M  V30 10681 H 951.57 0.106551 -2.12133 0
M  V30 10682 H 953.833 0.109897 -0.941609 0
M  V30 10683 H 953.539 0.98946 -3.37495 0
M  V30 10684 H 953.413 2.61276 -2.72057 0
M  V30 10685 H 955.8 2.36943 -1.75903 0
M  V30 10686 H 955.881 0.741721 -2.4481 0
M  V30 10687 H 955.525 1.73292 -4.77422 0
M  V30 10688 H 955.455 3.36088 -4.05404 0
M  V30 10689 H 957.946 2.08735 -3.15021 0
M  V30 10690 H 958.259 3.73336 -6.76639 0
M  V30 10691 H 956.604 3.3636 -6.08184 0
M  V30 10692 H 959.795 2.51492 -3.94803 0
M  V30 10693 H 959.968 3.26571 -5.59692 0
M  V30 10694 N 953.375 1.23811 0.975125 0
M  V30 10695 C 954.323 1.02149 2.0897 0
M  V30 10696 C 955.317 -0.0412172 1.6935 0
M  V30 10697 O 956.523 0.112726 1.79647 0
M  V30 10698 H 952.898 0.313259 0.683647 0
M  V30 10699 H 954.869 1.96686 2.24404 0
M  V30 10700 C 953.618 0.635023 3.41852 0
M  V30 10701 H 952.941 1.44449 3.72793 0
M  V30 10702 H 954.381 0.52301 4.20762 0
M  V30 10703 C 952.84 -0.657207 3.30428 0
M  V30 10704 O 953.37 -1.70494 3.63723 0
M  V30 10705 N 951.576 -0.635122 2.83575 0
M  V30 10706 H 951.123 0.21784 2.56677 0
M  V30 10707 H 951.081 -1.49995 2.76313 0
M  V30 10708 N 954.853 -1.17469 1.05066 0
M  V30 10709 C 955.785 -2.20974 0.608526 0
M  V30 10710 C 956.798 -1.59481 -0.327066 0
M  V30 10711 O 957.987 -1.78096 -0.12 0
M  V30 10712 C 955.087 -3.38652 -0.12969 0
M  V30 10713 C 954.26 -4.29716 0.816285 0
M  V30 10714 C 953.319 -5.26064 0.119556 0
M  V30 10715 O 952.345 -5.64194 0.753241 0
M  V30 10716 N 953.547 -5.69126 -1.14347 0
M  V30 10717 H 956.312 -2.59529 1.49882 0
M  V30 10718 H 953.873 -1.32355 0.932406 0
M  V30 10719 H 955.865 -4.00139 -0.605886 0
M  V30 10720 H 954.435 -2.98705 -0.921638 0
M  V30 10721 H 953.655 -3.6568 1.47213 0
M  V30 10722 H 954.943 -4.87449 1.45845 0
M  V30 10723 H 954.341 -5.4022 -1.67866 0
M  V30 10724 H 952.898 -6.32764 -1.56376 0
M  V30 10725 N 956.331 -0.831506 -1.3388 0
M  V30 10726 C 957.241 -0.261688 -2.33136 0
M  V30 10727 C 958.257 0.608429 -1.63016 0
M  V30 10728 O 959.433 0.514297 -1.94723 0
M  V30 10729 C 956.498 0.559957 -3.42148 0
M  V30 10730 C 955.559 -0.333569 -4.28002 0
M  V30 10731 C 954.792 0.448956 -5.31808 0
M  V30 10732 O 955.015 1.6814 -5.45055 0
M  V30 10733 O 953.949 -0.173197 -6.01651 0
M  V30 10734 H 957.775 -1.08343 -2.83717 0
M  V30 10735 H 955.36 -0.593849 -1.3709 0
M  V30 10736 H 957.242 1.02712 -4.08691 0
M  V30 10737 H 955.917 1.35888 -2.93796 0
M  V30 10738 H 954.824 -0.848416 -3.64352 0
M  V30 10739 H 956.157 -1.09707 -4.79818 0
M  V30 10740 N 957.809 1.4625 -0.587256 0
M  V30 10741 C 959.034 2.07252 -0.0784517 0
M  V30 10742 C 959.459 1.43239 1.21919 0
M  V30 10743 O 958.817 0.517791 1.73749 0
M  V30 10744 C 958.865 3.60534 0.0691037 0
M  V30 10745 O 957.969 3.96773 1.12448 0
M  V30 10746 H 957.31 0.660825 -0.064859 0
M  V30 10747 H 959.84 1.87819 -0.811491 0
M  V30 10748 H 959.85 4.0708 0.273826 0
M  V30 10749 H 958.525 4.06516 -0.878514 0
M  V30 10750 H 957.102 3.6193 0.897852 0
M  V30 10751 N 959.287 0.325282 1.54207 0
M  V30 10752 C 960.234 -0.539889 2.24397 0
M  V30 10753 C 961.204 -1.11028 1.2354 0
M  V30 10754 O 962.389 -1.1503 1.52226 0
M  V30 10755 C 959.529 -1.69405 3.00659 0
M  V30 10756 C 958.642 -1.15273 4.16337 0
M  V30 10757 C 957.777 -2.27272 4.80126 0
M  V30 10758 C 956.816 -1.70397 5.87904 0
M  V30 10759 N 955.953 -2.76065 6.45548 0
M  V30 10760 H 960.793 0.0652318 2.97929 0
M  V30 10761 H 958.33 0.043964 1.47034 0
M  V30 10762 H 960.288 -2.37325 3.43122 0
M  V30 10763 H 958.918 -2.27043 2.29458 0
M  V30 10764 H 957.97 -0.365034 3.78645 0
M  V30 10765 H 959.282 -0.696576 4.93912 0
M  V30 10766 H 958.436 -3.03092 5.25566 0
M  V30 10767 H 957.175 -2.76224 4.01935 0
M  V30 10768 H 956.18 -0.930752 5.41864 0
M  V30 10769 H 957.405 -1.22319 6.67993 0
M  V30 10770 H 955.351 -3.24306 5.7023 0
M  V30 10771 H 955.268 -2.35018 7.18542 0
M  V30 10772 H 956.536 -3.5171 6.95644 0
M  V30 10773 N 960.765 -1.57509 0.0534917 0
M  V30 10774 C 961.99 -1.97511 -0.632794 0
M  V30 10775 C 962.415 -0.930947 -1.63447 0
M  V30 10776 O 961.773 0.105558 -1.80992 0
M  V30 10777 C 961.821 -3.3658 -1.29407 0
M  V30 10778 O 960.925 -3.3467 -2.40977 0
M  V30 10779 H 960.266 -0.643349 -0.16431 0
M  V30 10780 H 962.796 -2.04232 0.12258 0
M  V30 10781 H 962.806 -3.73359 -1.64521 0
M  V30 10782 H 961.481 -4.12113 -0.559976 0
M  V30 10783 H 960.058 -3.09639 -2.07793 0
M  V30 10784 N 962.243 0.219913 -1.56058 0
M  V30 10785 C 963.468 0.965073 -1.83579 0
M  V30 10786 C 963.893 1.77092 -0.634024 0
M  V30 10787 O 963.251 1.76434 0.417205 0
M  V30 10788 C 963.299 1.85705 -3.09105 0
M  V30 10789 O 962.403 2.95261 -2.87914 0
M  V30 10790 H 961.744 0.273173 -0.605204 0
M  V30 10791 H 964.274 0.23273 -2.03272 0
M  V30 10792 H 964.284 2.26655 -3.39252 0
M  V30 10793 H 962.959 1.26476 -3.96203 0
M  V30 10794 H 961.536 2.58246 -2.69005 0
M  V30 10795 N 963.721 1.49897 0.486681 0
M  V30 10796 C 964.671 1.6401 1.58381 0
M  V30 10797 C 965.655 0.495215 1.5309 0
M  V30 10798 O 966.847 0.748876 1.60377 0
M  V30 10799 C 963.976 1.72321 2.96918 0
M  V30 10800 C 963.062 2.92435 3.07152 0
M  V30 10801 N 963.453 4.16326 2.87238 0
M  V30 10802 C 961.751 2.90669 3.38271 0
M  V30 10803 C 962.452 4.97144 3.02031 0
M  V30 10804 N 961.428 4.3079 3.31544 0
M  V30 10805 H 965.23 2.57506 1.41661 0
M  V30 10806 H 962.744 1.46867 0.693106 0
M  V30 10807 H 964.741 1.80532 3.75784 0
M  V30 10808 H 963.401 0.799724 3.14697 0
M  V30 10809 H 964.412 4.46076 2.63128 0
M  V30 10810 H 961.089 2.07758 3.62137 0
M  V30 10811 H 962.479 6.05611 2.91006 0
M  V30 10812 N 965.199 -0.738761 1.39212 0
M  V30 10813 C 966.615 -1.04381 1.20734 0
M  V30 10814 C 966.815 -2.01391 0.0663082 0
M  V30 10815 O 965.871 -2.45672 -0.583229 0
M  V30 10816 C 967.184 -1.6097 2.53987 0
M  V30 10817 C 968.732 -1.73069 2.60799 0
M  V30 10818 C 969.207 -2.33067 3.94264 0
M  V30 10819 N 970.698 -2.40481 3.95883 0
M  V30 10820 C 971.433 -2.87834 4.95923 0
M  V30 10821 N 970.929 -3.35111 6.0636 0
M  V30 10822 N 972.722 -2.87009 4.83304 0
M  V30 10823 H 964.873 -0.0952996 2.12186 0
M  V30 10824 H 967.136 -0.104902 0.942178 0
M  V30 10825 H 966.842 -0.971548 3.38015 0
M  V30 10826 H 966.716 -2.59829 2.73439 0
M  V30 10827 H 969.103 -2.36007 1.77157 0
M  V30 10828 H 969.184 -0.728728 2.452 0
M  V30 10829 H 968.828 -1.70758 4.78335 0
M  V30 10830 H 968.758 -3.33933 4.07181 0
M  V30 10831 H 971.249 -2.07061 3.16123 0
M  V30 10832 H 971.562 -3.69742 6.78609 0
M  V30 10833 H 969.907 -3.33129 6.09959 0
M  V30 10834 H 973.098 -2.49395 3.96131 0
M  V30 10835 H 973.271 -3.23598 5.61416 0
M  V30 10836 N 966.677 -1.24326 -0.968545 0
M  V30 10837 C 967.624 -1.0349 -2.06297 0
M  V30 10838 C 968.594 0.0515333 -1.6602 0
M  V30 10839 O 969.779 -0.102924 -1.90522 0
M  V30 10840 C 966.919 -0.64487 -3.39021 0
M  V30 10841 C 966.032 -1.80469 -3.92498 0
M  V30 10842 C 965.167 -1.36032 -5.13487 0
M  V30 10843 C 964.206 -2.49014 -5.59159 0
M  V30 10844 N 963.343 -2.05451 -6.71367 0
M  V30 10845 H 968.183 -1.97161 -2.23454 0
M  V30 10846 H 965.72 -0.982028 -1.0952 0
M  V30 10847 H 967.678 -0.399771 -4.1528 0
M  V30 10848 H 966.308 0.254845 -3.21792 0
M  V30 10849 H 965.36 -2.16348 -3.12886 0
M  V30 10850 H 966.672 -2.65365 -4.22354 0
M  V30 10851 H 965.826 -1.07405 -5.97117 0
M  V30 10852 H 964.565 -0.481887 -4.85313 0
M  V30 10853 H 963.57 -2.78402 -4.74102 0
M  V30 10854 H 964.795 -3.37413 -5.89346 0
M  V30 10855 H 962.741 -1.20004 -6.4493 0
M  V30 10856 H 962.658 -2.83901 -7.00668 0
M  V30 10857 H 963.926 -1.79962 -7.58442 0
M  V30 10858 N 968.156 1.1691 -1.05688 0
M  V30 10859 C 969.066 2.24735 -0.67315 0
M  V30 10860 C 970.082 1.71252 0.308043 0
M  V30 10861 O 971.258 2.00772 0.158889 0
M  V30 10862 C 968.323 3.4665 -0.059026 0
M  V30 10863 C 967.384 4.15198 -1.0913 0
M  V30 10864 C 966.617 5.31292 -0.50639 0
M  V30 10865 O 966.84 5.663 0.682692 0
M  V30 10866 O 965.774 5.88923 -1.2431 0
M  V30 10867 H 969.6 2.59855 -1.57191 0
M  V30 10868 H 967.185 1.24306 -0.828751 0
M  V30 10869 H 969.067 4.20455 0.282018 0
M  V30 10870 H 967.742 3.13316 0.813304 0
M  V30 10871 H 966.649 3.43389 -1.48442 0
M  V30 10872 H 967.982 4.52571 -1.93495 0
M  V30 10873 N 969.634 0.838594 1.33437 0
M  V30 10874 C 970.582 0.260158 2.31141 0
M  V30 10875 C 971.576 -0.607706 1.58124 0
M  V30 10876 O 972.782 -0.497298 1.72994 0
M  V30 10877 H 969.157 0.0654031 0.74915 0
M  V30 10878 H 971.128 1.09874 2.77435 0
M  V30 10879 C 969.877 -0.550234 3.43319 0
M  V30 10880 H 969.2 0.108262 3.99653 0
M  V30 10881 H 970.64 -0.920815 4.1388 0
M  V30 10882 C 969.099 -1.729 2.89149 0
M  V30 10883 O 969.629 -2.82769 2.85315 0
M  V30 10884 N 967.835 -1.5508 2.45761 0
M  V30 10885 H 967.382 -0.657055 2.49079 0
M  V30 10886 H 967.34 -2.34099 2.0987 0
M  V30 10887 N 971.112 -1.45937 0.595003 0
M  V30 10888 C 972.337 -2.07207 0.0894416 0
M  V30 10889 C 972.762 -1.43884 -1.21157 0
M  V30 10890 O 972.12 -0.526998 -1.73472 0
M  V30 10891 C 972.168 -3.60565 -0.0499828 0
M  V30 10892 O 971.272 -3.97364 -1.10342 0
M  V30 10893 H 970.613 -0.660471 0.0683627 0
M  V30 10894 H 973.143 -1.87386 0.82144 0
M  V30 10895 H 973.153 -4.0722 -0.252234 0
M  V30 10896 H 971.828 -4.06044 0.90006 0
M  V30 10897 H 970.405 -3.62401 -0.878645 0
M  V30 10898 N 972.59 -0.333456 -1.54032 0
M  V30 10899 C 973.5 0.536674 -2.28379 0
M  V30 10900 C 974.516 1.12068 -1.33104 0
M  V30 10901 O 975.692 1.13853 -1.66131 0
M  V30 10902 C 972.757 1.67677 -3.03456 0
M  V30 10903 C 971.818 1.12357 -4.14336 0
M  V30 10904 C 971.051 2.20933 -4.85823 0
M  V30 10905 O 971.274 3.41466 -4.569 0
M  V30 10906 O 970.208 1.85795 -5.72507 0
M  V30 10907 H 974.034 -0.0674003 -3.03625 0
M  V30 10908 H 971.619 -0.098823 -1.49073 0
M  V30 10909 H 973.501 2.34032 -3.50438 0
M  V30 10910 H 972.176 2.26684 -2.31076 0
M  V30 10911 H 971.083 0.424827 -3.7168 0
M  V30 10912 H 972.416 0.578497 -4.88789 0
M  V30 10913 N 974.068 1.57479 -0.061844 0
M  V30 10914 C 975.293 1.97843 0.622311 0
M  V30 10915 C 975.718 0.939602 1.62951 0
M  V30 10916 O 975.076 -0.095958 1.81046 0
M  V30 10917 C 975.124 3.37262 1.2762 0
M  V30 10918 O 974.228 3.35943 2.39199 0
M  V30 10919 H 973.569 0.644212 0.160896 0
M  V30 10920 H 976.099 2.04165 -0.133409 0
M  V30 10921 H 976.109 3.74226 1.62539 0
M  V30 10922 H 974.784 4.12404 0.538112 0
M  V30 10923 H 973.361 3.10737 2.06148 0
M  V30 10924 N 975.546 -0.211634 1.56173 0
M  V30 10925 C 976.456 -1.2831 1.96402 0
M  V30 10926 C 977.472 -1.50731 0.869254 0
M  V30 10927 O 978.648 -1.63669 1.17365 0
M  V30 10928 C 975.713 -2.61084 2.28114 0
M  V30 10929 C 974.774 -2.46879 3.51211 0
M  V30 10930 C 974.007 -3.73321 3.81401 0
M  V30 10931 O 974.23 -4.76773 3.13119 0
M  V30 10932 O 973.164 -3.69839 4.74871 0
M  V30 10933 H 976.99 -0.971733 2.87734 0
M  V30 10934 H 974.575 -0.415305 1.43512 0
M  V30 10935 H 976.457 -3.39481 2.49661 0
M  V30 10936 H 975.132 -2.91881 1.39954 0
M  V30 10937 H 974.039 -1.66648 3.34932 0
M  V30 10938 H 975.372 -2.21018 4.39786 0
M  V30 10939 N 977.024 -1.50153 -0.478725 0
M  V30 10940 C 977.971 -1.68458 -1.57767 0
M  V30 10941 C 978.941 -0.5259 -1.57555 0
M  V30 10942 O 980.126 -0.755574 -1.75202 0
M  V30 10943 C 977.266 -1.77772 -2.95789 0
M  V30 10944 C 976.379 -3.05092 -3.05848 0
M  V30 10945 C 975.514 -3.05247 -4.34739 0
M  V30 10946 C 974.553 -4.27053 -4.38512 0
M  V30 10947 N 973.69 -4.24991 -5.58862 0
M  V30 10948 H 978.53 -2.62282 -1.41464 0
M  V30 10949 H 976.067 -1.30023 -0.687921 0
M  V30 10950 H 978.025 -1.81152 -3.75819 0
M  V30 10951 H 976.655 -0.873944 -3.10744 0
M  V30 10952 H 975.707 -3.11219 -2.1874 0
M  V30 10953 H 977.019 -3.95075 -3.04495 0
M  V30 10954 H 976.173 -3.07314 -5.23109 0
M  V30 10955 H 974.912 -2.13081 -4.38689 0
M  V30 10956 H 973.917 -4.25206 -3.4854 0
M  V30 10957 H 975.142 -5.20437 -4.36259 0
M  V30 10958 H 973.088 -3.35674 -5.63612 0
M  V30 10959 H 973.005 -5.08734 -5.59219 0
M  V30 10960 H 974.273 -4.31193 -6.49379 0
M  V30 10961 N 978.502 0.731368 -1.39602 0
M  V30 10962 C 979.918 1.03739 -1.21286 0
M  V30 10963 C 980.118 2.01353 -0.0769875 0
M  V30 10964 O 979.174 2.45978 0.570193 0
M  V30 10965 C 980.487 1.59621 -2.54837 0
M  V30 10966 C 982.035 1.71683 -2.61713 0
M  V30 10967 C 982.51 2.30973 -3.95494 0
M  V30 10968 N 984.001 2.38378 -3.97153 0
M  V30 10969 C 984.736 2.852 -4.97442 0
M  V30 10970 N 984.232 3.31891 -6.08129 0
M  V30 10971 N 986.025 2.84441 -4.84819 0
M  V30 10972 H 978.176 0.0840456 -2.12234 0
M  V30 10973 H 980.439 0.0999038 -0.942721 0
M  V30 10974 H 980.145 0.953608 -3.38525 0
M  V30 10975 H 980.019 2.58375 -2.74813 0
M  V30 10976 H 982.406 2.35064 -1.78406 0
M  V30 10977 H 982.487 0.715714 -2.45583 0
M  V30 10978 H 982.131 1.68219 -4.79234 0
M  V30 10979 H 982.061 3.31769 -4.08946 0
M  V30 10980 H 984.552 2.05382 -3.17217 0
M  V30 10981 H 984.865 3.66138 -6.8056 0
M  V30 10982 H 983.21 3.2989 -6.11717 0
M  V30 10983 H 986.401 2.4729 -3.97448 0
M  V30 10984 H 986.574 3.20616 -5.63124 0
M  V30 10985 N 979.98 1.24838 0.961938 0
M  V30 10986 C 980.913 0.989041 2.05653 0
M  V30 10987 C 981.891 -0.079199 1.62407 0
M  V30 10988 O 983.075 0.0589397 1.88408 0
M  V30 10989 C 980.202 0.493661 3.35083 0
M  V30 10990 C 979.248 1.55132 3.97286 0
M  V30 10991 S 980.081 3.13438 4.34185 0
M  V30 10992 C 981.237 2.65617 5.66744 0
M  V30 10993 H 981.47 1.91588 2.27335 0
M  V30 10994 H 979.003 1.08287 1.10061 0
M  V30 10995 H 980.961 0.214482 4.09939 0
M  V30 10996 H 979.622 -0.412559 3.11379 0
M  V30 10997 H 978.815 1.15525 4.90581 0
M  V30 10998 H 978.417 1.78081 3.28882 0
M  V30 10999 H 980.709 2.08788 6.44526 0
M  V30 11000 H 981.652 3.57524 6.11214 0
M  V30 11001 H 982.06 2.05853 5.25628 0
M  V30 11002 N 981.458 -1.16348 1.06306 0
M  V30 11003 C 982.688 -1.90505 0.799453 0
M  V30 11004 C 983.096 -1.77686 -0.649955 0
M  V30 11005 O 982.439 -1.11921 -1.45669 0
M  V30 11006 C 982.501 -3.41775 1.11492 0
M  V30 11007 C 982.165 -3.7838 2.56277 0
M  V30 11008 C 983.162 -3.80288 3.54509 0
M  V30 11009 C 980.847 -4.09007 2.9158 0
M  V30 11010 C 982.841 -4.12312 4.86084 0
M  V30 11011 C 980.528 -4.40697 4.23354 0
M  V30 11012 C 981.526 -4.4233 5.20416 0
M  V30 11013 O 981.214 -4.73267 6.49826 0
M  V30 11014 H 980.946 -0.61094 0.289359 0
M  V30 11015 H 983.5 -1.48409 1.41999 0
M  V30 11016 H 981.73 -3.84219 0.437306 0
M  V30 11017 H 983.419 -3.97207 0.835533 0
M  V30 11018 H 984.185 -3.56738 3.28577 0
M  V30 11019 H 980.064 -4.06901 2.16686 0
M  V30 11020 H 983.608 -4.13501 5.61838 0
M  V30 11021 H 979.505 -4.63713 4.49044 0
M  V30 11022 H 980.273 -4.91078 6.54817 0
M  V30 11023 N 982.937 -0.845659 -1.3299 0
M  V30 11024 C 984.162 -0.457435 -2.02293 0
M  V30 11025 C 984.587 0.935634 -1.63179 0
M  V30 11026 O 983.945 1.61297 -0.827835 0
M  V30 11027 C 983.993 -0.593665 -3.5568 0
M  V30 11028 O 983.097 0.37729 -4.10671 0
M  V30 11029 H 982.438 -0.185022 -0.637701 0
M  V30 11030 H 984.968 -1.14237 -1.69738 0
M  V30 11031 H 984.978 -0.477834 -4.05192 0
M  V30 11032 H 983.653 -1.60957 -3.83491 0
M  V30 11033 H 982.23 0.218448 -3.7226 0
M  V30 11034 N 984.415 1.45619 -0.602734 0
M  V30 11035 C 985.362 2.30493 0.118944 0
M  V30 11036 C 986.332 1.41816 0.864723 0
M  V30 11037 O 987.517 1.7075 0.851424 0
M  V30 11038 C 984.657 3.2664 1.11356 0
M  V30 11039 C 983.77 4.3042 0.369161 0
M  V30 11040 C 982.905 5.13678 1.35307 0
M  V30 11041 C 981.944 6.09189 0.596207 0
M  V30 11042 N 981.081 6.85245 1.52916 0
M  V30 11043 H 985.921 2.91672 -0.610836 0
M  V30 11044 H 983.458 1.43731 -0.313032 0
M  V30 11045 H 985.416 3.80846 1.7033 0
M  V30 11046 H 984.046 2.67225 1.81081 0
M  V30 11047 H 983.098 3.78913 -0.335994 0
M  V30 11048 H 984.41 4.98307 -0.221603 0
M  V30 11049 H 983.564 5.7226 2.01502 0
M  V30 11050 H 982.303 4.45798 1.97777 0
M  V30 11051 H 981.308 5.49743 -0.0793984 0
M  V30 11052 H 982.533 6.79096 -0.0233734 0
M  V30 11053 H 980.479 6.20058 2.14159 0
M  V30 11054 H 980.396 7.49467 0.991713 0
M  V30 11055 H 981.664 7.48371 2.18083 0
M  V30 11056 N 985.893 0.34162 1.53853 0
M  V30 11057 C 987.118 -0.259608 2.05769 0
M  V30 11058 C 987.543 -1.43588 1.21507 0
M  V30 11059 O 986.901 -1.79856 0.228364 0
M  V30 11060 C 986.949 -0.654455 3.54611 0
M  V30 11061 O 986.053 -1.75472 3.73207 0
M  V30 11062 H 985.394 -0.0434621 0.662576 0
M  V30 11063 H 987.924 0.495274 1.98515 0
M  V30 11064 H 987.934 -0.932142 3.97209 0
M  V30 11065 H 986.609 0.205779 4.15391 0
M  V30 11066 H 985.186 -1.47444 3.42512 0
M  V30 11067 N 987.371 -1.57444 0.0701946 0
M  V30 11068 C 988.787 -1.57009 -0.286431 0
M  V30 11069 C 988.987 -1.07946 -1.70147 0
M  V30 11070 O 988.043 -0.744622 -2.41271 0
M  V30 11071 C 989.356 -3.00542 -0.0975466 0
M  V30 11072 C 990.904 -3.12553 -0.167205 0
M  V30 11073 C 991.379 -4.58 -0.00662047 0
M  V30 11074 N 992.87 -4.63158 -0.0622778 0
M  V30 11075 C 993.605 -5.73388 0.0375831 0
M  V30 11076 N 993.101 -6.92537 0.190873 0
M  V30 11077 N 994.894 -5.62097 -0.0193672 0
M  V30 11078 H 987.045 -1.87651 0.995023 0
M  V30 11079 H 989.308 -0.865006 0.387902 0
M  V30 11080 H 989.014 -3.40543 0.878822 0
M  V30 11081 H 988.888 -3.67485 -0.850547 0
M  V30 11082 H 991.275 -2.72439 -1.13406 0
M  V30 11083 H 991.356 -2.48251 0.616871 0
M  V30 11084 H 991 -4.98803 0.956992 0
M  V30 11085 H 990.93 -5.20332 -0.810081 0
M  V30 11086 H 993.421 -3.77475 -0.179229 0
M  V30 11087 H 993.734 -7.72365 0.25926 0
M  V30 11088 H 992.079 -6.94632 0.226214 0
M  V30 11089 H 995.27 -4.67897 -0.137815 0
M  V30 11090 H 995.443 -6.4797 0.0619121 0
M  V30 11091 N 988.849 0.203349 -1.56283 0
M  V30 11092 C 990.126 0.950415 -1.70958 0
M  V30 11093 C 990.506 2.01708 -0.622647 0
M  V30 11094 O 989.854 2.25523 0.367635 0
M  V30 11095 C 990.064 1.54434 -3.12971 0
M  V30 11096 C 991.412 2.02964 -3.72949 0
M  V30 11097 O 992.436 1.64293 -3.16048 0
M  V30 11098 O 991.295 2.74097 -4.72793 0
M  V30 11099 H 988.389 0.445154 -0.69697 0
M  V30 11100 H 990.935 0.193695 -1.68591 0
M  V30 11101 H 989.707 0.77505 -3.83547 0
M  V30 11102 H 989.33 2.36611 -3.19532 0
M  V30 11103 N 990.327 1.50405 0.470755 0
M  V30 11104 C 991.277 1.65681 1.56633 0
M  V30 11105 C 992.261 0.511424 1.52556 0
M  V30 11106 O 993.453 0.765844 1.59574 0
M  V30 11107 C 990.582 1.7546 2.95074 0
M  V30 11108 C 989.668 2.95676 3.04034 0
M  V30 11109 N 990.059 4.1935 2.82807 0
M  V30 11110 C 988.357 2.94241 3.35169 0
M  V30 11111 C 989.058 5.0032 2.96741 0
M  V30 11112 N 988.034 4.34282 3.26956 0
M  V30 11113 H 991.836 2.58994 1.38922 0
M  V30 11114 H 989.35 1.47593 0.67749 0
M  V30 11115 H 991.347 1.84508 3.73848 0
M  V30 11116 H 990.007 0.833057 3.13832 0
M  V30 11117 H 991.018 4.48842 2.58382 0
M  V30 11118 H 987.695 2.11587 3.59913 0
M  V30 11119 H 989.085 6.08664 2.84566 0
M  V30 11120 N 991.805 -0.723954 1.39988 0
M  V30 11121 C 992.753 -1.85938 1.39749 0
M  V30 11122 C 993.747 -1.67085 0.279112 0
M  V30 11123 O 994.953 -1.74291 0.44972 0
M  V30 11124 H 991.328 -0.612246 0.436644 0
M  V30 11125 H 993.299 -1.83255 2.355 0
M  V30 11126 C 992.048 -3.23726 1.26874 0
M  V30 11127 H 991.371 -3.38835 2.12206 0
M  V30 11128 H 992.811 -4.03332 1.30765 0
M  V30 11129 C 991.27 -3.36893 -0.0218317 0
M  V30 11130 O 991.8 -3.89363 -0.987905 0
M  V30 11131 N 990.006 -2.90465 -0.0885618 0
M  V30 11132 H 989.553 -2.47954 0.698314 0
M  V30 11133 H 989.511 -2.99654 -0.951557 0
M  V30 11134 N 993.283 -1.25346 -0.955304 0
M  V30 11135 C 994.508 -1.12892 -1.73983 0
M  V30 11136 C 994.933 0.313455 -1.8547 0
M  V30 11137 O 994.291 1.22706 -1.33465 0
M  V30 11138 C 994.339 -1.78729 -3.1319 0
M  V30 11139 O 993.443 -1.06648 -3.98372 0
M  V30 11140 H 992.784 -0.394178 -0.534341 0
M  V30 11141 H 995.314 -1.65897 -1.19747 0
M  V30 11142 H 995.324 -1.84987 -3.63653 0
M  V30 11143 H 993.999 -2.83669 -3.04146 0
M  V30 11144 H 992.576 -1.08266 -3.56837 0
M  V30 11145 N 994.761 1.15782 -1.06922 0
M  V30 11146 C 995.986 1.90896 -0.810771 0
M  V30 11147 C 996.411 1.77246 0.629714 0
M  V30 11148 O 995.769 1.10215 1.43953 0
M  V30 11149 C 995.817 3.39397 -1.21829 0
M  V30 11150 O 994.921 4.10818 -0.360934 0
M  V30 11151 H 994.262 0.594497 -0.295752 0
M  V30 11152 H 996.792 1.46652 -1.42669 0
M  V30 11153 H 996.802 3.90181 -1.19259 0
M  V30 11154 H 995.477 3.4865 -2.2675 0
M  V30 11155 H 994.054 3.7019 -0.448748 0
M  V30 11156 N 996.239 0.8527 1.3254 0
M  V30 11157 C 997.187 0.284659 2.30852 0
M  V30 11158 C 998.181 -0.5909 1.5876 0
M  V30 11159 O 999.387 -0.478922 1.73512 0
M  V30 11160 H 995.762 0.0733452 0.748415 0
M  V30 11161 H 997.733 1.1281 2.76254 0
M  V30 11162 C 996.482 -0.51379 3.43883 0
M  V30 11163 H 995.805 0.150644 3.99516 0
M  V30 11164 H 997.245 -0.876866 4.14834 0
M  V30 11165 C 995.704 -1.69823 2.90967 0
M  V30 11166 O 996.234 -2.79727 2.88298 0
M  V30 11167 N 994.44 -1.52465 2.47392 0
M  V30 11168 H 993.987 -0.630599 2.49762 0
M  V30 11169 H 993.945 -2.31859 2.12341 0
M  V30 11170 N 997.718 -1.45297 0.610449 0
M  V30 11171 C 998.666 -2.32295 -0.119167 0
M  V30 11172 C 999.66 -1.46138 -0.856746 0
M  V30 11173 O 1000.87 -1.62605 -0.771988 0
M  V30 11174 H 997.241 -0.749815 -0.0572881 0
M  V30 11175 H 999.212 -2.91609 0.63297 0
M  V30 11176 C 997.961 -3.29802 -1.10119 0
M  V30 11177 H 997.284 -3.96095 -0.543063 0
M  V30 11178 H 998.724 -3.93398 -1.58158 0
M  V30 11179 C 997.183 -2.57185 -2.17617 0
M  V30 11180 O 997.713 -2.35535 -3.25401 0
M  V30 11181 N 995.919 -2.17272 -1.9298 0
M  V30 11182 H 995.466 -2.3508 -1.05334 0
M  V30 11183 H 995.424 -1.69009 -2.6511 0
M  V30 11184 N 999.196 -0.349774 -1.5367 0
M  V30 11185 C 1000.42 0.248692 -2.05904 0
M  V30 11186 C 1000.85 1.42942 -1.22267 0
M  V30 11187 O 1000.2 1.79732 -0.237899 0
M  V30 11188 C 1000.25 0.635639 -3.54953 0
M  V30 11189 O 999.356 1.7349 -3.74132 0
M  V30 11190 H 998.697 0.0399477 -0.662797 0
M  V30 11191 H 1001.23 -0.505795 -1.9825 0
M  V30 11192 H 1001.24 0.911064 -3.97698 0
M  V30 11193 H 999.912 -0.227805 -4.15276 0
M  V30 11194 H 998.489 1.45626 -3.43289 0
M  V30 11195 N 1000.67 1.57404 -0.0785433 0
M  V30 11196 C 1002.09 1.57158 0.2781 0
M  V30 11197 C 1002.29 1.08847 1.69572 0
M  V30 11198 O 1001.35 0.757407 2.40873 0
M  V30 11199 C 1002.66 3.00589 0.0816067 0
M  V30 11200 C 1004.21 3.12637 0.150627 0
M  V30 11201 C 1004.68 4.57997 -0.0176685 0
M  V30 11202 N 1006.17 4.63185 0.0377145 0
M  V30 11203 C 1006.91 5.7336 -0.0679907 0
M  V30 11204 N 1006.4 6.92426 -0.227598 0
M  V30 11205 N 1008.2 5.62099 -0.0104424 0
M  V30 11206 H 1000.35 1.87121 -1.00496 0
M  V30 11207 H 1002.61 0.862937 -0.392484 0
M  V30 11208 H 1002.32 3.40072 -0.896869 0
M  V30 11209 H 1002.19 3.67931 0.831046 0
M  V30 11210 H 1004.58 2.73037 1.11959 0
M  V30 11211 H 1004.66 2.4792 -0.630028 0
M  V30 11212 H 1004.3 4.98288 -0.983431 0
M  V30 11213 H 1004.23 5.20754 0.782475 0
M  V30 11214 H 1006.72 3.77564 0.159208 0
M  V30 11215 H 1007.04 7.72217 -0.300217 0
M  V30 11216 H 1005.38 6.94502 -0.263049 0
M  V30 11217 H 1008.57 4.67964 0.112999 0
M  V30 11218 H 1008.75 6.47928 -0.0962747 0
M  V30 11219 N 1002.15 -0.195058 1.56388 0
M  V30 11220 C 1003.06 -1.26219 1.97752 0
M  V30 11221 C 1004.08 -1.49801 0.885192 0
M  V30 11222 O 1005.25 -1.62415 1.19094 0
M  V30 11223 C 1002.32 -2.5865 2.3087 0
M  V30 11224 C 1001.38 -2.4314 3.5381 0
M  V30 11225 C 1000.61 -3.69255 3.85339 0
M  V30 11226 O 1000.84 -4.73425 3.18159 0
M  V30 11227 O 999.77 -3.64782 4.78767 0
M  V30 11228 H 1003.6 -0.941161 2.88749 0
M  V30 11229 H 1001.18 -0.40006 1.43944 0
M  V30 11230 H 1003.06 -3.36814 2.53247 0
M  V30 11231 H 1001.74 -2.9038 1.43042 0
M  V30 11232 H 1000.64 -1.63086 3.3668 0
M  V30 11233 H 1001.98 -2.16341 4.42105 0
M  V30 11234 N 1003.63 -1.50653 -0.462772 0
M  V30 11235 C 1004.58 -1.70122 -1.55971 0
M  V30 11236 C 1005.55 -0.542581 -1.56988 0
M  V30 11237 O 1006.73 -0.774114 -1.74391 0
M  V30 11238 C 1003.87 -1.80899 -2.93887 0
M  V30 11239 C 1002.98 -3.08318 -3.02595 0
M  V30 11240 C 1002.12 -3.09841 -4.31477 0
M  V30 11241 C 1001.16 -4.3168 -4.33957 0
M  V30 11242 N 1000.3 -4.30894 -5.54323 0
M  V30 11243 H 1005.14 -2.63768 -1.38674 0
M  V30 11244 H 1002.67 -1.30746 -0.674091 0
M  V30 11245 H 1004.63 -1.85128 -3.73876 0
M  V30 11246 H 1003.26 -0.906854 -3.098 0
M  V30 11247 H 1002.31 -3.13521 -2.15427 0
M  V30 11248 H 1003.62 -3.98282 -3.00288 0
M  V30 11249 H 1002.78 -3.12845 -5.1982 0
M  V30 11250 H 1001.52 -2.17722 -4.36404 0
M  V30 11251 H 1000.52 -4.28879 -3.4401 0
M  V30 11252 H 1001.75 -5.25035 -4.30715 0
M  V30 11253 H 999.694 -3.41633 -5.6002 0
M  V30 11254 H 999.611 -5.14636 -5.53792 0
M  V30 11255 H 1000.88 -4.38056 -6.44769 0
M  V30 11256 N 1005.11 0.71652 -1.4037 0
M  V30 11257 C 1006.06 1.8306 -1.40562 0
M  V30 11258 C 1007.03 1.64009 -0.262697 0
M  V30 11259 O 1008.21 1.85157 -0.460619 0
M  V30 11260 C 1005.35 3.2076 -1.27307 0
M  V30 11261 C 1004.46 3.51389 -2.51296 0
M  V30 11262 C 1003.6 4.78589 -2.30491 0
M  V30 11263 C 1002.64 5.02119 -3.50061 0
M  V30 11264 N 1001.77 6.20533 -3.28457 0
M  V30 11265 H 1006.61 1.82231 -2.35788 0
M  V30 11266 H 1004.15 0.890198 -1.17106 0
M  V30 11267 H 1006.11 4.00274 -1.17628 0
M  V30 11268 H 1004.74 3.2082 -0.357005 0
M  V30 11269 H 1003.79 2.66436 -2.71507 0
M  V30 11270 H 1005.1 3.64686 -3.40302 0
M  V30 11271 H 1004.26 5.66119 -2.1816 0
M  V30 11272 H 1003 4.67499 -1.38909 0
M  V30 11273 H 1002 4.13044 -3.6287 0
M  V30 11274 H 1003.23 5.15082 -4.42569 0
M  V30 11275 H 1001.17 6.10695 -2.39556 0
M  V30 11276 H 1001.09 6.34502 -4.11027 0
M  V30 11277 H 1002.36 7.10853 -3.19857 0
M  V30 11278 N 1006.59 1.25851 0.948643 0
M  V30 11279 C 1007.55 1.0683 2.0278 0
M  V30 11280 C 1008.55 0.0191016 1.60789 0
M  V30 11281 O 1009.74 0.261836 1.72221 0
M  V30 11282 C 1006.87 0.623318 3.35153 0
M  V30 11283 H 1008.06 2.02635 2.21086 0
M  V30 11284 H 1005.62 1.08343 1.12657 0
M  V30 11285 H 1006.35 -0.337053 3.22544 0
M  V30 11286 H 1006.14 1.38082 3.66982 0
M  V30 11287 H 1007.63 0.511854 4.14451 0
M  V30 11288 N 1008.06 -1.15214 1.07534 0
M  V30 11289 C 1009.34 -1.82155 0.71267 0
M  V30 11290 C 1009.72 -1.95163 -0.804655 0
M  V30 11291 O 1009.07 -1.50451 -1.71979 0
M  V30 11292 C 1009.28 -3.18392 1.42925 0
M  V30 11293 C 1010.63 -3.94005 1.58256 0
M  V30 11294 O 1011.65 -3.27952 1.39018 0
M  V30 11295 O 1010.51 -5.12436 1.89925 0
M  V30 11296 H 1007.6 -0.78709 0.253808 0
M  V30 11297 H 1010.15 -1.22309 1.17638 0
M  V30 11298 H 1008.92 -3.04034 2.46331 0
M  V30 11299 H 1008.55 -3.85925 0.956439 0
M  V30 11300 N 1009.54 -0.859717 -1.32086 0
M  V30 11301 C 1010.96 -0.55025 -1.49815 0
M  V30 11302 C 1011.16 0.917966 -1.79376 0
M  V30 11303 O 1010.21 1.70073 -1.86632 0
M  V30 11304 C 1011.53 -1.44161 -2.6389 0
M  V30 11305 C 1013.08 -1.44257 -2.77775 0
M  V30 11306 C 1013.55 -2.31926 -3.94936 0
M  V30 11307 N 1015.04 -2.2975 -4.02206 0
M  V30 11308 C 1015.78 -2.9431 -4.92107 0
M  V30 11309 N 1015.27 -3.68001 -5.86981 0
M  V30 11310 N 1017.07 -2.83671 -4.8527 0
M  V30 11311 H 1009.22 -1.80987 -1.11164 0
M  V30 11312 H 1011.48 -0.773313 -0.548353 0
M  V30 11313 H 1011.19 -2.48588 -2.4879 0
M  V30 11314 H 1011.06 -1.13268 -3.59792 0
M  V30 11315 H 1013.45 -0.405923 -2.92295 0
M  V30 11316 H 1013.53 -1.79169 -1.82571 0
M  V30 11317 H 1013.17 -3.35661 -3.81174 0
M  V30 11318 H 1013.1 -1.94344 -4.89426 0
M  V30 11319 H 1015.59 -1.76177 -3.3432 0
M  V30 11320 H 1015.91 -4.14417 -6.52287 0
M  V30 11321 H 1014.25 -3.72109 -5.86992 0
M  V30 11322 H 1017.44 -2.25647 -4.10123 0
M  V30 11323 H 1017.61 -3.34267 -5.5513 0
M  V30 11324 N 1011.02 1.44971 -0.618145 0
M  V30 11325 C 1012.3 1.95539 -0.0489895 0
M  V30 11326 C 1012.68 1.5604 1.42179 0
M  V30 11327 O 1012.03 0.82809 2.12967 0
M  V30 11328 C 1012.24 3.48044 -0.258193 0
M  V30 11329 C 1013.58 4.24354 -0.144541 0
M  V30 11330 O 1014.61 3.55699 -0.18887 0
M  V30 11331 O 1013.47 5.46486 -0.038519 0
M  V30 11332 H 1010.56 0.826466 0.0297256 0
M  V30 11333 H 1013.11 1.55086 -0.688944 0
M  V30 11334 H 1011.88 3.69798 -1.27926 0
M  V30 11335 H 1011.5 3.95412 0.416522 0
M  V30 11336 N 1012.5 0.357919 1.53482 0
M  V30 11337 C 1013.43 -0.526753 2.23065 0
M  V30 11338 C 1014.44 -1.05239 1.24212 0
M  V30 11339 O 1015.63 -0.960078 1.50482 0
M  V30 11340 C 1012.73 -1.73919 2.9087 0
M  V30 11341 C 1011.91 -1.34638 4.16163 0
M  V30 11342 C 1010.96 -2.42005 4.67247 0
M  V30 11343 O 1009.99 -2.04714 5.31113 0
M  V30 11344 N 1011.19 -3.73478 4.44404 0
M  V30 11345 H 1013.96 0.0692386 2.9962 0
M  V30 11346 H 1011.52 0.182726 1.60866 0
M  V30 11347 H 1013.51 -2.45207 3.21956 0
M  V30 11348 H 1012.08 -2.24223 2.17814 0
M  V30 11349 H 1011.3 -0.463667 3.91464 0
M  V30 11350 H 1012.59 -1.06012 4.97633 0
M  V30 11351 H 1011.99 -4.06555 3.93357 0
M  V30 11352 H 1010.54 -4.40893 4.80059 0
M  V30 11353 N 1013.98 -1.5736 0.0868897 0
M  V30 11354 C 1015.2 -1.98809 -0.590757 0
M  V30 11355 C 1015.63 -0.965407 -1.61436 0
M  V30 11356 O 1014.98 0.067143 -1.81176 0
M  V30 11357 C 1015.03 -3.39249 -1.22238 0
M  V30 11358 O 1014.14 -3.39706 -2.33824 0
M  V30 11359 H 1013.48 -0.64669 -0.150626 0
M  V30 11360 H 1016.01 -2.03927 0.165873 0
M  V30 11361 H 1016.02 -3.76765 -1.56564 0
M  V30 11362 H 1014.69 -4.13208 -0.472434 0
M  V30 11363 H 1013.27 -3.13977 -2.01178 0
M  V30 11364 N 1015.45 0.186762 -1.56489 0
M  V30 11365 C 1016.87 0.750675 -1.70944 0
M  V30 11366 C 1017.22 1.83483 -0.694858 0
M  V30 11367 O 1016.34 2.159 0.147009 0
M  V30 11368 C 1016.94 1.36843 -3.09934 0
M  V30 11369 C 1015.5 1.87934 -3.26125 0
M  V30 11370 C 1014.64 0.75242 -2.66897 0
M  V30 11371 H 1017.59 -0.0384292 -1.58653 0
M  V30 11372 H 1017.61 2.23795 -3.07727 0
M  V30 11373 H 1017.13 0.579135 -3.83755 0
M  V30 11374 H 1015.23 2.69556 -2.57235 0
M  V30 11375 H 1015.34 2.0354 -4.33715 0
M  V30 11376 H 1013.7 1.16888 -2.26295 0
M  V30 11377 H 1014.49 -0.0247769 -3.43291 0
M  V30 11378 N 1016.93 1.50896 0.454776 0
M  V30 11379 C 1018.18 1.62699 1.20562 0
M  V30 11380 C 1018.51 0.334943 1.91594 0
M  V30 11381 O 1017.76 -0.680106 1.83502 0
M  V30 11382 C 1018.06 2.76839 2.26042 0
M  V30 11383 C 1017.73 4.16745 1.72147 0
M  V30 11384 C 1016.39 4.54809 1.5717 0
M  V30 11385 C 1018.74 5.04118 1.32341 0
M  V30 11386 C 1016.07 5.7797 1.00835 0
M  V30 11387 C 1018.42 6.27842 0.774419 0
M  V30 11388 C 1017.09 6.64694 0.611415 0
M  V30 11389 H 1016.36 0.595358 0.441169 0
M  V30 11390 H 1019 1.84879 0.499202 0
M  V30 11391 H 1017.31 2.48812 3.02655 0
M  V30 11392 H 1019 2.83173 2.83926 0
M  V30 11393 H 1015.59 3.86725 1.84775 0
M  V30 11394 H 1019.78 4.75331 1.42739 0
M  V30 11395 H 1015.03 6.05183 0.869669 0
M  V30 11396 H 1019.21 6.94896 0.457389 0
M  V30 11397 H 1016.84 7.60004 0.172751 0
M  V30 11398 N 1018.41 -0.709066 1.40748 0
M  V30 11399 C 1019.64 -1.50313 1.42901 0
M  V30 11400 C 1020.06 -1.88072 0.032213 0
M  V30 11401 O 1019.42 -1.53716 -0.96131 0
M  V30 11402 C 1019.47 -2.75074 2.33166 0
M  V30 11403 O 1018.57 -3.72036 1.7794 0
M  V30 11404 H 1017.91 -0.452934 0.485538 0
M  V30 11405 H 1020.44 -0.872712 1.85054 0
M  V30 11406 H 1020.45 -3.23532 2.48578 0
M  V30 11407 H 1019.13 -2.46927 3.34664 0
M  V30 11408 H 1017.7 -3.30911 1.71908 0
M  V30 11409 N 1019.89 -1.26353 -0.941956 0
M  V30 11410 C 1020.84 -1.07842 -2.04056 0
M  V30 11411 C 1021.81 0.0163064 -1.66092 0
M  V30 11412 O 1022.99 -0.143313 -1.90261 0
M  V30 11413 C 1020.13 -0.716636 -3.37577 0
M  V30 11414 C 1019.24 -1.88754 -3.88582 0
M  V30 11415 C 1018.38 -1.46893 -5.10486 0
M  V30 11416 C 1017.42 -2.60819 -5.53751 0
M  V30 11417 N 1016.56 -2.19646 -6.66858 0
M  V30 11418 H 1021.4 -2.01856 -2.19221 0
M  V30 11419 H 1018.93 -1.00504 -1.07412 0
M  V30 11420 H 1020.89 -0.487768 -4.14339 0
M  V30 11421 H 1019.52 0.18653 -3.22261 0
M  V30 11422 H 1018.57 -2.22936 -3.08227 0
M  V30 11423 H 1019.88 -2.74264 -4.1663 0
M  V30 11424 H 1019.04 -1.20047 -5.94705 0
M  V30 11425 H 1017.78 -0.584721 -4.84182 0
M  V30 11426 H 1016.78 -2.88396 -4.6809 0
M  V30 11427 H 1018.01 -3.49838 -5.82057 0
M  V30 11428 H 1015.95 -1.33657 -6.4224 0
M  V30 11429 H 1015.87 -2.987 -6.94489 0
M  V30 11430 H 1017.14 -1.96009 -7.54454 0
M  V30 11431 N 1021.37 1.14642 -1.08144 0
M  V30 11432 C 1022.62 1.84964 -0.804437 0
M  V30 11433 C 1022.93 1.8369 0.672106 0
M  V30 11434 O 1024.14 2.49775 1.06417 0
M  V30 11435 C 1022.59 3.32015 -1.38904 0
M  V30 11436 C 1022.2 3.41713 -2.89718 0
M  V30 11437 C 1023.94 4.07467 -1.19041 0
M  V30 11438 C 1021.85 4.82958 -3.41329 0
M  V30 11439 H 1020.78 0.692932 -0.297256 0
M  V30 11440 H 1023.43 1.29255 -1.30251 0
M  V30 11441 H 1021.81 3.87445 -0.818679 0
M  V30 11442 H 1022.99 2.96347 -3.52867 0
M  V30 11443 H 1021.3 2.79713 -3.08463 0
M  V30 11444 H 1023.9 5.1172 -1.55069 0
M  V30 11445 H 1024.24 4.16097 -0.130027 0
M  V30 11446 H 1024.78 3.58329 -1.72757 0
M  V30 11447 H 1021.51 4.79515 -4.46929 0
M  V30 11448 H 1021.03 5.28873 -2.82937 0
M  V30 11449 H 1022.71 5.51841 -3.37759 0
M  V30 11450 N 1022.85 0.866709 1.31628 0
M  V30 11451 C 1023.79 0.318169 2.28596 0
M  V30 11452 C 1024.76 -0.581558 1.55586 0
M  V30 11453 O 1025.95 -0.513895 1.83749 0
M  V30 11454 C 1023.09 -0.477137 3.41786 0
M  V30 11455 C 1022.2 0.449739 4.29653 0
M  V30 11456 C 1021.34 -0.359373 5.29983 0
M  V30 11457 C 1020.37 0.564138 6.09495 0
M  V30 11458 N 1019.51 -0.208526 7.0179 0
M  V30 11459 H 1024.35 1.15029 2.74904 0
M  V30 11460 H 1021.89 0.578649 1.35241 0
M  V30 11461 H 1023.85 -0.953985 4.06146 0
M  V30 11462 H 1022.48 -1.27398 2.96597 0
M  V30 11463 H 1021.53 1.04502 3.65764 0
M  V30 11464 H 1022.84 1.158 4.85172 0
M  V30 11465 H 1021.99 -0.89887 6.00004 0
M  V30 11466 H 1020.73 -1.10094 4.75111 0
M  V30 11467 H 1019.74 1.11542 5.38366 0
M  V30 11468 H 1020.96 1.30451 6.66453 0
M  V30 11469 H 1018.91 -0.932969 6.49332 0
M  V30 11470 H 1018.83 0.440463 7.54716 0
M  V30 11471 H 1020.09 -0.72936 7.7608 0
M  V30 11472 N 1024.32 -1.44642 0.625825 0
M  V30 11473 C 1025.26 -2.28882 -0.120614 0
M  V30 11474 C 1026.27 -1.40985 -0.81407 0
M  V30 11475 O 1027.46 -1.65188 -0.676404 0
M  V30 11476 C 1024.56 -3.17217 -1.19274 0
M  V30 11477 C 1023.73 -4.33499 -0.582839 0
M  V30 11478 C 1022.79 -5.02908 -1.54823 0
M  V30 11479 O 1021.82 -5.59102 -1.06743 0
M  V30 11480 N 1023.02 -5.0387 -2.88262 0
M  V30 11481 H 1025.78 -2.93585 0.602318 0
M  V30 11482 H 1023.34 -1.5503 0.466604 0
M  V30 11483 H 1025.34 -3.60515 -1.83878 0
M  V30 11484 H 1023.91 -2.54301 -1.81797 0
M  V30 11485 H 1023.13 -3.93458 0.241696 0
M  V30 11486 H 1024.41 -5.08561 -0.155914 0
M  V30 11487 H 1023.81 -4.59539 -3.2991 0
M  V30 11488 H 1022.37 -5.50974 -3.4824 0
M  V30 11489 N 1025.8 -0.366053 -1.5329 0
M  V30 11490 C 1027.03 0.226839 -2.06156 0
M  V30 11491 C 1027.45 1.41637 -1.23776 0
M  V30 11492 O 1026.81 1.7947 -0.256948 0
M  V30 11493 C 1026.86 0.597956 -3.55608 0
M  V30 11494 O 1025.96 1.69512 -3.75951 0
M  V30 11495 H 1025.3 0.0329156 -0.663184 0
M  V30 11496 H 1027.83 -0.526793 -1.97702 0
M  V30 11497 H 1027.84 0.868831 -3.98642 0
M  V30 11498 H 1026.52 -0.271838 -4.15011 0
M  V30 11499 H 1025.09 1.41976 -3.44815 0
M  V30 11500 N 1027.28 1.57312 -0.0952337 0
M  V30 11501 C 1028.5 1.99119 0.580206 0
M  V30 11502 C 1028.93 0.973955 1.60922 0
M  V30 11503 O 1028.29 -0.0575338 1.81209 0
M  V30 11504 C 1028.34 3.39893 1.20438 0
M  V30 11505 O 1027.44 3.40941 2.32019 0
M  V30 11506 H 1026.78 0.64748 0.147195 0
M  V30 11507 H 1029.31 2.03836 -0.176686 0
M  V30 11508 H 1029.32 3.7759 1.54564 0
M  V30 11509 H 1028 4.13453 0.450514 0
M  V30 11510 H 1026.57 3.1504 1.9951 0
M  V30 11511 N 1028.76 -0.17846 1.56586 0
M  V30 11512 C 1029.69 -1.24547 1.92408 0
M  V30 11513 C 1030.7 -1.40849 0.816421 0
M  V30 11514 O 1031.89 -1.40979 1.09486 0
M  V30 11515 C 1028.99 -2.61523 2.15544 0
M  V30 11516 C 1028.16 -2.66613 3.46751 0
M  V30 11517 C 1027.22 -3.84901 3.588 0
M  V30 11518 O 1026.25 -3.71231 4.31482 0
M  V30 11519 N 1027.45 -5.0106 2.9312 0
M  V30 11520 H 1030.22 -0.941275 2.84535 0
M  V30 11521 H 1027.78 -0.368275 1.57656 0
M  V30 11522 H 1029.77 -3.3911 2.20876 0
M  V30 11523 H 1028.34 -2.84362 1.29835 0
M  V30 11524 H 1027.56 -1.75174 3.5314 0
M  V30 11525 H 1028.85 -2.67018 4.33104 0
M  V30 11526 H 1028.25 -5.15067 2.33928 0
M  V30 11527 H 1026.8 -5.76535 3.04057 0
M  V30 11528 N 1030.24 -1.51135 -0.446768 0
M  V30 11529 C 1031.51 -1.5387 -1.20762 0
M  V30 11530 C 1031.89 -0.297446 -2.08994 0
M  V30 11531 O 1031.24 0.717975 -2.16927 0
M  V30 11532 C 1031.45 -2.84767 -2.01764 0
M  V30 11533 C 1032.8 -3.3636 -2.59128 0
M  V30 11534 O 1033.82 -2.86254 -2.11984 0
M  V30 11535 O 1032.68 -4.23765 -3.45088 0
M  V30 11536 H 1029.78 -0.618228 -0.549293 0
M  V30 11537 H 1032.32 -1.63442 -0.456605 0
M  V30 11538 H 1031.09 -3.6657 -1.36901 0
M  V30 11539 H 1030.72 -2.78313 -2.8395 0
M  V30 11540 N 1031.71 0.701592 -1.41122 0
M  V30 11541 C 1032.66 1.83691 -1.4269 0
M  V30 11542 C 1033.66 1.6662 -0.305658 0
M  V30 11543 O 1034.86 1.73554 -0.477392 0
M  V30 11544 H 1031.24 0.605222 -0.44633 0
M  V30 11545 H 1033.21 1.79485 -2.38386 0
M  V30 11546 C 1031.96 3.21666 -1.32008 0
M  V30 11547 H 1031.28 3.35416 -2.17569 0
M  V30 11548 H 1032.72 4.012 -1.37165 0
M  V30 11549 C 1031.18 3.36885 -0.0317678 0
M  V30 11550 O 1031.71 3.90885 0.925836 0
M  V30 11551 N 1029.91 2.90569 0.0423401 0
M  V30 11552 H 1029.46 2.46812 -0.737673 0
M  V30 11553 H 1029.42 3.0113 0.903764 0
M  V30 11554 N 1033.19 1.2685 0.935242 0
M  V30 11555 C 1034.1 1.10716 2.06831 0
M  V30 11556 C 1035.12 0.0391222 1.73956 0
M  V30 11557 O 1036.29 0.244071 1.99916 0
M  V30 11558 C 1033.36 0.748093 3.38533 0
M  V30 11559 C 1032.42 1.89619 3.85153 0
M  V30 11560 C 1031.65 1.55416 5.1057 0
M  V30 11561 O 1031.88 0.458596 5.68553 0
M  V30 11562 O 1030.81 2.39087 5.52378 0
M  V30 11563 H 1034.64 2.05785 2.23352 0
M  V30 11564 H 1032.22 1.05967 1.05315 0
M  V30 11565 H 1034.1 0.560841 4.17651 0
M  V30 11566 H 1032.78 -0.173142 3.23237 0
M  V30 11567 H 1031.68 2.13845 3.06954 0
M  V30 11568 H 1033.02 2.79737 4.04979 0
M  V30 11569 N 1034.67 -1.14067 1.0875 0
M  V30 11570 C 1035.6 -2.21385 0.74236 0
M  V30 11571 C 1036.58 -1.67833 -0.276805 0
M  V30 11572 O 1037.77 -1.93647 -0.1464 0
M  V30 11573 C 1034.9 -3.46956 0.154644 0
M  V30 11574 C 1033.85 -4.13555 1.10255 0
M  V30 11575 C 1033.18 -5.3337 0.376877 0
M  V30 11576 C 1034.48 -4.6169 2.44213 0
M  V30 11577 H 1036.17 -2.50512 1.63964 0
M  V30 11578 H 1033.72 -1.20408 0.789807 0
M  V30 11579 H 1035.67 -4.21284 -0.0988419 0
M  V30 11580 H 1034.39 -3.17203 -0.777789 0
M  V30 11581 H 1033.05 -3.41186 1.34119 0
M  V30 11582 H 1032.7 -4.99879 -0.559472 0
M  V30 11583 H 1032.4 -5.78875 1.00884 0
M  V30 11584 H 1033.92 -6.10458 0.131527 0
M  V30 11585 H 1035.34 -5.27475 2.24595 0
M  V30 11586 H 1033.74 -5.17909 3.03134 0
M  V30 11587 H 1034.81 -3.76574 3.05483 0
M  V30 11588 N 1036.15 -0.873678 -1.31166 0
M  V30 11589 C 1037.1 -0.330288 -2.28424 0
M  V30 11590 C 1038.07 0.573299 -1.55893 0
M  V30 11591 O 1039.25 0.504143 -1.84019 0
M  V30 11592 C 1036.39 0.459004 -3.42034 0
M  V30 11593 C 1035.5 -0.472519 -4.29408 0
M  V30 11594 C 1034.64 0.331261 -5.30166 0
M  V30 11595 C 1033.68 -0.596453 -6.09187 0
M  V30 11596 N 1032.81 0.171305 -7.01891 0
M  V30 11597 H 1037.65 -1.16485 -2.7429 0
M  V30 11598 H 1035.19 -0.585813 -1.34932 0
M  V30 11599 H 1037.15 0.932432 -4.06647 0
M  V30 11600 H 1035.78 1.25824 -2.97268 0
M  V30 11601 H 1034.83 -1.06441 -3.65205 0
M  V30 11602 H 1036.14 -1.18372 -4.84551 0
M  V30 11603 H 1035.3 0.867038 -6.00473 0
M  V30 11604 H 1034.04 1.07573 -4.75688 0
M  V30 11605 H 1033.04 -1.14395 -5.37767 0
M  V30 11606 H 1034.27 -1.33983 -6.65752 0
M  V30 11607 H 1032.21 0.89852 -6.49817 0
M  V30 11608 H 1032.13 -0.480481 -7.54472 0
M  V30 11609 H 1033.4 0.688192 -7.76456 0
M  V30 11610 N 1037.63 1.44308 -0.633487 0
M  V30 11611 C 1038.85 2.06897 -0.144347 0
M  V30 11612 C 1039.28 1.47045 1.173 0
M  V30 11613 O 1038.63 0.572806 1.72013 0
M  V30 11614 C 1038.68 3.60571 -0.0456324 0
M  V30 11615 O 1037.79 4.0015 0.997682 0
M  V30 11616 H 1037.13 0.658427 -0.0858499 0
M  V30 11617 H 1039.66 1.85142 -0.870833 0
M  V30 11618 H 1039.67 4.07745 0.144178 0
M  V30 11619 H 1038.34 4.03515 -1.0074 0
M  V30 11620 H 1036.92 3.64603 0.782252 0
M  V30 11621 N 1039.1 0.374177 1.53094 0
M  V30 11622 C 1040.33 -0.215903 2.06273 0
M  V30 11623 C 1040.75 -1.40979 1.24526 0
M  V30 11624 O 1040.11 -1.79331 0.266462 0
M  V30 11625 C 1040.16 -0.579089 3.5592 0
M  V30 11626 O 1039.26 -1.67516 3.76845 0
M  V30 11627 H 1038.61 -0.0293981 0.663349 0
M  V30 11628 H 1041.14 0.537271 1.9742 0
M  V30 11629 H 1041.15 -0.847678 3.99097 0
M  V30 11630 H 1039.82 0.293843 4.14861 0
M  V30 11631 H 1038.4 -1.40146 3.45563 0
M  V30 11632 N 1040.58 -1.57259 0.103575 0
M  V30 11633 C 1041.52 -2.10165 -0.889141 0
M  V30 11634 C 1042.49 -1.01426 -1.27089 0
M  V30 11635 O 1043.68 -1.2898 -1.37465 0
M  V30 11636 C 1040.8 -2.58564 -2.18774 0
M  V30 11637 C 1039.85 -3.79043 -1.95522 0
M  V30 11638 S 1040.68 -5.22213 -1.18551 0
M  V30 11639 C 1041.84 -5.73968 -2.49623 0
M  V30 11640 H 1042.07 -2.9404 -0.439083 0
M  V30 11641 H 1039.61 -1.54008 -0.10989 0
M  V30 11642 H 1041.56 -2.87106 -2.93395 0
M  V30 11643 H 1040.22 -1.749 -2.609 0
M  V30 11644 H 1039.42 -4.11004 -2.91705 0
M  V30 11645 H 1039.02 -3.51038 -1.29028 0
M  V30 11646 H 1041.31 -5.82752 -3.45553 0
M  V30 11647 H 1042.25 -6.72324 -2.22229 0
M  V30 11648 H 1042.66 -5.01946 -2.58284 0
M  V30 11649 N 1042.06 0.170153 -1.56679 0
M  V30 11650 C 1042.99 1.21285 -1.9953 0
M  V30 11651 C 1043.97 1.46104 -0.871071 0
M  V30 11652 O 1045.16 1.57419 -1.13724 0
M  V30 11653 C 1042.29 2.5515 -2.35618 0
M  V30 11654 C 1041.24 2.44898 -3.51011 0
M  V30 11655 C 1040.57 3.83263 -3.72845 0
M  V30 11656 C 1041.87 1.95271 -4.84424 0
M  V30 11657 H 1043.56 0.856646 -2.86883 0
M  V30 11658 H 1041.11 0.410634 -1.38021 0
M  V30 11659 H 1043.06 3.28299 -2.64193 0
M  V30 11660 H 1041.78 2.92561 -1.45175 0
M  V30 11661 H 1040.44 1.74203 -3.22566 0
M  V30 11662 H 1040.09 4.18069 -2.79691 0
M  V30 11663 H 1039.79 3.77272 -4.50488 0
M  V30 11664 H 1041.31 4.57996 -4.03822 0
M  V30 11665 H 1042.73 2.58195 -5.11867 0
M  V30 11666 H 1041.13 2.00225 -5.65712 0
M  V30 11667 H 1042.2 0.90709 -4.7634 0
M  V30 11668 N 1043.54 1.5137 0.438746 0
M  V30 11669 C 1044.49 1.72582 1.53245 0
M  V30 11670 C 1045.46 0.567488 1.56105 0
M  V30 11671 O 1046.64 0.80176 1.73137 0
M  V30 11672 C 1043.78 1.85551 2.90972 0
M  V30 11673 C 1042.89 3.13094 2.97652 0
M  V30 11674 C 1042.03 3.16666 4.26493 0
M  V30 11675 C 1041.07 4.38529 4.27035 0
M  V30 11676 N 1040.2 4.39659 5.47398 0
M  V30 11677 H 1045.04 2.65941 1.3446 0
M  V30 11678 H 1042.58 1.31801 0.653206 0
M  V30 11679 H 1044.54 1.91053 3.70884 0
M  V30 11680 H 1043.17 0.956025 3.08318 0
M  V30 11681 H 1042.22 3.16909 2.10412 0
M  V30 11682 H 1043.53 4.03009 2.93914 0
M  V30 11683 H 1042.69 3.21075 5.14777 0
M  V30 11684 H 1041.43 2.24637 4.32885 0
M  V30 11685 H 1040.43 4.34297 3.37144 0
M  V30 11686 H 1041.66 5.31821 4.22307 0
M  V30 11687 H 1039.6 3.50499 5.54514 0
M  V30 11688 H 1039.52 5.23382 5.45534 0
M  V30 11689 H 1040.79 4.48259 6.37718 0
M  V30 11690 N 1045.02 -0.694098 1.41492 0
M  V30 11691 C 1045.96 -1.82932 1.43662 0
M  V30 11692 C 1046.96 -1.66455 0.31449 0
M  V30 11693 O 1048.16 -1.73298 0.486589 0
M  V30 11694 H 1044.54 -0.602847 0.449533 0
M  V30 11695 H 1046.51 -1.78218 2.39334 0
M  V30 11696 C 1045.26 -3.20962 1.33712 0
M  V30 11697 H 1044.58 -3.34257 2.19345 0
M  V30 11698 H 1046.02 -4.00467 1.39291 0
M  V30 11699 C 1044.48 -3.36863 0.0496332 0
M  V30 11700 O 1045.01 -3.91371 -0.905093 0
M  V30 11701 N 1043.22 -2.90588 -0.0269299 0
M  V30 11702 H 1042.76 -2.46417 0.750752 0
M  V30 11703 H 1042.72 -3.01605 -0.887781 0
M  V30 11704 N 1046.49 -1.27344 -0.928501 0
M  V30 11705 C 1047.44 -1.10001 -2.029 0
M  V30 11706 C 1048.41 -0.00131084 -1.661 0
M  V30 11707 O 1049.6 -0.163485 -1.90098 0
M  V30 11708 C 1046.74 -0.7524 -3.36798 0
M  V30 11709 C 1045.85 -1.92865 -3.86558 0
M  V30 11710 C 1044.98 -1.52299 -5.08899 0
M  V30 11711 C 1044.02 -2.66677 -5.50953 0
M  V30 11712 N 1043.16 -2.26706 -6.64491 0
M  V30 11713 H 1048 -2.0417 -2.17068 0
M  V30 11714 H 1045.54 -1.01637 -1.0634 0
M  V30 11715 H 1047.5 -0.531687 -4.13798 0
M  V30 11716 H 1046.13 0.15234 -3.2244 0
M  V30 11717 H 1045.18 -2.26192 -3.05845 0
M  V30 11718 H 1046.49 -2.78668 -4.13698 0
M  V30 11719 H 1045.64 -1.26348 -5.93398 0
M  V30 11720 H 1044.38 -0.636042 -4.83535 0
M  V30 11721 H 1043.39 -2.93344 -4.65004 0
M  V30 11722 H 1044.61 -3.55992 -5.78313 0
M  V30 11723 H 1042.56 -1.40462 -6.40786 0
M  V30 11724 H 1042.48 -3.06049 -6.91281 0
M  V30 11725 H 1043.74 -2.04 -7.52333 0
M  V30 11726 N 1047.97 1.13488 -1.09353 0
M  V30 11727 C 1048.88 2.2248 -0.744307 0
M  V30 11728 C 1049.9 1.72145 0.253404 0
M  V30 11729 O 1051.07 2.01176 0.0949339 0
M  V30 11730 C 1048.14 3.46286 -0.16928 0
M  V30 11731 C 1047.2 4.11516 -1.22284 0
M  V30 11732 C 1046.43 5.29412 -0.675161 0
M  V30 11733 O 1046.66 5.68185 0.502182 0
M  V30 11734 O 1045.59 5.8467 -1.42983 0
M  V30 11735 H 1049.42 2.54723 -1.65378 0
M  V30 11736 H 1047 1.21607 -0.867879 0
M  V30 11737 H 1048.88 4.2114 0.14811 0
M  V30 11738 H 1047.56 3.15745 0.713214 0
M  V30 11739 H 1046.47 3.38492 -1.59292 0
M  V30 11740 H 1047.8 4.46186 -2.07796 0
M  V30 11741 N 1049.45 0.880621 1.30701 0
M  V30 11742 C 1050.73 0.41712 1.91101 0
M  V30 11743 C 1051.11 -1.10177 1.80067 0
M  V30 11744 O 1050.46 -1.93513 1.21511 0
M  V30 11745 C 1050.67 0.910364 3.36917 0
M  V30 11746 C 1052.01 0.942764 4.14001 0
M  V30 11747 O 1053.04 0.856733 3.45743 0
M  V30 11748 O 1051.9 1.06913 5.3594 0
M  V30 11749 H 1048.99 0.126775 0.817225 0
M  V30 11750 H 1051.54 0.969236 1.39298 0
M  V30 11751 H 1050.31 1.95414 3.39012 0
M  V30 11752 H 1049.93 0.337164 3.96168 0
M  V30 11753 N 1050.93 -1.4397 0.641131 0
M  V30 11754 C 1051.84 -2.34526 -0.058742 0
M  V30 11755 C 1052.86 -1.53194 -0.825088 0
M  V30 11756 O 1054.03 -1.85888 -0.775081 0
M  V30 11757 C 1051.1 -3.31313 -1.02139 0
M  V30 11758 C 1050.16 -4.28552 -0.253319 0
M  V30 11759 C 1049.39 -5.20715 -1.17012 0
M  V30 11760 O 1049.61 -5.17028 -2.40911 0
M  V30 11761 O 1048.55 -5.9839 -0.649039 0
M  V30 11762 H 1052.37 -2.95843 0.686329 0
M  V30 11763 H 1049.96 -1.43909 0.401316 0
M  V30 11764 H 1051.84 -3.90862 -1.57496 0
M  V30 11765 H 1050.52 -2.72516 -1.7469 0
M  V30 11766 H 1049.42 -3.72519 0.343531 0
M  V30 11767 H 1050.76 -4.90297 0.432372 0
M  V30 11768 N 1052.41 -0.382291 -1.52893 0
M  V30 11769 C 1053.35 0.456234 -2.26246 0
M  V30 11770 C 1054.32 1.06366 -1.27575 0
M  V30 11771 O 1055.51 1.09301 -1.5639 0
M  V30 11772 C 1052.65 1.5813 -3.06739 0
M  V30 11773 C 1051.76 0.997416 -4.20328 0
M  V30 11774 C 1050.9 2.09296 -4.8823 0
M  V30 11775 C 1049.94 1.4846 -5.93823 0
M  V30 11776 N 1049.07 2.51916 -6.55349 0
M  V30 11777 H 1053.91 -0.175761 -2.97481 0
M  V30 11778 H 1051.45 -0.0985046 -1.4677 0
M  V30 11779 H 1053.41 2.24426 -3.51694 0
M  V30 11780 H 1052.04 2.18371 -2.37727 0
M  V30 11781 H 1051.09 0.224251 -3.79738 0
M  V30 11782 H 1052.4 0.512784 -4.96157 0
M  V30 11783 H 1051.56 2.83377 -5.36453 0
M  V30 11784 H 1050.3 2.61116 -4.1191 0
M  V30 11785 H 1049.3 0.729001 -5.44946 0
M  V30 11786 H 1050.53 0.97443 -6.72073 0
M  V30 11787 H 1048.47 3.02919 -5.81873 0
M  V30 11788 H 1048.39 2.08188 -7.26769 0
M  V30 11789 H 1049.66 3.25649 -7.08218 0
M  V30 11790 N 1053.89 1.57202 -0.111913 0
M  V30 11791 C 1055.13 1.94125 0.547573 0
M  V30 11792 C 1055.45 0.997026 1.68282 0
M  V30 11793 O 1056.65 1.26063 2.40459 0
M  V30 11794 C 1055.11 3.44982 1.02545 0
M  V30 11795 C 1054.72 4.47927 -0.0809529 0
M  V30 11796 C 1056.46 3.90837 1.65671 0
M  V30 11797 C 1054.37 5.89955 0.413224 0
M  V30 11798 H 1053.3 0.724651 0.208321 0
M  V30 11799 H 1055.95 1.82507 -0.190625 0
M  V30 11800 H 1054.33 3.5181 1.81785 0
M  V30 11801 H 1055.51 4.52761 -0.857003 0
M  V30 11802 H 1053.82 4.11782 -0.618434 0
M  V30 11803 H 1056.42 4.9436 2.03746 0
M  V30 11804 H 1056.76 3.30417 2.53239 0
M  V30 11805 H 1057.29 3.8678 0.929844 0
M  V30 11806 H 1054.03 6.54113 -0.426238 0
M  V30 11807 H 1053.55 5.88557 1.15591 0
M  V30 11808 H 1055.23 6.41032 0.876756 0
M  V30 11809 N 1055.36 -0.161842 1.56767 0
M  V30 11810 C 1056.78 -0.51396 1.51098 0
M  V30 11811 C 1056.98 -1.84158 0.817815 0
M  V30 11812 O 1056.04 -2.49592 0.382133 0
M  V30 11813 C 1057.35 -0.537966 2.95849 0
M  V30 11814 C 1058.9 -0.624512 3.06706 0
M  V30 11815 C 1059.37 -0.679322 4.52934 0
M  V30 11816 N 1060.86 -0.741953 4.57219 0
M  V30 11817 C 1061.6 -0.805096 5.6772 0
M  V30 11818 N 1061.09 -0.828492 6.87828 0
M  V30 11819 N 1062.89 -0.844843 5.55715 0
M  V30 11820 H 1055.04 0.708581 2.00232 0
M  V30 11821 H 1057.3 0.25663 0.912603 0
M  V30 11822 H 1057.01 0.369052 3.49758 0
M  V30 11823 H 1056.88 -1.38113 3.51005 0
M  V30 11824 H 1059.27 -1.52195 2.52825 0
M  V30 11825 H 1059.35 0.245515 2.54619 0
M  V30 11826 H 1058.99 0.213901 5.07449 0
M  V30 11827 H 1058.92 -1.56563 5.02788 0
M  V30 11828 H 1061.41 -0.731772 3.70747 0
M  V30 11829 H 1061.73 -0.878109 7.67795 0
M  V30 11830 H 1060.07 -0.796612 6.9042 0
M  V30 11831 H 1063.26 -0.823632 4.60797 0
M  V30 11832 H 1063.44 -0.890588 6.41851 0
M  V30 11833 N 1056.84 -1.516 -0.430713 0
M  V30 11834 C 1058.07 -1.687 -1.20644 0
M  V30 11835 C 1058.49 -0.386555 -1.84085 0
M  V30 11836 O 1057.85 0.653952 -1.69095 0
M  V30 11837 C 1057.9 -2.80887 -2.2613 0
M  V30 11838 O 1057 -2.44952 -3.31772 0
M  V30 11839 H 1056.34 -0.562289 -0.353167 0
M  V30 11840 H 1058.87 -1.98198 -0.507807 0
M  V30 11841 H 1058.88 -3.05167 -2.70809 0
M  V30 11842 H 1057.56 -3.75249 -1.79334 0
M  V30 11843 H 1056.13 -2.31267 -2.92523 0
M  V30 11844 N 1058.32 0.686584 -1.41858 0
M  V30 11845 C 1059.54 1.4802 -1.45275 0
M  V30 11846 C 1059.97 1.87997 -0.0621297 0
M  V30 11847 O 1059.33 1.55226 0.936733 0
M  V30 11848 C 1059.38 2.7133 -2.37513 0
M  V30 11849 O 1058.48 3.69159 -1.83836 0
M  V30 11850 H 1057.82 0.445152 -0.492682 0
M  V30 11851 H 1060.35 0.843161 -1.86419 0
M  V30 11852 H 1060.36 3.19537 -2.53693 0
M  V30 11853 H 1059.04 2.41571 -3.3855 0
M  V30 11854 H 1057.61 3.28134 -1.77151 0
M  V30 11855 N 1059.8 1.27835 0.921735 0
M  V30 11856 C 1061.04 1.14692 1.67253 0
M  V30 11857 C 1061.38 -0.305384 1.91784 0
M  V30 11858 O 1060.65 -1.22286 1.51249 0
M  V30 11859 C 1060.93 1.93743 3.03539 0
M  V30 11860 C 1060.79 3.46991 2.86212 0
M  V30 11861 C 1062.11 1.74658 4.03959 0
M  V30 11862 H 1059.23 0.418021 0.606983 0
M  V30 11863 H 1061.87 1.5706 1.06922 0
M  V30 11864 H 1060.02 1.57738 3.55037 0
M  V30 11865 H 1061.69 3.92858 2.41785 0
M  V30 11866 H 1059.93 3.73029 2.21432 0
M  V30 11867 H 1060.6 3.97551 3.82958 0
M  V30 11868 H 1063.08 2.06063 3.61493 0
M  V30 11869 H 1061.96 2.32353 4.97296 0
M  V30 11870 H 1062.22 0.696019 4.36587 0
M  V30 11871 N 1061.28 -1.12907 1.09954 0
M  V30 11872 C 1062.19 -2.22082 0.756095 0
M  V30 11873 C 1063.2 -1.72277 -0.244272 0
M  V30 11874 O 1064.38 -2.01224 -0.0842637 0
M  V30 11875 C 1061.44 -3.46192 0.187642 0
M  V30 11876 C 1060.5 -4.10861 1.24465 0
M  V30 11877 C 1059.74 -5.29047 0.703227 0
M  V30 11878 O 1059.96 -5.68443 -0.472043 0
M  V30 11879 O 1058.89 -5.83904 1.46082 0
M  V30 11880 H 1062.72 -2.53842 1.66727 0
M  V30 11881 H 1060.3 -1.21145 0.874316 0
M  V30 11882 H 1062.19 -4.21212 -0.125774 0
M  V30 11883 H 1060.86 -3.16119 -0.696459 0
M  V30 11884 H 1059.77 -3.37643 1.61085 0
M  V30 11885 H 1061.1 -4.45078 2.10159 0
M  V30 11886 N 1062.75 -0.88754 -1.30232 0
M  V30 11887 C 1063.7 -0.354497 -2.28061 0
M  V30 11888 C 1064.67 0.556732 -1.56492 0
M  V30 11889 O 1065.86 0.484597 -1.84543 0
M  V30 11890 C 1063 0.422701 -3.42501 0
M  V30 11891 C 1062.11 -0.518036 -4.28883 0
M  V30 11892 C 1061.24 0.275011 -5.30488 0
M  V30 11893 C 1060.28 -0.661032 -6.0852 0
M  V30 11894 N 1059.42 0.0968509 -7.02033 0
M  V30 11895 H 1064.26 -1.19388 -2.73039 0
M  V30 11896 H 1061.8 -0.600091 -1.34303 0
M  V30 11897 H 1063.75 0.889249 -4.07613 0
M  V30 11898 H 1062.38 1.22664 -2.98586 0
M  V30 11899 H 1061.44 -1.10308 -3.64055 0
M  V30 11900 H 1062.75 -1.23504 -4.83268 0
M  V30 11901 H 1061.9 0.803301 -6.01358 0
M  V30 11902 H 1060.64 1.02522 -4.76802 0
M  V30 11903 H 1059.65 -1.20093 -5.36524 0
M  V30 11904 H 1060.87 -1.41037 -6.64293 0
M  V30 11905 H 1058.82 0.829548 -6.50734 0
M  V30 11906 H 1058.73 -0.560476 -7.5392 0
M  V30 11907 H 1060 0.6058 -7.77142 0
M  V30 11908 N 1064.23 1.43628 -0.648757 0
M  V30 11909 C 1065.14 2.34554 0.0463037 0
M  V30 11910 C 1066.16 1.53629 0.816952 0
M  V30 11911 O 1067.33 1.86297 0.765212 0
M  V30 11912 C 1064.4 3.3185 1.00381 0
M  V30 11913 C 1063.46 4.2868 0.230589 0
M  V30 11914 C 1062.69 5.21328 1.14249 0
M  V30 11915 O 1062.92 5.18298 2.38166 0
M  V30 11916 O 1061.85 5.98726 0.617296 0
M  V30 11917 H 1065.68 2.95475 -0.702008 0
M  V30 11918 H 1063.26 1.43694 -0.408942 0
M  V30 11919 H 1065.14 3.91692 1.5542 0
M  V30 11920 H 1063.82 2.73439 1.73243 0
M  V30 11921 H 1062.73 3.72332 -0.363282 0
M  V30 11922 H 1064.06 4.90061 -0.458368 0
M  V30 11923 N 1065.71 0.390394 1.52688 0
M  V30 11924 C 1066.66 -0.4591 2.28024 0
M  V30 11925 C 1067.65 -1.06212 1.31967 0
M  V30 11926 O 1068.86 -1.00247 1.49501 0
M  V30 11927 H 1065.23 -0.16681 0.733266 0
M  V30 11928 H 1067.2 0.197747 2.97744 0
M  V30 11929 C 1065.95 -1.5737 3.10048 0
M  V30 11930 H 1065.28 -1.11901 3.83821 0
M  V30 11931 H 1066.72 -2.1423 3.65898 0
M  V30 11932 C 1065.18 -2.53036 2.22429 0
M  V30 11933 O 1065.71 -3.5647 1.85181 0
M  V30 11934 N 1063.91 -2.22802 1.86567 0
M  V30 11935 H 1063.46 -1.38723 2.17057 0
M  V30 11936 H 1063.42 -2.87061 1.28233 0
M  V30 11937 N 1067.19 -1.57141 0.120249 0
M  V30 11938 C 1068.12 -2.12454 -0.859987 0
M  V30 11939 C 1069.13 -1.06755 -1.22911 0
M  V30 11940 O 1070.32 -1.34124 -1.17784 0
M  V30 11941 C 1067.42 -2.61024 -2.16147 0
M  V30 11942 C 1066.6 -3.90835 -1.96385 0
M  V30 11943 C 1065.65 -4.2499 -3.10274 0
M  V30 11944 O 1064.68 -4.93786 -2.83133 0
M  V30 11945 N 1065.88 -3.82411 -4.36741 0
M  V30 11946 H 1068.65 -2.97186 -0.387402 0
M  V30 11947 H 1066.21 -1.61773 -0.0641376 0
M  V30 11948 H 1068.2 -2.80903 -2.91334 0
M  V30 11949 H 1066.77 -1.81166 -2.5475 0
M  V30 11950 H 1065.99 -3.79853 -1.05383 0
M  V30 11951 H 1067.28 -4.75712 -1.80487 0
M  V30 11952 H 1066.68 -3.26926 -4.61666 0
M  V30 11953 H 1065.23 -4.07395 -5.08795 0
M  V30 11954 N 1068.67 0.153526 -1.5685 0
M  V30 11955 C 1069.61 1.18973 -1.97773 0
M  V30 11956 C 1070.58 1.43041 -0.844311 0
M  V30 11957 O 1071.77 1.55484 -1.10586 0
M  V30 11958 C 1068.91 2.51981 -2.35795 0
M  V30 11959 C 1068.02 2.35143 -3.62397 0
M  V30 11960 C 1067.16 3.61141 -3.89552 0
M  V30 11961 C 1066.2 3.39311 -5.09445 0
M  V30 11962 N 1065.33 4.57423 -5.32643 0
M  V30 11963 H 1070.17 0.833758 -2.86099 0
M  V30 11964 H 1067.71 0.400252 -1.4155 0
M  V30 11965 H 1069.67 3.29527 -2.55867 0
M  V30 11966 H 1068.3 2.85539 -1.50557 0
M  V30 11967 H 1067.35 1.48684 -3.50139 0
M  V30 11968 H 1068.66 2.14969 -4.501 0
M  V30 11969 H 1067.82 4.47117 -4.10087 0
M  V30 11970 H 1066.55 3.84312 -3.00259 0
M  V30 11971 H 1065.56 2.51723 -4.8879 0
M  V30 11972 H 1066.78 3.17545 -6.00285 0
M  V30 11973 H 1064.73 4.8078 -4.46303 0
M  V30 11974 H 1064.65 4.40228 -6.14602 0
M  V30 11975 H 1065.92 5.44632 -5.57671 0
M  V30 11976 N 1070.14 1.51827 0.422667 0
M  V30 11977 C 1071.37 1.69337 1.19748 0
M  V30 11978 C 1071.79 0.396312 1.83878 0
M  V30 11979 O 1071.15 -0.644976 1.6944 0
M  V30 11980 C 1071.2 2.82082 2.24637 0
M  V30 11981 O 1070.3 2.46708 3.30468 0
M  V30 11982 H 1069.65 0.564154 0.35018 0
M  V30 11983 H 1072.18 1.98465 0.497289 0
M  V30 11984 H 1072.19 3.06599 2.69186 0
M  V30 11985 H 1070.86 3.76195 1.77341 0
M  V30 11986 H 1069.44 2.32815 2.91293 0
M  V30 11987 N 1071.62 -0.679052 1.4222 0
M  V30 11988 C 1072.57 -1.79269 1.45366 0
M  V30 11989 C 1073.54 -1.63255 0.306089 0
M  V30 11990 O 1074.72 -1.8387 0.509548 0
M  V30 11991 C 1071.86 -3.17272 1.35766 0
M  V30 11992 C 1070.98 -3.44603 2.60525 0
M  V30 11993 C 1070.11 -4.7231 2.43098 0
M  V30 11994 C 1069.15 -4.92661 3.63251 0
M  V30 11995 N 1068.29 -6.11606 3.44794 0
M  V30 11996 H 1073.13 -1.75916 2.40536 0
M  V30 11997 H 1070.67 -0.858836 1.19425 0
M  V30 11998 H 1072.62 -3.97015 1.282 0
M  V30 11999 H 1071.25 -3.1976 0.441939 0
M  V30 12000 H 1070.31 -2.59144 2.78475 0
M  V30 12001 H 1071.62 -3.55536 3.49851 0
M  V30 12002 H 1070.77 -5.60136 2.33093 0
M  V30 12003 H 1069.51 -4.63652 1.51255 0
M  V30 12004 H 1068.52 -4.03278 3.73693 0
M  V30 12005 H 1069.74 -5.03167 4.5607 0
M  V30 12006 H 1067.69 -6.04129 2.55663 0
M  V30 12007 H 1067.6 -6.23381 4.27705 0
M  V30 12008 H 1068.87 -7.02122 3.38592 0
M  V30 12009 N 1073.1 -1.28322 -0.914942 0
M  V30 12010 C 1074.35 -1.15179 -1.66067 0
M  V30 12011 C 1074.67 0.300279 -1.92674 0
M  V30 12012 O 1073.94 1.20821 -1.54205 0
M  V30 12013 H 1072.52 -0.423264 -0.615513 0
M  V30 12014 H 1075.18 -1.61034 -1.09791 0
M  V30 12015 H 1074.28 -1.69048 -2.62353 0
M  V30 12016 N 1074.58 1.12322 -1.10551 0
M  V30 12017 C 1075.51 2.17819 -0.713263 0
M  V30 12018 C 1076.52 1.6086 0.250604 0
M  V30 12019 O 1077.71 1.78466 0.0348909 0
M  V30 12020 C 1074.81 3.38885 -0.0320325 0
M  V30 12021 C 1073.99 4.25332 -1.02038 0
M  V30 12022 C 1073.04 5.24895 -0.370412 0
M  V30 12023 O 1072.07 5.59958 -1.02157 0
M  V30 12024 N 1073.27 5.73934 0.870633 0
M  V30 12025 H 1076.04 2.52083 -1.62094 0
M  V30 12026 H 1073.6 1.27755 -0.994492 0
M  V30 12027 H 1075.59 4.02574 0.414285 0
M  V30 12028 H 1074.16 3.02762 0.778072 0
M  V30 12029 H 1073.38 3.5824 -1.64492 0
M  V30 12030 H 1074.67 4.79936 -1.68936 0
M  V30 12031 H 1074.07 5.47614 1.419 0
M  V30 12032 H 1072.62 6.39504 1.26008 0
M  V30 12033 N 1076.06 0.894434 1.2976 0
M  V30 12034 C 1076.97 0.372622 2.31622 0
M  V30 12035 C 1077.98 -0.52996 1.65733 0
M  V30 12036 O 1079.16 -0.420807 1.96955 0
M  V30 12037 C 1076.22 -0.396076 3.4443 0
M  V30 12038 C 1075.28 0.537394 4.25923 0
M  V30 12039 C 1074.52 -0.194713 5.33345 0
M  V30 12040 O 1074.74 -1.41943 5.52457 0
M  V30 12041 O 1073.67 0.460055 6.00139 0
M  V30 12042 H 1077.5 1.21756 2.78225 0
M  V30 12043 H 1075.09 0.65858 1.34101 0
M  V30 12044 H 1076.97 -0.830962 4.13126 0
M  V30 12045 H 1075.64 -1.21716 2.99945 0
M  V30 12046 H 1074.55 1.02129 3.5989 0
M  V30 12047 H 1075.88 1.32475 4.74037 0
M  V30 12048 N 1077.53 -1.43282 0.656365 0
M  V30 12049 C 1078.48 -2.32556 -0.0452037 0
M  V30 12050 C 1079.48 -1.48789 -0.80982 0
M  V30 12051 O 1080.68 -1.64979 -0.719865 0
M  V30 12052 H 1077.06 -0.751258 -0.0334043 0
M  V30 12053 H 1079.03 -2.89448 0.725423 0
M  V30 12054 C 1077.78 -3.33138 -0.995706 0
M  V30 12055 H 1077.1 -3.97622 -0.416774 0
M  V30 12056 H 1078.54 -3.98231 -1.45562 0
M  V30 12057 C 1077 -2.63978 -2.09325 0
M  V30 12058 O 1077.53 -2.45769 -3.17743 0
M  V30 12059 N 1075.74 -2.23301 -1.8597 0
M  V30 12060 H 1075.28 -2.38312 -0.97802 0
M  V30 12061 H 1075.24 -1.77358 -2.59599 0
M  V30 12062 N 1079.01 -0.398486 -1.52479 0
M  V30 12063 C 1080.29 0.238776 -1.94137 0
M  V30 12064 C 1080.67 1.63558 -1.33462 0
M  V30 12065 O 1080.02 2.22821 -0.506272 0
M  V30 12066 C 1080.23 0.255863 -3.48061 0
M  V30 12067 C 1081.58 0.480376 -4.21874 0
M  V30 12068 O 1082.6 0.335679 -3.54615 0
M  V30 12069 O 1081.46 0.764654 -5.41124 0
M  V30 12070 H 1078.55 0.150806 -0.813134 0
M  V30 12071 H 1081.1 -0.453659 -1.63524 0
M  V30 12072 H 1079.87 -0.722171 -3.84578 0
M  V30 12073 H 1079.49 0.99284 -3.85004 0
M  V30 12074 N 1080.49 1.57075 -0.12858 0
M  V30 12075 C 1081.44 2.12379 0.829418 0
M  V30 12076 C 1082.43 1.04694 1.2218 0
M  V30 12077 O 1083.62 1.30909 1.1913 0
M  V30 12078 C 1080.75 2.73436 2.07575 0
M  V30 12079 C 1079.83 3.88217 1.7073 0
M  V30 12080 N 1080.22 4.94864 1.04609 0
M  V30 12081 C 1078.52 3.9858 2.00125 0
M  V30 12082 C 1079.22 5.7514 0.871137 0
M  V30 12083 N 1078.2 5.25284 1.39918 0
M  V30 12084 H 1082 2.92209 0.314816 0
M  V30 12085 H 1079.51 1.62233 0.0735788 0
M  V30 12086 H 1081.51 3.11406 2.77185 0
M  V30 12087 H 1080.17 1.95073 2.5957 0
M  V30 12088 H 1081.18 5.13025 0.708961 0
M  V30 12089 H 1077.86 3.3127 2.541 0
M  V30 12090 H 1079.25 6.7098 0.351395 0
M  V30 12091 N 1081.97 -0.145205 1.5693 0
M  V30 12092 C 1083.22 -0.858786 1.83719 0
M  V30 12093 C 1083.55 -1.80738 0.710452 0
M  V30 12094 O 1082.82 -1.92389 -0.285791 0
M  V30 12095 C 1083.11 -1.6317 3.2101 0
M  V30 12096 C 1082.96 -0.704472 4.44249 0
M  V30 12097 C 1084.28 -2.59377 3.55544 0
M  V30 12098 H 1081.4 -0.310757 0.66828 0
M  V30 12099 H 1084.04 -0.123918 1.89595 0
M  V30 12100 H 1082.19 -2.25816 3.16132 0
M  V30 12101 H 1083.86 -0.08887 4.61214 0
M  V30 12102 H 1082.1 -0.0141693 4.33798 0
M  V30 12103 H 1082.78 -1.28135 5.36922 0
M  V30 12104 H 1085.25 -2.06848 3.61044 0
M  V30 12105 H 1084.13 -3.10506 4.52634 0
M  V30 12106 H 1084.39 -3.40819 2.81594 0
M  V30 12107 N 1083.45 -1.52049 -0.414609 0
M  V30 12108 C 1084.4 -1.7138 -1.50376 0
M  V30 12109 C 1085.38 -0.567692 -1.50553 0
M  V30 12110 O 1086.57 -0.824541 -1.56622 0
M  V30 12111 C 1083.7 -1.86291 -2.88358 0
M  V30 12112 C 1082.79 -3.06757 -2.9285 0
M  V30 12113 N 1083.18 -4.29557 -2.67048 0
M  V30 12114 C 1081.48 -3.06478 -3.24018 0
M  V30 12115 C 1082.18 -5.10988 -2.77968 0
M  V30 12116 N 1081.15 -4.46117 -3.10613 0
M  V30 12117 H 1084.96 -2.63972 -1.29213 0
M  V30 12118 H 1082.47 -1.50006 -0.622244 0
M  V30 12119 H 1084.47 -1.98256 -3.66743 0
M  V30 12120 H 1083.13 -0.948959 -3.10524 0
M  V30 12121 H 1084.14 -4.58122 -2.41546 0
M  V30 12122 H 1080.82 -2.24799 -3.51812 0
M  V30 12123 H 1082.21 -6.18806 -2.6178 0
M  V30 12124 N 1084.93 0.6715 -1.42579 0
M  V30 12125 C 1085.84 1.81435 -1.48723 0
M  V30 12126 C 1086.85 1.69895 -0.375716 0
M  V30 12127 O 1088.03 1.91388 -0.627115 0
M  V30 12128 C 1085.09 3.17599 -1.39038 0
M  V30 12129 C 1084.15 3.41071 -2.60709 0
M  V30 12130 C 1083.39 4.7074 -2.51476 0
M  V30 12131 O 1083.61 5.48868 -1.55243 0
M  V30 12132 O 1082.54 4.95528 -3.41666 0
M  V30 12133 H 1086.37 1.79206 -2.45191 0
M  V30 12134 H 1083.95 0.827666 -1.24379 0
M  V30 12135 H 1085.84 3.98847 -1.3601 0
M  V30 12136 H 1084.51 3.20458 -0.456966 0
M  V30 12137 H 1083.42 2.59659 -2.69311 0
M  V30 12138 H 1084.75 3.43045 -3.5296 0
M  V30 12139 N 1086.4 1.28806 0.908124 0
M  V30 12140 C 1087.35 1.13215 2.01125 0
M  V30 12141 C 1088.32 0.0277357 1.66077 0
M  V30 12142 O 1089.51 0.193707 1.89814 0
M  V30 12143 C 1086.65 0.805887 3.35558 0
M  V30 12144 C 1085.76 1.9899 3.83441 0
M  V30 12145 C 1084.89 1.60376 5.06412 0
M  V30 12146 C 1083.93 2.75409 5.46641 0
M  V30 12147 N 1083.07 2.37249 6.60801 0
M  V30 12148 H 1087.91 2.07598 2.13792 0
M  V30 12149 H 1085.45 1.03316 1.0471 0
M  V30 12150 H 1087.4 0.597451 4.129 0
M  V30 12151 H 1086.03 -0.101023 3.22642 0
M  V30 12152 H 1085.09 2.31029 3.02208 0
M  V30 12153 H 1086.4 2.85214 4.09212 0
M  V30 12154 H 1085.55 1.35772 5.91313 0
M  V30 12155 H 1084.29 0.712888 4.82462 0
M  V30 12156 H 1083.3 3.00705 4.60279 0
M  V30 12157 H 1084.52 3.65148 5.72577 0
M  V30 12158 H 1082.47 1.50638 6.3847 0
M  V30 12159 H 1082.38 3.17008 6.86325 0
M  V30 12160 H 1083.65 2.15943 7.48992 0
M  V30 12161 N 1087.88 -1.11734 1.11145 0
M  V30 12162 C 1088.83 -2.19765 0.761982 0
M  V30 12163 C 1089.82 -1.67616 -0.24518 0
M  V30 12164 O 1091.03 -1.79695 -0.104781 0
M  V30 12165 H 1087.4 -0.71644 0.228513 0
M  V30 12166 H 1089.38 -2.4649 1.68183 0
M  V30 12167 C 1088.12 -3.47016 0.218057 0
M  V30 12168 H 1087.45 -3.87494 0.984299 0
M  V30 12169 H 1088.89 -4.23998 0.0116825 0
M  V30 12170 C 1087.35 -3.20088 -1.05096 0
M  V30 12171 O 1087.88 -3.40503 -2.1312 0
M  V30 12172 N 1086.08 -2.73844 -0.972523 0
M  V30 12173 H 1085.63 -2.57431 -0.0933459 0
M  V30 12174 H 1085.59 -2.56204 -1.82228 0
M  V30 12175 N 1089.36 -0.901303 -1.29284 0
M  V30 12176 C 1090.31 -0.378666 -2.27672 0
M  V30 12177 C 1091.28 0.540102 -1.57074 0
M  V30 12178 O 1092.46 0.464997 -1.85047 0
M  V30 12179 C 1089.6 0.38635 -3.42931 0
M  V30 12180 C 1088.71 -0.563496 -4.28309 0
M  V30 12181 C 1087.85 0.218731 -5.30749 0
M  V30 12182 C 1086.89 -0.725536 -6.07785 0
M  V30 12183 N 1086.03 0.0223854 -7.02096 0
M  V30 12184 H 1090.87 -1.22277 -2.71758 0
M  V30 12185 H 1088.4 -0.614302 -1.33659 0
M  V30 12186 H 1090.36 0.845967 -4.08533 0
M  V30 12187 H 1088.99 1.1949 -2.9987 0
M  V30 12188 H 1088.04 -1.14163 -3.62865 0
M  V30 12189 H 1089.35 -1.28623 -4.81931 0
M  V30 12190 H 1088.51 0.739473 -6.02177 0
M  V30 12191 H 1087.25 0.97459 -4.77863 0
M  V30 12192 H 1086.25 -1.25776 -5.3522 0
M  V30 12193 H 1087.48 -1.48075 -6.6276 0
M  V30 12194 H 1085.42 0.760482 -6.51577 0
M  V30 12195 H 1085.34 -0.640408 -7.53283 0
M  V30 12196 H 1086.61 0.523339 -7.77741 0
M  V30 12197 N 1090.84 1.42931 -0.663954 0
M  V30 12198 C 1091.78 2.3079 0.0210764 0
M  V30 12199 C 1092.75 1.45356 0.803796 0
M  V30 12200 O 1093.94 1.74207 0.778237 0
M  V30 12201 C 1091.08 3.31069 0.974023 0
M  V30 12202 C 1090.19 4.31598 0.186273 0
M  V30 12203 C 1089.33 5.18955 1.13399 0
M  V30 12204 C 1088.37 6.1117 0.337292 0
M  V30 12205 N 1087.5 6.91114 1.23715 0
M  V30 12206 H 1092.34 2.88819 -0.733995 0
M  V30 12207 H 1089.88 1.42274 -0.373711 0
M  V30 12208 H 1091.84 3.87727 1.54024 0
M  V30 12209 H 1090.47 2.74665 1.69585 0
M  V30 12210 H 1089.52 3.77147 -0.496402 0
M  V30 12211 H 1090.83 4.96919 -0.432753 0
M  V30 12212 H 1089.99 5.80292 1.77049 0
M  V30 12213 H 1088.73 4.53785 1.78691 0
M  V30 12214 H 1087.73 5.48911 -0.312492 0
M  V30 12215 H 1088.96 6.78386 -0.31138 0
M  V30 12216 H 1086.9 6.28583 1.87668 0
M  V30 12217 H 1086.82 7.52999 0.672946 0
M  V30 12218 H 1088.09 7.56948 1.86146 0
M  V30 12219 N 1092.32 0.406567 1.52266 0
M  V30 12220 C 1093.56 -0.170053 2.01785 0
M  V30 12221 C 1093.89 -1.45361 1.2923 0
M  V30 12222 O 1093.15 -1.91849 0.386342 0
M  V30 12223 C 1093.44 -0.467124 3.54334 0
M  V30 12224 C 1093.11 0.72693 4.45002 0
M  V30 12225 C 1091.77 1.05446 4.69505 0
M  V30 12226 C 1094.12 1.52493 4.98393 0
M  V30 12227 C 1091.45 2.18123 5.44646 0
M  V30 12228 C 1093.8 2.64244 5.74768 0
M  V30 12229 C 1092.47 2.97486 5.97544 0
M  V30 12230 H 1091.74 -0.0622267 0.738383 0
M  V30 12231 H 1094.39 0.54746 1.83508 0
M  V30 12232 H 1092.69 -1.26617 3.70777 0
M  V30 12233 H 1094.39 -0.926194 3.90157 0
M  V30 12234 H 1090.98 0.461666 4.26106 0
M  V30 12235 H 1095.16 1.28512 4.79373 0
M  V30 12236 H 1090.42 2.44228 5.60502 0
M  V30 12237 H 1094.59 3.26468 6.15136 0
M  V30 12238 H 1092.22 3.84913 6.5555 0
M  V30 12239 N 1093.79 -1.57004 0.136909 0
M  V30 12240 C 1095.07 -1.87375 -0.561233 0
M  V30 12241 C 1095.45 -1.04117 -1.83638 0
M  V30 12242 O 1094.8 -0.125103 -2.28157 0
M  V30 12243 C 1095.01 -3.38829 -0.836426 0
M  V30 12244 C 1096.36 -4.07826 -1.18164 0
M  V30 12245 O 1097.38 -3.4395 -0.92611 0
M  V30 12246 O 1096.24 -5.20614 -1.66204 0
M  V30 12247 H 1093.33 -0.776287 -0.285145 0
M  V30 12248 H 1095.88 -1.68818 0.172761 0
M  V30 12249 H 1094.65 -3.91244 0.066442 0
M  V30 12250 H 1094.28 -3.62879 -1.62496 0
M  V30 12251 N 1095.27 0.136881 -1.57004 0
M  V30 12252 C 1096.22 1.17411 -1.95445 0
M  V30 12253 C 1097.21 1.38019 -0.827015 0
M  V30 12254 O 1098.4 1.39412 -1.09057 0
M  V30 12255 C 1095.53 2.50525 -2.34717 0
M  V30 12256 C 1094.61 2.33467 -3.54054 0
M  V30 12257 N 1095 1.86184 -4.70286 0
M  V30 12258 C 1093.3 2.64185 -3.59336 0
M  V30 12259 C 1094 1.82411 -5.5236 0
M  V30 12260 N 1092.98 2.26098 -4.94349 0
M  V30 12261 H 1096.78 0.8008 -2.8278 0
M  V30 12262 H 1094.3 0.344831 -1.58697 0
M  V30 12263 H 1096.29 3.2552 -2.60465 0
M  V30 12264 H 1094.95 2.8863 -1.48738 0
M  V30 12265 H 1095.96 1.55998 -4.93847 0
M  V30 12266 H 1092.64 3.06096 -2.83922 0
M  V30 12267 H 1094.03 1.4726 -6.55564 0
M  V30 12268 N 1096.75 1.52266 0.40654 0
M  V30 12269 C 1097.66 1.78688 1.52012 0
M  V30 12270 C 1098.68 0.6726 1.60475 0
M  V30 12271 O 1099.85 0.95829 1.77141 0
M  V30 12272 C 1096.92 1.93434 2.87722 0
M  V30 12273 C 1095.98 3.17341 2.89125 0
M  V30 12274 C 1095.21 3.31374 4.18362 0
M  V30 12275 O 1095.43 2.50613 5.12396 0
M  V30 12276 O 1094.37 4.24539 4.26674 0
M  V30 12277 H 1098.19 2.73213 1.3262 0
M  V30 12278 H 1095.78 1.37142 0.592653 0
M  V30 12279 H 1097.66 2.04941 3.68208 0
M  V30 12280 H 1096.34 1.02099 3.07177 0
M  V30 12281 H 1095.24 3.1129 2.07483 0
M  V30 12282 H 1096.58 4.08466 2.7462 0
M  V30 12283 N 1098.23 -0.663929 1.42933 0
M  V30 12284 C 1099.45 -1.45691 1.47611 0
M  V30 12285 C 1099.88 -1.87875 0.0920305 0
M  V30 12286 O 1099.24 -1.56696 -0.91192 0
M  V30 12287 C 1099.28 -2.67517 2.41799 0
M  V30 12288 O 1098.39 -3.66187 1.89686 0
M  V30 12289 H 1097.73 -0.437257 0.499702 0
M  V30 12290 H 1100.26 -0.813397 1.87737 0
M  V30 12291 H 1100.27 -3.1546 2.58745 0
M  V30 12292 H 1098.94 -2.36155 3.4235 0
M  V30 12293 H 1097.52 -3.25274 1.82349 0
M  V30 12294 N 1099.71 -1.29285 -0.901281 0
M  V30 12295 C 1100.93 -1.20169 -1.69039 0
M  V30 12296 C 1101.36 0.234509 -1.86632 0
M  V30 12297 O 1100.71 1.16935 -1.38549 0
M  V30 12298 C 1100.76 -1.91852 -3.05328 0
M  V30 12299 O 1099.87 -1.23448 -3.9349 0
M  V30 12300 H 1099.21 -0.416486 -0.517141 0
M  V30 12301 H 1101.74 -1.70826 -1.12603 0
M  V30 12302 H 1101.75 -2.00244 -3.5548 0
M  V30 12303 H 1100.42 -2.96313 -2.91841 0
M  V30 12304 H 1099 -1.23303 -3.51924 0
M  V30 12305 N 1101.18 1.11143 -1.11736 0
M  V30 12306 C 1102.6 1.64462 -0.883693 0
M  V30 12307 C 1102.95 1.87324 0.583448 0
M  V30 12308 O 1102.07 1.60975 1.44623 0
M  V30 12309 C 1102.67 2.98765 -1.59764 0
M  V30 12310 C 1101.23 3.4898 -1.41032 0
M  V30 12311 C 1100.37 2.23729 -1.63831 0
M  V30 12312 H 1103.32 0.947415 -1.27317 0
M  V30 12313 H 1103.34 3.65885 -1.04443 0
M  V30 12314 H 1102.86 2.82094 -2.66542 0
M  V30 12315 H 1100.96 3.7081 -0.364781 0
M  V30 12316 H 1101.07 4.27571 -2.16148 0
M  V30 12317 H 1099.43 2.31507 -1.06191 0
M  V30 12318 H 1100.22 2.09597 -2.7189 0
M  V30 12319 N 1102.66 0.908147 1.28804 0
M  V30 12320 C 1103.91 0.53734 1.94826 0
M  V30 12321 C 1104.23 -0.920962 1.71882 0
M  V30 12322 O 1103.5 -1.65043 1.05534 0
M  V30 12323 H 1102.08 0.195729 0.720902 0
M  V30 12324 H 1104.74 1.15628 1.56895 0
M  V30 12325 H 1103.84 0.727052 3.03513 0
M  V30 12326 N 1104.14 -1.42577 0.671525 0
M  V30 12327 C 1105.37 -2.05924 0.200731 0
M  V30 12328 C 1105.78 -1.50434 -1.14083 0
M  V30 12329 O 1105.14 -0.642845 -1.70803 0
M  V30 12330 C 1105.19 -3.61289 0.123505 0
M  V30 12331 O 1104.91 -4.1472 1.41205 0
M  V30 12332 C 1106.41 -4.41743 -0.371178 0
M  V30 12333 H 1103.63 -0.663746 0.0983958 0
M  V30 12334 H 1106.18 -1.82771 0.917338 0
M  V30 12335 H 1104.33 -3.83565 -0.543769 0
M  V30 12336 H 1104.75 -5.0856 1.28325 0
M  V30 12337 H 1106.22 -5.50731 -0.374128 0
M  V30 12338 H 1106.7 -4.16092 -1.40585 0
M  V30 12339 H 1107.3 -4.24478 0.264244 0
M  V30 12340 N 1105.62 -0.414636 -1.52048 0
M  V30 12341 C 1106.9 0.218172 -1.94379 0
M  V30 12342 C 1107.28 1.62133 -1.35189 0
M  V30 12343 O 1106.62 2.22271 -0.529877 0
M  V30 12344 C 1106.83 0.218932 -3.48313 0
M  V30 12345 C 1108.18 0.435604 -4.2236 0
M  V30 12346 O 1109.21 0.298049 -3.54951 0
M  V30 12347 O 1108.06 0.707217 -5.41905 0
M  V30 12348 H 1105.16 0.142173 -0.814688 0
M  V30 12349 H 1107.7 -0.470977 -1.63033 0
M  V30 12350 H 1106.48 -0.76292 -3.83791 0
M  V30 12351 H 1106.1 0.951949 -3.86036 0
M  V30 12352 N 1107.1 1.56929 -0.145233 0
M  V30 12353 C 1108.01 2.20238 0.808219 0
M  V30 12354 C 1109.02 1.18615 1.27304 0
M  V30 12355 O 1110.2 1.51186 1.3306 0
M  V30 12356 C 1107.26 2.81016 2.03055 0
M  V30 12357 C 1106.32 3.97759 1.61512 0
M  V30 12358 C 1105.56 4.55628 2.77918 0
M  V30 12359 O 1105.78 4.12378 3.94082 0
M  V30 12360 O 1104.71 5.45917 2.53492 0
M  V30 12361 H 1108.54 3.02221 0.299314 0
M  V30 12362 H 1106.13 1.49176 0.0817051 0
M  V30 12363 H 1108.01 3.19652 2.74592 0
M  V30 12364 H 1106.68 2.02047 2.52901 0
M  V30 12365 H 1105.59 3.63842 0.870033 0
M  V30 12366 H 1106.92 4.78242 1.16383 0
M  V30 12367 N 1108.58 -0.128553 1.57075 0
M  V30 12368 C 1109.85 -0.867766 1.75297 0
M  V30 12369 C 1110.23 -1.98508 0.718176 0
M  V30 12370 O 1109.58 -2.2702 -0.259616 0
M  V30 12371 C 1109.79 -1.39326 3.19983 0
M  V30 12372 C 1111.14 -1.84939 3.82208 0
M  V30 12373 O 1112.16 -1.49027 3.23527 0
M  V30 12374 O 1111.02 -2.51227 4.85332 0
M  V30 12375 H 1108.12 -0.411393 0.717415 0
M  V30 12376 H 1110.66 -0.113038 1.69323 0
M  V30 12377 H 1109.43 -0.591172 3.86809 0
M  V30 12378 H 1109.06 -2.21097 3.30457 0
M  V30 12379 N 1110.05 -1.5248 -0.398459 0
M  V30 12380 C 1111 -1.76585 -1.48615 0
M  V30 12381 C 1111.97 -0.608677 -1.54546 0
M  V30 12382 O 1113.16 -0.847383 -1.7095 0
M  V30 12383 C 1110.3 -1.93201 -2.8595 0
M  V30 12384 C 1109.41 -3.20875 -2.89246 0
M  V30 12385 C 1108.54 -3.27862 -4.17947 0
M  V30 12386 C 1107.58 -4.49697 -4.15258 0
M  V30 12387 N 1106.72 -4.54017 -5.35549 0
M  V30 12388 H 1111.56 -2.69412 -1.27362 0
M  V30 12389 H 1109.1 -1.33487 -0.618031 0
M  V30 12390 H 1111.05 -2.00819 -3.65688 0
M  V30 12391 H 1109.68 -1.03743 -3.05675 0
M  V30 12392 H 1108.74 -3.22376 -2.01935 0
M  V30 12393 H 1110.05 -4.1066 -2.83125 0
M  V30 12394 H 1109.2 -3.34611 -5.06083 0
M  V30 12395 H 1107.94 -2.36035 -4.26777 0
M  V30 12396 H 1106.95 -4.43083 -3.25511 0
M  V30 12397 H 1108.17 -5.42831 -4.08059 0
M  V30 12398 H 1106.12 -3.65078 -5.45027 0
M  V30 12399 H 1106.03 -5.37661 -5.31466 0
M  V30 12400 H 1107.3 -4.65009 -6.25609 0
M  V30 12401 N 1111.53 0.65634 -1.43283 0
M  V30 12402 C 1112.76 1.44906 -1.48382 0
M  V30 12403 C 1113.18 1.87823 -0.101993 0
M  V30 12404 O 1112.54 1.57178 0.903597 0
M  V30 12405 C 1112.59 2.66231 -2.43215 0
M  V30 12406 O 1111.69 3.65176 -1.91625 0
M  V30 12407 H 1111.03 0.434601 -0.502014 0
M  V30 12408 H 1113.56 0.803429 -1.88165 0
M  V30 12409 H 1113.57 3.14083 -2.60414 0
M  V30 12410 H 1112.25 2.34336 -3.43598 0
M  V30 12411 H 1110.82 3.24302 -1.84072 0
M  V30 12412 N 1113.01 1.29761 0.894412 0
M  V30 12413 C 1114.26 1.17806 1.64214 0
M  V30 12414 C 1114.58 -0.269588 1.93127 0
M  V30 12415 O 1113.85 -1.18352 1.56107 0
M  V30 12416 H 1112.43 0.433002 0.608702 0
M  V30 12417 H 1115.09 1.6276 1.07216 0
M  V30 12418 H 1114.19 1.73201 2.5963 0
M  V30 12419 O 1114.53 -1.03012 1.24382 0
M  V30 12420 H 1115.22 -1.64615 1.02086 0
M  V30 END ATOM
M  V30 BEGIN BOND
M  V30 END BOND
M  V30 END CTAB
M  END
$$$$
