drugbank_target|P69908 Glutamate decarboxylase alpha (DB03553)
 OpenBabel12092120283D

  0  0  0     0  0            999 V3000
M  V30 BEGIN CTAB
M  V30 COUNTS 7321 7416 0 0 0
M  V30 BEGIN ATOM
M  V30 1 H -0.908 1.98254 -0.117106 0
M  V30 2 N 0 1.576 0 0
M  V30 3 C 0.933 2.03868 1.02534 0
M  V30 4 C 1.911 0.928543 1.3348 0
M  V30 5 O 3.095 1.19667 1.45644 0
M  V30 6 C 0.222 2.43627 2.35294 0
M  V30 7 C -0.732 3.65373 2.2001 0
M  V30 8 S 0.101 5.13292 1.52614 0
M  V30 9 C 1.257 5.56322 2.86805 0
M  V30 10 H 1.49 2.90518 0.631377 0
M  V30 11 H -0.977 1.52953 0.210867 0
M  V30 12 H 0.981 2.67203 3.11629 0
M  V30 13 H -0.358 1.57376 2.7183 0
M  V30 14 H -1.165 3.90944 3.18086 0
M  V30 15 H -1.563 3.418 1.51819 0
M  V30 16 H 0.729 5.58782 3.83104 0
M  V30 17 H 1.672 6.56266 2.65933 0
M  V30 18 H 2.08 4.83886 2.90714 0
M  V30 19 N 1.4781 -0.272755 1.55222 0
M  V30 20 C 2.7551 -1.02562 1.66555 0
M  V30 21 C 3.1351 -2.04282 0.532189 0
M  V30 22 O 2.4831 -2.23662 -0.467717 0
M  V30 23 C 2.6931 -1.6822 3.05782 0
M  V30 24 C 4.0411 -2.19373 3.63539 0
M  V30 25 O 5.0651 -1.78206 3.08417 0
M  V30 26 O 3.9241 -2.94883 4.60115 0
M  V30 27 H 1.0181 -0.475755 0.676451 0
M  V30 28 H 3.5641 -0.268593 1.67561 0
M  V30 29 H 2.3361 -0.945112 3.79715 0
M  V30 30 H 1.9591 -2.50609 3.08676 0
M  V30 31 N 2.9562 -1.48159 -0.537278 0
M  V30 32 C 3.8882 -1.58218 -1.65831 0
M  V30 33 C 4.9012 -0.466948 -1.5596 0
M  V30 34 O 6.0902 -0.73747 -1.62553 0
M  V30 35 C 3.1902 -1.48906 -3.04434 0
M  V30 36 C 2.3632 -2.75343 -3.3986 0
M  V30 37 C 1.4222 -2.59588 -4.57712 0
M  V30 38 O 0.4482 -3.33457 -4.61297 0
M  V30 39 N 1.6502 -1.68724 -5.55439 0
M  V30 40 H 4.4152 -2.54891 -1.57641 0
M  V30 41 H 1.9762 -1.4479 -0.724386 0
M  V30 42 H 3.9682 -1.36072 -3.81139 0
M  V30 43 H 2.5382 -0.602368 -3.06741 0
M  V30 44 H 1.7582 -3.02795 -2.52406 0
M  V30 45 H 3.0462 -3.5924 -3.60311 0
M  V30 46 H 2.4442 -1.07898 -5.55315 0
M  V30 47 H 1.0012 -1.61832 -6.3139 0
M  V30 48 N 4.4343 0.785586 -1.36625 0
M  V30 49 C 5.3813 1.89838 -1.31264 0
M  V30 50 C 6.3513 1.65115 -0.180633 0
M  V30 51 O 7.5363 1.87222 -0.36777 0
M  V30 52 C 4.6763 3.26706 -1.11163 0
M  V30 53 C 3.7893 3.63476 -2.33472 0
M  V30 54 C 2.9243 4.89481 -2.06353 0
M  V30 55 C 1.9633 5.18941 -3.24602 0
M  V30 56 N 1.1003 6.36131 -2.97123 0
M  V30 57 H 5.9403 1.93756 -2.26413 0
M  V30 58 H 3.4773 0.947454 -1.12524 0
M  V30 59 H 5.4353 4.05639 -0.975337 0
M  V30 60 H 4.0653 3.222 -0.196674 0
M  V30 61 H 3.1173 2.79636 -2.57891 0
M  V30 62 H 4.4293 3.81193 -3.21704 0
M  V30 63 H 3.5833 5.76288 -1.89675 0
M  V30 64 H 2.3223 4.73841 -1.15437 0
M  V30 65 H 1.3273 4.30615 -3.41834 0
M  V30 66 H 2.5523 5.36498 -4.16349 0
M  V30 67 H 0.4983 6.21875 -2.08823 0
M  V30 68 H 0.4153 6.54198 -3.78894 0
M  V30 69 H 1.6833 7.2591 -2.84033 0
M  V30 70 N 5.9124 1.20967 1.01018 0
M  V30 71 C 6.8424 0.988272 2.11555 0
M  V30 72 C 7.8234 -0.0849778 1.69888 0
M  V30 73 O 9.0084 0.0738202 1.9406 0
M  V30 74 C 6.1384 0.546528 3.42973 0
M  V30 75 C 5.0924 1.56375 3.9841 0
M  V30 76 C 4.4184 0.97842 5.25672 0
M  V30 77 C 5.7184 2.94922 4.31066 0
M  V30 78 H 7.4124 1.91276 2.30334 0
M  V30 79 H 4.9584 0.921073 1.1069 0
M  V30 80 H 6.9114 0.378839 4.19694 0
M  V30 81 H 5.6354 -0.413598 3.23971 0
M  V30 82 H 4.2944 1.71891 3.23804 0
M  V30 83 H 3.9424 0.0101688 5.02999 0
M  V30 84 H 3.6424 1.65784 5.63728 0
M  V30 85 H 5.1664 0.821939 6.05043 0
M  V30 86 H 6.5804 2.8288 4.9865 0
M  V30 87 H 4.9774 3.5983 4.80253 0
M  V30 88 H 6.0474 3.4616 3.39561 0
M  V30 89 N 7.3905 -1.2043 1.01659 0
M  V30 90 C 8.3205 -2.25466 0.607226 0
M  V30 91 C 9.3015 -1.65853 -0.377716 0
M  V30 92 O 10.4865 -1.92409 -0.263149 0
M  V30 93 C 7.6165 -3.47256 -0.0552949 0
M  V30 94 C 6.5705 -4.19462 0.850632 0
M  V30 95 C 5.8965 -5.34673 0.0538859 0
M  V30 96 C 7.1965 -4.75603 2.15868 0
M  V30 97 H 8.8905 -2.59962 1.48526 0
M  V30 98 H 6.4365 -1.2496 0.715605 0
M  V30 99 H 8.3895 -4.19917 -0.353233 0
M  V30 100 H 7.1135 -3.11924 -0.968045 0
M  V30 101 H 5.7725 -3.48667 1.13257 0
M  V30 102 H 5.4205 -4.95585 -0.860514 0
M  V30 103 H 5.1205 -5.83913 0.657192 0
M  V30 104 H 6.6445 -6.10138 -0.237598 0
M  V30 105 H 8.0585 -5.40083 1.92311 0
M  V30 106 H 6.4555 -5.3528 2.71284 0
M  V30 107 H 7.5255 -3.94346 2.82169 0
M  V30 108 N 8.8686 -0.792821 -1.36206 0
M  V30 109 C 10.0966 -0.378825 -2.03402 0
M  V30 110 C 10.5116 1.00586 -1.59774 0
M  V30 111 O 9.8686 1.64574 -0.788764 0
M  V30 112 C 9.9196 -0.43683 -3.58851 0
M  V30 113 O 9.6406 -1.76691 -4.00889 0
M  V30 114 C 11.1416 -0.0138943 -4.43298 0
M  V30 115 H 8.3616 -0.155673 -0.652692 0
M  V30 116 H 10.9056 -1.07261 -1.74113 0
M  V30 117 H 9.0606 0.208575 -3.86838 0
M  V30 118 H 9.4746 -1.72011 -4.95492 0
M  V30 119 H 10.9486 -0.105615 -5.51899 0
M  V30 120 H 11.4256 1.03915 -4.2673 0
M  V30 121 H 12.0316 -0.63192 -4.20579 0
M  V30 122 N 10.3467 1.47872 -0.545128 0
M  V30 123 C 11.6237 1.9554 0.0485222 0
M  V30 124 C 12.0037 1.4876 1.49779 0
M  V30 125 O 11.3517 0.720925 2.16829 0
M  V30 126 C 11.5617 3.48898 -0.084417 0
M  V30 127 C 12.9097 4.24547 0.0671239 0
M  V30 128 O 13.9337 3.56198 -0.0113649 0
M  V30 129 O 12.7927 5.45999 0.233882 0
M  V30 130 H 9.8867 0.823957 0.0708773 0
M  V30 131 H 12.4327 1.58327 -0.610798 0
M  V30 132 H 11.2047 3.75714 -1.09337 0
M  V30 133 H 10.8277 3.92845 0.613066 0
M  V30 134 N 11.8248 0.280983 1.55075 0
M  V30 135 C 13.0718 -0.334115 1.99725 0
M  V30 136 C 13.3998 -1.5542 1.1694 0
M  V30 137 O 12.6548 -1.94361 0.228531 0
M  V30 138 C 12.9538 -0.754656 3.49342 0
M  V30 139 C 12.6198 0.361445 4.49449 0
M  V30 140 C 11.2818 0.667893 4.76542 0
M  V30 141 C 13.6338 1.11322 5.09173 0
M  V30 142 C 10.9618 1.7296 5.60626 0
M  V30 143 C 13.3138 2.1647 5.9441 0
M  V30 144 C 11.9778 2.47742 6.19822 0
M  V30 145 H 11.2478 -0.122261 0.730844 0
M  V30 146 H 13.8948 0.395917 1.87363 0
M  V30 147 H 12.1998 -1.56446 3.5921 0
M  V30 148 H 13.8968 -1.24142 3.813 0
M  V30 149 H 10.4868 0.112481 4.28452 0
M  V30 150 H 14.6708 0.88973 4.8826 0
M  V30 151 H 9.9268 1.97684 5.78559 0
M  V30 152 H 14.1008 2.75193 6.3972 0
M  V30 153 H 11.7278 3.30145 6.84769 0
M  V30 154 N 13.3029 -1.57598 0.00835791 0
M  V30 155 C 14.7189 -1.55764 -0.347822 0
M  V30 156 C 14.9189 -1.01186 -1.74252 0
M  V30 157 O 13.9749 -0.649371 -2.44007 0
M  V30 158 C 15.2879 -2.99927 -0.215407 0
M  V30 159 C 16.8359 -3.11656 -0.289725 0
M  V30 160 C 17.3109 -4.57621 -0.18634 0
M  V30 161 N 18.8019 -4.62557 -0.243978 0
M  V30 162 C 19.5369 -5.73094 -0.18745 0
M  V30 163 N 19.0329 -6.92753 -0.0810331 0
M  V30 164 N 20.8259 -5.61588 -0.239925 0
M  V30 165 H 12.9769 -1.91411 0.92062 0
M  V30 166 H 15.2399 -0.879562 0.353659 0
M  V30 167 H 14.9459 -3.43729 0.744512 0
M  V30 168 H 14.8199 -3.63865 -0.994097 0
M  V30 169 H 17.2069 -2.67779 -1.24009 0
M  V30 170 H 17.2879 -2.5048 0.51898 0
M  V30 171 H 16.9319 -5.02174 0.760519 0
M  V30 172 H 16.8619 -5.16752 -1.01364 0
M  V30 173 H 19.3529 -3.76481 -0.327217 0
M  V30 174 H 19.6659 -7.72787 -0.0440241 0
M  V30 175 H 18.0109 -6.94984 -0.0465419 0
M  V30 176 H 21.2019 -4.66996 -0.321317 0
M  V30 177 H 21.3749 -6.47714 -0.192407 0
M  V30 178 N 14.781 0.264519 -1.55364 0
M  V30 179 C 16.006 1.01726 -1.80739 0
M  V30 180 C 16.431 1.78836 -0.583044 0
M  V30 181 O 15.789 1.75167 0.467566 0
M  V30 182 C 15.837 1.94482 -3.03659 0
M  V30 183 O 14.941 3.03386 -2.7934 0
M  V30 184 H 14.282 0.290395 -0.597132 0
M  V30 185 H 16.812 0.290854 -2.02522 0
M  V30 186 H 16.822 2.36278 -3.32621 0
M  V30 187 H 15.497 1.37772 -3.92418 0
M  V30 188 H 14.074 2.65844 -2.61498 0
M  V30 189 N 16.2591 1.48442 0.529413 0
M  V30 190 C 17.1691 1.6569 1.66084 0
M  V30 191 C 18.1851 0.539432 1.65427 0
M  V30 192 O 19.3611 0.810572 1.84368 0
M  V30 193 C 16.4261 1.69315 3.02545 0
M  V30 194 C 15.4871 2.92694 3.14052 0
M  V30 195 C 14.7201 2.96137 4.44003 0
M  V30 196 O 14.9431 2.07973 5.31134 0
M  V30 197 O 13.8771 3.88312 4.59888 0
M  V30 198 H 17.7031 2.61483 1.54469 0
M  V30 199 H 15.2881 1.3185 0.702567 0
M  V30 200 H 17.1701 1.74217 3.83701 0
M  V30 201 H 15.8451 0.766966 3.14483 0
M  V30 202 H 14.7521 2.93324 2.32189 0
M  V30 203 H 16.0851 3.84699 3.0703 0
M  V30 204 N 17.7372 -0.778329 1.37039 0
M  V30 205 C 18.6672 -1.90546 1.34962 0
M  V30 206 C 19.6482 -1.68681 0.219274 0
M  V30 207 O 20.8332 -1.89634 0.418624 0
M  V30 208 C 17.9632 -3.27734 1.14925 0
M  V30 209 C 16.9172 -3.64147 2.24902 0
M  V30 210 C 16.2432 -4.99806 1.89996 0
M  V30 211 C 17.5432 -3.71579 3.67051 0
M  V30 212 H 19.2372 -1.92541 2.29277 0
M  V30 213 H 16.7832 -0.924948 1.10366 0
M  V30 214 H 18.7362 -4.06215 1.12104 0
M  V30 215 H 17.4602 -3.26154 0.170631 0
M  V30 216 H 16.1192 -2.8797 2.26868 0
M  V30 217 H 15.7672 -4.94759 0.906796 0
M  V30 218 H 15.4672 -5.25139 2.63634 0
M  V30 219 H 16.9912 -5.80694 1.88749 0
M  V30 220 H 18.4052 -4.40227 3.67251 0
M  V30 221 H 16.8022 -4.08405 4.39688 0
M  V30 222 H 17.8722 -2.72404 4.01154 0
M  V30 223 N 19.2153 -1.21501 -1.00376 0
M  V30 224 C 20.1453 -0.999478 -2.11028 0
M  V30 225 C 21.1263 0.0759671 -1.6993 0
M  V30 226 O 22.3113 -0.0841106 -1.94018 0
M  V30 227 C 19.4413 -0.564709 -3.42678 0
M  V30 228 C 18.3953 -1.58486 -3.97576 0
M  V30 229 C 17.7213 -1.00628 -5.25146 0
M  V30 230 C 19.0213 -2.97204 -4.29496 0
M  V30 231 H 20.7153 -1.92495 -2.29317 0
M  V30 232 H 18.2613 -0.92693 -1.102 0
M  V30 233 H 20.2143 -0.401091 -4.19487 0
M  V30 234 H 18.9383 0.396411 -3.24185 0
M  V30 235 H 17.5973 -1.73606 -3.22888 0
M  V30 236 H 17.2453 -0.0368439 -5.02987 0
M  V30 237 H 16.9453 -1.68771 -5.62841 0
M  V30 238 H 18.4693 -0.854015 -6.04598 0
M  V30 239 H 19.8833 -2.8552 -4.97143 0
M  V30 240 H 18.2803 -3.62372 -4.78338 0
M  V30 241 H 19.3503 -3.47956 -3.3772 0
M  V30 242 N 20.6934 1.19889 -1.02296 0
M  V30 243 C 21.9704 1.85148 -0.630832 0
M  V30 244 C 22.3504 1.91385 0.890782 0
M  V30 245 O 21.6984 1.42642 1.78509 0
M  V30 246 C 21.9084 3.24442 -1.28602 0
M  V30 247 C 23.2564 4.00663 -1.4055 0
M  V30 248 O 24.2804 3.33818 -1.24273 0
M  V30 249 O 23.1394 5.20387 -1.66913 0
M  V30 250 H 20.2334 0.797613 -0.218499 0
M  V30 251 H 22.7794 1.27427 -1.12074 0
M  V30 252 H 21.5514 3.14704 -2.32545 0
M  V30 253 H 21.1744 3.89802 -0.7836 0
M  V30 254 N 22.1715 0.800033 1.35784 0
M  V30 255 C 23.3965 0.388511 2.03729 0
M  V30 256 C 23.8215 -0.990481 1.5991 0
M  V30 257 O 23.1795 -1.64013 0.772612 0
M  V30 258 C 23.2275 0.4726 3.5749 0
M  V30 259 O 22.3315 -0.51646 4.09153 0
M  V30 260 H 21.6725 0.163271 0.643614 0
M  V30 261 H 24.2025 1.0841 1.73518 0
M  V30 262 H 24.2125 0.34003 4.06581 0
M  V30 263 H 22.8875 1.47848 3.88734 0
M  V30 264 H 21.4645 -0.344673 3.71304 0
M  V30 265 N 23.6496 -1.47581 0.552962 0
M  V30 266 C 25.0656 -1.5818 0.212424 0
M  V30 267 C 25.2656 -1.55213 -1.28496 0
M  V30 268 O 24.3216 -1.45329 -2.06484 0
M  V30 269 C 25.6346 -2.88865 0.835318 0
M  V30 270 C 27.1826 -3.0244 0.806156 0
M  V30 271 C 27.6576 -4.35819 1.40804 0
M  V30 272 N 29.1486 -4.42444 1.37103 0
M  V30 273 C 29.8836 -5.44202 1.80641 0
M  V30 274 N 29.3796 -6.52795 2.32015 0
M  V30 275 N 31.1726 -5.35222 1.71738 0
M  V30 276 H 23.3236 -1.47753 1.52587 0
M  V30 277 H 25.5866 -0.702941 0.636064 0
M  V30 278 H 25.2926 -2.9676 1.88749 0
M  V30 279 H 25.1666 -3.7579 0.325848 0
M  V30 280 H 27.5536 -2.94144 -0.237317 0
M  V30 281 H 27.6346 -2.17068 1.35334 0
M  V30 282 H 27.2786 -4.44871 2.45056 0
M  V30 283 H 27.2086 -5.19916 0.836338 0
M  V30 284 H 29.6996 -3.6456 0.995202 0
M  V30 285 H 30.0126 -7.26609 2.63171 0
M  V30 286 H 28.3576 -6.53696 2.36023 0
M  V30 287 H 31.5486 -4.49284 1.31382 0
M  V30 288 H 31.7216 -6.14389 2.05987 0
M  V30 289 N 25.1277 -0.289203 -1.54924 0
M  V30 290 C 26.3747 0.323519 -1.99899 0
M  V30 291 C 26.7027 1.54797 -1.17762 0
M  V30 292 O 25.9577 1.94237 -0.238835 0
M  V30 293 C 26.2567 0.736119 -3.49737 0
M  V30 294 C 25.9227 -0.385276 -4.49251 0
M  V30 295 C 24.5847 -0.693156 -4.76181 0
M  V30 296 C 26.9367 -1.14021 -5.08575 0
M  V30 297 C 24.2647 -1.7593 -5.59701 0
M  V30 298 C 26.6167 -2.19619 -5.93254 0
M  V30 299 C 25.2807 -2.51026 -6.185 0
M  V30 300 H 24.5507 0.118384 -0.731482 0
M  V30 301 H 27.1977 -0.405847 -1.8715 0
M  V30 302 H 25.5027 1.54539 -3.60035 0
M  V30 303 H 27.1997 1.22118 -3.81953 0
M  V30 304 H 23.7897 -0.135202 -4.28387 0
M  V30 305 H 27.9737 -0.915611 -4.87781 0
M  V30 306 H 23.2297 -2.0075 -5.77503 0
M  V30 307 H 27.4037 -2.78581 -6.38252 0
M  V30 308 H 25.0307 -3.33772 -6.83008 0
M  V30 309 N 26.6058 1.57591 -0.0167156 0
M  V30 310 C 27.8538 1.90906 0.663285 0
M  V30 311 C 28.1748 0.892509 1.73376 0
M  V30 312 O 27.4448 -0.0677623 1.95783 0
M  V30 313 H 26.0248 0.704637 0.247983 0
M  V30 314 H 28.6868 1.94803 -0.0615909 0
M  V30 315 H 27.7828 2.9116 1.12393 0
M  V30 316 N 28.0839 -0.256276 1.55502 0
M  V30 317 C 29.0469 -1.30047 1.88734 0
M  V30 318 C 30.0469 -1.4154 0.763086 0
M  V30 319 O 31.2369 -1.40403 1.03115 0
M  V30 320 C 28.3689 -2.67953 2.10747 0
M  V30 321 H 29.5619 -1.01802 2.82093 0
M  V30 322 H 27.1149 -0.495134 1.4825 0
M  V30 323 H 27.8499 -3.01351 1.19825 0
M  V30 324 H 27.6349 -2.60993 2.92617 0
M  V30 325 H 29.1249 -3.43368 2.37673 0
M  V30 326 N 29.562 -1.4872 -0.521534 0
M  V30 327 C 30.509 -1.63871 -1.62527 0
M  V30 328 C 31.479 -0.480559 -1.58996 0
M  V30 329 O 32.664 -0.705085 -1.77294 0
M  V30 330 C 29.804 -1.69227 -3.00759 0
M  V30 331 C 28.917 -2.96207 -3.14461 0
M  V30 332 C 28.052 -2.92671 -4.43303 0
M  V30 333 C 27.091 -4.14318 -4.50563 0
M  V30 334 N 26.228 -4.0881 -5.70805 0
M  V30 335 H 31.068 -2.58123 -1.48918 0
M  V30 336 H 28.605 -1.28 -0.724878 0
M  V30 337 H 30.563 -1.70314 -3.80853 0
M  V30 338 H 29.193 -0.784586 -3.1312 0
M  V30 339 H 28.245 -3.04826 -2.27564 0
M  V30 340 H 29.557 -3.86192 -3.15686 0
M  V30 341 H 28.711 -2.92206 -5.31696 0
M  V30 342 H 27.45 -2.00429 -4.44612 0
M  V30 343 H 26.455 -4.15049 -3.60575 0
M  V30 344 H 27.68 -5.07729 -4.50986 0
M  V30 345 H 25.626 -3.19394 -5.72995 0
M  V30 346 H 25.543 -4.92509 -5.7356 0
M  V30 347 H 26.811 -4.12418 -6.61462 0
M  V30 348 N 31.0401 0.771051 -1.3745 0
M  V30 349 C 32.0031 1.86598 -1.33093 0
M  V30 350 C 33.0031 1.59076 -0.234845 0
M  V30 351 O 34.1931 1.67145 -0.490732 0
M  V30 352 C 31.3251 3.23747 -1.06773 0
M  V30 353 H 32.5181 1.91873 -2.30488 0
M  V30 354 H 30.0711 0.970876 -1.2249 0
M  V30 355 H 30.8061 3.24148 -0.099129 0
M  V30 356 H 30.5911 3.45115 -1.86112 0
M  V30 357 H 32.0811 4.03824 -1.06377 0
M  V30 358 N 32.5182 1.22032 0.997298 0
M  V30 359 C 33.7672 1.03637 1.73038 0
M  V30 360 C 34.0802 -0.429475 1.90827 0
M  V30 361 O 35.2862 -0.732995 2.61418 0
M  V30 362 C 33.7422 1.80582 3.11317 0
M  V30 363 C 33.3502 3.31387 3.01474 0
M  V30 364 C 35.0942 1.70621 3.88701 0
M  V30 365 C 33.0012 4.00791 4.3488 0
M  V30 366 H 31.9312 0.384179 0.648785 0
M  V30 367 H 34.5822 1.4584 1.11368 0
M  V30 368 H 32.9642 1.31175 3.73643 0
M  V30 369 H 34.1382 3.88155 2.4834 0
M  V30 370 H 32.4532 3.41976 2.37575 0
M  V30 371 H 35.0502 2.19799 4.87434 0
M  V30 372 H 35.3932 0.665823 4.10941 0
M  V30 373 H 35.9262 2.17547 3.33044 0
M  V30 374 H 32.6652 5.05064 4.1784 0
M  V30 375 H 32.1852 3.48811 4.87945 0
M  V30 376 H 33.8642 4.06139 5.03647 0
M  V30 377 N 33.9963 -1.19345 1.0293 0
M  V30 378 C 35.2213 -1.93538 0.745511 0
M  V30 379 C 35.6463 -1.75007 -0.689511 0
M  V30 380 O 35.0043 -1.05265 -1.47611 0
M  V30 381 C 35.0523 -3.43336 1.10239 0
M  V30 382 O 34.1563 -4.11806 0.221289 0
M  V30 383 H 33.4973 -0.604193 0.275404 0
M  V30 384 H 36.0273 -1.5141 1.37609 0
M  V30 385 H 36.0373 -3.94004 1.05947 0
M  V30 386 H 34.7123 -3.56146 2.14786 0
M  V30 387 H 33.2893 -3.715 0.322842 0
M  V30 388 N 35.4744 -0.807222 -1.35358 0
M  V30 389 C 36.7024 -0.400377 -2.02989 0
M  V30 390 C 37.1174 0.988859 -1.60832 0
M  V30 391 O 36.4744 1.63729 -0.806175 0
M  V30 392 C 36.5254 -0.474867 -3.58368 0
M  V30 393 O 36.2464 -1.80933 -3.98992 0
M  V30 394 C 37.7474 -0.0609112 -4.43258 0
M  V30 395 H 34.9674 -0.162587 -0.651004 0
M  V30 396 H 37.5114 -1.09102 -1.72965 0
M  V30 397 H 35.6664 0.167534 -3.87038 0
M  V30 398 H 36.0804 -1.77256 -4.9364 0
M  V30 399 H 37.5544 -0.164145 -5.51756 0
M  V30 400 H 38.0314 0.993831 -4.27808 0
M  V30 401 H 38.6374 -0.676492 -4.19885 0
M  V30 402 N 36.9525 1.47285 -0.560781 0
M  V30 403 C 38.2015 2.01668 -0.035895 0
M  V30 404 C 38.5145 1.44021 1.32353 0
M  V30 405 O 39.7205 1.90088 1.93853 0
M  V30 406 C 38.1765 3.59897 -0.0136659 0
M  V30 407 C 37.7845 4.26536 -1.37006 0
M  V30 408 C 39.5285 4.22017 0.458425 0
M  V30 409 C 37.4355 5.76782 -1.30675 0
M  V30 410 H 36.3655 0.753938 -0.00964879 0
M  V30 411 H 39.0165 1.69243 -0.709166 0
M  V30 412 H 37.3985 3.89301 0.725325 0
M  V30 413 H 38.5725 4.0877 -2.12705 0
M  V30 414 H 36.8875 3.76419 -1.78038 0
M  V30 415 H 39.4845 5.32124 0.524247 0
M  V30 416 H 39.8275 3.89437 1.4712 0
M  V30 417 H 40.3605 3.97159 -0.225818 0
M  V30 418 H 37.0995 6.13988 -2.29564 0
M  V30 419 H 36.6195 5.96875 -0.591622 0
M  V30 420 H 38.2985 6.39063 -1.01033 0
M  V30 421 N 38.4306 0.297415 1.54768 0
M  V30 422 C 39.3936 -0.567375 2.22066 0
M  V30 423 C 40.3936 -1.06409 1.20556 0
M  V30 424 O 41.5836 -0.960691 1.45315 0
M  V30 425 C 38.7156 -1.78517 2.90421 0
M  V30 426 H 39.9086 0.0205534 2.99893 0
M  V30 427 H 37.4616 0.0482163 1.56226 0
M  V30 428 H 38.1966 -2.41303 2.16664 0
M  V30 429 H 37.9816 -1.43669 3.64831 0
M  V30 430 H 39.4716 -2.39964 3.41771 0
M  V30 431 N 39.9087 -1.5758 0.0250728 0
M  V30 432 C 40.8187 -2.1343 -0.973905 0
M  V30 433 C 41.8347 -1.08556 -1.35984 0
M  V30 434 O 43.0107 -1.40592 -1.44207 0
M  V30 435 C 40.0757 -2.64703 -2.23904 0
M  V30 436 C 39.1367 -3.84276 -1.91391 0
M  V30 437 C 38.3697 -4.33095 -3.11873 0
M  V30 438 O 38.5927 -3.81107 -4.24398 0
M  V30 439 O 37.5267 -5.24984 -2.94406 0
M  V30 440 H 41.3527 -2.99057 -0.529036 0
M  V30 441 H 38.9377 -1.48118 -0.195288 0
M  V30 442 H 40.8197 -2.97769 -2.98181 0
M  V30 443 H 39.4947 -1.82161 -2.6758 0
M  V30 444 H 38.4017 -3.56143 -1.14511 0
M  V30 445 H 39.7347 -4.67968 -1.52534 0
M  V30 446 N 41.3868 0.248026 -1.55636 0
M  V30 447 C 42.6118 0.998028 -1.81808 0
M  V30 448 C 43.0368 1.78207 -0.601979 0
M  V30 449 O 42.3948 1.75653 0.448961 0
M  V30 450 C 42.4428 1.9125 -3.05705 0
M  V30 451 O 41.5468 3.00406 -2.82542 0
M  V30 452 H 40.8878 0.284045 -0.600179 0
M  V30 453 H 43.4178 0.269357 -2.02819 0
M  V30 454 H 43.4278 2.32737 -3.35108 0
M  V30 455 H 42.1028 1.33602 -3.93857 0
M  V30 456 H 40.6798 2.63056 -2.64303 0
M  V30 457 N 42.8649 1.48995 0.513639 0
M  V30 458 C 43.8119 1.6473 1.61656 0
M  V30 459 C 44.7819 0.488984 1.58739 0
M  V30 460 O 45.9669 0.714478 1.76918 0
M  V30 461 C 43.1069 1.7082 2.99858 0
M  V30 462 C 42.2199 2.9787 3.12885 0
M  V30 463 C 41.3549 2.95017 4.41744 0
M  V30 464 C 40.3939 4.16702 4.48359 0
M  V30 465 N 39.5309 4.11832 5.68629 0
M  V30 466 H 44.3709 2.58909 1.47547 0
M  V30 467 H 41.9079 1.28382 0.71808 0
M  V30 468 H 43.8659 1.72331 3.79944 0
M  V30 469 H 42.4959 0.801181 3.12699 0
M  V30 470 H 41.5479 3.06029 2.25944 0
M  V30 471 H 42.8599 3.8786 3.13633 0
M  V30 472 H 42.0139 2.95021 5.30139 0
M  V30 473 H 40.7529 2.02784 4.43542 0
M  V30 474 H 39.7579 4.16955 3.58369 0
M  V30 475 H 40.9829 5.10113 4.48287 0
M  V30 476 H 38.9289 3.22428 5.71293 0
M  V30 477 H 38.8459 4.95543 5.7094 0
M  V30 478 H 40.1139 4.1592 6.59266 0
M  V30 479 N 44.343 -0.763751 1.37857 0
M  V30 480 C 45.759 -1.06542 1.18832 0
M  V30 481 C 45.959 -2.01478 0.0299722 0
M  V30 482 O 45.015 -2.4458 -0.627447 0
M  V30 483 C 46.328 -1.65525 2.51042 0
M  V30 484 C 47.876 -1.77745 2.57635 0
M  V30 485 C 48.351 -2.4014 3.89996 0
M  V30 486 N 49.842 -2.47582 3.91481 0
M  V30 487 C 50.577 -2.96732 4.9065 0
M  V30 488 N 50.073 -3.45993 6.00217 0
M  V30 489 N 51.866 -2.95679 4.78048 0
M  V30 490 H 44.017 -0.133556 2.1198 0
M  V30 491 H 46.28 -0.121879 0.940133 0
M  V30 492 H 45.986 -1.03236 3.36207 0
M  V30 493 H 45.86 -2.64719 2.68707 0
M  V30 494 H 48.247 -2.39164 1.72872 0
M  V30 495 H 48.328 -0.772836 2.43846 0
M  V30 496 H 47.972 -1.79358 4.75177 0
M  V30 497 H 47.902 -3.41223 4.01092 0
M  V30 498 H 50.393 -2.1273 3.12337 0
M  V30 499 H 50.706 -3.81922 6.7183 0
M  V30 500 H 49.051 -3.44077 6.03851 0
M  V30 501 H 52.242 -2.56499 3.91568 0
M  V30 502 H 52.415 -3.33672 5.55488 0
M  V30 503 N 45.8211 -1.22559 -0.990812 0
M  V30 504 C 47.0681 -1.05141 -1.73065 0
M  V30 505 C 47.3961 0.413191 -1.9006 0
M  V30 506 O 46.6511 1.32257 -1.44245 0
M  V30 507 C 46.9501 -1.71011 -3.13831 0
M  V30 508 C 46.6161 -3.20911 -3.16745 0
M  V30 509 C 45.2781 -3.61812 -3.17247 0
M  V30 510 C 47.6301 -4.16846 -3.12872 0
M  V30 511 C 44.9581 -4.97127 -3.1158 0
M  V30 512 C 47.3101 -5.5214 -3.08746 0
M  V30 513 C 45.9741 -5.92419 -3.07565 0
M  V30 514 H 45.2441 -0.384738 -0.633291 0
M  V30 515 H 47.8911 -1.5235 -1.16025 0
M  V30 516 H 46.1961 -1.16133 -3.74193 0
M  V30 517 H 47.8931 -1.55023 -3.69823 0
M  V30 518 H 44.4831 -2.88344 -3.17105 0
M  V30 519 H 48.6671 -3.86263 -3.11632 0
M  V30 520 H 43.9231 -5.27562 -3.09012 0
M  V30 521 H 48.0971 -6.26201 -3.04705 0
M  V30 522 H 45.7241 -6.97236 -3.02929 0
M  V30 523 N 47.2992 1.18797 -1.03562 0
M  V30 524 C 48.7102 1.70322 -0.764676 0
M  V30 525 C 49.0612 1.82708 0.714996 0
M  V30 526 O 48.1862 1.50299 1.55689 0
M  V30 527 C 48.7812 3.09356 -1.38145 0
M  V30 528 C 47.3402 3.58114 -1.15895 0
M  V30 529 C 46.4872 2.34798 -1.4753 0
M  V30 530 H 49.4382 1.03543 -1.20268 0
M  V30 531 H 49.4592 3.72378 -0.781977 0
M  V30 532 H 48.9712 3.00309 -2.45837 0
M  V30 533 H 47.0722 3.72464 -0.100544 0
M  V30 534 H 47.1852 4.4184 -1.8524 0
M  V30 535 H 45.5492 2.38464 -0.894829 0
M  V30 536 H 46.3322 2.28375 -2.56319 0
M  V30 537 N 48.7773 0.814389 1.34928 0
M  V30 538 C 49.7073 0.244827 2.32213 0
M  V30 539 C 50.6883 -0.634024 1.57842 0
M  V30 540 O 51.8733 -0.562676 1.8587 0
M  V30 541 C 49.0033 -0.601106 3.42058 0
M  V30 542 C 47.9573 0.179896 4.27622 0
M  V30 543 C 47.2833 -0.788237 5.28858 0
M  V30 544 C 48.5833 1.38329 5.03649 0
M  V30 545 H 50.2773 1.05763 2.80097 0
M  V30 546 H 47.8233 0.510029 1.34665 0
M  V30 547 H 49.7763 -1.00968 4.09125 0
M  V30 548 H 48.5003 -1.44688 2.92802 0
M  V30 549 H 47.1593 0.569739 3.62146 0
M  V30 550 H 46.8073 -1.62973 4.75866 0
M  V30 551 H 46.5073 -0.269942 5.8698 0
M  V30 552 H 48.0313 -1.19485 5.98795 0
M  V30 553 H 49.4453 1.04918 5.63618 0
M  V30 554 H 47.8423 1.83662 5.71304 0
M  V30 555 H 48.9123 2.16592 4.33839 0
M  V30 556 N 50.2554 -1.46986 0.568584 0
M  V30 557 C 51.2054 -2.27179 -0.193339 0
M  V30 558 C 52.1894 -1.35035 -0.874895 0
M  V30 559 O 53.3814 -1.5931 -0.771322 0
M  V30 560 C 50.5104 -3.21063 -1.21546 0
M  V30 561 C 49.5964 -4.2069 -0.536738 0
M  V30 562 N 49.9874 -5.04218 0.399673 0
M  V30 563 C 48.2854 -4.38961 -0.789254 0
M  V30 564 C 48.9864 -5.76242 0.795017 0
M  V30 565 N 47.9624 -5.434 0.1473 0
M  V30 566 H 51.7644 -2.89146 0.526458 0
M  V30 567 H 49.2784 -1.57664 0.389342 0
M  V30 568 H 51.2754 -3.77209 -1.77536 0
M  V30 569 H 49.9354 -2.60654 -1.93623 0
M  V30 570 H 50.9464 -5.12077 0.774454 0
M  V30 571 H 47.6234 -3.89713 -1.49767 0
M  V30 572 H 49.0134 -6.53417 1.56513 0
M  V30 573 N 51.7335 -0.305618 -1.54608 0
M  V30 574 C 52.6435 0.57778 -2.27374 0
M  V30 575 C 53.6595 1.14451 -1.31061 0
M  V30 576 O 54.8355 1.16831 -1.6405 0
M  V30 577 C 51.9005 1.73123 -3.00382 0
M  V30 578 C 50.9615 1.19812 -4.12242 0
M  V30 579 C 50.1945 2.2966 -4.81759 0
M  V30 580 O 50.4175 3.49651 -4.50666 0
M  V30 581 O 49.3515 1.96091 -5.69062 0
M  V30 582 H 53.1775 -0.012624 -3.03697 0
M  V30 583 H 50.7625 -0.0719184 -1.49227 0
M  V30 584 H 52.6445 2.40315 -3.4616 0
M  V30 585 H 51.3195 2.30815 -2.26949 0
M  V30 586 H 50.2265 0.491798 -3.70853 0
M  V30 587 H 51.5595 0.666566 -4.87666 0
M  V30 588 N 53.2116 1.57565 -0.0334293 0
M  V30 589 C 54.1446 2.05997 0.981866 0
M  V30 590 C 55.1226 0.956647 1.3148 0
M  V30 591 O 56.3066 1.22729 1.43073 0
M  V30 592 C 53.4336 2.48564 2.30074 0
M  V30 593 C 52.4796 3.69958 2.12211 0
M  V30 594 S 53.3126 5.16414 1.41692 0
M  V30 595 C 54.4686 5.6228 2.7494 0
M  V30 596 H 54.7016 2.91792 0.569612 0
M  V30 597 H 52.2346 1.53366 0.178376 0
M  V30 598 H 54.1926 2.73753 3.05892 0
M  V30 599 H 52.8536 1.63106 2.68431 0
M  V30 600 H 52.0466 3.97603 3.09722 0
M  V30 601 H 51.6486 3.44943 1.44535 0
M  V30 602 H 53.9406 5.66783 3.71165 0
M  V30 603 H 54.8836 6.61759 2.51953 0
M  V30 604 H 55.2916 4.89944 2.80384 0
M  V30 605 N 54.6897 -0.239769 1.55765 0
M  V30 606 C 56.1057 -0.588624 1.48349 0
M  V30 607 C 56.3057 -1.88005 0.72502 0
M  V30 608 O 55.3617 -2.51186 0.257269 0
M  V30 609 C 56.6747 -0.68474 2.928 0
M  V30 610 C 58.2227 -0.77659 3.03213 0
M  V30 611 C 58.6977 -0.904207 4.48986 0
M  V30 612 N 60.1887 -0.968896 4.52953 0
M  V30 613 C 60.9237 -1.08703 5.63002 0
M  V30 614 N 60.4197 -1.17026 6.82845 0
M  V30 615 N 62.2127 -1.12074 5.50814 0
M  V30 616 H 54.3637 0.607911 2.03515 0
M  V30 617 H 56.6267 0.21083 0.924259 0
M  V30 618 H 56.3327 0.194284 3.51163 0
M  V30 619 H 56.2067 -1.55435 3.43686 0
M  V30 620 H 58.5937 -1.64606 2.44926 0
M  V30 621 H 58.6747 0.118315 2.55526 0
M  V30 622 H 58.3187 -0.0392633 5.07885 0
M  V30 623 H 58.2487 -1.81426 4.9436 0
M  V30 624 H 60.7397 -0.915633 3.6664 0
M  V30 625 H 61.0527 -1.25966 7.62465 0
M  V30 626 H 59.3977 -1.13971 6.85591 0
M  V30 627 H 62.5887 -1.05226 4.5612 0
M  V30 628 H 62.7617 -1.20936 6.36615 0
M  V30 629 N 56.1678 -1.49265 -0.50573 0
M  V30 630 C 57.4448 -1.49012 -1.26707 0
M  V30 631 C 57.8248 -0.215205 -2.1 0
M  V30 632 O 57.1728 0.802547 -2.13943 0
M  V30 633 C 57.3828 -2.7663 -2.12783 0
M  V30 634 C 58.7308 -3.25932 -2.72127 0
M  V30 635 O 59.7548 -2.77715 -2.23054 0
M  V30 636 O 58.6138 -4.09897 -3.61451 0
M  V30 637 H 55.7078 -0.596197 -0.57313 0
M  V30 638 H 58.2538 -1.61524 -0.52039 0
M  V30 639 H 57.0258 -3.60916 -1.5118 0
M  V30 640 H 56.6488 -2.66956 -2.94653 0
M  V30 641 N 57.6459 0.756429 -1.3826 0
M  V30 642 C 58.9229 1.50584 -1.24835 0
M  V30 643 C 59.3029 2.10556 0.151485 0
M  V30 644 O 58.6509 1.96825 1.1607 0
M  V30 645 C 58.8609 2.57448 -2.3563 0
M  V30 646 C 60.2089 3.24429 -2.73917 0
M  V30 647 O 61.2329 2.67751 -2.34921 0
M  V30 648 O 60.0919 4.26937 -3.41156 0
M  V30 649 H 57.1859 0.667664 -0.48801 0
M  V30 650 H 59.7319 0.792083 -1.5008 0
M  V30 651 H 58.5039 2.11362 -3.29305 0
M  V30 652 H 58.1269 3.36408 -2.11933 0
M  V30 653 N 59.124 1.23083 0.984299 0
M  V30 654 C 60.37 1.06214 1.72761 0
M  V30 655 C 60.703 -0.400584 1.90024 0
M  V30 656 O 59.978 -1.29672 1.44967 0
M  V30 657 C 60.261 1.78375 3.12817 0
M  V30 658 C 60.114 3.32296 3.03149 0
M  V30 659 C 61.433 1.54309 4.12161 0
M  V30 660 H 58.552 0.387251 0.627061 0
M  V30 661 H 61.194 1.51536 1.14616 0
M  V30 662 H 59.344 1.39848 3.62457 0
M  V30 663 H 61.016 3.8032 2.61064 0
M  V30 664 H 59.259 3.6153 2.39747 0
M  V30 665 H 59.93 3.77972 4.02295 0
M  V30 666 H 62.406 1.87791 3.71314 0
M  V30 667 H 61.282 2.07281 5.08258 0
M  V30 668 H 61.543 0.477572 4.39513 0
M  V30 669 N 60.6021 -1.18246 1.0419 0
M  V30 670 C 61.5651 -2.20128 0.638452 0
M  V30 671 C 62.5651 -1.57885 -0.304805 0
M  V30 672 O 63.7551 -1.73967 -0.0900369 0
M  V30 673 C 60.8871 -3.4084 -0.0637751 0
M  V30 674 H 62.0801 -2.57336 1.54007 0
M  V30 675 H 59.6331 -1.32152 0.834598 0
M  V30 676 H 60.3681 -3.09166 -0.979136 0
M  V30 677 H 60.1531 -3.8726 0.614198 0
M  V30 678 H 61.6431 -4.16274 -0.332512 0
M  V30 679 N 62.0802 -0.821533 -1.34494 0
M  V30 680 C 63.3272 -0.408946 -1.98328 0
M  V30 681 C 63.6552 1.02764 -1.65136 0
M  V30 682 O 62.9102 1.73026 -0.914349 0
M  V30 683 C 63.2092 -0.556512 -3.53041 0
M  V30 684 C 62.8752 -1.95861 -4.0614 0
M  V30 685 C 61.5372 -2.34217 -4.20352 0
M  V30 686 C 63.8892 -2.87523 -4.34718 0
M  V30 687 C 61.2172 -3.63572 -4.6047 0
M  V30 688 C 63.5692 -4.1634 -4.76281 0
M  V30 689 C 62.2332 -4.54675 -4.88699 0
M  V30 690 H 61.5032 -0.149644 -0.725732 0
M  V30 691 H 64.1502 -1.04521 -1.6046 0
M  V30 692 H 62.4552 0.163148 -3.9146 0
M  V30 693 H 64.1522 -0.217826 -4.00408 0
M  V30 694 H 60.7422 -1.65066 -3.95539 0
M  V30 695 H 64.9262 -2.59133 -4.23277 0
M  V30 696 H 60.1822 -3.93101 -4.68275 0
M  V30 697 H 64.3562 -4.87455 -4.97354 0
M  V30 698 H 61.9832 -5.54959 -5.19542 0
M  V30 699 N 63.5583 1.46682 -0.576371 0
M  V30 700 C 64.4903 2.28341 0.198231 0
M  V30 701 C 65.5033 1.38141 0.861453 0
M  V30 702 O 66.6923 1.62797 0.732082 0
M  V30 703 C 63.7923 3.12986 1.29972 0
M  V30 704 C 62.9653 4.31271 0.729639 0
M  V30 705 C 62.0243 4.97363 1.71803 0
M  V30 706 O 61.0503 5.55156 1.25658 0
M  V30 707 N 62.2523 4.93796 3.05198 0
M  V30 708 H 65.0173 2.9546 -0.502324 0
M  V30 709 H 62.5783 1.56525 -0.413715 0
M  V30 710 H 64.5703 3.54066 1.96008 0
M  V30 711 H 63.1403 2.47984 1.90323 0
M  V30 712 H 62.3603 3.94052 -0.108012 0
M  V30 713 H 63.6483 5.07739 0.328438 0
M  V30 714 H 63.0463 4.48077 3.45317 0
M  V30 715 H 61.6033 5.38837 3.6674 0
M  V30 716 N 65.0364 0.313813 1.54444 0
M  V30 717 C 66.2854 -0.292519 1.99568 0
M  V30 718 C 66.5984 -1.54011 1.20582 0
M  V30 719 O 67.8044 -2.22183 1.56035 0
M  V30 720 C 66.2604 -0.571752 3.55329 0
M  V30 721 C 65.8684 0.658229 4.43138 0
M  V30 722 C 67.6124 -1.13857 4.08946 0
M  V30 723 C 65.5194 0.351439 5.90355 0
M  V30 724 H 64.4494 -0.113079 0.745472 0
M  V30 725 H 67.1004 0.424518 1.78522 0
M  V30 726 H 65.4824 -1.34872 3.72325 0
M  V30 727 H 66.6564 1.43403 4.37918 0
M  V30 728 H 64.9714 1.14458 4.0036 0
M  V30 729 H 67.5684 -1.38257 5.16516 0
M  V30 730 H 67.9114 -2.08489 3.6033 0
M  V30 731 H 68.4444 -0.423015 3.95544 0
M  V30 732 H 65.1834 1.26667 6.43145 0
M  V30 733 H 64.7034 -0.386842 5.98551 0
M  V30 734 H 66.3824 -0.0423134 6.46986 0
M  V30 735 N 66.5145 -1.57545 0.0417849 0
M  V30 736 C 67.7635 -1.91494 -0.633492 0
M  V30 737 C 68.0765 -0.921084 -1.72556 0
M  V30 738 O 69.2825 -1.15228 -2.45835 0
M  V30 739 C 67.7385 -3.40072 -1.17808 0
M  V30 740 C 67.3465 -4.47843 -0.118633 0
M  V30 741 C 69.0905 -3.8307 -1.82915 0
M  V30 742 C 66.9975 -5.87529 -0.675578 0
M  V30 743 H 65.9275 -0.714653 -0.24039 0
M  V30 744 H 68.5785 -1.83175 0.109148 0
M  V30 745 H 66.9605 -3.43364 -1.97274 0
M  V30 746 H 68.1345 -4.56128 0.654494 0
M  V30 747 H 66.4495 -4.14128 0.434414 0
M  V30 748 H 69.0465 -4.84794 -2.25563 0
M  V30 749 H 69.3895 -3.1881 -2.67705 0
M  V30 750 H 69.9225 -3.82255 -1.10119 0
M  V30 751 H 66.6615 -6.55362 0.134475 0
M  V30 752 H 66.1815 -5.82824 -1.4169 0
M  V30 753 H 67.8605 -6.36491 -1.1614 0
M  V30 754 N 67.9926 0.231505 -1.5589 0
M  V30 755 C 68.9406 1.30649 -1.92441 0
M  V30 756 C 69.9346 1.49037 -0.805254 0
M  V30 757 O 71.1406 1.50329 -0.990007 0
M  V30 758 H 67.5156 0.437812 -0.611412 0
M  V30 759 H 69.4866 0.970973 -2.82161 0
M  V30 760 C 68.2356 2.65179 -2.24889 0
M  V30 761 H 67.5586 2.51835 -3.10514 0
M  V30 762 H 68.9986 3.39234 -2.54355 0
M  V30 763 C 67.4576 3.19439 -1.07054 0
M  V30 764 O 67.9876 4.00371 -0.326499 0
M  V30 765 N 66.1936 2.77675 -0.85703 0
M  V30 766 H 65.7406 2.11969 -1.46379 0
M  V30 767 H 65.6986 3.14321 -0.0703223 0
M  V30 768 N 69.4707 1.49531 0.497807 0
M  V30 769 C 70.7477 1.49682 1.25915 0
M  V30 770 C 71.1277 0.226339 2.09883 0
M  V30 771 O 70.4757 -0.791189 2.14365 0
M  V30 772 C 70.6857 2.77755 2.11313 0
M  V30 773 C 72.0337 3.27371 2.70395 0
M  V30 774 O 73.0577 2.78894 2.21578 0
M  V30 775 O 71.9167 4.11808 3.59272 0
M  V30 776 H 69.0107 0.599228 0.56996 0
M  V30 777 H 71.5567 1.61798 0.511816 0
M  V30 778 H 70.3287 3.61713 1.49264 0
M  V30 779 H 69.9517 2.68515 2.93233 0
M  V30 780 N 70.9488 -0.749086 1.3866 0
M  V30 781 C 71.8588 -1.89358 1.38494 0
M  V30 782 C 72.8748 -1.71708 0.281476 0
M  V30 783 O 74.0508 -1.94554 0.520643 0
M  V30 784 C 71.1158 -3.24782 1.21316 0
M  V30 785 C 70.1768 -3.54926 2.41508 0
M  V30 786 C 69.4098 -4.83888 2.2514 0
M  V30 787 O 69.6328 -5.56592 1.24746 0
M  V30 788 O 68.5668 -5.13612 3.13826 0
M  V30 789 H 72.3928 -1.92452 2.34938 0
M  V30 790 H 69.9778 -0.894981 1.19626 0
M  V30 791 H 71.8598 -4.05739 1.13814 0
M  V30 792 H 70.5348 -3.2249 0.279592 0
M  V30 793 H 69.4418 -2.74112 2.54585 0
M  V30 794 H 70.7748 -3.61983 3.3351 0
M  V30 795 N 72.4269 -1.23603 -0.977757 0
M  V30 796 C 73.3569 -1.04401 -2.0886 0
M  V30 797 C 74.3379 0.0399052 -1.70053 0
M  V30 798 O 75.5229 -0.125246 -1.93796 0
M  V30 799 C 72.6529 -0.637269 -3.41403 0
M  V30 800 C 71.6069 -1.66883 -3.94124 0
M  V30 801 C 70.9329 -1.11745 -5.22893 0
M  V30 802 C 72.2329 -3.06247 -4.23096 0
M  V30 803 H 73.9269 -1.97316 -2.25182 0
M  V30 804 H 71.4729 -0.950096 -1.08209 0
M  V30 805 H 73.4259 -0.48998 -4.18542 0
M  V30 806 H 72.1499 0.327557 -3.24953 0
M  V30 807 H 70.8089 -1.80416 -3.19133 0
M  V30 808 H 70.4569 -0.143527 -5.02795 0
M  V30 809 H 70.1569 -1.80672 -5.59134 0
M  V30 810 H 71.6809 -0.982067 -6.02651 0
M  V30 811 H 73.0949 -2.96001 -4.90975 0
M  V30 812 H 71.4919 -3.72436 -4.70544 0
M  V30 813 H 72.5619 -3.55041 -3.30263 0
M  V30 814 N 73.905 1.17692 -1.04816 0
M  V30 815 C 75.135 1.91508 -0.775128 0
M  V30 816 C 75.543 1.76844 0.67253 0
M  V30 817 O 74.886 1.10057 1.47082 0
M  V30 818 C 74.948 3.43167 -1.0713 0
M  V30 819 C 74.612 3.81612 -2.51438 0
M  V30 820 C 75.609 3.84772 -3.49638 0
M  V30 821 C 73.294 4.12687 -2.86348 0
M  V30 822 C 75.288 4.18469 -4.80794 0
M  V30 823 C 72.975 4.46053 -4.17708 0
M  V30 824 C 73.973 4.48921 -5.14741 0
M  V30 825 O 73.661 4.81504 -6.43746 0
M  V30 826 H 73.393 0.614575 -0.281555 0
M  V30 827 H 75.947 1.50206 -1.40098 0
M  V30 828 H 74.177 3.84745 -0.388342 0
M  V30 829 H 75.866 3.98239 -0.784883 0
M  V30 830 H 76.632 3.60893 -3.24008 0
M  V30 831 H 72.511 4.09627 -2.11486 0
M  V30 832 H 76.055 4.20623 -5.56527 0
M  V30 833 H 71.952 4.69393 -4.43103 0
M  V30 834 H 72.72 4.99377 -6.4851 0
M  V30 835 N 75.3831 0.828654 1.34056 0
M  V30 836 C 76.3131 0.269443 2.3194 0
M  V30 837 C 77.2941 -0.617247 1.58506 0
M  V30 838 O 78.4791 -0.542931 1.86456 0
M  V30 839 C 75.6091 -0.564793 3.42677 0
M  V30 840 C 74.5631 0.225241 4.27407 0
M  V30 841 C 73.8891 -0.7321 5.29664 0
M  V30 842 C 75.1891 1.43663 5.02154 0
M  V30 843 H 76.8831 1.08728 2.7896 0
M  V30 844 H 74.4291 0.524283 1.34117 0
M  V30 845 H 76.3821 -0.966233 4.10173 0
M  V30 846 H 75.1061 -1.41574 2.9432 0
M  V30 847 H 73.7651 0.608117 3.61521 0
M  V30 848 H 73.4131 -1.57916 4.77568 0
M  V30 849 H 73.1131 -0.20767 5.87233 0
M  V30 850 H 74.6371 -1.13128 6.00029 0
M  V30 851 H 76.0511 1.1089 5.62473 0
M  V30 852 H 74.4481 1.89711 5.69324 0
M  V30 853 H 75.5181 2.21181 4.31517 0
M  V30 854 N 76.8612 -1.46375 0.584142 0
M  V30 855 C 78.1382 -1.956 0.0033388 0
M  V30 856 C 78.5182 -1.52679 -1.45782 0
M  V30 857 O 77.8662 -0.77816 -2.14842 0
M  V30 858 C 78.0762 -3.48551 0.176891 0
M  V30 859 C 79.4242 -4.24576 0.0454609 0
M  V30 860 O 80.4482 -3.56043 0.105801 0
M  V30 861 O 79.3072 -5.46427 -0.0890376 0
M  V30 862 H 76.4012 -0.825547 -0.0490066 0
M  V30 863 H 78.9472 -1.56652 0.65256 0
M  V30 864 H 77.7192 -3.72683 1.1926 0
M  V30 865 H 77.3422 -3.94332 -0.508695 0
M  V30 866 N 78.3393 -0.321999 -1.54275 0
M  V30 867 C 79.5873 0.280489 -2.00144 0
M  V30 868 C 79.9083 1.52777 -1.21178 0
M  V30 869 O 79.1783 1.9338 -0.313187 0
M  V30 870 H 77.7583 0.106632 -0.73935 0
M  V30 871 H 80.4203 -0.438184 -1.8991 0
M  V30 872 H 79.5163 0.537972 -3.07428 0
M  V30 873 N 79.8174 1.5752 -0.0501392 0
M  V30 874 C 80.7654 2.12651 0.942459 0
M  V30 875 C 81.7594 1.05807 1.32292 0
M  V30 876 O 82.9654 1.24217 1.3027 0
M  V30 877 H 79.3404 0.679673 0.321789 0
M  V30 878 H 81.3114 2.94951 0.452356 0
M  V30 879 C 80.0604 2.68565 2.20836 0
M  V30 880 H 79.3834 3.50439 1.92439 0
M  V30 881 H 80.8234 3.10761 2.8845 0
M  V30 882 C 79.2824 1.62291 2.95234 0
M  V30 883 O 79.8124 1.03508 3.88135 0
M  V30 884 N 78.0184 1.33836 2.57946 0
M  V30 885 H 77.5654 1.81826 1.82475 0
M  V30 886 H 77.5234 0.629595 3.08032 0
M  V30 887 N 81.2955 -0.223234 1.56011 0
M  V30 888 C 82.2585 -1.26014 1.9145 0
M  V30 889 C 83.2585 -1.3989 0.792937 0
M  V30 890 O 84.4485 -1.38184 1.0607 0
M  V30 891 C 81.5805 -2.63422 2.16383 0
M  V30 892 H 82.7735 -0.95796 2.84189 0
M  V30 893 H 80.3265 -0.463576 1.49267 0
M  V30 894 H 81.0615 -2.98741 1.2619 0
M  V30 895 H 80.8465 -2.54728 2.98088 0
M  V30 896 H 82.3365 -3.38249 2.44903 0
M  V30 897 N 82.7736 -1.49793 -0.48987 0
M  V30 898 C 84.1896 -1.36803 -0.822022 0
M  V30 899 C 84.3896 -0.409652 -1.97292 0
M  V30 900 O 83.4456 0.154614 -2.52026 0
M  V30 901 C 84.7586 -2.77768 -1.15175 0
M  V30 902 C 86.3066 -2.86549 -1.25931 0
M  V30 903 C 86.7816 -4.28306 -1.62228 0
M  V30 904 N 88.2726 -4.31169 -1.69256 0
M  V30 905 C 89.0076 -5.37832 -1.98807 0
M  V30 906 N 88.5036 -6.54726 -2.26507 0
M  V30 907 N 90.2966 -5.25258 -2.00152 0
M  V30 908 H 82.4476 -2.10691 0.268881 0
M  V30 909 H 84.7106 -0.946241 0.057728 0
M  V30 910 H 84.4166 -3.49648 -0.379335 0
M  V30 911 H 84.2906 -3.13836 -2.09253 0
M  V30 912 H 86.6776 -2.14899 -2.02243 0
M  V30 913 H 86.7586 -2.54049 -0.298776 0
M  V30 914 H 86.4026 -5.00486 -0.864622 0
M  V30 915 H 86.3326 -4.58279 -2.594 0
M  V30 916 H 88.8236 -3.4687 -1.49965 0
M  V30 917 H 89.1366 -7.31833 -2.48276 0
M  V30 918 H 87.4816 -6.57933 -2.23939 0
M  V30 919 H 90.6726 -4.32938 -1.77996 0
M  V30 920 H 90.8456 -6.08476 -2.22848 0
M  V30 921 N 84.2517 0.741722 -1.39055 0
M  V30 922 C 85.1837 1.8657 -1.33133 0
M  V30 923 C 86.1967 1.61001 -0.241329 0
M  V30 924 O 87.3857 1.7136 -0.499784 0
M  V30 925 C 84.4857 3.22457 -1.04283 0
M  V30 926 C 83.6587 3.75435 -2.24427 0
M  V30 927 C 82.7177 4.89867 -1.92138 0
M  V30 928 O 81.7437 5.03879 -2.64754 0
M  V30 929 N 82.9457 5.73738 -0.88347 0
M  V30 930 H 85.7107 1.92156 -2.29991 0
M  V30 931 H 83.2717 0.922172 -1.3307 0
M  V30 932 H 85.2637 3.9657 -0.807128 0
M  V30 933 H 83.8337 3.12181 -0.161807 0
M  V30 934 H 83.0537 2.92751 -2.6399 0
M  V30 935 H 84.3417 4.07563 -3.04581 0
M  V30 936 H 83.7397 5.64999 -0.281517 0
M  V30 937 H 82.2967 6.47947 -0.707662 0
M  V30 938 N 85.7298 1.2412 0.971189 0
M  V30 939 C 86.6778 1.02812 2.08644 0
M  V30 940 C 87.6718 -0.0358403 1.69362 0
M  V30 941 O 88.8778 0.118429 1.7961 0
M  V30 942 H 85.2528 0.315428 0.682649 0
M  V30 943 H 87.2238 1.97397 2.23779 0
M  V30 944 C 85.9728 0.645874 3.41649 0
M  V30 945 H 85.2958 1.45632 3.72332 0
M  V30 946 H 86.7358 0.536366 4.20594 0
M  V30 947 C 85.1948 -0.646713 3.30635 0
M  V30 948 O 85.7248 -1.69338 3.64263 0
M  V30 949 N 83.9308 -0.626115 2.83775 0
M  V30 950 H 83.4778 0.225988 2.56607 0
M  V30 951 H 83.4358 -1.49117 2.76788 0
M  V30 952 N 87.2079 -1.17134 1.05439 0
M  V30 953 C 88.1379 -2.2342 0.678649 0
M  V30 954 C 89.1189 -1.66971 -0.32476 0
M  V30 955 O 90.3039 -1.93149 -0.201802 0
M  V30 956 C 87.4339 -3.47256 0.0552099 0
M  V30 957 C 86.3879 -4.16543 0.98365 0
M  V30 958 C 85.7139 -5.34231 0.223961 0
M  V30 959 C 87.0139 -4.68495 2.3089 0
M  V30 960 H 88.7079 -2.55105 1.56722 0
M  V30 961 H 86.2539 -1.2262 0.754998 0
M  V30 962 H 88.2069 -4.20828 -0.21946 0
M  V30 963 H 86.9309 -3.14846 -0.868319 0
M  V30 964 H 85.5899 -3.44887 1.24293 0
M  V30 965 H 85.2379 -4.98071 -0.702412 0
M  V30 966 H 84.9379 -5.81527 0.842627 0
M  V30 967 H 86.4619 -6.10585 -0.0433671 0
M  V30 968 H 87.8759 -5.33691 2.09396 0
M  V30 969 H 86.2729 -5.26379 2.88176 0
M  V30 970 H 87.3429 -3.85169 2.94572 0
M  V30 971 N 88.686 -0.835752 -1.33615 0
M  V30 972 C 89.649 -0.272 -2.2758 0
M  V30 973 C 90.649 0.557487 -1.50827 0
M  V30 974 O 91.839 0.37173 -1.70188 0
M  V30 975 C 88.971 0.617173 -3.35267 0
M  V30 976 H 90.164 -1.10111 -2.78954 0
M  V30 977 H 87.717 -0.608594 -1.43965 0
M  V30 978 H 88.452 1.46884 -2.89129 0
M  V30 979 H 88.237 0.0237066 -3.92093 0
M  V30 980 H 89.727 1.005 -4.05326 0
M  V30 981 N 90.1641 1.46063 -0.591896 0
M  V30 982 C 91.3921 2.06717 -0.0868936 0
M  V30 983 C 91.8071 1.43916 1.22203 0
M  V30 984 O 91.1641 0.547698 1.74088 0
M  V30 985 C 91.2151 3.6142 0.0758725 0
M  V30 986 O 90.9361 4.21874 -1.18126 0
M  V30 987 C 92.4371 4.39025 0.61416 0
M  V30 988 H 89.6571 0.668162 -0.0616518 0
M  V30 989 H 92.2011 1.8755 -0.815175 0
M  V30 990 H 90.3561 3.79983 0.754413 0
M  V30 991 H 90.7701 5.14861 -1.00092 0
M  V30 992 H 92.2441 5.4783 0.677193 0
M  V30 993 H 92.7211 4.07708 1.63312 0
M  V30 994 H 93.3271 4.2529 -0.0298142 0
M  V30 995 N 91.6422 0.330177 1.54103 0
M  V30 996 C 92.8892 -0.270405 2.00686 0
M  V30 997 C 93.2172 -1.51621 1.21825 0
M  V30 998 O 92.4722 -1.93536 0.29025 0
M  V30 999 C 92.7712 -0.643134 3.51566 0
M  V30 1000 C 92.4372 0.504251 4.48072 0
M  V30 1001 C 91.0992 0.819163 4.74176 0
M  V30 1002 C 93.4512 1.27465 5.05373 0
M  V30 1003 C 90.7792 1.90708 5.5484 0
M  V30 1004 C 93.1312 2.35271 5.87223 0
M  V30 1005 C 91.7952 2.67336 6.11627 0
M  V30 1006 H 91.0652 -0.0989482 0.734364 0
M  V30 1007 H 93.7122 0.455324 1.86008 0
M  V30 1008 H 92.0172 -1.44938 3.64006 0
M  V30 1009 H 93.7142 -1.11949 3.85056 0
M  V30 1010 H 90.3042 0.248733 4.27878 0
M  V30 1011 H 94.4882 1.04462 4.85182 0
M  V30 1012 H 89.7442 2.15991 5.71977 0
M  V30 1013 H 93.9182 2.95405 6.30641 0
M  V30 1014 H 91.5452 3.51763 6.73919 0
M  V30 1015 N 93.1203 -1.57491 0.0584922 0
M  V30 1016 C 94.3603 -1.94851 -0.617458 0
M  V30 1017 C 94.7243 -0.937165 -1.67575 0
M  V30 1018 O 95.9253 -1.19795 -2.40629 0
M  V30 1019 C 94.1963 -3.36955 -1.19147 0
M  V30 1020 S 95.7553 -3.96277 -1.8844 0
M  V30 1021 H 92.5733 -0.681539 -0.202547 0
M  V30 1022 H 95.1753 -1.95073 0.129176 0
M  V30 1023 H 93.8793 -4.08355 -0.409215 0
M  V30 1024 H 93.4103 -3.40245 -1.97476 0
M  V30 1025 H 95.4253 -3.82099 -3.16568 0
M  V30 1026 N 94.5984 0.214957 -1.56127 0
M  V30 1027 C 95.5304 1.29004 -1.89448 0
M  V30 1028 C 96.5434 1.42716 -0.783326 0
M  V30 1029 O 97.7324 1.43496 -1.06166 0
M  V30 1030 C 94.8324 2.66482 -2.09381 0
M  V30 1031 C 94.0054 2.74633 -3.40434 0
M  V30 1032 C 93.0644 3.9317 -3.49719 0
M  V30 1033 O 92.0904 3.812 -4.227 0
M  V30 1034 N 93.2924 5.07765 -2.81346 0
M  V30 1035 H 96.0574 1.00743 -2.82261 0
M  V30 1036 H 93.6184 0.40497 -1.56753 0
M  V30 1037 H 95.6104 3.44173 -2.12901 0
M  V30 1038 H 94.1804 2.87314 -1.23163 0
M  V30 1039 H 93.4004 1.83368 -3.48955 0
M  V30 1040 H 94.6884 2.77054 -4.26754 0
M  V30 1041 H 94.0864 5.20386 -2.21843 0
M  V30 1042 H 92.6434 5.83474 -2.90519 0
M  V30 1043 N 96.0765 1.50051 0.48192 0
M  V30 1044 C 97.3045 1.64237 1.25832 0
M  V30 1045 C 97.7195 0.321336 1.86045 0
M  V30 1046 O 97.0765 -0.695478 1.68729 0
M  V30 1047 C 97.1275 2.72548 2.37487 0
M  V30 1048 O 96.8485 3.99529 1.79745 0
M  V30 1049 C 98.3495 2.9761 3.28547 0
M  V30 1050 H 95.5695 0.55237 0.380957 0
M  V30 1051 H 98.1135 1.96207 0.576467 0
M  V30 1052 H 96.2685 2.43303 3.01467 0
M  V30 1053 H 96.6825 4.59342 2.5319 0
M  V30 1054 H 98.1565 3.77084 4.03127 0
M  V30 1055 H 98.6335 2.0826 3.86684 0
M  V30 1056 H 99.2395 3.28345 2.70314 0
M  V30 1057 N 97.5546 -0.734337 1.39446 0
M  V30 1058 C 98.8006 -1.49505 1.37913 0
M  V30 1059 C 99.1556 -1.92384 -0.0248416 0
M  V30 1060 O 98.4486 -1.6395 -0.991506 0
M  V30 1061 C 98.6426 -2.74711 2.28623 0
M  V30 1062 C 98.4716 -2.44075 3.777 0
M  V30 1063 C 97.2416 -2.36338 4.46623 0
M  V30 1064 C 99.4396 -2.09574 4.69663 0
M  V30 1065 N 97.4216 -1.9818 5.81032 0
M  V30 1066 C 98.7926 -1.81865 5.92727 0
M  V30 1067 C 100.848 -1.96048 4.57678 0
M  V30 1068 C 99.5506 -1.41992 7.05146 0
M  V30 1069 C 101.577 -1.57579 5.7002 0
M  V30 1070 C 100.939 -1.30754 6.92158 0
M  V30 1071 H 97.0376 -0.545896 0.55993 0
M  V30 1072 H 99.6216 -0.853373 1.75002 0
M  V30 1073 H 97.7926 -3.36657 1.93692 0
M  V30 1074 H 99.5246 -3.40916 2.18078 0
M  V30 1075 H 96.2796 -2.53456 4.00071 0
M  V30 1076 H 96.7036 -1.81691 6.52163 0
M  V30 1077 H 101.346 -2.15455 3.63784 0
M  V30 1078 H 99.0636 -1.21327 7.9894 0
M  V30 1079 H 102.65 -1.47718 5.62735 0
M  V30 1080 H 101.53 -1.01432 7.77612 0
M  V30 1081 N 99.0327 -1.24633 -0.964593 0
M  V30 1082 C 100.31 -0.995809 -1.68354 0
M  V30 1083 C 100.69 0.480964 -2.05548 0
M  V30 1084 O 100.038 1.45599 -1.76105 0
M  V30 1085 C 100.248 -1.92177 -2.91323 0
M  V30 1086 C 101.596 -2.19446 -3.63495 0
M  V30 1087 O 102.62 -1.89855 -3.01386 0
M  V30 1088 O 101.479 -2.69714 -4.75307 0
M  V30 1089 H 98.5727 -0.376854 -0.736146 0
M  V30 1090 H 101.119 -1.35745 -1.0184 0
M  V30 1091 H 99.8907 -2.91938 -2.60553 0
M  V30 1092 H 99.5137 -1.56349 -3.65569 0
M  V30 1093 N 100.511 1.16574 -1.06058 0
M  V30 1094 C 101.788 1.83048 -0.689416 0
M  V30 1095 C 102.168 1.94122 0.829443 0
M  V30 1096 O 101.516 1.48249 1.7388 0
M  V30 1097 C 101.726 3.20186 -1.38859 0
M  V30 1098 C 103.074 3.95989 -1.53226 0
M  V30 1099 O 104.098 3.29696 -1.3483 0
M  V30 1100 O 102.957 5.14813 -1.83384 0
M  V30 1101 H 100.051 0.790258 -0.243764 0
M  V30 1102 H 102.597 1.23797 -1.16071 0
M  V30 1103 H 101.369 3.07146 -2.4244 0
M  V30 1104 H 100.992 3.87112 -0.907216 0
M  V30 1105 N 101.989 0.842826 1.3317 0
M  V30 1106 C 102.899 0.281444 2.32906 0
M  V30 1107 C 103.915 -0.594587 1.63526 0
M  V30 1108 O 105.091 -0.49777 1.95152 0
M  V30 1109 C 102.156 -0.530929 3.42611 0
M  V30 1110 C 101.217 0.369843 4.27704 0
M  V30 1111 C 100.45 -0.403853 5.3217 0
M  V30 1112 O 100.673 -1.63513 5.46461 0
M  V30 1113 O 99.6069 0.224199 6.01482 0
M  V30 1114 H 103.433 1.10744 2.82789 0
M  V30 1115 H 101.018 0.60545 1.36582 0
M  V30 1116 H 102.9 -0.992437 4.09547 0
M  V30 1117 H 101.575 -1.33392 2.94938 0
M  V30 1118 H 100.482 0.879275 3.6362 0
M  V30 1119 H 101.815 1.13771 4.78871 0
M  V30 1120 N 103.467 -1.45747 0.599634 0
M  V30 1121 C 104.415 -2.322 -0.136426 0
M  V30 1122 C 105.409 -1.45497 -0.867583 0
M  V30 1123 O 106.615 -1.62027 -0.78405 0
M  V30 1124 H 102.99 -0.749368 -0.0628588 0
M  V30 1125 H 104.961 -2.92072 0.611281 0
M  V30 1126 C 103.71 -3.28974 -1.12567 0
M  V30 1127 H 103.033 -3.9568 -0.572484 0
M  V30 1128 H 104.473 -3.92212 -1.61077 0
M  V30 1129 C 102.932 -2.55561 -2.19523 0
M  V30 1130 O 103.462 -2.33111 -3.27143 0
M  V30 1131 N 101.668 -2.15832 -1.94589 0
M  V30 1132 H 101.215 -2.3429 -1.07078 0
M  V30 1133 H 101.173 -1.67034 -2.66359 0
M  V30 1134 N 104.945 -0.338344 -1.53925 0
M  V30 1135 C 106.191 0.260143 -2.01125 0
M  V30 1136 C 106.524 1.50617 -1.22589 0
M  V30 1137 O 105.799 1.91979 -0.312113 0
M  V30 1138 C 106.082 0.579499 -3.55407 0
M  V30 1139 C 105.935 -0.678264 -4.44657 0
M  V30 1140 C 107.254 1.39122 -4.17532 0
M  V30 1141 H 104.373 0.0930772 -0.731099 0
M  V30 1142 H 107.015 -0.457852 -1.84401 0
M  V30 1143 H 105.165 1.19118 -3.69788 0
M  V30 1144 H 106.837 -1.31631 -4.42121 0
M  V30 1145 H 105.08 -1.3042 -4.13731 0
M  V30 1146 H 105.751 -0.410143 -5.50474 0
M  V30 1147 H 108.227 0.874035 -4.06817 0
M  V30 1148 H 107.103 1.58342 -5.25565 0
M  V30 1149 H 107.364 2.39178 -3.71815 0
M  V30 1150 N 106.423 1.57458 -0.0668435 0
M  V30 1151 C 107.373 2.0896 0.912119 0
M  V30 1152 C 108.357 0.998186 1.26195 0
M  V30 1153 O 109.549 1.26133 1.24175 0
M  V30 1154 C 106.678 2.6508 2.18145 0
M  V30 1155 C 105.764 3.81218 1.85832 0
M  V30 1156 N 106.155 4.90378 1.23948 0
M  V30 1157 C 104.453 3.9042 2.15612 0
M  V30 1158 C 105.154 5.71279 1.09616 0
M  V30 1159 N 104.13 5.19389 1.60423 0
M  V30 1160 H 107.932 2.90749 0.42924 0
M  V30 1161 H 105.446 1.6182 0.137184 0
M  V30 1162 H 107.443 3.0029 2.89192 0
M  V30 1163 H 106.103 1.84736 2.67025 0
M  V30 1164 H 107.114 5.09847 0.909731 0
M  V30 1165 H 103.791 3.21043 2.66903 0
M  V30 1166 H 105.181 6.69085 0.614425 0
M  V30 1167 N 107.901 -0.206675 1.56239 0
M  V30 1168 C 108.848 -1.25617 1.93621 0
M  V30 1169 C 109.818 -1.45824 0.795274 0
M  V30 1170 O 111.003 -1.59148 1.05245 0
M  V30 1171 C 108.143 -2.59839 2.27107 0
M  V30 1172 C 107.256 -2.47308 3.54207 0
M  V30 1173 C 106.391 -3.74155 3.7707 0
M  V30 1174 C 105.43 -3.56407 4.97635 0
M  V30 1175 N 104.567 -4.75238 5.1681 0
M  V30 1176 H 109.407 -0.930383 2.83104 0
M  V30 1177 H 106.944 -0.448065 1.4011 0
M  V30 1178 H 108.902 -3.38021 2.44535 0
M  V30 1179 H 107.532 -2.90485 1.40778 0
M  V30 1180 H 106.584 -1.60483 3.4489 0
M  V30 1181 H 107.896 -2.30122 4.42544 0
M  V30 1182 H 107.05 -4.60778 3.94675 0
M  V30 1183 H 105.789 -3.94282 2.87042 0
M  V30 1184 H 104.794 -2.68168 4.79964 0
M  V30 1185 H 106.019 -3.37736 5.89161 0
M  V30 1186 H 103.965 -4.95651 4.29728 0
M  V30 1187 H 103.882 -4.60835 5.99306 0
M  V30 1188 H 105.15 -5.63246 5.38864 0
M  V30 1189 N 109.379 -1.50304 -0.473955 0
M  V30 1190 C 110.309 -1.71886 -1.58042 0
M  V30 1191 C 111.29 -0.567799 -1.60344 0
M  V30 1192 O 112.475 -0.806623 -1.76656 0
M  V30 1193 C 109.605 -1.81036 -2.96384 0
M  V30 1194 C 108.559 -2.962 -3.08949 0
M  V30 1195 C 107.885 -2.9049 -4.48909 0
M  V30 1196 C 109.185 -4.36752 -2.86434 0
M  V30 1197 H 110.879 -2.64527 -1.40234 0
M  V30 1198 H 108.425 -1.27295 -0.673201 0
M  V30 1199 H 110.378 -1.94719 -3.73714 0
M  V30 1200 H 109.102 -0.850147 -3.15341 0
M  V30 1201 H 107.761 -2.82164 -2.3405 0
M  V30 1202 H 107.409 -1.92321 -4.64781 0
M  V30 1203 H 107.109 -3.67802 -4.58253 0
M  V30 1204 H 108.633 -3.06218 -5.28264 0
M  V30 1205 H 110.047 -4.5133 -3.53517 0
M  V30 1206 H 108.444 -5.15493 -3.07225 0
M  V30 1207 H 109.514 -4.49321 -1.82316 0
M  V30 1208 N 110.857 0.726932 -1.39834 0
M  V30 1209 C 111.79 1.8501 -1.33592 0
M  V30 1210 C 112.768 1.61262 -0.208191 0
M  V30 1211 O 113.952 1.84422 -0.389981 0
M  V30 1212 C 111.079 3.21143 -1.07633 0
M  V30 1213 C 110.125 3.63737 -2.22705 0
M  V30 1214 S 110.958 3.72167 -3.85035 0
M  V30 1215 C 112.114 5.11077 -3.61318 0
M  V30 1216 H 112.347 1.90022 -2.28646 0
M  V30 1217 H 109.88 0.892595 -1.25985 0
M  V30 1218 H 111.838 3.99747 -0.933415 0
M  V30 1219 H 110.499 3.13776 -0.142526 0
M  V30 1220 H 109.692 4.62551 -2.00155 0
M  V30 1221 H 109.294 2.9236 -2.33242 0
M  V30 1222 H 111.586 5.97656 -3.19083 0
M  V30 1223 H 112.529 5.38658 -4.59623 0
M  V30 1224 H 112.937 4.81135 -2.95245 0
M  V30 1225 N 112.336 1.25143 0.95797 0
M  V30 1226 C 113.613 1.00472 1.67823 0
M  V30 1227 C 113.993 -0.470056 2.058 0
M  V30 1228 O 113.341 -1.44663 1.76875 0
M  V30 1229 C 113.551 1.9372 2.90299 0
M  V30 1230 C 114.899 2.21371 3.62326 0
M  V30 1231 O 115.923 1.91451 3.00375 0
M  V30 1232 O 114.782 2.72231 4.7387 0
M  V30 1233 H 111.876 0.380752 0.734137 0
M  V30 1234 H 114.422 1.36283 1.01119 0
M  V30 1235 H 113.194 2.93316 2.59001 0
M  V30 1236 H 112.817 1.58286 3.64735 0
M  V30 1237 N 113.814 -1.1601 1.06675 0
M  V30 1238 C 114.744 -2.22688 0.702307 0
M  V30 1239 C 115.725 -1.67306 -0.307032 0
M  V30 1240 O 116.91 -1.93352 -0.181305 0
M  V30 1241 C 114.04 -3.47178 0.092038 0
M  V30 1242 C 112.994 -4.15477 1.02777 0
M  V30 1243 C 112.32 -5.33963 0.28061 0
M  V30 1244 C 113.62 -4.66019 2.35846 0
M  V30 1245 H 115.314 -2.53429 1.59419 0
M  V30 1246 H 112.86 -1.21813 0.767961 0
M  V30 1247 H 114.813 -4.21037 -0.174814 0
M  V30 1248 H 113.537 -3.15749 -0.834877 0
M  V30 1249 H 112.196 -3.43549 1.27944 0
M  V30 1250 H 111.844 -4.98788 -0.649545 0
M  V30 1251 H 111.544 -5.806 0.904258 0
M  V30 1252 H 113.068 -6.10596 0.021396 0
M  V30 1253 H 114.482 -5.3144 2.15045 0
M  V30 1254 H 112.879 -5.23293 2.93743 0
M  V30 1255 H 113.949 -3.82023 2.98641 0
M  V30 1256 N 115.292 -0.849877 -1.32721 0
M  V30 1257 C 116.517 -0.463856 -2.02146 0
M  V30 1258 C 116.942 0.930449 -1.63476 0
M  V30 1259 O 116.3 1.61033 -0.832952 0
M  V30 1260 C 116.348 -0.604955 -3.55489 0
M  V30 1261 O 115.452 0.36425 -4.10788 0
M  V30 1262 H 114.793 -0.187046 -0.637111 0
M  V30 1263 H 117.323 -1.14775 -1.69375 0
M  V30 1264 H 117.333 -0.490696 -4.05038 0
M  V30 1265 H 116.008 -1.62174 -3.82978 0
M  V30 1266 H 114.585 0.206628 -3.72327 0
M  V30 1267 N 116.77 1.45427 -0.607355 0
M  V30 1268 C 118.019 2.01452 -0.100036 0
M  V30 1269 C 118.332 1.48159 1.27704 0
M  V30 1270 O 119.538 1.96159 1.87707 0
M  V30 1271 C 117.994 3.59672 -0.128158 0
M  V30 1272 C 117.602 4.21962 -1.50507 0
M  V30 1273 C 119.346 4.23262 0.323932 0
M  V30 1274 C 117.253 5.72333 -1.48959 0
M  V30 1275 H 116.183 0.75325 -0.0336299 0
M  V30 1276 H 118.834 1.66901 -0.76265 0
M  V30 1277 H 117.216 3.91411 0.601105 0
M  V30 1278 H 118.39 4.01796 -2.25602 0
M  V30 1279 H 116.705 3.70565 -1.89923 0
M  V30 1280 H 119.302 5.33522 0.354691 0
M  V30 1281 H 119.645 3.93921 1.34656 0
M  V30 1282 H 120.178 3.96239 -0.352056 0
M  V30 1283 H 116.917 6.06373 -2.48981 0
M  V30 1284 H 116.437 5.94691 -0.781214 0
M  V30 1285 H 118.116 6.35525 -1.21313 0
M  V30 1286 N 118.248 0.346503 1.53744 0
M  V30 1287 C 119.196 -0.52422 2.26616 0
M  V30 1288 C 120.19 -1.09948 1.28871 0
M  V30 1289 O 121.396 -1.04488 1.46568 0
M  V30 1290 H 117.771 -0.187743 0.728187 0
M  V30 1291 H 119.742 0.11239 2.98188 0
M  V30 1292 C 118.491 -1.66186 3.05414 0
M  V30 1293 H 117.814 -1.22848 3.80458 0
M  V30 1294 H 119.254 -2.24622 3.59612 0
M  V30 1295 C 117.713 -2.59302 2.1509 0
M  V30 1296 O 118.243 -3.61628 1.74895 0
M  V30 1297 N 116.449 -2.28055 1.8011 0
M  V30 1298 H 115.996 -1.44883 2.12994 0
M  V30 1299 H 115.954 -2.90615 1.19958 0
M  V30 1300 N 119.726 -1.57421 0.075193 0
M  V30 1301 C 120.673 -2.12915 -0.890843 0
M  V30 1302 C 121.643 -1.04252 -1.29309 0
M  V30 1303 O 122.828 -1.31933 -1.37834 0
M  V30 1304 C 119.968 -2.69795 -2.15186 0
M  V30 1305 C 119.081 -3.92624 -1.80194 0
M  V30 1306 C 118.216 -4.37736 -3.00933 0
M  V30 1307 C 117.255 -5.53205 -2.61974 0
M  V30 1308 N 116.392 -5.9326 -3.75483 0
M  V30 1309 H 121.232 -2.95156 -0.410735 0
M  V30 1310 H 118.769 -1.45854 -0.191086 0
M  V30 1311 H 120.727 -3.00883 -2.89008 0
M  V30 1312 H 119.357 -1.90313 -2.60731 0
M  V30 1313 H 118.409 -3.67977 -0.964218 0
M  V30 1314 H 119.721 -4.76482 -1.47534 0
M  V30 1315 H 118.875 -4.70503 -3.8303 0
M  V30 1316 H 117.614 -3.52739 -3.36789 0
M  V30 1317 H 116.619 -5.20086 -1.783 0
M  V30 1318 H 117.844 -6.39936 -2.27284 0
M  V30 1319 H 115.79 -5.11212 -4.11094 0
M  V30 1320 H 115.707 -6.71865 -3.46602 0
M  V30 1321 H 116.975 -6.30651 -4.58148 0
M  V30 1322 N 121.204 0.198386 -1.56346 0
M  V30 1323 C 122.152 1.26538 -1.95169 0
M  V30 1324 C 123.146 1.47295 -0.836685 0
M  V30 1325 O 124.352 1.48195 -1.02167 0
M  V30 1326 H 120.727 0.424744 -0.620561 0
M  V30 1327 H 122.698 0.910904 -2.84157 0
M  V30 1328 C 121.447 2.6035 -2.30463 0
M  V30 1329 H 120.77 2.45192 -3.15786 0
M  V30 1330 H 122.21 3.33762 -2.61494 0
M  V30 1331 C 120.669 3.17096 -1.13806 0
M  V30 1332 O 121.199 3.99588 -0.41135 0
M  V30 1333 N 119.405 2.75795 -0.915736 0
M  V30 1334 H 118.952 2.08816 -1.50843 0
M  V30 1335 H 118.91 3.14101 -0.136979 0
M  V30 1336 N 122.682 1.50554 0.465978 0
M  V30 1337 C 123.928 1.63006 1.21658 0
M  V30 1338 C 124.283 0.328613 1.89573 0
M  V30 1339 O 123.576 -0.673813 1.79361 0
M  V30 1340 C 123.77 2.75152 2.28093 0
M  V30 1341 C 123.599 4.16075 1.7062 0
M  V30 1342 C 122.369 4.82408 1.50368 0
M  V30 1343 C 124.567 5.00145 1.1983 0
M  V30 1344 N 122.549 6.07532 0.881924 0
M  V30 1345 C 123.92 6.16035 0.700083 0
M  V30 1346 C 125.975 4.85882 1.08733 0
M  V30 1347 C 124.678 7.19228 0.101835 0
M  V30 1348 C 126.704 5.89257 0.503016 0
M  V30 1349 C 126.066 7.04398 0.0152005 0
M  V30 1350 H 122.165 0.650596 0.433877 0
M  V30 1351 H 124.749 1.8769 0.517746 0
M  V30 1352 H 122.92 2.52181 2.95397 0
M  V30 1353 H 124.652 2.76935 2.95109 0
M  V30 1354 H 121.407 4.39788 1.75737 0
M  V30 1355 H 121.831 6.7443 0.589312 0
M  V30 1356 H 126.473 3.97144 1.4504 0
M  V30 1357 H 124.191 8.07637 -0.273426 0
M  V30 1358 H 127.777 5.80286 0.419451 0
M  V30 1359 H 126.657 7.83021 -0.429856 0
M  V30 1360 N 124.16 -0.719506 1.40217 0
M  V30 1361 C 125.409 -1.47486 1.37589 0
M  V30 1362 C 125.722 -1.9559 -0.0201568 0
M  V30 1363 O 126.928 -2.70973 -0.169049 0
M  V30 1364 C 125.384 -2.66575 2.41796 0
M  V30 1365 C 124.992 -2.25358 3.87192 0
M  V30 1366 C 126.736 -3.4433 2.48269 0
M  V30 1367 C 124.643 -3.41262 4.83005 0
M  V30 1368 H 123.573 -0.553901 0.511576 0
M  V30 1369 H 126.224 -0.783427 1.65936 0
M  V30 1370 H 124.606 -3.3787 2.06543 0
M  V30 1371 H 125.78 -1.61509 4.31569 0
M  V30 1372 H 124.095 -1.60657 3.84159 0
M  V30 1373 H 126.692 -4.30569 3.17041 0
M  V30 1374 H 127.035 -3.87872 1.51198 0
M  V30 1375 H 127.568 -2.80076 2.82493 0
M  V30 1376 H 124.307 -3.02755 5.81394 0
M  V30 1377 H 123.827 -4.0404 4.43297 0
M  V30 1378 H 125.506 -4.07383 5.02641 0
M  V30 1379 N 125.638 -1.25649 -0.95132 0
M  V30 1380 C 126.915 -1.01361 -1.67288 0
M  V30 1381 C 127.295 0.459135 -2.06046 0
M  V30 1382 O 126.643 1.43723 -1.7764 0
M  V30 1383 C 126.853 -1.95256 -2.89268 0
M  V30 1384 C 128.201 -2.23289 -3.61147 0
M  V30 1385 O 129.225 -1.93041 -2.99355 0
M  V30 1386 O 128.084 -2.74741 -4.72419 0
M  V30 1387 H 125.178 -0.38464 -0.732107 0
M  V30 1388 H 127.724 -1.36817 -1.00395 0
M  V30 1389 H 126.496 -2.94685 -2.57442 0
M  V30 1390 H 126.119 -1.60218 -3.6389 0
M  V30 1391 N 127.117 1.15442 -1.07289 0
M  V30 1392 C 128.064 2.20161 -0.692653 0
M  V30 1393 C 129.034 1.63073 0.31564 0
M  V30 1394 O 130.219 1.89725 0.202235 0
M  V30 1395 C 127.359 3.44967 -0.0959509 0
M  V30 1396 C 126.472 4.16256 -1.15564 0
M  V30 1397 C 125.607 5.28609 -0.524011 0
M  V30 1398 C 124.646 5.91715 -1.56653 0
M  V30 1399 N 123.783 6.9554 -0.957531 0
M  V30 1400 H 128.623 2.52037 -1.59002 0
M  V30 1401 H 126.16 1.2378 -0.794798 0
M  V30 1402 H 128.118 4.16341 0.267628 0
M  V30 1403 H 126.748 3.1361 0.764772 0
M  V30 1404 H 125.8 3.43385 -1.6368 0
M  V30 1405 H 127.112 4.59268 -1.94613 0
M  V30 1406 H 126.266 6.06604 -0.108032 0
M  V30 1407 H 125.005 4.86787 0.29825 0
M  V30 1408 H 124.01 5.12433 -1.9923 0
M  V30 1409 H 125.235 6.35614 -2.39107 0
M  V30 1410 H 123.181 6.55814 -0.156162 0
M  V30 1411 H 123.098 7.36977 -1.68526 0
M  V30 1412 H 124.366 7.77435 -0.567032 0
M  V30 1413 N 128.595 0.856903 1.32268 0
M  V30 1414 C 129.505 0.306131 2.32594 0
M  V30 1415 C 130.521 -0.577209 1.64147 0
M  V30 1416 O 131.697 -0.477043 1.95669 0
M  V30 1417 C 128.762 -0.494561 3.43154 0
M  V30 1418 C 127.823 0.415186 4.27288 0
M  V30 1419 C 127.056 -0.347387 5.32568 0
M  V30 1420 O 127.279 -1.57708 5.48165 0
M  V30 1421 O 126.213 0.287982 6.01211 0
M  V30 1422 H 130.039 1.13737 2.81598 0
M  V30 1423 H 127.624 0.619902 1.35932 0
M  V30 1424 H 129.506 -0.948944 4.10576 0
M  V30 1425 H 128.181 -1.30257 2.96336 0
M  V30 1426 H 127.088 0.917793 3.62667 0
M  V30 1427 H 128.421 1.18844 4.77637 0
M  V30 1428 N 130.073 -1.45103 0.615059 0
M  V30 1429 C 130.983 -2.34382 -0.101034 0
M  V30 1430 C 131.999 -1.51681 -0.852585 0
M  V30 1431 O 133.175 -1.8446 -0.808484 0
M  V30 1432 C 130.24 -3.29417 -1.08099 0
M  V30 1433 C 129.301 -4.28025 -0.330577 0
M  V30 1434 C 128.534 -5.1852 -1.26385 0
M  V30 1435 O 128.757 -5.12598 -2.50198 0
M  V30 1436 O 127.691 -5.97122 -0.756866 0
M  V30 1437 H 131.517 -2.97033 0.632855 0
M  V30 1438 H 129.102 -1.4461 0.375293 0
M  V30 1439 H 130.984 -3.87958 -1.6452 0
M  V30 1440 H 129.659 -2.69321 -1.79577 0
M  V30 1441 H 128.566 -3.73078 0.276283 0
M  V30 1442 H 129.899 -4.90997 0.343866 0
M  V30 1443 N 131.551 -0.354651 -1.53558 0
M  V30 1444 C 132.781 0.239167 -2.05211 0
M  V30 1445 C 133.189 1.43879 -1.22863 0
M  V30 1446 O 132.532 1.81857 -0.259565 0
M  V30 1447 C 132.594 0.707251 -3.52474 0
M  V30 1448 C 132.258 -0.374212 -4.55465 0
M  V30 1449 C 133.255 -1.22054 -5.0537 0
M  V30 1450 C 130.94 -0.531323 -4.99482 0
M  V30 1451 C 132.934 -2.20942 -5.97882 0
M  V30 1452 C 130.621 -1.52358 -5.91802 0
M  V30 1453 C 131.619 -2.36108 -6.40892 0
M  V30 1454 O 131.307 -3.33643 -7.31394 0
M  V30 1455 H 131.039 0.0479716 -0.674296 0
M  V30 1456 H 133.593 -0.508121 -1.99016 0
M  V30 1457 H 131.823 1.50596 -3.56171 0
M  V30 1458 H 133.512 1.22285 -3.87042 0
M  V30 1459 H 134.278 -1.1103 -4.7212 0
M  V30 1460 H 130.157 0.110738 -4.60867 0
M  V30 1461 H 133.701 -2.86348 -6.36121 0
M  V30 1462 H 129.598 -1.63434 -6.24467 0
M  V30 1463 H 130.366 -3.29244 -7.4936 0
M  V30 1464 N 133.029 1.57378 -0.0835403 0
M  V30 1465 C 134.44 1.81261 0.447358 0
M  V30 1466 C 134.791 0.998331 1.68902 0
M  V30 1467 O 133.916 0.224282 2.15235 0
M  V30 1468 C 134.511 3.28767 0.818386 0
M  V30 1469 C 133.07 3.53455 1.29409 0
M  V30 1470 C 132.217 2.75831 0.285024 0
M  V30 1471 H 135.168 1.5566 -0.309115 0
M  V30 1472 H 135.189 3.41459 1.67887 0
M  V30 1473 H 134.701 3.88006 -0.0855019 0
M  V30 1474 H 132.802 2.99534 2.21608 0
M  V30 1475 H 132.915 4.62128 1.2639 0
M  V30 1476 H 131.279 2.42947 0.764767 0
M  V30 1477 H 132.062 3.37813 -0.611341 0
M  V30 1478 N 134.507 -0.190092 1.56449 0
M  V30 1479 C 135.439 -1.25973 1.91477 0
M  V30 1480 C 136.452 -1.41452 0.805931 0
M  V30 1481 O 137.641 -1.41789 1.08435 0
M  V30 1482 C 134.741 -2.63117 2.13594 0
M  V30 1483 C 133.914 -2.69182 3.4476 0
M  V30 1484 C 132.973 -3.87557 3.5593 0
M  V30 1485 O 131.999 -3.74427 4.28711 0
M  V30 1486 N 133.201 -5.03224 2.89388 0
M  V30 1487 H 135.966 -0.962394 2.83828 0
M  V30 1488 H 133.527 -0.379981 1.57378 0
M  V30 1489 H 135.519 -3.40742 2.1835 0
M  V30 1490 H 134.089 -2.85319 1.27719 0
M  V30 1491 H 133.309 -1.77793 3.51828 0
M  V30 1492 H 134.597 -2.70229 4.31107 0
M  V30 1493 H 133.995 -5.16791 2.30094 0
M  V30 1494 H 132.552 -5.78778 2.99764 0
M  V30 1495 N 135.985 -1.50799 -0.457987 0
M  V30 1496 C 137.21 -1.66496 -1.23668 0
M  V30 1497 C 137.635 -0.353288 -1.84752 0
M  V30 1498 O 136.993 0.684346 -1.67888 0
M  V30 1499 C 137.041 -2.76763 -2.3116 0
M  V30 1500 O 136.145 -2.38928 -3.36136 0
M  V30 1501 H 135.486 -0.555828 -0.363252 0
M  V30 1502 H 138.016 -1.9725 -0.543474 0
M  V30 1503 H 138.026 -3.00232 -2.76269 0
M  V30 1504 H 136.701 -3.71954 -1.86073 0
M  V30 1505 H 135.278 -2.25953 -2.96647 0
M  V30 1506 N 137.463 0.71206 -1.40597 0
M  V30 1507 C 138.426 1.80785 -1.40888 0
M  V30 1508 C 139.426 1.57937 -0.302103 0
M  V30 1509 O 140.616 1.64913 -0.561182 0
M  V30 1510 C 137.748 3.18927 -1.20409 0
M  V30 1511 H 138.941 1.81924 -2.38419 0
M  V30 1512 H 136.494 0.91805 -1.26497 0
M  V30 1513 H 137.229 3.23436 -0.236522 0
M  V30 1514 H 137.014 3.36911 -2.00582 0
M  V30 1515 H 138.504 3.98949 -1.23408 0
M  V30 1516 N 138.941 1.26152 0.944643 0
M  V30 1517 C 139.904 1.07474 2.0244 0
M  V30 1518 C 140.904 0.0242064 1.60782 0
M  V30 1519 O 142.094 0.267302 1.72137 0
M  V30 1520 C 139.226 0.633956 3.34953 0
M  V30 1521 H 140.419 2.03336 2.20442 0
M  V30 1522 H 137.972 1.087 1.12312 0
M  V30 1523 H 138.707 -0.326811 3.22649 0
M  V30 1524 H 138.492 1.39247 3.66542 0
M  V30 1525 H 139.982 0.52501 4.14287 0
M  V30 1526 N 140.419 -1.14872 1.07899 0
M  V30 1527 C 141.668 -1.85135 0.800499 0
M  V30 1528 C 141.981 -1.83547 -0.676014 0
M  V30 1529 O 143.187 -2.49548 -1.06948 0
M  V30 1530 C 141.643 -3.3231 1.38197 0
M  V30 1531 C 141.251 -3.42329 2.8899 0
M  V30 1532 C 142.995 -4.0772 1.18174 0
M  V30 1533 C 140.902 -4.83684 3.403 0
M  V30 1534 H 139.832 -0.693563 0.29578 0
M  V30 1535 H 142.483 -1.29532 1.29976 0
M  V30 1536 H 140.865 -3.87618 0.810431 0
M  V30 1537 H 142.039 -2.97097 3.52236 0
M  V30 1538 H 140.354 -2.80369 3.07867 0
M  V30 1539 H 142.951 -5.12049 1.5398 0
M  V30 1540 H 143.294 -4.16124 0.12117 0
M  V30 1541 H 143.827 -3.58696 1.71994 0
M  V30 1542 H 140.566 -4.80465 4.45907 0
M  V30 1543 H 140.086 -5.29474 2.81811 0
M  V30 1544 H 141.765 -5.52558 3.36584 0
M  V30 1545 N 141.898 -0.863906 -1.31812 0
M  V30 1546 C 143.175 -0.39275 -1.91616 0
M  V30 1547 C 143.555 1.12461 -1.7865 0
M  V30 1548 O 142.903 1.95045 -1.19037 0
M  V30 1549 C 143.113 -0.867385 -3.38049 0
M  V30 1550 C 144.461 -0.889966 -4.15168 0
M  V30 1551 O 145.485 -0.812635 -3.46806 0
M  V30 1552 O 144.344 -1.00079 -5.37258 0
M  V30 1553 H 141.438 -0.116358 -0.818773 0
M  V30 1554 H 143.984 -0.951418 -1.40521 0
M  V30 1555 H 142.756 -1.91081 -3.41473 0
M  V30 1556 H 142.379 -0.286687 -3.96565 0
M  V30 1557 N 143.376 1.44774 -0.622745 0
M  V30 1558 C 144.306 2.33382 0.0741861 0
M  V30 1559 C 145.287 1.47719 0.843387 0
M  V30 1560 O 146.472 1.76458 0.810934 0
M  V30 1561 C 143.602 3.30663 1.06204 0
M  V30 1562 C 142.556 4.26079 0.405037 0
M  V30 1563 C 141.882 5.13165 1.5022 0
M  V30 1564 C 143.182 5.1781 -0.683414 0
M  V30 1565 H 144.876 2.91905 -0.665713 0
M  V30 1566 H 142.422 1.40363 -0.321587 0
M  V30 1567 H 144.375 3.9153 1.55827 0
M  V30 1568 H 143.099 2.70331 1.83272 0
M  V30 1569 H 141.758 3.66532 -0.0704683 0
M  V30 1570 H 141.406 4.49191 2.26355 0
M  V30 1571 H 141.106 5.77812 1.06803 0
M  V30 1572 H 142.63 5.76902 2.00041 0
M  V30 1573 H 144.044 5.72661 -0.270631 0
M  V30 1574 H 142.441 5.91015 -1.04023 0
M  V30 1575 H 143.511 4.59326 -1.55395 0
M  V30 1576 N 144.854 0.36279 1.53368 0
M  V30 1577 C 146.27 0.0116182 1.59596 0
M  V30 1578 C 146.47 -1.47012 1.37803 0
M  V30 1579 O 145.526 -2.23136 1.18181 0
M  V30 1580 C 146.839 0.465052 2.97082 0
M  V30 1581 C 148.387 0.419033 3.10182 0
M  V30 1582 C 148.862 0.848235 4.50077 0
M  V30 1583 N 150.353 0.803183 4.56183 0
M  V30 1584 C 151.088 1.107 5.62613 0
M  V30 1585 N 150.584 1.47996 6.76808 0
M  V30 1586 N 152.377 1.02998 5.52583 0
M  V30 1587 H 144.528 1.32775 1.65785 0
M  V30 1588 H 146.791 0.542518 0.777417 0
M  V30 1589 H 146.497 1.49892 3.18159 0
M  V30 1590 H 146.371 -0.149786 3.76902 0
M  V30 1591 H 148.758 -0.605696 2.88817 0
M  V30 1592 H 148.839 1.06933 2.32377 0
M  V30 1593 H 148.483 1.87107 4.7218 0
M  V30 1594 H 148.413 0.175218 5.26308 0
M  V30 1595 H 150.904 0.52838 3.74188 0
M  V30 1596 H 151.217 1.69613 7.53957 0
M  V30 1597 H 149.562 1.51859 6.78206 0
M  V30 1598 H 152.753 0.737817 4.62249 0
M  V30 1599 H 152.926 1.2701 6.35431 0
M  V30 1600 N 146.332 -1.57332 0.0918853 0
M  V30 1601 C 147.572 -1.96117 -0.575988 0
M  V30 1602 C 147.936 -0.972499 -1.65549 0
M  V30 1603 O 149.137 -1.24872 -2.38034 0
M  V30 1604 C 147.408 -3.39407 -1.11973 0
M  V30 1605 S 148.967 -4.00185 -1.79992 0
M  V30 1606 H 145.785 -0.685682 -0.188045 0
M  V30 1607 H 148.387 -1.94755 0.170525 0
M  V30 1608 H 147.091 -4.09131 -0.322504 0
M  V30 1609 H 146.622 -3.44358 -1.90214 0
M  V30 1610 H 148.637 -3.88728 -3.08391 0
M  V30 1611 N 147.81 0.181792 -1.56548 0
M  V30 1612 C 149.056 0.901431 -1.81665 0
M  V30 1613 C 149.389 1.82347 -0.668075 0
M  V30 1614 O 148.664 1.91669 0.330615 0
M  V30 1615 C 148.947 1.70618 -3.17115 0
M  V30 1616 C 148.8 0.807964 -4.42484 0
M  V30 1617 C 150.119 2.67605 -3.49393 0
M  V30 1618 H 147.238 0.32627 -0.660846 0
M  V30 1619 H 149.88 0.168134 -1.89255 0
M  V30 1620 H 148.03 2.33133 -3.10775 0
M  V30 1621 H 149.702 0.19649 -4.60881 0
M  V30 1622 H 147.945 0.115411 -4.33646 0
M  V30 1623 H 148.616 1.40632 -5.33785 0
M  V30 1624 H 151.092 2.15218 -3.56118 0
M  V30 1625 H 149.968 3.20985 -4.45264 0
M  V30 1626 H 150.229 3.47298 -2.73563 0
M  V30 1627 N 149.288 1.51039 0.449983 0
M  V30 1628 C 150.236 1.71995 1.5659 0
M  V30 1629 C 151.23 0.586029 1.5894 0
M  V30 1630 O 152.436 0.76709 1.62837 0
M  V30 1631 H 148.811 0.543233 0.520001 0
M  V30 1632 H 150.782 2.65562 1.36085 0
M  V30 1633 C 149.531 1.8506 2.9436 0
M  V30 1634 H 148.854 2.71712 2.93279 0
M  V30 1635 H 150.294 2.0374 3.71842 0
M  V30 1636 C 148.753 0.607277 3.31382 0
M  V30 1637 O 149.283 -0.243903 4.00959 0
M  V30 1638 N 147.489 0.455073 2.87015 0
M  V30 1639 H 147.036 1.14879 2.30566 0
M  V30 1640 H 146.994 -0.375611 3.12148 0
M  V30 1641 N 150.766 -0.704594 1.40972 0
M  V30 1642 C 151.699 -1.82861 1.36518 0
M  V30 1643 C 152.677 -1.6091 0.23382 0
M  V30 1644 O 153.861 -1.83778 0.419271 0
M  V30 1645 C 150.988 -3.1939 1.12729 0
M  V30 1646 C 150.034 -3.60148 2.28463 0
M  V30 1647 S 150.867 -3.65994 3.90907 0
M  V30 1648 C 152.023 -5.05264 3.69403 0
M  V30 1649 H 152.256 -1.86361 2.3164 0
M  V30 1650 H 149.789 -0.872439 1.27389 0
M  V30 1651 H 151.747 -3.98211 0.996893 0
M  V30 1652 H 150.408 -3.1351 0.192427 0
M  V30 1653 H 149.601 -4.59309 2.07489 0
M  V30 1654 H 149.203 -2.88612 2.37863 0
M  V30 1655 H 151.495 -5.92504 3.28551 0
M  V30 1656 H 152.438 -5.31278 4.68134 0
M  V30 1657 H 152.846 -4.76377 3.02862 0
M  V30 1658 N 152.244 -1.26651 -0.937939 0
M  V30 1659 C 153.49 -1.12553 -1.687 0
M  V30 1660 C 153.823 0.329782 -1.91379 0
M  V30 1661 O 153.098 1.24202 -1.4968 0
M  V30 1662 C 153.381 -1.89862 -3.05981 0
M  V30 1663 C 153.234 -3.43318 -2.90607 0
M  V30 1664 C 154.553 -1.69499 -4.0615 0
M  V30 1665 H 151.672 -0.410257 -0.612257 0
M  V30 1666 H 154.314 -1.55685 -1.08913 0
M  V30 1667 H 152.464 -1.53204 -3.57017 0
M  V30 1668 H 154.136 -3.89747 -2.46769 0
M  V30 1669 H 152.379 -3.70179 -2.26164 0
M  V30 1670 H 153.05 -3.92642 -3.8799 0
M  V30 1671 H 155.526 -2.01442 -3.64088 0
M  V30 1672 H 154.402 -2.26002 -5.00214 0
M  V30 1673 H 154.663 -0.640365 -4.37438 0
M  V30 1674 N 153.722 1.14298 -1.08507 0
M  V30 1675 C 154.685 2.17607 -0.719711 0
M  V30 1676 C 155.685 1.58907 0.245997 0
M  V30 1677 O 156.875 1.74181 0.0254081 0
M  V30 1678 C 154.007 3.40842 -0.0627695 0
M  V30 1679 H 155.2 2.51443 -1.63452 0
M  V30 1680 H 152.753 1.28963 -0.88307 0
M  V30 1681 H 153.488 3.12587 0.863716 0
M  V30 1682 H 153.273 3.84713 -0.757504 0
M  V30 1683 H 154.763 4.17221 0.177786 0
M  V30 1684 N 155.201 0.870884 1.31352 0
M  V30 1685 C 156.478 0.402907 1.91405 0
M  V30 1686 C 156.858 -1.11512 1.79244 0
M  V30 1687 O 156.206 -1.94411 1.2007 0
M  V30 1688 C 156.416 0.885301 3.37585 0
M  V30 1689 C 157.764 0.911971 4.14691 0
M  V30 1690 O 158.788 0.831016 3.46371 0
M  V30 1691 O 157.647 1.02927 5.3672 0
M  V30 1692 H 154.741 0.120698 0.818145 0
M  V30 1693 H 157.287 0.958857 1.40014 0
M  V30 1694 H 156.059 1.92889 3.40455 0
M  V30 1695 H 155.682 0.307714 3.96407 0
M  V30 1696 N 156.679 -1.44442 0.630414 0
M  V30 1697 C 157.609 -2.33418 -0.0618083 0
M  V30 1698 C 158.59 -1.48165 -0.835541 0
M  V30 1699 O 159.775 -1.76886 -0.801564 0
M  V30 1700 C 156.905 -3.31222 -1.04449 0
M  V30 1701 C 155.859 -4.26288 -0.382436 0
M  V30 1702 C 155.185 -5.13954 -1.47497 0
M  V30 1703 C 156.485 -5.1744 0.710865 0
M  V30 1704 H 158.179 -2.91548 0.681184 0
M  V30 1705 H 155.725 -1.40191 0.329026 0
M  V30 1706 H 157.678 -3.92351 -1.53748 0
M  V30 1707 H 156.402 -2.71299 -1.81836 0
M  V30 1708 H 155.061 -3.6649 0.0899054 0
M  V30 1709 H 154.709 -4.50385 -2.2397 0
M  V30 1710 H 154.409 -5.7837 -1.03737 0
M  V30 1711 H 155.933 -5.77955 -1.96979 0
M  V30 1712 H 157.347 -5.72509 0.300996 0
M  V30 1713 H 155.744 -5.90455 1.07156 0
M  V30 1714 H 156.814 -4.58496 1.57829 0
M  V30 1715 N 158.157 -0.370918 -1.53173 0
M  V30 1716 C 159.403 0.209976 -2.02313 0
M  V30 1717 C 159.758 1.45987 -1.25322 0
M  V30 1718 O 159.051 1.8856 -0.339965 0
M  V30 1719 C 159.245 0.549696 -3.53147 0
M  V30 1720 C 159.074 -0.665721 -4.44745 0
M  V30 1721 C 157.844 -1.17942 -4.91343 0
M  V30 1722 C 160.042 -1.53255 -4.90935 0
M  V30 1723 N 158.024 -2.35431 -5.66962 0
M  V30 1724 C 159.395 -2.55403 -5.64951 0
M  V30 1725 C 161.45 -1.5548 -4.73002 0
M  V30 1726 C 160.153 -3.5964 -6.22938 0
M  V30 1727 C 162.179 -2.58613 -5.31858 0
M  V30 1728 C 161.541 -3.59485 -6.05764 0
M  V30 1729 H 157.64 0.0394095 -0.781006 0
M  V30 1730 H 160.224 -0.516666 -1.8772 0
M  V30 1731 H 158.395 1.24541 -3.67891 0
M  V30 1732 H 160.127 1.11614 -3.89004 0
M  V30 1733 H 156.882 -0.743228 -4.67732 0
M  V30 1734 H 157.306 -2.94827 -6.09431 0
M  V30 1735 H 161.948 -0.788457 -4.15383 0
M  V30 1736 H 159.666 -4.37153 -6.79649 0
M  V30 1737 H 163.252 -2.61195 -5.19873 0
M  V30 1738 H 162.132 -4.3798 -6.50495 0
M  V30 1739 N 159.635 1.57281 -0.100228 0
M  V30 1740 C 160.585 2.10848 0.86759 0
M  V30 1741 C 161.569 1.02473 1.24049 0
M  V30 1742 O 162.761 1.28739 1.21471 0
M  V30 1743 C 159.89 2.69648 2.12474 0
M  V30 1744 C 158.976 3.85074 1.77704 0
M  V30 1745 N 159.367 4.92897 1.13518 0
M  V30 1746 C 157.665 3.94905 2.07282 0
M  V30 1747 C 158.366 5.73475 0.974735 0
M  V30 1748 N 157.342 5.22675 1.4937 0
M  V30 1749 H 161.144 2.91594 0.367471 0
M  V30 1750 H 158.658 1.62074 0.102829 0
M  V30 1751 H 160.655 3.06356 2.82757 0
M  V30 1752 H 159.315 1.90359 2.63047 0
M  V30 1753 H 160.326 5.11662 0.801381 0
M  V30 1754 H 157.003 3.26633 2.60033 0
M  V30 1755 H 158.393 6.70238 0.472364 0
M  V30 1756 N 161.113 -0.173488 1.56642 0
M  V30 1757 C 162.076 -1.19859 1.95362 0
M  V30 1758 C 163.076 -1.37296 0.83704 0
M  V30 1759 O 164.266 -1.34739 1.10413 0
M  V30 1760 C 161.398 -2.56405 2.24654 0
M  V30 1761 H 162.591 -0.867062 2.87092 0
M  V30 1762 H 160.144 -0.415853 1.50666 0
M  V30 1763 H 160.879 -2.94576 1.35631 0
M  V30 1764 H 160.664 -2.45115 3.06041 0
M  V30 1765 H 162.154 -3.30287 2.5554 0
M  V30 1766 N 162.591 -1.51276 -0.441967 0
M  V30 1767 C 164.002 -1.56244 -1.02199 0
M  V30 1768 C 164.353 -0.383149 -1.92422 0
M  V30 1769 O 163.478 0.500613 -2.1053 0
M  V30 1770 C 164.073 -2.83162 -1.86024 0
M  V30 1771 C 162.632 -2.90716 -2.39084 0
M  V30 1772 C 161.779 -2.50858 -1.18175 0
M  V30 1773 H 164.73 -1.5712 -0.223416 0
M  V30 1774 H 164.751 -2.66663 -2.71425 0
M  V30 1775 H 164.263 -3.68974 -1.20331 0
M  V30 1776 H 162.364 -2.09323 -3.08244 0
M  V30 1777 H 162.477 -3.94266 -2.72198 0
M  V30 1778 H 160.841 -2.03951 -1.52565 0
M  V30 1779 H 161.624 -3.3901 -0.541001 0
M  V30 1780 N 164.069 0.697108 -1.41344 0
M  V30 1781 C 165.032 1.79281 -1.42797 0
M  V30 1782 C 166.032 1.57607 -0.318837 0
M  V30 1783 O 167.222 1.64309 -0.578642 0
M  V30 1784 C 164.354 3.17632 -1.23785 0
M  V30 1785 H 165.547 1.79385 -2.40335 0
M  V30 1786 H 163.1 0.904582 -1.27464 0
M  V30 1787 H 163.835 3.23167 -0.270814 0
M  V30 1788 H 163.62 3.34765 -2.04144 0
M  V30 1789 H 165.11 3.97617 -1.27633 0
M  V30 1790 N 165.547 1.27147 0.931209 0
M  V30 1791 C 166.958 1.12044 1.49342 0
M  V30 1792 C 167.309 -0.295795 1.93957 0
M  V30 1793 O 166.434 -1.18835 1.80852 0
M  V30 1794 C 167.029 2.02781 2.71414 0
M  V30 1795 C 165.588 1.91794 3.2387 0
M  V30 1796 C 164.735 1.95543 1.96617 0
M  V30 1797 H 167.686 1.40091 0.745672 0
M  V30 1798 H 167.707 1.58156 3.46074 0
M  V30 1799 H 167.219 3.05848 2.38911 0
M  V30 1800 H 165.32 0.916992 3.6114 0
M  V30 1801 H 165.433 2.77852 3.90302 0
M  V30 1802 H 163.797 1.39722 2.12955 0
M  V30 1803 H 164.58 3.00259 1.66432 0
M  V30 1804 N 167.025 -1.13721 1.09112 0
M  V30 1805 C 167.972 -2.19031 0.727591 0
M  V30 1806 C 168.942 -1.63555 -0.289656 0
M  V30 1807 O 170.127 -1.90023 -0.172026 0
M  V30 1808 C 167.267 -3.4477 0.15082 0
M  V30 1809 C 166.38 -4.14365 1.22172 0
M  V30 1810 C 165.515 -5.27709 0.608042 0
M  V30 1811 C 164.554 -5.89147 1.66047 0
M  V30 1812 N 163.691 -6.93929 1.06806 0
M  V30 1813 H 168.531 -2.49475 1.62991 0
M  V30 1814 H 166.068 -1.22499 0.81439 0
M  V30 1815 H 168.026 -4.16714 -0.201358 0
M  V30 1816 H 166.656 -3.14787 -0.714783 0
M  V30 1817 H 165.708 -3.40737 1.69122 0
M  V30 1818 H 167.02 -4.56114 2.01895 0
M  V30 1819 H 166.174 -6.06355 0.204523 0
M  V30 1820 H 164.913 -4.872 -0.220769 0
M  V30 1821 H 163.918 -5.09198 2.07357 0
M  V30 1822 H 165.143 -6.31729 2.49189 0
M  V30 1823 H 163.089 -6.55483 0.260476 0
M  V30 1824 H 163.006 -7.34202 1.8023 0
M  V30 1825 H 164.274 -7.76434 0.690644 0
M  V30 1826 N 168.503 -0.877838 -1.30888 0
M  V30 1827 C 169.451 -0.328662 -2.30266 0
M  V30 1828 C 170.445 0.560496 -1.59859 0
M  V30 1829 O 171.651 0.445722 -1.74394 0
M  V30 1830 H 168.026 -0.0876142 -0.746879 0
M  V30 1831 H 169.997 -1.18061 -2.74051 0
M  V30 1832 C 168.746 0.448071 -3.44801 0
M  V30 1833 H 168.069 -0.226859 -3.99156 0
M  V30 1834 H 169.509 0.797541 -4.16432 0
M  V30 1835 C 167.968 1.64239 -2.94155 0
M  V30 1836 O 168.498 2.74175 -2.93583 0
M  V30 1837 N 166.704 1.47716 -2.50256 0
M  V30 1838 H 166.251 0.582821 -2.5092 0
M  V30 1839 H 166.209 2.27765 -2.16727 0
M  V30 1840 N 169.982 1.44106 -0.638065 0
M  V30 1841 C 171.23 2.01579 -0.145043 0
M  V30 1842 C 171.551 1.50496 1.24 0
M  V30 1843 O 170.821 0.711374 1.82527 0
M  V30 1844 H 169.401 0.745282 -0.05063 0
M  V30 1845 H 172.063 1.76516 -0.826327 0
M  V30 1846 H 171.159 3.11877 -0.118039 0
M  V30 1847 N 171.46 0.379036 1.52974 0
M  V30 1848 C 172.392 -0.495963 2.2377 0
M  V30 1849 C 173.405 -1.03517 1.25651 0
M  V30 1850 O 174.594 -0.939249 1.51791 0
M  V30 1851 C 171.694 -1.69894 2.93239 0
M  V30 1852 C 170.867 -1.2889 4.17979 0
M  V30 1853 C 169.926 -2.35543 4.70538 0
M  V30 1854 O 168.952 -1.97375 5.33883 0
M  V30 1855 N 170.154 -3.67318 4.49508 0
M  V30 1856 H 172.919 0.110523 2.99496 0
M  V30 1857 H 170.48 0.204878 1.60598 0
M  V30 1858 H 172.472 -2.40747 3.25304 0
M  V30 1859 H 171.042 -2.212 2.20883 0
M  V30 1860 H 170.262 -0.409676 3.92065 0
M  V30 1861 H 171.55 -0.991443 4.99047 0
M  V30 1862 H 170.948 -4.01095 3.98923 0
M  V30 1863 H 169.505 -4.34235 4.8609 0
M  V30 1864 N 172.938 -1.57226 0.108567 0
M  V30 1865 C 173.901 -2.13602 -0.831082 0
M  V30 1866 C 174.901 -1.06841 -1.20173 0
M  V30 1867 O 176.091 -1.32666 -1.12895 0
M  V30 1868 C 173.223 -2.66769 -2.12243 0
M  V30 1869 H 174.416 -2.97951 -0.341317 0
M  V30 1870 H 171.969 -1.55667 -0.14057 0
M  V30 1871 H 172.704 -1.85977 -2.65675 0
M  V30 1872 H 172.489 -3.44839 -1.86625 0
M  V30 1873 H 173.979 -3.10332 -2.79435 0
M  V30 1874 N 174.416 0.165178 -1.56732 0
M  V30 1875 C 175.662 0.882112 -1.82611 0
M  V30 1876 C 175.995 1.81628 -0.687378 0
M  V30 1877 O 175.27 1.92009 0.310267 0
M  V30 1878 C 175.553 1.67245 -3.18906 0
M  V30 1879 C 175.406 0.760987 -4.43316 0
M  V30 1880 C 176.725 2.63884 -3.52212 0
M  V30 1881 H 173.844 0.319242 -0.664269 0
M  V30 1882 H 176.486 0.148052 -1.89422 0
M  V30 1883 H 174.636 2.29824 -3.1323 0
M  V30 1884 H 176.308 0.147596 -4.61064 0
M  V30 1885 H 174.551 0.0694102 -4.33744 0
M  V30 1886 H 175.222 1.34962 -5.35247 0
M  V30 1887 H 177.698 2.11429 -3.58381 0
M  V30 1888 H 176.574 3.16245 -4.48643 0
M  V30 1889 H 176.835 3.44377 -2.77231 0
M  V30 1890 N 175.894 1.51508 0.433938 0
M  V30 1891 C 177.142 1.6402 1.18075 0
M  V30 1892 C 177.463 0.360328 1.91642 0
M  V30 1893 O 176.733 -0.623945 1.85698 0
M  V30 1894 H 175.313 0.6045 0.43885 0
M  V30 1895 H 177.975 1.88452 0.497178 0
M  V30 1896 H 177.071 2.46949 1.90847 0
M  V30 1897 N 177.372 -0.689602 1.41712 0
M  V30 1898 C 178.6 -1.47827 1.44758 0
M  V30 1899 C 179.015 -1.88721 0.0545703 0
M  V30 1900 O 178.372 -1.57176 -0.927463 0
M  V30 1901 C 178.423 -2.73698 2.3616 0
M  V30 1902 O 178.144 -2.34524 3.7004 0
M  V30 1903 C 179.645 -3.67389 2.48072 0
M  V30 1904 H 176.865 -0.455357 0.49284 0
M  V30 1905 H 179.409 -0.848574 1.86063 0
M  V30 1906 H 177.564 -3.32891 1.98148 0
M  V30 1907 H 177.978 -3.15701 4.18847 0
M  V30 1908 H 179.452 -4.52475 3.16181 0
M  V30 1909 H 179.929 -4.12284 1.51388 0
M  V30 1910 H 180.535 -3.14097 2.86746 0
M  V30 1911 N 178.85 -1.27639 -0.924453 0
M  V30 1912 C 179.798 -1.10485 -2.04685 0
M  V30 1913 C 180.792 -0.0270421 -1.69378 0
M  V30 1914 O 181.998 -0.185008 -1.79047 0
M  V30 1915 H 178.373 -0.340546 -0.670472 0
M  V30 1916 H 180.344 -2.05566 -2.16298 0
M  V30 1917 C 179.093 -0.772229 -3.39016 0
M  V30 1918 H 178.416 -1.59351 -3.66671 0
M  V30 1919 H 179.856 -0.692097 -4.18313 0
M  V30 1920 C 178.315 0.523554 -3.32807 0
M  V30 1921 O 178.845 1.55702 -3.70297 0
M  V30 1922 N 177.051 0.520363 -2.85903 0
M  V30 1923 H 176.598 -0.32107 -2.55591 0
M  V30 1924 H 176.556 1.38742 -2.82131 0
M  V30 1925 N 180.328 1.1314 -1.09713 0
M  V30 1926 C 181.556 1.88321 -0.856898 0
M  V30 1927 C 181.971 1.79276 0.592073 0
M  V30 1928 O 181.328 1.16142 1.40774 0
M  V30 1929 C 181.379 3.37812 -1.28706 0
M  V30 1930 O 181.1 3.46627 -2.67921 0
M  V30 1931 C 182.601 4.29952 -1.07964 0
M  V30 1932 H 179.821 0.596094 -0.308079 0
M  V30 1933 H 182.365 1.43205 -1.45988 0
M  V30 1934 H 180.52 3.805 -0.727912 0
M  V30 1935 H 180.934 4.39579 -2.8613 0
M  V30 1936 H 182.408 5.33159 -1.42986 0
M  V30 1937 H 182.885 4.39196 -0.0176577 0
M  V30 1938 H 183.491 3.93036 -1.62489 0
M  V30 1939 N 181.806 0.884767 1.30421 0
M  V30 1940 C 183.055 0.499164 1.95426 0
M  V30 1941 C 183.368 -0.95645 1.70621 0
M  V30 1942 O 184.574 -1.44889 2.29607 0
M  V30 1943 C 183.03 0.84177 3.49917 0
M  V30 1944 C 182.638 2.31514 3.83543 0
M  V30 1945 C 184.382 0.525355 4.21237 0
M  V30 1946 C 182.289 2.59939 5.31212 0
M  V30 1947 H 181.219 0.182944 0.73147 0
M  V30 1948 H 183.87 1.07971 1.48373 0
M  V30 1949 H 182.252 0.190311 3.95542 0
M  V30 1950 H 183.426 3.0109 3.48829 0
M  V30 1951 H 181.741 2.59907 3.25326 0
M  V30 1952 H 184.338 0.714762 5.29901 0
M  V30 1953 H 184.681 -0.535222 4.12845 0
M  V30 1954 H 185.214 1.134 3.81294 0
M  V30 1955 H 181.953 3.64736 5.44654 0
M  V30 1956 H 181.473 1.94972 5.67227 0
M  V30 1957 H 183.152 2.45429 5.98643 0
M  V30 1958 N 183.284 -1.43765 0.645699 0
M  V30 1959 C 184.532 -2.01499 0.155731 0
M  V30 1960 C 184.853 -1.51151 -1.232 0
M  V30 1961 O 184.123 -0.721044 -1.82148 0
M  V30 1962 H 182.703 -0.745003 0.0545817 0
M  V30 1963 H 185.365 -1.76075 0.835677 0
M  V30 1964 H 184.461 -3.1181 0.134577 0
M  V30 1965 N 184.763 -0.387143 -1.52771 0
M  V30 1966 C 185.988 0.198407 -2.06449 0
M  V30 1967 C 186.413 1.39918 -1.25716 0
M  V30 1968 O 185.771 1.79099 -0.281657 0
M  V30 1969 C 185.819 0.548893 -3.56398 0
M  V30 1970 O 184.923 1.64315 -3.78252 0
M  V30 1971 H 184.264 0.0237731 -0.663574 0
M  V30 1972 H 186.794 -0.553989 -1.96957 0
M  V30 1973 H 186.804 0.813812 -3.99801 0
M  V30 1974 H 185.479 -0.329005 -4.14597 0
M  V30 1975 H 184.056 1.37211 -3.46738 0
M  V30 1976 N 186.241 1.57166 -0.116904 0
M  V30 1977 C 187.466 1.999 0.55271 0
M  V30 1978 C 187.891 0.996039 1.59564 0
M  V30 1979 O 187.249 -0.032556 1.81271 0
M  V30 1980 C 187.297 3.4152 1.15742 0
M  V30 1981 O 186.401 3.44106 2.27299 0
M  V30 1982 H 185.742 0.649447 0.138258 0
M  V30 1983 H 188.272 2.03573 -0.204759 0
M  V30 1984 H 188.282 3.79684 1.49346 0
M  V30 1985 H 186.957 4.14034 0.393493 0
M  V30 1986 H 185.534 3.17759 1.9515 0
M  V30 1987 N 187.719 -0.156864 1.56817 0
M  V30 1988 C 188.629 -1.2136 2.00771 0
M  V30 1989 C 189.645 -1.47598 0.921459 0
M  V30 1990 O 190.821 -1.59462 1.2302 0
M  V30 1991 C 187.886 -2.52943 2.37109 0
M  V30 1992 C 186.947 -2.34439 3.59634 0
M  V30 1993 C 186.18 -3.59748 3.94229 0
M  V30 1994 O 186.403 -4.65526 3.29609 0
M  V30 1995 O 185.337 -3.52998 4.8752 0
M  V30 1996 H 189.163 -0.870468 2.90958 0
M  V30 1997 H 186.748 -0.36484 1.44877 0
M  V30 1998 H 188.63 -3.30538 2.61386 0
M  V30 1999 H 187.305 -2.86806 1.5008 0
M  V30 2000 H 186.212 -1.54828 3.40557 0
M  V30 2001 H 187.545 -2.05496 4.4725 0
M  V30 2002 N 189.197 -1.51736 -0.425897 0
M  V30 2003 C 190.16 -1.73271 -1.50032 0
M  V30 2004 C 191.16 -0.602639 -1.4908 0
M  V30 2005 O 192.35 -0.87033 -1.509 0
M  V30 2006 C 189.482 -1.79969 -2.89523 0
M  V30 2007 H 190.675 -2.69172 -1.32237 0
M  V30 2008 H 188.228 -1.41899 -0.65532 0
M  V30 2009 H 188.963 -0.859241 -3.1271 0
M  V30 2010 H 188.748 -2.62109 -2.91619 0
M  V30 2011 H 190.238 -1.9843 -3.67444 0
M  V30 2012 N 190.675 0.682077 -1.42076 0
M  V30 2013 C 191.915 1.45424 -1.43636 0
M  V30 2014 C 192.279 1.91939 -0.0484001 0
M  V30 2015 O 193.48 2.6873 0.0612514 0
M  V30 2016 C 191.751 2.62427 -2.42625 0
M  V30 2017 S 193.31 3.51379 -2.62827 0
M  V30 2018 H 190.128 0.496779 -0.508657 0
M  V30 2019 H 192.73 0.794645 -1.78621 0
M  V30 2020 H 191.434 2.26481 -3.42249 0
M  V30 2021 H 190.965 3.33266 -2.09039 0
M  V30 2022 H 192.98 4.58141 -1.9058 0
M  V30 2023 N 192.153 1.28127 0.917671 0
M  V30 2024 C 193.086 1.06039 2.02067 0
M  V30 2025 C 194.064 -0.0223285 1.62585 0
M  V30 2026 O 195.248 0.124823 1.88086 0
M  V30 2027 C 192.375 0.610596 3.33151 0
M  V30 2028 C 191.421 1.68937 3.91615 0
M  V30 2029 S 192.254 3.28437 4.22953 0
M  V30 2030 C 193.41 2.85283 5.57103 0
M  V30 2031 H 193.643 1.99425 2.20493 0
M  V30 2032 H 191.176 1.12071 1.06205 0
M  V30 2033 H 193.134 0.357778 4.08938 0
M  V30 2034 H 191.795 -0.303364 3.12632 0
M  V30 2035 H 190.988 1.32619 4.86239 0
M  V30 2036 H 190.59 1.89478 3.2245 0
M  V30 2037 H 192.882 2.3121 6.36827 0
M  V30 2038 H 193.825 3.7869 5.98331 0
M  V30 2039 H 194.233 2.24118 5.18104 0
M  V30 2040 N 193.631 -1.12557 1.10312 0
M  V30 2041 C 194.561 -2.20341 0.772798 0
M  V30 2042 C 195.542 -1.68198 -0.25365 0
M  V30 2043 O 196.727 -1.93831 -0.119699 0
M  V30 2044 C 193.857 -3.46709 0.202443 0
M  V30 2045 C 192.811 -4.11996 1.15943 0
M  V30 2046 C 192.137 -5.328 0.450345 0
M  V30 2047 C 193.437 -4.5828 2.50552 0
M  V30 2048 H 195.131 -2.48229 1.674 0
M  V30 2049 H 192.677 -1.19308 0.806326 0
M  V30 2050 H 194.63 -4.2138 -0.0407752 0
M  V30 2051 H 193.354 -3.18245 -0.734001 0
M  V30 2052 H 192.013 -3.39305 1.38808 0
M  V30 2053 H 191.661 -5.00602 -0.490531 0
M  V30 2054 H 191.361 -5.7743 1.08851 0
M  V30 2055 H 192.885 -6.10219 0.215642 0
M  V30 2056 H 194.299 -5.2433 2.31843 0
M  V30 2057 H 192.696 -5.13683 3.10242 0
M  V30 2058 H 193.766 -3.72329 3.10643 0
M  V30 2059 N 195.109 -0.891671 -1.2995 0
M  V30 2060 C 196.357 -0.512486 -1.95494 0
M  V30 2061 C 196.678 0.942776 -1.70695 0
M  V30 2062 O 195.948 1.66374 -1.03424 0
M  V30 2063 H 194.528 -0.186533 -0.723336 0
M  V30 2064 H 197.19 -1.13621 -1.58355 0
M  V30 2065 H 196.286 -0.688342 -3.04415 0
M  V30 2066 N 196.587 1.43421 -0.653314 0
M  V30 2067 C 197.835 2.01414 -0.166415 0
M  V30 2068 C 198.156 1.51803 1.22397 0
M  V30 2069 O 197.426 0.730693 1.81763 0
M  V30 2070 H 196.006 0.744703 -0.0585319 0
M  V30 2071 H 198.668 1.75629 -0.845003 0
M  V30 2072 H 197.764 3.11734 -0.151111 0
M  V30 2073 N 198.065 0.39524 1.52563 0
M  V30 2074 C 198.998 -0.4813 2.23067 0
M  V30 2075 C 199.976 -1.05927 1.23362 0
M  V30 2076 O 201.16 -1.10979 1.52368 0
M  V30 2077 C 198.287 -1.66676 2.9485 0
M  V30 2078 C 197.333 -1.21348 4.08873 0
M  V30 2079 S 198.166 -0.190102 5.35162 0
M  V30 2080 C 199.322 -1.38121 6.1047 0
M  V30 2081 H 199.555 0.117381 2.97068 0
M  V30 2082 H 197.088 0.179458 1.53354 0
M  V30 2083 H 199.046 -2.3466 3.36816 0
M  V30 2084 H 197.707 -2.23676 2.20518 0
M  V30 2085 H 196.9 -2.09877 4.58222 0
M  V30 2086 H 196.502 -0.612486 3.68951 0
M  V30 2087 H 198.794 -2.30726 6.37002 0
M  V30 2088 H 199.737 -0.928521 7.01986 0
M  V30 2089 H 200.145 -1.60071 5.41329 0
M  V30 2090 N 199.544 -1.57102 0.125237 0
M  V30 2091 C 200.507 -2.14471 -0.80838 0
M  V30 2092 C 201.507 -1.0811 -1.19033 0
M  V30 2093 O 202.697 -1.33856 -1.11482 0
M  V30 2094 C 199.829 -2.69005 -2.09402 0
M  V30 2095 H 201.022 -2.98297 -0.309696 0
M  V30 2096 H 198.575 -1.55807 -0.124051 0
M  V30 2097 H 199.31 -1.88785 -2.63687 0
M  V30 2098 H 199.095 -3.46799 -1.82957 0
M  V30 2099 H 200.585 -3.13278 -2.76128 0
M  V30 2100 N 201.022 0.148545 -1.56898 0
M  V30 2101 C 201.955 1.21293 -1.93296 0
M  V30 2102 C 202.933 1.41637 -0.798599 0
M  V30 2103 O 204.117 1.56275 -1.05406 0
M  V30 2104 C 201.244 2.5721 -2.20365 0
M  V30 2105 C 200.29 2.53469 -3.4301 0
M  V30 2106 S 201.123 2.00315 -4.96623 0
M  V30 2107 C 202.279 3.37964 -5.26812 0
M  V30 2108 H 202.512 0.902393 -2.83274 0
M  V30 2109 H 200.045 0.354094 -1.50285 0
M  V30 2110 H 202.003 3.35427 -2.36641 0
M  V30 2111 H 200.664 2.85454 -1.31054 0
M  V30 2112 H 199.857 3.53518 -3.59223 0
M  V30 2113 H 199.459 1.83359 -3.25968 0
M  V30 2114 H 201.751 4.34066 -5.20185 0
M  V30 2115 H 202.694 3.26606 -6.28279 0
M  V30 2116 H 203.102 3.35028 -4.54331 0
M  V30 2117 N 202.5 1.5196 0.417844 0
M  V30 2118 C 203.447 1.74678 1.50852 0
M  V30 2119 C 204.417 0.588947 1.55308 0
M  V30 2120 O 205.602 0.825544 1.72016 0
M  V30 2121 C 202.742 1.89544 2.88387 0
M  V30 2122 C 201.855 3.17166 2.93309 0
M  V30 2123 C 200.99 3.22513 4.22088 0
M  V30 2124 C 200.029 4.44372 4.20951 0
M  V30 2125 N 199.166 4.47161 5.41287 0
M  V30 2126 H 204.006 2.67768 1.30783 0
M  V30 2127 H 201.543 1.32689 0.63498 0
M  V30 2128 H 203.501 1.96146 3.68216 0
M  V30 2129 H 202.131 0.998424 3.06971 0
M  V30 2130 H 201.183 3.19778 2.06024 0
M  V30 2131 H 202.495 4.07021 2.88332 0
M  V30 2132 H 201.649 3.28139 5.10303 0
M  V30 2133 H 200.388 2.30581 4.29748 0
M  V30 2134 H 199.393 4.38902 3.31127 0
M  V30 2135 H 200.618 5.3759 4.14938 0
M  V30 2136 H 198.564 3.58108 5.49632 0
M  V30 2137 H 198.481 5.3085 5.3827 0
M  V30 2138 H 199.749 4.57005 6.3148 0
M  V30 2139 N 203.978 -0.674533 1.42435 0
M  V30 2140 C 205.224 -1.43521 1.4413 0
M  V30 2141 C 205.579 -1.92316 0.0567773 0
M  V30 2142 O 204.872 -1.68008 -0.921076 0
M  V30 2143 C 205.066 -2.64767 2.40069 0
M  V30 2144 C 204.895 -2.27836 3.87713 0
M  V30 2145 C 203.665 -2.17183 4.56245 0
M  V30 2146 C 205.863 -1.89466 4.78129 0
M  V30 2147 N 203.845 -1.73358 5.88915 0
M  V30 2148 C 205.216 -1.56561 5.99907 0
M  V30 2149 C 207.271 -1.7646 4.65582 0
M  V30 2150 C 205.974 -1.11957 7.10534 0
M  V30 2151 C 208 -1.3326 5.76191 0
M  V30 2152 C 207.362 -1.0128 6.97081 0
M  V30 2153 H 203.461 -0.521656 0.582579 0
M  V30 2154 H 206.045 -0.778381 1.78464 0
M  V30 2155 H 204.216 -3.28139 2.07796 0
M  V30 2156 H 205.948 -3.3136 2.32342 0
M  V30 2157 H 202.703 -2.3626 4.10461 0
M  V30 2158 H 203.127 -1.53867 6.59283 0
M  V30 2159 H 207.769 -1.99831 3.72595 0
M  V30 2160 H 205.487 -0.873318 8.03367 0
M  V30 2161 H 209.073 -1.23717 5.68494 0
M  V30 2162 H 207.953 -0.683597 7.81215 0
M  V30 2163 N 205.456 -1.28612 -0.910864 0
M  V30 2164 C 206.872 -1.06381 -1.18976 0
M  V30 2165 C 207.072 0.191998 -2.00583 0
M  V30 2166 O 206.128 0.892869 -2.36187 0
M  V30 2167 C 207.441 -2.31295 -1.92154 0
M  V30 2168 C 208.989 -2.36503 -2.05025 0
M  V30 2169 C 209.464 -3.61191 -2.81612 0
M  V30 2170 N 210.955 -3.61847 -2.89172 0
M  V30 2171 C 211.69 -4.55004 -3.4894 0
M  V30 2172 N 211.186 -5.58482 -4.09963 0
M  V30 2173 N 212.979 -4.42594 -3.46506 0
M  V30 2174 H 205.13 -2.09221 -0.366094 0
M  V30 2175 H 207.393 -0.921003 -0.224629 0
M  V30 2176 H 207.099 -3.228 -1.39618 0
M  V30 2177 H 206.973 -2.37934 -2.9269 0
M  V30 2178 H 209.36 -1.45494 -2.5674 0
M  V30 2179 H 209.441 -2.33857 -1.03657 0
M  V30 2180 H 209.085 -4.52545 -2.30576 0
M  V30 2181 H 209.015 -3.61092 -3.83302 0
M  V30 2182 H 211.506 -2.87022 -2.45819 0
M  V30 2183 H 211.819 -6.25704 -4.53557 0
M  V30 2184 H 210.164 -5.62305 -4.08459 0
M  V30 2185 H 213.355 -3.60953 -2.98045 0
M  V30 2186 H 213.528 -5.15381 -3.92793 0
M  V30 2187 N 206.934 1.1197 -1.10907 0
M  V30 2188 C 208.18 1.84059 -0.865674 0
M  V30 2189 C 208.535 1.82731 0.602254 0
M  V30 2190 O 207.828 1.26543 1.43866 0
M  V30 2191 C 208.022 3.30749 -1.35425 0
M  V30 2192 C 207.851 3.46363 -2.86815 0
M  V30 2193 C 206.621 3.59712 -3.54874 0
M  V30 2194 C 208.819 3.41116 -3.84895 0
M  V30 2195 N 206.801 3.63741 -4.94536 0
M  V30 2196 C 208.172 3.51698 -5.10596 0
M  V30 2197 C 210.227 3.24612 -3.77533 0
M  V30 2198 C 208.93 3.4748 -6.29802 0
M  V30 2199 C 210.956 3.21708 -4.96244 0
M  V30 2200 C 210.318 3.32856 -6.20795 0
M  V30 2201 H 206.417 0.689015 -0.369841 0
M  V30 2202 H 209.001 1.34016 -1.41237 0
M  V30 2203 H 207.172 3.79322 -0.834814 0
M  V30 2204 H 208.904 3.90718 -1.05458 0
M  V30 2205 H 205.659 3.62038 -3.05329 0
M  V30 2206 H 206.083 3.69408 -5.67333 0
M  V30 2207 H 210.725 3.14883 -2.8215 0
M  V30 2208 H 208.443 3.55978 -7.25469 0
M  V30 2209 H 212.029 3.10113 -4.92261 0
M  V30 2210 H 210.909 3.3059 -7.11112 0
M  V30 2211 N 208.412 0.89855 1.29475 0
M  V30 2212 C 209.828 0.594483 1.48115 0
M  V30 2213 C 210.028 -0.86431 1.82022 0
M  V30 2214 O 209.084 -1.64457 1.91599 0
M  V30 2215 C 210.397 1.51932 2.59494 0
M  V30 2216 C 211.945 1.5244 2.7337 0
M  V30 2217 C 212.42 2.43548 3.87877 0
M  V30 2218 N 213.911 2.41589 3.95208 0
M  V30 2219 C 214.646 3.08789 4.83153 0
M  V30 2220 N 214.142 3.85265 5.75798 0
M  V30 2221 N 215.935 2.97952 4.76635 0
M  V30 2222 H 208.086 1.84207 1.05742 0
M  V30 2223 H 210.349 0.789251 0.525154 0
M  V30 2224 H 210.055 2.55865 2.41301 0
M  V30 2225 H 209.929 1.23899 3.56271 0
M  V30 2226 H 212.316 0.492518 2.90961 0
M  V30 2227 H 212.397 1.8451 1.77172 0
M  V30 2228 H 212.041 3.46829 3.71041 0
M  V30 2229 H 211.971 2.08788 4.83441 0
M  V30 2230 H 214.462 1.86025 3.28943 0
M  V30 2231 H 214.775 4.33598 6.39697 0
M  V30 2232 H 213.12 3.89371 5.75687 0
M  V30 2233 H 216.311 2.37723 4.03244 0
M  V30 2234 H 216.484 3.50599 5.44962 0
M  V30 2235 N 209.89 -1.43072 0.660911 0
M  V30 2236 C 210.837 -2.30785 -0.0259884 0
M  V30 2237 C 211.807 -1.45184 -0.806888 0
M  V30 2238 O 212.992 -1.74041 -0.781943 0
M  V30 2239 C 210.132 -3.30861 -0.981067 0
M  V30 2240 C 209.245 -4.31558 -0.195458 0
M  V30 2241 C 208.38 -5.18712 -1.14503 0
M  V30 2242 C 207.419 -6.11097 -0.350299 0
M  V30 2243 N 206.556 -6.90849 -1.25186 0
M  V30 2244 H 211.396 -2.88975 0.727846 0
M  V30 2245 H 208.933 -1.42353 0.370682 0
M  V30 2246 H 210.891 -3.87399 -1.54849 0
M  V30 2247 H 209.521 -2.74304 -1.70169 0
M  V30 2248 H 208.573 -3.77252 0.488374 0
M  V30 2249 H 209.885 -4.9701 0.422176 0
M  V30 2250 H 209.039 -5.79914 -1.78284 0
M  V30 2251 H 207.778 -4.53404 -1.79656 0
M  V30 2252 H 206.783 -5.48976 0.300808 0
M  V30 2253 H 208.008 -6.7845 0.296941 0
M  V30 2254 H 205.954 -6.28182 -1.89005 0
M  V30 2255 H 205.871 -7.52854 -0.688971 0
M  V30 2256 H 207.139 -7.5655 -1.87757 0
M  V30 2257 N 211.368 -0.403325 -1.52352 0
M  V30 2258 C 212.784 -0.0539281 -1.59509 0
M  V30 2259 C 212.984 1.43307 -1.41652 0
M  V30 2260 O 212.04 2.19924 -1.24056 0
M  V30 2261 C 213.353 -0.543654 -2.95745 0
M  V30 2262 C 214.901 -0.501125 -3.08962 0
M  V30 2263 C 215.376 -0.967267 -4.47669 0
M  V30 2264 N 216.867 -0.923849 -4.53893 0
M  V30 2265 C 217.602 -1.25578 -5.5948 0
M  V30 2266 N 217.098 -1.65889 -6.72646 0
M  V30 2267 N 218.891 -1.17613 -5.49658 0
M  V30 2268 H 211.042 -1.37123 -1.62206 0
M  V30 2269 H 213.305 -0.56294 -0.76276 0
M  V30 2270 H 213.011 -1.58275 -3.14073 0
M  V30 2271 H 212.885 0.0498042 -3.77167 0
M  V30 2272 H 215.272 0.528909 -2.90321 0
M  V30 2273 H 215.353 -1.13056 -2.2946 0
M  V30 2274 H 214.997 -1.9956 -4.67053 0
M  V30 2275 H 214.927 -0.314698 -5.25659 0
M  V30 2276 H 217.418 -0.627403 -3.72655 0
M  V30 2277 H 217.731 -1.89543 -7.49195 0
M  V30 2278 H 216.076 -1.69787 -6.73942 0
M  V30 2279 H 219.267 -0.860115 -4.6013 0
M  V30 2280 H 219.44 -1.43812 -6.3184 0
M  V30 2281 N 212.846 1.57033 -0.133567 0
M  V30 2282 C 213.779 2.11824 0.848872 0
M  V30 2283 C 214.757 1.03833 1.2513 0
M  V30 2284 O 215.941 1.31579 1.34978 0
M  V30 2285 C 213.068 2.62692 2.138 0
M  V30 2286 C 212.114 3.82705 1.88253 0
M  V30 2287 S 212.947 5.2438 1.08563 0
M  V30 2288 C 214.103 5.78627 2.38624 0
M  V30 2289 H 214.336 2.94824 0.38289 0
M  V30 2290 H 211.869 1.5419 0.0804796 0
M  V30 2291 H 213.827 2.92652 2.87863 0
M  V30 2292 H 212.488 1.79847 2.57515 0
M  V30 2293 H 211.681 4.16496 2.83809 0
M  V30 2294 H 211.283 3.53437 1.22305 0
M  V30 2295 H 213.575 5.8924 3.34369 0
M  V30 2296 H 214.518 6.76443 2.09358 0
M  V30 2297 H 214.926 5.06783 2.48658 0
M  V30 2298 N 214.325 -0.140222 1.56975 0
M  V30 2299 C 215.235 -1.19223 2.02047 0
M  V30 2300 C 216.251 -1.46612 0.937062 0
M  V30 2301 O 217.427 -1.58148 1.24704 0
M  V30 2302 C 214.492 -2.50414 2.39778 0
M  V30 2303 C 213.553 -2.30612 3.621 0
M  V30 2304 C 212.786 -3.55547 3.98023 0
M  V30 2305 O 213.009 -4.62004 3.34528 0
M  V30 2306 O 211.943 -3.47808 4.91237 0
M  V30 2307 H 215.769 -0.839559 2.91865 0
M  V30 2308 H 213.354 -0.349453 1.45256 0
M  V30 2309 H 215.236 -3.27747 2.64877 0
M  V30 2310 H 213.911 -2.85198 1.53114 0
M  V30 2311 H 212.818 -1.51207 3.4218 0
M  V30 2312 H 214.151 -2.00741 4.49404 0
M  V30 2313 N 215.803 -1.52179 -0.40978 0
M  V30 2314 C 216.766 -1.74853 -1.48186 0
M  V30 2315 C 217.766 -0.618417 -1.48433 0
M  V30 2316 O 218.956 -0.886286 -1.49969 0
M  V30 2317 C 216.088 -1.8303 -2.87598 0
M  V30 2318 H 217.281 -2.70559 -1.29374 0
M  V30 2319 H 214.834 -1.42586 -0.640233 0
M  V30 2320 H 215.569 -0.89236 -3.11781 0
M  V30 2321 H 215.354 -2.65187 -2.88822 0
M  V30 2322 H 216.844 -2.02316 -3.65319 0
M  V30 2323 N 217.281 0.66697 -1.42791 0
M  V30 2324 C 218.244 1.76211 -1.46568 0
M  V30 2325 C 219.244 1.56896 -0.352196 0
M  V30 2326 O 220.434 1.63044 -0.613364 0
M  V30 2327 C 217.566 3.14935 -1.30494 0
M  V30 2328 H 218.759 1.74247 -2.44086 0
M  V30 2329 H 216.312 0.877342 -1.29354 0
M  V30 2330 H 217.047 3.2252 -0.339301 0
M  V30 2331 H 216.832 3.30359 -2.11199 0
M  V30 2332 H 218.322 3.94821 -1.36038 0
M  V30 2333 N 218.759 1.29093 0.90403 0
M  V30 2334 C 220.007 1.16583 1.65085 0
M  V30 2335 C 220.328 -0.283933 1.92922 0
M  V30 2336 O 219.598 -1.19509 1.55224 0
M  V30 2337 H 218.178 0.428467 0.611903 0
M  V30 2338 H 220.84 1.61959 1.08422 0
M  V30 2339 H 219.936 1.71266 2.6091 0
M  V30 2340 N 220.237 -1.11381 1.11499 0
M  V30 2341 C 221.184 -2.17439 0.773887 0
M  V30 2342 C 222.154 -1.64132 -0.254899 0
M  V30 2343 O 223.339 -1.90345 -0.13168 0
M  V30 2344 C 220.479 -3.44373 0.223917 0
M  V30 2345 C 219.592 -4.1168 1.30934 0
M  V30 2346 C 218.727 -5.263 0.71984 0
M  V30 2347 C 217.766 -5.85493 1.78507 0
M  V30 2348 N 216.903 -6.91507 1.21502 0
M  V30 2349 H 221.743 -2.45962 1.68246 0
M  V30 2350 H 219.28 -1.20744 0.840191 0
M  V30 2351 H 221.238 -4.17047 -0.112921 0
M  V30 2352 H 219.868 -3.16232 -0.647851 0
M  V30 2353 H 218.92 -3.37073 1.76312 0
M  V30 2354 H 220.232 -4.51729 2.11524 0
M  V30 2355 H 219.386 -6.05785 0.333094 0
M  V30 2356 H 218.125 -4.87559 -0.117377 0
M  V30 2357 H 217.13 -5.04686 2.18111 0
M  V30 2358 H 218.355 -6.26301 2.62533 0
M  V30 2359 H 216.301 -6.54783 0.399455 0
M  V30 2360 H 216.218 -7.30214 1.95763 0
M  V30 2361 H 217.486 -7.74795 0.855181 0
M  V30 2362 N 221.715 -0.905404 -1.28997 0
M  V30 2363 C 223.126 -0.581953 -1.77398 0
M  V30 2364 C 223.477 0.902552 -1.74208 0
M  V30 2365 O 222.602 1.70584 -1.33154 0
M  V30 2366 C 223.197 -1.04961 -3.22131 0
M  V30 2367 C 221.756 -0.777229 -3.68288 0
M  V30 2368 C 220.903 -1.22109 -2.48967 0
M  V30 2369 H 223.854 -1.08754 -1.15578 0
M  V30 2370 H 223.875 -0.387387 -3.78523 0
M  V30 2371 H 223.387 -2.13008 -3.24421 0
M  V30 2372 H 221.488 0.290383 -3.71467 0
M  V30 2373 H 221.601 -1.37911 -4.58822 0
M  V30 2374 H 219.965 -0.639971 -2.46529 0
M  V30 2375 H 220.748 -2.30972 -2.53982 0
M  V30 2376 N 223.193 1.4272 -0.668489 0
M  V30 2377 C 224.421 2.05966 -0.196348 0
M  V30 2378 C 224.836 1.50191 1.14403 0
M  V30 2379 O 224.193 0.639208 1.7094 0
M  V30 2380 C 224.244 3.61314 -0.115815 0
M  V30 2381 O 223.965 4.1502 -1.40322 0
M  V30 2382 C 225.466 4.41663 0.380579 0
M  V30 2383 H 222.686 0.663954 -0.0969829 0
M  V30 2384 H 225.23 1.82966 -0.913446 0
M  V30 2385 H 223.385 3.83448 0.551931 0
M  V30 2386 H 223.799 5.08832 -1.27243 0
M  V30 2387 H 225.273 5.5065 0.385848 0
M  V30 2388 H 225.75 4.15792 1.41471 0
M  V30 2389 H 226.356 4.24534 -0.255209 0
M  V30 2390 N 224.671 0.411399 1.52136 0
M  V30 2391 C 225.948 -0.222308 1.94333 0
M  V30 2392 C 226.328 -1.6242 1.34844 0
M  V30 2393 O 225.676 -2.22384 0.525145 0
M  V30 2394 C 225.886 -0.226345 3.48265 0
M  V30 2395 C 227.234 -0.444592 4.22266 0
M  V30 2396 O 228.258 -0.305602 3.54887 0
M  V30 2397 O 227.117 -0.718749 5.41753 0
M  V30 2398 H 224.211 -0.143907 0.814383 0
M  V30 2399 H 226.757 0.467506 1.63133 0
M  V30 2400 H 225.529 0.75475 3.83952 0
M  V30 2401 H 225.152 -0.960163 3.85832 0
M  V30 2402 N 226.149 -1.5696 0.141893 0
M  V30 2403 C 227.096 -2.16501 -0.799737 0
M  V30 2404 C 228.066 -1.09643 -1.24771 0
M  V30 2405 O 229.251 -1.3766 -1.32115 0
M  V30 2406 C 226.391 -2.78679 -2.03549 0
M  V30 2407 C 225.504 -3.99914 -1.6338 0
M  V30 2408 C 224.639 -4.50106 -2.82096 0
M  V30 2409 C 223.678 -5.63819 -2.38275 0
M  V30 2410 N 222.815 -6.08651 -3.49983 0
M  V30 2411 H 227.655 -2.96632 -0.285179 0
M  V30 2412 H 225.192 -1.46533 -0.129053 0
M  V30 2413 H 227.15 -3.1287 -2.75986 0
M  V30 2414 H 225.78 -2.012 -2.52425 0
M  V30 2415 H 224.832 -3.71735 -0.807279 0
M  V30 2416 H 226.144 -4.82311 -1.27192 0
M  V30 2417 H 225.298 -4.86325 -3.62729 0
M  V30 2418 H 224.037 -3.66706 -3.21525 0
M  V30 2419 H 223.042 -5.2718 -1.56081 0
M  V30 2420 H 224.267 -6.49 -1.99938 0
M  V30 2421 H 222.213 -5.28188 -3.89042 0
M  V30 2422 H 222.13 -6.85961 -3.17794 0
M  V30 2423 H 223.398 -6.49515 -4.30988 0
M  V30 2424 N 227.627 0.131896 -1.57047 0
M  V30 2425 C 229.038 0.690407 -1.73465 0
M  V30 2426 C 229.389 1.8094 -0.758629 0
M  V30 2427 O 228.514 2.16282 0.0713813 0
M  V30 2428 C 229.109 1.25916 -3.14532 0
M  V30 2429 C 227.668 1.76409 -3.32501 0
M  V30 2430 C 226.815 0.658579 -2.69366 0
M  V30 2431 H 229.766 -0.0939144 -1.58422 0
M  V30 2432 H 229.787 2.12892 -3.15369 0
M  V30 2433 H 229.299 0.444515 -3.85546 0
M  V30 2434 H 227.4 2.60391 -2.66509 0
M  V30 2435 H 227.513 1.88241 -4.4057 0
M  V30 2436 H 225.877 1.08899 -2.30246 0
M  V30 2437 H 226.66 -0.14487 -3.42994 0
M  V30 2438 N 229.106 1.52395 0.401703 0
M  V30 2439 C 230.054 1.7689 1.51039 0
M  V30 2440 C 231.048 0.636298 1.56996 0
M  V30 2441 O 232.254 0.818507 1.60314 0
M  V30 2442 H 228.629 0.559502 0.502456 0
M  V30 2443 H 230.6 2.69757 1.27568 0
M  V30 2444 C 229.349 1.94331 2.88324 0
M  V30 2445 H 228.672 2.80905 2.84486 0
M  V30 2446 H 230.112 2.15466 3.65172 0
M  V30 2447 C 228.571 0.712396 3.29282 0
M  V30 2448 O 229.101 -0.116218 4.01532 0
M  V30 2449 N 227.307 0.546154 2.85422 0
M  V30 2450 H 226.854 1.22156 2.26794 0
M  V30 2451 H 226.812 -0.276113 3.13185 0
M  V30 2452 N 230.584 -0.659388 1.43143 0
M  V30 2453 C 231.514 -1.78422 1.50625 0
M  V30 2454 C 232.495 -1.66216 0.361443 0
M  V30 2455 O 233.68 -1.85404 0.577834 0
M  V30 2456 C 230.81 -3.16815 1.42287 0
M  V30 2457 C 229.764 -3.43777 2.54954 0
M  V30 2458 C 229.09 -4.81905 2.31671 0
M  V30 2459 C 230.39 -3.39134 3.97222 0
M  V30 2460 H 232.084 -1.72417 2.44771 0
M  V30 2461 H 229.63 -0.828084 1.17808 0
M  V30 2462 H 231.583 -3.95253 1.46127 0
M  V30 2463 H 230.307 -3.23534 0.446435 0
M  V30 2464 H 228.966 -2.67707 2.50457 0
M  V30 2465 H 228.614 -4.85294 1.32284 0
M  V30 2466 H 228.314 -5.00906 3.07192 0
M  V30 2467 H 229.838 -5.62609 2.37284 0
M  V30 2468 H 231.252 -4.07518 4.03239 0
M  V30 2469 H 229.649 -3.69671 4.72719 0
M  V30 2470 H 230.719 -2.37426 4.22797 0
M  V30 2471 N 232.062 -1.29571 -0.897171 0
M  V30 2472 C 233.308 -1.17863 -1.65034 0
M  V30 2473 C 233.641 0.268729 -1.92332 0
M  V30 2474 O 232.916 1.19378 -1.53555 0
M  V30 2475 C 233.199 -1.995 -2.99786 0
M  V30 2476 C 233.052 -3.5239 -2.79538 0
M  V30 2477 C 234.371 -1.82335 -4.00552 0
M  V30 2478 H 231.49 -0.429528 -0.598895 0
M  V30 2479 H 234.132 -1.59072 -1.03905 0
M  V30 2480 H 232.282 -1.64485 -3.51962 0
M  V30 2481 H 233.954 -3.97401 -2.34244 0
M  V30 2482 H 232.197 -3.77187 -2.14273 0
M  V30 2483 H 232.868 -4.04787 -3.75302 0
M  V30 2484 H 235.344 -2.12924 -3.57495 0
M  V30 2485 H 234.22 -2.41801 -4.92771 0
M  V30 2486 H 234.481 -0.779209 -4.35179 0
M  V30 2487 N 233.54 1.10788 -1.12088 0
M  V30 2488 C 234.78 1.84297 -0.883974 0
M  V30 2489 C 235.144 1.83036 0.579797 0
M  V30 2490 O 236.345 2.52061 0.933734 0
M  V30 2491 C 234.616 3.27173 -1.43849 0
M  V30 2492 S 236.175 4.17853 -1.33957 0
M  V30 2493 H 232.993 0.635433 -0.318977 0
M  V30 2494 H 235.595 1.33341 -1.4297 0
M  V30 2495 H 234.299 3.25658 -2.49749 0
M  V30 2496 H 233.83 3.83198 -0.890096 0
M  V30 2497 H 235.845 4.95239 -0.308603 0
M  V30 2498 N 235.018 0.912232 1.28515 0
M  V30 2499 C 236.266 0.543523 1.94654 0
M  V30 2500 C 236.587 -0.9155 1.72173 0
M  V30 2501 O 235.857 -1.64708 1.06058 0
M  V30 2502 H 234.437 0.198017 0.720277 0
M  V30 2503 H 237.099 1.16126 1.56527 0
M  V30 2504 H 236.195 0.736684 3.03281 0
M  V30 2505 N 236.496 -1.42363 0.676048 0
M  V30 2506 C 237.907 -1.84649 0.275948 0
M  V30 2507 C 238.258 -1.56588 -1.18214 0
M  V30 2508 O 237.383 -1.02634 -1.90513 0
M  V30 2509 C 237.978 -3.35178 0.494053 0
M  V30 2510 C 236.537 -3.76109 0.148061 0
M  V30 2511 C 235.684 -2.65931 0.785891 0
M  V30 2512 H 238.635 -1.32192 0.878121 0
M  V30 2513 H 238.656 -3.79655 -0.25343 0
M  V30 2514 H 238.168 -3.55571 1.55535 0
M  V30 2515 H 236.269 -3.61323 -0.909742 0
M  V30 2516 H 236.382 -4.7546 0.589454 0
M  V30 2517 H 234.746 -2.53773 0.217113 0
M  V30 2518 H 235.529 -2.89146 1.85067 0
M  V30 2519 N 237.974 -0.419461 -1.51915 0
M  V30 2520 C 239.22 0.153166 -2.02221 0
M  V30 2521 C 239.553 1.43907 -1.30401 0
M  V30 2522 O 238.828 1.90055 -0.413438 0
M  V30 2523 C 239.111 0.390291 -3.57979 0
M  V30 2524 C 238.964 -0.913014 -4.40436 0
M  V30 2525 C 240.283 1.16794 -4.2432 0
M  V30 2526 H 237.402 0.0541924 -0.735005 0
M  V30 2527 H 240.044 -0.554955 -1.81715 0
M  V30 2528 H 238.194 0.993491 -3.75582 0
M  V30 2529 H 239.866 -1.54882 -4.34522 0
M  V30 2530 H 238.109 -1.52168 -4.06236 0
M  V30 2531 H 238.78 -0.701361 -5.47526 0
M  V30 2532 H 241.256 0.657161 -4.10878 0
M  V30 2533 H 240.132 1.3026 -5.3322 0
M  V30 2534 H 240.393 2.19132 -3.83971 0
M  V30 2535 N 239.452 1.56882 -0.150215 0
M  V30 2536 C 240.384 2.14057 0.819286 0
M  V30 2537 C 241.397 1.09082 1.20851 0
M  V30 2538 O 242.586 1.36347 1.15203 0
M  V30 2539 C 239.686 2.65102 2.11127 0
M  V30 2540 C 238.859 3.94511 1.88891 0
M  V30 2541 C 237.918 4.30834 3.02107 0
M  V30 2542 O 236.944 4.99099 2.73659 0
M  V30 2543 N 238.146 3.90676 4.29363 0
M  V30 2544 H 240.911 2.97871 0.330618 0
M  V30 2545 H 238.472 1.61866 0.0332538 0
M  V30 2546 H 240.464 2.86411 2.85921 0
M  V30 2547 H 239.034 1.85994 2.51247 0
M  V30 2548 H 238.254 3.81795 0.981152 0
M  V30 2549 H 239.542 4.7907 1.71376 0
M  V30 2550 H 238.94 3.35677 4.55343 0
M  V30 2551 H 237.497 4.1703 5.00928 0
M  V30 2552 N 240.93 -0.123565 1.57115 0
M  V30 2553 C 242.179 -0.830704 1.83799 0
M  V30 2554 C 242.492 -1.81259 0.735158 0
M  V30 2555 O 243.698 -2.56558 0.888278 0
M  V30 2556 C 242.154 -1.52802 3.25852 0
M  V30 2557 C 241.762 -0.587356 4.44133 0
M  V30 2558 C 243.506 -2.22056 3.61789 0
M  V30 2559 C 241.413 -1.28764 5.77212 0
M  V30 2560 H 240.343 -0.313967 0.685522 0
M  V30 2561 H 242.994 -0.0834359 1.8331 0
M  V30 2562 H 241.376 -2.32175 3.20797 0
M  V30 2563 H 242.55 0.172829 4.60476 0
M  V30 2564 H 240.865 -0.00201892 4.164 0
M  V30 2565 H 243.462 -2.75131 4.58483 0
M  V30 2566 H 243.805 -2.99644 2.88997 0
M  V30 2567 H 244.338 -1.49576 3.68608 0
M  V30 2568 H 241.077 -0.55314 6.53162 0
M  V30 2569 H 240.597 -2.01995 5.64764 0
M  V30 2570 H 242.276 -1.8221 6.20813 0
M  V30 2571 N 242.408 -1.52605 -0.393616 0
M  V30 2572 C 243.648 -1.6911 -1.1481 0
M  V30 2573 C 244.012 -0.41969 -1.87357 0
M  V30 2574 O 245.213 -0.461034 -2.64817 0
M  V30 2575 C 243.484 -2.88909 -2.10395 0
M  V30 2576 S 245.043 -3.25977 -2.93742 0
M  V30 2577 H 241.861 -0.595337 -0.38871 0
M  V30 2578 H 244.463 -1.90641 -0.433178 0
M  V30 2579 H 243.167 -3.79672 -1.55812 0
M  V30 2580 H 242.698 -2.69698 -2.86403 0
M  V30 2581 H 244.713 -2.75806 -4.12487 0
M  V30 2582 N 243.887 0.651787 -1.4349 0
M  V30 2583 C 245.133 1.4121 -1.46395 0
M  V30 2584 C 245.488 1.92202 -0.087366 0
M  V30 2585 O 244.781 1.69452 0.894231 0
M  V30 2586 C 244.975 2.60914 -2.44251 0
M  V30 2587 C 244.804 2.21639 -3.91288 0
M  V30 2588 C 243.574 2.09897 -4.59643 0
M  V30 2589 C 245.772 1.81835 -4.81083 0
M  V30 2590 N 243.754 1.63967 -5.91598 0
M  V30 2591 C 245.125 1.46998 -6.02322 0
M  V30 2592 C 247.18 1.69031 -4.6833 0
M  V30 2593 C 245.883 1.00638 -7.12225 0
M  V30 2594 C 247.909 1.24077 -5.78238 0
M  V30 2595 C 247.271 0.901772 -6.98604 0
M  V30 2596 H 243.37 0.512322 -0.590805 0
M  V30 2597 H 245.954 0.74989 -1.7968 0
M  V30 2598 H 244.125 3.24792 -2.1299 0
M  V30 2599 H 245.857 3.27622 -2.37584 0
M  V30 2600 H 242.612 2.297 -4.14168 0
M  V30 2601 H 243.036 1.43359 -6.61647 0
M  V30 2602 H 247.678 1.93878 -3.75727 0
M  V30 2603 H 245.396 0.745399 -8.04655 0
M  V30 2604 H 248.982 1.14657 -5.7039 0
M  V30 2605 H 247.862 0.559226 -7.82203 0
M  V30 2606 N 245.365 1.30045 0.890287 0
M  V30 2607 C 246.315 1.12592 1.9826 0
M  V30 2608 C 247.299 0.0426021 1.60844 0
M  V30 2609 O 248.491 0.265346 1.75 0
M  V30 2610 C 245.62 0.814301 3.33503 0
M  V30 2611 C 244.706 1.93761 3.7725 0
M  V30 2612 N 245.097 3.18232 3.93143 0
M  V30 2613 C 243.395 1.83277 4.06602 0
M  V30 2614 C 244.096 3.9158 4.30163 0
M  V30 2615 N 243.072 3.19591 4.3973 0
M  V30 2616 H 246.874 2.07003 2.08631 0
M  V30 2617 H 244.388 1.21307 1.07974 0
M  V30 2618 H 246.385 0.67029 4.11476 0
M  V30 2619 H 245.045 -0.121797 3.24471 0
M  V30 2620 H 246.056 3.53581 3.78419 0
M  V30 2621 H 242.733 0.97001 4.06075 0
M  V30 2622 H 244.123 4.98744 4.50226 0
M  V30 2623 N 246.843 -1.10192 1.12674 0
M  V30 2624 C 247.79 -2.16606 0.796906 0
M  V30 2625 C 248.76 -1.64394 -0.237476 0
M  V30 2626 O 249.945 -1.90474 -0.111484 0
M  V30 2627 C 247.085 -3.44116 0.26043 0
M  V30 2628 C 246.198 -4.10268 1.35293 0
M  V30 2629 C 245.333 -5.25507 0.775621 0
M  V30 2630 C 244.372 -5.83567 1.84706 0
M  V30 2631 N 243.509 -6.90179 1.28829 0
M  V30 2632 H 248.349 -2.44163 1.70846 0
M  V30 2633 H 245.886 -1.19846 0.85295 0
M  V30 2634 H 247.844 -4.17143 -0.0686814 0
M  V30 2635 H 246.474 -3.16901 -0.614274 0
M  V30 2636 H 245.526 -3.35184 1.79877 0
M  V30 2637 H 246.838 -4.4946 2.16303 0
M  V30 2638 H 245.992 -6.05398 0.397327 0
M  V30 2639 H 244.731 -4.87656 -0.0656581 0
M  V30 2640 H 243.736 -5.02344 2.23452 0
M  V30 2641 H 244.961 -6.23482 2.69161 0
M  V30 2642 H 242.907 -6.54322 0.468881 0
M  V30 2643 H 242.824 -7.28097 2.03497 0
M  V30 2644 H 244.092 -7.73844 0.937311 0
M  V30 2645 N 248.321 -0.919034 -1.28029 0
M  V30 2646 C 249.568 -0.554934 -1.94748 0
M  V30 2647 C 249.896 0.90231 -1.72304 0
M  V30 2648 O 249.151 1.65767 -1.04018 0
M  V30 2649 C 249.45 -0.816855 -3.4794 0
M  V30 2650 C 249.116 -2.25448 -3.90492 0
M  V30 2651 C 247.778 -2.64752 -4.01821 0
M  V30 2652 C 250.13 -3.18977 -4.12193 0
M  V30 2653 C 247.458 -3.96727 -4.32232 0
M  V30 2654 C 249.81 -4.50523 -4.44086 0
M  V30 2655 C 248.474 -4.89673 -4.53626 0
M  V30 2656 H 247.744 -0.203065 -0.712633 0
M  V30 2657 H 250.391 -1.16136 -1.52265 0
M  V30 2658 H 248.696 -0.127677 -3.91592 0
M  V30 2659 H 250.393 -0.514238 -3.97689 0
M  V30 2660 H 246.983 -1.93952 -3.82205 0
M  V30 2661 H 251.167 -2.89817 -4.02889 0
M  V30 2662 H 246.423 -4.26754 -4.37825 0
M  V30 2663 H 250.597 -5.23005 -4.59825 0
M  V30 2664 H 248.224 -5.91969 -4.76946 0
M  V30 2665 N 249.799 1.42003 -0.683588 0
M  V30 2666 C 250.762 2.29191 -0.0198243 0
M  V30 2667 C 251.762 1.43773 0.72013 0
M  V30 2668 O 252.952 1.65061 0.556815 0
M  V30 2669 C 250.084 3.26435 0.982487 0
M  V30 2670 H 251.277 2.8938 -0.787345 0
M  V30 2671 H 248.83 1.49789 -0.446418 0
M  V30 2672 H 249.565 2.71203 1.77819 0
M  V30 2673 H 249.35 3.89449 0.455182 0
M  V30 2674 H 250.84 3.918 1.44508 0
M  V30 2675 N 251.277 0.427512 1.51691 0
M  V30 2676 C 252.693 0.0792977 1.59403 0
M  V30 2677 C 252.893 -1.41035 1.43914 0
M  V30 2678 O 251.949 -2.17922 1.27539 0
M  V30 2679 C 253.262 0.590636 2.94842 0
M  V30 2680 C 254.81 0.550215 3.08126 0
M  V30 2681 C 255.285 1.03836 4.46074 0
M  V30 2682 N 256.776 0.995943 4.52366 0
M  V30 2683 C 257.511 1.34463 5.57411 0
M  V30 2684 N 257.007 1.76569 6.69922 0
M  V30 2685 N 258.8 1.26343 5.47717 0
M  V30 2686 H 250.951 1.39687 1.60004 0
M  V30 2687 H 253.214 0.575003 0.753708 0
M  V30 2688 H 252.92 1.63251 3.11516 0
M  V30 2689 H 252.794 0.0102061 3.77199 0
M  V30 2690 H 255.181 -0.482654 2.91126 0
M  V30 2691 H 255.262 1.16693 2.27632 0
M  V30 2692 H 254.906 2.06965 4.63819 0
M  V30 2693 H 254.836 0.398286 5.25092 0
M  V30 2694 H 257.327 0.68661 3.7161 0
M  V30 2695 H 257.64 2.01438 7.46085 0
M  V30 2696 H 255.985 1.80488 6.71155 0
M  V30 2697 H 259.176 0.933209 4.58703 0
M  V30 2698 H 259.349 1.53846 6.29472 0
M  V30 2699 N 252.755 -1.56801 0.158532 0
M  V30 2700 C 253.985 -2.00568 -0.495583 0
M  V30 2701 C 254.393 -1.03774 -1.58201 0
M  V30 2702 O 253.736 -0.0285797 -1.83678 0
M  V30 2703 C 253.798 -3.40768 -1.14532 0
M  V30 2704 C 253.462 -4.56553 -0.202101 0
M  V30 2705 C 254.459 -5.16714 0.574675 0
M  V30 2706 C 252.144 -5.02197 -0.101648 0
M  V30 2707 C 254.138 -6.20939 1.43924 0
M  V30 2708 C 251.825 -6.06274 0.766508 0
M  V30 2709 C 252.823 -6.65515 1.53555 0
M  V30 2710 O 252.511 -7.67575 2.38922 0
M  V30 2711 H 252.243 -0.662893 -0.13247 0
M  V30 2712 H 254.797 -2.03829 0.253559 0
M  V30 2713 H 253.027 -3.34381 -1.94233 0
M  V30 2714 H 254.716 -3.6857 -1.70033 0
M  V30 2715 H 255.482 -4.82341 0.507167 0
M  V30 2716 H 251.361 -4.55807 -0.689994 0
M  V30 2717 H 254.905 -6.67107 2.03996 0
M  V30 2718 H 250.802 -6.40073 0.835266 0
M  V30 2719 H 251.57 -7.84844 2.32296 0
M  V30 2720 N 254.233 0.115231 -1.57178 0
M  V30 2721 C 255.479 0.818565 -1.86202 0
M  V30 2722 C 255.834 1.77316 -0.746785 0
M  V30 2723 O 255.127 1.89923 0.25291 0
M  V30 2724 C 255.321 1.60324 -3.19423 0
M  V30 2725 C 255.15 0.726138 -4.43799 0
M  V30 2726 C 253.92 0.379535 -5.03873 0
M  V30 2727 C 256.118 0.0420774 -5.14283 0
M  V30 2728 N 254.1 -0.507841 -6.11796 0
M  V30 2729 C 255.471 -0.704152 -6.15988 0
M  V30 2730 C 257.526 -0.0339486 -4.97888 0
M  V30 2731 C 256.229 -1.51927 -7.03072 0
M  V30 2732 C 258.255 -0.835906 -5.85463 0
M  V30 2733 C 257.617 -1.57031 -6.86673 0
M  V30 2734 H 253.716 0.276343 -0.731545 0
M  V30 2735 H 256.3 0.0821032 -1.94527 0
M  V30 2736 H 254.471 2.31072 -3.12186 0
M  V30 2737 H 256.203 2.2522 -3.36241 0
M  V30 2738 H 252.958 0.722634 -4.68054 0
M  V30 2739 H 253.382 -0.94349 -6.70393 0
M  V30 2740 H 258.024 0.519496 -4.19596 0
M  V30 2741 H 255.742 -2.08386 -7.80769 0
M  V30 2742 H 259.328 -0.89714 -5.74841 0
M  V30 2743 H 258.208 -2.18088 -7.53264 0
M  V30 2744 N 255.711 1.52812 0.385517 0
M  V30 2745 C 256.988 1.5861 1.14465 0
M  V30 2746 C 257.368 0.381402 2.07626 0
M  V30 2747 O 256.716 -0.629999 2.19643 0
M  V30 2748 C 256.926 2.92664 1.90128 0
M  V30 2749 C 258.274 3.46526 2.45367 0
M  V30 2750 O 259.298 2.94562 2.0028 0
M  V30 2751 O 258.157 4.37323 3.27736 0
M  V30 2752 H 255.251 0.639855 0.523941 0
M  V30 2753 H 257.797 1.65149 0.390389 0
M  V30 2754 H 256.569 3.71788 1.22022 0
M  V30 2755 H 256.192 2.89527 2.72507 0
M  V30 2756 N 257.189 -0.644168 1.43834 0
M  V30 2757 C 258.435 -1.40603 1.46146 0
M  V30 2758 C 258.768 -1.93997 0.0887717 0
M  V30 2759 O 258.043 -1.72854 -0.891724 0
M  V30 2760 C 258.326 -2.58086 2.51124 0
M  V30 2761 C 258.179 -2.10126 3.97702 0
M  V30 2762 C 259.498 -3.60291 2.52742 0
M  V30 2763 H 256.617 -0.509905 0.532134 0
M  V30 2764 H 259.259 -0.729502 1.75437 0
M  V30 2765 H 257.409 -3.15801 2.26278 0
M  V30 2766 H 259.081 -1.57342 4.33637 0
M  V30 2767 H 257.324 -1.41419 4.10101 0
M  V30 2768 H 257.995 -2.94649 4.66783 0
M  V30 2769 H 260.471 -3.12352 2.7491 0
M  V30 2770 H 259.347 -4.40032 3.28121 0
M  V30 2771 H 259.608 -4.1349 1.56455 0
M  V30 2772 N 258.668 -1.30515 -0.883378 0
M  V30 2773 C 259.578 -1.18959 -2.02203 0
M  V30 2774 C 260.594 -0.109172 -1.73657 0
M  V30 2775 O 261.77 -0.324413 -1.9877 0
M  V30 2776 C 258.835 -0.883871 -3.35244 0
M  V30 2777 C 257.896 -2.04982 -3.77201 0
M  V30 2778 C 257.129 -1.75859 -5.03894 0
M  V30 2779 O 257.352 -0.687276 -5.66244 0
M  V30 2780 O 256.286 -2.61146 -5.42297 0
M  V30 2781 H 260.112 -2.14616 -2.1488 0
M  V30 2782 H 257.697 -1.10124 -1.0096 0
M  V30 2783 H 259.579 -0.728644 -4.15053 0
M  V30 2784 H 258.254 0.0427798 -3.23672 0
M  V30 2785 H 257.161 -2.26038 -2.9809 0
M  V30 2786 H 258.494 -2.95825 -3.93381 0
M  V30 2787 N 260.146 1.09593 -1.13257 0
M  V30 2788 C 261.076 2.18214 -0.830946 0
M  V30 2789 C 262.057 1.68812 0.208966 0
M  V30 2790 O 263.242 1.9408 0.0682666 0
M  V30 2791 C 260.372 3.46051 -0.294296 0
M  V30 2792 C 259.326 4.08778 -1.26826 0
M  V30 2793 C 258.652 5.31419 -0.591449 0
M  V30 2794 C 259.952 4.51476 -2.62615 0
M  V30 2795 H 261.646 2.43703 -1.73923 0
M  V30 2796 H 259.192 1.17128 -0.837675 0
M  V30 2797 H 261.145 4.2134 -0.0709606 0
M  V30 2798 H 259.869 3.20079 0.649366 0
M  V30 2799 H 258.528 3.35505 -1.47756 0
M  V30 2800 H 258.176 5.01727 0.357633 0
M  V30 2801 H 257.876 5.74341 -1.24123 0
M  V30 2802 H 259.4 6.09433 -0.377355 0
M  V30 2803 H 260.814 5.17999 -2.45663 0
M  V30 2804 H 259.211 5.05277 -3.23752 0
M  V30 2805 H 260.281 3.63962 -3.20406 0
M  V30 2806 N 261.624 0.925811 1.2754 0
M  V30 2807 C 263.04 0.625767 1.46821 0
M  V30 2808 C 263.24 -0.825506 1.83814 0
M  V30 2809 O 262.296 -1.60356 1.95044 0
M  V30 2810 C 263.609 1.57402 2.56213 0
M  V30 2811 C 265.157 1.58204 2.70075 0
M  V30 2812 C 265.632 2.51721 3.82623 0
M  V30 2813 N 267.123 2.49917 3.89994 0
M  V30 2814 C 267.858 3.18968 4.76494 0
M  V30 2815 N 267.354 3.97391 5.67496 0
M  V30 2816 N 269.147 3.07996 4.70208 0
M  V30 2817 H 261.298 1.86409 1.01811 0
M  V30 2818 H 263.561 0.800213 0.508295 0
M  V30 2819 H 263.267 2.60925 2.35819 0
M  V30 2820 H 263.141 1.31428 3.53563 0
M  V30 2821 H 265.528 0.554124 2.89851 0
M  V30 2822 H 265.609 1.88226 1.73218 0
M  V30 2823 H 265.253 3.54622 3.63601 0
M  V30 2824 H 265.183 2.18996 4.78903 0
M  V30 2825 H 267.674 1.9296 3.24923 0
M  V30 2826 H 267.987 4.4707 6.30356 0
M  V30 2827 H 266.332 4.01495 5.67298 0
M  V30 2828 H 269.523 2.46223 3.9811 0
M  V30 2829 H 269.696 3.6208 5.37403 0
M  V30 2830 N 263.102 -1.41638 0.69111 0
M  V30 2831 C 264.012 -2.34588 0.0233487 0
M  V30 2832 C 265.028 -1.55987 -0.770984 0
M  V30 2833 O 266.204 -1.88486 -0.709569 0
M  V30 2834 C 263.269 -3.34684 -0.904851 0
M  V30 2835 C 262.33 -4.29176 -0.103225 0
M  V30 2836 C 261.563 -5.2449 -0.987216 0
M  V30 2837 O 261.786 -5.2514 -2.22674 0
M  V30 2838 O 260.72 -6.00295 -0.439281 0
M  V30 2839 H 264.546 -2.93261 0.789416 0
M  V30 2840 H 262.131 -1.42417 0.45142 0
M  V30 2841 H 264.013 -3.96133 -1.43724 0
M  V30 2842 H 262.688 -2.78461 -1.65049 0
M  V30 2843 H 261.595 -3.71089 0.473655 0
M  V30 2844 H 262.928 -4.88484 0.60365 0
M  V30 2845 N 264.58 -0.43555 -1.51462 0
M  V30 2846 C 265.829 0.133007 -2.01261 0
M  V30 2847 C 266.142 1.43942 -1.32439 0
M  V30 2848 O 267.348 2.09081 -1.73198 0
M  V30 2849 C 265.804 0.287581 -3.58749 0
M  V30 2850 C 265.412 -1.00829 -4.36506 0
M  V30 2851 C 267.156 0.810004 -4.167 0
M  V30 2852 C 265.063 -0.819454 -5.85695 0
M  V30 2853 H 263.993 0.0534822 -0.752101 0
M  V30 2854 H 266.644 -0.565038 -1.74584 0
M  V30 2855 H 265.026 1.04859 -3.81865 0
M  V30 2856 H 266.2 -1.77749 -4.25138 0
M  V30 2857 H 264.515 -1.45911 -3.89999 0
M  V30 2858 H 267.112 0.967743 -5.2587 0
M  V30 2859 H 267.455 1.79196 -3.75758 0
M  V30 2860 H 267.988 0.107357 -3.97655 0
M  V30 2861 H 264.727 -1.77374 -6.31046 0
M  V30 2862 H 264.247 -0.0900208 -5.99732 0
M  V30 2863 H 265.926 -0.471949 -6.45276 0
M  V30 2864 N 266.058 1.56714 -0.166846 0
M  V30 2865 C 267.469 1.83378 0.350646 0
M  V30 2866 C 267.82 1.08646 1.63372 0
M  V30 2867 O 266.945 0.338058 2.13743 0
M  V30 2868 C 267.54 3.32643 0.642963 0
M  V30 2869 C 266.099 3.59818 1.10491 0
M  V30 2870 C 265.246 2.76954 0.138411 0
M  V30 2871 H 268.197 1.53803 -0.391193 0
M  V30 2872 H 268.218 3.49878 1.49551 0
M  V30 2873 H 267.73 3.87007 -0.291055 0
M  V30 2874 H 265.831 3.1086 2.05418 0
M  V30 2875 H 265.944 4.68178 1.01716 0
M  V30 2876 H 264.308 2.4666 0.634911 0
M  V30 2877 H 265.091 3.34097 -0.789549 0
M  V30 2878 N 267.536 -0.106894 1.57237 0
M  V30 2879 C 268.469 -1.16125 1.96444 0
M  V30 2880 C 269.447 -1.3947 0.835871 0
M  V30 2881 O 270.631 -1.53425 1.09513 0
M  V30 2882 C 267.758 -2.51277 2.27107 0
M  V30 2883 C 266.804 -2.44285 3.4961 0
M  V30 2884 S 267.637 -1.87077 5.01759 0
M  V30 2885 C 268.793 -3.23877 5.35588 0
M  V30 2886 H 269.026 -0.826971 2.85567 0
M  V30 2887 H 266.559 -0.314124 1.51171 0
M  V30 2888 H 268.517 -3.29035 2.45451 0
M  V30 2889 H 267.178 -2.81879 1.38576 0
M  V30 2890 H 266.371 -3.4387 3.68469 0
M  V30 2891 H 265.973 -1.74652 3.30715 0
M  V30 2892 H 268.265 -4.20122 5.31511 0
M  V30 2893 H 269.208 -3.09833 6.36717 0
M  V30 2894 H 269.616 -3.22864 4.63054 0
M  V30 2895 N 269.014 -1.53014 -0.377408 0
M  V30 2896 C 270.43 -1.42523 -0.718281 0
M  V30 2897 C 270.63 -0.55487 -1.9371 0
M  V30 2898 O 269.686 -0.0327593 -2.52479 0
M  V30 2899 C 270.999 -2.85546 -0.942539 0
M  V30 2900 C 272.547 -2.95101 -1.04329 0
M  V30 2901 C 273.022 -4.3916 -1.3001 0
M  V30 2902 N 274.513 -4.42536 -1.36806 0
M  V30 2903 C 275.248 -5.51097 -1.58364 0
M  V30 2904 N 274.744 -6.69724 -1.77317 0
M  V30 2905 N 276.537 -5.38657 -1.60638 0
M  V30 2906 H 268.688 -2.08116 0.424426 0
M  V30 2907 H 270.951 -0.939352 0.127759 0
M  V30 2908 H 270.657 -3.51499 -0.118929 0
M  V30 2909 H 270.531 -3.28493 -1.85397 0
M  V30 2910 H 272.918 -2.29309 -1.85745 0
M  V30 2911 H 272.999 -2.55566 -0.109505 0
M  V30 2912 H 272.643 -5.05521 -0.490991 0
M  V30 2913 H 272.573 -4.76258 -2.24691 0
M  V30 2914 H 275.064 -3.57039 -1.23821 0
M  V30 2915 H 275.377 -7.48233 -1.93306 0
M  V30 2916 H 273.722 -6.72732 -1.74518 0
M  V30 2917 H 276.913 -4.44948 -1.45391 0
M  V30 2918 H 277.086 -6.2333 -1.77098 0
M  V30 2919 N 270.492 0.636531 -1.44174 0
M  V30 2920 C 271.903 1.21806 -1.41493 0
M  V30 2921 C 272.254 1.95785 -0.1275 0
M  V30 2922 O 271.379 2.02147 0.772376 0
M  V30 2923 C 271.974 2.21551 -2.56321 0
M  V30 2924 C 270.533 2.75143 -2.56853 0
M  V30 2925 C 269.68 1.50052 -2.33195 0
M  V30 2926 H 272.631 0.427531 -1.52833 0
M  V30 2927 H 272.652 3.0405 -2.28765 0
M  V30 2928 H 272.164 1.67679 -3.50008 0
M  V30 2929 H 270.265 3.33033 -1.67093 0
M  V30 2930 H 270.378 3.2155 -3.55165 0
M  V30 2931 H 268.742 1.77993 -1.82183 0
M  V30 2932 H 269.525 0.980903 -3.28988 0
M  V30 2933 N 271.97 1.30982 0.876444 0
M  V30 2934 C 273.218 1.20058 1.62575 0
M  V30 2935 C 273.539 -0.242947 1.93481 0
M  V30 2936 O 272.809 -1.1619 1.57724 0
M  V30 2937 H 271.389 0.44135 0.602677 0
M  V30 2938 H 274.051 1.64222 1.04962 0
M  V30 2939 H 273.147 1.76762 2.57219 0
M  V30 2940 N 273.449 -1.08991 1.13837 0
M  V30 2941 C 274.381 -2.15606 0.777612 0
M  V30 2942 C 275.394 -1.61533 -0.202739 0
M  V30 2943 O 276.583 -1.78491 0.0181055 0
M  V30 2944 C 273.683 -3.3864 0.132623 0
M  V30 2945 C 272.856 -4.22115 1.1462 0
M  V30 2946 C 271.915 -5.23564 0.526074 0
M  V30 2947 O 270.941 -5.56678 1.18735 0
M  V30 2948 N 272.143 -5.76266 -0.699866 0
M  V30 2949 H 274.908 -2.47159 1.69506 0
M  V30 2950 H 272.469 -1.24747 1.03198 0
M  V30 2951 H 274.461 -4.03626 -0.29459 0
M  V30 2952 H 273.031 -3.04938 -0.687849 0
M  V30 2953 H 272.251 -3.53199 1.75055 0
M  V30 2954 H 273.539 -4.74709 1.83109 0
M  V30 2955 H 272.937 -5.51585 -1.25581 0
M  V30 2956 H 271.494 -6.42963 -1.06968 0
M  V30 2957 N 274.927 -0.932562 -1.27047 0
M  V30 2958 C 275.857 -0.452902 -2.29066 0
M  V30 2959 C 276.838 0.489338 -1.62909 0
M  V30 2960 O 278.023 0.393046 -1.90181 0
M  V30 2961 C 275.153 0.290698 -3.46081 0
M  V30 2962 C 274.107 -0.564168 -4.24265 0
M  V30 2963 C 273.433 0.308886 -5.33807 0
M  V30 2964 C 274.733 -1.83112 -4.89149 0
M  V30 2965 H 276.427 -1.30552 -2.69437 0
M  V30 2966 H 273.973 -0.629201 -1.29526 0
M  V30 2967 H 275.926 0.637233 -4.16554 0
M  V30 2968 H 274.65 1.17738 -3.0464 0
M  V30 2969 H 273.309 -0.893477 -3.55545 0
M  V30 2970 H 272.957 1.19467 -4.88607 0
M  V30 2971 H 272.657 -0.259633 -5.87026 0
M  V30 2972 H 274.181 0.650884 -6.07121 0
M  V30 2973 H 275.595 -1.55236 -5.51883 0
M  V30 2974 H 273.992 -2.34353 -5.52448 0
M  V30 2975 H 275.062 -2.54772 -4.12576 0
M  V30 2976 N 276.405 1.4127 -0.698611 0
M  V30 2977 C 277.652 2.0118 -0.230865 0
M  V30 2978 C 277.98 1.55338 1.17049 0
M  V30 2979 O 277.235 0.756775 1.80475 0
M  V30 2980 C 277.534 3.56592 -0.240192 0
M  V30 2981 C 277.2 4.21955 -1.58948 0
M  V30 2982 C 275.862 4.39524 -1.95887 0
M  V30 2983 C 278.214 4.58576 -2.47704 0
M  V30 2984 C 275.542 4.90992 -3.2116 0
M  V30 2985 C 277.894 5.11435 -3.72313 0
M  V30 2986 C 276.558 5.27215 -4.0939 0
M  V30 2987 H 275.828 0.736169 -0.0844796 0
M  V30 2988 H 278.475 1.69124 -0.8983 0
M  V30 2989 H 276.78 3.88456 0.510797 0
M  V30 2990 H 278.477 4.00758 0.139296 0
M  V30 2991 H 275.067 4.08657 -1.29219 0
M  V30 2992 H 279.251 4.44654 -2.20445 0
M  V30 2993 H 274.507 5.01393 -3.49878 0
M  V30 2994 H 278.681 5.38752 -4.4127 0
M  V30 2995 H 276.308 5.66859 -5.06533 0
M  V30 2996 N 277.883 0.443576 1.51229 0
M  V30 2997 C 278.816 -0.410089 2.24485 0
M  V30 2998 C 279.794 -1.01949 1.26669 0
M  V30 2999 O 280.978 -1.06075 1.55821 0
M  V30 3000 C 278.105 -1.57211 3.00004 0
M  V30 3001 C 277.151 -1.08279 4.12526 0
M  V30 3002 S 277.984 -0.0197476 5.35496 0
M  V30 3003 C 279.14 -1.18629 6.14555 0
M  V30 3004 H 279.373 0.211832 2.96544 0
M  V30 3005 H 276.906 0.228156 1.52705 0
M  V30 3006 H 278.864 -2.23825 3.44111 0
M  V30 3007 H 277.525 -2.16547 2.27522 0
M  V30 3008 H 276.718 -1.95193 4.64667 0
M  V30 3009 H 276.32 -0.494797 3.70713 0
M  V30 3010 H 278.612 -2.10344 6.4402 0
M  V30 3011 H 279.555 -0.70472 7.04584 0
M  V30 3012 H 279.963 -1.42768 5.46148 0
M  V30 3013 N 279.361 -1.56624 0.175154 0
M  V30 3014 C 280.638 -1.88688 -0.515373 0
M  V30 3015 C 281.018 -1.08564 -1.81044 0
M  V30 3016 O 280.366 -0.180703 -2.27784 0
M  V30 3017 C 280.576 -3.40768 -0.753552 0
M  V30 3018 C 281.924 -4.10587 -1.08184 0
M  V30 3019 O 282.948 -3.46106 -0.841961 0
M  V30 3020 O 281.807 -5.24512 -1.53459 0
M  V30 3021 H 278.901 -0.78301 -0.26613 0
M  V30 3022 H 281.447 -1.68347 0.213877 0
M  V30 3023 H 280.219 -3.90965 0.161829 0
M  V30 3024 H 279.842 -3.66733 -1.53598 0
M  V30 3025 N 280.839 0.0985539 -1.57292 0
M  V30 3026 C 282.25 0.653457 -1.74891 0
M  V30 3027 C 282.601 1.7929 -0.796838 0
M  V30 3028 O 281.726 2.16385 0.0254886 0
M  V30 3029 C 282.321 1.19216 -3.17133 0
M  V30 3030 C 280.88 1.69316 -3.36168 0
M  V30 3031 C 280.027 0.601294 -2.70702 0
M  V30 3032 H 282.978 -0.127497 -1.58187 0
M  V30 3033 H 282.999 2.06154 -3.19814 0
M  V30 3034 H 282.511 0.362635 -3.86402 0
M  V30 3035 H 280.612 2.5468 -2.71972 0
M  V30 3036 H 280.725 1.78853 -4.44464 0
M  V30 3037 H 279.089 1.0399 -2.32504 0
M  V30 3038 H 279.872 -0.217592 -3.4261 0
M  V30 3039 N 282.317 1.53212 0.369288 0
M  V30 3040 C 283.264 1.79388 1.45219 0
M  V30 3041 C 284.234 0.638059 1.53356 0
M  V30 3042 O 285.419 0.879852 1.69302 0
M  V30 3043 C 282.559 1.98623 2.82211 0
M  V30 3044 C 281.672 3.26337 2.8307 0
M  V30 3045 C 280.807 3.35779 4.11614 0
M  V30 3046 C 279.846 4.5754 4.06601 0
M  V30 3047 N 278.983 4.64155 5.26787 0
M  V30 3048 H 283.823 2.71794 1.22198 0
M  V30 3049 H 281.36 1.34642 0.592444 0
M  V30 3050 H 283.318 2.07761 3.61789 0
M  V30 3051 H 281.948 1.09558 3.03639 0
M  V30 3052 H 281 3.26171 1.95747 0
M  V30 3053 H 282.312 4.15988 2.75237 0
M  V30 3054 H 281.466 3.44208 4.99606 0
M  V30 3055 H 280.205 2.44137 4.22195 0
M  V30 3056 H 279.21 4.49215 3.16996 0
M  V30 3057 H 280.435 5.50519 3.97625 0
M  V30 3058 H 278.381 3.75413 5.3796 0
M  V30 3059 H 278.298 5.47706 5.21109 0
M  V30 3060 H 279.566 4.76863 6.16621 0
M  V30 3061 N 283.795 -0.628877 1.44509 0
M  V30 3062 C 285.211 -0.947305 1.28446 0
M  V30 3063 C 285.411 -2.00275 0.221872 0
M  V30 3064 O 284.467 -2.49447 -0.391471 0
M  V30 3065 C 285.78 -1.40843 2.65676 0
M  V30 3066 C 287.328 -1.52379 2.73404 0
M  V30 3067 C 287.803 -2.01875 4.11109 0
M  V30 3068 N 289.294 -2.09142 4.13296 0
M  V30 3069 C 290.029 -2.48615 5.16699 0
M  V30 3070 N 289.525 -2.87209 6.30462 0
M  V30 3071 N 291.318 -2.48768 5.04054 0
M  V30 3072 H 283.469 0.0690977 2.12288 0
M  V30 3073 H 285.732 -0.0317164 0.947469 0
M  V30 3074 H 285.438 -0.707206 3.44516 0
M  V30 3075 H 285.312 -2.37902 2.92716 0
M  V30 3076 H 287.699 -2.21598 1.9488 0
M  V30 3077 H 287.78 -0.536898 2.50102 0
M  V30 3078 H 287.424 -1.3325 4.90109 0
M  V30 3079 H 287.354 -3.0144 4.31789 0
M  V30 3080 H 289.845 -1.81991 3.31191 0
M  V30 3081 H 290.158 -3.16149 7.05174 0
M  V30 3082 H 288.503 -2.84955 6.33897 0
M  V30 3083 H 291.694 -2.18009 4.14234 0
M  V30 3084 H 291.867 -2.79207 5.84763 0
M  V30 3085 N 285.273 -1.31445 -0.869486 0
M  V30 3086 C 286.206 -1.13465 -1.97992 0
M  V30 3087 C 287.184 -0.0380291 -1.62556 0
M  V30 3088 O 288.368 -0.194544 -1.87493 0
M  V30 3089 C 285.495 -0.733822 -3.30655 0
M  V30 3090 C 284.541 -1.83356 -3.85075 0
M  V30 3091 S 285.374 -3.43909 -4.10472 0
M  V30 3092 C 286.53 -3.05763 -5.46132 0
M  V30 3093 H 286.763 -2.07471 -2.1294 0
M  V30 3094 H 284.296 -1.15936 -1.01972 0
M  V30 3095 H 286.254 -0.509306 -4.07328 0
M  V30 3096 H 284.915 0.187123 -3.13542 0
M  V30 3097 H 284.108 -1.50574 -4.80982 0
M  V30 3098 H 283.71 -2.01315 -3.15195 0
M  V30 3099 H 286.002 -2.54686 -6.27807 0
M  V30 3100 H 286.945 -4.00635 -5.83864 0
M  V30 3101 H 287.353 -2.43192 -5.09429 0
M  V30 3102 N 286.751 1.08385 -1.14413 0
M  V30 3103 C 288 1.80153 -0.907076 0
M  V30 3104 C 288.313 1.87176 0.567851 0
M  V30 3105 O 289.519 2.55359 0.922172 0
M  V30 3106 C 287.975 3.23687 -1.57336 0
M  V30 3107 C 287.583 3.24897 -3.08457 0
M  V30 3108 C 289.327 4.00136 -1.41744 0
M  V30 3109 C 287.234 4.6302 -3.67921 0
M  V30 3110 H 286.164 0.675139 -0.335714 0
M  V30 3111 H 288.815 1.21733 -1.37307 0
M  V30 3112 H 287.197 3.82234 -1.03505 0
M  V30 3113 H 288.371 2.76055 -3.68958 0
M  V30 3114 H 286.686 2.61943 -3.2369 0
M  V30 3115 H 289.283 5.02201 -1.83572 0
M  V30 3116 H 289.626 4.14709 -0.363576 0
M  V30 3117 H 290.159 3.48058 -1.92614 0
M  V30 3118 H 286.898 4.5365 -4.73161 0
M  V30 3119 H 286.418 5.12143 -3.12201 0
M  V30 3120 H 288.097 5.31994 -3.68227 0
M  V30 3121 N 288.23 0.939286 1.26551 0
M  V30 3122 C 289.14 0.453432 2.30176 0
M  V30 3123 C 290.156 -0.471649 1.67486 0
M  V30 3124 O 291.332 -0.35164 1.98306 0
M  V30 3125 C 288.397 -0.275326 3.45605 0
M  V30 3126 C 287.458 0.686084 4.23782 0
M  V30 3127 C 286.691 -0.00798994 5.33699 0
M  V30 3128 O 286.914 -1.22528 5.57085 0
M  V30 3129 O 285.848 0.669746 5.98162 0
M  V30 3130 H 289.674 1.31416 2.73795 0
M  V30 3131 H 287.259 0.705095 1.31715 0
M  V30 3132 H 289.141 -0.685911 4.1578 0
M  V30 3133 H 287.816 -1.11147 3.0402 0
M  V30 3134 H 286.723 1.14658 3.56096 0
M  V30 3135 H 288.056 1.48979 4.69112 0
M  V30 3136 N 289.708 -1.40897 0.706093 0
M  V30 3137 C 290.671 -2.29131 0.0562841 0
M  V30 3138 C 291.671 -1.44901 -0.697166 0
M  V30 3139 O 292.861 -1.65926 -0.530484 0
M  V30 3140 C 289.993 -3.27957 -0.93043 0
M  V30 3141 H 291.186 -2.88091 0.833284 0
M  V30 3142 H 288.739 -1.4906 0.470192 0
M  V30 3143 H 289.474 -2.73997 -1.73482 0
M  V30 3144 H 289.259 -3.90124 -0.393166 0
M  V30 3145 H 290.749 -3.94049 -1.38256 0
M  V30 3146 N 291.186 -0.45159 -1.50991 0
M  V30 3147 C 292.426 0.109066 -2.04109 0
M  V30 3148 C 292.79 1.38716 -1.32747 0
M  V30 3149 O 293.991 2.02896 -1.76314 0
M  V30 3150 C 292.262 0.308354 -3.56067 0
M  V30 3151 S 293.821 0.830369 -4.30872 0
M  V30 3152 H 290.639 0.0251531 -0.710555 0
M  V30 3153 H 293.241 -0.614264 -1.85599 0
M  V30 3154 H 291.945 -0.627962 -4.05567 0
M  V30 3155 H 291.476 1.05836 -3.78896 0
M  V30 3156 H 293.491 2.10626 -4.49279 0
M  V30 3157 N 292.664 1.56529 -0.183458 0
M  V30 3158 C 293.941 1.88959 0.50536 0
M  V30 3159 C 294.321 1.09523 1.80466 0
M  V30 3160 O 293.669 0.19278 2.27685 0
M  V30 3161 C 293.879 3.41162 0.73547 0
M  V30 3162 C 295.227 4.11155 1.06005 0
M  V30 3163 O 296.251 3.46548 0.823594 0
M  V30 3164 O 295.11 5.25318 1.50675 0
M  V30 3165 H 292.204 0.78441 0.261973 0
M  V30 3166 H 294.75 1.68231 -0.222802 0
M  V30 3167 H 293.522 3.90874 -0.182561 0
M  V30 3168 H 293.145 3.67543 1.51651 0
M  V30 3169 N 294.142 -0.090211 1.57342 0
M  V30 3170 C 295.052 -1.12735 2.05738 0
M  V30 3171 C 296.068 -1.43557 0.983231 0
M  V30 3172 O 297.244 -1.54101 1.29672 0
M  V30 3173 C 294.309 -2.42659 2.47624 0
M  V30 3174 C 293.37 -2.18975 3.69254 0
M  V30 3175 C 292.603 -3.42704 4.09133 0
M  V30 3176 O 292.826 -4.51127 3.49057 0
M  V30 3177 O 291.76 -3.32003 5.02053 0
M  V30 3178 H 295.586 -0.746279 2.94388 0
M  V30 3179 H 293.171 -0.303064 1.46294 0
M  V30 3180 H 295.053 -3.19155 2.7517 0
M  V30 3181 H 293.728 -2.80182 1.62109 0
M  V30 3182 H 292.635 -1.40244 3.46818 0
M  V30 3183 H 293.968 -1.86342 4.55563 0
M  V30 3184 N 295.62 -1.53406 -0.361157 0
M  V30 3185 C 296.568 -1.80832 -1.46296 0
M  V30 3186 C 297.562 -0.677699 -1.55253 0
M  V30 3187 O 298.768 -0.860723 -1.58087 0
M  V30 3188 H 295.143 -0.572627 -0.487445 0
M  V30 3189 H 297.114 -2.73045 -1.20371 0
M  V30 3190 C 295.863 -2.01907 -2.8307 0
M  V30 3191 H 295.186 -2.88349 -2.76938 0
M  V30 3192 H 296.626 -2.25072 -3.59331 0
M  V30 3193 C 295.085 -0.799449 -3.27277 0
M  V30 3194 O 295.615 0.00971761 -4.01699 0
M  V30 3195 N 293.821 -0.621637 -2.83873 0
M  V30 3196 H 293.368 -1.28126 -2.23476 0
M  V30 3197 H 293.326 0.19298 -3.13807 0
M  V30 3198 N 297.098 0.621204 -1.44841 0
M  V30 3199 C 298.326 1.40752 -1.51646 0
M  V30 3200 C 298.741 1.88246 -0.144549 0
M  V30 3201 O 298.098 1.61422 0.851416 0
M  V30 3202 C 298.149 2.62119 -2.4895 0
M  V30 3203 O 297.87 2.16602 -3.80808 0
M  V30 3204 C 299.371 3.55135 -2.65319 0
M  V30 3205 H 296.591 0.431325 -0.514004 0
M  V30 3206 H 299.135 0.758835 -1.899 0
M  V30 3207 H 297.29 3.23058 -2.13805 0
M  V30 3208 H 297.704 2.95358 -4.33433 0
M  V30 3209 H 299.178 4.36874 -3.37409 0
M  V30 3210 H 299.655 4.04592 -1.70886 0
M  V30 3211 H 300.261 3.00058 -3.01405 0
M  V30 3212 N 298.576 1.31904 0.862503 0
M  V30 3213 C 299.825 1.21373 1.61094 0
M  V30 3214 C 300.138 -0.22504 1.94301 0
M  V30 3215 O 301.344 -0.452121 2.67709 0
M  V30 3216 C 299.8 2.12525 2.9045 0
M  V30 3217 C 299.408 3.61441 2.64697 0
M  V30 3218 C 301.152 2.10813 3.68454 0
M  V30 3219 C 299.059 4.44578 3.90006 0
M  V30 3220 H 297.989 0.450705 0.604468 0
M  V30 3221 H 300.64 1.56811 0.953027 0
M  V30 3222 H 299.022 1.69994 3.57656 0
M  V30 3223 H 300.196 4.12264 2.05851 0
M  V30 3224 H 298.511 3.65205 2.00036 0
M  V30 3225 H 301.108 2.70167 4.61426 0
M  V30 3226 H 301.451 1.09713 4.01583 0
M  V30 3227 H 301.984 2.51583 3.08141 0
M  V30 3228 H 298.723 5.46461 3.62023 0
M  V30 3229 H 298.243 3.98508 4.48276 0
M  V30 3230 H 299.922 4.57176 4.5782 0
M  V30 3231 N 300.054 -1.07777 1.14986 0
M  V30 3232 C 301.302 -1.79934 0.920235 0
M  V30 3233 C 301.623 -1.86955 -0.554336 0
M  V30 3234 O 300.893 -1.36731 -1.40291 0
M  V30 3235 H 299.473 -0.666424 0.337473 0
M  V30 3236 H 302.135 -1.3027 1.44968 0
M  V30 3237 H 301.231 -2.82539 1.32583 0
M  V30 3238 N 301.532 -0.945985 -1.26051 0
M  V30 3239 C 302.778 -0.597002 -1.93814 0
M  V30 3240 C 303.111 0.862484 -1.73997 0
M  V30 3241 O 302.386 1.61769 -1.07986 0
M  V30 3242 C 302.669 -0.945937 -3.47454 0
M  V30 3243 C 302.522 -2.46052 -3.76535 0
M  V30 3244 C 303.841 -0.464785 -4.37639 0
M  V30 3245 H 300.96 -0.218366 -0.703907 0
M  V30 3246 H 303.602 -1.18107 -1.48831 0
M  V30 3247 H 301.752 -0.448902 -3.85898 0
M  V30 3248 H 303.424 -3.03065 -3.47778 0
M  V30 3249 H 301.667 -2.90194 -3.22444 0
M  V30 3250 H 302.338 -2.65517 -4.83947 0
M  V30 3251 H 304.814 -0.891016 -4.06448 0
M  V30 3252 H 303.69 -0.737712 -5.4392 0
M  V30 3253 H 303.951 0.635274 -4.37512 0
M  V30 3254 N 303.011 1.40521 -0.713556 0
M  V30 3255 C 304.257 2.01221 -0.252564 0
M  V30 3256 C 304.59 1.56444 1.1506 0
M  V30 3257 O 303.865 0.783597 1.78017 0
M  V30 3258 C 304.148 3.58582 -0.330332 0
M  V30 3259 C 304.001 4.13437 -1.77173 0
M  V30 3260 C 305.32 4.39079 0.299641 0
M  V30 3261 H 302.439 0.731077 -0.0932471 0
M  V30 3262 H 305.081 1.67026 -0.905673 0
M  V30 3263 H 303.231 3.87844 0.225737 0
M  V30 3264 H 304.903 3.9498 -2.38303 0
M  V30 3265 H 303.146 3.67801 -2.3001 0
M  V30 3266 H 303.817 5.22597 -1.77755 0
M  V30 3267 H 306.293 4.15735 -0.174139 0
M  V30 3268 H 305.169 5.4848 0.214771 0
M  V30 3269 H 305.43 4.19915 1.38288 0
M  V30 3270 N 304.489 0.459591 1.5075 0
M  V30 3271 C 305.9 0.00171547 1.867 0
M  V30 3272 C 306.251 -1.39934 1.37525 0
M  V30 3273 O 305.376 -2.03523 0.735349 0
M  V30 3274 C 305.971 -0.00366298 3.388 0
M  V30 3275 C 304.53 -0.406026 3.74204 0
M  V30 3276 C 303.677 0.38673 2.7459 0
M  V30 3277 H 306.628 0.674413 1.43657 0
M  V30 3278 H 306.649 -0.808371 3.71814 0
M  V30 3279 H 306.161 1.01617 3.74561 0
M  V30 3280 H 304.262 -1.43063 3.4404 0
M  V30 3281 H 304.375 -0.115362 4.78961 0
M  V30 3282 H 302.739 -0.158019 2.54209 0
M  V30 3283 H 303.522 1.40585 3.13194 0
M  V30 3284 N 305.967 -1.56429 0.191757 0
M  V30 3285 C 307.195 -2.01867 -0.453586 0
M  V30 3286 C 307.61 -1.07191 -1.5542 0
M  V30 3287 O 306.967 -0.0762108 -1.82341 0
M  V30 3288 C 307.018 -3.47017 -1.013 0
M  V30 3289 O 306.739 -4.38078 0.0437005 0
M  V30 3290 C 308.24 -4.07956 -1.73456 0
M  V30 3291 H 305.46 -0.661211 -0.114199 0
M  V30 3292 H 308.004 -2.02295 0.299483 0
M  V30 3293 H 306.159 -3.47298 -1.71647 0
M  V30 3294 H 306.573 -5.23178 -0.372212 0
M  V30 3295 H 308.047 -5.1138 -2.07833 0
M  V30 3296 H 308.524 -3.51222 -2.63704 0
M  V30 3297 H 309.13 -4.11437 -1.07702 0
M  V30 3298 N 307.445 0.0818655 -1.57387 0
M  V30 3299 C 308.692 0.782914 -1.86753 0
M  V30 3300 C 309.02 1.78082 -0.782118 0
M  V30 3301 O 308.275 1.94426 0.22295 0
M  V30 3302 C 308.574 1.53513 -3.22752 0
M  V30 3303 C 308.24 0.678134 -4.45771 0
M  V30 3304 C 306.902 0.441929 -4.79166 0
M  V30 3305 C 309.254 0.0832243 -5.21134 0
M  V30 3306 C 306.582 -0.398833 -5.85343 0
M  V30 3307 C 308.934 -0.744935 -6.28199 0
M  V30 3308 C 307.598 -0.991107 -6.60101 0
M  V30 3309 H 306.868 0.286489 -0.683378 0
M  V30 3310 H 309.515 0.0439808 -1.91449 0
M  V30 3311 H 307.82 2.34599 -3.138 0
M  V30 3312 H 309.517 2.08218 -3.42705 0
M  V30 3313 H 306.107 0.872357 -4.19628 0
M  V30 3314 H 310.291 0.252847 -4.95655 0
M  V30 3315 H 305.547 -0.598405 -6.08465 0
M  V30 3316 H 309.721 -1.21271 -6.8576 0
M  V30 3317 H 307.348 -1.64437 -7.42202 0
M  V30 3318 N 308.923 1.53595 0.353017 0
M  V30 3319 C 310.171 1.70049 1.09215 0
M  V30 3320 C 310.492 0.461406 1.89463 0
M  V30 3321 O 309.762 -0.524633 1.88744 0
M  V30 3322 H 308.342 0.626912 0.40619 0
M  V30 3323 H 311.004 1.90822 0.396585 0
M  V30 3324 H 310.1 2.56718 1.77488 0
M  V30 3325 N 310.401 -0.613514 1.45168 0
M  V30 3326 C 311.647 -1.37471 1.49096 0
M  V30 3327 C 311.98 -1.93765 0.129901 0
M  V30 3328 O 311.255 -1.74707 -0.854858 0
M  V30 3329 C 311.538 -2.52701 2.56542 0
M  V30 3330 C 311.391 -2.01643 4.0207 0
M  V30 3331 C 312.71 -3.54849 2.60327 0
M  V30 3332 H 309.829 -0.498502 0.54283 0
M  V30 3333 H 312.471 -0.692125 1.76945 0
M  V30 3334 H 310.621 -3.10931 2.32926 0
M  V30 3335 H 312.293 -1.48108 4.36877 0
M  V30 3336 H 310.536 -1.32688 4.13009 0
M  V30 3337 H 311.207 -2.84681 4.72928 0
M  V30 3338 H 313.683 -3.0645 2.81474 0
M  V30 3339 H 312.559 -4.32973 3.37381 0
M  V30 3340 H 312.82 -4.10079 1.6519 0
M  V30 3341 N 311.879 -1.3236 -0.855495 0
M  V30 3342 C 313.107 -1.2587 -1.64208 0
M  V30 3343 C 313.522 0.173457 -1.88002 0
M  V30 3344 O 312.879 1.11027 -1.44842 0
M  V30 3345 C 312.93 -2.01424 -3.00184 0
M  V30 3346 O 312.651 -3.39051 -2.77445 0
M  V30 3347 C 314.152 -2.01948 -3.94629 0
M  V30 3348 H 311.372 -0.434318 -0.511477 0
M  V30 3349 H 313.916 -1.74469 -1.0668 0
M  V30 3350 H 312.071 -1.56549 -3.5436 0
M  V30 3351 H 312.485 -3.77711 -3.63916 0
M  V30 3352 H 313.959 -2.59297 -4.87308 0
M  V30 3353 H 314.436 -1.00554 -4.27534 0
M  V30 3354 H 315.042 -2.46767 -3.4639 0
M  V30 3355 N 313.357 1.07166 -1.15556 0
M  V30 3356 C 314.587 1.83248 -0.954133 0
M  V30 3357 C 314.995 1.82449 0.500911 0
M  V30 3358 O 314.338 1.23575 1.35923 0
M  V30 3359 C 314.4 3.31393 -1.39351 0
M  V30 3360 C 314.064 3.5591 -2.86666 0
M  V30 3361 C 315.061 3.49695 -3.8472 0
M  V30 3362 C 312.746 3.83515 -3.24379 0
M  V30 3363 C 314.74 3.70737 -5.18491 0
M  V30 3364 C 312.427 4.04209 -4.58321 0
M  V30 3365 C 313.425 3.97815 -5.55186 0
M  V30 3366 O 313.113 4.17954 -6.86709 0
M  V30 3367 H 312.845 0.584941 -0.338851 0
M  V30 3368 H 315.399 1.36169 -1.53777 0
M  V30 3369 H 313.629 3.79292 -0.75329 0
M  V30 3370 H 315.318 3.88945 -1.16089 0
M  V30 3371 H 316.084 3.28368 -3.56931 0
M  V30 3372 H 311.963 3.87605 -2.49567 0
M  V30 3373 H 315.507 3.65663 -5.94085 0
M  V30 3374 H 311.404 4.25023 -4.85825 0
M  V30 3375 H 312.172 4.35291 -6.93155 0
M  V30 3376 N 314.835 0.952656 1.25548 0
M  V30 3377 C 316.063 0.623496 1.97282 0
M  V30 3378 C 316.478 -0.803987 1.70826 0
M  V30 3379 O 315.835 -1.53755 0.983147 0
M  V30 3380 C 315.886 0.870209 3.5087 0
M  V30 3381 O 315.607 2.24156 3.76412 0
M  V30 3382 C 317.108 0.553164 4.39835 0
M  V30 3383 H 314.328 0.233931 0.628902 0
M  V30 3384 H 316.872 1.27649 1.59768 0
M  V30 3385 H 315.027 0.263652 3.86502 0
M  V30 3386 H 315.441 2.31021 4.70882 0
M  V30 3387 H 316.915 0.776342 5.46513 0
M  V30 3388 H 317.392 -0.512215 4.36203 0
M  V30 3389 H 317.998 1.13896 4.09766 0
M  V30 3390 N 316.313 -1.40141 0.720998 0
M  V30 3391 C 317.561 -2.0039 0.262323 0
M  V30 3392 C 317.882 -1.57469 -1.15015 0
M  V30 3393 O 317.152 -0.816582 -1.78069 0
M  V30 3394 H 315.732 -0.741063 0.093996 0
M  V30 3395 H 318.394 -1.71398 0.927835 0
M  V30 3396 H 317.49 -3.10658 0.299671 0
M  V30 3397 N 317.792 -0.46758 -1.50504 0
M  V30 3398 C 318.74 0.342482 -2.30065 0
M  V30 3399 C 319.734 0.993596 -1.37201 0
M  V30 3400 O 320.94 0.925102 -1.54408 0
M  V30 3401 H 317.315 0.129283 -0.740803 0
M  V30 3402 H 319.286 -0.34899 -2.96352 0
M  V30 3403 C 318.035 1.4139 -3.17654 0
M  V30 3404 H 317.358 0.922264 -3.89017 0
M  V30 3405 H 318.798 1.95335 -3.76325 0
M  V30 3406 C 317.257 2.4139 -2.35016 0
M  V30 3407 O 317.787 3.46586 -2.03079 0
M  V30 3408 N 315.993 2.13021 -1.97662 0
M  V30 3409 H 315.54 1.27499 -2.23834 0
M  V30 3410 H 315.498 2.80164 -1.42673 0
M  V30 3411 N 319.27 1.56325 -0.20005 0
M  V30 3412 C 320.5 2.01811 0.442232 0
M  V30 3413 C 320.908 1.07932 1.55394 0
M  V30 3414 O 320.251 0.0772685 1.83537 0
M  V30 3415 C 320.313 3.43685 1.05457 0
M  V30 3416 C 319.977 4.56928 0.0809833 0
M  V30 3417 C 320.974 5.15009 -0.711471 0
M  V30 3418 C 318.659 5.0229 -0.0315364 0
M  V30 3419 C 320.653 6.16904 -1.60336 0
M  V30 3420 C 318.34 6.04028 -0.926981 0
M  V30 3421 C 319.338 6.6121 -1.71146 0
M  V30 3422 O 319.026 7.60971 -2.59189 0
M  V30 3423 H 318.758 0.666173 0.114848 0
M  V30 3424 H 321.312 2.03085 -0.307511 0
M  V30 3425 H 319.542 3.39413 1.85299 0
M  V30 3426 H 321.231 3.72948 1.60201 0
M  V30 3427 H 321.997 4.80827 -0.634873 0
M  V30 3428 H 317.876 4.57476 0.568902 0
M  V30 3429 H 321.42 6.61464 -2.21611 0
M  V30 3430 H 317.317 6.37634 -1.00468 0
M  V30 3431 H 318.085 7.7841 -2.53023 0
M  V30 3432 N 320.748 -0.0735177 1.57428 0
M  V30 3433 C 321.658 -1.10547 2.06922 0
M  V30 3434 C 322.674 -1.42506 0.998402 0
M  V30 3435 O 323.85 -1.52717 1.31299 0
M  V30 3436 C 320.915 -2.40019 2.50184 0
M  V30 3437 C 319.976 -2.15046 3.71556 0
M  V30 3438 C 319.209 -3.38345 4.12745 0
M  V30 3439 O 319.432 -4.47399 3.53822 0
M  V30 3440 O 318.366 -3.2666 5.05546 0
M  V30 3441 H 322.192 -0.715013 2.95163 0
M  V30 3442 H 319.777 -0.287531 1.46607 0
M  V30 3443 H 321.659 -3.16218 2.78539 0
M  V30 3444 H 320.334 -2.78447 1.65072 0
M  V30 3445 H 319.241 -1.36558 3.48285 0
M  V30 3446 H 320.574 -1.81499 4.57514 0
M  V30 3447 N 322.226 -1.5378 -0.344866 0
M  V30 3448 C 323.473 -1.70963 -1.08526 0
M  V30 3449 C 323.801 -0.472126 -1.88683 0
M  V30 3450 O 323.056 0.546116 -1.87926 0
M  V30 3451 C 323.355 -2.92407 -2.05506 0
M  V30 3452 C 323.021 -4.28066 -1.41671 0
M  V30 3453 C 321.683 -4.64951 -1.2399 0
M  V30 3454 C 324.035 -5.12344 -0.956726 0
M  V30 3455 C 321.363 -5.83733 -0.589277 0
M  V30 3456 C 323.715 -6.3179 -0.320015 0
M  V30 3457 C 322.379 -6.67372 -0.130881 0
M  V30 3458 H 321.649 -0.625598 -0.397124 0
M  V30 3459 H 324.296 -1.87995 -0.36469 0
M  V30 3460 H 322.601 -2.69973 -2.8394 0
M  V30 3461 H 324.298 -3.02895 -2.62784 0
M  V30 3462 H 320.888 -3.99034 -1.56429 0
M  V30 3463 H 325.072 -4.8438 -1.08118 0
M  V30 3464 H 320.328 -6.09877 -0.431344 0
M  V30 3465 H 324.502 -6.96386 0.0445072 0
M  V30 3466 H 322.129 -7.59273 0.375318 0
M  V30 3467 N 323.704 0.605807 -1.45491 0
M  V30 3468 C 325.115 1.18777 -1.44045 0
M  V30 3469 C 325.466 1.95471 -0.169001 0
M  V30 3470 O 324.591 2.0374 0.729324 0
M  V30 3471 C 325.186 2.16064 -2.60963 0
M  V30 3472 C 323.745 2.69633 -2.62631 0
M  V30 3473 C 322.892 1.45072 -2.36325 0
M  V30 3474 H 325.843 0.395017 -1.53705 0
M  V30 3475 H 325.864 2.9913 -2.35163 0
M  V30 3476 H 325.376 1.60217 -3.53486 0
M  V30 3477 H 323.477 3.29414 -1.74119 0
M  V30 3478 H 323.59 3.13944 -3.61906 0
M  V30 3479 H 321.954 1.74089 -1.85917 0
M  V30 3480 H 322.737 0.910899 -3.30995 0
M  V30 3481 N 325.182 1.32811 0.848464 0
M  V30 3482 C 326.114 1.18095 1.96433 0
M  V30 3483 C 327.127 0.114354 1.62398 0
M  V30 3484 O 328.316 0.363892 1.74751 0
M  V30 3485 C 325.416 0.786798 3.2964 0
M  V30 3486 C 324.589 1.943 3.91875 0
M  V30 3487 C 323.648 1.53138 5.03423 0
M  V30 3488 O 322.674 2.24432 5.23086 0
M  V30 3489 N 323.876 0.430915 5.78898 0
M  V30 3490 H 326.641 2.14218 2.09597 0
M  V30 3491 H 324.202 1.2543 1.02367 0
M  V30 3492 H 326.194 0.493715 4.01677 0
M  V30 3493 H 324.764 -0.0834541 3.12489 0
M  V30 3494 H 323.984 2.40224 3.12547 0
M  V30 3495 H 325.272 2.71689 4.30189 0
M  V30 3496 H 324.67 -0.162333 5.65467 0
M  V30 3497 H 323.227 0.197466 6.51501 0
M  V30 3498 N 326.66 -1.06551 1.16123 0
M  V30 3499 C 328.071 -1.60768 0.949232 0
M  V30 3500 C 328.422 -1.89523 -0.507508 0
M  V30 3501 O 327.547 -1.66671 -1.38021 0
M  V30 3502 C 328.142 -2.92086 1.71671 0
M  V30 3503 C 326.701 -3.43015 1.54977 0
M  V30 3504 C 325.848 -2.16947 1.72711 0
M  V30 3505 H 328.799 -0.895354 1.31031 0
M  V30 3506 H 328.82 -3.6138 1.19099 0
M  V30 3507 H 328.332 -2.71127 2.7769 0
M  V30 3508 H 326.433 -3.69039 0.513873 0
M  V30 3509 H 326.546 -4.18516 2.33198 0
M  V30 3510 H 324.91 -2.27041 1.15431 0
M  V30 3511 H 325.693 -1.98473 2.80113 0
M  V30 3512 N 328.138 -0.959301 -1.25041 0
M  V30 3513 C 329.068 -0.501388 -2.28053 0
M  V30 3514 C 330.049 0.454673 -1.63911 0
M  V30 3515 O 331.234 0.352618 -1.90972 0
M  V30 3516 C 328.364 0.217224 -3.4662 0
M  V30 3517 C 327.318 -0.654034 -4.22973 0
M  V30 3518 C 326.644 0.195589 -5.34342 0
M  V30 3519 C 327.944 -1.93447 -4.85155 0
M  V30 3520 H 329.638 -1.36238 -2.66608 0
M  V30 3521 H 327.184 -0.656534 -1.28163 0
M  V30 3522 H 329.137 0.548732 -4.17812 0
M  V30 3523 H 327.861 1.1125 -3.07068 0
M  V30 3524 H 326.52 -0.968693 -3.5357 0
M  V30 3525 H 326.168 1.09076 -4.91031 0
M  V30 3526 H 325.868 -0.384091 -5.86343 0
M  V30 3527 H 327.392 0.521958 -6.08365 0
M  V30 3528 H 328.806 -1.66908 -5.48466 0
M  V30 3529 H 327.203 -2.46018 -5.47353 0
M  V30 3530 H 328.273 -2.63466 -4.07079 0
M  V30 3531 N 329.616 1.39756 -0.72842 0
M  V30 3532 C 330.566 2.2792 -0.0603424 0
M  V30 3533 C 331.55 1.43922 0.719399 0
M  V30 3534 O 332.742 1.66895 0.589489 0
M  V30 3535 C 329.871 3.32582 0.851104 0
M  V30 3536 C 328.957 4.24049 0.0658641 0
M  V30 3537 N 329.348 4.96653 -0.957578 0
M  V30 3538 C 327.646 4.45013 0.296509 0
M  V30 3539 C 328.347 5.63836 -1.43052 0
M  V30 3540 N 327.323 5.38397 -0.750315 0
M  V30 3541 H 331.125 2.81504 -0.84455 0
M  V30 3542 H 328.639 1.5236 -0.562155 0
M  V30 3543 H 330.636 3.94603 1.34514 0
M  V30 3544 H 329.296 2.80558 1.63454 0
M  V30 3545 H 330.307 5.00297 -1.33877 0
M  V30 3546 H 326.984 4.03943 1.05527 0
M  V30 3547 H 328.374 6.31974 -2.28163 0
M  V30 3548 N 331.094 0.475555 1.50254 0
M  V30 3549 C 332.371 -0.139685 1.95101 0
M  V30 3550 C 332.751 -1.56555 1.41611 0
M  V30 3551 O 332.099 -2.19956 0.618993 0
M  V30 3552 C 332.309 -0.0784298 3.48912 0
M  V30 3553 C 333.657 -0.265095 4.23772 0
M  V30 3554 O 334.681 -0.154808 3.55863 0
M  V30 3555 O 333.54 -0.488327 5.44314 0
M  V30 3556 H 330.634 -0.109236 0.819754 0
M  V30 3557 H 333.18 0.536276 1.61004 0
M  V30 3558 H 331.952 0.916918 3.80405 0
M  V30 3559 H 331.575 -0.795655 3.89558 0
M  V30 3560 N 332.573 -1.56217 0.208337 0
M  V30 3561 C 333.536 -2.18455 -0.693557 0
M  V30 3562 C 334.536 -1.14268 -1.13135 0
M  V30 3563 O 335.726 -1.39577 -1.0423 0
M  V30 3564 C 332.858 -2.79727 -1.94848 0
M  V30 3565 H 334.051 -2.99519 -0.15114 0
M  V30 3566 H 331.604 -1.56245 -0.041287 0
M  V30 3567 H 332.339 -2.02497 -2.53309 0
M  V30 3568 H 332.124 -3.56009 -1.64316 0
M  V30 3569 H 333.614 -3.27475 -2.59133 0
M  V30 3570 N 334.051 0.0651679 -1.57465 0
M  V30 3571 C 334.981 1.07693 -2.07182 0
M  V30 3572 C 335.962 1.39962 -0.966673 0
M  V30 3573 O 337.147 1.49475 -1.2398 0
M  V30 3574 C 334.277 2.3885 -2.52127 0
M  V30 3575 C 333.231 2.20917 -3.66579 0
M  V30 3576 C 332.557 3.57515 -3.97601 0
M  V30 3577 C 333.857 1.62493 -4.9638 0
M  V30 3578 H 335.551 0.663199 -2.91962 0
M  V30 3579 H 333.097 0.317569 -1.40455 0
M  V30 3580 H 335.05 3.09928 -2.85522 0
M  V30 3581 H 333.774 2.82215 -1.64384 0
M  V30 3582 H 332.433 1.52279 -3.33477 0
M  V30 3583 H 332.081 3.98463 -3.06979 0
M  V30 3584 H 331.781 3.46353 -4.74672 0
M  V30 3585 H 333.305 4.30013 -4.33499 0
M  V30 3586 H 334.719 2.23445 -5.27963 0
M  V30 3587 H 333.116 1.62009 -5.77818 0
M  V30 3588 H 334.186 0.587041 -4.81333 0
M  V30 3589 N 335.529 1.53961 0.336706 0
M  V30 3590 C 336.806 1.62171 1.09361 0
M  V30 3591 C 337.186 0.447263 2.06307 0
M  V30 3592 O 336.534 -0.559802 2.21537 0
M  V30 3593 C 336.744 2.98565 1.80721 0
M  V30 3594 C 338.092 3.54157 2.34218 0
M  V30 3595 O 339.116 3.00784 1.90807 0
M  V30 3596 O 337.975 4.47528 3.13657 0
M  V30 3597 H 335.069 0.6562 0.503319 0
M  V30 3598 H 337.615 1.66307 0.33765 0
M  V30 3599 H 336.387 3.75482 1.10132 0
M  V30 3600 H 336.01 2.9805 2.63158 0
M  V30 3601 N 337.007 -0.598083 1.45811 0
M  V30 3602 C 337.954 -1.7082 1.55207 0
M  V30 3603 C 338.924 -1.61278 0.39732 0
M  V30 3604 O 340.109 -1.80717 0.612038 0
M  V30 3605 C 337.249 -3.09144 1.53376 0
M  V30 3606 C 336.362 -3.29423 2.79472 0
M  V30 3607 C 335.497 -4.57907 2.69248 0
M  V30 3608 C 334.536 -4.71476 3.90354 0
M  V30 3609 N 333.673 -5.9127 3.78608 0
M  V30 3610 H 338.513 -1.62125 2.50039 0
M  V30 3611 H 336.05 -0.790389 1.24062 0
M  V30 3612 H 338.008 -3.89186 1.50301 0
M  V30 3613 H 336.638 -3.16773 0.620876 0
M  V30 3614 H 335.69 -2.43091 2.92594 0
M  V30 3615 H 337.002 -3.3532 3.69272 0
M  V30 3616 H 336.156 -5.46157 2.64192 0
M  V30 3617 H 334.895 -4.54423 1.77063 0
M  V30 3618 H 333.9 -3.81648 3.95759 0
M  V30 3619 H 335.125 -4.76751 4.83617 0
M  V30 3620 H 333.071 -5.88813 2.89199 0
M  V30 3621 H 332.988 -5.98369 4.6205 0
M  V30 3622 H 334.256 -6.81992 3.77501 0
M  V30 3623 N 338.485 -1.33259 -0.841409 0
M  V30 3624 C 339.732 -1.24572 -1.5965 0
M  V30 3625 C 340.06 0.189137 -1.93578 0
M  V30 3626 O 339.315 1.14566 -1.5866 0
M  V30 3627 C 339.614 -2.06381 -2.9179 0
M  V30 3628 C 339.28 -3.556 -2.77235 0
M  V30 3629 C 337.942 -3.96282 -2.72973 0
M  V30 3630 C 340.294 -4.50433 -2.62221 0
M  V30 3631 C 337.622 -5.30017 -2.51592 0
M  V30 3632 C 339.974 -5.84327 -2.42374 0
M  V30 3633 C 338.638 -6.24194 -2.36512 0
M  V30 3634 H 337.908 -0.455842 -0.5842 0
M  V30 3635 H 340.555 -1.6482 -0.975016 0
M  V30 3636 H 338.86 -1.58903 -3.5813 0
M  V30 3637 H 340.557 -1.97019 -3.49263 0
M  V30 3638 H 337.147 -3.23298 -2.81384 0
M  V30 3639 H 341.331 -4.19914 -2.64549 0
M  V30 3640 H 336.587 -5.59947 -2.45499 0
M  V30 3641 H 340.761 -6.57414 -2.29739 0
M  V30 3642 H 338.388 -7.27759 -2.19706 0
M  V30 3643 N 339.963 1.05934 -1.16686 0
M  V30 3644 C 340.895 2.13468 -0.834503 0
M  V30 3645 C 341.908 1.62013 0.15984 0
M  V30 3646 O 343.097 1.7838 -0.0654228 0
M  V30 3647 C 340.197 3.3817 -0.222361 0
M  V30 3648 C 339.37 4.18928 -1.25771 0
M  V30 3649 C 338.429 5.21985 -0.664703 0
M  V30 3650 O 337.455 5.53334 -1.33453 0
M  V30 3651 N 338.657 5.77919 0.546834 0
M  V30 3652 H 341.422 2.42578 -1.75999 0
M  V30 3653 H 338.983 1.21967 -1.06469 0
M  V30 3654 H 340.975 4.04266 0.187472 0
M  V30 3655 H 339.545 3.06655 0.606758 0
M  V30 3656 H 338.765 3.48433 -1.84358 0
M  V30 3657 H 340.053 4.69687 -1.95631 0
M  V30 3658 H 339.451 5.54721 1.10912 0
M  V30 3659 H 338.008 6.45573 0.898829 0
M  V30 3660 N 341.441 0.965919 1.2453 0
M  V30 3661 C 342.404 0.499547 2.2369 0
M  V30 3662 C 343.404 -0.40294 1.5567 0
M  V30 3663 O 344.594 -0.19865 1.73064 0
M  V30 3664 C 341.726 -0.276792 3.39774 0
M  V30 3665 H 342.919 1.37613 2.66463 0
M  V30 3666 H 340.472 0.750324 1.37112 0
M  V30 3667 H 341.207 -1.17055 3.02438 0
M  V30 3668 H 340.992 0.370826 3.90343 0
M  V30 3669 H 342.482 -0.592175 4.1338 0
M  V30 3670 N 342.919 -1.39368 0.735821 0
M  V30 3671 C 344.196 -1.94465 0.210395 0
M  V30 3672 C 344.576 -1.67254 -1.28799 0
M  V30 3673 O 343.924 -1.00123 -2.05396 0
M  V30 3674 C 344.134 -3.4472 0.544897 0
M  V30 3675 C 345.482 -4.21708 0.494689 0
M  V30 3676 O 346.506 -3.52922 0.482136 0
M  V30 3677 O 345.365 -5.44299 0.489947 0
M  V30 3678 H 342.459 -0.826096 0.0386666 0
M  V30 3679 H 345.005 -1.48863 0.814735 0
M  V30 3680 H 343.777 -3.57963 1.58045 0
M  V30 3681 H 343.4 -3.97502 -0.08837 0
M  V30 3682 N 344.397 -0.483516 -1.5 0
M  V30 3683 C 345.625 0.0644831 -2.06799 0
M  V30 3684 C 346.04 1.32399 -1.34596 0
M  V30 3685 O 345.397 1.77626 -0.418946 0
M  V30 3686 C 345.448 0.339927 -3.59898 0
M  V30 3687 O 345.169 -0.869635 -4.29382 0
M  V30 3688 C 346.67 0.933515 -4.33359 0
M  V30 3689 H 343.89 -0.0126333 -0.670881 0
M  V30 3690 H 346.434 -0.675864 -1.93009 0
M  V30 3691 H 344.589 1.03022 -3.7345 0
M  V30 3692 H 345.003 -0.62179 -5.20801 0
M  V30 3693 H 346.477 1.07593 -5.41413 0
M  V30 3694 H 346.954 1.92685 -3.94676 0
M  V30 3695 H 347.56 0.281221 -4.24369 0
M  V30 3696 N 345.875 1.56104 -0.216619 0
M  V30 3697 C 347.123 1.97781 0.415593 0
M  V30 3698 C 347.444 1.10536 1.60645 0
M  V30 3699 O 346.714 0.181303 1.95059 0
M  V30 3700 H 345.294 0.730415 0.156534 0
M  V30 3701 H 347.956 1.92445 -0.308366 0
M  V30 3702 H 347.052 3.03072 0.74525 0
M  V30 3703 N 347.353 -0.0568162 1.57498 0
M  V30 3704 C 348.602 -0.752001 1.87157 0
M  V30 3705 C 348.915 -1.77978 0.811375 0
M  V30 3706 O 350.121 -2.52559 0.996293 0
M  V30 3707 C 348.577 -1.38844 3.3204 0
M  V30 3708 C 348.185 -0.398456 4.46225 0
M  V30 3709 C 349.929 -2.06512 3.70882 0
M  V30 3710 C 347.836 -1.04166 5.82154 0
M  V30 3711 H 346.766 -0.28461 0.698222 0
M  V30 3712 H 349.417 -0.00561272 1.83499 0
M  V30 3713 H 347.799 -2.1836 3.30356 0
M  V30 3714 H 348.973 0.367977 4.59328 0
M  V30 3715 H 347.288 0.174592 4.16034 0
M  V30 3716 H 349.885 -2.55437 4.6974 0
M  V30 3717 H 350.228 -2.87117 3.01445 0
M  V30 3718 H 350.761 -1.33808 3.7462 0
M  V30 3719 H 347.5 -0.275614 6.5492 0
M  V30 3720 H 347.02 -1.7786 5.72823 0
M  V30 3721 H 348.699 -1.55715 6.27982 0
M  V30 3722 N 348.832 -1.54138 -0.328536 0
M  V30 3723 C 350.109 -1.62749 -1.08499 0
M  V30 3724 C 350.489 -0.458198 -2.06067 0
M  V30 3725 O 349.837 0.548046 -2.2183 0
M  V30 3726 C 350.047 -2.99519 -1.79135 0
M  V30 3727 C 351.395 -3.55394 -2.32337 0
M  V30 3728 O 352.419 -3.01792 -1.89209 0
M  V30 3729 O 351.278 -4.49186 -3.11279 0
M  V30 3730 H 348.372 -0.65886 -0.499832 0
M  V30 3731 H 350.918 -1.66484 -0.328826 0
M  V30 3732 H 349.69 -3.76061 -1.08139 0
M  V30 3733 H 349.313 -2.99441 -2.61574 0
M  V30 3734 N 350.31 0.590341 -1.46126 0
M  V30 3735 C 351.559 1.34499 -1.50309 0
M  V30 3736 C 351.872 1.94977 -0.156021 0
M  V30 3737 O 353.078 2.71395 -0.0756037 0
M  V30 3738 C 351.534 2.43723 -2.64815 0
M  V30 3739 C 351.142 1.89582 -4.0591 0
M  V30 3740 C 352.886 3.20579 -2.78262 0
M  V30 3741 C 350.793 2.9639 -5.11769 0
M  V30 3742 H 349.723 0.505593 -0.559368 0
M  V30 3743 H 352.374 0.630848 -1.72315 0
M  V30 3744 H 350.756 3.17902 -2.36124 0
M  V30 3745 H 351.93 1.21997 -4.44357 0
M  V30 3746 H 350.245 1.25418 -3.97063 0
M  V30 3747 H 352.842 4.00276 -3.54519 0
M  V30 3748 H 353.185 3.72684 -1.85505 0
M  V30 3749 H 353.718 2.53505 -3.06562 0
M  V30 3750 H 350.457 2.49181 -6.06291 0
M  V30 3751 H 349.977 3.62487 -4.77873 0
M  V30 3752 H 351.656 3.60474 -5.37278 0
M  V30 3753 N 351.788 1.33704 0.83433 0
M  V30 3754 C 353.065 1.16011 1.57483 0
M  V30 3755 C 353.445 -0.27176 2.09343 0
M  V30 3756 O 352.793 -1.27146 1.89858 0
M  V30 3757 C 353.003 2.20507 2.70514 0
M  V30 3758 C 354.351 2.54898 3.39577 0
M  V30 3759 O 355.375 2.19209 2.80759 0
M  V30 3760 O 354.234 3.16158 4.45765 0
M  V30 3761 H 351.328 0.448992 0.694503 0
M  V30 3762 H 353.874 1.453 0.876691 0
M  V30 3763 H 352.646 3.16667 2.29865 0
M  V30 3764 H 352.269 1.92329 3.47987 0
M  V30 3765 N 353.266 -1.05314 1.17247 0
M  V30 3766 C 354.199 -2.12512 0.831507 0
M  V30 3767 C 355.177 -1.61351 -0.201168 0
M  V30 3768 O 356.361 -1.88317 -0.0829831 0
M  V30 3769 C 353.488 -3.37848 0.24015 0
M  V30 3770 C 352.534 -4.07832 1.24801 0
M  V30 3771 S 353.367 -4.56537 2.79882 0
M  V30 3772 C 354.523 -5.85122 2.22223 0
M  V30 3773 H 354.756 -2.41106 1.7394 0
M  V30 3774 H 352.289 -1.17896 0.996988 0
M  V30 3775 H 354.247 -4.10391 -0.0945588 0
M  V30 3776 H 352.908 -3.07392 -0.645668 0
M  V30 3777 H 352.101 -4.97883 0.78287 0
M  V30 3778 H 351.703 -3.41348 1.52831 0
M  V30 3779 H 353.995 -6.58408 1.59703 0
M  V30 3780 H 354.938 -6.36381 3.10523 0
M  V30 3781 H 355.346 -5.39626 1.65722 0
M  V30 3782 N 354.744 -0.972509 -1.24016 0
M  V30 3783 C 355.694 -0.477561 -2.22942 0
M  V30 3784 C 356.678 0.44308 -1.54679 0
M  V30 3785 O 357.87 0.273219 -1.74879 0
M  V30 3786 C 354.999 0.226348 -3.42553 0
M  V30 3787 C 354.085 -0.713403 -4.18057 0
M  V30 3788 N 354.476 -1.8527 -4.70647 0
M  V30 3789 C 352.774 -0.525145 -4.42898 0
M  V30 3790 C 353.475 -2.44089 -5.28011 0
M  V30 3791 N 352.451 -1.72556 -5.15486 0
M  V30 3792 H 356.253 -1.34678 -2.61226 0
M  V30 3793 H 353.767 -0.832196 -1.39457 0
M  V30 3794 H 355.764 0.598184 -4.12586 0
M  V30 3795 H 354.424 1.09195 -3.05788 0
M  V30 3796 H 355.435 -2.2341 -4.67235 0
M  V30 3797 H 352.112 0.296096 -4.16449 0
M  V30 3798 H 353.502 -3.40259 -5.79374 0
M  V30 3799 N 356.222 1.38976 -0.743202 0
M  V30 3800 C 357.471 1.99581 -0.291592 0
M  V30 3801 C 357.784 1.59656 1.13001 0
M  V30 3802 O 358.99 2.13157 1.68156 0
M  V30 3803 C 357.446 3.56813 -0.470391 0
M  V30 3804 C 357.054 4.05695 -1.90041 0
M  V30 3805 C 358.798 4.24423 -0.0809709 0
M  V30 3806 C 356.705 5.5553 -2.02832 0
M  V30 3807 H 355.635 0.746615 -0.105272 0
M  V30 3808 H 358.286 1.58872 -0.918258 0
M  V30 3809 H 356.668 3.95359 0.225299 0
M  V30 3810 H 357.842 3.78464 -2.62872 0
M  V30 3811 H 356.157 3.50775 -2.24379 0
M  V30 3812 H 358.754 5.34474 -0.155445 0
M  V30 3813 H 359.097 4.04962 0.96497 0
M  V30 3814 H 359.63 3.9108 -0.728124 0
M  V30 3815 H 356.369 5.79881 -3.05643 0
M  V30 3816 H 355.889 5.84537 -1.34448 0
M  V30 3817 H 357.568 6.21069 -1.81335 0
M  V30 3818 N 357.7 0.491464 1.49741 0
M  V30 3819 C 358.977 -0.118984 1.95238 0
M  V30 3820 C 359.357 -1.55044 1.43264 0
M  V30 3821 O 358.705 -2.19287 0.642287 0
M  V30 3822 C 358.915 -0.0414187 3.48975 0
M  V30 3823 C 360.263 -0.220133 4.24029 0
M  V30 3824 O 361.287 -0.117055 3.56008 0
M  V30 3825 O 360.146 -0.430567 5.44801 0
M  V30 3826 H 357.24 -0.100536 0.820866 0
M  V30 3827 H 359.786 0.553322 1.60426 0
M  V30 3828 H 358.558 0.957214 3.79412 0
M  V30 3829 H 358.181 -0.754292 3.9038 0
M  V30 3830 N 359.178 -1.55987 0.224894 0
M  V30 3831 C 360.141 -2.19178 -0.670348 0
M  V30 3832 C 361.141 -1.15461 -1.11917 0
M  V30 3833 O 362.331 -1.40675 -1.02743 0
M  V30 3834 C 359.463 -2.81777 -1.9187 0
M  V30 3835 H 360.656 -2.99662 -0.119364 0
M  V30 3836 H 358.209 -1.5628 -0.0247128 0
M  V30 3837 H 358.944 -2.05172 -2.51147 0
M  V30 3838 H 358.729 -3.57732 -1.60531 0
M  V30 3839 H 360.219 -3.30205 -2.55645 0
M  V30 3840 N 360.656 0.0484629 -1.57525 0
M  V30 3841 C 361.619 1.03956 -2.04269 0
M  V30 3842 C 362.619 1.30211 -0.943496 0
M  V30 3843 O 363.809 1.25539 -1.20771 0
M  V30 3844 C 360.941 2.37742 -2.44319 0
M  V30 3845 H 362.134 0.636182 -2.93075 0
M  V30 3846 H 359.687 0.294811 -1.53494 0
M  V30 3847 H 360.422 2.82866 -1.5861 0
M  V30 3848 H 360.207 2.20021 -3.24551 0
M  V30 3849 H 361.697 3.08936 -2.80978 0
M  V30 3850 N 362.134 1.5431 0.320358 0
M  V30 3851 C 363.359 1.76954 1.08175 0
M  V30 3852 C 363.784 0.518193 1.80821 0
M  V30 3853 O 363.142 -0.530411 1.73368 0
M  V30 3854 C 363.19 2.96451 2.05303 0
M  V30 3855 O 362.294 2.68221 3.13259 0
M  V30 3856 H 361.635 0.586275 0.311733 0
M  V30 3857 H 364.165 2.01342 0.363676 0
M  V30 3858 H 364.175 3.23887 2.48116 0
M  V30 3859 H 362.85 3.87196 1.51829 0
M  V30 3860 H 361.427 2.51744 2.75099 0
M  V30 3861 N 363.613 -0.582584 1.46437 0
M  V30 3862 C 364.861 -1.33814 1.51453 0
M  V30 3863 C 365.182 -1.94277 0.167792 0
M  V30 3864 O 364.452 -1.78566 -0.805677 0
M  V30 3865 H 363.032 -0.496838 0.557818 0
M  V30 3866 H 365.694 -0.682281 1.82568 0
M  V30 3867 H 364.79 -2.14479 2.26728 0
M  V30 3868 N 365.091 -1.34144 -0.827227 0
M  V30 3869 C 366.339 -1.26009 -1.58007 0
M  V30 3870 C 366.66 0.170971 -1.94249 0
M  V30 3871 O 365.93 1.10256 -1.61927 0
M  V30 3872 H 364.51 -0.463414 -0.585881 0
M  V30 3873 H 367.172 -1.68005 -0.987951 0
M  V30 3874 H 366.268 -1.86187 -2.50481 0
M  V30 3875 N 366.569 1.04691 -1.17803 0
M  V30 3876 C 367.816 1.77782 -0.969532 0
M  V30 3877 C 368.144 1.87926 0.501401 0
M  V30 3878 O 367.399 1.37918 1.38842 0
M  V30 3879 C 367.698 3.21467 -1.56186 0
M  V30 3880 C 367.364 3.3137 -3.05786 0
M  V30 3881 C 366.026 3.3378 -3.46619 0
M  V30 3882 C 368.378 3.31976 -4.01797 0
M  V30 3883 C 365.706 3.34431 -4.82051 0
M  V30 3884 C 368.058 3.34167 -5.37136 0
M  V30 3885 C 366.722 3.34866 -5.77426 0
M  V30 3886 H 365.992 0.650549 -0.354777 0
M  V30 3887 H 368.639 1.23006 -1.46772 0
M  V30 3888 H 366.944 3.79203 -0.985515 0
M  V30 3889 H 368.641 3.76652 -1.37602 0
M  V30 3890 H 365.231 3.3021 -2.73238 0
M  V30 3891 H 369.415 3.29311 -3.71306 0
M  V30 3892 H 364.671 3.33285 -5.12573 0
M  V30 3893 H 368.845 3.33585 -6.11305 0
M  V30 3894 H 366.472 3.35124 -6.82346 0
M  V30 3895 N 368.047 0.979072 1.23499 0
M  V30 3896 C 368.977 0.537606 2.27227 0
M  V30 3897 C 369.958 -0.428539 1.64613 0
M  V30 3898 O 371.143 -0.322191 1.91509 0
M  V30 3899 C 368.273 -0.162052 3.46922 0
M  V30 3900 C 367.227 0.721242 4.21879 0
M  V30 3901 C 366.553 -0.110555 5.34586 0
M  V30 3902 C 367.853 2.01141 4.82016 0
M  V30 3903 H 369.547 1.40462 2.64406 0
M  V30 3904 H 367.093 0.67684 1.27102 0
M  V30 3905 H 369.046 -0.482192 4.18632 0
M  V30 3906 H 367.77 -1.06351 3.08799 0
M  V30 3907 H 366.429 1.02482 3.51984 0
M  V30 3908 H 366.077 -1.0125 4.92704 0
M  V30 3909 H 365.777 0.477325 5.85658 0
M  V30 3910 H 367.301 -0.425107 6.09118 0
M  V30 3911 H 368.715 1.75612 5.45741 0
M  V30 3912 H 367.112 2.54695 5.43369 0
M  V30 3913 H 368.182 2.69909 4.02836 0
M  V30 3914 N 369.525 -1.3858 0.750561 0
M  V30 3915 C 370.488 -2.28836 0.129152 0
M  V30 3916 C 371.488 -1.47045 -0.650714 0
M  V30 3917 O 372.678 -1.6753 -0.477428 0
M  V30 3918 C 369.81 -3.30751 -0.825622 0
M  V30 3919 H 371.003 -2.85294 0.924516 0
M  V30 3920 H 368.556 -1.47489 0.517376 0
M  V30 3921 H 369.291 -2.79378 -1.64677 0
M  V30 3922 H 369.076 -3.91177 -0.268852 0
M  V30 3923 H 370.566 -3.98249 -1.2565 0
M  V30 3924 N 371.003 -0.499398 -1.49478 0
M  V30 3925 C 372.414 -0.051215 -1.8663 0
M  V30 3926 C 372.765 1.36238 -1.41186 0
M  V30 3927 O 371.89 2.01502 -0.789051 0
M  V30 3928 C 372.485 -0.0861651 -3.3869 0
M  V30 3929 C 371.044 0.30667 -3.75149 0
M  V30 3930 C 370.191 -0.459397 -2.73468 0
M  V30 3931 H 373.142 -0.712264 -1.41818 0
M  V30 3932 H 373.163 0.709507 -3.73826 0
M  V30 3933 H 372.675 -1.11512 -3.71735 0
M  V30 3934 H 370.776 1.33892 -3.47712 0
M  V30 3935 H 370.889 -0.0116669 -4.79099 0
M  V30 3936 H 369.253 0.0905645 -2.54539 0
M  V30 3937 H 370.036 -1.4884 -3.09357 0
M  V30 3938 N 372.481 1.55866 -0.233164 0
M  V30 3939 C 373.728 1.98603 0.395374 0
M  V30 3940 C 374.056 1.12105 1.58942 0
M  V30 3941 O 373.311 0.168656 1.94972 0
M  V30 3942 C 373.61 3.46856 0.861724 0
M  V30 3943 C 373.276 4.50348 -0.223066 0
M  V30 3944 C 371.938 4.78371 -0.521038 0
M  V30 3945 C 374.29 5.12355 -0.956124 0
M  V30 3946 C 371.618 5.6568 -1.55638 0
M  V30 3947 C 373.97 6.00786 -1.98089 0
M  V30 3948 C 372.634 6.27148 -2.28565 0
M  V30 3949 H 371.904 0.726739 0.144677 0
M  V30 3950 H 374.551 1.88491 -0.338114 0
M  V30 3951 H 372.856 3.5423 1.67418 0
M  V30 3952 H 374.553 3.77302 1.35809 0
M  V30 3953 H 371.143 4.28596 0.0193234 0
M  V30 3954 H 375.327 4.90765 -0.739166 0
M  V30 3955 H 370.583 5.84365 -1.798 0
M  V30 3956 H 374.757 6.4788 -2.55391 0
M  V30 3957 H 372.384 6.94597 -3.08932 0
M  V30 3958 N 373.959 -0.0401083 1.57549 0
M  V30 3959 C 375.205 -0.734211 1.89043 0
M  V30 3960 C 375.538 -1.75591 0.829535 0
M  V30 3961 O 374.813 -1.93868 -0.156706 0
M  V30 3962 C 375.096 -1.41374 3.31188 0
M  V30 3963 C 374.949 -0.406299 4.47961 0
M  V30 3964 C 376.268 -2.35061 3.72068 0
M  V30 3965 H 373.387 -0.265447 0.687537 0
M  V30 3966 H 376.029 0.00294087 1.9 0
M  V30 3967 H 374.179 -2.04206 3.30503 0
M  V30 3968 H 375.851 0.219255 4.60779 0
M  V30 3969 H 374.094 0.275485 4.32924 0
M  V30 3970 H 374.765 -0.920022 5.44279 0
M  V30 3971 H 377.241 -1.82282 3.74049 0
M  V30 3972 H 376.117 -2.79593 4.72355 0
M  V30 3973 H 376.378 -3.21258 3.0372 0
M  V30 3974 N 375.437 -1.54477 -0.31217 0
M  V30 3975 C 376.4 -1.83923 -1.36766 0
M  V30 3976 C 377.4 -0.711563 -1.44199 0
M  V30 3977 O 378.59 -0.979866 -1.44029 0
M  V30 3978 C 375.722 -2.0095 -2.75376 0
M  V30 3979 H 376.915 -2.78239 -1.11906 0
M  V30 3980 H 374.468 -1.46369 -0.548257 0
M  V30 3981 H 375.203 -1.08883 -3.05475 0
M  V30 3982 H 374.988 -2.83018 -2.71373 0
M  V30 3983 H 376.478 -2.2514 -3.51713 0
M  V30 3984 N 376.915 0.57481 -1.46744 0
M  V30 3985 C 378.326 1.15695 -1.46532 0
M  V30 3986 C 378.677 1.95068 -0.210425 0
M  V30 3987 O 377.802 2.05241 0.685944 0
M  V30 3988 C 378.397 2.1048 -2.65487 0
M  V30 3989 C 376.956 2.64002 -2.68291 0
M  V30 3990 C 376.103 1.40026 -2.39349 0
M  V30 3991 H 379.054 0.362325 -1.54509 0
M  V30 3992 H 379.075 2.94074 -2.41455 0
M  V30 3993 H 378.587 1.52683 -3.56805 0
M  V30 3994 H 376.688 3.25646 -1.81067 0
M  V30 3995 H 376.801 3.06197 -3.68483 0
M  V30 3996 H 375.165 1.70106 -1.89568 0
M  V30 3997 H 375.948 0.840485 -3.32852 0
M  V30 3998 N 378.394 1.34581 0.820102 0
M  V30 3999 C 379.671 1.17675 1.56244 0
M  V30 4000 C 380.051 -0.249541 2.0962 0
M  V30 4001 O 379.399 -1.25125 1.91196 0
M  V30 4002 C 379.609 2.23364 2.6816 0
M  V30 4003 C 380.957 2.58485 3.36854 0
M  V30 4004 O 381.981 2.22175 2.78418 0
M  V30 4005 O 380.84 3.20868 4.42386 0
M  V30 4006 H 377.934 0.456333 0.689702 0
M  V30 4007 H 380.48 1.46222 0.861231 0
M  V30 4008 H 379.252 3.19087 2.26493 0
M  V30 4009 H 378.875 1.96009 3.45928 0
M  V30 4010 N 379.872 -1.04064 1.18357 0
M  V30 4011 C 381.121 -1.76662 0.973313 0
M  V30 4012 C 381.434 -1.89154 -0.497991 0
M  V30 4013 O 382.64 -2.58606 -0.826762 0
M  V30 4014 C 381.096 -3.17624 1.69242 0
M  V30 4015 C 380.704 -3.13225 3.20303 0
M  V30 4016 C 382.448 -3.946 1.56497 0
M  V30 4017 C 380.355 -4.49046 3.84853 0
M  V30 4018 H 379.285 -0.662214 0.36054 0
M  V30 4019 H 381.936 -1.16553 1.41731 0
M  V30 4020 H 380.318 -3.78129 1.1762 0
M  V30 4021 H 381.492 -2.62172 3.78949 0
M  V30 4022 H 379.807 -2.49749 3.33189 0
M  V30 4023 H 382.404 -4.95042 2.02084 0
M  V30 4024 H 382.747 -4.13074 0.517243 0
M  V30 4025 H 383.28 -3.4067 2.05399 0
M  V30 4026 H 380.019 -4.35777 4.89672 0
M  V30 4027 H 379.539 -5.00203 3.30994 0
M  V30 4028 H 381.218 -5.17961 3.87718 0
M  V30 4029 N 381.35 -0.985608 -1.22978 0
M  V30 4030 C 382.596 -0.65836 -1.91816 0
M  V30 4031 C 382.929 0.806692 -1.76653 0
M  V30 4032 O 382.204 1.58252 -1.13078 0
M  V30 4033 C 382.487 -1.056 -3.44268 0
M  V30 4034 C 382.34 -2.57906 -3.68516 0
M  V30 4035 C 383.659 -0.603781 -4.35939 0
M  V30 4036 H 380.778 -0.24065 -0.696604 0
M  V30 4037 H 383.42 -1.22783 -1.44998 0
M  V30 4038 H 381.57 -0.571445 -3.84274 0
M  V30 4039 H 383.242 -3.13976 -3.3796 0
M  V30 4040 H 381.485 -3.00305 -3.13048 0
M  V30 4041 H 382.156 -2.80779 -4.75255 0
M  V30 4042 H 384.632 -1.01987 -4.03408 0
M  V30 4043 H 383.508 -0.910383 -5.41298 0
M  V30 4044 H 383.769 0.495761 -4.39312 0
M  V30 4045 N 382.828 1.3818 -0.7579 0
M  V30 4046 C 384.074 2.0078 -0.325423 0
M  V30 4047 C 384.429 1.59085 1.08211 0
M  V30 4048 O 383.722 0.820394 1.73148 0
M  V30 4049 C 383.916 3.55252 -0.391218 0
M  V30 4050 C 383.745 4.11947 -1.8036 0
M  V30 4051 C 382.515 4.43519 -2.42113 0
M  V30 4052 C 384.713 4.33908 -2.76095 0
M  V30 4053 N 382.695 4.85847 -3.75267 0
M  V30 4054 C 384.066 4.78692 -3.94023 0
M  V30 4055 C 386.121 4.16015 -2.73561 0
M  V30 4056 C 384.824 5.07459 -5.09782 0
M  V30 4057 C 386.85 4.45909 -3.88483 0
M  V30 4058 C 386.212 4.90921 -5.0515 0
M  V30 4059 H 382.311 0.764215 -0.165831 0
M  V30 4060 H 384.895 1.67724 -0.988776 0
M  V30 4061 H 383.066 3.87646 0.241886 0
M  V30 4062 H 384.798 4.04653 0.061989 0
M  V30 4063 H 381.553 4.32113 -1.93842 0
M  V30 4064 H 381.977 5.11339 -4.4369 0
M  V30 4065 H 386.619 3.80399 -1.84544 0
M  V30 4066 H 384.337 5.4197 -5.99412 0
M  V30 4067 H 387.923 4.33666 -3.87847 0
M  V30 4068 H 386.803 5.1361 -5.92599 0
M  V30 4069 N 384.306 0.507319 1.49211 0
M  V30 4070 C 385.583 -0.0982702 1.95353 0
M  V30 4071 C 385.963 -1.53516 1.449 0
M  V30 4072 O 385.311 -2.18594 0.66551 0
M  V30 4073 C 385.521 -0.00440283 3.49 0
M  V30 4074 C 386.869 -0.175147 4.24239 0
M  V30 4075 O 387.893 -0.0792891 3.56112 0
M  V30 4076 O 386.752 -0.37276 5.45227 0
M  V30 4077 H 383.846 -0.0918236 0.821887 0
M  V30 4078 H 386.392 0.570307 1.5983 0
M  V30 4079 H 385.164 0.997402 3.78375 0
M  V30 4080 H 384.787 -0.712845 3.91158 0
M  V30 4081 N 385.784 -1.5574 0.241426 0
M  V30 4082 C 387.031 -1.9881 -0.384836 0
M  V30 4083 C 387.359 -1.12947 -1.58346 0
M  V30 4084 O 386.614 -0.178993 -1.9488 0
M  V30 4085 C 386.913 -3.47308 -0.843317 0
M  V30 4086 C 386.579 -4.50223 0.246946 0
M  V30 4087 C 385.241 -4.78088 0.546399 0
M  V30 4088 C 387.593 -5.11841 0.983282 0
M  V30 4089 C 384.921 -5.64846 1.58636 0
M  V30 4090 C 387.273 -5.99727 2.01272 0
M  V30 4091 C 385.937 -6.25927 2.31888 0
M  V30 4092 H 385.207 -0.727496 -0.140821 0
M  V30 4093 H 387.854 -1.8831 0.348106 0
M  V30 4094 H 386.159 -3.55112 -1.65537 0
M  V30 4095 H 387.856 -3.78017 -1.33806 0
M  V30 4096 H 384.446 -4.286 0.00340639 0
M  V30 4097 H 388.63 -4.90366 0.765182 0
M  V30 4098 H 383.886 -5.83403 1.82896 0
M  V30 4099 H 388.06 -6.46517 2.58823 0
M  V30 4100 H 385.687 -6.92949 3.12611 0
M  V30 4101 N 387.262 0.0317525 -1.57568 0
M  V30 4102 C 388.678 0.38735 -1.54828 0
M  V30 4103 C 388.878 1.7677 -0.967187 0
M  V30 4104 O 387.934 2.45581 -0.587063 0
M  V30 4105 C 389.247 0.291667 -2.99282 0
M  V30 4106 C 390.795 0.368946 -3.10818 0
M  V30 4107 C 391.27 0.302741 -4.56998 0
M  V30 4108 N 392.761 0.361617 -4.61786 0
M  V30 4109 C 393.496 0.333238 -5.72431 0
M  V30 4110 N 392.992 0.257308 -6.92322 0
M  V30 4111 N 394.785 0.382769 -5.60795 0
M  V30 4112 H 386.936 -0.871609 -1.93692 0
M  V30 4113 H 389.199 -0.331161 -0.888277 0
M  V30 4114 H 388.905 -0.656794 -3.45513 0
M  V30 4115 H 388.779 1.08638 -3.61217 0
M  V30 4116 H 391.166 1.30784 -2.64536 0
M  V30 4117 H 391.247 -0.455066 -2.5172 0
M  V30 4118 H 390.891 -0.632473 -5.03947 0
M  V30 4119 H 390.821 1.14482 -5.14005 0
M  V30 4120 H 393.312 0.422923 -3.75526 0
M  V30 4121 H 393.625 0.24068 -7.72425 0
M  V30 4122 H 391.97 0.223396 -6.94641 0
M  V30 4123 H 395.161 0.44006 -4.66027 0
M  V30 4124 H 395.334 0.357184 -6.47015 0
M  V30 4125 N 388.74 1.54641 0.303973 0
M  V30 4126 C 389.67 1.88386 1.3796 0
M  V30 4127 C 390.651 0.742485 1.5304 0
M  V30 4128 O 391.836 0.997959 1.66597 0
M  V30 4129 C 388.966 2.12854 2.74427 0
M  V30 4130 C 387.92 3.28702 2.74115 0
M  V30 4131 C 387.246 3.38582 4.13844 0
M  V30 4132 C 388.546 4.65881 2.3612 0
M  V30 4133 H 390.24 2.78474 1.09966 0
M  V30 4134 H 387.786 1.33988 0.527556 0
M  V30 4135 H 389.739 2.35047 3.49758 0
M  V30 4136 H 388.463 1.19535 3.03939 0
M  V30 4137 H 387.122 3.06428 2.0124 0
M  V30 4138 H 386.77 2.42784 4.40528 0
M  V30 4139 H 386.47 4.16453 4.14537 0
M  V30 4140 H 387.994 3.63031 4.90959 0
M  V30 4141 H 389.408 4.87823 3.01167 0
M  V30 4142 H 387.805 5.46444 2.48031 0
M  V30 4143 H 388.875 4.66799 1.3125 0
M  V30 4144 N 390.218 -0.567019 1.47046 0
M  V30 4145 C 391.629 -1.14916 1.47143 0
M  V30 4146 C 391.98 -1.94954 0.220767 0
M  V30 4147 O 391.105 -2.05602 -0.67505 0
M  V30 4148 C 391.7 -2.09069 2.666 0
M  V30 4149 C 390.259 -2.62575 2.69687 0
M  V30 4150 C 389.406 -1.38755 2.40088 0
M  V30 4151 H 392.357 -0.354126 1.54699 0
M  V30 4152 H 392.378 -2.92789 2.43011 0
M  V30 4153 H 391.89 -1.50789 3.57609 0
M  V30 4154 H 389.991 -3.24681 1.82792 0
M  V30 4155 H 390.104 -3.04239 3.70102 0
M  V30 4156 H 388.468 -1.69098 1.90468 0
M  V30 4157 H 389.251 -0.822822 3.33293 0
M  V30 4158 N 391.696 -1.35014 -0.812953 0
M  V30 4159 C 393.112 -1.14914 -1.10757 0
M  V30 4160 C 393.312 0.0426818 -2.01455 0
M  V30 4161 O 392.368 0.715212 -2.42159 0
M  V30 4162 C 393.681 -2.44911 -1.74468 0
M  V30 4163 C 395.229 -2.5106 -1.86917 0
M  V30 4164 C 395.704 -3.81085 -2.54044 0
M  V30 4165 N 397.195 -3.82301 -2.61535 0
M  V30 4166 C 397.93 -4.79634 -3.14227 0
M  V30 4167 N 397.426 -5.87353 -3.67407 0
M  V30 4168 N 399.219 -4.67078 -3.12721 0
M  V30 4169 H 391.37 -2.1136 -0.20989 0
M  V30 4170 H 393.633 -0.935128 -0.155692 0
M  V30 4171 H 393.339 -3.32267 -1.15289 0
M  V30 4172 H 393.213 -2.58989 -2.74234 0
M  V30 4173 H 395.6 -1.64137 -2.45241 0
M  V30 4174 H 395.681 -2.40901 -0.860242 0
M  V30 4175 H 395.325 -4.68402 -1.96372 0
M  V30 4176 H 395.255 -3.88529 -3.55461 0
M  V30 4177 H 397.746 -3.04465 -2.23851 0
M  V30 4178 H 398.059 -6.57624 -4.05894 0
M  V30 4179 H 396.404 -5.91054 -3.65623 0
M  V30 4180 H 399.595 -3.82067 -2.70449 0
M  V30 4181 H 399.768 -5.43098 -3.53481 0
M  V30 4182 N 393.175 1.03435 -1.18907 0
M  V30 4183 C 394.421 1.77005 -0.989798 0
M  V30 4184 C 394.754 1.88205 0.478816 0
M  V30 4185 O 394.029 1.39481 1.35556 0
M  V30 4186 C 394.312 3.19925 -1.65287 0
M  V30 4187 C 394.165 3.1663 -3.19477 0
M  V30 4188 C 395.484 4.18189 -1.37134 0
M  V30 4189 H 392.603 0.642538 -0.360991 0
M  V30 4190 H 395.245 1.20784 -1.46667 0
M  V30 4191 H 393.395 3.67929 -1.24741 0
M  V30 4192 H 395.067 2.76567 -3.692 0
M  V30 4193 H 393.31 2.54491 -3.51307 0
M  V30 4194 H 393.981 4.1758 -3.61013 0
M  V30 4195 H 396.457 3.78761 -1.72276 0
M  V30 4196 H 395.333 5.16394 -1.86087 0
M  V30 4197 H 395.594 4.41112 -0.295424 0
M  V30 4198 N 394.653 0.992116 1.22453 0
M  V30 4199 C 395.6 0.541731 2.24352 0
M  V30 4200 C 396.57 -0.425519 1.60557 0
M  V30 4201 O 397.755 -0.330453 1.87917 0
M  V30 4202 C 394.895 -0.138248 3.44823 0
M  V30 4203 C 394.008 0.870649 4.23136 0
M  V30 4204 C 393.143 0.164269 5.30946 0
M  V30 4205 C 392.182 1.16159 6.00977 0
M  V30 4206 N 391.319 0.483568 7.00433 0
M  V30 4207 H 396.159 1.41541 2.62241 0
M  V30 4208 H 393.696 0.709013 1.28885 0
M  V30 4209 H 395.654 -0.5494 4.13567 0
M  V30 4210 H 394.284 -0.975721 3.077 0
M  V30 4211 H 393.336 1.40013 3.53696 0
M  V30 4212 H 394.648 1.63014 4.7141 0
M  V30 4213 H 393.802 -0.303653 6.0594 0
M  V30 4214 H 392.541 -0.627733 4.83643 0
M  V30 4215 H 391.546 1.64015 5.24766 0
M  V30 4216 H 392.771 1.95445 6.50368 0
M  V30 4217 H 390.717 -0.289012 6.55363 0
M  V30 4218 H 390.634 1.18152 7.4671 0
M  V30 4219 H 391.902 0.0384219 7.79491 0
M  V30 4220 N 396.131 -1.37776 0.765217 0
M  V30 4221 C 397.356 -2.04651 0.336537 0
M  V30 4222 C 397.781 -1.57337 -1.03086 0
M  V30 4223 O 397.139 -0.730621 -1.65927 0
M  V30 4224 C 397.187 -3.58577 0.381468 0
M  V30 4225 O 396.291 -4.07706 -0.62042 0
M  V30 4226 H 395.632 -0.64756 0.146838 0
M  V30 4227 H 398.162 -1.76221 1.03959 0
M  V30 4228 H 398.172 -4.07314 0.236448 0
M  V30 4229 H 396.847 -3.9237 1.37907 0
M  V30 4230 H 395.424 -3.70306 -0.439056 0
M  V30 4231 N 397.609 -0.515225 -1.4894 0
M  V30 4232 C 398.858 0.0261361 -2.01683 0
M  V30 4233 C 399.171 1.36719 -1.39883 0
M  V30 4234 O 400.377 1.99606 -1.84037 0
M  V30 4235 C 398.833 0.0970111 -3.59769 0
M  V30 4236 C 398.441 -1.23825 -4.30548 0
M  V30 4237 C 400.185 0.587981 -4.20408 0
M  V30 4238 C 398.092 -1.12877 -5.80528 0
M  V30 4239 H 397.022 0.0135398 -0.753878 0
M  V30 4240 H 399.673 -0.656787 -1.71343 0
M  V30 4241 H 398.055 0.844694 -3.86886 0
M  V30 4242 H 399.229 -2.00034 -4.15118 0
M  V30 4243 H 397.544 -1.66379 -3.81716 0
M  V30 4244 H 400.141 0.68763 -5.3026 0
M  V30 4245 H 400.484 1.59026 -3.84729 0
M  V30 4246 H 401.017 -0.103582 -3.97665 0
M  V30 4247 H 397.756 -2.10575 -6.20756 0
M  V30 4248 H 397.276 -0.407799 -5.98412 0
M  V30 4249 H 398.955 -0.813332 -6.41868 0
M  V30 4250 N 399.087 1.5561 -0.249682 0
M  V30 4251 C 400.312 2.03865 0.381305 0
M  V30 4252 C 400.737 1.12769 1.50548 0
M  V30 4253 O 400.095 0.121189 1.80895 0
M  V30 4254 C 400.143 3.50101 0.863816 0
M  V30 4255 O 399.247 3.62132 1.97318 0
M  V30 4256 H 398.588 0.658827 0.0827194 0
M  V30 4257 H 401.118 2.01105 -0.376552 0
M  V30 4258 H 401.128 3.90975 1.1663 0
M  V30 4259 H 399.803 4.1588 0.0411816 0
M  V30 4260 H 398.38 3.33155 1.67517 0
M  V30 4261 N 400.565 -0.0233959 1.57583 0
M  V30 4262 C 401.528 -1.00693 2.05897 0
M  V30 4263 C 402.528 -1.28693 0.964092 0
M  V30 4264 O 403.718 -1.23602 1.22753 0
M  V30 4265 C 400.85 -2.33825 2.4807 0
M  V30 4266 H 402.043 -0.589476 2.9405 0
M  V30 4267 H 399.596 -0.270354 1.53944 0
M  V30 4268 H 400.331 -2.80307 1.6309 0
M  V30 4269 H 400.116 -2.1483 3.2801 0
M  V30 4270 H 401.606 -3.04426 2.85857 0
M  V30 4271 N 402.043 -1.548 -0.295768 0
M  V30 4272 C 403.268 -1.78653 -1.05346 0
M  V30 4273 C 403.693 -0.546894 -1.79974 0
M  V30 4274 O 403.051 0.502763 -1.7419 0
M  V30 4275 C 403.099 -2.99679 -2.00561 0
M  V30 4276 O 402.203 -2.7317 -3.08953 0
M  V30 4277 H 401.544 -0.59116 -0.302367 0
M  V30 4278 H 404.074 -2.01895 -0.331598 0
M  V30 4279 H 404.084 -3.27793 -2.42932 0
M  V30 4280 H 402.759 -3.89562 -1.4565 0
M  V30 4281 H 401.336 -2.56089 -2.71059 0
M  V30 4282 N 403.521 0.559213 -1.47345 0
M  V30 4283 C 404.769 1.31388 -1.53563 0
M  V30 4284 C 405.09 1.93985 -0.198678 0
M  V30 4285 O 404.36 1.79825 0.777167 0
M  V30 4286 H 402.94 0.487901 -0.565652 0
M  V30 4287 H 405.602 0.65315 -1.8363 0
M  V30 4288 H 404.698 2.10844 -2.30111 0
M  V30 4289 N 404.999 1.35443 0.805782 0
M  V30 4290 C 405.949 1.24972 1.90699 0
M  V30 4291 C 406.933 0.144806 1.60247 0
M  V30 4292 O 408.125 0.376102 1.72958 0
M  V30 4293 C 405.254 1.02475 3.27649 0
M  V30 4294 C 404.34 2.17361 3.64164 0
M  V30 4295 N 404.731 3.42591 3.72109 0
M  V30 4296 C 403.029 2.08765 3.94123 0
M  V30 4297 C 403.73 4.18144 4.04389 0
M  V30 4298 N 402.706 3.4691 4.18515 0
M  V30 4299 H 406.508 2.19852 1.95044 0
M  V30 4300 H 404.022 1.27928 1.00041 0
M  V30 4301 H 406.019 0.930617 4.06381 0
M  V30 4302 H 404.679 0.0848009 3.24589 0
M  V30 4303 H 405.69 3.76932 3.55166 0
M  V30 4304 H 402.367 1.22629 3.99084 0
M  V30 4305 H 403.757 5.26367 4.17597 0
M  V30 4306 N 406.477 -1.02803 1.19454 0
M  V30 4307 C 407.424 -2.11099 0.933046 0
M  V30 4308 C 408.394 -1.65571 -0.132447 0
M  V30 4309 O 409.579 -1.90797 0.00987576 0
M  V30 4310 C 406.719 -3.41763 0.478747 0
M  V30 4311 C 405.832 -4.00833 1.6111 0
M  V30 4312 C 404.967 -5.19511 1.10825 0
M  V30 4313 C 404.006 -5.70639 2.21445 0
M  V30 4314 N 403.143 -6.80589 1.72461 0
M  V30 4315 H 407.983 -2.32804 1.86028 0
M  V30 4316 H 405.52 -1.14179 0.927441 0
M  V30 4317 H 407.478 -4.16736 0.196745 0
M  V30 4318 H 406.108 -3.20166 -0.411493 0
M  V30 4319 H 405.16 -3.23066 2.00829 0
M  V30 4320 H 406.472 -4.34794 2.4445 0
M  V30 4321 H 405.626 -6.01645 0.781533 0
M  V30 4322 H 404.365 -4.87086 0.244606 0
M  V30 4323 H 403.37 -4.87116 2.54947 0
M  V30 4324 H 404.595 -6.05102 3.08267 0
M  V30 4325 H 402.541 -6.50016 0.884056 0
M  V30 4326 H 402.458 -7.13681 2.49389 0
M  V30 4327 H 403.726 -7.66317 1.42755 0
M  V30 4328 N 407.956 -0.998596 -1.21925 0
M  V30 4329 C 409.203 -0.677663 -1.90824 0
M  V30 4330 C 409.531 0.790905 -1.77693 0
M  V30 4331 O 408.786 1.58817 -1.14349 0
M  V30 4332 C 409.085 -1.03648 -3.42041 0
M  V30 4333 C 408.751 -2.49825 -3.75364 0
M  V30 4334 C 407.413 -2.8977 -3.8417 0
M  V30 4335 C 409.765 -3.44545 -3.91073 0
M  V30 4336 C 407.093 -4.23412 -4.06127 0
M  V30 4337 C 409.445 -4.77853 -4.14535 0
M  V30 4338 C 408.109 -5.17531 -4.21566 0
M  V30 4339 H 407.379 -0.247975 -0.698276 0
M  V30 4340 H 410.026 -1.25584 -1.44571 0
M  V30 4341 H 408.331 -0.376457 -3.89987 0
M  V30 4342 H 410.028 -0.766113 -3.93614 0
M  V30 4343 H 406.618 -2.17866 -3.69097 0
M  V30 4344 H 410.802 -3.14853 -3.83642 0
M  V30 4345 H 406.058 -4.53734 -4.09799 0
M  V30 4346 H 410.232 -5.51189 -4.25633 0
M  V30 4347 H 407.859 -6.21102 -4.38333 0
M  V30 4348 N 409.434 1.37368 -0.772513 0
M  V30 4349 C 410.682 1.99279 -0.336516 0
M  V30 4350 C 411.003 1.6163 1.09091 0
M  V30 4351 O 410.273 0.882109 1.74916 0
M  V30 4352 H 408.853 0.737063 -0.121435 0
M  V30 4353 H 411.515 1.67836 -0.990809 0
M  V30 4354 H 410.611 3.09332 -0.414763 0
M  V30 4355 N 410.912 0.523116 1.48665 0
M  V30 4356 C 411.842 -0.23231 2.32342 0
M  V30 4357 C 412.823 -0.941637 1.41659 0
M  V30 4358 O 414.008 -0.928751 1.70552 0
M  V30 4359 C 411.138 -1.28387 3.22698 0
M  V30 4360 C 410.092 -0.693098 4.22351 0
M  V30 4361 C 409.418 -1.8468 5.01794 0
M  V30 4362 C 410.718 0.33063 5.21252 0
M  V30 4363 H 412.412 0.466192 2.95748 0
M  V30 4364 H 409.958 0.225643 1.42221 0
M  V30 4365 H 411.911 -1.82024 3.80059 0
M  V30 4366 H 410.635 -2.01186 2.57278 0
M  V30 4367 H 409.294 -0.178299 3.66166 0
M  V30 4368 H 408.942 -2.56301 4.32804 0
M  V30 4369 H 408.642 -1.45747 5.69238 0
M  V30 4370 H 410.166 -2.38709 5.62006 0
M  V30 4371 H 411.58 -0.118407 5.73178 0
M  V30 4372 H 409.977 0.636974 5.9671 0
M  V30 4373 H 411.047 1.23883 4.68808 0
M  V30 4374 N 412.39 -1.55475 0.257931 0
M  V30 4375 C 413.353 -2.20551 -0.623706 0
M  V30 4376 C 414.353 -1.17809 -1.09443 0
M  V30 4377 O 415.543 -1.42823 -0.997362 0
M  V30 4378 C 412.675 -2.85784 -1.8585 0
M  V30 4379 H 413.868 -2.99848 -0.0557743 0
M  V30 4380 H 411.421 -1.56298 0.0084422 0
M  V30 4381 H 412.156 -2.10453 -2.46739 0
M  V30 4382 H 411.941 -3.61057 -1.52907 0
M  V30 4383 H 413.431 -3.35553 -2.48584 0
M  V30 4384 N 413.868 0.0150385 -1.57593 0
M  V30 4385 C 415.279 0.559832 -1.78109 0
M  V30 4386 C 415.63 1.74814 -0.890756 0
M  V30 4387 O 414.755 2.16216 -0.0892482 0
M  V30 4388 C 415.35 1.02238 -3.23006 0
M  V30 4389 C 413.909 1.51258 -3.44671 0
M  V30 4390 C 413.056 0.456955 -2.73509 0
M  V30 4391 H 416.007 -0.211169 -1.57289 0
M  V30 4392 H 416.028 1.88912 -3.30292 0
M  V30 4393 H 415.54 0.157302 -3.87781 0
M  V30 4394 H 413.641 2.39905 -2.8509 0
M  V30 4395 H 413.754 1.55042 -4.5332 0
M  V30 4396 H 412.118 0.915196 -2.37689 0
M  V30 4397 H 412.901 -0.398896 -3.40975 0
M  V30 4398 N 415.346 1.54954 0.287554 0
M  V30 4399 C 416.276 1.89839 1.35954 0
M  V30 4400 C 417.257 0.758675 1.52244 0
M  V30 4401 O 418.442 1.01557 1.65529 0
M  V30 4402 C 415.572 2.15753 2.72154 0
M  V30 4403 C 414.526 3.3159 2.70614 0
M  V30 4404 C 413.852 3.42952 4.10229 0
M  V30 4405 C 415.152 4.68359 2.31165 0
M  V30 4406 H 416.846 2.79625 1.07007 0
M  V30 4407 H 414.392 1.3454 0.513316 0
M  V30 4408 H 416.345 2.38743 3.47246 0
M  V30 4409 H 415.069 1.22752 3.02654 0
M  V30 4410 H 413.728 3.08545 1.97979 0
M  V30 4411 H 413.376 2.47443 4.37928 0
M  V30 4412 H 413.076 4.20826 4.10097 0
M  V30 4413 H 414.6 3.68218 4.87081 0
M  V30 4414 H 416.014 4.9099 2.95976 0
M  V30 4415 H 414.411 5.49044 2.42221 0
M  V30 4416 H 415.481 4.68165 1.26291 0
M  V30 4417 N 416.824 -0.551391 1.4764 0
M  V30 4418 C 418.072 -1.30572 1.54258 0
M  V30 4419 C 418.393 -1.93877 0.208963 0
M  V30 4420 O 417.663 -1.80234 -0.767619 0
M  V30 4421 H 416.243 -0.484894 0.568231 0
M  V30 4422 H 418.905 -0.643402 1.83974 0
M  V30 4423 H 418.001 -2.09621 2.31226 0
M  V30 4424 N 418.302 -1.35869 -0.798587 0
M  V30 4425 C 419.542 -1.30961 -1.56935 0
M  V30 4426 C 419.906 0.112404 -1.91671 0
M  V30 4427 O 421.107 0.285937 -2.67275 0
M  V30 4428 C 419.378 -2.19811 -2.81811 0
M  V30 4429 S 420.937 -2.32498 -3.72143 0
M  V30 4430 H 417.755 -0.465297 -0.537606 0
M  V30 4431 H 420.357 -1.71344 -0.941346 0
M  V30 4432 H 419.061 -3.22095 -2.54329 0
M  V30 4433 H 418.592 -1.80415 -3.49591 0
M  V30 4434 H 420.607 -1.5157 -4.72484 0
M  V30 4435 N 419.78 1.02168 -1.19998 0
M  V30 4436 C 421.028 1.75338 -1.00504 0
M  V30 4437 C 421.349 1.89387 0.464506 0
M  V30 4438 O 420.619 1.43268 1.33608 0
M  V30 4439 H 419.199 0.649564 -0.368885 0
M  V30 4440 H 421.861 1.23205 -1.51018 0
M  V30 4441 H 420.957 2.75892 -1.45912 0
M  V30 4442 N 421.258 1.00505 1.21394 0
M  V30 4443 C 422.504 0.698477 1.91031 0
M  V30 4444 C 422.859 -0.762448 1.76648 0
M  V30 4445 O 422.152 -1.54554 1.13241 0
M  V30 4446 C 422.346 1.0546 3.41486 0
M  V30 4447 C 422.175 2.5486 3.70508 0
M  V30 4448 C 420.945 3.21461 3.8986 0
M  V30 4449 C 423.143 3.53019 3.74008 0
M  V30 4450 N 421.125 4.60211 4.06299 0
M  V30 4451 C 422.496 4.77279 3.95733 0
M  V30 4452 C 424.551 3.47154 3.56915 0
M  V30 4453 C 423.254 5.96388 4.02137 0
M  V30 4454 C 425.28 4.65652 3.64585 0
M  V30 4455 C 424.642 5.88717 3.86771 0
M  V30 4456 H 420.741 0.30707 0.719189 0
M  V30 4457 H 423.325 1.28753 1.46051 0
M  V30 4458 H 421.496 0.494007 3.85246 0
M  V30 4459 H 423.228 0.702765 3.98552 0
M  V30 4460 H 419.983 2.71906 3.87768 0
M  V30 4461 H 420.407 5.32216 4.1842 0
M  V30 4462 H 425.049 2.53015 3.38738 0
M  V30 4463 H 422.767 6.90919 4.19114 0
M  V30 4464 H 426.353 4.62717 3.52681 0
M  V30 4465 H 425.233 6.78877 3.92549 0
M  V30 4466 N 422.737 -1.36956 0.779787 0
M  V30 4467 C 423.983 -1.99787 0.348281 0
M  V30 4468 C 424.316 -1.61756 -1.07465 0
M  V30 4469 O 423.591 -0.867639 -1.74075 0
M  V30 4470 C 423.874 -3.56597 0.50104 0
M  V30 4471 C 423.727 -4.04513 1.96697 0
M  V30 4472 C 425.046 -4.40008 -0.0898097 0
M  V30 4473 H 422.165 -0.725796 0.128022 0
M  V30 4474 H 424.807 -1.62514 0.984331 0
M  V30 4475 H 422.957 -3.88479 -0.0404347 0
M  V30 4476 H 424.629 -3.83161 2.56876 0
M  V30 4477 H 422.872 -3.56408 2.47297 0
M  V30 4478 H 423.543 -5.1352 2.02486 0
M  V30 4479 H 426.019 -4.14431 0.372293 0
M  V30 4480 H 424.895 -5.4888 0.0471605 0
M  V30 4481 H 425.156 -4.26035 -1.18096 0
M  V30 4482 N 424.215 -0.530993 -1.48385 0
M  V30 4483 C 425.464 0.00474348 -2.01699 0
M  V30 4484 C 425.777 1.35227 -1.41325 0
M  V30 4485 O 426.983 1.97643 -1.86144 0
M  V30 4486 C 425.439 0.0588473 -3.59852 0
M  V30 4487 C 425.047 -1.28385 -4.2921 0
M  V30 4488 C 426.791 0.543358 -4.21008 0
M  V30 4489 C 424.698 -1.19028 -5.79298 0
M  V30 4490 H 423.628 0.00554317 -0.75398 0
M  V30 4491 H 426.279 -0.674924 -1.70637 0
M  V30 4492 H 424.661 0.803612 -3.8776 0
M  V30 4493 H 425.835 -2.04426 -4.12973 0
M  V30 4494 H 424.15 -1.70418 -3.7993 0
M  V30 4495 H 426.747 0.631351 -5.3096 0
M  V30 4496 H 427.09 1.54937 -3.86394 0
M  V30 4497 H 427.623 -0.145754 -3.97533 0
M  V30 4498 H 424.362 -2.17147 -6.18488 0
M  V30 4499 H 423.882 -0.471246 -5.97946 0
M  V30 4500 H 425.561 -0.881365 -6.40969 0
M  V30 4501 N 425.693 1.55336 -0.266172 0
M  V30 4502 C 426.939 2.00423 0.346714 0
M  V30 4503 C 427.294 1.15132 1.54151 0
M  V30 4504 O 426.587 0.211289 1.90431 0
M  V30 4505 C 426.781 3.48606 0.787957 0
M  V30 4506 C 426.61 4.48236 -0.362535 0
M  V30 4507 C 425.38 4.98211 -0.843445 0
M  V30 4508 C 427.578 5.00199 -1.19603 0
M  V30 4509 N 425.56 5.81625 -1.96434 0
M  V30 4510 C 426.931 5.80973 -2.16497 0
M  V30 4511 C 428.986 4.82458 -1.2304 0
M  V30 4512 C 427.689 6.45896 -3.1656 0
M  V30 4513 C 429.715 5.48174 -2.21944 0
M  V30 4514 C 429.077 6.28751 -3.17571 0
M  V30 4515 H 425.176 0.776535 0.0922914 0
M  V30 4516 H 427.76 1.90792 -0.388154 0
M  V30 4517 H 425.931 3.58597 1.49207 0
M  V30 4518 H 427.663 3.80538 1.37742 0
M  V30 4519 H 424.418 4.71696 -0.424271 0
M  V30 4520 H 424.842 6.28025 -2.52813 0
M  V30 4521 H 429.484 4.19774 -0.504903 0
M  V30 4522 H 427.202 7.07734 -3.90048 0
M  V30 4523 H 430.788 5.36392 -2.25333 0
M  V30 4524 H 429.668 6.78703 -3.92851 0
M  V30 4525 N 427.171 -0.0066808 1.57599 0
M  V30 4526 C 428.587 -0.36267 1.55425 0
M  V30 4527 C 428.787 -1.75209 0.995187 0
M  V30 4528 O 427.843 -2.44616 0.626058 0
M  V30 4529 C 429.156 -0.244017 2.99708 0
M  V30 4530 C 430.704 -0.319451 3.11366 0
M  V30 4531 C 431.179 -0.229998 4.57422 0
M  V30 4532 N 432.67 -0.288105 4.62303 0
M  V30 4533 C 433.405 -0.242127 5.72889 0
M  V30 4534 N 432.901 -0.147133 6.92644 0
M  V30 4535 N 434.694 -0.293502 5.61333 0
M  V30 4536 H 426.845 0.902314 1.92281 0
M  V30 4537 H 429.108 0.34525 0.882896 0
M  V30 4538 H 428.814 0.711678 3.44424 0
M  V30 4539 H 428.688 -1.02877 3.629 0
M  V30 4540 H 431.075 -1.26559 2.66584 0
M  V30 4541 H 431.156 0.495055 2.50964 0
M  V30 4542 H 430.8 0.712566 5.02877 0
M  V30 4543 H 430.73 -1.0629 5.15761 0
M  V30 4544 H 433.221 -0.363126 3.76151 0
M  V30 4545 H 433.534 -0.117763 7.7271 0
M  V30 4546 H 431.879 -0.112857 6.94908 0
M  V30 4547 H 435.07 -0.365864 4.66668 0
M  V30 4548 H 435.243 -0.254204 6.47501 0
M  V30 4549 N 428.649 -1.55105 -0.279332 0
M  V30 4550 C 429.926 -1.66119 -1.03267 0
M  V30 4551 C 430.306 -0.523525 -2.04505 0
M  V30 4552 O 429.654 0.477194 -2.23462 0
M  V30 4553 C 429.864 -3.05067 -1.69515 0
M  V30 4554 C 431.212 -3.62606 -2.20912 0
M  V30 4555 O 432.236 -3.07659 -1.79512 0
M  V30 4556 O 431.095 -4.58861 -2.96831 0
M  V30 4557 H 428.189 -0.674429 -0.478618 0
M  V30 4558 H 430.735 -1.67446 -0.275694 0
M  V30 4559 H 429.507 -3.79311 -0.9612 0
M  V30 4560 H 429.13 -3.07611 -2.51915 0
M  V30 4561 N 430.127 0.543554 -1.4793 0
M  V30 4562 C 431.037 1.67657 -1.64098 0
M  V30 4563 C 432.053 1.65934 -0.523622 0
M  V30 4564 O 433.229 1.85133 -0.792943 0
M  V30 4565 C 430.294 3.04146 -1.66421 0
M  V30 4566 C 429.355 3.16831 -2.89684 0
M  V30 4567 C 428.588 4.46809 -2.91886 0
M  V30 4568 O 428.811 5.33095 -2.02895 0
M  V30 4569 O 427.745 4.63573 -3.83906 0
M  V30 4570 H 431.571 1.56957 -2.59997 0
M  V30 4571 H 429.156 0.715116 -1.31173 0
M  V30 4572 H 431.038 3.85346 -1.70548 0
M  V30 4573 H 429.713 3.152 -0.736923 0
M  V30 4574 H 428.62 2.34977 -2.91095 0
M  V30 4575 H 429.953 3.10687 -3.81752 0
M  V30 4576 N 431.605 1.3629 0.791371 0
M  V30 4577 C 432.515 1.32606 1.93527 0
M  V30 4578 C 433.531 0.228541 1.72493 0
M  V30 4579 O 434.707 0.460571 1.96063 0
M  V30 4580 C 431.772 1.11271 3.28359 0
M  V30 4581 C 430.833 2.3048 3.62185 0
M  V30 4582 C 430.066 2.10154 4.90583 0
M  V30 4583 O 430.289 1.07572 5.60165 0
M  V30 4584 O 429.223 2.97884 5.23019 0
M  V30 4585 H 433.049 2.28909 1.99585 0
M  V30 4586 H 430.634 1.16818 0.931344 0
M  V30 4587 H 432.516 1.01283 4.09047 0
M  V30 4588 H 431.191 0.180292 3.23198 0
M  V30 4589 H 430.098 2.46036 2.81811 0
M  V30 4590 H 431.431 3.22221 3.72068 0
M  V30 4591 N 433.083 -1.0153 1.20538 0
M  V30 4592 C 434.046 -2.0826 0.957098 0
M  V30 4593 C 435.046 -1.60657 -0.0678655 0
M  V30 4594 O 436.236 -1.73385 0.168332 0
M  V30 4595 C 433.368 -3.38033 0.441188 0
M  V30 4596 H 434.561 -2.31719 1.90384 0
M  V30 4597 H 432.114 -1.1835 1.02093 0
M  V30 4598 H 432.849 -3.20249 -0.510961 0
M  V30 4599 H 432.634 -3.73911 1.18038 0
M  V30 4600 H 434.124 -4.16613 0.287009 0
M  V30 4601 N 434.561 -1.01147 -1.20859 0
M  V30 4602 C 435.491 -0.597663 -2.25722 0
M  V30 4603 C 436.472 0.384744 -1.65692 0
M  V30 4604 O 437.657 0.271303 -1.92296 0
M  V30 4605 C 434.787 0.0700149 -3.47229 0
M  V30 4606 C 433.741 -0.832843 -4.19819 0
M  V30 4607 C 433.067 -0.0312202 -5.34691 0
M  V30 4608 C 434.367 -2.1385 -4.76514 0
M  V30 4609 H 436.061 -1.47423 -2.60589 0
M  V30 4610 H 433.607 -0.710301 -1.25263 0
M  V30 4611 H 435.56 0.37103 -4.19763 0
M  V30 4612 H 434.284 0.981259 -3.11511 0
M  V30 4613 H 432.943 -1.11778 -3.49144 0
M  V30 4614 H 432.591 0.881515 -4.95215 0
M  V30 4615 H 432.291 -0.632434 -5.84187 0
M  V30 4616 H 433.815 0.26346 -6.10031 0
M  V30 4617 H 435.229 -1.9002 -5.40893 0
M  V30 4618 H 433.626 -2.69012 -5.36426 0
M  V30 4619 H 434.696 -2.80495 -3.95538 0
M  V30 4620 N 436.039 1.36541 -0.78704 0
M  V30 4621 C 437.45 1.81873 -0.421807 0
M  V30 4622 C 437.801 1.65487 1.05397 0
M  V30 4623 O 436.926 1.17448 1.81755 0
M  V30 4624 C 437.521 3.30192 -0.758841 0
M  V30 4625 C 436.08 3.73743 -0.446468 0
M  V30 4626 C 435.227 2.58844 -0.994728 0
M  V30 4627 H 438.178 1.24796 -0.98039 0
M  V30 4628 H 438.199 3.80468 -0.0490648 0
M  V30 4629 H 437.711 3.42087 -1.83299 0
M  V30 4630 H 435.812 3.6741 0.619739 0
M  V30 4631 H 435.925 4.69272 -0.965415 0
M  V30 4632 H 434.289 2.51245 -0.418087 0
M  V30 4633 H 435.072 2.73525 -2.07458 0
M  V30 4634 N 437.518 0.538854 1.48102 0
M  V30 4635 C 438.45 -0.256278 2.27763 0
M  V30 4636 C 439.463 -0.89633 1.35904 0
M  V30 4637 O 440.652 -0.773275 1.60881 0
M  V30 4638 C 437.752 -1.37896 3.09577 0
M  V30 4639 C 436.925 -0.839159 4.29275 0
M  V30 4640 C 435.984 -1.84405 4.9283 0
M  V30 4641 O 435.01 -1.39746 5.51779 0
M  V30 4642 N 436.212 -3.17666 4.85869 0
M  V30 4643 H 438.977 0.426968 2.96643 0
M  V30 4644 H 436.538 0.373747 1.57527 0
M  V30 4645 H 438.53 -2.04955 3.48963 0
M  V30 4646 H 437.1 -1.96572 2.4306 0
M  V30 4647 H 436.32 0.00769287 3.94199 0
M  V30 4648 H 437.608 -0.457548 5.06739 0
M  V30 4649 H 437.006 -3.56609 4.39143 0
M  V30 4650 H 435.563 -3.80334 5.29329 0
M  V30 4651 N 438.996 -1.55193 0.274407 0
M  V30 4652 C 439.906 -2.26164 -0.623473 0
M  V30 4653 C 440.922 -1.28729 -1.17068 0
M  V30 4654 O 442.098 -1.61663 -1.20112 0
M  V30 4655 C 439.163 -2.96833 -1.7914 0
M  V30 4656 C 438.224 -4.09745 -1.28093 0
M  V30 4657 C 437.457 -4.77034 -2.3932 0
M  V30 4658 O 437.68 -4.4353 -3.5866 0
M  V30 4659 O 436.614 -5.64996 -2.07516 0
M  V30 4660 H 440.44 -3.03661 -0.0485661 0
M  V30 4661 H 438.025 -1.49341 0.0418382 0
M  V30 4662 H 439.907 -3.41248 -2.4724 0
M  V30 4663 H 438.582 -2.22253 -2.35341 0
M  V30 4664 H 437.489 -3.69787 -0.566416 0
M  V30 4665 H 438.822 -4.86224 -0.764683 0
M  V30 4666 N 440.474 -0.00167713 -1.576 0
M  V30 4667 C 441.404 0.988091 -2.11563 0
M  V30 4668 C 442.385 1.35736 -1.02517 0
M  V30 4669 O 443.57 1.44082 -1.30208 0
M  V30 4670 C 440.7 2.27941 -2.62031 0
M  V30 4671 C 439.654 2.0517 -3.75619 0
M  V30 4672 C 438.98 3.4033 -4.12407 0
M  V30 4673 C 440.28 1.41294 -5.02825 0
M  V30 4674 H 441.974 0.538771 -2.94513 0
M  V30 4675 H 439.52 0.257712 -1.41675 0
M  V30 4676 H 441.473 2.97539 -2.9841 0
M  V30 4677 H 440.197 2.74989 -1.76205 0
M  V30 4678 H 438.856 1.37998 -3.39635 0
M  V30 4679 H 438.504 3.85085 -3.23603 0
M  V30 4680 H 438.204 3.25909 -4.88935 0
M  V30 4681 H 439.728 4.1124 -4.51347 0
M  V30 4682 H 441.142 2.00851 -5.36965 0
M  V30 4683 H 439.539 1.37356 -5.84169 0
M  V30 4684 H 440.609 0.382362 -4.8339 0
M  V30 4685 N 441.952 1.55251 0.271103 0
M  V30 4686 C 443.198 1.76207 1.00394 0
M  V30 4687 C 443.531 0.562604 1.85872 0
M  V30 4688 O 442.806 -0.439785 1.89463 0
M  V30 4689 C 443.089 3.06828 1.8849 0
M  V30 4690 C 442.942 4.37134 1.05992 0
M  V30 4691 C 444.261 3.33503 2.87165 0
M  V30 4692 H 441.38 0.641086 0.363562 0
M  V30 4693 H 444.022 1.87982 0.276189 0
M  V30 4694 H 442.172 2.96921 2.5054 0
M  V30 4695 H 443.844 4.59001 0.459978 0
M  V30 4696 H 442.087 4.32275 0.363443 0
M  V30 4697 H 442.758 5.2486 1.70955 0
M  V30 4698 H 445.234 3.43215 2.3525 0
M  V30 4699 H 444.11 4.2616 3.45946 0
M  V30 4700 H 444.371 2.53235 3.62387 0
M  V30 4701 N 443.43 -0.535701 1.48216 0
M  V30 4702 C 444.677 -1.29183 1.55942 0
M  V30 4703 C 445.005 -1.93125 0.230857 0
M  V30 4704 O 444.26 -1.79556 -0.778331 0
M  V30 4705 C 444.559 -2.4068 2.64212 0
M  V30 4706 C 444.225 -1.94428 4.06827 0
M  V30 4707 C 442.887 -1.81532 4.45645 0
M  V30 4708 C 445.239 -1.59405 4.96225 0
M  V30 4709 C 442.567 -1.31939 5.71672 0
M  V30 4710 C 444.919 -1.11276 6.22736 0
M  V30 4711 C 443.583 -0.969924 6.60416 0
M  V30 4712 H 442.853 -0.472715 0.570632 0
M  V30 4713 H 445.5 -0.598437 1.81909 0
M  V30 4714 H 443.805 -3.15666 2.32083 0
M  V30 4715 H 445.502 -2.98822 2.67407 0
M  V30 4716 H 442.092 -2.05415 3.76168 0
M  V30 4717 H 446.276 -1.68231 4.66917 0
M  V30 4718 H 441.532 -1.19562 5.99596 0
M  V30 4719 H 445.706 -0.832453 6.91407 0
M  V30 4720 H 443.333 -0.583436 7.57958 0
M  V30 4721 N 444.908 -1.36708 -0.784132 0
M  V30 4722 C 445.856 -1.31533 -1.91838 0
M  V30 4723 C 446.85 -0.206205 -1.6814 0
M  V30 4724 O 448.056 -0.373519 -1.76082 0
M  V30 4725 H 444.431 -0.409613 -0.630651 0
M  V30 4726 H 446.402 -2.2731 -1.9332 0
M  V30 4727 C 445.151 -1.12679 -3.28936 0
M  V30 4728 H 444.474 -1.97274 -3.4774 0
M  V30 4729 H 445.914 -1.13106 -4.08636 0
M  V30 4730 C 444.373 0.168281 -3.36479 0
M  V30 4731 O 444.903 1.15625 -3.84699 0
M  V30 4732 N 443.109 0.214762 -2.89805 0
M  V30 4733 H 442.656 -0.589852 -2.50756 0
M  V30 4734 H 442.614 1.08094 -2.95234 0
M  V30 4735 N 446.386 1.0089 -1.21074 0
M  V30 4736 C 447.632 1.74866 -1.02712 0
M  V30 4737 C 447.965 1.89178 0.438787 0
M  V30 4738 O 447.24 1.42325 1.32567 0
M  V30 4739 C 447.523 3.16347 -1.72036 0
M  V30 4740 C 447.376 3.09782 -3.26121 0
M  V30 4741 C 448.695 4.15187 -1.45973 0
M  V30 4742 H 445.814 0.634736 -0.374539 0
M  V30 4743 H 448.456 1.17646 -1.49196 0
M  V30 4744 H 446.606 3.65201 -1.32517 0
M  V30 4745 H 448.278 2.68673 -3.74983 0
M  V30 4746 H 446.521 2.46982 -3.56626 0
M  V30 4747 H 447.192 4.09829 -3.6979 0
M  V30 4748 H 449.668 3.75022 -1.80272 0
M  V30 4749 H 448.544 5.12331 -1.96999 0
M  V30 4750 H 448.805 4.40386 -0.388924 0
M  V30 4751 N 447.864 1.01787 1.20321 0
M  V30 4752 C 449.141 0.622978 1.85414 0
M  V30 4753 C 449.521 -0.898887 1.91006 0
M  V30 4754 O 448.869 -1.79112 1.41884 0
M  V30 4755 C 449.079 1.27226 3.24984 0
M  V30 4756 C 450.427 1.3885 4.01255 0
M  V30 4757 O 451.451 1.22857 3.34342 0
M  V30 4758 O 450.31 1.64705 5.2109 0
M  V30 4759 H 447.404 0.215116 0.798533 0
M  V30 4760 H 449.95 1.11533 1.27901 0
M  V30 4761 H 448.722 2.31209 3.15687 0
M  V30 4762 H 448.345 0.767069 3.90131 0
M  V30 4763 N 449.342 -1.36122 0.79427 0
M  V30 4764 C 450.572 -2.03067 0.380437 0
M  V30 4765 C 450.98 -1.60018 -1.00949 0
M  V30 4766 O 450.323 -0.787425 -1.65968 0
M  V30 4767 C 450.385 -3.57587 0.37034 0
M  V30 4768 C 450.049 -4.23855 1.70867 0
M  V30 4769 C 451.046 -4.46404 2.66496 0
M  V30 4770 C 448.731 -4.61229 1.9893 0
M  V30 4771 C 450.725 -5.05412 3.88378 0
M  V30 4772 C 448.412 -5.19953 3.21079 0
M  V30 4773 C 449.41 -5.41985 4.15621 0
M  V30 4774 O 449.098 -5.99475 5.35616 0
M  V30 4775 H 448.83 -0.658168 0.154243 0
M  V30 4776 H 451.384 -1.7498 1.0757 0
M  V30 4777 H 449.614 -3.84814 -0.381444 0
M  V30 4778 H 451.303 -4.05895 -0.0194894 0
M  V30 4779 H 452.069 -4.17921 2.46103 0
M  V30 4780 H 447.948 -4.43402 1.26158 0
M  V30 4781 H 451.492 -5.22524 4.62185 0
M  V30 4782 H 447.389 -5.47862 3.41347 0
M  V30 4783 H 448.157 -6.17937 5.36745 0
M  V30 4784 N 450.82 -0.546701 -1.47814 0
M  V30 4785 C 451.75 0.195317 -2.32682 0
M  V30 4786 C 452.731 0.918981 -1.43139 0
M  V30 4787 O 453.916 0.901501 -1.72008 0
M  V30 4788 C 451.046 1.23237 -3.247 0
M  V30 4789 C 450 0.625818 -4.234 0
M  V30 4790 C 449.326 1.76674 -5.04669 0
M  V30 4791 C 450.626 -0.413515 -5.2066 0
M  V30 4792 H 452.32 -0.513184 -2.94969 0
M  V30 4793 H 449.866 -0.248241 -1.41844 0
M  V30 4794 H 451.819 1.75955 -3.82907 0
M  V30 4795 H 450.543 1.97067 -2.60446 0
M  V30 4796 H 449.202 0.120023 -3.66403 0
M  V30 4797 H 448.85 2.49383 -4.36826 0
M  V30 4798 H 448.55 1.36673 -5.71484 0
M  V30 4799 H 450.074 2.29738 -5.65732 0
M  V30 4800 H 451.488 0.0272042 -5.73294 0
M  V30 4801 H 449.885 -0.731825 -5.95621 0
M  V30 4802 H 450.955 -1.31325 -4.66778 0
M  V30 4803 N 452.299 1.55045 -0.282633 0
M  V30 4804 C 453.547 1.99365 0.331334 0
M  V30 4805 C 453.868 1.1725 1.55812 0
M  V30 4806 O 453.138 0.263871 1.94115 0
M  V30 4807 H 451.718 0.736397 0.125414 0
M  V30 4808 H 454.38 1.90964 -0.389711 0
M  V30 4809 H 453.476 3.0596 0.616036 0
M  V30 4810 N 453.777 0.010035 1.57597 0
M  V30 4811 C 455.025 -0.671371 1.90623 0
M  V30 4812 C 455.346 -1.73753 0.885151 0
M  V30 4813 O 454.616 -1.95752 -0.0760611 0
M  V30 4814 H 453.196 -0.250968 0.703579 0
M  V30 4815 H 455.858 0.0533325 1.94827 0
M  V30 4816 H 454.954 -1.13626 2.90681 0
M  V30 4817 N 455.255 -1.55392 -0.262866 0
M  V30 4818 C 456.187 -1.85392 -1.34768 0
M  V30 4819 C 457.2 -0.739069 -1.45057 0
M  V30 4820 O 458.389 -1.01703 -1.46693 0
M  V30 4821 C 455.489 -2.01088 -2.72795 0
M  V30 4822 C 454.662 -3.31828 -2.84972 0
M  V30 4823 C 453.721 -3.37464 -4.03738 0
M  V30 4824 O 452.747 -4.10778 -3.94018 0
M  V30 4825 N 453.949 -2.65599 -5.16176 0
M  V30 4826 H 456.714 -2.79029 -1.09375 0
M  V30 4827 H 454.275 -1.55434 -0.452981 0
M  V30 4828 H 456.267 -2.02217 -3.50557 0
M  V30 4829 H 454.837 -1.1427 -2.90966 0
M  V30 4830 H 454.057 -3.43152 -1.94012 0
M  V30 4831 H 455.345 -4.18032 -2.90045 0
M  V30 4832 H 454.743 -2.05736 -5.26962 0
M  V30 4833 H 453.3 -2.72439 -5.92132 0
M  V30 4834 N 456.733 0.527833 -1.48498 0
M  V30 4835 C 457.982 1.28003 -1.55878 0
M  V30 4836 C 458.295 1.9414 -0.238577 0
M  V30 4837 O 459.501 2.7083 -0.190643 0
M  V30 4838 C 457.957 2.32272 -2.74914 0
M  V30 4839 C 457.565 1.72196 -4.13585 0
M  V30 4840 C 459.309 3.08488 -2.91608 0
M  V30 4841 C 457.216 2.74417 -5.23879 0
M  V30 4842 H 456.146 0.481413 -0.580308 0
M  V30 4843 H 458.797 0.557195 -1.74836 0
M  V30 4844 H 457.179 3.07601 -2.49395 0
M  V30 4845 H 458.353 1.03041 -4.49132 0
M  V30 4846 H 456.668 1.08464 -4.02025 0
M  V30 4847 H 459.265 3.84879 -3.71177 0
M  V30 4848 H 459.608 3.64481 -2.01145 0
M  V30 4849 H 460.141 2.40274 -3.17038 0
M  V30 4850 H 456.88 2.23242 -6.16314 0
M  V30 4851 H 456.4 3.41893 -4.92818 0
M  V30 4852 H 458.079 3.37362 -5.52083 0
M  V30 4853 N 458.211 1.37122 0.776871 0
M  V30 4854 C 459.459 1.31787 1.53221 0
M  V30 4855 C 459.78 -0.0987589 1.9475 0
M  V30 4856 O 459.05 -1.0417 1.65908 0
M  V30 4857 H 457.63 0.484839 0.568278 0
M  V30 4858 H 460.292 1.71556 0.924917 0
M  V30 4859 H 459.388 1.95355 2.43398 0
M  V30 4860 N 459.689 -1.00246 1.21608 0
M  V30 4861 C 460.917 -1.77631 1.06089 0
M  V30 4862 C 461.332 -1.84746 -0.38916 0
M  V30 4863 O 460.689 -1.31068 -1.26994 0
M  V30 4864 C 460.74 -3.21415 1.65453 0
M  V30 4865 O 460.461 -3.14703 3.04785 0
M  V30 4866 C 461.962 -4.15289 1.55079 0
M  V30 4867 H 459.182 -0.558162 0.37242 0
M  V30 4868 H 461.726 -1.26093 1.60999 0
M  V30 4869 H 459.881 -3.70053 1.14629 0
M  V30 4870 H 460.295 -4.05056 3.33212 0
M  V30 4871 H 461.769 -5.13965 2.01355 0
M  V30 4872 H 462.246 -4.36279 0.505665 0
M  V30 4873 H 462.852 -3.72543 2.05163 0
M  V30 4874 N 461.167 -1.02423 -1.1978 0
M  V30 4875 C 462.414 -0.717988 -1.89344 0
M  V30 4876 C 462.742 0.753036 -1.79331 0
M  V30 4877 O 461.997 1.56355 -1.17692 0
M  V30 4878 C 462.296 -1.1088 -3.39765 0
M  V30 4879 C 461.962 -2.57731 -3.6998 0
M  V30 4880 C 460.624 -2.97854 -3.77937 0
M  V30 4881 C 462.976 -3.52763 -3.83677 0
M  V30 4882 C 460.304 -4.31931 -3.97054 0
M  V30 4883 C 462.656 -4.86538 -4.04306 0
M  V30 4884 C 461.32 -5.26356 -4.10494 0
M  V30 4885 H 460.59 -0.26273 -0.692859 0
M  V30 4886 H 463.237 -1.28623 -1.41875 0
M  V30 4887 H 461.542 -0.459094 -3.89101 0
M  V30 4888 H 463.239 -0.849432 -3.919 0
M  V30 4889 H 459.829 -2.25646 -3.64393 0
M  V30 4890 H 464.013 -3.2292 -3.76877 0
M  V30 4891 H 459.269 -4.62324 -4.00083 0
M  V30 4892 H 463.443 -5.60093 -4.13846 0
M  V30 4893 H 461.07 -6.3026 -4.2506 0
M  V30 4894 N 462.645 1.35699 -0.801477 0
M  V30 4895 C 463.608 2.28199 -0.213994 0
M  V30 4896 C 464.608 1.49359 0.595691 0
M  V30 4897 O 465.798 1.69186 0.414921 0
M  V30 4898 C 462.93 3.33587 0.702297 0
M  V30 4899 H 464.123 2.81666 -1.02976 0
M  V30 4900 H 461.676 1.45467 -0.571759 0
M  V30 4901 H 462.411 2.85297 1.54195 0
M  V30 4902 H 462.196 3.91906 0.123484 0
M  V30 4903 H 463.686 4.02638 1.10783 0
M  V30 4904 N 464.123 0.554532 1.47522 0
M  V30 4905 C 465.372 0.0273458 2.01681 0
M  V30 4906 C 465.685 -1.32962 1.43459 0
M  V30 4907 O 466.891 -1.94657 1.89265 0
M  V30 4908 C 465.347 -0.00159057 3.599 0
M  V30 4909 C 464.955 1.35197 4.27113 0
M  V30 4910 C 466.699 -0.476311 4.21819 0
M  V30 4911 C 464.606 1.28229 5.77331 0
M  V30 4912 H 463.536 0.00645269 0.753972 0
M  V30 4913 H 466.187 0.701985 1.69542 0
M  V30 4914 H 464.569 -0.741821 3.8899 0
M  V30 4915 H 465.743 2.1097 4.09668 0
M  V30 4916 H 464.058 1.76441 3.77171 0
M  V30 4917 H 466.655 -0.5468 5.31897 0
M  V30 4918 H 466.998 -1.4877 3.8881 0
M  V30 4919 H 467.531 0.20898 3.97251 0
M  V30 4920 H 464.27 2.26959 6.14955 0
M  V30 4921 H 463.79 0.566314 5.97121 0
M  V30 4922 H 465.469 0.983226 6.39485 0
M  V30 4923 N 465.601 -1.54893 0.290851 0
M  V30 4924 C 466.549 -2.24579 -0.605576 0
M  V30 4925 C 467.543 -1.24824 -1.14522 0
M  V30 4926 O 468.749 -1.42706 -1.09704 0
M  V30 4927 H 465.124 -0.720946 -0.213872 0
M  V30 4928 H 467.095 -2.984 0.0048173 0
M  V30 4929 C 465.844 -2.99224 -1.77088 0
M  V30 4930 H 465.167 -3.75782 -1.36484 0
M  V30 4931 H 466.607 -3.51281 -2.3744 0
M  V30 4932 C 465.066 -2.05602 -2.66888 0
M  V30 4933 O 465.596 -1.61745 -3.67698 0
M  V30 4934 N 463.802 -1.71771 -2.34399 0
M  V30 4935 H 463.349 -2.07633 -1.52468 0
M  V30 4936 H 463.307 -1.09403 -2.94751 0
M  V30 4937 N 467.08 -0.0183926 -1.57589 0
M  V30 4938 C 468.327 0.662562 -1.91354 0
M  V30 4939 C 468.655 1.72747 -0.893788 0
M  V30 4940 O 467.91 1.9545 0.0988509 0
M  V30 4941 C 468.209 1.32676 -3.31861 0
M  V30 4942 C 467.875 0.393267 -4.49182 0
M  V30 4943 C 466.537 0.136302 -4.81007 0
M  V30 4944 C 468.889 -0.248366 -5.20608 0
M  V30 4945 C 466.217 -0.770282 -5.81621 0
M  V30 4946 C 468.569 -1.14294 -6.22189 0
M  V30 4947 C 467.233 -1.4089 -6.52462 0
M  V30 4948 H 466.503 0.242448 -0.700214 0
M  V30 4949 H 469.15 -0.0778629 -1.91342 0
M  V30 4950 H 467.455 2.14168 -3.28084 0
M  V30 4951 H 469.152 1.86001 -3.55253 0
M  V30 4952 H 465.742 0.603723 -4.24327 0
M  V30 4953 H 469.926 -0.062883 -4.9626 0
M  V30 4954 H 465.182 -0.984154 -6.03427 0
M  V30 4955 H 469.356 -1.64637 -6.76659 0
M  V30 4956 H 466.983 -2.11306 -7.30242 0
M  V30 4957 N 468.558 1.5553 0.254621 0
M  V30 4958 C 469.783 1.81383 1.00573 0
M  V30 4959 C 470.208 0.594419 1.78461 0
M  V30 4960 O 469.566 -0.456403 1.75461 0
M  V30 4961 C 469.614 3.04892 1.92545 0
M  V30 4962 O 468.718 2.81266 3.01601 0
M  V30 4963 H 468.059 0.598969 0.286587 0
M  V30 4964 H 470.589 2.02703 0.277952 0
M  V30 4965 H 470.599 3.34119 2.34155 0
M  V30 4966 H 469.274 3.93287 1.3527 0
M  V30 4967 H 467.851 2.63185 2.64174 0
M  V30 4968 N 470.036 -0.519951 1.48776 0
M  V30 4969 C 471.452 -0.849418 1.35119 0
M  V30 4970 C 471.652 -1.98077 0.36982 0
M  V30 4971 O 470.708 -2.51664 -0.205359 0
M  V30 4972 C 472.021 -1.20748 2.75391 0
M  V30 4973 C 473.569 -1.31679 2.83954 0
M  V30 4974 C 474.044 -1.70824 4.24951 0
M  V30 4975 N 475.535 -1.77908 4.27672 0
M  V30 4976 C 476.27 -2.09603 5.33717 0
M  V30 4977 N 475.766 -2.39652 6.5003 0
M  V30 4978 N 477.559 -2.10694 5.21119 0
M  V30 4979 H 469.71 0.226377 2.1119 0
M  V30 4980 H 471.973 0.0386519 0.947212 0
M  V30 4981 H 471.679 -0.449703 3.48813 0
M  V30 4982 H 471.553 -2.15534 3.09556 0
M  V30 4983 H 473.94 -2.06532 2.10781 0
M  V30 4984 H 474.021 -0.3499 2.53396 0
M  V30 4985 H 473.665 -0.965282 4.98643 0
M  V30 4986 H 473.595 -2.6858 4.52959 0
M  V30 4987 H 476.086 -1.56923 3.43779 0
M  V30 4988 H 476.399 -2.6297 7.26682 0
M  V30 4989 H 474.744 -2.37149 6.53288 0
M  V30 4990 H 477.935 -1.86682 4.29264 0
M  V30 4991 H 478.108 -2.35062 6.03863 0
M  V30 4992 N 471.514 -1.37532 -0.769588 0
M  V30 4993 C 472.925 -1.29382 -1.346 0
M  V30 4994 C 473.276 0.0576039 -1.96115 0
M  V30 4995 O 472.401 0.95947 -1.93967 0
M  V30 4996 C 472.996 -2.34298 -2.44724 0
M  V30 4997 C 471.555 -2.29776 -2.98128 0
M  V30 4998 C 470.702 -2.18013 -1.71364 0
M  V30 4999 H 473.653 -1.48123 -0.56968 0
M  V30 5000 H 473.674 -1.99089 -3.24259 0
M  V30 5001 H 473.186 -3.32645 -1.99922 0
M  V30 5002 H 471.287 -1.34959 -3.47299 0
M  V30 5003 H 471.4 -3.23276 -3.53595 0
M  V30 5004 H 469.764 -1.64595 -1.94372 0
M  V30 5005 H 470.547 -3.18278 -1.28662 0
M  V30 5006 N 472.992 0.995999 -1.22138 0
M  V30 5007 C 473.955 2.06711 -0.990109 0
M  V30 5008 C 474.955 1.60744 0.0422978 0
M  V30 5009 O 476.145 1.73095 -0.195895 0
M  V30 5010 C 473.277 3.37288 -0.49491 0
M  V30 5011 H 474.47 2.28661 -1.94047 0
M  V30 5012 H 472.023 1.16711 -1.03963 0
M  V30 5013 H 472.758 3.21022 0.459948 0
M  V30 5014 H 472.543 3.71986 -1.23971 0
M  V30 5015 H 474.033 4.16103 -0.353253 0
M  V30 5016 N 474.47 1.03057 1.19235 0
M  V30 5017 C 475.718 0.726581 1.88587 0
M  V30 5018 C 476.039 -0.747227 1.80115 0
M  V30 5019 O 475.309 -1.53849 1.21274 0
M  V30 5020 H 473.889 0.265768 0.698124 0
M  V30 5021 H 476.551 1.30516 1.44746 0
M  V30 5022 H 475.647 1.0224 2.94879 0
M  V30 5023 N 475.948 -1.35272 0.808662 0
M  V30 5024 C 476.88 -2.28507 0.178149 0
M  V30 5025 C 477.893 -1.50377 -0.623754 0
M  V30 5026 O 479.082 -1.72583 -0.455774 0
M  V30 5027 C 476.182 -3.30038 -0.769959 0
M  V30 5028 C 475.355 -4.37398 -0.0139749 0
M  V30 5029 C 474.414 -5.18775 -0.880875 0
M  V30 5030 O 473.44 -5.68236 -0.331059 0
M  V30 5031 N 474.642 -5.37087 -2.20267 0
M  V30 5032 H 477.407 -2.83255 0.979106 0
M  V30 5033 H 474.968 -1.47643 0.664308 0
M  V30 5034 H 476.96 -3.81371 -1.35418 0
M  V30 5035 H 475.53 -2.75789 -1.47171 0
M  V30 5036 H 474.75 -3.86971 0.751468 0
M  V30 5037 H 476.038 -5.06268 0.506965 0
M  V30 5038 H 475.436 -4.9855 -2.67328 0
M  V30 5039 H 473.993 -5.91593 -2.73608 0
M  V30 5040 N 477.426 -0.562348 -1.47226 0
M  V30 5041 C 478.672 -0.0402761 -2.0276 0
M  V30 5042 C 479.005 1.30823 -1.43523 0
M  V30 5043 O 478.28 1.85249 -0.592705 0
M  V30 5044 C 478.563 0.047311 -3.60069 0
M  V30 5045 C 478.416 -1.32865 -4.29729 0
M  V30 5046 C 479.735 0.758182 -4.3352 0
M  V30 5047 H 476.854 -0.0161105 -0.736824 0
M  V30 5048 H 479.496 -0.725628 -1.75598 0
M  V30 5049 H 477.646 0.630986 -3.83342 0
M  V30 5050 H 479.318 -1.95593 -4.17781 0
M  V30 5051 H 477.561 -1.90195 -3.89882 0
M  V30 5052 H 478.232 -1.22004 -5.38349 0
M  V30 5053 H 480.708 0.262546 -4.15271 0
M  V30 5054 H 479.584 0.78844 -5.43208 0
M  V30 5055 H 479.845 1.81537 -4.03109 0
M  V30 5056 N 478.904 1.54736 -0.299062 0
M  V30 5057 C 480.153 1.99279 0.311549 0
M  V30 5058 C 480.466 1.19107 1.55154 0
M  V30 5059 O 481.672 1.53908 2.23662 0
M  V30 5060 C 480.128 3.54768 0.605632 0
M  V30 5061 C 479.736 4.43746 -0.615914 0
M  V30 5062 C 481.48 4.07841 1.17754 0
M  V30 5063 C 479.387 5.90663 -0.29509 0
M  V30 5064 H 478.317 0.744359 0.120187 0
M  V30 5065 H 480.968 1.78919 -0.407464 0
M  V30 5066 H 479.35 3.71021 1.38419 0
M  V30 5067 H 480.524 4.39267 -1.39218 0
M  V30 5068 H 478.839 4.01434 -1.10633 0
M  V30 5069 H 481.436 5.15174 1.43179 0
M  V30 5070 H 481.779 3.58324 2.11918 0
M  V30 5071 H 482.312 3.95123 0.460739 0
M  V30 5072 H 479.051 6.44325 -1.20524 0
M  V30 5073 H 478.571 5.98155 0.44394 0
M  V30 5074 H 480.25 6.46916 0.104048 0
M  V30 5075 N 480.382 0.0267497 1.57577 0
M  V30 5076 C 481.345 -0.940916 2.08996 0
M  V30 5077 C 482.345 -1.25561 1.00455 0
M  V30 5078 O 483.535 -1.19634 1.26623 0
M  V30 5079 C 480.667 -2.25814 2.55384 0
M  V30 5080 H 481.86 -0.495628 2.95776 0
M  V30 5081 H 479.413 -0.221241 1.54726 0
M  V30 5082 H 480.148 -2.74976 1.71926 0
M  V30 5083 H 479.933 -2.04285 3.34679 0
M  V30 5084 H 481.423 -2.95178 2.95398 0
M  V30 5085 N 481.861 -1.55662 -0.24637 0
M  V30 5086 C 482.793 -1.86811 -1.32794 0
M  V30 5087 C 483.806 -0.754413 -1.44265 0
M  V30 5088 O 484.995 -1.03253 -1.45606 0
M  V30 5089 C 482.095 -2.0397 -2.70646 0
M  V30 5090 C 481.268 -3.34832 -2.81436 0
M  V30 5091 C 480.327 -3.41727 -4.00136 0
M  V30 5092 O 479.353 -4.14934 -3.89639 0
M  V30 5093 N 480.555 -2.71058 -5.1333 0
M  V30 5094 H 483.32 -2.80174 -1.06409 0
M  V30 5095 H 480.881 -1.55906 -0.43647 0
M  V30 5096 H 482.873 -2.05924 -3.48393 0
M  V30 5097 H 481.443 -1.1735 -2.89738 0
M  V30 5098 H 480.663 -3.4519 -1.90361 0
M  V30 5099 H 481.951 -4.21085 -2.85595 0
M  V30 5100 H 481.349 -2.11314 -5.2475 0
M  V30 5101 H 479.906 -2.78704 -5.89209 0
M  V30 5102 N 483.339 0.512053 -1.4905 0
M  V30 5103 C 484.569 1.28928 -1.61434 0
M  V30 5104 C 484.977 1.87107 -0.280647 0
M  V30 5105 O 484.32 1.68024 0.742537 0
M  V30 5106 C 484.382 2.466 -2.61588 0
M  V30 5107 C 484.046 2.09375 -4.06216 0
M  V30 5108 C 485.043 1.63994 -4.93358 0
M  V30 5109 C 482.728 2.19348 -4.51876 0
M  V30 5110 C 484.722 1.29076 -6.24194 0
M  V30 5111 C 482.409 1.84041 -5.82728 0
M  V30 5112 C 483.407 1.38978 -6.68711 0
M  V30 5113 O 483.095 1.04144 -7.97126 0
M  V30 5114 H 482.827 0.397668 -0.546659 0
M  V30 5115 H 485.381 0.622507 -1.9574 0
M  V30 5116 H 483.611 3.16318 -2.22441 0
M  V30 5117 H 485.3 3.08642 -2.63619 0
M  V30 5118 H 486.066 1.55744 -4.59313 0
M  V30 5119 H 481.945 2.53376 -3.85125 0
M  V30 5120 H 485.489 0.938303 -6.91261 0
M  V30 5121 H 481.386 1.91938 -6.16304 0
M  V30 5122 H 482.154 1.17387 -8.10039 0
M  V30 5123 N 484.817 1.37938 0.762283 0
M  V30 5124 C 486.047 1.36685 1.54922 0
M  V30 5125 C 486.455 -0.0474099 1.89141 0
M  V30 5126 O 485.798 -1.02213 1.52638 0
M  V30 5127 C 485.86 2.14963 2.88152 0
M  V30 5128 C 485.524 3.6385 2.76518 0
M  V30 5129 C 486.521 4.57531 2.46904 0
M  V30 5130 C 484.206 4.07095 2.94243 0
M  V30 5131 C 486.2 5.92436 2.35156 0
M  V30 5132 C 483.887 5.42083 2.82116 0
M  V30 5133 C 484.885 6.34567 2.52614 0
M  V30 5134 O 484.573 7.67073 2.40529 0
M  V30 5135 H 484.305 0.469586 0.486276 0
M  V30 5136 H 486.859 1.82012 0.951876 0
M  V30 5137 H 485.089 1.6434 3.50042 0
M  V30 5138 H 486.778 2.06224 3.49609 0
M  V30 5139 H 487.544 4.25428 2.32886 0
M  V30 5140 H 483.423 3.35462 3.16206 0
M  V30 5141 H 486.967 6.64591 2.12049 0
M  V30 5142 H 482.864 5.73785 2.95704 0
M  V30 5143 H 483.632 7.77499 2.55807 0
M  V30 5144 N 486.295 -0.989507 1.22664 0
M  V30 5145 C 487.205 -2.11449 1.01619 0
M  V30 5146 C 488.221 -1.73962 -0.036545 0
M  V30 5147 O 489.397 -2.00788 0.156924 0
M  V30 5148 C 486.462 -3.41465 0.600204 0
M  V30 5149 C 485.523 -3.93033 1.72695 0
M  V30 5150 C 484.756 -5.16844 1.33071 0
M  V30 5151 O 484.979 -5.7001 0.210975 0
M  V30 5152 O 483.913 -5.6225 2.14845 0
M  V30 5153 H 487.739 -2.32088 1.9588 0
M  V30 5154 H 485.324 -1.09823 1.01289 0
M  V30 5155 H 487.206 -4.19695 0.37873 0
M  V30 5156 H 485.881 -3.22178 -0.313511 0
M  V30 5157 H 484.788 -3.15961 2.00298 0
M  V30 5158 H 486.121 -4.16758 2.61865 0
M  V30 5159 N 487.773 -1.03688 -1.18687 0
M  V30 5160 C 489.02 -0.73803 -1.88572 0
M  V30 5161 C 489.348 0.733973 -1.8012 0
M  V30 5162 O 488.603 1.55098 -1.19344 0
M  V30 5163 C 488.902 -1.14477 -3.3857 0
M  V30 5164 C 488.568 -2.61641 -3.67226 0
M  V30 5165 C 487.23 -3.01846 -3.74757 0
M  V30 5166 C 489.582 -3.56812 -3.79914 0
M  V30 5167 C 486.91 -4.36118 -3.92451 0
M  V30 5168 C 489.262 -4.90799 -3.99123 0
M  V30 5169 C 487.926 -5.3068 -4.04888 0
M  V30 5170 H 487.196 -0.270064 -0.690034 0
M  V30 5171 H 489.843 -1.3012 -1.40503 0
M  V30 5172 H 488.148 -0.500337 -3.88592 0
M  V30 5173 H 489.845 -0.89095 -3.90977 0
M  V30 5174 H 486.435 -2.29498 -3.61979 0
M  V30 5175 H 490.619 -3.26899 -3.73431 0
M  V30 5176 H 485.875 -4.66542 -3.95157 0
M  V30 5177 H 490.049 -5.64451 -4.07882 0
M  V30 5178 H 487.676 -6.34733 -4.18351 0
M  V30 5179 N 489.251 1.34841 -0.815825 0
M  V30 5180 C 490.181 2.32187 -0.247298 0
M  V30 5181 C 491.162 1.5791 0.632344 0
M  V30 5182 O 492.347 1.8593 0.560698 0
M  V30 5183 C 489.477 3.42122 0.597466 0
M  V30 5184 C 488.431 4.27602 -0.184446 0
M  V30 5185 C 487.757 5.28942 0.782609 0
M  V30 5186 C 489.057 5.03502 -1.38865 0
M  V30 5187 H 490.751 2.79985 -1.06061 0
M  V30 5188 H 488.297 1.34611 -0.511461 0
M  V30 5189 H 490.25 4.09232 1.00533 0
M  V30 5190 H 488.974 2.92956 1.44376 0
M  V30 5191 H 487.633 3.62085 -0.573592 0
M  V30 5192 H 487.281 4.7604 1.62466 0
M  V30 5193 H 486.981 5.87008 0.263695 0
M  V30 5194 H 488.505 5.98922 1.18848 0
M  V30 5195 H 489.919 5.63506 -1.05518 0
M  V30 5196 H 488.316 5.71108 -1.8427 0
M  V30 5197 H 489.386 4.33608 -2.17054 0
M  V30 5198 N 490.729 0.570148 1.46925 0
M  V30 5199 C 492.145 0.23087 1.57921 0
M  V30 5200 C 492.345 -1.26676 1.56702 0
M  V30 5201 O 491.401 -2.04774 1.47729 0
M  V30 5202 C 492.714 0.868973 2.8787 0
M  V30 5203 C 494.262 0.841397 3.01479 0
M  V30 5204 C 494.737 1.45881 4.34146 0
M  V30 5205 N 496.228 1.42258 4.40814 0
M  V30 5206 C 496.963 1.8698 5.42057 0
M  V30 5207 N 496.459 2.39618 6.50042 0
M  V30 5208 N 498.252 1.77972 5.33181 0
M  V30 5209 H 490.403 1.54301 1.45962 0
M  V30 5210 H 492.666 0.644224 0.69547 0
M  V30 5211 H 492.372 1.922 2.94537 0
M  V30 5212 H 492.246 0.369682 3.75384 0
M  V30 5213 H 494.633 -0.202973 2.94401 0
M  V30 5214 H 494.714 1.37858 2.15474 0
M  V30 5215 H 494.358 2.50231 4.4198 0
M  V30 5216 H 494.288 0.896958 5.18905 0
M  V30 5217 H 496.779 1.03768 3.63374 0
M  V30 5218 H 497.092 2.71633 7.23488 0
M  V30 5219 H 495.437 2.43636 6.50897 0
M  V30 5220 H 498.628 1.36617 4.4772 0
M  V30 5221 H 498.801 2.13143 6.11943 0
M  V30 5222 N 492.207 -1.54576 0.307264 0
M  V30 5223 C 493.137 -2.26708 -0.55907 0
M  V30 5224 C 494.118 -1.26893 -1.1328 0
M  V30 5225 O 495.303 -1.55677 -1.16097 0
M  V30 5226 C 492.433 -3.01259 -1.72801 0
M  V30 5227 C 491.387 -4.08275 -1.28435 0
M  V30 5228 C 490.713 -4.70575 -2.53895 0
M  V30 5229 C 492.013 -5.2068 -0.411038 0
M  V30 5230 H 493.707 -2.9937 0.042576 0
M  V30 5231 H 491.253 -1.43983 0.0219173 0
M  V30 5232 H 493.206 -3.50444 -2.34023 0
M  V30 5233 H 491.93 -2.26187 -2.356 0
M  V30 5234 H 490.589 -3.59949 -0.695161 0
M  V30 5235 H 490.237 -3.92136 -3.15021 0
M  V30 5236 H 489.937 -5.42854 -2.24908 0
M  V30 5237 H 491.461 -5.22527 -3.15908 0
M  V30 5238 H 492.875 -5.65721 -0.929097 0
M  V30 5239 H 491.272 -5.99716 -0.214664 0
M  V30 5240 H 492.342 -4.81629 0.562287 0
M  V30 5241 N 493.685 -0.035106 -1.57561 0
M  V30 5242 C 494.933 0.64096 -1.91667 0
M  V30 5243 C 495.254 1.72323 -0.912681 0
M  V30 5244 O 494.524 1.95849 0.0449089 0
M  V30 5245 H 493.104 0.239743 -0.707483 0
M  V30 5246 H 495.766 -0.084321 -1.94718 0
M  V30 5247 H 494.862 1.08987 -2.92452 0
M  V30 5248 N 495.163 1.55791 0.238111 0
M  V30 5249 C 496.579 1.48411 0.587045 0
M  V30 5250 C 496.779 0.72702 1.87927 0
M  V30 5251 O 495.835 0.259942 2.51158 0
M  V30 5252 C 497.148 2.92873 0.681623 0
M  V30 5253 C 498.696 3.03295 0.773363 0
M  V30 5254 C 499.171 4.49082 0.899428 0
M  V30 5255 N 500.662 4.53056 0.964075 0
M  V30 5256 C 501.397 5.63117 1.08104 0
M  V30 5257 N 500.893 6.82969 1.16299 0
M  V30 5258 N 502.686 5.50933 1.11488 0
M  V30 5259 H 494.837 2.0345 -0.610076 0
M  V30 5260 H 497.1 0.924034 -0.211813 0
M  V30 5261 H 496.806 3.51142 -0.19802 0
M  V30 5262 H 496.68 3.43851 1.55069 0
M  V30 5263 H 499.067 2.45101 1.64346 0
M  V30 5264 H 499.148 2.55513 -0.121034 0
M  V30 5265 H 498.792 5.07889 0.0338586 0
M  V30 5266 H 498.722 4.94553 1.809 0
M  V30 5267 H 501.213 3.66737 0.91173 0
M  V30 5268 H 501.526 7.62598 1.25155 0
M  V30 5269 H 499.871 6.85712 1.13241 0
M  V30 5270 H 503.062 4.56231 1.0474 0
M  V30 5271 H 503.235 6.36743 1.20259 0
M  V30 5272 N 496.642 -0.504142 1.49319 0
M  V30 5273 C 497.552 -1.63248 1.68486 0
M  V30 5274 C 498.568 -1.64488 0.567432 0
M  V30 5275 O 499.744 -1.82966 0.841749 0
M  V30 5276 C 496.809 -2.99627 1.74426 0
M  V30 5277 C 495.87 -3.09039 2.97982 0
M  V30 5278 C 495.103 -4.38913 3.0363 0
M  V30 5279 O 495.326 -5.27528 2.16958 0
M  V30 5280 O 494.26 -4.53231 3.96062 0
M  V30 5281 H 498.086 -1.50008 2.64067 0
M  V30 5282 H 495.671 -0.680086 1.33023 0
M  V30 5283 H 497.553 -3.80689 1.80705 0
M  V30 5284 H 496.228 -3.13136 0.820233 0
M  V30 5285 H 495.135 -2.27177 2.97223 0
M  V30 5286 H 496.468 -3.00456 3.89855 0
M  V30 5287 N 498.12 -1.38341 -0.754957 0
M  V30 5288 C 499.368 -1.34208 -1.51105 0
M  V30 5289 C 499.689 0.0677634 -1.94882 0
M  V30 5290 O 498.959 1.01517 -1.67544 0
M  V30 5291 H 497.539 -0.493819 -0.560493 0
M  V30 5292 H 500.201 -1.73005 -0.897507 0
M  V30 5293 H 499.297 -1.99203 -2.4026 0
M  V30 5294 N 499.598 0.982988 -1.23187 0
M  V30 5295 C 500.828 1.75666 -1.08743 0
M  V30 5296 C 501.236 1.85662 0.364195 0
M  V30 5297 O 500.579 1.33317 1.26382 0
M  V30 5298 C 500.641 3.20144 -1.63549 0
M  V30 5299 C 500.305 3.33665 -3.12277 0
M  V30 5300 C 501.302 3.20194 -4.096 0
M  V30 5301 C 498.987 3.58397 -3.51933 0
M  V30 5302 C 500.981 3.31256 -5.44563 0
M  V30 5303 C 498.668 3.69098 -4.87042 0
M  V30 5304 C 499.666 3.55537 -5.83166 0
M  V30 5305 O 499.354 3.65864 -7.1582 0
M  V30 5306 H 499.086 0.558194 -0.381307 0
M  V30 5307 H 501.64 1.24387 -1.63454 0
M  V30 5308 H 499.87 3.72659 -1.03256 0
M  V30 5309 H 501.559 3.79262 -1.4462 0
M  V30 5310 H 502.325 3.00987 -3.80305 0
M  V30 5311 H 498.204 3.68025 -2.77631 0
M  V30 5312 H 501.748 3.20588 -6.19572 0
M  V30 5313 H 497.645 3.87814 -5.16014 0
M  V30 5314 H 498.413 3.82675 -7.23534 0
M  V30 5315 N 501.076 1.04316 1.18135 0
M  V30 5316 C 502.304 0.768117 1.92113 0
M  V30 5317 C 502.719 -0.675057 1.76319 0
M  V30 5318 O 502.076 -1.46038 1.09449 0
M  V30 5319 C 502.127 1.12808 3.43448 0
M  V30 5320 O 501.848 2.5146 3.58747 0
M  V30 5321 C 503.349 0.8779 4.3452 0
M  V30 5322 H 500.569 0.279937 0.609817 0
M  V30 5323 H 503.113 1.39149 1.49859 0
M  V30 5324 H 501.268 0.549623 3.83481 0
M  V30 5325 H 501.682 2.65313 4.52448 0
M  V30 5326 H 503.156 1.17959 5.39249 0
M  V30 5327 H 503.633 -0.187239 4.38801 0
M  V30 5328 H 504.239 1.43977 4.00188 0
M  V30 5329 N 502.554 -1.34406 0.822964 0
M  V30 5330 C 503.501 -2.29519 0.24284 0
M  V30 5331 C 504.471 -1.5359 -0.632397 0
M  V30 5332 O 505.656 -1.8196 -0.57403 0
M  V30 5333 C 502.796 -3.40032 -0.58925 0
M  V30 5334 C 501.909 -4.30899 0.308236 0
M  V30 5335 C 501.044 -5.28515 -0.533425 0
M  V30 5336 C 500.083 -6.1102 0.363444 0
M  V30 5337 N 499.22 -7.00725 -0.439147 0
M  V30 5338 H 504.06 -2.78537 1.05929 0
M  V30 5339 H 501.597 -1.3707 0.533872 0
M  V30 5340 H 503.555 -4.0279 -1.087 0
M  V30 5341 H 502.185 -2.92248 -1.37081 0
M  V30 5342 H 501.237 -3.69002 0.924203 0
M  V30 5343 H 502.549 -4.88717 0.997862 0
M  V30 5344 H 501.703 -5.96725 -1.09565 0
M  V30 5345 H 500.442 -4.71235 -1.25656 0
M  V30 5346 H 499.447 -5.41743 0.937812 0
M  V30 5347 H 500.672 -6.70381 1.08469 0
M  V30 5348 H 498.618 -6.45913 -1.14595 0
M  V30 5349 H 498.535 -7.55756 0.19209 0
M  V30 5350 H 499.803 -7.73263 -0.984124 0
M  V30 5351 N 504.032 -0.577932 -1.46621 0
M  V30 5352 C 505.278 -0.0617793 -2.02706 0
M  V30 5353 C 505.611 1.29294 -1.44903 0
M  V30 5354 O 504.886 1.8461 -0.61232 0
M  V30 5355 C 505.169 0.00911824 -3.60099 0
M  V30 5356 C 505.022 -1.37416 -4.28295 0
M  V30 5357 C 506.341 0.712159 -4.343 0
M  V30 5358 H 503.46 -0.0239246 -0.736612 0
M  V30 5359 H 506.102 -0.744211 -1.74818 0
M  V30 5360 H 504.252 0.590292 -3.83989 0
M  V30 5361 H 505.924 -2.00013 -4.15683 0
M  V30 5362 H 504.167 -1.94319 -3.87843 0
M  V30 5363 H 504.838 -1.27707 -5.37024 0
M  V30 5364 H 507.314 0.218486 -4.15526 0
M  V30 5365 H 506.19 0.730782 -5.44014 0
M  V30 5366 H 506.451 1.77251 -4.05012 0
M  V30 5367 N 505.51 1.54411 -0.315457 0
M  V30 5368 C 506.442 2.21527 0.588067 0
M  V30 5369 C 507.455 1.21263 1.08624 0
M  V30 5370 O 508.644 1.47777 1.00121 0
M  V30 5371 C 505.744 2.85963 1.81875 0
M  V30 5372 C 504.917 4.12291 1.46063 0
M  V30 5373 C 503.976 4.60396 2.54799 0
M  V30 5374 O 503.002 5.25265 2.19283 0
M  V30 5375 N 504.204 4.33935 3.85591 0
M  V30 5376 H 506.969 2.99697 0.013414 0
M  V30 5377 H 504.53 1.61308 -0.138295 0
M  V30 5378 H 506.522 3.15071 2.53993 0
M  V30 5379 H 505.092 2.11548 2.30144 0
M  V30 5380 H 504.312 3.90036 0.571445 0
M  V30 5381 H 505.6 4.9452 1.19695 0
M  V30 5382 H 504.998 3.81996 4.17248 0
M  V30 5383 H 503.555 4.67718 4.53964 0
M  V30 5384 N 506.988 0.0434614 1.5754 0
M  V30 5385 C 507.936 -0.951465 2.1225 0
M  V30 5386 C 508.93 -1.3274 1.05245 0
M  V30 5387 O 510.136 -1.30795 1.23663 0
M  V30 5388 H 506.511 -0.324667 0.678303 0
M  V30 5389 H 508.482 -0.464855 2.94757 0
M  V30 5390 C 507.231 -2.21972 2.67626 0
M  V30 5391 H 506.554 -1.93923 3.4962 0
M  V30 5392 H 507.994 -2.89765 3.09536 0
M  V30 5393 C 506.453 -2.95919 1.61038 0
M  V30 5394 O 506.983 -3.8857 1.01862 0
M  V30 5395 N 505.189 -2.58511 1.32741 0
M  V30 5396 H 504.736 -1.83244 1.81051 0
M  V30 5397 H 504.694 -3.08296 0.616531 0
M  V30 5398 N 508.466 -1.55915 -0.229846 0
M  V30 5399 C 509.429 -1.90914 -1.26824 0
M  V30 5400 C 510.429 -0.786999 -1.40225 0
M  V30 5401 O 511.619 -1.05484 -1.38632 0
M  V30 5402 C 508.751 -2.15264 -2.64337 0
M  V30 5403 H 509.944 -2.8378 -0.969998 0
M  V30 5404 H 507.497 -1.49069 -0.4699 0
M  V30 5405 H 508.232 -1.24923 -2.99274 0
M  V30 5406 H 508.017 -2.97005 -2.55989 0
M  V30 5407 H 509.507 -2.43467 -3.39284 0
M  V30 5408 N 509.944 0.496216 -1.49584 0
M  V30 5409 C 511.169 1.27865 -1.63295 0
M  V30 5410 C 511.594 1.85592 -0.306156 0
M  V30 5411 O 510.952 1.66092 0.726851 0
M  V30 5412 C 511 2.38128 -2.7079 0
M  V30 5413 O 510.104 3.42108 -2.30296 0
M  V30 5414 H 509.445 0.377279 -0.546403 0
M  V30 5415 H 511.975 0.593497 -1.95803 0
M  V30 5416 H 511.985 2.8382 -2.93104 0
M  V30 5417 H 510.66 1.95479 -3.67098 0
M  V30 5418 H 509.237 3.02301 -2.18331 0
M  V30 5419 N 511.423 1.38739 0.74761 0
M  V30 5420 C 512.653 1.3832 1.53464 0
M  V30 5421 C 513.061 -0.0273464 1.8918 0
M  V30 5422 O 512.404 -1.00588 1.53713 0
M  V30 5423 C 512.466 2.18007 2.85855 0
M  V30 5424 C 512.13 3.66762 2.72644 0
M  V30 5425 C 513.127 4.60124 2.42037 0
M  V30 5426 C 510.812 4.10193 2.89909 0
M  V30 5427 C 512.806 5.94897 2.28859 0
M  V30 5428 C 510.493 5.45045 2.7635 0
M  V30 5429 C 511.491 6.37211 2.45869 0
M  V30 5430 O 511.179 7.69581 2.3238 0
M  V30 5431 H 510.911 0.474718 0.481268 0
M  V30 5432 H 513.465 1.83012 0.932518 0
M  V30 5433 H 511.695 1.68043 3.48279 0
M  V30 5434 H 513.384 2.09921 3.47402 0
M  V30 5435 H 514.15 4.27874 2.28361 0
M  V30 5436 H 510.029 3.38797 3.1263 0
M  V30 5437 H 513.573 6.66802 2.04989 0
M  V30 5438 H 509.47 5.76889 2.89601 0
M  V30 5439 H 510.238 7.80169 2.47546 0
M  V30 5440 N 512.901 -0.976442 1.23707 0
M  V30 5441 C 513.833 -2.07212 0.979574 0
M  V30 5442 C 514.846 -1.6273 -0.0478528 0
M  V30 5443 O 516.035 -1.77506 0.18815 0
M  V30 5444 C 513.135 -3.35835 0.45479 0
M  V30 5445 C 512.308 -4.09268 1.54331 0
M  V30 5446 C 511.367 -5.16166 1.02271 0
M  V30 5447 O 510.393 -5.42827 1.71254 0
M  V30 5448 N 511.595 -5.80313 -0.147419 0
M  V30 5449 H 514.36 -2.29878 1.92292 0
M  V30 5450 H 511.921 -1.14343 1.14618 0
M  V30 5451 H 513.913 -4.04597 0.0914631 0
M  V30 5452 H 512.483 -3.10106 -0.394068 0
M  V30 5453 H 511.703 -3.34906 2.07923 0
M  V30 5454 H 512.991 -4.55095 2.27522 0
M  V30 5455 H 512.389 -5.61043 -0.724353 0
M  V30 5456 H 510.946 -6.50231 -0.451972 0
M  V30 5457 N 514.379 -1.04941 -1.1758 0
M  V30 5458 C 515.625 -0.759112 -1.88057 0
M  V30 5459 C 515.958 0.711918 -1.8068 0
M  V30 5460 O 515.233 1.52035 -1.21308 0
M  V30 5461 C 515.516 -1.237 -3.38187 0
M  V30 5462 C 515.369 -2.77078 -3.54327 0
M  V30 5463 C 516.688 -0.834014 -4.32125 0
M  V30 5464 H 513.807 -0.277237 -0.682868 0
M  V30 5465 H 516.449 -1.30296 -1.38286 0
M  V30 5466 H 514.599 -0.774337 -3.80705 0
M  V30 5467 H 516.271 -3.31449 -3.20842 0
M  V30 5468 H 514.514 -3.16477 -2.96689 0
M  V30 5469 H 515.185 -3.05577 -4.59703 0
M  V30 5470 H 517.661 -1.23228 -3.97434 0
M  V30 5471 H 516.537 -1.19603 -5.35711 0
M  V30 5472 H 516.798 0.262195 -4.41322 0
M  V30 5473 N 515.857 1.33968 -0.830081 0
M  V30 5474 C 516.82 2.27694 -0.26235 0
M  V30 5475 C 517.82 1.50589 0.563876 0
M  V30 5476 O 519.01 1.70028 0.378941 0
M  V30 5477 C 516.142 3.35002 0.63138 0
M  V30 5478 H 517.335 2.79419 -1.08928 0
M  V30 5479 H 514.888 1.44221 -0.602486 0
M  V30 5480 H 515.623 2.88504 1.48109 0
M  V30 5481 H 515.408 3.92079 0.0403276 0
M  V30 5482 H 516.898 4.04897 1.02217 0
M  V30 5483 N 517.335 0.585699 1.46312 0
M  V30 5484 C 518.298 -0.135673 2.28798 0
M  V30 5485 C 519.298 -0.815988 1.38558 0
M  V30 5486 O 520.488 -0.667487 1.60904 0
M  V30 5487 C 517.62 -1.20163 3.1902 0
M  V30 5488 H 518.813 0.589257 2.94054 0
M  V30 5489 H 516.366 0.343794 1.52472 0
M  V30 5490 H 517.101 -1.95804 2.58517 0
M  V30 5491 H 516.886 -0.718282 3.85465 0
M  V30 5492 H 518.376 -1.70749 3.81096 0
M  V30 5493 N 518.813 -1.54241 0.323641 0
M  V30 5494 C 520.043 -2.04687 -0.280464 0
M  V30 5495 C 520.451 -1.19939 -1.46326 0
M  V30 5496 O 519.794 -0.222872 -1.82343 0
M  V30 5497 C 519.856 -3.50978 -0.778123 0
M  V30 5498 C 519.52 -4.56127 0.282371 0
M  V30 5499 C 520.517 -5.07726 1.11847 0
M  V30 5500 C 518.202 -5.00451 0.430582 0
M  V30 5501 C 520.196 -6.02212 2.08851 0
M  V30 5502 C 517.883 -5.94752 1.40404 0
M  V30 5503 C 518.881 -6.45519 2.23147 0
M  V30 5504 O 518.569 -7.37968 3.1884 0
M  V30 5505 H 518.301 -0.673192 -0.0615473 0
M  V30 5506 H 520.855 -1.99999 0.467921 0
M  V30 5507 H 519.085 -3.53064 -1.57742 0
M  V30 5508 H 520.774 -3.84499 -1.30058 0
M  V30 5509 H 521.54 -4.74261 1.01496 0
M  V30 5510 H 517.419 -4.6055 -0.203569 0
M  V30 5511 H 520.963 -6.41761 2.73474 0
M  V30 5512 H 516.86 -6.27633 1.5082 0
M  V30 5513 H 517.628 -7.55841 3.14079 0
M  V30 5514 N 520.291 -0.0518155 -1.57515 0
M  V30 5515 C 521.221 0.920283 -2.146 0
M  V30 5516 C 522.202 1.32406 -1.06783 0
M  V30 5517 O 523.387 1.39866 -1.34726 0
M  V30 5518 C 520.517 2.1949 -2.6915 0
M  V30 5519 C 519.471 1.93116 -3.81956 0
M  V30 5520 C 518.797 3.27037 -4.23026 0
M  V30 5521 C 520.097 1.25225 -5.07066 0
M  V30 5522 H 521.791 0.444801 -2.96077 0
M  V30 5523 H 519.337 0.212508 -1.42423 0
M  V30 5524 H 521.29 2.87894 -3.07725 0
M  V30 5525 H 520.014 2.69244 -1.84865 0
M  V30 5526 H 518.673 1.27123 -3.43854 0
M  V30 5527 H 518.321 3.74595 -3.3569 0
M  V30 5528 H 518.021 3.10189 -4.99056 0
M  V30 5529 H 519.545 3.96673 -4.64202 0
M  V30 5530 H 520.959 1.83666 -5.43083 0
M  V30 5531 H 519.356 1.18702 -5.88243 0
M  V30 5532 H 520.426 0.228382 -4.84362 0
M  V30 5533 N 521.769 1.56035 0.221574 0
M  V30 5534 C 522.732 1.91584 1.2581 0
M  V30 5535 C 523.732 0.794425 1.39805 0
M  V30 5536 O 524.922 1.06217 1.38071 0
M  V30 5537 C 522.054 2.16663 2.63192 0
M  V30 5538 H 523.247 2.8429 0.954935 0
M  V30 5539 H 520.8 1.49316 0.461988 0
M  V30 5540 H 521.535 1.26508 2.98607 0
M  V30 5541 H 521.32 2.98358 2.5441 0
M  V30 5542 H 522.81 2.45262 3.37988 0
M  V30 5543 N 523.247 -0.488276 1.49845 0
M  V30 5544 C 524.524 -1.24959 1.50481 0
M  V30 5545 C 524.904 -2.09735 0.239698 0
M  V30 5546 O 524.252 -2.14865 -0.777524 0
M  V30 5547 C 524.462 -2.0954 2.79095 0
M  V30 5548 C 525.81 -2.68305 3.29086 0
M  V30 5549 O 526.834 -2.19797 2.80299 0
M  V30 5550 O 525.693 -3.56643 4.14087 0
M  V30 5551 H 522.787 -0.566133 0.602845 0
M  V30 5552 H 525.333 -0.501504 1.6212 0
M  V30 5553 H 524.105 -1.46958 3.62656 0
M  V30 5554 H 523.728 -2.91517 2.70377 0
M  V30 5555 N 524.725 -1.39134 -0.740242 0
M  V30 5556 C 525.635 -1.39697 -1.88473 0
M  V30 5557 C 526.651 -0.292403 -1.71526 0
M  V30 5558 O 527.827 -0.533021 -1.94219 0
M  V30 5559 C 524.892 -1.23382 -3.24003 0
M  V30 5560 C 523.953 -2.43763 -3.53381 0
M  V30 5561 C 523.186 -2.28216 -4.82445 0
M  V30 5562 O 523.409 -1.28288 -5.55786 0
M  V30 5563 O 522.343 -3.1709 -5.11603 0
M  V30 5564 H 526.169 -2.36159 -1.90952 0
M  V30 5565 H 523.754 -1.20194 -0.887346 0
M  V30 5566 H 525.636 -1.16395 -4.05006 0
M  V30 5567 H 524.311 -0.300121 -3.22306 0
M  V30 5568 H 523.218 -2.56325 -2.72485 0
M  V30 5569 H 524.551 -3.35808 -3.59852 0
M  V30 5570 N 526.204 0.969867 -1.24223 0
M  V30 5571 C 527.453 1.70687 -1.07466 0
M  V30 5572 C 527.766 1.91736 0.386861 0
M  V30 5573 O 528.972 2.62986 0.674581 0
M  V30 5574 C 527.428 3.07217 -1.87472 0
M  V30 5575 C 527.036 2.94018 -3.3802 0
M  V30 5576 C 528.78 3.84804 -1.79237 0
M  V30 5577 C 526.687 4.25844 -4.10379 0
M  V30 5578 H 525.617 0.640067 -0.398536 0
M  V30 5579 H 528.268 1.08092 -1.48285 0
M  V30 5580 H 526.65 3.70628 -1.39466 0
M  V30 5581 H 527.824 2.39632 -3.9359 0
M  V30 5582 H 526.139 2.29898 -3.47183 0
M  V30 5583 H 528.736 4.82417 -2.30603 0
M  V30 5584 H 529.079 4.09356 -0.757197 0
M  V30 5585 H 529.612 3.28115 -2.24912 0
M  V30 5586 H 526.351 4.06486 -5.14246 0
M  V30 5587 H 525.871 4.80054 -3.59594 0
M  V30 5588 H 527.55 4.94475 -4.17257 0
M  V30 5589 N 527.682 1.05563 1.17022 0
M  V30 5590 C 528.645 0.664098 2.19368 0
M  V30 5591 C 529.645 -0.286358 1.5823 0
M  V30 5592 O 530.835 -0.069728 1.7406 0
M  V30 5593 C 527.967 -0.0239932 3.40892 0
M  V30 5594 H 529.16 1.57 2.55521 0
M  V30 5595 H 526.713 0.849964 1.31169 0
M  V30 5596 H 527.448 -0.942988 3.10287 0
M  V30 5597 H 527.233 0.659351 3.86516 0
M  V30 5598 H 528.723 -0.283909 4.16634 0
M  V30 5599 N 529.16 -1.33526 0.837174 0
M  V30 5600 C 530.107 -2.29248 0.267169 0
M  V30 5601 C 531.077 -1.54252 -0.616071 0
M  V30 5602 O 532.262 -1.82559 -0.554699 0
M  V30 5603 C 529.402 -3.40638 -0.553152 0
M  V30 5604 C 528.515 -4.30548 0.353921 0
M  V30 5605 C 527.65 -5.29051 -0.477339 0
M  V30 5606 C 526.689 -6.106 0.42823 0
M  V30 5607 N 525.826 -7.01152 -0.364801 0
M  V30 5608 H 530.666 -2.77398 1.08877 0
M  V30 5609 H 528.203 -1.36496 0.54838 0
M  V30 5610 H 530.161 -4.03921 -1.04422 0
M  V30 5611 H 528.791 -2.93685 -1.33973 0
M  V30 5612 H 527.843 -3.68001 0.963289 0
M  V30 5613 H 529.155 -4.87631 1.04964 0
M  V30 5614 H 528.309 -5.97853 -1.0323 0
M  V30 5615 H 527.048 -4.72541 -1.2065 0
M  V30 5616 H 526.053 -5.40718 0.995219 0
M  V30 5617 H 527.278 -6.69193 1.15573 0
M  V30 5618 H 525.224 -6.47092 -1.07738 0
M  V30 5619 H 525.141 -7.5551 0.272238 0
M  V30 5620 H 526.409 -7.74263 -0.902054 0
M  V30 5621 N 530.638 -0.59345 -1.46 0
M  V30 5622 C 531.568 0.121192 -2.33185 0
M  V30 5623 C 532.549 0.872977 -1.4599 0
M  V30 5624 O 533.734 0.846321 -1.74789 0
M  V30 5625 C 530.864 1.12844 -3.28456 0
M  V30 5626 C 529.818 0.4908 -4.25177 0
M  V30 5627 C 529.144 1.60529 -5.10034 0
M  V30 5628 C 530.444 -0.578949 -5.19081 0
M  V30 5629 H 532.138 -0.606767 -2.93187 0
M  V30 5630 H 529.684 -0.293242 -1.40983 0
M  V30 5631 H 531.637 1.63684 -3.88311 0
M  V30 5632 H 530.361 1.88681 -2.66584 0
M  V30 5633 H 529.02 0.00339328 -3.666 0
M  V30 5634 H 528.668 2.35359 -4.44539 0
M  V30 5635 H 528.368 1.18422 -5.75543 0
M  V30 5636 H 529.892 2.11623 -5.72755 0
M  V30 5637 H 531.306 -0.155199 -5.7309 0
M  V30 5638 H 529.703 -0.920947 -5.92991 0
M  V30 5639 H 530.773 -1.46109 -4.62364 0
M  V30 5640 N 532.116 1.54067 -0.331816 0
M  V30 5641 C 533.364 2.00319 0.267739 0
M  V30 5642 C 533.685 1.22148 1.52003 0
M  V30 5643 O 532.955 0.325494 1.93177 0
M  V30 5644 H 531.535 0.740014 0.101922 0
M  V30 5645 H 534.197 1.89628 -0.450267 0
M  V30 5646 H 533.293 3.07765 0.518385 0
M  V30 5647 N 533.594 0.0601682 1.57485 0
M  V30 5648 C 535.005 -0.474217 1.80577 0
M  V30 5649 C 535.356 -1.70365 0.973147 0
M  V30 5650 O 534.481 -2.15544 0.192306 0
M  V30 5651 C 535.076 -0.867102 3.27516 0
M  V30 5652 C 533.635 -1.34642 3.51495 0
M  V30 5653 C 532.782 -0.32594 2.75378 0
M  V30 5654 H 535.733 0.285973 1.56102 0
M  V30 5655 H 535.754 -1.72938 3.38929 0
M  V30 5656 H 535.266 0.0278927 3.8809 0
M  V30 5657 H 533.367 -2.2603 2.96212 0
M  V30 5658 H 533.48 -1.33237 4.60201 0
M  V30 5659 H 531.844 -0.800749 2.41785 0
M  V30 5660 H 532.627 0.561125 3.38683 0
M  V30 5661 N 535.072 -1.5615 -0.213296 0
M  V30 5662 C 536.302 -1.83372 -0.951757 0
M  V30 5663 C 536.71 -0.638158 -1.78113 0
M  V30 5664 O 536.053 0.402609 -1.79234 0
M  V30 5665 C 536.115 -3.04444 -1.91192 0
M  V30 5666 C 535.779 -4.39107 -1.26627 0
M  V30 5667 C 536.776 -5.15794 -0.652087 0
M  V30 5668 C 534.461 -4.85834 -1.27556 0
M  V30 5669 C 536.455 -6.37376 -0.055814 0
M  V30 5670 C 534.142 -6.07356 -0.675451 0
M  V30 5671 C 535.14 -6.82967 -0.0666367 0
M  V30 5672 O 534.828 -8.0219 0.524119 0
M  V30 5673 H 534.56 -0.613398 -0.284111 0
M  V30 5674 H 537.114 -2.04096 -0.231112 0
M  V30 5675 H 535.344 -2.79559 -2.67178 0
M  V30 5676 H 537.033 -3.18466 -2.51662 0
M  V30 5677 H 537.799 -4.80796 -0.637172 0
M  V30 5678 H 533.678 -4.26949 -1.73883 0
M  V30 5679 H 537.222 -6.96334 0.420004 0
M  V30 5680 H 533.119 -6.41825 -0.687806 0
M  V30 5681 H 533.887 -8.17426 0.419243 0
M  V30 5682 N 536.55 0.480323 -1.50102 0
M  V30 5683 C 537.46 1.60547 -1.71061 0
M  V30 5684 C 538.476 1.63564 -0.593529 0
M  V30 5685 O 539.652 1.81604 -0.870751 0
M  V30 5686 C 536.717 2.96814 -1.79171 0
M  V30 5687 C 535.778 3.04259 -3.02861 0
M  V30 5688 C 535.011 4.34027 -3.10574 0
M  V30 5689 O 535.234 5.24009 -2.25323 0
M  V30 5690 O 534.168 4.46873 -4.03223 0
M  V30 5691 H 537.994 1.45788 -2.6642 0
M  V30 5692 H 535.579 0.658838 -1.34088 0
M  V30 5693 H 537.461 3.77765 -1.86738 0
M  V30 5694 H 536.136 3.11791 -0.869947 0
M  V30 5695 H 535.043 2.22419 -3.008 0
M  V30 5696 H 536.376 2.94216 -3.94586 0
M  V30 5697 N 538.028 1.39524 0.732853 0
M  V30 5698 C 539.275 1.36865 1.49246 0
M  V30 5699 C 539.603 -0.0347118 1.94469 0
M  V30 5700 O 538.858 -1.01596 1.67262 0
M  V30 5701 C 539.157 2.28916 2.74468 0
M  V30 5702 C 538.823 3.76506 2.481 0
M  V30 5703 C 537.485 4.16721 2.40619 0
M  V30 5704 C 539.837 4.69846 2.25598 0
M  V30 5705 C 537.165 5.48334 2.08679 0
M  V30 5706 C 539.517 6.01739 1.95174 0
M  V30 5707 C 538.181 6.41015 1.86163 0
M  V30 5708 H 537.451 0.500824 0.546129 0
M  V30 5709 H 540.098 1.72047 0.840958 0
M  V30 5710 H 538.403 1.86859 3.4437 0
M  V30 5711 H 540.1 2.2415 3.32502 0
M  V30 5712 H 536.69 3.44635 2.54803 0
M  V30 5713 H 540.874 4.39608 2.30344 0
M  V30 5714 H 536.13 5.77685 2.00226 0
M  V30 5715 H 540.304 6.73591 1.76771 0
M  V30 5716 H 537.931 7.42917 1.61179 0
M  V30 5717 N 539.506 -0.963266 1.24736 0
M  V30 5718 C 540.755 -1.70115 1.08369 0
M  V30 5719 C 541.068 -1.91939 -0.376688 0
M  V30 5720 O 542.274 -2.6334 -0.660624 0
M  V30 5721 C 540.73 -3.06218 1.89099 0
M  V30 5722 C 540.338 -2.92221 3.39574 0
M  V30 5723 C 542.082 -3.83848 1.81275 0
M  V30 5724 C 539.989 -4.23662 4.12631 0
M  V30 5725 H 538.919 -0.637944 0.401924 0
M  V30 5726 H 541.57 -1.07304 1.48856 0
M  V30 5727 H 539.952 -3.69884 1.41429 0
M  V30 5728 H 541.126 -2.37541 3.94856 0
M  V30 5729 H 539.441 -2.28054 3.48397 0
M  V30 5730 H 542.038 -4.81188 2.33158 0
M  V30 5731 H 542.381 -4.08949 0.778895 0
M  V30 5732 H 542.914 -3.26918 2.26649 0
M  V30 5733 H 539.653 -4.03753 5.16395 0
M  V30 5734 H 539.173 -4.78141 3.62135 0
M  V30 5735 H 540.852 -4.92256 4.19873 0
M  V30 5736 N 540.985 -1.06182 -1.16461 0
M  V30 5737 C 542.225 -0.787048 -1.8864 0
M  V30 5738 C 542.589 0.674093 -1.79778 0
M  V30 5739 O 543.79 1.06341 -2.46871 0
M  V30 5740 C 542.061 -1.2666 -3.34203 0
M  V30 5741 S 543.62 -1.12071 -4.24247 0
M  V30 5742 H 540.438 -0.285539 -0.651144 0
M  V30 5743 H 543.04 -1.35851 -1.40587 0
M  V30 5744 H 541.744 -2.32496 -3.38192 0
M  V30 5745 H 541.275 -0.689841 -3.87304 0
M  V30 5746 H 543.29 -0.0509341 -4.96174 0
M  V30 5747 N 542.463 1.3308 -0.844243 0
M  V30 5748 C 543.691 2.01808 -0.456203 0
M  V30 5749 C 544.106 1.63498 0.944131 0
M  V30 5750 O 543.463 0.85102 1.61443 0
M  V30 5751 C 543.514 3.56922 -0.573513 0
M  V30 5752 O 543.235 3.93851 -1.91868 0
M  V30 5753 C 544.736 4.42922 -0.183125 0
M  V30 5754 H 541.956 0.646273 -0.180477 0
M  V30 5755 H 544.5 1.69891 -1.1383 0
M  V30 5756 H 542.655 3.87352 0.0607367 0
M  V30 5757 H 543.069 4.88564 -1.90802 0
M  V30 5758 H 544.543 5.51093 -0.316241 0
M  V30 5759 H 545.02 4.30386 0.875477 0
M  V30 5760 H 545.626 4.1786 -0.792027 0
M  V30 5761 N 543.941 0.601185 1.45683 0
M  V30 5762 C 545.189 0.0936957 2.01883 0
M  V30 5763 C 545.51 -1.2779 1.47291 0
M  V30 5764 O 544.78 -1.84279 0.664691 0
M  V30 5765 H 543.36 0.0316466 0.746329 0
M  V30 5766 H 546.022 0.781137 1.78562 0
M  V30 5767 H 545.118 0.0386297 3.12076 0
M  V30 5768 N 545.419 -1.53889 0.339982 0
M  V30 5769 C 546.835 -1.59595 -0.0120752 0
M  V30 5770 C 547.035 -1.35605 -1.49042 0
M  V30 5771 O 546.091 -1.14856 -2.24865 0
M  V30 5772 C 547.404 -2.9774 0.420898 0
M  V30 5773 C 548.952 -3.1077 0.37294 0
M  V30 5774 C 549.427 -4.51286 0.781327 0
M  V30 5775 N 550.918 -4.57325 0.735374 0
M  V30 5776 C 551.653 -5.64194 1.02336 0
M  V30 5777 N 551.149 -6.7893 1.37933 0
M  V30 5778 N 552.942 -5.54051 0.947838 0
M  V30 5779 H 545.093 -1.67738 1.30299 0
M  V30 5780 H 547.356 -0.785385 0.530918 0
M  V30 5781 H 547.062 -3.20349 1.45152 0
M  V30 5782 H 546.936 -3.76639 -0.205721 0
M  V30 5783 H 549.323 -2.87886 -0.648505 0
M  V30 5784 H 549.404 -2.33939 1.03472 0
M  V30 5785 H 549.048 -4.74905 1.80077 0
M  V30 5786 H 548.978 -5.26511 0.0970679 0
M  V30 5787 H 551.469 -3.74931 0.472773 0
M  V30 5788 H 551.782 -7.56392 1.58402 0
M  V30 5789 H 550.127 -6.80386 1.41774 0
M  V30 5790 H 553.318 -4.63293 0.669115 0
M  V30 5791 H 553.491 -6.37246 1.17563 0
M  V30 5792 N 546.897 -0.0685191 -1.57451 0
M  V30 5793 C 548.308 0.464634 -1.80826 0
M  V30 5794 C 548.659 1.69847 -0.982169 0
M  V30 5795 O 547.784 2.15439 -0.203734 0
M  V30 5796 C 548.379 0.849721 -3.27971 0
M  V30 5797 C 546.938 1.32776 -3.52204 0
M  V30 5798 C 546.085 0.311332 -2.75547 0
M  V30 5799 H 549.036 -0.294248 -1.55948 0
M  V30 5800 H 549.057 1.71138 -3.39841 0
M  V30 5801 H 548.569 -0.0484736 -3.8807 0
M  V30 5802 H 546.67 2.24456 -2.97406 0
M  V30 5803 H 546.783 1.30794 -4.60901 0
M  V30 5804 H 545.147 0.787915 -2.42206 0
M  V30 5805 H 545.93 -0.579078 -3.38381 0
M  V30 5806 N 548.375 1.56261 0.205012 0
M  V30 5807 C 549.652 1.70856 0.952233 0
M  V30 5808 C 550.032 0.620501 2.01775 0
M  V30 5809 O 549.38 -0.370035 2.25484 0
M  V30 5810 C 549.59 3.12807 1.54767 0
M  V30 5811 C 550.938 3.72733 2.0336 0
M  V30 5812 O 551.962 3.15873 1.64629 0
M  V30 5813 O 550.821 4.72501 2.746 0
M  V30 5814 H 547.915 0.696496 0.445895 0
M  V30 5815 H 550.461 1.6857 0.195489 0
M  V30 5816 H 549.233 3.83465 0.779132 0
M  V30 5817 H 548.856 3.1928 2.36951 0
M  V30 5818 N 549.853 -0.472356 1.50355 0
M  V30 5819 C 550.763 -1.59637 1.7191 0
M  V30 5820 C 551.779 -1.63247 0.602195 0
M  V30 5821 O 552.955 -1.81139 0.880369 0
M  V30 5822 C 550.02 -2.9586 1.80742 0
M  V30 5823 C 549.081 -3.02649 3.04471 0
M  V30 5824 C 548.314 -4.32374 3.12872 0
M  V30 5825 O 548.537 -5.22807 2.28099 0
M  V30 5826 O 547.471 -4.44728 4.05587 0
M  V30 5827 H 551.297 -1.44373 2.67189 0
M  V30 5828 H 548.882 -0.651717 1.34436 0
M  V30 5829 H 550.764 -3.7677 1.88739 0
M  V30 5830 H 549.439 -3.11325 0.88647 0
M  V30 5831 H 548.346 -2.20821 3.01975 0
M  V30 5832 H 549.679 -2.92119 3.9614 0
M  V30 5833 N 551.331 -1.39911 -0.725443 0
M  V30 5834 C 552.579 -1.37382 -1.48224 0
M  V30 5835 C 552.9 0.0264107 -1.94982 0
M  V30 5836 O 552.17 0.979408 -1.6966 0
M  V30 5837 H 550.75 -0.505596 -0.549892 0
M  V30 5838 H 553.412 -1.7487 -0.860608 0
M  V30 5839 H 552.508 -2.04254 -2.3598 0
M  V30 5840 N 552.809 0.956637 -1.25245 0
M  V30 5841 C 554.058 1.69537 -1.0927 0
M  V30 5842 C 554.371 1.92136 0.366503 0
M  V30 5843 O 555.577 2.63687 0.64665 0
M  V30 5844 C 554.033 3.05211 -1.9072 0
M  V30 5845 C 553.641 2.90416 -3.41119 0
M  V30 5846 C 555.385 3.82882 -1.83308 0
M  V30 5847 C 553.292 4.21468 -4.14872 0
M  V30 5848 H 552.222 0.635804 -0.405302 0
M  V30 5849 H 554.873 1.06513 -1.49423 0
M  V30 5850 H 553.255 3.69128 -1.43389 0
M  V30 5851 H 554.429 2.35444 -3.9611 0
M  V30 5852 H 552.744 2.26203 -3.49602 0
M  V30 5853 H 555.341 4.79944 -2.35706 0
M  V30 5854 H 555.684 4.0853 -0.800572 0
M  V30 5855 H 556.217 3.25711 -2.28379 0
M  V30 5856 H 552.956 4.01009 -5.18529 0
M  V30 5857 H 552.476 4.76213 -3.64665 0
M  V30 5858 H 554.155 4.90022 -4.22478 0
M  V30 5859 N 554.287 1.06798 1.15896 0
M  V30 5860 C 555.698 0.811355 1.68149 0
M  V30 5861 C 556.049 -0.664339 1.8461 0
M  V30 5862 O 555.174 -1.51485 1.54535 0
M  V30 5863 C 555.769 1.46624 3.05429 0
M  V30 5864 C 554.328 1.25726 3.54781 0
M  V30 5865 C 553.475 1.53949 2.3064 0
M  V30 5866 H 556.426 1.23078 1.00187 0
M  V30 5867 H 556.447 0.88437 3.7008 0
M  V30 5868 H 555.959 2.54025 2.93416 0
M  V30 5869 H 554.06 0.20322 3.72045 0
M  V30 5870 H 554.173 1.97354 4.36564 0
M  V30 5871 H 552.537 0.96025 2.35905 0
M  V30 5872 H 553.32 2.6252 2.2122 0
M  V30 5873 N 555.766 -1.3263 0.851289 0
M  V30 5874 C 556.729 -2.27247 0.298541 0
M  V30 5875 C 557.729 -1.51467 -0.539847 0
M  V30 5876 O 558.919 -1.7061 -0.351843 0
M  V30 5877 C 556.051 -3.35964 -0.578004 0
M  V30 5878 H 557.244 -2.7765 1.13359 0
M  V30 5879 H 554.797 -1.43245 0.625354 0
M  V30 5880 H 555.532 -2.90823 -1.435 0
M  V30 5881 H 555.317 -3.92094 0.0220539 0
M  V30 5882 H 556.807 -4.06472 -0.957626 0
M  V30 5883 N 557.244 -0.608902 -1.45362 0
M  V30 5884 C 558.49 -0.104762 -2.02529 0
M  V30 5885 C 558.823 1.26191 -1.47613 0
M  V30 5886 O 558.098 1.8327 -0.65134 0
M  V30 5887 C 558.381 -0.0672661 -3.60037 0
M  V30 5888 C 558.234 -1.4647 -4.25284 0
M  V30 5889 C 559.553 0.619877 -4.35713 0
M  V30 5890 H 556.672 -0.0395438 -0.735938 0
M  V30 5891 H 559.314 -0.781126 -1.73201 0
M  V30 5892 H 557.464 0.50871 -3.85155 0
M  V30 5893 H 559.136 -2.08785 -4.11347 0
M  V30 5894 H 557.379 -2.02502 -3.83634 0
M  V30 5895 H 558.05 -1.39069 -5.34195 0
M  V30 5896 H 560.526 0.130297 -4.15896 0
M  V30 5897 H 559.402 0.615224 -5.45441 0
M  V30 5898 H 559.663 1.68621 -4.0868 0
M  V30 5899 N 558.722 1.53707 -0.348139 0
M  V30 5900 C 559.962 2.02899 0.247254 0
M  V30 5901 C 560.326 1.23033 1.47401 0
M  V30 5902 O 561.527 1.62146 2.14388 0
M  V30 5903 C 559.798 3.53156 0.549151 0
M  V30 5904 S 561.357 4.24247 1.1207 0
M  V30 5905 H 558.175 0.707213 0.0732894 0
M  V30 5906 H 560.777 1.89338 -0.486965 0
M  V30 5907 H 559.481 4.08893 -0.351435 0
M  V30 5908 H 559.012 3.70845 1.31291 0
M  V30 5909 H 561.027 4.33958 2.40613 0
M  V30 5910 N 560.2 0.0768682 1.57412 0
M  V30 5911 C 561.447 -0.591085 1.93681 0
M  V30 5912 C 561.775 -1.69311 0.957286 0
M  V30 5913 O 561.03 -1.95682 -0.0262428 0
M  V30 5914 C 561.329 -1.20268 3.36557 0
M  V30 5915 C 560.995 -0.226286 4.50332 0
M  V30 5916 C 559.657 0.0423142 4.81181 0
M  V30 5917 C 562.009 0.441415 5.19327 0
M  V30 5918 C 559.337 0.985616 5.78362 0
M  V30 5919 C 561.689 1.37307 6.17519 0
M  V30 5920 C 560.353 1.65009 6.46783 0
M  V30 5921 H 559.623 -0.216293 0.70873 0
M  V30 5922 H 562.27 0.148824 1.90921 0
M  V30 5923 H 560.575 -2.01844 3.35807 0
M  V30 5924 H 562.272 -1.72688 3.61911 0
M  V30 5925 H 558.862 -0.445821 4.26275 0
M  V30 5926 H 563.046 0.247023 4.95685 0
M  V30 5927 H 558.302 1.20743 5.99359 0
M  V30 5928 H 562.476 1.89637 6.70083 0
M  V30 5929 H 560.103 2.38263 7.21897 0
M  V30 5930 N 561.678 -1.56367 -0.196722 0
M  V30 5931 C 562.625 -1.94417 -1.24382 0
M  V30 5932 C 563.595 -0.804543 -1.45315 0
M  V30 5933 O 564.78 -1.06256 -1.58475 0
M  V30 5934 C 561.92 -2.28757 -2.58388 0
M  V30 5935 C 561.033 -3.55775 -2.45047 0
M  V30 5936 C 560.168 -3.79445 -3.71746 0
M  V30 5937 C 559.207 -4.99894 -3.53231 0
M  V30 5938 N 558.344 -5.19826 -4.71938 0
M  V30 5939 H 563.184 -2.83691 -0.912338 0
M  V30 5940 H 560.721 -1.40392 -0.439135 0
M  V30 5941 H 562.679 -2.46682 -3.36457 0
M  V30 5942 H 561.309 -1.42625 -2.89582 0
M  V30 5943 H 560.361 -3.45905 -1.58284 0
M  V30 5944 H 561.673 -4.44 -2.27299 0
M  V30 5945 H 560.827 -3.97601 -4.58256 0
M  V30 5946 H 559.566 -2.89546 -3.92446 0
M  V30 5947 H 558.571 -4.81662 -2.65107 0
M  V30 5948 H 559.796 -5.913 -3.33978 0
M  V30 5949 H 557.742 -4.32875 -4.92905 0
M  V30 5950 H 557.659 -6.02228 -4.57009 0
M  V30 5951 H 558.927 -5.42439 -5.59803 0
M  V30 5952 N 563.156 0.464375 -1.50603 0
M  V30 5953 C 564.086 1.56944 -1.72889 0
M  V30 5954 C 565.067 1.59979 -0.577997 0
M  V30 5955 O 566.252 1.76138 -0.817855 0
M  V30 5956 C 563.382 2.95225 -1.8292 0
M  V30 5957 C 562.336 3.07056 -2.98162 0
M  V30 5958 C 561.662 4.47051 -2.93343 0
M  V30 5959 C 562.962 2.83648 -4.38567 0
M  V30 5960 H 564.656 1.38547 -2.65415 0
M  V30 5961 H 562.202 0.665082 -1.27721 0
M  V30 5962 H 564.155 3.72467 -1.97095 0
M  V30 5963 H 562.879 3.14793 -0.870209 0
M  V30 5964 H 561.538 2.32248 -2.83648 0
M  V30 5965 H 561.186 4.63547 -1.95276 0
M  V30 5966 H 560.886 4.55902 -3.70712 0
M  V30 5967 H 562.41 5.26304 -3.09575 0
M  V30 5968 H 563.824 3.50636 -4.53572 0
M  V30 5969 H 562.221 3.03937 -5.17438 0
M  V30 5970 H 563.291 1.79451 -4.50472 0
M  V30 5971 N 564.634 1.40294 0.718013 0
M  V30 5972 C 565.581 1.40367 1.8321 0
M  V30 5973 C 566.551 0.260952 1.64037 0
M  V30 5974 O 567.736 0.458648 1.85205 0
M  V30 5975 C 564.876 1.26965 3.20895 0
M  V30 5976 C 563.989 2.50922 3.51656 0
M  V30 5977 C 563.124 2.29981 4.78834 0
M  V30 5978 C 562.163 3.49527 5.02491 0
M  V30 5979 N 561.3 3.27796 6.20882 0
M  V30 5980 H 566.14 2.35593 1.82482 0
M  V30 5981 H 563.677 1.17012 0.891444 0
M  V30 5982 H 565.635 1.17202 4.00399 0
M  V30 5983 H 564.265 0.353591 3.20858 0
M  V30 5984 H 563.317 2.71223 2.66725 0
M  V30 5985 H 564.629 3.39913 3.65048 0
M  V30 5986 H 563.783 2.17558 5.66351 0
M  V30 5987 H 562.522 1.38411 4.67647 0
M  V30 5988 H 561.527 3.6243 4.1343 0
M  V30 5989 H 562.752 4.42021 5.15553 0
M  V30 5990 H 560.698 2.38906 6.1095 0
M  V30 5991 H 560.615 4.10351 6.34939 0
M  V30 5992 H 561.883 3.19101 7.11193 0
M  V30 5993 N 566.112 -0.949982 1.2575 0
M  V30 5994 C 567.389 -1.6718 1.01539 0
M  V30 5995 C 567.769 -2.06095 -0.456942 0
M  V30 5996 O 567.117 -1.77792 -1.43534 0
M  V30 5997 C 567.327 -2.8906 1.95564 0
M  V30 5998 C 568.675 -3.60909 2.23673 0
M  V30 5999 O 569.699 -2.9915 1.9336 0
M  V30 6000 O 568.558 -4.72127 2.75243 0
M  V30 6001 H 565.652 -0.731697 0.385419 0
M  V30 6002 H 568.198 -1.00249 1.36924 0
M  V30 6003 H 566.97 -2.57128 2.94959 0
M  V30 6004 H 566.593 -3.63719 1.60605 0
M  V30 6005 N 567.59 -1.07411 -1.15328 0
M  V30 6006 C 568.838 -0.796073 -1.85761 0
M  V30 6007 C 569.159 0.679864 -1.82764 0
M  V30 6008 O 568.429 1.49242 -1.269 0
M  V30 6009 H 567.009 -0.291495 -0.687779 0
M  V30 6010 H 569.671 -1.35799 -1.39802 0
M  V30 6011 H 568.767 -1.13114 -2.90881 0
M  V30 6012 N 569.068 1.32177 -0.85831 0
M  V30 6013 C 569.978 2.32561 -0.308606 0
M  V30 6014 C 570.994 1.64209 0.575462 0
M  V30 6015 O 572.17 1.95719 0.474961 0
M  V30 6016 C 569.235 3.43207 0.490909 0
M  V30 6017 C 568.296 4.27243 -0.419733 0
M  V30 6018 C 567.529 5.32605 0.341719 0
M  V30 6019 O 567.752 5.48332 1.57125 0
M  V30 6020 O 566.686 6.0118 -0.294379 0
M  V30 6021 H 570.512 2.81477 -1.14037 0
M  V30 6022 H 568.097 1.35866 -0.621349 0
M  V30 6023 H 569.979 4.10677 0.944574 0
M  V30 6024 H 568.654 2.96474 1.29941 0
M  V30 6025 H 567.561 3.62569 -0.921652 0
M  V30 6026 H 568.894 4.7751 -1.19352 0
M  V30 6027 N 570.547 0.616602 1.45037 0
M  V30 6028 C 571.824 0.0469086 1.95544 0
M  V30 6029 C 572.204 -1.42345 1.55888 0
M  V30 6030 O 571.552 -2.13055 0.825824 0
M  V30 6031 C 571.762 0.254489 3.48071 0
M  V30 6032 C 573.11 0.140025 4.24369 0
M  V30 6033 O 574.134 0.185084 3.55719 0
M  V30 6034 O 572.993 0.0327034 5.4649 0
M  V30 6035 H 570.087 -0.0306051 0.826433 0
M  V30 6036 H 572.633 0.687293 1.55159 0
M  V30 6037 H 571.405 1.27532 3.69934 0
M  V30 6038 H 571.028 -0.42073 3.95368 0
M  V30 6039 N 572.025 -1.5352 0.356285 0
M  V30 6040 C 573.436 -1.86282 -0.12492 0
M  V30 6041 C 573.787 -1.27717 -1.48939 0
M  V30 6042 O 572.912 -0.595614 -2.08042 0
M  V30 6043 C 573.507 -3.37995 -0.23345 0
M  V30 6044 C 572.066 -3.70588 -0.658899 0
M  V30 6045 C 571.213 -2.76581 0.199596 0
M  V30 6046 H 574.164 -1.47901 0.575423 0
M  V30 6047 H 574.185 -3.65475 -1.0587 0
M  V30 6048 H 573.697 -3.8059 0.759776 0
M  V30 6049 H 571.798 -3.33544 -1.66069 0
M  V30 6050 H 571.911 -4.77076 -0.439957 0
M  V30 6051 H 570.275 -2.52552 -0.330076 0
M  V30 6052 H 571.058 -3.22008 1.19019 0
M  V30 6053 N 573.503 -0.0852151 -1.57369 0
M  V30 6054 C 574.751 0.579658 -1.93609 0
M  V30 6055 C 575.072 1.69332 -0.967043 0
M  V30 6056 O 574.342 1.95892 -0.0174215 0
M  V30 6057 H 572.922 0.217113 -0.714752 0
M  V30 6058 H 575.584 -0.146226 -1.94351 0
M  V30 6059 H 574.68 0.996276 -2.95771 0
M  V30 6060 N 574.981 1.5647 0.188427 0
M  V30 6061 C 576.211 1.84863 0.922463 0
M  V30 6062 C 576.619 0.666413 1.77075 0
M  V30 6063 O 575.962 -0.374044 1.79852 0
M  V30 6064 C 576.024 3.07447 1.86324 0
M  V30 6065 C 575.688 4.41066 1.19625 0
M  V30 6066 C 576.685 5.16767 0.569946 0
M  V30 6067 C 574.37 4.87802 1.19811 0
M  V30 6068 C 576.364 6.37384 -0.045594 0
M  V30 6069 C 574.051 6.08353 0.57874 0
M  V30 6070 C 575.049 6.82987 -0.0420259 0
M  V30 6071 O 574.737 8.01254 -0.651675 0
M  V30 6072 H 574.469 0.61784 0.274316 0
M  V30 6073 H 577.023 2.04437 0.198613 0
M  V30 6074 H 575.253 2.83774 2.62696 0
M  V30 6075 H 576.942 3.2243 2.46564 0
M  V30 6076 H 577.708 4.81749 0.560601 0
M  V30 6077 H 573.587 4.29662 1.67069 0
M  V30 6078 H 577.131 6.95578 -0.530731 0
M  V30 6079 H 573.028 6.42838 0.58561 0
M  V30 6080 H 573.796 8.16655 -0.549236 0
M  V30 6081 N 576.459 -0.456382 1.50847 0
M  V30 6082 C 577.687 -1.23026 1.66349 0
M  V30 6083 C 578.102 -1.85473 0.352868 0
M  V30 6084 O 577.459 -1.69885 -0.666739 0
M  V30 6085 C 577.51 -2.32827 2.76539 0
M  V30 6086 O 577.231 -1.72938 4.02522 0
M  V30 6087 C 578.732 -3.23448 3.03144 0
M  V30 6088 H 575.952 -0.371527 0.558756 0
M  V30 6089 H 578.496 -0.543082 1.97157 0
M  V30 6090 H 576.651 -2.97294 2.48384 0
M  V30 6091 H 577.065 -2.45357 4.63573 0
M  V30 6092 H 578.539 -3.96669 3.83872 0
M  V30 6093 H 579.016 -3.83094 2.14793 0
M  V30 6094 H 579.622 -2.64702 3.32886 0
M  V30 6095 N 577.937 -1.40673 -0.710563 0
M  V30 6096 C 578.867 -1.44095 -1.83736 0
M  V30 6097 C 579.848 -0.301286 -1.67411 0
M  V30 6098 O 581.033 -0.510618 -1.87367 0
M  V30 6099 C 578.163 -1.30773 -3.21738 0
M  V30 6100 C 577.117 -2.42395 -3.52745 0
M  V30 6101 C 576.443 -2.14147 -4.89944 0
M  V30 6102 C 577.743 -3.84738 -3.53234 0
M  V30 6103 H 579.437 -2.38396 -1.81129 0
M  V30 6104 H 576.983 -1.14746 -0.870017 0
M  V30 6105 H 578.936 -1.31783 -4.00264 0
M  V30 6106 H 577.66 -0.329507 -3.24934 0
M  V30 6107 H 576.319 -2.40643 -2.76562 0
M  V30 6108 H 575.967 -1.14703 -4.89747 0
M  V30 6109 H 575.667 -2.88934 -5.11655 0
M  V30 6110 H 577.191 -2.16848 -5.70797 0
M  V30 6111 H 578.605 -3.88286 -4.2179 0
M  V30 6112 H 577.002 -4.59085 -3.86473 0
M  V30 6113 H 578.072 -4.13962 -2.52514 0
M  V30 6114 N 579.415 0.9433 -1.26252 0
M  V30 6115 C 580.645 1.72117 -1.14277 0
M  V30 6116 C 581.053 1.86726 0.304944 0
M  V30 6117 O 580.396 1.3727 1.22076 0
M  V30 6118 C 580.458 3.14778 -1.73651 0
M  V30 6119 C 580.122 3.23561 -3.22734 0
M  V30 6120 C 581.119 3.07001 -4.19579 0
M  V30 6121 C 578.804 3.47019 -3.63157 0
M  V30 6122 C 580.798 3.13763 -5.54826 0
M  V30 6123 C 578.485 3.53416 -4.98538 0
M  V30 6124 C 579.483 3.36804 -5.94182 0
M  V30 6125 O 579.171 3.42906 -7.27098 0
M  V30 6126 H 578.903 0.545781 -0.398873 0
M  V30 6127 H 581.457 1.19123 -1.67328 0
M  V30 6128 H 579.687 3.69186 -1.1506 0
M  V30 6129 H 581.376 3.74469 -1.56613 0
M  V30 6130 H 582.142 2.88736 -3.89688 0
M  V30 6131 H 578.021 3.59006 -2.89199 0
M  V30 6132 H 581.565 3.00714 -6.29458 0
M  V30 6133 H 577.462 3.71201 -5.28091 0
M  V30 6134 H 578.23 3.59463 -7.35342 0
M  V30 6135 N 580.893 1.08022 1.14757 0
M  V30 6136 C 582.17 0.720386 1.81851 0
M  V30 6137 C 582.55 -0.796375 1.95502 0
M  V30 6138 O 581.898 -1.71339 1.51179 0
M  V30 6139 C 582.108 1.44273 3.17783 0
M  V30 6140 C 583.456 1.59925 3.93331 0
M  V30 6141 O 584.48 1.40407 3.2736 0
M  V30 6142 O 583.339 1.92096 5.11626 0
M  V30 6143 H 580.433 0.257142 0.786007 0
M  V30 6144 H 582.979 1.18155 1.21809 0
M  V30 6145 H 581.751 2.47618 3.02987 0
M  V30 6146 H 581.374 0.97279 3.85516 0
M  V30 6147 N 582.371 -1.3172 0.865308 0
M  V30 6148 C 583.301 -2.31109 0.333302 0
M  V30 6149 C 584.282 -1.60148 -0.573301 0
M  V30 6150 O 585.467 -1.87882 -0.491305 0
M  V30 6151 C 582.597 -3.44104 -0.470078 0
M  V30 6152 C 581.551 -4.26623 0.343021 0
M  V30 6153 C 580.877 -5.31482 -0.585756 0
M  V30 6154 C 582.177 -4.98001 1.57456 0
M  V30 6155 H 583.871 -2.75855 1.1638 0
M  V30 6156 H 581.417 -1.3262 0.561069 0
M  V30 6157 H 583.37 -4.12682 -0.852752 0
M  V30 6158 H 582.094 -2.98112 -1.33404 0
M  V30 6159 H 580.753 -3.59707 0.707583 0
M  V30 6160 H 580.401 -4.81741 -1.44686 0
M  V30 6161 H 580.101 -5.87582 -0.0456494 0
M  V30 6162 H 581.625 -6.0292 -0.965375 0
M  V30 6163 H 583.039 -5.59201 1.26359 0
M  V30 6164 H 581.436 -5.63876 2.05339 0
M  V30 6165 H 582.506 -4.25253 2.32997 0
M  V30 6166 N 583.85 -0.624285 -1.44708 0
M  V30 6167 C 585.075 -0.131171 -2.06985 0
M  V30 6168 C 585.5 1.18234 -1.46295 0
M  V30 6169 O 584.858 1.72375 -0.561842 0
M  V30 6170 C 584.906 -0.0226724 -3.60593 0
M  V30 6171 O 584.01 1.02314 -3.99507 0
M  V30 6172 H 583.351 -0.0816556 -0.65896 0
M  V30 6173 H 585.88 -0.859027 -1.85693 0
M  V30 6174 H 585.891 0.170138 -4.07645 0
M  V30 6175 H 584.566 -0.981685 -4.04148 0
M  V30 6176 H 583.143 0.805452 -3.64097 0
M  V30 6177 N 585.328 1.53329 -0.364422 0
M  V30 6178 C 586.238 2.29414 0.490552 0
M  V30 6179 C 587.254 1.35335 1.09363 0
M  V30 6180 O 588.43 1.68391 1.10483 0
M  V30 6181 C 585.495 3.06772 1.61529 0
M  V30 6182 C 584.556 4.16516 1.03986 0
M  V30 6183 C 583.789 4.90176 2.111 0
M  V30 6184 O 584.012 4.63687 3.32191 0
M  V30 6185 O 582.946 5.76134 1.74222 0
M  V30 6186 H 586.772 3.03428 -0.12856 0
M  V30 6187 H 584.357 1.48843 -0.128837 0
M  V30 6188 H 586.239 3.55082 2.26924 0
M  V30 6189 H 584.914 2.35596 2.21983 0
M  V30 6190 H 583.821 3.7246 0.349856 0
M  V30 6191 H 585.154 4.89855 0.4799 0
M  V30 6192 N 586.806 0.0935595 1.57322 0
M  V30 6193 C 588.222 -0.263091 1.57417 0
M  V30 6194 C 588.422 -1.68526 1.1046 0
M  V30 6195 O 587.478 -2.40139 0.780357 0
M  V30 6196 C 588.791 -0.0529201 3.00653 0
M  V30 6197 C 590.339 -0.120788 3.12767 0
M  V30 6198 C 590.814 0.0613707 4.57959 0
M  V30 6199 N 592.305 0.00648534 4.632 0
M  V30 6200 C 593.04 0.122699 5.73269 0
M  V30 6201 N 592.536 0.29366 6.92177 0
M  V30 6202 N 594.329 0.0640787 5.62063 0
M  V30 6203 H 586.48 1.02277 1.86154 0
M  V30 6204 H 588.743 0.4007 0.859153 0
M  V30 6205 H 588.449 0.929279 3.39201 0
M  V30 6206 H 588.323 -0.795899 3.68708 0
M  V30 6207 H 590.71 -1.09349 2.74093 0
M  V30 6208 H 590.791 0.653656 2.47307 0
M  V30 6209 H 590.435 1.03093 4.97327 0
M  V30 6210 H 590.365 -0.732748 5.21477 0
M  V30 6211 H 592.856 -0.123173 3.77699 0
M  V30 6212 H 593.169 0.37389 7.71895 0
M  V30 6213 H 591.514 0.329307 6.94219 0
M  V30 6214 H 594.705 -0.0683396 4.6805 0
M  V30 6215 H 594.878 0.158097 6.47807 0
M  V30 6216 N 588.284 -1.56567 -0.180126 0
M  V30 6217 C 589.214 -1.98753 -1.22553 0
M  V30 6218 C 590.195 -0.86175 -1.46656 0
M  V30 6219 O 591.38 -1.12719 -1.58139 0
M  V30 6220 C 588.51 -2.33988 -2.56645 0
M  V30 6221 C 587.464 -3.49445 -2.47128 0
M  V30 6222 C 586.79 -3.70397 -3.8563 0
M  V30 6223 C 588.09 -4.83171 -1.98352 0
M  V30 6224 H 589.784 -2.86332 -0.874896 0
M  V30 6225 H 587.33 -1.37757 -0.419414 0
M  V30 6226 H 589.283 -2.62097 -3.29974 0
M  V30 6227 H 588.007 -1.43309 -2.93479 0
M  V30 6228 H 586.666 -3.2145 -1.76254 0
M  V30 6229 H 586.314 -2.77023 -4.19842 0
M  V30 6230 H 586.014 -4.48077 -3.80132 0
M  V30 6231 H 587.538 -4.00897 -4.60558 0
M  V30 6232 H 588.952 -5.10213 -2.61449 0
M  V30 6233 H 587.349 -5.64425 -2.03823 0
M  V30 6234 H 588.419 -4.75753 -0.937402 0
M  V30 6235 N 589.762 0.448376 -1.51087 0
M  V30 6236 C 591.178 0.783984 -1.39017 0
M  V30 6237 C 591.378 1.96087 -0.463904 0
M  V30 6238 O 590.434 2.52357 0.0850534 0
M  V30 6239 C 591.747 1.07471 -2.80839 0
M  V30 6240 C 593.295 1.17981 -2.89913 0
M  V30 6241 C 593.77 1.50354 -4.32617 0
M  V30 6242 N 595.261 1.57301 -4.35673 0
M  V30 6243 C 595.996 1.839 -5.4311 0
M  V30 6244 N 595.492 2.08365 -6.60724 0
M  V30 6245 N 597.285 1.8559 -5.30578 0
M  V30 6246 H 589.436 -0.326881 -2.0987 0
M  V30 6247 H 591.699 -0.0838006 -0.944289 0
M  V30 6248 H 591.405 0.282768 -3.50561 0
M  V30 6249 H 591.279 2.00519 -3.19487 0
M  V30 6250 H 593.666 1.9624 -2.20395 0
M  V30 6251 H 593.747 0.228603 -2.54776 0
M  V30 6252 H 593.391 0.726273 -5.0268 0
M  V30 6253 H 593.321 2.46663 -4.65258 0
M  V30 6254 H 595.812 1.40342 -3.50874 0
M  V30 6255 H 596.125 2.27999 -7.38401 0
M  V30 6256 H 594.47 2.0571 -6.63859 0
M  V30 6257 H 597.661 1.65989 -4.37682 0
M  V30 6258 H 597.834 2.05983 -6.1439 0
M  V30 6259 N 591.24 1.41047 0.703093 0
M  V30 6260 C 592.17 1.45067 1.82969 0
M  V30 6261 C 593.151 0.31016 1.67248 0
M  V30 6262 O 594.336 0.520548 1.87093 0
M  V30 6263 C 591.466 1.32478 3.2104 0
M  V30 6264 C 590.42 2.44262 3.51454 0
M  V30 6265 C 589.746 2.16742 4.88801 0
M  V30 6266 C 591.046 3.86606 3.51189 0
M  V30 6267 H 592.74 2.39353 1.79863 0
M  V30 6268 H 590.286 1.15206 0.863919 0
M  V30 6269 H 592.239 1.33904 3.99559 0
M  V30 6270 H 590.963 0.346735 3.24754 0
M  V30 6271 H 589.622 2.42107 2.75282 0
M  V30 6272 H 589.27 1.17299 4.89132 0
M  V30 6273 H 588.97 2.91643 5.10116 0
M  V30 6274 H 590.494 2.19872 5.69639 0
M  V30 6275 H 591.908 3.90517 4.19725 0
M  V30 6276 H 590.305 4.61128 3.84033 0
M  V30 6277 H 591.375 4.15296 2.50315 0
M  V30 6278 N 592.718 -0.936591 1.26751 0
M  V30 6279 C 594.134 -1.21095 1.03963 0
M  V30 6280 C 594.334 -2.00156 -0.232372 0
M  V30 6281 O 593.39 -2.3434 -0.940274 0
M  V30 6282 C 594.703 -1.96775 2.27377 0
M  V30 6283 C 596.251 -2.09749 2.32324 0
M  V30 6284 C 596.726 -2.88832 3.55443 0
M  V30 6285 N 598.217 -2.96404 3.55948 0
M  V30 6286 C 598.952 -3.58036 4.47881 0
M  V30 6287 N 598.448 -4.21132 5.50109 0
M  V30 6288 N 600.241 -3.55353 4.35523 0
M  V30 6289 H 592.392 -0.408173 2.08441 0
M  V30 6290 H 594.655 -0.243139 0.91629 0
M  V30 6291 H 594.361 -1.46094 3.19921 0
M  V30 6292 H 594.235 -2.97424 2.31989 0
M  V30 6293 H 596.622 -2.5962 1.40291 0
M  V30 6294 H 596.703 -1.08347 2.31721 0
M  V30 6295 H 596.347 -2.39647 4.47808 0
M  V30 6296 H 596.277 -3.90499 3.53296 0
M  V30 6297 H 598.768 -2.51552 2.82011 0
M  V30 6298 H 599.081 -4.66071 6.16439 0
M  V30 6299 H 597.426 -4.19705 5.53961 0
M  V30 6300 H 600.617 -3.05256 3.54875 0
M  V30 6301 H 600.79 -4.03097 5.07363 0
M  V30 6302 N 594.196 -1.08629 -1.14182 0
M  V30 6303 C 595.444 -0.815731 -1.84906 0
M  V30 6304 C 595.765 0.660441 -1.83475 0
M  V30 6305 O 595.035 1.47888 -1.28476 0
M  V30 6306 H 593.615 -0.298773 -0.684648 0
M  V30 6307 H 596.277 -1.37274 -1.38354 0
M  V30 6308 H 595.373 -1.16193 -2.89665 0
M  V30 6309 N 595.674 1.31259 -0.872281 0
M  V30 6310 C 596.92 1.973 -0.494414 0
M  V30 6311 C 597.275 1.67684 0.94339 0
M  V30 6312 O 596.568 0.964186 1.65572 0
M  V30 6313 C 596.762 3.50659 -0.690889 0
M  V30 6314 C 596.591 3.95179 -2.14624 0
M  V30 6315 C 595.361 4.21405 -2.7883 0
M  V30 6316 C 597.559 4.08948 -3.11875 0
M  V30 6317 N 595.541 4.52295 -4.15093 0
M  V30 6318 C 596.912 4.43576 -4.33174 0
M  V30 6319 C 598.967 3.91334 -3.07835 0
M  V30 6320 C 597.67 4.62429 -5.50956 0
M  V30 6321 C 599.696 4.11381 -4.24876 0
M  V30 6322 C 599.058 4.46343 -5.44938 0
M  V30 6323 H 595.157 0.747411 -0.230002 0
M  V30 6324 H 597.741 1.58741 -1.12736 0
M  V30 6325 H 595.912 3.88301 -0.0875162 0
M  V30 6326 H 597.644 4.03722 -0.281179 0
M  V30 6327 H 594.399 4.14131 -2.29767 0
M  V30 6328 H 594.823 4.71897 -4.8543 0
M  V30 6329 H 599.465 3.6339 -2.16119 0
M  V30 6330 H 597.183 4.8922 -6.43187 0
M  V30 6331 H 600.769 3.99235 -4.23205 0
M  V30 6332 H 599.649 4.6154 -6.33996 0
M  V30 6333 N 597.152 0.631951 1.44375 0
M  V30 6334 C 598.084 -0.110911 2.28931 0
M  V30 6335 C 599.097 -0.808086 1.41329 0
M  V30 6336 O 600.286 -0.669396 1.65473 0
M  V30 6337 C 597.386 -1.17928 3.1772 0
M  V30 6338 C 596.559 -0.564458 4.33743 0
M  V30 6339 C 595.618 -1.5269 5.0356 0
M  V30 6340 O 594.644 -1.04372 5.59549 0
M  V30 6341 N 595.846 -2.86123 5.05088 0
M  V30 6342 H 598.611 0.614758 2.93327 0
M  V30 6343 H 596.172 0.473171 1.54831 0
M  V30 6344 H 598.164 -1.82348 3.61291 0
M  V30 6345 H 596.734 -1.80717 2.55069 0
M  V30 6346 H 595.954 0.258373 3.93352 0
M  V30 6347 H 597.242 -0.134355 5.08623 0
M  V30 6348 H 596.64 -3.27959 4.60933 0
M  V30 6349 H 595.197 -3.45901 5.52445 0
M  V30 6350 N 598.631 -1.53133 0.372548 0
M  V30 6351 C 599.877 -2.01654 -0.215277 0
M  V30 6352 C 600.21 -1.25914 -1.47849 0
M  V30 6353 O 599.485 -0.3548 -1.91237 0
M  V30 6354 C 599.768 -3.56609 -0.500187 0
M  V30 6355 C 599.621 -4.43036 0.777145 0
M  V30 6356 C 600.94 -4.20528 -1.29786 0
M  V30 6357 H 598.059 -0.732991 -0.0767686 0
M  V30 6358 H 600.701 -1.83335 0.498814 0
M  V30 6359 H 598.851 -3.7235 -1.10852 0
M  V30 6360 H 600.523 -4.39079 1.41447 0
M  V30 6361 H 598.766 -4.10723 1.39604 0
M  V30 6362 H 599.437 -5.49424 0.532662 0
M  V30 6363 H 601.913 -4.08663 -0.783198 0
M  V30 6364 H 600.789 -5.28962 -1.46596 0
M  V30 6365 H 601.05 -3.77051 -2.30836 0
M  V30 6366 N 600.109 -0.101901 -1.5727 0
M  V30 6367 C 601.52 0.426173 -1.81771 0
M  V30 6368 C 601.871 1.67725 -1.01797 0
M  V30 6369 O 600.996 2.14958 -0.249386 0
M  V30 6370 C 601.591 0.779962 -3.297 0
M  V30 6371 C 600.15 1.25275 -3.54941 0
M  V30 6372 C 599.297 0.252814 -2.76145 0
M  V30 6373 H 602.248 -0.32726 -1.55289 0
M  V30 6374 H 602.269 1.63891 -3.43395 0
M  V30 6375 H 601.781 -0.130778 -3.8788 0
M  V30 6376 H 599.882 2.18097 -3.021 0
M  V30 6377 H 599.995 1.20988 -4.63572 0
M  V30 6378 H 598.359 0.736362 -2.43823 0
M  V30 6379 H 599.142 -0.650724 -3.37076 0
M  V30 6380 N 601.587 1.56661 0.17182 0
M  V30 6381 C 602.55 1.9549 1.19651 0
M  V30 6382 C 603.55 0.838501 1.37207 0
M  V30 6383 O 604.74 1.10556 1.34622 0
M  V30 6384 C 601.872 2.24927 2.56166 0
M  V30 6385 H 603.065 2.87184 0.864007 0
M  V30 6386 H 600.618 1.50711 0.41425 0
M  V30 6387 H 601.353 1.35944 2.94431 0
M  V30 6388 H 601.138 3.06301 2.4479 0
M  V30 6389 H 602.628 2.55891 3.30014 0
M  V30 6390 N 603.065 -0.440357 1.51323 0
M  V30 6391 C 604.312 -1.19004 1.63842 0
M  V30 6392 C 604.64 -1.91266 0.35321 0
M  V30 6393 O 603.895 -1.84143 -0.662565 0
M  V30 6394 C 604.194 -2.2339 2.78984 0
M  V30 6395 C 603.86 -1.68162 4.18369 0
M  V30 6396 C 602.522 -1.52823 4.56288 0
M  V30 6397 C 604.874 -1.27524 5.05358 0
M  V30 6398 C 602.202 -0.953157 5.78906 0
M  V30 6399 C 604.554 -0.714474 6.28552 0
M  V30 6400 C 603.218 -0.547961 6.65247 0
M  V30 6401 H 602.488 -0.435468 0.59954 0
M  V30 6402 H 605.135 -0.481538 1.85347 0
M  V30 6403 H 603.44 -3.00267 2.51688 0
M  V30 6404 H 605.137 -2.81211 2.85869 0
M  V30 6405 H 601.727 -1.81077 3.8847 0
M  V30 6406 H 605.911 -1.38197 4.76671 0
M  V30 6407 H 601.167 -0.811882 6.05986 0
M  V30 6408 H 605.341 -0.391059 6.95301 0
M  V30 6409 H 602.968 -0.100222 7.60134 0
M  V30 6410 N 604.543 -1.41418 -0.695603 0
M  V30 6411 C 605.771 -1.4413 -1.48439 0
M  V30 6412 C 606.186 -0.0465698 -1.88743 0
M  V30 6413 O 605.543 0.934117 -1.56782 0
M  V30 6414 C 605.594 -2.34998 -2.74696 0
M  V30 6415 O 605.315 -3.69043 -2.36091 0
M  V30 6416 C 606.816 -2.46513 -3.68438 0
M  V30 6417 H 604.036 -0.490905 -0.457442 0
M  V30 6418 H 606.58 -1.85702 -0.856454 0
M  V30 6419 H 604.735 -1.96735 -3.33728 0
M  V30 6420 H 605.149 -4.17505 -3.17474 0
M  V30 6421 H 606.623 -3.1426 -4.53811 0
M  V30 6422 H 607.1 -1.49638 -4.12922 0
M  V30 6423 H 607.706 -2.85412 -3.1531 0
M  V30 6424 N 606.021 0.929856 -1.27246 0
M  V30 6425 C 606.951 2.04722 -1.12299 0
M  V30 6426 C 607.932 1.70082 -0.0250464 0
M  V30 6427 O 609.117 1.93176 -0.199141 0
M  V30 6428 C 606.247 3.38721 -0.767145 0
M  V30 6429 C 605.201 3.87466 -1.81808 0
M  V30 6430 C 604.527 5.18246 -1.31626 0
M  V30 6431 C 605.827 4.11095 -3.22177 0
M  V30 6432 H 607.521 2.17485 -2.05769 0
M  V30 6433 H 605.067 1.04503 -0.990715 0
M  V30 6434 H 607.02 4.16366 -0.649413 0
M  V30 6435 H 605.744 3.25967 0.203259 0
M  V30 6436 H 604.403 3.12012 -1.92468 0
M  V30 6437 H 604.051 5.01881 -0.335378 0
M  V30 6438 H 603.751 5.51829 -2.01887 0
M  V30 6439 H 605.275 5.98462 -1.21143 0
M  V30 6440 H 606.689 4.79316 -3.1453 0
M  V30 6441 H 605.086 4.55982 -3.90129 0
M  V30 6442 H 606.156 3.16468 -3.67391 0
M  V30 6443 N 607.499 1.09233 1.13605 0
M  V30 6444 C 608.747 0.825525 1.84471 0
M  V30 6445 C 609.068 -0.650702 1.83823 0
M  V30 6446 O 608.338 -1.47204 1.29259 0
M  V30 6447 H 606.918 0.3024 0.683054 0
M  V30 6448 H 609.58 1.38006 1.37624 0
M  V30 6449 H 608.676 1.17727 2.89045 0
M  V30 6450 N 608.977 -1.30795 0.87923 0
M  V30 6451 C 610.225 -1.95974 0.493809 0
M  V30 6452 C 610.546 -1.69787 -0.959021 0
M  V30 6453 O 609.816 -1.01832 -1.67353 0
M  V30 6454 H 608.396 -0.725083 0.179622 0
M  V30 6455 H 611.058 -1.59432 1.12105 0
M  V30 6456 H 610.154 -3.05058 0.659263 0
M  V30 6457 N 610.455 -0.639598 -1.44038 0
M  V30 6458 C 611.365 0.0612377 -2.3452 0
M  V30 6459 C 612.381 0.826717 -1.53106 0
M  V30 6460 O 613.557 0.777059 -1.85806 0
M  V30 6461 C 610.622 1.02492 -3.31204 0
M  V30 6462 C 609.683 0.25788 -4.28525 0
M  V30 6463 C 608.916 1.17566 -5.2059 0
M  V30 6464 O 609.139 2.41461 -5.16771 0
M  V30 6465 O 608.073 0.655407 -5.98321 0
M  V30 6466 H 611.899 -0.68318 -2.95916 0
M  V30 6467 H 609.484 -0.399784 -1.43952 0
M  V30 6468 H 611.366 1.57911 -3.90694 0
M  V30 6469 H 610.041 1.7498 -2.7233 0
M  V30 6470 H 608.948 -0.339566 -3.72556 0
M  V30 6471 H 610.281 -0.427154 -4.90343 0
M  V30 6472 N 611.933 1.52934 -0.380664 0
M  V30 6473 C 612.896 2.24809 0.446473 0
M  V30 6474 C 613.896 1.26133 0.997347 0
M  V30 6475 O 615.086 1.50297 0.880714 0
M  V30 6476 C 612.218 2.99649 1.62553 0
M  V30 6477 H 613.411 2.99343 -0.182677 0
M  V30 6478 H 610.964 1.55736 -0.132618 0
M  V30 6479 H 611.699 2.29395 2.29235 0
M  V30 6480 H 611.484 3.72066 1.23732 0
M  V30 6481 H 612.974 3.54246 2.21133 0
M  V30 6482 N 613.412 0.11024 1.57214 0
M  V30 6483 C 614.64 -0.557834 1.99238 0
M  V30 6484 C 615.055 -1.60778 0.989734 0
M  V30 6485 O 614.412 -1.82491 -0.0186092 0
M  V30 6486 C 614.463 -1.19189 3.41286 0
M  V30 6487 O 614.184 -0.183919 4.37714 0
M  V30 6488 C 615.685 -1.94413 3.98395 0
M  V30 6489 H 612.905 -0.148392 0.654386 0
M  V30 6490 H 615.449 0.193996 2.03578 0
M  V30 6491 H 613.604 -1.89456 3.37913 0
M  V30 6492 H 614.018 -0.643475 5.20538 0
M  V30 6493 H 615.492 -2.34116 4.99894 0
M  V30 6494 H 615.969 -2.81592 3.3705 0
M  V30 6495 H 616.575 -1.28928 4.05287 0
M  V30 6496 N 614.89 -1.56749 -0.16351 0
M  V30 6497 C 616.167 -1.73321 -0.906599 0
M  V30 6498 C 616.547 -0.673779 -2.00059 0
M  V30 6499 O 615.895 0.310121 -2.26386 0
M  V30 6500 C 616.105 -3.168 -1.46419 0
M  V30 6501 C 617.453 -3.77993 -1.93407 0
M  V30 6502 O 618.477 -3.20127 -1.56196 0
M  V30 6503 O 617.336 -4.79615 -2.61976 0
M  V30 6504 H 614.43 -0.708073 -0.427272 0
M  V30 6505 H 616.976 -1.69029 -0.150727 0
M  V30 6506 H 615.748 -3.85396 -0.677189 0
M  V30 6507 H 615.371 -3.2545 -2.28403 0
M  V30 6508 N 616.368 0.432326 -1.51554 0
M  V30 6509 C 617.617 1.17831 -1.63703 0
M  V30 6510 C 617.93 1.92229 -0.36156 0
M  V30 6511 O 619.136 2.69069 -0.362495 0
M  V30 6512 C 617.592 2.14318 -2.89129 0
M  V30 6513 C 617.2 1.45544 -4.23699 0
M  V30 6514 C 618.944 2.89319 -3.10636 0
M  V30 6515 C 616.851 2.40545 -5.4027 0
M  V30 6516 H 615.781 0.443533 -0.60975 0
M  V30 6517 H 618.432 0.444878 -1.78026 0
M  V30 6518 H 616.814 2.91117 -2.68452 0
M  V30 6519 H 617.988 0.742693 -4.54775 0
M  V30 6520 H 616.303 0.826772 -4.0811 0
M  V30 6521 H 618.9 3.60495 -3.94902 0
M  V30 6522 H 619.243 3.50951 -2.23918 0
M  V30 6523 H 619.776 2.19625 -3.31677 0
M  V30 6524 H 616.515 1.83594 -6.29264 0
M  V30 6525 H 616.035 3.09859 -5.13563 0
M  V30 6526 H 617.714 3.01569 -5.72421 0
M  V30 6527 N 617.846 1.41785 0.688094 0
M  V30 6528 C 619.092 1.41753 1.4503 0
M  V30 6529 C 619.425 0.0290745 1.94178 0
M  V30 6530 O 618.7 -0.944456 1.7003 0
M  V30 6531 C 618.983 2.43069 2.65686 0
M  V30 6532 C 618.836 3.91053 2.22256 0
M  V30 6533 C 620.155 2.41543 3.67893 0
M  V30 6534 H 617.274 0.516202 0.526027 0
M  V30 6535 H 619.916 1.73111 0.783105 0
M  V30 6536 H 618.066 2.1646 3.2261 0
M  V30 6537 H 619.738 4.28594 1.70602 0
M  V30 6538 H 617.981 4.05559 1.53963 0
M  V30 6539 H 618.652 4.57501 3.08863 0
M  V30 6540 H 621.128 2.65175 3.20658 0
M  V30 6541 H 620.004 3.14434 4.49914 0
M  V30 6542 H 620.265 1.43666 4.18106 0
M  V30 6543 N 619.324 -0.923095 1.27737 0
M  V30 6544 C 620.57 -1.67375 1.14514 0
M  V30 6545 C 620.903 -1.91751 -0.307424 0
M  V30 6546 O 620.178 -1.51119 -1.22447 0
M  V30 6547 C 620.461 -3.03745 1.9342 0
M  V30 6548 C 620.314 -2.86581 3.46686 0
M  V30 6549 C 621.633 -4.04144 1.74228 0
M  V30 6550 H 618.752 -0.607427 0.417374 0
M  V30 6551 H 621.394 -1.07089 1.56946 0
M  V30 6552 H 619.544 -3.55204 1.5736 0
M  V30 6553 H 621.216 -2.42203 3.92601 0
M  V30 6554 H 619.459 -2.21829 3.72793 0
M  V30 6555 H 620.13 -3.83381 3.97143 0
M  V30 6556 H 622.606 -3.61712 2.05678 0
M  V30 6557 H 621.482 -4.97543 2.31824 0
M  V30 6558 H 621.743 -4.36661 0.691373 0
M  V30 6559 N 620.802 -1.09834 -1.13024 0
M  V30 6560 C 621.735 -0.685453 -2.17662 0
M  V30 6561 C 622.713 0.310142 -1.59615 0
M  V30 6562 O 623.897 0.21052 -1.87321 0
M  V30 6563 C 621.024 -0.0104476 -3.38698 0
M  V30 6564 C 620.07 -0.968522 -4.15358 0
M  V30 6565 S 620.903 -2.48272 -4.74469 0
M  V30 6566 C 622.059 -1.82025 -5.98847 0
M  V30 6567 H 622.292 -1.57187 -2.52348 0
M  V30 6568 H 619.825 -0.914728 -1.24387 0
M  V30 6569 H 621.783 0.372694 -4.08805 0
M  V30 6570 H 620.444 0.852673 -3.02305 0
M  V30 6571 H 619.637 -0.443373 -5.02046 0
M  V30 6572 H 619.239 -1.29327 -3.50928 0
M  V30 6573 H 621.531 -1.14678 -6.67724 0
M  V30 6574 H 622.474 -2.66645 -6.55977 0
M  V30 6575 H 622.882 -1.2874 -5.49624 0
M  V30 6576 N 622.28 1.30327 -0.886154 0
M  V30 6577 C 623.696 1.48676 -0.580323 0
M  V30 6578 C 623.896 1.81189 0.881639 0
M  V30 6579 O 622.952 1.90021 1.66278 0
M  V30 6580 C 624.265 2.60932 -1.49449 0
M  V30 6581 C 625.813 2.74812 -1.49824 0
M  V30 6582 C 626.288 3.90183 -2.39836 0
M  V30 6583 N 627.779 3.97495 -2.37806 0
M  V30 6584 C 628.514 4.86078 -3.04165 0
M  V30 6585 N 628.01 5.79448 -3.79753 0
M  V30 6586 N 629.803 4.79456 -2.93391 0
M  V30 6587 H 621.954 1.07495 -1.8319 0
M  V30 6588 H 624.217 0.532661 -0.784204 0
M  V30 6589 H 623.923 2.43731 -2.5355 0
M  V30 6590 H 623.797 3.57437 -1.20494 0
M  V30 6591 H 626.184 2.91418 -0.464731 0
M  V30 6592 H 626.265 1.78924 -1.82811 0
M  V30 6593 H 625.909 3.74334 -3.43273 0
M  V30 6594 H 625.839 4.85411 -2.04166 0
M  V30 6595 H 628.33 3.30703 -1.82877 0
M  V30 6596 H 628.643 6.43805 -4.27475 0
M  V30 6597 H 626.988 5.79376 -3.8386 0
M  V30 6598 H 630.179 4.05494 -2.33864 0
M  V30 6599 H 630.352 5.48283 -3.45383 0
M  V30 6600 N 623.758 0.647228 1.43697 0
M  V30 6601 C 625.007 0.155552 2.01099 0
M  V30 6602 C 625.32 -1.23569 1.51624 0
M  V30 6603 O 626.526 -1.82226 2.01261 0
M  V30 6604 C 624.982 0.227296 3.59182 0
M  V30 6605 C 624.59 1.62086 4.17651 0
M  V30 6606 C 626.334 -0.207085 4.23995 0
M  V30 6607 C 624.241 1.64685 5.68008 0
M  V30 6608 H 623.171 0.0543895 0.752036 0
M  V30 6609 H 625.822 0.808386 1.64734 0
M  V30 6610 H 624.204 -0.492937 3.9292 0
M  V30 6611 H 625.378 2.36597 3.95422 0
M  V30 6612 H 623.693 2.0007 3.65186 0
M  V30 6613 H 626.29 -0.207426 5.34298 0
M  V30 6614 H 626.633 -1.23742 3.97484 0
M  V30 6615 H 627.166 0.461193 3.95118 0
M  V30 6616 H 623.905 2.65608 5.99277 0
M  V30 6617 H 623.425 0.944914 5.9231 0
M  V30 6618 H 625.104 1.38792 6.31938 0
M  V30 6619 N 625.236 -1.5273 0.388769 0
M  V30 6620 C 626.169 -2.22861 -0.490752 0
M  V30 6621 C 627.147 -1.22912 -1.06449 0
M  V30 6622 O 628.331 -1.51896 -1.11624 0
M  V30 6623 C 625.458 -2.94141 -1.67925 0
M  V30 6624 C 624.504 -4.08355 -1.23081 0
M  V30 6625 S 625.337 -5.35077 -0.212786 0
M  V30 6626 C 626.493 -6.09879 -1.40708 0
M  V30 6627 H 626.726 -2.97115 0.104787 0
M  V30 6628 H 624.259 -1.53428 0.172956 0
M  V30 6629 H 626.217 -3.35818 -2.36085 0
M  V30 6630 H 624.878 -2.19568 -2.24608 0
M  V30 6631 H 624.071 -4.57328 -2.11818 0
M  V30 6632 H 623.673 -3.68688 -0.628121 0
M  V30 6633 H 625.965 -6.36018 -2.33424 0
M  V30 6634 H 626.908 -7.01586 -0.958271 0
M  V30 6635 H 627.316 -5.40646 -1.62364 0
M  V30 6636 N 626.714 -0.118576 -1.57153 0
M  V30 6637 C 627.954 0.542618 -1.97066 0
M  V30 6638 C 628.318 1.63874 -1.00046 0
M  V30 6639 O 629.519 2.3588 -1.28895 0
M  V30 6640 C 627.79 1.06196 -3.41258 0
M  V30 6641 S 629.349 1.73174 -4.03183 0
M  V30 6642 H 626.167 0.17638 -0.688775 0
M  V30 6643 H 628.769 -0.203556 -1.94437 0
M  V30 6644 H 627.473 0.253016 -4.09619 0
M  V30 6645 H 627.004 1.84342 -3.47536 0
M  V30 6646 H 629.019 3.01749 -3.93906 0
M  V30 6647 N 628.193 1.56834 0.155195 0
M  V30 6648 C 629.609 1.51315 0.50755 0
M  V30 6649 C 629.809 0.825614 1.83809 0
M  V30 6650 O 628.865 0.39271 2.49427 0
M  V30 6651 C 630.178 2.96074 0.52542 0
M  V30 6652 C 631.726 3.06968 0.611505 0
M  V30 6653 C 632.201 4.53218 0.660115 0
M  V30 6654 N 633.692 4.5753 0.722564 0
M  V30 6655 C 634.427 5.68056 0.781023 0
M  V30 6656 N 633.923 6.88173 0.799327 0
M  V30 6657 N 635.716 5.56068 0.821278 0
M  V30 6658 H 627.867 1.9993 -0.717063 0
M  V30 6659 H 630.13 0.911507 -0.260496 0
M  V30 6660 H 629.836 3.49599 -0.383875 0
M  V30 6661 H 629.71 3.51587 1.36624 0
M  V30 6662 H 632.097 2.53468 1.51122 0
M  V30 6663 H 632.178 2.54513 -0.256306 0
M  V30 6664 H 631.822 5.07354 -0.23541 0
M  V30 6665 H 631.752 5.03447 1.5443 0
M  V30 6666 H 634.243 3.71054 0.716049 0
M  V30 6667 H 634.556 7.6816 0.845553 0
M  V30 6668 H 632.901 6.90751 0.767337 0
M  V30 6669 H 636.092 4.61142 0.804091 0
M  V30 6670 H 636.265 6.42223 0.863372 0
M  V30 6671 N 629.671 -0.424282 1.51781 0
M  V30 6672 C 631.087 -0.761768 1.40247 0
M  V30 6673 C 631.287 -1.95324 0.495041 0
M  V30 6674 O 630.343 -2.5246 -0.0448949 0
M  V30 6675 C 631.656 -1.0299 2.82513 0
M  V30 6676 C 633.204 -1.13354 2.91753 0
M  V30 6677 C 633.679 -1.43453 4.34954 0
M  V30 6678 N 635.17 -1.5035 4.3812 0
M  V30 6679 C 635.905 -1.75236 5.45967 0
M  V30 6680 N 635.401 -1.97827 6.63955 0
M  V30 6681 N 637.194 -1.77126 5.33463 0
M  V30 6682 H 629.345 0.360228 2.09323 0
M  V30 6683 H 631.608 0.0988128 0.942836 0
M  V30 6684 H 631.314 -0.226961 3.50967 0
M  V30 6685 H 631.188 -1.95411 3.22637 0
M  V30 6686 H 633.575 -1.92709 2.23489 0
M  V30 6687 H 633.656 -0.188041 2.55108 0
M  V30 6688 H 633.3 -0.646209 5.03772 0
M  V30 6689 H 633.23 -2.3923 4.69123 0
M  V30 6690 H 635.721 -1.34742 3.53062 0
M  V30 6691 H 636.034 -2.16223 7.41935 0
M  V30 6692 H 634.379 -1.95123 6.67047 0
M  V30 6693 H 637.57 -1.59005 4.40267 0
M  V30 6694 H 637.743 -1.96182 6.17589 0
M  V30 6695 N 631.149 -1.42148 -0.680565 0
M  V30 6696 C 632.397 -1.42029 -1.43779 0
M  V30 6697 C 632.718 -0.0356347 -1.94967 0
M  V30 6698 O 631.988 0.924936 -1.7269 0
M  V30 6699 H 630.568 -0.522835 -0.533529 0
M  V30 6700 H 633.23 -1.7752 -0.804538 0
M  V30 6701 H 632.326 -2.11658 -2.29363 0
M  V30 6702 N 632.627 0.916307 -1.28225 0
M  V30 6703 C 633.874 1.66518 -1.1523 0
M  V30 6704 C 634.202 1.92178 0.299632 0
M  V30 6705 O 633.457 1.51842 1.2346 0
M  V30 6706 C 633.756 3.03125 -1.8934 0
M  V30 6707 C 633.422 2.97135 -3.39148 0
M  V30 6708 C 632.084 2.95208 -3.80007 0
M  V30 6709 C 634.436 2.87574 -4.34685 0
M  V30 6710 C 631.764 2.81518 -5.14747 0
M  V30 6711 C 634.116 2.75424 -5.69495 0
M  V30 6712 C 632.78 2.71854 -6.09632 0
M  V30 6713 H 632.05 0.609334 -0.421655 0
M  V30 6714 H 634.697 1.06776 -1.58969 0
M  V30 6715 H 633.002 3.66639 -1.38143 0
M  V30 6716 H 634.699 3.59968 -1.76704 0
M  V30 6717 H 631.289 2.99428 -3.06661 0
M  V30 6718 H 635.473 2.88152 -4.04082 0
M  V30 6719 H 630.729 2.77148 -5.44976 0
M  V30 6720 H 634.903 2.66993 -6.43185 0
M  V30 6721 H 632.53 2.61003 -7.1399 0
M  V30 6722 N 634.105 1.10431 1.1244 0
M  V30 6723 C 635.015 0.765502 2.21759 0
M  V30 6724 C 636.031 -0.236966 1.72379 0
M  V30 6725 O 637.207 -0.0757329 2.01258 0
M  V30 6726 C 634.272 0.202316 3.46109 0
M  V30 6727 C 633.333 1.26205 4.1033 0
M  V30 6728 C 632.566 0.725648 5.28744 0
M  V30 6729 O 632.789 -0.447942 5.68638 0
M  V30 6730 O 631.723 1.48555 5.83279 0
M  V30 6731 H 635.549 1.67801 2.53133 0
M  V30 6732 H 633.134 0.879443 1.20773 0
M  V30 6733 H 635.016 -0.107918 4.21262 0
M  V30 6734 H 633.691 -0.683052 3.16411 0
M  V30 6735 H 632.598 1.62514 3.36957 0
M  V30 6736 H 633.931 2.12044 4.44183 0
M  V30 6737 N 635.583 -1.29855 0.893053 0
M  V30 6738 C 636.516 -2.26079 0.3104 0
M  V30 6739 C 637.494 -1.52145 -0.573644 0
M  V30 6740 O 638.678 -1.8113 -0.521937 0
M  V30 6741 C 635.805 -3.34069 -0.558179 0
M  V30 6742 C 634.851 -4.25721 0.257638 0
M  V30 6743 S 635.684 -5.09409 1.65114 0
M  V30 6744 C 636.84 -6.20903 0.789307 0
M  V30 6745 H 637.073 -2.75151 1.12602 0
M  V30 6746 H 634.606 -1.37975 0.692978 0
M  V30 6747 H 636.564 -3.9675 -1.05355 0
M  V30 6748 H 635.225 -2.83705 -1.34797 0
M  V30 6749 H 634.418 -5.02366 -0.405562 0
M  V30 6750 H 634.02 -3.67656 0.685917 0
M  V30 6751 H 636.312 -6.77499 0.00978451 0
M  V30 6752 H 637.255 -6.91426 1.52762 0
M  V30 6753 H 637.663 -5.63435 0.346634 0
M  V30 6754 N 637.061 -0.65484 -1.43351 0
M  V30 6755 C 638.338 -0.0987371 -1.95351 0
M  V30 6756 C 638.718 1.38161 -1.59608 0
M  V30 6757 O 638.066 2.10791 -0.882021 0
M  V30 6758 C 638.276 -0.346684 -3.47274 0
M  V30 6759 C 639.624 -0.25249 -4.23849 0
M  V30 6760 O 640.648 -0.279332 -3.55103 0
M  V30 6761 O 639.507 -0.177584 -5.46211 0
M  V30 6762 H 636.601 0.0086829 -0.826954 0
M  V30 6763 H 639.147 -0.728189 -1.53282 0
M  V30 6764 H 637.919 -1.37296 -3.66423 0
M  V30 6765 H 637.542 0.315757 -3.96344 0
M  V30 6766 N 638.539 1.52521 -0.396863 0
M  V30 6767 C 639.786 2.01672 0.182898 0
M  V30 6768 C 640.114 1.28302 1.46181 0
M  V30 6769 O 639.369 0.374118 1.92091 0
M  V30 6770 C 639.668 3.5403 0.489677 0
M  V30 6771 C 639.334 4.45456 -0.698581 0
M  V30 6772 C 637.996 4.70166 -1.02454 0
M  V30 6773 C 640.348 4.99354 -1.49316 0
M  V30 6774 C 637.676 5.46024 -2.1465 0
M  V30 6775 C 640.028 5.76439 -2.60579 0
M  V30 6776 C 638.692 5.99426 -2.93675 0
M  V30 6777 H 637.962 0.737971 0.066927 0
M  V30 6778 H 640.609 1.83853 -0.535764 0
M  V30 6779 H 638.914 3.69963 1.28976 0
M  V30 6780 H 640.611 3.8956 0.951018 0
M  V30 6781 H 637.201 4.26392 -0.434525 0
M  V30 6782 H 641.385 4.80182 -1.25457 0
M  V30 6783 H 636.641 5.62046 -2.40654 0
M  V30 6784 H 640.815 6.17202 -3.22544 0
M  V30 6785 H 638.442 6.57988 -3.80731 0
M  V30 6786 N 640.017 0.126909 1.57088 0
M  V30 6787 C 640.98 -0.806097 2.14557 0
M  V30 6788 C 641.98 -1.18918 1.08236 0
M  V30 6789 O 643.17 -1.11339 1.33975 0
M  V30 6790 C 640.302 -2.09116 2.69227 0
M  V30 6791 H 641.495 -0.306522 2.98329 0
M  V30 6792 H 639.048 -0.122393 1.5582 0
M  V30 6793 H 639.783 -2.63486 1.89065 0
M  V30 6794 H 639.568 -1.82588 3.46993 0
M  V30 6795 H 641.058 -2.75794 3.13572 0
M  V30 6796 N 641.495 -1.56914 -0.146875 0
M  V30 6797 C 642.405 -2.0154 -1.20079 0
M  V30 6798 C 643.421 -0.930838 -1.47008 0
M  V30 6799 O 644.597 -1.24032 -1.58676 0
M  V30 6800 C 641.662 -2.38715 -2.51428 0
M  V30 6801 C 640.723 -3.6112 -2.32145 0
M  V30 6802 C 639.956 -3.96512 -3.57231 0
M  V30 6803 O 640.179 -3.32566 -4.63418 0
M  V30 6804 O 639.113 -4.89758 -3.49887 0
M  V30 6805 H 642.939 -2.91506 -0.851924 0
M  V30 6806 H 640.524 -1.45106 -0.355607 0
M  V30 6807 H 642.406 -2.63485 -3.28867 0
M  V30 6808 H 641.081 -1.51903 -2.85845 0
M  V30 6809 H 639.988 -3.41536 -1.52656 0
M  V30 6810 H 641.321 -4.48549 -2.02644 0
M  V30 6811 N 642.974 0.416227 -1.52004 0
M  V30 6812 C 643.904 1.51365 -1.77795 0
M  V30 6813 C 644.885 1.58059 -0.628601 0
M  V30 6814 O 646.07 1.73447 -0.873478 0
M  V30 6815 C 643.2 2.89256 -1.92219 0
M  V30 6816 C 642.154 2.97415 -3.0778 0
M  V30 6817 C 641.48 4.37492 -3.07417 0
M  V30 6818 C 642.78 2.69551 -4.47369 0
M  V30 6819 H 644.474 1.30033 -2.69688 0
M  V30 6820 H 642.02 0.624112 -1.29772 0
M  V30 6821 H 643.973 3.66008 -2.08845 0
M  V30 6822 H 642.697 3.11866 -0.969917 0
M  V30 6823 H 641.356 2.23107 -2.90893 0
M  V30 6824 H 641.004 4.571 -2.09925 0
M  V30 6825 H 640.704 4.43877 -3.85029 0
M  V30 6826 H 642.228 5.16188 -3.26162 0
M  V30 6827 H 643.642 3.36028 -4.64497 0
M  V30 6828 H 642.039 2.87321 -5.26846 0
M  V30 6829 H 643.109 1.65029 -4.55953 0
M  V30 6830 N 644.452 1.42507 0.673017 0
M  V30 6831 C 645.382 1.48916 1.79851 0
M  V30 6832 C 646.363 0.345566 1.66553 0
M  V30 6833 O 647.548 0.560116 1.85947 0
M  V30 6834 C 644.678 1.39258 3.18158 0
M  V30 6835 C 643.632 2.51662 3.46194 0
M  V30 6836 C 642.958 2.27062 4.84094 0
M  V30 6837 C 644.258 3.93968 3.42909 0
M  V30 6838 H 645.952 2.43114 1.74745 0
M  V30 6839 H 643.498 1.17013 0.839288 0
M  V30 6840 H 645.451 1.42349 3.96629 0
M  V30 6841 H 644.175 0.415542 3.23946 0
M  V30 6842 H 642.834 2.47891 2.70084 0
M  V30 6843 H 642.482 1.27648 4.86534 0
M  V30 6844 H 642.182 3.02398 5.03815 0
M  V30 6845 H 643.706 2.31905 5.64847 0
M  V30 6846 H 645.12 3.99332 4.11347 0
M  V30 6847 H 643.517 4.6917 3.74165 0
M  V30 6848 H 644.587 4.20512 2.41449 0
M  V30 6849 N 645.93 -0.909495 1.28709 0
M  V30 6850 C 646.86 -2.0291 1.15542 0
M  V30 6851 C 647.841 -1.7002 0.0521017 0
M  V30 6852 O 649.026 -1.92835 0.229849 0
M  V30 6853 C 646.156 -3.37458 0.820935 0
M  V30 6854 C 645.11 -3.84524 1.87949 0
M  V30 6855 C 644.436 -5.16086 1.39854 0
M  V30 6856 C 645.736 -4.05918 3.28676 0
M  V30 6857 H 647.43 -2.14183 2.09203 0
M  V30 6858 H 644.976 -1.02913 1.00722 0
M  V30 6859 H 646.929 -4.1528 0.715571 0
M  V30 6860 H 645.653 -3.26249 -0.151374 0
M  V30 6861 H 644.312 -3.08911 1.97408 0
M  V30 6862 H 643.96 -5.01284 0.41518 0
M  V30 6863 H 643.66 -5.48547 2.1064 0
M  V30 6864 H 645.184 -5.96459 1.30649 0
M  V30 6865 H 646.598 -4.74252 3.22115 0
M  V30 6866 H 644.995 -4.49717 3.97334 0
M  V30 6867 H 646.065 -3.10583 3.72379 0
M  V30 6868 N 647.408 -1.11026 -1.11852 0
M  V30 6869 C 648.318 -0.777252 -2.2135 0
M  V30 6870 C 649.334 0.227821 -1.72502 0
M  V30 6871 O 650.51 0.0650587 -2.01295 0
M  V30 6872 C 647.575 -0.220668 -3.45997 0
M  V30 6873 C 646.636 -1.2838 -4.09655 0
M  V30 6874 C 645.869 -0.753678 -5.28352 0
M  V30 6875 O 646.092 0.417779 -5.68868 0
M  V30 6876 O 645.026 -1.51647 -5.82483 0
M  V30 6877 H 648.852 -1.69141 -2.5224 0
M  V30 6878 H 646.437 -0.885836 -1.20305 0
M  V30 6879 H 648.319 0.0855756 -4.21313 0
M  V30 6880 H 646.994 0.666262 -3.16769 0
M  V30 6881 H 645.901 -1.64299 -3.3609 0
M  V30 6882 H 647.234 -2.14396 -4.43052 0
M  V30 6883 N 648.886 1.2938 -0.899927 0
M  V30 6884 C 650.163 1.9046 -0.445443 0
M  V30 6885 C 650.543 1.81683 1.07492 0
M  V30 6886 O 649.891 1.24371 1.91688 0
M  V30 6887 C 650.101 3.35529 -0.960279 0
M  V30 6888 C 651.449 4.12556 -1.00412 0
M  V30 6889 O 652.473 3.44434 -0.907965 0
M  V30 6890 O 651.332 5.34294 -1.14857 0
M  V30 6891 H 648.426 0.815253 -0.138893 0
M  V30 6892 H 650.972 1.37844 -0.989808 0
M  V30 6893 H 649.744 3.36074 -2.00425 0
M  V30 6894 H 649.367 3.95624 -0.395939 0
M  V30 6895 N 650.364 0.662433 1.43002 0
M  V30 6896 C 651.594 0.187343 2.05749 0
M  V30 6897 C 652.002 -1.15582 1.49791 0
M  V30 6898 O 651.345 -1.72651 0.627487 0
M  V30 6899 C 651.407 0.0316493 3.59486 0
M  V30 6900 C 651.071 1.30156 4.38073 0
M  V30 6901 C 652.068 2.23234 4.69535 0
M  V30 6902 C 649.753 1.54572 4.77926 0
M  V30 6903 C 651.747 3.39012 5.39768 0
M  V30 6904 C 649.434 2.70641 5.47902 0
M  V30 6905 C 650.432 3.62687 5.78746 0
M  V30 6906 O 650.12 4.76728 6.47291 0
M  V30 6907 H 649.852 0.0915214 0.669776 0
M  V30 6908 H 652.406 0.905982 1.8434 0
M  V30 6909 H 650.636 -0.742451 3.79506 0
M  V30 6910 H 652.325 -0.401977 4.03905 0
M  V30 6911 H 653.091 2.05616 4.39257 0
M  V30 6912 H 648.97 0.83804 4.53319 0
M  V30 6913 H 652.514 4.10877 5.63761 0
M  V30 6914 H 648.411 2.88189 5.77596 0
M  V30 6915 H 649.179 4.76113 6.65777 0
M  V30 6916 N 651.842 -1.52309 0.404946 0
M  V30 6917 C 652.789 -2.26898 -0.422597 0
M  V30 6918 C 653.759 -1.2914 -1.04461 0
M  V30 6919 O 654.944 -1.57996 -1.06967 0
M  V30 6920 C 652.084 -3.09053 -1.53559 0
M  V30 6921 C 651.197 -4.21762 -0.934908 0
M  V30 6922 C 650.332 -4.91283 -2.02025 0
M  V30 6923 C 649.371 -5.95962 -1.39628 0
M  V30 6924 N 648.508 -6.59017 -2.42159 0
M  V30 6925 H 653.348 -2.97188 0.219903 0
M  V30 6926 H 650.885 -1.46607 0.120282 0
M  V30 6927 H 652.843 -3.54987 -2.19181 0
M  V30 6928 H 651.473 -2.40942 -2.14818 0
M  V30 6929 H 650.525 -3.80029 -0.167854 0
M  V30 6930 H 651.837 -4.96864 -0.439073 0
M  V30 6931 H 650.991 -5.40601 -2.75383 0
M  V30 6932 H 649.73 -4.15741 -2.54973 0
M  V30 6933 H 648.735 -5.45968 -0.648023 0
M  V30 6934 H 649.96 -6.73445 -0.874553 0
M  V30 6935 H 647.906 -5.86306 -2.94247 0
M  V30 6936 H 647.823 -7.2978 -1.97376 0
M  V30 6937 H 649.091 -7.12974 -3.15099 0
M  V30 6938 N 653.32 -0.135238 -1.57019 0
M  V30 6939 C 654.283 0.794707 -2.14981 0
M  V30 6940 C 655.283 1.18342 -1.08866 0
M  V30 6941 O 656.473 1.10627 -1.34563 0
M  V30 6942 C 653.605 2.07685 -2.70333 0
M  V30 6943 H 654.798 0.290696 -2.98488 0
M  V30 6944 H 652.351 0.114128 -1.55883 0
M  V30 6945 H 653.086 2.6248 -1.9046 0
M  V30 6946 H 652.871 1.80745 -3.47957 0
M  V30 6947 H 654.361 2.74127 -3.1503 0
M  V30 6948 N 654.798 1.5699 0.138552 0
M  V30 6949 C 656.023 1.88344 0.86841 0
M  V30 6950 C 656.448 0.725159 1.7356 0
M  V30 6951 O 655.806 -0.324992 1.78363 0
M  V30 6952 C 655.854 3.18334 1.69398 0
M  V30 6953 O 654.958 3.02863 2.79907 0
M  V30 6954 H 654.299 0.618577 0.241367 0
M  V30 6955 H 656.829 2.04207 0.126826 0
M  V30 6956 H 656.839 3.50567 2.08726 0
M  V30 6957 H 655.514 4.02238 1.05725 0
M  V30 6958 H 654.091 2.82056 2.43924 0
M  V30 6959 N 656.276 -0.40816 1.52223 0
M  V30 6960 C 657.206 -1.5042 1.78595 0
M  V30 6961 C 658.187 -1.57723 0.636974 0
M  V30 6962 O 659.372 -1.72982 0.882664 0
M  V30 6963 C 656.502 -2.88232 1.93751 0
M  V30 6964 C 655.456 -2.95779 3.09352 0
M  V30 6965 C 654.782 -4.35855 3.09732 0
M  V30 6966 C 656.082 -2.67175 4.48793 0
M  V30 6967 H 657.776 -1.28601 2.70374 0
M  V30 6968 H 655.322 -0.617221 1.30101 0
M  V30 6969 H 657.275 -3.64895 2.10783 0
M  V30 6970 H 655.999 -3.11347 0.986443 0
M  V30 6971 H 654.658 -2.21561 2.92072 0
M  V30 6972 H 654.306 -4.55981 2.12346 0
M  V30 6973 H 654.006 -4.41829 3.87377 0
M  V30 6974 H 655.53 -5.14451 3.28895 0
M  V30 6975 H 656.944 -3.3356 4.66273 0
M  V30 6976 H 655.341 -2.84523 5.28362 0
M  V30 6977 H 656.411 -1.62609 4.56822 0
M  V30 6978 N 657.755 -1.42862 -0.66545 0
M  V30 6979 C 658.702 -1.4707 -1.77874 0
M  V30 6980 C 659.672 -0.321654 -1.62956 0
M  V30 6981 O 660.857 -0.52707 -1.83376 0
M  V30 6982 C 657.997 -1.38788 -3.15962 0
M  V30 6983 C 657.11 -2.63801 -3.42101 0
M  V30 6984 C 656.245 -2.47594 -4.69969 0
M  V30 6985 C 655.284 -3.67936 -4.89172 0
M  V30 6986 N 654.421 -3.50614 -6.08288 0
M  V30 6987 H 659.261 -2.42204 -1.73613 0
M  V30 6988 H 656.798 -1.20239 -0.847401 0
M  V30 6989 H 658.756 -1.31982 -3.95773 0
M  V30 6990 H 657.386 -0.472431 -3.19324 0
M  V30 6991 H 656.438 -2.80935 -2.56475 0
M  V30 6992 H 657.75 -3.53228 -3.52181 0
M  V30 6993 H 656.904 -2.38427 -5.57886 0
M  V30 6994 H 655.643 -1.55672 -4.62188 0
M  V30 6995 H 654.648 -3.77525 -3.99694 0
M  V30 6996 H 655.873 -4.60851 -4.98792 0
M  V30 6997 H 653.819 -2.61417 -6.01662 0
M  V30 6998 H 653.736 -4.33634 -6.19272 0
M  V30 6999 H 655.004 -3.45276 -6.98859 0
M  V30 7000 N 659.233 0.902656 -1.29189 0
M  V30 7001 C 660.463 1.68394 -1.19695 0
M  V30 7002 C 660.871 1.87602 0.245384 0
M  V30 7003 O 660.214 1.41084 1.17648 0
M  V30 7004 C 660.276 3.09094 -1.83578 0
M  V30 7005 C 659.94 3.1313 -3.32864 0
M  V30 7006 C 660.937 2.93497 -4.29134 0
M  V30 7007 C 658.622 3.3529 -3.74013 0
M  V30 7008 C 660.616 2.95953 -5.64527 0
M  V30 7009 C 658.303 3.37377 -5.09529 0
M  V30 7010 C 659.301 3.1773 -6.04596 0
M  V30 7011 O 658.989 3.196 -7.37639 0
M  V30 7012 H 658.721 0.532815 -0.416034 0
M  V30 7013 H 661.275 1.1374 -1.71033 0
M  V30 7014 H 659.505 3.65338 -1.26747 0
M  V30 7015 H 661.194 3.69297 -1.68447 0
M  V30 7016 H 661.96 2.76192 -3.98677 0
M  V30 7017 H 657.839 3.49623 -3.00474 0
M  V30 7018 H 661.383 2.80536 -6.38706 0
M  V30 7019 H 657.28 3.54213 -5.39633 0
M  V30 7020 H 658.048 3.35887 -7.46406 0
M  V30 7021 N 660.711 1.11618 1.11262 0
M  V30 7022 C 661.641 0.79846 2.19424 0
M  V30 7023 C 662.622 -0.234003 1.68483 0
M  V30 7024 O 663.807 -0.0970704 1.93957 0
M  V30 7025 C 660.937 0.242892 3.4645 0
M  V30 7026 C 659.891 1.20744 4.10615 0
M  V30 7027 C 659.217 0.512494 5.32238 0
M  V30 7028 C 660.517 2.55884 4.55325 0
M  V30 7029 H 662.211 1.70286 2.46258 0
M  V30 7030 H 659.757 0.820195 1.18359 0
M  V30 7031 H 661.71 0.00840447 4.21399 0
M  V30 7032 H 660.434 -0.696811 3.1908 0
M  V30 7033 H 659.093 1.42759 3.37662 0
M  V30 7034 H 658.741 -0.432075 5.01141 0
M  V30 7035 H 658.441 1.15583 5.7612 0
M  V30 7036 H 659.965 0.286842 6.09926 0
M  V30 7037 H 661.379 2.37946 5.21588 0
M  V30 7038 H 659.776 3.16216 5.10027 0
M  V30 7039 H 660.846 3.14968 3.68678 0
M  V30 7040 N 662.189 -1.289 0.906776 0
M  V30 7041 C 663.414 -1.99939 0.551303 0
M  V30 7042 C 663.839 -1.67366 -0.858496 0
M  V30 7043 O 663.197 -0.902176 -1.57259 0
M  V30 7044 C 663.245 -3.52523 0.758937 0
M  V30 7045 O 662.349 -4.11983 -0.185308 0
M  V30 7046 H 661.69 -0.628376 0.214568 0
M  V30 7047 H 664.22 -1.64225 1.2203 0
M  V30 7048 H 664.23 -4.02522 0.666329 0
M  V30 7049 H 662.905 -3.75566 1.78671 0
M  V30 7050 H 661.482 -3.72873 -0.0445577 0
M  V30 7051 N 663.667 -0.670007 -1.42649 0
M  V30 7052 C 664.944 -0.119451 -1.95235 0
M  V30 7053 C 665.324 1.36461 -1.61064 0
M  V30 7054 O 664.672 2.09843 -0.904329 0
M  V30 7055 C 664.882 -0.383498 -3.46887 0
M  V30 7056 C 666.23 -0.297431 -4.23557 0
M  V30 7057 O 667.254 -0.31698 -3.54787 0
M  V30 7058 O 666.113 -0.235507 -5.45992 0
M  V30 7059 H 663.207 -8.85474e-05 -0.827 0
M  V30 7060 H 665.753 -0.744406 -1.52501 0
M  V30 7061 H 664.525 -1.41174 -3.64946 0
M  V30 7062 H 664.148 0.273702 -3.96657 0
M  V30 7063 N 665.145 1.52092 -0.413018 0
M  V30 7064 C 666.095 2.23947 0.427993 0
M  V30 7065 C 667.079 1.25229 1.01027 0
M  V30 7066 O 668.271 1.50448 0.932444 0
M  V30 7067 C 665.4 3.0672 1.542 0
M  V30 7068 C 664.486 4.12851 0.970307 0
M  V30 7069 N 664.877 5.05644 0.125611 0
M  V30 7070 C 663.175 4.28404 1.24042 0
M  V30 7071 C 663.876 5.8138 -0.192876 0
M  V30 7072 N 662.852 5.41996 0.417273 0
M  V30 7073 H 666.654 2.93048 -0.223628 0
M  V30 7074 H 664.168 1.60852 -0.223664 0
M  V30 7075 H 666.165 3.56754 2.15714 0
M  V30 7076 H 664.825 2.39159 2.19621 0
M  V30 7077 H 665.836 5.17348 -0.238995 0
M  V30 7078 H 662.513 3.72071 1.89391 0
M  V30 7079 H 663.903 6.66129 -0.878762 0
M  V30 7080 N 666.623 0.143563 1.56945 0
M  V30 7081 C 668.034 -0.37783 1.82837 0
M  V30 7082 C 668.385 -1.64967 1.06209 0
M  V30 7083 O 667.51 -2.14221 0.306291 0
M  V30 7084 C 668.105 -0.692274 3.31652 0
M  V30 7085 C 666.664 -1.1582 3.58138 0
M  V30 7086 C 665.811 -0.17951 2.76718 0
M  V30 7087 H 668.762 0.368317 1.54367 0
M  V30 7088 H 668.783 -1.54729 3.47619 0
M  V30 7089 H 668.295 0.233572 3.87397 0
M  V30 7090 H 666.396 -2.10011 3.07776 0
M  V30 7091 H 666.509 -1.08655 4.66616 0
M  V30 7092 H 664.873 -0.671458 2.4569 0
M  V30 7093 H 665.656 0.739865 3.35233 0
M  V30 7094 N 668.101 -1.57061 -0.130224 0
M  V30 7095 C 669.048 -1.99517 -1.16024 0
M  V30 7096 C 670.018 -0.865452 -1.41771 0
M  V30 7097 O 671.203 -1.12882 -1.53826 0
M  V30 7098 C 668.343 -2.3951 -2.48453 0
M  V30 7099 C 667.456 -3.65848 -2.29737 0
M  V30 7100 C 666.591 -3.9487 -3.55318 0
M  V30 7101 C 665.63 -5.14426 -3.31711 0
M  V30 7102 N 664.767 -5.39375 -4.49466 0
M  V30 7103 H 669.607 -2.87305 -0.791194 0
M  V30 7104 H 667.144 -1.42129 -0.379195 0
M  V30 7105 H 669.102 -2.60731 -3.25692 0
M  V30 7106 H 667.732 -1.54779 -2.83272 0
M  V30 7107 H 666.784 -3.52307 -1.4347 0
M  V30 7108 H 668.096 -4.53241 -2.08263 0
M  V30 7109 H 667.25 -4.16679 -4.4098 0
M  V30 7110 H 665.989 -3.05931 -3.79813 0
M  V30 7111 H 664.994 -4.92473 -2.44439 0
M  V30 7112 H 666.219 -6.04933 -3.08598 0
M  V30 7113 H 664.165 -4.53391 -4.74102 0
M  V30 7114 H 664.082 -6.21069 -4.31055 0
M  V30 7115 H 665.35 -5.65694 -5.36293 0
M  V30 7116 N 669.579 0.400081 -1.52437 0
M  V30 7117 C 670.509 1.4947 -1.7939 0
M  V30 7118 C 671.49 1.57383 -0.645329 0
M  V30 7119 O 672.675 1.72511 -0.891826 0
M  V30 7120 C 669.805 2.87201 -1.95276 0
M  V30 7121 C 668.759 2.94134 -3.10917 0
M  V30 7122 C 668.085 4.34207 -3.1204 0
M  V30 7123 C 669.385 2.64791 -4.50203 0
M  V30 7124 H 671.079 1.27165 -2.71052 0
M  V30 7125 H 668.625 0.610312 -1.30427 0
M  V30 7126 H 670.578 3.63772 -2.12715 0
M  V30 7127 H 669.302 3.10819 -1.00294 0
M  V30 7128 H 667.961 2.20009 -2.93243 0
M  V30 7129 H 667.609 4.54848 -2.14761 0
M  V30 7130 H 667.309 4.39768 -3.89715 0
M  V30 7131 H 668.833 5.127 -3.31619 0
M  V30 7132 H 670.247 3.31083 -4.68035 0
M  V30 7133 H 668.644 2.81717 -5.29864 0
M  V30 7134 H 669.714 1.60184 -4.57678 0
M  V30 7135 N 671.057 1.43213 0.657864 0
M  V30 7136 C 671.989 1.43974 1.78337 0
M  V30 7137 C 673.002 0.336482 1.59285 0
M  V30 7138 O 674.191 0.600631 1.68091 0
M  V30 7139 C 671.291 1.23242 3.15697 0
M  V30 7140 C 670.464 2.46319 3.61449 0
M  V30 7141 C 669.523 2.2088 4.77597 0
M  V30 7142 O 668.549 2.942 4.87273 0
M  V30 7143 N 669.751 1.22251 5.67481 0
M  V30 7144 H 672.516 2.40993 1.78164 0
M  V30 7145 H 670.077 1.3831 0.841549 0
M  V30 7146 H 672.069 1.04113 3.91079 0
M  V30 7147 H 670.639 0.346849 3.1067 0
M  V30 7148 H 669.859 2.80904 2.76563 0
M  V30 7149 H 671.147 3.28239 3.88763 0
M  V30 7150 H 670.545 0.616433 5.62331 0
M  V30 7151 H 669.102 1.09107 6.42603 0
M  V30 7152 N 672.536 -0.895792 1.29666 0
M  V30 7153 C 673.784 -1.64339 1.17631 0
M  V30 7154 C 674.105 -1.93099 -0.271643 0
M  V30 7155 O 673.375 -1.55981 -1.18518 0
M  V30 7156 H 671.955 -0.609162 0.432354 0
M  V30 7157 H 674.617 -1.07389 1.62646 0
M  V30 7158 H 673.713 -2.59815 1.72924 0
M  V30 7159 N 674.014 -1.12206 -1.10668 0
M  V30 7160 C 675.263 -0.870595 -1.81944 0
M  V30 7161 C 675.576 0.605447 -1.85994 0
M  V30 7162 O 676.782 0.973433 -2.53449 0
M  V30 7163 C 675.238 -1.50783 -3.26791 0
M  V30 7164 C 674.846 -3.01849 -3.31046 0
M  V30 7165 C 676.59 -1.33653 -4.02911 0
M  V30 7166 C 674.497 -3.58518 -4.70339 0
M  V30 7167 H 673.427 -0.322043 -0.681765 0
M  V30 7168 H 676.078 -1.34827 -1.24475 0
M  V30 7169 H 674.46 -0.957825 -3.84242 0
M  V30 7170 H 675.634 -3.63321 -2.83433 0
M  V30 7171 H 673.949 -3.18346 -2.68411 0
M  V30 7172 H 676.546 -1.73416 -5.05797 0
M  V30 7173 H 676.889 -0.279949 -4.15358 0
M  V30 7174 H 677.422 -1.85562 -3.51868 0
M  V30 7175 H 674.161 -4.63925 -4.63091 0
M  V30 7176 H 673.681 -3.01819 -5.18329 0
M  V30 7177 H 675.36 -3.57434 -5.39305 0
M  V30 7178 N 675.492 1.28418 -0.913599 0
M  V30 7179 C 676.455 2.25564 -0.406624 0
M  V30 7180 C 677.455 1.5387 0.466965 0
M  V30 7181 O 678.645 1.72094 0.270042 0
M  V30 7182 C 675.777 3.38339 0.417053 0
M  V30 7183 H 676.97 2.71926 -1.26477 0
M  V30 7184 H 674.523 1.40098 -0.692986 0
M  V30 7185 H 675.258 2.97339 1.29461 0
M  V30 7186 H 675.043 3.91542 -0.209102 0
M  V30 7187 H 676.533 4.10578 0.762602 0
M  V30 7188 N 676.97 0.677563 1.42291 0
M  V30 7189 C 677.902 -0.0380218 2.29168 0
M  V30 7190 C 678.915 -0.762714 1.43828 0
M  V30 7191 O 680.104 -0.616413 1.67519 0
M  V30 7192 C 677.204 -1.07761 3.21311 0
M  V30 7193 C 676.377 -0.42618 4.35319 0
M  V30 7194 C 675.436 -1.36592 5.08162 0
M  V30 7195 O 674.462 -0.865174 5.62586 0
M  V30 7196 N 675.664 -2.69909 5.13935 0
M  V30 7197 H 678.429 0.707766 2.91223 0
M  V30 7198 H 675.99 0.52219 1.53247 0
M  V30 7199 H 677.982 -1.70761 3.6691 0
M  V30 7200 H 676.552 -1.72511 2.60689 0
M  V30 7201 H 675.772 0.383385 3.92331 0
M  V30 7202 H 677.06 0.0275277 5.08793 0
M  V30 7203 H 676.458 -3.13129 4.71134 0
M  V30 7204 H 675.015 -3.2815 5.6317 0
M  V30 7205 N 678.448 -1.51871 0.421078 0
M  V30 7206 C 679.38 -2.25052 -0.434065 0
M  V30 7207 C 680.393 -1.28458 -1.00013 0
M  V30 7208 O 681.582 -1.54323 -0.897033 0
M  V30 7209 C 678.682 -2.97813 -1.61743 0
M  V30 7210 C 677.855 -4.21374 -1.17315 0
M  V30 7211 C 676.914 -4.76854 -2.22478 0
M  V30 7212 O 675.94 -5.39123 -1.82577 0
M  V30 7213 N 677.142 -4.59467 -3.54782 0
M  V30 7214 H 679.907 -2.99077 0.193073 0
M  V30 7215 H 677.468 -1.59972 0.249088 0
M  V30 7216 H 679.46 -3.3182 -2.31685 0
M  V30 7217 H 678.03 -2.26899 -2.15024 0
M  V30 7218 H 677.25 -3.93046 -0.3014 0
M  V30 7219 H 678.538 -5.01591 -0.853444 0
M  V30 7220 H 677.936 -4.09832 -3.89941 0
M  V30 7221 H 676.493 -4.9788 -4.20665 0
M  V30 7222 N 679.926 -0.151884 -1.56866 0
M  V30 7223 C 680.874 0.80299 -2.183 0
M  V30 7224 C 681.868 1.25174 -1.14139 0
M  V30 7225 O 683.074 1.21966 -1.3238 0
M  V30 7226 H 679.449 0.277169 -0.699057 0
M  V30 7227 H 681.42 0.260699 -2.97259 0
M  V30 7228 C 680.169 2.03009 -2.82281 0
M  V30 7229 H 679.492 1.69377 -3.62148 0
M  V30 7230 H 680.932 2.67753 -3.28762 0
M  V30 7231 C 679.391 2.84123 -1.81041 0
M  V30 7232 O 679.921 3.8063 -1.28388 0
M  V30 7233 N 678.127 2.48753 -1.50234 0
M  V30 7234 H 677.674 1.70337 -1.93244 0
M  V30 7235 H 677.632 3.03316 -0.827445 0
M  V30 7236 N 681.404 1.57128 0.121893 0
M  V30 7237 C 682.629 1.89254 0.848385 0
M  V30 7238 C 683.054 0.743527 1.72781 0
M  V30 7239 O 682.412 -0.306056 1.78698 0
M  V30 7240 C 682.46 3.20113 1.66012 0
M  V30 7241 O 681.564 3.05815 2.76679 0
M  V30 7242 H 680.905 0.621103 0.234793 0
M  V30 7243 H 683.435 2.0433 0.10516 0
M  V30 7244 H 683.445 3.52761 2.04996 0
M  V30 7245 H 682.12 4.03336 1.01452 0
M  V30 7246 H 680.697 2.84627 2.40918 0
M  V30 7247 N 682.882 -0.391992 1.52647 0
M  V30 7248 C 684.129 -1.13732 1.67545 0
M  V30 7249 C 684.457 -1.90045 0.413881 0
M  V30 7250 O 683.712 -1.86157 -0.603646 0
M  V30 7251 C 684.011 -2.14401 2.85949 0
M  V30 7252 C 683.677 -1.54767 4.23507 0
M  V30 7253 C 682.339 -1.38229 4.60919 0
M  V30 7254 C 684.691 -1.11382 5.0916 0
M  V30 7255 C 682.019 -0.7685 5.81645 0
M  V30 7256 C 684.371 -0.514143 6.30507 0
M  V30 7257 C 683.035 -0.33604 6.66654 0
M  V30 7258 H 682.305 -0.416174 0.613091 0
M  V30 7259 H 684.952 -0.422327 1.86785 0
M  V30 7260 H 683.257 -2.92108 2.61114 0
M  V30 7261 H 684.954 -2.71974 2.94671 0
M  V30 7262 H 681.544 -1.68626 3.94035 0
M  V30 7263 H 685.728 -1.22962 4.80826 0
M  V30 7264 H 680.984 -0.618681 6.08262 0
M  V30 7265 H 685.158 -0.169657 6.96193 0
M  V30 7266 H 682.785 0.14166 7.60068 0
M  V30 7267 N 684.36 -1.4356 -0.65026 0
M  V30 7268 C 685.307 -1.48948 -1.76304 0
M  V30 7269 C 686.277 -0.338919 -1.62605 0
M  V30 7270 O 687.462 -0.54649 -1.82806 0
M  V30 7271 C 684.602 -1.42131 -3.14472 0
M  V30 7272 C 683.715 -2.67415 -3.39284 0
M  V30 7273 C 682.85 -2.52565 -4.67316 0
M  V30 7274 C 681.889 -3.73103 -4.85243 0
M  V30 7275 N 681.026 -3.57046 -6.04535 0
M  V30 7276 H 685.866 -2.44032 -1.71034 0
M  V30 7277 H 683.403 -1.21131 -0.834601 0
M  V30 7278 H 685.361 -1.36172 -3.94351 0
M  V30 7279 H 683.991 -0.506273 -3.18805 0
M  V30 7280 H 683.043 -2.8364 -2.53481 0
M  V30 7281 H 684.355 -3.56943 -3.48415 0
M  V30 7282 H 683.509 -2.44331 -5.55326 0
M  V30 7283 H 682.248 -1.60566 -4.60511 0
M  V30 7284 H 681.253 -3.81743 -3.95667 0
M  V30 7285 H 682.478 -4.66115 -4.93876 0
M  V30 7286 H 680.424 -2.67783 -5.98856 0
M  V30 7287 H 680.341 -4.40178 -6.14638 0
M  V30 7288 H 681.609 -3.52669 -6.95158 0
M  V30 7289 N 685.838 0.888903 -1.30139 0
M  V30 7290 C 686.788 1.9814 -1.12803 0
M  V30 7291 C 687.772 1.60839 -0.0443137 0
M  V30 7292 O 688.964 1.74971 -0.267208 0
M  V30 7293 C 686.093 3.33416 -0.817849 0
M  V30 7294 C 685.179 3.77043 -1.94163 0
M  V30 7295 N 685.57 3.92805 -3.18651 0
M  V30 7296 C 683.868 4.06407 -1.8371 0
M  V30 7297 C 684.569 4.29746 -3.92038 0
M  V30 7298 N 683.545 4.3939 -3.20059 0
M  V30 7299 H 687.347 2.08411 -2.07225 0
M  V30 7300 H 684.861 1.07845 -1.21421 0
M  V30 7301 H 686.858 4.11405 -0.674668 0
M  V30 7302 H 685.518 3.24484 0.118344 0
M  V30 7303 H 686.529 3.78042 -3.53984 0
M  V30 7304 H 683.206 4.05972 -0.974331 0
M  V30 7305 H 684.596 4.49695 -4.99223 0
M  V30 7306 N 687.317 1.12792 1.10072 0
M  V30 7307 C 688.545 0.908506 1.85886 0
M  V30 7308 C 688.96 -0.542408 1.80841 0
M  V30 7309 O 688.317 -1.37517 1.1998 0
M  V30 7310 C 688.368 1.37973 3.34134 0
M  V30 7311 O 688.089 2.77378 3.39106 0
M  V30 7312 C 689.59 1.1978 4.26811 0
M  V30 7313 H 686.81 0.3244 0.587372 0
M  V30 7314 H 689.354 1.49882 1.39125 0
M  V30 7315 H 687.509 0.832566 3.78348 0
M  V30 7316 H 687.923 2.98144 4.31521 0
M  V30 7317 H 689.397 1.57635 5.29014 0
M  V30 7318 H 689.874 0.138768 4.38981 0
M  V30 7319 H 690.48 1.73266 3.88406 0
M  V30 7320 O 688.834 -1.22539 1.05197 0
M  V30 7321 H 689.525 -1.79492 0.728171 0
M  V30 END ATOM
M  V30 BEGIN BOND
M  V30 END BOND
M  V30 END CTAB
M  END
$$$$
