drugbank_target|P69681 Ammonia channel (DB01828; DB04147)
 OpenBabel12092119523D

  0  0  0     0  0            999 V3000
M  V30 BEGIN CTAB
M  V30 COUNTS 6359 6428 0 0 0
M  V30 BEGIN ATOM
M  V30 1 H -0.908 1.98254 -0.117106 0
M  V30 2 N 0 1.576 0 0
M  V30 3 C 0.933 2.03868 1.02534 0
M  V30 4 C 1.911 0.928543 1.3348 0
M  V30 5 O 3.095 1.19667 1.45644 0
M  V30 6 C 0.222 2.43627 2.35294 0
M  V30 7 C -0.732 3.65373 2.2001 0
M  V30 8 S 0.101 5.13292 1.52614 0
M  V30 9 C 1.257 5.56322 2.86805 0
M  V30 10 H 1.49 2.90518 0.631377 0
M  V30 11 H -0.977 1.52953 0.210867 0
M  V30 12 H 0.981 2.67203 3.11629 0
M  V30 13 H -0.358 1.57376 2.7183 0
M  V30 14 H -1.165 3.90944 3.18086 0
M  V30 15 H -1.563 3.418 1.51819 0
M  V30 16 H 0.729 5.58782 3.83104 0
M  V30 17 H 1.672 6.56266 2.65933 0
M  V30 18 H 2.08 4.83886 2.90714 0
M  V30 19 N 1.4781 -0.272755 1.55222 0
M  V30 20 C 2.4251 -1.33716 1.88119 0
M  V30 21 C 3.3951 -1.49066 0.73271 0
M  V30 22 O 4.5801 -1.63469 0.984002 0
M  V30 23 C 1.7201 -2.69238 2.15882 0
M  V30 24 C 0.8331 -2.62108 3.43399 0
M  V30 25 C -0.0319 -3.89811 3.60861 0
M  V30 26 C -0.9929 -3.77193 4.8207 0
M  V30 27 N -1.8559 -4.9673 4.96189 0
M  V30 28 H 2.9841 -1.04962 2.78903 0
M  V30 29 H 0.5211 -0.507088 1.38083 0
M  V30 30 H 2.4791 -3.48089 2.29978 0
M  V30 31 H 1.1091 -2.96194 1.28331 0
M  V30 32 H 0.1611 -1.74967 3.37773 0
M  V30 33 H 1.4731 -2.48685 4.32386 0
M  V30 34 H 0.6271 -4.77103 3.74777 0
M  V30 35 H -0.6339 -4.06102 2.7006 0
M  V30 36 H -1.6289 -2.88284 4.68159 0
M  V30 37 H -0.4039 -3.62421 5.74307 0
M  V30 38 H -2.4579 -5.13431 4.08319 0
M  V30 39 H -2.5409 -4.85839 5.79221 0
M  V30 40 H -1.2729 -5.85594 5.1449 0
M  V30 41 N 2.9562 -1.48159 -0.537278 0
M  V30 42 C 4.2052 -1.5506 -1.28993 0
M  V30 43 C 4.5182 -0.226211 -1.94288 0
M  V30 44 O 5.7242 -0.173395 -2.70946 0
M  V30 45 C 4.1802 -2.73429 -2.34018 0
M  V30 46 C 3.7882 -4.1248 -1.74825 0
M  V30 47 C 5.5322 -2.89638 -3.10339 0
M  V30 48 C 3.4392 -5.22121 -2.77747 0
M  V30 49 H 2.3692 -0.577231 -0.485098 0
M  V30 50 H 5.0202 -1.74478 -0.568317 0
M  V30 51 H 3.4022 -2.47431 -3.09182 0
M  V30 52 H 4.5762 -4.48466 -1.05899 0
M  V30 53 H 2.8912 -4.01327 -1.11022 0
M  V30 54 H 5.4882 -3.68718 -3.87235 0
M  V30 55 H 5.8312 -1.9882 -3.65754 0
M  V30 56 H 6.3642 -3.15502 -2.42288 0
M  V30 57 H 3.1032 -6.1488 -2.27161 0
M  V30 58 H 2.6232 -4.90631 -3.45024 0
M  V30 59 H 4.3022 -5.49924 -3.4087 0
M  V30 60 N 4.4343 0.785586 -1.36625 0
M  V30 61 C 5.3973 1.87999 -1.31107 0
M  V30 62 C 6.3973 1.59316 -0.217959 0
M  V30 63 O 7.5873 1.67656 -0.472977 0
M  V30 64 C 4.7193 3.24861 -1.03334 0
M  V30 65 H 5.9123 1.94307 -2.2844 0
M  V30 66 H 3.4653 0.983813 -1.21453 0
M  V30 67 H 4.2003 3.24235 -0.0647432 0
M  V30 68 H 3.9853 3.4707 -1.82441 0
M  V30 69 H 5.4753 4.04929 -1.02088 0
M  V30 70 N 5.9124 1.20967 1.01018 0
M  V30 71 C 7.1404 1.04956 1.78303 0
M  V30 72 C 7.5554 -0.400915 1.84494 0
M  V30 73 O 6.9124 -1.27826 1.30257 0
M  V30 74 C 6.9634 1.63403 3.22462 0
M  V30 75 O 6.6844 3.02775 3.16637 0
M  V30 76 C 8.1854 1.52432 4.16268 0
M  V30 77 H 5.4054 0.368858 0.560522 0
M  V30 78 H 7.9494 1.60193 1.27116 0
M  V30 79 H 6.1044 1.1227 3.70775 0
M  V30 80 H 6.5184 3.30626 4.07169 0
M  V30 81 H 7.9924 1.98078 5.15237 0
M  V30 82 H 8.4694 0.477875 4.36592 0
M  V30 83 H 9.0754 2.02787 3.73841 0
M  V30 84 N 7.3905 -1.2043 1.01659 0
M  V30 85 C 8.6395 -1.89118 0.701237 0
M  V30 86 C 8.9525 -1.79705 -0.772358 0
M  V30 87 O 10.1585 -2.43528 -1.20026 0
M  V30 88 C 8.6145 -3.39168 1.20388 0
M  V30 89 C 8.2225 -3.57166 2.70438 0
M  V30 90 C 9.9665 -4.1341 0.963953 0
M  V30 91 C 7.8735 -5.01042 3.14183 0
M  V30 92 H 6.8035 -0.708267 0.2586 0
M  V30 93 H 9.4545 -1.36239 1.22927 0
M  V30 94 H 7.8365 -3.91369 0.603824 0
M  V30 95 H 9.0105 -3.15351 3.35992 0
M  V30 96 H 7.3255 -2.96294 2.92572 0
M  V30 97 H 9.9225 -5.19491 1.26621 0
M  V30 98 H 10.2655 -4.16181 -0.099578 0
M  V30 99 H 10.7985 -3.67309 1.52738 0
M  V30 100 H 7.5375 -5.03426 4.19812 0
M  V30 101 H 7.0575 -5.43668 2.53348 0
M  V30 102 H 8.7365 -5.69623 3.0682 0
M  V30 103 N 8.8686 -0.792821 -1.36206 0
M  V30 104 C 9.8156 -0.191653 -2.30003 0
M  V30 105 C 10.7856 0.666453 -1.52143 0
M  V30 106 O 11.9706 0.61442 -1.80636 0
M  V30 107 C 9.1106 0.664848 -3.38635 0
M  V30 108 C 8.2236 -0.212175 -4.31479 0
M  V30 109 C 7.3586 0.651022 -5.27196 0
M  V30 110 C 6.3976 -0.227247 -6.11678 0
M  V30 111 N 5.5346 0.595127 -6.99573 0
M  V30 112 H 10.3746 -0.996978 -2.80828 0
M  V30 113 H 7.9116 -0.503206 -1.38225 0
M  V30 114 H 9.8696 1.17645 -4.00269 0
M  V30 115 H 8.4996 1.43557 -2.89122 0
M  V30 116 H 7.5516 -0.841777 -3.70969 0
M  V30 117 H 8.8636 -0.888751 -4.90818 0
M  V30 118 H 8.0176 1.2283 -5.94136 0
M  V30 119 H 6.7566 1.36121 -4.68319 0
M  V30 120 H 5.7616 -0.816904 -5.43697 0
M  V30 121 H 6.9866 -0.93509 -6.72631 0
M  V30 122 H 4.9326 1.28955 -6.432 0
M  V30 123 H 4.8496 -0.0236952 -7.55996 0
M  V30 124 H 6.1176 1.15613 -7.70879 0
M  V30 125 N 10.3467 1.47872 -0.545128 0
M  V30 126 C 11.5747 2.06889 -0.021084 0
M  V30 127 C 11.9897 1.39955 1.2672 0
M  V30 128 O 11.3467 0.492036 1.75742 0
M  V30 129 C 11.3977 3.60996 0.190817 0
M  V30 130 O 11.1187 4.25419 -1.04644 0
M  V30 131 C 12.6197 4.36849 0.753521 0
M  V30 132 H 9.8397 0.669785 -0.0403635 0
M  V30 133 H 12.3837 1.90049 -0.755095 0
M  V30 134 H 10.5387 3.77391 0.87492 0
M  V30 135 H 10.9527 5.17785 -0.836611 0
M  V30 136 H 12.4267 5.45399 0.851139 0
M  V30 137 H 12.9037 4.02306 1.762 0
M  V30 138 H 13.5097 4.25169 0.105503 0
M  V30 139 N 11.8248 0.280983 1.55075 0
M  V30 140 C 13.0728 -0.333455 1.9933 0
M  V30 141 C 13.3938 -1.55937 1.17085 0
M  V30 142 O 12.6638 -1.94143 0.261805 0
M  V30 143 H 11.2438 -0.126197 0.736263 0
M  V30 144 H 13.9058 0.387678 1.91005 0
M  V30 145 H 13.0018 -0.619292 3.05894 0
M  V30 146 N 13.3029 -1.57598 0.00835791 0
M  V30 147 C 14.2329 -2.1198 -0.979113 0
M  V30 148 C 15.2139 -1.03091 -1.35301 0
M  V30 149 O 16.3989 -1.30818 -1.43528 0
M  V30 150 C 13.5289 -2.62995 -2.26828 0
M  V30 151 C 12.4829 -3.76485 -2.03576 0
M  V30 152 C 11.8089 -4.13846 -3.38579 0
M  V30 153 C 13.1089 -5.0342 -1.39161 0
M  V30 154 H 14.8029 -2.94738 -0.526281 0
M  V30 155 H 12.3489 -1.41783 -0.251704 0
M  V30 156 H 14.3019 -2.99669 -2.96271 0
M  V30 157 H 13.0259 -1.7737 -2.7424 0
M  V30 158 H 11.6849 -3.40217 -1.36557 0
M  V30 159 H 11.3329 -3.25232 -3.83709 0
M  V30 160 H 11.0329 -4.90312 -3.23834 0
M  V30 161 H 12.5569 -4.53086 -4.09323 0
M  V30 162 H 13.9709 -5.37812 -1.98573 0
M  V30 163 H 12.3679 -5.84746 -1.34878 0
M  V30 164 H 13.4379 -4.83548 -0.361868 0
M  V30 165 N 14.781 0.264519 -1.55364 0
M  V30 166 C 15.744 1.31046 -1.88042 0
M  V30 167 C 16.744 1.41943 -0.755569 0
M  V30 168 O 17.934 1.40947 -1.02369 0
M  V30 169 C 15.066 2.69067 -2.09323 0
M  V30 170 H 16.259 1.03297 -2.81549 0
M  V30 171 H 13.812 0.502989 -1.47986 0
M  V30 172 H 14.547 3.01982 -1.18226 0
M  V30 173 H 14.332 2.62542 -2.91229 0
M  V30 174 H 15.822 3.44623 -2.35848 0
M  V30 175 N 16.2591 1.48442 0.529413 0
M  V30 176 C 17.4841 1.60406 1.31471 0
M  V30 177 C 17.9091 0.264738 1.86228 0
M  V30 178 O 17.2671 -0.763668 1.64432 0
M  V30 179 C 17.3151 2.65419 2.44101 0
M  V30 180 O 16.4191 2.22618 3.47153 0
M  V30 181 H 15.7601 0.537863 0.389357 0
M  V30 182 H 18.2901 1.94432 0.636965 0
M  V30 183 H 18.3001 2.86709 2.90279 0
M  V30 184 H 16.9751 3.62652 2.03608 0
M  V30 185 H 15.5521 2.11543 3.0709 0
M  V30 186 N 17.7372 -0.778329 1.37039 0
M  V30 187 C 18.6672 -1.90546 1.34962 0
M  V30 188 C 19.6482 -1.68681 0.219274 0
M  V30 189 O 20.8332 -1.89634 0.418624 0
M  V30 190 C 17.9632 -3.27734 1.14925 0
M  V30 191 C 16.9172 -3.64147 2.24902 0
M  V30 192 C 16.2432 -4.99806 1.89996 0
M  V30 193 C 17.5432 -3.71579 3.67051 0
M  V30 194 H 19.2372 -1.92541 2.29277 0
M  V30 195 H 16.7832 -0.924948 1.10366 0
M  V30 196 H 18.7362 -4.06215 1.12104 0
M  V30 197 H 17.4602 -3.26154 0.170631 0
M  V30 198 H 16.1192 -2.8797 2.26868 0
M  V30 199 H 15.7672 -4.94759 0.906796 0
M  V30 200 H 15.4672 -5.25139 2.63634 0
M  V30 201 H 16.9912 -5.80694 1.88749 0
M  V30 202 H 18.4052 -4.40227 3.67251 0
M  V30 203 H 16.8022 -4.08405 4.39688 0
M  V30 204 H 17.8722 -2.72404 4.01154 0
M  V30 205 N 19.2153 -1.21501 -1.00376 0
M  V30 206 C 20.1783 -0.976927 -2.07337 0
M  V30 207 C 21.1783 0.0525322 -1.60714 0
M  V30 208 O 22.3683 -0.184869 -1.73216 0
M  V30 209 C 19.5003 -0.473423 -3.37597 0
M  V30 210 H 20.6933 -1.92587 -2.29892 0
M  V30 211 H 18.2463 -1.03217 -1.17371 0
M  V30 212 H 18.9813 0.480379 -3.20722 0
M  V30 213 H 18.7663 -1.216 -3.72768 0
M  V30 214 H 20.2563 -0.32675 -4.1632 0
M  V30 215 N 20.6934 1.19889 -1.02296 0
M  V30 216 C 21.6264 2.21639 -0.543282 0
M  V30 217 C 22.6044 1.57275 0.412698 0
M  V30 218 O 23.7884 1.85568 0.331198 0
M  V30 219 C 20.9154 3.38057 0.208571 0
M  V30 220 C 19.9614 4.20751 -0.697933 0
M  V30 221 S 20.7944 4.89529 -2.17075 0
M  V30 222 C 21.9504 6.09363 -1.42923 0
M  V30 223 H 22.1834 2.61984 -1.40541 0
M  V30 224 H 19.7164 1.30041 -0.832387 0
M  V30 225 H 21.6744 4.05539 0.63624 0
M  V30 226 H 20.3354 2.96159 1.04635 0
M  V30 227 H 19.5284 5.03862 -0.117831 0
M  V30 228 H 19.1304 3.58556 -1.06366 0
M  V30 229 H 21.4224 6.73742 -0.712637 0
M  V30 230 H 22.3654 6.71845 -2.23673 0
M  V30 231 H 22.7734 5.56798 -0.929327 0
M  V30 232 N 22.1715 0.800033 1.35784 0
M  V30 233 C 23.1015 0.220184 2.3246 0
M  V30 234 C 24.0825 -0.65073 1.57161 0
M  V30 235 O 25.2675 -0.582359 1.85263 0
M  V30 236 C 22.3975 -0.637353 3.41402 0
M  V30 237 C 21.3515 0.134531 4.27789 0
M  V30 238 C 20.6775 -0.844285 5.27992 0
M  V30 239 C 21.9775 1.32979 5.05088 0
M  V30 240 H 23.6715 1.02787 2.81203 0
M  V30 241 H 21.2175 0.495717 1.35199 0
M  V30 242 H 23.1705 -1.05302 4.08031 0
M  V30 243 H 21.8945 -1.47785 2.91251 0
M  V30 244 H 20.5535 0.531296 3.6273 0
M  V30 245 H 20.2015 -1.68011 4.74111 0
M  V30 246 H 19.9015 -0.332184 5.8666 0
M  V30 247 H 21.4255 -1.2583 5.97494 0
M  V30 248 H 22.8395 0.98934 5.64699 0
M  V30 249 H 21.2365 1.77593 5.7322 0
M  V30 250 H 22.3065 2.11978 4.36111 0
M  V30 251 N 23.6496 -1.47581 0.552962 0
M  V30 252 C 25.0606 -1.86324 0.118463 0
M  V30 253 C 25.4116 -1.46006 -1.3106 0
M  V30 254 O 24.5366 -0.861182 -1.98526 0
M  V30 255 C 25.1316 -3.3816 0.20821 0
M  V30 256 C 23.6906 -3.7601 -0.171226 0
M  V30 257 C 22.8376 -2.71634 0.557686 0
M  V30 258 H 25.7886 -1.39159 0.762928 0
M  V30 259 H 25.8096 -3.76141 -0.574278 0
M  V30 260 H 25.3216 -3.67473 1.24841 0
M  V30 261 H 23.4226 -3.52313 -1.21269 0
M  V30 262 H 23.5356 -4.78745 0.184379 0
M  V30 263 H 21.8996 -2.547 0.00125792 0
M  V30 264 H 22.6826 -3.0379 1.59896 0
M  V30 265 N 25.1277 -0.289203 -1.54924 0
M  V30 266 C 26.3757 0.322879 -1.99504 0
M  V30 267 C 26.6967 1.55313 -1.1791 0
M  V30 268 O 25.9667 1.94001 -0.272097 0
M  V30 269 H 24.5467 0.122291 -0.736922 0
M  V30 270 H 27.2087 -0.397802 -1.90797 0
M  V30 271 H 26.3047 0.603061 -3.06218 0
M  V30 272 N 26.6058 1.57591 -0.0167156 0
M  V30 273 C 27.5358 2.12496 0.967858 0
M  V30 274 C 28.5168 1.03807 1.34752 0
M  V30 275 O 29.7018 1.31577 1.42833 0
M  V30 276 C 26.8318 2.64194 2.25431 0
M  V30 277 C 25.7858 3.77559 2.01576 0
M  V30 278 C 25.1118 4.15636 3.36379 0
M  V30 279 C 26.4118 5.04151 1.36489 0
M  V30 280 H 28.1058 2.95013 0.510643 0
M  V30 281 H 25.6518 1.41915 0.244181 0
M  V30 282 H 27.6048 3.01236 2.94678 0
M  V30 283 H 26.3288 1.78821 2.73296 0
M  V30 284 H 24.9878 3.40937 1.34751 0
M  V30 285 H 24.6358 3.27263 3.81979 0
M  V30 286 H 24.3358 4.92022 3.21229 0
M  V30 287 H 25.8598 4.5525 4.06915 0
M  V30 288 H 27.2738 5.38857 1.95718 0
M  V30 289 H 25.6708 5.85453 1.31776 0
M  V30 290 H 26.7408 4.83733 0.336219 0
M  V30 291 N 28.0839 -0.256276 1.55502 0
M  V30 292 C 29.3299 -0.987079 1.77157 0
M  V30 293 C 29.6629 -1.85327 0.580315 0
M  V30 294 O 28.9379 -1.89874 -0.421686 0
M  V30 295 C 29.2209 -1.85553 3.08613 0
M  V30 296 C 29.0739 -1.01816 4.38125 0
M  V30 297 C 30.3929 -2.8397 3.36228 0
M  V30 298 H 27.5119 -0.357428 0.644526 0
M  V30 299 H 30.1539 -0.258239 1.88237 0
M  V30 300 H 28.3039 -2.47695 2.99298 0
M  V30 301 H 29.9759 -0.416159 4.59419 0
M  V30 302 H 28.2189 -0.322178 4.32602 0
M  V30 303 H 28.8899 -1.65939 5.26468 0
M  V30 304 H 31.3659 -2.31964 3.45445 0
M  V30 305 H 30.2419 -3.41864 4.29442 0
M  V30 306 H 30.5029 -3.59955 2.56681 0
M  V30 307 N 29.562 -1.4872 -0.521534 0
M  V30 308 C 30.495 -1.58451 -1.64221 0
M  V30 309 C 31.473 -0.434513 -1.56687 0
M  V30 310 O 32.657 -0.647275 -1.77038 0
M  V30 311 C 29.784 -1.52037 -3.02659 0
M  V30 312 C 28.83 -2.71981 -3.28525 0
M  V30 313 S 29.663 -4.33869 -3.13876 0
M  V30 314 C 30.819 -4.30067 -4.54745 0
M  V30 315 H 31.052 -2.53256 -1.55719 0
M  V30 316 H 28.585 -1.37358 -0.705143 0
M  V30 317 H 30.543 -1.49023 -3.82495 0
M  V30 318 H 29.204 -0.585541 -3.08594 0
M  V30 319 H 28.397 -2.63656 -4.29536 0
M  V30 320 H 27.999 -2.72302 -2.56374 0
M  V30 321 H 30.291 -4.00521 -5.46433 0
M  V30 322 H 31.234 -5.31287 -4.68123 0
M  V30 323 H 31.642 -3.60419 -4.34463 0
M  V30 324 N 31.0401 0.771051 -1.3745 0
M  V30 325 C 32.0031 1.86598 -1.33093 0
M  V30 326 C 33.0031 1.59076 -0.234845 0
M  V30 327 O 34.1931 1.67145 -0.490732 0
M  V30 328 C 31.3251 3.23747 -1.06773 0
M  V30 329 H 32.5181 1.91873 -2.30488 0
M  V30 330 H 30.0711 0.970876 -1.2249 0
M  V30 331 H 30.8061 3.24148 -0.099129 0
M  V30 332 H 30.5911 3.45115 -1.86112 0
M  V30 333 H 32.0811 4.03824 -1.06377 0
M  V30 334 N 32.5182 1.22032 0.997298 0
M  V30 335 C 33.4812 0.987909 2.06816 0
M  V30 336 C 34.4812 -0.0440084 1.6074 0
M  V30 337 O 35.6712 0.194053 1.73116 0
M  V30 338 C 32.8032 0.49132 3.37341 0
M  V30 339 H 33.9962 1.93803 2.28868 0
M  V30 340 H 31.5492 1.03838 1.16822 0
M  V30 341 H 32.2842 -0.463364 3.20973 0
M  V30 342 H 32.0692 1.23575 3.72118 0
M  V30 343 H 33.5592 0.348824 4.16141 0
M  V30 344 N 33.9963 -1.19345 1.0293 0
M  V30 345 C 35.4073 -1.70725 0.755633 0
M  V30 346 C 35.7583 -1.82326 -0.724676 0
M  V30 347 O 34.8833 -1.49471 -1.56484 0
M  V30 348 C 35.4783 -3.10084 1.36503 0
M  V30 349 C 34.0373 -3.58723 1.13994 0
M  V30 350 C 33.1843 -2.35577 1.46283 0
M  V30 351 H 36.1353 -1.0418 1.19718 0
M  V30 352 H 36.1563 -3.72787 0.762217 0
M  V30 353 H 35.6683 -3.01609 2.44241 0
M  V30 354 H 33.7693 -3.72512 0.0807901 0
M  V30 355 H 33.8823 -4.42816 1.82894 0
M  V30 356 H 32.2463 -2.38935 0.88217 0
M  V30 357 H 33.0293 -2.29731 2.55105 0
M  V30 358 N 35.4744 -0.807222 -1.35358 0
M  V30 359 C 36.4374 -0.223665 -2.28106 0
M  V30 360 C 37.4374 0.589354 -1.4961 0
M  V30 361 O 38.6274 0.407745 -1.69361 0
M  V30 362 C 35.7594 0.688149 -3.33882 0
M  V30 363 H 36.9524 -1.04169 -2.81227 0
M  V30 364 H 34.5054 -0.577921 -1.45223 0
M  V30 365 H 35.2404 1.52984 -2.85948 0
M  V30 366 H 35.0254 0.10687 -3.91954 0
M  V30 367 H 36.5154 1.09075 -4.03104 0
M  V30 368 N 36.9525 1.47285 -0.560781 0
M  V30 369 C 38.1985 2.02764 -0.0381184 0
M  V30 370 C 38.5315 1.43384 1.30976 0
M  V30 371 O 37.8065 0.590733 1.85312 0
M  V30 372 C 38.0895 3.60064 0.0511427 0
M  V30 373 C 37.9425 4.2987 -1.32408 0
M  V30 374 C 39.2615 4.33439 0.762795 0
M  V30 375 H 36.3805 0.736841 -0.0153264 0
M  V30 376 H 39.0225 1.75675 -0.723759 0
M  V30 377 H 37.1725 3.83274 0.635065 0
M  V30 378 H 38.8445 4.17989 -1.95148 0
M  V30 379 H 37.0875 3.90085 -1.8978 0
M  V30 380 H 37.7585 5.38478 -1.21431 0
M  V30 381 H 40.2345 4.15243 0.266965 0
M  V30 382 H 39.1105 5.43124 0.794221 0
M  V30 383 H 39.3715 4.02915 1.81966 0
M  V30 384 N 38.4306 0.297415 1.54768 0
M  V30 385 C 39.3936 -0.567375 2.22066 0
M  V30 386 C 40.3936 -1.06409 1.20556 0
M  V30 387 O 41.5836 -0.960691 1.45315 0
M  V30 388 C 38.7156 -1.78517 2.90421 0
M  V30 389 H 39.9086 0.0205534 2.99893 0
M  V30 390 H 37.4616 0.0482163 1.56226 0
M  V30 391 H 38.1966 -2.41303 2.16664 0
M  V30 392 H 37.9816 -1.43669 3.64831 0
M  V30 393 H 39.4716 -2.39964 3.41771 0
M  V30 394 N 39.9087 -1.5758 0.0250728 0
M  V30 395 C 41.1857 -1.82917 -0.692873 0
M  V30 396 C 41.5657 -0.908137 -1.90568 0
M  V30 397 O 40.9137 0.0372298 -2.2847 0
M  V30 398 C 41.1237 -3.32034 -1.07492 0
M  V30 399 C 42.4717 -3.98406 -1.46826 0
M  V30 400 O 43.4957 -3.36505 -1.16801 0
M  V30 401 O 42.3547 -5.07497 -2.02754 0
M  V30 402 H 39.4487 -0.754079 -0.33955 0
M  V30 403 H 41.9947 -1.69619 0.0524456 0
M  V30 404 H 40.7667 -3.90728 -0.211552 0
M  V30 405 H 40.3897 -3.50424 -1.87854 0
M  V30 406 N 41.3868 0.248026 -1.55636 0
M  V30 407 C 42.3338 1.30707 -1.90222 0
M  V30 408 C 43.3038 1.47881 -0.756332 0
M  V30 409 O 44.4888 1.61883 -1.00988 0
M  V30 410 C 41.6288 2.65769 -2.20138 0
M  V30 411 C 40.7418 2.56612 -3.47526 0
M  V30 412 C 39.8768 3.8402 -3.67017 0
M  V30 413 C 38.9158 3.69476 -4.8801 0
M  V30 414 N 38.0528 4.88774 -5.04029 0
M  V30 415 H 42.8928 1.00512 -2.80538 0
M  V30 416 H 40.4298 0.485055 -1.38873 0
M  V30 417 H 42.3878 3.44386 -2.35487 0
M  V30 418 H 41.0178 2.94115 -1.33027 0
M  V30 419 H 40.0698 1.69571 -3.40514 0
M  V30 420 H 41.3818 2.41774 -4.36287 0
M  V30 421 H 40.5358 4.7108 -3.8232 0
M  V30 422 H 39.2748 4.01754 -2.76487 0
M  V30 423 H 38.2798 2.80799 -4.72686 0
M  V30 424 H 39.5048 3.53238 -5.8 0
M  V30 425 H 37.4508 5.0687 -4.16435 0
M  V30 426 H 37.3678 4.76562 -5.86877 0
M  V30 427 H 38.6358 5.77335 -5.23741 0
M  V30 428 N 42.8649 1.48995 0.513639 0
M  V30 429 C 43.8279 1.64229 1.59879 0
M  V30 430 C 44.8279 0.514696 1.5234 0
M  V30 431 O 46.0179 0.78087 1.55718 0
M  V30 432 C 43.1499 1.62783 2.99524 0
M  V30 433 H 44.3429 2.61004 1.47705 0
M  V30 434 H 41.8959 1.37837 0.736936 0
M  V30 435 H 42.6309 0.675461 3.17188 0
M  V30 436 H 42.4159 2.4466 3.06404 0
M  V30 437 H 43.9059 1.76669 3.78388 0
M  V30 438 N 44.343 -0.763751 1.37857 0
M  V30 439 C 45.62 -1.51244 1.24035 0
M  V30 440 C 46 -2.10472 -0.162649 0
M  V30 441 O 45.348 -1.96206 -1.17112 0
M  V30 442 C 45.558 -2.58694 2.34261 0
M  V30 443 C 46.906 -3.25878 2.72193 0
M  V30 444 O 47.93 -2.68993 2.33497 0
M  V30 445 O 46.789 -4.2874 3.38887 0
M  V30 446 H 43.883 -0.670243 0.484462 0
M  V30 447 H 46.429 -0.800031 1.49658 0
M  V30 448 H 45.201 -2.13105 3.2818 0
M  V30 449 H 44.824 -3.37527 2.10146 0
M  V30 450 N 45.8211 -1.22559 -0.990812 0
M  V30 451 C 46.7691 -0.994798 -2.10253 0
M  V30 452 C 47.7631 0.0627798 -1.69284 0
M  V30 453 O 48.9691 -0.0898392 -1.79776 0
M  V30 454 H 45.3441 -0.304527 -0.687581 0
M  V30 455 H 47.3151 -1.93812 -2.26891 0
M  V30 456 C 46.0641 -0.591439 -3.42633 0
M  V30 457 H 45.3871 -1.3969 -3.74602 0
M  V30 458 H 46.8271 -0.469385 -4.21394 0
M  V30 459 C 45.2861 0.699232 -3.29564 0
M  V30 460 O 45.8161 1.75112 -3.61523 0
M  V30 461 N 44.0221 0.671182 -2.82743 0
M  V30 462 H 43.5691 -0.185136 -2.56934 0
M  V30 463 H 43.5271 1.53502 -2.7438 0
M  V30 464 N 47.2992 1.18797 -1.03562 0
M  V30 465 C 48.2622 2.20464 -0.626769 0
M  V30 466 C 49.2622 1.57721 0.313173 0
M  V30 467 O 50.4522 1.73917 0.0992615 0
M  V30 468 C 47.5842 3.40802 0.0818498 0
M  V30 469 H 48.7772 2.58149 -1.5264 0
M  V30 470 H 46.3302 1.32593 -0.827578 0
M  V30 471 H 47.0652 3.08642 0.995518 0
M  V30 472 H 46.8502 3.8758 -0.593652 0
M  V30 473 H 48.3402 4.16092 0.354584 0
M  V30 474 N 48.7773 0.814389 1.34928 0
M  V30 475 C 50.0243 0.398423 1.98542 0
M  V30 476 C 50.3523 -1.03638 1.64589 0
M  V30 477 O 49.6073 -1.73509 0.90516 0
M  V30 478 C 49.9063 0.537781 3.53331 0
M  V30 479 C 49.5723 1.93704 4.07172 0
M  V30 480 C 48.2343 2.31984 4.21589 0
M  V30 481 C 50.5863 2.85213 4.36237 0
M  V30 482 C 47.9143 3.61125 4.62391 0
M  V30 483 C 50.2663 4.13809 4.78482 0
M  V30 484 C 48.9303 4.52077 4.91104 0
M  V30 485 H 48.2003 0.145793 0.726516 0
M  V30 486 H 50.8473 1.03669 1.61012 0
M  V30 487 H 49.1523 -0.183906 3.91368 0
M  V30 488 H 50.8493 0.196588 4.00518 0
M  V30 489 H 47.4393 1.62966 3.96409 0
M  V30 490 H 51.6233 2.56885 4.24645 0
M  V30 491 H 46.8793 3.90612 4.70353 0
M  V30 492 H 51.0533 4.84811 4.99932 0
M  V30 493 H 48.6803 5.52196 5.22478 0
M  V30 494 N 50.2554 -1.46986 0.568584 0
M  V30 495 C 51.1884 -2.27129 -0.220779 0
M  V30 496 C 52.1664 -1.34757 -0.909905 0
M  V30 497 O 53.3504 -1.64152 -0.926622 0
M  V30 498 C 50.4774 -3.12108 -1.31553 0
M  V30 499 C 49.5234 -4.20141 -0.733748 0
M  V30 500 S 50.3564 -5.33783 0.428479 0
M  V30 501 C 51.5124 -6.22327 -0.667811 0
M  V30 502 H 51.7454 -2.93731 0.459267 0
M  V30 503 H 49.2784 -1.5026 0.355154 0
M  V30 504 H 51.2364 -3.61636 -1.94241 0
M  V30 505 H 49.8974 -2.44847 -1.96746 0
M  V30 506 H 49.0904 -4.79373 -1.5562 0
M  V30 507 H 48.6924 -3.73553 -0.182812 0
M  V30 508 H 50.9844 -6.59364 -1.55708 0
M  V30 509 H 51.9274 -7.0801 -0.11258 0
M  V30 510 H 52.3354 -5.5618 -0.965601 0
M  V30 511 N 51.7335 -0.305618 -1.54608 0
M  V30 512 C 52.6665 0.610536 -2.19881 0
M  V30 513 C 53.6445 1.1294 -1.16976 0
M  V30 514 O 54.8285 1.19673 -1.45638 0
M  V30 515 C 51.9555 1.83583 -2.84631 0
M  V30 516 C 51.0015 1.4498 -4.01102 0
M  V30 517 S 51.8345 0.501793 -5.33144 0
M  V30 518 C 52.9905 1.73478 -6.01379 0
M  V30 519 H 53.2235 0.0560177 -2.97247 0
M  V30 520 H 50.7565 -0.0897434 -1.54139 0
M  V30 521 H 52.7145 2.53898 -3.22562 0
M  V30 522 H 51.3755 2.36152 -2.07102 0
M  V30 523 H 50.5685 2.36236 -4.45206 0
M  V30 524 H 50.1705 0.826553 -3.64752 0
M  V30 525 H 52.4625 2.67473 -6.22467 0
M  V30 526 H 53.4055 1.33622 -6.95378 0
M  V30 527 H 53.8135 1.9136 -5.31076 0
M  V30 528 N 53.2116 1.57565 -0.0334293 0
M  V30 529 C 54.4606 1.91155 0.643639 0
M  V30 530 C 54.7736 0.91192 1.73042 0
M  V30 531 O 55.9796 1.13923 2.46442 0
M  V30 532 C 54.4356 3.39443 1.1961 0
M  V30 533 C 54.0436 4.47774 0.142381 0
M  V30 534 C 55.7876 3.82094 1.84944 0
M  V30 535 C 53.6946 5.87162 0.706727 0
M  V30 536 H 52.6246 0.713368 0.244176 0
M  V30 537 H 55.2756 1.8323 -0.0994323 0
M  V30 538 H 53.6576 3.42313 1.99092 0
M  V30 539 H 54.8316 4.56469 -0.630296 0
M  V30 540 H 53.1466 4.14352 -0.412446 0
M  V30 541 H 55.7436 4.83591 2.2813 0
M  V30 542 H 56.0866 3.17386 2.69392 0
M  V30 543 H 56.6196 3.81665 1.12145 0
M  V30 544 H 53.3586 6.55424 -0.0997178 0
M  V30 545 H 52.8786 5.82064 1.44779 0
M  V30 546 H 54.5576 6.35866 1.19514 0
M  V30 547 N 54.6897 -0.239769 1.55765 0
M  V30 548 C 55.9297 -0.974076 1.79697 0
M  V30 549 C 56.2937 -1.82249 0.604088 0
M  V30 550 O 57.4947 -2.58913 0.722324 0
M  V30 551 C 55.7657 -1.80595 3.08416 0
M  V30 552 S 57.3247 -2.59838 3.53596 0
M  V30 553 H 54.1427 -0.327524 0.63107 0
M  V30 554 H 56.7447 -0.241277 1.94005 0
M  V30 555 H 55.4487 -1.17249 3.93295 0
M  V30 556 H 54.9797 -2.58137 2.96865 0
M  V30 557 H 56.9947 -3.82987 3.15492 0
M  V30 558 N 56.1678 -1.49265 -0.50573 0
M  V30 559 C 57.3958 -1.62215 -1.28429 0
M  V30 560 C 57.8108 -0.291697 -1.86533 0
M  V30 561 O 57.1678 0.722233 -1.67601 0
M  V30 562 C 57.2188 -2.68735 -2.41793 0
M  V30 563 O 56.9398 -3.96619 -1.86078 0
M  V30 564 C 58.4408 -2.92346 -3.3324 0
M  V30 565 H 55.6608 -0.546239 -0.389697 0
M  V30 566 H 58.2048 -1.95265 -0.607609 0
M  V30 567 H 56.3598 -2.38476 -3.053 0
M  V30 568 H 56.7738 -4.55256 -2.60465 0
M  V30 569 H 58.2478 -3.70623 -4.09075 0
M  V30 570 H 58.7248 -2.02081 -3.89948 0
M  V30 571 H 59.3308 -3.24003 -2.75503 0
M  V30 572 N 57.6459 0.756429 -1.3826 0
M  V30 573 C 58.6089 1.85176 -1.35065 0
M  V30 574 C 59.6089 1.58818 -0.251703 0
M  V30 575 O 60.7989 1.66615 -0.508433 0
M  V30 576 C 57.9309 3.22596 -1.10201 0
M  V30 577 H 59.1239 1.89417 -2.3251 0
M  V30 578 H 56.6769 0.95783 -1.23512 0
M  V30 579 H 57.4119 3.24025 -0.133504 0
M  V30 580 H 57.1969 3.43122 -1.89762 0
M  V30 581 H 58.6869 4.02673 -1.10654 0
M  V30 582 N 59.124 1.23083 0.984299 0
M  V30 583 C 60.054 1.03292 2.09411 0
M  V30 584 C 61.035 -0.048923 1.7003 0
M  V30 585 O 62.22 0.114967 1.93859 0
M  V30 586 C 59.35 0.619155 3.41736 0
M  V30 587 C 58.304 1.64791 3.95004 0
M  V30 588 C 57.63 1.0897 5.23478 0
M  V30 589 C 58.93 3.03999 4.24714 0
M  V30 590 H 60.624 1.96119 2.26225 0
M  V30 591 H 58.17 0.944344 1.08711 0
M  V30 592 H 60.123 0.467777 4.18796 0
M  V30 593 H 58.847 -0.344786 3.24775 0
M  V30 594 H 57.506 1.78721 3.20085 0
M  V30 595 H 57.154 0.11686 5.02864 0
M  V30 596 H 56.854 1.77704 5.60085 0
M  V30 597 H 58.378 0.950093 6.03163 0
M  V30 598 H 59.792 2.93393 4.92538 0
M  V30 599 H 58.189 3.69936 4.72512 0
M  V30 600 H 59.259 3.53285 3.32142 0
M  V30 601 N 60.6021 -1.18246 1.0419 0
M  V30 602 C 61.8481 -1.88536 0.747122 0
M  V30 603 C 62.1811 -1.80223 -0.723409 0
M  V30 604 O 61.4561 -1.20337 -1.52804 0
M  V30 605 C 61.7391 -3.38968 1.21544 0
M  V30 606 C 61.5921 -3.56084 2.74816 0
M  V30 607 C 62.9111 -4.32648 0.806482 0
M  V30 608 H 60.0301 -0.684619 0.272883 0
M  V30 609 H 62.6721 -1.39113 1.29413 0
M  V30 610 H 60.8221 -3.8119 0.750081 0
M  V30 611 H 62.4941 -3.22946 3.29399 0
M  V30 612 H 60.7371 -2.98699 3.14582 0
M  V30 613 H 61.4081 -4.61639 3.02644 0
M  V30 614 H 63.8841 -3.98211 1.20695 0
M  V30 615 H 62.7601 -5.36462 1.1619 0
M  V30 616 H 63.0211 -4.41146 -0.29029 0
M  V30 617 N 62.0802 -0.821533 -1.34494 0
M  V30 618 C 63.0102 -0.257138 -2.3208 0
M  V30 619 C 63.9912 0.625645 -1.58176 0
M  V30 620 O 65.1762 0.552811 -1.86166 0
M  V30 621 C 62.3062 0.582958 -3.42372 0
M  V30 622 C 61.2602 -0.202571 -4.2752 0
M  V30 623 C 60.5862 0.760179 -5.29269 0
M  V30 624 C 61.8862 -1.40998 -5.02908 0
M  V30 625 H 63.5802 -1.07247 -2.79532 0
M  V30 626 H 61.1262 -0.517163 -1.34393 0
M  V30 627 H 63.0792 0.987972 -4.09655 0
M  V30 628 H 61.8032 1.43133 -2.93565 0
M  V30 629 H 60.4622 -0.588936 -3.61838 0
M  V30 630 H 60.1102 1.60447 -4.76724 0
M  V30 631 H 59.8102 0.238809 -5.87115 0
M  V30 632 H 61.3342 1.16308 -5.9942 0
M  V30 633 H 62.7482 -1.07905 -5.63054 0
M  V30 634 H 61.1452 -1.86689 -5.70322 0
M  V30 635 H 62.2152 -2.1889 -4.32684 0
M  V30 636 N 63.5583 1.46682 -0.576371 0
M  V30 637 C 64.8053 2.02412 -0.0595339 0
M  V30 638 C 65.1333 1.44859 1.29793 0
M  V30 639 O 64.3883 0.601099 1.8624 0
M  V30 640 C 64.6873 3.57345 0.062886 0
M  V30 641 C 64.3533 4.33908 -1.22616 0
M  V30 642 C 63.0153 4.54544 -1.57933 0
M  V30 643 C 65.3673 4.77919 -2.07948 0
M  V30 644 C 62.6953 5.16444 -2.78393 0
M  V30 645 C 65.0473 5.41149 -3.27629 0
M  V30 646 C 63.7113 5.60014 -3.63236 0
M  V30 647 H 62.9813 0.74068 -0.021785 0
M  V30 648 H 65.6283 1.76128 -0.751735 0
M  V30 649 H 63.9333 3.82729 0.838178 0
M  V30 650 H 65.6303 3.98136 0.478439 0
M  V30 651 H 62.2203 4.18138 -0.941202 0
M  V30 652 H 66.4043 4.61738 -1.81967 0
M  V30 653 H 61.6603 5.29242 -3.06126 0
M  V30 654 H 65.8343 5.74211 -3.94023 0
M  V30 655 H 63.4613 6.07748 -4.56669 0
M  V30 656 N 65.0364 0.313813 1.54444 0
M  V30 657 C 65.9694 -0.598866 2.20202 0
M  V30 658 C 66.9474 -1.12318 1.17573 0
M  V30 659 O 68.1314 -1.18899 1.46271 0
M  V30 660 C 65.2584 -1.82071 2.85601 0
M  V30 661 C 64.3044 -1.42851 4.01865 0
M  V30 662 S 65.1374 -0.473512 5.33402 0
M  V30 663 C 66.2934 -1.70286 6.0229 0
M  V30 664 H 66.5264 -0.0402532 2.97273 0
M  V30 665 H 64.0594 0.0979165 1.54089 0
M  V30 666 H 66.0174 -2.52184 3.23904 0
M  V30 667 H 64.6784 -2.3505 2.08351 0
M  V30 668 H 63.8714 -2.33871 4.46453 0
M  V30 669 H 63.4734 -0.807198 3.65185 0
M  V30 670 H 65.7654 -2.64168 6.23876 0
M  V30 671 H 66.7084 -1.29932 6.96077 0
M  V30 672 H 67.1164 -1.88541 5.32083 0
M  V30 673 N 66.5145 -1.57545 0.0417849 0
M  V30 674 C 67.7425 -1.96624 -0.643928 0
M  V30 675 C 68.1575 -0.918897 -1.64929 0
M  V30 676 O 67.5145 0.0979323 -1.82237 0
M  V30 677 C 67.5655 -3.35781 -1.33914 0
M  V30 678 O 67.2865 -4.365 -0.374048 0
M  V30 679 C 68.7875 -3.89566 -2.1155 0
M  V30 680 H 66.0075 -0.647316 -0.176702 0
M  V30 681 H 68.5515 -2.04229 0.105304 0
M  V30 682 H 66.7065 -3.29357 -2.03968 0
M  V30 683 H 67.1205 -5.17248 -0.869179 0
M  V30 684 H 68.5945 -4.89242 -2.55628 0
M  V30 685 H 69.0715 -3.24488 -2.9598 0
M  V30 686 H 69.6775 -3.99298 -1.46427 0
M  V30 687 N 67.9926 0.231505 -1.5589 0
M  V30 688 C 69.2416 0.955346 -1.7764 0
M  V30 689 C 69.5546 1.85893 -0.608546 0
M  V30 690 O 70.7606 2.62067 -0.70943 0
M  V30 691 C 69.2166 1.74886 -3.14552 0
M  V30 692 C 68.8246 0.891915 -4.39032 0
M  V30 693 C 70.5686 2.46452 -3.45633 0
M  V30 694 C 68.4756 1.68221 -5.66971 0
M  V30 695 H 67.4056 0.360446 -0.662265 0
M  V30 696 H 70.0566 0.209516 -1.823 0
M  V30 697 H 68.4386 2.53723 -3.04041 0
M  V30 698 H 69.6126 0.144793 -4.60572 0
M  V30 699 H 67.9276 0.288863 -4.15397 0
M  V30 700 H 70.5246 3.06061 -4.38441 0
M  V30 701 H 70.8676 3.18841 -2.67668 0
M  V30 702 H 71.4006 1.74613 -3.57428 0
M  V30 703 H 68.1396 1.00178 -6.478 0
M  V30 704 H 67.6596 2.4042 -5.49507 0
M  V30 705 H 69.3386 2.24544 -6.06786 0
M  V30 706 N 69.4707 1.49531 0.497807 0
M  V30 707 C 70.8817 1.52344 1.07927 0
M  V30 708 C 71.2327 0.311469 1.93712 0
M  V30 709 O 70.3577 -0.578405 2.08527 0
M  V30 710 C 70.9527 2.76062 1.96405 0
M  V30 711 C 69.5117 2.81643 2.49709 0
M  V30 712 C 68.6587 2.46299 1.27404 0
M  V30 713 H 71.6097 1.56182 0.281576 0
M  V30 714 H 71.6307 2.56405 2.81135 0
M  V30 715 H 71.1427 3.64254 1.33943 0
M  V30 716 H 69.2437 1.97739 3.15801 0
M  V30 717 H 69.3567 3.83891 2.86643 0
M  V30 718 H 67.7207 1.98148 1.60029 0
M  V30 719 H 68.5037 3.36769 0.66645 0
M  V30 720 N 70.9488 -0.749086 1.3866 0
M  V30 721 C 72.1968 -1.50535 1.34847 0
M  V30 722 C 72.5178 -1.94909 -0.0595016 0
M  V30 723 O 71.7878 -1.67973 -1.00806 0
M  V30 724 H 70.3678 -0.558395 0.49619 0
M  V30 725 H 73.0298 -0.890165 1.73384 0
M  V30 726 H 72.1258 -2.39413 2.00219 0
M  V30 727 N 72.4269 -1.23603 -0.977757 0
M  V30 728 C 73.6759 -1.06377 -1.71368 0
M  V30 729 C 73.9889 0.399062 -1.91486 0
M  V30 730 O 75.1949 0.691312 -2.62551 0
M  V30 731 C 73.6509 -1.85512 -3.08404 0
M  V30 732 C 73.2589 -3.36141 -2.96164 0
M  V30 733 C 75.0029 -1.76783 -3.85938 0
M  V30 734 C 72.9099 -4.07659 -4.28449 0
M  V30 735 H 71.8399 -0.394452 -0.642591 0
M  V30 736 H 74.4909 -1.47594 -1.09034 0
M  V30 737 H 72.8729 -1.37103 -3.71509 0
M  V30 738 H 74.0469 -3.92056 -2.42133 0
M  V30 739 H 72.3619 -3.45712 -2.32104 0
M  V30 740 H 74.9589 -2.27526 -4.83876 0
M  V30 741 H 75.3019 -0.731116 -4.0983 0
M  V30 742 H 75.8349 -2.22818 -3.2954 0
M  V30 743 H 72.5739 -5.11648 -4.09752 0
M  V30 744 H 72.0939 -3.5653 -4.82334 0
M  V30 745 H 73.7729 -4.141 -4.97122 0
M  V30 746 N 73.905 1.17692 -1.04816 0
M  V30 747 C 74.868 2.19787 -0.650117 0
M  V30 748 C 75.868 1.58044 0.296427 0
M  V30 749 O 77.058 1.74012 0.0808097 0
M  V30 750 C 74.19 3.40869 0.0456987 0
M  V30 751 H 75.383 2.56516 -1.5537 0
M  V30 752 H 72.936 1.31708 -0.841594 0
M  V30 753 H 73.671 3.09681 0.962726 0
M  V30 754 H 73.456 3.86928 -0.634727 0
M  V30 755 H 74.946 4.16445 0.310432 0
M  V30 756 N 75.3831 0.828654 1.34056 0
M  V30 757 C 76.3131 0.269443 2.3194 0
M  V30 758 C 77.2941 -0.617247 1.58506 0
M  V30 759 O 78.4791 -0.542931 1.86456 0
M  V30 760 C 75.6091 -0.564793 3.42677 0
M  V30 761 C 74.5631 0.225241 4.27407 0
M  V30 762 C 73.8891 -0.7321 5.29664 0
M  V30 763 C 75.1891 1.43663 5.02154 0
M  V30 764 H 76.8831 1.08728 2.7896 0
M  V30 765 H 74.4291 0.524283 1.34117 0
M  V30 766 H 76.3821 -0.966233 4.10173 0
M  V30 767 H 75.1061 -1.41574 2.9432 0
M  V30 768 H 73.7651 0.608117 3.61521 0
M  V30 769 H 73.4131 -1.57916 4.77568 0
M  V30 770 H 73.1131 -0.20767 5.87233 0
M  V30 771 H 74.6371 -1.13128 6.00029 0
M  V30 772 H 76.0511 1.1089 5.62473 0
M  V30 773 H 74.4481 1.89711 5.69324 0
M  V30 774 H 75.5181 2.21181 4.31517 0
M  V30 775 N 76.8612 -1.46375 0.584142 0
M  V30 776 C 78.1082 -2.02378 0.0702675 0
M  V30 777 C 78.4362 -1.45545 -1.29023 0
M  V30 778 O 77.6912 -0.610967 -1.85918 0
M  V30 779 C 77.9902 -3.57373 -0.0439342 0
M  V30 780 C 77.6562 -4.33252 1.24915 0
M  V30 781 C 76.3182 -4.53701 1.60341 0
M  V30 782 C 78.6702 -4.7681 2.1048 0
M  V30 783 C 75.9982 -5.1496 2.81128 0
M  V30 784 C 78.3502 -5.39404 3.30494 0
M  V30 785 C 77.0142 -5.5808 3.66201 0
M  V30 786 H 76.2842 -0.740554 0.0257127 0
M  V30 787 H 78.9312 -1.75727 0.761065 0
M  V30 788 H 77.2362 -3.83169 -0.817869 0
M  V30 789 H 78.9332 -3.98384 -0.457318 0
M  V30 790 H 75.5232 -4.17633 0.963364 0
M  V30 791 H 79.7072 -4.60766 1.84414 0
M  V30 792 H 74.9632 -5.27611 3.08928 0
M  V30 793 H 79.1372 -5.72114 3.97063 0
M  V30 794 H 76.7642 -6.05318 4.59885 0
M  V30 795 N 78.3393 -0.321999 -1.54275 0
M  V30 796 C 79.5693 0.282642 -2.04658 0
M  V30 797 C 79.9773 1.46453 -1.19784 0
M  V30 798 O 79.3203 1.82367 -0.220932 0
M  V30 799 C 79.3823 0.781857 -3.50895 0
M  V30 800 C 79.0463 -0.277517 -4.56157 0
M  V30 801 C 80.0433 -1.11307 -5.07845 0
M  V30 802 C 77.7283 -0.425256 -5.00497 0
M  V30 803 C 79.7223 -2.08211 -6.02434 0
M  V30 804 C 77.4093 -1.39771 -5.94901 0
M  V30 805 C 78.4073 -2.2246 -6.45756 0
M  V30 806 O 78.0953 -3.18054 -7.38307 0
M  V30 807 H 77.8273 0.0622636 -0.673126 0
M  V30 808 H 80.3813 -0.465792 -2.00049 0
M  V30 809 H 78.6113 1.58118 -3.52896 0
M  V30 810 H 80.3003 1.30467 -3.84361 0
M  V30 811 H 81.0663 -1.00991 -4.74369 0
M  V30 812 H 76.9453 0.20847 -4.60528 0
M  V30 813 H 80.4893 -2.72791 -6.42052 0
M  V30 814 H 76.3863 -1.50152 -6.27794 0
M  V30 815 H 77.1543 -3.13275 -7.56175 0
M  V30 816 N 79.8174 1.5752 -0.0501392 0
M  V30 817 C 81.0654 1.9227 0.622642 0
M  V30 818 C 81.3864 0.929083 1.71444 0
M  V30 819 O 80.6564 -0.0262186 1.95882 0
M  V30 820 H 79.2364 0.709739 0.232981 0
M  V30 821 H 81.8984 1.94628 -0.102898 0
M  V30 822 H 80.9944 2.93479 1.06191 0
M  V30 823 N 81.2955 -0.223234 1.56011 0
M  V30 824 C 82.5435 -0.946003 1.78592 0
M  V30 825 C 82.8645 -1.84936 0.618349 0
M  V30 826 O 82.1345 -1.92473 -0.364833 0
M  V30 827 H 80.7145 -0.352298 0.658707 0
M  V30 828 H 83.3765 -0.235494 1.93472 0
M  V30 829 H 82.4725 -1.55381 2.70672 0
M  V30 830 N 82.7736 -1.49793 -0.48987 0
M  V30 831 C 83.7036 -1.70201 -1.59856 0
M  V30 832 C 84.6846 -0.55076 -1.60937 0
M  V30 833 O 85.8696 -0.787841 -1.77501 0
M  V30 834 C 82.9996 -1.77882 -2.98287 0
M  V30 835 C 81.9536 -2.92907 -3.12073 0
M  V30 836 C 81.2796 -2.85712 -4.51965 0
M  V30 837 C 82.5796 -4.3369 -2.91051 0
M  V30 838 H 84.2736 -2.63025 -1.43032 0
M  V30 839 H 81.8196 -1.26574 -0.686664 0
M  V30 840 H 83.7726 -1.90744 -3.75759 0
M  V30 841 H 82.4966 -0.816653 -3.16225 0
M  V30 842 H 81.1556 -2.79665 -2.37029 0
M  V30 843 H 80.8036 -1.8738 -4.66795 0
M  V30 844 H 80.5036 -3.62921 -4.62128 0
M  V30 845 H 82.0276 -3.00598 -5.31482 0
M  V30 846 H 83.4416 -4.47555 -3.58284 0
M  V30 847 H 81.8386 -5.12205 -3.12675 0
M  V30 848 H 82.9086 -4.47362 -1.87071 0
M  V30 849 N 84.2517 0.741722 -1.39055 0
M  V30 850 C 85.5007 1.49656 -1.35225 0
M  V30 851 C 85.8137 1.95533 0.0512708 0
M  V30 852 O 87.0197 2.7067 0.212138 0
M  V30 853 C 85.4757 2.70389 -2.37525 0
M  V30 854 C 85.0837 2.31489 -3.83558 0
M  V30 855 C 86.8277 3.48236 -2.42759 0
M  V30 856 C 84.7347 3.48903 -4.77515 0
M  V30 857 H 83.6647 0.56197 -0.502699 0
M  V30 858 H 86.3157 0.809727 -1.64668 0
M  V30 859 H 84.6977 3.41113 -2.01142 0
M  V30 860 H 85.8717 1.68354 -4.28945 0
M  V30 861 H 84.1867 1.66749 -3.81554 0
M  V30 862 H 86.7837 4.35558 -3.1015 0
M  V30 863 H 87.1267 3.90229 -1.45008 0
M  V30 864 H 87.6597 2.84535 -2.78002 0
M  V30 865 H 84.3987 3.11966 -5.76504 0
M  V30 866 H 83.9187 4.11041 -4.36813 0
M  V30 867 H 85.5977 4.15328 -4.96096 0
M  V30 868 N 85.7298 1.2412 0.971189 0
M  V30 869 C 87.1458 1.00584 1.23916 0
M  V30 870 C 87.3458 -0.287481 1.99439 0
M  V30 871 O 86.4018 -1.00454 2.31658 0
M  V30 872 C 87.7148 2.21864 2.0297 0
M  V30 873 C 89.2628 2.26452 2.16076 0
M  V30 874 C 89.7378 3.47343 2.98524 0
M  V30 875 N 91.2288 3.47639 3.06107 0
M  V30 876 C 91.9638 4.37837 3.70251 0
M  V30 877 N 91.4598 5.38286 4.36142 0
M  V30 878 N 93.2528 4.25558 3.67228 0
M  V30 879 H 85.4038 2.07236 0.465499 0
M  V30 880 H 87.6668 0.909236 0.268315 0
M  V30 881 H 87.3728 3.15771 1.54861 0
M  V30 882 H 87.2468 2.23698 3.03709 0
M  V30 883 H 89.6338 1.33078 2.6339 0
M  V30 884 H 89.7148 2.28645 1.14696 0
M  V30 885 H 89.3588 4.41029 2.51905 0
M  V30 886 H 89.2888 3.42393 4.00093 0
M  V30 887 H 91.7798 2.74966 2.59233 0
M  V30 888 H 92.0928 6.03352 4.82894 0
M  V30 889 H 90.4378 5.42176 4.34822 0
M  V30 890 H 93.6288 3.46322 3.14927 0
M  V30 891 H 93.8018 4.96054 4.16935 0
M  V30 892 N 87.2079 -1.17134 1.05439 0
M  V30 893 C 88.4559 -1.87085 0.764429 0
M  V30 894 C 88.7769 -1.81584 -0.710787 0
M  V30 895 O 88.0469 -1.24349 -1.51374 0
M  V30 896 H 86.6269 -0.692627 0.279779 0
M  V30 897 H 89.2889 -1.42087 1.33406 0
M  V30 898 H 88.3849 -2.92759 1.0816 0
M  V30 899 N 88.686 -0.835752 -1.33615 0
M  V30 900 C 89.633 -0.26473 -2.29277 0
M  V30 901 C 90.603 0.617712 -1.54187 0
M  V30 902 O 91.788 0.556641 -1.825 0
M  V30 903 C 88.928 0.556777 -3.40579 0
M  V30 904 C 88.041 -0.349339 -4.30585 0
M  V30 905 C 87.176 0.482969 -5.29 0
M  V30 906 C 86.215 -0.421732 -6.10645 0
M  V30 907 N 85.352 0.372262 -7.01112 0
M  V30 908 H 90.192 -1.08582 -2.77514 0
M  V30 909 H 87.729 -0.546927 -1.36554 0
M  V30 910 H 89.687 1.04852 -4.03809 0
M  V30 911 H 88.317 1.34286 -2.93542 0
M  V30 912 H 87.369 -0.959372 -3.68104 0
M  V30 913 H 88.681 -1.04445 -4.87742 0
M  V30 914 H 87.835 1.03866 -5.97743 0
M  V30 915 H 86.574 1.21153 -4.72412 0
M  V30 916 H 85.579 -0.989464 -5.40823 0
M  V30 917 H 86.804 -1.14861 -6.69316 0
M  V30 918 H 84.75 1.08426 -6.46977 0
M  V30 919 H 84.667 -0.264198 -7.55538 0
M  V30 920 H 85.935 0.910293 -7.74167 0
M  V30 921 N 90.1641 1.46063 -0.591896 0
M  V30 922 C 91.1121 2.32124 0.148739 0
M  V30 923 C 92.1061 1.45035 0.875286 0
M  V30 924 O 93.3121 1.61609 0.792632 0
M  V30 925 H 89.6871 0.749024 0.066832 0
M  V30 926 H 91.6581 2.92392 -0.595783 0
M  V30 927 C 90.4071 3.28373 1.1431 0
M  V30 928 H 89.7301 3.95371 0.59346 0
M  V30 929 H 91.1701 3.91352 1.63155 0
M  V30 930 C 89.6291 2.54393 2.20875 0
M  V30 931 O 90.1591 2.31373 3.28374 0
M  V30 932 N 88.3651 2.14797 1.95731 0
M  V30 933 H 87.9121 2.33719 1.08319 0
M  V30 934 H 87.8701 1.65619 2.67241 0
M  V30 935 N 91.6422 0.330177 1.54103 0
M  V30 936 C 92.8882 -0.270806 2.00984 0
M  V30 937 C 93.2212 -1.51265 1.21789 0
M  V30 938 O 92.4962 -1.92142 0.301927 0
M  V30 939 C 92.7792 -0.598339 3.55094 0
M  V30 940 C 92.6322 0.654674 4.4501 0
M  V30 941 C 93.9512 -1.41334 4.16789 0
M  V30 942 H 91.0702 -0.0969531 0.730595 0
M  V30 943 H 93.7122 0.448066 1.84641 0
M  V30 944 H 91.8622 -1.21078 3.69151 0
M  V30 945 H 93.5342 1.29285 4.42813 0
M  V30 946 H 91.7772 1.28224 4.14416 0
M  V30 947 H 92.4482 0.380944 5.50684 0
M  V30 948 H 94.9242 -0.895597 4.06347 0
M  V30 949 H 93.8002 -1.61127 5.24718 0
M  V30 950 H 94.0612 -2.41146 3.70541 0
M  V30 951 N 93.1203 -1.57491 0.0584922 0
M  V30 952 C 94.0503 -2.14988 -0.911178 0
M  V30 953 C 95.0313 -1.07343 -1.31952 0
M  V30 954 O 96.2163 -1.35318 -1.39294 0
M  V30 955 C 93.3463 -2.70078 -2.18347 0
M  V30 956 C 92.3003 -3.82771 -1.91495 0
M  V30 957 C 91.6263 -4.24408 -3.25241 0
M  V30 958 C 92.9263 -5.07592 -1.23075 0
M  V30 959 H 94.6203 -2.96263 -0.432246 0
M  V30 960 H 92.1663 -1.42512 -0.206469 0
M  V30 961 H 94.1193 -3.08943 -2.86587 0
M  V30 962 H 92.8433 -1.86005 -2.68458 0
M  V30 963 H 91.5023 -3.44389 -1.25664 0
M  V30 964 H 91.1503 -3.37275 -3.73168 0
M  V30 965 H 90.8503 -5.00366 -3.08071 0
M  V30 966 H 92.3743 -4.65879 -3.94701 0
M  V30 967 H 93.7883 -5.43857 -1.81362 0
M  V30 968 H 92.1853 -5.88741 -1.16207 0
M  V30 969 H 93.2553 -4.84454 -0.207847 0
M  V30 970 N 94.5984 0.214957 -1.56127 0
M  V30 971 C 95.8234 0.95924 -1.83884 0
M  V30 972 C 96.2484 1.7689 -0.639644 0
M  V30 973 O 95.6064 1.76566 0.411601 0
M  V30 974 C 95.6544 1.84723 -3.09693 0
M  V30 975 O 94.7584 2.94346 -2.8885 0
M  V30 976 H 94.0994 0.27125 -0.606069 0
M  V30 977 H 96.6294 0.226276 -2.03345 0
M  V30 978 H 96.6394 2.25576 -3.39969 0
M  V30 979 H 95.3144 1.25218 -3.96602 0
M  V30 980 H 93.8914 2.57391 -2.69823 0
M  V30 981 N 96.0765 1.50051 0.48192 0
M  V30 982 C 97.0095 1.62749 1.59963 0
M  V30 983 C 97.9875 0.475903 1.5548 0
M  V30 984 O 99.1715 0.693986 1.7526 0
M  V30 985 C 96.2985 1.60008 2.98522 0
M  V30 986 C 95.3445 2.80596 3.21198 0
M  V30 987 S 96.1775 4.42038 3.02262 0
M  V30 988 C 97.3335 4.41973 4.43182 0
M  V30 989 H 97.5665 2.57296 1.4895 0
M  V30 990 H 95.0995 1.39179 0.668477 0
M  V30 991 H 97.0575 1.59112 3.78409 0
M  V30 992 H 95.7185 0.667153 3.06933 0
M  V30 993 H 94.9115 2.74952 4.22395 0
M  V30 994 H 94.5135 2.79003 2.49065 0
M  V30 995 H 96.8055 4.14868 5.35622 0
M  V30 996 H 97.7485 5.43512 4.53873 0
M  V30 997 H 98.1565 3.71812 4.24755 0
M  V30 998 N 97.5546 -0.734337 1.39446 0
M  V30 999 C 98.4846 -1.86155 1.40955 0
M  V30 1000 C 99.4656 -1.67898 0.272827 0
M  V30 1001 O 100.651 -1.88207 0.478743 0
M  V30 1002 C 97.7806 -3.23912 1.25294 0
M  V30 1003 C 96.7346 -3.56808 2.36373 0
M  V30 1004 C 96.0606 -4.93508 2.058 0
M  V30 1005 C 97.3606 -3.59713 3.78687 0
M  V30 1006 H 99.0546 -1.8515 2.35287 0
M  V30 1007 H 96.6006 -0.889367 1.13253 0
M  V30 1008 H 98.5536 -4.02443 1.2497 0
M  V30 1009 H 97.2776 -3.25446 0.274308 0
M  V30 1010 H 95.9366 -2.80606 2.35914 0
M  V30 1011 H 95.5846 -4.91623 1.06374 0
M  V30 1012 H 95.2846 -5.16486 2.80208 0
M  V30 1013 H 96.8086 -5.74396 2.07128 0
M  V30 1014 H 98.2226 -4.2832 3.81071 0
M  V30 1015 H 96.6196 -3.94209 4.52459 0
M  V30 1016 H 97.6896 -2.59504 4.09617 0
M  V30 1017 N 99.0327 -1.24633 -0.964593 0
M  V30 1018 C 100.261 -1.11501 -1.74285 0
M  V30 1019 C 100.676 0.332165 -1.85855 0
M  V30 1020 O 100.033 1.22903 -1.34911 0
M  V30 1021 C 100.084 -1.75258 -3.16175 0
M  V30 1022 O 99.8047 -3.14318 -3.05182 0
M  V30 1023 C 101.306 -1.67776 -4.10324 0
M  V30 1024 H 98.5257 -0.389407 -0.546446 0
M  V30 1025 H 101.07 -1.64801 -1.21083 0
M  V30 1026 H 99.2247 -1.25954 -3.66353 0
M  V30 1027 H 99.6387 -3.4551 -3.94618 0
M  V30 1028 H 101.113 -2.17064 -5.0753 0
M  V30 1029 H 101.59 -0.639584 -4.34518 0
M  V30 1030 H 102.196 -2.16522 -3.66058 0
M  V30 1031 N 100.511 1.16574 -1.06058 0
M  V30 1032 C 101.443 2.2045 -0.627239 0
M  V30 1033 C 102.456 1.59752 0.313534 0
M  V30 1034 O 103.645 1.78192 0.104896 0
M  V30 1035 C 100.745 3.3875 0.100974 0
M  V30 1036 C 99.9178 4.29008 -0.852687 0
M  V30 1037 C 98.9768 5.25944 -0.164152 0
M  V30 1038 O 98.0028 5.63535 -0.801047 0
M  V30 1039 N 99.2048 5.70075 1.09518 0
M  V30 1040 H 101.97 2.58249 -1.52077 0
M  V30 1041 H 99.5308 1.3156 -0.943594 0
M  V30 1042 H 101.523 4.00638 0.57194 0
M  V30 1043 H 100.093 2.99476 0.89628 0
M  V30 1044 H 99.3128 3.64419 -1.50308 0
M  V30 1045 H 100.601 4.86195 -1.49972 0
M  V30 1046 H 99.9988 5.41624 1.6328 0
M  V30 1047 H 98.5558 6.34067 1.51006 0
M  V30 1048 N 101.989 0.842826 1.3317 0
M  V30 1049 C 103.235 0.441099 1.97945 0
M  V30 1050 C 103.568 -0.998024 1.66593 0
M  V30 1051 O 102.843 -1.69839 0.947898 0
M  V30 1052 C 103.126 0.666841 3.53872 0
M  V30 1053 C 102.979 2.15352 3.94897 0
M  V30 1054 C 104.298 0.115544 4.39948 0
M  V30 1055 H 101.417 0.161739 0.719034 0
M  V30 1056 H 104.059 1.05907 1.57746 0
M  V30 1057 H 102.209 0.140828 3.88245 0
M  V30 1058 H 103.881 2.7447 3.70761 0
M  V30 1059 H 102.124 2.63653 3.44484 0
M  V30 1060 H 102.795 2.26221 5.03516 0
M  V30 1061 H 105.271 0.565213 4.12243 0
M  V30 1062 H 104.147 0.303152 5.48062 0
M  V30 1063 H 104.408 -0.980935 4.3108 0
M  V30 1064 N 103.467 -1.45747 0.599634 0
M  V30 1065 C 104.695 -2.06668 0.0978551 0
M  V30 1066 C 105.11 -1.44562 -1.21439 0
M  V30 1067 O 104.467 -0.556923 -1.73795 0
M  V30 1068 C 104.518 -3.61456 -0.0567044 0
M  V30 1069 O 104.239 -4.21242 1.20361 0
M  V30 1070 C 105.74 -4.39345 -0.590869 0
M  V30 1071 H 102.96 -0.667825 0.0651943 0
M  V30 1072 H 105.504 -1.87115 0.82511 0
M  V30 1073 H 103.659 -3.80378 -0.734251 0
M  V30 1074 H 104.073 -5.14323 1.02821 0
M  V30 1075 H 105.547 -5.48182 -0.648131 0
M  V30 1076 H 106.024 -4.08568 -1.61147 0
M  V30 1077 H 106.63 -4.25268 0.0523679 0
M  V30 1078 N 104.945 -0.338344 -1.53925 0
M  V30 1079 C 106.191 0.260143 -2.01125 0
M  V30 1080 C 106.524 1.50617 -1.22589 0
M  V30 1081 O 105.799 1.91979 -0.312113 0
M  V30 1082 C 106.082 0.579499 -3.55407 0
M  V30 1083 C 105.935 -0.678264 -4.44657 0
M  V30 1084 C 107.254 1.39122 -4.17532 0
M  V30 1085 H 104.373 0.0930772 -0.731099 0
M  V30 1086 H 107.015 -0.457852 -1.84401 0
M  V30 1087 H 105.165 1.19118 -3.69788 0
M  V30 1088 H 106.837 -1.31631 -4.42121 0
M  V30 1089 H 105.08 -1.3042 -4.13731 0
M  V30 1090 H 105.751 -0.410143 -5.50474 0
M  V30 1091 H 108.227 0.874035 -4.06817 0
M  V30 1092 H 107.103 1.58342 -5.25565 0
M  V30 1093 H 107.364 2.39178 -3.71815 0
M  V30 1094 N 106.423 1.57458 -0.0668435 0
M  V30 1095 C 107.651 1.97624 0.612565 0
M  V30 1096 C 108.066 0.94502 1.63447 0
M  V30 1097 O 107.423 -0.0689276 1.8237 0
M  V30 1098 C 107.474 3.37869 1.28555 0
M  V30 1099 O 107.195 4.3704 0.304557 0
M  V30 1100 C 108.696 3.92882 2.05325 0
M  V30 1101 H 105.916 0.650045 0.166381 0
M  V30 1102 H 108.46 2.04035 -0.137782 0
M  V30 1103 H 106.615 3.3256 1.98702 0
M  V30 1104 H 107.029 5.18565 0.786779 0
M  V30 1105 H 108.503 4.93247 2.47812 0
M  V30 1106 H 108.98 3.29156 2.9078 0
M  V30 1107 H 109.586 4.01577 1.40056 0
M  V30 1108 N 107.901 -0.206675 1.56239 0
M  V30 1109 C 109.148 -0.928842 1.79941 0
M  V30 1110 C 109.476 -1.83734 0.638131 0
M  V30 1111 O 108.731 -1.92039 -0.376746 0
M  V30 1112 C 109.03 -1.78675 3.09532 0
M  V30 1113 C 108.696 -1.03022 4.38973 0
M  V30 1114 C 107.358 -0.821302 4.74139 0
M  V30 1115 C 109.71 -0.497081 5.18824 0
M  V30 1116 C 107.038 -0.0675719 5.86661 0
M  V30 1117 C 109.39 0.24338 6.32132 0
M  V30 1118 C 108.054 0.463422 6.65889 0
M  V30 1119 H 107.324 -0.339887 0.658451 0
M  V30 1120 H 109.971 -0.195977 1.90495 0
M  V30 1121 H 108.276 -2.58794 2.94165 0
M  V30 1122 H 109.973 -2.34792 3.25075 0
M  V30 1123 H 106.563 -1.20306 4.11369 0
M  V30 1124 H 110.747 -0.645921 4.92079 0
M  V30 1125 H 106.003 0.112995 6.11296 0
M  V30 1126 H 110.177 0.66393 6.93228 0
M  V30 1127 H 107.804 1.04938 7.52922 0
M  V30 1128 N 109.379 -1.50304 -0.473955 0
M  V30 1129 C 110.342 -1.6841 -1.55469 0
M  V30 1130 C 111.342 -0.554905 -1.50922 0
M  V30 1131 O 112.532 -0.821882 -1.53593 0
M  V30 1132 C 109.664 -1.70667 -2.95102 0
M  V30 1133 H 110.857 -2.64828 -1.40733 0
M  V30 1134 H 108.41 -1.39742 -0.700132 0
M  V30 1135 H 109.145 -0.75932 -3.15285 0
M  V30 1136 H 108.93 -2.52698 -2.9981 0
M  V30 1137 H 110.42 -1.8664 -3.73571 0
M  V30 1138 N 110.857 0.726932 -1.39834 0
M  V30 1139 C 111.787 1.85405 -1.41941 0
M  V30 1140 C 112.768 1.67751 -0.281728 0
M  V30 1141 O 113.953 1.8795 -0.488717 0
M  V30 1142 C 111.083 3.23243 -1.2701 0
M  V30 1143 C 110.037 3.55549 -2.38262 0
M  V30 1144 C 109.363 4.9241 -2.08415 0
M  V30 1145 C 110.663 3.577 -3.80589 0
M  V30 1146 H 112.357 1.83899 -2.36266 0
M  V30 1147 H 109.903 0.883349 -1.13723 0
M  V30 1148 H 111.856 4.01775 -1.27103 0
M  V30 1149 H 110.58 3.25296 -0.291564 0
M  V30 1150 H 109.239 2.79351 -2.37399 0
M  V30 1151 H 108.887 4.91052 -1.0898 0
M  V30 1152 H 108.587 5.14992 -2.82943 0
M  V30 1153 H 110.111 5.73289 -2.10171 0
M  V30 1154 H 111.525 4.26293 -3.83337 0
M  V30 1155 H 109.922 3.91804 -4.54543 0
M  V30 1156 H 110.992 2.57328 -4.10987 0
M  V30 1157 N 112.336 1.25143 0.95797 0
M  V30 1158 C 113.582 1.09855 1.70469 0
M  V30 1159 C 113.915 -0.360187 1.90831 0
M  V30 1160 O 113.19 -1.26568 1.47685 0
M  V30 1161 C 113.473 1.8497 3.08963 0
M  V30 1162 C 113.326 3.38652 2.96032 0
M  V30 1163 C 114.645 1.63016 4.08795 0
M  V30 1164 H 111.764 0.400465 0.618706 0
M  V30 1165 H 114.406 1.53933 1.11376 0
M  V30 1166 H 112.556 1.47505 3.59409 0
M  V30 1167 H 114.228 3.85772 2.52938 0
M  V30 1168 H 112.471 3.66534 2.32025 0
M  V30 1169 H 113.142 3.8642 3.94187 0
M  V30 1170 H 115.618 1.95625 3.67247 0
M  V30 1171 H 114.494 2.18015 5.03747 0
M  V30 1172 H 114.755 0.570692 4.38401 0
M  V30 1173 N 113.814 -1.1601 1.06675 0
M  V30 1174 C 115.054 -1.88304 0.795037 0
M  V30 1175 C 115.418 -1.80062 -0.666466 0
M  V30 1176 O 116.619 -2.47319 -1.05293 0
M  V30 1177 C 114.89 -3.33664 1.28076 0
M  V30 1178 S 116.449 -4.23768 1.13868 0
M  V30 1179 H 113.267 -0.649928 0.288296 0
M  V30 1180 H 115.869 -1.4001 1.36445 0
M  V30 1181 H 114.573 -3.37203 2.33927 0
M  V30 1182 H 114.104 -3.87009 0.706253 0
M  V30 1183 H 116.119 -4.96148 0.0719668 0
M  V30 1184 N 115.292 -0.849877 -1.32721 0
M  V30 1185 C 116.541 -0.447175 -1.96681 0
M  V30 1186 C 116.854 1.00135 -1.68025 0
M  V30 1187 O 118.06 1.50926 -2.25685 0
M  V30 1188 C 116.516 -0.7487 -3.52026 0
M  V30 1189 C 116.124 -2.21264 -3.89546 0
M  V30 1190 C 117.868 -0.413487 -4.22481 0
M  V30 1191 C 115.775 -2.45763 -5.37917 0
M  V30 1192 H 114.705 -0.163486 -0.736063 0
M  V30 1193 H 117.356 -1.03999 -1.51183 0
M  V30 1194 H 115.738 -0.0853727 -3.95908 0
M  V30 1195 H 116.912 -2.91736 -3.56689 0
M  V30 1196 H 115.227 -2.5119 -3.32103 0
M  V30 1197 H 117.824 -0.574017 -5.3161 0
M  V30 1198 H 118.167 0.644492 -4.11281 0
M  V30 1199 H 118.7 -1.03251 -3.84167 0
M  V30 1200 H 115.439 -3.50168 -5.54132 0
M  V30 1201 H 114.959 -1.79864 -5.72197 0
M  V30 1202 H 116.638 -2.29471 -6.0494 0
M  V30 1203 N 116.77 1.45427 -0.607355 0
M  V30 1204 C 117.7 2.3329 0.0989352 0
M  V30 1205 C 118.681 1.46816 0.859007 0
M  V30 1206 O 119.866 1.75588 0.829604 0
M  V30 1207 C 116.996 3.29518 1.09705 0
M  V30 1208 C 115.95 4.25626 0.450206 0
M  V30 1209 C 115.276 5.11542 1.55655 0
M  V30 1210 C 116.576 5.18505 -0.628455 0
M  V30 1211 H 118.27 2.92595 -0.634716 0
M  V30 1212 H 115.816 1.40696 -0.306681 0
M  V30 1213 H 117.769 3.89855 1.59971 0
M  V30 1214 H 116.493 2.68372 1.86129 0
M  V30 1215 H 115.152 3.66586 -0.0315886 0
M  V30 1216 H 114.8 4.46765 2.31107 0
M  V30 1217 H 114.5 5.76647 1.12925 0
M  V30 1218 H 116.024 5.74748 2.06148 0
M  V30 1219 H 117.438 5.72916 -0.209877 0
M  V30 1220 H 115.835 5.92085 -0.977489 0
M  V30 1221 H 116.905 4.60948 -1.50514 0
M  V30 1222 N 118.248 0.346503 1.53744 0
M  V30 1223 C 119.494 -0.242135 2.01954 0
M  V30 1224 C 119.849 -1.47962 1.22984 0
M  V30 1225 O 119.142 -1.89077 0.309924 0
M  V30 1226 C 119.336 -0.605809 3.52228 0
M  V30 1227 C 119.165 0.594882 4.45748 0
M  V30 1228 C 117.935 1.1011 4.93157 0
M  V30 1229 C 120.133 1.45425 4.93311 0
M  V30 1230 N 118.115 2.26381 5.70636 0
M  V30 1231 C 119.486 2.46383 5.68942 0
M  V30 1232 C 121.541 1.47935 4.75415 0
M  V30 1233 C 120.244 3.49684 6.28581 0
M  V30 1234 C 122.27 2.50119 5.35905 0
M  V30 1235 C 121.632 3.49803 6.11406 0
M  V30 1236 H 117.731 -0.0518296 0.780281 0
M  V30 1237 H 120.315 0.486736 1.88518 0
M  V30 1238 H 118.486 -1.30378 3.65864 0
M  V30 1239 H 120.218 -1.17789 3.87179 0
M  V30 1240 H 116.973 0.668721 4.68855 0
M  V30 1241 H 117.397 2.85094 6.14044 0
M  V30 1242 H 122.039 0.722274 4.16585 0
M  V30 1243 H 119.757 4.26285 6.86518 0
M  V30 1244 H 123.343 2.52892 5.23963 0
M  V30 1245 H 122.223 4.27576 6.5738 0
M  V30 1246 N 119.726 -1.57421 0.075193 0
M  V30 1247 C 120.972 -1.93905 -0.594025 0
M  V30 1248 C 121.305 -0.955701 -1.69056 0
M  V30 1249 O 120.58 0.0145373 -1.94495 0
M  V30 1250 C 120.863 -3.40638 -1.1678 0
M  V30 1251 C 120.716 -4.49733 -0.0776792 0
M  V30 1252 C 122.035 -3.88259 -2.07228 0
M  V30 1253 H 119.154 -0.705105 -0.214466 0
M  V30 1254 H 121.796 -1.8947 0.141854 0
M  V30 1255 H 119.946 -3.44549 -1.79494 0
M  V30 1256 H 121.618 -4.57942 0.555573 0
M  V30 1257 H 119.861 -4.29751 0.591286 0
M  V30 1258 H 120.532 -5.49549 -0.519603 0
M  V30 1259 H 123.008 -3.86376 -1.54445 0
M  V30 1260 H 121.884 -4.91533 -2.44308 0
M  V30 1261 H 122.145 -3.26396 -2.98191 0
M  V30 1262 N 121.204 0.198386 -1.56346 0
M  V30 1263 C 122.45 0.920648 -1.80698 0
M  V30 1264 C 122.783 1.83045 -0.648697 0
M  V30 1265 O 122.058 1.91308 0.350925 0
M  V30 1266 C 122.341 1.73971 -3.15287 0
M  V30 1267 C 122.194 0.85485 -4.41602 0
M  V30 1268 C 123.513 2.71296 -3.46535 0
M  V30 1269 H 120.632 0.333261 -0.657348 0
M  V30 1270 H 123.274 0.188198 -1.89066 0
M  V30 1271 H 121.424 2.36416 -3.08285 0
M  V30 1272 H 123.096 0.245362 -4.60647 0
M  V30 1273 H 121.339 0.161398 -4.335 0
M  V30 1274 H 122.01 1.46286 -5.32264 0
M  V30 1275 H 124.486 2.18983 -3.53816 0
M  V30 1276 H 123.362 3.2569 -4.41834 0
M  V30 1277 H 123.623 3.5018 -2.69864 0
M  V30 1278 N 122.682 1.50554 0.465978 0
M  V30 1279 C 123.912 1.65323 1.23903 0
M  V30 1280 C 124.32 0.338051 1.86155 0
M  V30 1281 O 123.663 -0.690518 1.70228 0
M  V30 1282 C 123.725 2.69048 2.3844 0
M  V30 1283 C 123.389 4.12462 1.96784 0
M  V30 1284 C 124.386 4.98168 1.48745 0
M  V30 1285 C 122.071 4.58407 2.05349 0
M  V30 1286 C 124.065 6.27868 1.0982 0
M  V30 1287 C 121.752 5.88112 1.66035 0
M  V30 1288 C 122.75 6.72668 1.18349 0
M  V30 1289 O 122.438 7.99951 0.795825 0
M  V30 1290 H 122.17 0.558629 0.38067 0
M  V30 1291 H 124.724 1.97561 0.562022 0
M  V30 1292 H 122.954 2.32062 3.09328 0
M  V30 1293 H 124.643 2.72985 3.0039 0
M  V30 1294 H 125.409 4.63885 1.41546 0
M  V30 1295 H 121.288 3.92735 2.41414 0
M  V30 1296 H 124.832 6.93819 0.725293 0
M  V30 1297 H 120.729 6.21914 1.72895 0
M  V30 1298 H 121.497 8.13265 0.924222 0
M  V30 1299 N 124.16 -0.719506 1.40217 0
M  V30 1300 C 125.408 -1.47641 1.3801 0
M  V30 1301 C 125.729 -1.94992 -0.018145 0
M  V30 1302 O 124.999 -1.70073 -0.972207 0
M  V30 1303 H 123.579 -0.547744 0.507923 0
M  V30 1304 H 126.241 -0.853187 1.75233 0
M  V30 1305 H 125.337 -2.35112 2.05253 0
M  V30 1306 N 125.638 -1.25649 -0.95132 0
M  V30 1307 C 126.868 -1.13179 -1.72841 0
M  V30 1308 C 127.276 0.316827 -1.86528 0
M  V30 1309 O 126.619 1.22948 -1.3649 0
M  V30 1310 C 126.681 -1.71644 -3.15878 0
M  V30 1311 C 126.345 -3.20667 -3.25609 0
M  V30 1312 C 127.342 -4.17616 -3.09666 0
M  V30 1313 C 125.027 -3.6094 -3.49324 0
M  V30 1314 C 127.021 -5.52817 -3.17289 0
M  V30 1315 C 124.708 -4.96278 -3.56584 0
M  V30 1316 C 125.706 -5.92025 -3.40581 0
M  V30 1317 O 125.394 -7.24899 -3.47528 0
M  V30 1318 H 125.126 -0.395389 -0.54831 0
M  V30 1319 H 127.68 -1.66566 -1.20187 0
M  V30 1320 H 125.91 -1.12707 -3.69911 0
M  V30 1321 H 127.599 -1.54225 -3.75459 0
M  V30 1322 H 128.365 -3.87842 -2.91211 0
M  V30 1323 H 124.244 -2.86907 -3.6084 0
M  V30 1324 H 127.788 -6.2753 -3.04716 0
M  V30 1325 H 123.685 -5.25716 -3.74556 0
M  V30 1326 H 124.453 -7.33039 -3.64138 0
M  V30 1327 N 127.117 1.15442 -1.07289 0
M  V30 1328 C 128.342 1.90638 -0.816828 0
M  V30 1329 C 128.767 1.77445 0.624083 0
M  V30 1330 O 128.125 1.10671 1.43602 0
M  V30 1331 C 128.173 3.39008 -1.22906 0
M  V30 1332 O 127.277 4.10701 -0.373975 0
M  V30 1333 H 126.618 0.593555 -0.297638 0
M  V30 1334 H 129.148 1.46198 -1.43134 0
M  V30 1335 H 129.158 3.89801 -1.20497 0
M  V30 1336 H 127.833 3.47929 -2.27856 0
M  V30 1337 H 126.41 3.70046 -0.460499 0
M  V30 1338 N 128.595 0.856903 1.32268 0
M  V30 1339 C 129.525 0.31858 2.31316 0
M  V30 1340 C 130.506 -0.583487 1.59779 0
M  V30 1341 O 131.691 -0.503259 1.87566 0
M  V30 1342 C 128.821 -0.491979 3.43798 0
M  V30 1343 C 127.775 0.315849 4.26833 0
M  V30 1344 C 127.101 -0.619586 5.31098 0
M  V30 1345 C 128.401 1.54282 4.98993 0
M  V30 1346 H 130.095 1.14621 2.76591 0
M  V30 1347 H 127.641 0.552613 1.32974 0
M  V30 1348 H 129.594 -0.879012 4.1213 0
M  V30 1349 H 128.318 -1.35299 2.97257 0
M  V30 1350 H 126.977 0.684664 3.6015 0
M  V30 1351 H 126.625 -1.47751 4.8081 0
M  V30 1352 H 126.325 -0.0830621 5.87541 0
M  V30 1353 H 127.849 -1.00375 6.02293 0
M  V30 1354 H 129.263 1.22796 5.59995 0
M  V30 1355 H 127.66 2.01745 5.65172 0
M  V30 1356 H 128.73 2.30285 4.26728 0
M  V30 1357 N 130.073 -1.45103 0.615059 0
M  V30 1358 C 131.036 -2.29025 -0.0895485 0
M  V30 1359 C 132.036 -1.40174 -0.787906 0
M  V30 1360 O 133.226 -1.62217 -0.634933 0
M  V30 1361 C 130.358 -3.21376 -1.13711 0
M  V30 1362 H 131.551 -2.92807 0.648382 0
M  V30 1363 H 129.104 -1.51749 0.374444 0
M  V30 1364 H 129.839 -2.6241 -1.90556 0
M  V30 1365 H 129.624 -3.86834 -0.640475 0
M  V30 1366 H 131.114 -3.84459 -1.63036 0
M  V30 1367 N 131.551 -0.354651 -1.53558 0
M  V30 1368 C 132.798 0.238443 -2.01091 0
M  V30 1369 C 133.126 1.49663 -1.24222 0
M  V30 1370 O 132.381 1.93049 -0.321003 0
M  V30 1371 C 132.68 0.587121 -3.52545 0
M  V30 1372 C 132.346 -0.575472 -4.47213 0
M  V30 1373 C 131.008 -0.894497 -4.72813 0
M  V30 1374 C 133.36 -1.35489 -5.03281 0
M  V30 1375 C 130.688 -1.99511 -5.51736 0
M  V30 1376 C 133.04 -2.44583 -5.83405 0
M  V30 1377 C 131.704 -2.77033 -6.07296 0
M  V30 1378 H 130.974 0.0872526 -0.735845 0
M  V30 1379 H 133.621 -0.484859 -1.8526 0
M  V30 1380 H 131.926 1.39129 -3.66265 0
M  V30 1381 H 133.623 1.05809 -3.86789 0
M  V30 1382 H 130.213 -0.316774 -4.27428 0
M  V30 1383 H 134.397 -1.12167 -4.83459 0
M  V30 1384 H 129.653 -2.25063 -5.68469 0
M  V30 1385 H 133.827 -3.05401 -6.25862 0
M  V30 1386 H 131.454 -3.6244 -6.68237 0
M  V30 1387 N 133.029 1.57378 -0.0835403 0
M  V30 1388 C 134.277 1.93547 0.581718 0
M  V30 1389 C 134.598 0.96524 1.69435 0
M  V30 1390 O 133.868 0.0153369 1.95894 0
M  V30 1391 H 132.448 0.714521 0.217874 0
M  V30 1392 H 135.11 1.94366 -0.144158 0
M  V30 1393 H 134.206 2.95665 0.999423 0
M  V30 1394 N 134.507 -0.190092 1.56449 0
M  V30 1395 C 135.417 -1.25591 1.98152 0
M  V30 1396 C 136.433 -1.49519 0.889944 0
M  V30 1397 O 137.609 -1.62036 1.19609 0
M  V30 1398 C 134.674 -2.57916 2.3169 0
M  V30 1399 C 133.735 -2.42015 3.5458 0
M  V30 1400 C 132.968 -3.6803 3.8651 0
M  V30 1401 O 133.191 -4.72413 3.1966 0
M  V30 1402 O 132.125 -3.6326 4.79923 0
M  V30 1403 H 135.951 -0.931988 2.89046 0
M  V30 1404 H 133.536 -0.395488 1.4407 0
M  V30 1405 H 135.418 -3.36008 2.54316 0
M  V30 1406 H 134.093 -2.89925 1.43963 0
M  V30 1407 H 133 -1.62017 3.37196 0
M  V30 1408 H 134.333 -2.14937 4.4279 0
M  V30 1409 N 135.985 -1.50799 -0.457987 0
M  V30 1410 C 137.233 -1.62121 -1.2067 0
M  V30 1411 C 137.554 -0.329793 -1.92191 0
M  V30 1412 O 136.824 0.653409 -1.84682 0
M  V30 1413 H 135.404 -0.597441 -0.448411 0
M  V30 1414 H 138.066 -1.87637 -0.527096 0
M  V30 1415 H 137.162 -2.43882 -1.94751 0
M  V30 1416 N 137.463 0.71206 -1.40597 0
M  V30 1417 C 138.411 1.84746 -1.41321 0
M  V30 1418 C 139.405 1.66842 -0.293268 0
M  V30 1419 O 140.611 1.73904 -0.464481 0
M  V30 1420 H 136.986 0.608522 -0.441819 0
M  V30 1421 H 138.957 1.81252 -2.37045 0
M  V30 1422 C 137.706 3.22638 -1.29614 0
M  V30 1423 H 137.029 3.37023 -2.15071 0
M  V30 1424 H 138.469 4.02209 -1.3418 0
M  V30 1425 C 136.928 3.36899 -0.00673121 0
M  V30 1426 O 137.458 3.90186 0.954859 0
M  V30 1427 N 135.664 2.9053 0.0639327 0
M  V30 1428 H 135.211 2.47353 -0.719311 0
M  V30 1429 H 135.169 3.0045 0.926118 0
M  V30 1430 N 138.941 1.26152 0.944643 0
M  V30 1431 C 139.889 1.07215 2.06417 0
M  V30 1432 C 140.883 9.2007e-05 1.694 0
M  V30 1433 O 142.089 0.1565 1.79318 0
M  V30 1434 H 138.464 0.329837 0.675805 0
M  V30 1435 H 140.435 2.02099 2.19541 0
M  V30 1436 C 139.184 0.718197 3.40202 0
M  V30 1437 H 138.507 1.53497 3.69159 0
M  V30 1438 H 139.947 0.625459 4.19361 0
M  V30 1439 C 138.406 -0.576435 3.31932 0
M  V30 1440 O 138.936 -1.61574 3.67773 0
M  V30 1441 N 137.142 -0.565781 2.85039 0
M  V30 1442 H 136.689 0.280367 2.5607 0
M  V30 1443 H 136.647 -1.43213 2.79888 0
M  V30 1444 N 140.419 -1.14872 1.07899 0
M  V30 1445 C 141.666 -1.85789 0.805532 0
M  V30 1446 C 141.994 -1.82649 -0.668561 0
M  V30 1447 O 141.249 -1.24858 -1.50695 0
M  V30 1448 C 141.548 -3.34223 1.26609 0
M  V30 1449 C 141.214 -3.57555 2.74709 0
M  V30 1450 C 139.876 -3.63631 3.1516 0
M  V30 1451 C 142.228 -3.66803 3.70277 0
M  V30 1452 C 139.556 -3.76473 4.49983 0
M  V30 1453 C 141.908 -3.8117 5.04869 0
M  V30 1454 C 140.572 -3.85494 5.44932 0
M  V30 1455 H 139.842 -0.679849 0.294765 0
M  V30 1456 H 142.489 -1.3572 1.35101 0
M  V30 1457 H 140.794 -3.86536 0.640103 0
M  V30 1458 H 142.491 -3.87511 1.03132 0
M  V30 1459 H 139.081 -3.5347 2.42398 0
M  V30 1460 H 143.265 -3.61404 3.40149 0
M  V30 1461 H 138.521 -3.7808 4.80484 0
M  V30 1462 H 142.695 -3.87268 5.78789 0
M  V30 1463 H 140.322 -3.95197 6.49403 0
M  V30 1464 N 141.898 -0.863906 -1.31812 0
M  V30 1465 C 143.145 -0.471836 -1.96926 0
M  V30 1466 C 143.473 0.974578 -1.68322 0
M  V30 1467 O 142.728 1.7003 -0.968933 0
M  V30 1468 C 143.027 -0.668547 -3.51091 0
M  V30 1469 C 142.693 -2.08683 -3.99703 0
M  V30 1470 C 141.355 -2.47471 -4.12688 0
M  V30 1471 C 143.707 -3.01207 -4.25351 0
M  V30 1472 C 141.035 -3.78037 -4.4867 0
M  V30 1473 C 143.387 -4.31282 -4.62794 0
M  V30 1474 C 142.051 -4.69992 -4.73987 0
M  V30 1475 H 141.321 -0.172657 -0.720604 0
M  V30 1476 H 143.968 -1.09573 -1.57054 0
M  V30 1477 H 142.273 0.0385252 -3.91781 0
M  V30 1478 H 143.97 -0.345102 -3.99512 0
M  V30 1479 H 140.56 -1.77566 -3.90087 0
M  V30 1480 H 144.744 -2.72469 -4.14819 0
M  V30 1481 H 140 -4.078 -4.55532 0
M  V30 1482 H 144.174 -5.03031 -4.81594 0
M  V30 1483 H 141.801 -5.71207 -5.01624 0
M  V30 1484 N 143.376 1.44774 -0.622745 0
M  V30 1485 C 144.624 2.01721 -0.123655 0
M  V30 1486 C 144.945 1.49172 1.25589 0
M  V30 1487 O 144.215 0.691974 1.83272 0
M  V30 1488 H 142.795 0.745777 -0.0427225 0
M  V30 1489 H 145.457 1.77382 -0.807559 0
M  V30 1490 H 144.553 3.11984 -0.0849534 0
M  V30 1491 N 144.854 0.36279 1.53368 0
M  V30 1492 C 145.802 -0.500155 2.27159 0
M  V30 1493 C 146.796 -1.08575 1.3003 0
M  V30 1494 O 148.002 -1.02927 1.47668 0
M  V30 1495 H 144.377 -0.180009 0.730138 0
M  V30 1496 H 146.348 0.14401 2.98052 0
M  V30 1497 C 145.097 -1.62937 3.07159 0
M  V30 1498 H 144.42 -1.18806 3.8174 0
M  V30 1499 H 145.86 -2.20795 3.61975 0
M  V30 1500 C 144.319 -2.57007 2.17829 0
M  V30 1501 O 144.849 -3.59752 1.78721 0
M  V30 1502 N 143.055 -2.26131 1.82518 0
M  V30 1503 H 142.602 -1.42616 2.14519 0
M  V30 1504 H 142.56 -2.89327 1.23034 0
M  V30 1505 N 146.332 -1.57332 0.0918853 0
M  V30 1506 C 147.581 -1.93412 -0.572249 0
M  V30 1507 C 147.894 -0.975515 -1.69538 0
M  V30 1508 O 149.1 -1.22991 -2.42045 0
M  V30 1509 C 147.556 -3.43648 -1.0693 0
M  V30 1510 C 147.164 -4.47994 0.0239049 0
M  V30 1511 C 148.908 -3.88695 -1.70635 0
M  V30 1512 C 146.815 -5.89381 -0.488319 0
M  V30 1513 H 145.745 -0.721939 -0.217532 0
M  V30 1514 H 148.396 -1.82735 0.167369 0
M  V30 1515 H 146.778 -3.49466 -1.8625 0
M  V30 1516 H 147.952 -4.53815 0.799277 0
M  V30 1517 H 146.267 -4.12536 0.565946 0
M  V30 1518 H 148.864 -4.91725 -2.10025 0
M  V30 1519 H 149.207 -3.27166 -2.57426 0
M  V30 1520 H 149.74 -3.85564 -0.979023 0
M  V30 1521 H 146.479 -6.54602 0.342906 0
M  V30 1522 H 145.999 -5.87037 -1.23077 0
M  V30 1523 H 147.678 -6.39863 -0.958317 0
M  V30 1524 N 147.81 0.181792 -1.56548 0
M  V30 1525 C 148.758 1.24461 -1.965 0
M  V30 1526 C 149.752 1.464 -0.852261 0
M  V30 1527 O 150.958 1.47103 -1.03733 0
M  V30 1528 H 147.333 0.418138 -0.625031 0
M  V30 1529 H 149.304 0.880714 -2.85107 0
M  V30 1530 C 148.053 2.57891 -2.33212 0
M  V30 1531 H 147.376 2.41829 -3.18369 0
M  V30 1532 H 148.816 3.3097 -2.65019 0
M  V30 1533 C 147.275 3.15871 -1.17163 0
M  V30 1534 O 147.805 3.9913 -0.453708 0
M  V30 1535 N 146.011 2.74808 -0.944936 0
M  V30 1536 H 145.558 2.07205 -1.53049 0
M  V30 1537 H 145.516 3.13939 -0.170286 0
M  V30 1538 N 149.288 1.51039 0.449983 0
M  V30 1539 C 150.534 1.64287 1.19923 0
M  V30 1540 C 150.889 0.348701 1.89214 0
M  V30 1541 O 150.182 -0.654751 1.80065 0
M  V30 1542 C 150.376 2.77556 2.25161 0
M  V30 1543 C 150.205 4.17862 1.66198 0
M  V30 1544 C 148.975 4.83976 1.45243 0
M  V30 1545 C 151.173 5.01388 1.14519 0
M  V30 1546 N 149.155 6.08433 0.817437 0
M  V30 1547 C 150.526 6.16743 0.634705 0
M  V30 1548 C 152.581 4.87008 1.03574 0
M  V30 1549 C 151.284 7.19295 0.0255452 0
M  V30 1550 C 153.31 5.89757 0.440489 0
M  V30 1551 C 152.672 7.04375 -0.0595112 0
M  V30 1552 H 148.771 0.655161 0.426952 0
M  V30 1553 H 151.355 1.88228 0.49781 0
M  V30 1554 H 149.526 2.553 2.92706 0
M  V30 1555 H 151.258 2.80049 2.92155 0
M  V30 1556 H 148.013 4.41627 1.71063 0
M  V30 1557 H 148.437 6.75017 0.517747 0
M  V30 1558 H 153.079 3.9866 1.4082 0
M  V30 1559 H 150.797 8.07302 -0.359071 0
M  V30 1560 H 154.383 5.80698 0.35788 0
M  V30 1561 H 153.263 7.82521 -0.512882 0
M  V30 1562 N 150.766 -0.704594 1.40972 0
M  V30 1563 C 151.696 -1.83124 1.44872 0
M  V30 1564 C 152.677 -1.67281 0.30838 0
M  V30 1565 O 153.862 -1.87149 0.518556 0
M  V30 1566 C 150.992 -3.21181 1.32136 0
M  V30 1567 C 149.946 -3.51714 2.43888 0
M  V30 1568 C 149.272 -4.89032 2.16222 0
M  V30 1569 C 150.572 -3.516 3.86232 0
M  V30 1570 H 152.266 -1.80117 2.39161 0
M  V30 1571 H 149.812 -0.865145 1.15114 0
M  V30 1572 H 151.765 -3.99702 1.33479 0
M  V30 1573 H 150.489 -3.24791 0.343279 0
M  V30 1574 H 149.148 -2.75539 2.41813 0
M  V30 1575 H 148.796 -4.89256 1.16778 0
M  V30 1576 H 148.496 -5.10426 2.911 0
M  V30 1577 H 150.02 -5.69873 2.19265 0
M  V30 1578 H 151.434 -4.2014 3.9007 0
M  V30 1579 H 149.831 -3.84523 4.60719 0
M  V30 1580 H 150.901 -2.50757 4.15029 0
M  V30 1581 N 152.244 -1.26651 -0.937939 0
M  V30 1582 C 153.177 -1.02811 -2.03728 0
M  V30 1583 C 154.155 0.0481915 -1.62529 0
M  V30 1584 O 155.339 -0.0948839 -1.88261 0
M  V30 1585 C 152.466 -0.557517 -3.3408 0
M  V30 1586 C 151.512 -1.62686 -3.94253 0
M  V30 1587 S 152.345 -3.21667 -4.28125 0
M  V30 1588 C 153.501 -2.76384 -5.61572 0
M  V30 1589 H 153.734 -1.95891 -2.23638 0
M  V30 1590 H 151.267 -1.10367 -1.07974 0
M  V30 1591 H 153.225 -0.292674 -4.09455 0
M  V30 1592 H 151.886 0.353062 -3.12109 0
M  V30 1593 H 151.079 -1.24866 -4.88287 0
M  V30 1594 H 150.681 -1.84324 -3.25424 0
M  V30 1595 H 152.973 -2.2105 -6.40424 0
M  V30 1596 H 153.916 -3.69123 -6.0428 0
M  V30 1597 H 154.324 -2.15847 -5.21604 0
M  V30 1598 N 153.722 1.14298 -1.08507 0
M  V30 1599 C 154.652 2.21542 -0.737646 0
M  V30 1600 C 155.633 1.67773 0.280377 0
M  V30 1601 O 156.818 1.93616 0.150521 0
M  V30 1602 C 153.948 3.46988 -0.147259 0
M  V30 1603 C 152.902 4.13789 -1.09374 0
M  V30 1604 C 152.228 5.33449 -0.365524 0
M  V30 1605 C 153.528 4.62208 -2.4323 0
M  V30 1606 H 155.222 2.5086 -1.6343 0
M  V30 1607 H 152.768 1.20576 -0.787243 0
M  V30 1608 H 154.721 4.21262 0.107808 0
M  V30 1609 H 153.445 3.17037 0.784538 0
M  V30 1610 H 152.104 3.4147 -1.33393 0
M  V30 1611 H 151.752 4.99759 0.57011 0
M  V30 1612 H 151.452 5.79088 -0.996512 0
M  V30 1613 H 152.976 6.10485 -0.118534 0
M  V30 1614 H 154.39 5.27952 -2.23472 0
M  V30 1615 H 152.787 5.18553 -3.02031 0
M  V30 1616 H 153.857 3.77224 -3.04681 0
M  V30 1617 N 155.201 0.870884 1.31352 0
M  V30 1618 C 156.148 0.325425 2.28494 0
M  V30 1619 C 157.118 -0.576615 1.5577 0
M  V30 1620 O 158.303 -0.508059 1.83911 0
M  V30 1621 C 155.443 -0.466283 3.41935 0
M  V30 1622 C 154.556 0.463378 4.29508 0
M  V30 1623 C 153.691 -0.342544 5.30094 0
M  V30 1624 C 152.73 0.583486 6.09313 0
M  V30 1625 N 151.867 -0.186244 7.01853 0
M  V30 1626 H 156.707 1.15901 2.74538 0
M  V30 1627 H 154.244 0.58294 1.35056 0
M  V30 1628 H 156.202 -0.941085 4.06447 0
M  V30 1629 H 154.832 -1.26456 2.97 0
M  V30 1630 H 153.884 1.05663 3.65431 0
M  V30 1631 H 155.196 1.1734 4.84802 0
M  V30 1632 H 154.35 -0.879816 6.00287 0
M  V30 1633 H 153.089 -1.08585 4.75458 0
M  V30 1634 H 152.094 1.13251 5.3801 0
M  V30 1635 H 153.319 1.32566 6.66035 0
M  V30 1636 H 151.265 -0.912348 6.49625 0
M  V30 1637 H 151.182 0.464422 7.54572 0
M  V30 1638 H 152.45 -0.704716 7.76308 0
M  V30 1639 N 156.679 -1.44442 0.630414 0
M  V30 1640 C 157.627 -2.32437 -0.0871428 0
M  V30 1641 C 158.621 -1.47304 -0.836525 0
M  V30 1642 O 159.827 -1.63653 -0.749506 0
M  V30 1643 H 156.202 -0.750533 -0.0469495 0
M  V30 1644 H 158.173 -2.90709 0.673096 0
M  V30 1645 C 156.922 -3.31288 -1.05563 0
M  V30 1646 H 156.245 -3.96805 -0.488426 0
M  V30 1647 H 157.685 -3.9554 -1.52721 0
M  V30 1648 C 156.144 -2.6016 -2.14052 0
M  V30 1649 O 156.674 -2.39997 -3.22124 0
M  V30 1650 N 154.88 -2.19911 -1.89967 0
M  V30 1651 H 154.427 -2.36509 -1.02085 0
M  V30 1652 H 154.385 -1.72646 -2.62756 0
M  V30 1653 N 158.157 -0.370918 -1.53173 0
M  V30 1654 C 159.406 0.218249 -2.00516 0
M  V30 1655 C 159.719 1.49429 -1.26215 0
M  V30 1656 O 160.925 2.16239 -1.64174 0
M  V30 1657 C 159.381 0.43948 -3.57207 0
M  V30 1658 C 158.989 -0.822244 -4.4039 0
M  V30 1659 C 160.733 0.986012 -4.1289 0
M  V30 1660 C 158.64 -0.570304 -5.88644 0
M  V30 1661 H 157.57 0.0853333 -0.749156 0
M  V30 1662 H 160.221 -0.490483 -1.76823 0
M  V30 1663 H 158.603 1.20961 -3.77074 0
M  V30 1664 H 159.777 -1.59557 -4.32294 0
M  V30 1665 H 158.092 -1.29238 -3.95836 0
M  V30 1666 H 160.689 1.18991 -5.21292 0
M  V30 1667 H 161.032 1.94972 -3.6782 0
M  V30 1668 H 161.565 0.27592 -3.96842 0
M  V30 1669 H 158.304 -1.50449 -6.38001 0
M  V30 1670 H 157.824 0.164427 -5.99575 0
M  V30 1671 H 159.503 -0.19784 -6.46697 0
M  V30 1672 N 159.635 1.57281 -0.100228 0
M  V30 1673 C 160.545 2.17833 0.870965 0
M  V30 1674 C 161.561 1.14921 1.30649 0
M  V30 1675 O 162.737 1.47313 1.37335 0
M  V30 1676 C 159.802 2.75085 2.1102 0
M  V30 1677 C 158.863 3.9297 1.72838 0
M  V30 1678 C 158.096 4.47482 2.90854 0
M  V30 1679 O 158.319 4.00922 4.05731 0
M  V30 1680 O 157.253 5.38433 2.69023 0
M  V30 1681 H 161.079 3.0124 0.38575 0
M  V30 1682 H 158.664 1.48881 0.124397 0
M  V30 1683 H 160.546 3.11656 2.83634 0
M  V30 1684 H 159.221 1.94721 2.58584 0
M  V30 1685 H 158.128 3.61201 0.973883 0
M  V30 1686 H 159.461 4.74713 1.30033 0
M  V30 1687 N 161.113 -0.173488 1.56642 0
M  V30 1688 C 162.043 -1.2171 1.99271 0
M  V30 1689 C 163.024 -1.46289 0.867959 0
M  V30 1690 O 164.209 -1.5766 1.13388 0
M  V30 1691 C 161.339 -2.55651 2.35074 0
M  V30 1692 C 160.293 -2.45645 3.50489 0
M  V30 1693 C 159.619 -3.84056 3.72028 0
M  V30 1694 C 160.919 -1.96302 4.84007 0
M  V30 1695 H 162.613 -0.86275 2.867 0
M  V30 1696 H 160.159 -0.413571 1.37933 0
M  V30 1697 H 162.112 -3.2886 2.63494 0
M  V30 1698 H 160.836 -2.92869 1.44552 0
M  V30 1699 H 159.495 -1.7489 3.22194 0
M  V30 1700 H 159.143 -4.18664 2.788 0
M  V30 1701 H 158.843 -3.7823 4.49684 0
M  V30 1702 H 160.367 -4.58854 4.02846 0
M  V30 1703 H 161.781 -2.59284 5.11317 0
M  V30 1704 H 160.178 -2.01429 5.65284 0
M  V30 1705 H 161.248 -0.917226 4.76146 0
M  V30 1706 N 162.591 -1.51276 -0.441967 0
M  V30 1707 C 163.819 -1.67516 -1.21434 0
M  V30 1708 C 164.234 -0.37055 -1.85128 0
M  V30 1709 O 163.591 0.650498 -1.70513 0
M  V30 1710 C 163.642 -2.78748 -2.30177 0
M  V30 1711 O 163.363 -4.04154 -1.69089 0
M  V30 1712 C 164.864 -3.06217 -3.20541 0
M  V30 1713 H 162.084 -0.562276 -0.366178 0
M  V30 1714 H 164.628 -1.97666 -0.524244 0
M  V30 1715 H 162.783 -2.5121 -2.94911 0
M  V30 1716 H 163.197 -4.65894 -2.40922 0
M  V30 1717 H 164.671 -3.8764 -3.92987 0
M  V30 1718 H 165.148 -2.18439 -3.81026 0
M  V30 1719 H 165.754 -3.35397 -2.61513 0
M  V30 1720 N 164.069 0.697108 -1.41344 0
M  V30 1721 C 165.032 1.79281 -1.42797 0
M  V30 1722 C 166.032 1.57607 -0.318837 0
M  V30 1723 O 167.222 1.64309 -0.578642 0
M  V30 1724 C 164.354 3.17632 -1.23785 0
M  V30 1725 H 165.547 1.79385 -2.40335 0
M  V30 1726 H 163.1 0.904582 -1.27464 0
M  V30 1727 H 163.835 3.23167 -0.270814 0
M  V30 1728 H 163.62 3.34765 -2.04144 0
M  V30 1729 H 165.11 3.97617 -1.27633 0
M  V30 1730 N 165.547 1.27147 0.931209 0
M  V30 1731 C 166.793 1.13446 1.68101 0
M  V30 1732 C 167.126 -0.319628 1.91552 0
M  V30 1733 O 166.401 -1.23407 1.50336 0
M  V30 1734 C 166.684 1.91482 3.0497 0
M  V30 1735 C 166.537 3.44855 2.88782 0
M  V30 1736 C 167.856 1.71651 4.05246 0
M  V30 1737 H 164.975 0.413498 0.610072 0
M  V30 1738 H 167.617 1.56261 1.08086 0
M  V30 1739 H 165.767 1.55095 3.56199 0
M  V30 1740 H 167.439 3.9105 2.44698 0
M  V30 1741 H 165.682 3.71373 2.24198 0
M  V30 1742 H 166.353 3.94694 3.85902 0
M  V30 1743 H 168.829 2.0337 3.63015 0
M  V30 1744 H 167.705 2.28651 4.99009 0
M  V30 1745 H 167.966 0.663555 4.37092 0
M  V30 1746 N 167.025 -1.13721 1.09112 0
M  V30 1747 C 167.958 -2.18094 0.67158 0
M  V30 1748 C 168.936 -1.59414 -0.320299 0
M  V30 1749 O 170.12 -1.87183 -0.222444 0
M  V30 1750 C 167.247 -3.38698 -0.0111189 0
M  V30 1751 C 166.293 -4.15966 0.942055 0
M  V30 1752 S 167.126 -4.7604 2.45246 0
M  V30 1753 C 168.282 -5.99994 1.78208 0
M  V30 1754 H 168.515 -2.53344 1.55577 0
M  V30 1755 H 166.048 -1.24967 0.906789 0
M  V30 1756 H 168.006 -4.08559 -0.398716 0
M  V30 1757 H 166.667 -3.01756 -0.871905 0
M  V30 1758 H 165.86 -5.02318 0.411396 0
M  V30 1759 H 165.462 -3.51745 1.2709 0
M  V30 1760 H 167.754 -6.68441 1.10424 0
M  V30 1761 H 168.697 -6.57662 2.62463 0
M  V30 1762 H 169.105 -5.50432 1.25238 0
M  V30 1763 N 168.503 -0.877838 -1.30888 0
M  V30 1764 C 169.751 -0.491723 -1.96027 0
M  V30 1765 C 170.072 0.960827 -1.69685 0
M  V30 1766 O 169.342 1.67462 -1.01654 0
M  V30 1767 H 167.922 -0.17885 -0.725273 0
M  V30 1768 H 170.584 -1.11935 -1.59551 0
M  V30 1769 H 169.68 -0.656016 -3.05128 0
M  V30 1770 N 169.982 1.44106 -0.638065 0
M  V30 1771 C 171.207 2.0685 -0.150916 0
M  V30 1772 C 171.632 1.47417 1.16833 0
M  V30 1773 O 170.99 0.578264 1.71831 0
M  V30 1774 C 171.038 3.60555 -0.05708 0
M  V30 1775 O 170.142 4.00465 0.984972 0
M  V30 1776 H 169.483 0.658151 -0.0879399 0
M  V30 1777 H 172.013 1.84865 -0.876707 0
M  V30 1778 H 172.023 4.07789 0.131232 0
M  V30 1779 H 170.698 4.03193 -1.02021 0
M  V30 1780 H 169.275 3.64849 0.770672 0
M  V30 1781 N 171.46 0.379036 1.52974 0
M  V30 1782 C 172.709 -0.207612 2.00629 0
M  V30 1783 C 173.022 -1.48758 1.27006 0
M  V30 1784 O 174.228 -2.15365 1.65318 0
M  V30 1785 C 172.684 -0.42053 3.57435 0
M  V30 1786 C 172.292 0.845587 4.39948 0
M  V30 1787 C 174.036 -0.964102 4.13407 0
M  V30 1788 C 171.943 0.601513 5.88333 0
M  V30 1789 H 170.873 -0.0813591 0.749598 0
M  V30 1790 H 173.524 0.499853 1.76561 0
M  V30 1791 H 171.906 -1.18959 3.7771 0
M  V30 1792 H 173.08 1.61848 4.31442 0
M  V30 1793 H 171.395 1.31336 3.95145 0
M  V30 1794 H 173.992 -1.16225 5.21916 0
M  V30 1795 H 174.335 -1.93019 3.68849 0
M  V30 1796 H 174.868 -0.25487 3.96983 0
M  V30 1797 H 171.607 1.53831 6.37194 0
M  V30 1798 H 171.127 -0.132628 5.99653 0
M  V30 1799 H 172.806 0.232134 6.46583 0
M  V30 1800 N 172.938 -1.57226 0.108567 0
M  V30 1801 C 174.168 -1.9889 -0.559142 0
M  V30 1802 C 174.576 -0.986889 -1.61422 0
M  V30 1803 O 173.919 0.0298705 -1.83676 0
M  V30 1804 C 173.981 -3.36952 -1.25315 0
M  V30 1805 C 173.645 -4.55679 -0.347248 0
M  V30 1806 C 174.642 -5.18281 0.409996 0
M  V30 1807 C 172.327 -5.0162 -0.261367 0
M  V30 1808 C 174.321 -6.25203 1.24096 0
M  V30 1809 C 172.008 -6.08405 0.573238 0
M  V30 1810 C 173.006 -6.70063 1.32304 0
M  V30 1811 O 172.694 -7.74788 2.14381 0
M  V30 1812 H 172.426 -0.658343 -0.153492 0
M  V30 1813 H 174.98 -2.04532 0.188584 0
M  V30 1814 H 173.21 -3.28032 -2.04773 0
M  V30 1815 H 174.899 -3.62974 -1.81673 0
M  V30 1816 H 175.665 -4.8371 0.353457 0
M  V30 1817 H 171.544 -4.53381 -0.834656 0
M  V30 1818 H 175.088 -6.73259 1.82669 0
M  V30 1819 H 170.985 -6.42406 0.631208 0
M  V30 1820 H 171.753 -7.91837 2.07209 0
M  V30 1821 N 174.416 0.165178 -1.56732 0
M  V30 1822 C 175.348 1.22911 -1.93457 0
M  V30 1823 C 176.361 1.40152 -0.828333 0
M  V30 1824 O 177.55 1.40046 -1.10677 0
M  V30 1825 C 174.65 2.59686 -2.17753 0
M  V30 1826 C 173.823 2.63663 -3.48999 0
M  V30 1827 C 172.882 3.81845 -3.62051 0
M  V30 1828 O 171.908 3.67559 -4.34613 0
M  V30 1829 N 173.11 4.98557 -2.97357 0
M  V30 1830 H 175.875 0.917118 -2.85323 0
M  V30 1831 H 173.436 0.354895 -1.57962 0
M  V30 1832 H 175.428 3.37225 -2.23743 0
M  V30 1833 H 173.998 2.83251 -1.32242 0
M  V30 1834 H 173.218 1.72173 -3.54612 0
M  V30 1835 H 174.506 2.63336 -4.35352 0
M  V30 1836 H 173.904 5.13065 -2.38287 0
M  V30 1837 H 172.461 5.73936 -3.08934 0
M  V30 1838 N 175.894 1.51508 0.433938 0
M  V30 1839 C 177.124 1.67914 1.20369 0
M  V30 1840 C 177.532 0.377461 1.85397 0
M  V30 1841 O 176.875 -0.654255 1.71654 0
M  V30 1842 C 176.937 2.74045 2.32679 0
M  V30 1843 C 176.601 4.16543 1.87991 0
M  V30 1844 C 177.598 5.01211 1.38145 0
M  V30 1845 C 175.283 4.6266 1.95579 0
M  V30 1846 C 177.277 6.30056 0.964774 0
M  V30 1847 C 174.964 5.91501 1.53523 0
M  V30 1848 C 175.962 6.75027 1.04055 0
M  V30 1849 O 175.65 8.01459 0.625964 0
M  V30 1850 H 175.382 0.566578 0.368735 0
M  V30 1851 H 177.936 1.98709 0.51999 0
M  V30 1852 H 176.166 2.38572 3.04336 0
M  V30 1853 H 177.855 2.79295 2.94532 0
M  V30 1854 H 178.621 4.66783 1.31675 0
M  V30 1855 H 174.5 3.97767 2.33029 0
M  V30 1856 H 178.044 6.95202 0.57796 0
M  V30 1857 H 173.941 6.25442 1.59665 0
M  V30 1858 H 174.709 8.15043 0.751509 0
M  V30 1859 N 177.372 -0.689602 1.41712 0
M  V30 1860 C 178.621 -1.44534 1.40686 0
M  V30 1861 C 178.934 -1.95588 0.0213352 0
M  V30 1862 O 180.14 -2.71271 -0.111534 0
M  V30 1863 C 178.596 -2.61387 2.47396 0
M  V30 1864 C 178.204 -2.17094 3.91885 0
M  V30 1865 C 179.948 -3.38986 2.55517 0
M  V30 1866 C 177.855 -3.3094 4.90135 0
M  V30 1867 H 176.785 -0.542925 0.52321 0
M  V30 1868 H 179.436 -0.748054 1.6756 0
M  V30 1869 H 177.818 -3.33412 2.13664 0
M  V30 1870 H 178.992 -1.52318 4.34897 0
M  V30 1871 H 177.307 -1.52473 3.8748 0
M  V30 1872 H 179.904 -4.23747 3.26102 0
M  V30 1873 H 180.247 -3.84578 1.59391 0
M  V30 1874 H 180.78 -2.74021 2.8837 0
M  V30 1875 H 177.519 -2.90355 5.87685 0
M  V30 1876 H 177.039 -3.94546 4.51767 0
M  V30 1877 H 178.718 -3.9663 5.11169 0
M  V30 1878 N 178.85 -1.27639 -0.924453 0
M  V30 1879 C 179.8 -1.07295 -2.01176 0
M  V30 1880 C 180.784 5.77352e-05 -1.609 0
M  V30 1881 O 181.976 -0.218855 -1.75642 0
M  V30 1882 C 179.105 -0.725592 -3.35544 0
M  V30 1883 C 178.191 -1.83691 -3.82254 0
M  V30 1884 N 178.582 -3.07697 -4.01443 0
M  V30 1885 C 176.88 -1.72433 -4.11319 0
M  V30 1886 C 177.581 -3.80037 -4.40394 0
M  V30 1887 N 176.557 -3.0782 -4.48049 0
M  V30 1888 H 180.359 -2.01399 -2.14046 0
M  V30 1889 H 177.873 -1.18401 -1.11153 0
M  V30 1890 H 179.87 -0.560959 -4.13109 0
M  V30 1891 H 178.53 0.207782 -3.24034 0
M  V30 1892 H 179.541 -3.43424 -3.8766 0
M  V30 1893 H 176.218 -0.862005 -4.08504 0
M  V30 1894 H 177.608 -4.86632 -4.63291 0
M  V30 1895 N 180.328 1.1314 -1.09713 0
M  V30 1896 C 181.574 1.84757 -0.836224 0
M  V30 1897 C 181.907 1.8347 0.636598 0
M  V30 1898 O 181.182 1.27491 1.46889 0
M  V30 1899 C 181.465 3.32782 -1.37578 0
M  V30 1900 C 181.318 3.42567 -2.91493 0
M  V30 1901 C 182.637 4.28307 -1.01198 0
M  V30 1902 H 179.756 0.67082 -0.305236 0
M  V30 1903 H 182.398 1.3278 -1.35903 0
M  V30 1904 H 180.548 3.77177 -0.931097 0
M  V30 1905 H 182.22 3.06862 -3.44432 0
M  V30 1906 H 180.463 2.83349 -3.28475 0
M  V30 1907 H 181.134 4.46674 -3.24324 0
M  V30 1908 H 183.61 3.91999 -1.39556 0
M  V30 1909 H 182.486 5.30307 -1.41653 0
M  V30 1910 H 182.747 4.42029 0.0794833 0
M  V30 1911 N 181.806 0.884767 1.30421 0
M  V30 1912 C 182.769 0.356277 2.26414 0
M  V30 1913 C 183.769 -0.501124 1.52792 0
M  V30 1914 O 184.959 -0.30831 1.7145 0
M  V30 1915 C 182.091 -0.492316 3.37326 0
M  V30 1916 H 183.284 1.20389 2.74675 0
M  V30 1917 H 180.837 0.661607 1.41607 0
M  V30 1918 H 181.572 -1.36052 2.94381 0
M  V30 1919 H 181.357 0.121832 3.91911 0
M  V30 1920 H 182.847 -0.853871 4.08777 0
M  V30 1921 N 183.284 -1.43765 0.645699 0
M  V30 1922 C 184.531 -2.01898 0.15604 0
M  V30 1923 C 184.859 -1.50887 -1.22733 0
M  V30 1924 O 184.114 -0.689271 -1.8316 0
M  V30 1925 C 184.413 -3.57238 0.107679 0
M  V30 1926 C 184.079 -4.27564 1.43178 0
M  V30 1927 C 182.741 -4.46492 1.7944 0
M  V30 1928 C 185.093 -4.67454 2.30513 0
M  V30 1929 C 182.421 -5.02573 3.02716 0
M  V30 1930 C 184.773 -5.24901 3.53074 0
M  V30 1931 C 183.437 -5.42046 3.89541 0
M  V30 1932 H 182.707 -0.738797 0.057099 0
M  V30 1933 H 185.354 -1.72341 0.834912 0
M  V30 1934 H 183.659 -3.86293 -0.654618 0
M  V30 1935 H 185.356 -3.99965 -0.287938 0
M  V30 1936 H 181.946 -4.13171 1.13963 0
M  V30 1937 H 186.13 -4.5253 2.0379 0
M  V30 1938 H 181.386 -5.14033 3.31028 0
M  V30 1939 H 185.56 -5.54758 4.20971 0
M  V30 1940 H 183.187 -5.85268 4.85145 0
M  V30 1941 N 184.763 -0.387143 -1.52771 0
M  V30 1942 C 185.695 0.484089 -2.2403 0
M  V30 1943 C 186.708 1.02849 -1.26198 0
M  V30 1944 O 187.897 0.931186 -1.52286 0
M  V30 1945 C 184.997 1.68337 -2.94136 0
M  V30 1946 C 184.17 1.26672 -4.18656 0
M  V30 1947 C 183.229 2.33045 -4.7178 0
M  V30 1948 O 182.255 1.94541 -5.34923 0
M  V30 1949 N 183.457 3.64929 -4.5145 0
M  V30 1950 H 186.222 -0.126404 -2.99433 0
M  V30 1951 H 183.783 -0.213392 -1.60488 0
M  V30 1952 H 185.775 2.39019 -3.26577 0
M  V30 1953 H 184.345 2.20025 -2.22053 0
M  V30 1954 H 183.565 0.388878 -3.92277 0
M  V30 1955 H 184.853 0.964964 -4.99566 0
M  V30 1956 H 184.251 3.98974 -4.01044 0
M  V30 1957 H 182.808 4.31651 -4.88386 0
M  V30 1958 N 186.241 1.57166 -0.116904 0
M  V30 1959 C 187.489 1.94737 0.540533 0
M  V30 1960 C 187.81 1.00096 1.67349 0
M  V30 1961 O 187.08 0.0568854 1.95817 0
M  V30 1962 H 185.66 0.718981 0.202669 0
M  V30 1963 H 188.322 1.94017 -0.185353 0
M  V30 1964 H 187.418 2.97719 0.936483 0
M  V30 1965 N 187.719 -0.156864 1.56817 0
M  V30 1966 C 188.944 -0.890331 1.87318 0
M  V30 1967 C 189.369 -1.74394 0.704855 0
M  V30 1968 O 188.727 -1.77972 -0.345786 0
M  V30 1969 C 188.775 -1.73102 3.16336 0
M  V30 1970 O 187.879 -2.83422 2.99576 0
M  V30 1971 H 187.22 -0.24857 0.615718 0
M  V30 1972 H 189.75 -0.150649 2.04045 0
M  V30 1973 H 189.76 -2.12803 3.48107 0
M  V30 1974 H 188.435 -1.10412 4.00976 0
M  V30 1975 H 187.012 -2.47199 2.7919 0
M  V30 1976 N 189.197 -1.51736 -0.425897 0
M  V30 1977 C 190.444 -1.6497 -1.17436 0
M  V30 1978 C 190.772 -0.371445 -1.9092 0
M  V30 1979 O 190.027 0.644963 -1.84767 0
M  V30 1980 C 190.326 -2.81103 -2.20717 0
M  V30 1981 C 189.992 -4.19954 -1.64162 0
M  V30 1982 C 188.654 -4.57725 -1.48462 0
M  V30 1983 C 191.006 -5.06552 -1.22696 0
M  V30 1984 C 188.334 -5.79789 -0.897873 0
M  V30 1985 C 190.686 -6.29205 -0.654464 0
M  V30 1986 C 189.35 -6.6574 -0.484456 0
M  V30 1987 H 188.62 -0.603668 -0.429727 0
M  V30 1988 H 191.267 -1.85798 -0.463829 0
M  V30 1989 H 189.572 -2.54542 -2.97852 0
M  V30 1990 H 191.269 -2.8854 -2.78471 0
M  V30 1991 H 187.859 -3.90181 -1.77361 0
M  V30 1992 H 192.043 -4.77968 -1.33642 0
M  V30 1993 H 187.299 -6.06733 -0.75402 0
M  V30 1994 H 191.473 -6.95643 -0.324694 0
M  V30 1995 H 189.1 -7.60195 -0.0276833 0
M  V30 1996 N 190.675 0.682077 -1.42076 0
M  V30 1997 C 191.638 1.77756 -1.44691 0
M  V30 1998 C 192.638 1.5726 -0.335535 0
M  V30 1999 O 193.828 1.63686 -0.596037 0
M  V30 2000 C 190.96 3.16301 -1.27146 0
M  V30 2001 H 192.153 1.76826 -2.42224 0
M  V30 2002 H 189.706 0.891012 -1.28416 0
M  V30 2003 H 190.441 3.22862 -0.305075 0
M  V30 2004 H 190.226 3.32581 -2.07683 0
M  V30 2005 H 191.716 3.96241 -1.31843 0
M  V30 2006 N 192.153 1.28127 0.917671 0
M  V30 2007 C 193.393 1.163 1.68088 0
M  V30 2008 C 193.757 -0.284515 1.8988 0
M  V30 2009 O 194.958 -0.525413 2.63615 0
M  V30 2010 C 193.229 1.93546 3.00457 0
M  V30 2011 S 194.788 1.98048 3.91564 0
M  V30 2012 H 191.606 0.415005 0.577315 0
M  V30 2013 H 194.208 1.62173 1.09179 0
M  V30 2014 H 192.912 2.97888 2.82295 0
M  V30 2015 H 192.443 1.48207 3.64415 0
M  V30 2016 H 194.458 1.08415 4.84211 0
M  V30 2017 N 193.631 -1.12557 1.10312 0
M  V30 2018 C 194.88 -1.83395 0.839588 0
M  V30 2019 C 195.193 -1.84939 -0.636929 0
M  V30 2020 O 196.399 -2.51761 -1.01631 0
M  V30 2021 C 194.855 -3.29303 1.45215 0
M  V30 2022 C 194.463 -3.36122 2.96186 0
M  V30 2023 C 196.207 -4.05121 1.26796 0
M  V30 2024 C 194.114 -4.76357 3.50483 0
M  V30 2025 H 193.044 -0.687133 0.310425 0
M  V30 2026 H 195.695 -1.26746 1.32694 0
M  V30 2027 H 194.077 -3.85812 0.892469 0
M  V30 2028 H 195.251 -2.89559 3.58458 0
M  V30 2029 H 193.566 -2.73776 3.13745 0
M  V30 2030 H 196.163 -5.08668 1.64806 0
M  V30 2031 H 196.506 -4.15773 0.209409 0
M  V30 2032 H 197.039 -3.54967 1.79563 0
M  V30 2033 H 193.778 -4.70899 4.55998 0
M  V30 2034 H 193.298 -5.23377 2.92978 0
M  V30 2035 H 194.977 -5.45294 3.48228 0
M  V30 2036 N 195.109 -0.891671 -1.2995 0
M  V30 2037 C 196.337 -0.52866 -2.00032 0
M  V30 2038 C 196.752 0.884574 -1.66795 0
M  V30 2039 O 196.109 1.5827 -0.908669 0
M  V30 2040 C 196.16 -0.701814 -3.54622 0
M  V30 2041 O 195.881 -2.05942 -3.86678 0
M  V30 2042 C 197.382 -0.342683 -4.41973 0
M  V30 2043 H 194.602 -0.203659 -0.639347 0
M  V30 2044 H 197.146 -1.19881 -1.65677 0
M  V30 2045 H 195.301 -0.0789468 -3.8732 0
M  V30 2046 H 195.715 -2.08291 -4.81368 0
M  V30 2047 H 197.189 -0.514709 -5.49595 0
M  V30 2048 H 197.666 0.71975 -4.33262 0
M  V30 2049 H 198.272 -0.942154 -4.14733 0
M  V30 2050 N 196.587 1.43421 -0.653314 0
M  V30 2051 C 197.833 2.02111 -0.166992 0
M  V30 2052 C 198.166 1.51423 1.21592 0
M  V30 2053 O 197.441 0.707389 1.8118 0
M  V30 2054 C 197.724 3.5966 -0.177948 0
M  V30 2055 C 197.577 4.20579 -1.59478 0
M  V30 2056 C 198.896 4.37413 0.4856 0
M  V30 2057 H 196.015 0.734374 -0.0621557 0
M  V30 2058 H 198.657 1.70717 -0.834016 0
M  V30 2059 H 196.807 3.86537 0.390032 0
M  V30 2060 H 198.479 4.04732 -2.21336 0
M  V30 2061 H 196.722 3.77226 -2.14204 0
M  V30 2062 H 197.393 5.29665 -1.5543 0
M  V30 2063 H 199.869 4.161 0.00234528 0
M  V30 2064 H 198.745 5.47075 0.447207 0
M  V30 2065 H 199.006 4.13672 1.55974 0
M  V30 2066 N 198.065 0.39524 1.52563 0
M  V30 2067 C 199.313 -0.184678 2.01254 0
M  V30 2068 C 199.634 -1.46822 1.28329 0
M  V30 2069 O 198.904 -1.91666 0.405094 0
M  V30 2070 H 197.484 -0.0712355 0.743596 0
M  V30 2071 H 200.146 0.528293 1.87603 0
M  V30 2072 H 199.242 -0.390681 3.09645 0
M  V30 2073 N 199.544 -1.57102 0.125237 0
M  V30 2074 C 200.474 -2.18659 -0.819174 0
M  V30 2075 C 201.455 -1.12843 -1.27281 0
M  V30 2076 O 202.64 -1.41104 -1.33429 0
M  V30 2077 C 199.77 -2.79096 -2.06695 0
M  V30 2078 C 198.724 -3.90548 -1.75088 0
M  V30 2079 C 198.05 -4.37821 -3.06948 0
M  V30 2080 C 199.35 -5.12356 -1.01435 0
M  V30 2081 H 201.044 -2.9783 -0.306202 0
M  V30 2082 H 198.59 -1.4326 -0.145839 0
M  V30 2083 H 200.543 -3.2082 -2.73226 0
M  V30 2084 H 199.267 -1.97223 -2.60328 0
M  V30 2085 H 197.926 -3.49409 -1.10944 0
M  V30 2086 H 197.574 -3.52799 -3.58527 0
M  V30 2087 H 197.274 -5.12982 -2.86571 0
M  V30 2088 H 198.798 -4.822 -3.74587 0
M  V30 2089 H 200.212 -5.5106 -1.58132 0
M  V30 2090 H 198.609 -5.9314 -0.911319 0
M  V30 2091 H 199.679 -4.849 -0.00218681 0
M  V30 2092 N 201.022 0.148545 -1.56898 0
M  V30 2093 C 202.271 0.85984 -1.82454 0
M  V30 2094 C 202.584 1.82406 -0.706229 0
M  V30 2095 O 203.79 2.57938 -0.847349 0
M  V30 2096 C 202.246 1.57967 -3.2338 0
M  V30 2097 C 201.854 0.65794 -4.43142 0
M  V30 2098 C 203.598 2.27784 -3.58211 0
M  V30 2099 C 201.505 1.3793 -5.75091 0
M  V30 2100 H 200.435 0.324834 -0.68044 0
M  V30 2101 H 203.086 0.112588 -1.83154 0
M  V30 2102 H 201.468 2.37249 -3.17063 0
M  V30 2103 H 202.642 -0.0995497 -4.60692 0
M  V30 2104 H 200.957 0.0682643 -4.16344 0
M  V30 2105 H 203.554 2.8239 -4.54048 0
M  V30 2106 H 203.897 3.04204 -2.84193 0
M  V30 2107 H 204.43 1.55421 -3.66182 0
M  V30 2108 H 201.169 0.656982 -6.52199 0
M  V30 2109 H 200.689 2.10954 -5.61479 0
M  V30 2110 H 202.368 1.92063 -6.17835 0
M  V30 2111 N 202.5 1.5196 0.417844 0
M  V30 2112 C 203.746 1.65836 1.16732 0
M  V30 2113 C 204.079 0.382881 1.90388 0
M  V30 2114 O 203.354 -0.618368 1.84408 0
M  V30 2115 C 203.637 2.87466 2.16876 0
M  V30 2116 C 203.49 4.25041 1.47174 0
M  V30 2117 C 204.809 3.04613 3.17646 0
M  V30 2118 H 201.928 0.603515 0.423011 0
M  V30 2119 H 204.57 1.84494 0.454105 0
M  V30 2120 H 202.72 2.71689 2.777 0
M  V30 2121 H 204.392 4.52527 0.895376 0
M  V30 2122 H 202.635 4.26843 0.773806 0
M  V30 2123 H 203.306 5.06176 2.20204 0
M  V30 2124 H 205.782 3.1923 2.66892 0
M  V30 2125 H 204.658 3.91247 3.8499 0
M  V30 2126 H 204.919 2.17541 3.84874 0
M  V30 2127 N 203.978 -0.674533 1.42435 0
M  V30 2128 C 205.226 -1.43175 1.42637 0
M  V30 2129 C 205.547 -1.94951 0.0438992 0
M  V30 2130 O 204.817 -1.7308 -0.917607 0
M  V30 2131 H 203.397 -0.531307 0.525092 0
M  V30 2132 H 206.059 -0.797006 1.77859 0
M  V30 2133 H 205.155 -2.28463 2.12629 0
M  V30 2134 N 205.456 -1.28612 -0.910864 0
M  V30 2135 C 206.419 -1.12803 -1.9952 0
M  V30 2136 C 207.419 -0.0668264 -1.60661 0
M  V30 2137 O 208.609 -0.312847 -1.71368 0
M  V30 2138 C 205.741 -0.72254 -3.33155 0
M  V30 2139 H 206.934 -2.09109 -2.14973 0
M  V30 2140 H 204.487 -1.11639 -1.09391 0
M  V30 2141 H 205.222 0.241152 -3.23402 0
M  V30 2142 H 205.007 -1.48916 -3.62721 0
M  V30 2143 H 206.497 -0.634666 -4.12749 0
M  V30 2144 N 206.934 1.1197 -1.10907 0
M  V30 2145 C 207.864 2.19928 -0.784473 0
M  V30 2146 C 208.845 1.6833 0.244726 0
M  V30 2147 O 210.03 1.93892 0.109418 0
M  V30 2148 C 207.16 3.46597 -0.220827 0
M  V30 2149 C 206.114 4.11376 -1.18127 0
M  V30 2150 C 205.44 5.32554 -0.478594 0
M  V30 2151 C 206.74 4.56945 -2.52979 0
M  V30 2152 H 208.434 2.47337 -1.68715 0
M  V30 2153 H 205.98 1.18879 -0.812642 0
M  V30 2154 H 207.933 4.21396 0.0184278 0
M  V30 2155 H 206.657 3.1863 0.717113 0
M  V30 2156 H 205.316 3.38564 -1.40606 0
M  V30 2157 H 204.964 5.00856 0.463976 0
M  V30 2158 H 204.664 5.76844 -1.11912 0
M  V30 2159 H 206.188 6.10096 -0.248 0
M  V30 2160 H 207.602 5.23093 -2.3462 0
M  V30 2161 H 205.999 5.1203 -3.12962 0
M  V30 2162 H 207.069 3.70676 -3.12614 0
M  V30 2163 N 208.412 0.89855 1.29475 0
M  V30 2164 C 209.375 0.380272 2.26023 0
M  V30 2165 C 210.375 -0.484891 1.53315 0
M  V30 2166 O 211.565 -0.290108 1.71767 0
M  V30 2167 C 208.697 -0.45651 3.3783 0
M  V30 2168 H 209.89 1.23295 2.73383 0
M  V30 2169 H 207.443 0.676589 1.40897 0
M  V30 2170 H 208.178 -1.32922 2.95808 0
M  V30 2171 H 207.963 0.163393 3.91759 0
M  V30 2172 H 209.453 -0.810466 4.0966 0
M  V30 2173 N 209.89 -1.43072 0.660911 0
M  V30 2174 C 210.8 -2.34585 -0.0264163 0
M  V30 2175 C 211.816 -1.54316 -0.803898 0
M  V30 2176 O 212.992 -1.86939 -0.749391 0
M  V30 2177 C 210.057 -3.32689 -0.975639 0
M  V30 2178 C 209.118 -4.2886 -0.194236 0
M  V30 2179 C 208.351 -5.22278 -1.09825 0
M  V30 2180 O 208.574 -5.20299 -2.33763 0
M  V30 2181 O 207.508 -5.99228 -0.566513 0
M  V30 2182 H 211.334 -2.94869 0.727034 0
M  V30 2183 H 208.919 -1.43342 0.42111 0
M  V30 2184 H 210.801 -3.92995 -1.52094 0
M  V30 2185 H 209.476 -2.74898 -1.70918 0
M  V30 2186 H 208.383 -3.72011 0.394835 0
M  V30 2187 H 209.716 -4.89655 0.499899 0
M  V30 2188 N 211.368 -0.403325 -1.52352 0
M  V30 2189 C 212.784 -0.0539281 -1.59509 0
M  V30 2190 C 212.984 1.43307 -1.41652 0
M  V30 2191 O 212.04 2.19924 -1.24056 0
M  V30 2192 C 213.353 -0.543654 -2.95745 0
M  V30 2193 C 214.901 -0.501125 -3.08962 0
M  V30 2194 C 215.376 -0.967267 -4.47669 0
M  V30 2195 N 216.867 -0.923849 -4.53893 0
M  V30 2196 C 217.602 -1.25578 -5.5948 0
M  V30 2197 N 217.098 -1.65889 -6.72646 0
M  V30 2198 N 218.891 -1.17613 -5.49658 0
M  V30 2199 H 211.042 -1.37123 -1.62206 0
M  V30 2200 H 213.305 -0.56294 -0.76276 0
M  V30 2201 H 213.011 -1.58275 -3.14073 0
M  V30 2202 H 212.885 0.0498042 -3.77167 0
M  V30 2203 H 215.272 0.528909 -2.90321 0
M  V30 2204 H 215.353 -1.13056 -2.2946 0
M  V30 2205 H 214.997 -1.9956 -4.67053 0
M  V30 2206 H 214.927 -0.314698 -5.25659 0
M  V30 2207 H 217.418 -0.627403 -3.72655 0
M  V30 2208 H 217.731 -1.89543 -7.49195 0
M  V30 2209 H 216.076 -1.69787 -6.73942 0
M  V30 2210 H 219.267 -0.860115 -4.6013 0
M  V30 2211 H 219.44 -1.43812 -6.3184 0
M  V30 2212 N 212.846 1.57033 -0.133567 0
M  V30 2213 C 214.095 1.94861 0.520768 0
M  V30 2214 C 214.408 1.02012 1.66892 0
M  V30 2215 O 215.614 1.29365 2.38699 0
M  V30 2216 C 214.07 3.46362 0.977809 0
M  V30 2217 C 213.678 4.47773 -0.142674 0
M  V30 2218 C 215.422 3.93083 1.60269 0
M  V30 2219 C 213.329 5.90468 0.331883 0
M  V30 2220 H 212.259 0.727453 0.198315 0
M  V30 2221 H 214.91 1.82227 -0.215759 0
M  V30 2222 H 213.292 3.54282 1.7692 0
M  V30 2223 H 214.466 4.51536 -0.919317 0
M  V30 2224 H 212.781 4.10891 -0.675124 0
M  V30 2225 H 215.378 4.97121 1.96914 0
M  V30 2226 H 215.721 3.33876 2.48662 0
M  V30 2227 H 216.254 3.88025 0.876453 0
M  V30 2228 H 212.993 6.53463 -0.516341 0
M  V30 2229 H 212.513 5.90094 1.07469 0
M  V30 2230 H 214.192 6.42179 0.788332 0
M  V30 2231 N 214.325 -0.140222 1.56975 0
M  V30 2232 C 215.741 -0.493088 1.51792 0
M  V30 2233 C 215.941 -1.83013 0.843116 0
M  V30 2234 O 214.997 -2.49041 0.416493 0
M  V30 2235 C 216.31 -0.497144 2.96562 0
M  V30 2236 C 217.858 -0.582186 3.07538 0
M  V30 2237 C 218.333 -0.616838 4.53827 0
M  V30 2238 N 219.824 -0.678873 4.58198 0
M  V30 2239 C 220.559 -0.726782 5.68775 0
M  V30 2240 N 220.055 -0.733623 6.88905 0
M  V30 2241 N 221.848 -0.768179 5.56826 0
M  V30 2242 H 213.999 0.736108 1.99237 0
M  V30 2243 H 216.262 0.269182 0.90898 0
M  V30 2244 H 215.968 0.417217 3.49217 0
M  V30 2245 H 215.842 -1.33263 3.52875 0
M  V30 2246 H 218.229 -1.48697 2.54899 0
M  V30 2247 H 218.31 0.280581 2.54257 0
M  V30 2248 H 217.954 0.283812 5.07106 0
M  V30 2249 H 217.884 -1.49619 5.04898 0
M  V30 2250 H 220.375 -0.68061 3.7172 0
M  V30 2251 H 220.688 -0.772215 7.68932 0
M  V30 2252 H 219.033 -0.701389 6.91452 0
M  V30 2253 H 222.224 -0.760051 4.61888 0
M  V30 2254 H 222.397 -0.80205 6.43017 0
M  V30 2255 N 215.803 -1.52179 -0.40978 0
M  V30 2256 C 217.05 -1.66206 -1.15679 0
M  V30 2257 C 217.378 -0.391674 -1.90516 0
M  V30 2258 O 216.633 0.62533 -1.8544 0
M  V30 2259 C 216.932 -2.83428 -2.17723 0
M  V30 2260 C 216.598 -4.21672 -1.59699 0
M  V30 2261 C 215.26 -4.59274 -1.43599 0
M  V30 2262 C 217.612 -5.07825 -1.17317 0
M  V30 2263 C 214.94 -5.80709 -0.836328 0
M  V30 2264 C 217.292 -6.29864 -0.587691 0
M  V30 2265 C 215.956 -6.66216 -0.413818 0
M  V30 2266 H 215.226 -0.608192 -0.423301 0
M  V30 2267 H 217.873 -1.86279 -0.444097 0
M  V30 2268 H 216.178 -2.57687 -2.95135 0
M  V30 2269 H 217.875 -2.91477 -2.75394 0
M  V30 2270 H 214.465 -3.9204 -1.73213 0
M  V30 2271 H 218.649 -4.79359 -1.28565 0
M  V30 2272 H 213.905 -6.07498 -0.689626 0
M  V30 2273 H 218.079 -6.95948 -0.250894 0
M  V30 2274 H 215.706 -7.60182 0.0529471 0
M  V30 2275 N 217.281 0.66697 -1.42791 0
M  V30 2276 C 218.506 1.46004 -1.47301 0
M  V30 2277 C 218.931 1.87894 -0.0880317 0
M  V30 2278 O 218.289 1.56502 0.915253 0
M  V30 2279 C 218.337 2.68031 -2.41229 0
M  V30 2280 O 217.441 3.6659 -1.88906 0
M  V30 2281 H 216.782 0.43832 -0.49877 0
M  V30 2282 H 219.312 0.817391 -1.87563 0
M  V30 2283 H 219.322 3.1601 -2.58073 0
M  V30 2284 H 217.997 2.36883 -3.41847 0
M  V30 2285 H 216.574 3.25661 -1.81656 0
M  V30 2286 N 218.759 1.29093 0.90403 0
M  V30 2287 C 219.722 1.1386 1.98919 0
M  V30 2288 C 220.722 0.0753457 1.60623 0
M  V30 2289 O 221.912 0.321931 1.71199 0
M  V30 2290 C 219.044 0.740198 3.32767 0
M  V30 2291 H 220.237 2.10246 2.13861 0
M  V30 2292 H 217.79 1.12218 1.08797 0
M  V30 2293 H 218.525 -0.223997 3.23525 0
M  V30 2294 H 218.31 1.50838 3.61926 0
M  V30 2295 H 219.8 0.656546 4.12407 0
M  V30 2296 N 220.237 -1.11381 1.11499 0
M  V30 2297 C 221.483 -1.83403 0.865512 0
M  V30 2298 C 221.816 -1.84459 -0.607329 0
M  V30 2299 O 221.091 -1.29811 -1.44842 0
M  V30 2300 C 221.374 -3.30552 1.42855 0
M  V30 2301 C 221.227 -3.37886 2.96906 0
M  V30 2302 C 222.546 -4.26643 1.08 0
M  V30 2303 H 219.665 -0.665879 0.31587 0
M  V30 2304 H 222.307 -1.30601 1.37998 0
M  V30 2305 H 220.457 -3.75648 0.990985 0
M  V30 2306 H 222.129 -3.01343 3.49271 0
M  V30 2307 H 220.372 -2.78088 3.32941 0
M  V30 2308 H 221.043 -4.41458 3.31389 0
M  V30 2309 H 223.519 -3.89729 1.45775 0
M  V30 2310 H 222.395 -5.27986 1.50072 0
M  V30 2311 H 222.656 -4.42099 -0.00915037 0
M  V30 2312 N 221.715 -0.905404 -1.28997 0
M  V30 2313 C 222.645 -0.404212 -2.29975 0
M  V30 2314 C 223.626 0.523784 -1.61835 0
M  V30 2315 O 224.811 0.433298 -1.89304 0
M  V30 2316 C 221.941 0.364042 -3.45387 0
M  V30 2317 C 220.895 -0.474048 -4.25367 0
M  V30 2318 C 220.221 0.422045 -5.33032 0
M  V30 2319 C 221.521 -1.72696 -4.92923 0
M  V30 2320 H 223.215 -1.24807 -2.72146 0
M  V30 2321 H 220.761 -0.601585 -1.30832 0
M  V30 2322 H 222.714 0.725447 -4.15109 0
M  V30 2323 H 221.438 1.24174 -3.02074 0
M  V30 2324 H 220.097 -0.81786 -3.57361 0
M  V30 2325 H 219.745 1.29804 -4.85963 0
M  V30 2326 H 219.445 -0.135057 -5.87445 0
M  V30 2327 H 220.969 0.779517 -6.05604 0
M  V30 2328 H 222.383 -1.43495 -5.55051 0
M  V30 2329 H 220.78 -2.22582 -5.57295 0
M  V30 2330 H 221.85 -2.45964 -4.17887 0
M  V30 2331 N 223.193 1.4272 -0.668489 0
M  V30 2332 C 224.442 2.00846 -0.185389 0
M  V30 2333 C 224.755 1.53442 1.21305 0
M  V30 2334 O 225.961 2.03944 1.79218 0
M  V30 2335 C 224.417 3.58805 -0.280591 0
M  V30 2336 C 224.025 4.15198 -1.68268 0
M  V30 2337 C 225.769 4.24255 0.14412 0
M  V30 2338 C 223.676 5.655 -1.73099 0
M  V30 2339 H 222.606 0.751145 -0.0655475 0
M  V30 2340 H 225.257 1.63516 -0.832752 0
M  V30 2341 H 223.639 3.93608 0.434553 0
M  V30 2342 H 224.813 3.91866 -2.42441 0
M  V30 2343 H 223.128 3.62176 -2.05469 0
M  V30 2344 H 225.725 5.34547 0.128086 0
M  V30 2345 H 226.068 3.99277 1.17827 0
M  V30 2346 H 226.601 3.94389 -0.519798 0
M  V30 2347 H 223.34 5.95268 -2.74475 0
M  V30 2348 H 222.86 5.90842 -1.03274 0
M  V30 2349 H 224.539 6.29808 -1.48158 0
M  V30 2350 N 224.671 0.411399 1.52136 0
M  V30 2351 C 225.918 -0.163645 2.01838 0
M  V30 2352 C 226.246 -1.4495 1.29691 0
M  V30 2353 O 225.501 -1.91725 0.392431 0
M  V30 2354 C 225.8 -0.455872 3.54481 0
M  V30 2355 C 225.466 0.741055 4.44769 0
M  V30 2356 C 224.128 1.06936 4.69167 0
M  V30 2357 C 226.48 1.54075 4.97906 0
M  V30 2358 C 223.808 2.19851 5.43951 0
M  V30 2359 C 226.16 2.66067 5.73926 0
M  V30 2360 C 224.824 2.99381 5.96596 0
M  V30 2361 H 224.094 -0.0598821 0.738576 0
M  V30 2362 H 226.741 0.553283 1.83333 0
M  V30 2363 H 225.046 -1.2544 3.71177 0
M  V30 2364 H 226.743 -0.913802 3.90449 0
M  V30 2365 H 223.333 0.475192 4.25958 0
M  V30 2366 H 227.517 1.30033 4.78963 0
M  V30 2367 H 222.773 2.46006 5.59724 0
M  V30 2368 H 226.947 3.28419 6.14096 0
M  V30 2369 H 224.574 3.86992 6.54325 0
M  V30 2370 N 226.149 -1.5696 0.141893 0
M  V30 2371 C 227.395 -1.9625 -0.511248 0
M  V30 2372 C 227.728 -1.02654 -1.64851 0
M  V30 2373 O 227.003 -0.0679676 -1.94381 0
M  V30 2374 C 227.286 -3.45285 -1.02227 0
M  V30 2375 C 227.139 -4.49658 0.113138 0
M  V30 2376 C 228.458 -3.96698 -1.90574 0
M  V30 2377 H 225.577 -0.713567 -0.184367 0
M  V30 2378 H 228.219 -1.88698 0.222087 0
M  V30 2379 H 226.369 -3.51852 -1.64719 0
M  V30 2380 H 228.041 -4.55174 0.749302 0
M  V30 2381 H 226.284 -4.26857 0.773026 0
M  V30 2382 H 226.955 -5.51258 -0.286053 0
M  V30 2383 H 229.431 -3.92578 -1.37918 0
M  V30 2384 H 228.307 -5.01453 -2.2324 0
M  V30 2385 H 228.568 -3.3875 -2.84079 0
M  V30 2386 N 227.627 0.131896 -1.57047 0
M  V30 2387 C 228.873 0.843179 -1.84441 0
M  V30 2388 C 229.206 1.80129 -0.725749 0
M  V30 2389 O 228.481 1.92624 0.269469 0
M  V30 2390 C 228.764 1.60442 -3.22382 0
M  V30 2391 C 228.617 0.666782 -4.4483 0
M  V30 2392 C 229.936 2.56354 -3.5773 0
M  V30 2393 H 227.055 0.305081 -0.670891 0
M  V30 2394 H 229.697 0.107839 -1.89694 0
M  V30 2395 H 227.847 2.23128 -3.18035 0
M  V30 2396 H 229.519 0.0497646 -4.61273 0
M  V30 2397 H 227.762 -0.022609 -4.33794 0
M  V30 2398 H 228.433 1.23579 -5.37989 0
M  V30 2399 H 230.909 2.0378 -3.62785 0
M  V30 2400 H 229.785 3.06657 -4.5525 0
M  V30 2401 H 230.046 3.38419 -2.84473 0
M  V30 2402 N 229.106 1.52395 0.401703 0
M  V30 2403 C 230.352 1.67065 1.14966 0
M  V30 2404 C 230.685 0.403052 1.89971 0
M  V30 2405 O 229.96 -0.598774 1.85054 0
M  V30 2406 C 230.243 2.8975 2.13815 0
M  V30 2407 C 230.096 4.26578 1.42658 0
M  V30 2408 C 231.415 3.07965 3.14397 0
M  V30 2409 H 228.534 0.607968 0.416587 0
M  V30 2410 H 231.176 1.84965 0.434511 0
M  V30 2411 H 229.326 2.74619 2.74803 0
M  V30 2412 H 230.998 4.53451 0.847329 0
M  V30 2413 H 229.241 4.27639 0.72849 0
M  V30 2414 H 229.912 5.08483 2.14823 0
M  V30 2415 H 232.388 3.22043 2.63491 0
M  V30 2416 H 231.264 3.95308 3.80819 0
M  V30 2417 H 231.525 2.21611 3.82545 0
M  V30 2418 N 230.584 -0.659388 1.43143 0
M  V30 2419 C 231.83 -1.41984 1.45644 0
M  V30 2420 C 232.185 -1.92245 0.0771718 0
M  V30 2421 O 231.478 -1.68976 -0.903205 0
M  V30 2422 C 231.672 -2.62206 2.42864 0
M  V30 2423 C 231.501 -2.23711 3.90107 0
M  V30 2424 C 230.271 -2.12332 4.58523 0
M  V30 2425 C 232.469 -1.84384 4.80112 0
M  V30 2426 N 230.451 -1.67102 5.9072 0
M  V30 2427 C 231.822 -1.5019 6.01534 0
M  V30 2428 C 233.877 -1.71512 4.67427 0
M  V30 2429 C 232.58 -1.04414 7.11681 0
M  V30 2430 C 234.606 -1.27142 5.77572 0
M  V30 2431 C 233.968 -0.938808 6.98116 0
M  V30 2432 H 230.067 -0.515448 0.588079 0
M  V30 2433 H 232.651 -0.759409 1.79279 0
M  V30 2434 H 230.822 -3.25917 2.11265 0
M  V30 2435 H 232.554 -3.28877 2.35843 0
M  V30 2436 H 229.309 -2.31893 4.12944 0
M  V30 2437 H 229.733 -1.46866 6.60878 0
M  V30 2438 H 234.375 -1.95868 3.74694 0
M  V30 2439 H 232.093 -0.788061 8.04248 0
M  V30 2440 H 235.679 -1.17681 5.69774 0
M  V30 2441 H 234.559 -0.6007 7.81896 0
M  V30 2442 N 232.062 -1.29571 -0.897171 0
M  V30 2443 C 232.992 -1.17473 -2.01798 0
M  V30 2444 C 233.973 -0.068323 -1.69963 0
M  V30 2445 O 235.158 -0.248239 -1.92607 0
M  V30 2446 C 232.288 -0.853099 -3.36659 0
M  V30 2447 C 231.242 -1.9161 -3.82713 0
M  V30 2448 C 230.568 -1.44773 -5.14728 0
M  V30 2449 C 231.868 -3.32535 -4.02763 0
M  V30 2450 H 233.562 -2.11237 -2.12177 0
M  V30 2451 H 231.108 -1.01699 -1.01948 0
M  V30 2452 H 233.061 -0.755165 -4.14578 0
M  V30 2453 H 231.785 0.120236 -3.26379 0
M  V30 2454 H 230.444 -2.00346 -3.07013 0
M  V30 2455 H 230.092 -0.462995 -5.00865 0
M  V30 2456 H 229.792 -2.15865 -5.46513 0
M  V30 2457 H 231.316 -1.36334 -5.95185 0
M  V30 2458 H 232.73 -3.26626 -4.71156 0
M  V30 2459 H 231.127 -4.01607 -4.45905 0
M  V30 2460 H 232.197 -3.75326 -3.07016 0
M  V30 2461 N 233.54 1.10788 -1.12088 0
M  V30 2462 C 234.768 1.86461 -0.896651 0
M  V30 2463 C 235.183 1.80492 0.553912 0
M  V30 2464 O 234.54 1.19102 1.38278 0
M  V30 2465 C 234.591 3.35006 -1.35843 0
M  V30 2466 O 234.312 3.40866 -2.75213 0
M  V30 2467 C 235.813 4.27565 -1.1706 0
M  V30 2468 H 233.033 0.589425 -0.320654 0
M  V30 2469 H 235.577 1.40076 -1.48993 0
M  V30 2470 H 233.732 3.7887 -0.808458 0
M  V30 2471 H 234.146 4.33411 -2.9539 0
M  V30 2472 H 235.62 5.30007 -1.54263 0
M  V30 2473 H 236.097 4.3906 -0.110814 0
M  V30 2474 H 236.703 3.89501 -1.70789 0
M  V30 2475 N 235.018 0.912232 1.28515 0
M  V30 2476 C 235.948 0.416403 2.29757 0
M  V30 2477 C 236.929 -0.515194 1.6211 0
M  V30 2478 O 238.114 -0.423253 1.89532 0
M  V30 2479 C 235.244 -0.34572 3.45575 0
M  V30 2480 C 234.198 0.496599 4.25109 0
M  V30 2481 C 233.524 -0.393771 5.33248 0
M  V30 2482 C 234.824 1.75307 4.92001 0
M  V30 2483 H 236.518 1.26249 2.7148 0
M  V30 2484 H 234.064 0.608515 1.30511 0
M  V30 2485 H 236.017 -0.703422 4.15488 0
M  V30 2486 H 234.741 -1.2257 3.02728 0
M  V30 2487 H 233.4 0.8368 3.56922 0
M  V30 2488 H 233.048 -1.27225 4.86644 0
M  V30 2489 H 232.748 0.166209 5.87365 0
M  V30 2490 H 234.272 -0.747389 6.06009 0
M  V30 2491 H 235.686 1.46437 5.54283 0
M  V30 2492 H 234.083 2.25534 5.56106 0
M  V30 2493 H 235.153 2.48176 4.16577 0
M  V30 2494 N 236.496 -1.42363 0.676048 0
M  V30 2495 C 237.721 -2.06377 0.205705 0
M  V30 2496 C 238.146 -1.50463 -1.12883 0
M  V30 2497 O 237.504 -0.623619 -1.70237 0
M  V30 2498 C 237.552 -3.60277 0.152655 0
M  V30 2499 O 236.656 -4.02935 -0.87845 0
M  V30 2500 H 235.997 -0.655588 0.105359 0
M  V30 2501 H 238.527 -1.82475 0.925412 0
M  V30 2502 H 238.537 -4.07993 -0.0230675 0
M  V30 2503 H 237.212 -4.00346 1.12675 0
M  V30 2504 H 235.789 -3.66764 -0.673668 0
M  V30 2505 N 237.974 -0.419461 -1.51915 0
M  V30 2506 C 239.204 0.151915 -2.06041 0
M  V30 2507 C 239.612 1.38539 -1.28855 0
M  V30 2508 O 238.955 1.80592 -0.336463 0
M  V30 2509 C 239.017 0.557119 -3.55157 0
M  V30 2510 C 238.681 -0.567054 -4.53468 0
M  V30 2511 C 239.678 -1.43379 -4.99738 0
M  V30 2512 C 237.363 -0.742693 -4.96779 0
M  V30 2513 C 239.357 -2.46102 -5.87973 0
M  V30 2514 C 237.044 -1.77322 -5.84808 0
M  V30 2515 C 238.042 -2.63078 -6.30301 0
M  V30 2516 O 237.73 -3.64364 -7.16585 0
M  V30 2517 H 237.462 0.0193293 -0.675724 0
M  V30 2518 H 240.016 -0.592073 -1.96682 0
M  V30 2519 H 238.246 1.35355 -3.62238 0
M  V30 2520 H 239.935 1.05759 -3.9188 0
M  V30 2521 H 240.701 -1.30954 -4.66986 0
M  V30 2522 H 236.58 -0.0848307 -4.60922 0
M  V30 2523 H 240.124 -3.13071 -6.23404 0
M  V30 2524 H 236.021 -1.89773 -6.16974 0
M  V30 2525 H 236.789 -3.60731 -7.34721 0
M  V30 2526 N 239.452 1.56882 -0.150215 0
M  V30 2527 C 240.701 1.95403 0.500071 0
M  V30 2528 C 241.014 1.03777 1.658 0
M  V30 2529 O 242.22 1.31889 2.37313 0
M  V30 2530 C 240.676 3.4738 0.941018 0
M  V30 2531 C 240.284 4.47596 -0.190158 0
M  V30 2532 C 242.028 3.9476 1.56091 0
M  V30 2533 C 239.935 5.90787 0.269237 0
M  V30 2534 H 238.865 0.729515 0.190588 0
M  V30 2535 H 241.516 1.81988 -0.235074 0
M  V30 2536 H 239.898 3.56138 1.73152 0
M  V30 2537 H 241.072 4.50536 -0.967157 0
M  V30 2538 H 239.387 4.10151 -0.718666 0
M  V30 2539 H 241.984 4.99181 1.9163 0
M  V30 2540 H 242.327 3.36494 2.45107 0
M  V30 2541 H 242.86 3.88932 0.835249 0
M  V30 2542 H 239.599 6.52879 -0.585621 0
M  V30 2543 H 239.119 5.912 1.01204 0
M  V30 2544 H 240.798 6.42979 0.720176 0
M  V30 2545 N 240.93 -0.123565 1.57115 0
M  V30 2546 C 242.341 -0.681198 1.73829 0
M  V30 2547 C 242.692 -1.80535 0.768214 0
M  V30 2548 O 241.817 -2.16317 -0.0599103 0
M  V30 2549 C 242.412 -1.24246 3.15196 0
M  V30 2550 C 240.971 -1.74643 3.33432 0
M  V30 2551 C 240.118 -0.644284 2.69711 0
M  V30 2552 H 243.069 0.102315 1.5837 0
M  V30 2553 H 243.09 -2.11216 3.16493 0
M  V30 2554 H 242.602 -0.424062 3.85776 0
M  V30 2555 H 240.703 -2.58974 2.67886 0
M  V30 2556 H 240.816 -1.85902 4.41562 0
M  V30 2557 H 239.18 -1.07676 2.3082 0
M  V30 2558 H 239.963 0.163058 3.42913 0
M  V30 2559 N 242.408 -1.52605 -0.393616 0
M  V30 2560 C 243.657 -1.66649 -1.13627 0
M  V30 2561 C 243.97 -0.410364 -1.91247 0
M  V30 2562 O 245.176 -0.430854 -2.68059 0
M  V30 2563 C 243.632 -2.9449 -2.06891 0
M  V30 2564 C 243.24 -4.27266 -1.34714 0
M  V30 2565 C 244.984 -3.17899 -2.81319 0
M  V30 2566 C 242.891 -5.46217 -2.26717 0
M  V30 2567 H 241.821 -0.62084 -0.427871 0
M  V30 2568 H 244.472 -1.791 -0.399428 0
M  V30 2569 H 242.854 -2.75774 -2.84191 0
M  V30 2570 H 244.028 -4.56518 -0.626714 0
M  V30 2571 H 242.343 -4.10081 -0.722643 0
M  V30 2572 H 244.94 -4.03949 -3.50328 0
M  V30 2573 H 245.283 -2.32777 -3.45139 0
M  V30 2574 H 245.816 -3.37159 -2.11113 0
M  V30 2575 H 242.555 -6.33733 -1.67521 0
M  V30 2576 H 242.075 -5.21283 -2.96689 0
M  V30 2577 H 243.754 -5.7991 -2.86903 0
M  V30 2578 N 243.887 0.651787 -1.4349 0
M  V30 2579 C 244.85 1.74647 -1.48429 0
M  V30 2580 C 245.85 1.56513 -0.368817 0
M  V30 2581 O 247.04 1.62385 -0.630623 0
M  V30 2582 C 244.172 3.13533 -1.33827 0
M  V30 2583 H 245.365 1.71649 -2.4592 0
M  V30 2584 H 242.918 0.863573 -1.30277 0
M  V30 2585 H 243.653 3.22142 -0.37349 0
M  V30 2586 H 243.438 3.28101 -2.14691 0
M  V30 2587 H 244.928 3.93356 -1.40218 0
M  V30 2588 N 245.365 1.30045 0.890287 0
M  V30 2589 C 246.315 1.12592 1.9826 0
M  V30 2590 C 247.299 0.0426021 1.60844 0
M  V30 2591 O 248.491 0.265346 1.75 0
M  V30 2592 C 245.62 0.814301 3.33503 0
M  V30 2593 C 244.706 1.93761 3.7725 0
M  V30 2594 N 245.097 3.18232 3.93143 0
M  V30 2595 C 243.395 1.83277 4.06602 0
M  V30 2596 C 244.096 3.9158 4.30163 0
M  V30 2597 N 243.072 3.19591 4.3973 0
M  V30 2598 H 246.874 2.07003 2.08631 0
M  V30 2599 H 244.388 1.21307 1.07974 0
M  V30 2600 H 246.385 0.67029 4.11476 0
M  V30 2601 H 245.045 -0.121797 3.24471 0
M  V30 2602 H 246.056 3.53581 3.78419 0
M  V30 2603 H 242.733 0.97001 4.06075 0
M  V30 2604 H 244.123 4.98744 4.50226 0
M  V30 2605 N 246.843 -1.10192 1.12674 0
M  V30 2606 C 247.776 -2.15847 0.740625 0
M  V30 2607 C 248.754 -1.60352 -0.269421 0
M  V30 2608 O 249.938 -1.87796 -0.16278 0
M  V30 2609 C 247.065 -3.38562 0.096641 0
M  V30 2610 C 246.111 -4.12758 1.07391 0
M  V30 2611 S 246.944 -4.67997 2.60267 0
M  V30 2612 C 248.1 -5.94021 1.97206 0
M  V30 2613 H 248.333 -2.48266 1.63558 0
M  V30 2614 H 245.866 -1.22019 0.946087 0
M  V30 2615 H 247.824 -4.09621 -0.268535 0
M  V30 2616 H 246.485 -3.04377 -0.775462 0
M  V30 2617 H 245.678 -5.00755 0.570997 0
M  V30 2618 H 245.28 -3.47523 1.38216 0
M  V30 2619 H 247.572 -6.64589 1.31634 0
M  V30 2620 H 248.515 -6.48979 2.83253 0
M  V30 2621 H 248.923 -5.46169 1.42686 0
M  V30 2622 N 248.321 -0.919034 -1.28029 0
M  V30 2623 C 249.567 -0.555757 -1.95036 0
M  V30 2624 C 249.9 0.899198 -1.72128 0
M  V30 2625 O 249.175 1.64023 -1.04531 0
M  V30 2626 C 249.458 -0.872024 -3.49382 0
M  V30 2627 C 249.311 -2.3801 -3.81669 0
M  V30 2628 C 250.63 -0.37185 -4.38526 0
M  V30 2629 H 247.749 -0.203386 -0.708381 0
M  V30 2630 H 250.391 -1.14924 -1.51303 0
M  V30 2631 H 248.541 -0.366946 -3.86763 0
M  V30 2632 H 250.213 -2.9562 -3.54128 0
M  V30 2633 H 248.456 -2.83289 -3.28526 0
M  V30 2634 H 249.127 -2.55192 -4.8947 0
M  V30 2635 H 251.603 -0.804602 -4.08247 0
M  V30 2636 H 250.479 -0.622173 -5.45362 0
M  V30 2637 H 250.74 0.727934 -4.36066 0
M  V30 2638 N 249.799 1.42003 -0.683588 0
M  V30 2639 C 251.045 2.02223 -0.218536 0
M  V30 2640 C 251.4 1.53126 1.16492 0
M  V30 2641 O 250.693 0.727459 1.77253 0
M  V30 2642 C 250.887 3.56827 -0.202357 0
M  V30 2643 C 250.716 4.20928 -1.5827 0
M  V30 2644 C 249.486 4.5573 -2.18262 0
M  V30 2645 C 251.684 4.47933 -2.52706 0
M  V30 2646 N 249.666 5.05056 -3.48986 0
M  V30 2647 C 251.037 4.98906 -3.68094 0
M  V30 2648 C 253.092 4.29931 -2.51125 0
M  V30 2649 C 251.795 5.33768 -4.82166 0
M  V30 2650 C 253.821 4.65875 -3.643 0
M  V30 2651 C 253.183 5.17008 -4.78417 0
M  V30 2652 H 249.282 0.771931 -0.125088 0
M  V30 2653 H 251.866 1.72729 -0.898479 0
M  V30 2654 H 250.037 3.85819 0.447029 0
M  V30 2655 H 251.769 4.03755 0.276399 0
M  V30 2656 H 248.524 4.41781 -1.70665 0
M  V30 2657 H 248.948 5.34139 -4.15962 0
M  V30 2658 H 253.59 3.89647 -1.6412 0
M  V30 2659 H 251.308 5.72981 -5.6984 0
M  V30 2660 H 254.894 4.53615 -3.64314 0
M  V30 2661 H 253.774 5.44301 -5.64541 0
M  V30 2662 N 251.277 0.427512 1.51691 0
M  V30 2663 C 252.525 -0.141948 2.01601 0
M  V30 2664 C 252.846 -1.44067 1.31414 0
M  V30 2665 O 252.116 -1.90763 0.445658 0
M  V30 2666 H 250.696 -0.0554468 0.744939 0
M  V30 2667 H 253.358 0.567968 1.86441 0
M  V30 2668 H 252.454 -0.324913 3.10404 0
M  V30 2669 N 252.755 -1.56801 0.158532 0
M  V30 2670 C 254.003 -1.96102 -0.488712 0
M  V30 2671 C 254.324 -1.04498 -1.64636 0
M  V30 2672 O 253.594 -0.108783 -1.95598 0
M  V30 2673 H 252.174 -0.724102 -0.183535 0
M  V30 2674 H 254.836 -1.93457 0.236728 0
M  V30 2675 H 253.932 -3.00097 -0.857219 0
M  V30 2676 N 254.233 0.115231 -1.57178 0
M  V30 2677 C 255.481 0.820727 -1.84685 0
M  V30 2678 C 255.802 1.80237 -0.744279 0
M  V30 2679 O 255.072 1.94529 0.231375 0
M  V30 2680 H 253.652 0.306084 -0.681411 0
M  V30 2681 H 256.314 0.101656 -1.94635 0
M  V30 2682 H 255.41 1.36366 -2.80733 0
M  V30 2683 N 255.711 1.52812 0.385517 0
M  V30 2684 C 256.641 1.80808 1.47752 0
M  V30 2685 C 257.622 0.660318 1.5676 0
M  V30 2686 O 258.807 0.908246 1.71652 0
M  V30 2687 C 255.937 1.98008 2.85324 0
M  V30 2688 C 254.891 3.13709 2.91154 0
M  V30 2689 C 254.217 3.16169 4.31209 0
M  V30 2690 C 255.517 4.52709 2.60483 0
M  V30 2691 H 257.211 2.72253 1.24573 0
M  V30 2692 H 254.757 1.31003 0.597839 0
M  V30 2693 H 256.71 2.16176 3.61726 0
M  V30 2694 H 255.434 1.03255 3.09848 0
M  V30 2695 H 254.093 2.95329 2.17201 0
M  V30 2696 H 253.741 2.19092 4.52778 0
M  V30 2697 H 253.441 3.93894 4.36029 0
M  V30 2698 H 254.965 3.36496 5.09512 0
M  V30 2699 H 256.379 4.71173 3.26602 0
M  V30 2700 H 254.776 5.32528 2.76648 0
M  V30 2701 H 255.846 4.59186 1.55809 0
M  V30 2702 N 257.189 -0.644168 1.43834 0
M  V30 2703 C 258.119 -1.76814 1.52509 0
M  V30 2704 C 259.1 -1.65823 0.379052 0
M  V30 2705 O 260.285 -1.84781 0.597466 0
M  V30 2706 C 257.415 -3.15288 1.4564 0
M  V30 2707 C 256.369 -3.41053 2.58586 0
M  V30 2708 C 255.695 -4.79421 2.36769 0
M  V30 2709 C 256.995 -3.34902 4.00797 0
M  V30 2710 H 258.689 -1.69812 2.46586 0
M  V30 2711 H 256.235 -0.815542 1.1868 0
M  V30 2712 H 258.188 -3.93681 1.50311 0
M  V30 2713 H 256.912 -3.23043 0.480725 0
M  V30 2714 H 255.571 -2.65035 2.53282 0
M  V30 2715 H 255.219 -4.83863 1.37424 0
M  V30 2716 H 254.919 -4.9762 3.12487 0
M  V30 2717 H 256.443 -5.6006 2.43238 0
M  V30 2718 H 257.857 -4.03218 4.07539 0
M  V30 2719 H 256.254 -3.64637 4.76613 0
M  V30 2720 H 257.324 -2.32928 4.25291 0
M  V30 2721 N 258.668 -1.30515 -0.883378 0
M  V30 2722 C 259.631 -1.1701 -1.97082 0
M  V30 2723 C 260.631 -0.10089 -1.60483 0
M  V30 2724 O 261.821 -0.349127 -1.70666 0
M  V30 2725 C 258.953 -0.793045 -3.31547 0
M  V30 2726 H 260.146 -2.13622 -2.10489 0
M  V30 2727 H 257.699 -1.13935 -1.06998 0
M  V30 2728 H 258.434 0.172499 -3.23841 0
M  V30 2729 H 258.219 -1.56576 -3.5948 0
M  V30 2730 H 259.709 -0.722073 -4.1131 0
M  V30 2731 N 260.146 1.09593 -1.13257 0
M  V30 2732 C 261.371 1.8604 -0.916732 0
M  V30 2733 C 261.796 1.80504 0.529146 0
M  V30 2734 O 261.154 1.18127 1.37534 0
M  V30 2735 C 261.202 3.32017 -1.40703 0
M  V30 2736 O 260.306 4.08141 -0.591153 0
M  V30 2737 H 259.647 0.576943 -0.328683 0
M  V30 2738 H 262.177 1.38405 -1.50682 0
M  V30 2739 H 262.187 3.82865 -1.4099 0
M  V30 2740 H 260.862 3.35361 -2.45979 0
M  V30 2741 H 259.439 3.67084 -0.656005 0
M  V30 2742 N 261.624 0.925811 1.2754 0
M  V30 2743 C 262.574 0.394488 2.24561 0
M  V30 2744 C 263.558 -0.500183 1.52928 0
M  V30 2745 O 264.75 -0.337936 1.73744 0
M  V30 2746 C 261.879 -0.353328 3.41477 0
M  V30 2747 C 260.965 0.557752 4.20416 0
M  V30 2748 N 261.356 1.67674 4.77199 0
M  V30 2749 C 259.654 0.360404 4.44541 0
M  V30 2750 C 260.355 2.24324 5.36706 0
M  V30 2751 N 259.331 1.53305 5.21535 0
M  V30 2752 H 263.133 1.2489 2.66045 0
M  V30 2753 H 260.647 0.779864 1.4245 0
M  V30 2754 H 262.644 -0.7509 4.10082 0
M  V30 2755 H 261.304 -1.20469 3.01525 0
M  V30 2756 H 262.315 2.05915 4.75204 0
M  V30 2757 H 258.992 -0.450454 4.15063 0
M  V30 2758 H 260.382 3.18521 5.91603 0
M  V30 2759 N 263.102 -1.41638 0.69111 0
M  V30 2760 C 264.35 -2.00902 0.219758 0
M  V30 2761 C 264.671 -1.54994 -1.18329 0
M  V30 2762 O 263.941 -0.778628 -1.79762 0
M  V30 2763 H 262.521 -0.74289 0.0782558 0
M  V30 2764 H 265.183 -1.73327 0.891271 0
M  V30 2765 H 264.279 -3.11224 0.233708 0
M  V30 2766 N 264.58 -0.43555 -1.51462 0
M  V30 2767 C 265.543 0.365137 -2.26273 0
M  V30 2768 C 266.543 0.951227 -1.29647 0
M  V30 2769 O 267.733 0.825958 -1.53374 0
M  V30 2770 C 264.865 1.51645 -3.05314 0
M  V30 2771 H 266.058 -0.290474 -2.9849 0
M  V30 2772 H 263.611 -0.188676 -1.55157 0
M  V30 2773 H 264.346 2.20816 -2.3751 0
M  V30 2774 H 264.131 1.10238 -3.76284 0
M  V30 2775 H 265.621 2.08218 -3.61987 0
M  V30 2776 N 266.058 1.56714 -0.166846 0
M  V30 2777 C 266.988 2.20754 0.760913 0
M  V30 2778 C 267.969 1.16178 1.24244 0
M  V30 2779 O 269.154 1.44592 1.29641 0
M  V30 2780 C 266.284 2.84478 1.99223 0
M  V30 2781 C 265.238 3.95053 1.64672 0
M  V30 2782 C 264.564 4.45805 2.95232 0
M  V30 2783 C 265.864 5.14865 0.878155 0
M  V30 2784 H 267.558 2.98537 0.22713 0
M  V30 2785 H 265.104 1.43596 0.107805 0
M  V30 2786 H 267.057 3.27951 2.64624 0
M  V30 2787 H 265.781 2.04056 2.55007 0
M  V30 2788 H 264.44 3.52228 1.01641 0
M  V30 2789 H 264.088 3.62181 3.49047 0
M  V30 2790 H 263.788 5.204 2.7287 0
M  V30 2791 H 265.312 4.91962 3.6167 0
M  V30 2792 H 266.726 5.55059 1.43466 0
M  V30 2793 H 265.123 5.95348 0.753738 0
M  V30 2794 H 266.193 4.84735 -0.126377 0
M  V30 2795 N 267.536 -0.106894 1.57237 0
M  V30 2796 C 268.813 -0.843526 1.76477 0
M  V30 2797 C 269.193 -1.97499 0.745464 0
M  V30 2798 O 268.541 -2.27357 -0.228306 0
M  V30 2799 C 268.751 -1.34903 3.21873 0
M  V30 2800 C 270.099 -1.79654 3.8472 0
M  V30 2801 O 271.123 -1.44554 3.2555 0
M  V30 2802 O 269.982 -2.44515 4.88748 0
M  V30 2803 H 267.076 -0.401468 0.723016 0
M  V30 2804 H 269.622 -0.0896927 1.69463 0
M  V30 2805 H 268.394 -0.53781 3.87586 0
M  V30 2806 H 268.017 -2.16522 3.33473 0
M  V30 2807 N 269.014 -1.53014 -0.377408 0
M  V30 2808 C 270.261 -1.68623 -1.12128 0
M  V30 2809 C 270.589 -0.431997 -1.89642 0
M  V30 2810 O 269.844 0.585855 -1.86725 0
M  V30 2811 C 270.143 -2.87982 -2.11663 0
M  V30 2812 C 269.809 -4.24964 -1.50719 0
M  V30 2813 C 268.471 -4.62217 -1.33825 0
M  V30 2814 C 270.823 -5.10199 -1.06519 0
M  V30 2815 C 268.151 -5.82352 -0.712963 0
M  V30 2816 C 270.503 -6.30969 -0.453955 0
M  V30 2817 C 269.167 -6.66944 -0.272411 0
M  V30 2818 H 268.437 -0.617034 -0.410305 0
M  V30 2819 H 271.084 -1.8718 -0.404484 0
M  V30 2820 H 269.389 -2.63889 -2.89603 0
M  V30 2821 H 271.086 -2.97253 -2.6915 0
M  V30 2822 H 267.676 -3.95626 -1.64858 0
M  V30 2823 H 271.86 -4.81978 -1.18368 0
M  V30 2824 H 267.116 -6.08824 -0.560611 0
M  V30 2825 H 271.29 -6.96324 -0.103217 0
M  V30 2826 H 268.917 -7.59898 0.214181 0
M  V30 2827 N 270.492 0.636531 -1.44174 0
M  V30 2828 C 271.455 1.73063 -1.50273 0
M  V30 2829 C 272.455 1.56113 -0.385397 0
M  V30 2830 O 273.645 1.61707 -0.64781 0
M  V30 2831 C 270.777 3.12096 -1.37145 0
M  V30 2832 H 271.97 1.69031 -2.47727 0
M  V30 2833 H 269.523 0.849706 -1.31186 0
M  V30 2834 H 270.258 3.21728 -0.407636 0
M  V30 2835 H 270.043 3.25805 -2.18159 0
M  V30 2836 H 271.533 3.91846 -1.44382 0
M  V30 2837 N 271.97 1.30982 0.876444 0
M  V30 2838 C 273.218 1.20058 1.62575 0
M  V30 2839 C 273.539 -0.242947 1.93481 0
M  V30 2840 O 272.809 -1.1619 1.57724 0
M  V30 2841 H 271.389 0.44135 0.602677 0
M  V30 2842 H 274.051 1.64222 1.04962 0
M  V30 2843 H 273.147 1.76762 2.57219 0
M  V30 2844 N 273.449 -1.08991 1.13837 0
M  V30 2845 C 274.697 -1.80899 0.901098 0
M  V30 2846 C 275.018 -1.86356 -0.574134 0
M  V30 2847 O 274.288 -1.35235 -1.41733 0
M  V30 2848 H 272.868 -0.669966 0.330386 0
M  V30 2849 H 275.53 -1.318 1.43578 0
M  V30 2850 H 274.626 -2.83929 1.29578 0
M  V30 2851 N 274.927 -0.932562 -1.27047 0
M  V30 2852 C 276.155 -0.592031 -1.98249 0
M  V30 2853 C 276.57 0.831062 -1.69525 0
M  V30 2854 O 275.927 1.55299 -0.958561 0
M  V30 2855 C 275.978 -0.814279 -3.5221 0
M  V30 2856 O 275.699 -2.18139 -3.7993 0
M  V30 2857 C 277.2 -0.483121 -4.4066 0
M  V30 2858 H 274.42 -0.223896 -0.632544 0
M  V30 2859 H 276.964 -1.25091 -1.61779 0
M  V30 2860 H 275.119 -0.20213 -3.86872 0
M  V30 2861 H 275.533 -2.235 -4.74498 0
M  V30 2862 H 277.007 -0.689298 -5.47679 0
M  V30 2863 H 277.484 0.581546 -4.35333 0
M  V30 2864 H 278.09 -1.07362 -4.11526 0
M  V30 2865 N 276.405 1.4127 -0.698611 0
M  V30 2866 C 277.651 2.01478 -0.231207 0
M  V30 2867 C 277.984 1.55215 1.16713 0
M  V30 2868 O 277.259 0.764672 1.78838 0
M  V30 2869 C 277.542 3.58912 -0.292281 0
M  V30 2870 C 277.395 4.15293 -1.72778 0
M  V30 2871 C 278.714 4.38736 0.346194 0
M  V30 2872 H 275.833 0.732025 -0.0854878 0
M  V30 2873 H 278.475 1.67977 -0.887906 0
M  V30 2874 H 276.625 3.87582 0.26686 0
M  V30 2875 H 278.297 3.97486 -2.341 0
M  V30 2876 H 276.54 3.7022 -2.26096 0
M  V30 2877 H 277.211 5.24452 -1.72202 0
M  V30 2878 H 279.687 4.15897 -0.130035 0
M  V30 2879 H 278.563 5.48221 0.272932 0
M  V30 2880 H 278.824 4.18425 1.42734 0
M  V30 2881 N 277.883 0.443576 1.51229 0
M  V30 2882 C 279.129 -0.120975 2.02439 0
M  V30 2883 C 279.462 -1.41815 1.32674 0
M  V30 2884 O 278.737 -1.89373 0.443622 0
M  V30 2885 C 279.02 -0.333291 3.58554 0
M  V30 2886 C 278.873 0.982968 4.38928 0
M  V30 2887 C 280.192 -1.10028 4.26124 0
M  V30 2888 H 277.311 -0.0424923 0.735774 0
M  V30 2889 H 279.953 0.583794 1.80809 0
M  V30 2890 H 278.103 -0.933614 3.77115 0
M  V30 2891 H 279.775 1.61775 4.32003 0
M  V30 2892 H 278.018 1.58611 4.03763 0
M  V30 2893 H 278.689 0.788379 5.46341 0
M  V30 2894 H 281.165 -0.591711 4.11871 0
M  V30 2895 H 280.041 -1.21761 5.35225 0
M  V30 2896 H 280.302 -2.12996 3.87408 0
M  V30 2897 N 279.361 -1.56624 0.175154 0
M  V30 2898 C 280.311 -2.14747 -0.766004 0
M  V30 2899 C 281.295 -1.08275 -1.19018 0
M  V30 2900 O 282.487 -1.34388 -1.15191 0
M  V30 2901 C 279.616 -2.79478 -1.99366 0
M  V30 2902 C 278.702 -3.93114 -1.5913 0
M  V30 2903 N 279.093 -4.97752 -0.89872 0
M  V30 2904 C 277.391 -4.04345 -1.88204 0
M  V30 2905 C 278.092 -5.77473 -0.700012 0
M  V30 2906 N 277.068 -5.29207 -1.24263 0
M  V30 2907 H 280.87 -2.93015 -0.22793 0
M  V30 2908 H 278.384 -1.6238 -0.0253843 0
M  V30 2909 H 280.381 -3.19498 -2.67818 0
M  V30 2910 H 279.041 -2.02692 -2.53665 0
M  V30 2911 H 280.052 -5.14903 -0.556347 0
M  V30 2912 H 276.729 -3.38667 -2.44153 0
M  V30 2913 H 278.119 -6.71728 -0.152047 0
M  V30 2914 N 280.839 0.0985539 -1.57292 0
M  V30 2915 C 282.088 0.801358 -1.85098 0
M  V30 2916 C 282.401 1.80066 -0.763902 0
M  V30 2917 O 283.607 2.55112 -0.928981 0
M  V30 2918 C 282.063 1.47599 -3.28242 0
M  V30 2919 C 281.671 0.516624 -4.45011 0
M  V30 2920 C 283.415 2.16272 -3.65276 0
M  V30 2921 C 281.322 1.19564 -5.79188 0
M  V30 2922 H 280.252 0.303022 -0.69043 0
M  V30 2923 H 282.903 0.0542623 -1.8342 0
M  V30 2924 H 281.285 2.27042 -3.2445 0
M  V30 2925 H 282.459 -0.246065 -4.60143 0
M  V30 2926 H 280.774 -0.064227 -4.1635 0
M  V30 2927 H 283.371 2.67802 -4.62803 0
M  V30 2928 H 283.714 2.95009 -2.93727 0
M  V30 2929 H 284.247 1.43693 -3.70941 0
M  V30 2930 H 280.986 0.449157 -6.53959 0
M  V30 2931 H 280.506 1.92984 -5.67906 0
M  V30 2932 H 282.185 1.7231 -6.23633 0
M  V30 2933 N 282.317 1.53212 0.369288 0
M  V30 2934 C 283.265 1.80054 1.47253 0
M  V30 2935 C 284.259 0.669456 1.55611 0
M  V30 2936 O 285.465 0.852328 1.58541 0
M  V30 2937 H 281.84 0.570034 0.490475 0
M  V30 2938 H 283.811 2.72403 1.21817 0
M  V30 2939 C 282.56 2.00403 2.84137 0
M  V30 2940 H 281.883 2.86876 2.78464 0
M  V30 2941 H 283.323 2.23164 3.60519 0
M  V30 2942 C 281.782 0.782081 3.27697 0
M  V30 2943 O 282.312 -0.0310205 4.01688 0
M  V30 2944 N 280.518 0.606573 2.84199 0
M  V30 2945 H 280.065 1.26939 2.24152 0
M  V30 2946 H 280.023 -0.20962 3.137 0
M  V30 2947 N 283.795 -0.628877 1.44509 0
M  V30 2948 C 284.758 -1.72263 1.51188 0
M  V30 2949 C 285.758 -1.55907 0.39367 0
M  V30 2950 O 286.948 -1.61361 0.656377 0
M  V30 2951 C 284.08 -3.11365 1.38798 0
M  V30 2952 H 285.273 -1.67714 2.4862 0
M  V30 2953 H 282.826 -0.842737 1.31634 0
M  V30 2954 H 283.561 -3.21507 0.424693 0
M  V30 2955 H 283.346 -3.24644 2.19884 0
M  V30 2956 H 284.836 -3.91075 1.46458 0
M  V30 2957 N 285.273 -1.31445 -0.869486 0
M  V30 2958 C 286.236 -1.19094 -1.9583 0
M  V30 2959 C 287.236 -0.117906 -1.60367 0
M  V30 2960 O 288.426 -0.367208 -1.70286 0
M  V30 2961 C 285.558 -0.828165 -3.30688 0
M  V30 2962 H 286.751 -2.15842 -2.08212 0
M  V30 2963 H 284.304 -1.15063 -1.05784 0
M  V30 2964 H 285.039 0.138142 -3.24006 0
M  V30 2965 H 284.824 -1.6038 -3.578 0
M  V30 2966 H 286.314 -0.765658 -4.10521 0
M  V30 2967 N 286.751 1.08385 -1.14413 0
M  V30 2968 C 288 1.80153 -0.907076 0
M  V30 2969 C 288.313 1.87176 0.567851 0
M  V30 2970 O 289.519 2.55359 0.922172 0
M  V30 2971 C 287.975 3.23687 -1.57336 0
M  V30 2972 C 287.583 3.24897 -3.08457 0
M  V30 2973 C 289.327 4.00136 -1.41744 0
M  V30 2974 C 287.234 4.6302 -3.67921 0
M  V30 2975 H 286.164 0.675139 -0.335714 0
M  V30 2976 H 288.815 1.21733 -1.37307 0
M  V30 2977 H 287.197 3.82234 -1.03505 0
M  V30 2978 H 288.371 2.76055 -3.68958 0
M  V30 2979 H 286.686 2.61943 -3.2369 0
M  V30 2980 H 289.283 5.02201 -1.83572 0
M  V30 2981 H 289.626 4.14709 -0.363576 0
M  V30 2982 H 290.159 3.48058 -1.92614 0
M  V30 2983 H 286.898 4.5365 -4.73161 0
M  V30 2984 H 286.418 5.12143 -3.12201 0
M  V30 2985 H 288.097 5.31994 -3.68227 0
M  V30 2986 N 288.23 0.939286 1.26551 0
M  V30 2987 C 289.193 0.451987 2.24699 0
M  V30 2988 C 290.193 -0.435869 1.5478 0
M  V30 2989 O 291.383 -0.235314 1.72603 0
M  V30 2990 C 288.515 -0.348801 3.39111 0
M  V30 2991 H 289.708 1.3193 2.69322 0
M  V30 2992 H 287.261 0.721072 1.38673 0
M  V30 2993 H 287.996 -1.23444 2.99887 0
M  V30 2994 H 287.781 0.287945 3.91041 0
M  V30 2995 H 289.271 -0.679726 4.12031 0
M  V30 2996 N 289.708 -1.40897 0.706093 0
M  V30 2997 C 290.956 -2.00657 0.241054 0
M  V30 2998 C 291.277 -1.56241 -1.16678 0
M  V30 2999 O 290.547 -0.79765 -1.78926 0
M  V30 3000 H 289.127 -0.742018 0.0861308 0
M  V30 3001 H 291.789 -1.72372 0.909604 0
M  V30 3002 H 290.885 -3.10958 0.266705 0
M  V30 3003 N 291.186 -0.45159 -1.50991 0
M  V30 3004 C 292.116 0.342898 -2.30969 0
M  V30 3005 C 293.097 1.00815 -1.37005 0
M  V30 3006 O 294.282 1.00907 -1.65926 0
M  V30 3007 C 291.412 1.43637 -3.16205 0
M  V30 3008 C 290.366 0.893818 -4.18563 0
M  V30 3009 C 289.692 2.08411 -4.92411 0
M  V30 3010 C 290.992 -0.0815568 -5.22236 0
M  V30 3011 H 292.686 -0.324556 -2.97636 0
M  V30 3012 H 290.232 -0.157531 -1.43136 0
M  V30 3013 H 292.185 1.9995 -3.70942 0
M  V30 3014 H 290.909 2.13232 -2.47386 0
M  V30 3015 H 289.568 0.352798 -3.64898 0
M  V30 3016 H 289.216 2.76658 -4.20082 0
M  V30 3017 H 288.916 1.72741 -5.61636 0
M  V30 3018 H 290.44 2.65251 -5.49976 0
M  V30 3019 H 291.854 0.391742 -5.7196 0
M  V30 3020 H 290.251 -0.351551 -5.99069 0
M  V30 3021 H 291.321 -1.01374 -4.74185 0
M  V30 3022 N 292.664 1.56529 -0.183458 0
M  V30 3023 C 293.91 1.97537 0.459036 0
M  V30 3024 C 294.243 1.06989 1.62071 0
M  V30 3025 O 293.518 0.11948 1.94133 0
M  V30 3026 C 293.801 3.47874 0.930368 0
M  V30 3027 C 293.654 4.492 -0.232317 0
M  V30 3028 C 294.973 4.01612 1.79989 0
M  V30 3029 H 292.092 0.718204 0.165383 0
M  V30 3030 H 294.734 1.88042 -0.272038 0
M  V30 3031 H 292.884 3.56095 1.55333 0
M  V30 3032 H 294.556 4.53027 -0.86972 0
M  V30 3033 H 292.799 4.24657 -0.885928 0
M  V30 3034 H 293.47 5.51823 0.139796 0
M  V30 3035 H 295.946 3.96097 1.27461 0
M  V30 3036 H 294.822 5.07195 2.09867 0
M  V30 3037 H 295.083 3.46163 2.74998 0
M  V30 3038 N 294.142 -0.090211 1.57342 0
M  V30 3039 C 295.39 -0.791241 1.85967 0
M  V30 3040 C 295.711 -1.7903 0.772859 0
M  V30 3041 O 294.981 -1.94872 -0.200398 0
M  V30 3042 H 293.561 -0.295205 0.686195 0
M  V30 3043 H 296.223 -0.0706782 1.94772 0
M  V30 3044 H 295.319 -1.31882 2.82867 0
M  V30 3045 N 295.62 -1.53406 -0.361157 0
M  V30 3046 C 296.583 -1.79479 -1.42548 0
M  V30 3047 C 297.583 -0.665327 -1.4639 0
M  V30 3048 O 298.773 -0.933549 -1.47073 0
M  V30 3049 C 295.905 -1.92087 -2.8163 0
M  V30 3050 H 297.098 -2.74538 -1.20701 0
M  V30 3051 H 294.651 -1.4455 -0.594546 0
M  V30 3052 H 295.386 -0.991099 -3.08784 0
M  V30 3053 H 295.171 -2.74241 -2.80239 0
M  V30 3054 H 296.661 -2.13836 -3.58697 0
M  V30 3055 N 297.098 0.621204 -1.44841 0
M  V30 3056 C 298.328 1.40548 -1.51426 0
M  V30 3057 C 298.736 1.88673 -0.141083 0
M  V30 3058 O 298.079 1.62053 0.865128 0
M  V30 3059 C 298.141 2.65325 -2.42576 0
M  V30 3060 C 297.805 2.3893 -3.89566 0
M  V30 3061 C 298.802 2.00138 -4.79834 0
M  V30 3062 C 296.487 2.52263 -4.3436 0
M  V30 3063 C 298.481 1.75021 -6.129 0
M  V30 3064 C 296.168 2.2676 -5.67471 0
M  V30 3065 C 297.166 1.88199 -6.56559 0
M  V30 3066 O 296.854 1.62986 -7.87204 0
M  V30 3067 H 296.586 0.437122 -0.515655 0
M  V30 3068 H 299.14 0.765987 -1.90583 0
M  V30 3069 H 297.37 3.31947 -1.98364 0
M  V30 3070 H 299.059 3.27347 -2.39998 0
M  V30 3071 H 299.825 1.89386 -4.46495 0
M  V30 3072 H 295.704 2.81246 -3.65269 0
M  V30 3073 H 299.248 1.44848 -6.82396 0
M  V30 3074 H 295.145 2.37125 -6.00368 0
M  V30 3075 H 295.913 1.7715 -7.991 0
M  V30 3076 N 298.576 1.31904 0.862503 0
M  V30 3077 C 299.506 1.22782 1.98612 0
M  V30 3078 C 300.487 0.113362 1.69722 0
M  V30 3079 O 301.672 0.299218 1.91881 0
M  V30 3080 C 298.802 0.942058 3.34279 0
M  V30 3081 C 297.756 2.0169 3.77499 0
M  V30 3082 C 297.082 1.58369 5.10709 0
M  V30 3083 C 298.382 3.43096 3.93805 0
M  V30 3084 H 300.076 2.16788 2.06502 0
M  V30 3085 H 297.622 1.04366 0.992154 0
M  V30 3086 H 299.575 0.864818 4.1243 0
M  V30 3087 H 298.299 -0.0336603 3.26583 0
M  V30 3088 H 296.958 2.08416 3.01593 0
M  V30 3089 H 296.606 0.595628 4.99461 0
M  V30 3090 H 296.306 2.30279 5.40597 0
M  V30 3091 H 297.83 1.52067 5.91361 0
M  V30 3092 H 299.244 3.39003 4.62331 0
M  V30 3093 H 297.641 4.13288 4.35101 0
M  V30 3094 H 298.711 3.83334 2.96957 0
M  V30 3095 N 300.054 -1.07777 1.14986 0
M  V30 3096 C 301.303 -1.79669 0.916617 0
M  V30 3097 C 301.616 -1.87474 -0.557917 0
M  V30 3098 O 302.822 -2.55845 -0.908617 0
M  V30 3099 C 301.278 -3.22848 1.59051 0
M  V30 3100 C 300.886 -3.23257 3.10176 0
M  V30 3101 C 302.63 -3.99379 1.43864 0
M  V30 3102 C 300.537 -4.61063 3.70372 0
M  V30 3103 H 299.467 -0.673349 0.33929 0
M  V30 3104 H 302.118 -1.21003 1.37951 0
M  V30 3105 H 300.5 -3.8168 1.0553 0
M  V30 3106 H 301.674 -2.74095 3.70417 0
M  V30 3107 H 299.989 -2.60222 3.25074 0
M  V30 3108 H 302.586 -5.0122 1.86232 0
M  V30 3109 H 302.929 -4.14511 0.385564 0
M  V30 3110 H 303.462 -3.47032 1.94457 0
M  V30 3111 H 300.201 -4.51135 4.7556 0
M  V30 3112 H 299.721 -5.1048 3.14913 0
M  V30 3113 H 301.4 -5.30034 3.71043 0
M  V30 3114 N 301.532 -0.945985 -1.26051 0
M  V30 3115 C 302.78 -0.594941 -1.93145 0
M  V30 3116 C 303.101 0.86953 -1.7454 0
M  V30 3117 O 302.371 1.61838 -1.10387 0
M  V30 3118 H 300.951 -0.217044 -0.714773 0
M  V30 3119 H 303.613 -1.20235 -1.53393 0
M  V30 3120 H 302.709 -0.816835 -3.01221 0
M  V30 3121 N 303.011 1.40521 -0.713556 0
M  V30 3122 C 303.958 2.30723 -0.059684 0
M  V30 3123 C 304.928 1.48079 0.752448 0
M  V30 3124 O 306.113 1.76823 0.71681 0
M  V30 3125 C 303.253 3.34274 0.857594 0
M  V30 3126 C 302.366 4.31986 0.0351536 0
M  V30 3127 C 301.501 5.22605 0.951724 0
M  V30 3128 C 300.54 6.11976 0.123253 0
M  V30 3129 N 299.677 6.9502 0.99459 0
M  V30 3130 H 304.517 2.86074 -0.834596 0
M  V30 3131 H 302.054 1.40879 -0.42326 0
M  V30 3132 H 304.012 3.92879 1.40364 0
M  V30 3133 H 302.642 2.8043 1.59871 0
M  V30 3134 H 301.694 3.7518 -0.628052 0
M  V30 3135 H 303.006 4.95101 -0.606347 0
M  V30 3136 H 302.16 5.86131 1.56638 0
M  V30 3137 H 300.899 4.59759 1.62705 0
M  V30 3138 H 299.904 5.47482 -0.50435 0
M  V30 3139 H 301.129 6.76881 -0.548539 0
M  V30 3140 H 299.075 6.34764 1.6556 0
M  V30 3141 H 298.992 7.54892 0.40908 0
M  V30 3142 H 300.26 7.62997 1.59549 0
M  V30 3143 N 304.489 0.459591 1.5075 0
M  V30 3144 C 305.905 0.113092 1.59199 0
M  V30 3145 C 306.105 -1.37951 1.46874 0
M  V30 3146 O 305.161 -2.15168 1.32132 0
M  V30 3147 C 306.474 0.653043 2.93523 0
M  V30 3148 C 308.022 0.615449 3.0689 0
M  V30 3149 C 308.497 1.13275 4.43771 0
M  V30 3150 N 309.988 1.09167 4.50152 0
M  V30 3151 C 310.723 1.46256 5.54434 0
M  V30 3152 N 310.219 1.90739 6.66026 0
M  V30 3153 N 312.012 1.37932 5.44914 0
M  V30 3154 H 304.163 1.43049 1.57005 0
M  V30 3155 H 306.426 0.590861 0.741341 0
M  V30 3156 H 306.132 1.69822 3.07983 0
M  V30 3157 H 306.006 0.0902132 3.77092 0
M  V30 3158 H 308.393 -0.420793 2.92084 0
M  V30 3159 H 308.474 1.21495 2.25106 0
M  V30 3160 H 308.118 2.16757 4.59324 0
M  V30 3161 H 308.048 0.509576 5.24129 0
M  V30 3162 H 310.539 0.76528 3.7007 0
M  V30 3163 H 310.852 2.17218 7.41644 0
M  V30 3164 H 309.197 1.94683 6.67176 0
M  V30 3165 H 312.388 1.0303 4.56621 0
M  V30 3166 H 312.561 1.67164 6.26067 0
M  V30 3167 N 305.967 -1.56429 0.191757 0
M  V30 3168 C 307.213 -1.97777 -0.448554 0
M  V30 3169 C 307.546 -1.07847 -1.61501 0
M  V30 3170 O 306.821 -0.129774 -1.94067 0
M  V30 3171 C 307.104 -3.48362 -0.911906 0
M  V30 3172 C 306.957 -4.4907 0.256136 0
M  V30 3173 C 308.276 -4.02561 -1.77857 0
M  V30 3174 H 305.395 -0.719071 -0.161572 0
M  V30 3175 H 308.037 -1.87896 0.282007 0
M  V30 3176 H 306.187 -3.56914 -1.53442 0
M  V30 3177 H 307.859 -4.5256 0.893733 0
M  V30 3178 H 306.102 -4.24181 0.908436 0
M  V30 3179 H 306.773 -5.51889 -0.11053 0
M  V30 3180 H 309.249 -3.96767 -1.25359 0
M  V30 3181 H 308.125 -5.08301 -2.07174 0
M  V30 3182 H 308.386 -3.47616 -2.73158 0
M  V30 3183 N 307.445 0.0818655 -1.57387 0
M  V30 3184 C 308.693 0.781368 -1.86384 0
M  V30 3185 C 309.014 1.78618 -0.782342 0
M  V30 3186 O 308.284 1.94976 0.190061 0
M  V30 3187 H 306.864 0.291562 -0.687751 0
M  V30 3188 H 309.526 0.060348 -1.94807 0
M  V30 3189 H 308.622 1.3038 -2.83562 0
M  V30 3190 N 308.923 1.53595 0.353017 0
M  V30 3191 C 310.17 1.70385 1.09431 0
M  V30 3192 C 310.498 0.462113 1.88931 0
M  V30 3193 O 309.753 -0.556074 1.87633 0
M  V30 3194 C 310.052 2.91313 2.07054 0
M  V30 3195 C 309.718 4.27308 1.43939 0
M  V30 3196 C 308.38 4.64287 1.26454 0
M  V30 3197 C 310.732 5.11829 0.983883 0
M  V30 3198 C 308.06 5.83412 0.620226 0
M  V30 3199 C 310.412 6.31611 0.353516 0
M  V30 3200 C 309.076 6.67293 0.166272 0
M  V30 3201 H 308.346 0.623484 0.400436 0
M  V30 3202 H 310.993 1.87799 0.374655 0
M  V30 3203 H 309.298 2.68463 2.85368 0
M  V30 3204 H 310.995 3.01497 2.64387 0
M  V30 3205 H 307.585 3.98198 1.58543 0
M  V30 3206 H 311.769 4.838 1.10685 0
M  V30 3207 H 307.025 6.09639 0.463681 0
M  V30 3208 H 311.199 6.964 -0.00757555 0
M  V30 3209 H 308.826 7.59461 -0.335047 0
M  V30 3210 N 310.401 -0.613514 1.45168 0
M  V30 3211 C 311.649 -1.36997 1.48581 0
M  V30 3212 C 311.97 -1.94589 0.126545 0
M  V30 3213 O 311.24 -1.76816 -0.843372 0
M  V30 3214 H 309.82 -0.508558 0.547154 0
M  V30 3215 H 312.482 -0.720853 1.81079 0
M  V30 3216 H 311.578 -2.1924 2.22127 0
M  V30 3217 N 311.879 -1.3236 -0.855495 0
M  V30 3218 C 312.826 -1.21225 -1.964 0
M  V30 3219 C 313.796 -0.0946204 -1.6583 0
M  V30 3220 O 314.981 -0.27002 -1.8888 0
M  V30 3221 C 312.121 -0.940419 -3.32039 0
M  V30 3222 C 311.234 -2.14276 -3.75113 0
M  V30 3223 C 310.369 -1.80648 -4.9954 0
M  V30 3224 C 309.408 -2.97208 -5.35102 0
M  V30 3225 N 308.545 -2.63678 -6.50706 0
M  V30 3226 H 313.385 -2.16042 -2.05255 0
M  V30 3227 H 310.922 -1.07451 -1.00463 0
M  V30 3228 H 312.88 -0.763311 -4.10158 0
M  V30 3229 H 311.51 -0.0290413 -3.22787 0
M  V30 3230 H 310.562 -2.43017 -2.92655 0
M  V30 3231 H 311.874 -3.01468 -3.97389 0
M  V30 3232 H 311.028 -1.59484 -5.85363 0
M  V30 3233 H 309.767 -0.906678 -4.79198 0
M  V30 3234 H 308.772 -3.19004 -4.47791 0
M  V30 3235 H 309.997 -3.87918 -5.57401 0
M  V30 3236 H 307.943 -1.76238 -6.31883 0
M  V30 3237 H 307.86 -3.444 -6.72997 0
M  V30 3238 H 309.128 -2.45942 -7.39684 0
M  V30 3239 N 313.357 1.07166 -1.15556 0
M  V30 3240 C 314.267 2.17947 -0.868116 0
M  V30 3241 C 315.283 1.73297 0.156297 0
M  V30 3242 O 316.459 2.01392 -0.0182327 0
M  V30 3243 C 313.524 3.44789 -0.36355 0
M  V30 3244 C 312.585 4.03996 -1.45209 0
M  V30 3245 C 311.818 5.24783 -0.971508 0
M  V30 3246 O 312.041 5.70109 0.182194 0
M  V30 3247 O 310.975 5.75715 -1.75603 0
M  V30 3248 H 314.801 2.4503 -1.79427 0
M  V30 3249 H 312.386 1.16539 -0.934824 0
M  V30 3250 H 314.268 4.21307 -0.0887113 0
M  V30 3251 H 312.943 3.19253 0.534708 0
M  V30 3252 H 311.85 3.29009 -1.78056 0
M  V30 3253 H 313.183 4.33808 -2.32533 0
M  V30 3254 N 314.835 0.952656 1.25548 0
M  V30 3255 C 315.798 0.475794 2.24207 0
M  V30 3256 C 316.798 -0.419428 1.55234 0
M  V30 3257 O 317.988 -0.216994 1.72843 0
M  V30 3258 C 315.12 -0.312814 3.39462 0
M  V30 3259 H 316.313 1.34779 2.67908 0
M  V30 3260 H 313.866 0.735739 1.37901 0
M  V30 3261 H 314.601 -1.20257 3.01179 0
M  V30 3262 H 314.386 0.329404 3.90714 0
M  V30 3263 H 315.876 -0.635986 4.12729 0
M  V30 3264 N 316.313 -1.40141 0.720998 0
M  V30 3265 C 317.56 -2.00787 0.262842 0
M  V30 3266 C 317.888 -1.5718 -1.14563 0
M  V30 3267 O 317.143 -0.785391 -1.79249 0
M  V30 3268 C 317.442 -3.56165 0.296892 0
M  V30 3269 C 317.108 -4.19373 1.65641 0
M  V30 3270 C 315.77 -4.36352 2.02855 0
M  V30 3271 C 318.122 -4.54578 2.54968 0
M  V30 3272 C 315.45 -4.8582 3.28931 0
M  V30 3273 C 317.802 -5.05447 3.80402 0
M  V30 3274 C 316.466 -5.20635 4.17726 0
M  V30 3275 H 315.736 -0.734731 0.0961807 0
M  V30 3276 H 318.383 -1.67673 0.925093 0
M  V30 3277 H 316.688 -3.8922 -0.448932 0
M  V30 3278 H 318.385 -4.00929 -0.0755208 0
M  V30 3279 H 314.975 -4.06549 1.35704 0
M  V30 3280 H 319.159 -4.41091 2.27491 0
M  V30 3281 H 314.415 -4.95764 3.57811 0
M  V30 3282 H 318.589 -5.31663 4.49786 0
M  V30 3283 H 316.216 -5.58728 5.15487 0
M  V30 3284 N 317.792 -0.46758 -1.50504 0
M  V30 3285 C 318.739 0.328413 -2.28452 0
M  V30 3286 C 319.709 0.990313 -1.33349 0
M  V30 3287 O 320.894 1.00343 -1.62284 0
M  V30 3288 C 318.034 1.40648 -3.15138 0
M  V30 3289 C 317.147 0.759709 -4.25267 0
M  V30 3290 C 316.282 1.81537 -4.99217 0
M  V30 3291 C 315.321 1.14866 -6.01226 0
M  V30 3292 N 314.458 2.14702 -6.68467 0
M  V30 3293 H 319.298 -0.342603 -2.96024 0
M  V30 3294 H 316.835 -0.180801 -1.45985 0
M  V30 3295 H 318.793 2.04315 -3.63746 0
M  V30 3296 H 317.423 2.04671 -2.49619 0
M  V30 3297 H 316.475 0.0105671 -3.80399 0
M  V30 3298 H 317.787 0.233243 -4.98254 0
M  V30 3299 H 316.941 2.52793 -5.51526 0
M  V30 3300 H 315.68 2.37564 -4.25928 0
M  V30 3301 H 314.685 0.42171 -5.4818 0
M  V30 3302 H 315.91 0.595334 -6.76485 0
M  V30 3303 H 313.856 2.69752 -5.97972 0
M  V30 3304 H 313.773 1.6703 -7.37317 0
M  V30 3305 H 315.041 2.85348 -7.25394 0
M  V30 3306 N 319.27 1.56325 -0.20005 0
M  V30 3307 C 320.681 1.8408 0.31167 0
M  V30 3308 C 321.032 1.12087 1.61031 0
M  V30 3309 O 320.157 0.38332 2.12978 0
M  V30 3310 C 320.752 3.33932 0.57226 0
M  V30 3311 C 319.311 3.6208 1.02834 0
M  V30 3312 C 318.458 2.77186 0.079634 0
M  V30 3313 H 321.409 1.52939 -0.423729 0
M  V30 3314 H 321.43 3.52971 1.42096 0
M  V30 3315 H 320.942 3.86303 -0.37308 0
M  V30 3316 H 319.043 3.15147 1.98778 0
M  V30 3317 H 319.156 4.7023 0.917624 0
M  V30 3318 H 317.52 2.47951 0.582448 0
M  V30 3319 H 318.303 3.32347 -0.860238 0
M  V30 3320 N 320.748 -0.0735177 1.57428 0
M  V30 3321 C 321.698 -1.09442 2.00016 0
M  V30 3322 C 322.682 -1.34575 0.881947 0
M  V30 3323 O 323.874 -1.34905 1.14585 0
M  V30 3324 C 321.003 -2.40865 2.4462 0
M  V30 3325 C 320.089 -2.19014 3.63172 0
M  V30 3326 N 320.48 -1.67087 4.77405 0
M  V30 3327 C 318.778 -2.49494 3.69688 0
M  V30 3328 C 319.479 -1.6001 5.5926 0
M  V30 3329 N 318.455 -2.05999 5.03056 0
M  V30 3330 H 322.257 -0.686227 2.85776 0
M  V30 3331 H 319.771 -0.280617 1.59957 0
M  V30 3332 H 321.768 -3.14763 2.73368 0
M  V30 3333 H 320.428 -2.82403 1.60246 0
M  V30 3334 H 321.439 -1.35975 4.99731 0
M  V30 3335 H 318.116 -2.94409 2.96023 0
M  V30 3336 H 319.506 -1.2073 6.60964 0
M  V30 3337 N 322.226 -1.5378 -0.344866 0
M  V30 3338 C 323.174 -1.82373 -1.4437 0
M  V30 3339 C 324.168 -0.694128 -1.54526 0
M  V30 3340 O 325.374 -0.877442 -1.57165 0
M  V30 3341 H 321.749 -0.577765 -0.481344 0
M  V30 3342 H 323.72 -2.74306 -1.17468 0
M  V30 3343 C 322.469 -2.04898 -2.80913 0
M  V30 3344 H 321.792 -2.9127 -2.73865 0
M  V30 3345 H 323.232 -2.28871 -3.56923 0
M  V30 3346 C 321.691 -0.834116 -3.26411 0
M  V30 3347 O 322.221 -0.0328885 -4.01687 0
M  V30 3348 N 320.427 -0.65171 -2.83198 0
M  V30 3349 H 319.974 -1.30489 -2.22104 0
M  V30 3350 H 319.932 0.159686 -3.13994 0
M  V30 3351 N 323.704 0.605807 -1.45491 0
M  V30 3352 C 324.634 1.72709 -1.57143 0
M  V30 3353 C 325.615 1.6476 -0.422884 0
M  V30 3354 O 326.8 1.83132 -0.646247 0
M  V30 3355 C 323.93 3.11316 -1.53948 0
M  V30 3356 C 322.884 3.34077 -2.67537 0
M  V30 3357 C 322.21 4.72975 -2.49397 0
M  V30 3358 C 323.51 3.24158 -4.09535 0
M  V30 3359 H 325.204 1.63214 -2.51001 0
M  V30 3360 H 322.75 0.78379 -1.208 0
M  V30 3361 H 324.703 3.89557 -1.60696 0
M  V30 3362 H 323.427 3.21655 -0.566205 0
M  V30 3363 H 322.086 2.58227 -2.6022 0
M  V30 3364 H 321.734 4.8005 -1.50205 0
M  V30 3365 H 321.434 4.8916 -3.25571 0
M  V30 3366 H 322.958 5.53414 -2.58002 0
M  V30 3367 H 324.372 3.92271 -4.18086 0
M  V30 3368 H 322.769 3.51872 -4.86113 0
M  V30 3369 H 323.839 2.2157 -4.31317 0
M  V30 3370 N 325.182 1.32811 0.848464 0
M  V30 3371 C 326.593 1.21315 1.41914 0
M  V30 3372 C 326.944 -0.171847 1.95446 0
M  V30 3373 O 326.069 -1.07093 1.88043 0
M  V30 3374 C 326.664 2.19631 2.57968 0
M  V30 3375 C 325.223 2.12003 3.11017 0
M  V30 3376 C 324.37 2.07651 1.83783 0
M  V30 3377 H 327.321 1.44549 0.655071 0
M  V30 3378 H 327.342 1.79845 3.35315 0
M  V30 3379 H 326.854 3.20423 2.18976 0
M  V30 3380 H 324.955 1.14481 3.54577 0
M  V30 3381 H 325.068 3.02111 3.71841 0
M  V30 3382 H 323.432 1.52983 2.03638 0
M  V30 3383 H 324.215 3.10235 1.47 0
M  V30 3384 N 326.66 -1.06551 1.16123 0
M  V30 3385 C 327.593 -2.13382 0.80892 0
M  V30 3386 C 328.571 -1.61128 -0.21827 0
M  V30 3387 O 329.755 -1.88219 -0.102952 0
M  V30 3388 C 326.882 -3.38083 0.204303 0
M  V30 3389 C 325.928 -4.09133 1.20469 0
M  V30 3390 S 326.761 -4.5948 2.75024 0
M  V30 3391 C 327.917 -5.87446 2.16005 0
M  V30 3392 H 328.15 -2.42937 1.71373 0
M  V30 3393 H 325.683 -1.18947 0.984428 0
M  V30 3394 H 327.641 -4.10268 -0.138081 0
M  V30 3395 H 326.302 -3.0669 -0.678234 0
M  V30 3396 H 325.495 -4.98685 0.730019 0
M  V30 3397 H 325.097 -3.4295 1.49202 0
M  V30 3398 H 327.389 -6.60065 1.5271 0
M  V30 3399 H 328.332 -6.39639 3.03756 0
M  V30 3400 H 328.74 -5.41354 1.59989 0
M  V30 3401 N 328.138 -0.959301 -1.25041 0
M  V30 3402 C 329.384 -0.617525 -1.9317 0
M  V30 3403 C 329.717 0.843981 -1.74902 0
M  V30 3404 O 328.992 1.60615 -1.09696 0
M  V30 3405 C 329.275 -0.982736 -3.46431 0
M  V30 3406 C 329.128 -2.50032 -3.73904 0
M  V30 3407 C 330.447 -0.511176 -4.37121 0
M  V30 3408 H 327.566 -0.22582 -0.701552 0
M  V30 3409 H 330.208 -1.19679 -1.4757 0
M  V30 3410 H 328.358 -0.489806 -3.854 0
M  V30 3411 H 330.03 -3.06737 -3.44544 0
M  V30 3412 H 328.273 -2.93598 -3.19348 0
M  V30 3413 H 328.944 -2.70635 -4.81103 0
M  V30 3414 H 331.42 -0.934075 -4.0548 0
M  V30 3415 H 330.296 -0.795361 -5.43107 0
M  V30 3416 H 330.557 0.588834 -4.38161 0
M  V30 3417 N 329.616 1.39756 -0.72842 0
M  V30 3418 C 330.863 2.00645 -0.273487 0
M  V30 3419 C 331.191 1.57786 1.13727 0
M  V30 3420 O 330.446 0.794886 1.7883 0
M  V30 3421 C 330.745 3.56002 -0.315776 0
M  V30 3422 C 330.411 4.18489 -1.67863 0
M  V30 3423 C 329.073 4.3527 -2.05166 0
M  V30 3424 C 331.425 4.53219 -2.57375 0
M  V30 3425 C 328.753 4.84069 -3.31503 0
M  V30 3426 C 331.105 5.03423 -3.83077 0
M  V30 3427 C 329.769 5.18413 -4.20481 0
M  V30 3428 H 329.039 0.734211 -0.100076 0
M  V30 3429 H 331.686 1.6718 -0.933972 0
M  V30 3430 H 329.991 3.89452 0.428285 0
M  V30 3431 H 331.688 4.00963 0.0542575 0
M  V30 3432 H 328.278 4.05824 -1.37858 0
M  V30 3433 H 332.462 4.39878 -2.29827 0
M  V30 3434 H 327.718 4.93859 -3.60435 0
M  V30 3435 H 331.892 5.2927 -4.52599 0
M  V30 3436 H 329.519 5.55987 -5.18443 0
M  V30 3437 N 331.094 0.475555 1.50254 0
M  V30 3438 C 332.322 -0.0754493 2.06762 0
M  V30 3439 C 332.737 -1.33111 1.33891 0
M  V30 3440 O 332.094 -1.77846 0.40952 0
M  V30 3441 C 332.145 -0.359008 3.59713 0
M  V30 3442 O 331.866 0.846851 4.29837 0
M  V30 3443 C 333.367 -0.956484 4.32858 0
M  V30 3444 H 330.587 0.00907525 0.670939 0
M  V30 3445 H 333.131 0.665618 1.93364 0
M  V30 3446 H 331.286 -1.05001 3.72899 0
M  V30 3447 H 331.7 0.594162 5.21124 0
M  V30 3448 H 333.174 -1.10463 5.40834 0
M  V30 3449 H 333.651 -1.94775 3.93649 0
M  V30 3450 H 334.257 -0.303723 4.24214 0
M  V30 3451 N 332.573 -1.56217 0.208337 0
M  V30 3452 C 333.821 -1.97558 -0.426076 0
M  V30 3453 C 334.142 -1.09683 -1.61229 0
M  V30 3454 O 333.412 -0.170956 -1.95153 0
M  V30 3455 H 331.992 -0.729575 -0.160405 0
M  V30 3456 H 334.654 -1.92606 0.298155 0
M  V30 3457 H 333.75 -3.02672 -0.761312 0
M  V30 3458 N 334.051 0.0651679 -1.57465 0
M  V30 3459 C 335.279 0.775808 -1.91804 0
M  V30 3460 C 335.694 1.70782 -0.804916 0
M  V30 3461 O 335.051 1.81153 0.221311 0
M  V30 3462 C 335.102 1.56381 -3.25925 0
M  V30 3463 O 334.823 0.669248 -4.32958 0
M  V30 3464 C 336.324 2.37485 -3.7432 0
M  V30 3465 H 333.544 0.2202 -0.63384 0
M  V30 3466 H 336.088 0.0334587 -2.04473 0
M  V30 3467 H 334.243 2.25837 -3.14764 0
M  V30 3468 H 334.657 1.21801 -5.10162 0
M  V30 3469 H 336.131 2.88223 -4.70778 0
M  V30 3470 H 336.608 3.17307 -3.03666 0
M  V30 3471 H 337.214 1.73173 -3.88447 0
M  V30 3472 N 335.529 1.53961 0.336706 0
M  V30 3473 C 336.492 1.81724 1.39675 0
M  V30 3474 C 337.492 0.688532 1.45313 0
M  V30 3475 O 338.682 0.956829 1.45569 0
M  V30 3476 C 335.814 1.96543 2.78538 0
M  V30 3477 H 337.007 2.76424 1.16318 0
M  V30 3478 H 334.56 1.45478 0.571474 0
M  V30 3479 H 335.295 1.0401 3.07168 0
M  V30 3480 H 335.08 2.78665 2.75841 0
M  V30 3481 H 336.57 2.19516 3.5525 0
M  V30 3482 N 337.007 -0.598083 1.45811 0
M  V30 3483 C 338.256 -1.35295 1.49594 0
M  V30 3484 C 338.569 -1.95057 0.145679 0
M  V30 3485 O 339.775 -2.71431 0.0612099 0
M  V30 3486 C 338.231 -2.45124 2.63519 0
M  V30 3487 C 337.839 -1.91732 4.04899 0
M  V30 3488 C 339.583 -3.2205 2.76558 0
M  V30 3489 C 337.49 -2.991 5.1019 0
M  V30 3490 H 336.42 -0.508552 0.556679 0
M  V30 3491 H 339.071 -0.639977 1.71978 0
M  V30 3492 H 337.453 -3.19149 2.34435 0
M  V30 3493 H 338.627 -1.24352 4.43704 0
M  V30 3494 H 336.942 -1.27522 3.96393 0
M  V30 3495 H 339.539 -4.0215 3.52391 0
M  V30 3496 H 339.882 -3.73663 1.83526 0
M  V30 3497 H 340.415 -2.55127 3.05213 0
M  V30 3498 H 337.154 -2.52393 6.04961 0
M  V30 3499 H 336.674 -3.65017 4.75944 0
M  V30 3500 H 338.353 -3.63318 5.35359 0
M  V30 3501 N 338.485 -1.33259 -0.841409 0
M  V30 3502 C 339.415 -1.25926 -1.96634 0
M  V30 3503 C 340.396 -0.140349 -1.6952 0
M  V30 3504 O 341.581 -0.329707 -1.91381 0
M  V30 3505 C 338.711 -0.99512 -3.32738 0
M  V30 3506 C 337.665 -2.0767 -3.74242 0
M  V30 3507 C 336.991 -1.66474 -5.08125 0
M  V30 3508 C 338.291 -3.49318 -3.88297 0
M  V30 3509 H 339.985 -2.20046 -2.03027 0
M  V30 3510 H 337.531 -1.05931 -0.975425 0
M  V30 3511 H 339.484 -0.930323 -4.11002 0
M  V30 3512 H 338.208 -0.0183004 -3.26595 0
M  V30 3513 H 336.867 -2.13187 -2.98239 0
M  V30 3514 H 336.515 -0.675012 -4.9845 0
M  V30 3515 H 336.215 -2.3885 -5.36865 0
M  V30 3516 H 337.739 -1.61455 -5.88867 0
M  V30 3517 H 339.153 -3.46316 -4.56879 0
M  V30 3518 H 337.55 -4.20158 -4.28471 0
M  V30 3519 H 338.62 -3.8801 -2.9082 0
M  V30 3520 N 339.963 1.05934 -1.16686 0
M  V30 3521 C 341.193 1.82226 -0.973515 0
M  V30 3522 C 341.601 1.8297 0.481532 0
M  V30 3523 O 340.944 1.25009 1.34604 0
M  V30 3524 C 341.006 3.29897 -1.42858 0
M  V30 3525 C 340.67 3.52849 -2.90425 0
M  V30 3526 C 341.667 3.45595 -3.88407 0
M  V30 3527 C 339.352 3.80053 -3.28428 0
M  V30 3528 C 341.346 3.65217 -5.22394 0
M  V30 3529 C 339.033 3.99325 -4.62583 0
M  V30 3530 C 340.031 3.91905 -5.59374 0
M  V30 3531 O 339.719 4.10647 -6.91104 0
M  V30 3532 H 339.451 0.581314 -0.345036 0
M  V30 3533 H 342.005 1.3453 -1.55212 0
M  V30 3534 H 340.235 3.78472 -0.793477 0
M  V30 3535 H 341.924 3.87692 -1.20207 0
M  V30 3536 H 342.69 3.24564 -3.60393 0
M  V30 3537 H 338.569 3.84936 -2.53664 0
M  V30 3538 H 342.113 3.59341 -5.9793 0
M  V30 3539 H 338.01 4.19846 -4.90306 0
M  V30 3540 H 338.778 4.27915 -6.97733 0
M  V30 3541 N 341.441 0.965919 1.2453 0
M  V30 3542 C 342.69 0.622437 1.91856 0
M  V30 3543 C 343.003 -0.846006 1.76358 0
M  V30 3544 O 344.209 -1.29993 2.38357 0
M  V30 3545 C 342.665 1.0626 3.43856 0
M  V30 3546 C 342.273 2.55437 3.68043 0
M  V30 3547 C 344.017 0.792183 4.17043 0
M  V30 3548 C 341.924 2.93196 5.13605 0
M  V30 3549 H 340.854 0.229092 0.718354 0
M  V30 3550 H 343.505 1.17189 1.41206 0
M  V30 3551 H 341.887 0.441476 3.93531 0
M  V30 3552 H 343.061 3.22665 3.28974 0
M  V30 3553 H 341.376 2.8007 3.08139 0
M  V30 3554 H 343.973 1.05031 5.24283 0
M  V30 3555 H 344.316 -0.271584 4.15413 0
M  V30 3556 H 344.849 1.37419 3.73311 0
M  V30 3557 H 341.588 3.98636 5.20355 0
M  V30 3558 H 341.108 2.30651 5.53679 0
M  V30 3559 H 342.787 2.83004 5.81823 0
M  V30 3560 N 342.919 -1.39368 0.735821 0
M  V30 3561 C 344.167 -2.00101 0.283562 0
M  V30 3562 C 344.488 -1.5868 -1.13338 0
M  V30 3563 O 343.758 -0.835423 -1.77193 0
M  V30 3564 H 342.338 -0.740024 0.101851 0
M  V30 3565 H 345 -1.70404 0.945962 0
M  V30 3566 H 344.096 -3.10323 0.332604 0
M  V30 3567 N 344.397 -0.483516 -1.5 0
M  V30 3568 C 345.643 0.0593261 -2.03313 0
M  V30 3569 C 345.998 1.36288 -1.35806 0
M  V30 3570 O 345.291 1.85519 -0.478897 0
M  V30 3571 C 345.485 0.286226 -3.56252 0
M  V30 3572 C 345.314 -0.993788 -4.38582 0
M  V30 3573 C 344.084 -1.54064 -4.81241 0
M  V30 3574 C 346.282 -1.89249 -4.78215 0
M  V30 3575 N 344.264 -2.76838 -5.47936 0
M  V30 3576 C 345.635 -2.96606 -5.44449 0
M  V30 3577 C 347.69 -1.90138 -4.60165 0
M  V30 3578 C 346.393 -4.04857 -5.94544 0
M  V30 3579 C 348.419 -2.97353 -5.1121 0
M  V30 3580 C 347.781 -4.03429 -5.77429 0
M  V30 3581 H 343.88 -0.0186322 -0.781778 0
M  V30 3582 H 346.464 -0.654489 -1.8337 0
M  V30 3583 H 344.635 0.969086 -3.76116 0
M  V30 3584 H 346.367 0.824515 -3.96212 0
M  V30 3585 H 343.122 -1.08813 -4.6093 0
M  V30 3586 H 343.546 -3.39221 -5.85882 0
M  V30 3587 H 348.188 -1.09441 -4.0839 0
M  V30 3588 H 345.906 -4.86363 -6.4535 0
M  V30 3589 H 349.492 -2.99039 -4.99066 0
M  V30 3590 H 348.372 -4.85025 -6.16214 0
M  V30 3591 N 345.875 1.56104 -0.216619 0
M  V30 3592 C 347.122 1.98172 0.416416 0
M  V30 3593 C 347.45 1.10413 1.60122 0
M  V30 3594 O 346.705 0.147967 1.9514 0
M  V30 3595 C 347.004 3.45923 0.898464 0
M  V30 3596 C 346.67 4.50559 -0.175288 0
M  V30 3597 C 345.332 4.78897 -0.470271 0
M  V30 3598 C 347.684 5.1334 -0.901728 0
M  V30 3599 C 345.012 5.67299 -1.4963 0
M  V30 3600 C 347.364 6.02853 -1.91705 0
M  V30 3601 C 346.028 6.29537 -2.21901 0
M  V30 3602 H 345.298 0.725164 0.152377 0
M  V30 3603 H 347.945 1.88839 -0.318103 0
M  V30 3604 H 346.25 3.52434 1.71165 0
M  V30 3605 H 347.947 3.75841 1.39803 0
M  V30 3606 H 344.537 4.28551 0.0647806 0
M  V30 3607 H 348.721 4.91521 -0.687072 0
M  V30 3608 H 343.977 5.86239 -1.73592 0
M  V30 3609 H 348.151 6.50552 -2.48505 0
M  V30 3610 H 345.778 6.97835 -3.01548 0
M  V30 3611 N 347.353 -0.0568162 1.57498 0
M  V30 3612 C 348.601 -0.751617 1.87604 0
M  V30 3613 C 348.922 -1.77351 0.81066 0
M  V30 3614 O 348.192 -1.95254 -0.159018 0
M  V30 3615 H 346.772 -0.280583 0.692302 0
M  V30 3616 H 349.434 -0.0293483 1.94878 0
M  V30 3617 H 348.53 -1.25852 2.856 0
M  V30 3618 N 348.832 -1.54138 -0.328536 0
M  V30 3619 C 350.079 -1.72105 -1.06706 0
M  V30 3620 C 350.407 -0.492111 -1.88171 0
M  V30 3621 O 349.662 0.526153 -1.88494 0
M  V30 3622 C 349.961 -2.9457 -2.02393 0
M  V30 3623 C 349.627 -4.29544 -1.37122 0
M  V30 3624 C 348.289 -4.6624 -1.19052 0
M  V30 3625 C 350.641 -5.1333 -0.902331 0
M  V30 3626 C 347.969 -5.84325 -0.527331 0
M  V30 3627 C 350.321 -6.32094 -0.252988 0
M  V30 3628 C 348.985 -6.67473 -0.0600901 0
M  V30 3629 H 348.255 -0.629775 -0.390466 0
M  V30 3630 H 350.902 -1.88372 -0.34473 0
M  V30 3631 H 349.207 -2.72969 -2.81061 0
M  V30 3632 H 350.904 -3.05665 -2.59557 0
M  V30 3633 H 347.494 -4.0067 -1.52188 0
M  V30 3634 H 351.678 -4.855 -1.02974 0
M  V30 3635 H 346.934 -6.103 -0.366634 0
M  V30 3636 H 351.108 -6.96299 0.118366 0
M  V30 3637 H 348.735 -7.58832 0.455828 0
M  V30 3638 N 350.31 0.590341 -1.46126 0
M  V30 3639 C 351.258 1.72105 -1.5647 0
M  V30 3640 C 352.252 1.63756 -0.433612 0
M  V30 3641 O 353.458 1.69342 -0.610194 0
M  V30 3642 H 349.833 0.568889 -0.491802 0
M  V30 3643 H 351.804 1.6051 -2.51553 0
M  V30 3644 C 350.553 3.10493 -1.56491 0
M  V30 3645 H 349.876 3.17583 -2.4286 0
M  V30 3646 H 351.316 3.8939 -1.67785 0
M  V30 3647 C 349.775 3.3563 -0.292231 0
M  V30 3648 O 350.305 3.96875 0.620739 0
M  V30 3649 N 348.511 2.90026 -0.182523 0
M  V30 3650 H 348.058 2.40367 -0.926356 0
M  V30 3651 H 348.016 3.07218 0.668152 0
M  V30 3652 N 351.788 1.33704 0.83433 0
M  V30 3653 C 352.751 1.24244 1.92603 0
M  V30 3654 C 353.751 0.160383 1.59998 0
M  V30 3655 O 354.941 0.412228 1.69252 0
M  V30 3656 C 352.073 0.91555 3.28376 0
M  V30 3657 H 353.266 2.21287 2.02416 0
M  V30 3658 H 350.819 1.17827 1.02696 0
M  V30 3659 H 351.554 -0.0521886 3.24258 0
M  V30 3660 H 351.339 1.69811 3.53422 0
M  V30 3661 H 352.829 0.874231 4.08347 0
M  V30 3662 N 353.266 -1.05314 1.17247 0
M  V30 3663 C 354.514 -1.77941 0.958194 0
M  V30 3664 C 354.835 -1.88089 -0.514556 0
M  V30 3665 O 354.105 -1.39676 -1.37359 0
M  V30 3666 H 352.685 -0.659116 0.351533 0
M  V30 3667 H 355.347 -1.27166 1.47699 0
M  V30 3668 H 354.443 -2.79663 1.38546 0
M  V30 3669 N 354.744 -0.972509 -1.24016 0
M  V30 3670 C 355.969 -0.654417 -1.96805 0
M  V30 3671 C 356.394 0.770398 -1.716 0
M  V30 3672 O 355.752 1.52361 -0.982647 0
M  V30 3673 C 355.8 -0.941031 -3.48105 0
M  V30 3674 O 354.904 -0.0289472 -4.1239 0
M  V30 3675 H 354.245 -0.24692 -0.616382 0
M  V30 3676 H 356.775 -1.30396 -1.57664 0
M  V30 3677 H 356.785 -0.87452 -3.98517 0
M  V30 3678 H 355.46 -1.97939 -3.65777 0
M  V30 3679 H 354.037 -0.149192 -3.72601 0
M  V30 3680 N 356.222 1.38976 -0.743202 0
M  V30 3681 C 357.185 2.28901 -0.117014 0
M  V30 3682 C 358.185 1.46698 0.658503 0
M  V30 3683 O 359.375 1.67274 0.486305 0
M  V30 3684 C 356.507 3.30309 0.84315 0
M  V30 3685 H 357.7 2.8578 -0.909373 0
M  V30 3686 H 355.253 1.47761 -0.509547 0
M  V30 3687 H 355.988 2.785 1.66157 0
M  V30 3688 H 355.773 3.91029 0.289594 0
M  V30 3689 H 357.263 3.97577 1.2776 0
M  V30 3690 N 357.7 0.491464 1.49741 0
M  V30 3691 C 358.948 -0.0563141 2.02022 0
M  V30 3692 C 359.269 -1.38363 1.37407 0
M  V30 3693 O 358.539 -1.88702 0.526166 0
M  V30 3694 H 357.119 -0.0238014 0.746621 0
M  V30 3695 H 359.781 0.646533 1.83864 0
M  V30 3696 H 358.877 -0.192967 3.11503 0
M  V30 3697 N 359.178 -1.55987 0.224894 0
M  V30 3698 C 360.406 -2.02784 -0.410665 0
M  V30 3699 C 360.821 -1.10464 -1.53112 0
M  V30 3700 O 360.178 -0.114871 -1.82138 0
M  V30 3701 C 360.229 -3.49087 -0.939165 0
M  V30 3702 O 359.95 -4.37887 0.136614 0
M  V30 3703 C 361.451 -4.11543 -1.64763 0
M  V30 3704 H 358.671 -0.663484 -0.100148 0
M  V30 3705 H 361.215 -2.01614 0.342326 0
M  V30 3706 H 359.37 -3.50861 -1.64242 0
M  V30 3707 H 359.784 -5.23849 -0.261155 0
M  V30 3708 H 361.258 -5.15673 -1.96939 0
M  V30 3709 H 361.735 -3.56736 -2.56195 0
M  V30 3710 H 362.341 -4.13629 -0.989503 0
M  V30 3711 N 360.656 0.0484629 -1.57525 0
M  V30 3712 C 361.619 1.03956 -2.04269 0
M  V30 3713 C 362.619 1.30211 -0.943496 0
M  V30 3714 O 363.809 1.25539 -1.20771 0
M  V30 3715 C 360.941 2.37742 -2.44319 0
M  V30 3716 H 362.134 0.636182 -2.93075 0
M  V30 3717 H 359.687 0.294811 -1.53494 0
M  V30 3718 H 360.422 2.82866 -1.5861 0
M  V30 3719 H 360.207 2.20021 -3.24551 0
M  V30 3720 H 361.697 3.08936 -2.80978 0
M  V30 3721 N 362.134 1.5431 0.320358 0
M  V30 3722 C 363.082 1.84647 1.4145 0
M  V30 3723 C 364.076 0.718624 1.53402 0
M  V30 3724 O 365.282 0.902335 1.5575 0
M  V30 3725 H 361.657 0.585349 0.472091 0
M  V30 3726 H 363.628 2.7614 1.13089 0
M  V30 3727 C 362.377 2.09341 2.77617 0
M  V30 3728 H 361.7 2.9559 2.69196 0
M  V30 3729 H 363.14 2.3452 3.53237 0
M  V30 3730 C 361.599 0.885939 3.25043 0
M  V30 3731 O 362.129 0.0967891 4.01583 0
M  V30 3732 N 360.335 0.696682 2.82125 0
M  V30 3733 H 359.882 1.34006 2.2 0
M  V30 3734 H 359.84 -0.109712 3.14209 0
M  V30 3735 N 363.613 -0.582584 1.46437 0
M  V30 3736 C 364.523 -1.71949 1.59595 0
M  V30 3737 C 365.539 -1.67264 0.479443 0
M  V30 3738 O 366.715 -1.87171 0.743579 0
M  V30 3739 C 363.78 -3.08452 1.58298 0
M  V30 3740 C 362.841 -3.244 2.81182 0
M  V30 3741 C 362.074 -4.54391 2.79937 0
M  V30 3742 O 362.297 -5.38287 1.8869 0
M  V30 3743 O 361.231 -4.73588 3.71481 0
M  V30 3744 H 365.057 -1.63795 2.55744 0
M  V30 3745 H 362.642 -0.749643 1.29231 0
M  V30 3746 H 364.524 -3.89732 1.60271 0
M  V30 3747 H 363.199 -3.17043 0.653094 0
M  V30 3748 H 362.106 -2.42613 2.84763 0
M  V30 3749 H 363.439 -3.20699 3.7338 0
M  V30 3750 N 365.091 -1.34144 -0.827227 0
M  V30 3751 C 366.34 -1.25602 -1.5782 0
M  V30 3752 C 366.653 0.173445 -1.94829 0
M  V30 3753 O 367.859 0.380984 -2.68814 0
M  V30 3754 C 366.315 -2.20151 -2.84713 0
M  V30 3755 C 365.923 -3.68331 -2.55021 0
M  V30 3756 C 367.667 -2.20508 -3.62735 0
M  V30 3757 C 365.574 -4.54762 -3.78082 0
M  V30 3758 H 364.504 -0.466573 -0.592306 0
M  V30 3759 H 367.155 -1.59283 -0.911116 0
M  V30 3760 H 365.537 -1.79417 -3.53023 0
M  V30 3761 H 366.711 -4.17577 -1.94849 0
M  V30 3762 H 365.026 -3.7038 -1.90283 0
M  V30 3763 H 367.623 -2.82306 -4.54101 0
M  V30 3764 H 367.966 -1.20322 -3.98533 0
M  V30 3765 H 368.499 -2.59664 -3.01362 0
M  V30 3766 H 365.238 -5.55867 -3.47407 0
M  V30 3767 H 364.758 -4.10254 -4.37552 0
M  V30 3768 H 366.437 -4.69153 -4.45538 0
M  V30 3769 N 366.569 1.04691 -1.17803 0
M  V30 3770 C 367.532 2.10724 -0.901545 0
M  V30 3771 C 368.532 1.6042 0.110437 0
M  V30 3772 O 369.722 1.7377 -0.122303 0
M  V30 3773 C 366.854 3.39084 -0.351409 0
M  V30 3774 H 368.047 2.36686 -1.84174 0
M  V30 3775 H 365.6 1.21015 -0.98919 0
M  V30 3776 H 366.335 3.18782 0.59569 0
M  V30 3777 H 366.12 3.76909 -1.08083 0
M  V30 3778 H 367.61 4.17227 -0.176451 0
M  V30 3779 N 368.047 0.979072 1.23499 0
M  V30 3780 C 369.01 0.523244 2.23147 0
M  V30 3781 C 370.01 -0.386406 1.56088 0
M  V30 3782 O 371.2 -0.180283 1.73265 0
M  V30 3783 C 368.332 -0.240739 3.40049 0
M  V30 3784 H 369.525 1.40432 2.64989 0
M  V30 3785 H 367.078 0.764824 1.36309 0
M  V30 3786 H 367.813 -1.13841 3.03662 0
M  V30 3787 H 367.598 0.412207 3.89927 0
M  V30 3788 H 369.088 -0.548297 4.13985 0
M  V30 3789 N 369.525 -1.3858 0.750561 0
M  V30 3790 C 370.455 -2.33102 0.136237 0
M  V30 3791 C 371.436 -1.54713 -0.706965 0
M  V30 3792 O 372.621 -1.83043 -0.648769 0
M  V30 3793 C 369.751 -3.38882 -0.760017 0
M  V30 3794 C 368.705 -4.27995 -0.0197785 0
M  V30 3795 C 368.031 -5.24605 -1.03408 0
M  V30 3796 C 369.331 -5.09554 1.14684 0
M  V30 3797 H 371.025 -2.84726 0.925822 0
M  V30 3798 H 368.571 -1.36898 0.446654 0
M  V30 3799 H 370.524 -4.0397 -1.19943 0
M  V30 3800 H 369.248 -2.85734 -1.58189 0
M  V30 3801 H 367.907 -3.64409 0.400184 0
M  V30 3802 H 367.555 -4.67746 -1.84994 0
M  V30 3803 H 367.255 -5.85081 -0.543464 0
M  V30 3804 H 368.779 -5.9257 -1.47288 0
M  V30 3805 H 370.193 -5.67899 0.785118 0
M  V30 3806 H 368.59 -5.7925 1.56812 0
M  V30 3807 H 369.66 -4.4347 1.96118 0
M  V30 3808 N 371.003 -0.499398 -1.49478 0
M  V30 3809 C 371.966 0.268838 -2.27618 0
M  V30 3810 C 372.966 0.895383 -1.33565 0
M  V30 3811 O 374.156 0.760164 -1.56739 0
M  V30 3812 C 371.288 1.38559 -3.11471 0
M  V30 3813 H 372.481 -0.416812 -2.96989 0
M  V30 3814 H 370.034 -0.254313 -1.54217 0
M  V30 3815 H 370.769 2.10544 -2.46661 0
M  V30 3816 H 370.554 0.941797 -3.80621 0
M  V30 3817 H 372.044 1.92678 -3.70493 0
M  V30 3818 N 372.481 1.55866 -0.233164 0
M  V30 3819 C 373.728 1.98603 0.395374 0
M  V30 3820 C 374.056 1.12105 1.58942 0
M  V30 3821 O 373.311 0.168656 1.94972 0
M  V30 3822 C 373.61 3.46856 0.861724 0
M  V30 3823 C 373.276 4.50348 -0.223066 0
M  V30 3824 C 371.938 4.78371 -0.521038 0
M  V30 3825 C 374.29 5.12355 -0.956124 0
M  V30 3826 C 371.618 5.6568 -1.55638 0
M  V30 3827 C 373.97 6.00786 -1.98089 0
M  V30 3828 C 372.634 6.27148 -2.28565 0
M  V30 3829 H 371.904 0.726739 0.144677 0
M  V30 3830 H 374.551 1.88491 -0.338114 0
M  V30 3831 H 372.856 3.5423 1.67418 0
M  V30 3832 H 374.553 3.77302 1.35809 0
M  V30 3833 H 371.143 4.28596 0.0193234 0
M  V30 3834 H 375.327 4.90765 -0.739166 0
M  V30 3835 H 370.583 5.84365 -1.798 0
M  V30 3836 H 374.757 6.4788 -2.55391 0
M  V30 3837 H 372.384 6.94597 -3.08932 0
M  V30 3838 N 373.959 -0.0401083 1.57549 0
M  V30 3839 C 375.205 -0.734211 1.89043 0
M  V30 3840 C 375.538 -1.75591 0.829535 0
M  V30 3841 O 374.813 -1.93868 -0.156706 0
M  V30 3842 C 375.096 -1.41374 3.31188 0
M  V30 3843 C 374.949 -0.406299 4.47961 0
M  V30 3844 C 376.268 -2.35061 3.72068 0
M  V30 3845 H 373.387 -0.265447 0.687537 0
M  V30 3846 H 376.029 0.00294087 1.9 0
M  V30 3847 H 374.179 -2.04206 3.30503 0
M  V30 3848 H 375.851 0.219255 4.60779 0
M  V30 3849 H 374.094 0.275485 4.32924 0
M  V30 3850 H 374.765 -0.920022 5.44279 0
M  V30 3851 H 377.241 -1.82282 3.74049 0
M  V30 3852 H 376.117 -2.79593 4.72355 0
M  V30 3853 H 376.378 -3.21258 3.0372 0
M  V30 3854 N 375.437 -1.54477 -0.31217 0
M  V30 3855 C 376.385 -1.85395 -1.40469 0
M  V30 3856 C 377.379 -0.726749 -1.53019 0
M  V30 3857 O 378.585 -0.910582 -1.55269 0
M  V30 3858 H 374.96 -0.587845 -0.46898 0
M  V30 3859 H 376.931 -2.76736 -1.11623 0
M  V30 3860 C 375.68 -2.10811 -2.76503 0
M  V30 3861 H 375.003 -2.97014 -2.67625 0
M  V30 3862 H 376.443 -2.3639 -3.51988 0
M  V30 3863 C 374.902 -0.903165 -3.24568 0
M  V30 3864 O 375.432 -0.118085 -4.01526 0
M  V30 3865 N 373.638 -0.711634 -2.81752 0
M  V30 3866 H 373.185 -1.35171 -2.19286 0
M  V30 3867 H 373.143 0.0930473 -3.14262 0
M  V30 3868 N 376.915 0.57481 -1.46744 0
M  V30 3869 C 378.143 1.35856 -1.56047 0
M  V30 3870 C 378.558 1.87691 -0.204365 0
M  V30 3871 O 377.915 1.64049 0.79963 0
M  V30 3872 C 377.966 2.54066 -2.57163 0
M  V30 3873 O 377.687 2.04377 -3.87507 0
M  V30 3874 C 379.188 3.46514 -2.76483 0
M  V30 3875 H 376.408 0.414754 -0.527466 0
M  V30 3876 H 378.952 0.698035 -1.92218 0
M  V30 3877 H 377.107 3.16092 -2.23974 0
M  V30 3878 H 377.521 2.81419 -4.4261 0
M  V30 3879 H 378.995 4.25919 -3.51137 0
M  V30 3880 H 379.472 3.98951 -1.83671 0
M  V30 3881 H 380.078 2.90318 -3.10799 0
M  V30 3882 N 378.394 1.34581 0.820102 0
M  V30 3883 C 379.64 1.27285 1.57881 0
M  V30 3884 C 379.973 -0.156137 1.93571 0
M  V30 3885 O 379.248 -1.10222 1.60254 0
M  V30 3886 C 379.531 2.16639 2.87645 0
M  V30 3887 C 379.384 3.68088 2.58517 0
M  V30 3888 C 380.703 2.05378 3.8924 0
M  V30 3889 H 377.822 0.463714 0.572833 0
M  V30 3890 H 380.464 1.64859 0.944539 0
M  V30 3891 H 378.614 1.84725 3.41773 0
M  V30 3892 H 380.286 4.10382 2.10676 0
M  V30 3893 H 378.529 3.89038 1.91917 0
M  V30 3894 H 379.2 4.2598 3.51063 0
M  V30 3895 H 381.676 2.33404 3.44473 0
M  V30 3896 H 380.552 2.7012 4.77835 0
M  V30 3897 H 380.813 1.0316 4.29896 0
M  V30 3898 N 379.872 -1.04064 1.18357 0
M  V30 3899 C 381.118 -1.77528 0.980397 0
M  V30 3900 C 381.451 -1.87948 -0.48879 0
M  V30 3901 O 380.726 -1.3876 -1.36293 0
M  V30 3902 C 381.009 -3.20797 1.63588 0
M  V30 3903 C 380.862 -3.1832 3.17793 0
M  V30 3904 C 382.181 -4.18911 1.34914 0
M  V30 3905 H 379.3 -0.644443 0.357578 0
M  V30 3906 H 381.942 -1.2156 1.46024 0
M  V30 3907 H 380.092 -3.68586 1.22788 0
M  V30 3908 H 381.764 -2.78521 3.67728 0
M  V30 3909 H 380.007 -2.56351 3.49952 0
M  V30 3910 H 380.678 -4.19489 3.58794 0
M  V30 3911 H 383.154 -3.7967 1.70265 0
M  V30 3912 H 382.03 -5.17374 1.83346 0
M  V30 3913 H 382.291 -4.41262 0.272027 0
M  V30 3914 N 381.35 -0.985608 -1.22978 0
M  V30 3915 C 382.313 -0.535071 -2.22867 0
M  V30 3916 C 383.313 0.378123 -1.56291 0
M  V30 3917 O 384.503 0.171092 -1.73358 0
M  V30 3918 C 381.635 0.222702 -3.40172 0
M  V30 3919 H 382.828 -1.41835 -2.6424 0
M  V30 3920 H 380.381 -0.772042 -1.35901 0
M  V30 3921 H 381.116 1.12229 -3.04262 0
M  V30 3922 H 380.901 -0.43288 -3.89703 0
M  V30 3923 H 382.391 0.526335 -4.1427 0
M  V30 3924 N 382.828 1.3818 -0.7579 0
M  V30 3925 C 384.056 2.04301 -0.326937 0
M  V30 3926 C 384.471 1.57163 1.0462 0
M  V30 3927 O 383.828 0.746626 1.66529 0
M  V30 3928 C 383.879 3.59846 -0.345363 0
M  V30 3929 O 383.6 4.05256 -1.66432 0
M  V30 3930 C 385.101 4.4319 0.098927 0
M  V30 3931 H 382.321 0.656443 -0.139012 0
M  V30 3932 H 384.865 1.76786 -1.02796 0
M  V30 3933 H 383.02 3.86182 0.306955 0
M  V30 3934 H 383.434 4.99709 -1.59345 0
M  V30 3935 H 384.908 5.51989 0.0348745 0
M  V30 3936 H 385.385 4.23947 1.14741 0
M  V30 3937 H 385.991 4.22051 -0.52468 0
M  V30 3938 N 384.306 0.507319 1.49211 0
M  V30 3939 C 385.269 -0.256763 2.27757 0
M  V30 3940 C 386.269 -0.888287 1.34038 0
M  V30 3941 O 387.459 -0.751841 1.5714 0
M  V30 3942 C 384.591 -1.36905 3.12202 0
M  V30 3943 H 385.784 0.432557 2.96764 0
M  V30 3944 H 383.337 0.262488 1.5408 0
M  V30 3945 H 384.072 -2.09233 2.47775 0
M  V30 3946 H 383.857 -0.921599 3.81115 0
M  V30 3947 H 385.347 -1.9071 3.7151 0
M  V30 3948 N 385.784 -1.5574 0.241426 0
M  V30 3949 C 386.747 -2.19877 -0.647063 0
M  V30 3950 C 387.747 -1.16642 -1.10686 0
M  V30 3951 O 388.937 -1.41757 -1.01245 0
M  V30 3952 C 386.069 -2.83797 -1.88871 0
M  V30 3953 H 387.262 -2.99772 -0.087574 0
M  V30 3954 H 384.815 -1.56298 -0.00813574 0
M  V30 3955 H 385.55 -2.07824 -2.48957 0
M  V30 3956 H 385.335 -3.59414 -1.56728 0
M  V30 3957 H 386.825 -3.32898 -2.52129 0
M  V30 3958 N 387.262 0.0317525 -1.57568 0
M  V30 3959 C 388.225 1.01783 -2.0536 0
M  V30 3960 C 389.225 1.29203 -0.957253 0
M  V30 3961 O 390.415 1.24251 -1.22095 0
M  V30 3962 C 387.547 2.35137 -2.46827 0
M  V30 3963 H 388.74 0.605062 -2.93733 0
M  V30 3964 H 386.293 0.278514 -1.53799 0
M  V30 3965 H 387.028 2.81168 -1.61602 0
M  V30 3966 H 386.813 2.16566 -3.26866 0
M  V30 3967 H 388.303 3.05938 -2.84239 0
M  V30 3968 N 388.74 1.54641 0.303973 0
M  V30 3969 C 389.989 1.7299 1.03717 0
M  V30 3970 C 390.302 0.521168 1.88529 0
M  V30 3971 O 391.508 0.586408 2.65092 0
M  V30 3972 C 389.964 3.06051 1.89369 0
M  V30 3973 C 389.572 4.34393 1.09574 0
M  V30 3974 C 391.316 3.3376 2.62306 0
M  V30 3975 C 389.223 5.58506 1.94486 0
M  V30 3976 H 388.153 0.64473 0.390947 0
M  V30 3977 H 390.804 1.81124 0.294328 0
M  V30 3978 H 389.186 2.91874 2.67629 0
M  V30 3979 H 390.36 4.59396 0.359485 0
M  V30 3980 H 388.675 4.13597 0.482324 0
M  V30 3981 H 391.272 4.23687 3.26181 0
M  V30 3982 H 391.615 2.52503 3.3098 0
M  V30 3983 H 392.148 3.48894 1.91097 0
M  V30 3984 H 388.887 6.42422 1.30287 0
M  V30 3985 H 388.407 5.37694 2.65792 0
M  V30 3986 H 390.086 5.95651 2.52605 0
M  V30 3987 N 390.218 -0.567019 1.47046 0
M  V30 3988 C 391.148 -1.68482 1.61667 0
M  V30 3989 C 392.129 -1.6358 0.466418 0
M  V30 3990 O 393.314 -1.81354 0.694574 0
M  V30 3991 C 390.444 -3.07124 1.62148 0
M  V30 3992 C 389.398 -3.26867 2.76301 0
M  V30 3993 C 388.724 -4.66196 2.61849 0
M  V30 3994 C 390.024 -3.13186 4.17986 0
M  V30 3995 H 391.718 -1.56502 2.5524 0
M  V30 3996 H 389.264 -0.751486 1.22836 0
M  V30 3997 H 391.217 -3.8516 1.70968 0
M  V30 3998 H 389.941 -3.2004 0.651287 0
M  V30 3999 H 388.6 -2.51237 2.66975 0
M  V30 4000 H 388.248 -4.75898 1.62879 0
M  V30 4001 H 387.948 -4.80356 3.38425 0
M  V30 4002 H 389.472 -5.46379 2.72584 0
M  V30 4003 H 390.886 -3.81049 4.2834 0
M  V30 4004 H 389.283 -3.3886 4.95272 0
M  V30 4005 H 390.353 -2.10057 4.3704 0
M  V30 4006 N 391.696 -1.35014 -0.812953 0
M  V30 4007 C 392.944 -1.27678 -1.56661 0
M  V30 4008 C 393.265 0.150359 -1.94419 0
M  V30 4009 O 392.535 1.08532 -1.63088 0
M  V30 4010 H 391.115 -0.469602 -0.580933 0
M  V30 4011 H 393.777 -1.69043 -0.970076 0
M  V30 4012 H 392.873 -1.88833 -2.48492 0
M  V30 4013 N 393.175 1.03435 -1.18907 0
M  V30 4014 C 394.421 1.7713 -0.99982 0
M  V30 4015 C 394.776 1.86695 0.465049 0
M  V30 4016 O 394.069 1.36866 1.34083 0
M  V30 4017 C 394.263 3.19792 -1.59586 0
M  V30 4018 C 394.092 3.24134 -3.11717 0
M  V30 4019 C 392.862 3.32398 -3.80578 0
M  V30 4020 C 395.06 3.11625 -4.09138 0
M  V30 4021 N 393.042 3.26055 -5.20155 0
M  V30 4022 C 394.413 3.12855 -5.35277 0
M  V30 4023 C 396.468 2.95713 -4.00572 0
M  V30 4024 C 395.171 2.99805 -6.53842 0
M  V30 4025 C 397.197 2.84011 -5.1874 0
M  V30 4026 C 396.559 2.8589 -6.43775 0
M  V30 4027 H 392.658 0.659683 -0.419931 0
M  V30 4028 H 395.242 1.2317 -1.50789 0
M  V30 4029 H 393.413 3.72085 -1.11389 0
M  V30 4030 H 395.145 3.81819 -1.3415 0
M  V30 4031 H 391.9 3.38392 -3.31342 0
M  V30 4032 H 392.324 3.26307 -5.93172 0
M  V30 4033 H 396.966 2.93086 -3.0473 0
M  V30 4034 H 394.684 3.01184 -7.49876 0
M  V30 4035 H 398.27 2.72744 -5.13909 0
M  V30 4036 H 397.15 2.76931 -7.33675 0
M  V30 4037 N 394.653 0.992116 1.22453 0
M  V30 4038 C 395.902 0.662992 1.90492 0
M  V30 4039 C 396.215 -0.808407 1.78113 0
M  V30 4040 O 397.421 -1.24908 2.41061 0
M  V30 4041 C 395.877 1.1353 3.41524 0
M  V30 4042 C 395.485 2.63187 3.62542 0
M  V30 4043 C 397.229 0.880465 4.15269 0
M  V30 4044 C 395.136 3.04024 5.0727 0
M  V30 4045 H 394.066 0.244278 0.713333 0
M  V30 4046 H 396.717 1.20157 1.38688 0
M  V30 4047 H 395.099 0.52485 3.92506 0
M  V30 4048 H 396.273 3.2957 3.22056 0
M  V30 4049 H 394.588 2.86543 3.02129 0
M  V30 4050 H 397.185 1.16128 5.21937 0
M  V30 4051 H 397.528 -0.183408 4.15896 0
M  V30 4052 H 398.061 1.45307 3.70312 0
M  V30 4053 H 394.8 4.09584 5.11782 0
M  V30 4054 H 394.32 2.42343 5.48662 0
M  V30 4055 H 395.999 2.95282 5.75689 0
M  V30 4056 N 396.131 -1.37776 0.765217 0
M  V30 4057 C 397.378 -1.99849 0.326588 0
M  V30 4058 C 397.706 -1.60746 -1.09504 0
M  V30 4059 O 396.961 -0.84202 -1.76659 0
M  V30 4060 C 397.26 -3.5504 0.410053 0
M  V30 4061 C 396.926 -4.13891 1.78899 0
M  V30 4062 C 395.588 -4.29678 2.16635 0
M  V30 4063 C 397.94 -4.46236 2.69301 0
M  V30 4064 C 395.268 -4.7511 3.44221 0
M  V30 4065 C 397.62 -4.93089 3.9629 0
M  V30 4066 C 396.284 -5.07082 4.34078 0
M  V30 4067 H 395.554 -0.7313 0.119507 0
M  V30 4068 H 398.201 -1.64645 0.977968 0
M  V30 4069 H 396.506 -3.90451 -0.324878 0
M  V30 4070 H 398.203 -4.00966 0.0520699 0
M  V30 4071 H 394.793 -4.02026 1.48569 0
M  V30 4072 H 398.977 -4.3363 2.41409 0
M  V30 4073 H 394.233 -4.84129 3.73402 0
M  V30 4074 H 398.407 -5.17084 4.66472 0
M  V30 4075 H 396.034 -5.42046 5.33001 0
M  V30 4076 N 397.609 -0.515225 -1.4894 0
M  V30 4077 C 398.857 0.0241671 -2.02086 0
M  V30 4078 C 399.178 1.3616 -1.3959 0
M  V30 4079 O 398.448 1.87841 -0.556121 0
M  V30 4080 H 397.028 0.0119203 -0.746905 0
M  V30 4081 H 399.69 -0.675702 -1.82812 0
M  V30 4082 H 398.786 0.143385 -3.1177 0
M  V30 4083 N 399.087 1.5561 -0.249682 0
M  V30 4084 C 399.997 2.25143 0.659375 0
M  V30 4085 C 401.013 1.2685 1.19101 0
M  V30 4086 O 402.189 1.59732 1.22669 0
M  V30 4087 C 399.254 2.93945 1.8384 0
M  V30 4088 C 398.315 4.07655 1.34596 0
M  V30 4089 C 397.548 4.73167 2.46878 0
M  V30 4090 O 397.771 4.37768 3.65671 0
M  V30 4091 O 396.705 5.61623 2.16478 0
M  V30 4092 H 400.531 3.03545 0.0968698 0
M  V30 4093 H 398.116 1.49389 -0.018074 0
M  V30 4094 H 399.998 3.37271 2.52638 0
M  V30 4095 H 398.673 2.18481 2.38847 0
M  V30 4096 H 397.58 3.68839 0.625174 0
M  V30 4097 H 398.913 4.84946 0.841941 0
M  V30 4098 N 400.565 -0.0233959 1.57583 0
M  V30 4099 C 401.811 -0.708611 1.90657 0
M  V30 4100 C 402.166 -1.7266 0.848895 0
M  V30 4101 O 401.459 -1.91075 -0.141749 0
M  V30 4102 C 401.653 -1.41428 3.28227 0
M  V30 4103 C 401.482 -0.466155 4.47277 0
M  V30 4104 C 400.252 -0.085117 5.05228 0
M  V30 4105 C 402.45 0.257836 5.13653 0
M  V30 4106 N 400.432 0.863672 6.07794 0
M  V30 4107 C 401.803 1.06209 6.10835 0
M  V30 4108 C 403.858 0.324174 4.96844 0
M  V30 4109 C 402.561 1.9266 6.93018 0
M  V30 4110 C 404.587 1.17583 5.79593 0
M  V30 4111 C 403.949 1.96799 6.7635 0
M  V30 4112 H 400.048 -0.233222 0.746412 0
M  V30 4113 H 402.632 0.0314512 1.94675 0
M  V30 4114 H 400.803 -2.12477 3.25128 0
M  V30 4115 H 402.535 -2.05233 3.488 0
M  V30 4116 H 399.29 -0.448516 4.71471 0
M  V30 4117 H 399.714 1.33274 6.63752 0
M  V30 4118 H 404.356 -0.273975 4.21911 0
M  V30 4119 H 402.074 2.53552 7.67292 0
M  V30 4120 H 405.66 1.23076 5.68633 0
M  V30 4121 H 404.54 2.61635 7.39268 0
M  V30 4122 N 402.043 -1.548 -0.295768 0
M  V30 4123 C 403.006 -1.85363 -1.34808 0
M  V30 4124 C 404.006 -0.726817 -1.43436 0
M  V30 4125 O 405.196 -0.995088 -1.42981 0
M  V30 4126 C 402.328 -2.03859 -2.73229 0
M  V30 4127 H 403.521 -2.7941 -1.08949 0
M  V30 4128 H 401.074 -1.46942 -0.532702 0
M  V30 4129 H 401.809 -1.12117 -3.04303 0
M  V30 4130 H 401.594 -2.8588 -2.68356 0
M  V30 4131 H 403.084 -2.28857 -3.49305 0
M  V30 4132 N 403.521 0.559213 -1.47345 0
M  V30 4133 C 404.451 1.67622 -1.62558 0
M  V30 4134 C 405.432 1.63331 -0.475087 0
M  V30 4135 O 406.617 1.80983 -0.704182 0
M  V30 4136 C 403.747 3.0626 -1.63774 0
M  V30 4137 C 402.701 3.25397 -2.7803 0
M  V30 4138 C 402.027 4.64801 -2.64318 0
M  V30 4139 C 403.327 3.10965 -4.19641 0
M  V30 4140 H 405.021 1.55146 -2.56067 0
M  V30 4141 H 402.567 0.744961 -1.23233 0
M  V30 4142 H 404.52 3.84247 -1.73008 0
M  V30 4143 H 403.244 3.1969 -0.66825 0
M  V30 4144 H 401.903 2.49817 -2.68304 0
M  V30 4145 H 401.551 4.75028 -1.65401 0
M  V30 4146 H 401.251 4.78555 -3.40968 0
M  V30 4147 H 402.775 5.44926 -2.75478 0
M  V30 4148 H 404.189 3.78772 -4.30354 0
M  V30 4149 H 402.586 3.36229 -4.97062 0
M  V30 4150 H 403.656 2.07736 -4.38148 0
M  V30 4151 N 404.999 1.35443 0.805782 0
M  V30 4152 C 406.415 1.15499 1.10146 0
M  V30 4153 C 406.615 -0.0319975 2.01475 0
M  V30 4154 O 405.671 -0.70236 2.42535 0
M  V30 4155 C 406.984 2.45833 1.73166 0
M  V30 4156 C 408.532 2.52047 1.85583 0
M  V30 4157 C 409.007 3.82427 2.52019 0
M  V30 4158 N 410.498 3.83682 2.59504 0
M  V30 4159 C 411.233 4.81294 3.11679 0
M  V30 4160 N 410.729 5.89294 3.64287 0
M  V30 4161 N 412.522 4.6873 3.1024 0
M  V30 4162 H 404.673 2.11469 0.198678 0
M  V30 4163 H 406.936 0.93594 0.150731 0
M  V30 4164 H 406.642 3.32874 1.13526 0
M  V30 4165 H 406.516 2.6044 2.72857 0
M  V30 4166 H 408.903 1.65435 2.44367 0
M  V30 4167 H 408.984 2.41354 0.847455 0
M  V30 4168 H 408.628 4.69437 1.93885 0
M  V30 4169 H 408.558 3.90409 3.53395 0
M  V30 4170 H 411.049 3.05648 2.22234 0
M  V30 4171 H 411.362 6.59768 4.02401 0
M  V30 4172 H 409.707 5.92985 3.62483 0
M  V30 4173 H 412.898 3.83496 2.68419 0
M  V30 4174 H 413.071 5.44965 3.50596 0
M  V30 4175 N 406.477 -1.02803 1.19454 0
M  V30 4176 C 407.725 -1.75869 0.995722 0
M  V30 4177 C 408.046 -1.89138 -0.474543 0
M  V30 4178 O 407.316 -1.42558 -1.34366 0
M  V30 4179 H 405.896 -0.651511 0.365435 0
M  V30 4180 H 408.558 -1.24004 1.50363 0
M  V30 4181 H 407.654 -2.76661 1.44447 0
M  V30 4182 N 407.956 -0.998596 -1.21925 0
M  V30 4183 C 408.903 -0.553621 -2.24062 0
M  V30 4184 C 409.873 0.416999 -1.6078 0
M  V30 4185 O 411.058 0.320482 -1.88089 0
M  V30 4186 C 408.198 0.119959 -3.44891 0
M  V30 4187 C 407.311 -0.893077 -4.22668 0
M  V30 4188 C 406.446 -0.192424 -5.30851 0
M  V30 4189 C 405.485 -1.19344 -6.00353 0
M  V30 4190 N 404.622 -0.520707 -7.00166 0
M  V30 4191 H 409.462 -1.4293 -2.61486 0
M  V30 4192 H 406.999 -0.715838 -1.28507 0
M  V30 4193 H 408.957 0.527459 -4.13852 0
M  V30 4194 H 407.587 0.959389 -3.08214 0
M  V30 4195 H 406.639 -1.41886 -3.52948 0
M  V30 4196 H 407.951 -1.65512 -4.70539 0
M  V30 4197 H 407.105 0.271515 -6.06092 0
M  V30 4198 H 405.844 0.602075 -4.83969 0
M  V30 4199 H 404.849 -1.66795 -5.23889 0
M  V30 4200 H 406.074 -1.98891 -6.49322 0
M  V30 4201 H 404.02 0.254252 -6.55507 0
M  V30 4202 H 403.937 -1.2211 -7.46073 0
M  V30 4203 H 405.205 -0.0797596 -7.79459 0
M  V30 4204 N 409.434 1.37368 -0.772513 0
M  V30 4205 C 410.845 1.8231 -0.402493 0
M  V30 4206 C 411.196 1.6436 1.07146 0
M  V30 4207 O 410.321 1.15514 1.82991 0
M  V30 4208 C 410.916 3.30979 -0.723776 0
M  V30 4209 C 409.475 3.74195 -0.406802 0
M  V30 4210 C 408.622 2.59885 -0.967218 0
M  V30 4211 H 411.573 1.25829 -0.967099 0
M  V30 4212 H 411.594 3.80499 -0.00870832 0
M  V30 4213 H 411.106 3.44011 -1.7966 0
M  V30 4214 H 409.207 3.66732 0.658673 0
M  V30 4215 H 409.32 4.7027 -0.915588 0
M  V30 4216 H 407.684 2.51674 -0.391416 0
M  V30 4217 H 408.467 2.7571 -2.04546 0
M  V30 4218 N 410.912 0.523116 1.48665 0
M  V30 4219 C 412.137 -0.0117284 2.07397 0
M  V30 4220 C 412.562 -1.28031 1.37803 0
M  V30 4221 O 411.92 -1.75836 0.441762 0
M  V30 4222 C 411.968 -0.225786 3.59892 0
M  V30 4223 O 411.072 -1.29592 3.91509 0
M  V30 4224 H 410.413 0.0360673 0.66302 0
M  V30 4225 H 412.943 0.729066 1.9117 0
M  V30 4226 H 412.953 -0.450552 4.05505 0
M  V30 4227 H 411.628 0.700944 4.09951 0
M  V30 4228 H 410.205 -1.05436 3.57684 0
M  V30 4229 N 412.39 -1.55475 0.257931 0
M  V30 4230 C 413.32 -2.24815 -0.630912 0
M  V30 4231 C 414.301 -1.23224 -1.17259 0
M  V30 4232 O 415.486 -1.51904 -1.20991 0
M  V30 4233 C 412.616 -2.95609 -1.82298 0
M  V30 4234 C 411.57 -4.03982 -1.41359 0
M  V30 4235 C 410.896 -4.6226 -2.68738 0
M  V30 4236 C 412.196 -5.19109 -0.57648 0
M  V30 4237 H 413.89 -2.99354 -0.0526878 0
M  V30 4238 H 411.436 -1.4398 -0.023901 0
M  V30 4239 H 413.389 -3.42822 -2.45054 0
M  V30 4240 H 412.113 -2.18577 -2.42676 0
M  V30 4241 H 410.772 -3.57555 -0.809324 0
M  V30 4242 H 410.42 -3.81915 -3.27338 0
M  V30 4243 H 410.12 -5.35424 -2.42065 0
M  V30 4244 H 411.644 -5.12212 -3.32372 0
M  V30 4245 H 413.058 -5.62479 -1.10861 0
M  V30 4246 H 411.455 -5.98729 -0.405351 0
M  V30 4247 H 412.525 -4.83174 0.408776 0
M  V30 4248 N 413.868 0.0150385 -1.57593 0
M  V30 4249 C 414.798 1.01047 -2.10503 0
M  V30 4250 C 415.779 1.36816 -1.01071 0
M  V30 4251 O 416.964 1.45455 -1.28672 0
M  V30 4252 C 414.094 2.30708 -2.59598 0
M  V30 4253 C 413.048 2.09142 -3.73421 0
M  V30 4254 C 412.374 3.44685 -4.08774 0
M  V30 4255 C 413.674 1.46619 -5.01298 0
M  V30 4256 H 415.368 0.569978 -2.93925 0
M  V30 4257 H 412.914 0.272724 -1.41394 0
M  V30 4258 H 414.867 3.00687 -2.95238 0
M  V30 4259 H 413.591 2.76843 -1.73279 0
M  V30 4260 H 412.25 1.41592 -3.38153 0
M  V30 4261 H 411.898 3.88495 -3.195 0
M  V30 4262 H 411.598 3.31077 -4.8545 0
M  V30 4263 H 413.122 4.16004 -4.4696 0
M  V30 4264 H 414.536 2.06535 -5.34805 0
M  V30 4265 H 412.933 1.43544 -5.82679 0
M  V30 4266 H 414.003 0.433611 -4.82957 0
M  V30 4267 N 415.346 1.54954 0.287554 0
M  V30 4268 C 416.594 1.74528 1.01904 0
M  V30 4269 C 416.915 0.541349 1.87335 0
M  V30 4270 O 416.185 -0.444108 1.908 0
M  V30 4271 H 414.765 0.643576 0.379235 0
M  V30 4272 H 417.427 1.92333 0.315294 0
M  V30 4273 H 416.523 2.64015 1.6644 0
M  V30 4274 N 416.824 -0.551391 1.4764 0
M  V30 4275 C 417.787 -1.64007 1.60107 0
M  V30 4276 C 418.787 -1.53601 0.47576 0
M  V30 4277 O 419.977 -1.57655 0.740988 0
M  V30 4278 C 417.109 -3.03569 1.55108 0
M  V30 4279 H 418.302 -1.543 2.57161 0
M  V30 4280 H 415.855 -0.771776 1.35917 0
M  V30 4281 H 416.59 -3.18804 0.594519 0
M  V30 4282 H 416.375 -3.12532 2.36783 0
M  V30 4283 H 417.865 -3.82762 1.66982 0
M  V30 4284 N 418.302 -1.35869 -0.798587 0
M  V30 4285 C 419.542 -1.30961 -1.56935 0
M  V30 4286 C 419.906 0.112404 -1.91671 0
M  V30 4287 O 421.107 0.285937 -2.67275 0
M  V30 4288 C 419.378 -2.19811 -2.81811 0
M  V30 4289 S 420.937 -2.32498 -3.72143 0
M  V30 4290 H 417.755 -0.465297 -0.537606 0
M  V30 4291 H 420.357 -1.71344 -0.941346 0
M  V30 4292 H 419.061 -3.22095 -2.54329 0
M  V30 4293 H 418.592 -1.80415 -3.49591 0
M  V30 4294 H 420.607 -1.5157 -4.72484 0
M  V30 4295 N 419.78 1.02168 -1.19998 0
M  V30 4296 C 421.005 1.79833 -1.03319 0
M  V30 4297 C 421.43 1.83504 0.413281 0
M  V30 4298 O 420.788 1.26635 1.29743 0
M  V30 4299 C 420.836 3.22396 -1.61533 0
M  V30 4300 O 419.94 4.03555 -0.849519 0
M  V30 4301 H 419.281 0.554872 -0.364709 0
M  V30 4302 H 421.811 1.28542 -1.59179 0
M  V30 4303 H 421.821 3.73124 -1.65054 0
M  V30 4304 H 420.496 3.19039 -2.66809 0
M  V30 4305 H 419.073 3.62169 -0.888129 0
M  V30 4306 N 421.258 1.00505 1.21394 0
M  V30 4307 C 422.506 0.686415 1.90086 0
M  V30 4308 C 422.827 -0.785264 1.7849 0
M  V30 4309 O 422.097 -1.56387 1.17983 0
M  V30 4310 H 420.677 0.2509 0.703604 0
M  V30 4311 H 423.339 1.27417 1.47482 0
M  V30 4312 H 422.435 0.959621 2.96981 0
M  V30 4313 N 422.737 -1.36956 0.779787 0
M  V30 4314 C 423.7 -2.2851 0.177662 0
M  V30 4315 C 424.7 -1.48393 -0.619377 0
M  V30 4316 O 425.89 -1.68505 -0.441785 0
M  V30 4317 C 423.022 -3.32428 -0.755279 0
M  V30 4318 H 424.215 -2.83269 0.984823 0
M  V30 4319 H 421.768 -1.46358 0.548544 0
M  V30 4320 H 422.503 -2.82808 -1.58714 0
M  V30 4321 H 422.288 -3.91659 -0.185817 0
M  V30 4322 H 423.778 -4.00824 -1.17174 0
M  V30 4323 N 424.215 -0.530993 -1.48385 0
M  V30 4324 C 425.464 0.00474348 -2.01699 0
M  V30 4325 C 425.777 1.35227 -1.41325 0
M  V30 4326 O 426.983 1.97643 -1.86144 0
M  V30 4327 C 425.439 0.0588473 -3.59852 0
M  V30 4328 C 425.047 -1.28385 -4.2921 0
M  V30 4329 C 426.791 0.543358 -4.21008 0
M  V30 4330 C 424.698 -1.19028 -5.79298 0
M  V30 4331 H 423.628 0.00554317 -0.75398 0
M  V30 4332 H 426.279 -0.674924 -1.70637 0
M  V30 4333 H 424.661 0.803612 -3.8776 0
M  V30 4334 H 425.835 -2.04426 -4.12973 0
M  V30 4335 H 424.15 -1.70418 -3.7993 0
M  V30 4336 H 426.747 0.631351 -5.3096 0
M  V30 4337 H 427.09 1.54937 -3.86394 0
M  V30 4338 H 427.623 -0.145754 -3.97533 0
M  V30 4339 H 424.362 -2.17147 -6.18488 0
M  V30 4340 H 423.882 -0.471246 -5.97946 0
M  V30 4341 H 425.561 -0.881365 -6.40969 0
M  V30 4342 N 425.693 1.55336 -0.266172 0
M  V30 4343 C 426.656 2.20878 0.612001 0
M  V30 4344 C 427.656 1.18388 1.08816 0
M  V30 4345 O 428.846 1.4335 0.989774 0
M  V30 4346 C 425.978 2.86765 1.84332 0
M  V30 4347 H 427.171 2.99873 0.0398718 0
M  V30 4348 H 424.724 1.56291 -0.0167309 0
M  V30 4349 H 425.459 2.11759 2.45619 0
M  V30 4350 H 425.244 3.61862 1.5099 0
M  V30 4351 H 426.734 3.36867 2.46801 0
M  V30 4352 N 427.171 -0.0066808 1.57599 0
M  V30 4353 C 428.419 -0.691552 1.899 0
M  V30 4354 C 428.74 -1.74682 0.866672 0
M  V30 4355 O 428.01 -1.95661 -0.0968189 0
M  V30 4356 H 426.59 -0.258416 0.700878 0
M  V30 4357 H 429.252 0.0326655 1.94873 0
M  V30 4358 H 428.348 -1.16702 2.8946 0
M  V30 4359 N 428.649 -1.55105 -0.279332 0
M  V30 4360 C 429.579 -1.90557 -1.34945 0
M  V30 4361 C 430.56 -0.766738 -1.51839 0
M  V30 4362 O 431.745 -1.02434 -1.64988 0
M  V30 4363 C 428.875 -2.17193 -2.71006 0
M  V30 4364 C 427.829 -3.33021 -2.68851 0
M  V30 4365 C 427.155 -3.45123 -4.08405 0
M  V30 4366 C 428.455 -4.69578 -2.28678 0
M  V30 4367 H 430.149 -2.80188 -1.05522 0
M  V30 4368 H 427.695 -1.34811 -0.506173 0
M  V30 4369 H 429.648 -2.40581 -3.45975 0
M  V30 4370 H 428.372 -1.24355 -3.01999 0
M  V30 4371 H 427.031 -3.0959 -1.9634 0
M  V30 4372 H 426.679 -2.49762 -4.3661 0
M  V30 4373 H 426.379 -4.22995 -4.07859 0
M  V30 4374 H 427.903 -3.70796 -4.85121 0
M  V30 4375 H 429.317 -4.92553 -2.93368 0
M  V30 4376 H 427.714 -5.5032 -2.39306 0
M  V30 4377 H 428.784 -4.68828 -1.23807 0
M  V30 4378 N 430.127 0.543554 -1.4793 0
M  V30 4379 C 431.373 1.30201 -1.55485 0
M  V30 4380 C 431.706 1.92925 -0.222201 0
M  V30 4381 O 430.981 1.78586 0.77053 0
M  V30 4382 C 431.264 2.40174 -2.68307 0
M  V30 4383 C 431.117 1.8223 -4.11233 0
M  V30 4384 C 432.436 3.42024 -2.76961 0
M  V30 4385 H 429.555 0.472036 -0.565996 0
M  V30 4386 H 432.197 0.606914 -1.80046 0
M  V30 4387 H 430.347 2.99463 -2.47495 0
M  V30 4388 H 432.019 1.27096 -4.43446 0
M  V30 4389 H 430.262 1.12832 -4.18869 0
M  V30 4390 H 430.933 2.61793 -4.85972 0
M  V30 4391 H 433.409 2.92672 -2.95774 0
M  V30 4392 H 432.285 4.16383 -3.57654 0
M  V30 4393 H 432.546 4.0173 -1.84568 0
M  V30 4394 N 431.605 1.3629 0.791371 0
M  V30 4395 C 432.853 1.30154 1.5461 0
M  V30 4396 C 433.174 -0.119409 1.94634 0
M  V30 4397 O 432.444 -1.05924 1.64794 0
M  V30 4398 H 431.024 0.478784 0.573389 0
M  V30 4399 H 433.686 1.70565 0.94306 0
M  V30 4400 H 432.782 1.92762 2.45457 0
M  V30 4401 N 433.083 -1.0153 1.20538 0
M  V30 4402 C 434.329 -1.75408 1.01783 0
M  V30 4403 C 434.662 -1.88943 -0.448814 0
M  V30 4404 O 433.937 -1.4162 -1.33319 0
M  V30 4405 C 434.22 -3.17255 1.70356 0
M  V30 4406 C 434.073 -3.11508 3.24473 0
M  V30 4407 C 435.392 -4.15955 1.43769 0
M  V30 4408 H 432.511 -0.636713 0.371167 0
M  V30 4409 H 435.153 -1.18436 1.4857 0
M  V30 4410 H 433.303 -3.65898 1.30578 0
M  V30 4411 H 434.975 -2.70658 3.73553 0
M  V30 4412 H 433.218 -2.4887 3.55311 0
M  V30 4413 H 433.889 -4.11784 3.67611 0
M  V30 4414 H 436.365 -3.75973 1.7828 0
M  V30 4415 H 435.241 -5.13368 1.94279 0
M  V30 4416 H 435.502 -4.40586 0.365564 0
M  V30 4417 N 434.561 -1.01147 -1.20859 0
M  V30 4418 C 435.789 -0.716911 -1.94082 0
M  V30 4419 C 436.204 0.721568 -1.74467 0
M  V30 4420 O 435.561 1.48889 -1.05539 0
M  V30 4421 C 435.612 -1.03662 -3.46318 0
M  V30 4422 O 435.333 -2.4186 -3.65288 0
M  V30 4423 C 436.834 -0.762386 -4.36695 0
M  V30 4424 H 434.054 -0.26367 -0.617024 0
M  V30 4425 H 436.598 -1.35127 -1.53496 0
M  V30 4426 H 434.753 -0.447757 -3.84804 0
M  V30 4427 H 435.167 -2.53224 -4.59323 0
M  V30 4428 H 436.641 -1.03621 -5.42187 0
M  V30 4429 H 437.118 0.303514 -4.3815 0
M  V30 4430 H 437.724 -1.33316 -4.03865 0
M  V30 4431 N 436.039 1.36541 -0.78704 0
M  V30 4432 C 437.45 1.81873 -0.421807 0
M  V30 4433 C 437.801 1.65487 1.05397 0
M  V30 4434 O 436.926 1.17448 1.81755 0
M  V30 4435 C 437.521 3.30192 -0.758841 0
M  V30 4436 C 436.08 3.73743 -0.446468 0
M  V30 4437 C 435.227 2.58844 -0.994728 0
M  V30 4438 H 438.178 1.24796 -0.98039 0
M  V30 4439 H 438.199 3.80468 -0.0490648 0
M  V30 4440 H 437.711 3.42087 -1.83299 0
M  V30 4441 H 435.812 3.6741 0.619739 0
M  V30 4442 H 435.925 4.69272 -0.965415 0
M  V30 4443 H 434.289 2.51245 -0.418087 0
M  V30 4444 H 435.072 2.73525 -2.07458 0
M  V30 4445 N 437.518 0.538854 1.48102 0
M  V30 4446 C 438.481 -0.208395 2.28251 0
M  V30 4447 C 439.481 -0.859656 1.35892 0
M  V30 4448 O 440.671 -0.71834 1.58699 0
M  V30 4449 C 437.803 -1.30252 3.15035 0
M  V30 4450 H 438.996 0.495407 2.9578 0
M  V30 4451 H 436.549 0.295112 1.53489 0
M  V30 4452 H 437.284 -2.0393 2.52157 0
M  V30 4453 H 437.069 -0.840551 3.82985 0
M  V30 4454 H 438.559 -1.82787 3.75471 0
M  V30 4455 N 438.996 -1.55193 0.274407 0
M  V30 4456 C 440.236 -2.01488 -0.343778 0
M  V30 4457 C 440.6 -1.1586 -1.53103 0
M  V30 4458 O 441.801 -1.51732 -2.2188 0
M  V30 4459 C 440.072 -3.50134 -0.717021 0
M  V30 4460 S 441.631 -4.18417 -1.32184 0
M  V30 4461 H 438.449 -0.70291 -0.106948 0
M  V30 4462 H 441.051 -1.91446 0.396075 0
M  V30 4463 H 439.755 -4.10104 0.155947 0
M  V30 4464 H 439.286 -3.64159 -1.48835 0
M  V30 4465 H 441.301 -4.21984 -2.61044 0
M  V30 4466 N 440.474 -0.00167713 -1.576 0
M  V30 4467 C 441.722 0.681471 -1.90264 0
M  V30 4468 C 442.043 1.7422 -0.875924 0
M  V30 4469 O 441.313 1.95709 0.0864412 0
M  V30 4470 H 439.893 0.254696 -0.702239 0
M  V30 4471 H 442.555 -0.0429996 -1.94853 0
M  V30 4472 H 441.651 1.15166 -2.90075 0
M  V30 4473 N 441.952 1.55251 0.271103 0
M  V30 4474 C 443.182 1.79713 1.01916 0
M  V30 4475 C 443.59 0.571613 1.80359 0
M  V30 4476 O 442.933 -0.468853 1.77616 0
M  V30 4477 C 442.995 2.97138 2.02359 0
M  V30 4478 C 442.659 4.34104 1.42837 0
M  V30 4479 C 443.656 5.13019 0.843071 0
M  V30 4480 C 441.341 4.80765 1.455 0
M  V30 4481 C 443.335 6.36729 0.292333 0
M  V30 4482 C 441.022 6.0443 0.900402 0
M  V30 4483 C 442.02 6.8225 0.32007 0
M  V30 4484 O 441.708 8.03582 -0.226031 0
M  V30 4485 H 441.44 0.602431 0.306681 0
M  V30 4486 H 443.994 2.03097 0.306701 0
M  V30 4487 H 442.224 2.6945 2.77369 0
M  V30 4488 H 443.913 3.08907 2.63309 0
M  V30 4489 H 444.679 4.781 0.815178 0
M  V30 4490 H 440.558 4.20202 1.89609 0
M  V30 4491 H 444.102 6.97414 -0.161274 0
M  V30 4492 H 439.999 6.3883 0.925541 0
M  V30 4493 H 440.767 8.18418 -0.115572 0
M  V30 4494 N 443.43 -0.535701 1.48216 0
M  V30 4495 C 444.679 -1.28828 1.55197 0
M  V30 4496 C 444.992 -1.94263 0.228278 0
M  V30 4497 O 446.198 -2.70927 0.176278 0
M  V30 4498 C 444.654 -2.33727 2.73678 0
M  V30 4499 C 444.262 -1.74386 4.12666 0
M  V30 4500 C 446.006 -3.1003 2.89968 0
M  V30 4501 C 443.913 -2.77192 5.22416 0
M  V30 4502 H 442.843 -0.484484 0.577747 0
M  V30 4503 H 445.494 -0.56646 1.74538 0
M  V30 4504 H 443.876 -3.08919 2.4776 0
M  V30 4505 H 445.05 -1.05421 4.48579 0
M  V30 4506 H 443.365 -1.10595 4.01445 0
M  V30 4507 H 445.962 -3.86842 3.6913 0
M  V30 4508 H 446.305 -3.65542 1.9921 0
M  V30 4509 H 446.838 -2.41952 3.15759 0
M  V30 4510 H 443.577 -2.26507 6.15122 0
M  V30 4511 H 443.097 -3.44502 4.90998 0
M  V30 4512 H 444.776 -3.40285 5.50286 0
M  V30 4513 N 444.908 -1.36708 -0.784132 0
M  V30 4514 C 446.156 -1.30972 -1.53918 0
M  V30 4515 C 446.477 0.109086 -1.94695 0
M  V30 4516 O 445.747 1.05048 -1.65353 0
M  V30 4517 H 444.327 -0.481819 -0.570841 0
M  V30 4518 H 446.989 -1.71063 -0.934002 0
M  V30 4519 H 446.085 -1.94061 -2.44431 0
M  V30 4520 N 446.386 1.0089 -1.21074 0
M  V30 4521 C 447.632 1.74866 -1.02712 0
M  V30 4522 C 447.965 1.89178 0.438787 0
M  V30 4523 O 447.24 1.42325 1.32567 0
M  V30 4524 C 447.523 3.16347 -1.72036 0
M  V30 4525 C 447.376 3.09782 -3.26121 0
M  V30 4526 C 448.695 4.15187 -1.45973 0
M  V30 4527 H 445.814 0.634736 -0.374539 0
M  V30 4528 H 448.456 1.17646 -1.49196 0
M  V30 4529 H 446.606 3.65201 -1.32517 0
M  V30 4530 H 448.278 2.68673 -3.74983 0
M  V30 4531 H 446.521 2.46982 -3.56626 0
M  V30 4532 H 447.192 4.09829 -3.6979 0
M  V30 4533 H 449.668 3.75022 -1.80272 0
M  V30 4534 H 448.544 5.12331 -1.96999 0
M  V30 4535 H 448.805 4.40386 -0.388924 0
M  V30 4536 N 447.864 1.01787 1.20321 0
M  V30 4537 C 449.112 0.706538 1.89347 0
M  V30 4538 C 449.433 -0.766289 1.79313 0
M  V30 4539 O 448.703 -1.55126 1.19635 0
M  V30 4540 H 447.283 0.258348 0.700903 0
M  V30 4541 H 449.945 1.28974 1.46122 0
M  V30 4542 H 449.041 0.991066 2.95946 0
M  V30 4543 N 449.342 -1.36122 0.79427 0
M  V30 4544 C 450.59 -1.98718 0.368177 0
M  V30 4545 C 450.911 -1.63345 -1.06506 0
M  V30 4546 O 450.181 -0.909825 -1.73491 0
M  V30 4547 H 448.761 -0.735038 0.133146 0
M  V30 4548 H 451.423 -1.66239 1.01739 0
M  V30 4549 H 450.519 -3.08633 0.463923 0
M  V30 4550 N 450.82 -0.546701 -1.47814 0
M  V30 4551 C 451.783 0.196287 -2.28358 0
M  V30 4552 C 452.783 0.852437 -1.36346 0
M  V30 4553 O 453.973 0.709913 -1.59078 0
M  V30 4554 C 451.105 1.28579 -3.15722 0
M  V30 4555 H 452.298 -0.511086 -2.95513 0
M  V30 4556 H 449.851 -0.303248 -1.5333 0
M  V30 4557 H 450.586 2.0259 -2.53235 0
M  V30 4558 H 450.371 0.820229 -3.83425 0
M  V30 4559 H 451.861 1.80793 -3.76435 0
M  V30 4560 N 452.299 1.55045 -0.282633 0
M  V30 4561 C 453.229 2.2579 0.595066 0
M  V30 4562 C 454.21 1.25074 1.15284 0
M  V30 4563 O 455.395 1.5381 1.18559 0
M  V30 4564 C 452.525 2.98472 1.77572 0
M  V30 4565 C 451.479 4.0618 1.34914 0
M  V30 4566 C 450.805 4.66477 2.6135 0
M  V30 4567 C 452.105 5.1996 0.493821 0
M  V30 4568 H 453.799 2.994 0.00505653 0
M  V30 4569 H 451.345 1.44 0.000992001 0
M  V30 4570 H 453.298 3.46677 2.39568 0
M  V30 4571 H 452.022 2.2241 2.39168 0
M  V30 4572 H 450.681 3.58797 0.752338 0
M  V30 4573 H 450.329 3.87074 3.2122 0
M  V30 4574 H 450.029 5.39207 2.33516 0
M  V30 4575 H 451.553 5.17435 3.24181 0
M  V30 4576 H 452.967 5.64172 1.01898 0
M  V30 4577 H 451.364 5.99299 0.310047 0
M  V30 4578 H 452.434 4.82462 -0.485593 0
M  V30 4579 N 453.777 0.010035 1.57597 0
M  V30 4580 C 455.026 -0.671945 1.90178 0
M  V30 4581 C 455.339 -1.74376 0.886131 0
M  V30 4582 O 456.545 -2.48107 1.10252 0
M  V30 4583 C 455.001 -1.24636 3.3763 0
M  V30 4584 C 454.609 -0.208838 4.47513 0
M  V30 4585 C 456.353 -1.90595 3.79307 0
M  V30 4586 C 454.26 -0.793814 5.86048 0
M  V30 4587 H 453.19 -0.25474 0.709665 0
M  V30 4588 H 455.841 0.0722206 1.83358 0
M  V30 4589 H 454.223 -2.04152 3.3932 0
M  V30 4590 H 455.397 0.562463 4.57354 0
M  V30 4591 H 453.712 0.350889 4.14919 0
M  V30 4592 H 456.309 -2.35284 4.80151 0
M  V30 4593 H 456.652 -2.74074 3.13352 0
M  V30 4594 H 457.185 -1.17798 3.79958 0
M  V30 4595 H 453.924 0.00240855 6.555 0
M  V30 4596 H 453.444 -1.53404 5.79851 0
M  V30 4597 H 455.123 -1.2894 6.34022 0
M  V30 4598 N 455.255 -1.55392 -0.262866 0
M  V30 4599 C 456.504 -1.75679 -0.990943 0
M  V30 4600 C 456.817 -0.57097 -1.87081 0
M  V30 4601 O 458.023 -0.656486 -2.63444 0
M  V30 4602 C 456.479 -3.10964 -1.81188 0
M  V30 4603 C 456.087 -4.37146 -0.980188 0
M  V30 4604 C 457.831 -3.40597 -2.53365 0
M  V30 4605 C 455.738 -5.63466 -1.7961 0
M  V30 4606 H 454.668 -0.654868 -0.373716 0
M  V30 4607 H 457.319 -1.81841 -0.246203 0
M  V30 4608 H 455.701 -2.98867 -2.59797 0
M  V30 4609 H 456.875 -4.60187 -0.237558 0
M  V30 4610 H 455.19 -4.14731 -0.372497 0
M  V30 4611 H 457.787 -4.32186 -3.14833 0
M  V30 4612 H 458.13 -2.6119 -3.24169 0
M  V30 4613 H 458.663 -3.53838 -1.81779 0
M  V30 4614 H 455.402 -6.4565 -1.13209 0
M  V30 4615 H 454.922 -5.44552 -2.51443 0
M  V30 4616 H 456.601 -6.02139 -2.36723 0
M  V30 4617 N 456.733 0.527833 -1.48498 0
M  V30 4618 C 457.981 1.28101 -1.56316 0
M  V30 4619 C 458.302 1.9352 -0.239781 0
M  V30 4620 O 457.572 1.81433 0.738849 0
M  V30 4621 H 456.152 0.475793 -0.575873 0
M  V30 4622 H 458.814 0.614052 -1.84974 0
M  V30 4623 H 457.91 2.05916 -2.34532 0
M  V30 4624 N 458.211 1.37122 0.776871 0
M  V30 4625 C 459.457 1.32243 1.53752 0
M  V30 4626 C 459.79 -0.0944745 1.9397 0
M  V30 4627 O 459.065 -1.05068 1.6368 0
M  V30 4628 C 459.348 2.25681 2.80607 0
M  V30 4629 C 459.201 3.76127 2.46676 0
M  V30 4630 C 460.52 2.17657 3.82509 0
M  V30 4631 H 457.639 0.481704 0.557791 0
M  V30 4632 H 460.281 1.6778 0.891612 0
M  V30 4633 H 458.431 1.95505 3.35723 0
M  V30 4634 H 460.103 4.16877 1.97513 0
M  V30 4635 H 458.346 3.94946 1.79443 0
M  V30 4636 H 459.017 4.36933 3.37333 0
M  V30 4637 H 461.493 2.44245 3.36873 0
M  V30 4638 H 460.369 2.85185 4.69 0
M  V30 4639 H 460.63 1.16785 4.26396 0
M  V30 4640 N 459.689 -1.00246 1.21608 0
M  V30 4641 C 460.935 -1.74319 1.03638 0
M  V30 4642 C 461.268 -1.89408 -0.428749 0
M  V30 4643 O 460.543 -1.43026 -1.3181 0
M  V30 4644 C 460.826 -3.15431 1.73711 0
M  V30 4645 C 460.679 -3.08049 3.27759 0
M  V30 4646 C 461.998 -4.14407 1.48173 0
M  V30 4647 H 459.117 -0.632741 0.377899 0
M  V30 4648 H 461.759 -1.16853 1.49818 0
M  V30 4649 H 459.909 -3.64493 1.34452 0
M  V30 4650 H 461.581 -2.66681 3.76403 0
M  V30 4651 H 459.824 -2.45088 3.57931 0
M  V30 4652 H 460.495 -4.07862 3.71958 0
M  V30 4653 H 462.971 -3.74061 1.82258 0
M  V30 4654 H 461.847 -5.11279 1.99713 0
M  V30 4655 H 462.108 -4.40174 0.412273 0
M  V30 4656 N 461.167 -1.02423 -1.1978 0
M  V30 4657 C 462.13 -0.605703 -2.21052 0
M  V30 4658 C 463.13 0.328209 -1.57415 0
M  V30 4659 O 464.32 0.115853 -1.73814 0
M  V30 4660 C 461.452 0.114366 -3.40708 0
M  V30 4661 H 462.645 -1.5017 -2.59594 0
M  V30 4662 H 460.198 -0.814888 -1.33376 0
M  V30 4663 H 460.933 1.02492 -3.07678 0
M  V30 4664 H 460.718 -0.556641 -3.88129 0
M  V30 4665 H 462.208 0.394272 -4.15735 0
M  V30 4666 N 462.645 1.35699 -0.801477 0
M  V30 4667 C 463.893 1.9852 -0.37871 0
M  V30 4668 C 464.214 1.63907 1.05638 0
M  V30 4669 O 463.484 0.919013 1.73006 0
M  V30 4670 H 462.064 0.734322 -0.137042 0
M  V30 4671 H 464.726 1.65697 -1.02619 0
M  V30 4672 H 463.822 3.08382 -0.480284 0
M  V30 4673 N 464.123 0.554532 1.47522 0
M  V30 4674 C 465.053 -0.182974 2.32782 0
M  V30 4675 C 466.034 -0.911377 1.43624 0
M  V30 4676 O 467.219 -0.892366 1.72483 0
M  V30 4677 C 464.349 -1.21513 3.25349 0
M  V30 4678 C 463.303 -0.603355 4.23726 0
M  V30 4679 C 462.629 -1.73995 5.05598 0
M  V30 4680 C 463.929 0.441121 5.20434 0
M  V30 4681 H 465.623 0.52882 2.94693 0
M  V30 4682 H 463.169 0.255759 1.41711 0
M  V30 4683 H 465.122 -1.73922 3.83835 0
M  V30 4684 H 463.846 -1.95683 2.61487 0
M  V30 4685 H 462.505 -0.10059 3.66462 0
M  V30 4686 H 462.153 -2.47063 4.38143 0
M  V30 4687 H 461.853 -1.3364 5.72201 0
M  V30 4688 H 463.377 -2.26735 5.66942 0
M  V30 4689 H 464.791 0.00319931 5.733 0
M  V30 4690 H 463.188 0.763402 5.95224 0
M  V30 4691 H 464.258 1.33799 4.66075 0
M  V30 4692 N 465.601 -1.54893 0.290851 0
M  V30 4693 C 466.564 -2.21824 -0.576784 0
M  V30 4694 C 467.564 -1.20104 -1.06919 0
M  V30 4695 O 468.754 -1.44906 -0.966843 0
M  V30 4696 C 465.886 -2.89662 -1.79747 0
M  V30 4697 H 467.079 -2.99899 0.00784051 0
M  V30 4698 H 464.632 -1.56245 0.0415934 0
M  V30 4699 H 465.367 -2.15639 -2.42219 0
M  V30 4700 H 465.152 -3.64219 -1.45214 0
M  V30 4701 H 466.642 -3.4075 -2.4141 0
M  V30 4702 N 467.08 -0.0183926 -1.57589 0
M  V30 4703 C 468.328 0.661253 -1.90976 0
M  V30 4704 C 468.649 1.73281 -0.894353 0
M  V30 4705 O 467.919 1.9579 0.0656788 0
M  V30 4706 H 466.499 0.247233 -0.704901 0
M  V30 4707 H 469.161 -0.0636639 -1.94796 0
M  V30 4708 H 468.257 1.12083 -2.9128 0
M  V30 4709 N 468.558 1.5553 0.254621 0
M  V30 4710 C 469.488 1.9268 1.31897 0
M  V30 4711 C 470.469 0.790797 1.506 0
M  V30 4712 O 471.654 1.05045 1.63337 0
M  V30 4713 C 468.784 2.21477 2.67517 0
M  V30 4714 C 467.738 3.37256 2.63519 0
M  V30 4715 C 467.064 3.51576 4.02862 0
M  V30 4716 C 468.364 4.73157 2.21179 0
M  V30 4717 H 470.058 2.81832 1.01051 0
M  V30 4718 H 467.604 1.35599 0.484662 0
M  V30 4719 H 469.557 2.46055 3.42104 0
M  V30 4720 H 468.281 1.29144 2.99982 0
M  V30 4721 H 466.94 3.12675 1.9139 0
M  V30 4722 H 466.588 2.56676 4.32581 0
M  V30 4723 H 466.288 4.2943 4.01078 0
M  V30 4724 H 467.812 3.78467 4.79161 0
M  V30 4725 H 469.226 4.97158 2.85494 0
M  V30 4726 H 467.623 5.54058 2.30521 0
M  V30 4727 H 468.693 4.70739 1.16332 0
M  V30 4728 N 470.036 -0.519951 1.48776 0
M  V30 4729 C 471.282 -1.27456 1.58514 0
M  V30 4730 C 471.637 -1.90634 0.260057 0
M  V30 4731 O 470.93 -1.76815 -0.738036 0
M  V30 4732 C 471.124 -2.37864 2.6675 0
M  V30 4733 C 470.953 -1.85509 4.09654 0
M  V30 4734 C 469.723 -1.67661 4.76674 0
M  V30 4735 C 471.921 -1.37783 4.955 0
M  V30 4736 N 469.903 -1.10037 6.03958 0
M  V30 4737 C 471.274 -0.921714 6.1311 0
M  V30 4738 C 473.329 -1.26179 4.81646 0
M  V30 4739 C 472.032 -0.361057 7.18393 0
M  V30 4740 C 474.058 -0.715121 5.8706 0
M  V30 4741 C 473.42 -0.269132 7.03886 0
M  V30 4742 H 469.519 -0.457049 0.634531 0
M  V30 4743 H 472.103 -0.585073 1.85701 0
M  V30 4744 H 470.274 -3.04296 2.41367 0
M  V30 4745 H 472.006 -3.04901 2.66116 0
M  V30 4746 H 468.761 -1.91478 4.33166 0
M  V30 4747 H 469.185 -0.832067 6.71867 0
M  V30 4748 H 473.827 -1.59263 3.91657 0
M  V30 4749 H 471.545 -0.0179127 8.08098 0
M  V30 4750 H 475.131 -0.628376 5.78397 0
M  V30 4751 H 474.011 0.14729 7.84062 0
M  V30 4752 N 471.514 -1.37532 -0.769588 0
M  V30 4753 C 472.762 -1.32597 -1.5252 0
M  V30 4754 C 473.083 0.0884294 -1.94799 0
M  V30 4755 O 472.353 1.03289 -1.66458 0
M  V30 4756 H 470.933 -0.487846 -0.565699 0
M  V30 4757 H 473.595 -1.72044 -0.915806 0
M  V30 4758 H 472.691 -1.96643 -2.42359 0
M  V30 4759 N 472.992 0.995999 -1.22138 0
M  V30 4760 C 474.238 1.73767 -1.04561 0
M  V30 4761 C 474.571 1.89633 0.418698 0
M  V30 4762 O 473.846 1.43723 1.3105 0
M  V30 4763 C 474.129 3.14505 -1.75382 0
M  V30 4764 C 473.982 3.06306 -3.29388 0
M  V30 4765 C 475.301 4.13615 -1.50369 0
M  V30 4766 H 472.42 0.630728 -0.38125 0
M  V30 4767 H 475.062 1.16057 -1.50435 0
M  V30 4768 H 473.212 3.63775 -1.36383 0
M  V30 4769 H 474.884 2.64681 -3.77812 0
M  V30 4770 H 473.127 2.43186 -3.59226 0
M  V30 4771 H 473.798 4.05884 -3.74116 0
M  V30 4772 H 476.274 3.73089 -1.84239 0
M  V30 4773 H 475.15 5.10212 -2.02421 0
M  V30 4774 H 475.411 4.39949 -0.435611 0
M  V30 4775 N 474.47 1.03057 1.19235 0
M  V30 4776 C 475.698 0.747697 1.92917 0
M  V30 4777 C 476.113 -0.69372 1.75593 0
M  V30 4778 O 475.47 -1.47191 1.07894 0
M  V30 4779 C 475.521 1.09159 3.44625 0
M  V30 4780 O 475.242 2.47641 3.61394 0
M  V30 4781 C 476.743 0.831763 4.35427 0
M  V30 4782 H 473.963 0.273453 0.612751 0
M  V30 4783 H 476.507 1.37552 1.51327 0
M  V30 4784 H 474.662 0.508919 3.84043 0
M  V30 4785 H 475.076 2.60499 4.55237 0
M  V30 4786 H 476.55 1.12233 5.4047 0
M  V30 4787 H 477.027 -0.233769 4.38577 0
M  V30 4788 H 477.633 1.39725 4.01693 0
M  V30 4789 N 475.948 -1.35272 0.808662 0
M  V30 4790 C 476.881 -2.27595 0.165994 0
M  V30 4791 C 477.859 -1.48189 -0.669241 0
M  V30 4792 O 479.043 -1.77444 -0.636073 0
M  V30 4793 C 476.17 -3.29843 -0.769505 0
M  V30 4794 C 475.216 -4.26498 -0.0136267 0
M  V30 4795 S 476.049 -5.18878 1.32384 0
M  V30 4796 C 477.205 -6.24666 0.392838 0
M  V30 4797 H 477.438 -2.81755 0.948756 0
M  V30 4798 H 474.971 -1.42103 0.603828 0
M  V30 4799 H 476.929 -3.89247 -1.30374 0
M  V30 4800 H 475.59 -2.74558 -1.52567 0
M  V30 4801 H 474.783 -4.98769 -0.724227 0
M  V30 4802 H 474.385 -3.71274 0.450713 0
M  V30 4803 H 476.677 -6.7619 -0.4211 0
M  V30 4804 H 477.62 -6.99741 1.0848 0
M  V30 4805 H 478.028 -5.64499 -0.0123908 0
M  V30 4806 N 477.426 -0.562348 -1.47226 0
M  V30 4807 C 478.356 0.170627 -2.32876 0
M  V30 4808 C 479.337 0.903748 -1.44106 0
M  V30 4809 O 480.522 0.883206 -1.72954 0
M  V30 4810 C 477.652 1.19786 -3.25989 0
M  V30 4811 C 476.606 0.580875 -4.2404 0
M  V30 4812 C 475.932 1.71311 -5.06514 0
M  V30 4813 C 477.232 -0.468714 -5.20193 0
M  V30 4814 H 478.926 -0.544441 -2.94408 0
M  V30 4815 H 476.472 -0.263271 -1.41573 0
M  V30 4816 H 478.425 1.71884 -3.84752 0
M  V30 4817 H 477.149 1.94294 -2.62521 0
M  V30 4818 H 475.808 0.0811538 -3.6651 0
M  V30 4819 H 475.456 2.44736 -4.39447 0
M  V30 4820 H 475.156 1.30604 -5.72902 0
M  V30 4821 H 476.68 2.23725 -5.68137 0
M  V30 4822 H 478.094 -0.0336028 -5.7329 0
M  V30 4823 H 476.491 -0.794957 -5.94811 0
M  V30 4824 H 477.561 -1.36269 -4.65359 0
M  V30 4825 N 478.904 1.54736 -0.299062 0
M  V30 4826 C 479.851 2.23448 0.577899 0
M  V30 4827 C 480.821 1.21637 1.13109 0
M  V30 4828 O 482.006 1.50252 1.17597 0
M  V30 4829 C 479.146 2.9774 1.74484 0
M  V30 4830 C 478.259 4.1432 1.22323 0
M  V30 4831 C 477.394 4.76199 2.35388 0
M  V30 4832 C 476.433 5.84927 1.80351 0
M  V30 4833 N 475.57 6.4077 2.86982 0
M  V30 4834 H 480.41 2.97996 -0.0146545 0
M  V30 4835 H 477.947 1.47088 -0.0190013 0
M  V30 4836 H 479.905 3.39045 2.43114 0
M  V30 4837 H 478.535 2.25572 2.30905 0
M  V30 4838 H 477.587 3.7797 0.429249 0
M  V30 4839 H 478.899 4.92659 0.780309 0
M  V30 4840 H 478.053 5.20346 3.11969 0
M  V30 4841 H 476.792 3.97188 2.83006 0
M  V30 4842 H 475.797 5.40207 1.02259 0
M  V30 4843 H 477.022 6.65821 1.3364 0
M  V30 4844 H 474.968 5.64643 3.33938 0
M  V30 4845 H 474.885 7.1445 2.4718 0
M  V30 4846 H 476.153 6.89574 3.63466 0
M  V30 4847 N 480.382 0.0267497 1.57577 0
M  V30 4848 C 481.798 -0.32962 1.56159 0
M  V30 4849 C 481.998 -1.73059 1.03213 0
M  V30 4850 O 481.054 -2.43233 0.677804 0
M  V30 4851 C 482.367 -0.18039 3.00158 0
M  V30 4852 C 483.915 -0.253334 3.11973 0
M  V30 4853 C 484.39 -0.132921 4.57807 0
M  V30 4854 N 485.881 -0.189979 4.6281 0
M  V30 4855 C 486.616 -0.120554 5.73273 0
M  V30 4856 N 486.112 -0.000180315 6.928 0
M  V30 4857 N 487.905 -0.174369 5.61829 0
M  V30 4858 H 480.056 0.942896 1.90324 0
M  V30 4859 H 482.319 0.3639 0.875375 0
M  V30 4860 H 482.025 0.784576 3.42837 0
M  V30 4861 H 481.899 -0.951565 3.65 0
M  V30 4862 H 484.286 -1.20876 2.69208 0
M  V30 4863 H 484.367 0.548177 2.49857 0
M  V30 4864 H 484.011 0.819073 5.01252 0
M  V30 4865 H 483.941 -0.953264 5.179 0
M  V30 4866 H 486.432 -0.283257 3.76837 0
M  V30 4867 H 486.745 0.0461666 7.72786 0
M  V30 4868 H 485.09 0.034569 6.94991 0
M  V30 4869 H 488.281 -0.266794 4.67339 0
M  V30 4870 H 488.454 -0.116802 6.47895 0
M  V30 4871 N 481.861 -1.55662 -0.24637 0
M  V30 4872 C 482.791 -1.93377 -1.30873 0
M  V30 4873 C 483.772 -0.798773 -1.50179 0
M  V30 4874 O 484.957 -1.0591 -1.62778 0
M  V30 4875 C 482.087 -2.22893 -2.66338 0
M  V30 4876 C 481.041 -3.38649 -2.61727 0
M  V30 4877 C 480.367 -3.53708 -4.00992 0
M  V30 4878 C 481.667 -4.74323 -2.18666 0
M  V30 4879 H 483.361 -2.82363 -0.995552 0
M  V30 4880 H 480.907 -1.35854 -0.477464 0
M  V30 4881 H 482.86 -2.47866 -3.40794 0
M  V30 4882 H 481.584 -1.30733 -2.99293 0
M  V30 4883 H 480.243 -3.13685 -1.89729 0
M  V30 4884 H 479.891 -2.58967 -4.31214 0
M  V30 4885 H 479.591 -4.31551 -3.98795 0
M  V30 4886 H 481.115 -3.81003 -4.77147 0
M  V30 4887 H 482.529 -4.98665 -2.82854 0
M  V30 4888 H 480.926 -5.55273 -2.27579 0
M  V30 4889 H 481.996 -4.71349 -1.13834 0
M  V30 4890 N 483.339 0.512053 -1.4905 0
M  V30 4891 C 484.269 1.62365 -1.67809 0
M  V30 4892 C 485.25 1.61737 -0.526809 0
M  V30 4893 O 486.435 1.78651 -0.761404 0
M  V30 4894 C 483.565 3.00895 -1.73435 0
M  V30 4895 C 482.519 3.16387 -2.88242 0
M  V30 4896 C 481.845 4.56157 -2.78971 0
M  V30 4897 C 483.145 2.97457 -4.29321 0
M  V30 4898 H 484.839 1.46921 -2.60873 0
M  V30 4899 H 482.385 0.705379 -1.2554 0
M  V30 4900 H 484.338 3.78549 -1.85145 0
M  V30 4901 H 483.062 3.17403 -0.769619 0
M  V30 4902 H 481.721 2.41155 -2.76116 0
M  V30 4903 H 481.369 4.69525 -1.8043 0
M  V30 4904 H 481.069 4.67465 -3.5602 0
M  V30 4905 H 482.593 5.35886 -2.92675 0
M  V30 4906 H 484.007 3.64888 -4.42187 0
M  V30 4907 H 482.404 3.20245 -5.07507 0
M  V30 4908 H 483.474 1.93692 -4.44535 0
M  V30 4909 N 484.817 1.37938 0.762283 0
M  V30 4910 C 486.233 1.18945 1.06415 0
M  V30 4911 C 486.433 0.0321163 2.01474 0
M  V30 4912 O 485.489 -0.624844 2.44647 0
M  V30 4913 C 486.802 2.51218 1.65258 0
M  V30 4914 C 488.35 2.57824 1.7747 0
M  V30 4915 C 488.825 3.90251 2.39725 0
M  V30 4916 N 490.316 3.91744 2.47166 0
M  V30 4917 C 491.051 4.90966 2.96209 0
M  V30 4918 N 490.547 6.00585 3.45354 0
M  V30 4919 N 492.34 4.78363 2.9517 0
M  V30 4920 H 484.491 2.11994 0.131301 0
M  V30 4921 H 486.754 0.940262 0.120879 0
M  V30 4922 H 486.46 3.36317 1.02878 0
M  V30 4923 H 486.334 2.68989 2.64433 0
M  V30 4924 H 488.721 1.73126 2.3898 0
M  V30 4925 H 488.802 2.43928 0.770241 0
M  V30 4926 H 488.446 4.75368 1.78852 0
M  V30 4927 H 488.376 4.01454 3.40796 0
M  V30 4928 H 490.867 3.12563 2.12397 0
M  V30 4929 H 491.18 6.72236 3.81207 0
M  V30 4930 H 489.525 6.04217 3.43434 0
M  V30 4931 H 492.716 3.91841 2.56082 0
M  V30 4932 H 492.889 5.55843 3.33081 0
M  V30 4933 N 486.295 -0.989507 1.22664 0
M  V30 4934 C 487.541 -1.7321 1.05481 0
M  V30 4935 C 487.874 -1.89852 -0.408635 0
M  V30 4936 O 487.149 -1.44416 -1.30285 0
M  V30 4937 C 487.432 -3.1357 1.77047 0
M  V30 4938 C 487.285 -3.04555 3.31008 0
M  V30 4939 C 488.604 -4.12812 1.5256 0
M  V30 4940 H 485.723 -0.628697 0.384589 0
M  V30 4941 H 488.365 -1.15258 1.51049 0
M  V30 4942 H 486.515 -3.63046 1.3831 0
M  V30 4943 H 488.187 -2.62674 3.7921 0
M  V30 4944 H 486.43 -2.41278 3.6051 0
M  V30 4945 H 487.101 -4.03894 3.76263 0
M  V30 4946 H 489.577 -3.72106 1.86215 0
M  V30 4947 H 488.453 -5.09132 2.05124 0
M  V30 4948 H 488.714 -4.39711 0.458936 0
M  V30 4949 N 487.773 -1.03688 -1.18687 0
M  V30 4950 C 489.05 -0.652397 -1.84399 0
M  V30 4951 C 489.43 0.868386 -1.92412 0
M  V30 4952 O 488.778 1.76832 -1.44716 0
M  V30 4953 C 488.988 -1.3238 -3.22919 0
M  V30 4954 C 490.336 -1.45216 -3.98996 0
M  V30 4955 O 491.36 -1.2816 -3.32345 0
M  V30 4956 O 490.219 -1.72975 -5.18403 0
M  V30 4957 H 487.313 -0.227793 -0.795009 0
M  V30 4958 H 489.859 -1.13553 -1.2611 0
M  V30 4959 H 488.631 -2.36202 -3.11968 0
M  V30 4960 H 488.254 -0.829039 -3.88861 0
M  V30 4961 N 489.251 1.34841 -0.815825 0
M  V30 4962 C 490.528 1.92908 -0.323416 0
M  V30 4963 C 490.908 1.74479 1.18828 0
M  V30 4964 O 490.256 1.11928 1.99209 0
M  V30 4965 C 490.466 3.40957 -0.744952 0
M  V30 4966 C 491.814 4.18107 -0.739716 0
M  V30 4967 O 492.838 3.49511 -0.68708 0
M  V30 4968 O 491.697 5.40517 -0.806456 0
M  V30 4969 H 488.791 0.822436 -0.0867646 0
M  V30 4970 H 491.337 1.4386 -0.90014 0
M  V30 4971 H 490.109 3.4814 -1.78646 0
M  V30 4972 H 489.732 3.97341 -0.143535 0
M  V30 4973 N 490.729 0.570148 1.46925 0
M  V30 4974 C 492.14 0.1402 1.86173 0
M  V30 4975 C 492.491 -1.29347 1.47526 0
M  V30 4976 O 491.616 -1.97508 0.884292 0
M  V30 4977 C 492.211 0.247661 3.37894 0
M  V30 4978 C 490.77 -0.127332 3.76185 0
M  V30 4979 C 489.917 0.589349 2.70965 0
M  V30 4980 H 492.868 0.779117 1.38259 0
M  V30 4981 H 492.889 -0.530341 3.76786 0
M  V30 4982 H 492.401 1.29121 3.65991 0
M  V30 4983 H 490.502 -1.17149 3.53704 0
M  V30 4984 H 490.615 0.240238 4.78497 0
M  V30 4985 H 488.979 0.0309824 2.54681 0
M  V30 4986 H 489.762 1.6343 3.01903 0
M  V30 4987 N 492.207 -1.54576 0.307264 0
M  V30 4988 C 493.447 -2.02172 -0.300962 0
M  V30 4989 C 493.811 -1.19081 -1.50611 0
M  V30 4990 O 495.012 -1.56405 -2.18612 0
M  V30 4991 C 493.283 -3.51576 -0.642591 0
M  V30 4992 S 494.842 -4.21127 -1.23279 0
M  V30 4993 H 491.66 -0.705021 -0.0920141 0
M  V30 4994 H 494.262 -1.90563 0.436594 0
M  V30 4995 H 492.966 -4.09681 0.242901 0
M  V30 4996 H 492.497 -3.67234 -1.41077 0
M  V30 4997 H 494.512 -4.27426 -2.52034 0
M  V30 4998 N 493.685 -0.035106 -1.57561 0
M  V30 4999 C 494.962 0.681212 -1.83354 0
M  V30 5000 C 495.342 1.89986 -0.920252 0
M  V30 5001 O 494.69 2.28489 0.0226815 0
M  V30 5002 C 494.9 1.05376 -3.32712 0
M  V30 5003 C 496.248 1.44286 -3.99333 0
M  V30 5004 O 497.272 1.14656 -3.37242 0
M  V30 5005 O 496.131 1.99518 -5.08778 0
M  V30 5006 H 493.225 0.334741 -0.756226 0
M  V30 5007 H 495.771 -0.0632448 -1.69582 0
M  V30 5008 H 494.543 0.186668 -3.90854 0
M  V30 5009 H 494.166 1.85619 -3.51613 0
M  V30 5010 N 495.163 1.55791 0.238111 0
M  V30 5011 C 496.409 1.78297 0.966337 0
M  V30 5012 C 496.742 0.601903 1.84637 0
M  V30 5013 O 496.017 -0.399499 1.90353 0
M  V30 5014 C 496.3 3.10758 1.81939 0
M  V30 5015 C 496.153 4.39283 0.966958 0
M  V30 5016 C 497.472 3.39519 2.80027 0
M  V30 5017 H 494.591 0.648654 0.349882 0
M  V30 5018 H 497.233 1.88525 0.236253 0
M  V30 5019 H 495.383 3.02168 2.44185 0
M  V30 5020 H 497.055 4.59873 0.362514 0
M  V30 5021 H 495.298 4.32948 0.271669 0
M  V30 5022 H 495.969 5.28368 1.59784 0
M  V30 5023 H 498.445 3.48128 2.27917 0
M  V30 5024 H 497.321 4.33402 3.36829 0
M  V30 5025 H 497.582 2.60864 3.56934 0
M  V30 5026 N 496.642 -0.504142 1.49319 0
M  V30 5027 C 497.889 -1.25846 1.58647 0
M  V30 5028 C 498.217 -1.92592 0.27177 0
M  V30 5029 O 497.472 -1.81167 -0.74007 0
M  V30 5030 C 497.771 -2.35021 2.69258 0
M  V30 5031 C 497.437 -1.85755 4.1086 0
M  V30 5032 C 496.099 -1.72038 4.49395 0
M  V30 5033 C 498.451 -1.48844 4.99495 0
M  V30 5034 C 495.779 -1.19783 5.74342 0
M  V30 5035 C 498.131 -0.980422 6.24956 0
M  V30 5036 C 496.795 -0.829622 6.62324 0
M  V30 5037 H 496.065 -0.460505 0.580531 0
M  V30 5038 H 498.712 -0.559716 1.83138 0
M  V30 5039 H 497.017 -3.10672 2.38726 0
M  V30 5040 H 498.714 -2.93083 2.73685 0
M  V30 5041 H 495.304 -1.9739 3.80441 0
M  V30 5042 H 499.488 -1.5829 4.70381 0
M  V30 5043 H 494.744 -1.06817 6.01997 0
M  V30 5044 H 498.918 -0.685608 6.93017 0
M  V30 5045 H 496.545 -0.42253 7.59025 0
M  V30 5046 N 498.12 -1.38341 -0.754957 0
M  V30 5047 C 499.368 -1.34208 -1.51105 0
M  V30 5048 C 499.689 0.0677634 -1.94882 0
M  V30 5049 O 498.959 1.01517 -1.67544 0
M  V30 5050 H 497.539 -0.493819 -0.560493 0
M  V30 5051 H 500.201 -1.73005 -0.897507 0
M  V30 5052 H 499.297 -1.99203 -2.4026 0
M  V30 5053 N 499.598 0.982988 -1.23187 0
M  V30 5054 C 500.844 1.72648 -1.06398 0
M  V30 5055 C 501.177 1.90066 0.398561 0
M  V30 5056 O 500.452 1.45105 1.29518 0
M  V30 5057 C 500.735 3.12627 -1.78707 0
M  V30 5058 C 500.588 3.02795 -3.32618 0
M  V30 5059 C 501.907 4.11997 -1.54747 0
M  V30 5060 H 499.026 0.626649 -0.387918 0
M  V30 5061 H 501.668 1.14455 -1.51658 0
M  V30 5062 H 499.818 3.62308 -1.40234 0
M  V30 5063 H 501.49 2.60659 -3.80598 0
M  V30 5064 H 499.733 2.39362 -3.61785 0
M  V30 5065 H 500.404 4.01893 -3.78399 0
M  V30 5066 H 502.88 3.71114 -1.88186 0
M  V30 5067 H 501.756 5.08037 -2.07821 0
M  V30 5068 H 502.017 4.39462 -0.482249 0
M  V30 5069 N 501.076 1.04316 1.18135 0
M  V30 5070 C 502.026 0.606731 2.19779 0
M  V30 5071 C 503.01 -0.352144 1.56999 0
M  V30 5072 O 504.202 -0.170795 1.76174 0
M  V30 5073 C 501.331 -0.0262443 3.4329 0
M  V30 5074 C 500.417 0.955928 4.13186 0
M  V30 5075 N 500.808 2.12395 4.59045 0
M  V30 5076 C 499.106 0.782473 4.39082 0
M  V30 5077 C 499.807 2.74458 5.12882 0
M  V30 5078 N 498.783 2.02316 5.04548 0
M  V30 5079 H 502.585 1.49679 2.5293 0
M  V30 5080 H 500.099 0.912088 1.34368 0
M  V30 5081 H 502.096 -0.356617 4.15372 0
M  V30 5082 H 500.756 -0.911811 3.11635 0
M  V30 5083 H 501.767 2.50272 4.53414 0
M  V30 5084 H 498.444 -0.0527906 4.17467 0
M  V30 5085 H 499.834 3.73459 5.5855 0
M  V30 5086 N 502.554 -1.34406 0.822964 0
M  V30 5087 C 503.802 -1.97892 0.410245 0
M  V30 5088 C 504.123 -1.65567 -1.03017 0
M  V30 5089 O 503.393 -0.94642 -1.71522 0
M  V30 5090 H 501.973 -0.732049 0.148707 0
M  V30 5091 H 504.635 -1.64043 1.05242 0
M  V30 5092 H 503.731 -3.07579 0.529284 0
M  V30 5093 N 504.032 -0.577932 -1.46621 0
M  V30 5094 C 505.278 -0.0617793 -2.02706 0
M  V30 5095 C 505.611 1.29294 -1.44903 0
M  V30 5096 O 504.886 1.8461 -0.61232 0
M  V30 5097 C 505.169 0.00911824 -3.60099 0
M  V30 5098 C 505.022 -1.37416 -4.28295 0
M  V30 5099 C 506.341 0.712159 -4.343 0
M  V30 5100 H 503.46 -0.0239246 -0.736612 0
M  V30 5101 H 506.102 -0.744211 -1.74818 0
M  V30 5102 H 504.252 0.590292 -3.83989 0
M  V30 5103 H 505.924 -2.00013 -4.15683 0
M  V30 5104 H 504.167 -1.94319 -3.87843 0
M  V30 5105 H 504.838 -1.27707 -5.37024 0
M  V30 5106 H 507.314 0.218486 -4.15526 0
M  V30 5107 H 506.19 0.730782 -5.44014 0
M  V30 5108 H 506.451 1.77251 -4.05012 0
M  V30 5109 N 505.51 1.54411 -0.315457 0
M  V30 5110 C 506.75 2.02329 0.290236 0
M  V30 5111 C 507.114 1.19878 1.49977 0
M  V30 5112 O 508.315 1.57562 2.17779 0
M  V30 5113 C 506.586 3.51912 0.623937 0
M  V30 5114 S 508.145 4.21775 1.21044 0
M  V30 5115 H 504.963 0.705499 0.0882739 0
M  V30 5116 H 507.565 1.90328 -0.446694 0
M  V30 5117 H 506.269 4.09546 -0.264624 0
M  V30 5118 H 505.8 3.67977 1.39128 0
M  V30 5119 H 507.815 4.28757 2.49764 0
M  V30 5120 N 506.988 0.0434614 1.5754 0
M  V30 5121 C 508.236 -0.630786 1.92004 0
M  V30 5122 C 508.557 -1.71836 0.921807 0
M  V30 5123 O 507.827 -1.9587 -0.034522 0
M  V30 5124 H 506.407 -0.235988 0.708745 0
M  V30 5125 H 509.069 0.0946462 1.9467 0
M  V30 5126 H 508.165 -1.07434 2.93026 0
M  V30 5127 N 508.466 -1.55915 -0.229846 0
M  V30 5128 C 509.715 -1.77742 -0.953455 0
M  V30 5129 C 510.028 -0.610524 -1.85828 0
M  V30 5130 O 511.234 -0.712219 -2.61992 0
M  V30 5131 C 509.69 -3.14738 -1.74551 0
M  V30 5132 C 509.298 -4.39126 -0.887242 0
M  V30 5133 C 511.042 -3.45895 -2.46084 0
M  V30 5134 C 508.949 -5.67149 -1.67617 0
M  V30 5135 H 507.879 -0.662648 -0.359741 0
M  V30 5136 H 510.53 -1.82322 -0.207576 0
M  V30 5137 H 508.912 -3.04311 -2.53399 0
M  V30 5138 H 510.086 -4.60588 -0.139892 0
M  V30 5139 H 508.401 -4.15427 -0.284443 0
M  V30 5140 H 510.998 -4.38767 -3.05594 0
M  V30 5141 H 511.341 -2.68007 -3.18556 0
M  V30 5142 H 511.874 -3.57614 -1.74233 0
M  V30 5143 H 508.613 -6.47906 -0.994881 0
M  V30 5144 H 508.133 -5.49763 -2.39836 0
M  V30 5145 H 509.812 -6.07025 -2.23898 0
M  V30 5146 N 509.944 0.496216 -1.49584 0
M  V30 5147 C 511.19 1.25189 -1.59548 0
M  V30 5148 C 511.523 1.9212 -0.283466 0
M  V30 5149 O 510.798 1.80947 0.713324 0
M  V30 5150 C 511.081 2.31516 -2.75812 0
M  V30 5151 C 510.934 1.69054 -4.16822 0
M  V30 5152 C 512.253 3.3304 -2.87702 0
M  V30 5153 H 509.372 0.45379 -0.580727 0
M  V30 5154 H 512.014 0.549327 -1.81886 0
M  V30 5155 H 510.164 2.91438 -2.56897 0
M  V30 5156 H 511.836 1.12923 -4.47265 0
M  V30 5157 H 510.079 0.994485 -4.22247 0
M  V30 5158 H 510.75 2.462 -4.94054 0
M  V30 5159 H 513.226 2.83114 -3.04936 0
M  V30 5160 H 512.102 4.04794 -3.7072 0
M  V30 5161 H 512.363 3.95655 -1.97255 0
M  V30 5162 N 511.423 1.38739 0.74761 0
M  V30 5163 C 512.671 1.35007 1.50391 0
M  V30 5164 C 512.992 -0.0574274 1.94915 0
M  V30 5165 O 512.262 -1.00628 1.6808 0
M  V30 5166 H 510.842 0.496784 0.557866 0
M  V30 5167 H 513.504 1.73479 0.888319 0
M  V30 5168 H 512.6 2.00474 2.392 0
M  V30 5169 N 512.901 -0.976442 1.23707 0
M  V30 5170 C 514.141 -1.73331 1.08332 0
M  V30 5171 C 514.505 -1.88346 -0.372781 0
M  V30 5172 O 515.706 -2.60877 -0.647813 0
M  V30 5173 C 513.977 -3.09159 1.7932 0
M  V30 5174 S 515.536 -4.00376 1.79567 0
M  V30 5175 H 512.354 -0.596045 0.387622 0
M  V30 5176 H 514.956 -1.16625 1.56904 0
M  V30 5177 H 513.66 -2.95884 2.84395 0
M  V30 5178 H 513.191 -3.70932 1.31046 0
M  V30 5179 H 515.206 -4.88742 0.857094 0
M  V30 5180 N 514.379 -1.04941 -1.1758 0
M  V30 5181 C 515.628 -0.753124 -1.87112 0
M  V30 5182 C 515.941 0.722507 -1.81767 0
M  V30 5183 O 517.147 1.13265 -2.46746 0
M  V30 5184 C 515.603 -1.29695 -3.35719 0
M  V30 5185 C 515.211 -2.80184 -3.49572 0
M  V30 5186 C 516.955 -1.07759 -4.10595 0
M  V30 5187 C 514.862 -3.2788 -4.92187 0
M  V30 5188 H 513.792 -0.278034 -0.700866 0
M  V30 5189 H 516.443 -1.26637 -1.32798 0
M  V30 5190 H 514.825 -0.711522 -3.89555 0
M  V30 5191 H 515.999 -3.44561 -3.05965 0
M  V30 5192 H 514.314 -3.00632 -2.88113 0
M  V30 5193 H 516.911 -1.40899 -5.15802 0
M  V30 5194 H 517.254 -0.0152302 -4.16297 0
M  V30 5195 H 517.787 -1.62809 -3.62957 0
M  V30 5196 H 514.526 -4.33535 -4.91658 0
M  V30 5197 H 514.046 -2.68245 -5.36475 0
M  V30 5198 H 515.725 -3.22412 -5.60945 0
M  V30 5199 N 515.857 1.33968 -0.830081 0
M  V30 5200 C 516.79 2.27303 -0.202182 0
M  V30 5201 C 517.768 1.49235 0.645581 0
M  V30 5202 O 518.952 1.78433 0.607762 0
M  V30 5203 C 516.079 3.31025 0.716932 0
M  V30 5204 C 515.125 4.26466 -0.0542271 0
M  V30 5205 S 515.958 5.16707 -1.40622 0
M  V30 5206 C 517.114 6.23962 -0.492167 0
M  V30 5207 H 517.347 2.8021 -0.99346 0
M  V30 5208 H 514.88 1.41124 -0.626359 0
M  V30 5209 H 516.838 3.91271 1.24165 0
M  V30 5210 H 515.499 2.76951 1.4818 0
M  V30 5211 H 514.692 4.99858 0.644785 0
M  V30 5212 H 514.294 3.7051 -0.509722 0
M  V30 5213 H 516.586 6.76774 0.31347 0
M  V30 5214 H 517.529 6.97927 -1.19599 0
M  V30 5215 H 517.937 5.64447 -0.0774176 0
M  V30 5216 N 517.335 0.585699 1.46312 0
M  V30 5217 C 518.563 0.0781299 2.06752 0
M  V30 5218 C 518.978 -1.22812 1.43396 0
M  V30 5219 O 518.335 -1.74318 0.540314 0
M  V30 5220 C 518.386 -0.0911927 3.61385 0
M  V30 5221 O 518.107 1.16336 4.22371 0
M  V30 5222 C 519.608 -0.632765 4.38761 0
M  V30 5223 H 516.828 0.0588188 0.668417 0
M  V30 5224 H 519.372 0.807218 1.87894 0
M  V30 5225 H 517.527 -0.770514 3.7966 0
M  V30 5226 H 517.941 0.979082 5.15281 0
M  V30 5227 H 519.415 -0.70041 5.47538 0
M  V30 5228 H 519.892 -1.65039 4.07012 0
M  V30 5229 H 520.498 0.0117856 4.25298 0
M  V30 5230 N 518.813 -1.54241 0.323641 0
M  V30 5231 C 520.061 -2.00174 -0.278359 0
M  V30 5232 C 520.382 -1.2134 -1.52648 0
M  V30 5233 O 519.652 -0.315244 -1.93347 0
M  V30 5234 H 518.232 -0.739463 -0.105845 0
M  V30 5235 H 520.894 -1.89864 0.440204 0
M  V30 5236 H 519.99 -3.07486 -0.5347 0
M  V30 5237 N 520.291 -0.0518155 -1.57515 0
M  V30 5238 C 521.54 0.621286 -1.91893 0
M  V30 5239 C 521.853 1.71966 -0.932052 0
M  V30 5240 O 523.059 2.45096 -1.16791 0
M  V30 5241 C 521.515 1.15641 -3.40816 0
M  V30 5242 C 521.123 0.0901146 -4.47909 0
M  V30 5243 C 522.867 1.80472 -3.84227 0
M  V30 5244 C 520.774 0.638154 -5.87947 0
M  V30 5245 H 519.704 0.235835 -0.716169 0
M  V30 5246 H 522.355 -0.120809 -1.83102 0
M  V30 5247 H 520.737 1.95084 -3.44613 0
M  V30 5248 H 521.911 -0.683525 -4.55702 0
M  V30 5249 H 520.226 -0.460774 -4.13843 0
M  V30 5250 H 522.823 2.22471 -4.86221 0
M  V30 5251 H 523.166 2.65669 -3.20508 0
M  V30 5252 H 523.699 1.07683 -3.82948 0
M  V30 5253 H 520.438 -0.176202 -6.55263 0
M  V30 5254 H 519.958 1.37976 -5.83714 0
M  V30 5255 H 521.637 1.12085 -6.37217 0
M  V30 5256 N 521.769 1.56035 0.221574 0
M  V30 5257 C 523.016 1.79047 0.94597 0
M  V30 5258 C 523.344 0.62057 1.84334 0
M  V30 5259 O 522.599 -0.395053 1.91671 0
M  V30 5260 C 522.898 3.07813 1.8162 0
M  V30 5261 C 522.564 4.3797 1.07206 0
M  V30 5262 C 521.226 4.73334 0.866508 0
M  V30 5263 C 523.578 5.18326 0.546565 0
M  V30 5264 C 520.906 5.8657 0.123549 0
M  V30 5265 C 523.258 6.32335 -0.18305 0
M  V30 5266 C 521.922 6.66301 -0.399861 0
M  V30 5267 H 521.192 0.655178 0.346155 0
M  V30 5268 H 523.839 1.90299 0.214146 0
M  V30 5269 H 522.144 2.91682 2.61589 0
M  V30 5270 H 523.841 3.2282 2.37884 0
M  V30 5271 H 520.431 4.10202 1.24226 0
M  V30 5272 H 524.615 4.9144 0.692847 0
M  V30 5273 H 519.871 6.11376 -0.0546591 0
M  V30 5274 H 524.045 6.9383 -0.59775 0
M  V30 5275 H 521.672 7.53889 -0.977489 0
M  V30 5276 N 523.247 -0.488276 1.49845 0
M  V30 5277 C 524.21 -1.57069 1.66919 0
M  V30 5278 C 525.21 -1.51445 0.540479 0
M  V30 5279 O 526.4 -1.5437 0.807188 0
M  V30 5280 C 523.532 -2.96718 1.67844 0
M  V30 5281 H 524.725 -1.43254 2.63474 0
M  V30 5282 H 522.278 -0.713435 1.39068 0
M  V30 5283 H 523.013 -3.15996 0.7292 0
M  V30 5284 H 522.798 -3.02208 2.49826 0
M  V30 5285 H 524.288 -3.75335 1.83066 0
M  V30 5286 N 524.725 -1.39134 -0.740242 0
M  V30 5287 C 525.688 -1.37217 -1.83587 0
M  V30 5288 C 526.688 -0.270221 -1.58513 0
M  V30 5289 O 527.878 -0.527843 -1.6601 0
M  V30 5290 C 525.01 -1.13959 -3.21288 0
M  V30 5291 H 526.203 -2.34705 -1.86691 0
M  V30 5292 H 523.756 -1.24622 -0.94335 0
M  V30 5293 H 524.491 -0.17131 -3.23847 0
M  V30 5294 H 524.276 -1.93754 -3.40884 0
M  V30 5295 H 525.766 -1.15346 -4.01354 0
M  V30 5296 N 526.204 0.969867 -1.24223 0
M  V30 5297 C 527.429 1.75289 -1.10853 0
M  V30 5298 C 527.854 1.85091 0.335079 0
M  V30 5299 O 527.212 1.32024 1.24255 0
M  V30 5300 C 527.26 3.15255 -1.75062 0
M  V30 5301 O 526.364 3.99589 -1.01992 0
M  V30 5302 H 525.705 0.538904 -0.387915 0
M  V30 5303 H 528.235 1.21675 -1.64488 0
M  V30 5304 H 528.245 3.65787 -1.80731 0
M  V30 5305 H 526.92 3.07436 -2.801 0
M  V30 5306 H 525.497 3.58077 -1.04094 0
M  V30 5307 N 527.682 1.05563 1.17022 0
M  V30 5308 C 528.907 0.788437 1.91829 0
M  V30 5309 C 529.332 -0.650356 1.76499 0
M  V30 5310 O 528.69 -1.45229 1.08527 0
M  V30 5311 C 528.738 1.1786 3.40795 0
M  V30 5312 O 527.842 0.312965 4.11211 0
M  V30 5313 H 527.183 0.288794 0.597908 0
M  V30 5314 H 529.713 1.40948 1.48307 0
M  V30 5315 H 529.723 1.14697 3.91546 0
M  V30 5316 H 528.398 2.22666 3.51273 0
M  V30 5317 H 526.975 0.405515 3.70689 0
M  V30 5318 N 529.16 -1.33526 0.837174 0
M  V30 5319 C 530.09 -2.31764 0.284206 0
M  V30 5320 C 531.071 -1.58896 -0.607142 0
M  V30 5321 O 532.256 -1.86798 -0.531047 0
M  V30 5322 C 529.386 -3.43029 -0.542962 0
M  V30 5323 C 528.34 -4.27255 0.252451 0
M  V30 5324 C 527.666 -5.3012 -0.69836 0
M  V30 5325 C 528.966 -5.01229 1.46858 0
M  V30 5326 H 530.66 -2.78262 1.10502 0
M  V30 5327 H 528.206 -1.3378 0.532812 0
M  V30 5328 H 530.159 -4.1078 -0.940096 0
M  V30 5329 H 528.883 -2.95216 -1.39697 0
M  V30 5330 H 527.542 -3.61127 0.631124 0
M  V30 5331 H 527.19 -4.78564 -1.54872 0
M  V30 5332 H 526.89 -5.87353 -0.170274 0
M  V30 5333 H 528.414 -6.00737 -1.09305 0
M  V30 5334 H 529.828 -5.61756 1.14469 0
M  V30 5335 H 528.225 -5.68104 1.93333 0
M  V30 5336 H 529.295 -4.301 2.23924 0
M  V30 5337 N 530.638 -0.59345 -1.46 0
M  V30 5338 C 531.886 -0.082988 -2.0193 0
M  V30 5339 C 532.207 1.28569 -1.46612 0
M  V30 5340 O 531.477 1.84629 -0.654909 0
M  V30 5341 H 530.057 -0.0276882 -0.746487 0
M  V30 5342 H 532.719 -0.771657 -1.78973 0
M  V30 5343 H 531.815 -0.022079 -3.12092 0
M  V30 5344 N 532.116 1.54067 -0.331816 0
M  V30 5345 C 533.364 2.00319 0.267739 0
M  V30 5346 C 533.685 1.22148 1.52003 0
M  V30 5347 O 532.955 0.325494 1.93177 0
M  V30 5348 H 531.535 0.740014 0.101922 0
M  V30 5349 H 534.197 1.89628 -0.450267 0
M  V30 5350 H 533.293 3.07765 0.518385 0
M  V30 5351 N 533.594 0.0601682 1.57485 0
M  V30 5352 C 534.84 -0.612501 1.93329 0
M  V30 5353 C 535.173 -1.6996 0.939526 0
M  V30 5354 O 534.448 -1.94472 -0.0330957 0
M  V30 5355 C 534.731 -1.20025 3.39508 0
M  V30 5356 C 534.584 -0.12059 4.49638 0
M  V30 5357 C 535.903 -2.10923 3.86264 0
M  V30 5358 H 533.022 -0.221185 0.703027 0
M  V30 5359 H 535.664 0.123768 1.89596 0
M  V30 5360 H 533.814 -1.82774 3.42821 0
M  V30 5361 H 535.486 0.51185 4.58452 0
M  V30 5362 H 533.729 0.550251 4.30296 0
M  V30 5363 H 534.4 -0.572019 5.49028 0
M  V30 5364 H 536.876 -1.58124 3.84884 0
M  V30 5365 H 535.752 -2.48987 4.8918 0
M  V30 5366 H 536.013 -3.01292 3.23536 0
M  V30 5367 N 535.072 -1.5615 -0.213296 0
M  V30 5368 C 536.32 -1.79191 -0.934612 0
M  V30 5369 C 536.641 -0.630112 -1.84539 0
M  V30 5370 O 535.911 0.35257 -1.92701 0
M  V30 5371 H 534.491 -0.660937 -0.348097 0
M  V30 5372 H 537.153 -1.93618 -0.22317 0
M  V30 5373 H 536.249 -2.71656 -1.53654 0
M  V30 5374 N 536.55 0.480323 -1.50102 0
M  V30 5375 C 537.797 1.23307 -1.60629 0
M  V30 5376 C 538.125 1.92135 -0.302375 0
M  V30 5377 O 537.38 1.82321 0.711154 0
M  V30 5378 C 537.679 2.30708 -2.72963 0
M  V30 5379 C 537.345 1.79195 -4.13763 0
M  V30 5380 C 536.007 1.64867 -4.52076 0
M  V30 5381 C 538.359 1.40878 -5.018 0
M  V30 5382 C 535.687 1.10631 -5.76175 0
M  V30 5383 C 538.039 0.880872 -6.26437 0
M  V30 5384 C 536.703 0.724146 -6.6356 0
M  V30 5385 H 535.973 0.451211 -0.587784 0
M  V30 5386 H 538.62 0.53051 -1.84005 0
M  V30 5387 H 536.925 3.06834 -2.43639 0
M  V30 5388 H 538.622 2.88692 -2.78313 0
M  V30 5389 H 535.212 1.91313 -3.83533 0
M  V30 5390 H 539.396 1.50786 -4.7284 0
M  V30 5391 H 534.652 0.972263 -6.0362 0
M  V30 5392 H 538.826 0.575269 -6.9402 0
M  V30 5393 H 536.453 0.301722 -7.59601 0
M  V30 5394 N 538.028 1.39524 0.732853 0
M  V30 5395 C 538.991 1.38189 1.82857 0
M  V30 5396 C 539.991 0.278624 1.58368 0
M  V30 5397 O 541.181 0.536639 1.65728 0
M  V30 5398 C 538.313 1.15661 3.2068 0
M  V30 5399 H 539.506 2.35692 1.85444 0
M  V30 5400 H 537.059 1.2512 0.936728 0
M  V30 5401 H 537.794 0.188482 3.23752 0
M  V30 5402 H 537.579 1.95559 3.39852 0
M  V30 5403 H 539.069 1.17472 4.00737 0
M  V30 5404 N 539.506 -0.963266 1.24736 0
M  V30 5405 C 540.416 -2.09246 1.06082 0
M  V30 5406 C 541.432 -1.74 0.000363101 0
M  V30 5407 O 542.608 -2.0041 0.199479 0
M  V30 5408 C 539.673 -3.40115 0.672498 0
M  V30 5409 C 538.734 -3.89282 1.80993 0
M  V30 5410 C 537.967 -5.13905 1.44004 0
M  V30 5411 O 538.19 -5.69434 0.331835 0
M  V30 5412 O 537.124 -5.57566 2.26723 0
M  V30 5413 H 540.95 -2.27881 2.00759 0
M  V30 5414 H 538.535 -1.07649 1.03595 0
M  V30 5415 H 540.417 -4.18797 0.467668 0
M  V30 5416 H 539.092 -3.22771 -0.245102 0
M  V30 5417 H 537.999 -3.11642 2.06955 0
M  V30 5418 H 539.332 -4.1111 2.70646 0
M  V30 5419 N 540.985 -1.06182 -1.16461 0
M  V30 5420 C 542.233 -0.776326 -1.86595 0
M  V30 5421 C 542.554 0.69921 -1.82033 0
M  V30 5422 O 541.824 1.50579 -1.2531 0
M  V30 5423 H 540.404 -0.284184 -0.690832 0
M  V30 5424 H 543.066 -1.34308 -1.41235 0
M  V30 5425 H 542.162 -1.10022 -2.92064 0
M  V30 5426 N 542.463 1.3308 -0.844243 0
M  V30 5427 C 543.709 1.97898 -0.443206 0
M  V30 5428 C 544.042 1.66699 0.99625 0
M  V30 5429 O 543.317 0.949704 1.69738 0
M  V30 5430 C 543.6 3.53801 -0.670606 0
M  V30 5431 C 543.453 3.94667 -2.15772 0
M  V30 5432 C 544.772 4.39936 -0.120226 0
M  V30 5433 H 541.891 0.718861 -0.162504 0
M  V30 5434 H 544.533 1.57633 -1.06075 0
M  V30 5435 H 542.683 3.88229 -0.14496 0
M  V30 5436 H 544.355 3.70469 -2.74865 0
M  V30 5437 H 542.598 3.44203 -2.6402 0
M  V30 5438 H 543.269 5.03275 -2.26757 0
M  V30 5439 H 545.745 4.12183 -0.5696 0
M  V30 5440 H 544.621 5.4803 -0.308984 0
M  V30 5441 H 544.882 4.31184 0.976347 0
M  V30 5442 N 543.941 0.601185 1.45683 0
M  V30 5443 C 545.169 0.100054 2.06658 0
M  V30 5444 C 545.584 -1.21285 1.44691 0
M  V30 5445 O 544.941 -1.73735 0.558772 0
M  V30 5446 C 544.992 -0.0528579 3.61461 0
M  V30 5447 O 544.713 1.20809 4.21114 0
M  V30 5448 C 546.214 -0.586193 4.39407 0
M  V30 5449 H 543.434 0.065905 0.667756 0
M  V30 5450 H 545.978 0.827101 1.87028 0
M  V30 5451 H 544.133 -0.730203 3.80456 0
M  V30 5452 H 544.547 1.03368 5.14213 0
M  V30 5453 H 546.021 -0.642297 5.4825 0
M  V30 5454 H 546.498 -1.60713 4.0874 0
M  V30 5455 H 547.104 0.0568935 4.25262 0
M  V30 5456 N 545.419 -1.53889 0.339982 0
M  V30 5457 C 546.352 -2.21187 -0.561405 0
M  V30 5458 C 547.33 -1.19463 -1.10306 0
M  V30 5459 O 548.514 -1.48268 -1.164 0
M  V30 5460 C 545.641 -2.8865 -1.77198 0
M  V30 5461 C 544.687 -4.04232 -1.3601 0
M  V30 5462 S 545.52 -5.34129 -0.382909 0
M  V30 5463 C 546.676 -6.05094 -1.60039 0
M  V30 5464 H 546.909 -2.97298 0.0102092 0
M  V30 5465 H 544.442 -1.53901 0.124056 0
M  V30 5466 H 546.4 -3.28138 -2.4665 0
M  V30 5467 H 545.061 -2.12311 -2.3148 0
M  V30 5468 H 544.254 -4.50358 -2.2626 0
M  V30 5469 H 543.856 -3.66503 -0.745098 0
M  V30 5470 H 546.148 -6.2827 -2.53541 0
M  V30 5471 H 547.091 -6.98182 -1.18099 0
M  V30 5472 H 547.499 -5.35207 -1.79483 0
M  V30 5473 N 546.897 -0.0685191 -1.57451 0
M  V30 5474 C 548.145 0.60016 -1.92983 0
M  V30 5475 C 548.466 1.70348 -0.949028 0
M  V30 5476 O 547.736 1.959 0.00335647 0
M  V30 5477 H 546.316 0.224682 -0.712409 0
M  V30 5478 H 548.978 -0.125605 -1.94495 0
M  V30 5479 H 548.074 1.02759 -2.94698 0
M  V30 5480 N 548.375 1.56261 0.205012 0
M  V30 5481 C 549.325 1.90155 1.25798 0
M  V30 5482 C 550.309 0.766227 1.41484 0
M  V30 5483 O 551.501 1.02893 1.44021 0
M  V30 5484 C 548.63 2.23603 2.60493 0
M  V30 5485 C 547.716 3.43568 2.48639 0
M  V30 5486 N 548.107 4.61747 2.06455 0
M  V30 5487 C 546.405 3.4751 2.79558 0
M  V30 5488 C 547.106 5.43907 2.06253 0
M  V30 5489 N 546.082 4.84051 2.47377 0
M  V30 5490 H 549.884 2.79031 0.922986 0
M  V30 5491 H 547.398 1.57048 0.413501 0
M  V30 5492 H 549.395 2.46067 3.36537 0
M  V30 5493 H 548.055 1.36049 2.94823 0
M  V30 5494 H 549.066 4.86598 1.77321 0
M  V30 5495 H 545.743 2.70345 3.18151 0
M  V30 5496 H 547.133 6.48542 1.75622 0
M  V30 5497 N 549.853 -0.472356 1.50355 0
M  V30 5498 C 550.785 -1.58795 1.65278 0
M  V30 5499 C 551.798 -1.53782 0.534313 0
M  V30 5500 O 552.987 -1.59193 0.807446 0
M  V30 5501 C 550.087 -2.97672 1.62001 0
M  V30 5502 C 549.26 -3.27568 2.89859 0
M  V30 5503 C 548.319 -4.45993 2.79242 0
M  V30 5504 O 547.345 -4.46364 3.53197 0
M  V30 5505 N 548.547 -5.47578 1.92713 0
M  V30 5506 H 551.312 -1.46411 2.61503 0
M  V30 5507 H 548.873 -0.660751 1.47803 0
M  V30 5508 H 550.865 -3.74862 1.52513 0
M  V30 5509 H 549.435 -3.03832 0.735159 0
M  V30 5510 H 548.655 -2.39003 3.13483 0
M  V30 5511 H 549.943 -3.44352 3.74565 0
M  V30 5512 H 549.341 -5.50099 1.31939 0
M  V30 5513 H 547.898 -6.23757 1.8913 0
M  V30 5514 N 551.331 -1.39911 -0.725443 0
M  V30 5515 C 552.261 -1.42138 -1.85254 0
M  V30 5516 C 553.242 -0.283513 -1.67721 0
M  V30 5517 O 554.427 -0.490717 -1.87898 0
M  V30 5518 C 551.557 -1.27354 -3.23107 0
M  V30 5519 C 550.511 -2.3864 -3.55296 0
M  V30 5520 C 549.837 -2.08939 -4.92188 0
M  V30 5521 C 551.137 -3.8097 -3.57295 0
M  V30 5522 H 552.831 -2.36461 -1.83648 0
M  V30 5523 H 550.377 -1.13817 -0.882138 0
M  V30 5524 H 552.33 -1.2753 -4.01639 0
M  V30 5525 H 551.054 -0.295025 -3.25265 0
M  V30 5526 H 549.713 -2.37696 -2.79099 0
M  V30 5527 H 549.361 -1.09502 -4.90936 0
M  V30 5528 H 549.061 -2.83491 -5.14691 0
M  V30 5529 H 550.585 -2.10781 -5.73065 0
M  V30 5530 H 551.999 -3.8379 -4.25885 0
M  V30 5531 H 550.396 -4.5496 -3.9132 0
M  V30 5532 H 551.466 -4.11261 -2.5689 0
M  V30 5533 N 552.809 0.956637 -1.25245 0
M  V30 5534 C 553.739 2.07058 -1.07931 0
M  V30 5535 C 554.72 1.70096 0.0110361 0
M  V30 5536 O 555.905 1.93555 -0.158121 0
M  V30 5537 C 553.035 3.40272 -0.695124 0
M  V30 5538 C 551.989 3.91235 -1.73549 0
M  V30 5539 C 551.315 5.20921 -1.20604 0
M  V30 5540 C 552.615 4.17837 -3.13385 0
M  V30 5541 H 554.309 2.218 -2.01109 0
M  V30 5542 H 551.855 1.06581 -0.968326 0
M  V30 5543 H 553.808 4.1765 -0.560949 0
M  V30 5544 H 552.532 3.25462 0.272355 0
M  V30 5545 H 551.191 3.16025 -1.85807 0
M  V30 5546 H 550.839 5.02479 -0.228846 0
M  V30 5547 H 550.539 5.55987 -1.90136 0
M  V30 5548 H 552.063 6.00897 -1.08421 0
M  V30 5549 H 553.477 4.8588 -3.04292 0
M  V30 5550 H 551.874 4.64154 -3.80369 0
M  V30 5551 H 552.944 3.2419 -3.60595 0
M  V30 5552 N 554.287 1.06798 1.15896 0
M  V30 5553 C 555.533 0.788934 1.86825 0
M  V30 5554 C 555.866 -0.683084 1.8179 0
M  V30 5555 O 555.141 -1.50086 1.23711 0
M  V30 5556 C 555.424 1.29065 3.36176 0
M  V30 5557 C 555.277 2.8268 3.49874 0
M  V30 5558 C 556.596 0.902655 4.30744 0
M  V30 5559 H 553.715 0.288066 0.678371 0
M  V30 5560 H 556.357 1.32479 1.36195 0
M  V30 5561 H 554.507 0.834806 3.79425 0
M  V30 5562 H 556.179 3.36511 3.15528 0
M  V30 5563 H 554.422 3.21157 2.91617 0
M  V30 5564 H 555.093 3.12852 4.54783 0
M  V30 5565 H 557.569 1.29535 3.95424 0
M  V30 5566 H 556.445 1.28111 5.3374 0
M  V30 5567 H 556.706 -0.191951 4.41683 0
M  V30 5568 N 555.766 -1.3263 0.851289 0
M  V30 5569 C 556.698 -2.27824 0.250757 0
M  V30 5570 C 557.711 -1.52285 -0.575598 0
M  V30 5571 O 558.9 -1.73946 -0.400638 0
M  V30 5572 C 556 -3.3232 -0.664571 0
M  V30 5573 C 555.173 -4.37221 0.125187 0
M  V30 5574 C 554.232 -5.21314 -0.715385 0
M  V30 5575 O 553.258 -5.69002 -0.150111 0
M  V30 5576 N 554.46 -5.43823 -2.03069 0
M  V30 5577 H 557.225 -2.79997 1.06873 0
M  V30 5578 H 554.786 -1.45455 0.710943 0
M  V30 5579 H 556.778 -3.85486 -1.23216 0
M  V30 5580 H 555.348 -2.80331 -1.38323 0
M  V30 5581 H 554.568 -3.84384 0.874199 0
M  V30 5582 H 555.856 -5.04399 0.667774 0
M  V30 5583 H 555.254 -5.06803 -2.51332 0
M  V30 5584 H 553.811 -5.99998 -2.54648 0
M  V30 5585 N 557.244 -0.608902 -1.45362 0
M  V30 5586 C 558.174 0.0964526 -2.33301 0
M  V30 5587 C 559.155 0.857444 -1.46908 0
M  V30 5588 O 560.34 0.827735 -1.75676 0
M  V30 5589 C 557.47 1.09354 -3.29635 0
M  V30 5590 C 556.424 0.445676 -4.25673 0
M  V30 5591 C 555.75 1.5511 -5.11708 0
M  V30 5592 C 557.05 -0.633972 -5.18438 0
M  V30 5593 H 558.744 -0.637829 -2.92527 0
M  V30 5594 H 556.29 -0.308178 -1.40664 0
M  V30 5595 H 558.243 1.59556 -3.90025 0
M  V30 5596 H 556.967 1.85843 -2.6857 0
M  V30 5597 H 555.626 -0.0354897 -3.66583 0
M  V30 5598 H 555.274 2.30631 -4.4701 0
M  V30 5599 H 554.974 1.12311 -5.76767 0
M  V30 5600 H 556.498 2.05537 -5.74967 0
M  V30 5601 H 557.912 -0.215974 -5.72893 0
M  V30 5602 H 556.309 -0.983789 -5.91981 0
M  V30 5603 H 557.379 -1.51005 -4.60788 0
M  V30 5604 N 558.722 1.53707 -0.348139 0
M  V30 5605 C 559.632 2.28881 0.514857 0
M  V30 5606 C 560.648 1.34168 1.10793 0
M  V30 5607 O 561.824 1.6721 1.12262 0
M  V30 5608 C 558.889 3.05042 1.64774 0
M  V30 5609 C 557.95 4.15389 1.08398 0
M  V30 5610 C 557.183 4.87909 2.16287 0
M  V30 5611 O 557.406 4.60137 3.3709 0
M  V30 5612 O 556.34 5.74254 1.80323 0
M  V30 5613 H 560.166 3.03547 -0.0963699 0
M  V30 5614 H 557.751 1.48972 -0.113043 0
M  V30 5615 H 559.633 3.52656 2.30677 0
M  V30 5616 H 558.308 2.33228 2.24469 0
M  V30 5617 H 557.215 3.72068 0.389341 0
M  V30 5618 H 558.548 4.89318 0.531829 0
M  V30 5619 N 560.2 0.0768682 1.57412 0
M  V30 5620 C 561.425 -0.603404 1.98428 0
M  V30 5621 C 561.85 -1.62047 0.955108 0
M  V30 5622 O 561.208 -1.81129 -0.0786778 0
M  V30 5623 C 561.256 -1.24396 3.38464 0
M  V30 5624 O 560.36 -2.35982 3.3821 0
M  V30 5625 H 559.701 -0.154741 0.645718 0
M  V30 5626 H 562.231 0.152885 2.04028 0
M  V30 5627 H 562.241 -1.5896 3.7576 0
M  V30 5628 H 560.916 -0.498735 4.12899 0
M  V30 5629 H 559.493 -2.03173 3.1269 0
M  V30 5630 N 561.678 -1.56367 -0.196722 0
M  V30 5631 C 562.927 -1.79724 -0.915539 0
M  V30 5632 C 563.24 -0.649804 -1.84491 0
M  V30 5633 O 564.446 -0.767631 -2.60422 0
M  V30 5634 C 562.902 -3.18369 -1.67836 0
M  V30 5635 C 562.51 -4.4091 -0.793897 0
M  V30 5636 C 564.254 -3.51037 -2.38691 0
M  V30 5637 C 562.161 -5.70577 -1.55549 0
M  V30 5638 H 561.091 -0.67013 -0.345604 0
M  V30 5639 H 563.742 -1.82721 -0.168856 0
M  V30 5640 H 562.124 -3.09617 -2.46887 0
M  V30 5641 H 563.298 -4.60781 -0.042163 0
M  V30 5642 H 561.613 -4.15937 -0.19626 0
M  V30 5643 H 564.21 -4.4515 -2.96219 0
M  V30 5644 H 564.553 -2.74704 -3.12799 0
M  V30 5645 H 565.086 -3.61229 -1.66608 0
M  V30 5646 H 561.825 -6.49871 -0.857226 0
M  V30 5647 H 561.345 -5.54726 -2.2812 0
M  V30 5648 H 563.024 -6.11637 -2.10971 0
M  V30 5649 N 563.156 0.464375 -1.50603 0
M  V30 5650 C 564.119 1.54393 -1.69397 0
M  V30 5651 C 565.119 1.50566 -0.564504 0
M  V30 5652 O 566.309 1.53066 -0.831645 0
M  V30 5653 C 563.441 2.9401 -1.72543 0
M  V30 5654 H 564.634 1.39044 -2.65719 0
M  V30 5655 H 562.187 0.69122 -1.40185 0
M  V30 5656 H 562.922 3.14795 -0.77938 0
M  V30 5657 H 562.707 2.98195 -2.54602 0
M  V30 5658 H 564.197 3.72375 -1.89015 0
M  V30 5659 N 564.634 1.40294 0.718013 0
M  V30 5660 C 565.883 1.37746 1.4734 0
M  V30 5661 C 566.196 -0.0180754 1.95592 0
M  V30 5662 O 567.402 -0.166166 2.70991 0
M  V30 5663 C 565.858 2.4208 2.66318 0
M  V30 5664 C 565.466 3.87432 2.24945 0
M  V30 5665 C 567.21 2.48635 3.44065 0
M  V30 5666 C 565.117 4.83368 3.40748 0
M  V30 5667 H 564.047 0.512165 0.553356 0
M  V30 5668 H 566.698 1.66019 0.781661 0
M  V30 5669 H 565.08 2.06903 3.3765 0
M  V30 5670 H 566.254 4.3174 1.6105 0
M  V30 5671 H 564.569 3.8433 1.60249 0
M  V30 5672 H 567.166 3.17499 4.30231 0
M  V30 5673 H 567.509 1.51611 3.87711 0
M  V30 5674 H 568.042 2.82791 2.79775 0
M  V30 5675 H 564.781 5.81716 3.02136 0
M  V30 5676 H 564.301 4.43726 4.03568 0
M  V30 5677 H 565.98 5.03074 4.06848 0
M  V30 5678 N 566.112 -0.949982 1.2575 0
M  V30 5679 C 567.34 -1.72972 1.13527 0
M  V30 5680 C 567.755 -1.8623 -0.310453 0
M  V30 5681 O 567.112 -1.36336 -1.2132 0
M  V30 5682 C 567.163 -3.14108 1.78936 0
M  V30 5683 O 566.884 -3.01493 3.17858 0
M  V30 5684 C 568.385 -4.08338 1.72554 0
M  V30 5685 H 565.605 -0.541864 0.395758 0
M  V30 5686 H 568.149 -1.19151 1.66202 0
M  V30 5687 H 566.304 -3.64858 1.30221 0
M  V30 5688 H 566.718 -3.90559 3.50092 0
M  V30 5689 H 568.192 -5.04963 2.22973 0
M  V30 5690 H 568.669 -4.33742 0.690251 0
M  V30 5691 H 569.275 -3.63506 2.2078 0
M  V30 5692 N 567.59 -1.07411 -1.15328 0
M  V30 5693 C 568.839 -0.792643 -1.85473 0
M  V30 5694 C 569.152 0.683789 -1.83259 0
M  V30 5695 O 570.358 1.08005 -2.49093 0
M  V30 5696 C 568.814 -1.36787 -3.32892 0
M  V30 5697 C 568.422 -2.87536 -3.43551 0
M  V30 5698 C 570.166 -1.16444 -4.08217 0
M  V30 5699 C 568.073 -3.38247 -4.85122 0
M  V30 5700 H 567.003 -0.292838 -0.694811 0
M  V30 5701 H 569.654 -1.29426 -1.30082 0
M  V30 5702 H 568.036 -0.793993 -3.87958 0
M  V30 5703 H 569.21 -3.50973 -2.98588 0
M  V30 5704 H 567.525 -3.06676 -2.81672 0
M  V30 5705 H 570.122 -1.51808 -5.12697 0
M  V30 5706 H 570.465 -0.10353 -4.16171 0
M  V30 5707 H 570.998 -1.70472 -3.59422 0
M  V30 5708 H 567.737 -4.43866 -4.82351 0
M  V30 5709 H 567.257 -2.79564 -5.30664 0
M  V30 5710 H 568.936 -3.34238 -5.5398 0
M  V30 5711 N 569.068 1.32177 -0.85831 0
M  V30 5712 C 570.314 1.97417 -0.46417 0
M  V30 5713 C 570.647 1.67746 0.978514 0
M  V30 5714 O 569.922 0.967654 1.68721 0
M  V30 5715 C 570.205 3.53069 -0.708094 0
M  V30 5716 C 570.058 3.92357 -2.19946 0
M  V30 5717 C 571.377 4.39783 -0.166881 0
M  V30 5718 H 568.496 0.717097 -0.17012 0
M  V30 5719 H 571.138 1.56499 -1.07741 0
M  V30 5720 H 569.288 3.88054 -0.186128 0
M  V30 5721 H 570.96 3.67533 -2.78779 0
M  V30 5722 H 569.203 3.41384 -2.67656 0
M  V30 5723 H 569.874 5.00841 -2.32082 0
M  V30 5724 H 572.35 4.11556 -0.613285 0
M  V30 5725 H 571.226 5.47671 -0.367093 0
M  V30 5726 H 571.487 4.32196 0.930559 0
M  V30 5727 N 570.547 0.616602 1.45037 0
M  V30 5728 C 571.793 0.123965 2.03022 0
M  V30 5729 C 572.148 -1.23508 1.47525 0
M  V30 5730 O 571.441 -1.80453 0.643981 0
M  V30 5731 C 571.635 0.0356829 3.57382 0
M  V30 5732 C 571.464 1.38462 4.27853 0
M  V30 5733 C 570.234 1.96766 4.65415 0
M  V30 5734 C 572.432 2.31536 4.59234 0
M  V30 5735 N 570.414 3.25046 5.20786 0
M  V30 5736 C 571.785 3.4442 5.15533 0
M  V30 5737 C 573.84 2.30796 4.41178 0
M  V30 5738 C 572.543 4.56742 5.55679 0
M  V30 5739 C 574.569 3.42171 4.82362 0
M  V30 5740 C 573.931 4.53778 5.38762 0
M  V30 5741 H 570.03 0.0889428 0.776925 0
M  V30 5742 H 572.614 0.816925 1.76733 0
M  V30 5743 H 570.785 -0.62652 3.83314 0
M  V30 5744 H 572.517 -0.464443 4.02026 0
M  V30 5745 H 569.272 1.4987 4.49261 0
M  V30 5746 H 569.696 3.90592 5.52962 0
M  V30 5747 H 574.338 1.45765 3.96878 0
M  V30 5748 H 572.056 5.42491 5.9894 0
M  V30 5749 H 575.642 3.42757 4.70116 0
M  V30 5750 H 574.522 5.38536 5.70043 0
M  V30 5751 N 572.025 -1.5352 0.356285 0
M  V30 5752 C 573.25 -2.06007 -0.239961 0
M  V30 5753 C 573.675 -1.22872 -1.42422 0
M  V30 5754 O 573.033 -0.245516 -1.7963 0
M  V30 5755 C 573.081 -3.5522 -0.620587 0
M  V30 5756 O 572.185 -3.74864 -1.71902 0
M  V30 5757 H 571.526 -0.662961 -0.0371377 0
M  V30 5758 H 574.056 -1.98033 0.514194 0
M  V30 5759 H 574.066 -3.98081 -0.894197 0
M  V30 5760 H 572.741 -4.15175 0.245407 0
M  V30 5761 H 571.318 -3.43904 -1.44169 0
M  V30 5762 N 573.503 -0.0852151 -1.57369 0
M  V30 5763 C 574.751 0.579658 -1.93609 0
M  V30 5764 C 575.072 1.69332 -0.967043 0
M  V30 5765 O 574.342 1.95892 -0.0174215 0
M  V30 5766 H 572.922 0.217113 -0.714752 0
M  V30 5767 H 575.584 -0.146226 -1.94351 0
M  V30 5768 H 574.68 0.996276 -2.95771 0
M  V30 5769 N 574.981 1.5647 0.188427 0
M  V30 5770 C 576.227 1.81281 0.909124 0
M  V30 5771 C 576.56 0.66034 1.82628 0
M  V30 5772 O 575.835 -0.338737 1.91528 0
M  V30 5773 C 576.118 3.16388 1.7196 0
M  V30 5774 C 575.971 4.42137 0.826714 0
M  V30 5775 C 577.29 3.48256 2.69083 0
M  V30 5776 H 574.409 0.659457 0.329068 0
M  V30 5777 H 577.051 1.89182 0.176156 0
M  V30 5778 H 575.201 3.09784 2.34448 0
M  V30 5779 H 576.873 4.60794 0.216025 0
M  V30 5780 H 575.116 4.33594 0.133792 0
M  V30 5781 H 575.787 5.33184 1.42893 0
M  V30 5782 H 578.263 3.55203 2.16726 0
M  V30 5783 H 577.139 4.43899 3.2287 0
M  V30 5784 H 577.4 2.72088 3.48455 0
M  V30 5785 N 576.459 -0.456382 1.50847 0
M  V30 5786 C 577.705 -1.20914 1.62811 0
M  V30 5787 C 578.038 -1.91301 0.334304 0
M  V30 5788 O 577.313 -1.82775 -0.665098 0
M  V30 5789 C 577.596 -2.24122 2.81853 0
M  V30 5790 C 577.449 -1.57944 4.21158 0
M  V30 5791 C 578.768 -3.25295 2.96431 0
M  V30 5792 H 575.887 -0.438233 0.592554 0
M  V30 5793 H 578.529 -0.50091 1.83278 0
M  V30 5794 H 576.679 -2.84524 2.64534 0
M  V30 5795 H 578.351 -1.01025 4.50102 0
M  V30 5796 H 576.594 -0.882185 4.24735 0
M  V30 5797 H 577.265 -2.33014 5.00408 0
M  V30 5798 H 579.741 -2.7493 3.12335 0
M  V30 5799 H 578.617 -3.94822 3.81322 0
M  V30 5800 H 578.878 -3.90286 2.07676 0
M  V30 5801 N 577.937 -1.40673 -0.710563 0
M  V30 5802 C 578.9 -1.4108 -1.80635 0
M  V30 5803 C 579.9 -0.303783 -1.57904 0
M  V30 5804 O 581.09 -0.562937 -1.64853 0
M  V30 5805 C 578.222 -1.20748 -3.18799 0
M  V30 5806 H 579.415 -2.38612 -1.81671 0
M  V30 5807 H 576.968 -1.26595 -0.916704 0
M  V30 5808 H 577.703 -0.239964 -3.23411 0
M  V30 5809 H 577.488 -2.00941 -3.36698 0
M  V30 5810 H 578.978 -1.23833 -3.98817 0
M  V30 5811 N 579.415 0.9433 -1.26252 0
M  V30 5812 C 580.662 1.68925 -1.11672 0
M  V30 5813 C 580.99 1.91499 0.340329 0
M  V30 5814 O 580.245 1.49189 1.26653 0
M  V30 5815 C 580.544 3.07073 -1.82868 0
M  V30 5816 C 580.21 3.04262 -3.32769 0
M  V30 5817 C 578.872 3.03203 -3.7366 0
M  V30 5818 C 581.224 2.96729 -4.28487 0
M  V30 5819 C 578.552 2.92373 -5.0866 0
M  V30 5820 C 580.904 2.87442 -5.63525 0
M  V30 5821 C 579.568 2.84724 -6.03729 0
M  V30 5822 H 578.838 0.618141 -0.408635 0
M  V30 5823 H 581.485 1.10124 -1.56668 0
M  V30 5824 H 579.79 3.69486 -1.30335 0
M  V30 5825 H 581.487 3.63635 -1.69029 0
M  V30 5826 H 578.077 3.05865 -3.00241 0
M  V30 5827 H 582.261 2.96658 -3.97879 0
M  V30 5828 H 577.517 2.88645 -5.38975 0
M  V30 5829 H 581.691 2.80576 -6.37377 0
M  V30 5830 H 579.318 2.76089 -7.08293 0
M  V30 5831 N 580.893 1.08022 1.14757 0
M  V30 5832 C 582.142 0.802468 1.8505 0
M  V30 5833 C 582.455 -0.674061 1.83619 0
M  V30 5834 O 583.661 -1.06683 2.49662 0
M  V30 5835 C 582.117 1.38551 3.32162 0
M  V30 5836 C 581.725 2.89354 3.42021 0
M  V30 5837 C 583.469 1.18608 4.07594 0
M  V30 5838 C 581.376 3.40815 4.83321 0
M  V30 5839 H 580.306 0.296518 0.693248 0
M  V30 5840 H 582.957 1.30114 1.29393 0
M  V30 5841 H 581.339 0.814556 3.87532 0
M  V30 5842 H 582.513 3.52552 2.96722 0
M  V30 5843 H 580.828 3.08165 2.80041 0
M  V30 5844 H 583.425 1.54525 5.11885 0
M  V30 5845 H 583.768 0.125599 4.1611 0
M  V30 5846 H 584.301 1.72375 3.58513 0
M  V30 5847 H 581.04 4.46418 4.79991 0
M  V30 5848 H 580.56 2.82374 5.29174 0
M  V30 5849 H 582.239 3.37171 5.522 0
M  V30 5850 N 582.371 -1.3172 0.865308 0
M  V30 5851 C 583.619 -1.96487 0.472995 0
M  V30 5852 C 583.94 -1.68761 -0.976975 0
M  V30 5853 O 583.21 -1.00051 -1.68424 0
M  V30 5854 H 581.79 -0.726947 0.171922 0
M  V30 5855 H 584.452 -1.60612 1.10407 0
M  V30 5856 H 583.548 -3.0574 0.62687 0
M  V30 5857 N 583.85 -0.624285 -1.44708 0
M  V30 5858 C 585.08 -0.132726 -2.06173 0
M  V30 5859 C 585.488 1.19513 -1.46674 0
M  V30 5860 O 584.831 1.74254 -0.581491 0
M  V30 5861 C 584.893 0.0636732 -3.59444 0
M  V30 5862 C 584.557 -1.18496 -4.4137 0
M  V30 5863 C 585.553 -2.10706 -4.75288 0
M  V30 5864 C 583.239 -1.41846 -4.81856 0
M  V30 5865 C 585.233 -3.24582 -5.48567 0
M  V30 5866 C 582.92 -2.5602 -5.54885 0
M  V30 5867 C 583.918 -3.47215 -5.88159 0
M  V30 5868 O 583.606 -4.59399 -6.59703 0
M  V30 5869 H 583.338 -0.0737313 -0.671967 0
M  V30 5870 H 585.892 -0.856789 -1.86677 0
M  V30 5871 H 584.122 0.842809 -3.77404 0
M  V30 5872 H 585.811 0.508924 -4.02697 0
M  V30 5873 H 586.577 -1.93898 -4.44554 0
M  V30 5874 H 582.456 -0.717556 -4.55381 0
M  V30 5875 H 586 -3.95785 -5.74456 0
M  V30 5876 H 581.897 -2.72774 -5.85034 0
M  V30 5877 H 582.665 -4.58293 -6.78166 0
M  V30 5878 N 585.328 1.53329 -0.364422 0
M  V30 5879 C 586.275 2.25698 0.482607 0
M  V30 5880 C 587.245 1.26325 1.07848 0
M  V30 5881 O 588.43 1.55104 1.11119 0
M  V30 5882 C 585.57 3.04873 1.61699 0
M  V30 5883 C 584.683 4.19135 1.0464 0
M  V30 5884 C 583.818 4.85754 2.14979 0
M  V30 5885 C 582.857 5.9205 1.5538 0
M  V30 5886 N 581.994 6.52365 2.59547 0
M  V30 5887 H 586.834 2.97666 -0.141032 0
M  V30 5888 H 584.371 1.46875 -0.0813692 0
M  V30 5889 H 586.329 3.49051 2.28516 0
M  V30 5890 H 584.959 2.35162 2.2113 0
M  V30 5891 H 584.011 3.79451 0.268553 0
M  V30 5892 H 585.323 4.95525 0.570653 0
M  V30 5893 H 584.477 5.3311 2.89619 0
M  V30 5894 H 583.216 4.08834 2.65906 0
M  V30 5895 H 582.221 5.44058 0.792549 0
M  V30 5896 H 583.446 6.7089 1.0528 0
M  V30 5897 H 581.392 5.78298 3.09689 0
M  V30 5898 H 581.309 7.2429 2.16655 0
M  V30 5899 H 582.577 7.0437 3.33892 0
M  V30 5900 N 586.806 0.0935595 1.57322 0
M  V30 5901 C 587.736 -0.863062 2.16964 0
M  V30 5902 C 588.717 -1.29528 1.10256 0
M  V30 5903 O 589.902 -1.36245 1.38387 0
M  V30 5904 C 587.032 -2.12276 2.74875 0
M  V30 5905 C 585.986 -1.82921 3.86942 0
M  V30 5906 C 585.312 -3.15707 4.31548 0
M  V30 5907 C 586.612 -1.11737 5.10208 0
M  V30 5908 H 588.306 -0.366145 2.97153 0
M  V30 5909 H 585.852 -0.174673 1.42937 0
M  V30 5910 H 587.805 -2.79634 3.1525 0
M  V30 5911 H 586.529 -2.64248 1.91938 0
M  V30 5912 H 585.188 -1.17961 3.47103 0
M  V30 5913 H 584.836 -3.65563 3.45504 0
M  V30 5914 H 584.536 -2.96849 5.07104 0
M  V30 5915 H 586.06 -3.84226 4.74555 0
M  V30 5916 H 587.474 -1.69203 5.47762 0
M  V30 5917 H 585.871 -1.03064 5.91183 0
M  V30 5918 H 586.941 -0.0998818 4.84797 0
M  V30 5919 N 588.284 -1.56567 -0.180126 0
M  V30 5920 C 589.247 -1.94852 -1.20686 0
M  V30 5921 C 590.247 -0.831212 -1.3765 0
M  V30 5922 O 591.437 -1.09841 -1.35206 0
M  V30 5923 C 588.569 -2.23565 -2.57355 0
M  V30 5924 H 589.762 -2.86722 -0.879225 0
M  V30 5925 H 587.315 -1.50489 -0.422237 0
M  V30 5926 H 588.05 -1.34381 -2.95148 0
M  V30 5927 H 587.835 -3.04999 -2.46411 0
M  V30 5928 H 589.325 -2.54137 -3.31367 0
M  V30 5929 N 589.762 0.448376 -1.51087 0
M  V30 5930 C 591.039 1.20926 -1.53741 0
M  V30 5931 C 591.419 2.09025 -0.295222 0
M  V30 5932 O 590.767 2.16851 0.720283 0
M  V30 5933 C 590.977 2.02067 -2.84552 0
M  V30 5934 C 592.325 2.59486 -3.36084 0
M  V30 5935 O 593.349 2.12289 -2.86028 0
M  V30 5936 O 592.208 3.45539 -4.23397 0
M  V30 5937 H 589.302 0.549951 -0.617643 0
M  V30 5938 H 591.848 0.458344 -1.63393 0
M  V30 5939 H 590.62 1.37291 -3.66425 0
M  V30 5940 H 590.243 2.84246 -2.78011 0
M  V30 5941 N 591.24 1.41047 0.703093 0
M  V30 5942 C 592.17 1.45067 1.82969 0
M  V30 5943 C 593.151 0.31016 1.67248 0
M  V30 5944 O 594.336 0.520548 1.87093 0
M  V30 5945 C 591.466 1.32478 3.2104 0
M  V30 5946 C 590.42 2.44262 3.51454 0
M  V30 5947 C 589.746 2.16742 4.88801 0
M  V30 5948 C 591.046 3.86606 3.51189 0
M  V30 5949 H 592.74 2.39353 1.79863 0
M  V30 5950 H 590.286 1.15206 0.863919 0
M  V30 5951 H 592.239 1.33904 3.99559 0
M  V30 5952 H 590.963 0.346735 3.24754 0
M  V30 5953 H 589.622 2.42107 2.75282 0
M  V30 5954 H 589.27 1.17299 4.89132 0
M  V30 5955 H 588.97 2.91643 5.10116 0
M  V30 5956 H 590.494 2.19872 5.69639 0
M  V30 5957 H 591.908 3.90517 4.19725 0
M  V30 5958 H 590.305 4.61128 3.84033 0
M  V30 5959 H 591.375 4.15296 2.50315 0
M  V30 5960 N 592.718 -0.936591 1.26751 0
M  V30 5961 C 593.946 -1.71758 1.15355 0
M  V30 5962 C 594.361 -1.86549 -0.290683 0
M  V30 5963 O 593.718 -1.37616 -1.19868 0
M  V30 5964 C 593.769 -3.12193 1.82258 0
M  V30 5965 O 593.49 -2.98105 3.21038 0
M  V30 5966 C 594.991 -4.06485 1.76875 0
M  V30 5967 H 592.211 -0.537636 0.401483 0
M  V30 5968 H 594.755 -1.17382 1.67457 0
M  V30 5969 H 592.91 -3.63456 1.34083 0
M  V30 5970 H 593.324 -3.86824 3.54214 0
M  V30 5971 H 594.798 -5.02569 2.28316 0
M  V30 5972 H 595.275 -4.32986 0.736216 0
M  V30 5973 H 595.881 -3.61144 2.24623 0
M  V30 5974 N 594.196 -1.08629 -1.14182 0
M  V30 5975 C 595.442 -0.818556 -1.85546 0
M  V30 5976 C 595.775 0.654076 -1.82854 0
M  V30 5977 O 595.05 1.48099 -1.26083 0
M  V30 5978 C 595.333 -1.34397 -3.3408 0
M  V30 5979 C 595.186 -2.8821 -3.45333 0
M  V30 5980 C 596.505 -0.971069 -4.29253 0
M  V30 5981 H 593.624 -0.298821 -0.673702 0
M  V30 5982 H 596.266 -1.34629 -1.34071 0
M  V30 5983 H 594.416 -0.895064 -3.78049 0
M  V30 5984 H 596.088 -3.41488 -3.10134 0
M  V30 5985 H 594.331 -3.25756 -2.86471 0
M  V30 5986 H 595.002 -3.20047 -4.49749 0
M  V30 5987 H 597.478 -1.35809 -3.93313 0
M  V30 5988 H 596.354 -1.36586 -5.31635 0
M  V30 5989 H 596.615 0.121659 -4.41933 0
M  V30 5990 N 595.674 1.31259 -0.872281 0
M  V30 5991 C 596.922 1.96233 -0.483409 0
M  V30 5992 C 597.243 1.69276 0.968012 0
M  V30 5993 O 596.513 1.00943 1.67891 0
M  V30 5994 H 595.093 0.726025 -0.175774 0
M  V30 5995 H 597.755 1.60024 -1.11258 0
M  V30 5996 H 596.851 3.05403 -0.643075 0
M  V30 5997 N 597.152 0.631951 1.44375 0
M  V30 5998 C 598.082 -0.0593243 2.33425 0
M  V30 5999 C 599.063 -0.833964 1.48253 0
M  V30 6000 O 600.248 -0.799682 1.76971 0
M  V30 6001 C 597.378 -1.04096 3.31333 0
M  V30 6002 C 596.332 -0.377899 4.26328 0
M  V30 6003 C 595.658 -1.4695 5.14111 0
M  V30 6004 C 596.958 0.716371 5.17364 0
M  V30 6005 H 598.652 0.684287 2.91475 0
M  V30 6006 H 596.198 0.330518 1.40156 0
M  V30 6007 H 598.151 -1.53331 3.92514 0
M  V30 6008 H 596.875 -1.81547 2.71493 0
M  V30 6009 H 595.534 0.0938054 3.6648 0
M  V30 6010 H 595.182 -2.2349 4.50623 0
M  V30 6011 H 594.882 -1.03121 5.78481 0
M  V30 6012 H 596.406 -1.96363 5.78164 0
M  V30 6013 H 597.82 0.307089 5.72477 0
M  V30 6014 H 596.217 1.07784 5.90341 0
M  V30 6015 H 597.287 1.58316 4.58327 0
M  V30 6016 N 598.631 -1.53133 0.372548 0
M  V30 6017 C 600.047 -1.59585 0.02178 0
M  V30 6018 C 600.247 -1.38736 -1.46132 0
M  V30 6019 O 599.303 -1.19599 -2.22379 0
M  V30 6020 C 600.616 -2.9678 0.483959 0
M  V30 6021 C 602.164 -3.09909 0.438775 0
M  V30 6022 C 602.639 -4.49527 0.876876 0
M  V30 6023 N 604.13 -4.55663 0.832214 0
M  V30 6024 C 604.865 -5.61896 1.14281 0
M  V30 6025 N 604.361 -6.75852 1.52303 0
M  V30 6026 N 606.154 -5.51916 1.06515 0
M  V30 6027 H 598.305 -1.64936 1.33827 0
M  V30 6028 H 600.568 -0.773947 0.547458 0
M  V30 6029 H 600.274 -3.17198 1.51915 0
M  V30 6030 H 600.148 -3.7699 -0.125784 0
M  V30 6031 H 602.535 -2.89197 -0.587294 0
M  V30 6032 H 602.616 -2.31691 1.0841 0
M  V30 6033 H 602.26 -4.70979 1.90109 0
M  V30 6034 H 602.19 -5.26186 0.208727 0
M  V30 6035 H 604.681 -3.73844 0.552195 0
M  V30 6036 H 604.994 -7.52862 1.7441 0
M  V30 6037 H 603.339 -6.77226 1.56175 0
M  V30 6038 H 606.53 -4.6177 0.767235 0
M  V30 6039 H 606.703 -6.34609 1.31053 0
M  V30 6040 N 600.109 -0.101901 -1.5727 0
M  V30 6041 C 601.355 0.561027 -1.94885 0
M  V30 6042 C 601.688 1.6741 -0.984258 0
M  V30 6043 O 600.963 1.94491 -0.0184767 0
M  V30 6044 C 601.246 1.10982 -3.42571 0
M  V30 6045 C 601.099 0.00133418 -4.498 0
M  V30 6046 C 602.418 2.00608 -3.9172 0
M  V30 6047 H 599.537 0.202467 -0.708644 0
M  V30 6048 H 602.179 -0.173992 -1.89202 0
M  V30 6049 H 600.329 1.73621 -3.47546 0
M  V30 6050 H 602.001 -0.63322 -4.56933 0
M  V30 6051 H 600.244 -0.664143 -4.28686 0
M  V30 6052 H 600.915 0.426253 -5.50352 0
M  V30 6053 H 603.391 1.47864 -3.88941 0
M  V30 6054 H 602.267 2.3593 -4.95609 0
M  V30 6055 H 602.528 2.92608 -3.3141 0
M  V30 6056 N 601.587 1.56661 0.17182 0
M  V30 6057 C 602.998 1.71652 0.734329 0
M  V30 6058 C 603.349 0.712335 1.82812 0
M  V30 6059 O 602.474 -0.126401 2.16031 0
M  V30 6060 C 603.069 3.11226 1.3388 0
M  V30 6061 C 601.628 3.27904 1.84813 0
M  V30 6062 C 600.775 2.67603 0.726917 0
M  V30 6063 H 603.726 1.5861 -0.0535665 0
M  V30 6064 H 603.747 3.09849 2.20849 0
M  V30 6065 H 603.259 3.8429 0.54249 0
M  V30 6066 H 601.36 2.59796 2.6709 0
M  V30 6067 H 601.473 4.35637 1.99392 0
M  V30 6068 H 599.837 2.274 1.14723 0
M  V30 6069 H 600.62 3.43252 -0.0575334 0
M  V30 6070 N 603.065 -0.440357 1.51323 0
M  V30 6071 C 603.975 -1.55955 1.75258 0
M  V30 6072 C 604.991 -1.61933 0.636687 0
M  V30 6073 O 606.167 -1.79231 0.918593 0
M  V30 6074 C 603.232 -2.9196 1.86977 0
M  V30 6075 C 602.293 -2.96122 3.10822 0
M  V30 6076 C 601.526 -4.2564 3.21973 0
M  V30 6077 O 601.749 -5.17851 2.39137 0
M  V30 6078 O 600.683 -4.36025 4.14929 0
M  V30 6079 H 604.509 -1.38673 2.70191 0
M  V30 6080 H 602.094 -0.623055 1.35788 0
M  V30 6081 H 603.976 -3.72682 1.96688 0
M  V30 6082 H 602.651 -3.09375 0.952307 0
M  V30 6083 H 601.558 -2.14366 3.06591 0
M  V30 6084 H 602.891 -2.83651 4.02247 0
M  V30 6085 N 604.543 -1.41418 -0.695603 0
M  V30 6086 C 605.453 -1.45622 -1.83933 0
M  V30 6087 C 606.469 -0.346825 -1.70508 0
M  V30 6088 O 607.645 -0.59454 -1.92424 0
M  V30 6089 C 604.71 -1.33627 -3.19914 0
M  V30 6090 C 603.771 -2.54882 -3.45447 0
M  V30 6091 C 603.004 -2.43449 -4.7494 0
M  V30 6092 O 603.227 -1.45905 -5.51424 0
M  V30 6093 O 602.161 -3.33206 -5.01256 0
M  V30 6094 H 605.987 -2.42114 -1.83342 0
M  V30 6095 H 603.572 -1.22956 -0.848658 0
M  V30 6096 H 605.454 -1.29221 -4.01098 0
M  V30 6097 H 604.129 -0.402508 -3.21188 0
M  V30 6098 H 603.036 -2.64865 -2.64192 0
M  V30 6099 H 604.369 -3.47087 -3.48987 0
M  V30 6100 N 606.021 0.929856 -1.27246 0
M  V30 6101 C 606.953 2.03434 -1.0558 0
M  V30 6102 C 607.966 1.62795 -0.0125762 0
M  V30 6103 O 609.155 1.76685 -0.2539 0
M  V30 6104 C 606.255 3.33915 -0.57912 0
M  V30 6105 C 605.428 4.03259 -1.69415 0
M  V30 6106 C 604.487 5.12014 -1.21357 0
M  V30 6107 O 603.513 5.36097 -1.91282 0
M  V30 6108 N 604.715 5.8046 -0.0680622 0
M  V30 6109 H 607.48 2.22583 -2.00691 0
M  V30 6110 H 605.041 1.1001 -1.18783 0
M  V30 6111 H 607.033 4.03978 -0.241563 0
M  V30 6112 H 605.603 3.11355 0.278703 0
M  V30 6113 H 604.823 3.26958 -2.20209 0
M  V30 6114 H 606.111 4.46337 -2.44255 0
M  V30 6115 H 605.509 5.63345 0.515626 0
M  V30 6116 H 604.066 6.51461 0.210332 0
M  V30 6117 N 607.499 1.09233 1.13605 0
M  V30 6118 C 608.409 0.741939 2.22559 0
M  V30 6119 C 609.425 -0.255236 1.72118 0
M  V30 6120 O 610.601 -0.0970747 2.01166 0
M  V30 6121 C 607.666 0.165595 3.46304 0
M  V30 6122 C 606.727 1.21846 4.11645 0
M  V30 6123 C 605.96 0.669526 5.29484 0
M  V30 6124 O 606.183 -0.508228 5.68131 0
M  V30 6125 O 605.117 1.42361 5.84822 0
M  V30 6126 H 608.943 1.65107 2.54899 0
M  V30 6127 H 606.528 0.866584 1.21699 0
M  V30 6128 H 608.41 -0.152592 4.21124 0
M  V30 6129 H 607.085 -0.716573 3.15669 0
M  V30 6130 H 605.992 1.58931 3.38662 0
M  V30 6131 H 607.325 2.07321 4.46407 0
M  V30 6132 N 608.977 -1.30795 0.87923 0
M  V30 6133 C 610.393 -1.48981 0.57243 0
M  V30 6134 C 610.593 -1.80719 -0.891236 0
M  V30 6135 O 609.649 -1.89136 -1.67283 0
M  V30 6136 C 610.962 -2.61721 1.48063 0
M  V30 6137 C 612.51 -2.75603 1.48365 0
M  V30 6138 C 612.985 -3.91449 2.37763 0
M  V30 6139 N 614.476 -3.98751 2.35695 0
M  V30 6140 C 615.211 -4.87684 3.01583 0
M  V30 6141 N 614.707 -5.81454 3.76674 0
M  V30 6142 N 616.5 -4.81005 2.90844 0
M  V30 6143 H 608.651 -1.08465 1.82617 0
M  V30 6144 H 610.914 -0.536813 0.781368 0
M  V30 6145 H 610.62 -2.45073 2.52254 0
M  V30 6146 H 610.494 -3.58071 1.18596 0
M  V30 6147 H 612.881 -2.9166 0.44927 0
M  V30 6148 H 612.962 -1.79891 1.81859 0
M  V30 6149 H 612.606 -3.76149 3.41283 0
M  V30 6150 H 612.536 -4.86487 2.01589 0
M  V30 6151 H 615.027 -3.31668 1.81121 0
M  V30 6152 H 615.34 -6.46063 4.24054 0
M  V30 6153 H 613.685 -5.81403 3.80782 0
M  V30 6154 H 616.876 -4.06728 2.31711 0
M  V30 6155 H 617.049 -5.50107 3.42471 0
M  V30 6156 N 610.455 -0.639598 -1.44038 0
M  V30 6157 C 611.365 0.0612377 -2.3452 0
M  V30 6158 C 612.381 0.826717 -1.53106 0
M  V30 6159 O 613.557 0.777059 -1.85806 0
M  V30 6160 C 610.622 1.02492 -3.31204 0
M  V30 6161 C 609.683 0.25788 -4.28525 0
M  V30 6162 C 608.916 1.17566 -5.2059 0
M  V30 6163 O 609.139 2.41461 -5.16771 0
M  V30 6164 O 608.073 0.655407 -5.98321 0
M  V30 6165 H 611.899 -0.68318 -2.95916 0
M  V30 6166 H 609.484 -0.399784 -1.43952 0
M  V30 6167 H 611.366 1.57911 -3.90694 0
M  V30 6168 H 610.041 1.7498 -2.7233 0
M  V30 6169 H 608.948 -0.339566 -3.72556 0
M  V30 6170 H 610.281 -0.427154 -4.90343 0
M  V30 6171 N 611.933 1.52934 -0.380664 0
M  V30 6172 C 613.181 2.01069 0.203874 0
M  V30 6173 C 613.502 1.26922 1.4804 0
M  V30 6174 O 612.772 0.386787 1.92044 0
M  V30 6175 H 611.352 0.742882 0.0783279 0
M  V30 6176 H 614.014 1.88099 -0.510368 0
M  V30 6177 H 613.11 3.09258 0.42021 0
M  V30 6178 N 613.412 0.11024 1.57214 0
M  V30 6179 C 614.342 -0.840002 2.17867 0
M  V30 6180 C 615.323 -1.28352 1.11624 0
M  V30 6181 O 616.508 -1.3477 1.39824 0
M  V30 6182 C 613.638 -2.09349 2.77111 0
M  V30 6183 C 612.592 -1.78807 3.8886 0
M  V30 6184 C 611.918 -3.11112 4.34872 0
M  V30 6185 C 613.218 -1.0632 5.11364 0
M  V30 6186 H 614.912 -0.334608 2.97524 0
M  V30 6187 H 612.458 -0.159502 1.43114 0
M  V30 6188 H 614.411 -2.76275 3.18198 0
M  V30 6189 H 613.135 -2.62198 1.9473 0
M  V30 6190 H 611.794 -1.14273 3.48335 0
M  V30 6191 H 611.442 -3.61877 3.49362 0
M  V30 6192 H 611.142 -2.91453 5.10224 0
M  V30 6193 H 612.666 -3.79171 4.78604 0
M  V30 6194 H 614.08 -1.63383 5.49526 0
M  V30 6195 H 612.477 -0.967876 5.92243 0
M  V30 6196 H 613.547 -0.0484569 4.84876 0
M  V30 6197 N 614.89 -1.56749 -0.16351 0
M  V30 6198 C 616.167 -1.73321 -0.906599 0
M  V30 6199 C 616.547 -0.673779 -2.00059 0
M  V30 6200 O 615.895 0.310121 -2.26386 0
M  V30 6201 C 616.105 -3.168 -1.46419 0
M  V30 6202 C 617.453 -3.77993 -1.93407 0
M  V30 6203 O 618.477 -3.20127 -1.56196 0
M  V30 6204 O 617.336 -4.79615 -2.61976 0
M  V30 6205 H 614.43 -0.708073 -0.427272 0
M  V30 6206 H 616.976 -1.69029 -0.150727 0
M  V30 6207 H 615.748 -3.85396 -0.677189 0
M  V30 6208 H 615.371 -3.2545 -2.28403 0
M  V30 6209 N 616.368 0.432326 -1.51554 0
M  V30 6210 C 617.614 1.18309 -1.64714 0
M  V30 6211 C 617.947 1.90745 -0.364696 0
M  V30 6212 O 617.222 1.8381 0.635936 0
M  V30 6213 C 617.505 2.1961 -2.85383 0
M  V30 6214 C 617.358 1.51223 -4.23617 0
M  V30 6215 C 618.677 3.20538 -3.01569 0
M  V30 6216 H 615.796 0.428751 -0.599451 0
M  V30 6217 H 618.438 0.471689 -1.84052 0
M  V30 6218 H 616.588 2.8028 -2.69027 0
M  V30 6219 H 618.26 0.938516 -4.51652 0
M  V30 6220 H 616.503 0.814501 -4.26085 0
M  V30 6221 H 617.174 2.25024 -5.04052 0
M  V30 6222 H 619.65 2.69926 -3.16669 0
M  V30 6223 H 618.526 3.88706 -3.87555 0
M  V30 6224 H 618.787 3.86933 -2.13859 0
M  V30 6225 N 617.846 1.41785 0.688094 0
M  V30 6226 C 618.794 1.44436 1.82321 0
M  V30 6227 C 619.788 0.321544 1.6632 0
M  V30 6228 O 620.994 0.493931 1.73091 0
M  V30 6229 H 617.369 0.452084 0.600936 0
M  V30 6230 H 619.34 2.40087 1.77202 0
M  V30 6231 C 618.089 1.35071 3.20392 0
M  V30 6232 H 617.412 2.2076 3.33324 0
M  V30 6233 H 618.852 1.40988 3.99873 0
M  V30 6234 C 617.311 0.0639127 3.36839 0
M  V30 6235 O 617.841 -0.888495 3.91751 0
M  V30 6236 N 616.047 -0.0146114 2.90596 0
M  V30 6237 H 615.594 0.761191 2.46097 0
M  V30 6238 H 615.552 -0.874988 3.01979 0
M  V30 6239 N 619.324 -0.923095 1.27737 0
M  V30 6240 C 620.549 -1.71054 1.17283 0
M  V30 6241 C 620.974 -1.86208 -0.266153 0
M  V30 6242 O 620.332 -1.36545 -1.1927 0
M  V30 6243 C 620.38 -3.0854 1.86642 0
M  V30 6244 O 619.484 -3.95528 1.16752 0
M  V30 6245 H 618.825 -0.524136 0.407649 0
M  V30 6246 H 621.355 -1.15487 1.6889 0
M  V30 6247 H 621.365 -3.58828 1.94182 0
M  V30 6248 H 620.04 -2.96828 2.91317 0
M  V30 6249 H 618.617 -3.53967 1.17312 0
M  V30 6250 N 620.802 -1.09834 -1.13024 0
M  V30 6251 C 621.752 -0.710899 -2.16634 0
M  V30 6252 C 622.736 0.276836 -1.58501 0
M  V30 6253 O 623.928 0.0865457 -1.76788 0
M  V30 6254 C 621.057 -0.137574 -3.43024 0
M  V30 6255 C 620.143 -1.15198 -4.08155 0
M  V30 6256 N 620.534 -2.34054 -4.48388 0
M  V30 6257 C 618.832 -0.991074 -4.34849 0
M  V30 6258 C 619.533 -2.98616 -4.99203 0
M  V30 6259 N 618.509 -2.26159 -4.94321 0
M  V30 6260 H 622.311 -1.61576 -2.455 0
M  V30 6261 H 619.825 -0.975158 -1.29863 0
M  V30 6262 H 621.822 0.158031 -4.166 0
M  V30 6263 H 620.482 0.762088 -3.1563 0
M  V30 6264 H 621.493 -2.7162 -4.40957 0
M  V30 6265 H 618.17 -0.146448 -4.17243 0
M  V30 6266 H 619.56 -3.99683 -5.40096 0
M  V30 6267 N 622.28 1.30327 -0.886154 0
M  V30 6268 C 623.528 1.9571 -0.504195 0
M  V30 6269 C 623.849 1.70294 0.950003 0
M  V30 6270 O 623.119 1.02718 1.66811 0
M  V30 6271 H 621.699 0.72412 -0.183465 0
M  V30 6272 H 624.361 1.58835 -1.12949 0
M  V30 6273 H 623.457 3.04704 -0.675431 0
M  V30 6274 N 623.758 0.647228 1.43697 0
M  V30 6275 C 624.668 -0.0487997 2.34549 0
M  V30 6276 C 625.684 -0.818586 1.53542 0
M  V30 6277 O 626.86 -0.767195 1.86215 0
M  V30 6278 C 623.925 -1.00734 3.31743 0
M  V30 6279 C 622.986 -0.23515 4.28655 0
M  V30 6280 C 622.219 -1.14803 5.21206 0
M  V30 6281 O 622.442 -2.38717 5.18045 0
M  V30 6282 O 621.376 -0.623667 5.9866 0
M  V30 6283 H 625.202 0.698863 2.9555 0
M  V30 6284 H 622.787 0.407412 1.43738 0
M  V30 6285 H 624.669 -1.55837 3.91526 0
M  V30 6286 H 623.344 -1.73534 2.73254 0
M  V30 6287 H 622.251 0.359319 3.7237 0
M  V30 6288 H 623.584 0.453152 4.9011 0
M  V30 6289 N 625.236 -1.5273 0.388769 0
M  V30 6290 C 626.184 -2.27975 -0.461527 0
M  V30 6291 C 627.178 -1.31854 -1.06352 0
M  V30 6292 O 628.384 -1.49394 -1.00406 0
M  V30 6293 H 624.759 -0.733088 -0.16759 0
M  V30 6294 H 626.73 -2.97765 0.194579 0
M  V30 6295 C 625.479 -3.09881 -1.577 0
M  V30 6296 H 624.802 -3.83701 -1.12309 0
M  V30 6297 H 626.242 -3.6567 -2.14619 0
M  V30 6298 C 624.701 -2.22159 -2.53272 0
M  V30 6299 O 625.231 -1.84802 -3.56667 0
M  V30 6300 N 623.437 -1.8633 -2.23001 0
M  V30 6301 H 622.984 -2.16909 -1.38954 0
M  V30 6302 H 622.942 -1.27927 -2.87197 0
M  V30 6303 N 626.714 -0.118576 -1.57153 0
M  V30 6304 C 627.677 0.817464 -2.14127 0
M  V30 6305 C 628.677 1.1949 -1.07604 0
M  V30 6306 O 629.867 1.12048 -1.33382 0
M  V30 6307 C 626.999 2.10541 -2.68115 0
M  V30 6308 H 628.192 0.322339 -2.98163 0
M  V30 6309 H 625.745 0.130655 -1.55753 0
M  V30 6310 H 626.48 2.64485 -1.87665 0
M  V30 6311 H 626.265 1.84425 -3.4602 0
M  V30 6312 H 627.755 2.77453 -3.12105 0
M  V30 6313 N 628.193 1.56834 0.155195 0
M  V30 6314 C 629.423 1.86778 0.883044 0
M  V30 6315 C 629.831 0.703824 1.75622 0
M  V30 6316 O 629.174 -0.33581 1.80605 0
M  V30 6317 C 629.236 3.1133 1.79761 0
M  V30 6318 C 628.9 4.43504 1.10242 0
M  V30 6319 C 629.897 5.17859 0.460204 0
M  V30 6320 C 627.582 4.90233 1.09437 0
M  V30 6321 C 629.576 6.37144 -0.180782 0
M  V30 6322 C 627.263 6.09444 0.449569 0
M  V30 6323 C 628.261 6.82744 -0.186888 0
M  V30 6324 O 627.949 7.99692 -0.821486 0
M  V30 6325 H 627.681 0.62352 0.261149 0
M  V30 6326 H 630.235 2.04813 0.155204 0
M  V30 6327 H 628.465 2.89282 2.56618 0
M  V30 6328 H 630.154 3.27587 2.39669 0
M  V30 6329 H 630.92 4.8283 0.458289 0
M  V30 6330 H 626.799 4.33109 1.57917 0
M  V30 6331 H 630.343 6.94296 -0.678154 0
M  V30 6332 H 626.24 6.43936 0.449123 0
M  V30 6333 H 627.008 8.15306 -0.722337 0
M  V30 6334 N 629.671 -0.424282 1.51781 0
M  V30 6335 C 630.619 -1.53649 1.74628 0
M  V30 6336 C 631.613 -1.57923 0.612922 0
M  V30 6337 O 632.819 -1.61511 0.794618 0
M  V30 6338 H 629.194 -0.510706 0.551981 0
M  V30 6339 H 631.165 -1.31558 2.67834 0
M  V30 6340 C 629.914 -2.91177 1.9003 0
M  V30 6341 H 629.237 -2.88625 2.76651 0
M  V30 6342 H 630.677 -3.6833 2.10021 0
M  V30 6343 C 629.136 -3.30303 0.663435 0
M  V30 6344 O 629.666 -4.01315 -0.175812 0
M  V30 6345 N 627.872 -2.86201 0.503723 0
M  V30 6346 H 627.419 -2.28583 1.18776 0
M  V30 6347 H 627.377 -3.12741 -0.322575 0
M  V30 6348 N 631.149 -1.42148 -0.680565 0
M  V30 6349 C 632.112 -1.4488 -1.77602 0
M  V30 6350 C 633.112 -0.337209 -1.57224 0
M  V30 6351 O 634.302 -0.597778 -1.63622 0
M  V30 6352 C 631.434 -1.27483 -3.16166 0
M  V30 6353 H 632.627 -2.42412 -1.76568 0
M  V30 6354 H 630.18 -1.28511 -0.889645 0
M  V30 6355 H 630.915 -0.30851 -3.22829 0
M  V30 6356 H 630.7 -2.08037 -3.3236 0
M  V30 6357 H 632.19 -1.32265 -3.96101 0
M  V30 6358 O 632.666 0.823011 -1.38956 0
M  V30 6359 H 633.357 1.46633 -1.26564 0
M  V30 END ATOM
M  V30 BEGIN BOND
M  V30 END BOND
M  V30 END CTAB
M  END
$$$$
