drugbank_target|P25910 Beta-lactamase type II (DB02593)
 OpenBabel12092119503D

  0  0  0     0  0            999 V3000
M  V30 BEGIN CTAB
M  V30 COUNTS 3817 3861 0 0 0
M  V30 BEGIN ATOM
M  V30 1 H -0.908 1.98254 -0.117106 0
M  V30 2 N 0 1.576 0 0
M  V30 3 C 0.933 2.03868 1.02534 0
M  V30 4 C 1.911 0.928543 1.3348 0
M  V30 5 O 3.095 1.19667 1.45644 0
M  V30 6 C 0.222 2.43627 2.35294 0
M  V30 7 C -0.732 3.65373 2.2001 0
M  V30 8 S 0.101 5.13292 1.52614 0
M  V30 9 C 1.257 5.56322 2.86805 0
M  V30 10 H 1.49 2.90518 0.631377 0
M  V30 11 H -0.977 1.52953 0.210867 0
M  V30 12 H 0.981 2.67203 3.11629 0
M  V30 13 H -0.358 1.57376 2.7183 0
M  V30 14 H -1.165 3.90944 3.18086 0
M  V30 15 H -1.563 3.418 1.51819 0
M  V30 16 H 0.729 5.58782 3.83104 0
M  V30 17 H 1.672 6.56266 2.65933 0
M  V30 18 H 2.08 4.83886 2.90714 0
M  V30 19 N 1.4781 -0.272755 1.55222 0
M  V30 20 C 2.4251 -1.33716 1.88119 0
M  V30 21 C 3.3951 -1.49066 0.73271 0
M  V30 22 O 4.5801 -1.63469 0.984002 0
M  V30 23 C 1.7201 -2.69238 2.15882 0
M  V30 24 C 0.8331 -2.62108 3.43399 0
M  V30 25 C -0.0319 -3.89811 3.60861 0
M  V30 26 C -0.9929 -3.77193 4.8207 0
M  V30 27 N -1.8559 -4.9673 4.96189 0
M  V30 28 H 2.9841 -1.04962 2.78903 0
M  V30 29 H 0.5211 -0.507088 1.38083 0
M  V30 30 H 2.4791 -3.48089 2.29978 0
M  V30 31 H 1.1091 -2.96194 1.28331 0
M  V30 32 H 0.1611 -1.74967 3.37773 0
M  V30 33 H 1.4731 -2.48685 4.32386 0
M  V30 34 H 0.6271 -4.77103 3.74777 0
M  V30 35 H -0.6339 -4.06102 2.7006 0
M  V30 36 H -1.6289 -2.88284 4.68159 0
M  V30 37 H -0.4039 -3.62421 5.74307 0
M  V30 38 H -2.4579 -5.13431 4.08319 0
M  V30 39 H -2.5409 -4.85839 5.79221 0
M  V30 40 H -1.2729 -5.85594 5.1449 0
M  V30 41 N 2.9562 -1.48159 -0.537278 0
M  V30 42 C 4.1842 -1.59454 -1.31841 0
M  V30 43 C 4.5992 -0.252065 -1.8711 0
M  V30 44 O 3.9562 0.757621 -1.66031 0
M  V30 45 C 4.0072 -2.63546 -2.47439 0
M  V30 46 O 3.7282 -3.92583 -1.94449 0
M  V30 47 C 5.2292 -2.85212 -3.39366 0
M  V30 48 H 2.4492 -0.53785 -0.401196 0
M  V30 49 H 4.9932 -1.93932 -0.648891 0
M  V30 50 H 3.1482 -2.31946 -3.1029 0
M  V30 51 H 3.5622 -4.49629 -2.70063 0
M  V30 52 H 5.0362 -3.61863 -4.16844 0
M  V30 53 H 5.5132 -1.93765 -3.94147 0
M  V30 54 H 6.1192 -3.18086 -2.82314 0
M  V30 55 N 4.4343 0.785586 -1.36625 0
M  V30 56 C 5.6803 1.54591 -1.31261 0
M  V30 57 C 6.0133 1.93906 0.106823 0
M  V30 58 O 5.2883 1.63007 1.06108 0
M  V30 59 C 5.5713 2.82038 -2.23889 0
M  V30 60 C 5.4243 2.49066 -3.74548 0
M  V30 61 C 6.7433 3.83887 -2.15217 0
M  V30 62 H 3.8623 0.560846 -0.478143 0
M  V30 63 H 6.5043 0.902278 -1.67209 0
M  V30 64 H 4.6543 3.36961 -1.93363 0
M  V30 65 H 6.3263 2.00164 -4.15611 0
M  V30 66 H 4.5693 1.81954 -3.93796 0
M  V30 67 H 5.2403 3.40109 -4.34776 0
M  V30 68 H 7.7163 3.38421 -2.42096 0
M  V30 69 H 6.5923 4.70806 -2.82193 0
M  V30 70 H 6.8533 4.27131 -1.14068 0
M  V30 71 N 5.9124 1.20967 1.01018 0
M  V30 72 C 7.1594 1.02374 1.74716 0
M  V30 73 C 7.4874 -0.443375 1.89379 0
M  V30 74 O 6.7424 -1.34535 1.42123 0
M  V30 75 C 7.0414 1.65997 3.16512 0
M  V30 76 C 6.7074 3.15831 3.2181 0
M  V30 77 C 5.3694 3.56719 3.22963 0
M  V30 78 C 7.7214 4.11816 3.19464 0
M  V30 79 C 5.0494 4.92107 3.19449 0
M  V30 80 C 7.4014 5.47158 3.17491 0
M  V30 81 C 6.0654 5.87451 3.16951 0
M  V30 82 H 5.3354 0.374614 0.639332 0
M  V30 83 H 7.9824 1.50485 1.18434 0
M  V30 84 H 6.2874 1.10166 3.75993 0
M  V30 85 H 7.9844 1.49119 3.72242 0
M  V30 86 H 4.5744 2.83263 3.21652 0
M  V30 87 H 8.7584 3.81257 3.17737 0
M  V30 88 H 4.0144 5.22579 3.17366 0
M  V30 89 H 8.1884 6.21274 3.14629 0
M  V30 90 H 5.8154 6.92329 3.13983 0
M  V30 91 N 7.3905 -1.2043 1.01659 0
M  V30 92 C 8.6395 -1.89118 0.701237 0
M  V30 93 C 8.9525 -1.79705 -0.772358 0
M  V30 94 O 10.1585 -2.43528 -1.20026 0
M  V30 95 C 8.6145 -3.39168 1.20388 0
M  V30 96 C 8.2225 -3.57166 2.70438 0
M  V30 97 C 9.9665 -4.1341 0.963953 0
M  V30 98 C 7.8735 -5.01042 3.14183 0
M  V30 99 H 6.8035 -0.708267 0.2586 0
M  V30 100 H 9.4545 -1.36239 1.22927 0
M  V30 101 H 7.8365 -3.91369 0.603824 0
M  V30 102 H 9.0105 -3.15351 3.35992 0
M  V30 103 H 7.3255 -2.96294 2.92572 0
M  V30 104 H 9.9225 -5.19491 1.26621 0
M  V30 105 H 10.2655 -4.16181 -0.099578 0
M  V30 106 H 10.7985 -3.67309 1.52738 0
M  V30 107 H 7.5375 -5.03426 4.19812 0
M  V30 108 H 7.0575 -5.43668 2.53348 0
M  V30 109 H 8.7365 -5.69623 3.0682 0
M  V30 110 N 8.8686 -0.792821 -1.36206 0
M  V30 111 C 9.7986 -0.207853 -2.32573 0
M  V30 112 C 10.7796 0.659055 -1.56813 0
M  V30 113 O 11.9646 0.592176 -1.84951 0
M  V30 114 C 9.0946 0.655449 -3.41059 0
M  V30 115 C 8.0486 -0.111842 -4.27854 0
M  V30 116 C 7.3746 0.872274 -5.27537 0
M  V30 117 C 8.6746 -1.30299 -5.05786 0
M  V30 118 H 10.3686 -1.01294 -2.81744 0
M  V30 119 H 7.9146 -0.48854 -1.3546 0
M  V30 120 H 9.8676 1.07464 -4.07467 0
M  V30 121 H 8.5916 1.49328 -2.90463 0
M  V30 122 H 7.2506 -0.512053 -3.63006 0
M  V30 123 H 6.8986 1.70523 -4.73214 0
M  V30 124 H 6.5986 0.363291 -5.86476 0
M  V30 125 H 8.1226 1.28996 -5.96818 0
M  V30 126 H 9.5366 -0.959379 -5.65216 0
M  V30 127 H 7.9336 -1.7455 -5.74154 0
M  V30 128 H 9.0036 -2.09663 -4.37229 0
M  V30 129 N 10.3467 1.47872 -0.545128 0
M  V30 130 C 11.5957 2.01695 -0.0145033 0
M  V30 131 C 11.9087 1.42609 1.33873 0
M  V30 132 O 13.1147 1.88021 1.95858 0
M  V30 133 C 11.5707 3.59892 0.0245068 0
M  V30 134 C 11.1787 4.27966 -1.32475 0
M  V30 135 C 12.9227 4.21507 0.50316 0
M  V30 136 C 10.8297 5.78136 -1.2455 0
M  V30 137 H 9.7597 0.753998 -0.00165172 0
M  V30 138 H 12.4107 1.69985 -0.691175 0
M  V30 139 H 10.7927 3.88509 0.766575 0
M  V30 140 H 11.9667 4.11003 -2.08357 0
M  V30 141 H 10.2817 3.78286 -1.74036 0
M  V30 142 H 12.8787 5.31538 0.580656 0
M  V30 143 H 13.2217 3.87855 1.51243 0
M  V30 144 H 13.7547 3.97376 -0.183681 0
M  V30 145 H 10.4937 6.16388 -2.23039 0
M  V30 146 H 10.0137 5.97469 -0.528282 0
M  V30 147 H 11.6927 6.40099 -0.942488 0
M  V30 148 N 11.8248 0.280983 1.55075 0
M  V30 149 C 13.0498 -0.340154 2.04592 0
M  V30 150 C 13.4748 -1.48246 1.15779 0
M  V30 151 O 12.8328 -1.80614 0.15761 0
M  V30 152 C 12.8808 -0.793104 3.5177 0
M  V30 153 O 11.9848 -1.89981 3.66034 0
M  V30 154 H 11.3258 -0.0694289 0.66036 0
M  V30 155 H 13.8558 0.416993 2.00306 0
M  V30 156 H 13.8658 -1.08729 3.93245 0
M  V30 157 H 12.5408 0.0426163 4.15878 0
M  V30 158 H 11.1178 -1.60771 3.36463 0
M  V30 159 N 13.3029 -1.57598 0.00835791 0
M  V30 160 C 14.2359 -2.04409 -1.01451 0
M  V30 161 C 15.2139 -0.935609 -1.32985 0
M  V30 162 O 16.3979 -1.20437 -1.45007 0
M  V30 163 C 13.5249 -2.44872 -2.33999 0
M  V30 164 C 12.5709 -3.66535 -2.18069 0
M  V30 165 S 13.4039 -5.14095 -1.4989 0
M  V30 166 C 14.5599 -5.57835 -2.8385 0
M  V30 167 H 14.7929 -2.90849 -0.615961 0
M  V30 168 H 12.3259 -1.53063 -0.202752 0
M  V30 169 H 14.2839 -2.68852 -3.10208 0
M  V30 170 H 12.9449 -1.58815 -2.70992 0
M  V30 171 H 12.1379 -3.92626 -3.16008 0
M  V30 172 H 11.7399 -3.426 -1.50004 0
M  V30 173 H 14.0319 -5.60806 -3.80136 0
M  V30 174 H 14.9749 -6.57667 -2.62449 0
M  V30 175 H 15.3829 -4.85421 -2.88144 0
M  V30 176 N 14.781 0.264519 -1.55364 0
M  V30 177 C 15.711 1.33121 -1.91836 0
M  V30 178 C 16.692 1.51101 -0.781192 0
M  V30 179 O 17.877 1.64003 -1.04003 0
M  V30 180 C 15.007 2.68921 -2.19769 0
M  V30 181 C 13.961 2.65661 -3.35571 0
M  V30 182 C 13.287 4.05093 -3.49004 0
M  V30 183 C 14.587 2.24187 -4.71739 0
M  V30 184 H 16.281 1.02844 -2.81182 0
M  V30 185 H 13.827 0.493286 -1.35287 0
M  V30 186 H 15.78 3.43663 -2.43872 0
M  V30 187 H 14.504 3.00799 -1.27231 0
M  V30 188 H 13.163 1.93377 -3.1145 0
M  V30 189 H 12.811 4.34206 -2.53917 0
M  V30 190 H 12.511 4.03804 -4.26868 0
M  V30 191 H 14.035 4.81561 -3.75408 0
M  V30 192 H 15.449 2.88654 -4.9533 0
M  V30 193 H 13.846 2.34044 -5.52579 0
M  V30 194 H 14.916 1.19327 -4.69988 0
M  V30 195 N 16.2591 1.48442 0.529413 0
M  V30 196 C 17.5061 1.56488 1.28521 0
M  V30 197 C 17.8341 0.239042 1.93025 0
M  V30 198 O 17.0891 -0.770713 1.79885 0
M  V30 199 C 17.3881 2.6523 2.39558 0
M  V30 200 C 17.0541 4.07648 1.92702 0
M  V30 201 C 15.7161 4.46411 1.79641 0
M  V30 202 C 18.0681 4.96896 1.573 0
M  V30 203 C 15.3961 5.72226 1.29514 0
M  V30 204 C 17.7481 6.23202 1.08636 0
M  V30 205 C 16.4121 6.60821 0.941919 0
M  V30 206 H 15.6821 0.572631 0.470292 0
M  V30 207 H 18.3291 1.82161 0.59072 0
M  V30 208 H 16.6341 2.33419 3.14679 0
M  V30 209 H 18.3311 2.68671 2.97686 0
M  V30 210 H 14.9211 3.77036 2.03819 0
M  V30 211 H 19.1051 4.67626 1.66251 0
M  V30 212 H 14.3611 6.00097 1.17019 0
M  V30 213 H 18.5351 6.91753 0.803136 0
M  V30 214 H 16.1621 7.58198 0.5513 0
M  V30 215 N 17.7372 -0.778329 1.37039 0
M  V30 216 C 19.1482 -1.35421 1.28523 0
M  V30 217 C 19.4992 -1.96075 -0.0700901 0
M  V30 218 O 18.6242 -1.93352 -0.971801 0
M  V30 219 C 19.2192 -2.46211 2.32735 0
M  V30 220 C 17.7782 -2.99585 2.27873 0
M  V30 221 C 16.9252 -1.72748 2.16918 0
M  V30 222 H 19.8762 -0.5791 1.47757 0
M  V30 223 H 19.8972 -3.2552 1.9702 0
M  V30 224 H 19.4092 -2.02036 3.31365 0
M  V30 225 H 17.5102 -3.48152 1.32745 0
M  V30 226 H 17.6232 -3.55646 3.21018 0
M  V30 227 H 15.9872 -1.95416 1.63354 0
M  V30 228 H 16.7702 -1.30686 3.17452 0
M  V30 229 N 19.2153 -1.21501 -1.00376 0
M  V30 230 C 20.4613 -1.03452 -1.74429 0
M  V30 231 C 20.7943 0.430764 -1.89362 0
M  V30 232 O 20.0693 1.31962 -1.42886 0
M  V30 233 C 20.3523 -1.73375 -3.15615 0
M  V30 234 C 20.2053 -3.27431 -3.08397 0
M  V30 235 C 21.5243 -1.47732 -4.14564 0
M  V30 236 H 18.6433 -0.377226 -0.633143 0
M  V30 237 H 21.2853 -1.49693 -1.17013 0
M  V30 238 H 19.4353 -1.34064 -3.64636 0
M  V30 239 H 21.1073 -3.76119 -2.67081 0
M  V30 240 H 19.3503 -3.5767 -2.45468 0
M  V30 241 H 20.0213 -3.71524 -4.08258 0
M  V30 242 H 22.4973 -1.8186 -3.74254 0
M  V30 243 H 21.3733 -1.99169 -5.11491 0
M  V30 244 H 21.6343 -0.407589 -4.40217 0
M  V30 245 N 20.6934 1.19889 -1.02296 0
M  V30 246 C 21.6564 2.21116 -0.603351 0
M  V30 247 C 22.6564 1.5738 0.329884 0
M  V30 248 O 23.8464 1.73802 0.117702 0
M  V30 249 C 20.9784 3.40696 0.117992 0
M  V30 250 H 22.1714 2.59754 -1.49893 0
M  V30 251 H 19.7244 1.33463 -0.813468 0
M  V30 252 H 20.4594 3.07569 1.0282 0
M  V30 253 H 20.2444 3.88188 -0.552511 0
M  V30 254 H 21.7344 4.15692 0.398696 0
M  V30 255 N 22.1715 0.800033 1.35784 0
M  V30 256 C 23.4175 0.377901 1.99248 0
M  V30 257 C 23.7505 -1.05052 1.63333 0
M  V30 258 O 23.0255 -1.72768 0.893385 0
M  V30 259 C 23.3085 0.553922 3.55814 0
M  V30 260 C 23.1615 2.0268 4.01548 0
M  V30 261 C 24.4805 -0.0244802 4.40093 0
M  V30 262 H 21.5995 0.138782 0.723815 0
M  V30 263 H 24.2415 1.00835 1.61035 0
M  V30 264 H 22.3915 0.0172398 3.88496 0
M  V30 265 H 24.0635 2.62536 3.79305 0
M  V30 266 H 22.3065 2.5256 3.52698 0
M  V30 267 H 22.9775 2.10087 5.10458 0
M  V30 268 H 25.4535 0.433775 4.13833 0
M  V30 269 H 24.3295 0.128637 5.48749 0
M  V30 270 H 24.5905 -1.11758 4.27741 0
M  V30 271 N 23.6496 -1.47581 0.552962 0
M  V30 272 C 24.5826 -2.26883 -0.244857 0
M  V30 273 C 25.5606 -1.33784 -0.924147 0
M  V30 274 O 26.7446 -1.6316 -0.943981 0
M  V30 275 C 23.8716 -3.10695 -1.34856 0
M  V30 276 C 22.9176 -4.19339 -0.778268 0
M  V30 277 S 23.7506 -5.34207 0.37184 0
M  V30 278 C 24.9066 -6.21584 -0.733779 0
M  V30 279 H 25.1396 -2.94202 0.428087 0
M  V30 280 H 22.6726 -1.50628 0.339197 0
M  V30 281 H 24.6306 -3.59555 -1.98066 0
M  V30 282 H 23.2916 -2.42746 -1.99332 0
M  V30 283 H 22.4846 -4.77695 -1.60696 0
M  V30 284 H 22.0866 -3.73338 -0.222422 0
M  V30 285 H 24.3786 -6.57676 -1.62692 0
M  V30 286 H 25.3216 -7.07851 -0.187668 0
M  V30 287 H 25.7296 -5.55125 -1.02454 0
M  V30 288 N 25.1277 -0.289203 -1.54924 0
M  V30 289 C 26.0907 0.579144 -2.21762 0
M  V30 290 C 27.0907 1.07047 -1.1999 0
M  V30 291 O 28.2807 0.968384 -1.44803 0
M  V30 292 C 25.4127 1.80055 -2.8947 0
M  V30 293 H 26.6057 -0.00464908 -2.999 0
M  V30 294 H 24.1587 -0.0399306 -1.56249 0
M  V30 295 H 24.8937 2.42449 -2.15381 0
M  V30 296 H 24.6787 1.45602 -3.64064 0
M  V30 297 H 26.1687 2.41773 -3.40493 0
M  V30 298 N 26.6058 1.57591 -0.0167156 0
M  V30 299 C 27.5378 2.06343 0.997753 0
M  V30 300 C 28.5508 0.984469 1.29661 0
M  V30 301 O 29.7398 1.26093 1.26344 0
M  V30 302 C 26.8398 2.46255 2.32834 0
M  V30 303 C 26.0128 3.77083 2.21646 0
M  V30 304 C 25.0718 4.0368 3.37534 0
M  V30 305 O 24.0978 4.7411 3.14973 0
M  V30 306 N 25.2998 3.52881 4.60929 0
M  V30 307 H 28.0648 2.93997 0.581875 0
M  V30 308 H 25.6258 1.61002 0.170316 0
M  V30 309 H 27.6178 2.61149 3.09166 0
M  V30 310 H 26.1878 1.64032 2.66106 0
M  V30 311 H 25.4078 3.72106 1.30119 0
M  V30 312 H 26.6958 4.62822 2.11361 0
M  V30 313 H 26.0938 2.95878 4.82154 0
M  V30 314 H 24.6508 3.73076 5.34469 0
M  V30 315 N 28.0839 -0.256276 1.55502 0
M  V30 316 C 29.0309 -1.31714 1.89526 0
M  V30 317 C 30.0009 -1.4828 0.748479 0
M  V30 318 O 31.1859 -1.62416 1.00128 0
M  V30 319 C 28.3259 -2.66933 2.18725 0
M  V30 320 C 27.4389 -2.58452 3.4616 0
M  V30 321 C 26.5739 -3.85961 3.64976 0
M  V30 322 C 25.6129 -3.72059 4.86044 0
M  V30 323 N 24.7499 -4.9144 5.01429 0
M  V30 324 H 29.5899 -1.01998 2.80001 0
M  V30 325 H 27.1269 -0.492413 1.38613 0
M  V30 326 H 29.0849 -3.4563 2.33657 0
M  V30 327 H 27.7149 -2.94816 1.31466 0
M  V30 328 H 26.7669 -1.71374 3.3961 0
M  V30 329 H 28.0789 -2.44085 4.34999 0
M  V30 330 H 27.2329 -4.73101 3.79816 0
M  V30 331 H 25.9719 -4.03215 2.74353 0
M  V30 332 H 24.9769 -2.83302 4.7119 0
M  V30 333 H 26.2019 -3.56309 5.78118 0
M  V30 334 H 24.1479 -5.09072 4.13741 0
M  V30 335 H 24.0649 -4.79668 5.84341 0
M  V30 336 H 25.3329 -5.80104 5.20672 0
M  V30 337 N 29.562 -1.4872 -0.521534 0
M  V30 338 C 30.787 -1.61101 -1.30618 0
M  V30 339 C 31.212 -0.274611 -1.86085 0
M  V30 340 O 30.57 0.754937 -1.64834 0
M  V30 341 C 30.618 -2.66709 -2.4269 0
M  V30 342 O 29.722 -2.24456 -3.45967 0
M  V30 343 H 29.063 -0.539921 -0.386499 0
M  V30 344 H 31.593 -1.94767 -0.626645 0
M  V30 345 H 31.603 -2.88245 -2.88754 0
M  V30 346 H 30.278 -3.63727 -2.01682 0
M  V30 347 H 28.855 -2.13168 -3.05964 0
M  V30 348 N 31.0401 0.771051 -1.3745 0
M  V30 349 C 32.2861 1.5319 -1.32894 0
M  V30 350 C 32.6191 1.94008 0.0862511 0
M  V30 351 O 31.8941 1.64124 1.04373 0
M  V30 352 C 32.1771 2.79648 -2.26868 0
M  V30 353 C 32.0301 2.45079 -3.77169 0
M  V30 354 C 33.3491 3.81583 -2.19277 0
M  V30 355 H 30.4681 0.555744 -0.484064 0
M  V30 356 H 33.1101 0.884492 -1.68157 0
M  V30 357 H 31.2601 3.34891 -1.96926 0
M  V30 358 H 32.9321 1.95745 -4.1771 0
M  V30 359 H 31.1751 1.77767 -3.95704 0
M  V30 360 H 31.8461 3.35478 -4.38359 0
M  V30 361 H 34.3221 3.35835 -2.45671 0
M  V30 362 H 33.1981 4.67787 -2.87171 0
M  V30 363 H 33.4591 4.25897 -1.18592 0
M  V30 364 N 32.5182 1.22032 0.997298 0
M  V30 365 C 33.4652 0.986467 2.08656 0
M  V30 366 C 34.4352 -0.0902671 1.65855 0
M  V30 367 O 35.6202 0.0584294 1.90711 0
M  V30 368 C 32.7602 0.565569 3.40434 0
M  V30 369 C 31.8732 1.71259 3.96604 0
M  V30 370 C 31.0082 1.24011 5.16522 0
M  V30 371 C 30.0472 2.35896 5.64818 0
M  V30 372 N 29.1842 1.89726 6.7598 0
M  V30 373 H 34.0242 1.91892 2.27994 0
M  V30 374 H 31.5612 0.956199 1.11782 0
M  V30 375 H 33.5192 0.302738 4.161 0
M  V30 376 H 32.1492 -0.329879 3.2111 0
M  V30 377 H 31.2012 2.08986 3.17851 0
M  V30 378 H 32.5132 2.55436 4.28432 0
M  V30 379 H 31.6672 0.934395 5.99461 0
M  V30 380 H 30.4062 0.368487 4.86306 0
M  V30 381 H 29.4112 2.67261 4.8047 0
M  V30 382 H 30.6362 3.23567 5.97061 0
M  V30 383 H 28.5822 1.0492 6.47555 0
M  V30 384 H 28.4992 2.67471 7.07103 0
M  V30 385 H 29.7672 1.62211 7.62435 0
M  V30 386 N 33.9963 -1.19345 1.0293 0
M  V30 387 C 35.2453 -1.88363 0.721256 0
M  V30 388 C 35.5583 -1.80514 -0.753254 0
M  V30 389 O 36.7643 -2.44788 -1.17436 0
M  V30 390 C 35.2203 -3.37872 1.23978 0
M  V30 391 C 34.8283 -3.54278 2.74211 0
M  V30 392 C 36.5723 -4.12365 1.00775 0
M  V30 393 C 34.4793 -4.97682 3.19479 0
M  V30 394 H 33.4093 -0.705484 0.266098 0
M  V30 395 H 36.0603 -1.34928 1.24365 0
M  V30 396 H 34.4423 -3.90707 0.6453 0
M  V30 397 H 35.6163 -3.11769 3.39318 0
M  V30 398 H 33.9313 -2.93174 2.95699 0
M  V30 399 H 36.5283 -5.18119 1.32123 0
M  V30 400 H 36.8713 -4.16263 -0.0554308 0
M  V30 401 H 37.4043 -3.65668 1.56625 0
M  V30 402 H 34.1433 -4.98945 4.25128 0
M  V30 403 H 33.6633 -5.4095 2.591 0
M  V30 404 H 35.3423 -5.66337 3.12845 0
M  V30 405 N 35.4744 -0.807222 -1.35358 0
M  V30 406 C 36.6994 -0.399309 -2.0352 0
M  V30 407 C 37.1244 0.981986 -1.60433 0
M  V30 408 O 36.4824 1.63601 -0.781299 0
M  V30 409 C 36.5304 -0.491552 -3.57234 0
M  V30 410 O 35.6344 0.494754 -4.09421 0
M  V30 411 H 34.9754 -0.166682 -0.642739 0
M  V30 412 H 37.5054 -1.09328 -1.72941 0
M  V30 413 H 37.5154 -0.361588 -4.06395 0
M  V30 414 H 36.1904 -1.49907 -3.87944 0
M  V30 415 H 34.7674 0.324977 -3.71481 0
M  V30 416 N 36.9525 1.47285 -0.560781 0
M  V30 417 C 38.2295 1.9558 0.0277798 0
M  V30 418 C 38.6095 1.5034 1.48192 0
M  V30 419 O 37.9575 0.743882 2.16052 0
M  V30 420 C 38.1675 3.48789 -0.121418 0
M  V30 421 C 39.5155 4.24594 0.0220912 0
M  V30 422 O 40.5395 3.56166 -0.0491439 0
M  V30 423 O 39.3985 5.46217 0.175958 0
M  V30 424 H 36.4925 0.824663 0.0621342 0
M  V30 425 H 39.0385 1.5767 -0.627556 0
M  V30 426 H 37.8105 3.74533 -1.13316 0
M  V30 427 H 37.4335 3.93473 0.571366 0
M  V30 428 N 38.4306 0.297415 1.54768 0
M  V30 429 C 39.7076 -0.365847 1.92148 0
M  V30 430 C 40.0876 -1.71975 1.22424 0
M  V30 431 O 39.4356 -2.25666 0.358739 0
M  V30 432 C 39.6456 -0.484056 3.45627 0
M  V30 433 C 40.9936 -0.756594 4.17805 0
M  V30 434 O 42.0176 -0.568007 3.51642 0
M  V30 435 O 40.8766 -1.11863 5.34929 0
M  V30 436 H 37.9706 -0.203919 0.801465 0
M  V30 437 H 40.5166 0.34521 1.66152 0
M  V30 438 H 39.2886 0.467865 3.88493 0
M  V30 439 H 38.9116 -1.24372 3.77647 0
M  V30 440 N 39.9087 -1.5758 0.0250728 0
M  V30 441 C 41.1577 -1.90811 -0.653767 0
M  V30 442 C 41.4707 -0.90273 -1.73523 0
M  V30 443 O 42.6767 -1.12614 -2.47043 0
M  V30 444 C 41.1327 -3.38804 -1.21409 0
M  V30 445 C 40.7407 -4.47692 -0.166126 0
M  V30 446 C 42.4847 -3.81108 -1.86967 0
M  V30 447 C 40.3917 -5.86779 -0.737856 0
M  V30 448 H 39.3217 -0.712063 -0.247956 0
M  V30 449 H 41.9727 -1.83281 0.0897137 0
M  V30 450 H 40.3547 -3.41252 -2.00905 0
M  V30 451 H 41.5287 -4.56797 0.606079 0
M  V30 452 H 39.8437 -4.14565 0.390466 0
M  V30 453 H 42.4407 -4.82375 -2.30692 0
M  V30 454 H 42.7837 -3.15953 -2.71071 0
M  V30 455 H 43.3167 -3.81065 -1.14167 0
M  V30 456 H 40.0557 -6.55468 0.0649577 0
M  V30 457 H 39.5757 -5.81288 -1.47864 0
M  V30 458 H 41.2547 -6.35223 -1.22884 0
M  V30 459 N 41.3868 0.248026 -1.55636 0
M  V30 460 C 42.6118 0.998028 -1.81808 0
M  V30 461 C 43.0368 1.78207 -0.601979 0
M  V30 462 O 42.3948 1.75653 0.448961 0
M  V30 463 C 42.4428 1.9125 -3.05705 0
M  V30 464 O 41.5468 3.00406 -2.82542 0
M  V30 465 H 40.8878 0.284045 -0.600179 0
M  V30 466 H 43.4178 0.269357 -2.02819 0
M  V30 467 H 43.4278 2.32737 -3.35108 0
M  V30 468 H 42.1028 1.33602 -3.93857 0
M  V30 469 H 40.6798 2.63056 -2.64303 0
M  V30 470 N 42.8649 1.48995 0.513639 0
M  V30 471 C 44.1139 1.57093 1.2651 0
M  V30 472 C 44.4269 0.257091 1.93903 0
M  V30 473 O 45.6329 0.216478 2.70636 0
M  V30 474 C 44.0889 2.77118 2.29638 0
M  V30 475 C 43.6969 4.15209 1.68241 0
M  V30 476 C 45.4409 2.94538 3.05692 0
M  V30 477 C 43.3479 5.26474 2.69406 0
M  V30 478 H 42.2779 0.584876 0.475854 0
M  V30 479 H 44.9289 1.7536 0.540487 0
M  V30 480 H 43.3109 2.52319 3.05207 0
M  V30 481 H 44.4849 4.50094 0.987505 0
M  V30 482 H 42.7999 4.03042 1.04623 0
M  V30 483 H 45.3969 3.74832 3.8132 0
M  V30 484 H 45.7399 2.04614 3.62545 0
M  V30 485 H 46.2729 3.19316 2.37238 0
M  V30 486 H 43.0119 6.18417 2.17351 0
M  V30 487 H 42.5319 4.96058 3.37175 0
M  V30 488 H 44.2109 5.55277 3.32078 0
M  V30 489 N 44.343 -0.763751 1.37857 0
M  V30 490 C 45.571 -1.55293 1.36718 0
M  V30 491 C 45.986 -1.88745 -0.0455434 0
M  V30 492 O 45.343 -1.52039 -1.00947 0
M  V30 493 C 45.394 -2.85831 2.2132 0
M  V30 494 O 45.115 -2.5381 3.57089 0
M  V30 495 C 46.616 -3.80023 2.28249 0
M  V30 496 H 43.836 -0.480841 0.468009 0
M  V30 497 H 46.38 -0.946009 1.81303 0
M  V30 498 H 44.535 -3.42926 1.80223 0
M  V30 499 H 44.949 -3.37459 4.01524 0
M  V30 500 H 46.423 -4.68599 2.91752 0
M  V30 501 H 46.9 -4.1973 1.2932 0
M  V30 502 H 47.506 -3.28855 2.69693 0
M  V30 503 N 45.8211 -1.22559 -0.990812 0
M  V30 504 C 46.7531 -0.955325 -2.08342 0
M  V30 505 C 47.7661 0.0668408 -1.62663 0
M  V30 506 O 48.9551 -0.167421 -1.77713 0
M  V30 507 C 46.0551 -0.415566 -3.36342 0
M  V30 508 C 45.2281 -1.49544 -4.11042 0
M  V30 509 C 44.2871 -0.962399 -5.17324 0
M  V30 510 O 43.3131 -1.64907 -5.44788 0
M  V30 511 N 44.5151 0.215134 -5.80101 0
M  V30 512 H 47.2801 -1.89596 -2.32106 0
M  V30 513 H 44.8411 -1.13276 -1.15673 0
M  V30 514 H 46.8331 -0.0442386 -4.04676 0
M  V30 515 H 45.4031 0.430232 -3.09625 0
M  V30 516 H 44.6231 -2.04 -3.37309 0
M  V30 517 H 45.9111 -2.22195 -4.57719 0
M  V30 518 H 45.3091 0.789779 -5.6016 0
M  V30 519 H 43.8661 0.527826 -6.49659 0
M  V30 520 N 47.2992 1.18797 -1.03562 0
M  V30 521 C 48.2292 2.24472 -0.643019 0
M  V30 522 C 49.2102 1.66433 0.351283 0
M  V30 523 O 50.3952 1.92803 0.232505 0
M  V30 524 C 47.5252 3.473 4.24935e-05 0
M  V30 525 C 46.4792 4.18055 -0.917257 0
M  V30 526 C 45.8052 5.34519 -0.138941 0
M  V30 527 C 47.1052 4.72109 -2.23407 0
M  V30 528 H 48.7992 2.57566 -1.52643 0
M  V30 529 H 46.3452 1.23806 -0.735394 0
M  V30 530 H 48.2982 4.20426 0.286383 0
M  V30 531 H 47.0222 3.13424 0.918299 0
M  V30 532 H 45.6812 3.46821 -1.1879 0
M  V30 533 H 45.3292 4.96891 0.781562 0
M  V30 534 H 45.0292 5.82794 -0.750005 0
M  V30 535 H 46.5532 6.10438 0.1405 0
M  V30 536 H 47.9672 5.36955 -2.00879 0
M  V30 537 H 46.3642 5.30897 -2.79765 0
M  V30 538 H 47.4342 3.89807 -2.88407 0
M  V30 539 N 48.7773 0.814389 1.34928 0
M  V30 540 C 50.0023 0.410097 2.03305 0
M  V30 541 C 50.4273 -0.973464 1.60951 0
M  V30 542 O 49.7853 -1.63185 0.789964 0
M  V30 543 C 49.8333 0.51049 3.56968 0
M  V30 544 O 48.9373 -0.473035 4.09678 0
M  V30 545 H 48.2783 0.170088 0.641846 0
M  V30 546 H 50.8083 1.10244 1.72358 0
M  V30 547 H 50.8183 0.383135 4.06197 0
M  V30 548 H 49.4933 1.51963 3.87144 0
M  V30 549 H 48.0703 -0.305272 3.71648 0
M  V30 550 N 50.2554 -1.46986 0.568584 0
M  V30 551 C 51.5324 -1.95592 -0.0174074 0
M  V30 552 C 51.9124 -1.51124 -1.47393 0
M  V30 553 O 51.2604 -0.755329 -2.15655 0
M  V30 554 C 51.4704 -3.48719 0.139913 0
M  V30 555 C 52.8184 -4.246 0.000426376 0
M  V30 556 O 53.8424 -3.56135 0.0680316 0
M  V30 557 O 52.7014 -5.46302 -0.146988 0
M  V30 558 H 49.7954 -0.82498 -0.0577599 0
M  V30 559 H 52.3414 -1.57335 0.635909 0
M  V30 560 H 51.1134 -3.73927 1.15301 0
M  V30 561 H 50.7364 -3.93771 -0.550491 0
M  V30 562 N 51.7335 -0.305618 -1.54608 0
M  V30 563 C 52.6805 0.568421 -2.23691 0
M  V30 564 C 53.6505 1.12592 -1.22116 0
M  V30 565 O 54.8355 1.16959 -1.50749 0
M  V30 566 C 51.9755 1.7322 -2.98477 0
M  V30 567 C 51.0885 1.20566 -4.14835 0
M  V30 568 C 50.2235 2.33368 -4.77193 0
M  V30 569 C 49.2625 1.7787 -5.85686 0
M  V30 570 N 48.3995 2.84263 -6.4198 0
M  V30 571 H 53.2395 -0.0272867 -2.97988 0
M  V30 572 H 50.7765 -0.0252363 -1.47078 0
M  V30 573 H 52.7345 2.41675 -3.40072 0
M  V30 574 H 51.3645 2.29947 -2.26548 0
M  V30 575 H 50.4165 0.413223 -3.78149 0
M  V30 576 H 51.7285 0.759417 -4.92985 0
M  V30 577 H 50.8825 3.09761 -5.21664 0
M  V30 578 H 49.6215 2.8132 -3.98385 0
M  V30 579 H 48.6265 0.99968 -5.40635 0
M  V30 580 H 49.8515 1.30816 -6.66381 0
M  V30 581 H 47.7975 3.31541 -5.66053 0
M  V30 582 H 47.7145 2.44149 -7.15491 0
M  V30 583 H 48.9825 3.6054 -6.91109 0
M  V30 584 N 53.2116 1.57565 -0.0334293 0
M  V30 585 C 54.4576 1.92262 0.645226 0
M  V30 586 C 54.7906 0.910543 1.71531 0
M  V30 587 O 54.0656 -0.066099 1.94388 0
M  V30 588 C 54.3486 3.37422 1.2577 0
M  V30 589 C 54.2016 4.49369 0.196891 0
M  V30 590 C 55.5206 3.82628 2.17449 0
M  V30 591 H 52.6396 0.699171 0.233085 0
M  V30 592 H 55.2816 1.89779 -0.0915694 0
M  V30 593 H 53.4316 3.39669 1.88566 0
M  V30 594 H 55.1036 4.59254 -0.433962 0
M  V30 595 H 53.3466 4.31168 -0.477137 0
M  V30 596 H 54.0176 5.47978 0.665124 0
M  V30 597 H 56.4936 3.82145 1.64634 0
M  V30 598 H 55.3696 4.84883 2.57254 0
M  V30 599 H 55.6306 3.18376 3.0674 0
M  V30 600 N 54.6897 -0.239769 1.55765 0
M  V30 601 C 55.9197 -0.982743 1.8173 0
M  V30 602 C 56.3277 -1.7917 0.607835 0
M  V30 603 O 55.6707 -1.78525 -0.432973 0
M  V30 604 C 55.7327 -1.96332 3.01155 0
M  V30 605 C 55.3967 -1.34062 4.36894 0
M  V30 606 C 56.3937 -0.739539 5.14613 0
M  V30 607 C 54.0787 -1.35784 4.83599 0
M  V30 608 C 56.0727 -0.163989 6.37189 0
M  V30 609 C 53.7597 -0.778441 6.06122 0
M  V30 610 C 54.7577 -0.182548 6.82756 0
M  V30 611 O 54.4457 0.387887 8.02964 0
M  V30 612 H 54.1777 -0.294481 0.608487 0
M  V30 613 H 56.7317 -0.26572 2.03674 0
M  V30 614 H 54.9617 -2.71884 2.74984 0
M  V30 615 H 56.6507 -2.57032 3.14149 0
M  V30 616 H 57.4167 -0.718687 4.79646 0
M  V30 617 H 53.2957 -1.81105 4.23936 0
M  V30 618 H 56.8397 0.301753 6.96947 0
M  V30 619 H 52.7367 -0.796645 6.40565 0
M  V30 620 H 53.5047 0.28044 8.18019 0
M  V30 621 N 56.1678 -1.49265 -0.50573 0
M  V30 622 C 57.3958 -1.62215 -1.28429 0
M  V30 623 C 57.8108 -0.291697 -1.86533 0
M  V30 624 O 57.1678 0.722233 -1.67601 0
M  V30 625 C 57.2188 -2.68735 -2.41793 0
M  V30 626 O 56.9398 -3.96619 -1.86078 0
M  V30 627 C 58.4408 -2.92346 -3.3324 0
M  V30 628 H 55.6608 -0.546239 -0.389697 0
M  V30 629 H 58.2048 -1.95265 -0.607609 0
M  V30 630 H 56.3598 -2.38476 -3.053 0
M  V30 631 H 56.7738 -4.55256 -2.60465 0
M  V30 632 H 58.2478 -3.70623 -4.09075 0
M  V30 633 H 58.7248 -2.02081 -3.89948 0
M  V30 634 H 59.3308 -3.24003 -2.75503 0
M  V30 635 N 57.6459 0.756429 -1.3826 0
M  V30 636 C 58.8759 1.54341 -1.3734 0
M  V30 637 C 59.2839 1.89159 0.0393917 0
M  V30 638 O 58.6269 1.5307 1.01565 0
M  V30 639 C 58.6889 2.87238 -2.16182 0
M  V30 640 C 58.3529 2.74973 -3.65019 0
M  V30 641 C 59.3499 2.44962 -4.58574 0
M  V30 642 C 57.0349 2.92515 -4.08338 0
M  V30 643 C 59.0289 2.32642 -5.93428 0
M  V30 644 C 56.7159 2.79815 -5.43274 0
M  V30 645 C 57.7139 2.49921 -6.35632 0
M  V30 646 O 57.4019 2.37275 -7.68086 0
M  V30 647 H 57.1339 0.484281 -0.471643 0
M  V30 648 H 59.6879 0.944152 -1.82414 0
M  V30 649 H 57.9179 3.49342 -1.65822 0
M  V30 650 H 59.6069 3.48731 -2.07705 0
M  V30 651 H 60.3729 2.31081 -4.26412 0
M  V30 652 H 56.2519 3.14781 -3.368 0
M  V30 653 H 59.7959 2.0923 -6.65484 0
M  V30 654 H 55.6929 2.93269 -5.75034 0
M  V30 655 H 56.4609 2.52509 -7.78577 0
M  V30 656 N 59.124 1.23083 0.984299 0
M  V30 657 C 60.37 1.06214 1.72761 0
M  V30 658 C 60.703 -0.400584 1.90024 0
M  V30 659 O 59.978 -1.29672 1.44967 0
M  V30 660 C 60.261 1.78375 3.12817 0
M  V30 661 C 60.114 3.32296 3.03149 0
M  V30 662 C 61.433 1.54309 4.12161 0
M  V30 663 H 58.552 0.387251 0.627061 0
M  V30 664 H 61.194 1.51536 1.14616 0
M  V30 665 H 59.344 1.39848 3.62457 0
M  V30 666 H 61.016 3.8032 2.61064 0
M  V30 667 H 59.259 3.6153 2.39747 0
M  V30 668 H 59.93 3.77972 4.02295 0
M  V30 669 H 62.406 1.87791 3.71314 0
M  V30 670 H 61.282 2.07281 5.08258 0
M  V30 671 H 61.543 0.477572 4.39513 0
M  V30 672 N 60.6021 -1.18246 1.0419 0
M  V30 673 C 61.8271 -1.92736 0.765996 0
M  V30 674 C 62.2521 -1.75728 -0.67091 0
M  V30 675 O 61.6101 -1.06825 -1.46486 0
M  V30 676 C 61.6581 -3.42148 1.13875 0
M  V30 677 O 60.7621 -4.11548 0.264954 0
M  V30 678 H 60.1031 -0.601238 0.281797 0
M  V30 679 H 62.6331 -1.49942 1.39207 0
M  V30 680 H 62.6431 -3.92858 1.1012 0
M  V30 681 H 61.3181 -3.53848 2.18551 0
M  V30 682 H 59.8951 -3.71137 0.362226 0
M  V30 683 N 62.0802 -0.821533 -1.34494 0
M  V30 684 C 63.0102 -0.257138 -2.3208 0
M  V30 685 C 63.9912 0.625645 -1.58176 0
M  V30 686 O 65.1762 0.552811 -1.86166 0
M  V30 687 C 62.3062 0.582958 -3.42372 0
M  V30 688 C 61.2602 -0.202571 -4.2752 0
M  V30 689 C 60.5862 0.760179 -5.29269 0
M  V30 690 C 61.8862 -1.40998 -5.02908 0
M  V30 691 H 63.5802 -1.07247 -2.79532 0
M  V30 692 H 61.1262 -0.517163 -1.34393 0
M  V30 693 H 63.0792 0.987972 -4.09655 0
M  V30 694 H 61.8032 1.43133 -2.93565 0
M  V30 695 H 60.4622 -0.588936 -3.61838 0
M  V30 696 H 60.1102 1.60447 -4.76724 0
M  V30 697 H 59.8102 0.238809 -5.87115 0
M  V30 698 H 61.3342 1.16308 -5.9942 0
M  V30 699 H 62.7482 -1.07905 -5.63054 0
M  V30 700 H 61.1452 -1.86689 -5.70322 0
M  V30 701 H 62.2152 -2.1889 -4.32684 0
M  V30 702 N 63.5583 1.46682 -0.576371 0
M  V30 703 C 64.5213 2.28707 0.150239 0
M  V30 704 C 65.5213 1.38035 0.824794 0
M  V30 705 O 66.7113 1.60476 0.677719 0
M  V30 706 C 63.8433 3.18248 1.22192 0
M  V30 707 H 65.0363 2.94423 -0.570521 0
M  V30 708 H 62.5893 1.52688 -0.334078 0
M  V30 709 H 63.3243 2.57265 1.97447 0
M  V30 710 H 63.1093 3.85 0.742812 0
M  V30 711 H 64.5993 3.80001 1.73172 0
M  V30 712 N 65.0364 0.313813 1.54444 0
M  V30 713 C 65.9464 -0.565714 2.27677 0
M  V30 714 C 66.9624 -1.13754 1.31666 0
M  V30 715 O 68.1384 -1.15959 1.64668 0
M  V30 716 C 65.2034 -1.71528 3.01296 0
M  V30 717 C 64.2644 -1.17624 4.12872 0
M  V30 718 C 63.4974 -2.27102 4.8297 0
M  V30 719 O 63.7204 -3.47256 4.52514 0
M  V30 720 O 62.6544 -1.9307 5.70094 0
M  V30 721 H 66.4804 0.0287296 3.03686 0
M  V30 722 H 64.0654 0.0798312 1.49187 0
M  V30 723 H 65.9474 -2.38476 3.4743 0
M  V30 724 H 64.6224 -2.29608 2.2817 0
M  V30 725 H 63.5294 -0.472124 3.71109 0
M  V30 726 H 64.8624 -0.640695 4.88012 0
M  V30 727 N 66.5145 -1.57545 0.0417849 0
M  V30 728 C 67.7635 -1.91494 -0.633492 0
M  V30 729 C 68.0765 -0.921084 -1.72556 0
M  V30 730 O 69.2825 -1.15228 -2.45835 0
M  V30 731 C 67.7385 -3.40072 -1.17808 0
M  V30 732 C 67.3465 -4.47843 -0.118633 0
M  V30 733 C 69.0905 -3.8307 -1.82915 0
M  V30 734 C 66.9975 -5.87529 -0.675578 0
M  V30 735 H 65.9275 -0.714653 -0.24039 0
M  V30 736 H 68.5785 -1.83175 0.109148 0
M  V30 737 H 66.9605 -3.43364 -1.97274 0
M  V30 738 H 68.1345 -4.56128 0.654494 0
M  V30 739 H 66.4495 -4.14128 0.434414 0
M  V30 740 H 69.0465 -4.84794 -2.25563 0
M  V30 741 H 69.3895 -3.1881 -2.67705 0
M  V30 742 H 69.9225 -3.82255 -1.10119 0
M  V30 743 H 66.6615 -6.55362 0.134475 0
M  V30 744 H 66.1815 -5.82824 -1.4169 0
M  V30 745 H 67.8605 -6.36491 -1.1614 0
M  V30 746 N 67.9926 0.231505 -1.5589 0
M  V30 747 C 68.9026 1.308 -1.94752 0
M  V30 748 C 69.9186 1.51826 -0.849989 0
M  V30 749 O 71.0946 1.6515 -1.15271 0
M  V30 750 C 68.1596 2.63968 -2.24771 0
M  V30 751 C 67.2206 2.51331 -3.48039 0
M  V30 752 C 66.4536 3.78148 -3.76616 0
M  V30 753 O 66.6766 4.80722 -3.07022 0
M  V30 754 O 65.6106 3.75857 -4.70123 0
M  V30 755 H 69.4366 1.0083 -2.86474 0
M  V30 756 H 67.0216 0.433547 -1.42971 0
M  V30 757 H 68.9036 3.42633 -2.45318 0
M  V30 758 H 67.5786 2.9364 -1.36225 0
M  V30 759 H 66.4856 1.709 -3.32782 0
M  V30 760 H 67.8186 2.26601 -4.36936 0
M  V30 761 N 69.4707 1.49531 0.497807 0
M  V30 762 C 70.7187 1.58865 1.24926 0
M  V30 763 C 71.0397 0.278721 1.92998 0
M  V30 764 O 70.3097 -0.702144 1.82885 0
M  V30 765 H 68.8897 0.585343 0.464094 0
M  V30 766 H 71.5517 1.86174 0.57666 0
M  V30 767 H 70.6477 2.38633 2.01149 0
M  V30 768 N 70.9488 -0.749086 1.3866 0
M  V30 769 C 72.1948 -1.50959 1.36319 0
M  V30 770 C 72.5498 -1.92347 -0.0452451 0
M  V30 771 O 71.8428 -1.6289 -1.00884 0
M  V30 772 C 72.0368 -2.7712 2.25697 0
M  V30 773 C 71.8658 -2.48067 3.7509 0
M  V30 774 C 70.6358 -2.41062 4.44091 0
M  V30 775 C 72.8338 -2.14544 4.67414 0
M  V30 776 N 70.8158 -2.04331 5.78897 0
M  V30 777 C 72.1868 -1.88141 5.90765 0
M  V30 778 C 74.2418 -2.00892 4.55573 0
M  V30 779 C 72.9448 -1.49463 7.036 0
M  V30 780 C 74.9708 -1.63616 5.68317 0
M  V30 781 C 74.3328 -1.38088 6.90732 0
M  V30 782 H 70.4318 -0.551804 0.554108 0
M  V30 783 H 73.0158 -0.871886 1.74087 0
M  V30 784 H 71.1868 -3.38693 1.9011 0
M  V30 785 H 72.9188 -3.4321 2.1445 0
M  V30 786 H 69.6738 -2.57685 3.9736 0
M  V30 787 H 70.0978 -1.88598 6.502 0
M  V30 788 H 74.7398 -2.19301 3.61479 0
M  V30 789 H 72.4578 -1.29794 7.97608 0
M  V30 790 H 76.0438 -1.53678 5.61137 0
M  V30 791 H 74.9238 -1.09674 7.76493 0
M  V30 792 N 72.4269 -1.23603 -0.977757 0
M  V30 793 C 73.6749 -1.06759 -1.71601 0
M  V30 794 C 73.9959 0.395929 -1.90938 0
M  V30 795 O 73.2659 1.28356 -1.47992 0
M  V30 796 H 71.8459 -0.392062 -0.635843 0
M  V30 797 H 74.5079 -1.55362 -1.1768 0
M  V30 798 H 73.6039 -1.55763 -2.70452 0
M  V30 799 N 73.905 1.17692 -1.04816 0
M  V30 800 C 74.838 2.20436 -0.590173 0
M  V30 801 C 75.816 1.58115 0.379244 0
M  V30 802 O 77 1.86228 0.291762 0
M  V30 803 C 74.127 3.38424 0.136817 0
M  V30 804 C 73.173 4.19176 -0.787023 0
M  V30 805 S 74.006 4.84815 -2.27409 0
M  V30 806 C 75.162 6.06195 -1.55817 0
M  V30 807 H 75.395 2.58944 -1.46067 0
M  V30 808 H 72.928 1.28246 -0.859784 0
M  V30 809 H 74.886 4.06798 0.550076 0
M  V30 810 H 73.547 2.98312 0.983299 0
M  V30 811 H 72.74 5.03499 -0.224681 0
M  V30 812 H 72.342 3.56219 -1.13947 0
M  V30 813 H 74.634 6.72078 -0.855387 0
M  V30 814 H 75.577 6.6695 -2.37873 0
M  V30 815 H 75.985 5.54701 -1.04722 0
M  V30 816 N 75.3831 0.828654 1.34056 0
M  V30 817 C 76.6291 0.42008 1.98402 0
M  V30 818 C 76.9621 -1.01564 1.65525 0
M  V30 819 O 76.2371 -1.70834 0.929831 0
M  V30 820 C 76.5201 0.62927 3.54559 0
M  V30 821 C 76.3731 2.11152 3.97159 0
M  V30 822 C 77.6921 0.0688756 4.40046 0
M  V30 823 H 74.8111 0.154104 0.720709 0
M  V30 824 H 77.4531 1.04228 1.5886 0
M  V30 825 H 75.6031 0.0996418 3.88372 0
M  V30 826 H 77.2751 2.70522 3.73651 0
M  V30 827 H 75.5181 2.59985 3.47261 0
M  V30 828 H 76.1891 2.20868 5.05887 0
M  V30 829 H 78.6651 0.521458 4.1282 0
M  V30 830 H 77.5411 0.245006 5.48353 0
M  V30 831 H 77.8021 -1.0266 4.30015 0
M  V30 832 N 76.8612 -1.46375 0.584142 0
M  V30 833 C 78.2722 -1.86031 0.157959 0
M  V30 834 C 78.6232 -1.48753 -1.27933 0
M  V30 835 O 77.7482 -0.903098 -1.96655 0
M  V30 836 C 78.3432 -3.37642 0.279892 0
M  V30 837 C 76.9022 -3.76289 -0.09143 0
M  V30 838 C 76.0492 -2.7039 0.615178 0
M  V30 839 H 79.0002 -1.37509 0.792274 0
M  V30 840 H 79.0212 -3.77275 -0.494364 0
M  V30 841 H 78.5332 -3.64742 1.32607 0
M  V30 842 H 76.6342 -3.54806 -1.13769 0
M  V30 843 H 76.7472 -4.78246 0.285886 0
M  V30 844 H 75.1112 -2.5464 0.0552833 0
M  V30 845 H 75.8942 -3.0033 1.66303 0
M  V30 846 N 78.3393 -0.321999 -1.54275 0
M  V30 847 C 79.5643 0.285791 -2.05422 0
M  V30 848 C 79.9893 1.45124 -1.19669 0
M  V30 849 O 79.3473 1.80132 -0.205441 0
M  V30 850 C 79.3953 0.69956 -3.53749 0
M  V30 851 O 78.4993 1.8021 -3.70942 0
M  V30 852 H 77.8403 0.0518962 -0.661969 0
M  V30 853 H 80.3703 -0.469954 -1.9913 0
M  V30 854 H 80.3803 0.982649 -3.9599 0
M  V30 855 H 79.0553 -0.152864 -4.15619 0
M  V30 856 H 77.6323 1.51794 -3.40607 0
M  V30 857 N 79.8174 1.5752 -0.0501392 0
M  V30 858 C 80.7654 2.12651 0.942459 0
M  V30 859 C 81.7594 1.05807 1.32292 0
M  V30 860 O 82.9654 1.24217 1.3027 0
M  V30 861 H 79.3404 0.679673 0.321789 0
M  V30 862 H 81.3114 2.94951 0.452356 0
M  V30 863 C 80.0604 2.68565 2.20836 0
M  V30 864 H 79.3834 3.50439 1.92439 0
M  V30 865 H 80.8234 3.10761 2.8845 0
M  V30 866 C 79.2824 1.62291 2.95234 0
M  V30 867 O 79.8124 1.03508 3.88135 0
M  V30 868 N 78.0184 1.33836 2.57946 0
M  V30 869 H 77.5654 1.81826 1.82475 0
M  V30 870 H 77.5234 0.629595 3.08032 0
M  V30 871 N 81.2955 -0.223234 1.56011 0
M  V30 872 C 82.5435 -0.946003 1.78592 0
M  V30 873 C 82.8645 -1.84936 0.618349 0
M  V30 874 O 82.1345 -1.92473 -0.364833 0
M  V30 875 H 80.7145 -0.352298 0.658707 0
M  V30 876 H 83.3765 -0.235494 1.93472 0
M  V30 877 H 82.4725 -1.55381 2.70672 0
M  V30 878 N 82.7736 -1.49793 -0.48987 0
M  V30 879 C 83.7066 -1.61898 -1.60823 0
M  V30 880 C 84.6846 -0.467651 -1.5573 0
M  V30 881 O 85.8686 -0.684682 -1.75626 0
M  V30 882 C 82.9956 -1.58422 -2.99366 0
M  V30 883 C 82.0416 -2.78889 -3.22682 0
M  V30 884 S 82.8746 -4.40429 -3.04602 0
M  V30 885 C 84.0306 -4.39617 -4.4552 0
M  V30 886 H 84.2636 -2.56502 -1.50312 0
M  V30 887 H 81.7966 -1.38822 -0.675849 0
M  V30 888 H 83.7546 -1.57103 -3.79248 0
M  V30 889 H 82.4156 -0.650866 -3.07283 0
M  V30 890 H 81.6086 -2.72708 -4.23847 0
M  V30 891 H 81.2106 -2.77678 -2.50541 0
M  V30 892 H 83.5026 -4.12022 -5.37814 0
M  V30 893 H 84.4456 -5.41097 -4.56749 0
M  V30 894 H 84.8536 -3.69554 -4.2672 0
M  V30 895 N 84.2517 0.741722 -1.39055 0
M  V30 896 C 85.5007 1.49656 -1.35225 0
M  V30 897 C 85.8137 1.95533 0.0512708 0
M  V30 898 O 87.0197 2.7067 0.212138 0
M  V30 899 C 85.4757 2.70389 -2.37525 0
M  V30 900 C 85.0837 2.31489 -3.83558 0
M  V30 901 C 86.8277 3.48236 -2.42759 0
M  V30 902 C 84.7347 3.48903 -4.77515 0
M  V30 903 H 83.6647 0.56197 -0.502699 0
M  V30 904 H 86.3157 0.809727 -1.64668 0
M  V30 905 H 84.6977 3.41113 -2.01142 0
M  V30 906 H 85.8717 1.68354 -4.28945 0
M  V30 907 H 84.1867 1.66749 -3.81554 0
M  V30 908 H 86.7837 4.35558 -3.1015 0
M  V30 909 H 87.1267 3.90229 -1.45008 0
M  V30 910 H 87.6597 2.84535 -2.78002 0
M  V30 911 H 84.3987 3.11966 -5.76504 0
M  V30 912 H 83.9187 4.11041 -4.36813 0
M  V30 913 H 85.5977 4.15328 -4.96096 0
M  V30 914 N 85.7298 1.2412 0.971189 0
M  V30 915 C 86.9758 1.08041 1.71625 0
M  V30 916 C 87.3088 -0.380407 1.90438 0
M  V30 917 O 86.5838 -1.28127 1.46334 0
M  V30 918 C 86.8668 1.81682 3.10908 0
M  V30 919 C 86.7198 3.35493 2.99608 0
M  V30 920 C 88.0388 1.58671 4.10501 0
M  V30 921 H 85.1578 0.39388 0.622919 0
M  V30 922 H 87.7998 1.52743 1.13003 0
M  V30 923 H 85.9498 1.43684 3.60953 0
M  V30 924 H 87.6218 3.83068 2.57015 0
M  V30 925 H 85.8648 3.64052 2.35899 0
M  V30 926 H 86.5358 3.82217 3.98264 0
M  V30 927 H 89.0118 1.91719 3.69301 0
M  V30 928 H 87.8878 2.1266 5.06031 0
M  V30 929 H 88.1488 0.524161 4.38982 0
M  V30 930 N 87.2079 -1.17134 1.05439 0
M  V30 931 C 88.4569 -1.86791 0.761049 0
M  V30 932 C 88.7699 -1.82072 -0.714795 0
M  V30 933 O 89.9759 -2.47223 -1.12218 0
M  V30 934 C 88.4319 -3.35166 1.31117 0
M  V30 935 C 88.0399 -3.48381 2.81664 0
M  V30 936 C 89.7839 -4.10134 1.09499 0
M  V30 937 C 87.6909 -4.90793 3.29964 0
M  V30 938 H 86.6209 -0.699681 0.281002 0
M  V30 939 H 89.2719 -1.3226 1.27199 0
M  V30 940 H 87.6539 -3.8925 0.72803 0
M  V30 941 H 88.8279 -3.04502 3.45855 0
M  V30 942 H 87.1429 -2.86836 3.01851 0
M  V30 943 H 89.7399 -5.152 1.43084 0
M  V30 944 H 90.0829 -4.16287 0.0328772 0
M  V30 945 H 90.6159 -3.62264 1.64346 0
M  V30 946 H 87.3549 -4.89816 4.35616 0
M  V30 947 H 86.8749 -5.35333 2.70516 0
M  V30 948 H 88.5539 -5.59573 3.24787 0
M  V30 949 N 88.686 -0.835752 -1.33615 0
M  V30 950 C 89.634 -0.255238 -2.31195 0
M  V30 951 C 90.628 0.61107 -1.57995 0
M  V30 952 O 91.834 0.500979 -1.72888 0
M  V30 953 H 88.209 -0.0638085 -0.749288 0
M  V30 954 H 90.18 -1.09283 -2.77669 0
M  V30 955 C 88.929 0.55754 -3.43201 0
M  V30 956 H 88.252 -0.0997553 -3.99676 0
M  V30 957 H 89.692 0.929622 -4.13683 0
M  V30 958 C 88.151 1.73515 -2.88781 0
M  V30 959 O 88.681 2.83376 -2.84712 0
M  V30 960 N 86.887 1.55603 -2.4543 0
M  V30 961 H 86.434 0.662354 -2.48939 0
M  V30 962 H 86.392 2.34545 -2.09371 0
M  V30 963 N 90.1641 1.46063 -0.591896 0
M  V30 964 C 91.1121 2.32124 0.148739 0
M  V30 965 C 92.1061 1.45035 0.875286 0
M  V30 966 O 93.3121 1.61609 0.792632 0
M  V30 967 H 89.6871 0.749024 0.066832 0
M  V30 968 H 91.6581 2.92392 -0.595783 0
M  V30 969 C 90.4071 3.28373 1.1431 0
M  V30 970 H 89.7301 3.95371 0.59346 0
M  V30 971 H 91.1701 3.91352 1.63155 0
M  V30 972 C 89.6291 2.54393 2.20875 0
M  V30 973 O 90.1591 2.31373 3.28374 0
M  V30 974 N 88.3651 2.14797 1.95731 0
M  V30 975 H 87.9121 2.33719 1.08319 0
M  V30 976 H 87.8701 1.65619 2.67241 0
M  V30 977 N 91.6422 0.330177 1.54103 0
M  V30 978 C 92.5922 -0.548456 2.21305 0
M  V30 979 C 93.5762 -1.07651 1.19583 0
M  V30 980 O 94.7682 -1.01243 1.45186 0
M  V30 981 C 91.8972 -1.70559 2.97934 0
M  V30 982 C 90.9832 -1.19212 4.07 0
M  V30 983 N 91.3742 -0.398831 5.04225 0
M  V30 984 C 89.6722 -1.47024 4.2107 0
M  V30 985 C 90.3732 -0.121761 5.81573 0
M  V30 986 N 89.3492 -0.709722 5.38947 0
M  V30 987 H 93.1512 0.0648483 2.93828 0
M  V30 988 H 90.6652 0.136363 1.61826 0
M  V30 989 H 92.6622 -2.34688 3.44568 0
M  V30 990 H 91.3222 -2.32231 2.26934 0
M  V30 991 H 92.3332 -0.0410869 5.17884 0
M  V30 992 H 89.0102 -2.09232 3.61287 0
M  V30 993 H 90.4002 0.517298 6.69906 0
M  V30 994 N 93.1203 -1.57491 0.0584922 0
M  V30 995 C 94.0523 -2.08916 -0.942694 0
M  V30 996 C 95.0653 -1.0185 -1.27006 0
M  V30 997 O 96.2543 -1.29398 -1.22957 0
M  V30 998 C 93.3543 -2.52341 -2.26224 0
M  V30 999 C 92.5273 -3.82827 -2.1157 0
M  V30 1000 C 91.5863 -4.12487 -3.26712 0
M  V30 1001 O 90.6123 -4.82295 -3.02292 0
M  V30 1002 N 91.8143 -3.64978 -4.5141 0
M  V30 1003 H 94.5793 -2.95437 -0.503722 0
M  V30 1004 H 92.1403 -1.61397 -0.12757 0
M  V30 1005 H 94.1323 -2.69254 -3.02133 0
M  V30 1006 H 92.7023 -1.7103 -2.61663 0
M  V30 1007 H 91.9223 -3.75425 -1.20208 0
M  V30 1008 H 93.2103 -4.68263 -1.99015 0
M  V30 1009 H 92.6083 -3.08558 -4.7414 0
M  V30 1010 H 91.1653 -3.87115 -5.2439 0
M  V30 1011 N 94.5984 0.214957 -1.56127 0
M  V30 1012 C 95.5614 1.24997 -1.92116 0
M  V30 1013 C 96.5614 1.39467 -0.800344 0
M  V30 1014 O 97.7514 1.37619 -1.06802 0
M  V30 1015 C 94.8834 2.62271 -2.17777 0
M  V30 1016 H 96.0764 0.942875 -2.84693 0
M  V30 1017 H 93.6294 0.455654 -1.49511 0
M  V30 1018 H 94.3644 2.98068 -1.27773 0
M  V30 1019 H 94.1494 2.53143 -2.99434 0
M  V30 1020 H 95.6394 3.36946 -2.46693 0
M  V30 1021 N 96.0765 1.50051 0.48192 0
M  V30 1022 C 97.0395 1.67584 1.5636 0
M  V30 1023 C 98.0395 0.546894 1.51214 0
M  V30 1024 O 99.2295 0.813725 1.54026 0
M  V30 1025 C 96.3615 1.691 2.96003 0
M  V30 1026 H 97.5545 2.64078 1.42136 0
M  V30 1027 H 95.1075 1.39369 0.707533 0
M  V30 1028 H 95.8425 0.742589 3.15684 0
M  V30 1029 H 95.6275 2.51105 3.01146 0
M  V30 1030 H 97.1175 1.84656 3.74556 0
M  V30 1031 N 97.5546 -0.734337 1.39446 0
M  V30 1032 C 98.4846 -1.86155 1.40955 0
M  V30 1033 C 99.4656 -1.67898 0.272827 0
M  V30 1034 O 100.651 -1.88207 0.478743 0
M  V30 1035 C 97.7806 -3.23912 1.25294 0
M  V30 1036 C 96.7346 -3.56808 2.36373 0
M  V30 1037 C 96.0606 -4.93508 2.058 0
M  V30 1038 C 97.3606 -3.59713 3.78687 0
M  V30 1039 H 99.0546 -1.8515 2.35287 0
M  V30 1040 H 96.6006 -0.889367 1.13253 0
M  V30 1041 H 98.5536 -4.02443 1.2497 0
M  V30 1042 H 97.2776 -3.25446 0.274308 0
M  V30 1043 H 95.9366 -2.80606 2.35914 0
M  V30 1044 H 95.5846 -4.91623 1.06374 0
M  V30 1045 H 95.2846 -5.16486 2.80208 0
M  V30 1046 H 96.8086 -5.74396 2.07128 0
M  V30 1047 H 98.2226 -4.2832 3.81071 0
M  V30 1048 H 96.6196 -3.94209 4.52459 0
M  V30 1049 H 97.6896 -2.59504 4.09617 0
M  V30 1050 N 99.0327 -1.24633 -0.964593 0
M  V30 1051 C 99.9627 -1.06611 -2.07741 0
M  V30 1052 C 100.944 0.0218666 -1.70086 0
M  V30 1053 O 102.129 -0.145793 -1.93652 0
M  V30 1054 C 99.2587 -0.673444 -3.40708 0
M  V30 1055 C 98.2127 -1.71054 -3.92332 0
M  V30 1056 C 97.5387 -1.17285 -5.21678 0
M  V30 1057 C 98.8387 -3.10718 -4.19824 0
M  V30 1058 H 100.533 -1.99693 -2.23076 0
M  V30 1059 H 98.0787 -0.96152 -1.07195 0
M  V30 1060 H 100.032 -0.534345 -4.17998 0
M  V30 1061 H 98.7557 0.293073 -3.25282 0
M  V30 1062 H 97.4147 -1.83791 -3.17201 0
M  V30 1063 H 97.0627 -0.196847 -5.02615 0
M  V30 1064 H 96.7627 -1.86592 -5.57187 0
M  V30 1065 H 98.2867 -1.04593 -6.01575 0
M  V30 1066 H 99.7007 -3.01192 -4.87808 0
M  V30 1067 H 98.0977 -3.77406 -4.66567 0
M  V30 1068 H 99.1677 -3.58524 -3.26479 0
M  V30 1069 N 100.511 1.16574 -1.06058 0
M  V30 1070 C 101.788 1.83048 -0.689416 0
M  V30 1071 C 102.168 1.94122 0.829443 0
M  V30 1072 O 101.516 1.48249 1.7388 0
M  V30 1073 C 101.726 3.20186 -1.38859 0
M  V30 1074 C 103.074 3.95989 -1.53226 0
M  V30 1075 O 104.098 3.29696 -1.3483 0
M  V30 1076 O 102.957 5.14813 -1.83384 0
M  V30 1077 H 100.051 0.790258 -0.243764 0
M  V30 1078 H 102.597 1.23797 -1.16071 0
M  V30 1079 H 101.369 3.07146 -2.4244 0
M  V30 1080 H 100.992 3.87112 -0.907216 0
M  V30 1081 N 101.989 0.842826 1.3317 0
M  V30 1082 C 103.217 0.454055 2.01856 0
M  V30 1083 C 103.632 -0.94587 1.63397 0
M  V30 1084 O 102.989 -1.61534 0.849302 0
M  V30 1085 C 103.04 0.569715 3.56982 0
M  V30 1086 O 102.761 1.91448 3.94055 0
M  V30 1087 C 104.262 0.178412 4.42941 0
M  V30 1088 H 101.482 0.17979 0.646465 0
M  V30 1089 H 104.026 1.1365 1.70012 0
M  V30 1090 H 102.181 -0.0648587 3.87346 0
M  V30 1091 H 102.595 1.90282 4.88767 0
M  V30 1092 H 104.069 0.310376 5.51127 0
M  V30 1093 H 104.546 -0.880056 4.30293 0
M  V30 1094 H 105.152 0.787579 4.17944 0
M  V30 1095 N 103.467 -1.45747 0.599634 0
M  V30 1096 C 104.878 -1.85853 0.177681 0
M  V30 1097 C 105.229 -1.50102 -1.26348 0
M  V30 1098 O 104.354 -0.923905 -1.95686 0
M  V30 1099 C 104.949 -3.37326 0.315688 0
M  V30 1100 C 103.508 -3.76365 -0.0515144 0
M  V30 1101 C 102.655 -2.69722 0.643822 0
M  V30 1102 H 105.606 -1.36661 0.806814 0
M  V30 1103 H 105.627 -3.77778 -0.454321 0
M  V30 1104 H 105.139 -3.63315 1.36468 0
M  V30 1105 H 103.24 -3.55993 -1.09999 0
M  V30 1106 H 103.353 -4.77916 0.336594 0
M  V30 1107 H 101.717 -2.54567 0.0822881 0
M  V30 1108 H 102.5 -2.98549 1.6948 0
M  V30 1109 N 104.945 -0.338344 -1.53925 0
M  V30 1110 C 106.194 0.260732 -2.00008 0
M  V30 1111 C 106.507 1.52073 -1.23017 0
M  V30 1112 O 107.713 2.19672 -1.5955 0
M  V30 1113 C 106.169 0.51515 -3.56194 0
M  V30 1114 C 105.777 -0.728645 -4.42035 0
M  V30 1115 C 107.521 1.07337 -4.10706 0
M  V30 1116 C 105.428 -0.445315 -5.89721 0
M  V30 1117 H 104.358 0.101205 -0.747177 0
M  V30 1118 H 107.009 -0.452866 -1.77824 0
M  V30 1119 H 105.391 1.28932 -3.74423 0
M  V30 1120 H 106.565 -1.50352 -4.35581 0
M  V30 1121 H 104.88 -1.20813 -3.98489 0
M  V30 1122 H 107.477 1.30022 -5.18651 0
M  V30 1123 H 107.82 2.0273 -3.63602 0
M  V30 1124 H 108.353 0.360034 -3.96167 0
M  V30 1125 H 105.092 -1.36883 -6.41049 0
M  V30 1126 H 104.612 0.291569 -5.99091 0
M  V30 1127 H 106.291 -0.0606218 -6.46972 0
M  V30 1128 N 106.423 1.57458 -0.0668435 0
M  V30 1129 C 107.371 2.13639 0.919851 0
M  V30 1130 C 108.365 1.07204 1.31163 0
M  V30 1131 O 109.571 1.25591 1.28945 0
M  V30 1132 H 105.946 0.683048 0.314562 0
M  V30 1133 H 107.917 2.95415 0.421047 0
M  V30 1134 C 106.666 2.70892 2.17975 0
M  V30 1135 H 105.989 3.5246 1.88711 0
M  V30 1136 H 107.429 3.13803 2.85138 0
M  V30 1137 C 105.888 1.65414 2.93496 0
M  V30 1138 O 106.418 1.07619 3.87015 0
M  V30 1139 N 104.624 1.36564 2.56512 0
M  V30 1140 H 104.171 1.83751 1.80536 0
M  V30 1141 H 104.129 0.66223 3.07347 0
M  V30 1142 N 107.901 -0.206675 1.56239 0
M  V30 1143 C 109.178 -0.954051 1.70755 0
M  V30 1144 C 109.558 -2.01841 0.618353 0
M  V30 1145 O 108.906 -2.25444 -0.372434 0
M  V30 1146 C 109.116 -1.551 3.12642 0
M  V30 1147 C 110.464 -2.03757 3.72516 0
M  V30 1148 O 111.488 -1.64965 3.15698 0
M  V30 1149 O 110.347 -2.75103 4.72208 0
M  V30 1150 H 107.441 -0.446636 0.696021 0
M  V30 1151 H 109.987 -0.197283 1.68549 0
M  V30 1152 H 108.759 -0.783212 3.83382 0
M  V30 1153 H 108.382 -2.37291 3.19028 0
M  V30 1154 N 109.379 -1.50304 -0.473955 0
M  V30 1155 C 110.342 -1.6841 -1.55469 0
M  V30 1156 C 111.342 -0.554905 -1.50922 0
M  V30 1157 O 112.532 -0.821882 -1.53593 0
M  V30 1158 C 109.664 -1.70667 -2.95102 0
M  V30 1159 H 110.857 -2.64828 -1.40733 0
M  V30 1160 H 108.41 -1.39742 -0.700132 0
M  V30 1161 H 109.145 -0.75932 -3.15285 0
M  V30 1162 H 108.93 -2.52698 -2.9981 0
M  V30 1163 H 110.42 -1.8664 -3.73571 0
M  V30 1164 N 110.857 0.726932 -1.39834 0
M  V30 1165 C 111.789 1.85147 -1.35104 0
M  V30 1166 C 112.802 1.60736 -0.258392 0
M  V30 1167 O 113.991 1.70821 -0.517931 0
M  V30 1168 C 111.091 3.21332 -1.07697 0
M  V30 1169 C 110.264 3.73033 -2.28396 0
M  V30 1170 C 109.323 4.87802 -1.97322 0
M  V30 1171 O 108.349 5.01043 -2.70083 0
M  V30 1172 N 109.551 5.72768 -0.944273 0
M  V30 1173 H 112.316 1.89706 -2.32017 0
M  V30 1174 H 109.877 0.908006 -1.3404 0
M  V30 1175 H 111.869 3.95691 -0.849144 0
M  V30 1176 H 110.439 3.11992 -0.194909 0
M  V30 1177 H 109.659 2.89934 -2.6708 0
M  V30 1178 H 110.947 4.0431 -3.08887 0
M  V30 1179 H 110.345 5.64669 -0.341427 0
M  V30 1180 H 108.902 6.4716 -0.776346 0
M  V30 1181 N 112.336 1.25143 0.95797 0
M  V30 1182 C 113.564 1.12424 1.73691 0
M  V30 1183 C 113.979 -0.322304 1.86029 0
M  V30 1184 O 113.336 -1.22186 1.35561 0
M  V30 1185 C 113.387 1.76933 3.15241 0
M  V30 1186 O 113.108 3.15932 3.03511 0
M  V30 1187 C 114.609 1.6995 4.09429 0
M  V30 1188 H 111.829 0.3923 0.544373 0
M  V30 1189 H 114.373 1.6544 1.20207 0
M  V30 1190 H 112.528 1.27895 3.6568 0
M  V30 1191 H 112.942 3.47598 3.9278 0
M  V30 1192 H 114.416 2.19753 5.06372 0
M  V30 1193 H 114.893 0.662619 4.34173 0
M  V30 1194 H 115.499 2.18461 3.64904 0
M  V30 1195 N 113.814 -1.1601 1.06675 0
M  V30 1196 C 114.724 -2.24156 0.692179 0
M  V30 1197 C 115.74 -1.71507 -0.293513 0
M  V30 1198 O 116.916 -2.009 -0.141861 0
M  V30 1199 C 113.981 -3.46587 0.0884131 0
M  V30 1200 C 113.042 -4.14257 1.12646 0
M  V30 1201 C 112.275 -5.30844 0.551416 0
M  V30 1202 O 112.498 -5.66858 -0.634656 0
M  V30 1203 O 111.432 -5.87848 1.29298 0
M  V30 1204 H 115.258 -2.58513 1.59388 0
M  V30 1205 H 112.843 -1.23599 0.83926 0
M  V30 1206 H 114.725 -4.20679 -0.246361 0
M  V30 1207 H 113.4 -3.13994 -0.786712 0
M  V30 1208 H 112.307 -3.42118 1.51348 0
M  V30 1209 H 113.64 -4.50914 1.97325 0
M  V30 1210 N 115.292 -0.849877 -1.32721 0
M  V30 1211 C 116.225 -0.235903 -2.26977 0
M  V30 1212 C 117.203 0.623355 -1.50177 0
M  V30 1213 O 118.387 0.581207 -1.79316 0
M  V30 1214 C 115.514 0.667712 -3.32053 0
M  V30 1215 C 114.56 -0.11753 -4.26338 0
M  V30 1216 S 115.393 -1.48277 -5.14562 0
M  V30 1217 C 116.549 -0.584741 -6.23163 0
M  V30 1218 H 116.782 -1.03495 -2.78704 0
M  V30 1219 H 114.315 -0.64724 -1.40179 0
M  V30 1220 H 116.273 1.18343 -3.93072 0
M  V30 1221 H 114.934 1.44052 -2.7912 0
M  V30 1222 H 114.127 0.57051 -5.00761 0
M  V30 1223 H 113.729 -0.564668 -3.69713 0
M  V30 1224 H 116.021 0.212968 -6.77165 0
M  V30 1225 H 116.964 -1.29947 -6.96074 0
M  V30 1226 H 117.372 -0.161202 -5.6427 0
M  V30 1227 N 116.77 1.45427 -0.607355 0
M  V30 1228 C 117.7 2.3329 0.0989352 0
M  V30 1229 C 118.681 1.46816 0.859007 0
M  V30 1230 O 119.866 1.75588 0.829604 0
M  V30 1231 C 116.996 3.29518 1.09705 0
M  V30 1232 C 115.95 4.25626 0.450206 0
M  V30 1233 C 115.276 5.11542 1.55655 0
M  V30 1234 C 116.576 5.18505 -0.628455 0
M  V30 1235 H 118.27 2.92595 -0.634716 0
M  V30 1236 H 115.816 1.40696 -0.306681 0
M  V30 1237 H 117.769 3.89855 1.59971 0
M  V30 1238 H 116.493 2.68372 1.86129 0
M  V30 1239 H 115.152 3.66586 -0.0315886 0
M  V30 1240 H 114.8 4.46765 2.31107 0
M  V30 1241 H 114.5 5.76647 1.12925 0
M  V30 1242 H 116.024 5.74748 2.06148 0
M  V30 1243 H 117.438 5.72916 -0.209877 0
M  V30 1244 H 115.835 5.92085 -0.977489 0
M  V30 1245 H 116.905 4.60948 -1.50514 0
M  V30 1246 N 118.248 0.346503 1.53744 0
M  V30 1247 C 119.494 -0.249473 2.0126 0
M  V30 1248 C 119.827 -1.49965 1.23386 0
M  V30 1249 O 119.102 -1.91811 0.32229 0
M  V30 1250 C 119.385 -0.560643 3.55709 0
M  V30 1251 C 119.238 0.701836 4.44291 0
M  V30 1252 C 120.557 -1.36905 4.18264 0
M  V30 1253 H 117.676 -0.0891987 0.731582 0
M  V30 1254 H 120.318 0.467624 1.84156 0
M  V30 1255 H 118.468 -1.17156 3.70414 0
M  V30 1256 H 120.14 1.33974 4.41417 0
M  V30 1257 H 118.383 1.32612 4.13033 0
M  V30 1258 H 119.054 0.43933 5.50249 0
M  V30 1259 H 121.53 -0.852448 4.07275 0
M  V30 1260 H 120.406 -1.55553 5.26398 0
M  V30 1261 H 120.667 -2.37203 3.73078 0
M  V30 1262 N 119.726 -1.57421 0.075193 0
M  V30 1263 C 120.674 -2.14124 -0.908508 0
M  V30 1264 C 121.668 -1.07898 -1.30592 0
M  V30 1265 O 122.874 -1.26273 -1.28277 0
M  V30 1266 H 119.249 -0.684707 -0.310935 0
M  V30 1267 H 121.22 -2.95634 -0.405374 0
M  V30 1268 C 119.969 -2.72044 -2.16535 0
M  V30 1269 H 119.292 -3.53456 -1.86839 0
M  V30 1270 H 120.732 -3.15311 -2.83469 0
M  V30 1271 C 119.191 -1.66968 -2.92615 0
M  V30 1272 O 119.721 -1.0967 -3.86439 0
M  V30 1273 N 117.927 -1.37923 -2.55784 0
M  V30 1274 H 117.474 -1.84706 -1.79559 0
M  V30 1275 H 117.432 -0.67852 -3.06991 0
M  V30 1276 N 121.204 0.198386 -1.56346 0
M  V30 1277 C 122.45 0.916115 -1.81601 0
M  V30 1278 C 122.805 1.81025 -0.651744 0
M  V30 1279 O 122.098 1.88316 0.353229 0
M  V30 1280 C 122.292 1.77031 -3.10475 0
M  V30 1281 C 122.121 0.960365 -4.39326 0
M  V30 1282 C 120.891 0.646093 -5.01152 0
M  V30 1283 C 123.089 0.314628 -5.13337 0
M  V30 1284 N 121.071 -0.182828 -6.13628 0
M  V30 1285 C 122.442 -0.37664 -6.18855 0
M  V30 1286 C 124.497 0.230019 -4.97368 0
M  V30 1287 C 123.2 -1.14445 -7.10137 0
M  V30 1288 C 125.226 -0.524389 -5.89071 0
M  V30 1289 C 124.588 -1.20412 -6.94032 0
M  V30 1290 H 120.687 0.314732 -0.715868 0
M  V30 1291 H 123.271 0.185102 -1.93818 0
M  V30 1292 H 121.442 2.47295 -2.99499 0
M  V30 1293 H 123.174 2.42727 -3.2383 0
M  V30 1294 H 119.929 0.969724 -4.63566 0
M  V30 1295 H 120.353 -0.586802 -6.74452 0
M  V30 1296 H 124.995 0.741184 -4.16253 0
M  V30 1297 H 122.713 -1.66706 -7.90718 0
M  V30 1298 H 126.299 -0.591167 -5.78789 0
M  V30 1299 H 125.179 -1.77853 -7.63766 0
M  V30 1300 N 122.682 1.50554 0.465978 0
M  V30 1301 C 123.928 1.62038 1.21949 0
M  V30 1302 C 124.261 0.322116 1.9151 0
M  V30 1303 O 123.536 -0.676723 1.82348 0
M  V30 1304 C 123.819 2.80421 2.25912 0
M  V30 1305 C 123.672 4.20144 1.60622 0
M  V30 1306 C 124.991 2.94354 3.27176 0
M  V30 1307 H 122.11 0.589752 0.441998 0
M  V30 1308 H 124.752 1.82956 0.51257 0
M  V30 1309 H 122.902 2.62717 2.86203 0
M  V30 1310 H 124.574 4.49449 1.03889 0
M  V30 1311 H 122.817 4.24165 0.909211 0
M  V30 1312 H 123.488 4.98914 2.36196 0
M  V30 1313 H 125.964 3.10578 2.76913 0
M  V30 1314 H 124.84 3.788 3.97242 0
M  V30 1315 H 125.101 2.05186 3.916 0
M  V30 1316 N 124.16 -0.719506 1.40217 0
M  V30 1317 C 125.388 -1.50864 1.41589 0
M  V30 1318 C 125.803 -1.88794 0.0145275 0
M  V30 1319 O 125.16 -1.55174 -0.960594 0
M  V30 1320 C 125.211 -2.78646 2.30302 0
M  V30 1321 O 124.932 -2.42321 3.64983 0
M  V30 1322 C 126.433 -3.72569 2.40224 0
M  V30 1323 H 123.653 -0.465709 0.48307 0
M  V30 1324 H 126.197 -0.88785 1.84221 0
M  V30 1325 H 124.352 -3.37019 1.91042 0
M  V30 1326 H 124.766 -3.24514 4.12057 0
M  V30 1327 H 126.24 -4.5908 3.06512 0
M  V30 1328 H 126.717 -4.15403 1.42608 0
M  V30 1329 H 127.323 -3.20109 2.80019 0
M  V30 1330 N 125.638 -1.25649 -0.95132 0
M  V30 1331 C 126.915 -1.01361 -1.67288 0
M  V30 1332 C 127.295 0.459135 -2.06046 0
M  V30 1333 O 126.643 1.43723 -1.7764 0
M  V30 1334 C 126.853 -1.95256 -2.89268 0
M  V30 1335 C 128.201 -2.23289 -3.61147 0
M  V30 1336 O 129.225 -1.93041 -2.99355 0
M  V30 1337 O 128.084 -2.74741 -4.72419 0
M  V30 1338 H 125.178 -0.38464 -0.732107 0
M  V30 1339 H 127.724 -1.36817 -1.00395 0
M  V30 1340 H 126.496 -2.94685 -2.57442 0
M  V30 1341 H 126.119 -1.60218 -3.6389 0
M  V30 1342 N 127.117 1.15442 -1.07289 0
M  V30 1343 C 128.342 1.90638 -0.816828 0
M  V30 1344 C 128.767 1.77445 0.624083 0
M  V30 1345 O 128.125 1.10671 1.43602 0
M  V30 1346 C 128.173 3.39008 -1.22906 0
M  V30 1347 O 127.277 4.10701 -0.373975 0
M  V30 1348 H 126.618 0.593555 -0.297638 0
M  V30 1349 H 129.148 1.46198 -1.43134 0
M  V30 1350 H 129.158 3.89801 -1.20497 0
M  V30 1351 H 127.833 3.47929 -2.27856 0
M  V30 1352 H 126.41 3.70046 -0.460499 0
M  V30 1353 N 128.595 0.856903 1.32268 0
M  V30 1354 C 129.525 0.31858 2.31316 0
M  V30 1355 C 130.506 -0.583487 1.59779 0
M  V30 1356 O 131.691 -0.503259 1.87566 0
M  V30 1357 C 128.821 -0.491979 3.43798 0
M  V30 1358 C 127.775 0.315849 4.26833 0
M  V30 1359 C 127.101 -0.619586 5.31098 0
M  V30 1360 C 128.401 1.54282 4.98993 0
M  V30 1361 H 130.095 1.14621 2.76591 0
M  V30 1362 H 127.641 0.552613 1.32974 0
M  V30 1363 H 129.594 -0.879012 4.1213 0
M  V30 1364 H 128.318 -1.35299 2.97257 0
M  V30 1365 H 126.977 0.684664 3.6015 0
M  V30 1366 H 126.625 -1.47751 4.8081 0
M  V30 1367 H 126.325 -0.0830621 5.87541 0
M  V30 1368 H 127.849 -1.00375 6.02293 0
M  V30 1369 H 129.263 1.22796 5.59995 0
M  V30 1370 H 127.66 2.01745 5.65172 0
M  V30 1371 H 128.73 2.30285 4.26728 0
M  V30 1372 N 130.073 -1.45103 0.615059 0
M  V30 1373 C 131.023 -2.27679 -0.120966 0
M  V30 1374 C 132.007 -1.3775 -0.831491 0
M  V30 1375 O 133.199 -1.61683 -0.720249 0
M  V30 1376 C 130.328 -3.24767 -1.1127 0
M  V30 1377 C 129.414 -4.22184 -0.402627 0
M  V30 1378 N 129.805 -5.02692 0.559884 0
M  V30 1379 C 128.103 -4.4125 -0.649202 0
M  V30 1380 C 128.804 -5.73421 0.977942 0
M  V30 1381 N 127.78 -5.42657 0.320104 0
M  V30 1382 H 131.582 -2.87325 0.618181 0
M  V30 1383 H 129.096 -1.56345 0.439304 0
M  V30 1384 H 131.093 -3.82666 -1.65446 0
M  V30 1385 H 129.753 -2.66682 -1.85232 0
M  V30 1386 H 130.764 -5.09354 0.936976 0
M  V30 1387 H 127.441 -3.9428 -1.37293 0
M  V30 1388 H 128.831 -6.48107 1.77222 0
M  V30 1389 N 131.551 -0.354651 -1.53558 0
M  V30 1390 C 132.514 0.484566 -2.24019 0
M  V30 1391 C 133.514 1.01861 -1.24422 0
M  V30 1392 O 134.704 0.906097 -1.4878 0
M  V30 1393 C 131.836 1.67615 -2.96847 0
M  V30 1394 H 133.029 -0.131843 -2.9961 0
M  V30 1395 H 130.582 -0.106165 -1.55939 0
M  V30 1396 H 131.317 2.33095 -2.25471 0
M  V30 1397 H 131.102 1.30029 -3.69912 0
M  V30 1398 H 132.592 2.27114 -3.50441 0
M  V30 1399 N 133.029 1.57378 -0.0835403 0
M  V30 1400 C 133.976 2.13384 0.879539 0
M  V30 1401 C 134.946 1.04936 1.28754 0
M  V30 1402 O 136.131 1.32662 1.37133 0
M  V30 1403 C 133.271 2.70932 2.13752 0
M  V30 1404 C 132.384 3.93575 1.7811 0
M  V30 1405 C 131.519 4.39326 2.98607 0
M  V30 1406 C 130.558 5.54587 2.59037 0
M  V30 1407 N 129.695 5.95243 3.72331 0
M  V30 1408 H 134.535 2.9537 0.395076 0
M  V30 1409 H 132.072 1.45953 0.183349 0
M  V30 1410 H 134.03 3.02411 2.87408 0
M  V30 1411 H 132.66 1.91693 2.59718 0
M  V30 1412 H 131.712 3.68483 0.94469 0
M  V30 1413 H 133.024 4.77258 1.45005 0
M  V30 1414 H 132.178 4.72528 3.80529 0
M  V30 1415 H 130.917 3.5452 3.34913 0
M  V30 1416 H 129.922 5.21024 1.75539 0
M  V30 1417 H 131.147 6.41133 2.23887 0
M  V30 1418 H 129.093 5.13385 4.08378 0
M  V30 1419 H 129.01 6.73694 3.43034 0
M  V30 1420 H 130.278 6.33072 4.54797 0
M  V30 1421 N 134.507 -0.190092 1.56449 0
M  V30 1422 C 135.753 -0.911052 1.81184 0
M  V30 1423 C 136.086 -1.82699 0.658396 0
M  V30 1424 O 135.361 -1.91491 -0.340775 0
M  V30 1425 C 135.644 -1.72297 3.16205 0
M  V30 1426 C 135.497 -0.831419 4.42049 0
M  V30 1427 C 136.816 -2.69454 3.47969 0
M  V30 1428 H 133.935 -0.32977 0.659106 0
M  V30 1429 H 136.577 -0.178169 1.89163 0
M  V30 1430 H 134.727 -2.34778 3.09534 0
M  V30 1431 H 136.399 -0.220929 4.60771 0
M  V30 1432 H 134.642 -0.138406 4.33579 0
M  V30 1433 H 135.313 -1.43461 5.33032 0
M  V30 1434 H 137.789 -2.17104 3.54972 0
M  V30 1435 H 136.665 -3.23342 4.43555 0
M  V30 1436 H 136.926 -3.48744 2.71717 0
M  V30 1437 N 135.985 -1.50799 -0.457987 0
M  V30 1438 C 137.213 -1.66218 -1.23203 0
M  V30 1439 C 137.628 -0.350894 -1.85511 0
M  V30 1440 O 136.985 0.668546 -1.69814 0
M  V30 1441 C 137.036 -2.76291 -2.33121 0
M  V30 1442 O 136.757 -4.02338 -1.73366 0
M  V30 1443 C 138.258 -3.028 -3.2377 0
M  V30 1444 H 135.478 -0.558361 -0.372121 0
M  V30 1445 H 138.022 -1.97099 -0.545179 0
M  V30 1446 H 136.177 -2.48068 -2.97558 0
M  V30 1447 H 136.591 -4.63312 -2.4585 0
M  V30 1448 H 138.065 -3.8345 -3.97077 0
M  V30 1449 H 138.542 -2.14385 -3.83322 0
M  V30 1450 H 139.148 -3.32604 -2.65056 0
M  V30 1451 N 137.463 0.71206 -1.40597 0
M  V30 1452 C 138.691 1.50111 -1.42388 0
M  V30 1453 C 139.106 1.88784 -0.0245395 0
M  V30 1454 O 138.463 1.55681 0.952351 0
M  V30 1455 C 138.514 2.7742 -2.31776 0
M  V30 1456 O 138.235 2.40382 -3.66262 0
M  V30 1457 C 139.736 3.7129 -2.42196 0
M  V30 1458 H 136.956 0.46314 -0.485533 0
M  V30 1459 H 139.5 0.878068 -1.8469 0
M  V30 1460 H 137.655 3.36001 -1.92827 0
M  V30 1461 H 138.069 3.22324 -4.13772 0
M  V30 1462 H 139.543 4.57448 -3.08943 0
M  V30 1463 H 140.02 4.14641 -1.44809 0
M  V30 1464 H 140.626 3.18619 -2.81712 0
M  V30 1465 N 138.941 1.26152 0.944643 0
M  V30 1466 C 140.188 1.11492 1.69044 0
M  V30 1467 C 140.516 -0.342366 1.91463 0
M  V30 1468 O 139.771 -1.26812 1.49054 0
M  V30 1469 C 140.07 1.82541 3.07268 0
M  V30 1470 C 139.736 3.32445 3.04616 0
M  V30 1471 C 138.398 3.73337 3.036 0
M  V30 1472 C 140.75 4.28171 2.97185 0
M  V30 1473 C 138.078 5.08348 2.92915 0
M  V30 1474 C 140.43 5.63218 2.88041 0
M  V30 1475 C 139.094 6.03426 2.85366 0
M  V30 1476 H 138.364 0.407977 0.618576 0
M  V30 1477 H 141.011 1.56551 1.10291 0
M  V30 1478 H 139.316 1.29941 3.69625 0
M  V30 1479 H 141.013 1.68642 3.63815 0
M  V30 1480 H 137.603 2.99915 3.06185 0
M  V30 1481 H 141.787 3.97563 2.97081 0
M  V30 1482 H 137.043 5.38667 2.89219 0
M  V30 1483 H 141.217 6.37078 2.81254 0
M  V30 1484 H 138.844 7.07999 2.76842 0
M  V30 1485 N 140.419 -1.14872 1.07899 0
M  V30 1486 C 141.668 -1.85135 0.800499 0
M  V30 1487 C 141.981 -1.83547 -0.676014 0
M  V30 1488 O 143.187 -2.49548 -1.06948 0
M  V30 1489 C 141.643 -3.3231 1.38197 0
M  V30 1490 C 141.251 -3.42329 2.8899 0
M  V30 1491 C 142.995 -4.0772 1.18174 0
M  V30 1492 C 140.902 -4.83684 3.403 0
M  V30 1493 H 139.832 -0.693563 0.29578 0
M  V30 1494 H 142.483 -1.29532 1.29976 0
M  V30 1495 H 140.865 -3.87618 0.810431 0
M  V30 1496 H 142.039 -2.97097 3.52236 0
M  V30 1497 H 140.354 -2.80369 3.07867 0
M  V30 1498 H 142.951 -5.12049 1.5398 0
M  V30 1499 H 143.294 -4.16124 0.12117 0
M  V30 1500 H 143.827 -3.58696 1.71994 0
M  V30 1501 H 140.566 -4.80465 4.45907 0
M  V30 1502 H 140.086 -5.29474 2.81811 0
M  V30 1503 H 141.765 -5.52558 3.36584 0
M  V30 1504 N 141.898 -0.863906 -1.31812 0
M  V30 1505 C 143.309 -0.52522 -1.7916 0
M  V30 1506 C 143.66 0.957518 -1.71248 0
M  V30 1507 O 142.785 1.74734 -1.27659 0
M  V30 1508 C 143.38 -0.9466 -3.25307 0
M  V30 1509 C 141.939 -0.659668 -3.70574 0
M  V30 1510 C 141.086 -1.14126 -2.52726 0
M  V30 1511 H 144.037 -1.05022 -1.1898 0
M  V30 1512 H 144.058 -0.266766 -3.79564 0
M  V30 1513 H 143.57 -2.02579 -3.31034 0
M  V30 1514 H 141.671 0.408416 -3.70355 0
M  V30 1515 H 141.784 -1.23245 -4.62977 0
M  V30 1516 H 140.148 -0.561216 -2.4844 0
M  V30 1517 H 140.931 -2.22775 -2.61201 0
M  V30 1518 N 143.376 1.44774 -0.622745 0
M  V30 1519 C 144.324 2.32387 0.0994683 0
M  V30 1520 C 145.318 1.46859 0.844326 0
M  V30 1521 O 146.524 1.63254 0.758174 0
M  V30 1522 H 142.899 0.750273 0.0509291 0
M  V30 1523 H 144.87 2.91062 -0.65767 0
M  V30 1524 C 143.619 3.30723 1.07319 0
M  V30 1525 H 142.942 3.96541 0.509462 0
M  V30 1526 H 144.382 3.94725 1.54817 0
M  V30 1527 C 142.841 2.59021 2.15429 0
M  V30 1528 O 143.371 2.38286 3.23393 0
M  V30 1529 N 141.577 2.189 1.91131 0
M  V30 1530 H 141.124 2.35964 1.03337 0
M  V30 1531 H 141.082 1.71251 2.63668 0
M  V30 1532 N 144.854 0.36279 1.53368 0
M  V30 1533 C 145.804 -0.501391 2.22419 0
M  V30 1534 C 146.788 -1.0509 1.2184 0
M  V30 1535 O 147.98 -0.981404 1.47301 0
M  V30 1536 C 145.109 -1.64201 3.01484 0
M  V30 1537 C 144.195 -1.10552 4.09438 0
M  V30 1538 N 144.586 -0.291788 5.04958 0
M  V30 1539 C 142.884 -1.3806 4.24094 0
M  V30 1540 C 143.585 0.00162655 5.817 0
M  V30 1541 N 142.561 -0.595244 5.40331 0
M  V30 1542 H 146.363 0.127159 2.93625 0
M  V30 1543 H 143.877 0.170658 1.61501 0
M  V30 1544 H 145.874 -2.27326 3.49469 0
M  V30 1545 H 144.534 -2.27365 2.31809 0
M  V30 1546 H 145.545 0.0687731 5.17854 0
M  V30 1547 H 142.222 -2.01522 3.65644 0
M  V30 1548 H 143.612 0.659278 6.68658 0
M  V30 1549 N 146.332 -1.57332 0.0918853 0
M  V30 1550 C 147.578 -1.95328 -0.567313 0
M  V30 1551 C 147.933 -0.972866 -1.65991 0
M  V30 1552 O 147.226 0.00166256 -1.916 0
M  V30 1553 C 147.42 -3.37689 -1.17051 0
M  V30 1554 C 147.249 -4.49489 -0.137875 0
M  V30 1555 C 146.019 -5.04498 0.284515 0
M  V30 1556 C 148.217 -5.10393 0.63271 0
M  V30 1557 N 146.199 -5.99853 1.30576 0
M  V30 1558 C 147.57 -6.01435 1.50587 0
M  V30 1559 C 149.625 -4.93143 0.68658 0
M  V30 1560 C 148.328 -6.77077 2.42815 0
M  V30 1561 C 150.354 -5.69445 1.59645 0
M  V30 1562 C 149.716 -6.60151 2.45725 0
M  V30 1563 H 145.815 -0.761467 -0.178023 0
M  V30 1564 H 148.399 -1.93924 0.173706 0
M  V30 1565 H 146.57 -3.39793 -1.88136 0
M  V30 1566 H 148.302 -3.62872 -1.79181 0
M  V30 1567 H 145.057 -4.73489 -0.102593 0
M  V30 1568 H 145.481 -6.52231 1.81449 0
M  V30 1569 H 150.123 -4.22785 0.035244 0
M  V30 1570 H 147.841 -7.46699 3.08975 0
M  V30 1571 H 151.427 -5.58112 1.64323 0
M  V30 1572 H 150.307 -7.18159 3.14987 0
M  V30 1573 N 147.81 0.181792 -1.56548 0
M  V30 1574 C 148.76 1.22961 -1.92002 0
M  V30 1575 C 149.744 1.40331 -0.787146 0
M  V30 1576 O 150.936 1.42478 -1.05019 0
M  V30 1577 C 148.065 2.57144 -2.27446 0
M  V30 1578 C 147.151 2.43512 -3.47222 0
M  V30 1579 N 147.542 1.99577 -4.64761 0
M  V30 1580 C 145.84 2.74368 -3.51622 0
M  V30 1581 C 146.541 1.98156 -5.46909 0
M  V30 1582 N 145.517 2.40164 -4.8767 0
M  V30 1583 H 149.319 0.881462 -2.8037 0
M  V30 1584 H 146.833 0.390141 -1.57644 0
M  V30 1585 H 148.83 3.32847 -2.51035 0
M  V30 1586 H 147.49 2.92771 -1.40411 0
M  V30 1587 H 148.501 1.70078 -4.89177 0
M  V30 1588 H 145.178 3.14102 -2.75038 0
M  V30 1589 H 146.568 1.65975 -6.51077 0
M  V30 1590 N 149.288 1.51039 0.449983 0
M  V30 1591 C 150.536 1.62759 1.19808 0
M  V30 1592 C 150.857 0.339981 1.92013 0
M  V30 1593 O 150.127 -0.643606 1.85026 0
M  V30 1594 H 148.707 0.599811 0.445237 0
M  V30 1595 H 151.369 1.87914 0.517138 0
M  V30 1596 H 150.465 2.44911 1.93455 0
M  V30 1597 N 150.766 -0.704594 1.40972 0
M  V30 1598 C 152.043 -1.45847 1.30338 0
M  V30 1599 C 152.423 -2.10973 -0.0732344 0
M  V30 1600 O 151.771 -2.00997 -1.08685 0
M  V30 1601 C 151.981 -2.48525 2.45023 0
M  V30 1602 C 153.329 -3.1404 2.8577 0
M  V30 1603 O 154.353 -2.58848 2.44696 0
M  V30 1604 O 153.212 -4.13981 3.56766 0
M  V30 1605 H 150.306 -0.649092 0.512454 0
M  V30 1606 H 152.852 -0.735836 1.52917 0
M  V30 1607 H 151.624 -1.98994 3.36923 0
M  V30 1608 H 151.247 -3.2831 2.24272 0
M  V30 1609 N 152.244 -1.26651 -0.937939 0
M  V30 1610 C 153.484 -1.13611 -1.69917 0
M  V30 1611 C 153.848 0.314687 -1.89404 0
M  V30 1612 O 155.049 0.567285 -2.62746 0
M  V30 1613 C 153.32 -1.88742 -3.03498 0
M  V30 1614 S 154.879 -1.91794 -3.94665 0
M  V30 1615 H 151.697 -0.405767 -0.583844 0
M  V30 1616 H 154.299 -1.60416 -1.11745 0
M  V30 1617 H 153.003 -2.9336 -2.86999 0
M  V30 1618 H 152.534 -1.42391 -3.66727 0
M  V30 1619 H 154.549 -1.00698 -4.85875 0
M  V30 1620 N 153.722 1.14298 -1.08507 0
M  V30 1621 C 154.971 1.84708 -0.810305 0
M  V30 1622 C 155.284 1.83903 0.666271 0
M  V30 1623 O 156.49 2.50112 1.05624 0
M  V30 1624 C 154.946 3.31572 -1.39957 0
M  V30 1625 C 154.554 3.40791 -2.90801 0
M  V30 1626 C 156.298 4.07087 -1.20334 0
M  V30 1627 C 154.205 4.81872 -3.4286 0
M  V30 1628 H 153.135 0.691985 -0.299454 0
M  V30 1629 H 155.786 1.28841 -1.30661 0
M  V30 1630 H 154.168 3.87183 -0.830976 0
M  V30 1631 H 155.342 2.95225 -3.53806 0
M  V30 1632 H 153.657 2.78732 -3.0935 0
M  V30 1633 H 156.254 5.11225 -1.56693 0
M  V30 1634 H 156.597 4.16054 -0.143237 0
M  V30 1635 H 157.13 3.57779 -1.73893 0
M  V30 1636 H 153.869 4.78094 -4.48449 0
M  V30 1637 H 153.389 5.27972 -2.84615 0
M  V30 1638 H 155.068 5.50765 -3.39509 0
M  V30 1639 N 155.201 0.870884 1.31352 0
M  V30 1640 C 156.449 0.48132 1.96285 0
M  V30 1641 C 156.77 -0.969813 1.69173 0
M  V30 1642 O 156.04 -1.67998 1.00764 0
M  V30 1643 H 154.62 0.175002 0.726212 0
M  V30 1644 H 157.282 1.11087 1.60143 0
M  V30 1645 H 156.378 0.639825 3.05471 0
M  V30 1646 N 156.679 -1.44442 0.630414 0
M  V30 1647 C 157.927 -2.01653 0.134351 0
M  V30 1648 C 158.248 -1.49836 -1.24796 0
M  V30 1649 O 157.518 -0.701684 -1.82902 0
M  V30 1650 H 156.098 -0.74554 0.0466769 0
M  V30 1651 H 158.76 -1.76952 0.816955 0
M  V30 1652 H 157.856 -3.11935 0.101498 0
M  V30 1653 N 158.157 -0.370918 -1.53173 0
M  V30 1654 C 159.087 0.464847 -2.28826 0
M  V30 1655 C 160.068 1.07936 -1.31468 0
M  V30 1656 O 161.253 1.0956 -1.60344 0
M  V30 1657 C 158.383 1.60196 -3.08147 0
M  V30 1658 C 157.337 1.11443 -4.13237 0
M  V30 1659 C 156.663 2.3422 -4.80672 0
M  V30 1660 C 157.963 0.195384 -5.21934 0
M  V30 1661 H 159.657 -0.166329 -2.98938 0
M  V30 1662 H 157.203 -0.0814359 -1.4377 0
M  V30 1663 H 159.156 2.19332 -3.59822 0
M  V30 1664 H 157.88 2.26045 -2.35735 0
M  V30 1665 H 156.539 0.545727 -3.62515 0
M  V30 1666 H 156.187 2.98537 -4.04827 0
M  V30 1667 H 155.887 2.02269 -5.51689 0
M  V30 1668 H 157.411 2.94032 -5.35143 0
M  V30 1669 H 158.825 0.694375 -5.69079 0
M  V30 1670 H 157.222 -0.0335027 -6.00091 0
M  V30 1671 H 158.292 -0.760961 -4.78892 0
M  V30 1672 N 159.635 1.57281 -0.100228 0
M  V30 1673 C 160.883 1.94153 0.561157 0
M  V30 1674 C 161.204 0.983157 1.68401 0
M  V30 1675 O 160.474 0.0361132 1.95867 0
M  V30 1676 H 159.054 0.716791 0.210283 0
M  V30 1677 H 161.716 1.94202 -0.164765 0
M  V30 1678 H 160.812 2.96709 0.968008 0
M  V30 1679 N 161.113 -0.173488 1.56642 0
M  V30 1680 C 162.343 -0.904781 1.85734 0
M  V30 1681 C 162.751 -1.76431 0.68328 0
M  V30 1682 O 162.094 -1.802 -0.356865 0
M  V30 1683 C 162.156 -1.83382 3.09211 0
M  V30 1684 C 161.82 -1.15411 4.42187 0
M  V30 1685 C 162.817 -0.520609 5.17287 0
M  V30 1686 C 160.502 -1.15151 4.88923 0
M  V30 1687 C 162.496 0.106412 6.37311 0
M  V30 1688 C 160.183 -0.520664 6.08878 0
M  V30 1689 C 161.181 0.107196 6.82916 0
M  V30 1690 O 160.869 0.728102 8.00596 0
M  V30 1691 H 160.601 -0.268408 0.62043 0
M  V30 1692 H 163.155 -0.179096 2.04618 0
M  V30 1693 H 161.385 -2.59976 2.86268 0
M  V30 1694 H 163.074 -2.43476 3.24768 0
M  V30 1695 H 163.84 -0.514606 4.82262 0
M  V30 1696 H 159.719 -1.62961 4.31236 0
M  V30 1697 H 163.263 0.597081 6.9504 0
M  V30 1698 H 159.16 -0.524242 6.43368 0
M  V30 1699 H 159.928 0.627138 8.16094 0
M  V30 1700 N 162.591 -1.51276 -0.441967 0
M  V30 1701 C 163.521 -1.752 -1.54361 0
M  V30 1702 C 164.502 -0.601682 -1.59103 0
M  V30 1703 O 165.687 -0.843913 -1.74905 0
M  V30 1704 C 162.817 -1.87282 -2.92477 0
M  V30 1705 C 161.771 -3.02687 -3.02596 0
M  V30 1706 C 161.097 -2.99947 -4.42647 0
M  V30 1707 C 162.397 -4.4273 -2.77106 0
M  V30 1708 H 164.091 -2.67442 -1.34592 0
M  V30 1709 H 161.637 -1.28694 -0.646048 0
M  V30 1710 H 163.59 -2.02602 -3.695 0
M  V30 1711 H 162.314 -0.916844 -3.13467 0
M  V30 1712 H 160.973 -2.87065 -2.28012 0
M  V30 1713 H 160.621 -2.02136 -4.60597 0
M  V30 1714 H 160.321 -3.77439 -4.50348 0
M  V30 1715 H 161.845 -3.17354 -5.2165 0
M  V30 1716 H 163.259 -4.58727 -3.43864 0
M  V30 1717 H 161.656 -5.21893 -2.96222 0
M  V30 1718 H 162.726 -4.53087 -1.72744 0
M  V30 1719 N 164.069 0.697108 -1.41344 0
M  V30 1720 C 165.001 1.8224 -1.39001 0
M  V30 1721 C 166.014 1.60152 -0.292428 0
M  V30 1722 O 167.203 1.69684 -0.554048 0
M  V30 1723 C 164.303 3.18976 -1.14489 0
M  V30 1724 C 163.476 3.68105 -2.36258 0
M  V30 1725 C 162.535 4.83506 -2.07625 0
M  V30 1726 O 161.561 4.95201 -2.8065 0
M  V30 1727 N 162.763 5.70637 -1.06555 0
M  V30 1728 H 165.528 1.84742 -2.35988 0
M  V30 1729 H 163.089 0.87937 -1.35936 0
M  V30 1730 H 165.081 3.93801 -0.932885 0
M  V30 1731 H 163.651 3.11508 -0.261043 0
M  V30 1732 H 162.871 2.84204 -2.7317 0
M  V30 1733 H 164.159 3.97667 -3.17393 0
M  V30 1734 H 163.557 5.63817 -0.461125 0
M  V30 1735 H 162.114 6.45368 -0.913444 0
M  V30 1736 N 165.547 1.27147 0.931209 0
M  V30 1737 C 166.963 1.04475 1.20653 0
M  V30 1738 C 167.163 -0.223885 2.00252 0
M  V30 1739 O 166.219 -0.930332 2.34736 0
M  V30 1740 C 167.532 2.28209 1.95809 0
M  V30 1741 C 169.08 2.33211 2.08762 0
M  V30 1742 C 169.555 3.56665 2.87323 0
M  V30 1743 N 171.046 3.57201 2.94892 0
M  V30 1744 C 171.781 4.49395 3.56134 0
M  V30 1745 N 171.277 5.51889 4.18796 0
M  V30 1746 N 173.07 4.37026 3.53504 0
M  V30 1747 H 165.221 2.08612 0.399333 0
M  V30 1748 H 167.484 0.917312 0.239253 0
M  V30 1749 H 167.19 3.20538 1.44736 0
M  V30 1750 H 167.064 2.33247 2.96438 0
M  V30 1751 H 169.451 1.41391 2.59023 0
M  V30 1752 H 169.532 2.32178 1.07364 0
M  V30 1753 H 169.176 4.4882 2.37746 0
M  V30 1754 H 169.106 3.54948 3.88998 0
M  V30 1755 H 171.597 2.83074 2.50354 0
M  V30 1756 H 171.91 6.18409 4.63454 0
M  V30 1757 H 170.255 5.55735 4.17353 0
M  V30 1758 H 173.446 3.56166 3.03749 0
M  V30 1759 H 173.619 5.09067 4.00942 0
M  V30 1760 N 167.025 -1.13721 1.09112 0
M  V30 1761 C 167.972 -2.19031 0.727591 0
M  V30 1762 C 168.942 -1.63555 -0.289656 0
M  V30 1763 O 170.127 -1.90023 -0.172026 0
M  V30 1764 C 167.267 -3.4477 0.15082 0
M  V30 1765 C 166.38 -4.14365 1.22172 0
M  V30 1766 C 165.515 -5.27709 0.608042 0
M  V30 1767 C 164.554 -5.89147 1.66047 0
M  V30 1768 N 163.691 -6.93929 1.06806 0
M  V30 1769 H 168.531 -2.49475 1.62991 0
M  V30 1770 H 166.068 -1.22499 0.81439 0
M  V30 1771 H 168.026 -4.16714 -0.201358 0
M  V30 1772 H 166.656 -3.14787 -0.714783 0
M  V30 1773 H 165.708 -3.40737 1.69122 0
M  V30 1774 H 167.02 -4.56114 2.01895 0
M  V30 1775 H 166.174 -6.06355 0.204523 0
M  V30 1776 H 164.913 -4.872 -0.220769 0
M  V30 1777 H 163.918 -5.09198 2.07357 0
M  V30 1778 H 165.143 -6.31729 2.49189 0
M  V30 1779 H 163.089 -6.55483 0.260476 0
M  V30 1780 H 163.006 -7.34202 1.8023 0
M  V30 1781 H 164.274 -7.76434 0.690644 0
M  V30 1782 N 168.503 -0.877838 -1.30888 0
M  V30 1783 C 169.751 -0.491723 -1.96027 0
M  V30 1784 C 170.072 0.960827 -1.69685 0
M  V30 1785 O 169.342 1.67462 -1.01654 0
M  V30 1786 H 167.922 -0.17885 -0.725273 0
M  V30 1787 H 170.584 -1.11935 -1.59551 0
M  V30 1788 H 169.68 -0.656016 -3.05128 0
M  V30 1789 N 169.982 1.44106 -0.638065 0
M  V30 1790 C 171.228 2.02277 -0.145546 0
M  V30 1791 C 171.561 1.50125 1.23191 0
M  V30 1792 O 170.836 0.688133 1.8192 0
M  V30 1793 C 171.119 3.59829 -0.139791 0
M  V30 1794 C 170.972 4.22247 -1.55008 0
M  V30 1795 C 172.291 4.36873 0.531966 0
M  V30 1796 H 169.41 0.734992 -0.0543632 0
M  V30 1797 H 172.052 1.71592 -0.815863 0
M  V30 1798 H 170.202 3.86102 0.431007 0
M  V30 1799 H 171.874 4.07057 -2.1703 0
M  V30 1800 H 170.117 3.79476 -2.10191 0
M  V30 1801 H 170.788 5.31284 -1.49804 0
M  V30 1802 H 173.264 4.16074 0.0464781 0
M  V30 1803 H 172.14 5.4657 0.505206 0
M  V30 1804 H 172.401 4.11995 1.60352 0
M  V30 1805 N 171.46 0.379036 1.52974 0
M  V30 1806 C 172.392 -0.495963 2.2377 0
M  V30 1807 C 173.405 -1.03517 1.25651 0
M  V30 1808 O 174.594 -0.939249 1.51791 0
M  V30 1809 C 171.694 -1.69894 2.93239 0
M  V30 1810 C 170.867 -1.2889 4.17979 0
M  V30 1811 C 169.926 -2.35543 4.70538 0
M  V30 1812 O 168.952 -1.97375 5.33883 0
M  V30 1813 N 170.154 -3.67318 4.49508 0
M  V30 1814 H 172.919 0.110523 2.99496 0
M  V30 1815 H 170.48 0.204878 1.60598 0
M  V30 1816 H 172.472 -2.40747 3.25304 0
M  V30 1817 H 171.042 -2.212 2.20883 0
M  V30 1818 H 170.262 -0.409676 3.92065 0
M  V30 1819 H 171.55 -0.991443 4.99047 0
M  V30 1820 H 170.948 -4.01095 3.98923 0
M  V30 1821 H 169.505 -4.34235 4.8609 0
M  V30 1822 N 172.938 -1.57226 0.108567 0
M  V30 1823 C 174.163 -1.99604 -0.563303 0
M  V30 1824 C 174.588 -0.987563 -1.6009 0
M  V30 1825 O 173.946 0.0421687 -1.81251 0
M  V30 1826 C 173.994 -3.40902 -1.17552 0
M  V30 1827 O 173.098 -3.42896 -2.2912 0
M  V30 1828 H 172.439 -0.648704 -0.1417 0
M  V30 1829 H 174.969 -2.03679 0.193961 0
M  V30 1830 H 174.979 -3.78886 -1.51357 0
M  V30 1831 H 173.654 -4.1382 -0.415445 0
M  V30 1832 H 172.231 -3.1672 -1.96832 0
M  V30 1833 N 174.416 0.165178 -1.56732 0
M  V30 1834 C 175.646 0.894919 -1.86212 0
M  V30 1835 C 176.054 1.76066 -0.692627 0
M  V30 1836 O 175.397 1.80387 0.347303 0
M  V30 1837 C 175.459 1.8174 -3.10179 0
M  V30 1838 C 175.123 1.13064 -4.42793 0
M  V30 1839 C 176.12 0.493169 -5.17556 0
M  V30 1840 C 173.805 1.12556 -4.89527 0
M  V30 1841 C 175.799 -0.140209 -6.37246 0
M  V30 1842 C 173.486 0.488366 -6.09145 0
M  V30 1843 C 174.484 -0.143411 -6.82849 0
M  V30 1844 O 174.172 -0.77055 -8.00199 0
M  V30 1845 H 173.904 0.265114 -0.621844 0
M  V30 1846 H 176.458 0.168242 -2.0471 0
M  V30 1847 H 174.688 2.58455 -2.87642 0
M  V30 1848 H 176.377 2.4175 -3.26055 0
M  V30 1849 H 177.143 0.489023 -4.82528 0
M  V30 1850 H 173.022 1.60672 -4.32094 0
M  V30 1851 H 176.566 -0.633932 -6.94714 0
M  V30 1852 H 172.463 0.490116 -6.43637 0
M  V30 1853 H 173.231 -0.670408 -8.1575 0
M  V30 1854 N 175.894 1.51508 0.433938 0
M  V30 1855 C 176.857 1.72473 1.50949 0
M  V30 1856 C 177.857 0.594725 1.49398 0
M  V30 1857 O 179.047 0.862315 1.5136 0
M  V30 1858 C 176.179 1.78431 2.90474 0
M  V30 1859 H 177.372 2.68467 1.33662 0
M  V30 1860 H 174.925 1.41549 0.662836 0
M  V30 1861 H 175.66 0.842645 3.13161 0
M  V30 1862 H 175.445 2.60558 2.93005 0
M  V30 1863 H 176.935 1.96479 3.68491 0
M  V30 1864 N 177.372 -0.689602 1.41712 0
M  V30 1865 C 178.32 -1.82475 1.44242 0
M  V30 1866 C 179.314 -1.66354 0.319774 0
M  V30 1867 O 180.52 -1.73143 0.492089 0
M  V30 1868 H 176.895 -0.601416 0.451445 0
M  V30 1869 H 178.866 -1.77458 2.39899 0
M  V30 1870 C 177.615 -3.20535 1.3473 0
M  V30 1871 H 176.938 -3.33559 2.20405 0
M  V30 1872 H 178.378 -4.00023 1.40562 0
M  V30 1873 C 176.837 -3.36846 0.0603281 0
M  V30 1874 O 177.367 -3.91656 -0.892663 0
M  V30 1875 N 175.573 -2.90595 -0.0177039 0
M  V30 1876 H 175.12 -2.46178 0.758572 0
M  V30 1877 H 175.078 -3.01886 -0.878201 0
M  V30 1878 N 178.85 -1.27639 -0.924453 0
M  V30 1879 C 179.782 -1.06442 -2.02985 0
M  V30 1880 C 180.795 -0.0194771 -1.62788 0
M  V30 1881 O 181.984 -0.261388 -1.76576 0
M  V30 1882 C 179.084 -0.59327 -3.33667 0
M  V30 1883 C 178.257 -1.71123 -4.02537 0
M  V30 1884 C 177.316 -1.23527 -5.11495 0
M  V30 1885 O 176.342 -1.93553 -5.35281 0
M  V30 1886 N 177.544 -0.0926678 -5.80426 0
M  V30 1887 H 180.309 -2.01633 -2.2173 0
M  V30 1888 H 177.87 -1.19248 -1.09505 0
M  V30 1889 H 179.862 -0.258686 -4.03872 0
M  V30 1890 H 178.432 0.265502 -3.1147 0
M  V30 1891 H 177.652 -2.21593 -3.26022 0
M  V30 1892 H 178.94 -2.46145 -4.45298 0
M  V30 1893 H 178.338 0.491741 -5.63559 0
M  V30 1894 H 176.895 0.182714 -6.51544 0
M  V30 1895 N 180.328 1.1314 -1.09713 0
M  V30 1896 C 181.261 2.17735 -0.683137 0
M  V30 1897 C 182.239 1.59582 0.311841 0
M  V30 1898 O 183.423 1.87298 0.212514 0
M  V30 1899 C 180.55 3.38699 -0.00684324 0
M  V30 1900 C 179.596 4.1546 -0.964102 0
M  V30 1901 S 180.429 4.74733 -2.47767 0
M  V30 1902 C 181.585 5.9904 -1.81387 0
M  V30 1903 H 181.818 2.52515 -1.56918 0
M  V30 1904 H 179.351 1.24484 -0.913404 0
M  V30 1905 H 181.309 4.08765 0.377044 0
M  V30 1906 H 179.97 3.02214 0.85589 0
M  V30 1907 H 179.163 5.02093 -0.43803 0
M  V30 1908 H 178.765 3.51066 -1.28953 0
M  V30 1909 H 181.057 6.67846 -1.13967 0
M  V30 1910 H 182 6.56261 -2.65947 0
M  V30 1911 H 182.408 5.4976 -1.28155 0
M  V30 1912 N 181.806 0.884767 1.30421 0
M  V30 1913 C 183.034 0.518044 2.0031 0
M  V30 1914 C 183.449 -0.893408 1.66324 0
M  V30 1915 O 182.806 -1.5875 0.900262 0
M  V30 1916 C 182.857 0.682997 3.54989 0
M  V30 1917 O 182.578 2.03888 3.87764 0
M  V30 1918 C 184.079 0.31924 4.42149 0
M  V30 1919 H 181.299 0.200265 0.640418 0
M  V30 1920 H 183.843 1.19001 1.6631 0
M  V30 1921 H 181.998 0.0584052 3.87356 0
M  V30 1922 H 182.412 2.05735 4.82466 0
M  V30 1923 H 183.886 0.485555 5.4986 0
M  V30 1924 H 184.363 -0.742717 4.32875 0
M  V30 1925 H 184.969 0.920147 4.15227 0
M  V30 1926 N 183.284 -1.43765 0.645699 0
M  V30 1927 C 184.533 -2.01116 0.153412 0
M  V30 1928 C 184.846 -1.51493 -1.23731 0
M  V30 1929 O 186.052 -2.01067 -1.8244 0
M  V30 1930 C 184.508 -3.59206 0.223473 0
M  V30 1931 C 184.116 -4.17823 1.61642 0
M  V30 1932 C 185.86 -4.23972 -0.211597 0
M  V30 1933 C 183.767 -5.68183 1.64081 0
M  V30 1934 H 182.697 -0.752093 0.0535891 0
M  V30 1935 H 185.348 -1.6482 0.806633 0
M  V30 1936 H 183.73 -3.92867 -0.497118 0
M  V30 1937 H 184.904 -3.95674 2.36176 0
M  V30 1938 H 183.219 -3.65399 1.99681 0
M  V30 1939 H 185.816 -5.34275 -0.213112 0
M  V30 1940 H 186.159 -3.97352 -1.24165 0
M  V30 1941 H 186.692 -3.95166 0.456988 0
M  V30 1942 H 183.431 -5.99559 2.64971 0
M  V30 1943 H 182.951 -5.9241 0.938611 0
M  V30 1944 H 184.63 -6.32085 1.3812 0
M  V30 1945 N 184.763 -0.387143 -1.52771 0
M  V30 1946 C 186.04 0.253197 -1.93954 0
M  V30 1947 C 186.42 1.64545 -1.32243 0
M  V30 1948 O 185.768 2.23191 -0.489699 0
M  V30 1949 C 185.978 0.281722 -3.47861 0
M  V30 1950 C 187.326 0.511715 -4.21505 0
M  V30 1951 O 188.35 0.362023 -3.54356 0
M  V30 1952 O 187.209 0.804847 -5.40541 0
M  V30 1953 H 184.303 0.156845 -0.811991 0
M  V30 1954 H 186.849 -0.441494 -1.63856 0
M  V30 1955 H 185.621 -0.693571 -3.85104 0
M  V30 1956 H 185.244 1.02142 -3.84256 0
M  V30 1957 N 186.241 1.57166 -0.116904 0
M  V30 1958 C 187.171 2.18222 0.830759 0
M  V30 1959 C 188.152 1.12167 1.27877 0
M  V30 1960 O 189.337 1.40394 1.34176 0
M  V30 1961 C 186.467 2.77996 2.08172 0
M  V30 1962 C 185.421 3.89614 1.77157 0
M  V30 1963 C 184.747 4.36187 3.09265 0
M  V30 1964 C 186.047 5.1181 1.04151 0
M  V30 1965 H 187.741 2.97664 0.321992 0
M  V30 1966 H 185.287 1.4318 0.153434 0
M  V30 1967 H 187.24 3.19366 2.74924 0
M  V30 1968 H 185.964 1.9584 2.6137 0
M  V30 1969 H 184.623 3.48816 1.12796 0
M  V30 1970 H 184.271 3.50893 3.60393 0
M  V30 1971 H 183.971 5.11455 2.89288 0
M  V30 1972 H 185.495 4.80207 3.77139 0
M  V30 1973 H 186.909 5.50214 1.61052 0
M  V30 1974 H 185.306 5.92648 0.942762 0
M  V30 1975 H 186.376 4.84892 0.0279022 0
M  V30 1976 N 187.719 -0.156864 1.56817 0
M  V30 1977 C 188.682 -1.17781 1.96622 0
M  V30 1978 C 189.682 -1.36401 0.851555 0
M  V30 1979 O 190.872 -1.33561 1.11836 0
M  V30 1980 C 188.004 -2.54008 2.27361 0
M  V30 1981 H 189.197 -0.836564 2.87996 0
M  V30 1982 H 186.75 -0.39985 1.51099 0
M  V30 1983 H 187.485 -2.9312 1.38748 0
M  V30 1984 H 187.27 -2.41856 3.08623 0
M  V30 1985 H 188.76 -3.27558 2.59029 0
M  V30 1986 N 189.197 -1.51736 -0.425897 0
M  V30 1987 C 190.144 -1.73875 -1.51776 0
M  V30 1988 C 191.114 -0.580702 -1.55618 0
M  V30 1989 O 192.299 -0.81641 -1.72451 0
M  V30 1990 C 189.439 -1.88012 -2.89388 0
M  V30 1991 C 188.552 -3.15606 -2.94986 0
M  V30 1992 C 187.687 -3.20271 -4.23793 0
M  V30 1993 C 186.726 -4.42134 -4.23302 0
M  V30 1994 N 185.863 -4.44284 -5.43651 0
M  V30 1995 H 190.703 -2.67071 -1.32201 0
M  V30 1996 H 188.24 -1.32351 -0.642008 0
M  V30 1997 H 190.198 -1.9419 -3.69251 0
M  V30 1998 H 188.828 -0.98213 -3.07496 0
M  V30 1999 H 187.88 -3.18681 -2.07717 0
M  V30 2000 H 189.192 -4.05486 -2.90486 0
M  V30 2001 H 188.346 -3.25428 -5.12036 0
M  V30 2002 H 187.085 -2.28299 -4.30965 0
M  V30 2003 H 186.09 -4.3714 -3.3345 0
M  V30 2004 H 187.315 -5.35382 -4.17783 0
M  V30 2005 H 185.261 -3.55188 -5.51523 0
M  V30 2006 H 185.178 -5.27988 -5.41078 0
M  V30 2007 H 186.446 -4.53649 -6.33895 0
M  V30 2008 N 190.675 0.682077 -1.42076 0
M  V30 2009 C 191.585 1.82535 -1.47371 0
M  V30 2010 C 192.601 1.7017 -0.363079 0
M  V30 2011 O 193.777 1.91848 -0.612875 0
M  V30 2012 C 190.842 3.18624 -1.36674 0
M  V30 2013 C 189.903 3.42999 -2.58167 0
M  V30 2014 C 189.136 4.72595 -2.4797 0
M  V30 2015 O 189.359 5.50006 -1.5116 0
M  V30 2016 O 188.293 4.98054 -3.37974 0
M  V30 2017 H 192.119 1.81023 -2.43853 0
M  V30 2018 H 189.704 0.836887 -1.2376 0
M  V30 2019 H 191.586 3.99847 -1.33043 0
M  V30 2020 H 190.261 3.20789 -0.433138 0
M  V30 2021 H 189.168 2.61653 -2.67373 0
M  V30 2022 H 190.501 3.45659 -3.50401 0
M  V30 2023 N 192.153 1.28127 0.917671 0
M  V30 2024 C 193.1 1.11717 2.0196 0
M  V30 2025 C 194.07 0.0153929 1.66093 0
M  V30 2026 O 195.255 0.179596 1.89953 0
M  V30 2027 C 192.395 0.780927 3.36148 0
M  V30 2028 C 191.508 1.96135 3.84909 0
M  V30 2029 C 190.643 1.56609 5.0759 0
M  V30 2030 C 189.682 2.71339 5.48673 0
M  V30 2031 N 188.819 2.32332 6.62545 0
M  V30 2032 H 193.659 2.06003 2.15329 0
M  V30 2033 H 191.196 1.02535 1.05475 0
M  V30 2034 H 193.154 0.56675 4.13333 0
M  V30 2035 H 191.784 -0.124998 3.22558 0
M  V30 2036 H 190.836 2.28777 3.03916 0
M  V30 2037 H 192.148 2.82165 4.1132 0
M  V30 2038 H 191.302 1.31374 5.92305 0
M  V30 2039 H 190.041 0.677014 4.82978 0
M  V30 2040 H 189.046 2.97276 4.62501 0
M  V30 2041 H 190.271 3.60882 5.75274 0
M  V30 2042 H 188.217 1.45889 6.39572 0
M  V30 2043 H 188.134 3.11899 6.88662 0
M  V30 2044 H 189.402 2.10371 7.50576 0
M  V30 2045 N 193.631 -1.12557 1.10312 0
M  V30 2046 C 194.879 -1.83675 0.843091 0
M  V30 2047 C 195.2 -1.84435 -0.633131 0
M  V30 2048 O 194.47 -1.30657 -1.45964 0
M  V30 2049 H 193.05 -0.680138 0.308904 0
M  V30 2050 H 195.712 -1.36301 1.39313 0
M  V30 2051 H 194.808 -2.87908 1.2048 0
M  V30 2052 N 195.109 -0.891671 -1.2995 0
M  V30 2053 C 196.039 -0.379797 -2.30391 0
M  V30 2054 C 197.02 0.540919 -1.6127 0
M  V30 2055 O 198.205 0.453352 -1.88834 0
M  V30 2056 C 195.335 0.400654 -3.44981 0
M  V30 2057 C 194.289 -0.428905 -4.25846 0
M  V30 2058 C 193.615 0.478557 -5.32554 0
M  V30 2059 C 194.915 -1.67458 -4.94727 0
M  V30 2060 H 196.609 -1.21914 -2.73454 0
M  V30 2061 H 194.155 -0.587675 -1.31462 0
M  V30 2062 H 196.108 0.769434 -4.14316 0
M  V30 2063 H 194.832 1.27371 -3.0074 0
M  V30 2064 H 193.491 -0.779911 -3.58208 0
M  V30 2065 H 193.139 1.34951 -4.84559 0
M  V30 2066 H 192.839 -0.0727433 -5.87555 0
M  V30 2067 H 194.363 0.843705 -6.04743 0
M  V30 2068 H 195.777 -1.376 -5.56542 0
M  V30 2069 H 194.174 -2.16659 -5.59624 0
M  V30 2070 H 195.244 -2.41518 -4.20473 0
M  V30 2071 N 196.587 1.43421 -0.653314 0
M  V30 2072 C 197.998 1.85065 -0.246537 0
M  V30 2073 C 198.349 1.54688 1.2069 0
M  V30 2074 O 197.474 0.995896 1.92122 0
M  V30 2075 C 198.069 3.35922 -0.440666 0
M  V30 2076 C 196.628 3.76297 -0.0882064 0
M  V30 2077 C 195.775 2.67147 -0.743484 0
M  V30 2078 H 198.726 1.33572 -0.856979 0
M  V30 2079 H 198.747 3.79204 0.313798 0
M  V30 2080 H 198.259 3.58 -1.49858 0
M  V30 2081 H 196.36 3.5983 0.96711 0
M  V30 2082 H 196.473 4.76338 -0.513738 0
M  V30 2083 H 194.837 2.54086 -0.176712 0
M  V30 2084 H 195.62 2.92053 -1.80443 0
M  V30 2085 N 198.065 0.39524 1.52563 0
M  V30 2086 C 199.311 -0.185318 2.01952 0
M  V30 2087 C 199.644 -1.45964 1.28095 0
M  V30 2088 O 198.919 -1.90689 0.38315 0
M  V30 2089 C 199.202 -0.447193 3.57312 0
M  V30 2090 C 199.055 0.842828 4.41833 0
M  V30 2091 C 200.374 -1.23529 4.22408 0
M  V30 2092 H 197.493 -0.0658788 0.73405 0
M  V30 2093 H 200.135 0.525975 1.82575 0
M  V30 2094 H 198.285 -1.05312 3.73954 0
M  V30 2095 H 199.957 1.4795 4.36931 0
M  V30 2096 H 198.2 1.45686 4.08605 0
M  V30 2097 H 198.871 0.614165 5.48573 0
M  V30 2098 H 201.347 -0.722445 4.0978 0
M  V30 2099 H 200.223 -1.38727 5.3108 0
M  V30 2100 H 200.484 -2.25213 3.80436 0
M  V30 2101 N 199.544 -1.57102 0.125237 0
M  V30 2102 C 200.955 -1.82384 -0.399142 0
M  V30 2103 C 201.306 -1.04276 -1.66195 0
M  V30 2104 O 200.431 -0.281269 -2.14564 0
M  V30 2105 C 201.026 -3.30821 -0.730932 0
M  V30 2106 C 199.585 -3.56762 -1.19992 0
M  V30 2107 C 198.732 -2.7649 -0.211792 0
M  V30 2108 H 201.683 -1.54786 0.350277 0
M  V30 2109 H 201.704 -3.4579 -1.58775 0
M  V30 2110 H 201.216 -3.87643 0.188345 0
M  V30 2111 H 199.317 -3.05305 -2.13588 0
M  V30 2112 H 199.43 -4.65317 -1.14093 0
M  V30 2113 H 197.794 -2.4489 -0.700085 0
M  V30 2114 H 198.577 -3.36073 0.700691 0
M  V30 2115 N 201.022 0.148545 -1.56898 0
M  V30 2116 C 201.932 1.20293 -2.01412 0
M  V30 2117 C 202.948 1.47107 -0.929273 0
M  V30 2118 O 204.124 1.58807 -1.23863 0
M  V30 2119 C 201.189 2.51682 -2.38447 0
M  V30 2120 C 200.25 2.32529 -3.60872 0
M  V30 2121 C 199.483 3.57653 -3.96132 0
M  V30 2122 O 199.706 4.63771 -3.32073 0
M  V30 2123 O 198.64 3.50408 -4.89385 0
M  V30 2124 H 202.466 0.855025 -2.91416 0
M  V30 2125 H 200.051 0.357151 -1.45068 0
M  V30 2126 H 201.933 3.29147 -2.63135 0
M  V30 2127 H 200.608 2.86006 -1.51599 0
M  V30 2128 H 199.515 1.53019 -3.41373 0
M  V30 2129 H 200.848 2.03121 -4.48333 0
M  V30 2130 N 202.5 1.5196 0.417844 0
M  V30 2131 C 203.45 1.7106 1.5074 0
M  V30 2132 C 204.434 0.564487 1.50673 0
M  V30 2133 O 205.626 0.821206 1.56797 0
M  V30 2134 C 202.755 1.85677 2.88754 0
M  V30 2135 C 201.841 3.06133 2.93502 0
M  V30 2136 N 202.232 4.28987 2.67962 0
M  V30 2137 C 200.53 3.05787 3.24669 0
M  V30 2138 C 201.231 5.10395 2.79055 0
M  V30 2139 N 200.207 4.45455 3.11561 0
M  V30 2140 H 204.009 2.63696 1.29775 0
M  V30 2141 H 201.523 1.49873 0.625436 0
M  V30 2142 H 203.52 1.97475 3.67164 0
M  V30 2143 H 202.18 0.942348 3.10725 0
M  V30 2144 H 203.191 4.57607 2.4252 0
M  V30 2145 H 199.868 2.2405 3.52289 0
M  V30 2146 H 201.258 6.18247 2.63097 0
M  V30 2147 N 203.978 -0.674533 1.42435 0
M  V30 2148 C 205.226 -1.43175 1.42637 0
M  V30 2149 C 205.547 -1.94951 0.0438992 0
M  V30 2150 O 204.817 -1.7308 -0.917607 0
M  V30 2151 H 203.397 -0.531307 0.525092 0
M  V30 2152 H 206.059 -0.797006 1.77859 0
M  V30 2153 H 205.155 -2.28463 2.12629 0
M  V30 2154 N 205.456 -1.28612 -0.910864 0
M  V30 2155 C 206.703 -1.15934 -1.66029 0
M  V30 2156 C 207.031 0.291483 -1.92303 0
M  V30 2157 O 206.286 1.22816 -1.52364 0
M  V30 2158 C 206.585 -1.90624 -3.0232 0
M  V30 2159 C 206.251 -3.40405 -2.95695 0
M  V30 2160 C 204.913 -3.81255 -2.93595 0
M  V30 2161 C 207.265 -4.359 -2.85728 0
M  V30 2162 C 204.593 -5.15936 -2.79334 0
M  V30 2163 C 206.945 -5.70657 -2.73007 0
M  V30 2164 C 205.609 -6.10779 -2.69267 0
M  V30 2165 H 204.879 -0.424234 -0.607541 0
M  V30 2166 H 207.526 -1.5942 -1.06101 0
M  V30 2167 H 205.831 -1.39696 -3.6605 0
M  V30 2168 H 207.528 -1.78228 -3.59215 0
M  V30 2169 H 204.118 -3.07927 -2.98125 0
M  V30 2170 H 208.302 -4.053 -2.86436 0
M  V30 2171 H 203.558 -5.46146 -2.74835 0
M  V30 2172 H 207.732 -6.44311 -2.64264 0
M  V30 2173 H 205.359 -7.1509 -2.57974 0
M  V30 2174 N 206.934 1.1197 -1.10907 0
M  V30 2175 C 208.162 1.87402 -0.876824 0
M  V30 2176 C 208.577 1.79894 0.573025 0
M  V30 2177 O 207.934 1.17629 1.39534 0
M  V30 2178 C 207.985 3.36428 -1.32282 0
M  V30 2179 O 207.706 3.43765 -2.71582 0
M  V30 2180 C 209.207 4.28783 -1.12518 0
M  V30 2181 H 206.427 0.592793 -0.314384 0
M  V30 2182 H 208.971 1.41649 -1.47499 0
M  V30 2183 H 207.126 3.79706 -0.768229 0
M  V30 2184 H 207.54 4.3652 -2.90776 0
M  V30 2185 H 209.014 5.31613 -1.48633 0
M  V30 2186 H 209.491 4.39153 -0.0642394 0
M  V30 2187 H 210.097 3.91291 -1.66648 0
M  V30 2188 N 208.412 0.89855 1.29475 0
M  V30 2189 C 209.689 0.443416 1.90508 0
M  V30 2190 C 210.069 -1.07685 1.81569 0
M  V30 2191 O 209.417 -1.9182 1.24166 0
M  V30 2192 C 209.627 0.956708 3.35631 0
M  V30 2193 C 210.975 0.999728 4.12663 0
M  V30 2194 O 211.999 0.904299 3.4453 0
M  V30 2195 O 210.858 1.14289 5.34416 0
M  V30 2196 H 207.952 0.138025 0.815401 0
M  V30 2197 H 210.498 0.98834 1.37949 0
M  V30 2198 H 209.27 2.00067 3.36287 0
M  V30 2199 H 208.893 0.391728 3.95666 0
M  V30 2200 N 209.89 -1.43072 0.660911 0
M  V30 2201 C 211.115 -2.06584 0.183805 0
M  V30 2202 C 211.54 -1.49257 -1.14472 0
M  V30 2203 O 210.898 -0.605528 -1.70889 0
M  V30 2204 C 210.946 -3.60418 0.114434 0
M  V30 2205 O 210.05 -4.01981 -0.921137 0
M  V30 2206 H 209.391 -0.656669 0.0983994 0
M  V30 2207 H 211.921 -1.83447 0.906006 0
M  V30 2208 H 211.931 -4.07946 -0.0663394 0
M  V30 2209 H 210.606 -4.01519 1.08422 0
M  V30 2210 H 209.183 -3.66029 -0.71253 0
M  V30 2211 N 211.368 -0.403325 -1.52352 0
M  V30 2212 C 212.298 0.416205 -2.29761 0
M  V30 2213 C 213.279 1.05123 -1.33728 0
M  V30 2214 O 214.464 1.06134 -1.62632 0
M  V30 2215 C 211.594 1.53624 -3.11475 0
M  V30 2216 C 210.548 1.02653 -4.15507 0
M  V30 2217 C 209.874 2.23971 -4.85532 0
M  V30 2218 C 211.174 0.08463 -5.22231 0
M  V30 2219 H 212.868 -0.229701 -2.98518 0
M  V30 2220 H 210.414 -0.111913 -1.43564 0
M  V30 2221 H 212.367 2.1165 -3.64393 0
M  V30 2222 H 211.091 2.20994 -2.40477 0
M  V30 2223 H 209.75 0.46871 -3.63591 0
M  V30 2224 H 209.398 2.89883 -4.11068 0
M  V30 2225 H 209.098 1.90521 -5.55856 0
M  V30 2226 H 210.622 2.82614 -5.41259 0
M  V30 2227 H 212.036 0.573509 -5.70424 0
M  V30 2228 H 210.433 -0.160783 -5.99885 0
M  V30 2229 H 211.503 -0.86237 -4.7717 0
M  V30 2230 N 212.846 1.57033 -0.133567 0
M  V30 2231 C 214.074 2.00044 0.528195 0
M  V30 2232 C 214.489 1.01349 1.59291 0
M  V30 2233 O 213.846 0.00848369 1.82498 0
M  V30 2234 C 213.897 3.43018 1.1411 0
M  V30 2235 O 213.618 4.37939 0.11892 0
M  V30 2236 C 215.119 4.01237 1.88477 0
M  V30 2237 H 212.339 0.656517 0.138661 0
M  V30 2238 H 214.883 2.03267 -0.224196 0
M  V30 2239 H 213.038 3.40688 1.84418 0
M  V30 2240 H 213.452 5.21436 0.56613 0
M  V30 2241 H 214.926 5.03314 2.26669 0
M  V30 2242 H 215.403 3.41193 2.76558 0
M  V30 2243 H 216.009 4.07156 1.22898 0
M  V30 2244 N 214.325 -0.140222 1.56975 0
M  V30 2245 C 215.571 -0.852949 1.83991 0
M  V30 2246 C 215.904 -1.80512 0.716187 0
M  V30 2247 O 215.179 -1.92479 -0.279681 0
M  V30 2248 C 215.462 -1.6215 3.21527 0
M  V30 2249 C 215.315 -0.690363 4.4447 0
M  V30 2250 C 216.634 -2.58247 3.56366 0
M  V30 2251 H 213.753 -0.308634 0.669264 0
M  V30 2252 H 216.395 -0.117898 1.89634 0
M  V30 2253 H 214.545 -2.24812 3.16847 0
M  V30 2254 H 216.217 -0.0742264 4.6124 0
M  V30 2255 H 214.46 -0.000396433 4.338 0
M  V30 2256 H 215.131 -1.2643 5.37326 0
M  V30 2257 H 217.607 -2.05701 3.61699 0
M  V30 2258 H 216.483 -3.09067 4.53617 0
M  V30 2259 H 216.744 -3.39923 2.82674 0
M  V30 2260 N 215.803 -1.52179 -0.40978 0
M  V30 2261 C 217.028 -1.70347 -1.18308 0
M  V30 2262 C 217.453 -0.411887 -1.83535 0
M  V30 2263 O 216.811 0.630587 -1.6998 0
M  V30 2264 C 216.859 -2.83977 -2.22238 0
M  V30 2265 O 215.963 -2.495 -3.28365 0
M  V30 2266 H 215.304 -0.567103 -0.345384 0
M  V30 2267 H 217.834 -1.98879 -0.480445 0
M  V30 2268 H 217.844 -3.0887 -2.66577 0
M  V30 2269 H 216.519 -3.77685 -1.74146 0
M  V30 2270 H 215.096 -2.35277 -2.89308 0
M  V30 2271 N 217.281 0.66697 -1.42791 0
M  V30 2272 C 218.211 1.79218 -1.49677 0
M  V30 2273 C 219.192 1.66405 -0.352623 0
M  V30 2274 O 220.377 1.85708 -0.567993 0
M  V30 2275 C 217.507 3.17565 -1.40605 0
M  V30 2276 C 216.461 3.45124 -2.53127 0
M  V30 2277 C 215.787 4.83127 -2.29112 0
M  V30 2278 C 217.087 3.41236 -3.95418 0
M  V30 2279 H 218.781 1.73713 -2.43853 0
M  V30 2280 H 216.327 0.83432 -1.17367 0
M  V30 2281 H 218.28 3.96022 -1.44029 0
M  V30 2282 H 217.004 3.23767 -0.429271 0
M  V30 2283 H 215.663 2.69031 -2.49034 0
M  V30 2284 H 215.311 4.85988 -1.29709 0
M  V30 2285 H 215.011 5.02528 -3.04531 0
M  V30 2286 H 216.535 5.63859 -2.34297 0
M  V30 2287 H 217.949 4.09651 -4.01073 0
M  V30 2288 H 216.346 3.72173 -4.70752 0
M  V30 2289 H 217.416 2.39665 -4.21532 0
M  V30 2290 N 218.759 1.29093 0.90403 0
M  V30 2291 C 220.036 1.075 1.63411 0
M  V30 2292 C 220.416 -0.382346 2.07609 0
M  V30 2293 O 219.764 -1.37031 1.82851 0
M  V30 2294 C 219.974 2.05858 2.81822 0
M  V30 2295 C 221.322 2.36539 3.52611 0
M  V30 2296 O 222.346 2.04019 2.91984 0
M  V30 2297 O 221.205 2.92085 4.61897 0
M  V30 2298 H 218.299 0.411547 0.717327 0
M  V30 2299 H 220.845 1.40449 0.952479 0
M  V30 2300 H 219.617 3.04037 2.46327 0
M  V30 2301 H 219.24 1.73613 3.57693 0
M  V30 2302 N 220.237 -1.11381 1.11499 0
M  V30 2303 C 221.485 -1.8277 0.862524 0
M  V30 2304 C 221.806 -1.85097 -0.613534 0
M  V30 2305 O 221.076 -1.32198 -1.4457 0
M  V30 2306 H 219.656 -0.676823 0.316101 0
M  V30 2307 H 222.318 -1.34816 1.4075 0
M  V30 2308 H 221.414 -2.86614 1.23527 0
M  V30 2309 N 221.715 -0.905404 -1.28997 0
M  V30 2310 C 222.648 -0.331959 -2.25773 0
M  V30 2311 C 223.626 0.559099 -1.52685 0
M  V30 2312 O 224.81 0.50463 -1.8162 0
M  V30 2313 C 221.937 0.526276 -3.34586 0
M  V30 2314 C 220.983 -0.298249 -4.25456 0
M  V30 2315 S 221.816 -1.69968 -5.0781 0
M  V30 2316 C 222.972 -0.848519 -6.20122 0
M  V30 2317 H 223.205 -1.15222 -2.74064 0
M  V30 2318 H 220.738 -0.706112 -1.37308 0
M  V30 2319 H 222.696 1.01565 -3.97737 0
M  V30 2320 H 221.357 1.32084 -2.84978 0
M  V30 2321 H 220.55 0.357607 -5.0273 0
M  V30 2322 H 220.152 -0.720968 -3.66985 0
M  V30 2323 H 222.444 -0.0744325 -6.77459 0
M  V30 2324 H 223.387 -1.59353 -6.89937 0
M  V30 2325 H 223.795 -0.400383 -5.63078 0
M  V30 2326 N 223.193 1.4272 -0.668489 0
M  V30 2327 C 224.604 1.84793 -0.266151 0
M  V30 2328 C 224.955 1.55959 1.19043 0
M  V30 2329 O 224.08 1.01622 1.91055 0
M  V30 2330 C 224.675 3.35436 -0.476271 0
M  V30 2331 C 223.234 3.76182 -0.128113 0
M  V30 2332 C 222.381 2.66344 -0.771777 0
M  V30 2333 H 225.332 1.32656 -0.871098 0
M  V30 2334 H 225.353 3.79515 0.273561 0
M  V30 2335 H 224.865 3.5639 -1.53647 0
M  V30 2336 H 222.966 3.60836 0.928891 0
M  V30 2337 H 223.079 4.75766 -0.564231 0
M  V30 2338 H 221.443 2.53885 -0.203652 0
M  V30 2339 H 222.226 2.90123 -1.83531 0
M  V30 2340 N 224.671 0.411399 1.52136 0
M  V30 2341 C 225.601 -0.404015 2.29978 0
M  V30 2342 C 226.582 -1.04412 1.34284 0
M  V30 2343 O 227.767 -1.0527 1.63192 0
M  V30 2344 C 224.897 -1.5197 3.12286 0
M  V30 2345 C 223.851 -1.00448 4.16046 0
M  V30 2346 C 223.177 -2.21393 4.86712 0
M  V30 2347 C 224.477 -0.0569336 5.22269 0
M  V30 2348 H 226.171 0.245529 2.98392 0
M  V30 2349 H 223.717 0.119525 1.43503 0
M  V30 2350 H 225.67 -2.09715 3.6551 0
M  V30 2351 H 224.394 -2.19716 2.41646 0
M  V30 2352 H 223.053 -0.449421 3.63835 0
M  V30 2353 H 222.701 -2.87699 4.12599 0
M  V30 2354 H 222.401 -1.87571 5.56858 0
M  V30 2355 H 223.925 -2.7974 5.4275 0
M  V30 2356 H 225.339 -0.54325 5.7072 0
M  V30 2357 H 223.736 0.192594 5.99791 0
M  V30 2358 H 224.806 0.887663 4.76706 0
M  V30 2359 N 226.149 -1.5696 0.141893 0
M  V30 2360 C 227.081 -2.13619 -0.830627 0
M  V30 2361 C 228.094 -1.08439 -1.21428 0
M  V30 2362 O 229.283 -1.35734 -1.15925 0
M  V30 2363 C 226.383 -2.63978 -2.12529 0
M  V30 2364 C 225.556 -3.93504 -1.9098 0
M  V30 2365 C 224.615 -4.29225 -3.04388 0
M  V30 2366 O 223.641 -4.97641 -2.76302 0
M  V30 2367 N 224.843 -3.88393 -4.31429 0
M  V30 2368 H 227.608 -2.97691 -0.34641 0
M  V30 2369 H 225.169 -1.61846 -0.0418375 0
M  V30 2370 H 227.161 -2.84891 -2.87436 0
M  V30 2371 H 225.731 -1.84659 -2.52229 0
M  V30 2372 H 224.951 -3.81269 -1.00139 0
M  V30 2373 H 226.239 -4.78154 -1.73914 0
M  V30 2374 H 225.637 -3.33257 -4.57117 0
M  V30 2375 H 224.194 -4.14368 -5.03133 0
M  V30 2376 N 227.627 0.131896 -1.57047 0
M  V30 2377 C 228.867 0.847972 -1.85981 0
M  V30 2378 C 229.231 1.77655 -0.7282 0
M  V30 2379 O 230.432 2.53322 -0.898968 0
M  V30 2380 C 228.703 1.58919 -3.20124 0
M  V30 2381 S 230.262 2.34862 -3.70655 0
M  V30 2382 H 227.08 0.283273 -0.652133 0
M  V30 2383 H 229.682 0.107057 -1.95207 0
M  V30 2384 H 228.386 0.898771 -4.00438 0
M  V30 2385 H 227.917 2.37073 -3.13942 0
M  V30 2386 H 229.932 3.60344 -3.41126 0
M  V30 2387 N 229.106 1.52395 0.401703 0
M  V30 2388 C 230.336 1.70429 1.1678 0
M  V30 2389 C 230.744 0.416702 1.84554 0
M  V30 2390 O 230.087 -0.617697 1.73003 0
M  V30 2391 C 230.149 2.78919 2.26814 0
M  V30 2392 C 229.813 4.20437 1.79113 0
M  V30 2393 C 230.81 5.04028 1.27482 0
M  V30 2394 C 228.495 4.66704 1.85722 0
M  V30 2395 C 230.489 6.31961 0.830913 0
M  V30 2396 C 228.176 5.94625 1.40942 0
M  V30 2397 C 229.174 6.77082 0.897128 0
M  V30 2398 O 228.862 8.02607 0.455822 0
M  V30 2399 H 228.594 0.574272 0.356634 0
M  V30 2400 H 231.148 1.99767 0.477724 0
M  V30 2401 H 229.378 2.44973 2.99207 0
M  V30 2402 H 231.067 2.8548 2.88541 0
M  V30 2403 H 231.833 4.69471 1.21744 0
M  V30 2404 H 227.712 4.0262 2.24539 0
M  V30 2405 H 231.256 6.96271 0.430368 0
M  V30 2406 H 227.153 6.28688 1.46362 0
M  V30 2407 H 227.921 8.16453 0.578457 0
M  V30 2408 N 230.584 -0.659388 1.43143 0
M  V30 2409 C 231.814 -1.44513 1.47646 0
M  V30 2410 C 232.222 -1.88981 0.0910095 0
M  V30 2411 O 231.565 -1.59702 -0.907789 0
M  V30 2412 C 231.627 -2.71663 2.35456 0
M  V30 2413 C 231.291 -2.49175 3.83094 0
M  V30 2414 C 232.288 -2.1279 4.74359 0
M  V30 2415 C 229.973 -2.63691 4.27519 0
M  V30 2416 C 231.967 -1.9121 6.08044 0
M  V30 2417 C 229.654 -2.41726 5.61259 0
M  V30 2418 C 230.652 -2.0554 6.51339 0
M  V30 2419 O 230.34 -1.838 7.82606 0
M  V30 2420 H 230.072 -0.45064 0.503884 0
M  V30 2421 H 232.626 -0.816248 1.88485 0
M  V30 2422 H 230.856 -3.37089 1.89493 0
M  V30 2423 H 232.545 -3.33595 2.31235 0
M  V30 2424 H 233.311 -2.01157 4.41317 0
M  V30 2425 H 229.19 -2.90832 3.57684 0
M  V30 2426 H 232.734 -1.62889 6.78316 0
M  V30 2427 H 228.631 -2.52959 5.9387 0
M  V30 2428 H 229.399 -1.98275 7.94122 0
M  V30 2429 N 232.062 -1.29571 -0.897171 0
M  V30 2430 C 232.992 -1.17473 -2.01798 0
M  V30 2431 C 233.973 -0.068323 -1.69963 0
M  V30 2432 O 235.158 -0.248239 -1.92607 0
M  V30 2433 C 232.288 -0.853099 -3.36659 0
M  V30 2434 C 231.242 -1.9161 -3.82713 0
M  V30 2435 C 230.568 -1.44773 -5.14728 0
M  V30 2436 C 231.868 -3.32535 -4.02763 0
M  V30 2437 H 233.562 -2.11237 -2.12177 0
M  V30 2438 H 231.108 -1.01699 -1.01948 0
M  V30 2439 H 233.061 -0.755165 -4.14578 0
M  V30 2440 H 231.785 0.120236 -3.26379 0
M  V30 2441 H 230.444 -2.00346 -3.07013 0
M  V30 2442 H 230.092 -0.462995 -5.00865 0
M  V30 2443 H 229.792 -2.15865 -5.46513 0
M  V30 2444 H 231.316 -1.36334 -5.95185 0
M  V30 2445 H 232.73 -3.26626 -4.71156 0
M  V30 2446 H 231.127 -4.01607 -4.45905 0
M  V30 2447 H 232.197 -3.75326 -3.07016 0
M  V30 2448 N 233.54 1.10788 -1.12088 0
M  V30 2449 C 234.788 1.8231 -0.872205 0
M  V30 2450 C 235.109 1.85419 0.603709 0
M  V30 2451 O 234.379 1.32963 1.43867 0
M  V30 2452 H 232.959 0.675137 -0.319686 0
M  V30 2453 H 235.621 1.34068 -1.41463 0
M  V30 2454 H 234.717 2.85955 -1.25045 0
M  V30 2455 N 235.018 0.912232 1.28515 0
M  V30 2456 C 236.266 0.543523 1.94654 0
M  V30 2457 C 236.587 -0.9155 1.72173 0
M  V30 2458 O 235.857 -1.64708 1.06058 0
M  V30 2459 H 234.437 0.198017 0.720277 0
M  V30 2460 H 237.099 1.16126 1.56527 0
M  V30 2461 H 236.195 0.736684 3.03281 0
M  V30 2462 N 236.496 -1.42363 0.676048 0
M  V30 2463 C 237.744 -2.01123 0.198437 0
M  V30 2464 C 238.065 -1.53731 -1.19966 0
M  V30 2465 O 237.335 -0.759518 -1.80577 0
M  V30 2466 H 235.915 -0.743678 0.0703721 0
M  V30 2467 H 238.577 -1.74263 0.872837 0
M  V30 2468 H 237.673 -3.11454 0.200686 0
M  V30 2469 N 237.974 -0.419461 -1.51915 0
M  V30 2470 C 238.924 0.418496 -2.24126 0
M  V30 2471 C 239.908 1.00495 -1.25656 0
M  V30 2472 O 241.1 0.926058 -1.50842 0
M  V30 2473 C 238.229 1.52899 -3.07371 0
M  V30 2474 C 237.315 0.952797 -4.13258 0
M  V30 2475 N 237.706 0.104175 -5.05693 0
M  V30 2476 C 236.004 1.22224 -4.28926 0
M  V30 2477 C 236.705 -0.21752 -5.81293 0
M  V30 2478 N 235.681 0.394293 -5.42168 0
M  V30 2479 H 239.483 -0.236048 -2.92951 0
M  V30 2480 H 236.997 -0.230481 -1.60756 0
M  V30 2481 H 238.994 2.14199 -3.57665 0
M  V30 2482 H 237.654 2.18605 -2.40088 0
M  V30 2483 H 238.665 -0.260924 -5.17242 0
M  V30 2484 H 235.342 1.87812 -3.72871 0
M  V30 2485 H 236.732 -0.906992 -6.6575 0
M  V30 2486 N 239.452 1.56882 -0.150215 0
M  V30 2487 C 240.415 2.1573 0.774157 0
M  V30 2488 C 241.415 1.0999 1.17298 0
M  V30 2489 O 242.605 1.35613 1.09338 0
M  V30 2490 C 239.737 2.72302 2.05096 0
M  V30 2491 H 240.93 2.98752 0.262201 0
M  V30 2492 H 238.483 1.55985 0.099248 0
M  V30 2493 H 239.218 1.92956 2.6065 0
M  V30 2494 H 239.003 3.49665 1.77416 0
M  V30 2495 H 240.493 3.17632 2.71109 0
M  V30 2496 N 240.93 -0.123565 1.57115 0
M  V30 2497 C 242.158 -0.846461 1.88793 0
M  V30 2498 C 242.573 -1.73652 0.740976 0
M  V30 2499 O 241.93 -1.80207 -0.288393 0
M  V30 2500 C 241.981 -1.6837 3.19897 0
M  V30 2501 O 241.702 -0.829477 4.30176 0
M  V30 2502 C 243.203 -2.51214 3.65248 0
M  V30 2503 H 240.423 -0.243573 0.625231 0
M  V30 2504 H 242.967 -0.109324 2.04208 0
M  V30 2505 H 241.122 -2.37364 3.06165 0
M  V30 2506 H 241.536 -1.40651 5.0529 0
M  V30 2507 H 243.01 -3.05497 4.59756 0
M  V30 2508 H 243.487 -3.28359 2.9168 0
M  V30 2509 H 244.093 -1.8747 3.81752 0
M  V30 2510 N 242.408 -1.52605 -0.393616 0
M  V30 2511 C 243.685 -1.58001 -1.15304 0
M  V30 2512 C 244.065 -0.370385 -2.07825 0
M  V30 2513 O 243.413 0.641638 -2.19306 0
M  V30 2514 C 243.623 -2.91652 -1.91677 0
M  V30 2515 C 244.971 -3.4522 -2.47201 0
M  V30 2516 O 245.995 -2.93495 -2.01839 0
M  V30 2517 O 244.854 -4.35579 -3.3005 0
M  V30 2518 H 241.948 -0.637068 -0.527327 0
M  V30 2519 H 244.494 -1.64939 -0.399141 0
M  V30 2520 H 243.266 -3.71136 -1.23992 0
M  V30 2521 H 242.889 -2.88077 -2.74039 0
M  V30 2522 N 243.887 0.651787 -1.4349 0
M  V30 2523 C 244.835 1.78586 -1.49029 0
M  V30 2524 C 245.829 1.65448 -0.363767 0
M  V30 2525 O 247.035 1.71777 -0.537821 0
M  V30 2526 H 243.41 0.589236 -0.467231 0
M  V30 2527 H 245.381 1.71035 -2.44519 0
M  V30 2528 C 244.13 3.16851 -1.43181 0
M  V30 2529 H 243.453 3.27598 -2.29171 0
M  V30 2530 H 244.893 3.96156 -1.51118 0
M  V30 2531 C 243.352 3.36568 -0.149616 0
M  V30 2532 O 243.882 3.93885 0.788509 0
M  V30 2533 N 242.088 2.90539 -0.0593484 0
M  V30 2534 H 241.635 2.4408 -0.823575 0
M  V30 2535 H 241.593 3.04108 0.797853 0
M  V30 2536 N 245.365 1.30045 0.890287 0
M  V30 2537 C 246.614 1.17929 1.63633 0
M  V30 2538 C 246.927 -0.266204 1.9378 0
M  V30 2539 O 248.133 -0.508804 2.6669 0
M  V30 2540 C 246.589 2.06317 2.94892 0
M  V30 2541 C 246.197 3.55745 2.72305 0
M  V30 2542 C 247.941 2.0295 3.72843 0
M  V30 2543 C 245.848 4.36205 3.99348 0
M  V30 2544 H 244.778 0.437782 0.613892 0
M  V30 2545 H 247.429 1.54754 0.986075 0
M  V30 2546 H 245.811 1.6237 3.61182 0
M  V30 2547 H 246.985 4.07805 2.1455 0
M  V30 2548 H 245.3 3.6088 2.07737 0
M  V30 2549 H 247.897 2.60319 4.67053 0
M  V30 2550 H 248.24 1.0117 4.0382 0
M  V30 2551 H 248.773 2.4499 3.13408 0
M  V30 2552 H 245.512 5.38659 3.73533 0
M  V30 2553 H 245.032 3.8891 4.56628 0
M  V30 2554 H 246.711 4.47362 4.67415 0
M  V30 2555 N 246.843 -1.10192 1.12674 0
M  V30 2556 C 248.089 -1.82475 0.884915 0
M  V30 2557 C 248.422 -1.85093 -0.58773 0
M  V30 2558 O 247.697 -1.3134 -1.43457 0
M  V30 2559 C 247.98 -3.29018 1.46353 0
M  V30 2560 C 247.833 -3.34718 3.00473 0
M  V30 2561 C 249.152 -4.25473 1.12519 0
M  V30 2562 H 246.271 -0.662492 0.322915 0
M  V30 2563 H 248.913 -1.2913 1.39375 0
M  V30 2564 H 247.063 -3.74576 1.03077 0
M  V30 2565 H 248.735 -2.97622 3.52447 0
M  V30 2566 H 246.978 -2.74541 3.35872 0
M  V30 2567 H 247.649 -4.37918 3.36053 0
M  V30 2568 H 250.125 -3.88161 1.499 0
M  V30 2569 H 249.001 -5.26365 1.55663 0
M  V30 2570 H 249.262 -4.42084 0.0377407 0
M  V30 2571 N 248.321 -0.919034 -1.28029 0
M  V30 2572 C 249.567 -0.555757 -1.95036 0
M  V30 2573 C 249.9 0.899198 -1.72128 0
M  V30 2574 O 249.175 1.64023 -1.04531 0
M  V30 2575 C 249.458 -0.872024 -3.49382 0
M  V30 2576 C 249.311 -2.3801 -3.81669 0
M  V30 2577 C 250.63 -0.37185 -4.38526 0
M  V30 2578 H 247.749 -0.203386 -0.708381 0
M  V30 2579 H 250.391 -1.14924 -1.51303 0
M  V30 2580 H 248.541 -0.366946 -3.86763 0
M  V30 2581 H 250.213 -2.9562 -3.54128 0
M  V30 2582 H 248.456 -2.83289 -3.28526 0
M  V30 2583 H 249.127 -2.55192 -4.8947 0
M  V30 2584 H 251.603 -0.804602 -4.08247 0
M  V30 2585 H 250.479 -0.622173 -5.45362 0
M  V30 2586 H 250.74 0.727934 -4.36066 0
M  V30 2587 N 249.799 1.42003 -0.683588 0
M  V30 2588 C 251.045 2.02223 -0.218536 0
M  V30 2589 C 251.4 1.53126 1.16492 0
M  V30 2590 O 250.693 0.727459 1.77253 0
M  V30 2591 C 250.887 3.56827 -0.202357 0
M  V30 2592 C 250.716 4.20928 -1.5827 0
M  V30 2593 C 249.486 4.5573 -2.18262 0
M  V30 2594 C 251.684 4.47933 -2.52706 0
M  V30 2595 N 249.666 5.05056 -3.48986 0
M  V30 2596 C 251.037 4.98906 -3.68094 0
M  V30 2597 C 253.092 4.29931 -2.51125 0
M  V30 2598 C 251.795 5.33768 -4.82166 0
M  V30 2599 C 253.821 4.65875 -3.643 0
M  V30 2600 C 253.183 5.17008 -4.78417 0
M  V30 2601 H 249.282 0.771931 -0.125088 0
M  V30 2602 H 251.866 1.72729 -0.898479 0
M  V30 2603 H 250.037 3.85819 0.447029 0
M  V30 2604 H 251.769 4.03755 0.276399 0
M  V30 2605 H 248.524 4.41781 -1.70665 0
M  V30 2606 H 248.948 5.34139 -4.15962 0
M  V30 2607 H 253.59 3.89647 -1.6412 0
M  V30 2608 H 251.308 5.72981 -5.6984 0
M  V30 2609 H 254.894 4.53615 -3.64314 0
M  V30 2610 H 253.774 5.44301 -5.64541 0
M  V30 2611 N 251.277 0.427512 1.51691 0
M  V30 2612 C 252.207 -0.3796 2.30394 0
M  V30 2613 C 253.188 -1.02982 1.35384 0
M  V30 2614 O 254.373 -1.03534 1.643 0
M  V30 2615 C 251.503 -1.48649 3.1388 0
M  V30 2616 C 250.457 -0.960294 4.17088 0
M  V30 2617 C 249.783 -2.16219 4.89033 0
M  V30 2618 C 251.083 -0.00153679 5.223 0
M  V30 2619 H 252.777 0.277164 2.98114 0
M  V30 2620 H 250.323 0.134739 1.43368 0
M  V30 2621 H 252.276 -2.05826 3.67714 0
M  V30 2622 H 251 -2.1714 2.43962 0
M  V30 2623 H 249.659 -0.410806 3.64291 0
M  V30 2624 H 249.307 -2.83307 4.15628 0
M  V30 2625 H 249.007 -1.81654 5.58816 0
M  V30 2626 H 250.531 -2.73968 5.45687 0
M  V30 2627 H 251.945 -0.482687 5.71264 0
M  V30 2628 H 250.342 0.256199 5.99553 0
M  V30 2629 H 251.412 0.938174 4.75738 0
M  V30 2630 N 252.755 -1.56801 0.158532 0
M  V30 2631 C 254.166 -1.83189 -0.360366 0
M  V30 2632 C 254.517 -1.07778 -1.63946 0
M  V30 2633 O 253.642 -0.326718 -2.13919 0
M  V30 2634 C 254.237 -3.32297 -0.660595 0
M  V30 2635 C 252.796 -3.59227 -1.12398 0
M  V30 2636 C 251.943 -2.76877 -0.153097 0
M  V30 2637 H 254.894 -1.54008 0.383031 0
M  V30 2638 H 254.915 -3.4908 -1.51405 0
M  V30 2639 H 254.427 -3.87156 0.270527 0
M  V30 2640 H 252.528 -3.09766 -2.07064 0
M  V30 2641 H 252.641 -4.67632 -1.04197 0
M  V30 2642 H 251.005 -2.46319 -0.647983 0
M  V30 2643 H 251.788 -3.34511 0.77182 0
M  V30 2644 N 254.233 0.115231 -1.57178 0
M  V30 2645 C 255.461 0.836437 -1.89239 0
M  V30 2646 C 255.876 1.73256 -0.750175 0
M  V30 2647 O 255.233 1.80357 0.278832 0
M  V30 2648 C 255.284 1.66671 -3.20785 0
M  V30 2649 O 255.005 0.806652 -4.3061 0
M  V30 2650 C 256.506 2.49274 -3.66575 0
M  V30 2651 H 253.726 0.240253 -0.626514 0
M  V30 2652 H 256.27 0.0984932 -2.04263 0
M  V30 2653 H 254.425 2.35737 -3.0742 0
M  V30 2654 H 254.839 1.37969 -5.06028 0
M  V30 2655 H 256.313 3.03055 -4.6137 0
M  V30 2656 H 256.79 3.26807 -2.93417 0
M  V30 2657 H 257.396 1.85443 -3.82741 0
M  V30 2658 N 255.711 1.52812 0.385517 0
M  V30 2659 C 256.621 1.80766 1.49535 0
M  V30 2660 C 257.637 0.694651 1.59532 0
M  V30 2661 O 258.813 0.982611 1.75803 0
M  V30 2662 C 255.878 1.97381 2.85029 0
M  V30 2663 C 254.939 3.21295 2.84724 0
M  V30 2664 C 254.172 3.37108 4.13756 0
M  V30 2665 O 254.395 2.5765 5.08893 0
M  V30 2666 O 253.329 4.30378 4.20783 0
M  V30 2667 H 257.155 2.75015 1.28842 0
M  V30 2668 H 254.74 1.37946 0.573697 0
M  V30 2669 H 256.622 2.09996 3.65349 0
M  V30 2670 H 255.297 1.06322 3.05741 0
M  V30 2671 H 254.204 3.1412 2.03174 0
M  V30 2672 H 255.537 4.12212 2.68965 0
M  V30 2673 N 257.189 -0.644168 1.43834 0
M  V30 2674 C 258.137 -1.77793 1.49974 0
M  V30 2675 C 259.131 -1.65253 0.372536 0
M  V30 2676 O 260.337 -1.7149 0.546924 0
M  V30 2677 H 256.712 -0.58675 0.47035 0
M  V30 2678 H 258.683 -1.69736 2.45423 0
M  V30 2679 C 257.432 -3.16087 1.4486 0
M  V30 2680 H 256.755 -3.26378 2.30905 0
M  V30 2681 H 258.195 -3.95349 1.53217 0
M  V30 2682 C 256.654 -3.36484 0.167463 0
M  V30 2683 O 257.184 -3.94298 -0.767609 0
M  V30 2684 N 255.39 -2.90504 0.0747556 0
M  V30 2685 H 254.937 -2.4364 0.836507 0
M  V30 2686 H 254.895 -3.04527 -0.781714 0
M  V30 2687 N 258.668 -1.30515 -0.883378 0
M  V30 2688 C 259.917 -1.18795 -1.63005 0
M  V30 2689 C 260.23 0.255923 -1.93919 0
M  V30 2690 O 261.436 0.494654 -2.66956 0
M  V30 2691 C 259.892 -2.07878 -2.93794 0
M  V30 2692 C 259.5 -3.57184 -2.70414 0
M  V30 2693 C 261.244 -2.04924 -3.71761 0
M  V30 2694 C 259.151 -4.38317 -3.97029 0
M  V30 2695 H 258.081 -0.441031 -0.611562 0
M  V30 2696 H 260.732 -1.55275 -0.977854 0
M  V30 2697 H 259.114 -1.64283 -3.60315 0
M  V30 2698 H 260.288 -4.08937 -2.12384 0
M  V30 2699 H 258.603 -3.61976 -2.0582 0
M  V30 2700 H 261.2 -2.62792 -4.65665 0
M  V30 2701 H 261.543 -1.0331 -4.03277 0
M  V30 2702 H 262.076 -2.46649 -3.12104 0
M  V30 2703 H 258.815 -5.40632 -3.70671 0
M  V30 2704 H 258.335 -3.91326 -4.54559 0
M  V30 2705 H 260.014 -4.49834 -4.65036 0
M  V30 2706 N 260.146 1.09593 -1.13257 0
M  V30 2707 C 261.076 2.18214 -0.830946 0
M  V30 2708 C 262.057 1.68812 0.208966 0
M  V30 2709 O 263.242 1.9408 0.0682666 0
M  V30 2710 C 260.372 3.46051 -0.294296 0
M  V30 2711 C 259.326 4.08778 -1.26826 0
M  V30 2712 C 258.652 5.31419 -0.591449 0
M  V30 2713 C 259.952 4.51476 -2.62615 0
M  V30 2714 H 261.646 2.43703 -1.73923 0
M  V30 2715 H 259.192 1.17128 -0.837675 0
M  V30 2716 H 261.145 4.2134 -0.0709606 0
M  V30 2717 H 259.869 3.20079 0.649366 0
M  V30 2718 H 258.528 3.35505 -1.47756 0
M  V30 2719 H 258.176 5.01727 0.357633 0
M  V30 2720 H 257.876 5.74341 -1.24123 0
M  V30 2721 H 259.4 6.09433 -0.377355 0
M  V30 2722 H 260.814 5.17999 -2.45663 0
M  V30 2723 H 259.211 5.05277 -3.23752 0
M  V30 2724 H 260.281 3.63962 -3.20406 0
M  V30 2725 N 261.624 0.925811 1.2754 0
M  V30 2726 C 262.871 0.565255 1.94451 0
M  V30 2727 C 263.199 -0.89316 1.7278 0
M  V30 2728 O 262.454 -1.65213 1.04895 0
M  V30 2729 C 262.753 0.835296 3.47502 0
M  V30 2730 C 262.419 2.27515 3.89291 0
M  V30 2731 C 261.081 2.66879 4.00411 0
M  V30 2732 C 263.433 3.21158 4.10496 0
M  V30 2733 C 260.761 3.99014 4.30122 0
M  V30 2734 C 263.113 4.52871 4.4169 0
M  V30 2735 C 261.777 4.92072 4.51023 0
M  V30 2736 H 261.047 0.206841 0.711546 0
M  V30 2737 H 263.694 1.16942 1.51647 0
M  V30 2738 H 261.999 0.148442 3.91519 0
M  V30 2739 H 263.696 0.535322 3.97411 0
M  V30 2740 H 260.286 1.95976 3.81171 0
M  V30 2741 H 264.47 2.9195 4.01346 0
M  V30 2742 H 259.726 4.2907 4.35556 0
M  V30 2743 H 263.9 5.25436 4.57045 0
M  V30 2744 H 261.527 5.9449 4.738 0
M  V30 2745 N 263.102 -1.41638 0.69111 0
M  V30 2746 C 264.35 -2.00902 0.219758 0
M  V30 2747 C 264.671 -1.54994 -1.18329 0
M  V30 2748 O 263.941 -0.778628 -1.79762 0
M  V30 2749 H 262.521 -0.74289 0.0782558 0
M  V30 2750 H 265.183 -1.73327 0.891271 0
M  V30 2751 H 264.279 -3.11224 0.233708 0
M  V30 2752 N 264.58 -0.43555 -1.51462 0
M  V30 2753 C 265.828 0.131254 -2.01673 0
M  V30 2754 C 266.149 1.43368 -1.32177 0
M  V30 2755 O 265.419 1.90524 -0.455769 0
M  V30 2756 H 263.999 0.0514954 -0.745223 0
M  V30 2757 H 266.661 -0.577847 -1.86137 0
M  V30 2758 H 265.757 0.308446 -3.10572 0
M  V30 2759 N 266.058 1.56714 -0.166846 0
M  V30 2760 C 267.298 1.98641 0.481763 0
M  V30 2761 C 267.662 1.05038 1.6072 0
M  V30 2762 O 268.863 1.36087 2.31805 0
M  V30 2763 C 267.134 3.44362 0.956517 0
M  V30 2764 S 268.693 4.08317 1.60694 0
M  V30 2765 H 265.511 0.693873 0.155116 0
M  V30 2766 H 268.113 1.93719 -0.263251 0
M  V30 2767 H 266.817 4.10204 0.126936 0
M  V30 2768 H 266.348 3.53041 1.73568 0
M  V30 2769 H 268.363 4.02999 2.89494 0
M  V30 2770 N 267.536 -0.106894 1.57237 0
M  V30 2771 C 268.469 -1.16125 1.96444 0
M  V30 2772 C 269.447 -1.3947 0.835871 0
M  V30 2773 O 270.631 -1.53425 1.09513 0
M  V30 2774 C 267.758 -2.51277 2.27107 0
M  V30 2775 C 266.804 -2.44285 3.4961 0
M  V30 2776 S 267.637 -1.87077 5.01759 0
M  V30 2777 C 268.793 -3.23877 5.35588 0
M  V30 2778 H 269.026 -0.826971 2.85567 0
M  V30 2779 H 266.559 -0.314124 1.51171 0
M  V30 2780 H 268.517 -3.29035 2.45451 0
M  V30 2781 H 267.178 -2.81879 1.38576 0
M  V30 2782 H 266.371 -3.4387 3.68469 0
M  V30 2783 H 265.973 -1.74652 3.30715 0
M  V30 2784 H 268.265 -4.20122 5.31511 0
M  V30 2785 H 269.208 -3.09833 6.36717 0
M  V30 2786 H 269.616 -3.22864 4.63054 0
M  V30 2787 N 269.014 -1.53014 -0.377408 0
M  V30 2788 C 269.944 -1.81589 -1.46791 0
M  V30 2789 C 270.925 -0.668622 -1.56408 0
M  V30 2790 O 272.11 -0.917337 -1.71168 0
M  V30 2791 C 269.24 -1.99519 -2.8427 0
M  V30 2792 C 268.194 -3.15249 -2.89486 0
M  V30 2793 C 267.52 -3.18451 -4.29527 0
M  V30 2794 C 268.82 -4.54084 -2.58079 0
M  V30 2795 H 270.514 -2.7291 -1.23127 0
M  V30 2796 H 268.06 -1.31319 -0.590883 0
M  V30 2797 H 270.013 -2.18092 -3.60575 0
M  V30 2798 H 268.737 -1.04897 -3.09296 0
M  V30 2799 H 267.396 -2.96477 -2.15631 0
M  V30 2800 H 267.044 -2.2149 -4.5161 0
M  V30 2801 H 266.744 -3.962 -4.33934 0
M  V30 2802 H 268.268 -3.39193 -5.07721 0
M  V30 2803 H 269.682 -4.72899 -3.24098 0
M  V30 2804 H 268.079 -5.33987 -2.7382 0
M  V30 2805 H 269.149 -4.60006 -1.53372 0
M  V30 2806 N 270.492 0.636531 -1.44174 0
M  V30 2807 C 271.439 1.74875 -1.50624 0
M  V30 2808 C 272.409 1.62275 -0.35442 0
M  V30 2809 O 273.594 1.82276 -0.563908 0
M  V30 2810 C 270.734 3.13102 -1.45125 0
M  V30 2811 C 269.847 3.36717 -2.7064 0
M  V30 2812 C 268.982 4.64885 -2.57013 0
M  V30 2813 C 268.021 4.8166 -3.77717 0
M  V30 2814 N 267.158 6.01101 -3.62798 0
M  V30 2815 H 271.998 1.68697 -2.45653 0
M  V30 2816 H 269.535 0.823004 -1.21922 0
M  V30 2817 H 271.493 3.93034 -1.39929 0
M  V30 2818 H 270.123 3.18308 -0.536671 0
M  V30 2819 H 269.175 2.50763 -2.86046 0
M  V30 2820 H 270.487 3.44993 -3.60252 0
M  V30 2821 H 269.641 5.52969 -2.49619 0
M  V30 2822 H 268.38 4.58957 -1.64953 0
M  V30 2823 H 267.385 3.92007 -3.85501 0
M  V30 2824 H 268.61 4.89406 -4.70807 0
M  V30 2825 H 266.556 5.96273 -2.73486 0
M  V30 2826 H 266.473 6.10409 -4.46023 0
M  V30 2827 H 267.741 6.91761 -3.59286 0
M  V30 2828 N 271.97 1.30982 0.876444 0
M  V30 2829 C 273.247 1.10942 1.61094 0
M  V30 2830 C 273.627 -0.338223 2.08373 0
M  V30 2831 O 272.975 -1.33122 1.85717 0
M  V30 2832 C 273.185 2.11789 2.77392 0
M  V30 2833 C 274.533 2.43965 3.47514 0
M  V30 2834 O 275.557 2.10166 2.87591 0
M  V30 2835 O 274.416 3.01817 4.55597 0
M  V30 2836 H 271.51 0.42667 0.708436 0
M  V30 2837 H 274.056 1.42438 0.922474 0
M  V30 2838 H 272.828 3.09194 2.39823 0
M  V30 2839 H 272.451 1.81161 3.5393 0
M  V30 2840 N 273.449 -1.08991 1.13837 0
M  V30 2841 C 274.397 -2.17841 0.815347 0
M  V30 2842 C 275.391 -1.68164 -0.204233 0
M  V30 2843 O 276.597 -1.79897 -0.0609304 0
M  V30 2844 H 272.972 -0.710654 0.245915 0
M  V30 2845 H 274.943 -2.42315 1.74143 0
M  V30 2846 C 273.692 -3.46381 0.302614 0
M  V30 2847 H 273.015 -3.84979 1.0785 0
M  V30 2848 H 274.455 -4.23844 0.115074 0
M  V30 2849 C 272.914 -3.22556 -0.972591 0
M  V30 2850 O 273.444 -3.45599 -2.04754 0
M  V30 2851 N 271.65 -2.76134 -0.905455 0
M  V30 2852 H 271.197 -2.57582 -0.0305421 0
M  V30 2853 H 271.155 -2.60571 -1.75926 0
M  V30 2854 N 274.927 -0.932562 -1.27047 0
M  V30 2855 C 275.859 -0.392734 -2.2581 0
M  V30 2856 C 276.872 0.479241 -1.55586 0
M  V30 2857 O 278.061 0.291078 -1.76111 0
M  V30 2858 C 275.161 0.455456 -3.35826 0
M  V30 2859 C 274.334 -0.398355 -4.35582 0
M  V30 2860 C 273.393 0.387985 -5.24768 0
M  V30 2861 O 272.419 -0.206003 -5.68827 0
M  V30 2862 N 273.621 1.68664 -5.55457 0
M  V30 2863 H 276.386 -1.24173 -2.72766 0
M  V30 2864 H 273.947 -0.800511 -1.40725 0
M  V30 2865 H 275.939 0.988692 -3.92437 0
M  V30 2866 H 274.509 1.20522 -2.88432 0
M  V30 2867 H 273.729 -1.11286 -3.78165 0
M  V30 2868 H 275.017 -0.981889 -4.99236 0
M  V30 2869 H 274.415 2.19147 -5.21528 0
M  V30 2870 H 272.972 2.1663 -6.14748 0
M  V30 2871 N 276.405 1.4127 -0.698611 0
M  V30 2872 C 277.368 2.29158 -0.044132 0
M  V30 2873 C 278.368 1.44529 0.704841 0
M  V30 2874 O 279.558 1.65643 0.539276 0
M  V30 2875 C 276.69 3.27459 0.947809 0
M  V30 2876 H 277.883 2.88529 -0.817994 0
M  V30 2877 H 275.436 1.49307 -0.46228 0
M  V30 2878 H 276.171 2.73073 1.74933 0
M  V30 2879 H 275.956 3.8991 0.41385 0
M  V30 2880 H 277.446 3.93311 1.40344 0
M  V30 2881 N 277.883 0.443576 1.51229 0
M  V30 2882 C 279.111 -0.11929 2.06556 0
M  V30 2883 C 279.526 -1.35921 1.31038 0
M  V30 2884 O 278.883 -1.78675 0.371704 0
M  V30 2885 C 278.934 -0.435228 3.5887 0
M  V30 2886 O 278.655 0.755486 4.31537 0
M  V30 2887 C 280.156 -1.04808 4.30732 0
M  V30 2888 H 277.376 -0.0051584 0.67098 0
M  V30 2889 H 279.92 0.624453 1.94733 0
M  V30 2890 H 278.075 -1.12887 3.70588 0
M  V30 2891 H 278.489 0.483491 5.22267 0
M  V30 2892 H 279.963 -1.2191 5.3837 0
M  V30 2893 H 280.44 -2.03081 3.89429 0
M  V30 2894 H 281.046 -0.393637 4.23474 0
M  V30 2895 N 279.361 -1.56624 0.175154 0
M  V30 2896 C 280.586 -2.01813 -0.478137 0
M  V30 2897 C 281.011 -1.05457 -1.55757 0
M  V30 2898 O 280.369 -0.0347439 -1.81267 0
M  V30 2899 C 280.417 -3.45581 -1.02987 0
M  V30 2900 O 279.521 -3.52305 -2.14371 0
M  V30 2901 H 278.862 -0.65413 -0.114059 0
M  V30 2902 H 281.392 -2.02673 0.280173 0
M  V30 2903 H 281.402 -3.84965 -1.35151 0
M  V30 2904 H 280.077 -4.1521 -0.239556 0
M  V30 2905 H 278.654 -3.24783 -1.83222 0
M  V30 2906 N 280.839 0.0985539 -1.57292 0
M  V30 2907 C 282.088 0.801358 -1.85098 0
M  V30 2908 C 282.401 1.80066 -0.763902 0
M  V30 2909 O 283.607 2.55112 -0.928981 0
M  V30 2910 C 282.063 1.47599 -3.28242 0
M  V30 2911 C 281.671 0.516624 -4.45011 0
M  V30 2912 C 283.415 2.16272 -3.65276 0
M  V30 2913 C 281.322 1.19564 -5.79188 0
M  V30 2914 H 280.252 0.303022 -0.69043 0
M  V30 2915 H 282.903 0.0542623 -1.8342 0
M  V30 2916 H 281.285 2.27042 -3.2445 0
M  V30 2917 H 282.459 -0.246065 -4.60143 0
M  V30 2918 H 280.774 -0.064227 -4.1635 0
M  V30 2919 H 283.371 2.67802 -4.62803 0
M  V30 2920 H 283.714 2.95009 -2.93727 0
M  V30 2921 H 284.247 1.43693 -3.70941 0
M  V30 2922 H 280.986 0.449157 -6.53959 0
M  V30 2923 H 280.506 1.92984 -5.67906 0
M  V30 2924 H 282.185 1.7231 -6.23633 0
M  V30 2925 N 282.317 1.53212 0.369288 0
M  V30 2926 C 283.565 1.68881 1.11012 0
M  V30 2927 C 283.886 0.441285 1.89941 0
M  V30 2928 O 283.156 -0.544623 1.88177 0
M  V30 2929 H 281.736 0.622569 0.412816 0
M  V30 2930 H 284.398 1.90391 0.416802 0
M  V30 2931 H 283.494 2.54822 1.80201 0
M  V30 2932 N 283.795 -0.628877 1.44509 0
M  V30 2933 C 284.743 -1.76193 1.51852 0
M  V30 2934 C 285.737 -1.64849 0.390042 0
M  V30 2935 O 286.943 -1.709 0.565082 0
M  V30 2936 H 283.318 -0.581728 0.476547 0
M  V30 2937 H 285.289 -1.67123 2.47209 0
M  V30 2938 C 284.038 -3.14533 1.48204 0
M  V30 2939 H 283.361 -3.23911 2.34354 0
M  V30 2940 H 284.801 -3.93701 1.57402 0
M  V30 2941 C 283.26 -3.36287 0.203142 0
M  V30 2942 O 283.79 -3.9509 -0.725745 0
M  V30 2943 N 281.996 -2.90408 0.105563 0
M  V30 2944 H 281.543 -2.42739 0.862301 0
M  V30 2945 H 281.501 -3.05339 -0.749371 0
M  V30 2946 N 285.273 -1.31445 -0.869486 0
M  V30 2947 C 286.522 -1.20517 -1.61736 0
M  V30 2948 C 286.835 0.235341 -1.94179 0
M  V30 2949 O 288.041 0.466312 -2.67465 0
M  V30 2950 C 286.497 -2.10982 -2.91573 0
M  V30 2951 C 286.105 -3.60032 -2.66611 0
M  V30 2952 C 287.849 -2.08856 -3.69567 0
M  V30 2953 C 285.756 -4.42503 -3.92358 0
M  V30 2954 H 284.686 -0.447493 -0.606849 0
M  V30 2955 H 287.337 -1.56303 -0.96133 0
M  V30 2956 H 285.719 -1.68095 -3.58553 0
M  V30 2957 H 286.893 -4.11167 -2.08035 0
M  V30 2958 H 285.208 -3.64139 -2.0197 0
M  V30 2959 H 287.805 -2.67716 -4.62852 0
M  V30 2960 H 288.148 -1.07582 -4.02159 0
M  V30 2961 H 288.681 -2.49945 -3.09471 0
M  V30 2962 H 285.42 -5.44533 -3.64916 0
M  V30 2963 H 284.94 -3.96125 -4.50383 0
M  V30 2964 H 286.619 -4.54741 -4.60238 0
M  V30 2965 N 286.751 1.08385 -1.14413 0
M  V30 2966 C 287.976 1.85057 -0.936413 0
M  V30 2967 C 288.401 1.81055 0.509971 0
M  V30 2968 O 287.759 1.1958 1.36273 0
M  V30 2969 C 287.807 3.30505 -1.44217 0
M  V30 2970 O 286.911 4.07491 -0.634409 0
M  V30 2971 H 286.252 0.573425 -0.334784 0
M  V30 2972 H 288.782 1.36799 -1.52142 0
M  V30 2973 H 288.792 3.81348 -1.45043 0
M  V30 2974 H 287.467 3.32734 -2.49522 0
M  V30 2975 H 286.044 3.66368 -0.694902 0
M  V30 2976 N 288.23 0.939286 1.26551 0
M  V30 2977 C 289.507 0.5038 1.89001 0
M  V30 2978 C 289.887 -1.01854 1.84903 0
M  V30 2979 O 289.235 -1.87773 1.30206 0
M  V30 2980 C 289.445 1.063 3.32417 0
M  V30 2981 C 290.793 1.13051 4.09273 0
M  V30 2982 O 291.817 1.01345 3.41479 0
M  V30 2983 O 290.676 1.31233 5.30509 0
M  V30 2984 H 287.77 0.163897 0.810597 0
M  V30 2985 H 290.316 1.03173 1.34735 0
M  V30 2986 H 289.088 2.10665 3.29752 0
M  V30 2987 H 288.711 0.517408 3.94219 0
M  V30 2988 N 289.708 -1.40897 0.706093 0
M  V30 2989 C 290.671 -2.29131 0.0562841 0
M  V30 2990 C 291.671 -1.44901 -0.697166 0
M  V30 2991 O 292.861 -1.65926 -0.530484 0
M  V30 2992 C 289.993 -3.27957 -0.93043 0
M  V30 2993 H 291.186 -2.88091 0.833284 0
M  V30 2994 H 288.739 -1.4906 0.470192 0
M  V30 2995 H 289.474 -2.73997 -1.73482 0
M  V30 2996 H 289.259 -3.90124 -0.393166 0
M  V30 2997 H 290.749 -3.94049 -1.38256 0
M  V30 2998 N 291.186 -0.45159 -1.50991 0
M  V30 2999 C 292.463 0.170707 -1.94854 0
M  V30 3000 C 292.843 1.58788 -1.39103 0
M  V30 3001 O 292.191 2.20913 -0.583921 0
M  V30 3002 C 292.401 0.133929 -3.48743 0
M  V30 3003 C 293.749 0.33248 -4.23296 0
M  V30 3004 O 294.773 0.211403 -3.55572 0
M  V30 3005 O 293.632 0.57486 -5.43468 0
M  V30 3006 H 290.726 0.122264 -0.817912 0
M  V30 3007 H 293.272 -0.510594 -1.61836 0
M  V30 3008 H 292.044 -0.856283 -3.81816 0
M  V30 3009 H 291.667 0.857529 -3.88242 0
M  V30 3010 N 292.664 1.56529 -0.183458 0
M  V30 3011 C 293.91 1.97537 0.459036 0
M  V30 3012 C 294.243 1.06989 1.62071 0
M  V30 3013 O 293.518 0.11948 1.94133 0
M  V30 3014 C 293.801 3.47874 0.930368 0
M  V30 3015 C 293.654 4.492 -0.232317 0
M  V30 3016 C 294.973 4.01612 1.79989 0
M  V30 3017 H 292.092 0.718204 0.165383 0
M  V30 3018 H 294.734 1.88042 -0.272038 0
M  V30 3019 H 292.884 3.56095 1.55333 0
M  V30 3020 H 294.556 4.53027 -0.86972 0
M  V30 3021 H 292.799 4.24657 -0.885928 0
M  V30 3022 H 293.47 5.51823 0.139796 0
M  V30 3023 H 295.946 3.96097 1.27461 0
M  V30 3024 H 294.822 5.07195 2.09867 0
M  V30 3025 H 295.083 3.46163 2.74998 0
M  V30 3026 N 294.142 -0.090211 1.57342 0
M  V30 3027 C 295.37 -0.806224 1.90546 0
M  V30 3028 C 295.785 -1.72041 0.777644 0
M  V30 3029 O 295.142 -1.80778 -0.250103 0
M  V30 3030 C 295.193 -1.61546 3.23396 0
M  V30 3031 O 294.914 -0.738043 4.31839 0
M  V30 3032 C 296.415 -2.4341 3.70495 0
M  V30 3033 H 293.635 -0.230256 0.630257 0
M  V30 3034 H 296.179 -0.0659843 2.04394 0
M  V30 3035 H 294.334 -2.30816 3.11131 0
M  V30 3036 H 294.748 -1.29901 5.08159 0
M  V30 3037 H 296.222 -2.95676 4.66133 0
M  V30 3038 H 296.699 -3.22098 2.98579 0
M  V30 3039 H 297.305 -1.79331 3.85643 0
M  V30 3040 N 295.62 -1.53406 -0.361157 0
M  V30 3041 C 296.583 -1.79479 -1.42548 0
M  V30 3042 C 297.583 -0.665327 -1.4639 0
M  V30 3043 O 298.773 -0.933549 -1.47073 0
M  V30 3044 C 295.905 -1.92087 -2.8163 0
M  V30 3045 H 297.098 -2.74538 -1.20701 0
M  V30 3046 H 294.651 -1.4455 -0.594546 0
M  V30 3047 H 295.386 -0.991099 -3.08784 0
M  V30 3048 H 295.171 -2.74241 -2.80239 0
M  V30 3049 H 296.661 -2.13836 -3.58697 0
M  V30 3050 N 297.098 0.621204 -1.44841 0
M  V30 3051 C 298.344 1.38073 -1.49357 0
M  V30 3052 C 298.699 1.91973 -0.128115 0
M  V30 3053 O 297.992 1.71311 0.858087 0
M  V30 3054 C 298.186 2.55675 -2.4973 0
M  V30 3055 C 298.015 2.13289 -3.95901 0
M  V30 3056 C 296.785 2.001 -4.63991 0
M  V30 3057 C 298.983 1.7159 -4.84831 0
M  V30 3058 N 296.965 1.51381 -5.94943 0
M  V30 3059 C 298.336 1.34188 -6.05304 0
M  V30 3060 C 300.391 1.59059 -4.7181 0
M  V30 3061 C 299.094 0.855085 -7.14199 0
M  V30 3062 C 301.12 1.11784 -5.8074 0
M  V30 3063 C 300.482 0.753385 -7.0036 0
M  V30 3064 H 296.581 0.499675 -0.601539 0
M  V30 3065 H 299.165 0.711609 -1.8123 0
M  V30 3066 H 297.336 3.20201 -2.19832 0
M  V30 3067 H 299.068 3.22509 -2.4448 0
M  V30 3068 H 295.823 2.20863 -4.18947 0
M  V30 3069 H 296.247 1.29293 -6.64539 0
M  V30 3070 H 300.889 1.85865 -3.79755 0
M  V30 3071 H 298.607 0.574552 -8.06055 0
M  V30 3072 H 302.193 1.02533 -5.72694 0
M  V30 3073 H 301.073 0.393183 -7.83214 0
M  V30 3074 N 298.576 1.31904 0.862503 0
M  V30 3075 C 299.987 1.19803 1.43193 0
M  V30 3076 C 300.338 -0.192567 1.95253 0
M  V30 3077 O 299.463 -1.09081 1.86896 0
M  V30 3078 C 300.058 2.16883 2.60283 0
M  V30 3079 C 298.617 2.08692 3.13248 0
M  V30 3080 C 297.764 2.05691 1.85975 0
M  V30 3081 H 300.715 1.43846 0.670365 0
M  V30 3082 H 300.736 1.76278 3.37204 0
M  V30 3083 H 300.248 3.18083 2.22363 0
M  V30 3084 H 298.349 1.10713 3.55771 0
M  V30 3085 H 298.462 2.9815 3.75025 0
M  V30 3086 H 296.826 1.50814 2.05249 0
M  V30 3087 H 297.609 3.08659 1.50282 0
M  V30 3088 N 300.054 -1.07777 1.14986 0
M  V30 3089 C 301.001 -2.14867 0.842672 0
M  V30 3090 C 301.971 -1.6486 -0.202552 0
M  V30 3091 O 303.156 -1.90668 -0.0710568 0
M  V30 3092 C 300.296 -3.43486 0.333363 0
M  V30 3093 C 299.409 -4.07306 1.43965 0
M  V30 3094 C 298.544 -5.23744 0.886914 0
M  V30 3095 C 297.583 -5.79517 1.97043 0
M  V30 3096 N 296.72 -6.87291 1.4344 0
M  V30 3097 H 301.56 -2.40485 1.75986 0
M  V30 3098 H 299.097 -1.1801 0.878179 0
M  V30 3099 H 301.055 -4.17195 0.0198163 0
M  V30 3100 H 299.685 -3.18133 -0.546916 0
M  V30 3101 H 298.737 -3.31293 1.86946 0
M  V30 3102 H 300.049 -4.44771 2.25788 0
M  V30 3103 H 299.203 -6.04419 0.525651 0
M  V30 3104 H 297.942 -4.87685 0.0377957 0
M  V30 3105 H 296.947 -4.97491 2.34057 0
M  V30 3106 H 298.172 -6.17632 2.82325 0
M  V30 3107 H 296.118 -6.5318 0.607567 0
M  V30 3108 H 296.035 -7.23617 2.18895 0
M  V30 3109 H 297.303 -7.71682 1.10124 0
M  V30 3110 N 301.532 -0.945985 -1.26051 0
M  V30 3111 C 302.76 -0.613025 -1.9761 0
M  V30 3112 C 303.175 0.813035 -1.70397 0
M  V30 3113 O 302.532 1.54274 -0.974979 0
M  V30 3114 C 302.583 -0.85159 -3.51326 0
M  V30 3115 O 302.304 -2.22157 -3.77595 0
M  V30 3116 C 303.805 -0.529831 -4.40122 0
M  V30 3117 H 301.025 -0.230593 -0.630133 0
M  V30 3118 H 303.569 -1.268 -1.60443 0
M  V30 3119 H 301.724 -0.243151 -3.86636 0
M  V30 3120 H 302.138 -2.2852 -4.721 0
M  V30 3121 H 303.612 -0.747348 -5.46917 0
M  V30 3122 H 304.089 0.535341 -4.35925 0
M  V30 3123 H 304.695 -1.11721 -4.10364 0
M  V30 3124 N 303.011 1.40521 -0.713556 0
M  V30 3125 C 303.941 2.33381 -0.0743864 0
M  V30 3126 C 304.922 1.52784 0.747735 0
M  V30 3127 O 306.107 1.81258 0.697071 0
M  V30 3128 C 303.237 3.36748 0.849598 0
M  V30 3129 C 302.191 4.27793 0.133247 0
M  V30 3130 C 301.517 5.21679 1.17281 0
M  V30 3131 C 302.817 5.12415 -1.01134 0
M  V30 3132 H 304.511 2.87081 -0.850007 0
M  V30 3133 H 302.057 1.38034 -0.410201 0
M  V30 3134 H 304.01 4.00648 1.30612 0
M  V30 3135 H 302.734 2.81439 1.65709 0
M  V30 3136 H 301.393 3.65342 -0.303426 0
M  V30 3137 H 301.041 4.62677 1.9733 0
M  V30 3138 H 300.741 5.83435 0.698397 0
M  V30 3139 H 302.265 5.88456 1.62947 0
M  V30 3140 H 303.679 5.69781 -0.634274 0
M  V30 3141 H 302.076 5.83203 -1.41399 0
M  V30 3142 H 303.146 4.48514 -1.84292 0
M  V30 3143 N 304.489 0.459591 1.5075 0
M  V30 3144 C 305.766 -0.160371 1.94941 0
M  V30 3145 C 306.146 -1.58048 1.39943 0
M  V30 3146 O 305.494 -2.206 0.595629 0
M  V30 3147 C 305.704 -0.115432 3.48809 0
M  V30 3148 C 307.052 -0.310026 4.23467 0
M  V30 3149 O 308.076 -0.192543 3.55679 0
M  V30 3150 O 306.935 -0.546031 5.43765 0
M  V30 3151 H 304.029 -0.117925 0.818549 0
M  V30 3152 H 306.575 0.519169 1.61563 0
M  V30 3153 H 305.347 0.87652 3.81357 0
M  V30 3154 H 304.97 -0.836928 3.88692 0
M  V30 3155 N 305.967 -1.56429 0.191757 0
M  V30 3156 C 306.914 -2.18936 -0.730454 0
M  V30 3157 C 307.884 -1.13557 -1.21219 0
M  V30 3158 O 309.069 -1.41794 -1.27668 0
M  V30 3159 C 306.209 -2.85013 -1.9458 0
M  V30 3160 C 305.322 -4.04909 -1.50574 0
M  V30 3161 C 304.457 -4.58853 -2.67634 0
M  V30 3162 C 303.496 -5.71114 -2.20217 0
M  V30 3163 N 302.633 -6.19478 -3.30442 0
M  V30 3164 H 307.473 -2.97389 -0.190664 0
M  V30 3165 H 305.01 -1.46869 -0.0823694 0
M  V30 3166 H 306.968 -3.21492 -2.65893 0
M  V30 3167 H 305.598 -2.09129 -2.45896 0
M  V30 3168 H 304.65 -3.74115 -0.688605 0
M  V30 3169 H 305.962 -4.86113 -1.11784 0
M  V30 3170 H 305.116 -4.97619 -3.47074 0
M  V30 3171 H 303.855 -3.76749 -3.09696 0
M  V30 3172 H 302.86 -5.31879 -1.3923 0
M  V30 3173 H 304.085 -6.55033 -1.79189 0
M  V30 3174 H 302.031 -5.40297 -3.72041 0
M  V30 3175 H 301.948 -6.95725 -2.9581 0
M  V30 3176 H 303.216 -6.62898 -4.10106 0
M  V30 3177 N 307.445 0.0818655 -1.57387 0
M  V30 3178 C 308.691 0.784074 -1.8703 0
M  V30 3179 C 309.024 1.77729 -0.782689 0
M  V30 3180 O 308.299 1.93384 0.208051 0
M  V30 3181 C 308.582 1.50105 -3.27323 0
M  V30 3182 C 308.435 0.524925 -4.46727 0
M  V30 3183 C 309.754 2.44843 -3.65705 0
M  V30 3184 H 306.873 0.283582 -0.680257 0
M  V30 3185 H 309.515 0.0474352 -1.89941 0
M  V30 3186 H 307.665 2.12897 -3.24972 0
M  V30 3187 H 309.337 -0.0970111 -4.61198 0
M  V30 3188 H 307.58 -0.160606 -4.33503 0
M  V30 3189 H 308.251 1.064 -5.41648 0
M  V30 3190 H 310.727 1.92135 -3.69085 0
M  V30 3191 H 309.603 2.92018 -4.64776 0
M  V30 3192 H 309.864 3.29197 -2.95096 0
M  V30 3193 N 308.923 1.53595 0.353017 0
M  V30 3194 C 309.87 1.80919 1.43308 0
M  V30 3195 C 310.84 0.654288 1.5267 0
M  V30 3196 O 312.025 0.897759 1.6836 0
M  V30 3197 C 309.165 2.01605 2.80089 0
M  V30 3198 C 308.278 3.29321 2.79593 0
M  V30 3199 C 307.413 3.40125 4.0803 0
M  V30 3200 C 306.452 4.61826 4.01725 0
M  V30 3201 N 305.589 4.69716 5.21834 0
M  V30 3202 H 310.429 2.73074 1.19308 0
M  V30 3203 H 307.966 1.35263 0.578131 0
M  V30 3204 H 309.924 2.11586 3.59565 0
M  V30 3205 H 308.554 1.12772 3.0246 0
M  V30 3206 H 307.606 3.28229 1.92276 0
M  V30 3207 H 308.918 4.18884 2.70809 0
M  V30 3208 H 308.072 3.49488 4.95927 0
M  V30 3209 H 306.811 2.48601 4.19582 0
M  V30 3210 H 305.816 4.52552 3.12213 0
M  V30 3211 H 307.041 5.54705 3.91764 0
M  V30 3212 H 304.987 3.81097 5.33948 0
M  V30 3213 H 304.904 5.53202 5.1527 0
M  V30 3214 H 306.172 4.83376 6.11529 0
M  V30 3215 N 310.401 -0.613514 1.45168 0
M  V30 3216 C 311.364 -1.7065 1.53007 0
M  V30 3217 C 312.364 -1.5548 0.410184 0
M  V30 3218 O 313.554 -1.60656 0.673455 0
M  V30 3219 C 310.686 -3.09875 1.42093 0
M  V30 3220 H 311.879 -1.65068 2.50385 0
M  V30 3221 H 309.432 -0.828728 1.32521 0
M  V30 3222 H 310.167 -3.21039 0.458769 0
M  V30 3223 H 309.952 -3.22293 2.23315 0
M  V30 3224 H 311.442 -3.895 1.50598 0
M  V30 3225 N 311.879 -1.3236 -0.855495 0
M  V30 3226 C 312.826 -1.21225 -1.964 0
M  V30 3227 C 313.796 -0.0946204 -1.6583 0
M  V30 3228 O 314.981 -0.27002 -1.8888 0
M  V30 3229 C 312.121 -0.940419 -3.32039 0
M  V30 3230 C 311.234 -2.14276 -3.75113 0
M  V30 3231 C 310.369 -1.80648 -4.9954 0
M  V30 3232 C 309.408 -2.97208 -5.35102 0
M  V30 3233 N 308.545 -2.63678 -6.50706 0
M  V30 3234 H 313.385 -2.16042 -2.05255 0
M  V30 3235 H 310.922 -1.07451 -1.00463 0
M  V30 3236 H 312.88 -0.763311 -4.10158 0
M  V30 3237 H 311.51 -0.0290413 -3.22787 0
M  V30 3238 H 310.562 -2.43017 -2.92655 0
M  V30 3239 H 311.874 -3.01468 -3.97389 0
M  V30 3240 H 311.028 -1.59484 -5.85363 0
M  V30 3241 H 309.767 -0.906678 -4.79198 0
M  V30 3242 H 308.772 -3.19004 -4.47791 0
M  V30 3243 H 309.997 -3.87918 -5.57401 0
M  V30 3244 H 307.943 -1.76238 -6.31883 0
M  V30 3245 H 307.86 -3.444 -6.72997 0
M  V30 3246 H 309.128 -2.45942 -7.39684 0
M  V30 3247 N 313.357 1.07166 -1.15556 0
M  V30 3248 C 314.604 1.79798 -0.931604 0
M  V30 3249 C 314.932 1.8682 0.54115 0
M  V30 3250 O 314.187 1.34942 1.41736 0
M  V30 3251 C 314.486 3.24707 -1.49332 0
M  V30 3252 C 314.152 3.37781 -2.98688 0
M  V30 3253 C 312.814 3.41057 -3.39461 0
M  V30 3254 C 315.166 3.40424 -3.94665 0
M  V30 3255 C 312.494 3.4458 -4.74849 0
M  V30 3256 C 314.846 3.45485 -5.29927 0
M  V30 3257 C 313.51 3.47039 -5.70193 0
M  V30 3258 H 312.78 0.657928 -0.340898 0
M  V30 3259 H 315.427 1.26091 -1.44129 0
M  V30 3260 H 313.732 3.81208 -0.904859 0
M  V30 3261 H 315.429 3.79486 -1.29582 0
M  V30 3262 H 312.019 3.35932 -2.66172 0
M  V30 3263 H 316.203 3.37113 -3.64237 0
M  V30 3264 H 311.459 3.44083 -5.05388 0
M  V30 3265 H 315.633 3.46476 -6.04092 0
M  V30 3266 H 313.26 3.49522 -6.75084 0
M  V30 3267 N 314.835 0.952656 1.25548 0
M  V30 3268 C 316.246 0.647392 1.75116 0
M  V30 3269 C 316.597 -0.837274 1.77438 0
M  V30 3270 O 315.722 -1.65525 1.39393 0
M  V30 3271 C 316.317 1.16845 3.18014 0
M  V30 3272 C 314.876 0.913382 3.6515 0
M  V30 3273 C 314.023 1.31265 2.44264 0
M  V30 3274 H 316.974 1.12968 1.11462 0
M  V30 3275 H 316.995 0.527606 3.76824 0
M  V30 3276 H 316.507 2.24902 3.16292 0
M  V30 3277 H 314.608 -0.152316 3.72289 0
M  V30 3278 H 314.721 1.54845 4.53387 0
M  V30 3279 H 313.085 0.731028 2.43984 0
M  V30 3280 H 313.868 2.40239 2.45234 0
M  V30 3281 N 316.313 -1.40141 0.720998 0
M  V30 3282 C 317.538 -2.05618 0.271258 0
M  V30 3283 C 317.963 -1.53978 -1.08039 0
M  V30 3284 O 317.321 -0.677463 -1.68167 0
M  V30 3285 C 317.369 -3.59609 0.267197 0
M  V30 3286 O 316.473 -4.05526 -0.749814 0
M  V30 3287 H 315.814 -0.651904 0.126162 0
M  V30 3288 H 318.344 -1.79439 0.982997 0
M  V30 3289 H 318.354 -4.0786 0.106744 0
M  V30 3290 H 317.029 -3.96559 1.25354 0
M  V30 3291 H 315.606 -3.68722 -0.556644 0
M  V30 3292 N 317.792 -0.46758 -1.50504 0
M  V30 3293 C 318.755 0.317059 -2.26996 0
M  V30 3294 C 319.755 0.923513 -1.31635 0
M  V30 3295 O 320.945 0.793239 -1.55091 0
M  V30 3296 C 318.077 1.45134 -3.08462 0
M  V30 3297 H 319.27 -0.353723 -2.97807 0
M  V30 3298 H 316.823 -0.221545 -1.54722 0
M  V30 3299 H 317.558 2.15728 -2.4214 0
M  V30 3300 H 317.343 1.02232 -3.78538 0
M  V30 3301 H 318.833 2.00493 -3.66323 0
M  V30 3302 N 319.27 1.56325 -0.20005 0
M  V30 3303 C 320.686 1.58839 0.155716 0
M  V30 3304 C 320.886 1.21636 1.60645 0
M  V30 3305 O 319.942 0.941437 2.34293 0
M  V30 3306 C 321.255 3.0032 -0.151124 0
M  V30 3307 C 322.803 3.12866 -0.0916284 0
M  V30 3308 C 323.278 4.56488 -0.371845 0
M  V30 3309 N 324.769 4.62089 -0.320641 0
M  V30 3310 C 325.504 5.71116 -0.511243 0
M  V30 3311 N 325 6.88592 -0.762461 0
M  V30 3312 N 326.793 5.60335 -0.445157 0
M  V30 3313 H 318.944 1.78788 -1.14668 0
M  V30 3314 H 321.207 0.829996 -0.458051 0
M  V30 3315 H 320.913 3.32117 -1.15721 0
M  V30 3316 H 320.787 3.73257 0.543986 0
M  V30 3317 H 323.174 2.80878 0.905065 0
M  V30 3318 H 323.255 2.42304 -0.81989 0
M  V30 3319 H 322.899 4.89189 -1.36588 0
M  V30 3320 H 322.829 5.25246 0.377362 0
M  V30 3321 H 325.32 3.77665 -0.13329 0
M  V30 3322 H 325.633 7.67581 -0.896576 0
M  V30 3323 H 323.978 6.90387 -0.799412 0
M  V30 3324 H 327.169 4.67436 -0.249278 0
M  V30 3325 H 327.342 6.45243 -0.597116 0
M  V30 3326 N 320.748 -0.0735177 1.57428 0
M  V30 3327 C 321.978 -0.78483 1.91112 0
M  V30 3328 C 322.386 -1.71729 0.7941 0
M  V30 3329 O 321.729 -1.82105 -0.241542 0
M  V30 3330 C 321.791 -1.63346 3.20247 0
M  V30 3331 C 321.455 -0.870557 4.48632 0
M  V30 3332 C 322.452 -0.19058 5.19551 0
M  V30 3333 C 320.137 -0.838242 4.95256 0
M  V30 3334 C 322.131 0.511503 6.35344 0
M  V30 3335 C 319.818 -0.132386 6.10957 0
M  V30 3336 C 320.816 0.541288 6.80852 0
M  V30 3337 O 320.504 1.23578 7.94345 0
M  V30 3338 H 320.236 -0.228408 0.636244 0
M  V30 3339 H 322.79 -0.0486039 2.05342 0
M  V30 3340 H 321.02 -2.41245 3.02222 0
M  V30 3341 H 322.709 -2.22329 3.39595 0
M  V30 3342 H 323.475 -0.206864 4.84559 0
M  V30 3343 H 319.354 -1.35206 4.40727 0
M  V30 3344 H 322.898 1.03789 6.89836 0
M  V30 3345 H 318.795 -0.114023 6.45399 0
M  V30 3346 H 319.563 1.14487 8.10454 0
M  V30 3347 N 322.226 -1.5378 -0.344866 0
M  V30 3348 C 323.472 -1.71216 -1.08687 0
M  V30 3349 C 323.805 -0.473281 -1.88345 0
M  V30 3350 O 323.08 0.52968 -1.87149 0
M  V30 3351 C 323.363 -2.97486 -2.02914 0
M  V30 3352 C 323.216 -4.31579 -1.26727 0
M  V30 3353 C 324.535 -3.19422 -3.0275 0
M  V30 3354 H 321.654 -0.62301 -0.393735 0
M  V30 3355 H 324.296 -1.8645 -0.365563 0
M  V30 3356 H 322.446 -2.84629 -2.64421 0
M  V30 3357 H 324.118 -4.56284 -0.67845 0
M  V30 3358 H 322.361 -4.30049 -0.569273 0
M  V30 3359 H 323.032 -5.16106 -1.95803 0
M  V30 3360 H 325.508 -3.316 -2.51357 0
M  V30 3361 H 324.384 -4.09169 -3.65885 0
M  V30 3362 H 324.645 -2.35656 -3.74057 0
M  V30 3363 N 323.704 0.605807 -1.45491 0
M  V30 3364 C 324.95 1.36679 -1.49823 0
M  V30 3365 C 325.283 1.93693 -0.140175 0
M  V30 3366 O 324.558 1.75158 0.845581 0
M  V30 3367 C 324.841 2.51337 -2.57879 0
M  V30 3368 C 324.694 1.99508 -4.03134 0
M  V30 3369 C 326.013 3.53463 -2.62205 0
M  V30 3370 H 323.132 0.495617 -0.545466 0
M  V30 3371 H 325.774 0.682732 -1.7731 0
M  V30 3372 H 323.924 3.09691 -2.34571 0
M  V30 3373 H 325.596 1.45789 -4.37656 0
M  V30 3374 H 323.839 1.30496 -4.13707 0
M  V30 3375 H 324.51 2.82169 -4.74431 0
M  V30 3376 H 326.986 3.04953 -2.83095 0
M  V30 3377 H 325.862 4.31178 -3.39672 0
M  V30 3378 H 326.123 4.09197 -1.67363 0
M  V30 3379 N 325.182 1.32811 0.848464 0
M  V30 3380 C 326.593 1.21315 1.41914 0
M  V30 3381 C 326.944 -0.171847 1.95446 0
M  V30 3382 O 326.069 -1.07093 1.88043 0
M  V30 3383 C 326.664 2.19631 2.57968 0
M  V30 3384 C 325.223 2.12003 3.11017 0
M  V30 3385 C 324.37 2.07651 1.83783 0
M  V30 3386 H 327.321 1.44549 0.655071 0
M  V30 3387 H 327.342 1.79845 3.35315 0
M  V30 3388 H 326.854 3.20423 2.18976 0
M  V30 3389 H 324.955 1.14481 3.54577 0
M  V30 3390 H 325.068 3.02111 3.71841 0
M  V30 3391 H 323.432 1.52983 2.03638 0
M  V30 3392 H 324.215 3.10235 1.47 0
M  V30 3393 N 326.66 -1.06551 1.16123 0
M  V30 3394 C 327.908 -1.78947 0.939267 0
M  V30 3395 C 328.229 -1.87532 -0.534476 0
M  V30 3396 O 327.499 -1.38211 -1.38833 0
M  V30 3397 H 326.079 -0.662807 0.344523 0
M  V30 3398 H 328.741 -1.28725 1.46342 0
M  V30 3399 H 327.837 -2.81117 1.35572 0
M  V30 3400 N 328.138 -0.959301 -1.25041 0
M  V30 3401 C 329.088 -0.453888 -2.23436 0
M  V30 3402 C 330.072 0.459461 -1.542 0
M  V30 3403 O 331.264 0.291752 -1.74579 0
M  V30 3404 C 328.393 0.262667 -3.42294 0
M  V30 3405 C 327.479 -0.669022 -4.1879 0
M  V30 3406 N 327.87 -1.80267 -4.72586 0
M  V30 3407 C 326.168 -0.47814 -4.4343 0
M  V30 3408 C 326.869 -2.38475 -5.3057 0
M  V30 3409 N 325.845 -1.67078 -5.17287 0
M  V30 3410 H 329.647 -1.319 -2.6264 0
M  V30 3411 H 327.161 -0.817358 -1.40332 0
M  V30 3412 H 329.158 0.641911 -4.11929 0
M  V30 3413 H 327.818 1.12432 -3.04613 0
M  V30 3414 H 328.829 -2.18442 -4.69578 0
M  V30 3415 H 325.506 0.340249 -4.16111 0
M  V30 3416 H 326.896 -3.34094 -5.8295 0
M  V30 3417 N 329.616 1.39756 -0.72842 0
M  V30 3418 C 330.864 2.00248 -0.272946 0
M  V30 3419 C 331.185 1.58077 1.14178 0
M  V30 3420 O 330.455 0.826014 1.77634 0
M  V30 3421 H 329.035 0.740554 -0.0979247 0
M  V30 3422 H 331.697 1.70903 -0.936912 0
M  V30 3423 H 330.793 3.10495 -0.316142 0
M  V30 3424 N 331.094 0.475555 1.50254 0
M  V30 3425 C 332.371 -0.139685 1.95101 0
M  V30 3426 C 332.751 -1.56555 1.41611 0
M  V30 3427 O 332.099 -2.19956 0.618993 0
M  V30 3428 C 332.309 -0.0784298 3.48912 0
M  V30 3429 C 333.657 -0.265095 4.23772 0
M  V30 3430 O 334.681 -0.154808 3.55863 0
M  V30 3431 O 333.54 -0.488327 5.44314 0
M  V30 3432 H 330.634 -0.109236 0.819754 0
M  V30 3433 H 333.18 0.536276 1.61004 0
M  V30 3434 H 331.952 0.916918 3.80405 0
M  V30 3435 H 331.575 -0.795655 3.89558 0
M  V30 3436 N 332.573 -1.56217 0.208337 0
M  V30 3437 C 333.803 -2.02043 -0.431523 0
M  V30 3438 C 334.211 -1.08755 -1.54819 0
M  V30 3439 O 333.554 -0.0870009 -1.83494 0
M  V30 3440 C 333.616 -3.44239 -1.03633 0
M  V30 3441 C 333.28 -4.56965 -0.0567502 0
M  V30 3442 C 334.277 -5.14624 0.738773 0
M  V30 3443 C 331.962 -5.02266 0.0581736 0
M  V30 3444 C 333.956 -6.16045 1.63605 0
M  V30 3445 C 331.643 -6.03528 0.959001 0
M  V30 3446 C 332.641 -6.60293 1.7465 0
M  V30 3447 O 332.329 -7.59586 2.6322 0
M  V30 3448 H 332.061 -0.666772 -0.111313 0
M  V30 3449 H 334.615 -2.02919 0.318277 0
M  V30 3450 H 332.845 -3.40391 -1.83497 0
M  V30 3451 H 334.534 -3.73793 -1.58221 0
M  V30 3452 H 335.3 -4.80483 0.660364 0
M  V30 3453 H 331.179 -4.57771 -0.544633 0
M  V30 3454 H 334.723 -6.60279 2.25116 0
M  V30 3455 H 330.62 -6.37092 1.03848 0
M  V30 3456 H 331.388 -7.77057 2.57148 0
M  V30 3457 N 334.051 0.0651679 -1.57465 0
M  V30 3458 C 335.299 0.761555 -1.87202 0
M  V30 3459 C 335.62 1.77778 -0.801243 0
M  V30 3460 O 334.89 1.95166 0.16937 0
M  V30 3461 H 333.47 0.284251 -0.690804 0
M  V30 3462 H 336.132 0.0396827 -1.9486 0
M  V30 3463 H 335.228 1.27365 -2.84929 0
M  V30 3464 N 335.529 1.53961 0.336706 0
M  V30 3465 C 336.777 1.71197 1.07405 0
M  V30 3466 C 337.098 0.481475 1.88962 0
M  V30 3467 O 336.368 -0.504585 1.8929 0
M  V30 3468 H 334.948 0.631185 0.399517 0
M  V30 3469 H 337.61 1.91232 0.376323 0
M  V30 3470 H 336.706 2.58587 1.74755 0
M  V30 3471 N 337.007 -0.598083 1.45811 0
M  V30 3472 C 338.235 -1.38322 1.53866 0
M  V30 3473 C 338.65 -1.87992 0.174479 0
M  V30 3474 O 338.007 -1.62756 -0.825627 0
M  V30 3475 C 338.058 -2.58125 2.53089 0
M  V30 3476 O 337.779 -2.10516 3.84206 0
M  V30 3477 C 339.28 -3.50869 2.70935 0
M  V30 3478 H 336.5 -0.423093 0.520801 0
M  V30 3479 H 339.044 -0.728527 1.91083 0
M  V30 3480 H 337.199 -3.19615 2.18917 0
M  V30 3481 H 337.613 -2.88425 4.38077 0
M  V30 3482 H 339.087 -4.31451 3.44317 0
M  V30 3483 H 339.564 -4.01822 1.77301 0
M  V30 3484 H 340.17 -2.95225 3.06141 0
M  V30 3485 N 338.485 -1.33259 -0.841409 0
M  V30 3486 C 339.395 -1.25332 -1.98316 0
M  V30 3487 C 340.411 -0.164364 -1.73222 0
M  V30 3488 O 341.587 -0.387486 -1.97637 0
M  V30 3489 C 338.652 -0.990078 -3.32262 0
M  V30 3490 C 337.713 -2.16879 -3.70489 0
M  V30 3491 C 336.946 -1.91801 -4.98044 0
M  V30 3492 O 337.169 -0.867075 -5.63771 0
M  V30 3493 O 336.103 -2.78267 -5.33714 0
M  V30 3494 H 339.929 -2.21344 -2.07944 0
M  V30 3495 H 337.514 -1.1328 -0.974058 0
M  V30 3496 H 339.396 -0.860321 -4.12524 0
M  V30 3497 H 338.071 -0.0602155 -3.23644 0
M  V30 3498 H 336.978 -2.35407 -2.90748 0
M  V30 3499 H 338.311 -3.0819 -3.8377 0
M  V30 3500 N 339.963 1.05934 -1.16686 0
M  V30 3501 C 340.893 2.1546 -0.899949 0
M  V30 3502 C 341.874 1.69391 0.155154 0
M  V30 3503 O 343.059 1.94199 0.00648693 0
M  V30 3504 C 340.189 3.44939 -0.404241 0
M  V30 3505 C 339.143 4.04536 -1.39767 0
M  V30 3506 C 338.469 5.29268 -0.760216 0
M  V30 3507 C 339.769 4.42893 -2.76845 0
M  V30 3508 H 341.463 2.38046 -1.81588 0
M  V30 3509 H 339.009 1.14404 -0.874514 0
M  V30 3510 H 340.962 4.20901 -0.204971 0
M  V30 3511 H 339.686 3.21983 0.547206 0
M  V30 3512 H 338.345 3.30635 -1.58355 0
M  V30 3513 H 337.993 5.02611 0.197831 0
M  V30 3514 H 337.693 5.70101 -1.42332 0
M  V30 3515 H 339.217 6.07924 -0.57105 0
M  V30 3516 H 340.631 5.09921 -2.62019 0
M  V30 3517 H 339.028 4.94721 -3.39663 0
M  V30 3518 H 340.098 3.53584 -3.31823 0
M  V30 3519 N 341.441 0.965919 1.2453 0
M  V30 3520 C 342.69 0.622437 1.91856 0
M  V30 3521 C 343.003 -0.846006 1.76358 0
M  V30 3522 O 344.209 -1.29993 2.38357 0
M  V30 3523 C 342.665 1.0626 3.43856 0
M  V30 3524 C 342.273 2.55437 3.68043 0
M  V30 3525 C 344.017 0.792183 4.17043 0
M  V30 3526 C 341.924 2.93196 5.13605 0
M  V30 3527 H 340.854 0.229092 0.718354 0
M  V30 3528 H 343.505 1.17189 1.41206 0
M  V30 3529 H 341.887 0.441476 3.93531 0
M  V30 3530 H 343.061 3.22665 3.28974 0
M  V30 3531 H 341.376 2.8007 3.08139 0
M  V30 3532 H 343.973 1.05031 5.24283 0
M  V30 3533 H 344.316 -0.271584 4.15413 0
M  V30 3534 H 344.849 1.37419 3.73311 0
M  V30 3535 H 341.588 3.98636 5.20355 0
M  V30 3536 H 341.108 2.30651 5.53679 0
M  V30 3537 H 342.787 2.83004 5.81823 0
M  V30 3538 N 342.919 -1.39368 0.735821 0
M  V30 3539 C 343.829 -2.34395 0.0979693 0
M  V30 3540 C 344.845 -1.58361 -0.720968 0
M  V30 3541 O 346.021 -1.90648 -0.649245 0
M  V30 3542 C 343.086 -3.37393 -0.797916 0
M  V30 3543 C 342.147 -4.29287 0.0333662 0
M  V30 3544 C 341.38 -5.27365 -0.819854 0
M  V30 3545 O 341.603 -5.31959 -2.05855 0
M  V30 3546 O 340.537 -6.01389 -0.248079 0
M  V30 3547 H 344.363 -2.90601 0.882315 0
M  V30 3548 H 341.948 -1.40909 0.4965 0
M  V30 3549 H 343.83 -4.00505 -1.31048 0
M  V30 3550 H 342.505 -2.83571 -1.56106 0
M  V30 3551 H 341.412 -3.69395 0.591475 0
M  V30 3552 H 342.745 -4.86317 0.758752 0
M  V30 3553 N 344.397 -0.483516 -1.5 0
M  V30 3554 C 345.347 0.32306 -2.257 0
M  V30 3555 C 346.331 0.950755 -1.29805 0
M  V30 3556 O 347.523 0.861247 -1.54634 0
M  V30 3557 C 344.652 1.39724 -3.13579 0
M  V30 3558 C 343.738 0.776663 -4.16928 0
M  V30 3559 N 344.129 -0.1104 -5.0568 0
M  V30 3560 C 342.427 1.03922 -4.33724 0
M  V30 3561 C 343.128 -0.46387 -5.79848 0
M  V30 3562 N 342.104 0.163987 -5.43353 0
M  V30 3563 H 345.906 -0.360086 -2.91686 0
M  V30 3564 H 343.42 -0.298456 -1.59634 0
M  V30 3565 H 345.417 1.98837 -3.66428 0
M  V30 3566 H 344.077 2.08225 -2.49143 0
M  V30 3567 H 345.088 -0.480069 -5.1567 0
M  V30 3568 H 341.765 1.71829 -3.80501 0
M  V30 3569 H 343.155 -1.18854 -6.61304 0
M  V30 3570 N 345.875 1.56104 -0.216619 0
M  V30 3571 C 347.103 2.02563 0.421413 0
M  V30 3572 C 347.518 1.0965 1.53695 0
M  V30 3573 O 346.875 0.10521 1.82196 0
M  V30 3574 C 346.926 3.48584 0.957665 0
M  V30 3575 O 346.647 4.37953 -0.113389 0
M  V30 3576 C 348.148 4.10664 1.66943 0
M  V30 3577 H 345.368 0.662944 0.103665 0
M  V30 3578 H 347.912 2.01793 -0.331629 0
M  V30 3579 H 346.067 3.49985 1.661 0
M  V30 3580 H 346.481 5.23704 0.288932 0
M  V30 3581 H 347.955 5.14622 1.99671 0
M  V30 3582 H 348.432 3.55373 2.58083 0
M  V30 3583 H 349.038 4.13098 1.01142 0
M  V30 3584 N 347.353 -0.0568162 1.57498 0
M  V30 3585 C 348.3 -1.06591 2.04712 0
M  V30 3586 C 349.27 -1.3758 0.930644 0
M  V30 3587 O 350.455 -1.48392 1.19935 0
M  V30 3588 C 347.595 -2.3701 2.50839 0
M  V30 3589 C 346.708 -2.12421 3.76167 0
M  V30 3590 C 345.843 -3.36511 4.11015 0
M  V30 3591 C 344.882 -3.07353 5.2934 0
M  V30 3592 N 344.019 -4.23816 5.59754 0
M  V30 3593 H 348.859 -0.65631 2.90683 0
M  V30 3594 H 346.396 -0.312481 1.43743 0
M  V30 3595 H 348.354 -3.13175 2.7564 0
M  V30 3596 H 346.984 -2.75744 1.67825 0
M  V30 3597 H 346.036 -1.2688 3.58616 0
M  V30 3598 H 347.348 -1.86894 4.62463 0
M  V30 3599 H 346.502 -4.21062 4.36797 0
M  V30 3600 H 345.241 -3.65128 3.23315 0
M  V30 3601 H 344.246 -2.212 5.03339 0
M  V30 3602 H 345.471 -2.80043 6.1867 0
M  V30 3603 H 343.417 -4.52436 4.75014 0
M  V30 3604 H 343.334 -4.01614 6.40501 0
M  V30 3605 H 344.602 -5.0932 5.90096 0
M  V30 3606 N 348.832 -1.54138 -0.328536 0
M  V30 3607 C 349.764 -1.79509 -1.4251 0
M  V30 3608 C 350.777 -0.67688 -1.48061 0
M  V30 3609 O 351.966 -0.953898 -1.50874 0
M  V30 3610 C 349.066 -1.89337 -2.81078 0
M  V30 3611 C 348.239 -3.19443 -2.98789 0
M  V30 3612 C 347.298 -3.20036 -4.17688 0
M  V30 3613 O 346.324 -3.93697 -4.11086 0
M  V30 3614 N 347.526 -2.43467 -5.26976 0
M  V30 3615 H 350.291 -2.74139 -1.21111 0
M  V30 3616 H 347.852 -1.53373 -0.518499 0
M  V30 3617 H 349.844 -1.87167 -3.58818 0
M  V30 3618 H 348.414 -1.01826 -2.95551 0
M  V30 3619 H 347.634 -3.34614 -2.08391 0
M  V30 3620 H 348.922 -4.05354 -3.07515 0
M  V30 3621 H 348.32 -1.83201 -5.35214 0
M  V30 3622 H 346.877 -2.4708 -6.03154 0
M  V30 3623 N 350.31 0.590341 -1.46126 0
M  V30 3624 C 351.559 1.34499 -1.50309 0
M  V30 3625 C 351.872 1.94977 -0.156021 0
M  V30 3626 O 353.078 2.71395 -0.0756037 0
M  V30 3627 C 351.534 2.43723 -2.64815 0
M  V30 3628 C 351.142 1.89582 -4.0591 0
M  V30 3629 C 352.886 3.20579 -2.78262 0
M  V30 3630 C 350.793 2.9639 -5.11769 0
M  V30 3631 H 349.723 0.505593 -0.559368 0
M  V30 3632 H 352.374 0.630848 -1.72315 0
M  V30 3633 H 350.756 3.17902 -2.36124 0
M  V30 3634 H 351.93 1.21997 -4.44357 0
M  V30 3635 H 350.245 1.25418 -3.97063 0
M  V30 3636 H 352.842 4.00276 -3.54519 0
M  V30 3637 H 353.185 3.72684 -1.85505 0
M  V30 3638 H 353.718 2.53505 -3.06562 0
M  V30 3639 H 350.457 2.49181 -6.06291 0
M  V30 3640 H 349.977 3.62487 -4.77873 0
M  V30 3641 H 351.656 3.60474 -5.37278 0
M  V30 3642 N 351.788 1.33704 0.83433 0
M  V30 3643 C 353.034 1.25603 1.59222 0
M  V30 3644 C 353.367 -0.176659 1.93395 0
M  V30 3645 O 352.642 -1.11915 1.59076 0
M  V30 3646 C 352.925 2.13576 2.89926 0
M  V30 3647 C 352.778 3.65326 2.62406 0
M  V30 3648 C 354.097 2.01238 3.91397 0
M  V30 3649 H 351.216 0.457613 0.577719 0
M  V30 3650 H 353.858 1.63848 0.961972 0
M  V30 3651 H 352.008 1.8109 3.43713 0
M  V30 3652 H 353.68 4.08124 2.15017 0
M  V30 3653 H 351.923 3.8698 1.96033 0
M  V30 3654 H 352.594 4.22232 3.55562 0
M  V30 3655 H 355.07 2.29738 3.46929 0
M  V30 3656 H 353.946 2.65036 4.80673 0
M  V30 3657 H 354.207 0.985951 4.30966 0
M  V30 3658 N 353.266 -1.05314 1.17247 0
M  V30 3659 C 354.214 -2.15137 0.884238 0
M  V30 3660 C 355.208 -1.68729 -0.15063 0
M  V30 3661 O 356.414 -1.8 -0.00366673 0
M  V30 3662 H 352.789 -0.702471 0.2684 0
M  V30 3663 H 354.76 -2.36652 1.81764 0
M  V30 3664 C 353.509 -3.45243 0.412659 0
M  V30 3665 H 352.832 -3.81352 1.20043 0
M  V30 3666 H 354.272 -4.23263 0.249858 0
M  V30 3667 C 352.731 -3.25487 -0.86948 0
M  V30 3668 O 353.261 -3.51938 -1.93655 0
M  V30 3669 N 351.467 -2.78875 -0.817147 0
M  V30 3670 H 351.014 -2.57549 0.0514211 0
M  V30 3671 H 350.972 -2.66036 -1.67547 0
M  V30 3672 N 354.744 -0.972509 -1.24016 0
M  V30 3673 C 355.676 -0.464375 -2.24446 0
M  V30 3674 C 356.689 0.4295 -1.57032 0
M  V30 3675 O 357.878 0.234902 -1.76948 0
M  V30 3676 C 354.978 0.348385 -3.37105 0
M  V30 3677 C 354.151 -0.53673 -4.34094 0
M  V30 3678 C 353.21 0.220838 -5.25736 0
M  V30 3679 O 352.236 -0.386867 -5.67884 0
M  V30 3680 N 353.438 1.50907 -5.60542 0
M  V30 3681 H 356.203 -1.32788 -2.68677 0
M  V30 3682 H 353.764 -0.844877 -1.38107 0
M  V30 3683 H 355.756 0.863341 -3.95384 0
M  V30 3684 H 354.326 1.11285 -2.92121 0
M  V30 3685 H 353.546 -1.23261 -3.74433 0
M  V30 3686 H 354.834 -1.14022 -4.95859 0
M  V30 3687 H 354.232 2.02444 -5.28236 0
M  V30 3688 H 352.789 1.96962 -6.21329 0
M  V30 3689 N 356.222 1.38976 -0.743202 0
M  V30 3690 C 357.452 2.04339 -0.304807 0
M  V30 3691 C 357.86 1.56162 1.06819 0
M  V30 3692 O 357.203 0.725284 1.68776 0
M  V30 3693 C 357.265 3.58716 -0.237369 0
M  V30 3694 C 356.929 4.29905 -1.55018 0
M  V30 3695 C 357.926 4.55987 -2.49744 0
M  V30 3696 C 355.611 4.68294 -1.81675 0
M  V30 3697 C 357.605 5.19478 -3.69353 0
M  V30 3698 C 355.292 5.31512 -3.0156 0
M  V30 3699 C 356.29 5.57037 -3.9522 0
M  V30 3700 O 355.978 6.18941 -5.12998 0
M  V30 3701 H 355.71 0.663439 -0.12971 0
M  V30 3702 H 358.264 1.78852 -1.01001 0
M  V30 3703 H 356.494 3.83133 0.524003 0
M  V30 3704 H 358.183 4.05543 0.170121 0
M  V30 3705 H 358.949 4.26767 -2.30423 0
M  V30 3706 H 354.828 4.47779 -1.09615 0
M  V30 3707 H 358.372 5.39318 -4.42473 0
M  V30 3708 H 354.269 5.60153 -3.20778 0
M  V30 3709 H 355.037 6.37433 -5.13441 0
M  V30 3710 N 357.7 0.491464 1.49741 0
M  V30 3711 C 358.949 -0.0582189 2.01616 0
M  V30 3712 C 359.262 -1.38927 1.3769 0
M  V30 3713 O 360.468 -2.02509 1.80838 0
M  V30 3714 C 358.924 -0.154235 3.59569 0
M  V30 3715 C 358.532 1.1696 4.32463 0
M  V30 3716 C 360.276 -0.65479 4.1942 0
M  V30 3717 C 358.183 1.03627 5.8225 0
M  V30 3718 H 357.113 -0.0255317 0.753568 0
M  V30 3719 H 359.764 0.629445 1.72367 0
M  V30 3720 H 358.146 -0.906138 3.85493 0
M  V30 3721 H 359.32 1.93405 4.18248 0
M  V30 3722 H 357.635 1.60285 3.84315 0
M  V30 3723 H 360.232 -0.771903 5.29099 0
M  V30 3724 H 360.575 -1.65127 3.8215 0
M  V30 3725 H 361.108 0.040304 3.9778 0
M  V30 3726 H 357.847 2.00672 6.24028 0
M  V30 3727 H 357.367 0.312546 5.98985 0
M  V30 3728 H 359.046 0.711114 6.4308 0
M  V30 3729 N 359.178 -1.55987 0.224894 0
M  V30 3730 C 360.088 -2.24066 -0.69511 0
M  V30 3731 C 361.104 -1.24939 -1.21104 0
M  V30 3732 O 362.28 -1.5776 -1.25195 0
M  V30 3733 C 359.345 -2.90983 -1.88493 0
M  V30 3734 C 358.406 -4.05462 -1.41064 0
M  V30 3735 C 357.639 -4.69179 -2.54375 0
M  V30 3736 O 357.862 -4.31895 -3.72589 0
M  V30 3737 O 356.796 -5.58108 -2.25386 0
M  V30 3738 H 360.622 -3.03353 -0.145149 0
M  V30 3739 H 358.207 -1.49399 -0.00569476 0
M  V30 3740 H 360.089 -3.33209 -2.57972 0
M  V30 3741 H 358.764 -2.14653 -2.42293 0
M  V30 3742 H 357.671 -3.67798 -0.683774 0
M  V30 3743 H 359.004 -4.83545 -0.918985 0
M  V30 3744 N 360.656 0.0484629 -1.57525 0
M  V30 3745 C 361.881 0.759177 -1.93006 0
M  V30 3746 C 362.306 1.69125 -0.823317 0
M  V30 3747 O 361.664 1.79931 0.222364 0
M  V30 3748 C 361.712 1.50899 -3.27509 0
M  V30 3749 O 360.816 2.62112 -3.18388 0
M  V30 3750 H 360.157 0.205564 -0.631379 0
M  V30 3751 H 362.687 0.00972959 -2.04598 0
M  V30 3752 H 362.697 1.88317 -3.6194 0
M  V30 3753 H 361.372 0.825269 -4.0763 0
M  V30 3754 H 359.949 2.27379 -2.95556 0
M  V30 3755 N 362.134 1.5431 0.320358 0
M  V30 3756 C 363.362 1.76636 1.07738 0
M  V30 3757 C 363.777 0.51649 1.81598 0
M  V30 3758 O 363.134 -0.512942 1.75143 0
M  V30 3759 C 363.185 2.96158 2.07299 0
M  V30 3760 O 362.906 4.16313 1.36438 0
M  V30 3761 C 364.407 3.3072 2.95193 0
M  V30 3762 H 361.627 0.589597 0.320339 0
M  V30 3763 H 364.171 2.01207 0.36551 0
M  V30 3764 H 362.326 2.73851 2.74016 0
M  V30 3765 H 362.74 4.83565 2.03138 0
M  V30 3766 H 364.214 4.17643 3.60941 0
M  V30 3767 H 364.691 2.48026 3.62463 0
M  V30 3768 H 365.297 3.55117 2.34034 0
M  V30 3769 N 363.613 -0.582584 1.46437 0
M  V30 3770 C 364.838 -1.37168 1.55563 0
M  V30 3771 C 365.263 -1.87061 0.19743 0
M  V30 3772 O 364.621 -1.61572 -0.822451 0
M  V30 3773 C 364.669 -2.53511 2.56446 0
M  V30 3774 O 363.773 -3.54953 2.09958 0
M  V30 3775 H 363.114 -0.408494 0.523477 0
M  V30 3776 H 365.644 -0.706646 1.9201 0
M  V30 3777 H 365.654 -3.00426 2.76058 0
M  V30 3778 H 364.329 -2.16549 3.55076 0
M  V30 3779 H 362.906 -3.14516 2.00334 0
M  V30 3780 N 365.091 -1.34144 -0.827227 0
M  V30 3781 C 366.038 -1.25364 -1.93785 0
M  V30 3782 C 367.008 -0.129774 -1.65592 0
M  V30 3783 O 368.193 -0.310024 -1.88264 0
M  V30 3784 C 365.333 -1.01064 -3.2997 0
M  V30 3785 C 364.446 -2.22185 -3.70484 0
M  V30 3786 C 363.581 -1.91203 -4.95595 0
M  V30 3787 C 362.62 -3.08491 -5.28677 0
M  V30 3788 N 361.757 -2.77421 -6.44967 0
M  V30 3789 H 366.597 -2.20347 -2.00627 0
M  V30 3790 H 364.134 -1.09558 -0.981608 0
M  V30 3791 H 366.092 -0.850139 -4.08446 0
M  V30 3792 H 364.722 -0.0975026 -3.22653 0
M  V30 3793 H 363.774 -2.4917 -2.87434 0
M  V30 3794 H 365.086 -3.0983 -3.90905 0
M  V30 3795 H 364.24 -1.71864 -5.81848 0
M  V30 3796 H 362.979 -1.00812 -4.77167 0
M  V30 3797 H 361.984 -3.28431 -4.40923 0
M  V30 3798 H 363.209 -3.99655 -5.49047 0
M  V30 3799 H 361.155 -1.89601 -6.28003 0
M  V30 3800 H 361.072 -3.58598 -6.6554 0
M  V30 3801 H 362.34 -2.61577 -7.34301 0
M  V30 3802 N 366.569 1.04691 -1.17803 0
M  V30 3803 C 367.98 1.59238 -0.974689 0
M  V30 3804 C 368.331 1.90306 0.477292 0
M  V30 3805 O 367.456 1.68846 1.35352 0
M  V30 3806 C 368.051 2.89318 -1.76296 0
M  V30 3807 C 366.61 3.40506 -1.60414 0
M  V30 3808 C 365.757 2.14172 -1.76141 0
M  V30 3809 H 368.708 0.874395 -1.32439 0
M  V30 3810 H 368.729 3.5944 -1.24833 0
M  V30 3811 H 368.241 2.66675 -2.81968 0
M  V30 3812 H 366.342 3.68175 -0.572519 0
M  V30 3813 H 366.455 4.14753 -2.39827 0
M  V30 3814 H 364.819 2.25176 -1.19028 0
M  V30 3815 H 365.602 1.93992 -2.83235 0
M  V30 3816 O 368.086 1.10799 1.17498 0
M  V30 3817 H 368.777 0.811108 1.759 0
M  V30 END ATOM
M  V30 BEGIN BOND
M  V30 END BOND
M  V30 END CTAB
M  END
$$$$
